drugbank_target|Q7Z3S7 Voltage-dependent calcium channel subunit alpha-2/delta-4 (DB00153; DB00228; DB00421; DB11148; DB13746)
 OpenBabel12092120593D

  0  0  0     0  0            999 V3000
M  V30 BEGIN CTAB
M  V30 COUNTS 17871 18086 0 0 0
M  V30 BEGIN ATOM
M  V30 1 H -0.908 1.98254 -0.117106 0
M  V30 2 N 0 1.576 0 0
M  V30 3 C 0.933 2.03868 1.02534 0
M  V30 4 C 1.911 0.928543 1.3348 0
M  V30 5 O 3.095 1.19667 1.45644 0
M  V30 6 C 0.222 2.43627 2.35294 0
M  V30 7 C -0.732 3.65373 2.2001 0
M  V30 8 S 0.101 5.13292 1.52614 0
M  V30 9 C 1.257 5.56322 2.86805 0
M  V30 10 H 1.49 2.90518 0.631377 0
M  V30 11 H -0.977 1.52953 0.210867 0
M  V30 12 H 0.981 2.67203 3.11629 0
M  V30 13 H -0.358 1.57376 2.7183 0
M  V30 14 H -1.165 3.90944 3.18086 0
M  V30 15 H -1.563 3.418 1.51819 0
M  V30 16 H 0.729 5.58782 3.83104 0
M  V30 17 H 1.672 6.56266 2.65933 0
M  V30 18 H 2.08 4.83886 2.90714 0
M  V30 19 N 1.4781 -0.272755 1.55222 0
M  V30 20 C 2.7241 -1.00581 1.761 0
M  V30 21 C 3.0571 -1.85932 0.560625 0
M  V30 22 O 2.3321 -1.89416 -0.441801 0
M  V30 23 C 2.6151 -1.88816 3.06628 0
M  V30 24 C 2.4681 -1.06457 4.37021 0
M  V30 25 C 3.7871 -2.8752 3.33197 0
M  V30 26 H 0.9061 -0.364244 0.640699 0
M  V30 27 H 3.5481 -0.278189 1.87952 0
M  V30 28 H 1.6981 -2.50856 2.96654 0
M  V30 29 H 3.3701 -0.464863 4.58952 0
M  V30 30 H 1.6131 -0.368043 4.32236 0
M  V30 31 H 2.2841 -1.71514 5.24678 0
M  V30 32 H 4.7601 -2.35615 3.42965 0
M  V30 33 H 3.6361 -3.46399 4.25792 0
M  V30 34 H 3.8971 -3.62657 2.52849 0
M  V30 35 N 2.9562 -1.48159 -0.537278 0
M  V30 36 C 4.1962 -1.57397 -1.30405 0
M  V30 37 C 4.5602 -0.239202 -1.90504 0
M  V30 38 O 5.7612 -0.206528 -2.68005 0
M  V30 39 C 4.0322 -2.6754 -2.36974 0
M  V30 40 S 5.5912 -2.96496 -3.23475 0
M  V30 41 H 2.4092 -0.555577 -0.443684 0
M  V30 42 H 5.0112 -1.85644 -0.612912 0
M  V30 43 H 3.7152 -3.63092 -1.91291 0
M  V30 44 H 3.2462 -2.41172 -3.10805 0
M  V30 45 H 5.2612 -2.35234 -4.36897 0
M  V30 46 N 4.4343 0.785586 -1.36625 0
M  V30 47 C 5.6823 1.54057 -1.30808 0
M  V30 48 C 6.0033 1.94683 0.111157 0
M  V30 49 O 5.2733 1.65241 1.05224 0
M  V30 50 H 3.8533 0.571354 -0.481211 0
M  V30 51 H 6.5153 0.935821 -1.70963 0
M  V30 52 H 5.6113 2.44637 -1.93801 0
M  V30 53 N 5.9124 1.20967 1.01018 0
M  V30 54 C 7.1524 1.03511 1.76252 0
M  V30 55 C 7.5164 -0.42458 1.87247 0
M  V30 56 O 8.7174 -0.719508 2.58991 0
M  V30 57 C 6.9884 1.70726 3.13986 0
M  V30 58 S 8.5474 1.68458 4.05176 0
M  V30 59 H 5.3654 0.371037 0.606508 0
M  V30 60 H 7.9674 1.53628 1.20908 0
M  V30 61 H 6.6714 2.76128 3.03614 0
M  V30 62 H 6.2024 1.20767 3.74405 0
M  V30 63 H 8.2174 0.721987 4.90919 0
M  V30 64 N 7.3905 -1.2043 1.01659 0
M  V30 65 C 8.6155 -1.94318 0.724942 0
M  V30 66 C 9.0405 -1.74266 -0.708034 0
M  V30 67 O 8.3985 -1.03694 -1.48719 0
M  V30 68 C 8.4465 -3.44486 1.06591 0
M  V30 69 O 7.5505 -4.12017 0.177599 0
M  V30 70 H 6.8915 -0.60708 0.26898 0
M  V30 71 H 9.4215 -1.52861 1.35995 0
M  V30 72 H 9.4315 -3.95106 1.01762 0
M  V30 73 H 8.1065 -3.58404 2.10997 0
M  V30 74 H 6.6835 -3.71821 0.283421 0
M  V30 75 N 8.8686 -0.792821 -1.36206 0
M  V30 76 C 9.8316 -0.199459 -2.2833 0
M  V30 77 C 10.8316 0.605189 -1.48977 0
M  V30 78 O 12.0216 0.425685 -1.68919 0
M  V30 79 C 9.1536 0.723523 -3.33134 0
M  V30 80 H 10.3466 -1.01181 -2.82316 0
M  V30 81 H 7.8996 -0.562485 -1.45828 0
M  V30 82 H 8.6346 1.56008 -2.84309 0
M  V30 83 H 8.4196 0.148436 -3.91819 0
M  V30 84 H 9.9096 1.13344 -4.01924 0
M  V30 85 N 10.3467 1.47872 -0.545128 0
M  V30 86 C 11.2767 2.32661 0.197793 0
M  V30 87 C 12.2577 1.43041 0.920504 0
M  V30 88 O 13.4427 1.71912 0.90333 0
M  V30 89 C 10.5727 3.24569 1.23582 0
M  V30 90 C 9.5267 4.23333 0.630323 0
M  V30 91 C 8.8527 5.0448 1.77211 0
M  V30 92 C 10.1527 5.20704 -0.407974 0
M  V30 93 H 11.8467 2.95024 -0.510045 0
M  V30 94 H 9.3927 1.4187 -0.246731 0
M  V30 95 H 11.3457 3.8272 1.76362 0
M  V30 96 H 10.0697 2.60236 1.97344 0
M  V30 97 H 8.7287 3.6639 0.123922 0
M  V30 98 H 8.3767 4.36561 2.49847 0
M  V30 99 H 8.0767 5.71339 1.37281 0
M  V30 100 H 9.6007 5.65487 2.3034 0
M  V30 101 H 11.0147 5.7329 0.033305 0
M  V30 102 H 9.4117 5.95699 -0.725486 0
M  V30 103 H 10.4817 4.66917 -1.30828 0
M  V30 104 N 11.8248 0.280983 1.55075 0
M  V30 105 C 12.7548 -0.597469 2.25727 0
M  V30 106 C 13.7358 -1.15417 1.24952 0
M  V30 107 O 14.9208 -1.18722 1.53684 0
M  V30 108 C 12.0508 -1.7789 2.98283 0
M  V30 109 C 11.0048 -1.35347 4.06036 0
M  V30 110 C 10.3308 -2.61846 4.66198 0
M  V30 111 C 11.6308 -0.499354 5.19907 0
M  V30 112 H 13.3248 -0.00824265 2.99399 0
M  V30 113 H 10.8708 -0.0025244 1.44 0
M  V30 114 H 12.8238 -2.39937 3.46422 0
M  V30 115 H 11.5478 -2.39405 2.22155 0
M  V30 116 H 10.2068 -0.756156 3.58717 0
M  V30 117 H 9.8548 -3.21632 3.86732 0
M  V30 118 H 9.5548 -2.3409 5.38958 0
M  V30 119 H 11.0788 -3.24732 5.1709 0
M  V30 120 H 12.4928 -1.02498 5.64063 0
M  V30 121 H 10.8898 -0.316424 5.99265 0
M  V30 122 H 11.9598 0.480459 4.82514 0
M  V30 123 N 13.3029 -1.57598 0.00835791 0
M  V30 124 C 14.7139 -1.7892 -0.53333 0
M  V30 125 C 15.0649 -0.916609 -1.73473 0
M  V30 126 O 14.1899 -0.121336 -2.1606 0
M  V30 127 C 14.7849 -3.24488 -0.974313 0
M  V30 128 C 13.3439 -3.46878 -1.46125 0
M  V30 129 C 12.4909 -2.74157 -0.416302 0
M  V30 130 H 15.4419 -1.56958 0.234495 0
M  V30 131 H 15.4629 -3.3306 -1.83988 0
M  V30 132 H 14.9749 -3.87972 -0.099718 0
M  V30 133 H 13.0759 -2.8862 -2.35646 0
M  V30 134 H 13.1889 -4.55572 -1.48295 0
M  V30 135 H 11.5529 -2.39022 -0.87981 0
M  V30 136 H 12.3359 -3.40345 0.44947 0
M  V30 137 N 14.781 0.264519 -1.55364 0
M  V30 138 C 15.711 1.33121 -1.91836 0
M  V30 139 C 16.692 1.51101 -0.781192 0
M  V30 140 O 17.877 1.64003 -1.04003 0
M  V30 141 C 15.007 2.68921 -2.19769 0
M  V30 142 C 13.961 2.65661 -3.35571 0
M  V30 143 C 13.287 4.05093 -3.49004 0
M  V30 144 C 14.587 2.24187 -4.71739 0
M  V30 145 H 16.281 1.02844 -2.81182 0
M  V30 146 H 13.827 0.493286 -1.35287 0
M  V30 147 H 15.78 3.43663 -2.43872 0
M  V30 148 H 14.504 3.00799 -1.27231 0
M  V30 149 H 13.163 1.93377 -3.1145 0
M  V30 150 H 12.811 4.34206 -2.53917 0
M  V30 151 H 12.511 4.03804 -4.26868 0
M  V30 152 H 14.035 4.81561 -3.75408 0
M  V30 153 H 15.449 2.88654 -4.9533 0
M  V30 154 H 13.846 2.34044 -5.52579 0
M  V30 155 H 14.916 1.19327 -4.69988 0
M  V30 156 N 16.2591 1.48442 0.529413 0
M  V30 157 C 17.6701 1.5002 1.11134 0
M  V30 158 C 18.0211 0.27031 1.94329 0
M  V30 159 O 17.1461 -0.622507 2.07253 0
M  V30 160 C 17.7411 2.71834 2.02217 0
M  V30 161 C 16.3001 2.76283 2.55627 0
M  V30 162 C 15.4471 2.43542 1.326 0
M  V30 163 H 18.3981 1.5555 0.314641 0
M  V30 164 H 18.4191 2.50384 2.8651 0
M  V30 165 H 17.9311 3.61331 1.41639 0
M  V30 166 H 16.0321 1.90995 3.19924 0
M  V30 167 H 16.1451 3.77725 2.94721 0
M  V30 168 H 14.5091 1.94709 1.64196 0
M  V30 169 H 15.2921 3.3528 0.737734 0
M  V30 170 N 17.7372 -0.778329 1.37039 0
M  V30 171 C 18.6852 -1.91278 1.32345 0
M  V30 172 C 19.6792 -1.68051 0.213331 0
M  V30 173 O 20.8852 -1.75922 0.38098 0
M  V30 174 H 17.2602 -0.628909 0.412283 0
M  V30 175 H 19.2312 -1.92355 2.28127 0
M  V30 176 C 17.9802 -3.28455 1.14073 0
M  V30 177 H 17.3032 -3.46901 1.98746 0
M  V30 178 H 18.7432 -4.08152 1.14837 0
M  V30 179 C 17.2022 -3.36548 -0.154015 0
M  V30 180 O 17.7322 -3.85186 -1.13993 0
M  V30 181 N 15.9382 -2.89894 -0.202475 0
M  V30 182 H 15.4852 -2.50504 0.600476 0
M  V30 183 H 15.4432 -2.9569 -1.06841 0
M  V30 184 N 19.2153 -1.21501 -1.00376 0
M  V30 185 C 20.6263 -1.03146 -1.55621 0
M  V30 186 C 20.9773 0.408375 -1.91903 0
M  V30 187 O 20.1023 1.29177 -1.73616 0
M  V30 188 C 20.6973 -1.86612 -2.82775 0
M  V30 189 C 19.2563 -1.72586 -3.34501 0
M  V30 190 C 18.4033 -1.83747 -2.07683 0
M  V30 191 H 21.3543 -1.35505 -0.826081 0
M  V30 192 H 21.3753 -1.3771 -3.54706 0
M  V30 193 H 20.8873 -2.91399 -2.56336 0
M  V30 194 H 18.9883 -0.704877 -3.65872 0
M  V30 195 H 19.1013 -2.54623 -4.05837 0
M  V30 196 H 17.4653 -1.27069 -2.20739 0
M  V30 197 H 18.2483 -2.90044 -1.83655 0
M  V30 198 N 20.6934 1.19889 -1.02296 0
M  V30 199 C 22.1094 1.41462 -0.738954 0
M  V30 200 C 22.3094 1.89721 0.678846 0
M  V30 201 O 21.3654 2.07016 1.4457 0
M  V30 202 C 22.6784 2.43083 -1.77005 0
M  V30 203 C 24.2264 2.5684 -1.78892 0
M  V30 204 C 24.7014 3.61709 -2.80945 0
M  V30 205 N 26.1924 3.69199 -2.79725 0
M  V30 206 C 26.9274 4.50019 -3.55345 0
M  V30 207 N 26.4234 5.34592 -4.40662 0
M  V30 208 N 28.2164 4.44612 -3.43914 0
M  V30 209 H 20.3674 0.868827 -1.93817 0
M  V30 210 H 22.6304 0.44399 -0.837602 0
M  V30 211 H 22.3364 2.14636 -2.78612 0
M  V30 212 H 22.2104 3.4217 -1.58744 0
M  V30 213 H 24.5974 2.84614 -0.779674 0
M  V30 214 H 24.6784 1.57927 -2.01228 0
M  V30 215 H 24.3224 3.34678 -3.82038 0
M  V30 216 H 24.2524 4.60259 -2.5587 0
M  V30 217 H 26.7434 3.08794 -2.17842 0
M  V30 218 H 27.0564 5.93363 -4.95116 0
M  V30 219 H 25.4014 5.34073 -4.44737 0
M  V30 220 H 28.5924 3.7758 -2.76679 0
M  V30 221 H 28.7654 5.0736 -4.031 0
M  V30 222 N 22.1715 0.800033 1.35784 0
M  V30 223 C 23.5825 0.439142 1.81462 0
M  V30 224 C 23.9335 -1.03813 1.66485 0
M  V30 225 O 23.0585 -1.80626 1.19177 0
M  V30 226 C 23.6535 0.790314 3.29453 0
M  V30 227 C 22.2125 0.482111 3.733 0
M  V30 228 C 21.3595 1.01938 2.57883 0
M  V30 229 H 24.3105 0.992254 1.23855 0
M  V30 230 H 24.3315 0.0853677 3.80404 0
M  V30 231 H 23.8435 1.86554 3.40322 0
M  V30 232 H 21.9445 -0.584652 3.67984 0
M  V30 233 H 22.0575 1.01015 4.6833 0
M  V30 234 H 20.4215 0.442043 2.50835 0
M  V30 235 H 21.2045 2.10059 2.71533 0
M  V30 236 N 23.6496 -1.47581 0.552962 0
M  V30 237 C 24.8776 -2.06875 0.0320556 0
M  V30 238 C 25.2926 -1.40625 -1.25976 0
M  V30 239 O 24.6496 -0.501349 -1.75479 0
M  V30 240 C 24.7006 -3.61092 -0.17167 0
M  V30 241 O 24.4216 -4.24858 1.06899 0
M  V30 242 C 25.9226 -4.37242 -0.730344 0
M  V30 243 H 23.1426 -0.669561 0.043915 0
M  V30 244 H 25.6866 -1.89646 0.765163 0
M  V30 245 H 23.8416 -3.7785 -0.854894 0
M  V30 246 H 24.2556 -5.17334 0.864059 0
M  V30 247 H 25.7296 -5.45842 -0.822203 0
M  V30 248 H 26.2066 -4.03235 -1.74064 0
M  V30 249 H 26.8126 -4.25219 -0.0829543 0
M  V30 250 N 25.1277 -0.289203 -1.54924 0
M  V30 251 C 26.0607 0.633823 -2.19221 0
M  V30 252 C 27.0387 1.14174 -1.15772 0
M  V30 253 O 28.2227 1.21211 -1.44361 0
M  V30 254 C 25.3497 1.86592 -2.82668 0
M  V30 255 C 24.3957 1.49227 -3.99542 0
M  V30 256 S 25.2287 0.558312 -5.32582 0
M  V30 257 C 26.3847 1.79847 -5.99505 0
M  V30 258 H 26.6177 0.0875416 -2.97171 0
M  V30 259 H 24.1507 -0.0733899 -1.54225 0
M  V30 260 H 26.1087 2.57305 -3.19851 0
M  V30 261 H 24.7697 2.38335 -2.04585 0
M  V30 262 H 23.9627 2.40945 -4.42676 0
M  V30 263 H 23.5647 0.865193 -3.63855 0
M  V30 264 H 25.8567 2.7406 -6.19595 0
M  V30 265 H 26.7997 1.4099 -6.93922 0
M  V30 266 H 27.2077 1.96982 -5.29016 0
M  V30 267 N 26.6058 1.57591 -0.0167156 0
M  V30 268 C 28.0168 1.79201 0.523834 0
M  V30 269 C 28.3678 0.925796 1.72984 0
M  V30 270 O 27.4928 0.132792 2.15992 0
M  V30 271 C 28.0878 3.25 0.957091 0
M  V30 272 C 26.6468 3.47648 1.44283 0
M  V30 273 C 25.7938 2.74374 0.401757 0
M  V30 274 H 28.7448 1.56831 -0.242816 0
M  V30 275 H 28.7658 3.34031 1.82219 0
M  V30 276 H 28.2778 3.88019 0.0791415 0
M  V30 277 H 26.3788 2.89866 2.34113 0
M  V30 278 H 26.4918 4.56352 1.45877 0
M  V30 279 H 24.8558 2.39485 0.867121 0
M  V30 280 H 25.6388 3.40102 -0.467513 0
M  V30 281 N 28.0839 -0.256276 1.55502 0
M  V30 282 C 29.0469 -1.30047 1.88734 0
M  V30 283 C 30.0469 -1.4154 0.763086 0
M  V30 284 O 31.2369 -1.40403 1.03115 0
M  V30 285 C 28.3689 -2.67953 2.10747 0
M  V30 286 H 29.5619 -1.01802 2.82093 0
M  V30 287 H 27.1149 -0.495134 1.4825 0
M  V30 288 H 27.8499 -3.01351 1.19825 0
M  V30 289 H 27.6349 -2.60993 2.92617 0
M  V30 290 H 29.1249 -3.43368 2.37673 0
M  V30 291 N 29.562 -1.4872 -0.521534 0
M  V30 292 C 30.79 -1.60843 -1.30142 0
M  V30 293 C 31.205 -0.271897 -1.86832 0
M  V30 294 O 30.562 0.739969 -1.66825 0
M  V30 295 C 30.613 -2.66155 -2.4463 0
M  V30 296 O 30.334 -3.94623 -1.90275 0
M  V30 297 C 31.835 -2.88795 -3.36322 0
M  V30 298 H 29.055 -0.542075 -0.395468 0
M  V30 299 H 31.599 -1.94609 -0.628285 0
M  V30 300 H 29.754 -2.35224 -3.07812 0
M  V30 301 H 30.168 -4.52468 -2.65279 0
M  V30 302 H 31.642 -3.66264 -4.12983 0
M  V30 303 H 32.119 -1.97934 -3.9207 0
M  V30 304 H 32.725 -3.21063 -2.78924 0
M  V30 305 N 31.0401 0.771051 -1.3745 0
M  V30 306 C 32.4511 1.34737 -1.29239 0
M  V30 307 C 32.8021 1.96109 0.0596908 0
M  V30 308 O 31.9271 1.93865 0.961534 0
M  V30 309 C 32.5221 2.44973 -2.34037 0
M  V30 310 C 31.0811 2.98372 -2.29458 0
M  V30 311 C 30.2281 1.71595 -2.17831 0
M  V30 312 H 33.1791 0.571256 -1.48062 0
M  V30 313 H 33.2001 3.24471 -1.98744 0
M  V30 314 H 32.7121 2.00276 -3.32432 0
M  V30 315 H 30.8131 3.47443 -1.34589 0
M  V30 316 H 30.9261 3.53939 -3.229 0
M  V30 317 H 29.2901 1.94547 -1.64388 0
M  V30 318 H 30.0731 1.29001 -3.18141 0
M  V30 319 N 32.5182 1.22032 0.997298 0
M  V30 320 C 33.4662 0.983634 2.10778 0
M  V30 321 C 34.4602 -0.0717564 1.69248 0
M  V30 322 O 35.6662 0.080304 1.79821 0
M  V30 323 H 32.0412 0.300877 0.689186 0
M  V30 324 H 34.0122 1.92606 2.27916 0
M  V30 325 C 32.7612 0.57326 3.42942 0
M  V30 326 H 32.0842 1.37702 3.75338 0
M  V30 327 H 33.5242 0.447031 4.21637 0
M  V30 328 C 31.9832 -0.7167 3.29188 0
M  V30 329 O 32.5132 -1.77027 3.60589 0
M  V30 330 N 30.7192 -0.686167 2.82383 0
M  V30 331 H 30.2662 0.171507 2.57028 0
M  V30 332 H 30.2242 -1.54955 2.73562 0
M  V30 333 N 33.9963 -1.19345 1.0293 0
M  V30 334 C 35.2433 -1.89038 0.726008 0
M  V30 335 C 35.5713 -1.79649 -0.745427 0
M  V30 336 O 34.8263 -1.18354 -1.55855 0
M  V30 337 C 35.1253 -3.39292 1.12319 0
M  V30 338 C 34.7913 -3.68885 2.59297 0
M  V30 339 C 33.4533 -3.76671 2.99453 0
M  V30 340 C 35.8053 -3.82178 3.54386 0
M  V30 341 C 33.1333 -3.9522 4.33611 0
M  V30 342 C 35.4853 -4.0224 4.88248 0
M  V30 343 C 34.1493 -4.08259 5.28092 0
M  V30 344 H 33.4193 -0.691739 0.265665 0
M  V30 345 H 36.0663 -1.41328 1.29223 0
M  V30 346 H 34.3713 -3.88903 0.475584 0
M  V30 347 H 36.0683 -3.91536 0.866037 0
M  V30 348 H 32.6583 -3.63433 2.27189 0
M  V30 349 H 36.8423 -3.75505 3.24514 0
M  V30 350 H 32.0983 -3.98119 4.64016 0
M  V30 351 H 36.2723 -4.11468 5.61843 0
M  V30 352 H 33.8993 -4.22384 6.32057 0
M  V30 353 N 35.4744 -0.807222 -1.35358 0
M  V30 354 C 36.4044 -0.232509 -2.3234 0
M  V30 355 C 37.3854 0.642386 -1.57504 0
M  V30 356 O 38.5704 0.572526 -1.85569 0
M  V30 357 C 35.7004 0.619238 -3.41735 0
M  V30 358 C 34.6544 -0.157215 -4.27711 0
M  V30 359 C 33.9804 0.816273 -5.28433 0
M  V30 360 C 35.2804 -1.35656 -5.04376 0
M  V30 361 H 36.9744 -1.04276 -2.80654 0
M  V30 362 H 34.5204 -0.50288 -1.34934 0
M  V30 363 H 36.4734 1.03137 -4.08584 0
M  V30 364 H 35.1974 1.46239 -2.92031 0
M  V30 365 H 33.8564 -0.550525 -3.62443 0
M  V30 366 H 33.5044 1.65494 -4.74996 0
M  V30 367 H 33.2044 0.301067 -5.86828 0
M  V30 368 H 34.7284 1.22659 -5.98153 0
M  V30 369 H 36.1424 -1.01927 -5.64166 0
M  V30 370 H 34.5394 -1.8063 -5.7227 0
M  V30 371 H 35.6094 -2.14288 -4.34981 0
M  V30 372 N 36.9525 1.47285 -0.560781 0
M  V30 373 C 37.9155 2.28535 0.174488 0
M  V30 374 C 38.9155 1.37153 0.839388 0
M  V30 375 O 40.1055 1.59748 0.694702 0
M  V30 376 C 37.2375 3.16934 1.25561 0
M  V30 377 H 38.4305 2.95012 -0.539262 0
M  V30 378 H 35.9835 1.53034 -0.317865 0
M  V30 379 H 36.7185 2.55157 2.00164 0
M  V30 380 H 36.5035 3.8419 0.783604 0
M  V30 381 H 37.9935 3.78143 1.77193 0
M  V30 382 N 38.4306 0.297415 1.54768 0
M  V30 383 C 39.3786 -0.596051 2.24833 0
M  V30 384 C 40.3726 -1.13992 1.25308 0
M  V30 385 O 41.5786 -1.09098 1.4317 0
M  V30 386 H 37.9536 -0.210814 0.721846 0
M  V30 387 H 39.9246 0.0174667 2.98395 0
M  V30 388 C 38.6736 -1.75818 2.99972 0
M  V30 389 H 37.9966 -1.3489 3.76357 0
M  V30 390 H 39.4366 -2.35949 3.52284 0
M  V30 391 C 37.8956 -2.66014 2.06732 0
M  V30 392 O 38.4256 -3.67009 1.63302 0
M  V30 393 N 36.6316 -2.33669 1.72763 0
M  V30 394 H 36.1786 -1.51586 2.08277 0
M  V30 395 H 36.1366 -2.94285 1.10652 0
M  V30 396 N 39.9087 -1.5758 0.0250728 0
M  V30 397 C 41.3197 -1.79476 -0.514323 0
M  V30 398 C 41.6707 -0.934956 -1.72491 0
M  V30 399 O 40.7957 -0.144245 -2.15919 0
M  V30 400 C 41.3907 -3.25503 -0.939842 0
M  V30 401 C 39.9497 -3.48408 -1.42438 0
M  V30 402 C 39.0967 -2.74583 -0.387201 0
M  V30 403 H 42.0477 -1.567 0.25113 0
M  V30 404 H 42.0687 -3.34992 -1.80445 0
M  V30 405 H 41.5807 -3.88056 -0.0585628 0
M  V30 406 H 39.6817 -2.91103 -2.32572 0
M  V30 407 H 39.7947 -4.57119 -1.43455 0
M  V30 408 H 38.1587 -2.39942 -0.854409 0
M  V30 409 H 38.9417 -3.39849 0.485543 0
M  V30 410 N 41.3868 0.248026 -1.55636 0
M  V30 411 C 42.6118 0.998028 -1.81808 0
M  V30 412 C 43.0368 1.78207 -0.601979 0
M  V30 413 O 42.3948 1.75653 0.448961 0
M  V30 414 C 42.4428 1.9125 -3.05705 0
M  V30 415 O 41.5468 3.00406 -2.82542 0
M  V30 416 H 40.8878 0.284045 -0.600179 0
M  V30 417 H 43.4178 0.269357 -2.02819 0
M  V30 418 H 43.4278 2.32737 -3.35108 0
M  V30 419 H 42.1028 1.33602 -3.93857 0
M  V30 420 H 40.6798 2.63056 -2.64303 0
M  V30 421 N 42.8649 1.48995 0.513639 0
M  V30 422 C 44.0899 1.61792 1.29762 0
M  V30 423 C 44.5149 0.284475 1.85936 0
M  V30 424 O 43.8729 -0.746185 1.65232 0
M  V30 425 C 43.9209 2.67993 2.41272 0
M  V30 426 O 43.0249 2.26287 3.44772 0
M  V30 427 H 42.3659 0.541963 0.38363 0
M  V30 428 H 44.8959 1.95097 0.616307 0
M  V30 429 H 44.9059 2.89772 2.87221 0
M  V30 430 H 43.5809 3.64791 1.9975 0
M  V30 431 H 42.1579 2.14788 3.04829 0
M  V30 432 N 44.343 -0.763751 1.37857 0
M  V30 433 C 45.568 -1.55805 1.36893 0
M  V30 434 C 45.993 -1.88054 -0.0416135 0
M  V30 435 O 45.351 -1.49825 -1.02089 0
M  V30 436 C 45.399 -2.84012 2.22192 0
M  V30 437 O 44.503 -3.78732 1.63204 0
M  V30 438 H 43.844 -0.471638 0.46739 0
M  V30 439 H 46.374 -0.944657 1.81487 0
M  V30 440 H 46.384 -3.33037 2.35691 0
M  V30 441 H 45.059 -2.59869 3.24716 0
M  V30 442 H 43.636 -3.37402 1.58791 0
M  V30 443 N 45.8211 -1.22559 -0.990812 0
M  V30 444 C 47.0461 -1.07862 -1.77145 0
M  V30 445 C 47.4711 0.366447 -1.84496 0
M  V30 446 O 46.8291 1.26478 -1.29896 0
M  V30 447 C 46.8771 -1.69686 -3.18181 0
M  V30 448 O 45.9811 -0.951946 -4.01263 0
M  V30 449 H 45.3221 -0.378712 -0.545411 0
M  V30 450 H 47.8521 -1.62399 -1.2445 0
M  V30 451 H 47.8621 -1.74496 -3.68802 0
M  V30 452 H 46.5371 -2.74841 -3.12146 0
M  V30 453 H 45.1141 -0.980011 -3.59792 0
M  V30 454 N 47.2992 1.18797 -1.03562 0
M  V30 455 C 48.7152 1.40671 -0.753917 0
M  V30 456 C 48.9152 1.9043 0.658686 0
M  V30 457 O 47.9712 2.08538 1.42366 0
M  V30 458 C 49.2842 2.41192 -1.79574 0
M  V30 459 C 50.8322 2.54928 -1.81606 0
M  V30 460 C 51.3072 3.58709 -2.84766 0
M  V30 461 N 52.7982 3.66212 -2.83625 0
M  V30 462 C 53.5332 4.46225 -3.60098 0
M  V30 463 N 53.0292 5.29888 -4.46308 0
M  V30 464 N 54.8222 4.40939 -3.4861 0
M  V30 465 H 46.9732 0.848221 -1.94728 0
M  V30 466 H 49.2362 0.435081 -0.842264 0
M  V30 467 H 48.9422 2.11669 -2.80872 0
M  V30 468 H 48.8162 3.40467 -1.62365 0
M  V30 469 H 51.2032 2.83771 -0.809817 0
M  V30 470 H 51.2842 1.55784 -2.02891 0
M  V30 471 H 50.9282 3.30607 -3.85566 0
M  V30 472 H 50.8582 4.57519 -2.60737 0
M  V30 473 H 53.3492 3.06466 -2.21105 0
M  V30 474 H 53.6622 5.88078 -5.01382 0
M  V30 475 H 52.0072 5.29326 -4.50377 0
M  V30 476 H 55.1982 3.74624 -2.80668 0
M  V30 477 H 55.3712 5.03056 -4.08459 0
M  V30 478 N 48.7773 0.814389 1.34928 0
M  V30 479 C 50.0233 0.408167 1.99263 0
M  V30 480 C 50.3783 -1.0154 1.63424 0
M  V30 481 O 49.6713 -1.69607 0.891289 0
M  V30 482 C 49.8653 0.537781 3.53331 0
M  V30 483 C 49.6943 1.9724 4.04137 0
M  V30 484 C 48.4643 2.60245 4.33129 0
M  V30 485 C 50.6623 2.93801 4.2212 0
M  V30 486 N 48.6443 3.95036 4.69914 0
M  V30 487 C 50.0153 4.1348 4.6199 0
M  V30 488 C 52.0703 2.9053 4.04348 0
M  V30 489 C 50.7733 5.3033 4.85945 0
M  V30 490 C 52.7993 4.06589 4.29464 0
M  V30 491 C 52.1613 5.25017 4.69613 0
M  V30 492 H 48.2603 0.197289 0.756704 0
M  V30 493 H 50.8443 1.05728 1.63492 0
M  V30 494 H 49.0153 -0.0813868 3.88315 0
M  V30 495 H 50.7473 0.105389 4.04563 0
M  V30 496 H 47.5023 2.11545 4.23728 0
M  V30 497 H 47.9263 4.64455 4.92555 0
M  V30 498 H 52.5683 2.00115 3.72443 0
M  V30 499 H 50.2863 6.21309 5.16721 0
M  V30 500 H 53.8723 4.05447 4.17257 0
M  V30 501 H 52.7523 6.1333 4.88667 0
M  V30 502 N 50.2554 -1.46986 0.568584 0
M  V30 503 C 51.5044 -2.01646 0.0465894 0
M  V30 504 C 51.8174 -1.44721 -1.31587 0
M  V30 505 O 53.0234 -1.91113 -1.92842 0
M  V30 506 C 51.4794 -3.59885 0.032752 0
M  V30 507 C 51.0874 -4.25804 1.39266 0
M  V30 508 C 52.8314 -4.22255 -0.436038 0
M  V30 509 C 50.7384 -5.76081 1.33732 0
M  V30 510 H 49.6684 -0.753876 0.013647 0
M  V30 511 H 52.3194 -1.68864 0.718131 0
M  V30 512 H 50.7014 -3.8968 -0.704669 0
M  V30 513 H 51.8754 -4.07637 2.1487 0
M  V30 514 H 50.1904 -3.7547 1.80032 0
M  V30 515 H 52.7874 -5.32394 -0.49602 0
M  V30 516 H 53.1304 -3.90212 -1.45053 0
M  V30 517 H 53.6634 -3.97033 0.246877 0
M  V30 518 H 50.4024 -6.12761 2.32817 0
M  V30 519 H 49.9224 -5.96553 0.623267 0
M  V30 520 H 51.6014 -6.38518 1.0442 0
M  V30 521 N 51.7335 -0.305618 -1.54608 0
M  V30 522 C 53.1445 0.186098 -1.8577 0
M  V30 523 C 53.4955 1.53058 -1.22751 0
M  V30 524 O 52.6205 2.09888 -0.526893 0
M  V30 525 C 53.2155 0.344449 -3.37044 0
M  V30 526 C 51.7745 0.780384 -3.68221 0
M  V30 527 C 50.9215 -0.108554 -2.77087 0
M  V30 528 H 53.8725 -0.526485 -1.49712 0
M  V30 529 H 53.8935 1.17828 -3.61796 0
M  V30 530 H 53.4055 -0.634235 -3.82883 0
M  V30 531 H 51.5065 1.76945 -3.27904 0
M  V30 532 H 51.6195 0.596572 -4.75371 0
M  V30 533 H 49.9835 0.412931 -2.5133 0
M  V30 534 H 50.7665 -1.08368 -3.25747 0
M  V30 535 N 53.2116 1.57565 -0.0334293 0
M  V30 536 C 54.1416 2.13511 0.945265 0
M  V30 537 C 55.1226 1.05231 1.33643 0
M  V30 538 O 56.3076 1.33084 1.41429 0
M  V30 539 C 53.4376 2.6657 2.22616 0
M  V30 540 C 52.3916 3.79676 1.97561 0
M  V30 541 C 51.7176 4.1918 3.31952 0
M  V30 542 C 53.0176 5.0557 1.31135 0
M  V30 543 H 54.7116 2.95538 0.479325 0
M  V30 544 H 52.2576 1.42166 0.229115 0
M  V30 545 H 54.2106 3.04344 2.91466 0
M  V30 546 H 52.9346 1.8171 2.71384 0
M  V30 547 H 51.5936 3.42347 1.31127 0
M  V30 548 H 51.2416 3.31296 3.78487 0
M  V30 549 H 50.9416 4.95402 3.15992 0
M  V30 550 H 52.4656 4.59541 4.02063 0
M  V30 551 H 53.8796 5.40903 1.89992 0
M  V30 552 H 52.2766 5.86818 1.25559 0
M  V30 553 H 53.3466 4.84062 0.284894 0
M  V30 554 N 54.6897 -0.239769 1.55765 0
M  V30 555 C 55.6217 -1.32001 1.87372 0
M  V30 556 C 56.6347 -1.43944 0.760522 0
M  V30 557 O 57.8237 -1.45167 1.0387 0
M  V30 558 C 54.9237 -2.69779 2.05115 0
M  V30 559 C 54.0967 -2.80014 3.36022 0
M  V30 560 C 53.1557 -3.98684 3.4342 0
M  V30 561 O 52.1817 -3.87877 4.16582 0
M  V30 562 N 53.3837 -5.12176 2.73232 0
M  V30 563 H 56.1487 -1.0522 2.80622 0
M  V30 564 H 53.7097 -0.429857 1.56089 0
M  V30 565 H 55.7017 -3.47517 2.07399 0
M  V30 566 H 54.2717 -2.89237 1.18577 0
M  V30 567 H 53.4917 -1.88896 3.45994 0
M  V30 568 H 54.7797 -2.83808 4.22292 0
M  V30 569 H 54.1777 -5.2385 2.13536 0
M  V30 570 H 52.7347 -5.88022 2.81199 0
M  V30 571 N 56.1678 -1.49265 -0.50573 0
M  V30 572 C 57.5788 -1.51769 -1.08734 0
M  V30 573 C 57.9298 -0.301192 -1.93874 0
M  V30 574 O 57.0548 0.589456 -2.08217 0
M  V30 575 C 57.6498 -2.75017 -1.97867 0
M  V30 576 C 56.2088 -2.80314 -2.51199 0
M  V30 577 C 55.3558 -2.4562 -1.28709 0
M  V30 578 H 58.3068 -1.56031 -0.289855 0
M  V30 579 H 58.3278 -2.5491 -2.82491 0
M  V30 580 H 57.8398 -3.63539 -1.35873 0
M  V30 581 H 55.9408 -1.96061 -3.16845 0
M  V30 582 H 56.0538 -3.82366 -2.88675 0
M  V30 583 H 54.4178 -1.97297 -1.61078 0
M  V30 584 H 55.2008 -3.36411 -0.6843 0
M  V30 585 N 57.6459 0.756429 -1.3826 0
M  V30 586 C 58.5789 1.87802 -1.29637 0
M  V30 587 C 59.5569 1.61667 -0.173939 0
M  V30 588 O 60.7409 1.85208 -0.350775 0
M  V30 589 C 57.8679 3.23354 -1.00797 0
M  V30 590 C 56.9139 3.68379 -2.14939 0
M  V30 591 S 57.7469 3.8025 -3.77054 0
M  V30 592 C 58.9029 5.18626 -3.50396 0
M  V30 593 H 59.1359 1.94829 -2.24564 0
M  V30 594 H 56.6689 0.919117 -1.24063 0
M  V30 595 H 58.6269 4.01637 -0.848413 0
M  V30 596 H 57.2879 3.14008 -0.0759369 0
M  V30 597 H 56.4809 4.66693 -1.90299 0
M  V30 598 H 56.0829 2.97242 -2.26988 0
M  V30 599 H 58.3749 6.04289 -3.06334 0
M  V30 600 H 59.3179 5.48286 -4.48094 0
M  V30 601 H 59.7259 4.87289 -2.84973 0
M  V30 602 N 59.124 1.23083 0.984299 0
M  V30 603 C 60.535 1.05609 1.5396 0
M  V30 604 C 60.886 -0.377793 1.92528 0
M  V30 605 O 60.011 -1.26398 1.75649 0
M  V30 606 C 60.606 1.91087 2.7977 0
M  V30 607 C 59.165 1.77885 3.31713 0
M  V30 608 C 58.312 1.87028 2.04733 0
M  V30 609 H 61.263 1.36802 0.804419 0
M  V30 610 H 61.284 1.43336 3.5247 0
M  V30 611 H 60.796 2.9544 2.51668 0
M  V30 612 H 58.897 0.762995 3.64704 0
M  V30 613 H 59.01 2.61047 4.01735 0
M  V30 614 H 57.374 1.30565 2.18689 0
M  V30 615 H 58.157 2.92929 1.79017 0
M  V30 616 N 60.6021 -1.18246 1.0419 0
M  V30 617 C 61.8481 -1.88536 0.747122 0
M  V30 618 C 62.1811 -1.80223 -0.723409 0
M  V30 619 O 61.4561 -1.20337 -1.52804 0
M  V30 620 C 61.7391 -3.38968 1.21544 0
M  V30 621 C 61.5921 -3.56084 2.74816 0
M  V30 622 C 62.9111 -4.32648 0.806482 0
M  V30 623 H 60.0301 -0.684619 0.272883 0
M  V30 624 H 62.6721 -1.39113 1.29413 0
M  V30 625 H 60.8221 -3.8119 0.750081 0
M  V30 626 H 62.4941 -3.22946 3.29399 0
M  V30 627 H 60.7371 -2.98699 3.14582 0
M  V30 628 H 61.4081 -4.61639 3.02644 0
M  V30 629 H 63.8841 -3.98211 1.20695 0
M  V30 630 H 62.7601 -5.36462 1.1619 0
M  V30 631 H 63.0211 -4.41146 -0.29029 0
M  V30 632 N 62.0802 -0.821533 -1.34494 0
M  V30 633 C 63.0432 -0.247847 -2.27856 0
M  V30 634 C 64.0432 0.573453 -1.50227 0
M  V30 635 O 65.2332 0.389759 -1.69784 0
M  V30 636 C 62.3652 0.652698 -3.34593 0
M  V30 637 H 63.5582 -1.07146 -2.80107 0
M  V30 638 H 61.1112 -0.593291 -1.44602 0
M  V30 639 H 61.8462 1.49943 -2.87555 0
M  V30 640 H 61.6312 0.065292 -3.92046 0
M  V30 641 H 63.1212 1.04793 -4.04238 0
M  V30 642 N 63.5583 1.46682 -0.576371 0
M  V30 643 C 64.8043 2.03287 -0.0679305 0
M  V30 644 C 65.1593 1.44063 1.27529 0
M  V30 645 O 64.4523 0.593973 1.82161 0
M  V30 646 C 64.6463 3.57345 0.062886 0
M  V30 647 C 64.4753 4.31509 -1.26611 0
M  V30 648 C 63.2453 4.70664 -1.83856 0
M  V30 649 C 65.4433 4.65444 -2.18783 0
M  V30 650 N 63.4253 5.29552 -3.10561 0
M  V30 651 C 64.7963 5.24835 -3.30072 0
M  V30 652 C 66.8513 4.47375 -2.18542 0
M  V30 653 C 65.5543 5.68063 -4.41244 0
M  V30 654 C 67.5803 4.91614 -3.28739 0
M  V30 655 C 66.9423 5.51071 -4.38748 0
M  V30 656 H 63.0413 0.779083 -0.0674836 0
M  V30 657 H 65.6253 1.78918 -0.767877 0
M  V30 658 H 63.7963 3.8144 0.731988 0
M  V30 659 H 65.5283 4.00592 0.575134 0
M  V30 660 H 62.2833 4.53224 -1.37424 0
M  V30 661 H 62.7073 5.63523 -3.75195 0
M  V30 662 H 67.3493 4.00747 -1.34765 0
M  V30 663 H 65.0673 6.13672 -5.25768 0
M  V30 664 H 68.6533 4.79389 -3.29662 0
M  V30 665 H 67.5333 5.84678 -5.22611 0
M  V30 666 N 65.0364 0.313813 1.54444 0
M  V30 667 C 65.9994 -0.54379 2.22656 0
M  V30 668 C 66.9994 -1.05124 1.21678 0
M  V30 669 O 68.1894 -0.945225 1.46325 0
M  V30 670 C 65.3214 -1.75427 2.92298 0
M  V30 671 H 66.5144 0.0523599 2.99854 0
M  V30 672 H 64.0674 0.0647834 1.56166 0
M  V30 673 H 64.8024 -2.38991 2.19211 0
M  V30 674 H 64.5874 -1.39791 3.66334 0
M  V30 675 H 66.0774 -2.36325 3.44297 0
M  V30 676 N 66.5145 -1.57545 0.0417849 0
M  V30 677 C 67.7615 -1.92317 -0.634082 0
M  V30 678 C 68.0895 -0.919334 -1.71402 0
M  V30 679 O 67.3445 0.0698253 -1.95575 0
M  V30 680 C 67.6435 -3.33794 -1.27735 0
M  V30 681 C 67.3095 -4.49716 -0.326543 0
M  V30 682 C 65.9715 -4.81156 -0.0648814 0
M  V30 683 C 68.3235 -5.20182 0.325623 0
M  V30 684 C 65.6515 -5.80414 0.856539 0
M  V30 685 C 68.0035 -6.20424 1.23518 0
M  V30 686 C 66.6675 -6.50298 1.5056 0
M  V30 687 H 65.9375 -0.703736 -0.232027 0
M  V30 688 H 68.5845 -1.91205 0.106259 0
M  V30 689 H 66.8895 -3.31228 -2.09274 0
M  V30 690 H 68.5865 -3.57975 -1.80707 0
M  V30 691 H 65.1765 -4.25176 -0.540665 0
M  V30 692 H 69.3605 -4.96112 0.136546 0
M  V30 693 H 64.6165 -6.019 1.07363 0
M  V30 694 H 68.7905 -6.74141 1.74664 0
M  V30 695 H 66.4175 -7.27025 2.22123 0
M  V30 696 N 67.9926 0.231505 -1.5589 0
M  V30 697 C 69.2386 0.95877 -1.78705 0
M  V30 698 C 69.5716 1.8438 -0.609725 0
M  V30 699 O 68.8466 1.90521 0.391426 0
M  V30 700 C 69.1296 1.8062 -3.11526 0
M  V30 701 C 68.9826 0.948328 -4.39689 0
M  V30 702 C 70.3016 2.78585 -3.40703 0
M  V30 703 H 67.4206 0.347129 -0.650131 0
M  V30 704 H 70.0626 0.228259 -1.88624 0
M  V30 705 H 68.2126 2.42902 -3.03201 0
M  V30 706 H 69.8846 0.343016 -4.60023 0
M  V30 707 H 68.1276 0.253314 -4.3306 0
M  V30 708 H 68.7986 1.57543 -5.29041 0
M  V30 709 H 71.2746 2.26439 -3.49091 0
M  V30 710 H 70.1506 3.34988 -4.34826 0
M  V30 711 H 70.4116 3.55825 -2.62375 0
M  V30 712 N 69.4707 1.49531 0.497807 0
M  V30 713 C 70.4027 1.62559 1.61578 0
M  V30 714 C 71.4157 0.508134 1.54667 0
M  V30 715 O 72.6047 0.780309 1.60541 0
M  V30 716 C 69.7047 1.56925 3.00379 0
M  V30 717 C 68.8777 2.84257 3.3244 0
M  V30 718 C 67.9367 2.71632 4.50669 0
M  V30 719 O 66.9627 3.4557 4.52294 0
M  V30 720 N 68.1647 1.83391 5.5077 0
M  V30 721 H 70.9297 2.58981 1.50828 0
M  V30 722 H 68.4907 1.4666 0.685743 0
M  V30 723 H 70.4827 1.46129 3.77397 0
M  V30 724 H 69.0527 0.683483 3.05037 0
M  V30 725 H 68.2727 3.09381 2.44289 0
M  V30 726 H 69.5607 3.68666 3.5066 0
M  V30 727 H 68.9587 1.22583 5.52259 0
M  V30 728 H 67.5157 1.78515 6.26878 0
M  V30 729 N 70.9488 -0.749086 1.3866 0
M  V30 730 C 71.8958 -1.86291 1.36251 0
M  V30 731 C 72.8658 -1.64578 0.224347 0
M  V30 732 O 74.0508 -1.86181 0.417279 0
M  V30 733 C 71.1908 -3.23644 1.19786 0
M  V30 734 C 70.3038 -3.57158 2.43027 0
M  V30 735 C 69.4388 -4.83838 2.19258 0
M  V30 736 C 68.4778 -5.10152 3.38247 0
M  V30 737 N 67.6148 -6.28029 3.13884 0
M  V30 738 H 72.4548 -1.87685 2.3147 0
M  V30 739 H 69.9918 -0.917287 1.14997 0
M  V30 740 H 71.9498 -4.0291 1.08254 0
M  V30 741 H 70.5798 -3.21566 0.282031 0
M  V30 742 H 69.6318 -2.72701 2.65214 0
M  V30 743 H 70.9438 -3.7253 3.31697 0
M  V30 744 H 70.0978 -5.71057 2.04888 0
M  V30 745 H 68.8368 -4.70614 1.2796 0
M  V30 746 H 67.8418 -4.21401 3.53131 0
M  V30 747 H 69.0668 -5.25271 4.30427 0
M  V30 748 H 67.0128 -6.1612 2.25238 0
M  V30 749 H 66.9298 -6.43922 3.96106 0
M  V30 750 H 68.1978 -7.18124 3.03179 0
M  V30 751 N 72.4269 -1.23603 -0.977757 0
M  V30 752 C 73.6549 -1.09646 -1.75458 0
M  V30 753 C 74.0699 0.351859 -1.85492 0
M  V30 754 O 73.4269 1.24327 -1.336 0
M  V30 755 C 73.4779 -1.71895 -3.18016 0
M  V30 756 O 73.1989 -3.11063 -3.08498 0
M  V30 757 C 74.6999 -1.63415 -4.12081 0
M  V30 758 H 71.9199 -0.38359 -0.550545 0
M  V30 759 H 74.4639 -1.63507 -1.22824 0
M  V30 760 H 72.6189 -1.22061 -3.67668 0
M  V30 761 H 73.0329 -3.41305 -3.9826 0
M  V30 762 H 74.5069 -2.11669 -5.09804 0
M  V30 763 H 74.9839 -0.593462 -4.35172 0
M  V30 764 H 75.5899 -2.12628 -3.68334 0
M  V30 765 N 73.905 1.17692 -1.04816 0
M  V30 766 C 75.13 1.92327 -0.776207 0
M  V30 767 C 75.555 1.76082 0.661581 0
M  V30 768 O 74.913 1.076 1.45917 0
M  V30 769 C 74.961 3.41539 -1.15687 0
M  V30 770 O 74.065 4.11402 -0.286775 0
M  V30 771 H 73.406 0.599735 -0.284981 0
M  V30 772 H 75.936 1.49201 -1.4 0
M  V30 773 H 75.946 3.92269 -1.12202 0
M  V30 774 H 74.621 3.52684 -2.20425 0
M  V30 775 H 73.198 3.70939 -0.381903 0
M  V30 776 N 75.3831 0.828654 1.34056 0
M  V30 777 C 76.3461 0.259927 2.27721 0
M  V30 778 C 77.3461 -0.565478 1.50529 0
M  V30 779 O 78.5361 -0.38075 1.69988 0
M  V30 780 C 75.6681 -0.634944 3.34935 0
M  V30 781 H 76.8611 1.0863 2.79534 0
M  V30 782 H 74.4141 0.600951 1.44285 0
M  V30 783 H 75.1491 -1.48416 2.88346 0
M  V30 784 H 74.9341 -0.0444999 3.92075 0
M  V30 785 H 76.4241 -1.02648 4.04788 0
M  V30 786 N 76.8612 -1.46375 0.584142 0
M  V30 787 C 77.7912 -2.33103 -0.136037 0
M  V30 788 C 78.7722 -1.45431 -0.882255 0
M  V30 789 O 79.9572 -1.74246 -0.857434 0
M  V30 790 C 77.0872 -3.27731 -1.14933 0
M  V30 791 C 76.0412 -4.24855 -0.517862 0
M  V30 792 C 75.3672 -5.09001 -1.63773 0
M  V30 793 C 76.6672 -5.19439 0.545886 0
M  V30 794 H 78.3612 -2.93568 0.588086 0
M  V30 795 H 75.9072 -1.41166 0.284259 0
M  V30 796 H 77.8602 -3.87261 -1.66153 0
M  V30 797 H 76.5842 -2.65377 -1.90375 0
M  V30 798 H 75.2432 -3.6659 -0.0267361 0
M  V30 799 H 74.8912 -4.43031 -2.38185 0
M  V30 800 H 74.5912 -5.74777 -1.22085 0
M  V30 801 H 76.1152 -5.71396 -2.15266 0
M  V30 802 H 77.5292 -5.73177 0.118704 0
M  V30 803 H 75.9262 -5.93566 0.88317 0
M  V30 804 H 76.9962 -4.63285 1.43162 0
M  V30 805 N 78.3393 -0.321999 -1.54275 0
M  V30 806 C 79.2693 0.537411 -2.27231 0
M  V30 807 C 80.2503 1.12064 -1.27968 0
M  V30 808 O 81.4353 1.14606 -1.56777 0
M  V30 809 C 78.5653 1.69919 -3.02894 0
M  V30 810 C 77.5193 1.24534 -4.09482 0
M  V30 811 C 76.8453 2.49394 -4.72977 0
M  V30 812 C 78.1453 0.361335 -5.21049 0
M  V30 813 H 79.8393 -0.0711406 -2.99315 0
M  V30 814 H 77.3853 -0.0356555 -1.43956 0
M  V30 815 H 79.3383 2.30668 -3.52662 0
M  V30 816 H 78.0623 2.33431 -2.28424 0
M  V30 817 H 76.7213 0.660782 -3.60596 0
M  V30 818 H 76.3693 3.11265 -3.95124 0
M  V30 819 H 76.0693 2.19718 -5.44975 0
M  V30 820 H 77.5933 3.10908 -5.25517 0
M  V30 821 H 79.0073 0.875072 -5.66582 0
M  V30 822 H 77.4043 0.157428 -5.99893 0
M  V30 823 H 78.4743 -0.60822 -4.8107 0
M  V30 824 N 79.8174 1.5752 -0.0501392 0
M  V30 825 C 81.0634 1.93755 0.618901 0
M  V30 826 C 81.4184 0.928514 1.68512 0
M  V30 827 O 80.7114 -0.0524613 1.91528 0
M  V30 828 C 80.9054 3.34467 1.25963 0
M  V30 829 C 80.7344 4.48965 0.257 0
M  V30 830 C 79.5044 5.05075 -0.150656 0
M  V30 831 C 81.7024 5.11891 -0.497166 0
M  V30 832 N 79.6844 6.03104 -1.14626 0
M  V30 833 C 81.0554 6.05216 -1.34588 0
M  V30 834 C 83.1104 4.9479 -0.55559 0
M  V30 835 C 81.8134 6.83277 -2.24778 0
M  V30 836 C 83.8394 5.73477 -1.44492 0
M  V30 837 C 83.2014 6.66433 -2.28136 0
M  V30 838 H 79.3004 0.756479 0.198149 0
M  V30 839 H 81.8844 1.94316 -0.122229 0
M  V30 840 H 80.0554 3.34685 1.97079 0
M  V30 841 H 81.7874 3.57994 1.88739 0
M  V30 842 H 78.5424 4.7305 0.228094 0
M  V30 843 H 78.9664 6.56813 -1.64092 0
M  V30 844 H 83.6084 4.2273 0.0768625 0
M  V30 845 H 81.3264 7.54629 -2.89069 0
M  V30 846 H 84.9124 5.62273 -1.49468 0
M  V30 847 H 83.7924 7.26258 -2.95835 0
M  V30 848 N 81.2955 -0.223234 1.56011 0
M  V30 849 C 82.2255 -1.27988 1.95298 0
M  V30 850 C 83.2065 -1.48976 0.820979 0
M  V30 851 O 84.3915 -1.61188 1.08315 0
M  V30 852 C 81.5215 -2.63 2.26822 0
M  V30 853 C 80.4755 -2.56671 3.42497 0
M  V30 854 C 79.8015 -3.95697 3.59622 0
M  V30 855 C 81.1015 -2.11601 4.77517 0
M  V30 856 H 82.7955 -0.953525 2.8381 0
M  V30 857 H 80.3415 -0.457244 1.36548 0
M  V30 858 H 82.2945 -3.37077 2.52898 0
M  V30 859 H 81.0185 -2.9732 1.35161 0
M  V30 860 H 79.6775 -1.85051 3.16467 0
M  V30 861 H 79.3255 -4.27322 2.6534 0
M  V30 862 H 79.0255 -3.92345 4.37424 0
M  V30 863 H 80.5495 -4.71438 3.88044 0
M  V30 864 H 81.9635 -2.7542 5.02809 0
M  V30 865 H 80.3605 -2.19311 5.5859 0
M  V30 866 H 81.4305 -1.06824 4.72987 0
M  V30 867 N 82.7736 -1.49793 -0.48987 0
M  V30 868 C 83.7036 -1.70201 -1.59856 0
M  V30 869 C 84.6846 -0.55076 -1.60937 0
M  V30 870 O 85.8696 -0.787841 -1.77501 0
M  V30 871 C 82.9996 -1.77882 -2.98287 0
M  V30 872 C 81.9536 -2.92907 -3.12073 0
M  V30 873 C 81.2796 -2.85712 -4.51965 0
M  V30 874 C 82.5796 -4.3369 -2.91051 0
M  V30 875 H 84.2736 -2.63025 -1.43032 0
M  V30 876 H 81.8196 -1.26574 -0.686664 0
M  V30 877 H 83.7726 -1.90744 -3.75759 0
M  V30 878 H 82.4966 -0.816653 -3.16225 0
M  V30 879 H 81.1556 -2.79665 -2.37029 0
M  V30 880 H 80.8036 -1.8738 -4.66795 0
M  V30 881 H 80.5036 -3.62921 -4.62128 0
M  V30 882 H 82.0276 -3.00598 -5.31482 0
M  V30 883 H 83.4416 -4.47555 -3.58284 0
M  V30 884 H 81.8386 -5.12205 -3.12675 0
M  V30 885 H 82.9086 -4.47362 -1.87071 0
M  V30 886 N 84.2517 0.741722 -1.39055 0
M  V30 887 C 85.1817 1.869 -1.39966 0
M  V30 888 C 86.1627 1.6804 -0.26392 0
M  V30 889 O 87.3477 1.88458 -0.468755 0
M  V30 890 C 84.4777 3.24572 -1.23574 0
M  V30 891 C 83.4317 3.58056 -2.34477 0
M  V30 892 C 82.7577 4.94593 -2.0318 0
M  V30 893 C 84.0577 3.61716 -3.76774 0
M  V30 894 H 85.7517 1.86395 -2.34302 0
M  V30 895 H 83.2977 0.895361 -1.1278 0
M  V30 896 H 85.2507 4.031 -1.22834 0
M  V30 897 H 83.9747 3.25587 -0.257045 0
M  V30 898 H 82.6337 2.81854 -2.34423 0
M  V30 899 H 82.2817 4.92181 -1.03765 0
M  V30 900 H 81.9817 5.17964 -2.77465 0
M  V30 901 H 83.5057 5.75486 -2.04079 0
M  V30 902 H 84.9197 4.30335 -3.78794 0
M  V30 903 H 83.3167 3.96603 -4.50362 0
M  V30 904 H 84.3867 2.61672 -4.08235 0
M  V30 905 N 85.7298 1.2412 0.971189 0
M  V30 906 C 86.6598 1.05508 2.08304 0
M  V30 907 C 87.6408 -0.0308864 1.70072 0
M  V30 908 O 88.8258 0.135521 1.93727 0
M  V30 909 C 85.9558 0.655365 3.4106 0
M  V30 910 C 84.9098 1.68971 3.93234 0
M  V30 911 C 84.2358 1.14516 5.22293 0
M  V30 912 C 85.5358 3.08487 4.21465 0
M  V30 913 H 87.2298 1.98507 2.24132 0
M  V30 914 H 84.7758 0.955821 1.07704 0
M  V30 915 H 86.7288 0.51217 4.18276 0
M  V30 916 H 85.4528 -0.31032 3.25122 0
M  V30 917 H 84.1118 1.82106 3.18171 0
M  V30 918 H 83.7598 0.170189 5.02712 0
M  V30 919 H 83.4598 1.83635 5.58168 0
M  V30 920 H 84.9838 1.01401 6.02121 0
M  V30 921 H 86.3978 2.98601 4.89398 0
M  V30 922 H 84.7948 3.74926 4.68562 0
M  V30 923 H 85.8648 3.56787 3.28376 0
M  V30 924 N 87.2079 -1.17134 1.05439 0
M  V30 925 C 88.4559 -1.87085 0.764429 0
M  V30 926 C 88.7769 -1.81584 -0.710787 0
M  V30 927 O 88.0469 -1.24349 -1.51374 0
M  V30 928 H 86.6269 -0.692627 0.279779 0
M  V30 929 H 89.2889 -1.42087 1.33406 0
M  V30 930 H 88.3849 -2.92759 1.0816 0
M  V30 931 N 88.686 -0.835752 -1.33615 0
M  V30 932 C 89.914 -0.443344 -2.02094 0
M  V30 933 C 90.329 0.954522 -1.62894 0
M  V30 934 O 89.686 1.61982 -0.840723 0
M  V30 935 C 89.737 -0.550775 -3.5728 0
M  V30 936 O 89.458 -1.89356 -3.95065 0
M  V30 937 C 90.959 -0.154919 -4.43029 0
M  V30 938 H 88.179 -0.176359 -0.647409 0
M  V30 939 H 90.723 -1.12746 -1.70612 0
M  V30 940 H 88.878 0.0853997 -3.87306 0
M  V30 941 H 89.292 -1.87687 -4.89769 0
M  V30 942 H 90.766 -0.281144 -5.51284 0
M  V30 943 H 91.243 0.902863 -4.2982 0
M  V30 944 H 91.849 -0.765404 -4.18356 0
M  V30 945 N 90.1641 1.46063 -0.591896 0
M  V30 946 C 91.3891 2.07226 -0.0850314 0
M  V30 947 C 91.8141 1.43625 1.21463 0
M  V30 948 O 91.1721 0.523305 1.73583 0
M  V30 949 C 91.2201 3.60554 0.0576567 0
M  V30 950 O 90.3241 3.97128 1.11188 0
M  V30 951 H 89.6651 0.660615 -0.0669568 0
M  V30 952 H 92.1951 1.8756 -0.81745 0
M  V30 953 H 92.2051 4.07165 0.2609 0
M  V30 954 H 90.8801 4.06235 -0.891416 0
M  V30 955 H 89.4571 3.62213 0.886356 0
M  V30 956 N 91.6422 0.330177 1.54103 0
M  V30 957 C 92.5722 -0.525353 2.27513 0
M  V30 958 C 93.5532 -1.11383 1.2856 0
M  V30 959 O 94.7382 -1.13773 1.57383 0
M  V30 960 C 91.8682 -1.6831 3.03791 0
M  V30 961 C 90.8222 -1.2236 4.10137 0
M  V30 962 C 90.1482 -2.46882 4.74293 0
M  V30 963 C 91.4482 -0.333697 5.21233 0
M  V30 964 H 93.1422 0.087013 2.99274 0
M  V30 965 H 90.6882 0.0432893 1.43935 0
M  V30 966 H 92.6412 -2.28795 3.5388 0
M  V30 967 H 91.3652 -2.32216 2.29659 0
M  V30 968 H 90.0242 -0.64165 3.60941 0
M  V30 969 H 89.6722 -3.09165 3.96769 0
M  V30 970 H 89.3722 -2.16825 5.46133 0
M  V30 971 H 90.8962 -3.08117 5.27159 0
M  V30 972 H 92.3102 -0.845013 5.67038 0
M  V30 973 H 90.7072 -0.125612 5.99969 0
M  V30 974 H 91.7772 0.633724 4.80741 0
M  V30 975 N 93.1203 -1.57491 0.0584922 0
M  V30 976 C 94.3453 -1.97711 -0.62652 0
M  V30 977 C 94.7703 -0.936132 -1.63151 0
M  V30 978 O 94.1283 0.099811 -1.81025 0
M  V30 979 C 94.1763 -3.36989 -1.28338 0
M  V30 980 O 93.2803 -3.35433 -2.39913 0
M  V30 981 H 92.6213 -0.643868 -0.162266 0
M  V30 982 H 95.1513 -2.04193 0.129064 0
M  V30 983 H 95.1613 -3.73879 -1.63335 0
M  V30 984 H 93.8363 -4.12289 -0.546889 0
M  V30 985 H 92.4133 -3.10298 -2.06809 0
M  V30 986 N 94.5984 0.214957 -1.56127 0
M  V30 987 C 96.0094 0.781386 -1.69562 0
M  V30 988 C 96.3604 1.84707 -0.66165 0
M  V30 989 O 95.4854 2.156 0.185927 0
M  V30 990 C 96.0804 1.42411 -3.07416 0
M  V30 991 C 94.6394 1.93786 -3.22683 0
M  V30 992 C 93.7864 0.800438 -2.65496 0
M  V30 993 H 96.7374 -0.00980633 -1.58697 0
M  V30 994 H 96.7584 2.29309 -3.0364 0
M  V30 995 H 96.2704 0.64826 -3.82648 0
M  V30 996 H 94.3714 2.74152 -2.52332 0
M  V30 997 H 94.4844 2.1133 -4.29973 0
M  V30 998 H 92.8484 1.2095 -2.2415 0
M  V30 999 H 93.6314 0.0371471 -3.4328 0
M  V30 1000 N 96.0765 1.50051 0.48192 0
M  V30 1001 C 97.0395 1.67584 1.5636 0
M  V30 1002 C 98.0395 0.546894 1.51214 0
M  V30 1003 O 99.2295 0.813725 1.54026 0
M  V30 1004 C 96.3615 1.691 2.96003 0
M  V30 1005 H 97.5545 2.64078 1.42136 0
M  V30 1006 H 95.1075 1.39369 0.707533 0
M  V30 1007 H 95.8425 0.742589 3.15684 0
M  V30 1008 H 95.6275 2.51105 3.01146 0
M  V30 1009 H 97.1175 1.84656 3.74556 0
M  V30 1010 N 97.5546 -0.734337 1.39446 0
M  V30 1011 C 98.8006 -1.49505 1.37913 0
M  V30 1012 C 99.1556 -1.92384 -0.0248416 0
M  V30 1013 O 98.4486 -1.6395 -0.991506 0
M  V30 1014 C 98.6426 -2.74711 2.28623 0
M  V30 1015 C 98.4716 -2.44075 3.777 0
M  V30 1016 C 97.2416 -2.36338 4.46623 0
M  V30 1017 C 99.4396 -2.09574 4.69663 0
M  V30 1018 N 97.4216 -1.9818 5.81032 0
M  V30 1019 C 98.7926 -1.81865 5.92727 0
M  V30 1020 C 100.848 -1.96048 4.57678 0
M  V30 1021 C 99.5506 -1.41992 7.05146 0
M  V30 1022 C 101.577 -1.57579 5.7002 0
M  V30 1023 C 100.939 -1.30754 6.92158 0
M  V30 1024 H 97.0376 -0.545896 0.55993 0
M  V30 1025 H 99.6216 -0.853373 1.75002 0
M  V30 1026 H 97.7926 -3.36657 1.93692 0
M  V30 1027 H 99.5246 -3.40916 2.18078 0
M  V30 1028 H 96.2796 -2.53456 4.00071 0
M  V30 1029 H 96.7036 -1.81691 6.52163 0
M  V30 1030 H 101.346 -2.15455 3.63784 0
M  V30 1031 H 99.0636 -1.21327 7.9894 0
M  V30 1032 H 102.65 -1.47718 5.62735 0
M  V30 1033 H 101.53 -1.01432 7.77612 0
M  V30 1034 N 99.0327 -1.24633 -0.964593 0
M  V30 1035 C 100.281 -1.08573 -1.70459 0
M  V30 1036 C 100.602 0.375655 -1.91347 0
M  V30 1037 O 99.8717 1.26779 -1.49345 0
M  V30 1038 H 98.4517 -0.398784 -0.631649 0
M  V30 1039 H 101.114 -1.56601 -1.16026 0
M  V30 1040 H 100.21 -1.58623 -2.68785 0
M  V30 1041 N 100.511 1.16574 -1.06058 0
M  V30 1042 C 101.443 2.2045 -0.627239 0
M  V30 1043 C 102.456 1.59752 0.313534 0
M  V30 1044 O 103.645 1.78192 0.104896 0
M  V30 1045 C 100.745 3.3875 0.100974 0
M  V30 1046 C 99.9178 4.29008 -0.852687 0
M  V30 1047 C 98.9768 5.25944 -0.164152 0
M  V30 1048 O 98.0028 5.63535 -0.801047 0
M  V30 1049 N 99.2048 5.70075 1.09518 0
M  V30 1050 H 101.97 2.58249 -1.52077 0
M  V30 1051 H 99.5308 1.3156 -0.943594 0
M  V30 1052 H 101.523 4.00638 0.57194 0
M  V30 1053 H 100.093 2.99476 0.89628 0
M  V30 1054 H 99.3128 3.64419 -1.50308 0
M  V30 1055 H 100.601 4.86195 -1.49972 0
M  V30 1056 H 99.9988 5.41624 1.6328 0
M  V30 1057 H 98.5558 6.34067 1.51006 0
M  V30 1058 N 101.989 0.842826 1.3317 0
M  V30 1059 C 102.952 0.284065 2.27433 0
M  V30 1060 C 103.952 -0.54948 1.5112 0
M  V30 1061 O 105.142 -0.362699 1.70382 0
M  V30 1062 C 102.274 -0.599384 3.35589 0
M  V30 1063 H 103.467 1.11589 2.78366 0
M  V30 1064 H 101.02 0.616221 1.4364 0
M  V30 1065 H 101.755 -1.45349 2.89904 0
M  V30 1066 H 101.54 -0.00291266 3.921 0
M  V30 1067 H 103.03 -0.983488 4.05854 0
M  V30 1068 N 103.467 -1.45747 0.599634 0
M  V30 1069 C 104.414 -2.30467 -0.123849 0
M  V30 1070 C 105.384 -1.41632 -0.86774 0
M  V30 1071 O 106.569 -1.70568 -0.855056 0
M  V30 1072 C 103.709 -3.26402 -1.12051 0
M  V30 1073 C 102.822 -4.3034 -0.37832 0
M  V30 1074 C 101.957 -5.13389 -1.364 0
M  V30 1075 C 100.996 -6.09061 -0.609171 0
M  V30 1076 N 100.133 -6.84918 -1.54374 0
M  V30 1077 H 104.973 -2.91802 0.604627 0
M  V30 1078 H 102.51 -1.43797 0.309972 0
M  V30 1079 H 104.468 -3.80482 -1.7114 0
M  V30 1080 H 103.098 -2.66839 -1.8165 0
M  V30 1081 H 102.15 -3.78984 0.327929 0
M  V30 1082 H 103.462 -4.98354 0.210997 0
M  V30 1083 H 102.616 -5.7183 -2.02719 0
M  V30 1084 H 101.355 -4.45376 -1.98725 0
M  V30 1085 H 100.36 -5.49758 0.0676979 0
M  V30 1086 H 101.585 -6.79099 0.00891991 0
M  V30 1087 H 99.531 -6.19601 -2.15478 0
M  V30 1088 H 99.448 -7.49254 -1.00766 0
M  V30 1089 H 100.716 -7.47906 -2.19676 0
M  V30 1090 N 104.945 -0.338344 -1.53925 0
M  V30 1091 C 106.194 0.260732 -2.00008 0
M  V30 1092 C 106.507 1.52073 -1.23017 0
M  V30 1093 O 107.713 2.19672 -1.5955 0
M  V30 1094 C 106.169 0.51515 -3.56194 0
M  V30 1095 C 105.777 -0.728645 -4.42035 0
M  V30 1096 C 107.521 1.07337 -4.10706 0
M  V30 1097 C 105.428 -0.445315 -5.89721 0
M  V30 1098 H 104.358 0.101205 -0.747177 0
M  V30 1099 H 107.009 -0.452866 -1.77824 0
M  V30 1100 H 105.391 1.28932 -3.74423 0
M  V30 1101 H 106.565 -1.50352 -4.35581 0
M  V30 1102 H 104.88 -1.20813 -3.98489 0
M  V30 1103 H 107.477 1.30022 -5.18651 0
M  V30 1104 H 107.82 2.0273 -3.63602 0
M  V30 1105 H 108.353 0.360034 -3.96167 0
M  V30 1106 H 105.092 -1.36883 -6.41049 0
M  V30 1107 H 104.612 0.291569 -5.99091 0
M  V30 1108 H 106.291 -0.0606218 -6.46972 0
M  V30 1109 N 106.423 1.57458 -0.0668435 0
M  V30 1110 C 107.834 1.80776 0.466558 0
M  V30 1111 C 108.185 0.980361 1.69951 0
M  V30 1112 O 107.31 0.201441 2.1546 0
M  V30 1113 C 107.905 3.27881 0.85321 0
M  V30 1114 C 106.464 3.52062 1.3315 0
M  V30 1115 C 105.611 2.75513 0.314264 0
M  V30 1116 H 108.562 1.5598 -0.292588 0
M  V30 1117 H 108.583 3.39659 1.715 0
M  V30 1118 H 108.095 3.88075 -0.0443439 0
M  V30 1119 H 106.196 2.97167 2.24772 0
M  V30 1120 H 106.309 4.60762 1.31285 0
M  V30 1121 H 104.673 2.42123 0.790492 0
M  V30 1122 H 105.456 3.38442 -0.575477 0
M  V30 1123 N 107.901 -0.206675 1.56239 0
M  V30 1124 C 108.831 -1.25909 1.96645 0
M  V30 1125 C 109.812 -1.48097 0.836734 0
M  V30 1126 O 110.997 -1.6003 1.10019 0
M  V30 1127 C 108.127 -2.6058 2.29599 0
M  V30 1128 C 107.081 -2.53024 3.452 0
M  V30 1129 C 106.407 -3.91861 3.63798 0
M  V30 1130 C 107.707 -2.06524 4.79734 0
M  V30 1131 H 109.401 -0.923369 2.84806 0
M  V30 1132 H 106.947 -0.442735 1.37025 0
M  V30 1133 H 108.9 -3.34375 2.56459 0
M  V30 1134 H 107.624 -2.95869 1.38307 0
M  V30 1135 H 106.283 -1.81684 3.18412 0
M  V30 1136 H 105.931 -4.24483 2.69857 0
M  V30 1137 H 105.631 -3.87683 4.4156 0
M  V30 1138 H 107.155 -4.67296 3.93022 0
M  V30 1139 H 108.569 -2.70072 5.05702 0
M  V30 1140 H 106.966 -2.13374 5.60885 0
M  V30 1141 H 108.036 -1.01802 4.74093 0
M  V30 1142 N 109.379 -1.50304 -0.473955 0
M  V30 1143 C 110.289 -1.7174 -1.5982 0
M  V30 1144 C 111.305 -0.600457 -1.63311 0
M  V30 1145 O 112.481 -0.878441 -1.81233 0
M  V30 1146 C 109.546 -1.80427 -2.96052 0
M  V30 1147 C 108.607 -3.04148 -3.02972 0
M  V30 1148 C 107.84 -3.12411 -4.32706 0
M  V30 1149 O 108.063 -2.27542 -5.23049 0
M  V30 1150 O 106.997 -4.05113 -4.45159 0
M  V30 1151 H 110.823 -2.67035 -1.44657 0
M  V30 1152 H 108.408 -1.34366 -0.653148 0
M  V30 1153 H 110.29 -1.88338 -3.7697 0
M  V30 1154 H 108.965 -0.883156 -3.11419 0
M  V30 1155 H 107.872 -3.0174 -2.21142 0
M  V30 1156 H 109.205 -3.95829 -2.92541 0
M  V30 1157 N 110.857 0.726932 -1.39834 0
M  V30 1158 C 112.085 1.51613 -1.40787 0
M  V30 1159 C 112.5 1.88799 -0.00451505 0
M  V30 1160 O 111.857 1.54662 0.968809 0
M  V30 1161 C 111.908 2.79863 -2.28821 0
M  V30 1162 O 111.629 2.44253 -3.63692 0
M  V30 1163 C 113.13 3.73837 -2.38245 0
M  V30 1164 H 110.35 0.468264 -0.480593 0
M  V30 1165 H 112.894 0.897607 -1.83748 0
M  V30 1166 H 111.049 3.38027 -1.89252 0
M  V30 1167 H 111.463 3.26695 -4.1033 0
M  V30 1168 H 112.937 4.60699 -3.04073 0
M  V30 1169 H 113.414 4.16153 -1.40403 0
M  V30 1170 H 114.02 3.21589 -2.78317 0
M  V30 1171 N 112.336 1.25143 0.95797 0
M  V30 1172 C 113.582 1.09855 1.70469 0
M  V30 1173 C 113.915 -0.360187 1.90831 0
M  V30 1174 O 113.19 -1.26568 1.47685 0
M  V30 1175 C 113.473 1.8497 3.08963 0
M  V30 1176 C 113.326 3.38652 2.96032 0
M  V30 1177 C 114.645 1.63016 4.08795 0
M  V30 1178 H 111.764 0.400465 0.618706 0
M  V30 1179 H 114.406 1.53933 1.11376 0
M  V30 1180 H 112.556 1.47505 3.59409 0
M  V30 1181 H 114.228 3.85772 2.52938 0
M  V30 1182 H 112.471 3.66534 2.32025 0
M  V30 1183 H 113.142 3.8642 3.94187 0
M  V30 1184 H 115.618 1.95625 3.67247 0
M  V30 1185 H 114.494 2.18015 5.03747 0
M  V30 1186 H 114.755 0.570692 4.38401 0
M  V30 1187 N 113.814 -1.1601 1.06675 0
M  V30 1188 C 114.761 -2.20525 0.680967 0
M  V30 1189 C 115.731 -1.62904 -0.324283 0
M  V30 1190 O 116.916 -1.89615 -0.212294 0
M  V30 1191 C 114.056 -3.45013 0.0776551 0
M  V30 1192 C 113.169 -4.16863 1.13355 0
M  V30 1193 C 112.304 -5.2888 0.49597 0
M  V30 1194 C 111.343 -5.92537 1.53513 0
M  V30 1195 N 110.48 -6.96038 0.920631 0
M  V30 1196 H 115.32 -2.52876 1.57663 0
M  V30 1197 H 112.857 -1.24199 0.788223 0
M  V30 1198 H 114.815 -4.16193 -0.289704 0
M  V30 1199 H 113.445 -3.132 -0.781393 0
M  V30 1200 H 112.497 -3.44248 1.61857 0
M  V30 1201 H 113.809 -4.60294 1.92174 0
M  V30 1202 H 112.963 -6.06653 0.0758604 0
M  V30 1203 H 111.702 -4.86622 -0.324062 0
M  V30 1204 H 110.707 -5.13482 1.9651 0
M  V30 1205 H 111.932 -6.36873 2.35733 0
M  V30 1206 H 109.878 -6.55888 0.12138 0
M  V30 1207 H 109.795 -7.3786 1.64616 0
M  V30 1208 H 111.063 -7.77725 0.525795 0
M  V30 1209 N 115.292 -0.849877 -1.32721 0
M  V30 1210 C 116.222 -0.306308 -2.31482 0
M  V30 1211 C 117.203 0.591952 -1.59468 0
M  V30 1212 O 118.388 0.513199 -1.87296 0
M  V30 1213 C 115.518 0.510204 -3.43532 0
M  V30 1214 C 114.472 -0.293209 -4.26994 0
M  V30 1215 C 113.798 0.647743 -5.30762 0
M  V30 1216 C 115.098 -1.51634 -4.99804 0
M  V30 1217 H 116.792 -1.13153 -2.77195 0
M  V30 1218 H 114.338 -0.545553 -1.33266 0
M  V30 1219 H 116.291 0.900856 -4.11658 0
M  V30 1220 H 115.015 1.36874 -2.96535 0
M  V30 1221 H 113.674 -0.665555 -3.60508 0
M  V30 1222 H 113.322 1.50299 -4.8002 0
M  V30 1223 H 113.022 0.11422 -5.87489 0
M  V30 1224 H 114.546 1.03567 -6.01753 0
M  V30 1225 H 115.96 -1.19824 -5.60638 0
M  V30 1226 H 114.357 -1.98745 -5.66234 0
M  V30 1227 H 115.427 -2.28018 -4.27943 0
M  V30 1228 N 116.77 1.45427 -0.607355 0
M  V30 1229 C 118.016 2.03097 -0.111035 0
M  V30 1230 C 118.371 1.46735 1.24445 0
M  V30 1231 O 117.664 0.632478 1.8086 0
M  V30 1232 C 117.858 3.57398 -0.0129263 0
M  V30 1233 C 117.687 4.28726 -1.35735 0
M  V30 1234 C 116.457 4.66659 -1.93798 0
M  V30 1235 C 118.655 4.60699 -2.28607 0
M  V30 1236 N 116.637 5.22845 -3.21723 0
M  V30 1237 C 118.008 5.17716 -3.41131 0
M  V30 1238 C 120.063 4.42638 -2.27982 0
M  V30 1239 C 118.766 5.58576 -4.53194 0
M  V30 1240 C 120.792 4.84531 -3.39093 0
M  V30 1241 C 120.154 5.4164 -4.50339 0
M  V30 1242 H 116.253 0.777476 -0.083994 0
M  V30 1243 H 118.837 1.77249 -0.805655 0
M  V30 1244 H 117.008 3.82907 0.650914 0
M  V30 1245 H 118.74 4.01722 0.490033 0
M  V30 1246 H 115.495 4.50207 -1.47007 0
M  V30 1247 H 115.919 5.55438 -3.87063 0
M  V30 1248 H 120.561 3.97798 -1.43235 0
M  V30 1249 H 118.279 6.02382 -5.38667 0
M  V30 1250 H 121.865 4.72289 -3.39757 0
M  V30 1251 H 120.745 5.73461 -5.34895 0
M  V30 1252 N 118.248 0.346503 1.53744 0
M  V30 1253 C 119.211 -0.496439 2.23759 0
M  V30 1254 C 120.211 -1.0252 1.2388 0
M  V30 1255 O 121.401 -0.913974 1.48297 0
M  V30 1256 C 118.533 -1.69187 2.95954 0
M  V30 1257 H 119.726 0.115952 2.99676 0
M  V30 1258 H 117.279 0.0978939 1.55993 0
M  V30 1259 H 118.014 -2.34288 2.24231 0
M  V30 1260 H 117.799 -1.31989 3.69217 0
M  V30 1261 H 119.289 -2.28969 3.49232 0
M  V30 1262 N 119.726 -1.57421 0.075193 0
M  V30 1263 C 121.003 -1.85029 -0.634329 0
M  V30 1264 C 121.383 -0.968305 -1.87582 0
M  V30 1265 O 120.731 -0.0354749 -2.28472 0
M  V30 1266 C 120.941 -3.35286 -0.968742 0
M  V30 1267 C 122.289 -4.02875 -1.34077 0
M  V30 1268 O 123.313 -3.40051 -1.06037 0
M  V30 1269 O 122.172 -5.13691 -1.86506 0
M  V30 1270 H 119.266 -0.7645 -0.315387 0
M  V30 1271 H 121.812 -1.69366 0.106382 0
M  V30 1272 H 120.584 -3.91203 -0.0871376 0
M  V30 1273 H 120.207 -3.56223 -1.7661 0
M  V30 1274 N 121.204 0.198386 -1.56346 0
M  V30 1275 C 122.432 0.935572 -1.84539 0
M  V30 1276 C 122.847 1.76989 -0.657281 0
M  V30 1277 O 122.204 1.78626 0.374043 0
M  V30 1278 C 122.255 1.8344 -3.11499 0
M  V30 1279 O 121.976 1.03377 -4.25728 0
M  V30 1280 C 123.477 2.68355 -3.52846 0
M  V30 1281 H 120.697 0.273126 -0.612897 0
M  V30 1282 H 123.241 0.20663 -2.03453 0
M  V30 1283 H 121.396 2.51701 -2.94492 0
M  V30 1284 H 121.81 1.64599 -4.98003 0
M  V30 1285 H 123.284 3.27085 -4.44657 0
M  V30 1286 H 123.761 3.41901 -2.75681 0
M  V30 1287 H 124.367 2.05471 -3.72373 0
M  V30 1288 N 122.682 1.50554 0.465978 0
M  V30 1289 C 123.929 1.61798 1.21768 0
M  V30 1290 C 124.257 0.320696 1.91838 0
M  V30 1291 O 123.512 -0.693724 1.82992 0
M  V30 1292 C 123.811 2.75152 2.28093 0
M  V30 1293 C 123.477 4.15454 1.75239 0
M  V30 1294 C 122.139 4.53628 1.60546 0
M  V30 1295 C 124.491 5.03121 1.36083 0
M  V30 1296 C 121.819 5.77204 1.05128 0
M  V30 1297 C 124.171 6.27249 0.821056 0
M  V30 1298 C 122.835 6.64221 0.660795 0
M  V30 1299 H 122.105 0.592063 0.445582 0
M  V30 1300 H 124.752 1.84503 0.512927 0
M  V30 1301 H 123.057 2.46556 3.04496 0
M  V30 1302 H 124.754 2.81055 2.86023 0
M  V30 1303 H 121.344 3.85341 1.87644 0
M  V30 1304 H 125.528 4.74257 1.46267 0
M  V30 1305 H 120.784 6.0452 0.91462 0
M  V30 1306 H 124.958 6.94537 0.509018 0
M  V30 1307 H 122.585 7.59854 0.229226 0
M  V30 1308 N 124.16 -0.719506 1.40217 0
M  V30 1309 C 125.408 -1.47641 1.3801 0
M  V30 1310 C 125.729 -1.94992 -0.018145 0
M  V30 1311 O 124.999 -1.70073 -0.972207 0
M  V30 1312 H 123.579 -0.547744 0.507923 0
M  V30 1313 H 126.241 -0.853187 1.75233 0
M  V30 1314 H 125.337 -2.35112 2.05253 0
M  V30 1315 N 125.638 -1.25649 -0.95132 0
M  V30 1316 C 126.886 -1.10375 -1.69298 0
M  V30 1317 C 127.207 0.355339 -1.91735 0
M  V30 1318 O 126.477 1.25188 -1.50681 0
M  V30 1319 H 125.057 -0.405461 -0.627384 0
M  V30 1320 H 127.719 -1.57823 -1.14358 0
M  V30 1321 H 126.815 -1.61465 -2.67087 0
M  V30 1322 N 127.117 1.15442 -1.07289 0
M  V30 1323 C 128.394 1.82306 -0.708792 0
M  V30 1324 C 128.774 1.94991 0.808807 0
M  V30 1325 O 128.122 1.50085 1.72298 0
M  V30 1326 C 128.332 3.18695 -1.42247 0
M  V30 1327 C 129.68 3.94341 -1.57417 0
M  V30 1328 O 130.704 3.28247 -1.38319 0
M  V30 1329 O 129.563 5.12839 -1.88834 0
M  V30 1330 H 126.657 0.787628 -0.252132 0
M  V30 1331 H 129.203 1.22559 -1.17377 0
M  V30 1332 H 127.975 3.04557 -2.45684 0
M  V30 1333 H 127.598 3.86128 -0.948223 0
M  V30 1334 N 128.595 0.856903 1.32268 0
M  V30 1335 C 129.525 0.31858 2.31316 0
M  V30 1336 C 130.506 -0.583487 1.59779 0
M  V30 1337 O 131.691 -0.503259 1.87566 0
M  V30 1338 C 128.821 -0.491979 3.43798 0
M  V30 1339 C 127.775 0.315849 4.26833 0
M  V30 1340 C 127.101 -0.619586 5.31098 0
M  V30 1341 C 128.401 1.54282 4.98993 0
M  V30 1342 H 130.095 1.14621 2.76591 0
M  V30 1343 H 127.641 0.552613 1.32974 0
M  V30 1344 H 129.594 -0.879012 4.1213 0
M  V30 1345 H 128.318 -1.35299 2.97257 0
M  V30 1346 H 126.977 0.684664 3.6015 0
M  V30 1347 H 126.625 -1.47751 4.8081 0
M  V30 1348 H 126.325 -0.0830621 5.87541 0
M  V30 1349 H 127.849 -1.00375 6.02293 0
M  V30 1350 H 129.263 1.22796 5.59995 0
M  V30 1351 H 127.66 2.01745 5.65172 0
M  V30 1352 H 128.73 2.30285 4.26728 0
M  V30 1353 N 130.073 -1.45103 0.615059 0
M  V30 1354 C 131.303 -2.06254 0.119596 0
M  V30 1355 C 131.711 -1.4591 -1.20445 0
M  V30 1356 O 131.054 -0.570384 -1.7462 0
M  V30 1357 C 131.116 -3.59396 -0.0865591 0
M  V30 1358 C 130.78 -4.42116 1.15683 0
M  V30 1359 C 131.777 -4.7662 2.07676 0
M  V30 1360 C 129.462 -4.82749 1.38775 0
M  V30 1361 C 131.456 -5.50622 3.21082 0
M  V30 1362 C 129.143 -5.56504 2.52481 0
M  V30 1363 C 130.141 -5.90358 3.43463 0
M  V30 1364 O 129.829 -6.62615 4.55189 0
M  V30 1365 H 129.561 -0.672423 0.0694512 0
M  V30 1366 H 132.115 -1.87219 0.844885 0
M  V30 1367 H 130.345 -3.76859 -0.866823 0
M  V30 1368 H 132.034 -4.02365 -0.534555 0
M  V30 1369 H 132.8 -4.4578 1.91063 0
M  V30 1370 H 128.679 -4.55829 0.688545 0
M  V30 1371 H 132.223 -5.76965 3.92119 0
M  V30 1372 H 128.12 -5.86759 2.69043 0
M  V30 1373 H 128.888 -6.81071 4.53966 0
M  V30 1374 N 131.551 -0.354651 -1.53558 0
M  V30 1375 C 132.499 0.512195 -2.26891 0
M  V30 1376 C 133.493 1.09263 -1.29452 0
M  V30 1377 O 134.699 1.03709 -1.47121 0
M  V30 1378 H 131.074 0.183878 -0.729173 0
M  V30 1379 H 133.045 -0.128202 -2.98124 0
M  V30 1380 C 131.794 1.64563 -3.06291 0
M  V30 1381 H 131.117 1.20829 -3.81104 0
M  V30 1382 H 132.557 2.22711 -3.60799 0
M  V30 1383 C 131.016 2.58158 -2.16462 0
M  V30 1384 O 131.546 3.60695 -1.76811 0
M  V30 1385 N 129.752 2.27096 -1.81317 0
M  V30 1386 H 129.299 1.43751 -2.1376 0
M  V30 1387 H 129.257 2.89975 -1.21498 0
M  V30 1388 N 133.029 1.57378 -0.0835403 0
M  V30 1389 C 134.257 1.98263 0.59157 0
M  V30 1390 C 134.672 0.962302 1.62435 0
M  V30 1391 O 134.029 -0.049581 1.82433 0
M  V30 1392 C 134.08 3.39214 1.24965 0
M  V30 1393 O 133.801 4.37339 0.258186 0
M  V30 1394 C 135.302 3.95038 2.01147 0
M  V30 1395 H 132.522 0.651773 0.159477 0
M  V30 1396 H 135.066 2.03878 -0.159415 0
M  V30 1397 H 133.221 3.34649 1.95164 0
M  V30 1398 H 133.635 5.19371 0.731734 0
M  V30 1399 H 135.109 4.95848 2.42567 0
M  V30 1400 H 135.586 3.32222 2.87272 0
M  V30 1401 H 136.192 4.0304 1.35789 0
M  V30 1402 N 134.507 -0.190092 1.56449 0
M  V30 1403 C 135.753 -0.911052 1.81184 0
M  V30 1404 C 136.086 -1.82699 0.658396 0
M  V30 1405 O 135.361 -1.91491 -0.340775 0
M  V30 1406 C 135.644 -1.72297 3.16205 0
M  V30 1407 C 135.497 -0.831419 4.42049 0
M  V30 1408 C 136.816 -2.69454 3.47969 0
M  V30 1409 H 133.935 -0.32977 0.659106 0
M  V30 1410 H 136.577 -0.178169 1.89163 0
M  V30 1411 H 134.727 -2.34778 3.09534 0
M  V30 1412 H 136.399 -0.220929 4.60771 0
M  V30 1413 H 134.642 -0.138406 4.33579 0
M  V30 1414 H 135.313 -1.43461 5.33032 0
M  V30 1415 H 137.789 -2.17104 3.54972 0
M  V30 1416 H 136.665 -3.23342 4.43555 0
M  V30 1417 H 136.926 -3.48744 2.71717 0
M  V30 1418 N 135.985 -1.50799 -0.457987 0
M  V30 1419 C 137.213 -1.66218 -1.23203 0
M  V30 1420 C 137.628 -0.350894 -1.85511 0
M  V30 1421 O 136.985 0.668546 -1.69814 0
M  V30 1422 C 137.036 -2.76291 -2.33121 0
M  V30 1423 O 136.757 -4.02338 -1.73366 0
M  V30 1424 C 138.258 -3.028 -3.2377 0
M  V30 1425 H 135.478 -0.558361 -0.372121 0
M  V30 1426 H 138.022 -1.97099 -0.545179 0
M  V30 1427 H 136.177 -2.48068 -2.97558 0
M  V30 1428 H 136.591 -4.63312 -2.4585 0
M  V30 1429 H 138.065 -3.8345 -3.97077 0
M  V30 1430 H 138.542 -2.14385 -3.83322 0
M  V30 1431 H 139.148 -3.32604 -2.65056 0
M  V30 1432 N 137.463 0.71206 -1.40597 0
M  V30 1433 C 138.41 1.82613 -1.41142 0
M  V30 1434 C 139.38 1.63925 -0.267903 0
M  V30 1435 O 140.565 1.85009 -0.466495 0
M  V30 1436 C 137.705 3.20354 -1.28324 0
M  V30 1437 C 136.818 3.50589 -2.52411 0
M  V30 1438 C 135.953 4.77855 -2.32009 0
M  V30 1439 C 134.992 5.01005 -3.51654 0
M  V30 1440 N 134.129 6.19487 -3.30425 0
M  V30 1441 H 138.969 1.81482 -2.36365 0
M  V30 1442 H 136.506 0.886475 -1.17388 0
M  V30 1443 H 138.464 3.99899 -1.18899 0
M  V30 1444 H 137.094 3.20705 -0.367189 0
M  V30 1445 H 136.146 2.65573 -2.72351 0
M  V30 1446 H 137.458 3.63604 -3.41458 0
M  V30 1447 H 136.612 5.65424 -2.19956 0
M  V30 1448 H 135.351 4.67056 -1.40392 0
M  V30 1449 H 134.356 4.1189 -3.64179 0
M  V30 1450 H 135.581 5.13674 -4.44202 0
M  V30 1451 H 133.527 6.09932 -2.41494 0
M  V30 1452 H 133.444 6.33194 -4.13039 0
M  V30 1453 H 134.712 7.09834 -3.22113 0
M  V30 1454 N 138.941 1.26152 0.944643 0
M  V30 1455 C 140.171 1.14094 1.72239 0
M  V30 1456 C 140.579 -0.306931 1.86694 0
M  V30 1457 O 139.922 -1.22222 1.3714 0
M  V30 1458 C 139.984 1.73316 3.14963 0
M  V30 1459 C 139.648 3.2239 3.23904 0
M  V30 1460 C 140.645 4.19252 3.07447 0
M  V30 1461 C 138.33 3.62788 3.47405 0
M  V30 1462 C 140.324 5.54491 3.14353 0
M  V30 1463 C 138.011 4.98162 3.53947 0
M  V30 1464 C 139.009 5.93823 3.37436 0
M  V30 1465 O 138.697 7.26732 3.43679 0
M  V30 1466 H 138.429 0.398292 0.546205 0
M  V30 1467 H 140.983 1.67201 1.19301 0
M  V30 1468 H 139.213 1.14667 3.69308 0
M  V30 1469 H 140.902 1.56214 3.74636 0
M  V30 1470 H 141.668 3.8938 2.8915 0
M  V30 1471 H 137.547 2.88816 3.59313 0
M  V30 1472 H 141.091 6.29137 3.01384 0
M  V30 1473 H 136.988 5.27695 3.71763 0
M  V30 1474 H 137.756 7.3496 3.60245 0
M  V30 1475 N 140.419 -1.14872 1.07899 0
M  V30 1476 C 141.644 -1.90202 0.826926 0
M  V30 1477 C 142.069 -1.77774 -0.614664 0
M  V30 1478 O 141.427 -1.11431 -1.43013 0
M  V30 1479 C 141.475 -3.38352 1.24702 0
M  V30 1480 O 140.579 -4.10497 0.39575 0
M  V30 1481 H 139.92 -0.591968 0.300782 0
M  V30 1482 H 142.45 -1.45437 1.43907 0
M  V30 1483 H 142.46 -3.89156 1.22563 0
M  V30 1484 H 141.135 -3.46715 2.29698 0
M  V30 1485 H 139.712 -3.69796 0.480117 0
M  V30 1486 N 141.898 -0.863906 -1.31812 0
M  V30 1487 C 143.146 -0.470904 -1.96537 0
M  V30 1488 C 143.467 0.978771 -1.68657 0
M  V30 1489 O 142.737 1.6853 -0.998717 0
M  V30 1490 H 141.317 -0.171148 -0.72713 0
M  V30 1491 H 143.979 -1.10236 -1.60729 0
M  V30 1492 H 143.075 -0.623616 -3.05806 0
M  V30 1493 N 143.376 1.44774 -0.622745 0
M  V30 1494 C 144.601 2.06999 -0.128968 0
M  V30 1495 C 145.026 1.4617 1.1839 0
M  V30 1496 O 144.384 0.560007 1.72434 0
M  V30 1497 C 144.432 3.60595 -0.0188351 0
M  V30 1498 O 143.536 3.99398 1.02739 0
M  V30 1499 H 142.877 0.659047 -0.0809544 0
M  V30 1500 H 145.407 1.85784 -0.85705 0
M  V30 1501 H 145.417 4.07627 0.174476 0
M  V30 1502 H 144.092 4.04252 -0.977384 0
M  V30 1503 H 142.669 3.64011 0.809326 0
M  V30 1504 N 144.854 0.36279 1.53368 0
M  V30 1505 C 145.784 -0.476976 2.28576 0
M  V30 1506 C 146.765 -1.08631 1.30894 0
M  V30 1507 O 147.95 -1.10409 1.59761 0
M  V30 1508 C 145.08 -1.61828 3.07293 0
M  V30 1509 C 144.034 -1.13633 4.1264 0
M  V30 1510 C 143.36 -2.36766 4.79423 0
M  V30 1511 C 144.66 -0.223061 5.21823 0
M  V30 1512 H 146.354 0.150474 2.99022 0
M  V30 1513 H 143.9 0.0738103 1.43811 0
M  V30 1514 H 145.853 -2.21237 3.58653 0
M  V30 1515 H 144.577 -2.27292 2.34533 0
M  V30 1516 H 143.236 -0.564945 3.62221 0
M  V30 1517 H 142.884 -3.0068 4.03238 0
M  V30 1518 H 142.584 -2.05192 5.50609 0
M  V30 1519 H 144.108 -2.96865 5.33576 0
M  V30 1520 H 145.522 -0.724545 5.68703 0
M  V30 1521 H 143.919 0.001678 6.001 0
M  V30 1522 H 144.989 0.735553 4.79289 0
M  V30 1523 N 146.332 -1.57332 0.0918853 0
M  V30 1524 C 147.262 -2.16872 -0.865371 0
M  V30 1525 C 148.243 -1.10118 -1.29646 0
M  V30 1526 O 149.428 -1.38242 -1.36392 0
M  V30 1527 C 146.558 -2.74649 -2.12569 0
M  V30 1528 C 145.512 -3.86747 -1.83333 0
M  V30 1529 C 144.838 -4.31212 -3.16166 0
M  V30 1530 C 146.138 -5.10089 -1.1228 0
M  V30 1531 H 147.832 -2.97114 -0.369307 0
M  V30 1532 H 145.378 -1.42918 -0.176194 0
M  V30 1533 H 147.331 -3.14952 -2.7997 0
M  V30 1534 H 146.055 -1.91657 -2.64452 0
M  V30 1535 H 144.714 -3.46978 -1.18331 0
M  V30 1536 H 144.362 -3.45115 -3.6593 0
M  V30 1537 H 144.062 -5.06788 -2.97388 0
M  V30 1538 H 145.586 -4.74146 -3.84731 0
M  V30 1539 H 147 -5.47582 -1.69785 0
M  V30 1540 H 145.397 -5.91073 -1.03693 0
M  V30 1541 H 146.467 -4.84786 -0.105041 0
M  V30 1542 N 147.81 0.181792 -1.56548 0
M  V30 1543 C 148.74 1.22765 -1.98623 0
M  V30 1544 C 149.721 1.46747 -0.860189 0
M  V30 1545 O 150.906 1.58259 -1.12551 0
M  V30 1546 C 148.036 2.56894 -2.33715 0
M  V30 1547 C 146.99 2.475 -3.49182 0
M  V30 1548 C 146.316 3.86023 -3.69986 0
M  V30 1549 C 147.616 1.98866 -4.82959 0
M  V30 1550 H 149.31 0.877942 -2.86239 0
M  V30 1551 H 146.856 0.42088 -1.37712 0
M  V30 1552 H 148.809 3.30253 -2.61746 0
M  V30 1553 H 147.533 2.93632 -1.42997 0
M  V30 1554 H 146.192 1.76596 -3.21262 0
M  V30 1555 H 145.84 4.20136 -2.76576 0
M  V30 1556 H 145.54 3.80609 -4.47672 0
M  V30 1557 H 147.064 4.60984 -4.00407 0
M  V30 1558 H 148.478 2.61992 -5.09934 0
M  V30 1559 H 146.875 2.04424 -5.64208 0
M  V30 1560 H 147.945 0.942465 -4.75653 0
M  V30 1561 N 149.288 1.51039 0.449983 0
M  V30 1562 C 150.22 1.67617 1.56324 0
M  V30 1563 C 151.233 0.557083 1.52972 0
M  V30 1564 O 152.422 0.830989 1.57977 0
M  V30 1565 C 149.522 1.66402 2.95235 0
M  V30 1566 C 148.695 2.9469 3.23229 0
M  V30 1567 C 147.754 2.85832 4.41799 0
M  V30 1568 O 146.78 3.59785 4.41071 0
M  V30 1569 N 147.982 2.00821 5.44657 0
M  V30 1570 H 150.747 2.63648 1.42512 0
M  V30 1571 H 148.308 1.48767 0.638737 0
M  V30 1572 H 150.3 1.58062 3.72557 0
M  V30 1573 H 148.87 0.780182 3.02708 0
M  V30 1574 H 148.09 3.16996 2.34323 0
M  V30 1575 H 149.378 3.79636 3.38754 0
M  V30 1576 H 148.776 1.40091 5.48079 0
M  V30 1577 H 147.333 1.98368 6.20881 0
M  V30 1578 N 150.766 -0.704594 1.40972 0
M  V30 1579 C 151.713 -1.81862 1.42109 0
M  V30 1580 C 152.683 -1.63781 0.276593 0
M  V30 1581 O 153.868 -1.84759 0.4763 0
M  V30 1582 C 151.008 -3.19669 1.30022 0
M  V30 1583 C 150.121 -3.49246 2.54267 0
M  V30 1584 C 149.256 -4.76618 2.3454 0
M  V30 1585 C 148.295 -4.99133 3.54306 0
M  V30 1586 N 147.432 -6.17726 3.33706 0
M  V30 1587 H 152.272 -1.80226 2.37324 0
M  V30 1588 H 149.809 -0.880238 1.17857 0
M  V30 1589 H 151.767 -3.99263 1.21018 0
M  V30 1590 H 150.397 -3.20506 0.384192 0
M  V30 1591 H 149.449 -2.64125 2.73756 0
M  V30 1592 H 150.761 -3.61788 3.43381 0
M  V30 1593 H 149.915 -5.64249 2.22952 0
M  V30 1594 H 148.654 -4.66305 1.42867 0
M  V30 1595 H 147.659 -4.09953 3.66359 0
M  V30 1596 H 148.884 -5.11311 4.4692 0
M  V30 1597 H 146.83 -6.08642 2.44725 0
M  V30 1598 H 146.747 -6.30995 4.16391 0
M  V30 1599 H 148.015 -7.08115 3.25873 0
M  V30 1600 N 152.244 -1.26651 -0.937939 0
M  V30 1601 C 153.191 -1.0849 -2.03712 0
M  V30 1602 C 154.161 0.011033 -1.66096 0
M  V30 1603 O 155.346 -0.149353 -1.90215 0
M  V30 1604 C 152.486 -0.72735 -3.37348 0
M  V30 1605 C 151.599 -1.89986 -3.87981 0
M  V30 1606 C 150.734 -1.48513 -5.10017 0
M  V30 1607 C 149.773 -2.62575 -5.5292 0
M  V30 1608 N 148.91 -2.21762 -6.66158 0
M  V30 1609 H 153.75 -2.02551 -2.18579 0
M  V30 1610 H 151.287 -1.00844 -1.07093 0
M  V30 1611 H 153.245 -0.50092 -4.14182 0
M  V30 1612 H 151.875 0.176298 -3.22318 0
M  V30 1613 H 150.927 -2.23913 -3.07518 0
M  V30 1614 H 152.239 -2.75586 -4.15757 0
M  V30 1615 H 151.393 -1.21934 -5.94321 0
M  V30 1616 H 150.132 -0.60009 -4.83994 0
M  V30 1617 H 149.137 -2.8988 -4.67172 0
M  V30 1618 H 150.362 -3.51685 -5.80943 0
M  V30 1619 H 148.308 -1.35696 -6.41812 0
M  V30 1620 H 148.225 -3.00903 -6.93537 0
M  V30 1621 H 149.493 -1.98403 -7.53828 0
M  V30 1622 N 153.722 1.14298 -1.08507 0
M  V30 1623 C 154.952 1.88945 -0.835663 0
M  V30 1624 C 155.36 1.78894 0.615928 0
M  V30 1625 O 154.703 1.1468 1.43506 0
M  V30 1626 C 154.765 3.39585 -1.17994 0
M  V30 1627 C 154.429 3.7342 -2.63451 0
M  V30 1628 C 155.426 3.73454 -3.61702 0
M  V30 1629 C 153.111 4.03368 -2.99332 0
M  V30 1630 C 155.105 4.02961 -4.93864 0
M  V30 1631 C 152.792 4.32538 -4.31687 0
M  V30 1632 C 153.79 4.32318 -5.28763 0
M  V30 1633 O 153.478 4.6078 -6.58739 0
M  V30 1634 H 153.21 0.605307 -0.300965 0
M  V30 1635 H 155.764 1.45673 -1.44806 0
M  V30 1636 H 153.994 3.83315 -0.51055 0
M  V30 1637 H 155.683 3.9554 -0.911182 0
M  V30 1638 H 156.449 3.50403 -3.35325 0
M  V30 1639 H 152.328 4.02692 -2.24411 0
M  V30 1640 H 155.872 4.02704 -5.69627 0
M  V30 1641 H 151.769 4.55059 -4.57812 0
M  V30 1642 H 152.537 4.78492 -6.64069 0
M  V30 1643 N 155.201 0.870884 1.31352 0
M  V30 1644 C 156.148 0.325425 2.28494 0
M  V30 1645 C 157.118 -0.576615 1.5577 0
M  V30 1646 O 158.303 -0.508059 1.83911 0
M  V30 1647 C 155.443 -0.466283 3.41935 0
M  V30 1648 C 154.556 0.463378 4.29508 0
M  V30 1649 C 153.691 -0.342544 5.30094 0
M  V30 1650 C 152.73 0.583486 6.09313 0
M  V30 1651 N 151.867 -0.186244 7.01853 0
M  V30 1652 H 156.707 1.15901 2.74538 0
M  V30 1653 H 154.244 0.58294 1.35056 0
M  V30 1654 H 156.202 -0.941085 4.06447 0
M  V30 1655 H 154.832 -1.26456 2.97 0
M  V30 1656 H 153.884 1.05663 3.65431 0
M  V30 1657 H 155.196 1.1734 4.84802 0
M  V30 1658 H 154.35 -0.879816 6.00287 0
M  V30 1659 H 153.089 -1.08585 4.75458 0
M  V30 1660 H 152.094 1.13251 5.3801 0
M  V30 1661 H 153.319 1.32566 6.66035 0
M  V30 1662 H 151.265 -0.912348 6.49625 0
M  V30 1663 H 151.182 0.464422 7.54572 0
M  V30 1664 H 152.45 -0.704716 7.76308 0
M  V30 1665 N 156.679 -1.44442 0.630414 0
M  V30 1666 C 157.956 -1.9549 0.0655657 0
M  V30 1667 C 158.336 -1.5724 -1.40851 0
M  V30 1668 O 157.684 -0.846116 -2.12257 0
M  V30 1669 C 157.894 -3.47812 0.287691 0
M  V30 1670 C 159.242 -4.24216 0.180513 0
M  V30 1671 O 160.266 -3.55526 0.219019 0
M  V30 1672 O 159.125 -5.46434 0.0848493 0
M  V30 1673 H 156.219 -0.826688 -0.0227177 0
M  V30 1674 H 158.765 -1.54496 0.702068 0
M  V30 1675 H 157.537 -3.687 1.31056 0
M  V30 1676 H 157.16 -3.95751 -0.382984 0
M  V30 1677 N 158.157 -0.370918 -1.53173 0
M  V30 1678 C 159.403 0.217423 -2.01631 0
M  V30 1679 C 159.736 1.47983 -1.25756 0
M  V30 1680 O 159.011 1.91274 -0.352764 0
M  V30 1681 C 159.294 0.503982 -3.56556 0
M  V30 1682 C 159.147 -0.77243 -4.43118 0
M  V30 1683 C 160.466 1.30234 -4.20389 0
M  V30 1684 H 157.585 0.0775486 -0.732909 0
M  V30 1685 H 160.227 -0.496863 -1.83388 0
M  V30 1686 H 158.377 1.11248 -3.72231 0
M  V30 1687 H 160.049 -1.4098 -4.39229 0
M  V30 1688 H 158.292 -1.39167 -4.10871 0
M  V30 1689 H 158.963 -0.526815 -5.4948 0
M  V30 1690 H 161.439 0.787546 -4.08579 0
M  V30 1691 H 160.315 1.47158 -5.28806 0
M  V30 1692 H 160.576 2.31237 -3.76805 0
M  V30 1693 N 159.635 1.57281 -0.100228 0
M  V30 1694 C 160.545 2.17833 0.870965 0
M  V30 1695 C 161.561 1.14921 1.30649 0
M  V30 1696 O 162.737 1.47313 1.37335 0
M  V30 1697 C 159.802 2.75085 2.1102 0
M  V30 1698 C 158.863 3.9297 1.72838 0
M  V30 1699 C 158.096 4.47482 2.90854 0
M  V30 1700 O 158.319 4.00922 4.05731 0
M  V30 1701 O 157.253 5.38433 2.69023 0
M  V30 1702 H 161.079 3.0124 0.38575 0
M  V30 1703 H 158.664 1.48881 0.124397 0
M  V30 1704 H 160.546 3.11656 2.83634 0
M  V30 1705 H 159.221 1.94721 2.58584 0
M  V30 1706 H 158.128 3.61201 0.973883 0
M  V30 1707 H 159.461 4.74713 1.30033 0
M  V30 1708 N 161.113 -0.173488 1.56642 0
M  V30 1709 C 162.338 -0.910149 1.86363 0
M  V30 1710 C 162.763 -1.75132 0.686318 0
M  V30 1711 O 162.121 -1.77595 -0.364643 0
M  V30 1712 C 162.169 -1.76447 3.14482 0
M  V30 1713 O 161.273 -2.86584 2.96553 0
M  V30 1714 H 160.614 -0.255086 0.613047 0
M  V30 1715 H 163.144 -0.172283 2.03873 0
M  V30 1716 H 163.154 -2.16483 3.45831 0
M  V30 1717 H 161.829 -1.14658 3.99783 0
M  V30 1718 H 160.406 -2.50146 2.76553 0
M  V30 1719 N 162.591 -1.51276 -0.441967 0
M  V30 1720 C 163.816 -1.67799 -1.21895 0
M  V30 1721 C 164.241 -0.372864 -1.84367 0
M  V30 1722 O 163.599 0.666501 -1.68604 0
M  V30 1723 C 163.647 -2.79199 -2.28211 0
M  V30 1724 O 162.751 -2.42479 -3.33583 0
M  V30 1725 H 162.092 -0.559649 -0.357336 0
M  V30 1726 H 164.622 -1.97815 -0.522522 0
M  V30 1727 H 164.632 -3.03146 -2.73069 0
M  V30 1728 H 163.307 -3.73906 -1.82118 0
M  V30 1729 H 161.884 -2.29087 -2.94234 0
M  V30 1730 N 164.069 0.697108 -1.41344 0
M  V30 1731 C 164.999 1.82353 -1.45841 0
M  V30 1732 C 165.98 1.67115 -0.317247 0
M  V30 1733 O 167.165 1.86871 -0.528474 0
M  V30 1734 C 164.295 3.20476 -1.33838 0
M  V30 1735 C 163.249 3.50415 -2.4575 0
M  V30 1736 C 162.575 4.87878 -2.18813 0
M  V30 1737 C 163.875 3.49546 -3.88091 0
M  V30 1738 H 165.569 1.78846 -2.40113 0
M  V30 1739 H 163.115 0.859028 -1.15571 0
M  V30 1740 H 165.068 3.98988 -1.35596 0
M  V30 1741 H 163.792 3.24604 -0.360498 0
M  V30 1742 H 162.451 2.74253 -2.43271 0
M  V30 1743 H 162.099 4.8863 -1.19371 0
M  V30 1744 H 161.799 5.08875 -2.93803 0
M  V30 1745 H 163.323 5.68702 -2.22284 0
M  V30 1746 H 164.737 4.18066 -3.92293 0
M  V30 1747 H 163.134 3.82075 -4.62751 0
M  V30 1748 H 164.204 2.48552 -4.16353 0
M  V30 1749 N 165.547 1.27147 0.931209 0
M  V30 1750 C 166.494 1.09568 2.03134 0
M  V30 1751 C 167.464 -0.00222433 1.661 0
M  V30 1752 O 168.649 0.159439 1.90133 0
M  V30 1753 C 165.789 0.745231 3.36957 0
M  V30 1754 C 164.902 1.92041 3.86968 0
M  V30 1755 C 164.037 1.51216 5.09222 0
M  V30 1756 C 163.076 2.65504 5.5152 0
M  V30 1757 N 162.213 2.25291 6.64972 0
M  V30 1758 H 167.053 2.03708 2.17502 0
M  V30 1759 H 164.59 1.01411 1.06556 0
M  V30 1760 H 166.548 0.522878 4.1391 0
M  V30 1761 H 165.178 -0.159202 3.22407 0
M  V30 1762 H 164.23 2.25541 3.06326 0
M  V30 1763 H 165.542 2.77787 4.1429 0
M  V30 1764 H 164.696 1.25084 5.93666 0
M  V30 1765 H 163.435 0.625749 4.83669 0
M  V30 1766 H 162.44 2.92354 4.65628 0
M  V30 1767 H 163.665 3.54761 5.7907 0
M  V30 1768 H 161.611 1.39098 6.41083 0
M  V30 1769 H 161.528 3.04577 6.91931 0
M  V30 1770 H 162.796 2.02398 7.52765 0
M  V30 1771 N 167.025 -1.13721 1.09112 0
M  V30 1772 C 168.274 -1.84275 0.82009 0
M  V30 1773 C 168.587 -1.84253 -0.656509 0
M  V30 1774 O 169.793 -2.50668 -1.04296 0
M  V30 1775 C 168.249 -3.30825 1.41714 0
M  V30 1776 C 167.857 -3.39244 2.92605 0
M  V30 1777 C 169.601 -4.06443 1.22492 0
M  V30 1778 C 167.508 -4.80047 3.45411 0
M  V30 1779 H 166.438 -0.690387 0.30312 0
M  V30 1780 H 169.089 -1.28146 1.31343 0
M  V30 1781 H 167.471 -3.86737 0.851498 0
M  V30 1782 H 168.645 -2.93344 3.55367 0
M  V30 1783 H 166.96 -2.77088 3.10823 0
M  V30 1784 H 169.557 -5.10387 1.59402 0
M  V30 1785 H 169.9 -4.15972 0.165299 0
M  V30 1786 H 170.433 -3.56852 1.75788 0
M  V30 1787 H 167.172 -4.75709 4.50978 0
M  V30 1788 H 166.692 -5.26455 2.87411 0
M  V30 1789 H 168.371 -5.48957 3.42425 0
M  V30 1790 N 168.503 -0.877838 -1.30888 0
M  V30 1791 C 169.413 -0.343096 -2.32078 0
M  V30 1792 C 170.429 0.551022 -1.65045 0
M  V30 1793 O 171.605 0.445854 -1.96403 0
M  V30 1794 C 168.67 0.439905 -3.43898 0
M  V30 1795 C 167.731 -0.483111 -4.26573 0
M  V30 1796 C 166.964 0.262616 -5.33053 0
M  V30 1797 O 167.187 1.48967 -5.50604 0
M  V30 1798 O 166.121 -0.383593 -6.00676 0
M  V30 1799 H 169.947 -1.18203 -2.79753 0
M  V30 1800 H 167.532 -0.64145 -1.34929 0
M  V30 1801 H 169.414 0.883504 -4.12034 0
M  V30 1802 H 168.089 1.25526 -2.98371 0
M  V30 1803 H 166.996 -0.975374 -3.61161 0
M  V30 1804 H 168.329 -1.26427 -4.75686 0
M  V30 1805 N 169.982 1.44106 -0.638065 0
M  V30 1806 C 170.892 2.34513 0.0637334 0
M  V30 1807 C 171.908 1.53018 0.828346 0
M  V30 1808 O 173.084 1.85723 0.779036 0
M  V30 1809 C 170.149 3.31095 1.02844 0
M  V30 1810 C 169.21 4.28497 0.26244 0
M  V30 1811 C 168.443 5.20465 1.1812 0
M  V30 1812 O 168.666 5.16514 2.42011 0
M  V30 1813 O 167.6 5.98251 0.661774 0
M  V30 1814 H 171.426 2.95989 -0.68003 0
M  V30 1815 H 169.011 1.43994 -0.398252 0
M  V30 1816 H 170.893 3.90526 1.58327 0
M  V30 1817 H 169.568 2.72144 1.7527 0
M  V30 1818 H 168.475 3.72592 -0.335602 0
M  V30 1819 H 169.808 4.90388 -0.421936 0
M  V30 1820 N 171.46 0.379036 1.52974 0
M  V30 1821 C 172.706 -0.206727 2.01744 0
M  V30 1822 C 173.039 -1.47314 1.26539 0
M  V30 1823 O 172.314 -1.91084 0.362903 0
M  V30 1824 C 172.597 -0.485066 3.56818 0
M  V30 1825 C 172.45 0.795919 4.42702 0
M  V30 1826 C 173.769 -1.28003 4.21074 0
M  V30 1827 H 170.888 -0.0736607 0.73331 0
M  V30 1828 H 173.53 0.506581 1.83122 0
M  V30 1829 H 171.68 -1.09272 3.72816 0
M  V30 1830 H 173.352 1.43307 4.38476 0
M  V30 1831 H 171.595 1.41344 4.10127 0
M  V30 1832 H 172.266 0.555947 5.49193 0
M  V30 1833 H 174.742 -0.765867 4.08991 0
M  V30 1834 H 173.618 -1.44352 5.29579 0
M  V30 1835 H 173.879 -2.29236 3.78026 0
M  V30 1836 N 172.938 -1.57226 0.108567 0
M  V30 1837 C 174.215 -1.86333 -0.594939 0
M  V30 1838 C 174.595 -1.00788 -1.85486 0
M  V30 1839 O 173.943 -0.0839293 -2.28346 0
M  V30 1840 C 174.153 -3.37265 -0.897405 0
M  V30 1841 C 175.501 -4.05629 -1.25501 0
M  V30 1842 O 176.525 -3.42224 -0.987998 0
M  V30 1843 O 175.384 -5.17531 -1.75567 0
M  V30 1844 H 172.478 -0.771018 -0.2991 0
M  V30 1845 H 175.024 -1.69102 0.142283 0
M  V30 1846 H 173.796 -3.913 -0.00413806 0
M  V30 1847 H 173.419 -3.59889 -1.69014 0
M  V30 1848 N 174.416 0.165178 -1.56732 0
M  V30 1849 C 175.664 0.879068 -1.8198 0
M  V30 1850 C 175.985 1.82514 -0.686561 0
M  V30 1851 O 175.255 1.93694 0.293146 0
M  V30 1852 H 173.835 0.327608 -0.671329 0
M  V30 1853 H 176.497 0.163526 -1.94213 0
M  V30 1854 H 175.593 1.45228 -2.76252 0
M  V30 1855 N 175.894 1.51508 0.433938 0
M  V30 1856 C 176.824 1.76016 1.53429 0
M  V30 1857 C 177.805 0.610112 1.58782 0
M  V30 1858 O 178.99 0.853177 1.74455 0
M  V30 1859 C 176.12 1.88831 2.9148 0
M  V30 1860 C 175.074 3.04288 3.00987 0
M  V30 1861 C 174.4 3.0229 4.4105 0
M  V30 1862 C 175.7 4.44193 2.74754 0
M  V30 1863 H 177.394 2.68152 1.33171 0
M  V30 1864 H 174.94 1.29035 0.639214 0
M  V30 1865 H 176.893 2.04559 3.6842 0
M  V30 1866 H 175.617 0.933455 3.12976 0
M  V30 1867 H 174.276 2.8827 2.26486 0
M  V30 1868 H 173.924 2.04576 4.59519 0
M  V30 1869 H 173.624 3.79822 4.4834 0
M  V30 1870 H 175.148 3.20116 5.1996 0
M  V30 1871 H 176.562 4.60544 3.41426 0
M  V30 1872 H 174.959 5.23457 2.9345 0
M  V30 1873 H 176.029 4.53996 1.70339 0
M  V30 1874 N 177.372 -0.689602 1.41712 0
M  V30 1875 C 178.282 -1.83314 1.46401 0
M  V30 1876 C 179.298 -1.7036 0.35405 0
M  V30 1877 O 180.474 -1.92171 0.602692 0
M  V30 1878 C 177.539 -3.19344 1.34982 0
M  V30 1879 C 176.6 -3.44363 2.56344 0
M  V30 1880 C 175.833 -4.73904 2.45461 0
M  V30 1881 O 176.056 -5.508 1.48241 0
M  V30 1882 O 174.99 -4.99839 3.35328 0
M  V30 1883 H 178.816 -1.82314 2.42889 0
M  V30 1884 H 176.401 -0.843438 1.23315 0
M  V30 1885 H 178.283 -4.00547 1.3092 0
M  V30 1886 H 176.958 -3.21014 0.41612 0
M  V30 1887 H 175.865 -2.63067 2.65982 0
M  V30 1888 H 177.198 -3.47512 3.48563 0
M  V30 1889 N 178.85 -1.27639 -0.924453 0
M  V30 1890 C 179.78 -1.13166 -2.04244 0
M  V30 1891 C 180.761 -0.032256 -1.70069 0
M  V30 1892 O 181.946 -0.207328 -1.9309 0
M  V30 1893 C 179.076 -0.781496 -3.38393 0
M  V30 1894 C 178.03 -1.83449 -3.86692 0
M  V30 1895 C 177.356 -1.33822 -5.17683 0
M  V30 1896 C 178.656 -3.23917 -4.09726 0
M  V30 1897 H 180.35 -2.06689 -2.1661 0
M  V30 1898 H 177.896 -0.995136 -1.04082 0
M  V30 1899 H 179.849 -0.667057 -4.16087 0
M  V30 1900 H 178.573 0.189439 -3.2605 0
M  V30 1901 H 177.232 -1.93789 -3.11193 0
M  V30 1902 H 176.88 -0.35665 -5.01734 0
M  V30 1903 H 176.58 -2.04224 -5.50968 0
M  V30 1904 H 178.104 -1.23679 -5.97943 0
M  V30 1905 H 179.518 -3.16559 -4.77978 0
M  V30 1906 H 177.915 -3.92059 -4.54324 0
M  V30 1907 H 178.985 -3.68729 -3.14908 0
M  V30 1908 N 180.328 1.1314 -1.09713 0
M  V30 1909 C 181.574 1.84757 -0.836224 0
M  V30 1910 C 181.907 1.8347 0.636598 0
M  V30 1911 O 181.182 1.27491 1.46889 0
M  V30 1912 C 181.465 3.32782 -1.37578 0
M  V30 1913 C 181.318 3.42567 -2.91493 0
M  V30 1914 C 182.637 4.28307 -1.01198 0
M  V30 1915 H 179.756 0.67082 -0.305236 0
M  V30 1916 H 182.398 1.3278 -1.35903 0
M  V30 1917 H 180.548 3.77177 -0.931097 0
M  V30 1918 H 182.22 3.06862 -3.44432 0
M  V30 1919 H 180.463 2.83349 -3.28475 0
M  V30 1920 H 181.134 4.46674 -3.24324 0
M  V30 1921 H 183.61 3.91999 -1.39556 0
M  V30 1922 H 182.486 5.30307 -1.41653 0
M  V30 1923 H 182.747 4.42029 0.0794833 0
M  V30 1924 N 181.806 0.884767 1.30421 0
M  V30 1925 C 183.222 0.57874 1.48737 0
M  V30 1926 C 183.422 -0.883567 1.81095 0
M  V30 1927 O 182.478 -1.6648 1.89844 0
M  V30 1928 C 183.791 1.49171 2.61091 0
M  V30 1929 C 185.339 1.49532 2.74971 0
M  V30 1930 C 185.814 2.39421 3.90438 0
M  V30 1931 N 187.305 2.37383 3.97748 0
M  V30 1932 C 188.04 3.03647 4.86401 0
M  V30 1933 N 187.536 3.79136 5.79852 0
M  V30 1934 N 189.329 2.9288 4.79768 0
M  V30 1935 H 181.48 1.83075 1.0769 0
M  V30 1936 H 183.743 0.783637 0.533495 0
M  V30 1937 H 183.449 2.53291 2.44001 0
M  V30 1938 H 183.323 1.20113 3.57565 0
M  V30 1939 H 185.71 0.46163 2.91467 0
M  V30 1940 H 185.791 1.8262 1.79119 0
M  V30 1941 H 185.435 3.42874 3.74699 0
M  V30 1942 H 185.365 2.03649 4.85628 0
M  V30 1943 H 187.856 1.82525 3.30897 0
M  V30 1944 H 188.169 4.26789 6.4426 0
M  V30 1945 H 186.514 3.83243 5.79784 0
M  V30 1946 H 189.705 2.33433 4.05742 0
M  V30 1947 H 189.878 3.448 5.4865 0
M  V30 1948 N 183.284 -1.43765 0.645699 0
M  V30 1949 C 184.231 -2.30745 -0.0504648 0
M  V30 1950 C 185.201 -1.4432 -0.822241 0
M  V30 1951 O 186.386 -1.73202 -0.800358 0
M  V30 1952 C 183.526 -3.29802 -1.0161 0
M  V30 1953 C 182.639 -4.31326 -0.241219 0
M  V30 1954 C 181.774 -5.17469 -1.19998 0
M  V30 1955 C 180.813 -6.10691 -0.415094 0
M  V30 1956 N 179.95 -6.89483 -1.32506 0
M  V30 1957 H 184.79 -2.8973 0.697155 0
M  V30 1958 H 182.327 -1.42738 0.355563 0
M  V30 1959 H 184.285 -3.85734 -1.58949 0
M  V30 1960 H 182.915 -2.72483 -1.73069 0
M  V30 1961 H 181.967 -3.77749 0.448334 0
M  V30 1962 H 183.279 -4.9743 0.369437 0
M  V30 1963 H 182.433 -5.7799 -1.84424 0
M  V30 1964 H 181.172 -4.51473 -1.84455 0
M  V30 1965 H 180.177 -5.49265 0.242565 0
M  V30 1966 H 181.402 -6.78727 0.224966 0
M  V30 1967 H 179.348 -6.26142 -1.95657 0
M  V30 1968 H 179.265 -7.52081 -0.768783 0
M  V30 1969 H 180.533 -7.54516 -1.9577 0
M  V30 1970 N 184.763 -0.387143 -1.52771 0
M  V30 1971 C 186.01 0.195735 -2.01552 0
M  V30 1972 C 186.338 1.46995 -1.27369 0
M  V30 1973 O 185.593 1.92325 -0.361879 0
M  V30 1974 C 185.892 0.512209 -3.53711 0
M  V30 1975 C 185.558 -0.670202 -4.45891 0
M  V30 1976 C 184.22 -0.994586 -4.70809 0
M  V30 1977 C 186.572 -1.46134 -5.00294 0
M  V30 1978 C 183.9 -2.11169 -5.4738 0
M  V30 1979 C 186.252 -2.56903 -5.78086 0
M  V30 1980 C 184.916 -2.89852 -6.01284 0
M  V30 1981 H 184.186 0.0716246 -0.73753 0
M  V30 1982 H 186.833 -0.524046 -1.8419 0
M  V30 1983 H 185.138 1.31329 -3.69134 0
M  V30 1984 H 186.835 0.975804 -3.88946 0
M  V30 1985 H 183.425 -0.407366 -4.2666 0
M  V30 1986 H 187.609 -1.22397 -4.80971 0
M  V30 1987 H 182.865 -2.3707 -5.63567 0
M  V30 1988 H 187.039 -3.18608 -6.19243 0
M  V30 1989 H 184.666 -3.76533 -6.60399 0
M  V30 1990 N 186.241 1.57166 -0.116904 0
M  V30 1991 C 187.466 1.999 0.55271 0
M  V30 1992 C 187.891 0.996039 1.59564 0
M  V30 1993 O 187.249 -0.032556 1.81271 0
M  V30 1994 C 187.297 3.4152 1.15742 0
M  V30 1995 O 186.401 3.44106 2.27299 0
M  V30 1996 H 185.742 0.649447 0.138258 0
M  V30 1997 H 188.272 2.03573 -0.204759 0
M  V30 1998 H 188.282 3.79684 1.49346 0
M  V30 1999 H 186.957 4.14034 0.393493 0
M  V30 2000 H 185.534 3.17759 1.9515 0
M  V30 2001 N 187.719 -0.156864 1.56817 0
M  V30 2002 C 188.629 -1.2136 2.00771 0
M  V30 2003 C 189.645 -1.47598 0.921459 0
M  V30 2004 O 190.821 -1.59462 1.2302 0
M  V30 2005 C 187.886 -2.52943 2.37109 0
M  V30 2006 C 186.947 -2.34439 3.59634 0
M  V30 2007 C 186.18 -3.59748 3.94229 0
M  V30 2008 O 186.403 -4.65526 3.29609 0
M  V30 2009 O 185.337 -3.52998 4.8752 0
M  V30 2010 H 189.163 -0.870468 2.90958 0
M  V30 2011 H 186.748 -0.36484 1.44877 0
M  V30 2012 H 188.63 -3.30538 2.61386 0
M  V30 2013 H 187.305 -2.86806 1.5008 0
M  V30 2014 H 186.212 -1.54828 3.40557 0
M  V30 2015 H 187.545 -2.05496 4.4725 0
M  V30 2016 N 189.197 -1.51736 -0.425897 0
M  V30 2017 C 190.474 -1.55519 -1.1863 0
M  V30 2018 C 190.854 -0.326219 -2.08564 0
M  V30 2019 O 190.202 0.688012 -2.17896 0
M  V30 2020 C 190.412 -2.87521 -1.9782 0
M  V30 2021 C 191.76 -3.39899 -2.54468 0
M  V30 2022 O 192.784 -2.89148 -2.08019 0
M  V30 2023 O 191.643 -4.2848 -3.39215 0
M  V30 2024 H 188.737 -0.625739 -0.540721 0
M  V30 2025 H 191.283 -1.64055 -0.434038 0
M  V30 2026 H 190.055 -3.68422 -1.31836 0
M  V30 2027 H 189.678 -2.822 -2.80088 0
M  V30 2028 N 190.675 0.682077 -1.42076 0
M  V30 2029 C 191.608 1.80666 -1.3941 0
M  V30 2030 C 192.586 1.60518 -0.25939 0
M  V30 2031 O 193.77 1.83088 -0.448456 0
M  V30 2032 C 190.897 3.17556 -1.17796 0
M  V30 2033 C 189.943 3.56468 -2.34164 0
M  V30 2034 S 190.776 3.59729 -3.96681 0
M  V30 2035 C 191.932 4.99323 -3.77395 0
M  V30 2036 H 192.165 1.82652 -2.34575 0
M  V30 2037 H 189.698 0.852062 -1.2876 0
M  V30 2038 H 191.656 3.96575 -1.06012 0
M  V30 2039 H 190.317 3.13164 -0.242279 0
M  V30 2040 H 189.51 4.5595 -2.1477 0
M  V30 2041 H 189.112 2.84792 -2.42425 0
M  V30 2042 H 191.404 5.87202 -3.37935 0
M  V30 2043 H 192.347 5.23763 -4.76527 0
M  V30 2044 H 192.755 4.71498 -3.10403 0
M  V30 2045 N 192.153 1.28127 0.917671 0
M  V30 2046 C 193.063 1.13556 2.05286 0
M  V30 2047 C 194.079 0.0630914 1.73886 0
M  V30 2048 O 195.255 0.271598 1.9956 0
M  V30 2049 C 192.32 0.794676 3.3747 0
M  V30 2050 C 191.381 1.94909 3.82504 0
M  V30 2051 C 190.614 1.62437 5.0838 0
M  V30 2052 O 190.837 0.536905 5.67867 0
M  V30 2053 O 189.771 2.46677 5.4903 0
M  V30 2054 H 193.597 2.08844 2.20495 0
M  V30 2055 H 191.182 1.07409 1.03845 0
M  V30 2056 H 193.064 0.618344 4.16839 0
M  V30 2057 H 191.739 -0.128581 3.23445 0
M  V30 2058 H 190.646 2.18055 3.03978 0
M  V30 2059 H 191.979 2.85291 4.01086 0
M  V30 2060 N 193.631 -1.12557 1.10312 0
M  V30 2061 C 194.579 -2.20325 0.745629 0
M  V30 2062 C 195.573 -1.67429 -0.25763 0
M  V30 2063 O 196.779 -1.79612 -0.118132 0
M  V30 2064 H 193.154 -0.718118 0.223182 0
M  V30 2065 H 195.125 -2.47733 1.66346 0
M  V30 2066 C 193.874 -3.47168 0.192262 0
M  V30 2067 H 193.197 -3.88215 0.955475 0
M  V30 2068 H 194.637 -4.23995 -0.0198274 0
M  V30 2069 C 193.096 -3.19298 -1.07472 0
M  V30 2070 O 193.626 -3.3891 -2.15645 0
M  V30 2071 N 191.832 -2.73113 -0.992847 0
M  V30 2072 H 191.379 -2.57354 -0.112474 0
M  V30 2073 H 191.337 -2.54842 -1.84127 0
M  V30 2074 N 195.109 -0.891671 -1.2995 0
M  V30 2075 C 196.042 -0.307994 -2.26112 0
M  V30 2076 C 197.02 0.575262 -1.52084 0
M  V30 2077 O 198.204 0.523864 -1.81074 0
M  V30 2078 C 195.331 0.561734 -3.34009 0
M  V30 2079 C 194.377 -0.253107 -4.25748 0
M  V30 2080 S 195.21 -1.64572 -5.09584 0
M  V30 2081 C 196.366 -0.782699 -6.20987 0
M  V30 2082 H 196.599 -1.12309 -2.75271 0
M  V30 2083 H 194.132 -0.691509 -1.38049 0
M  V30 2084 H 196.09 1.05777 -3.96638 0
M  V30 2085 H 194.751 1.35099 -2.83561 0
M  V30 2086 H 193.944 0.410908 -5.02322 0
M  V30 2087 H 193.546 -0.682004 -3.67729 0
M  V30 2088 H 195.838 -0.00257476 -6.775 0
M  V30 2089 H 196.781 -1.52026 -6.91588 0
M  V30 2090 H 197.189 -0.340638 -5.63471 0
M  V30 2091 N 196.587 1.43421 -0.653314 0
M  V30 2092 C 197.517 2.33487 0.0246656 0
M  V30 2093 C 198.498 1.49475 0.811863 0
M  V30 2094 O 199.683 1.78139 0.773322 0
M  V30 2095 C 196.813 3.32841 0.99166 0
M  V30 2096 C 195.767 4.26842 0.314568 0
M  V30 2097 C 195.093 5.16236 1.39302 0
M  V30 2098 C 196.393 5.16243 -0.793095 0
M  V30 2099 H 198.087 2.90427 -0.727481 0
M  V30 2100 H 195.633 1.39649 -0.351287 0
M  V30 2101 H 197.586 3.94747 1.47487 0
M  V30 2102 H 196.31 2.74158 1.77497 0
M  V30 2103 H 194.969 3.663 -0.148199 0
M  V30 2104 H 194.617 4.53891 2.16776 0
M  V30 2105 H 194.317 5.79948 0.945223 0
M  V30 2106 H 195.841 5.81015 1.87759 0
M  V30 2107 H 197.255 5.71958 -0.392039 0
M  V30 2108 H 195.652 5.88676 -1.16536 0
M  V30 2109 H 196.722 4.55927 -1.65103 0
M  V30 2110 N 198.065 0.39524 1.52563 0
M  V30 2111 C 199.481 0.0454682 1.59535 0
M  V30 2112 C 199.681 -1.44056 1.4089 0
M  V30 2113 O 198.737 -2.20579 1.22888 0
M  V30 2114 C 200.05 0.527963 2.96029 0
M  V30 2115 C 201.598 0.484733 3.09224 0
M  V30 2116 C 202.073 0.943512 4.48176 0
M  V30 2117 N 203.564 0.899765 4.54377 0
M  V30 2118 C 204.299 1.22609 5.60138 0
M  V30 2119 N 203.795 1.62319 6.73516 0
M  V30 2120 N 205.588 1.14696 5.50274 0
M  V30 2121 H 197.739 1.36261 1.62931 0
M  V30 2122 H 200.002 0.558887 0.765735 0
M  V30 2123 H 199.708 1.56607 3.14908 0
M  V30 2124 H 199.582 -0.0698056 3.77135 0
M  V30 2125 H 201.969 -0.544298 2.90037 0
M  V30 2126 H 202.05 1.11838 2.30056 0
M  V30 2127 H 201.694 1.9708 4.68104 0
M  V30 2128 H 201.624 0.286817 5.25818 0
M  V30 2129 H 204.115 0.607632 3.72983 0
M  V30 2130 H 204.428 1.85567 7.5019 0
M  V30 2131 H 202.773 1.66211 6.74833 0
M  V30 2132 H 205.964 0.835701 4.6058 0
M  V30 2133 H 206.137 1.40459 6.32594 0
M  V30 2134 N 199.544 -1.57102 0.125237 0
M  V30 2135 C 200.96 -1.57915 -0.231322 0
M  V30 2136 C 201.16 -1.13833 -1.66266 0
M  V30 2137 O 200.216 -0.828581 -2.38518 0
M  V30 2138 C 201.529 -3.00699 0.00766489 0
M  V30 2139 C 203.077 -3.12947 -0.0577483 0
M  V30 2140 C 203.552 -4.57742 0.153626 0
M  V30 2141 N 205.043 -4.63092 0.0998073 0
M  V30 2142 C 205.778 -5.72905 0.238174 0
M  V30 2143 N 205.274 -6.91445 0.433057 0
M  V30 2144 N 207.067 -5.6182 0.177308 0
M  V30 2145 H 199.218 -1.84055 1.06007 0
M  V30 2146 H 201.481 -0.850905 0.417929 0
M  V30 2147 H 201.187 -3.3726 0.997431 0
M  V30 2148 H 201.061 -3.70236 -0.721452 0
M  V30 2149 H 203.448 -2.7624 -1.03804 0
M  V30 2150 H 203.529 -2.4594 0.70335 0
M  V30 2151 H 203.173 -4.95149 1.13092 0
M  V30 2152 H 203.103 -5.22848 -0.627534 0
M  V30 2153 H 205.594 -3.77871 -0.047051 0
M  V30 2154 H 205.907 -7.70985 0.529332 0
M  V30 2155 H 204.252 -6.93415 0.469109 0
M  V30 2156 H 207.443 -4.68093 0.0259748 0
M  V30 2157 H 207.616 -6.47357 0.288582 0
M  V30 2158 N 201.022 0.148545 -1.56898 0
M  V30 2159 C 201.969 1.18345 -1.98149 0
M  V30 2160 C 202.939 1.42772 -0.848848 0
M  V30 2161 O 204.124 1.55132 -1.11079 0
M  V30 2162 C 201.264 2.51231 -2.36594 0
M  V30 2163 C 200.377 2.33991 -3.63142 0
M  V30 2164 C 199.512 3.59902 -3.90697 0
M  V30 2165 C 198.551 3.37692 -5.1052 0
M  V30 2166 N 197.688 4.5573 -5.34092 0
M  V30 2167 H 202.528 0.82467 -2.86362 0
M  V30 2168 H 200.065 0.395756 -1.41676 0
M  V30 2169 H 202.023 3.28713 -2.56912 0
M  V30 2170 H 200.653 2.85059 -1.51463 0
M  V30 2171 H 199.705 1.47572 -3.50609 0
M  V30 2172 H 201.017 2.13539 -4.5078 0
M  V30 2173 H 200.171 4.45813 -4.11505 0
M  V30 2174 H 198.91 3.83357 -3.01477 0
M  V30 2175 H 197.915 2.5017 -4.89587 0
M  V30 2176 H 199.14 3.15637 -6.0129 0
M  V30 2177 H 197.086 4.79361 -4.47827 0
M  V30 2178 H 197.003 4.38274 -6.15996 0
M  V30 2179 H 198.271 5.42858 -5.59397 0
M  V30 2180 N 202.5 1.5196 0.417844 0
M  V30 2181 C 203.746 1.65836 1.16732 0
M  V30 2182 C 204.079 0.382881 1.90388 0
M  V30 2183 O 203.354 -0.618368 1.84408 0
M  V30 2184 C 203.637 2.87466 2.16876 0
M  V30 2185 C 203.49 4.25041 1.47174 0
M  V30 2186 C 204.809 3.04613 3.17646 0
M  V30 2187 H 201.928 0.603515 0.423011 0
M  V30 2188 H 204.57 1.84494 0.454105 0
M  V30 2189 H 202.72 2.71689 2.777 0
M  V30 2190 H 204.392 4.52527 0.895376 0
M  V30 2191 H 202.635 4.26843 0.773806 0
M  V30 2192 H 203.306 5.06176 2.20204 0
M  V30 2193 H 205.782 3.1923 2.66892 0
M  V30 2194 H 204.658 3.91247 3.8499 0
M  V30 2195 H 204.919 2.17541 3.84874 0
M  V30 2196 N 203.978 -0.674533 1.42435 0
M  V30 2197 C 204.888 -1.81751 1.48337 0
M  V30 2198 C 205.904 -1.69975 0.372099 0
M  V30 2199 O 207.08 -1.91521 0.62304 0
M  V30 2200 C 204.145 -3.17895 1.38361 0
M  V30 2201 C 203.206 -3.41625 2.59982 0
M  V30 2202 C 202.439 -4.71274 2.50473 0
M  V30 2203 O 202.662 -5.49197 1.54075 0
M  V30 2204 O 201.596 -4.96254 3.4061 0
M  V30 2205 H 205.422 -1.79728 2.44809 0
M  V30 2206 H 203.007 -0.830312 1.24202 0
M  V30 2207 H 204.889 -3.99136 1.35161 0
M  V30 2208 H 203.564 -3.20555 0.450144 0
M  V30 2209 H 202.471 -2.60231 2.68757 0
M  V30 2210 H 203.804 -3.43796 3.52229 0
M  V30 2211 N 205.456 -1.28612 -0.910864 0
M  V30 2212 C 206.419 -1.12803 -1.9952 0
M  V30 2213 C 207.419 -0.0668264 -1.60661 0
M  V30 2214 O 208.609 -0.312847 -1.71368 0
M  V30 2215 C 205.741 -0.72254 -3.33155 0
M  V30 2216 H 206.934 -2.09109 -2.14973 0
M  V30 2217 H 204.487 -1.11639 -1.09391 0
M  V30 2218 H 205.222 0.241152 -3.23402 0
M  V30 2219 H 205.007 -1.48916 -3.62721 0
M  V30 2220 H 206.497 -0.634666 -4.12749 0
M  V30 2221 N 206.934 1.1197 -1.10907 0
M  V30 2222 C 208.18 1.8386 -0.855773 0
M  V30 2223 C 208.513 1.84134 0.617103 0
M  V30 2224 O 207.788 1.29041 1.45529 0
M  V30 2225 C 208.071 3.31305 -1.411 0
M  V30 2226 C 207.924 3.39456 -2.9511 0
M  V30 2227 C 209.243 4.2721 -1.05736 0
M  V30 2228 H 206.362 0.667545 -0.312334 0
M  V30 2229 H 209.004 1.31331 -1.37303 0
M  V30 2230 H 207.154 3.76169 -0.97105 0
M  V30 2231 H 208.826 3.03191 -3.47668 0
M  V30 2232 H 207.069 2.79849 -3.31462 0
M  V30 2233 H 207.74 4.43209 -3.29044 0
M  V30 2234 H 210.216 3.90497 -1.43706 0
M  V30 2235 H 209.092 5.28775 -1.47269 0
M  V30 2236 H 209.353 4.42088 0.0325958 0
M  V30 2237 N 208.412 0.89855 1.29475 0
M  V30 2238 C 209.344 0.332726 2.26772 0
M  V30 2239 C 210.357 -0.520323 1.54261 0
M  V30 2240 O 211.546 -0.337668 1.75277 0
M  V30 2241 C 208.646 -0.544334 3.345 0
M  V30 2242 C 207.819 0.282728 4.36485 0
M  V30 2243 C 206.878 -0.526982 5.23555 0
M  V30 2244 O 205.904 0.0551165 5.69173 0
M  V30 2245 N 207.106 -1.83331 5.5079 0
M  V30 2246 H 209.871 1.16897 2.75962 0
M  V30 2247 H 207.432 0.762919 1.42798 0
M  V30 2248 H 209.424 -1.09239 3.89678 0
M  V30 2249 H 207.994 -1.28127 2.85136 0
M  V30 2250 H 207.214 1.01221 3.80983 0
M  V30 2251 H 208.502 0.84918 5.01664 0
M  V30 2252 H 207.9 -2.32898 5.15534 0
M  V30 2253 H 206.457 -2.32852 6.08788 0
M  V30 2254 N 209.89 -1.43072 0.660911 0
M  V30 2255 C 210.838 -2.32569 -0.0378199 0
M  V30 2256 C 211.832 -1.49046 -0.805092 0
M  V30 2257 O 213.038 -1.65206 -0.714624 0
M  V30 2258 H 209.413 -0.75136 -0.031019 0
M  V30 2259 H 211.384 -2.89216 0.734609 0
M  V30 2260 C 210.133 -3.33453 -0.985124 0
M  V30 2261 H 209.456 -3.97752 -0.404147 0
M  V30 2262 H 210.896 -3.98691 -1.44297 0
M  V30 2263 C 209.355 -2.64642 -2.08486 0
M  V30 2264 O 209.885 -2.46776 -3.16961 0
M  V30 2265 N 208.091 -2.23891 -1.8526 0
M  V30 2266 H 207.638 -2.38621 -0.970449 0
M  V30 2267 H 207.596 -1.78181 -2.59034 0
M  V30 2268 N 211.368 -0.403325 -1.52352 0
M  V30 2269 C 212.298 0.416205 -2.29761 0
M  V30 2270 C 213.279 1.05123 -1.33728 0
M  V30 2271 O 214.464 1.06134 -1.62632 0
M  V30 2272 C 211.594 1.53624 -3.11475 0
M  V30 2273 C 210.548 1.02653 -4.15507 0
M  V30 2274 C 209.874 2.23971 -4.85532 0
M  V30 2275 C 211.174 0.08463 -5.22231 0
M  V30 2276 H 212.868 -0.229701 -2.98518 0
M  V30 2277 H 210.414 -0.111913 -1.43564 0
M  V30 2278 H 212.367 2.1165 -3.64393 0
M  V30 2279 H 211.091 2.20994 -2.40477 0
M  V30 2280 H 209.75 0.46871 -3.63591 0
M  V30 2281 H 209.398 2.89883 -4.11068 0
M  V30 2282 H 209.098 1.90521 -5.55856 0
M  V30 2283 H 210.622 2.82614 -5.41259 0
M  V30 2284 H 212.036 0.573509 -5.70424 0
M  V30 2285 H 210.433 -0.160783 -5.99885 0
M  V30 2286 H 211.503 -0.86237 -4.7717 0
M  V30 2287 N 212.846 1.57033 -0.133567 0
M  V30 2288 C 214.092 1.95976 0.521649 0
M  V30 2289 C 214.425 1.01779 1.65393 0
M  V30 2290 O 213.7 0.0576581 1.94415 0
M  V30 2291 C 213.983 3.44738 1.04057 0
M  V30 2292 C 213.836 4.49711 -0.0892897 0
M  V30 2293 C 215.155 3.95682 1.92675 0
M  V30 2294 H 212.274 0.712579 0.188149 0
M  V30 2295 H 214.916 1.88813 -0.212076 0
M  V30 2296 H 213.066 3.50973 1.66583 0
M  V30 2297 H 214.738 4.55565 -0.725152 0
M  V30 2298 H 212.981 4.27261 -0.750378 0
M  V30 2299 H 213.652 5.51099 0.315284 0
M  V30 2300 H 216.128 3.91841 1.39998 0
M  V30 2301 H 215.004 5.00262 2.25897 0
M  V30 2302 H 215.265 3.37239 2.85872 0
M  V30 2303 N 214.325 -0.140222 1.56975 0
M  V30 2304 C 215.235 -1.19223 2.02047 0
M  V30 2305 C 216.251 -1.46612 0.937062 0
M  V30 2306 O 217.427 -1.58148 1.24704 0
M  V30 2307 C 214.492 -2.50414 2.39778 0
M  V30 2308 C 213.553 -2.30612 3.621 0
M  V30 2309 C 212.786 -3.55547 3.98023 0
M  V30 2310 O 213.009 -4.62004 3.34528 0
M  V30 2311 O 211.943 -3.47808 4.91237 0
M  V30 2312 H 215.769 -0.839559 2.91865 0
M  V30 2313 H 213.354 -0.349453 1.45256 0
M  V30 2314 H 215.236 -3.27747 2.64877 0
M  V30 2315 H 213.911 -2.85198 1.53114 0
M  V30 2316 H 212.818 -1.51207 3.4218 0
M  V30 2317 H 214.151 -2.00741 4.49404 0
M  V30 2318 N 215.803 -1.52179 -0.40978 0
M  V30 2319 C 216.766 -1.74853 -1.48186 0
M  V30 2320 C 217.766 -0.618417 -1.48433 0
M  V30 2321 O 218.956 -0.886286 -1.49969 0
M  V30 2322 C 216.088 -1.8303 -2.87598 0
M  V30 2323 H 217.281 -2.70559 -1.29374 0
M  V30 2324 H 214.834 -1.42586 -0.640233 0
M  V30 2325 H 215.569 -0.89236 -3.11781 0
M  V30 2326 H 215.354 -2.65187 -2.88822 0
M  V30 2327 H 216.844 -2.02316 -3.65319 0
M  V30 2328 N 217.281 0.66697 -1.42791 0
M  V30 2329 C 218.244 1.76211 -1.46568 0
M  V30 2330 C 219.244 1.56896 -0.352196 0
M  V30 2331 O 220.434 1.63044 -0.613364 0
M  V30 2332 C 217.566 3.14935 -1.30494 0
M  V30 2333 H 218.759 1.74247 -2.44086 0
M  V30 2334 H 216.312 0.877342 -1.29354 0
M  V30 2335 H 217.047 3.2252 -0.339301 0
M  V30 2336 H 216.832 3.30359 -2.11199 0
M  V30 2337 H 218.322 3.94821 -1.36038 0
M  V30 2338 N 218.759 1.29093 0.90403 0
M  V30 2339 C 219.669 1.15727 2.0407 0
M  V30 2340 C 220.685 0.0815308 1.73809 0
M  V30 2341 O 221.861 0.292749 1.99261 0
M  V30 2342 C 218.926 0.830424 3.36608 0
M  V30 2343 C 217.987 1.98955 3.80415 0
M  V30 2344 C 217.22 1.6782 5.06628 0
M  V30 2345 O 217.443 0.597105 5.67266 0
M  V30 2346 O 216.377 2.52486 5.46383 0
M  V30 2347 H 220.203 2.11171 2.18267 0
M  V30 2348 H 217.788 1.08504 1.027 0
M  V30 2349 H 219.67 0.662521 4.16159 0
M  V30 2350 H 218.345 -0.0942678 3.23563 0
M  V30 2351 H 217.252 2.21267 3.01648 0
M  V30 2352 H 218.585 2.89529 3.98037 0
M  V30 2353 N 220.237 -1.11381 1.11499 0
M  V30 2354 C 221.147 -2.21019 0.786628 0
M  V30 2355 C 222.163 -1.72597 -0.220507 0
M  V30 2356 O 223.339 -2.01321 -0.0565251 0
M  V30 2357 C 220.404 -3.459 0.235333 0
M  V30 2358 C 219.465 -4.09107 1.30115 0
M  V30 2359 C 218.698 -5.28027 0.776068 0
M  V30 2360 O 218.921 -5.6904 -0.393661 0
M  V30 2361 O 217.855 -5.81835 1.54114 0
M  V30 2362 H 221.681 -2.51521 1.70209 0
M  V30 2363 H 219.266 -1.19928 0.890928 0
M  V30 2364 H 221.148 -4.21346 -0.067715 0
M  V30 2365 H 219.823 -3.17049 -0.652828 0
M  V30 2366 H 218.73 -3.35391 1.65722 0
M  V30 2367 H 220.063 -4.42139 2.16273 0
M  V30 2368 N 221.715 -0.905404 -1.28997 0
M  V30 2369 C 222.678 -0.392253 -2.25819 0
M  V30 2370 C 223.678 0.476753 -1.5357 0
M  V30 2371 O 224.868 0.280994 -1.71919 0
M  V30 2372 C 222 0.438588 -3.38067 0
M  V30 2373 H 223.193 -1.24743 -2.72725 0
M  V30 2374 H 220.746 -0.684051 -1.40536 0
M  V30 2375 H 221.481 1.31352 -2.96508 0
M  V30 2376 H 221.266 -0.184167 -3.91667 0
M  V30 2377 H 222.756 0.78873 -4.10084 0
M  V30 2378 N 223.193 1.4272 -0.668489 0
M  V30 2379 C 224.47 1.95248 -0.117373 0
M  V30 2380 C 224.85 1.60919 1.36632 0
M  V30 2381 O 224.198 0.902095 2.09939 0
M  V30 2382 C 224.408 3.46927 -0.379806 0
M  V30 2383 C 225.756 4.23588 -0.292923 0
M  V30 2384 O 226.78 3.5482 -0.313204 0
M  V30 2385 O 225.639 5.46017 -0.229697 0
M  V30 2386 H 222.733 0.827 0.00079152 0
M  V30 2387 H 225.279 1.52581 -0.742783 0
M  V30 2388 H 224.051 3.65096 -1.40786 0
M  V30 2389 H 223.674 3.96627 0.277923 0
M  V30 2390 N 224.671 0.411399 1.52136 0
M  V30 2391 C 225.601 -0.404015 2.29978 0
M  V30 2392 C 226.582 -1.04412 1.34284 0
M  V30 2393 O 227.767 -1.0527 1.63192 0
M  V30 2394 C 224.897 -1.5197 3.12286 0
M  V30 2395 C 223.851 -1.00448 4.16046 0
M  V30 2396 C 223.177 -2.21393 4.86712 0
M  V30 2397 C 224.477 -0.0569336 5.22269 0
M  V30 2398 H 226.171 0.245529 2.98392 0
M  V30 2399 H 223.717 0.119525 1.43503 0
M  V30 2400 H 225.67 -2.09715 3.6551 0
M  V30 2401 H 224.394 -2.19716 2.41646 0
M  V30 2402 H 223.053 -0.449421 3.63835 0
M  V30 2403 H 222.701 -2.87699 4.12599 0
M  V30 2404 H 222.401 -1.87571 5.56858 0
M  V30 2405 H 223.925 -2.7974 5.4275 0
M  V30 2406 H 225.339 -0.54325 5.7072 0
M  V30 2407 H 223.736 0.192594 5.99791 0
M  V30 2408 H 224.806 0.887663 4.76706 0
M  V30 2409 N 226.149 -1.5696 0.141893 0
M  V30 2410 C 227.097 -2.17784 -0.816874 0
M  V30 2411 C 228.091 -1.1334 -1.25899 0
M  V30 2412 O 229.297 -1.316 -1.22806 0
M  V30 2413 H 225.672 -0.697278 -0.281615 0
M  V30 2414 H 227.643 -2.97087 -0.279621 0
M  V30 2415 C 226.392 -2.80983 -2.04802 0
M  V30 2416 H 225.715 -3.61062 -1.7168 0
M  V30 2417 H 227.155 -3.2705 -2.69841 0
M  V30 2418 C 225.614 -1.79228 -2.8527 0
M  V30 2419 O 226.144 -1.25962 -3.8144 0
M  V30 2420 N 224.35 -1.48647 -2.49704 0
M  V30 2421 H 223.897 -1.92155 -1.71564 0
M  V30 2422 H 223.855 -0.808115 -3.03837 0
M  V30 2423 N 227.627 0.131896 -1.57047 0
M  V30 2424 C 228.577 1.1679 -1.95816 0
M  V30 2425 C 229.561 1.37756 -0.831393 0
M  V30 2426 O 230.753 1.39065 -1.09499 0
M  V30 2427 C 227.882 2.49778 -2.35512 0
M  V30 2428 C 226.968 2.32342 -3.54793 0
M  V30 2429 N 227.359 1.8469 -4.70875 0
M  V30 2430 C 225.657 2.63043 -3.60173 0
M  V30 2431 C 226.358 1.80656 -5.52936 0
M  V30 2432 N 225.334 2.24528 -4.95064 0
M  V30 2433 H 229.136 0.791818 -2.83033 0
M  V30 2434 H 226.65 0.339791 -1.58805 0
M  V30 2435 H 228.647 3.24692 -2.61498 0
M  V30 2436 H 227.307 2.88156 -1.49654 0
M  V30 2437 H 228.318 1.54429 -4.9434 0
M  V30 2438 H 224.995 3.05193 -2.84892 0
M  V30 2439 H 226.385 1.45178 -6.56028 0
M  V30 2440 N 229.106 1.52395 0.401703 0
M  V30 2441 C 230.016 1.7917 1.51444 0
M  V30 2442 C 231.032 0.677691 1.6026 0
M  V30 2443 O 232.208 0.963909 1.76835 0
M  V30 2444 C 229.273 1.94347 2.87107 0
M  V30 2445 C 228.334 3.18257 2.88116 0
M  V30 2446 C 227.567 3.32701 4.17308 0
M  V30 2447 O 227.79 2.52238 5.11598 0
M  V30 2448 O 226.724 4.25891 4.25324 0
M  V30 2449 H 230.55 2.73633 1.31752 0
M  V30 2450 H 228.135 1.3733 0.588296 0
M  V30 2451 H 230.017 2.06109 3.67555 0
M  V30 2452 H 228.692 1.03073 3.06851 0
M  V30 2453 H 227.599 3.11947 2.06494 0
M  V30 2454 H 228.932 4.09336 2.73322 0
M  V30 2455 N 230.584 -0.659388 1.43143 0
M  V30 2456 C 231.831 -1.41935 1.44433 0
M  V30 2457 C 232.159 -1.94387 0.0663522 0
M  V30 2458 O 231.414 -1.72314 -0.927706 0
M  V30 2459 C 231.713 -2.62206 2.42864 0
M  V30 2460 C 231.379 -2.28208 3.88886 0
M  V30 2461 C 230.041 -2.18647 4.28657 0
M  V30 2462 C 232.393 -2.00887 4.8093 0
M  V30 2463 C 229.721 -1.79914 5.58433 0
M  V30 2464 C 232.073 -1.63653 6.11065 0
M  V30 2465 C 230.737 -1.52614 6.49819 0
M  V30 2466 H 230.007 -0.519376 0.528517 0
M  V30 2467 H 232.654 -0.750453 1.76183 0
M  V30 2468 H 230.959 -3.34199 2.04495 0
M  V30 2469 H 232.656 -3.2041 2.41119 0
M  V30 2470 H 229.246 -2.36557 3.57406 0
M  V30 2471 H 233.43 -2.07198 4.5098 0
M  V30 2472 H 228.686 -1.69948 5.87305 0
M  V30 2473 H 232.86 -1.41543 6.81864 0
M  V30 2474 H 230.487 -1.22371 7.50286 0
M  V30 2475 N 232.062 -1.29571 -0.897171 0
M  V30 2476 C 233.01 -1.14802 -2.02295 0
M  V30 2477 C 234.004 -0.0629637 -1.69283 0
M  V30 2478 O 235.21 -0.222945 -1.78614 0
M  V30 2479 H 231.585 -0.354692 -0.663097 0
M  V30 2480 H 233.556 -2.10108 -2.11889 0
M  V30 2481 C 232.305 -0.843966 -3.37302 0
M  V30 2482 H 231.628 -1.67093 -3.63208 0
M  V30 2483 H 233.068 -0.780672 -4.16751 0
M  V30 2484 C 231.527 0.452843 -3.33843 0
M  V30 2485 O 232.057 1.47813 -3.73516 0
M  V30 2486 N 230.263 0.459601 -2.86943 0
M  V30 2487 H 229.81 -0.375213 -2.54853 0
M  V30 2488 H 229.768 1.32726 -2.85011 0
M  V30 2489 N 233.54 1.10788 -1.12088 0
M  V30 2490 C 234.45 2.20599 -0.798338 0
M  V30 2491 C 235.466 1.72712 0.21135 0
M  V30 2492 O 236.642 2.01348 0.0458477 0
M  V30 2493 C 233.707 3.45771 -0.253674 0
M  V30 2494 C 232.768 4.08411 -1.32283 0
M  V30 2495 C 232.001 5.27608 -0.80406 0
M  V30 2496 O 232.224 5.69241 0.363478 0
M  V30 2497 O 231.158 5.8101 -1.57198 0
M  V30 2498 H 234.984 2.50614 -1.7154 0
M  V30 2499 H 232.569 1.19454 -0.897275 0
M  V30 2500 H 234.451 4.21376 0.0453691 0
M  V30 2501 H 233.126 3.1739 0.636005 0
M  V30 2502 H 232.033 3.34507 -1.67499 0
M  V30 2503 H 233.366 4.40986 -2.18614 0
M  V30 2504 N 235.018 0.912232 1.28515 0
M  V30 2505 C 236.243 0.559774 1.99703 0
M  V30 2506 C 236.668 -0.851393 1.67729 0
M  V30 2507 O 236.026 -1.56875 0.908834 0
M  V30 2508 C 236.074 0.773874 3.52198 0
M  V30 2509 O 235.178 -0.167842 4.12058 0
M  V30 2510 H 234.519 0.21723 0.627461 0
M  V30 2511 H 237.049 1.22725 1.63706 0
M  V30 2512 H 237.059 0.683386 4.02236 0
M  V30 2513 H 235.734 1.80261 3.74805 0
M  V30 2514 H 234.311 -0.0287509 3.72889 0
M  V30 2515 N 236.496 -1.42363 0.676048 0
M  V30 2516 C 237.426 -2.33497 0.0124832 0
M  V30 2517 C 238.407 -1.50748 -0.787981 0
M  V30 2518 O 239.592 -1.79346 -0.744884 0
M  V30 2519 C 236.722 -3.34377 -0.938582 0
M  V30 2520 C 235.676 -4.27289 -0.246622 0
M  V30 2521 C 235.002 -5.18386 -1.31071 0
M  V30 2522 C 236.302 -5.14916 0.875125 0
M  V30 2523 H 237.996 -2.89233 0.773593 0
M  V30 2524 H 235.542 -1.39073 0.37346 0
M  V30 2525 H 237.495 -3.97044 -1.41188 0
M  V30 2526 H 236.219 -2.76947 -1.73113 0
M  V30 2527 H 234.878 -3.66018 0.206456 0
M  V30 2528 H 234.526 -4.57282 -2.09528 0
M  V30 2529 H 234.226 -5.81378 -0.852839 0
M  V30 2530 H 235.75 -5.83929 -1.78492 0
M  V30 2531 H 237.164 -5.71262 0.482983 0
M  V30 2532 H 235.561 -5.86747 1.25887 0
M  V30 2533 H 236.631 -4.53242 1.72335 0
M  V30 2534 N 237.974 -0.419461 -1.51915 0
M  V30 2535 C 239.22 0.153166 -2.02221 0
M  V30 2536 C 239.553 1.43907 -1.30401 0
M  V30 2537 O 238.828 1.90055 -0.413438 0
M  V30 2538 C 239.111 0.390291 -3.57979 0
M  V30 2539 C 238.964 -0.913014 -4.40436 0
M  V30 2540 C 240.283 1.16794 -4.2432 0
M  V30 2541 H 237.402 0.0541924 -0.735005 0
M  V30 2542 H 240.044 -0.554955 -1.81715 0
M  V30 2543 H 238.194 0.993491 -3.75582 0
M  V30 2544 H 239.866 -1.54882 -4.34522 0
M  V30 2545 H 238.109 -1.52168 -4.06236 0
M  V30 2546 H 238.78 -0.701361 -5.47526 0
M  V30 2547 H 241.256 0.657161 -4.10878 0
M  V30 2548 H 240.132 1.3026 -5.3322 0
M  V30 2549 H 240.393 2.19132 -3.83971 0
M  V30 2550 N 239.452 1.56882 -0.150215 0
M  V30 2551 C 240.699 1.96228 0.500093 0
M  V30 2552 C 241.027 1.03522 1.64661 0
M  V30 2553 O 240.282 0.0650683 1.95592 0
M  V30 2554 C 240.581 3.41801 1.04437 0
M  V30 2555 C 240.247 4.50897 0.0159671 0
M  V30 2556 C 238.909 4.8046 -0.266731 0
M  V30 2557 C 241.261 5.16703 -0.683192 0
M  V30 2558 C 238.589 5.73135 -1.25434 0
M  V30 2559 C 240.941 6.10441 -1.65964 0
M  V30 2560 C 239.605 6.38382 -1.95 0
M  V30 2561 H 238.875 0.718048 0.182997 0
M  V30 2562 H 241.522 1.90019 -0.237724 0
M  V30 2563 H 239.827 3.44857 1.85959 0
M  V30 2564 H 241.524 3.69573 1.55618 0
M  V30 2565 H 238.114 4.27891 0.246485 0
M  V30 2566 H 242.298 4.93993 -0.477983 0
M  V30 2567 H 237.554 5.93074 -1.48571 0
M  V30 2568 H 241.728 6.60507 -2.20689 0
M  V30 2569 H 239.355 7.09996 -2.71679 0
M  V30 2570 N 240.93 -0.123565 1.57115 0
M  V30 2571 C 242.207 -0.862196 1.75572 0
M  V30 2572 C 242.587 -1.98279 0.724475 0
M  V30 2573 O 241.935 -2.27102 -0.252407 0
M  V30 2574 C 242.145 -1.38309 3.20424 0
M  V30 2575 C 243.493 -1.83724 3.82793 0
M  V30 2576 O 244.517 -1.47999 3.23998 0
M  V30 2577 O 243.376 -2.49685 4.86127 0
M  V30 2578 H 240.47 -0.409113 0.718718 0
M  V30 2579 H 243.016 -0.107661 1.69358 0
M  V30 2580 H 241.788 -0.578889 3.86994 0
M  V30 2581 H 241.411 -2.20046 3.31158 0
M  V30 2582 N 242.408 -1.52605 -0.393616 0
M  V30 2583 C 243.638 -1.71046 -1.15874 0
M  V30 2584 C 244.046 -0.426483 -1.84331 0
M  V30 2585 O 243.389 0.608513 -1.73329 0
M  V30 2586 C 243.451 -2.80118 -2.25332 0
M  V30 2587 C 243.115 -4.21381 -1.76881 0
M  V30 2588 C 244.112 -5.04697 -1.24808 0
M  V30 2589 C 241.797 -4.67683 -1.83244 0
M  V30 2590 C 243.791 -6.32393 -0.797387 0
M  V30 2591 C 241.478 -5.95364 -1.37787 0
M  V30 2592 C 242.476 -6.77549 -0.861208 0
M  V30 2593 O 242.164 -8.02837 -0.413252 0
M  V30 2594 H 241.896 -0.576155 -0.353583 0
M  V30 2595 H 244.45 -2.00018 -0.467123 0
M  V30 2596 H 242.68 -2.46557 -2.97904 0
M  V30 2597 H 244.369 -2.87006 -2.87023 0
M  V30 2598 H 245.135 -4.70111 -1.19252 0
M  V30 2599 H 241.014 -4.03805 -2.22401 0
M  V30 2600 H 244.558 -6.9649 -0.393437 0
M  V30 2601 H 240.455 -6.29455 -1.43026 0
M  V30 2602 H 241.223 -8.16749 -0.53515 0
M  V30 2603 N 243.887 0.651787 -1.4349 0
M  V30 2604 C 245.117 1.43728 -1.48411 0
M  V30 2605 C 245.525 1.8893 -0.10103 0
M  V30 2606 O 244.868 1.60182 0.899307 0
M  V30 2607 C 244.93 2.70411 -2.36893 0
M  V30 2608 C 244.594 2.4714 -3.8441 0
M  V30 2609 C 245.591 2.10271 -4.75481 0
M  V30 2610 C 243.276 2.6142 -4.28912 0
M  V30 2611 C 245.27 1.87982 -6.0905 0
M  V30 2612 C 242.957 2.38746 -5.62533 0
M  V30 2613 C 243.955 2.02083 -6.5242 0
M  V30 2614 O 243.643 1.79647 -7.8357 0
M  V30 2615 H 243.375 0.447962 -0.506267 0
M  V30 2616 H 245.929 0.80624 -1.88915 0
M  V30 2617 H 244.159 3.36079 -1.91278 0
M  V30 2618 H 245.848 3.32364 -2.33 0
M  V30 2619 H 246.614 1.98814 -4.42378 0
M  V30 2620 H 242.493 2.88931 -3.59222 0
M  V30 2621 H 246.037 1.5929 -6.7917 0
M  V30 2622 H 241.934 2.49806 -5.95203 0
M  V30 2623 H 242.702 1.9406 -7.95162 0
M  V30 2624 N 245.365 1.30045 0.890287 0
M  V30 2625 C 246.313 1.15873 2.01683 0
M  V30 2626 C 247.307 0.0719403 1.69247 0
M  V30 2627 O 248.513 0.232414 1.78493 0
M  V30 2628 H 244.888 0.358203 0.661207 0
M  V30 2629 H 246.859 2.11229 2.10772 0
M  V30 2630 C 245.608 0.861842 3.36849 0
M  V30 2631 H 244.931 1.69016 3.62317 0
M  V30 2632 H 246.371 0.802762 4.16331 0
M  V30 2633 C 244.83 -0.435132 3.34078 0
M  V30 2634 O 245.36 -1.4583 3.74295 0
M  V30 2635 N 243.566 -0.444377 2.87182 0
M  V30 2636 H 243.113 0.388723 2.5465 0
M  V30 2637 H 243.071 -1.31213 2.85711 0
M  V30 2638 N 246.843 -1.10192 1.12674 0
M  V30 2639 C 248.068 -1.86523 0.906853 0
M  V30 2640 C 248.493 -1.80221 -0.538711 0
M  V30 2641 O 247.851 -1.17396 -1.38158 0
M  V30 2642 C 247.899 -3.32758 1.3894 0
M  V30 2643 O 247.003 -4.08449 0.5695 0
M  V30 2644 H 246.344 -0.578678 0.325619 0
M  V30 2645 H 248.874 -1.39203 1.49946 0
M  V30 2646 H 248.884 -3.83608 1.38958 0
M  V30 2647 H 247.559 -3.36661 2.44197 0
M  V30 2648 H 246.136 -3.67427 0.636528 0
M  V30 2649 N 248.321 -0.919034 -1.28029 0
M  V30 2650 C 249.567 -0.555757 -1.95036 0
M  V30 2651 C 249.9 0.899198 -1.72128 0
M  V30 2652 O 249.175 1.64023 -1.04531 0
M  V30 2653 C 249.458 -0.872024 -3.49382 0
M  V30 2654 C 249.311 -2.3801 -3.81669 0
M  V30 2655 C 250.63 -0.37185 -4.38526 0
M  V30 2656 H 247.749 -0.203386 -0.708381 0
M  V30 2657 H 250.391 -1.14924 -1.51303 0
M  V30 2658 H 248.541 -0.366946 -3.86763 0
M  V30 2659 H 250.213 -2.9562 -3.54128 0
M  V30 2660 H 248.456 -2.83289 -3.28526 0
M  V30 2661 H 249.127 -2.55192 -4.8947 0
M  V30 2662 H 251.603 -0.804602 -4.08247 0
M  V30 2663 H 250.479 -0.622173 -5.45362 0
M  V30 2664 H 250.74 0.727934 -4.36066 0
M  V30 2665 N 249.799 1.42003 -0.683588 0
M  V30 2666 C 250.729 2.33487 -0.024866 0
M  V30 2667 C 251.71 1.51163 0.779975 0
M  V30 2668 O 252.895 1.79739 0.735362 0
M  V30 2669 C 250.025 3.3487 0.920836 0
M  V30 2670 C 248.979 4.27414 0.223958 0
M  V30 2671 C 248.305 5.19074 1.2832 0
M  V30 2672 C 249.605 5.14445 -0.90242 0
M  V30 2673 H 251.299 2.88819 -0.788921 0
M  V30 2674 H 248.845 1.38873 -0.38083 0
M  V30 2675 H 250.798 3.97787 1.39081 0
M  V30 2676 H 249.522 2.77861 1.71642 0
M  V30 2677 H 248.181 3.65904 -0.225864 0
M  V30 2678 H 247.829 4.58387 2.071 0
M  V30 2679 H 247.529 5.81822 0.821995 0
M  V30 2680 H 249.053 5.84867 1.75392 0
M  V30 2681 H 250.467 5.70998 -0.513272 0
M  V30 2682 H 248.864 5.86072 -1.28997 0
M  V30 2683 H 249.934 4.52322 -1.74737 0
M  V30 2684 N 251.277 0.427512 1.51691 0
M  V30 2685 C 252.526 -0.143679 2.01188 0
M  V30 2686 C 252.839 -1.44642 1.31674 0
M  V30 2687 O 254.045 -2.09997 1.72086 0
M  V30 2688 C 252.501 -0.306602 3.58592 0
M  V30 2689 C 252.109 0.985125 4.37035 0
M  V30 2690 C 253.853 -0.832091 4.16265 0
M  V30 2691 C 251.76 0.788382 5.86122 0
M  V30 2692 H 250.69 -0.0574701 0.751807 0
M  V30 2693 H 253.341 0.555772 1.74881 0
M  V30 2694 H 251.723 -1.06882 3.81303 0
M  V30 2695 H 252.897 1.75492 4.26074 0
M  V30 2696 H 251.212 1.4384 3.90767 0
M  V30 2697 H 253.809 -0.995617 5.25349 0
M  V30 2698 H 254.152 -1.81186 3.74803 0
M  V30 2699 H 254.685 -0.128444 3.97593 0
M  V30 2700 H 251.424 1.74025 6.31978 0
M  V30 2701 H 250.944 0.0582143 5.99772 0
M  V30 2702 H 252.623 0.437722 6.45518 0
M  V30 2703 N 252.755 -1.56801 0.158532 0
M  V30 2704 C 253.703 -2.18638 -0.793729 0
M  V30 2705 C 254.697 -1.14669 -1.24689 0
M  V30 2706 O 255.903 -1.32895 -1.21403 0
M  V30 2707 H 252.278 -0.700226 -0.274204 0
M  V30 2708 H 254.249 -2.97367 -0.248095 0
M  V30 2709 C 252.998 -2.83139 -2.0181 0
M  V30 2710 H 252.321 -3.62863 -1.67841 0
M  V30 2711 H 253.761 -3.29894 -2.66357 0
M  V30 2712 C 252.22 -1.82244 -2.83353 0
M  V30 2713 O 252.75 -1.3 -3.80083 0
M  V30 2714 N 250.956 -1.51288 -2.48114 0
M  V30 2715 H 250.503 -1.93964 -1.69516 0
M  V30 2716 H 250.461 -0.840296 -3.02963 0
M  V30 2717 N 254.233 0.115231 -1.57178 0
M  V30 2718 C 255.143 1.15994 -2.03918 0
M  V30 2719 C 256.159 1.45103 -0.960268 0
M  V30 2720 O 257.335 1.56144 -1.27204 0
M  V30 2721 C 254.4 2.46568 -2.43732 0
M  V30 2722 C 253.461 2.24822 -3.65723 0
M  V30 2723 C 252.694 3.4917 -4.03629 0
M  V30 2724 O 252.917 4.56623 -3.41835 0
M  V30 2725 O 251.851 3.39949 -4.96708 0
M  V30 2726 H 255.677 0.793019 -2.93164 0
M  V30 2727 H 253.262 0.3263 -1.45793 0
M  V30 2728 H 255.144 3.23492 -2.70057 0
M  V30 2729 H 253.819 2.82726 -1.57631 0
M  V30 2730 H 252.726 1.45744 -3.44542 0
M  V30 2731 H 254.059 1.93566 -4.52541 0
M  V30 2732 N 255.711 1.52812 0.385517 0
M  V30 2733 C 257.127 1.4214 0.725829 0
M  V30 2734 C 257.327 0.544589 1.94001 0
M  V30 2735 O 256.383 0.0193693 2.52493 0
M  V30 2736 C 257.696 2.85042 0.957668 0
M  V30 2737 C 259.244 2.94543 1.05892 0
M  V30 2738 C 259.719 4.38464 1.32337 0
M  V30 2739 N 261.21 4.41804 1.39151 0
M  V30 2740 C 261.945 5.5025 1.61285 0
M  V30 2741 N 261.441 6.68775 1.80866 0
M  V30 2742 N 263.234 5.37798 1.63492 0
M  V30 2743 H 255.385 2.08338 -0.413383 0
M  V30 2744 H 257.648 0.940016 -0.122775 0
M  V30 2745 H 257.354 3.51431 0.137568 0
M  V30 2746 H 257.228 3.27505 1.87137 0
M  V30 2747 H 259.615 2.28321 1.86959 0
M  V30 2748 H 259.696 2.55504 0.123057 0
M  V30 2749 H 259.34 5.05254 0.517793 0
M  V30 2750 H 259.27 4.75059 2.27214 0
M  V30 2751 H 261.761 3.56377 1.25713 0
M  V30 2752 H 262.074 7.47197 1.97271 0
M  V30 2753 H 260.419 6.71797 1.78083 0
M  V30 2754 H 263.61 4.44171 1.47749 0
M  V30 2755 H 263.783 6.22382 1.80402 0
M  V30 2756 N 257.189 -0.644168 1.43834 0
M  V30 2757 C 258.466 -1.40188 1.36406 0
M  V30 2758 C 258.846 -2.11094 0.0163124 0
M  V30 2759 O 258.194 -2.05426 -1.00062 0
M  V30 2760 C 258.404 -2.3791 2.55343 0
M  V30 2761 C 259.752 -3.01637 2.98832 0
M  V30 2762 O 260.776 -2.48237 2.55455 0
M  V30 2763 O 259.635 -3.98477 3.74003 0
M  V30 2764 H 256.729 -0.626773 0.539523 0
M  V30 2765 H 259.275 -0.670317 1.559 0
M  V30 2766 H 258.047 -1.84525 3.4506 0
M  V30 2767 H 257.67 -3.18503 2.37995 0
M  V30 2768 N 258.668 -1.30515 -0.883378 0
M  V30 2769 C 259.578 -1.18959 -2.02203 0
M  V30 2770 C 260.594 -0.109172 -1.73657 0
M  V30 2771 O 261.77 -0.324413 -1.9877 0
M  V30 2772 C 258.835 -0.883871 -3.35244 0
M  V30 2773 C 257.896 -2.04982 -3.77201 0
M  V30 2774 C 257.129 -1.75859 -5.03894 0
M  V30 2775 O 257.352 -0.687276 -5.66244 0
M  V30 2776 O 256.286 -2.61146 -5.42297 0
M  V30 2777 H 260.112 -2.14616 -2.1488 0
M  V30 2778 H 257.697 -1.10124 -1.0096 0
M  V30 2779 H 259.579 -0.728644 -4.15053 0
M  V30 2780 H 258.254 0.0427798 -3.23672 0
M  V30 2781 H 257.161 -2.26038 -2.9809 0
M  V30 2782 H 258.494 -2.95825 -3.93381 0
M  V30 2783 N 260.146 1.09593 -1.13257 0
M  V30 2784 C 261.093 2.1618 -0.808381 0
M  V30 2785 C 262.063 1.64517 0.228754 0
M  V30 2786 O 263.248 1.9053 0.101381 0
M  V30 2787 C 260.388 3.43973 -0.278675 0
M  V30 2788 C 259.501 4.09545 -1.37466 0
M  V30 2789 C 258.636 5.25088 -0.803479 0
M  V30 2790 C 257.675 5.82579 -1.87799 0
M  V30 2791 N 256.812 6.89486 -1.32488 0
M  V30 2792 H 261.652 2.43254 -1.72138 0
M  V30 2793 H 259.189 1.19392 -0.859294 0
M  V30 2794 H 261.147 4.17174 0.0465583 0
M  V30 2795 H 259.777 3.17223 0.597459 0
M  V30 2796 H 258.829 3.34226 -1.81652 0
M  V30 2797 H 260.141 4.48307 -2.18684 0
M  V30 2798 H 259.295 6.05178 -0.429427 0
M  V30 2799 H 258.034 4.87684 0.0397956 0
M  V30 2800 H 257.039 5.01152 -2.26113 0
M  V30 2801 H 258.264 6.22045 -2.72463 0
M  V30 2802 H 256.21 6.54064 -0.503575 0
M  V30 2803 H 256.127 7.27007 -2.07355 0
M  V30 2804 H 257.395 7.73336 -0.978336 0
M  V30 2805 N 261.624 0.925811 1.2754 0
M  V30 2806 C 262.872 0.564138 1.94067 0
M  V30 2807 C 263.193 -0.897188 1.73134 0
M  V30 2808 O 262.463 -1.63573 1.07799 0
M  V30 2809 H 261.043 0.205645 0.718136 0
M  V30 2810 H 263.705 1.1778 1.55287 0
M  V30 2811 H 262.801 0.76881 3.02483 0
M  V30 2812 N 263.102 -1.41638 0.69111 0
M  V30 2813 C 264.05 -2.32597 0.0115199 0
M  V30 2814 C 265.044 -1.5072 -0.773296 0
M  V30 2815 O 266.25 -1.66685 -0.67942 0
M  V30 2816 H 262.625 -0.751849 -0.0150746 0
M  V30 2817 H 264.596 -2.87593 0.795791 0
M  V30 2818 C 263.345 -3.35467 -0.914172 0
M  V30 2819 H 262.668 -3.9852 -0.319687 0
M  V30 2820 H 264.108 -4.01662 -1.35808 0
M  V30 2821 C 262.567 -2.69004 -2.02826 0
M  V30 2822 O 263.097 -2.53444 -3.11655 0
M  V30 2823 N 261.303 -2.2777 -1.80469 0
M  V30 2824 H 260.85 -2.40626 -0.919615 0
M  V30 2825 H 260.808 -1.83635 -2.55197 0
M  V30 2826 N 264.58 -0.43555 -1.51462 0
M  V30 2827 C 265.827 0.131514 -2.02072 0
M  V30 2828 C 266.155 1.42868 -1.31981 0
M  V30 2829 O 265.41 1.91076 -0.422883 0
M  V30 2830 C 265.709 0.39942 -3.55161 0
M  V30 2831 C 265.375 -0.81172 -4.43533 0
M  V30 2832 C 264.037 -1.14387 -4.67407 0
M  V30 2833 C 266.389 -1.61976 -4.95392 0
M  V30 2834 C 263.717 -2.28477 -5.40384 0
M  V30 2835 C 266.069 -2.75164 -5.6962 0
M  V30 2836 C 264.733 -3.08835 -5.91758 0
M  V30 2837 H 264.003 0.0481244 -0.739436 0
M  V30 2838 H 266.65 -0.58238 -1.8243 0
M  V30 2839 H 264.955 1.19519 -3.73125 0
M  V30 2840 H 266.652 0.85157 -3.91854 0
M  V30 2841 H 263.242 -0.542898 -4.25148 0
M  V30 2842 H 267.426 -1.37637 -4.76833 0
M  V30 2843 H 262.682 -2.5488 -5.55739 0
M  V30 2844 H 266.856 -3.38147 -6.08793 0
M  V30 2845 H 264.483 -3.97353 -6.48086 0
M  V30 2846 N 266.058 1.56714 -0.166846 0
M  V30 2847 C 267.304 1.97039 0.479962 0
M  V30 2848 C 267.637 1.05264 1.63197 0
M  V30 2849 O 266.912 0.0988833 1.94248 0
M  V30 2850 C 267.195 3.46867 0.967212 0
M  V30 2851 C 267.048 4.49421 -0.18466 0
M  V30 2852 C 268.367 3.9968 1.84238 0
M  V30 2853 H 265.486 0.71641 0.172992 0
M  V30 2854 H 268.128 1.8832 -0.252079 0
M  V30 2855 H 266.278 3.54428 1.59101 0
M  V30 2856 H 267.95 4.53924 -0.821621 0
M  V30 2857 H 266.193 4.25573 -0.840837 0
M  V30 2858 H 266.864 5.51644 0.198317 0
M  V30 2859 H 269.34 3.94723 1.31655 0
M  V30 2860 H 268.216 5.04941 2.15234 0
M  V30 2861 H 268.477 3.43226 2.78654 0
M  V30 2862 N 267.536 -0.106894 1.57237 0
M  V30 2863 C 268.446 -1.14911 2.0453 0
M  V30 2864 C 269.462 -1.44592 0.96795 0
M  V30 2865 O 270.638 -1.55468 1.2803 0
M  V30 2866 C 267.703 -2.45272 2.45036 0
M  V30 2867 C 266.764 -2.22879 3.66911 0
M  V30 2868 C 265.997 -3.47024 4.05475 0
M  V30 2869 O 266.22 -4.54804 3.44252 0
M  V30 2870 O 265.154 -3.3731 4.98504 0
M  V30 2871 H 268.98 -0.777461 2.9358 0
M  V30 2872 H 266.565 -0.318563 1.45964 0
M  V30 2873 H 268.447 -3.22055 2.71769 0
M  V30 2874 H 267.122 -2.81886 1.59129 0
M  V30 2875 H 266.029 -1.43915 3.45311 0
M  V30 2876 H 267.362 -1.91163 4.53561 0
M  V30 2877 N 269.014 -1.53014 -0.377408 0
M  V30 2878 C 269.944 -1.81589 -1.46791 0
M  V30 2879 C 270.925 -0.668622 -1.56408 0
M  V30 2880 O 272.11 -0.917337 -1.71168 0
M  V30 2881 C 269.24 -1.99519 -2.8427 0
M  V30 2882 C 268.194 -3.15249 -2.89486 0
M  V30 2883 C 267.52 -3.18451 -4.29527 0
M  V30 2884 C 268.82 -4.54084 -2.58079 0
M  V30 2885 H 270.514 -2.7291 -1.23127 0
M  V30 2886 H 268.06 -1.31319 -0.590883 0
M  V30 2887 H 270.013 -2.18092 -3.60575 0
M  V30 2888 H 268.737 -1.04897 -3.09296 0
M  V30 2889 H 267.396 -2.96477 -2.15631 0
M  V30 2890 H 267.044 -2.2149 -4.5161 0
M  V30 2891 H 266.744 -3.962 -4.33934 0
M  V30 2892 H 268.268 -3.39193 -5.07721 0
M  V30 2893 H 269.682 -4.72899 -3.24098 0
M  V30 2894 H 268.079 -5.33987 -2.7382 0
M  V30 2895 H 269.149 -4.60006 -1.53372 0
M  V30 2896 N 270.492 0.636531 -1.44174 0
M  V30 2897 C 271.74 1.39343 -1.46383 0
M  V30 2898 C 272.061 1.94766 -0.0955715 0
M  V30 2899 O 271.331 1.75452 0.871395 0
M  V30 2900 H 269.911 0.517199 -0.538994 0
M  V30 2901 H 272.573 0.74957 -1.7991 0
M  V30 2902 H 271.669 2.22746 -2.18611 0
M  V30 2903 N 271.97 1.30982 0.876444 0
M  V30 2904 C 272.933 1.18054 1.96459 0
M  V30 2905 C 273.933 0.109399 1.60427 0
M  V30 2906 O 275.123 0.358173 1.70478 0
M  V30 2907 C 272.255 0.810616 3.31122 0
M  V30 2908 H 273.448 2.14735 2.09354 0
M  V30 2909 H 271.001 1.145 1.06392 0
M  V30 2910 H 271.736 -0.155322 3.23928 0
M  V30 2911 H 271.521 1.58481 3.58645 0
M  V30 2912 H 273.011 0.743876 4.10921 0
M  V30 2913 N 273.449 -1.08991 1.13837 0
M  V30 2914 C 274.359 -2.19301 0.833333 0
M  V30 2915 C 275.375 -1.73026 -0.183847 0
M  V30 2916 O 276.551 -2.01395 -0.0138092 0
M  V30 2917 C 273.616 -3.45323 0.308651 0
M  V30 2918 C 272.677 -4.06255 1.38764 0
M  V30 2919 C 271.91 -5.26262 0.887896 0
M  V30 2920 O 272.133 -5.69747 -0.27287 0
M  V30 2921 O 271.067 -5.78435 1.66421 0
M  V30 2922 H 274.893 -2.47854 1.75506 0
M  V30 2923 H 272.478 -1.18012 0.916166 0
M  V30 2924 H 274.36 -4.21394 0.0216739 0
M  V30 2925 H 273.035 -3.18362 -0.585431 0
M  V30 2926 H 271.942 -3.318 1.72799 0
M  V30 2927 H 273.275 -4.37452 2.25602 0
M  V30 2928 N 274.927 -0.932562 -1.27047 0
M  V30 2929 C 276.174 -0.575559 -1.94148 0
M  V30 2930 C 276.502 0.883984 -1.73251 0
M  V30 2931 O 275.757 1.64655 -1.0577 0
M  V30 2932 C 276.056 -0.853713 -3.47054 0
M  V30 2933 C 275.722 -2.29577 -3.88079 0
M  V30 2934 C 274.384 -2.68999 -3.9899 0
M  V30 2935 C 276.736 -3.23331 -4.08787 0
M  V30 2936 C 274.064 -4.01289 -4.28 0
M  V30 2937 C 276.416 -4.55207 -4.39282 0
M  V30 2938 C 275.08 -4.94457 -4.48407 0
M  V30 2939 H 274.35 -0.210612 -0.710439 0
M  V30 2940 H 276.997 -1.17744 -1.51025 0
M  V30 2941 H 275.302 -0.169204 -3.91434 0
M  V30 2942 H 276.999 -0.55639 -3.97121 0
M  V30 2943 H 273.589 -1.97994 -3.80127 0
M  V30 2944 H 277.773 -2.94074 -3.99793 0
M  V30 2945 H 273.029 -4.31374 -4.33275 0
M  V30 2946 H 277.203 -5.27852 -4.54252 0
M  V30 2947 H 274.83 -5.96994 -4.7064 0
M  V30 2948 N 276.405 1.4127 -0.698611 0
M  V30 2949 C 277.335 2.33447 -0.049629 0
M  V30 2950 C 278.316 1.51982 0.763898 0
M  V30 2951 O 279.501 1.80509 0.716257 0
M  V30 2952 C 276.631 3.35828 0.885267 0
M  V30 2953 C 275.585 4.27627 0.178613 0
M  V30 2954 C 274.911 5.20406 1.22807 0
M  V30 2955 C 276.211 5.13459 -0.956933 0
M  V30 2956 H 277.905 2.87966 -0.81951 0
M  V30 2957 H 275.451 1.38461 -0.395538 0
M  V30 2958 H 277.404 3.9924 1.34854 0
M  V30 2959 H 276.128 2.79666 1.68685 0
M  V30 2960 H 274.787 3.65643 -0.26466 0
M  V30 2961 H 274.435 4.60558 2.02226 0
M  V30 2962 H 274.135 5.82661 0.760239 0
M  V30 2963 H 275.659 5.86695 1.69179 0
M  V30 2964 H 277.073 5.70421 -0.573805 0
M  V30 2965 H 275.47 5.8467 -1.35205 0
M  V30 2966 H 276.54 4.50443 -1.79524 0
M  V30 2967 N 277.883 0.443576 1.51229 0
M  V30 2968 C 278.813 -0.355142 2.30783 0
M  V30 2969 C 279.794 -1.0154 1.36468 0
M  V30 2970 O 280.979 -1.01785 1.65389 0
M  V30 2971 C 278.109 -1.45312 3.15439 0
M  V30 2972 C 277.063 -0.916002 4.18083 0
M  V30 2973 C 276.389 -2.1102 4.91299 0
M  V30 2974 C 277.689 0.0538602 5.22272 0
M  V30 2975 H 279.383 0.308767 2.97804 0
M  V30 2976 H 276.929 0.149937 1.43217 0
M  V30 2977 H 278.882 -2.01914 3.69876 0
M  V30 2978 H 277.606 -2.14541 2.46252 0
M  V30 2979 H 276.265 -0.372145 3.64706 0
M  V30 2980 H 275.913 -2.78882 4.18609 0
M  V30 2981 H 275.613 -1.75717 5.60712 0
M  V30 2982 H 277.137 -2.68164 5.48562 0
M  V30 2983 H 278.551 -0.422069 5.71744 0
M  V30 2984 H 276.948 0.319776 5.99247 0
M  V30 2985 H 278.018 0.98858 4.74716 0
M  V30 2986 N 279.361 -1.56624 0.175154 0
M  V30 2987 C 280.271 -2.21741 -0.766042 0
M  V30 2988 C 281.287 -1.21023 -1.25018 0
M  V30 2989 O 282.463 -1.53697 -1.3015 0
M  V30 2990 C 279.528 -2.84839 -1.97655 0
M  V30 2991 C 278.589 -4.00769 -1.53892 0
M  V30 2992 C 277.822 -4.60849 -2.69173 0
M  V30 2993 O 278.045 -4.19823 -3.86141 0
M  V30 2994 O 276.979 -5.50655 -2.43028 0
M  V30 2995 H 280.805 -3.02738 -0.241585 0
M  V30 2996 H 278.39 -1.49305 -0.053222 0
M  V30 2997 H 280.272 -3.24834 -2.68442 0
M  V30 2998 H 278.947 -2.06836 -2.48999 0
M  V30 2999 H 277.854 -3.65436 -0.80044 0
M  V30 3000 H 279.187 -4.80376 -1.07236 0
M  V30 3001 N 280.839 0.0985539 -1.57292 0
M  V30 3002 C 282.064 0.820196 -1.90493 0
M  V30 3003 C 282.489 1.71658 -0.769094 0
M  V30 3004 O 281.847 1.79133 0.279495 0
M  V30 3005 C 281.895 1.61242 -3.22542 0
M  V30 3006 O 280.999 2.72108 -3.09888 0
M  V30 3007 H 280.34 0.225547 -0.62452 0
M  V30 3008 H 282.87 0.0748159 -2.04463 0
M  V30 3009 H 282.88 1.99737 -3.55766 0
M  V30 3010 H 281.555 0.954535 -4.04798 0
M  V30 3011 H 280.132 2.36667 -2.88172 0
M  V30 3012 N 282.317 1.53212 0.369288 0
M  V30 3013 C 283.265 1.80054 1.47253 0
M  V30 3014 C 284.259 0.669456 1.55611 0
M  V30 3015 O 285.465 0.852328 1.58541 0
M  V30 3016 H 281.84 0.570034 0.490475 0
M  V30 3017 H 283.811 2.72403 1.21817 0
M  V30 3018 C 282.56 2.00403 2.84137 0
M  V30 3019 H 281.883 2.86876 2.78464 0
M  V30 3020 H 283.323 2.23164 3.60519 0
M  V30 3021 C 281.782 0.782081 3.27697 0
M  V30 3022 O 282.312 -0.0310205 4.01688 0
M  V30 3023 N 280.518 0.606573 2.84199 0
M  V30 3024 H 280.065 1.26939 2.24152 0
M  V30 3025 H 280.023 -0.20962 3.137 0
M  V30 3026 N 283.795 -0.628877 1.44509 0
M  V30 3027 C 284.758 -1.72263 1.51188 0
M  V30 3028 C 285.758 -1.55907 0.39367 0
M  V30 3029 O 286.948 -1.61361 0.656377 0
M  V30 3030 C 284.08 -3.11365 1.38798 0
M  V30 3031 H 285.273 -1.67714 2.4862 0
M  V30 3032 H 282.826 -0.842737 1.31634 0
M  V30 3033 H 283.561 -3.21507 0.424693 0
M  V30 3034 H 283.346 -3.24644 2.19884 0
M  V30 3035 H 284.836 -3.91075 1.46458 0
M  V30 3036 N 285.273 -1.31445 -0.869486 0
M  V30 3037 C 286.223 -1.15731 -1.96444 0
M  V30 3038 C 287.207 -0.0681855 -1.60755 0
M  V30 3039 O 288.399 -0.293154 -1.74555 0
M  V30 3040 C 285.528 -0.867255 -3.32165 0
M  V30 3041 C 284.614 -1.99738 -3.74119 0
M  V30 3042 N 285.005 -3.24447 -3.88031 0
M  V30 3043 C 283.303 -1.89723 -4.03635 0
M  V30 3044 C 284.004 -3.98374 -4.23879 0
M  V30 3045 N 282.98 -3.26547 -4.3459 0
M  V30 3046 H 286.782 -2.10296 -2.05312 0
M  V30 3047 H 284.296 -1.23009 -1.06031 0
M  V30 3048 H 286.293 -0.735668 -4.10358 0
M  V30 3049 H 284.953 0.0701614 -3.24624 0
M  V30 3050 H 285.964 -3.59557 -3.72746 0
M  V30 3051 H 282.641 -1.03449 -4.04481 0
M  V30 3052 H 284.031 -5.05844 -4.42235 0
M  V30 3053 N 286.751 1.08385 -1.14413 0
M  V30 3054 C 287.998 1.80776 -0.912482 0
M  V30 3055 C 288.326 1.86236 0.560934 0
M  V30 3056 O 287.581 1.33431 1.43159 0
M  V30 3057 C 287.88 3.26273 -1.45879 0
M  V30 3058 C 287.546 3.4093 -2.95089 0
M  V30 3059 C 286.208 3.44638 -3.35824 0
M  V30 3060 C 288.56 3.44591 -3.91033 0
M  V30 3061 C 285.888 3.49597 -4.71167 0
M  V30 3062 C 288.24 3.51086 -5.26233 0
M  V30 3063 C 286.904 3.53067 -5.6648 0
M  V30 3064 H 286.174 0.661507 -0.333901 0
M  V30 3065 H 288.821 1.27613 -1.42784 0
M  V30 3066 H 287.126 3.82146 -0.864376 0
M  V30 3067 H 288.823 3.80839 -1.2555 0
M  V30 3068 H 285.413 3.38736 -2.62594 0
M  V30 3069 H 289.597 3.40957 -3.60641 0
M  V30 3070 H 284.853 3.49424 -5.0171 0
M  V30 3071 H 289.027 3.52864 -6.00383 0
M  V30 3072 H 286.654 3.56662 -6.71339 0
M  V30 3073 N 288.23 0.939286 1.26551 0
M  V30 3074 C 289.455 0.602008 1.98471 0
M  V30 3075 C 289.88 -0.815624 1.69497 0
M  V30 3076 O 289.238 -1.54912 0.941905 0
M  V30 3077 C 289.286 0.848407 3.50477 0
M  V30 3078 O 288.39 -0.0804009 4.12322 0
M  V30 3079 H 287.731 0.23049 0.622712 0
M  V30 3080 H 290.261 1.2617 1.61066 0
M  V30 3081 H 290.271 0.768553 4.00696 0
M  V30 3082 H 288.946 1.88171 3.70897 0
M  V30 3083 H 287.523 0.0503508 3.72866 0
M  V30 3084 N 289.708 -1.40897 0.706093 0
M  V30 3085 C 290.656 -2.32572 0.0361893 0
M  V30 3086 C 291.65 -1.51532 -0.757266 0
M  V30 3087 O 292.856 -1.67396 -0.661703 0
M  V30 3088 H 289.231 -0.751966 -0.00709935 0
M  V30 3089 H 291.202 -2.86733 0.826249 0
M  V30 3090 C 289.951 -3.36418 -0.87854 0
M  V30 3091 H 289.274 -3.98836 -0.277401 0
M  V30 3092 H 290.714 -4.0308 -1.3154 0
M  V30 3093 C 289.173 -2.71141 -1.99961 0
M  V30 3094 O 289.703 -2.56735 -3.0895 0
M  V30 3095 N 287.909 -2.29671 -1.78043 0
M  V30 3096 H 287.456 -2.41588 -0.894042 0
M  V30 3097 H 287.414 -1.86332 -2.53235 0
M  V30 3098 N 291.186 -0.45159 -1.50991 0
M  V30 3099 C 292.116 0.342898 -2.30969 0
M  V30 3100 C 293.097 1.00815 -1.37005 0
M  V30 3101 O 294.282 1.00907 -1.65926 0
M  V30 3102 C 291.412 1.43637 -3.16205 0
M  V30 3103 C 290.366 0.893818 -4.18563 0
M  V30 3104 C 289.692 2.08411 -4.92411 0
M  V30 3105 C 290.992 -0.0815568 -5.22236 0
M  V30 3106 H 292.686 -0.324556 -2.97636 0
M  V30 3107 H 290.232 -0.157531 -1.43136 0
M  V30 3108 H 292.185 1.9995 -3.70942 0
M  V30 3109 H 290.909 2.13232 -2.47386 0
M  V30 3110 H 289.568 0.352798 -3.64898 0
M  V30 3111 H 289.216 2.76658 -4.20082 0
M  V30 3112 H 288.916 1.72741 -5.61636 0
M  V30 3113 H 290.44 2.65251 -5.49976 0
M  V30 3114 H 291.854 0.391742 -5.7196 0
M  V30 3115 H 290.251 -0.351551 -5.99069 0
M  V30 3116 H 291.321 -1.01374 -4.74185 0
M  V30 3117 N 292.664 1.56529 -0.183458 0
M  V30 3118 C 294.075 1.83739 0.331177 0
M  V30 3119 C 294.426 1.10373 1.62211 0
M  V30 3120 O 293.551 0.36071 2.13373 0
M  V30 3121 C 294.146 3.33306 0.607646 0
M  V30 3122 C 292.705 3.60969 1.06668 0
M  V30 3123 C 291.852 2.77086 0.109029 0
M  V30 3124 H 294.803 1.53379 -0.407484 0
M  V30 3125 H 294.824 3.51444 1.45832 0
M  V30 3126 H 294.336 3.86677 -0.332086 0
M  V30 3127 H 292.437 3.13021 2.0211 0
M  V30 3128 H 292.55 4.69231 0.967447 0
M  V30 3129 H 290.914 2.47319 0.608714 0
M  V30 3130 H 291.697 3.33241 -0.82494 0
M  V30 3131 N 294.142 -0.090211 1.57342 0
M  V30 3132 C 295.388 -0.793982 1.86611 0
M  V30 3133 C 295.721 -1.78142 0.773252 0
M  V30 3134 O 294.996 -1.93271 -0.218304 0
M  V30 3135 C 295.279 -1.51839 3.26523 0
M  V30 3136 C 295.132 -0.548609 4.46442 0
M  V30 3137 C 296.451 -2.46779 3.64401 0
M  V30 3138 H 293.57 -0.287186 0.678744 0
M  V30 3139 H 296.212 -0.0575076 1.89913 0
M  V30 3140 H 294.362 -2.14617 3.23839 0
M  V30 3141 H 296.034 0.0725513 4.61243 0
M  V30 3142 H 294.277 0.137614 4.33582 0
M  V30 3143 H 294.948 -1.09271 5.41076 0
M  V30 3144 H 297.424 -1.94089 3.68061 0
M  V30 3145 H 296.3 -2.94479 4.63221 0
M  V30 3146 H 296.561 -3.30758 2.93346 0
M  V30 3147 N 295.62 -1.53406 -0.361157 0
M  V30 3148 C 296.568 -1.80832 -1.46296 0
M  V30 3149 C 297.562 -0.677699 -1.55253 0
M  V30 3150 O 298.768 -0.860723 -1.58087 0
M  V30 3151 H 295.143 -0.572627 -0.487445 0
M  V30 3152 H 297.114 -2.73045 -1.20371 0
M  V30 3153 C 295.863 -2.01907 -2.8307 0
M  V30 3154 H 295.186 -2.88349 -2.76938 0
M  V30 3155 H 296.626 -2.25072 -3.59331 0
M  V30 3156 C 295.085 -0.799449 -3.27277 0
M  V30 3157 O 295.615 0.00971761 -4.01699 0
M  V30 3158 N 293.821 -0.621637 -2.83873 0
M  V30 3159 H 293.368 -1.28126 -2.23476 0
M  V30 3160 H 293.326 0.19298 -3.13807 0
M  V30 3161 N 297.098 0.621204 -1.44841 0
M  V30 3162 C 298.326 1.40752 -1.51646 0
M  V30 3163 C 298.741 1.88246 -0.144549 0
M  V30 3164 O 298.098 1.61422 0.851416 0
M  V30 3165 C 298.149 2.62119 -2.4895 0
M  V30 3166 O 297.87 2.16602 -3.80808 0
M  V30 3167 C 299.371 3.55135 -2.65319 0
M  V30 3168 H 296.591 0.431325 -0.514004 0
M  V30 3169 H 299.135 0.758835 -1.899 0
M  V30 3170 H 297.29 3.23058 -2.13805 0
M  V30 3171 H 297.704 2.95358 -4.33433 0
M  V30 3172 H 299.178 4.36874 -3.37409 0
M  V30 3173 H 299.655 4.04592 -1.70886 0
M  V30 3174 H 300.261 3.00058 -3.01405 0
M  V30 3175 N 298.576 1.31904 0.862503 0
M  V30 3176 C 299.801 1.25135 1.65397 0
M  V30 3177 C 300.226 -0.179 1.87246 0
M  V30 3178 O 299.584 -1.1277 1.4196 0
M  V30 3179 C 299.632 2.00832 2.99498 0
M  V30 3180 O 298.736 1.35075 3.89652 0
M  V30 3181 H 298.077 0.431655 0.504549 0
M  V30 3182 H 300.607 1.74094 1.07483 0
M  V30 3183 H 300.617 2.10709 3.49379 0
M  V30 3184 H 299.292 3.04847 2.82916 0
M  V30 3185 H 297.869 1.33696 3.48109 0
M  V30 3186 N 300.054 -1.07777 1.14986 0
M  V30 3187 C 301.303 -1.79669 0.916617 0
M  V30 3188 C 301.616 -1.87474 -0.557917 0
M  V30 3189 O 302.822 -2.55845 -0.908617 0
M  V30 3190 C 301.278 -3.22848 1.59051 0
M  V30 3191 C 300.886 -3.23257 3.10176 0
M  V30 3192 C 302.63 -3.99379 1.43864 0
M  V30 3193 C 300.537 -4.61063 3.70372 0
M  V30 3194 H 299.467 -0.673349 0.33929 0
M  V30 3195 H 302.118 -1.21003 1.37951 0
M  V30 3196 H 300.5 -3.8168 1.0553 0
M  V30 3197 H 301.674 -2.74095 3.70417 0
M  V30 3198 H 299.989 -2.60222 3.25074 0
M  V30 3199 H 302.586 -5.0122 1.86232 0
M  V30 3200 H 302.929 -4.14511 0.385564 0
M  V30 3201 H 303.462 -3.47032 1.94457 0
M  V30 3202 H 300.201 -4.51135 4.7556 0
M  V30 3203 H 299.721 -5.1048 3.14913 0
M  V30 3204 H 301.4 -5.30034 3.71043 0
M  V30 3205 N 301.532 -0.945985 -1.26051 0
M  V30 3206 C 302.757 -0.612525 -1.98149 0
M  V30 3207 C 303.182 0.806623 -1.69927 0
M  V30 3208 O 302.54 1.54411 -0.950108 0
M  V30 3209 C 302.588 -0.866981 -3.50023 0
M  V30 3210 O 301.692 0.0585333 -4.12358 0
M  V30 3211 H 301.033 -0.23379 -0.621481 0
M  V30 3212 H 303.563 -1.27023 -1.60395 0
M  V30 3213 H 303.573 -0.789792 -4.00283 0
M  V30 3214 H 302.248 -1.90135 -3.69894 0
M  V30 3215 H 300.825 -0.0701241 -3.72834 0
M  V30 3216 N 303.011 1.40521 -0.713556 0
M  V30 3217 C 304.236 2.05759 -0.26035 0
M  V30 3218 C 304.661 1.53403 1.08854 0
M  V30 3219 O 304.019 0.668535 1.68524 0
M  V30 3220 C 304.067 3.59745 -0.248122 0
M  V30 3221 O 303.171 4.05123 0.77131 0
M  V30 3222 H 302.512 0.652564 -0.122703 0
M  V30 3223 H 305.042 1.79958 -0.973467 0
M  V30 3224 H 305.052 4.07911 -0.0851129 0
M  V30 3225 H 303.727 3.97218 -1.2325 0
M  V30 3226 H 302.304 3.68422 0.57619 0
M  V30 3227 N 304.489 0.459591 1.5075 0
M  V30 3228 C 305.735 -0.0994966 2.02556 0
M  V30 3229 C 306.068 -1.40399 1.3417 0
M  V30 3230 O 305.343 -1.88892 0.463683 0
M  V30 3231 C 305.626 -0.295242 3.58888 0
M  V30 3232 C 305.479 1.02947 4.37861 0
M  V30 3233 C 306.798 -1.05502 4.27267 0
M  V30 3234 H 303.917 -0.034686 0.736183 0
M  V30 3235 H 306.559 0.602938 1.8018 0
M  V30 3236 H 304.709 -0.893563 3.78084 0
M  V30 3237 H 306.381 1.66348 4.30263 0
M  V30 3238 H 304.624 1.62885 4.02058 0
M  V30 3239 H 305.295 0.846281 5.45474 0
M  V30 3240 H 307.771 -0.547993 4.12476 0
M  V30 3241 H 306.647 -1.16077 5.36486 0
M  V30 3242 H 306.908 -2.08875 3.89645 0
M  V30 3243 N 305.967 -1.56429 0.191757 0
M  V30 3244 C 306.899 -2.16154 -0.762245 0
M  V30 3245 C 307.912 -1.12247 -1.17917 0
M  V30 3246 O 309.101 -1.39353 -1.11548 0
M  V30 3247 C 306.201 -2.70606 -2.04024 0
M  V30 3248 C 305.374 -3.99381 -1.78364 0
M  V30 3249 C 304.433 -4.38692 -2.90578 0
M  V30 3250 O 303.459 -5.06179 -2.6033 0
M  V30 3251 N 304.661 -4.01922 -4.18854 0
M  V30 3252 H 307.426 -2.98643 -0.251526 0
M  V30 3253 H 304.987 -1.61897 0.00967373 0
M  V30 3254 H 306.979 -2.93891 -2.78227 0
M  V30 3255 H 305.549 -1.9259 -2.46227 0
M  V30 3256 H 304.769 -3.84262 -0.879581 0
M  V30 3257 H 306.057 -4.83445 -1.58614 0
M  V30 3258 H 305.455 -3.47631 -4.46283 0
M  V30 3259 H 304.012 -4.30165 -4.89695 0
M  V30 3260 N 307.445 0.0818655 -1.57387 0
M  V30 3261 C 308.375 1.09885 -2.06028 0
M  V30 3262 C 309.356 1.4098 -0.951774 0
M  V30 3263 O 310.541 1.50781 -1.22387 0
M  V30 3264 C 307.671 2.4151 -2.4958 0
M  V30 3265 C 306.625 2.24792 -3.64215 0
M  V30 3266 C 305.951 3.61712 -3.93787 0
M  V30 3267 C 307.251 1.67749 -4.94629 0
M  V30 3268 H 308.945 0.694128 -2.91243 0
M  V30 3269 H 306.491 0.332448 -1.4011 0
M  V30 3270 H 308.444 3.12939 -2.82219 0
M  V30 3271 H 307.168 2.83943 -1.61381 0
M  V30 3272 H 305.827 1.55807 -3.31843 0
M  V30 3273 H 305.475 4.01697 -3.02735 0
M  V30 3274 H 305.175 3.51368 -4.70971 0
M  V30 3275 H 306.699 4.34587 -4.28913 0
M  V30 3276 H 308.113 2.29032 -5.25564 0
M  V30 3277 H 306.51 1.68128 -5.76067 0
M  V30 3278 H 307.58 0.638059 -4.80684 0
M  V30 3279 N 308.923 1.53595 0.353017 0
M  V30 3280 C 310.334 1.61937 0.929153 0
M  V30 3281 C 310.685 0.494686 1.89861 0
M  V30 3282 O 309.81 -0.377017 2.1309 0
M  V30 3283 C 310.405 2.93526 1.69199 0
M  V30 3284 C 308.964 3.04161 2.21727 0
M  V30 3285 C 308.111 2.57322 1.03348 0
M  V30 3286 H 311.062 1.58155 0.131431 0
M  V30 3287 H 311.083 2.82034 2.55416 0
M  V30 3288 H 310.595 3.75362 0.986144 0
M  V30 3289 H 308.696 2.26938 2.95516 0
M  V30 3290 H 308.809 4.09465 2.48748 0
M  V30 3291 H 307.173 2.12499 1.40414 0
M  V30 3292 H 307.956 3.41588 0.342428 0
M  V30 3293 N 310.401 -0.613514 1.45168 0
M  V30 3294 C 311.629 -1.39946 1.5239 0
M  V30 3295 C 312.044 -1.88167 0.154531 0
M  V30 3296 O 311.401 -1.61872 -0.842843 0
M  V30 3297 C 311.452 -2.60795 2.50337 0
M  V30 3298 O 311.173 -2.1458 3.81952 0
M  V30 3299 C 312.674 -3.53723 2.67198 0
M  V30 3300 H 309.894 -0.428593 0.516284 0
M  V30 3301 H 312.438 -0.748753 1.903 0
M  V30 3302 H 310.593 -3.21919 2.15515 0
M  V30 3303 H 311.007 -2.93055 4.34993 0
M  V30 3304 H 312.481 -4.35079 3.39721 0
M  V30 3305 H 312.958 -4.0368 1.73029 0
M  V30 3306 H 313.564 -2.98456 3.02992 0
M  V30 3307 N 311.879 -1.3236 -0.855495 0
M  V30 3308 C 312.827 -1.2118 -1.9854 0
M  V30 3309 C 313.821 -0.116788 -1.68997 0
M  V30 3310 O 315.027 -0.279657 -1.77814 0
M  V30 3311 H 311.402 -0.375608 -0.651477 0
M  V30 3312 H 313.373 -2.16743 -2.05098 0
M  V30 3313 C 312.122 -0.950849 -3.34446 0
M  V30 3314 H 311.445 -1.78563 -3.57708 0
M  V30 3315 H 312.885 -0.912863 -4.14057 0
M  V30 3316 C 311.344 0.346404 -3.35114 0
M  V30 3317 O 311.874 1.35855 -3.7803 0
M  V30 3318 N 310.08 0.36808 -2.88259 0
M  V30 3319 H 309.627 -0.456102 -2.5353 0
M  V30 3320 H 309.585 1.23591 -2.89089 0
M  V30 3321 N 313.357 1.07166 -1.15556 0
M  V30 3322 C 314.603 1.80065 -0.932984 0
M  V30 3323 C 314.936 1.86586 0.53845 0
M  V30 3324 O 314.211 1.35098 1.39924 0
M  V30 3325 C 314.494 3.25022 -1.55025 0
M  V30 3326 C 314.347 3.26634 -3.09242 0
M  V30 3327 C 315.666 4.22341 -1.2376 0
M  V30 3328 H 312.785 0.653697 -0.340366 0
M  V30 3329 H 315.427 1.25389 -1.4275 0
M  V30 3330 H 313.577 3.71712 -1.12972 0
M  V30 3331 H 315.249 2.88173 -3.60214 0
M  V30 3332 H 313.492 2.65539 -3.43033 0
M  V30 3333 H 314.163 4.28854 -3.47546 0
M  V30 3334 H 316.639 3.8405 -1.60139 0
M  V30 3335 H 315.515 5.22053 -1.69564 0
M  V30 3336 H 315.776 4.41828 -0.154938 0
M  V30 3337 N 314.835 0.952656 1.25548 0
M  V30 3338 C 316.065 0.622592 1.96996 0
M  V30 3339 C 316.473 -0.809112 1.71026 0
M  V30 3340 O 315.816 -1.55258 0.981861 0
M  V30 3341 C 315.878 0.798946 3.5051 0
M  V30 3342 C 315.542 2.20744 4.00151 0
M  V30 3343 C 316.539 3.18394 4.11001 0
M  V30 3344 C 314.224 2.5311 4.33867 0
M  V30 3345 C 316.218 4.46504 4.54877 0
M  V30 3346 C 313.905 3.8145 4.7743 0
M  V30 3347 C 314.903 4.77959 4.87897 0
M  V30 3348 O 314.591 6.04012 5.30494 0
M  V30 3349 H 314.323 0.232503 0.634758 0
M  V30 3350 H 316.877 1.2789 1.60728 0
M  V30 3351 H 315.107 0.0854903 3.86605 0
M  V30 3352 H 316.796 0.47023 4.03167 0
M  V30 3353 H 317.562 2.94715 3.85186 0
M  V30 3354 H 313.441 1.78719 4.24948 0
M  V30 3355 H 316.985 5.21835 4.62962 0
M  V30 3356 H 312.882 4.04936 5.0269 0
M  V30 3357 H 313.65 6.0736 5.48685 0
M  V30 3358 N 316.313 -1.40141 0.720998 0
M  V30 3359 C 317.261 -2.3252 0.0608547 0
M  V30 3360 C 318.255 -1.52326 -0.741152 0
M  V30 3361 O 319.461 -1.68089 -0.643911 0
M  V30 3362 H 315.836 -0.751999 0.000876664 0
M  V30 3363 H 317.807 -2.8584 0.856614 0
M  V30 3364 C 316.556 -3.37331 -0.842809 0
M  V30 3365 H 315.879 -3.99108 -0.235084 0
M  V30 3366 H 317.319 -4.04452 -1.27257 0
M  V30 3367 C 315.778 -2.73246 -1.97074 0
M  V30 3368 O 316.308 -2.59998 -3.06209 0
M  V30 3369 N 314.514 -2.31547 -1.75597 0
M  V30 3370 H 314.061 -2.42522 -0.868368 0
M  V30 3371 H 314.019 -1.89007 -2.51244 0
M  V30 3372 N 317.792 -0.46758 -1.50504 0
M  V30 3373 C 318.739 0.328413 -2.28452 0
M  V30 3374 C 319.709 0.990313 -1.33349 0
M  V30 3375 O 320.894 1.00343 -1.62284 0
M  V30 3376 C 318.034 1.40648 -3.15138 0
M  V30 3377 C 317.147 0.759709 -4.25267 0
M  V30 3378 C 316.282 1.81537 -4.99217 0
M  V30 3379 C 315.321 1.14866 -6.01226 0
M  V30 3380 N 314.458 2.14702 -6.68467 0
M  V30 3381 H 319.298 -0.342603 -2.96024 0
M  V30 3382 H 316.835 -0.180801 -1.45985 0
M  V30 3383 H 318.793 2.04315 -3.63746 0
M  V30 3384 H 317.423 2.04671 -2.49619 0
M  V30 3385 H 316.475 0.0105671 -3.80399 0
M  V30 3386 H 317.787 0.233243 -4.98254 0
M  V30 3387 H 316.941 2.52793 -5.51526 0
M  V30 3388 H 315.68 2.37564 -4.25928 0
M  V30 3389 H 314.685 0.42171 -5.4818 0
M  V30 3390 H 315.91 0.595334 -6.76485 0
M  V30 3391 H 313.856 2.69752 -5.97972 0
M  V30 3392 H 313.773 1.6703 -7.37317 0
M  V30 3393 H 315.041 2.85348 -7.25394 0
M  V30 3394 N 319.27 1.56325 -0.20005 0
M  V30 3395 C 320.547 1.89484 0.48529 0
M  V30 3396 C 320.927 1.1143 1.79294 0
M  V30 3397 O 320.275 0.216919 2.27468 0
M  V30 3398 C 320.485 3.41923 0.699243 0
M  V30 3399 C 321.833 4.12256 1.01638 0
M  V30 3400 O 322.857 3.47402 0.786792 0
M  V30 3401 O 321.716 5.26887 1.45095 0
M  V30 3402 H 318.81 0.787144 0.253639 0
M  V30 3403 H 321.356 1.67985 -0.240633 0
M  V30 3404 H 320.128 3.90658 -0.224008 0
M  V30 3405 H 319.751 3.69131 1.47744 0
M  V30 3406 N 320.748 -0.0735177 1.57428 0
M  V30 3407 C 322.159 -0.625551 1.75908 0
M  V30 3408 C 322.51 -1.78 0.825261 0
M  V30 3409 O 321.635 -2.16398 0.00893964 0
M  V30 3410 C 322.23 -1.14155 3.18989 0
M  V30 3411 C 320.789 -1.63946 3.38819 0
M  V30 3412 C 319.936 -0.558151 2.71625 0
M  V30 3413 H 322.887 0.152647 1.57964 0
M  V30 3414 H 322.908 -2.0104 3.23053 0
M  V30 3415 H 322.42 -0.301116 3.8693 0
M  V30 3416 H 320.521 -2.50321 2.7599 0
M  V30 3417 H 320.634 -1.71759 4.47253 0
M  V30 3418 H 318.998 -1.00278 2.34129 0
M  V30 3419 H 319.781 0.272071 3.4222 0
M  V30 3420 N 322.226 -1.5378 -0.344866 0
M  V30 3421 C 323.503 -1.61589 -1.10219 0
M  V30 3422 C 323.883 -0.436316 -2.06542 0
M  V30 3423 O 323.231 0.571543 -2.21237 0
M  V30 3424 C 323.441 -2.97602 -1.82301 0
M  V30 3425 C 324.789 -3.5291 -2.36093 0
M  V30 3426 O 325.813 -2.99768 -1.924 0
M  V30 3427 O 324.672 -4.45859 -3.16026 0
M  V30 3428 H 321.766 -0.653522 -0.506792 0
M  V30 3429 H 324.312 -1.66126 -0.346465 0
M  V30 3430 H 323.084 -3.74893 -1.12121 0
M  V30 3431 H 322.707 -2.9665 -2.64735 0
M  V30 3432 N 323.704 0.605807 -1.45491 0
M  V30 3433 C 324.953 1.36086 -1.48874 0
M  V30 3434 C 325.266 1.95131 -0.135333 0
M  V30 3435 O 326.472 2.7146 -0.0468144 0
M  V30 3436 C 324.928 2.46518 -2.62215 0
M  V30 3437 C 324.536 1.93877 -4.03876 0
M  V30 3438 C 326.28 3.23512 -2.74846 0
M  V30 3439 C 324.187 3.01801 -5.08596 0
M  V30 3440 H 323.117 0.511497 -0.553974 0
M  V30 3441 H 325.768 0.649089 -1.71636 0
M  V30 3442 H 324.15 3.20388 -2.32739 0
M  V30 3443 H 325.324 1.26704 -4.43038 0
M  V30 3444 H 323.639 1.29622 -3.95711 0
M  V30 3445 H 326.236 4.04013 -3.50253 0
M  V30 3446 H 326.579 3.74631 -1.81542 0
M  V30 3447 H 327.112 2.56742 -3.03856 0
M  V30 3448 H 323.851 2.55597 -6.03614 0
M  V30 3449 H 323.371 3.67535 -4.74002 0
M  V30 3450 H 325.05 3.66152 -5.33424 0
M  V30 3451 N 325.182 1.32811 0.848464 0
M  V30 3452 C 326.112 1.24882 1.97299 0
M  V30 3453 C 327.093 0.131357 1.69592 0
M  V30 3454 O 328.278 0.319553 1.91553 0
M  V30 3455 C 325.408 0.97746 3.33261 0
M  V30 3456 C 324.362 2.05682 3.75338 0
M  V30 3457 C 323.688 1.63777 5.09 0
M  V30 3458 C 324.988 3.47254 3.90144 0
M  V30 3459 H 326.682 2.18966 2.04191 0
M  V30 3460 H 324.228 1.05413 0.981029 0
M  V30 3461 H 326.181 0.908513 4.1149 0
M  V30 3462 H 324.905 0.000980011 3.266 0
M  V30 3463 H 323.564 2.11603 2.99366 0
M  V30 3464 H 323.212 0.648569 4.98801 0
M  V30 3465 H 322.912 2.36 5.38124 0
M  V30 3466 H 324.436 1.5833 5.89715 0
M  V30 3467 H 325.85 3.43888 4.58709 0
M  V30 3468 H 324.247 4.1788 4.30693 0
M  V30 3469 H 325.317 3.86462 2.92874 0
M  V30 3470 N 326.66 -1.06551 1.16123 0
M  V30 3471 C 327.608 -2.16063 0.861371 0
M  V30 3472 C 328.602 -1.6856 -0.168517 0
M  V30 3473 O 329.808 -1.79986 -0.0227579 0
M  V30 3474 H 326.183 -0.705278 0.260934 0
M  V30 3475 H 328.154 -2.38567 1.79244 0
M  V30 3476 C 326.903 -3.45661 0.376018 0
M  V30 3477 H 326.226 -3.82604 1.15992 0
M  V30 3478 H 327.666 -4.23504 0.204951 0
M  V30 3479 C 326.125 -3.24546 -0.903954 0
M  V30 3480 O 326.655 -3.49865 -1.97377 0
M  V30 3481 N 324.861 -2.77992 -0.846679 0
M  V30 3482 H 324.408 -2.57589 0.0241017 0
M  V30 3483 H 324.366 -2.64244 -1.70359 0
M  V30 3484 N 328.138 -0.959301 -1.25041 0
M  V30 3485 C 329.386 -0.615393 -1.92503 0
M  V30 3486 C 329.707 0.850969 -1.75452 0
M  V30 3487 O 328.977 1.60658 -1.12098 0
M  V30 3488 H 327.557 -0.224613 -0.712431 0
M  V30 3489 H 330.219 -1.21855 -1.5211 0
M  V30 3490 H 329.315 -0.848738 -3.00338 0
M  V30 3491 N 329.616 1.39756 -0.72842 0
M  V30 3492 C 330.862 2.00942 -0.273892 0
M  V30 3493 C 331.195 1.57656 1.13394 0
M  V30 3494 O 330.47 0.802434 1.77176 0
M  V30 3495 C 330.753 3.58211 -0.368346 0
M  V30 3496 C 330.606 4.11534 -1.81548 0
M  V30 3497 C 331.925 4.39372 0.253054 0
M  V30 3498 H 329.044 0.730047 -0.100996 0
M  V30 3499 H 331.686 1.66056 -0.923337 0
M  V30 3500 H 329.836 3.88061 0.184588 0
M  V30 3501 H 331.508 3.92431 -2.42478 0
M  V30 3502 H 329.751 3.65341 -2.33898 0
M  V30 3503 H 330.422 5.20682 -1.83288 0
M  V30 3504 H 332.898 4.15527 -0.218224 0
M  V30 3505 H 331.774 5.48677 0.156585 0
M  V30 3506 H 332.035 4.21358 1.33826 0
M  V30 3507 N 331.094 0.475555 1.50254 0
M  V30 3508 C 332.324 -0.0753399 2.06463 0
M  V30 3509 C 332.732 -1.33661 1.33908 0
M  V30 3510 O 332.075 -1.79219 0.403257 0
M  V30 3511 C 332.137 -0.424921 3.5698 0
M  V30 3512 C 331.801 0.734965 4.51051 0
M  V30 3513 C 332.798 1.61827 4.94073 0
M  V30 3514 C 330.483 0.926557 4.9368 0
M  V30 3515 C 332.477 2.67754 5.78434 0
M  V30 3516 C 330.164 1.98904 5.77824 0
M  V30 3517 C 331.162 2.8629 6.20103 0
M  V30 3518 O 330.85 3.90708 7.02568 0
M  V30 3519 H 330.582 0.00576308 0.675975 0
M  V30 3520 H 333.136 0.664662 1.94349 0
M  V30 3521 H 331.366 -1.21817 3.67012 0
M  V30 3522 H 333.055 -0.911422 3.95535 0
M  V30 3523 H 333.821 1.48196 4.61804 0
M  V30 3524 H 329.7 0.25584 4.6029 0
M  V30 3525 H 333.244 3.35992 6.11355 0
M  V30 3526 H 329.141 2.12541 6.09505 0
M  V30 3527 H 329.909 3.87751 7.20827 0
M  V30 3528 N 332.573 -1.56217 0.208337 0
M  V30 3529 C 333.506 -2.15633 -0.746842 0
M  V30 3530 C 334.484 -1.09685 -1.20034 0
M  V30 3531 O 335.668 -1.3787 -1.28547 0
M  V30 3532 C 332.795 -2.72594 -2.01023 0
M  V30 3533 C 331.841 -3.91251 -1.69779 0
M  V30 3534 S 332.674 -5.28962 -0.834209 0
M  V30 3535 C 333.83 -5.89353 -2.10745 0
M  V30 3536 H 334.063 -2.96315 -0.241789 0
M  V30 3537 H 331.596 -1.54398 -0.00682183 0
M  V30 3538 H 333.554 -3.06053 -2.73572 0
M  V30 3539 H 332.215 -1.91929 -2.48641 0
M  V30 3540 H 331.408 -4.29562 -2.63614 0
M  V30 3541 H 331.01 -3.58869 -1.05303 0
M  V30 3542 H 333.302 -6.04522 -3.05875 0
M  V30 3543 H 334.245 -6.85661 -1.76845 0
M  V30 3544 H 334.653 -5.1807 -2.24196 0
M  V30 3545 N 334.051 0.0651679 -1.57465 0
M  V30 3546 C 335.276 0.779605 -1.9219 0
M  V30 3547 C 335.701 1.69988 -0.805333 0
M  V30 3548 O 335.059 1.79685 0.241435 0
M  V30 3549 C 335.107 1.54364 -3.2589 0
M  V30 3550 O 334.211 2.65474 -3.1559 0
M  V30 3551 H 333.552 0.212249 -0.629163 0
M  V30 3552 H 336.082 0.0314294 -2.04576 0
M  V30 3553 H 336.092 1.92146 -3.59922 0
M  V30 3554 H 334.767 0.868457 -4.06732 0
M  V30 3555 H 333.344 2.30501 -2.93128 0
M  V30 3556 N 335.529 1.53961 0.336706 0
M  V30 3557 C 336.439 1.85432 1.43708 0
M  V30 3558 C 337.455 0.745053 1.57242 0
M  V30 3559 O 338.631 1.03804 1.72588 0
M  V30 3560 C 335.696 2.06349 2.78605 0
M  V30 3561 C 334.757 3.30191 2.74358 0
M  V30 3562 C 333.99 3.50101 4.02822 0
M  V30 3563 O 334.213 2.7371 5.00439 0
M  V30 3564 O 333.147 4.43547 4.06878 0
M  V30 3565 H 336.973 2.78975 1.20028 0
M  V30 3566 H 334.558 1.39701 0.52952 0
M  V30 3567 H 336.44 2.21513 3.58483 0
M  V30 3568 H 335.115 1.15995 3.02203 0
M  V30 3569 H 334.022 3.20425 1.93078 0
M  V30 3570 H 335.355 4.2056 2.55715 0
M  V30 3571 N 337.007 -0.598083 1.45811 0
M  V30 3572 C 337.97 -1.69018 1.54808 0
M  V30 3573 C 338.97 -1.55037 0.426652 0
M  V30 3574 O 340.16 -1.59932 0.690456 0
M  V30 3575 C 337.292 -3.0835 1.45371 0
M  V30 3576 H 338.485 -1.62403 2.52121 0
M  V30 3577 H 336.038 -0.814626 1.33392 0
M  V30 3578 H 336.773 -3.20534 0.492793 0
M  V30 3579 H 336.558 -3.19907 2.26721 0
M  V30 3580 H 338.048 -3.8788 1.54721 0
M  V30 3581 N 338.485 -1.33259 -0.841409 0
M  V30 3582 C 339.415 -1.25926 -1.96634 0
M  V30 3583 C 340.396 -0.140349 -1.6952 0
M  V30 3584 O 341.581 -0.329707 -1.91381 0
M  V30 3585 C 338.711 -0.99512 -3.32738 0
M  V30 3586 C 337.665 -2.0767 -3.74242 0
M  V30 3587 C 336.991 -1.66474 -5.08125 0
M  V30 3588 C 338.291 -3.49318 -3.88297 0
M  V30 3589 H 339.985 -2.20046 -2.03027 0
M  V30 3590 H 337.531 -1.05931 -0.975425 0
M  V30 3591 H 339.484 -0.930323 -4.11002 0
M  V30 3592 H 338.208 -0.0183004 -3.26595 0
M  V30 3593 H 336.867 -2.13187 -2.98239 0
M  V30 3594 H 336.515 -0.675012 -4.9845 0
M  V30 3595 H 336.215 -2.3885 -5.36865 0
M  V30 3596 H 337.739 -1.61455 -5.88867 0
M  V30 3597 H 339.153 -3.46316 -4.56879 0
M  V30 3598 H 337.55 -4.20158 -4.28471 0
M  V30 3599 H 338.62 -3.8801 -2.9082 0
M  V30 3600 N 339.963 1.05934 -1.16686 0
M  V30 3601 C 340.911 2.15603 -0.872817 0
M  V30 3602 C 341.905 1.68647 0.159576 0
M  V30 3603 O 343.111 1.79995 0.0132125 0
M  V30 3604 H 339.486 0.703885 -0.264671 0
M  V30 3605 H 341.457 2.37613 -1.80507 0
M  V30 3606 C 340.206 3.45457 -0.394344 0
M  V30 3607 H 339.529 3.81984 -1.18019 0
M  V30 3608 H 340.969 4.2339 -0.227408 0
M  V30 3609 C 339.428 3.25021 0.88673 0
M  V30 3610 O 339.958 3.50906 1.95519 0
M  V30 3611 N 338.164 2.78437 0.831925 0
M  V30 3612 H 337.711 2.57572 -0.0377619 0
M  V30 3613 H 337.669 2.65144 1.68956 0
M  V30 3614 N 341.441 0.965919 1.2453 0
M  V30 3615 C 342.404 0.499547 2.2369 0
M  V30 3616 C 343.404 -0.40294 1.5567 0
M  V30 3617 O 344.594 -0.19865 1.73064 0
M  V30 3618 C 341.726 -0.276792 3.39774 0
M  V30 3619 H 342.919 1.37613 2.66463 0
M  V30 3620 H 340.472 0.750324 1.37112 0
M  V30 3621 H 341.207 -1.17055 3.02438 0
M  V30 3622 H 340.992 0.370826 3.90343 0
M  V30 3623 H 342.482 -0.592175 4.1338 0
M  V30 3624 N 342.919 -1.39368 0.735821 0
M  V30 3625 C 344.165 -2.00794 0.284544 0
M  V30 3626 C 344.498 -1.58255 -1.12557 0
M  V30 3627 O 343.773 -0.811819 -1.76748 0
M  V30 3628 C 344.056 -3.58011 0.387337 0
M  V30 3629 C 343.909 -4.10566 1.83728 0
M  V30 3630 C 345.228 -4.395 -0.22975 0
M  V30 3631 H 342.347 -0.729501 0.104866 0
M  V30 3632 H 344.989 -1.65564 0.93213 0
M  V30 3633 H 343.139 -3.88154 -0.164006 0
M  V30 3634 H 344.811 -3.91139 2.44556 0
M  V30 3635 H 343.054 -3.64095 2.35833 0
M  V30 3636 H 343.725 -5.19702 1.86047 0
M  V30 3637 H 346.201 -4.15406 0.240257 0
M  V30 3638 H 345.077 -5.48752 -0.127485 0
M  V30 3639 H 345.338 -4.22062 -1.3159 0
M  V30 3640 N 344.397 -0.483516 -1.5 0
M  V30 3641 C 345.644 0.0671597 -2.02389 0
M  V30 3642 C 345.972 1.38597 -1.36459 0
M  V30 3643 O 345.227 1.89634 -0.483458 0
M  V30 3644 C 345.526 0.286226 -3.56252 0
M  V30 3645 C 345.192 -0.952416 -4.40726 0
M  V30 3646 C 343.854 -1.29199 -4.63531 0
M  V30 3647 C 346.206 -1.77655 -4.89988 0
M  V30 3648 C 343.534 -2.45553 -5.32842 0
M  V30 3649 C 345.886 -2.93147 -5.60578 0
M  V30 3650 C 344.55 -3.27505 -5.81633 0
M  V30 3651 H 343.82 0.0245755 -0.740592 0
M  V30 3652 H 346.467 -0.640124 -1.80485 0
M  V30 3653 H 344.772 1.07587 -3.76739 0
M  V30 3654 H 346.469 0.726473 -3.94365 0
M  V30 3655 H 343.059 -0.677881 -4.23205 0
M  V30 3656 H 347.243 -1.52737 -4.72213 0
M  V30 3657 H 342.499 -2.72431 -5.47349 0
M  V30 3658 H 346.673 -3.57344 -5.97727 0
M  V30 3659 H 344.3 -4.1777 -6.35116 0
M  V30 3660 N 345.875 1.56104 -0.216619 0
M  V30 3661 C 347.121 1.98466 0.417033 0
M  V30 3662 C 347.454 1.10403 1.59765 0
M  V30 3663 O 346.729 0.160632 1.93836 0
M  V30 3664 C 347.012 3.49769 0.85637 0
M  V30 3665 C 346.865 4.48606 -0.327546 0
M  V30 3666 C 348.184 4.05339 1.7143 0
M  V30 3667 H 345.303 0.721551 0.150112 0
M  V30 3668 H 347.945 1.87423 -0.311864 0
M  V30 3669 H 346.095 3.5931 1.47745 0
M  V30 3670 H 347.767 4.5108 -0.965618 0
M  V30 3671 H 346.01 4.22682 -0.975805 0
M  V30 3672 H 346.681 5.51995 0.0227149 0
M  V30 3673 H 349.157 3.98712 1.19031 0
M  V30 3674 H 348.033 5.11533 1.99061 0
M  V30 3675 H 348.294 3.51918 2.67593 0
M  V30 3676 N 347.353 -0.0568162 1.57498 0
M  V30 3677 C 348.263 -1.08346 2.08083 0
M  V30 3678 C 349.279 -1.41439 1.01346 0
M  V30 3679 O 350.455 -1.51316 1.32912 0
M  V30 3680 C 347.52 -2.37352 2.52715 0
M  V30 3681 C 346.581 -2.11093 3.73816 0
M  V30 3682 C 345.814 -3.33949 4.1631 0
M  V30 3683 O 346.037 -4.43622 3.58547 0
M  V30 3684 O 344.971 -3.21279 5.08983 0
M  V30 3685 H 348.797 -0.683667 2.95905 0
M  V30 3686 H 346.382 -0.271965 1.46904 0
M  V30 3687 H 348.264 -3.13246 2.81877 0
M  V30 3688 H 346.939 -2.76681 1.68016 0
M  V30 3689 H 345.846 -1.32856 3.49714 0
M  V30 3690 H 347.179 -1.76637 4.59413 0
M  V30 3691 N 348.832 -1.54138 -0.328536 0
M  V30 3692 C 349.78 -1.83894 -1.42428 0
M  V30 3693 C 350.774 -0.710478 -1.53781 0
M  V30 3694 O 351.98 -0.894062 -1.56226 0
M  V30 3695 H 348.355 -0.582837 -0.475189 0
M  V30 3696 H 350.326 -2.75537 -1.14552 0
M  V30 3697 C 349.075 -2.07866 -2.78724 0
M  V30 3698 H 348.398 -2.94158 -2.7076 0
M  V30 3699 H 349.838 -2.32644 -3.54476 0
M  V30 3700 C 348.297 -0.868689 -3.25508 0
M  V30 3701 O 348.827 -0.0754908 -4.01629 0
M  V30 3702 N 347.033 -0.681711 -2.82491 0
M  V30 3703 H 346.58 -1.32838 -2.20708 0
M  V30 3704 H 346.538 0.126374 -3.14146 0
M  V30 3705 N 350.31 0.590341 -1.46126 0
M  V30 3706 C 351.557 1.34882 -1.5104 0
M  V30 3707 C 351.885 1.93849 -0.159021 0
M  V30 3708 O 351.14 1.76544 0.844436 0
M  V30 3709 C 351.439 2.5032 -2.55097 0
M  V30 3710 C 351.105 2.09394 -3.99331 0
M  V30 3711 C 349.767 1.97947 -4.38601 0
M  V30 3712 C 352.119 1.77712 -4.89967 0
M  V30 3713 C 349.447 1.53065 -5.66381 0
M  V30 3714 C 351.799 1.34312 -6.18177 0
M  V30 3715 C 350.463 1.21436 -6.56361 0
M  V30 3716 H 349.733 0.493568 -0.552695 0
M  V30 3717 H 352.38 0.665539 -1.79563 0
M  V30 3718 H 350.685 3.24062 -2.20207 0
M  V30 3719 H 352.382 3.08541 -2.56132 0
M  V30 3720 H 348.972 2.19235 -3.68285 0
M  V30 3721 H 353.156 1.85445 -4.60352 0
M  V30 3722 H 348.412 1.41733 -5.94745 0
M  V30 3723 H 352.586 1.08849 -6.87841 0
M  V30 3724 H 350.213 0.864345 -7.5527 0
M  V30 3725 N 351.788 1.33704 0.83433 0
M  V30 3726 C 352.72 1.20172 1.9517 0
M  V30 3727 C 353.733 0.131572 1.62267 0
M  V30 3728 O 354.922 0.382406 1.74356 0
M  V30 3729 C 352.022 0.821716 3.28787 0
M  V30 3730 C 351.195 1.98446 3.89792 0
M  V30 3731 C 350.254 1.58469 5.01771 0
M  V30 3732 O 349.28 2.29968 5.20676 0
M  V30 3733 N 350.482 0.492291 5.78409 0
M  V30 3734 H 353.247 2.16429 2.07313 0
M  V30 3735 H 350.808 1.26509 1.0103 0
M  V30 3736 H 352.8 0.536291 4.01131 0
M  V30 3737 H 351.37 -0.0503058 3.1256 0
M  V30 3738 H 350.59 2.43526 3.09982 0
M  V30 3739 H 351.878 2.76236 4.27283 0
M  V30 3740 H 351.276 -0.102349 5.65607 0
M  V30 3741 H 349.833 0.266555 6.51255 0
M  V30 3742 N 353.266 -1.05314 1.17247 0
M  V30 3743 C 354.682 -1.30452 0.919473 0
M  V30 3744 C 354.882 -1.9703 -0.42209 0
M  V30 3745 O 353.938 -2.24311 -1.15935 0
M  V30 3746 C 355.251 -2.17551 2.07586 0
M  V30 3747 C 356.799 -2.30937 2.11275 0
M  V30 3748 C 357.274 -3.21396 3.26296 0
M  V30 3749 N 358.765 -3.28981 3.26076 0
M  V30 3750 C 359.5 -3.99095 4.11716 0
M  V30 3751 N 358.996 -4.71648 5.07465 0
M  V30 3752 N 360.789 -3.95247 3.9967 0
M  V30 3753 H 352.94 -0.604988 2.03602 0
M  V30 3754 H 355.203 -0.329368 0.888944 0
M  V30 3755 H 354.909 -1.75921 3.0454 0
M  V30 3756 H 354.783 -3.18182 2.02584 0
M  V30 3757 H 357.17 -2.71809 1.14907 0
M  V30 3758 H 357.251 -1.2994 2.20339 0
M  V30 3759 H 356.895 -2.81238 4.22927 0
M  V30 3760 H 356.825 -4.22395 3.14467 0
M  V30 3761 H 359.316 -2.77286 2.5675 0
M  V30 3762 H 359.629 -5.22705 5.6921 0
M  V30 3763 H 357.974 -4.70594 5.11435 0
M  V30 3764 H 361.165 -3.37691 3.24164 0
M  V30 3765 H 361.338 -4.4962 4.66632 0
M  V30 3766 N 354.744 -0.972509 -1.24016 0
M  V30 3767 C 356.021 -0.553733 -1.87598 0
M  V30 3768 C 356.401 0.969158 -1.87538 0
M  V30 3769 O 355.749 1.84255 -1.35139 0
M  V30 3770 C 355.959 -1.15076 -3.29482 0
M  V30 3771 C 357.307 -1.23862 -4.06132 0
M  V30 3772 O 358.331 -1.10363 -3.38672 0
M  V30 3773 O 357.19 -1.45252 -5.26844 0
M  V30 3774 H 354.284 -0.185331 -0.805966 0
M  V30 3775 H 356.83 -1.06709 -1.31952 0
M  V30 3776 H 355.602 -2.19333 -3.2405 0
M  V30 3777 H 355.225 -0.621746 -3.92709 0
M  V30 3778 N 356.222 1.38976 -0.743202 0
M  V30 3779 C 357.633 1.83123 -0.363732 0
M  V30 3780 C 357.984 1.6205 1.10609 0
M  V30 3781 O 357.109 1.11606 1.854 0
M  V30 3782 C 357.704 3.32439 -0.653408 0
M  V30 3783 C 356.263 3.74974 -0.327338 0
M  V30 3784 C 355.41 2.61878 -0.911875 0
M  V30 3785 H 358.361 1.27852 -0.940191 0
M  V30 3786 H 358.382 3.80432 0.0720031 0
M  V30 3787 H 357.894 3.47745 -1.72323 0
M  V30 3788 H 355.995 3.65252 0.736314 0
M  V30 3789 H 356.108 4.72106 -0.815631 0
M  V30 3790 H 354.472 2.52448 -0.337944 0
M  V30 3791 H 355.255 2.79987 -1.98651 0
M  V30 3792 N 357.7 0.491464 1.49741 0
M  V30 3793 C 358.928 -0.0535151 2.06831 0
M  V30 3794 C 359.343 -1.31683 1.35296 0
M  V30 3795 O 358.7 -1.77402 0.42836 0
M  V30 3796 C 358.751 -0.320835 3.60073 0
M  V30 3797 O 358.472 0.892394 4.28915 0
M  V30 3798 C 359.973 -0.910519 4.33848 0
M  V30 3799 H 357.193 0.0161909 0.670805 0
M  V30 3800 H 359.737 0.68609 1.92647 0
M  V30 3801 H 357.892 -1.0104 3.73991 0
M  V30 3802 H 358.306 0.649401 5.20464 0
M  V30 3803 H 359.78 -1.04721 5.41976 0
M  V30 3804 H 360.257 -1.90589 3.95692 0
M  V30 3805 H 360.863 -0.258712 4.24512 0
M  V30 3806 N 359.178 -1.55987 0.224894 0
M  V30 3807 C 360.108 -2.23426 -0.678457 0
M  V30 3808 C 361.089 -1.20709 -1.19847 0
M  V30 3809 O 362.274 -1.49304 -1.24186 0
M  V30 3810 C 359.404 -2.91676 -1.88527 0
M  V30 3811 C 358.358 -4.00893 -1.49896 0
M  V30 3812 C 357.684 -4.56455 -2.78483 0
M  V30 3813 C 358.984 -5.17769 -0.686461 0
M  V30 3814 H 360.678 -2.99175 -0.116173 0
M  V30 3815 H 358.224 -1.43897 -0.054436 0
M  V30 3816 H 360.177 -3.37547 -2.5227 0
M  V30 3817 H 358.901 -2.1338 -2.47258 0
M  V30 3818 H 357.56 -3.55758 -0.884985 0
M  V30 3819 H 357.208 -3.74886 -3.35365 0
M  V30 3820 H 356.908 -5.30169 -2.53368 0
M  V30 3821 H 358.432 -5.05047 -3.43162 0
M  V30 3822 H 359.846 -5.60001 -1.22767 0
M  V30 3823 H 358.243 -5.97735 -0.532259 0
M  V30 3824 H 359.313 -4.83932 0.306196 0
M  V30 3825 N 360.656 0.0484629 -1.57525 0
M  V30 3826 C 361.884 0.755421 -1.92616 0
M  V30 3827 C 362.299 1.69919 -0.822984 0
M  V30 3828 O 361.656 1.81378 0.202085 0
M  V30 3829 C 361.707 1.52915 -3.27566 0
M  V30 3830 O 361.428 0.62329 -4.33644 0
M  V30 3831 C 362.929 2.33502 -3.76818 0
M  V30 3832 H 360.149 0.213465 -0.63614 0
M  V30 3833 H 362.693 0.0117698 -2.04497 0
M  V30 3834 H 360.848 2.22486 -3.17142 0
M  V30 3835 H 361.262 1.16383 -5.11425 0
M  V30 3836 H 362.736 2.83214 -4.73808 0
M  V30 3837 H 363.213 3.14068 -3.07014 0
M  V30 3838 H 363.819 1.69043 -3.90262 0
M  V30 3839 N 362.134 1.5431 0.320358 0
M  V30 3840 C 363.38 1.73859 1.05568 0
M  V30 3841 C 363.735 0.507807 1.85578 0
M  V30 3842 O 363.028 -0.499789 1.84967 0
M  V30 3843 C 363.222 2.95639 2.00828 0
M  V30 3844 C 363.051 4.30444 1.30186 0
M  V30 3845 C 361.821 4.94544 1.03703 0
M  V30 3846 C 364.019 5.0929 0.716138 0
M  V30 3847 N 362.001 6.13172 0.298846 0
M  V30 3848 C 363.372 6.19903 0.109729 0
M  V30 3849 C 365.427 4.94034 0.619269 0
M  V30 3850 C 364.13 7.16924 -0.584153 0
M  V30 3851 C 366.156 5.91369 -0.0609184 0
M  V30 3852 C 365.518 7.01336 -0.656258 0
M  V30 3853 H 361.617 0.688988 0.36989 0
M  V30 3854 H 364.201 1.9177 0.336494 0
M  V30 3855 H 362.372 2.79188 2.70016 0
M  V30 3856 H 364.104 3.03802 2.6737 0
M  V30 3857 H 360.859 4.54536 1.33019 0
M  V30 3858 H 361.283 6.76977 -0.0561964 0
M  V30 3859 H 365.925 4.0916 1.06526 0
M  V30 3860 H 363.643 8.01354 -1.04197 0
M  V30 3861 H 367.229 5.81642 -0.135552 0
M  V30 3862 H 366.109 7.75359 -1.17423 0
M  V30 3863 N 363.613 -0.582584 1.46437 0
M  V30 3864 C 364.545 -1.70618 1.53043 0
M  V30 3865 C 365.558 -1.57322 0.418769 0
M  V30 3866 O 366.747 -1.64744 0.687136 0
M  V30 3867 C 363.847 -3.08869 1.39474 0
M  V30 3868 C 363.02 -3.48166 2.64762 0
M  V30 3869 C 362.079 -4.65478 2.4539 0
M  V30 3870 O 361.105 -4.71333 3.19114 0
M  V30 3871 N 362.307 -5.60365 1.51564 0
M  V30 3872 H 365.072 -1.65405 2.49923 0
M  V30 3873 H 362.633 -0.768567 1.42494 0
M  V30 3874 H 364.625 -3.85143 1.24287 0
M  V30 3875 H 363.195 -3.08449 0.507758 0
M  V30 3876 H 362.415 -2.61598 2.9489 0
M  V30 3877 H 363.703 -3.71188 3.4799 0
M  V30 3878 H 363.101 -5.5837 0.907705 0
M  V30 3879 H 361.658 -6.36068 1.4234 0
M  V30 3880 N 365.091 -1.34144 -0.827227 0
M  V30 3881 C 366.321 -1.29138 -1.61267 0
M  V30 3882 C 366.729 0.137597 -1.88699 0
M  V30 3883 O 366.072 1.09379 -1.47587 0
M  V30 3884 C 366.134 -2.0097 -2.9808 0
M  V30 3885 C 365.798 -3.50242 -2.93563 0
M  V30 3886 C 366.795 -4.4523 -2.68452 0
M  V30 3887 C 364.48 -3.92592 -3.13331 0
M  V30 3888 C 366.474 -5.80542 -2.63154 0
M  V30 3889 C 364.161 -5.28005 -3.07658 0
M  V30 3890 C 365.159 -6.21792 -2.82602 0
M  V30 3891 O 364.847 -7.54723 -2.76853 0
M  V30 3892 H 364.579 -0.445851 -0.508127 0
M  V30 3893 H 367.133 -1.77263 -1.03763 0
M  V30 3894 H 365.363 -1.47451 -3.57484 0
M  V30 3895 H 367.052 -1.89309 -3.5905 0
M  V30 3896 H 367.818 -4.13832 -2.52919 0
M  V30 3897 H 363.697 -3.19994 -3.31851 0
M  V30 3898 H 367.241 -6.53717 -2.43516 0
M  V30 3899 H 363.138 -5.59023 -3.22743 0
M  V30 3900 H 363.906 -7.64409 -2.92611 0
M  V30 3901 N 366.569 1.04691 -1.17803 0
M  V30 3902 C 367.816 1.77782 -0.969532 0
M  V30 3903 C 368.144 1.87926 0.501401 0
M  V30 3904 O 367.399 1.37918 1.38842 0
M  V30 3905 C 367.698 3.21467 -1.56186 0
M  V30 3906 C 367.364 3.3137 -3.05786 0
M  V30 3907 C 366.026 3.3378 -3.46619 0
M  V30 3908 C 368.378 3.31976 -4.01797 0
M  V30 3909 C 365.706 3.34431 -4.82051 0
M  V30 3910 C 368.058 3.34167 -5.37136 0
M  V30 3911 C 366.722 3.34866 -5.77426 0
M  V30 3912 H 365.992 0.650549 -0.354777 0
M  V30 3913 H 368.639 1.23006 -1.46772 0
M  V30 3914 H 366.944 3.79203 -0.985515 0
M  V30 3915 H 368.641 3.76652 -1.37602 0
M  V30 3916 H 365.231 3.3021 -2.73238 0
M  V30 3917 H 369.415 3.29311 -3.71306 0
M  V30 3918 H 364.671 3.33285 -5.12573 0
M  V30 3919 H 368.845 3.33585 -6.11305 0
M  V30 3920 H 366.472 3.35124 -6.82346 0
M  V30 3921 N 368.047 0.979072 1.23499 0
M  V30 3922 C 369.295 0.645941 1.91499 0
M  V30 3923 C 369.616 -0.822948 1.76784 0
M  V30 3924 O 368.886 -1.58854 1.14639 0
M  V30 3925 H 367.466 0.235919 0.708767 0
M  V30 3926 H 370.128 1.2426 1.50152 0
M  V30 3927 H 369.224 0.896411 2.9895 0
M  V30 3928 N 369.525 -1.3858 0.750561 0
M  V30 3929 C 370.75 -2.04997 0.314812 0
M  V30 3930 C 371.175 -1.56235 -1.04749 0
M  V30 3931 O 370.533 -0.712981 -1.66692 0
M  V30 3932 C 370.581 -3.58961 0.343415 0
M  V30 3933 O 369.685 -4.07025 -0.663628 0
M  V30 3934 H 369.026 -0.649081 0.139962 0
M  V30 3935 H 371.556 -1.77313 1.02084 0
M  V30 3936 H 371.566 -4.07542 0.193233 0
M  V30 3937 H 370.241 -3.93811 1.33738 0
M  V30 3938 H 368.818 -3.6982 -0.478307 0
M  V30 3939 N 371.003 -0.499398 -1.49478 0
M  V30 3940 C 371.966 0.268838 -2.27618 0
M  V30 3941 C 372.966 0.895383 -1.33565 0
M  V30 3942 O 374.156 0.760164 -1.56739 0
M  V30 3943 C 371.288 1.38559 -3.11471 0
M  V30 3944 H 372.481 -0.416812 -2.96989 0
M  V30 3945 H 370.034 -0.254313 -1.54217 0
M  V30 3946 H 370.769 2.10544 -2.46661 0
M  V30 3947 H 370.554 0.941797 -3.80621 0
M  V30 3948 H 372.044 1.92678 -3.70493 0
M  V30 3949 N 372.481 1.55866 -0.233164 0
M  V30 3950 C 373.709 2.02998 0.399905 0
M  V30 3951 C 374.124 1.11274 1.52524 0
M  V30 3952 O 373.481 0.124528 1.82075 0
M  V30 3953 C 373.532 3.4958 0.920639 0
M  V30 3954 O 373.253 4.37808 -0.159834 0
M  V30 3955 C 374.754 4.12411 1.62578 0
M  V30 3956 H 371.974 0.664006 0.0966281 0
M  V30 3957 H 374.518 2.0143 -0.353013 0
M  V30 3958 H 372.673 3.51727 1.62379 0
M  V30 3959 H 373.087 5.23981 0.23337 0
M  V30 3960 H 374.561 5.16711 1.94201 0
M  V30 3961 H 375.038 3.5809 2.54299 0
M  V30 3962 H 375.644 4.14148 0.967553 0
M  V30 3963 N 373.959 -0.0401083 1.57549 0
M  V30 3964 C 375.207 -0.731677 1.8839 0
M  V30 3965 C 375.528 -1.76481 0.829425 0
M  V30 3966 O 374.798 -1.95411 -0.1383 0
M  V30 3967 H 373.378 -0.273225 0.695239 0
M  V30 3968 H 376.04 -0.00867725 1.94898 0
M  V30 3969 H 375.136 -1.22816 2.86919 0
M  V30 3970 N 375.437 -1.54477 -0.31217 0
M  V30 3971 C 376.684 -1.73227 -1.04875 0
M  V30 3972 C 377.012 -0.512042 -1.87639 0
M  V30 3973 O 376.267 0.506131 -1.89042 0
M  V30 3974 C 376.566 -2.967 -1.99258 0
M  V30 3975 C 376.232 -4.30974 -1.32559 0
M  V30 3976 C 374.894 -4.67477 -1.141 0
M  V30 3977 C 377.246 -5.14258 -0.847835 0
M  V30 3978 C 374.574 -5.84852 -0.465326 0
M  V30 3979 C 376.926 -6.32327 -0.185931 0
M  V30 3980 C 375.59 -6.67499 0.0107077 0
M  V30 3981 H 374.86 -0.633881 -0.383765 0
M  V30 3982 H 377.507 -1.88727 -0.324731 0
M  V30 3983 H 375.812 -2.75935 -2.7815 0
M  V30 3984 H 377.509 -3.08401 -2.563 0
M  V30 3985 H 374.099 -4.02262 -1.4793 0
M  V30 3986 H 378.283 -4.86565 -0.978192 0
M  V30 3987 H 373.539 -6.10654 -0.301883 0
M  V30 3988 H 377.713 -6.96135 0.192211 0
M  V30 3989 H 375.34 -7.58306 0.536287 0
M  V30 3990 N 376.915 0.57481 -1.46744 0
M  V30 3991 C 378.162 1.33272 -1.52462 0
M  V30 3992 C 378.49 1.93669 -0.179572 0
M  V30 3993 O 377.745 1.7743 0.825664 0
M  V30 3994 C 378.044 2.476 -2.57738 0
M  V30 3995 C 377.71 2.05146 -4.01529 0
M  V30 3996 C 376.372 1.93284 -4.40676 0
M  V30 3997 C 378.724 1.72506 -4.91824 0
M  V30 3998 C 376.052 1.47049 -5.67973 0
M  V30 3999 C 378.404 1.27748 -6.19567 0
M  V30 4000 C 377.068 1.14468 -6.57612 0
M  V30 4001 H 376.338 0.487678 -0.557899 0
M  V30 4002 H 378.985 0.646456 -1.80259 0
M  V30 4003 H 377.29 3.21708 -2.23632 0
M  V30 4004 H 378.987 3.05807 -2.5939 0
M  V30 4005 H 375.577 2.15316 -3.7059 0
M  V30 4006 H 379.761 1.80552 -4.62293 0
M  V30 4007 H 375.017 1.35417 -5.96215 0
M  V30 4008 H 379.191 1.01547 -6.88957 0
M  V30 4009 H 376.818 0.78419 -7.56145 0
M  V30 4010 N 378.394 1.34581 0.820102 0
M  V30 4011 C 379.81 1.14325 1.11364 0
M  V30 4012 C 380.01 -0.0533648 2.01429 0
M  V30 4013 O 379.066 -0.728044 2.41776 0
M  V30 4014 C 380.379 2.43983 1.75764 0
M  V30 4015 C 381.927 2.50065 1.88246 0
M  V30 4016 C 382.402 3.79732 2.56061 0
M  V30 4017 N 383.893 3.80908 2.63558 0
M  V30 4018 C 384.628 4.77961 3.16766 0
M  V30 4019 N 384.124 5.85397 3.70517 0
M  V30 4020 N 385.917 4.65413 3.15194 0
M  V30 4021 H 378.068 2.11246 0.221096 0
M  V30 4022 H 380.331 0.934289 0.160649 0
M  V30 4023 H 380.037 3.31651 1.1705 0
M  V30 4024 H 379.911 2.57531 2.75604 0
M  V30 4025 H 382.298 1.62834 2.46108 0
M  V30 4026 H 382.379 2.40442 0.873006 0
M  V30 4027 H 382.023 4.67354 1.98853 0
M  V30 4028 H 381.953 3.86639 3.57516 0
M  V30 4029 H 384.444 3.03274 2.25463 0
M  V30 4030 H 384.757 6.55463 4.09376 0
M  V30 4031 H 383.102 5.89107 3.68752 0
M  V30 4032 H 386.293 3.80627 2.72471 0
M  V30 4033 H 386.466 5.41216 3.56356 0
M  V30 4034 N 379.872 -1.04064 1.18357 0
M  V30 4035 C 381.121 -1.76662 0.973313 0
M  V30 4036 C 381.434 -1.89154 -0.497991 0
M  V30 4037 O 382.64 -2.58606 -0.826762 0
M  V30 4038 C 381.096 -3.17624 1.69242 0
M  V30 4039 C 380.704 -3.13225 3.20303 0
M  V30 4040 C 382.448 -3.946 1.56497 0
M  V30 4041 C 380.355 -4.49046 3.84853 0
M  V30 4042 H 379.285 -0.662214 0.36054 0
M  V30 4043 H 381.936 -1.16553 1.41731 0
M  V30 4044 H 380.318 -3.78129 1.1762 0
M  V30 4045 H 381.492 -2.62172 3.78949 0
M  V30 4046 H 379.807 -2.49749 3.33189 0
M  V30 4047 H 382.404 -4.95042 2.02084 0
M  V30 4048 H 382.747 -4.13074 0.517243 0
M  V30 4049 H 383.28 -3.4067 2.05399 0
M  V30 4050 H 380.019 -4.35777 4.89672 0
M  V30 4051 H 379.539 -5.00203 3.30994 0
M  V30 4052 H 381.218 -5.17961 3.87718 0
M  V30 4053 N 381.35 -0.985608 -1.22978 0
M  V30 4054 C 382.58 -0.674603 -1.95276 0
M  V30 4055 C 382.988 0.763483 -1.73111 0
M  V30 4056 O 382.331 1.52601 -1.02268 0
M  V30 4057 C 382.393 -0.891597 -3.48268 0
M  V30 4058 C 382.057 -2.31275 -3.94158 0
M  V30 4059 C 383.054 -3.29179 -4.02415 0
M  V30 4060 C 380.739 -2.64524 -4.27004 0
M  V30 4061 C 382.733 -4.58407 -4.42879 0
M  V30 4062 C 380.42 -3.93974 -4.67149 0
M  V30 4063 C 381.418 -4.90727 -4.75053 0
M  V30 4064 O 381.106 -6.17865 -5.14294 0
M  V30 4065 H 380.838 -0.249251 -0.628371 0
M  V30 4066 H 383.392 -1.32106 -1.5728 0
M  V30 4067 H 381.622 -0.187962 -3.86243 0
M  V30 4068 H 383.311 -0.576957 -4.01779 0
M  V30 4069 H 384.077 -3.04823 -3.77237 0
M  V30 4070 H 379.956 -1.89923 -4.2006 0
M  V30 4071 H 383.5 -5.33926 -4.48964 0
M  V30 4072 H 379.397 -4.18122 -4.91777 0
M  V30 4073 H 380.165 -6.21694 -5.32389 0
M  V30 4074 N 382.828 1.3818 -0.7579 0
M  V30 4075 C 384.239 1.82726 -0.383134 0
M  V30 4076 C 384.59 1.63214 1.08884 0
M  V30 4077 O 383.715 1.13566 1.84205 0
M  V30 4078 C 384.31 3.31728 -0.688631 0
M  V30 4079 C 382.869 3.74606 -0.367091 0
M  V30 4080 C 382.016 2.60896 -0.939599 0
M  V30 4081 H 384.967 1.26847 -0.953699 0
M  V30 4082 H 384.988 3.80487 0.0316492 0
M  V30 4083 H 384.5 3.45898 -1.76001 0
M  V30 4084 H 382.601 3.66013 0.697532 0
M  V30 4085 H 382.714 4.71215 -0.865658 0
M  V30 4086 H 381.078 2.52075 -0.3647 0
M  V30 4087 H 381.861 2.77864 -2.0161 0
M  V30 4088 N 384.306 0.507319 1.49211 0
M  V30 4089 C 385.554 -0.0348839 2.0207 0
M  V30 4090 C 385.875 -1.36898 1.38866 0
M  V30 4091 O 385.145 -1.88133 0.546151 0
M  V30 4092 H 383.725 -0.0158812 0.746831 0
M  V30 4093 H 386.387 0.665998 1.83168 0
M  V30 4094 H 385.483 -0.159917 3.1169 0
M  V30 4095 N 385.784 -1.5574 0.241426 0
M  V30 4096 C 387.033 -1.97986 -0.385295 0
M  V30 4097 C 387.346 -1.13267 -1.59468 0
M  V30 4098 O 388.552 -1.45501 -2.2922 0
M  V30 4099 C 387.008 -3.52275 -0.736884 0
M  V30 4100 C 386.616 -4.45726 0.450796 0
M  V30 4101 C 388.36 -4.03189 -1.3281 0
M  V30 4102 C 386.267 -5.91352 0.0756662 0
M  V30 4103 H 385.197 -0.739386 -0.147731 0
M  V30 4104 H 387.848 -1.80308 0.340779 0
M  V30 4105 H 386.23 -3.65628 -1.52094 0
M  V30 4106 H 387.404 -4.44131 1.22819 0
M  V30 4107 H 385.719 -4.05264 0.956573 0
M  V30 4108 H 388.316 -5.09505 -1.62201 0
M  V30 4109 H 388.659 -3.50212 -2.25071 0
M  V30 4110 H 389.192 -3.93141 -0.607069 0
M  V30 4111 H 385.931 -6.48354 0.965272 0
M  V30 4112 H 385.451 -5.96095 -0.665635 0
M  V30 4113 H 387.13 -6.46084 -0.344075 0
M  V30 4114 N 387.262 0.0317525 -1.57568 0
M  V30 4115 C 388.209 1.0332 -2.06382 0
M  V30 4116 C 389.179 1.36082 -0.952414 0
M  V30 4117 O 390.364 1.46466 -1.2228 0
M  V30 4118 C 387.504 2.32989 -2.54578 0
M  V30 4119 C 386.617 2.0641 -3.79498 0
M  V30 4120 C 385.752 3.2993 -4.16317 0
M  V30 4121 C 384.791 2.98893 -5.34162 0
M  V30 4122 N 383.928 4.14857 -5.66426 0
M  V30 4123 H 388.768 0.609982 -2.9169 0
M  V30 4124 H 386.305 0.289573 -1.44222 0
M  V30 4125 H 388.263 3.0875 -2.80587 0
M  V30 4126 H 386.893 2.73039 -1.7219 0
M  V30 4127 H 385.945 1.21158 -3.6059 0
M  V30 4128 H 387.257 1.79513 -4.65378 0
M  V30 4129 H 386.411 4.1406 -4.4344 0
M  V30 4130 H 385.15 3.59938 -3.29083 0
M  V30 4131 H 384.155 2.13164 -5.06795 0
M  V30 4132 H 385.38 2.70165 -6.23047 0
M  V30 4133 H 383.326 4.44821 -4.82151 0
M  V30 4134 H 383.243 3.91374 -6.4681 0
M  V30 4135 H 384.511 4.99868 -5.98124 0
M  V30 4136 N 388.74 1.54641 0.303973 0
M  V30 4137 C 389.986 1.74969 1.03718 0
M  V30 4138 C 390.341 0.527461 1.85029 0
M  V30 4139 O 389.634 -0.480143 1.85486 0
M  V30 4140 C 389.828 2.97753 1.97681 0
M  V30 4141 C 389.657 4.318 1.25613 0
M  V30 4142 C 388.427 4.95616 0.984518 0
M  V30 4143 C 390.625 5.10021 0.662081 0
M  V30 4144 N 388.607 6.13455 0.233794 0
M  V30 4145 C 389.978 6.19984 0.0439736 0
M  V30 4146 C 392.033 4.94663 0.566835 0
M  V30 4147 C 390.736 7.16264 -0.66016 0
M  V30 4148 C 392.762 5.91271 -0.123637 0
M  V30 4149 C 392.124 7.00601 -0.730608 0
M  V30 4150 H 388.223 0.692873 0.362562 0
M  V30 4151 H 390.807 1.92116 0.316135 0
M  V30 4152 H 388.978 2.82036 2.6704 0
M  V30 4153 H 390.71 3.06621 2.64132 0
M  V30 4154 H 387.465 4.55921 1.28191 0
M  V30 4155 H 387.889 6.76879 -0.127996 0
M  V30 4156 H 392.531 4.10267 1.02181 0
M  V30 4157 H 390.249 8.00204 -1.12691 0
M  V30 4158 H 393.835 5.81466 -0.197236 0
M  V30 4159 H 392.715 7.7407 -1.2564 0
M  V30 4160 N 390.218 -0.567019 1.47046 0
M  V30 4161 C 391.446 -1.35027 1.56765 0
M  V30 4162 C 391.861 -1.8758 0.214316 0
M  V30 4163 O 391.218 -1.64471 -0.790919 0
M  V30 4164 C 391.269 -2.52698 2.58507 0
M  V30 4165 O 390.99 -2.0232 3.88585 0
M  V30 4166 C 392.491 -3.45043 2.78316 0
M  V30 4167 H 389.711 -0.41195 0.529658 0
M  V30 4168 H 392.255 -0.687832 1.92585 0
M  V30 4169 H 390.41 -3.149 2.25648 0
M  V30 4170 H 390.824 -2.79068 4.44096 0
M  V30 4171 H 392.298 -4.2405 3.53391 0
M  V30 4172 H 392.775 -3.97971 1.85784 0
M  V30 4173 H 393.381 -2.88665 3.12334 0
M  V30 4174 N 391.696 -1.35014 -0.812953 0
M  V30 4175 C 393.107 -1.25035 -1.38648 0
M  V30 4176 C 393.458 0.119967 -1.95833 0
M  V30 4177 O 392.583 1.02069 -1.90816 0
M  V30 4178 C 393.178 -2.26394 -2.52054 0
M  V30 4179 C 391.737 -2.20175 -3.05287 0
M  V30 4180 C 390.884 -2.12451 -1.78213 0
M  V30 4181 H 393.835 -1.46235 -0.616516 0
M  V30 4182 H 393.856 -1.88672 -3.30429 0
M  V30 4183 H 393.368 -3.26116 -2.10404 0
M  V30 4184 H 391.469 -1.23841 -3.51417 0
M  V30 4185 H 391.582 -3.11863 -3.63701 0
M  V30 4186 H 389.946 -1.58328 -1.9951 0
M  V30 4187 H 390.729 -3.14024 -1.38723 0
M  V30 4188 N 393.175 1.03435 -1.18907 0
M  V30 4189 C 394.452 1.73778 -0.89781 0
M  V30 4190 C 394.832 2.02458 0.597832 0
M  V30 4191 O 394.18 1.67482 1.55441 0
M  V30 4192 C 394.39 3.01845 -1.75187 0
M  V30 4193 C 395.738 3.7546 -1.9828 0
M  V30 4194 O 396.762 3.11759 -1.72293 0
M  V30 4195 O 395.621 4.89966 -2.42065 0
M  V30 4196 H 392.715 0.75651 -0.334098 0
M  V30 4197 H 395.261 1.09444 -1.29693 0
M  V30 4198 H 394.033 2.76836 -2.76545 0
M  V30 4199 H 393.656 3.73919 -1.35167 0
M  V30 4200 N 394.653 0.992116 1.22453 0
M  V30 4201 C 395.563 0.55065 2.28046 0
M  V30 4202 C 396.579 -0.400189 1.69335 0
M  V30 4203 O 397.755 -0.267215 1.99619 0
M  V30 4204 C 394.82 -0.128496 3.46462 0
M  V30 4205 C 393.881 0.865208 4.20491 0
M  V30 4206 C 393.114 0.218377 5.33253 0
M  V30 4207 O 393.337 -0.987894 5.6178 0
M  V30 4208 O 392.271 0.922845 5.94783 0
M  V30 4209 H 396.097 1.4291 2.67975 0
M  V30 4210 H 393.682 0.760326 1.28606 0
M  V30 4211 H 395.564 -0.508947 4.18315 0
M  V30 4212 H 394.239 -0.981526 3.0846 0
M  V30 4213 H 393.146 1.29658 3.50913 0
M  V30 4214 H 394.479 1.68741 4.62371 0
M  V30 4215 N 396.131 -1.37776 0.765217 0
M  V30 4216 C 397.079 -2.32209 0.134798 0
M  V30 4217 C 398.073 -1.54607 -0.692315 0
M  V30 4218 O 399.279 -1.70052 -0.590109 0
M  V30 4219 H 395.654 -0.751591 0.0248005 0
M  V30 4220 H 397.625 -2.8297 0.947119 0
M  V30 4221 C 396.374 -3.39841 -0.735063 0
M  V30 4222 H 395.697 -3.99654 -0.107991 0
M  V30 4223 H 397.137 -4.08296 -1.14326 0
M  V30 4224 C 395.596 -2.79378 -1.88281 0
M  V30 4225 O 396.126 -2.69608 -2.97783 0
M  V30 4226 N 394.332 -2.37016 -1.68142 0
M  V30 4227 H 393.879 -2.45162 -0.790772 0
M  V30 4228 H 393.837 -1.96905 -2.45104 0
M  V30 4229 N 397.609 -0.515225 -1.4894 0
M  V30 4230 C 398.857 0.0241671 -2.02086 0
M  V30 4231 C 399.178 1.3616 -1.3959 0
M  V30 4232 O 398.448 1.87841 -0.556121 0
M  V30 4233 H 397.028 0.0119203 -0.746905 0
M  V30 4234 H 399.69 -0.675702 -1.82812 0
M  V30 4235 H 398.786 0.143385 -3.1177 0
M  V30 4236 N 399.087 1.5561 -0.249682 0
M  V30 4237 C 400.333 1.99306 0.374841 0
M  V30 4238 C 400.666 1.13767 1.57387 0
M  V30 4239 O 399.941 0.201711 1.93451 0
M  V30 4240 C 400.224 3.51507 0.781986 0
M  V30 4241 C 400.077 4.4781 -0.422629 0
M  V30 4242 C 401.396 4.08884 1.62793 0
M  V30 4243 H 398.515 0.724572 0.134773 0
M  V30 4244 H 401.157 1.86719 -0.351549 0
M  V30 4245 H 399.307 3.62363 1.4009 0
M  V30 4246 H 400.979 4.48931 -1.06108 0
M  V30 4247 H 399.222 4.20518 -1.06524 0
M  V30 4248 H 399.893 5.51919 -0.0943766 0
M  V30 4249 H 402.369 4.01147 1.10547 0
M  V30 4250 H 401.245 5.1564 1.88166 0
M  V30 4251 H 401.506 3.57515 2.60068 0
M  V30 4252 N 400.565 -0.0233959 1.57583 0
M  V30 4253 C 401.814 -0.712133 1.8871 0
M  V30 4254 C 402.127 -1.76217 0.848944 0
M  V30 4255 O 403.333 -2.50389 1.04964 0
M  V30 4256 C 401.789 -1.3177 3.3491 0
M  V30 4257 C 401.397 -0.303715 4.46969 0
M  V30 4258 C 403.141 -1.98598 3.75179 0
M  V30 4259 C 401.048 -0.917945 5.84233 0
M  V30 4260 H 399.978 -0.269735 0.704101 0
M  V30 4261 H 402.629 0.0333114 1.8347 0
M  V30 4262 H 401.011 -2.11304 3.34913 0
M  V30 4263 H 402.185 0.465325 4.58445 0
M  V30 4264 H 400.5 0.2628 4.1557 0
M  V30 4265 H 403.097 -2.45416 4.75053 0
M  V30 4266 H 403.44 -2.80659 3.07468 0
M  V30 4267 H 403.973 -1.25831 3.77374 0
M  V30 4268 H 400.712 -0.136633 6.55358 0
M  V30 4269 H 400.232 -1.65669 5.76467 0
M  V30 4270 H 401.911 -1.4236 6.31144 0
M  V30 4271 N 402.043 -1.548 -0.295768 0
M  V30 4272 C 403.271 -1.78327 -1.04914 0
M  V30 4273 C 403.686 -0.545316 -1.80753 0
M  V30 4274 O 403.043 0.485013 -1.75937 0
M  V30 4275 C 403.094 -2.99418 -2.02561 0
M  V30 4276 O 402.815 -4.18431 -1.29798 0
M  V30 4277 C 404.316 -3.35375 -2.89895 0
M  V30 4278 H 401.536 -0.594618 -0.310918 0
M  V30 4279 H 404.08 -2.01763 -0.333454 0
M  V30 4280 H 402.235 -2.78175 -2.69624 0
M  V30 4281 H 402.649 -4.86736 -1.95419 0
M  V30 4282 H 404.123 -4.23332 -3.54251 0
M  V30 4283 H 404.6 -2.53761 -3.58472 0
M  V30 4284 H 405.206 -3.58796 -2.28355 0
M  V30 4285 N 403.521 0.559213 -1.47345 0
M  V30 4286 C 404.768 1.31648 -1.53867 0
M  V30 4287 C 405.096 1.93468 -0.200104 0
M  V30 4288 O 404.351 1.78295 0.806799 0
M  V30 4289 C 404.65 2.44853 -2.6035 0
M  V30 4290 C 404.316 2.00876 -4.03683 0
M  V30 4291 C 402.978 1.88599 -4.42701 0
M  V30 4292 C 405.33 1.67279 -4.93626 0
M  V30 4293 C 402.658 1.41017 -5.69501 0
M  V30 4294 C 405.01 1.21169 -6.20887 0
M  V30 4295 C 403.674 1.07487 -6.58789 0
M  V30 4296 H 402.944 0.481734 -0.56304 0
M  V30 4297 H 405.591 0.627301 -1.80934 0
M  V30 4298 H 403.896 3.19318 -2.27032 0
M  V30 4299 H 405.593 3.03039 -2.62619 0
M  V30 4300 H 402.183 2.11374 -3.72853 0
M  V30 4301 H 406.367 1.75638 -4.64182 0
M  V30 4302 H 401.623 1.29086 -5.97618 0
M  V30 4303 H 405.797 0.942345 -6.89995 0
M  V30 4304 H 403.424 0.703946 -7.56934 0
M  V30 4305 N 404.999 1.35443 0.805782 0
M  V30 4306 C 406.276 1.19325 1.54987 0
M  V30 4307 C 406.656 -0.227294 2.09873 0
M  V30 4308 O 406.004 -1.2309 1.92512 0
M  V30 4309 C 406.214 2.26196 2.65775 0
M  V30 4310 C 407.562 2.62043 3.34094 0
M  V30 4311 O 408.586 2.25115 2.76046 0
M  V30 4312 O 407.445 3.25542 4.38958 0
M  V30 4313 H 404.539 0.463623 0.684823 0
M  V30 4314 H 407.085 1.47127 0.845674 0
M  V30 4315 H 405.857 3.21471 2.23096 0
M  V30 4316 H 405.48 1.99667 3.43829 0
M  V30 4317 N 406.477 -1.02803 1.19454 0
M  V30 4318 C 407.717 -1.77769 1.00883 0
M  V30 4319 C 408.081 -1.86596 -0.45233 0
M  V30 4320 O 409.282 -2.57895 -0.757877 0
M  V30 4321 C 407.553 -3.16486 1.66046 0
M  V30 4322 S 409.112 -4.07632 1.62424 0
M  V30 4323 H 405.93 -0.611949 0.361993 0
M  V30 4324 H 408.532 -1.23175 1.51816 0
M  V30 4325 H 407.236 -3.0768 2.7159 0
M  V30 4326 H 406.767 -3.76156 1.15196 0
M  V30 4327 H 408.782 -4.91937 0.64903 0
M  V30 4328 N 407.956 -0.998596 -1.21925 0
M  V30 4329 C 409.372 -0.710303 -1.42923 0
M  V30 4330 C 409.572 0.716933 -1.88314 0
M  V30 4331 O 408.628 1.48712 -2.04062 0
M  V30 4332 C 409.941 -1.72072 -2.466 0
M  V30 4333 C 411.489 -1.73681 -2.60392 0
M  V30 4334 C 411.964 -2.73601 -3.67296 0
M  V30 4335 N 413.455 -2.7223 -3.7476 0
M  V30 4336 C 414.19 -3.46206 -4.57087 0
M  V30 4337 N 413.686 -4.29802 -5.43362 0
M  V30 4338 N 415.479 -3.34886 -4.51451 0
M  V30 4339 H 407.63 -1.92028 -0.9077 0
M  V30 4340 H 409.893 -0.828487 -0.460775 0
M  V30 4341 H 409.599 -2.74231 -2.20206 0
M  V30 4342 H 409.473 -1.51818 -3.45299 0
M  V30 4343 H 411.86 -0.722173 -2.86127 0
M  V30 4344 H 411.941 -1.98005 -1.61949 0
M  V30 4345 H 411.585 -3.75217 -3.42307 0
M  V30 4346 H 411.515 -2.46545 -4.65321 0
M  V30 4347 H 414.006 -2.11576 -3.1312 0
M  V30 4348 H 414.319 -4.83061 -6.03218 0
M  V30 4349 H 412.664 -4.33887 -5.42925 0
M  V30 4350 H 415.855 -2.69015 -3.83078 0
M  V30 4351 H 416.028 -3.92796 -5.15379 0
M  V30 4352 N 409.434 1.37368 -0.772513 0
M  V30 4353 C 410.382 2.32134 -0.147111 0
M  V30 4354 C 411.376 1.54972 0.684106 0
M  V30 4355 O 412.582 1.70363 0.581083 0
M  V30 4356 H 408.957 0.751449 -0.028786 0
M  V30 4357 H 410.928 2.82464 -0.962112 0
M  V30 4358 C 409.677 3.40226 0.71703 0
M  V30 4359 H 409 3.99706 0.0867951 0
M  V30 4360 H 410.44 4.08897 1.12159 0
M  V30 4361 C 408.899 2.80372 1.86797 0
M  V30 4362 O 409.429 2.71183 2.96349 0
M  V30 4363 N 407.635 2.37904 1.66883 0
M  V30 4364 H 407.182 2.45578 0.777759 0
M  V30 4365 H 407.14 1.98202 2.44056 0
M  V30 4366 N 410.912 0.523116 1.48665 0
M  V30 4367 C 412.328 0.180511 1.58576 0
M  V30 4368 C 412.528 -1.31597 1.52592 0
M  V30 4369 O 411.584 -2.0937 1.4114 0
M  V30 4370 C 412.897 0.776949 2.90489 0
M  V30 4371 C 414.445 0.745058 3.04003 0
M  V30 4372 C 414.92 1.31995 4.38567 0
M  V30 4373 N 416.411 1.28162 4.45117 0
M  V30 4374 C 417.146 1.6964 5.47731 0
M  V30 4375 N 416.642 2.18816 6.57337 0
M  V30 4376 N 418.435 1.6092 5.38573 0
M  V30 4377 H 410.586 1.4958 1.50797 0
M  V30 4378 H 412.849 0.621772 0.715614 0
M  V30 4379 H 412.555 1.82732 3.00503 0
M  V30 4380 H 412.429 0.25007 3.7637 0
M  V30 4381 H 414.816 -0.296532 2.93606 0
M  V30 4382 H 414.897 1.30933 2.1975 0
M  V30 4383 H 414.541 2.36043 4.49718 0
M  V30 4384 H 414.471 0.731418 5.21496 0
M  V30 4385 H 416.962 0.92155 3.66491 0
M  V30 4386 H 417.275 2.48478 7.31764 0
M  V30 4387 H 415.62 2.22805 6.58318 0
M  V30 4388 H 418.811 1.22304 4.5184 0
M  V30 4389 H 418.984 1.93567 6.18414 0
M  V30 4390 N 412.39 -1.55475 0.257931 0
M  V30 4391 C 413.638 -1.98813 -0.363009 0
M  V30 4392 C 413.959 -1.14757 -1.57657 0
M  V30 4393 O 413.229 -0.232956 -1.9451 0
M  V30 4394 H 411.809 -0.734308 -0.137113 0
M  V30 4395 H 414.471 -1.9156 0.359281 0
M  V30 4396 H 413.567 -3.04941 -0.664634 0
M  V30 4397 N 413.868 0.0150385 -1.57593 0
M  V30 4398 C 415.114 0.69849 -1.91031 0
M  V30 4399 C 415.469 1.72208 -0.85804 0
M  V30 4400 O 414.762 1.91147 0.131614 0
M  V30 4401 C 414.956 1.39686 -3.28972 0
M  V30 4402 C 414.785 0.442428 -4.47518 0
M  V30 4403 C 413.555 0.0583223 -5.05266 0
M  V30 4404 C 415.753 -0.285072 -5.13509 0
M  V30 4405 N 413.735 -0.895893 -6.07328 0
M  V30 4406 C 415.106 -1.09447 -6.10263 0
M  V30 4407 C 417.161 -0.350518 -4.96665 0
M  V30 4408 C 415.864 -1.96333 -6.91987 0
M  V30 4409 C 417.89 -1.20655 -5.78962 0
M  V30 4410 C 417.252 -2.00383 -6.75297 0
M  V30 4411 H 413.351 0.22926 -0.747639 0
M  V30 4412 H 415.935 -0.0417748 -1.94655 0
M  V30 4413 H 414.106 2.1075 -3.2625 0
M  V30 4414 H 415.838 2.03381 -3.49883 0
M  V30 4415 H 412.593 0.423506 -4.71703 0
M  V30 4416 H 413.017 -1.36792 -6.63036 0
M  V30 4417 H 417.659 0.251596 -4.22051 0
M  V30 4418 H 415.377 -2.57618 -7.65936 0
M  V30 4419 H 418.963 -1.2609 -5.67972 0
M  V30 4420 H 417.843 -2.65552 -7.3787 0
M  V30 4421 N 415.346 1.54954 0.287554 0
M  V30 4422 C 416.576 1.78622 1.03816 0
M  V30 4423 C 416.984 0.552451 1.80955 0
M  V30 4424 O 416.327 -0.487665 1.77109 0
M  V30 4425 C 416.389 2.94975 2.055 0
M  V30 4426 C 416.053 4.32565 1.47433 0
M  V30 4427 C 417.05 5.12096 0.897436 0
M  V30 4428 C 414.735 4.79195 1.50591 0
M  V30 4429 C 416.729 6.36383 0.359851 0
M  V30 4430 C 414.416 6.03441 0.964459 0
M  V30 4431 C 415.414 6.81872 0.392413 0
M  V30 4432 O 415.102 8.03777 -0.140788 0
M  V30 4433 H 414.834 0.599144 0.313053 0
M  V30 4434 H 417.388 2.02761 0.328225 0
M  V30 4435 H 415.618 2.66493 2.80211 0
M  V30 4436 H 417.307 3.06097 2.6657 0
M  V30 4437 H 418.073 4.77209 0.865841 0
M  V30 4438 H 413.952 4.18167 1.94055 0
M  V30 4439 H 417.496 6.97545 -0.0872951 0
M  V30 4440 H 413.393 6.37813 0.993246 0
M  V30 4441 H 414.161 8.18495 -0.0287617 0
M  V30 4442 N 416.824 -0.551391 1.4764 0
M  V30 4443 C 418.073 -1.30467 1.53822 0
M  V30 4444 C 418.386 -1.94495 0.207661 0
M  V30 4445 O 419.592 -2.71099 0.147533 0
M  V30 4446 C 418.048 -2.36616 2.71184 0
M  V30 4447 C 417.656 -1.78754 4.10793 0
M  V30 4448 C 419.4 -3.13088 2.86663 0
M  V30 4449 C 417.307 -2.82717 5.19447 0
M  V30 4450 H 416.237 -0.490584 0.572576 0
M  V30 4451 H 418.888 -0.58494 1.73927 0
M  V30 4452 H 417.27 -3.11529 2.4447 0
M  V30 4453 H 418.444 -1.10173 4.47435 0
M  V30 4454 H 416.759 -1.14846 4.00249 0
M  V30 4455 H 419.356 -3.90736 3.65007 0
M  V30 4456 H 419.699 -3.67635 1.95321 0
M  V30 4457 H 420.232 -2.45288 3.13175 0
M  V30 4458 H 416.971 -2.33018 6.12685 0
M  V30 4459 H 416.491 -3.4969 4.87316 0
M  V30 4460 H 418.17 -3.46102 5.46646 0
M  V30 4461 N 418.302 -1.35869 -0.798587 0
M  V30 4462 C 419.234 -1.25305 -1.91915 0
M  V30 4463 C 420.247 -0.174548 -1.61862 0
M  V30 4464 O 421.436 -0.428499 -1.73281 0
M  V30 4465 C 418.536 -0.9086 -3.26493 0
M  V30 4466 C 417.709 -2.08711 -3.84394 0
M  V30 4467 C 416.768 -1.71717 -4.97393 0
M  V30 4468 O 415.794 -2.43692 -5.14396 0
M  V30 4469 N 416.996 -0.645473 -5.769 0
M  V30 4470 H 419.761 -2.21849 -2.01502 0
M  V30 4471 H 417.322 -1.29143 -0.976408 0
M  V30 4472 H 419.314 -0.642455 -3.99568 0
M  V30 4473 H 417.884 -0.0325815 -3.12583 0
M  V30 4474 H 417.104 -2.51659 -3.03416 0
M  V30 4475 H 418.392 -2.87468 -4.19809 0
M  V30 4476 H 417.79 -0.047648 -5.6568 0
M  V30 4477 H 416.347 -0.43913 -6.50319 0
M  V30 4478 N 419.78 1.02168 -1.19998 0
M  V30 4479 C 420.743 2.08765 -0.94604 0
M  V30 4480 C 421.743 1.60618 0.0763846 0
M  V30 4481 O 422.933 1.73472 -0.159135 0
M  V30 4482 C 420.065 3.38262 -0.423255 0
M  V30 4483 H 421.258 2.32726 -1.89153 0
M  V30 4484 H 418.811 1.1889 -1.01464 0
M  V30 4485 H 419.546 3.19974 0.527938 0
M  V30 4486 H 419.331 3.74532 -1.16053 0
M  V30 4487 H 420.821 4.16759 -0.264911 0
M  V30 4488 N 421.258 1.00505 1.21394 0
M  V30 4489 C 422.221 0.570459 2.21987 0
M  V30 4490 C 423.221 -0.353211 1.56873 0
M  V30 4491 O 424.411 -0.14349 1.73608 0
M  V30 4492 C 421.543 -0.168555 3.40483 0
M  V30 4493 H 422.736 1.46021 2.6195 0
M  V30 4494 H 420.289 0.793565 1.34656 0
M  V30 4495 H 421.024 -1.07374 3.06009 0
M  V30 4496 H 420.809 0.494823 3.88965 0
M  V30 4497 H 422.299 -0.460362 4.15055 0
M  V30 4498 N 422.737 -1.36956 0.779787 0
M  V30 4499 C 423.965 -2.03755 0.359398 0
M  V30 4500 C 424.38 -1.58807 -1.02106 0
M  V30 4501 O 423.737 -0.773024 -1.6532 0
M  V30 4502 C 423.788 -3.59251 0.402568 0
M  V30 4503 O 423.509 -4.02557 1.72858 0
M  V30 4504 C 425.01 -4.43291 -0.0284068 0
M  V30 4505 H 422.23 -0.654148 0.149437 0
M  V30 4506 H 424.774 -1.75128 1.05595 0
M  V30 4507 H 422.929 -3.86621 -0.245478 0
M  V30 4508 H 423.343 -4.97111 1.67275 0
M  V30 4509 H 424.817 -5.51975 0.0529466 0
M  V30 4510 H 425.294 -4.25719 -1.07982 0
M  V30 4511 H 425.9 -4.21163 0.591758 0
M  V30 4512 N 424.215 -0.530993 -1.48385 0
M  V30 4513 C 425.44 0.000729535 -2.074 0
M  V30 4514 C 425.865 1.27298 -1.3848 0
M  V30 4515 O 425.223 1.75599 -0.451081 0
M  V30 4516 C 425.271 0.206697 -3.60007 0
M  V30 4517 O 424.375 1.27514 -3.92191 0
M  V30 4518 H 423.716 -0.039583 -0.662819 0
M  V30 4519 H 426.246 -0.739194 -1.9078 0
M  V30 4520 H 426.256 0.42904 -4.05738 0
M  V30 4521 H 424.931 -0.722675 -4.09573 0
M  V30 4522 H 423.508 1.03537 -3.58238 0
M  V30 4523 N 425.693 1.55336 -0.266172 0
M  V30 4524 C 427.104 1.85236 0.233315 0
M  V30 4525 C 427.455 1.18816 1.56132 0
M  V30 4526 O 426.58 0.473307 2.11161 0
M  V30 4527 C 427.175 3.36059 0.430113 0
M  V30 4528 C 425.734 3.66116 0.873842 0
M  V30 4529 C 424.881 2.77274 -0.0380016 0
M  V30 4530 H 427.832 1.51004 -0.488214 0
M  V30 4531 H 427.853 3.58681 1.26998 0
M  V30 4532 H 427.365 3.84373 -0.536588 0
M  V30 4533 H 425.466 3.23295 1.85233 0
M  V30 4534 H 425.579 4.73699 0.717358 0
M  V30 4535 H 423.943 2.50198 0.476759 0
M  V30 4536 H 424.726 3.284 -1.00042 0
M  V30 4537 N 427.171 -0.0066808 1.57599 0
M  V30 4538 C 428.118 -1.00024 2.08 0
M  V30 4539 C 429.088 -1.34549 0.973943 0
M  V30 4540 O 430.273 -1.44502 1.24595 0
M  V30 4541 C 427.413 -2.2891 2.58252 0
M  V30 4542 C 426.526 -2.00346 3.82734 0
M  V30 4543 C 425.661 -3.23265 4.21513 0
M  V30 4544 C 424.7 -2.90357 5.3885 0
M  V30 4545 N 423.837 -4.05793 5.72954 0
M  V30 4546 H 428.677 -0.563499 2.92624 0
M  V30 4547 H 426.214 -0.266592 1.44664 0
M  V30 4548 H 428.172 -3.04247 2.85464 0
M  V30 4549 H 426.802 -2.70265 1.76512 0
M  V30 4550 H 425.854 -1.15406 3.62471 0
M  V30 4551 H 427.166 -1.72086 4.68175 0
M  V30 4552 H 426.32 -4.06953 4.49971 0
M  V30 4553 H 425.059 -3.54657 3.34768 0
M  V30 4554 H 424.064 -2.05075 5.10122 0
M  V30 4555 H 425.289 -2.60219 6.27266 0
M  V30 4556 H 423.235 -4.37094 4.89167 0
M  V30 4557 H 423.152 -3.81034 6.52954 0
M  V30 4558 H 424.42 -4.90289 6.06001 0
M  V30 4559 N 428.649 -1.55105 -0.279332 0
M  V30 4560 C 429.926 -1.66119 -1.03267 0
M  V30 4561 C 430.306 -0.523525 -2.04505 0
M  V30 4562 O 429.654 0.477194 -2.23462 0
M  V30 4563 C 429.864 -3.05067 -1.69515 0
M  V30 4564 C 431.212 -3.62606 -2.20912 0
M  V30 4565 O 432.236 -3.07659 -1.79512 0
M  V30 4566 O 431.095 -4.58861 -2.96831 0
M  V30 4567 H 428.189 -0.674429 -0.478618 0
M  V30 4568 H 430.735 -1.67446 -0.275694 0
M  V30 4569 H 429.507 -3.79311 -0.9612 0
M  V30 4570 H 429.13 -3.07611 -2.51915 0
M  V30 4571 N 430.127 0.543554 -1.4793 0
M  V30 4572 C 431.376 1.29649 -1.54512 0
M  V30 4573 C 431.689 1.94382 -0.217973 0
M  V30 4574 O 432.895 2.71017 -0.161908 0
M  V30 4575 C 431.351 2.35175 -2.72435 0
M  V30 4576 C 430.959 1.76572 -4.11736 0
M  V30 4577 C 432.703 3.11564 -2.8832 0
M  V30 4578 C 430.61 2.79958 -5.20939 0
M  V30 4579 H 429.54 0.487541 -0.57517 0
M  V30 4580 H 432.191 0.575708 -1.74235 0
M  V30 4581 H 430.573 3.10229 -2.46118 0
M  V30 4582 H 431.747 1.07799 -4.48013 0
M  V30 4583 H 430.062 1.12722 -4.00852 0
M  V30 4584 H 432.659 3.88794 -3.67074 0
M  V30 4585 H 433.002 3.66594 -1.97268 0
M  V30 4586 H 433.535 2.43623 -3.14472 0
M  V30 4587 H 430.274 2.29766 -6.13912 0
M  V30 4588 H 429.794 3.47101 -4.89164 0
M  V30 4589 H 431.473 3.43198 -5.48474 0
M  V30 4590 N 431.605 1.3629 0.791371 0
M  V30 4591 C 432.851 1.30605 1.55146 0
M  V30 4592 C 433.184 -0.115042 1.93859 0
M  V30 4593 O 432.459 -1.06798 1.62556 0
M  V30 4594 C 432.742 2.22692 2.82985 0
M  V30 4595 C 432.595 3.73489 2.50651 0
M  V30 4596 C 433.914 2.13588 3.84796 0
M  V30 4597 H 431.033 0.475761 0.562868 0
M  V30 4598 H 433.675 1.66825 0.909358 0
M  V30 4599 H 431.825 1.91933 3.37778 0
M  V30 4600 H 433.497 4.14758 2.01924 0
M  V30 4601 H 431.74 3.93021 1.83622 0
M  V30 4602 H 432.411 4.3333 3.41949 0
M  V30 4603 H 434.887 2.40659 3.39445 0
M  V30 4604 H 433.763 2.80195 4.71998 0
M  V30 4605 H 434.024 1.12256 4.27611 0
M  V30 4606 N 433.083 -1.0153 1.20538 0
M  V30 4607 C 434.332 -1.74558 1.01057 0
M  V30 4608 C 434.645 -1.90168 -0.457756 0
M  V30 4609 O 435.851 -2.60301 -0.771722 0
M  V30 4610 C 434.307 -3.13963 1.75941 0
M  V30 4611 C 433.915 -3.06361 3.26875 0
M  V30 4612 C 435.659 -3.91191 1.64832 0
M  V30 4613 C 433.566 -4.40782 3.94291 0
M  V30 4614 H 432.496 -0.654417 0.374505 0
M  V30 4615 H 435.147 -1.13521 1.44171 0
M  V30 4616 H 433.529 -3.75549 1.25614 0
M  V30 4617 H 434.703 -2.54074 3.84425 0
M  V30 4618 H 433.018 -2.42625 3.38411 0
M  V30 4619 H 435.615 -4.90644 2.12539 0
M  V30 4620 H 435.958 -4.11884 0.604745 0
M  V30 4621 H 436.491 -3.36236 2.12579 0
M  V30 4622 H 433.23 -4.25292 4.98805 0
M  V30 4623 H 432.75 -4.9307 3.41529 0
M  V30 4624 H 434.429 -5.09621 3.98617 0
M  V30 4625 N 434.561 -1.01147 -1.20859 0
M  V30 4626 C 435.491 -0.597663 -2.25722 0
M  V30 4627 C 436.472 0.384744 -1.65692 0
M  V30 4628 O 437.657 0.271303 -1.92296 0
M  V30 4629 C 434.787 0.0700149 -3.47229 0
M  V30 4630 C 433.741 -0.832843 -4.19819 0
M  V30 4631 C 433.067 -0.0312202 -5.34691 0
M  V30 4632 C 434.367 -2.1385 -4.76514 0
M  V30 4633 H 436.061 -1.47423 -2.60589 0
M  V30 4634 H 433.607 -0.710301 -1.25263 0
M  V30 4635 H 435.56 0.37103 -4.19763 0
M  V30 4636 H 434.284 0.981259 -3.11511 0
M  V30 4637 H 432.943 -1.11778 -3.49144 0
M  V30 4638 H 432.591 0.881515 -4.95215 0
M  V30 4639 H 432.291 -0.632434 -5.84187 0
M  V30 4640 H 433.815 0.26346 -6.10031 0
M  V30 4641 H 435.229 -1.9002 -5.40893 0
M  V30 4642 H 433.626 -2.69012 -5.36426 0
M  V30 4643 H 434.696 -2.80495 -3.95538 0
M  V30 4644 N 436.039 1.36541 -0.78704 0
M  V30 4645 C 437.285 1.99599 -0.358872 0
M  V30 4646 C 437.618 1.62323 1.06606 0
M  V30 4647 O 436.893 0.876858 1.73613 0
M  V30 4648 C 437.176 3.56327 -0.519944 0
M  V30 4649 C 437.029 4.03464 -1.98839 0
M  V30 4650 C 438.348 4.4005 0.0664737 0
M  V30 4651 H 435.467 0.725107 -0.131869 0
M  V30 4652 H 438.109 1.6199 -0.992936 0
M  V30 4653 H 436.259 3.88495 0.0198321 0
M  V30 4654 H 437.931 3.81793 -2.58905 0
M  V30 4655 H 436.174 3.55092 -2.49183 0
M  V30 4656 H 436.845 5.12439 -2.05207 0
M  V30 4657 H 439.321 4.14228 -0.394267 0
M  V30 4658 H 438.197 5.48847 -0.0762682 0
M  V30 4659 H 438.458 4.26655 1.15835 0
M  V30 4660 N 437.518 0.538854 1.48102 0
M  V30 4661 C 438.795 -0.0568108 1.95517 0
M  V30 4662 C 439.175 -1.50408 1.48124 0
M  V30 4663 O 438.523 -2.17133 0.711727 0
M  V30 4664 C 438.733 0.0696262 3.48931 0
M  V30 4665 C 440.081 -0.0851202 4.24515 0
M  V30 4666 O 441.105 -0.0037347 3.562 0
M  V30 4667 O 439.964 -0.257025 5.45895 0
M  V30 4668 H 437.058 -0.0743695 0.823649 0
M  V30 4669 H 439.604 0.604081 1.58584 0
M  V30 4670 H 438.376 1.07744 3.76174 0
M  V30 4671 H 437.999 -0.629714 3.92582 0
M  V30 4672 N 438.996 -1.55193 0.274407 0
M  V30 4673 C 440.242 -1.99877 -0.343086 0
M  V30 4674 C 440.575 -1.16256 -1.55558 0
M  V30 4675 O 439.85 -0.232462 -1.93106 0
M  V30 4676 C 440.133 -3.52706 -0.725965 0
M  V30 4677 C 439.986 -4.47081 0.493818 0
M  V30 4678 C 441.305 -4.11422 -1.56268 0
M  V30 4679 H 438.424 -0.726625 -0.123229 0
M  V30 4680 H 441.066 -1.86136 0.38121 0
M  V30 4681 H 439.216 -3.64546 -1.34307 0
M  V30 4682 H 440.888 -4.47186 1.13237 0
M  V30 4683 H 439.131 -4.1877 1.13201 0
M  V30 4684 H 439.802 -5.51699 0.18217 0
M  V30 4685 H 442.278 -4.02855 -1.04151 0
M  V30 4686 H 441.154 -5.18568 -1.79939 0
M  V30 4687 H 441.415 -3.61607 -2.54348 0
M  V30 4688 N 440.474 -0.00167713 -1.576 0
M  V30 4689 C 441.699 0.69739 -1.95323 0
M  V30 4690 C 442.124 1.6642 -0.876706 0
M  V30 4691 O 441.482 1.80548 0.165007 0
M  V30 4692 C 441.53 1.40403 -3.32144 0
M  V30 4693 O 440.634 2.5185 -3.26566 0
M  V30 4694 H 439.975 0.185373 -0.637599 0
M  V30 4695 H 442.505 -0.0553665 -2.04525 0
M  V30 4696 H 442.515 1.76707 -3.67748 0
M  V30 4697 H 441.19 0.695167 -4.10049 0
M  V30 4698 H 439.767 2.17861 -3.0264 0
M  V30 4699 N 441.952 1.55251 0.271103 0
M  V30 4700 C 443.2 1.75599 1.00047 0
M  V30 4701 C 443.521 0.561188 1.8675 0
M  V30 4702 O 442.791 -0.423846 1.9126 0
M  V30 4703 H 441.371 0.647562 0.372387 0
M  V30 4704 H 444.033 1.92656 0.294876 0
M  V30 4705 H 443.129 2.65766 1.6363 0
M  V30 4706 N 443.43 -0.535701 1.48216 0
M  V30 4707 C 444.655 -1.32149 1.59848 0
M  V30 4708 C 445.08 -1.86338 0.256842 0
M  V30 4709 O 444.438 -1.64107 -0.770632 0
M  V30 4710 C 444.486 -2.45224 2.64381 0
M  V30 4711 O 443.59 -3.48093 2.21144 0
M  V30 4712 H 442.931 -0.391634 0.536208 0
M  V30 4713 H 445.461 -0.645202 1.94161 0
M  V30 4714 H 445.471 -2.91491 2.85476 0
M  V30 4715 H 444.146 -2.05143 3.61786 0
M  V30 4716 H 442.723 -3.07984 2.10239 0
M  V30 4717 N 444.908 -1.36708 -0.784132 0
M  V30 4718 C 445.841 -1.25827 -1.90375 0
M  V30 4719 C 446.819 -0.141331 -1.61985 0
M  V30 4720 O 448.003 -0.313389 -1.85877 0
M  V30 4721 C 445.13 -0.942621 -3.25319 0
M  V30 4722 C 444.176 -2.07474 -3.72635 0
M  V30 4723 S 445.009 -3.69317 -3.8777 0
M  V30 4724 C 446.165 -3.39876 -5.25581 0
M  V30 4725 H 446.398 -2.20593 -1.99314 0
M  V30 4726 H 443.931 -1.22186 -0.943926 0
M  V30 4727 H 445.889 -0.767321 -4.03265 0
M  V30 4728 H 444.55 -0.0126566 -3.14097 0
M  V30 4729 H 443.743 -1.80858 -4.70432 0
M  V30 4730 H 443.345 -2.20953 -3.01754 0
M  V30 4731 H 445.637 -2.94097 -6.10339 0
M  V30 4732 H 446.58 -4.36956 -5.57203 0
M  V30 4733 H 446.988 -2.75098 -4.92931 0
M  V30 4734 N 446.386 1.0089 -1.21074 0
M  V30 4735 C 447.333 2.09588 -0.966512 0
M  V30 4736 C 448.303 1.65761 0.106089 0
M  V30 4737 O 449.488 1.90758 -0.0402287 0
M  V30 4738 C 446.628 3.40958 -0.533058 0
M  V30 4739 C 445.741 3.9822 -1.67467 0
M  V30 4740 C 444.876 5.17682 -1.19076 0
M  V30 4741 C 443.915 5.67043 -2.30496 0
M  V30 4742 N 443.052 6.77759 -1.83267 0
M  V30 4743 H 447.892 2.29815 -1.89708 0
M  V30 4744 H 445.429 1.12689 -0.945489 0
M  V30 4745 H 447.387 4.1637 -0.263019 0
M  V30 4746 H 446.017 3.20781 0.360505 0
M  V30 4747 H 445.069 3.1983 -2.05944 0
M  V30 4748 H 446.381 4.3085 -2.51336 0
M  V30 4749 H 445.535 6.00326 -0.877151 0
M  V30 4750 H 444.274 4.86635 -0.322066 0
M  V30 4751 H 443.279 4.82999 -2.62664 0
M  V30 4752 H 444.504 6.00121 -3.17855 0
M  V30 4753 H 442.45 6.48527 -0.987356 0
M  V30 4754 H 442.367 7.09624 -2.60711 0
M  V30 4755 H 443.635 7.63949 -1.54928 0
M  V30 4756 N 447.864 1.01787 1.20321 0
M  V30 4757 C 449.112 0.706538 1.89347 0
M  V30 4758 C 449.433 -0.766289 1.79313 0
M  V30 4759 O 448.703 -1.55126 1.19635 0
M  V30 4760 H 447.283 0.258348 0.700903 0
M  V30 4761 H 449.945 1.28974 1.46122 0
M  V30 4762 H 449.041 0.991066 2.95946 0
M  V30 4763 N 449.342 -1.36122 0.79427 0
M  V30 4764 C 450.272 -2.32551 0.210328 0
M  V30 4765 C 451.253 -1.56884 -0.657386 0
M  V30 4766 O 452.438 -1.85014 -0.590207 0
M  V30 4767 C 449.568 -3.41128 -0.651819 0
M  V30 4768 C 448.522 -4.27842 0.116395 0
M  V30 4769 C 447.848 -5.2763 -0.86666 0
M  V30 4770 C 449.148 -5.05647 1.30837 0
M  V30 4771 H 450.842 -2.81636 1.01594 0
M  V30 4772 H 448.388 -1.35407 0.489981 0
M  V30 4773 H 450.341 -4.07581 -1.07031 0
M  V30 4774 H 449.065 -2.90622 -1.49019 0
M  V30 4775 H 447.724 -3.62952 0.515915 0
M  V30 4776 H 447.372 -4.73395 -1.70019 0
M  V30 4777 H 447.072 -5.86514 -0.35705 0
M  V30 4778 H 448.596 -5.96955 -1.28361 0
M  V30 4779 H 450.01 -5.65113 0.965393 0
M  V30 4780 H 448.407 -5.73967 1.75161 0
M  V30 4781 H 449.477 -4.37006 2.10128 0
M  V30 4782 N 450.82 -0.546701 -1.47814 0
M  V30 4783 C 452.236 -0.205717 -1.58269 0
M  V30 4784 C 452.436 1.29153 -1.54667 0
M  V30 4785 O 451.492 2.07098 -1.44453 0
M  V30 4786 C 452.805 -0.823065 -2.89216 0
M  V30 4787 C 454.353 -0.793328 -3.02779 0
M  V30 4788 C 454.828 -1.38955 -4.36412 0
M  V30 4789 N 456.319 -1.35227 -4.43021 0
M  V30 4790 C 457.054 -1.78333 -5.44963 0
M  V30 4791 N 456.55 -2.29246 -6.53772 0
M  V30 4792 N 458.343 -1.69467 -5.35945 0
M  V30 4793 H 450.494 -1.5196 -1.48398 0
M  V30 4794 H 452.757 -0.633078 -0.705632 0
M  V30 4795 H 452.463 -1.8749 -2.97558 0
M  V30 4796 H 452.337 -0.309915 -3.75925 0
M  V30 4797 H 454.724 0.249784 -2.94041 0
M  V30 4798 H 454.805 -1.34412 -2.17639 0
M  V30 4799 H 454.449 -2.43168 -4.45906 0
M  V30 4800 H 454.379 -0.814291 -5.20266 0
M  V30 4801 H 456.87 -0.979739 -3.64979 0
M  V30 4802 H 457.183 -2.60089 -7.27718 0
M  V30 4803 H 455.528 -2.3325 -6.5469 0
M  V30 4804 H 458.719 -1.29477 -4.49837 0
M  V30 4805 H 458.892 -2.03381 -6.15256 0
M  V30 4806 N 452.299 1.55045 -0.282633 0
M  V30 4807 C 453.232 2.18951 0.64311 0
M  V30 4808 C 454.21 1.15287 1.14664 0
M  V30 4809 O 455.394 1.43846 1.21822 0
M  V30 4810 C 452.521 2.81874 1.87789 0
M  V30 4811 C 451.567 3.98906 1.50919 0
M  V30 4812 S 452.4 5.3234 0.580884 0
M  V30 4813 C 453.556 5.98737 1.82387 0
M  V30 4814 H 453.789 2.97131 0.100138 0
M  V30 4815 H 451.322 1.54255 -0.0668514 0
M  V30 4816 H 453.28 3.18757 2.58658 0
M  V30 4817 H 451.941 2.03573 2.392 0
M  V30 4818 H 451.134 4.4165 2.42819 0
M  V30 4819 H 450.736 3.63485 0.88061 0
M  V30 4820 H 453.028 6.18427 2.76684 0
M  V30 4821 H 453.971 6.93318 1.4393 0
M  V30 4822 H 454.379 5.28177 1.99223 0
M  V30 4823 N 453.777 0.010035 1.57597 0
M  V30 4824 C 455.005 -0.683413 1.95287 0
M  V30 4825 C 455.42 -1.66747 0.885481 0
M  V30 4826 O 454.777 -1.82003 -0.134629 0
M  V30 4827 C 454.828 -1.40652 3.33015 0
M  V30 4828 O 454.549 -0.461916 4.35658 0
M  V30 4829 C 456.05 -2.19356 3.85225 0
M  V30 4830 H 453.27 -0.189708 0.643624 0
M  V30 4831 H 455.814 0.0641359 2.04399 0
M  V30 4832 H 453.969 -2.10562 3.2518 0
M  V30 4833 H 454.383 -0.973215 5.15392 0
M  V30 4834 H 455.857 -2.65433 4.83993 0
M  V30 4835 H 456.334 -3.02457 3.18459 0
M  V30 4836 H 456.94 -1.54442 3.96267 0
M  V30 4837 N 455.255 -1.55392 -0.262866 0
M  V30 4838 C 456.504 -1.75679 -0.990943 0
M  V30 4839 C 456.817 -0.57097 -1.87081 0
M  V30 4840 O 458.023 -0.656486 -2.63444 0
M  V30 4841 C 456.479 -3.10964 -1.81188 0
M  V30 4842 C 456.087 -4.37146 -0.980188 0
M  V30 4843 C 457.831 -3.40597 -2.53365 0
M  V30 4844 C 455.738 -5.63466 -1.7961 0
M  V30 4845 H 454.668 -0.654868 -0.373716 0
M  V30 4846 H 457.319 -1.81841 -0.246203 0
M  V30 4847 H 455.701 -2.98867 -2.59797 0
M  V30 4848 H 456.875 -4.60187 -0.237558 0
M  V30 4849 H 455.19 -4.14731 -0.372497 0
M  V30 4850 H 457.787 -4.32186 -3.14833 0
M  V30 4851 H 458.13 -2.6119 -3.24169 0
M  V30 4852 H 458.663 -3.53838 -1.81779 0
M  V30 4853 H 455.402 -6.4565 -1.13209 0
M  V30 4854 H 454.922 -5.44552 -2.51443 0
M  V30 4855 H 456.601 -6.02139 -2.36723 0
M  V30 4856 N 456.733 0.527833 -1.48498 0
M  V30 4857 C 457.696 1.61439 -1.62696 0
M  V30 4858 C 458.696 1.52824 -0.500136 0
M  V30 4859 O 459.886 1.56456 -0.765976 0
M  V30 4860 C 457.018 3.01063 -1.59918 0
M  V30 4861 H 458.211 1.50189 -2.59583 0
M  V30 4862 H 455.764 0.750055 -1.37127 0
M  V30 4863 H 456.499 3.17818 -0.645163 0
M  V30 4864 H 456.284 3.08725 -2.41726 0
M  V30 4865 H 457.774 3.80057 -1.73051 0
M  V30 4866 N 458.211 1.37122 0.776871 0
M  V30 4867 C 459.158 1.3247 1.88998 0
M  V30 4868 C 460.128 0.191143 1.64997 0
M  V30 4869 O 461.313 0.379683 1.86984 0
M  V30 4870 C 458.453 1.13241 3.25992 0
M  V30 4871 C 457.566 2.35782 3.61982 0
M  V30 4872 C 456.701 2.09465 4.88158 0
M  V30 4873 C 455.74 3.279 5.16864 0
M  V30 4874 N 454.877 3.01167 6.34226 0
M  V30 4875 H 459.717 2.27642 1.9231 0
M  V30 4876 H 457.254 1.13125 0.94027 0
M  V30 4877 H 459.212 1.00115 4.0501 0
M  V30 4878 H 457.842 0.217186 3.22069 0
M  V30 4879 H 456.894 2.59666 2.77989 0
M  V30 4880 H 458.206 3.24125 3.79137 0
M  V30 4881 H 457.36 1.93341 5.75069 0
M  V30 4882 H 456.099 1.18452 4.73097 0
M  V30 4883 H 455.104 3.44569 4.2843 0
M  V30 4884 H 456.329 4.19757 5.33836 0
M  V30 4885 H 454.275 2.12779 6.20533 0
M  V30 4886 H 454.192 3.83052 6.51772 0
M  V30 4887 H 455.46 2.88649 7.24087 0
M  V30 4888 N 459.689 -1.00246 1.21608 0
M  V30 4889 C 460.639 -2.07492 0.945051 0
M  V30 4890 C 461.623 -1.60585 -0.100675 0
M  V30 4891 O 462.815 -1.76667 0.10859 0
M  V30 4892 C 459.944 -3.39425 0.514342 0
M  V30 4893 C 459.03 -3.92993 1.59428 0
M  V30 4894 N 459.421 -4.19898 2.81991 0
M  V30 4895 C 457.719 -4.21297 1.46374 0
M  V30 4896 C 458.42 -4.63297 3.51754 0
M  V30 4897 N 457.396 -4.66421 2.79199 0
M  V30 4898 H 461.198 -2.26222 1.87619 0
M  V30 4899 H 458.712 -1.18339 1.11219 0
M  V30 4900 H 460.709 -4.15808 0.301527 0
M  V30 4901 H 459.369 -3.22101 -0.410008 0
M  V30 4902 H 460.38 -4.08377 3.1851 0
M  V30 4903 H 457.057 -4.13095 0.604863 0
M  V30 4904 H 458.447 -4.92816 4.56708 0
M  V30 4905 N 461.167 -1.02423 -1.1978 0
M  V30 4906 C 462.395 -0.737456 -1.93311 0
M  V30 4907 C 462.81 0.703023 -1.75223 0
M  V30 4908 O 462.167 1.47761 -1.07112 0
M  V30 4909 C 462.218 -1.0733 -3.45199 0
M  V30 4910 O 461.939 -2.4572 -3.62702 0
M  V30 4911 C 463.44 -0.80866 -4.35862 0
M  V30 4912 H 460.66 -0.2702 -0.614193 0
M  V30 4913 H 463.204 -1.36747 -1.52054 0
M  V30 4914 H 461.359 -0.488545 -3.84307 0
M  V30 4915 H 461.773 -2.58081 -4.56612 0
M  V30 4916 H 463.247 -1.09365 -5.41057 0
M  V30 4917 H 463.724 0.257025 -4.38447 0
M  V30 4918 H 464.33 -1.37592 -4.02428 0
M  V30 4919 N 462.645 1.35699 -0.801477 0
M  V30 4920 C 463.894 1.98165 -0.375979 0
M  V30 4921 C 464.207 1.64306 1.06127 0
M  V30 4922 O 465.413 2.20097 1.58964 0
M  V30 4923 C 463.869 3.54497 -0.621305 0
M  V30 4924 C 463.477 3.9727 -2.07076 0
M  V30 4925 C 465.221 4.23697 -0.26091 0
M  V30 4926 C 463.128 5.46427 -2.26211 0
M  V30 4927 H 462.058 0.741478 -0.136844 0
M  V30 4928 H 464.709 1.54834 -0.984814 0
M  V30 4929 H 463.091 3.95958 0.0574112 0
M  V30 4930 H 464.265 3.66974 -2.78687 0
M  V30 4931 H 462.58 3.40943 -2.39054 0
M  V30 4932 H 465.177 5.33334 -0.381994 0
M  V30 4933 H 465.52 4.0869 0.792344 0
M  V30 4934 H 466.053 3.87639 -0.893339 0
M  V30 4935 H 462.792 5.66396 -3.29963 0
M  V30 4936 H 462.312 5.78309 -1.59119 0
M  V30 4937 H 463.991 6.12819 -2.07513 0
M  V30 4938 N 464.123 0.554532 1.47522 0
M  V30 4939 C 465.351 0.034257 2.06872 0
M  V30 4940 C 465.766 -1.25826 1.40759 0
M  V30 4941 O 465.123 -1.75425 0.503217 0
M  V30 4942 C 465.174 -0.167827 3.6111 0
M  V30 4943 O 464.895 1.07351 4.24744 0
M  V30 4944 C 466.396 -0.72569 4.3732 0
M  V30 4945 H 463.616 0.0446275 0.669514 0
M  V30 4946 H 466.16 0.767181 1.89564 0
M  V30 4947 H 464.315 -0.850872 3.7794 0
M  V30 4948 H 464.729 0.869563 5.17242 0
M  V30 4949 H 466.203 -0.816394 5.45929 0
M  V30 4950 H 466.68 -1.73635 4.0342 0
M  V30 4951 H 467.286 -0.0784292 4.25228 0
M  V30 4952 N 465.601 -1.54893 0.290851 0
M  V30 4953 C 466.829 -2.04343 -0.324288 0
M  V30 4954 C 467.244 -1.16859 -1.48289 0
M  V30 4955 O 466.601 -0.192018 -1.81487 0
M  V30 4956 C 466.652 -3.52756 -0.79026 0
M  V30 4957 O 466.373 -4.36913 0.322213 0
M  V30 4958 C 467.874 -4.18161 -1.4716 0
M  V30 4959 H 465.094 -0.667135 -0.0719173 0
M  V30 4960 H 467.638 -1.99981 0.427529 0
M  V30 4961 H 465.793 -3.57511 -1.49213 0
M  V30 4962 H 466.207 -5.24486 -0.0387372 0
M  V30 4963 H 467.681 -5.23562 -1.7489 0
M  V30 4964 H 468.158 -3.67282 -2.40834 0
M  V30 4965 H 468.764 -4.17454 -0.813178 0
M  V30 4966 N 467.08 -0.0183926 -1.57589 0
M  V30 4967 C 468.329 0.66185 -1.90532 0
M  V30 4968 C 468.642 1.73904 -0.895366 0
M  V30 4969 O 469.848 2.47518 -1.11566 0
M  V30 4970 C 468.304 1.22844 -3.38286 0
M  V30 4971 C 467.912 0.185103 -4.47617 0
M  V30 4972 C 469.656 1.88581 -3.80312 0
M  V30 4973 C 467.563 0.762723 -5.86461 0
M  V30 4974 H 466.493 0.250972 -0.711006 0
M  V30 4975 H 469.144 -0.0819435 -1.83317 0
M  V30 4976 H 467.526 2.0235 -3.40398 0
M  V30 4977 H 468.7 -0.58671 -4.5705 0
M  V30 4978 H 467.015 -0.372889 -4.14727 0
M  V30 4979 H 469.612 2.32735 -4.81392 0
M  V30 4980 H 469.955 2.72408 -3.14801 0
M  V30 4981 H 470.488 1.15782 -3.80578 0
M  V30 4982 H 467.227 -0.0371713 -6.55489 0
M  V30 4983 H 466.747 1.50327 -5.80656 0
M  V30 4984 H 468.426 1.25576 -6.34697 0
M  V30 4985 N 468.558 1.5553 0.254621 0
M  V30 4986 C 469.488 1.9268 1.31897 0
M  V30 4987 C 470.469 0.790797 1.506 0
M  V30 4988 O 471.654 1.05045 1.63337 0
M  V30 4989 C 468.784 2.21477 2.67517 0
M  V30 4990 C 467.738 3.37256 2.63519 0
M  V30 4991 C 467.064 3.51576 4.02862 0
M  V30 4992 C 468.364 4.73157 2.21179 0
M  V30 4993 H 470.058 2.81832 1.01051 0
M  V30 4994 H 467.604 1.35599 0.484662 0
M  V30 4995 H 469.557 2.46055 3.42104 0
M  V30 4996 H 468.281 1.29144 2.99982 0
M  V30 4997 H 466.94 3.12675 1.9139 0
M  V30 4998 H 466.588 2.56676 4.32581 0
M  V30 4999 H 466.288 4.2943 4.01078 0
M  V30 5000 H 467.812 3.78467 4.79161 0
M  V30 5001 H 469.226 4.97158 2.85494 0
M  V30 5002 H 467.623 5.54058 2.30521 0
M  V30 5003 H 468.693 4.70739 1.16332 0
M  V30 5004 N 470.036 -0.519951 1.48776 0
M  V30 5005 C 471.313 -1.28123 1.47797 0
M  V30 5006 C 471.693 -2.10196 0.195157 0
M  V30 5007 O 471.041 -2.13167 -0.822925 0
M  V30 5008 C 471.251 -2.15413 2.74587 0
M  V30 5009 C 472.599 -2.75225 3.23321 0
M  V30 5010 O 473.623 -2.25694 2.75574 0
M  V30 5011 O 472.482 -3.65346 4.06429 0
M  V30 5012 H 469.576 -0.578793 0.590701 0
M  V30 5013 H 472.122 -0.535779 1.6102 0
M  V30 5014 H 470.894 -1.54617 3.59457 0
M  V30 5015 H 470.517 -2.97186 2.64132 0
M  V30 5016 N 471.514 -1.37532 -0.769588 0
M  V30 5017 C 472.742 -1.36059 -1.55871 0
M  V30 5018 C 473.157 0.053544 -1.88724 0
M  V30 5019 O 472.514 1.01591 -1.5161 0
M  V30 5020 C 472.565 -2.20107 -2.86767 0
M  V30 5021 O 472.286 -3.56009 -2.55321 0
M  V30 5022 C 473.787 -2.26636 -3.80987 0
M  V30 5023 H 471.007 -0.465967 -0.482821 0
M  V30 5024 H 473.551 -1.80901 -0.953686 0
M  V30 5025 H 471.706 -1.78768 -3.43687 0
M  V30 5026 H 472.12 -4.0009 -3.39158 0
M  V30 5027 H 473.594 -2.89763 -4.69831 0
M  V30 5028 H 474.071 -1.2754 -4.20274 0
M  V30 5029 H 474.677 -2.68296 -3.29996 0
M  V30 5030 N 472.992 0.995999 -1.22138 0
M  V30 5031 C 473.922 2.10387 -1.01289 0
M  V30 5032 C 474.903 1.69975 0.0651454 0
M  V30 5033 O 476.088 1.9396 -0.0964628 0
M  V30 5034 C 473.218 3.42312 -0.586517 0
M  V30 5035 C 472.172 3.96558 -1.61014 0
M  V30 5036 C 471.498 5.24494 -1.0397 0
M  V30 5037 C 472.798 4.27595 -2.99933 0
M  V30 5038 H 474.492 2.28086 -1.93951 0
M  V30 5039 H 472.038 1.09607 -0.933928 0
M  V30 5040 H 473.991 4.19223 -0.427793 0
M  V30 5041 H 472.715 3.24431 0.375761 0
M  V30 5042 H 471.374 3.21776 -1.75658 0
M  V30 5043 H 471.022 5.02953 -0.0688703 0
M  V30 5044 H 470.722 5.61755 -1.72352 0
M  V30 5045 H 472.246 6.04042 -0.892494 0
M  V30 5046 H 473.66 4.95315 -2.8868 0
M  V30 5047 H 472.057 4.76021 -3.6541 0
M  V30 5048 H 473.127 3.35498 -3.50099 0
M  V30 5049 N 474.47 1.03057 1.19235 0
M  V30 5050 C 475.718 0.726581 1.88587 0
M  V30 5051 C 476.039 -0.747227 1.80115 0
M  V30 5052 O 475.309 -1.53849 1.21274 0
M  V30 5053 H 473.889 0.265768 0.698124 0
M  V30 5054 H 476.551 1.30516 1.44746 0
M  V30 5055 H 475.647 1.0224 2.94879 0
M  V30 5056 N 475.948 -1.35272 0.808662 0
M  V30 5057 C 476.858 -2.33546 0.222079 0
M  V30 5058 C 477.874 -1.6196 -0.636011 0
M  V30 5059 O 479.05 -1.93822 -0.547274 0
M  V30 5060 C 476.115 -3.41148 -0.61795 0
M  V30 5061 C 475.176 -4.28507 0.260875 0
M  V30 5062 C 474.409 -5.3097 -0.539156 0
M  V30 5063 O 474.632 -5.42123 -1.77367 0
M  V30 5064 O 473.566 -6.01858 0.0710526 0
M  V30 5065 H 477.392 -2.85515 1.03512 0
M  V30 5066 H 474.977 -1.38079 0.570495 0
M  V30 5067 H 476.859 -4.06889 -1.09634 0
M  V30 5068 H 475.534 -2.91447 -1.40855 0
M  V30 5069 H 474.441 -3.6574 0.786451 0
M  V30 5070 H 475.774 -4.81611 1.01547 0
M  V30 5071 N 477.426 -0.562348 -1.47226 0
M  V30 5072 C 478.374 0.195476 -2.31777 0
M  V30 5073 C 479.368 0.90433 -1.43242 0
M  V30 5074 O 480.574 0.825031 -1.59979 0
M  V30 5075 H 476.949 0.0819095 -0.747526 0
M  V30 5076 H 478.92 -0.536753 -2.93533 0
M  V30 5077 C 477.669 1.20902 -3.26003 0
M  V30 5078 H 476.992 0.672997 -3.94095 0
M  V30 5079 H 478.432 1.71006 -3.87986 0
M  V30 5080 C 476.891 2.25955 -2.49891 0
M  V30 5081 O 477.421 3.32969 -2.2471 0
M  V30 5082 N 475.627 2.00019 -2.1081 0
M  V30 5083 H 475.174 1.13006 -2.31489 0
M  V30 5084 H 475.132 2.70523 -1.60201 0
M  V30 5085 N 478.904 1.54736 -0.299062 0
M  V30 5086 C 480.181 1.92187 0.363802 0
M  V30 5087 C 480.561 1.22607 1.71845 0
M  V30 5088 O 479.909 0.361141 2.25628 0
M  V30 5089 C 480.119 3.45678 0.480377 0
M  V30 5090 C 481.467 4.17885 0.752147 0
M  V30 5091 O 482.491 3.51702 0.564264 0
M  V30 5092 O 481.35 5.35048 1.11294 0
M  V30 5093 H 478.444 0.801681 0.203066 0
M  V30 5094 H 480.99 1.66115 -0.346978 0
M  V30 5095 H 479.762 3.88443 -0.471999 0
M  V30 5096 H 479.385 3.77779 1.2397 0
M  V30 5097 N 480.382 0.0267497 1.57577 0
M  V30 5098 C 481.629 -0.652404 1.91703 0
M  V30 5099 C 481.957 -1.72271 0.902936 0
M  V30 5100 O 481.212 -1.955 -0.0884843 0
M  V30 5101 C 481.511 -1.30914 3.3256 0
M  V30 5102 C 481.177 -0.369441 4.49384 0
M  V30 5103 C 479.839 -0.110791 4.81072 0
M  V30 5104 C 482.191 0.275971 5.20469 0
M  V30 5105 C 479.519 0.801116 5.81205 0
M  V30 5106 C 481.871 1.17592 6.21575 0
M  V30 5107 C 480.535 1.44348 6.51705 0
M  V30 5108 H 479.805 -0.238732 0.70149 0
M  V30 5109 H 482.452 0.0880091 1.91298 0
M  V30 5110 H 480.757 -2.12425 3.29216 0
M  V30 5111 H 482.454 -1.84115 3.56234 0
M  V30 5112 H 479.044 -0.581211 4.24641 0
M  V30 5113 H 483.228 0.0892 4.9622 0
M  V30 5114 H 478.484 1.01614 6.02897 0
M  V30 5115 H 482.658 1.68223 6.75777 0
M  V30 5116 H 480.285 2.15176 7.29111 0
M  V30 5117 N 481.861 -1.55662 -0.24637 0
M  V30 5118 C 483.11 -1.7672 -0.972254 0
M  V30 5119 C 483.423 -0.59078 -1.86465 0
M  V30 5120 O 484.629 -0.684391 -2.62732 0
M  V30 5121 C 483.085 -3.12869 -1.7788 0
M  V30 5122 C 482.693 -4.38161 -0.933768 0
M  V30 5123 C 484.437 -3.43265 -2.49738 0
M  V30 5124 C 482.344 -5.6534 -1.73623 0
M  V30 5125 H 481.274 -0.658795 -0.366749 0
M  V30 5126 H 483.925 -1.82092 -0.226902 0
M  V30 5127 H 482.307 -3.01606 -2.56612 0
M  V30 5128 H 483.481 -4.60413 -0.188736 0
M  V30 5129 H 481.796 -4.15102 -0.328488 0
M  V30 5130 H 484.393 -4.35501 -3.10231 0
M  V30 5131 H 484.736 -2.64614 -3.2138 0
M  V30 5132 H 485.269 -3.55746 -1.78016 0
M  V30 5133 H 482.008 -6.46814 -1.06354 0
M  V30 5134 H 481.528 -5.47188 -2.45653 0
M  V30 5135 H 483.207 -6.04616 -2.30323 0
M  V30 5136 N 483.339 0.512053 -1.4905 0
M  V30 5137 C 484.287 1.63568 -1.65373 0
M  V30 5138 C 485.281 1.61228 -0.519806 0
M  V30 5139 O 486.487 1.65869 -0.699101 0
M  V30 5140 H 482.862 0.542019 -0.521267 0
M  V30 5141 H 484.833 1.4695 -2.59708 0
M  V30 5142 C 483.582 3.01761 -1.7273 0
M  V30 5143 H 482.905 3.04263 -2.59353 0
M  V30 5144 H 484.345 3.79948 -1.8819 0
M  V30 5145 C 482.804 3.33609 -0.46973 0
M  V30 5146 O 483.334 3.99607 0.409492 0
M  V30 5147 N 481.54 2.88651 -0.336003 0
M  V30 5148 H 481.087 2.35119 -1.05247 0
M  V30 5149 H 481.045 3.10328 0.504363 0
M  V30 5150 N 484.817 1.37938 0.762283 0
M  V30 5151 C 486.066 1.32989 1.51647 0
M  V30 5152 C 486.379 -0.0802922 1.95435 0
M  V30 5153 O 487.585 -0.252295 2.70325 0
M  V30 5154 C 486.041 2.33485 2.73885 0
M  V30 5155 C 485.649 3.80079 2.37157 0
M  V30 5156 C 487.393 2.37563 3.51801 0
M  V30 5157 C 485.3 4.72283 3.55954 0
M  V30 5158 H 484.23 0.494301 0.56937 0
M  V30 5159 H 486.881 1.63448 0.834083 0
M  V30 5160 H 485.263 1.96056 3.44061 0
M  V30 5161 H 486.437 4.26398 1.74704 0
M  V30 5162 H 484.752 3.79037 1.72395 0
M  V30 5163 H 487.349 3.0365 4.40114 0
M  V30 5164 H 487.692 1.39199 3.92338 0
M  V30 5165 H 488.225 2.73747 2.8863 0
M  V30 5166 H 484.964 5.7181 3.2049 0
M  V30 5167 H 484.484 4.30663 4.1748 0
M  V30 5168 H 486.163 4.89876 4.22647 0
M  V30 5169 N 486.295 -0.989507 1.22664 0
M  V30 5170 C 487.544 -1.72375 1.04737 0
M  V30 5171 C 487.857 -1.91096 -0.417316 0
M  V30 5172 O 489.063 -2.6188 -0.716334 0
M  V30 5173 C 487.519 -3.10161 1.82561 0
M  V30 5174 C 487.127 -2.99358 3.333 0
M  V30 5175 C 488.871 -3.87607 1.73093 0
M  V30 5176 C 486.778 -4.32319 4.03552 0
M  V30 5177 H 485.708 -0.646326 0.388302 0
M  V30 5178 H 488.359 -1.10437 1.46546 0
M  V30 5179 H 486.741 -3.728 1.33552 0
M  V30 5180 H 487.915 -2.45863 3.89728 0
M  V30 5181 H 486.23 -2.35392 3.43481 0
M  V30 5182 H 488.827 -4.86025 2.22899 0
M  V30 5183 H 489.17 -4.10509 0.691976 0
M  V30 5184 H 489.703 -3.31652 2.19663 0
M  V30 5185 H 486.442 -4.14616 5.07714 0
M  V30 5186 H 485.962 -4.85714 3.51911 0
M  V30 5187 H 487.641 -5.01051 4.09337 0
M  V30 5188 N 487.773 -1.03688 -1.18687 0
M  V30 5189 C 488.736 -0.629115 -2.20397 0
M  V30 5190 C 489.736 0.311495 -1.57754 0
M  V30 5191 O 490.926 0.0974107 -1.73927 0
M  V30 5192 C 488.058 0.0782231 -3.4081 0
M  V30 5193 H 489.251 -1.52915 -2.57987 0
M  V30 5194 H 486.804 -0.828988 -1.32505 0
M  V30 5195 H 487.539 0.992233 -3.08748 0
M  V30 5196 H 487.324 -0.597776 -3.87517 0
M  V30 5197 H 488.814 0.350156 -4.16129 0
M  V30 5198 N 489.251 1.34841 -0.815825 0
M  V30 5199 C 490.481 2.02436 -0.412695 0
M  V30 5200 C 490.889 1.61604 0.983906 0
M  V30 5201 O 490.232 0.813729 1.64694 0
M  V30 5202 C 490.294 3.56953 -0.427182 0
M  V30 5203 C 489.958 4.21083 -1.77589 0
M  V30 5204 C 490.955 4.42107 -2.73564 0
M  V30 5205 C 488.64 4.58006 -2.06243 0
M  V30 5206 C 490.634 4.99169 -3.9637 0
M  V30 5207 C 488.321 5.1478 -3.2931 0
M  V30 5208 C 489.319 5.35304 -4.24191 0
M  V30 5209 O 489.007 5.90878 -5.45086 0
M  V30 5210 H 488.739 0.655631 -0.164695 0
M  V30 5211 H 491.293 1.73246 -1.1034 0
M  V30 5212 H 489.523 3.85372 0.320175 0
M  V30 5213 H 491.212 4.05875 -0.0450875 0
M  V30 5214 H 491.978 4.13953 -2.52721 0
M  V30 5215 H 487.857 4.41339 -1.33196 0
M  V30 5216 H 491.401 5.15105 -4.70439 0
M  V30 5217 H 487.298 5.42362 -3.5002 0
M  V30 5218 H 488.066 6.0932 -5.46508 0
M  V30 5219 N 490.729 0.570148 1.46925 0
M  V30 5220 C 491.677 -0.183181 2.31878 0
M  V30 5221 C 492.671 -0.896721 1.43719 0
M  V30 5222 O 493.877 -0.816536 1.60414 0
M  V30 5223 H 490.252 -0.077944 0.74795 0
M  V30 5224 H 492.223 0.552312 2.93244 0
M  V30 5225 C 490.972 -1.19172 3.2664 0
M  V30 5226 H 490.295 -0.652088 3.94446 0
M  V30 5227 H 491.735 -1.68946 3.88887 0
M  V30 5228 C 490.194 -2.24627 2.51086 0
M  V30 5229 O 490.724 -3.31773 2.26472 0
M  V30 5230 N 488.93 -1.98898 2.11867 0
M  V30 5231 H 488.477 -1.11777 2.32086 0
M  V30 5232 H 488.435 -2.6967 1.61634 0
M  V30 5233 N 492.207 -1.54576 0.307264 0
M  V30 5234 C 493.484 -1.92377 -0.353605 0
M  V30 5235 C 493.864 -1.23517 -1.71192 0
M  V30 5236 O 493.212 -0.373101 -2.25433 0
M  V30 5237 C 493.422 -3.45928 -0.462039 0
M  V30 5238 C 494.77 -4.18278 -0.729975 0
M  V30 5239 O 495.794 -3.51997 -0.545605 0
M  V30 5240 O 494.653 -5.3563 -1.08454 0
M  V30 5241 H 491.747 -0.802747 -0.198812 0
M  V30 5242 H 494.293 -1.65929 0.355783 0
M  V30 5243 H 493.065 -3.88187 0.492592 0
M  V30 5244 H 492.688 -3.78431 -1.21965 0
M  V30 5245 N 493.685 -0.035106 -1.57561 0
M  V30 5246 C 494.915 0.651312 -1.96065 0
M  V30 5247 C 495.323 1.6585 -0.910514 0
M  V30 5248 O 494.666 1.83336 0.11552 0
M  V30 5249 C 494.728 1.40897 -3.30739 0
M  V30 5250 C 494.392 0.559436 -4.53563 0
M  V30 5251 C 495.389 -0.16778 -5.19629 0
M  V30 5252 C 493.074 0.495079 -4.99854 0
M  V30 5253 C 495.068 -0.947963 -6.30311 0
M  V30 5254 C 492.755 -0.288804 -6.10417 0
M  V30 5255 C 493.753 -1.00903 -6.75505 0
M  V30 5256 O 493.441 -1.78005 -7.83945 0
M  V30 5257 H 493.173 0.184036 -0.650467 0
M  V30 5258 H 495.727 -0.0929677 -2.05189 0
M  V30 5259 H 493.957 2.19852 -3.18123 0
M  V30 5260 H 495.646 1.98407 -3.54104 0
M  V30 5261 H 496.412 -0.12743 -4.84833 0
M  V30 5262 H 492.291 1.04524 -4.48994 0
M  V30 5263 H 495.835 -1.51064 -6.81047 0
M  V30 5264 H 491.732 -0.33085 -6.44652 0
M  V30 5265 H 492.5 -1.70046 -8.00641 0
M  V30 5266 N 495.163 1.55791 0.238111 0
M  V30 5267 C 496.409 1.78297 0.966337 0
M  V30 5268 C 496.742 0.601903 1.84637 0
M  V30 5269 O 496.017 -0.399499 1.90353 0
M  V30 5270 C 496.3 3.10758 1.81939 0
M  V30 5271 C 496.153 4.39283 0.966958 0
M  V30 5272 C 497.472 3.39519 2.80027 0
M  V30 5273 H 494.591 0.648654 0.349882 0
M  V30 5274 H 497.233 1.88525 0.236253 0
M  V30 5275 H 495.383 3.02168 2.44185 0
M  V30 5276 H 497.055 4.59873 0.362514 0
M  V30 5277 H 495.298 4.32948 0.271669 0
M  V30 5278 H 495.969 5.28368 1.59784 0
M  V30 5279 H 498.445 3.48128 2.27917 0
M  V30 5280 H 497.321 4.33402 3.36829 0
M  V30 5281 H 497.582 2.60864 3.56934 0
M  V30 5282 N 496.642 -0.504142 1.49319 0
M  V30 5283 C 497.592 -1.60284 1.62151 0
M  V30 5284 C 498.576 -1.53657 0.477315 0
M  V30 5285 O 499.768 -1.6124 0.730108 0
M  V30 5286 C 496.897 -2.98909 1.68844 0
M  V30 5287 C 495.983 -3.10544 2.8883 0
M  V30 5288 N 496.374 -2.92078 4.12946 0
M  V30 5289 C 494.672 -3.4164 2.86702 0
M  V30 5290 C 495.373 -3.07812 4.93585 0
M  V30 5291 N 494.349 -3.36549 4.26891 0
M  V30 5292 H 498.151 -1.44656 2.55835 0
M  V30 5293 H 495.665 -0.710198 1.46048 0
M  V30 5294 H 497.662 -3.77865 1.76134 0
M  V30 5295 H 496.322 -3.15609 0.762943 0
M  V30 5296 H 497.333 -2.68316 4.42975 0
M  V30 5297 H 494.01 -3.64537 2.03517 0
M  V30 5298 H 495.4 -2.98054 6.02174 0
M  V30 5299 N 498.12 -1.38341 -0.754957 0
M  V30 5300 C 499.35 -1.37504 -1.54195 0
M  V30 5301 C 499.758 0.0373787 -1.89163 0
M  V30 5302 O 499.101 1.01402 -1.53178 0
M  V30 5303 C 499.163 -2.16488 -2.87008 0
M  V30 5304 C 498.827 -3.65311 -2.74585 0
M  V30 5305 C 499.824 -4.58834 -2.44474 0
M  V30 5306 C 497.509 -4.08649 -2.9208 0
M  V30 5307 C 499.503 -5.93675 -2.32011 0
M  V30 5308 C 497.19 -5.43571 -2.79237 0
M  V30 5309 C 498.188 -6.35898 -2.49245 0
M  V30 5310 O 497.876 -7.68338 -2.36458 0
M  V30 5311 H 497.608 -0.472159 -0.483779 0
M  V30 5312 H 500.162 -1.82515 -0.94221 0
M  V30 5313 H 498.392 -1.66194 -3.49166 0
M  V30 5314 H 500.081 -2.08076 -3.4851 0
M  V30 5315 H 500.847 -4.26657 -2.30627 0
M  V30 5316 H 496.726 -3.37134 -3.14422 0
M  V30 5317 H 500.27 -6.65706 -2.08522 0
M  V30 5318 H 496.167 -5.75345 -2.92657 0
M  V30 5319 H 496.935 -7.78845 -2.5168 0
M  V30 5320 N 499.598 0.982988 -1.23187 0
M  V30 5321 C 500.847 1.71817 -1.05649 0
M  V30 5322 C 501.16 1.91315 0.407176 0
M  V30 5323 O 502.366 2.62256 0.702436 0
M  V30 5324 C 500.822 3.09188 -1.84203 0
M  V30 5325 C 500.43 2.97586 -3.34882 0
M  V30 5326 C 502.174 3.86684 -1.75146 0
M  V30 5327 C 500.081 4.30173 -4.05839 0
M  V30 5328 H 499.011 0.644258 -0.391724 0
M  V30 5329 H 501.662 1.09659 -1.4713 0
M  V30 5330 H 500.044 3.72087 -1.35527 0
M  V30 5331 H 501.218 2.43793 -3.91026 0
M  V30 5332 H 499.533 2.33567 -3.44725 0
M  V30 5333 H 502.13 4.84836 -2.25473 0
M  V30 5334 H 502.473 4.10136 -0.713737 0
M  V30 5335 H 503.006 3.30482 -2.21419 0
M  V30 5336 H 499.745 4.11918 -5.09906 0
M  V30 5337 H 499.265 4.83841 -3.54482 0
M  V30 5338 H 500.944 4.98873 -4.11989 0
M  V30 5339 N 501.076 1.04316 1.18135 0
M  V30 5340 C 501.986 0.646876 2.25505 0
M  V30 5341 C 503.002 -0.328008 1.7088 0
M  V30 5342 O 504.178 -0.182309 2.00573 0
M  V30 5343 C 501.243 0.0185664 3.46695 0
M  V30 5344 C 500.304 1.04277 4.16443 0
M  V30 5345 C 499.537 0.444352 5.31847 0
M  V30 5346 O 499.76 -0.748735 5.65465 0
M  V30 5347 O 498.694 1.17428 5.90334 0
M  V30 5348 H 502.52 1.54147 2.61672 0
M  V30 5349 H 500.105 0.814188 1.25265 0
M  V30 5350 H 501.987 -0.331068 4.20097 0
M  V30 5351 H 500.662 -0.849814 3.12346 0
M  V30 5352 H 499.569 1.44425 3.45098 0
M  V30 5353 H 500.902 1.882 4.54798 0
M  V30 5354 N 502.554 -1.34406 0.822964 0
M  V30 5355 C 503.965 -1.8069 0.469879 0
M  V30 5356 C 504.316 -1.68223 -1.00972 0
M  V30 5357 O 503.441 -1.22226 -1.78577 0
M  V30 5358 C 504.036 -3.28064 0.846118 0
M  V30 5359 C 502.595 -3.72428 0.545402 0
M  V30 5360 C 501.742 -2.56116 1.06301 0
M  V30 5361 H 504.693 -1.22153 1.01313 0
M  V30 5362 H 504.714 -3.80205 0.149922 0
M  V30 5363 H 504.226 -3.37107 1.92304 0
M  V30 5364 H 502.327 -3.68924 -0.522109 0
M  V30 5365 H 502.44 -4.66548 1.0895 0
M  V30 5366 H 500.804 -2.50048 0.484554 0
M  V30 5367 H 501.587 -2.67928 2.14638 0
M  V30 5368 N 504.032 -0.577932 -1.46621 0
M  V30 5369 C 505.272 -0.0643097 -2.04299 0
M  V30 5370 C 505.636 1.26967 -1.44026 0
M  V30 5371 O 506.837 1.87224 -1.92875 0
M  V30 5372 C 505.108 0.00547588 -3.574 0
M  V30 5373 S 506.667 0.462216 -4.36359 0
M  V30 5374 H 503.485 -0.0351573 -0.71013 0
M  V30 5375 H 506.087 -0.76935 -1.79725 0
M  V30 5376 H 504.791 -0.969423 -3.98786 0
M  V30 5377 H 504.322 0.733435 -3.86503 0
M  V30 5378 H 506.337 1.71791 -4.65513 0
M  V30 5379 N 505.51 1.54411 -0.315457 0
M  V30 5380 C 506.757 2.00419 0.289543 0
M  V30 5381 C 507.085 1.20373 1.52776 0
M  V30 5382 O 506.34 0.271769 1.93804 0
M  V30 5383 C 506.639 3.50936 0.676652 0
M  V30 5384 C 506.305 4.48532 -0.461472 0
M  V30 5385 C 504.967 4.74936 -0.773879 0
M  V30 5386 C 507.319 5.06567 -1.22637 0
M  V30 5387 C 504.647 5.56634 -1.85405 0
M  V30 5388 C 506.999 5.89441 -2.29657 0
M  V30 5389 C 505.663 6.1415 -2.61488 0
M  V30 5390 H 504.933 0.733386 0.105951 0
M  V30 5391 H 507.58 1.86434 -0.437554 0
M  V30 5392 H 505.885 3.62606 1.48405 0
M  V30 5393 H 507.582 3.83971 1.15618 0
M  V30 5394 H 504.172 4.28096 -0.207893 0
M  V30 5395 H 508.356 4.86157 -0.998271 0
M  V30 5396 H 503.612 5.74012 -2.10523 0
M  V30 5397 H 507.786 6.33432 -2.89374 0
M  V30 5398 H 505.413 6.77245 -3.45317 0
M  V30 5399 N 506.988 0.0434614 1.5754 0
M  V30 5400 C 507.935 -0.93356 2.11077 0
M  V30 5401 C 508.905 -1.31383 1.01626 0
M  V30 5402 O 510.09 -1.40465 1.29129 0
M  V30 5403 C 507.23 -2.20578 2.65404 0
M  V30 5404 C 506.343 -1.88068 3.88914 0
M  V30 5405 C 505.478 -3.09691 4.31584 0
M  V30 5406 C 504.517 -2.73067 5.47815 0
M  V30 5407 N 503.654 -3.87359 5.85574 0
M  V30 5408 H 508.494 -0.470118 2.94268 0
M  V30 5409 H 506.031 -0.220434 1.45439 0
M  V30 5410 H 507.989 -2.95011 2.94999 0
M  V30 5411 H 506.619 -2.64513 1.85021 0
M  V30 5412 H 505.671 -1.03816 3.6596 0
M  V30 5413 H 506.983 -1.57104 4.73413 0
M  V30 5414 H 506.137 -3.92431 4.62691 0
M  V30 5415 H 504.876 -3.43827 3.45882 0
M  V30 5416 H 503.881 -1.88742 5.16388 0
M  V30 5417 H 505.106 -2.40131 6.35227 0
M  V30 5418 H 503.052 -4.21311 5.02825 0
M  V30 5419 H 502.969 -3.60068 6.64746 0
M  V30 5420 H 504.237 -4.70761 6.21292 0
M  V30 5421 N 508.466 -1.55915 -0.229846 0
M  V30 5422 C 509.714 -1.7819 -0.953565 0
M  V30 5423 C 510.035 -0.610504 -1.85197 0
M  V30 5424 O 509.305 0.372988 -1.92316 0
M  V30 5425 H 507.885 -0.657208 -0.355087 0
M  V30 5426 H 510.547 -1.9337 -0.243693 0
M  V30 5427 H 509.643 -2.70011 -1.56527 0
M  V30 5428 N 509.944 0.496216 -1.49584 0
M  V30 5429 C 511.193 1.24668 -1.58558 0
M  V30 5430 C 511.506 1.9359 -0.279703 0
M  V30 5431 O 512.712 2.70365 -0.248048 0
M  V30 5432 C 511.168 2.26388 -2.79779 0
M  V30 5433 C 510.776 1.63384 -4.17145 0
M  V30 5434 C 512.52 3.02233 -2.98086 0
M  V30 5435 C 510.427 2.63243 -5.29582 0
M  V30 5436 H 509.357 0.468995 -0.590389 0
M  V30 5437 H 512.008 0.519985 -1.75978 0
M  V30 5438 H 510.39 3.02241 -2.55863 0
M  V30 5439 H 511.564 0.93491 -4.51216 0
M  V30 5440 H 509.879 0.999121 -4.04236 0
M  V30 5441 H 512.476 3.76919 -3.79257 0
M  V30 5442 H 512.819 3.60132 -2.08831 0
M  V30 5443 H 513.352 2.33495 -3.22063 0
M  V30 5444 H 510.091 2.10119 -6.20911 0
M  V30 5445 H 509.611 3.31363 -4.99959 0
M  V30 5446 H 511.29 3.25575 -5.59115 0
M  V30 5447 N 511.423 1.38739 0.74761 0
M  V30 5448 C 512.353 1.39173 1.87492 0
M  V30 5449 C 513.334 0.256794 1.6815 0
M  V30 5450 O 514.519 0.460762 1.88655 0
M  V30 5451 C 511.649 1.22197 3.25093 0
M  V30 5452 C 510.603 2.32957 3.59047 0
M  V30 5453 C 509.929 2.01082 4.95449 0
M  V30 5454 C 511.229 3.75237 3.6331 0
M  V30 5455 H 512.923 2.3351 1.87386 0
M  V30 5456 H 510.469 1.12399 0.900134 0
M  V30 5457 H 512.422 1.21124 4.03617 0
M  V30 5458 H 511.146 0.243241 3.25693 0
M  V30 5459 H 509.805 2.33226 2.82845 0
M  V30 5460 H 509.453 1.01678 4.92616 0
M  V30 5461 H 509.153 2.75267 5.19136 0
M  V30 5462 H 510.677 2.01638 5.76346 0
M  V30 5463 H 512.091 3.76966 4.31937 0
M  V30 5464 H 510.488 4.48677 3.98509 0
M  V30 5465 H 511.558 4.07122 2.634 0
M  V30 5466 N 512.901 -0.976442 1.23707 0
M  V30 5467 C 514.147 -1.72081 1.07312 0
M  V30 5468 C 514.48 -1.90275 -0.388476 0
M  V30 5469 O 513.755 -1.4579 -1.28746 0
M  V30 5470 C 514.038 -3.11675 1.80363 0
M  V30 5471 C 513.891 -3.01027 3.3422 0
M  V30 5472 C 515.21 -4.1117 1.5693 0
M  V30 5473 H 512.329 -0.624583 0.391236 0
M  V30 5474 H 514.971 -1.13649 1.52263 0
M  V30 5475 H 513.121 -3.61559 1.42153 0
M  V30 5476 H 514.793 -2.58637 3.81975 0
M  V30 5477 H 513.036 -2.3744 3.63049 0
M  V30 5478 H 513.707 -3.9988 3.80525 0
M  V30 5479 H 516.183 -3.7011 1.90151 0
M  V30 5480 H 515.059 -5.06928 2.10513 0
M  V30 5481 H 515.32 -4.392 0.505548 0
M  V30 5482 N 514.379 -1.04941 -1.1758 0
M  V30 5483 C 515.311 -0.606174 -2.21039 0
M  V30 5484 C 516.324 0.328763 -1.59446 0
M  V30 5485 O 517.513 0.121895 -1.78083 0
M  V30 5486 C 514.613 0.133294 -3.38638 0
M  V30 5487 C 513.786 -0.811711 -4.29802 0
M  V30 5488 C 512.845 -0.113958 -5.26077 0
M  V30 5489 O 511.871 -0.747237 -5.64274 0
M  V30 5490 N 513.073 1.14953 -5.69004 0
M  V30 5491 H 515.838 -1.49606 -2.59689 0
M  V30 5492 H 513.399 -0.930997 -1.32454 0
M  V30 5493 H 515.391 0.610144 -4.00074 0
M  V30 5494 H 513.961 0.924816 -2.98607 0
M  V30 5495 H 513.181 -1.46824 -3.65837 0
M  V30 5496 H 514.469 -1.45326 -4.87604 0
M  V30 5497 H 513.867 1.68441 -5.40041 0
M  V30 5498 H 512.424 1.57049 -6.32597 0
M  V30 5499 N 515.857 1.33968 -0.830081 0
M  V30 5500 C 516.82 2.27694 -0.26235 0
M  V30 5501 C 517.82 1.50589 0.563876 0
M  V30 5502 O 519.01 1.70028 0.378941 0
M  V30 5503 C 516.142 3.35002 0.63138 0
M  V30 5504 H 517.335 2.79419 -1.08928 0
M  V30 5505 H 514.888 1.44221 -0.602486 0
M  V30 5506 H 515.623 2.88504 1.48109 0
M  V30 5507 H 515.408 3.92079 0.0403276 0
M  V30 5508 H 516.898 4.04897 1.02217 0
M  V30 5509 N 517.335 0.585699 1.46312 0
M  V30 5510 C 518.612 0.00542031 1.95599 0
M  V30 5511 C 518.992 -1.45619 1.52834 0
M  V30 5512 O 518.34 -2.14759 0.780446 0
M  V30 5513 C 518.55 0.180601 3.48532 0
M  V30 5514 C 519.898 0.049979 4.24571 0
M  V30 5515 O 520.922 0.109589 3.56031 0
M  V30 5516 O 519.781 -0.0832226 5.46437 0
M  V30 5517 H 516.875 -0.0481281 0.825598 0
M  V30 5518 H 519.421 0.654227 1.56582 0
M  V30 5519 H 518.193 1.19657 3.72556 0
M  V30 5520 H 517.816 -0.504498 3.94386 0
M  V30 5521 N 518.813 -1.54241 0.323641 0
M  V30 5522 C 520.229 -1.59574 -0.0290018 0
M  V30 5523 C 520.429 -1.34017 -1.50472 0
M  V30 5524 O 519.485 -1.12464 -2.26071 0
M  V30 5525 C 520.798 -2.98169 0.389295 0
M  V30 5526 C 522.346 -3.11148 0.339958 0
M  V30 5527 C 522.821 -4.5209 0.733418 0
M  V30 5528 N 524.312 -4.5808 0.686827 0
M  V30 5529 C 525.047 -5.65248 0.963464 0
M  V30 5530 N 524.543 -6.80355 1.30724 0
M  V30 5531 N 526.336 -5.55025 0.88902 0
M  V30 5532 H 518.487 -1.6911 1.28512 0
M  V30 5533 H 520.75 -0.790972 0.522558 0
M  V30 5534 H 520.456 -3.21871 1.41746 0
M  V30 5535 H 520.33 -3.76399 -0.245657 0
M  V30 5536 H 522.717 -2.87182 -0.679002 0
M  V30 5537 H 522.798 -2.35023 1.00985 0
M  V30 5538 H 522.442 -4.76788 1.75029 0
M  V30 5539 H 522.372 -5.26584 0.0412189 0
M  V30 5540 H 524.863 -3.75411 0.43298 0
M  V30 5541 H 525.176 -7.58029 1.5037 0
M  V30 5542 H 523.521 -6.81851 1.3455 0
M  V30 5543 H 526.712 -4.63977 0.619939 0
M  V30 5544 H 526.885 -6.38458 1.10797 0
M  V30 5545 N 520.291 -0.0518155 -1.57515 0
M  V30 5546 C 521.568 0.661727 -1.84067 0
M  V30 5547 C 521.948 1.88999 -0.940351 0
M  V30 5548 O 521.296 2.285 -0.00155404 0
M  V30 5549 C 521.506 1.01841 -3.3381 0
M  V30 5550 C 522.854 1.40043 -4.00841 0
M  V30 5551 O 523.878 1.11073 -3.38439 0
M  V30 5552 O 522.737 1.94111 -5.10865 0
M  V30 5553 H 519.831 0.326702 -0.759733 0
M  V30 5554 H 522.377 -0.0812277 -1.69505 0
M  V30 5555 H 521.149 0.145202 -3.91031 0
M  V30 5556 H 520.772 1.81879 -3.53562 0
M  V30 5557 N 521.769 1.56035 0.221574 0
M  V30 5558 C 522.717 1.93269 1.29421 0
M  V30 5559 C 523.711 0.814727 1.48521 0
M  V30 5560 O 524.917 0.999559 1.49696 0
M  V30 5561 H 521.292 0.614188 0.43391 0
M  V30 5562 H 523.263 2.82773 0.952987 0
M  V30 5563 C 522.012 2.26573 2.63742 0
M  V30 5564 H 521.335 3.12112 2.49853 0
M  V30 5565 H 522.775 2.5651 3.37607 0
M  V30 5566 C 521.234 1.09086 3.1875 0
M  V30 5567 O 521.764 0.351985 4.00155 0
M  V30 5568 N 519.97 0.874693 2.77124 0
M  V30 5569 H 519.517 1.47726 2.11033 0
M  V30 5570 H 519.475 0.0903349 3.1427 0
M  V30 5571 N 523.247 -0.488276 1.49845 0
M  V30 5572 C 524.663 -0.820566 1.3689 0
M  V30 5573 C 524.863 -1.97248 0.411752 0
M  V30 5574 O 523.919 -2.52042 -0.151931 0
M  V30 5575 C 525.232 -1.1488 2.77891 0
M  V30 5576 C 526.78 -1.25626 2.86683 0
M  V30 5577 C 527.255 -1.61772 4.28479 0
M  V30 5578 N 528.746 -1.68797 4.31349 0
M  V30 5579 C 529.481 -1.98235 5.38043 0
M  V30 5580 N 528.977 -2.2581 6.54967 0
M  V30 5581 N 530.77 -1.99593 5.2547 0
M  V30 5582 H 522.921 0.271123 2.10662 0
M  V30 5583 H 525.184 0.058735 0.946179 0
M  V30 5584 H 524.89 -0.375614 3.49688 0
M  V30 5585 H 524.764 -2.08919 3.14058 0
M  V30 5586 H 527.151 -2.02014 2.15114 0
M  V30 5587 H 527.232 -0.296072 2.54081 0
M  V30 5588 H 526.876 -0.859295 5.00578 0
M  V30 5589 H 526.806 -2.58912 4.58554 0
M  V30 5590 H 529.297 -1.49595 3.4703 0
M  V30 5591 H 529.61 -2.47497 7.32096 0
M  V30 5592 H 527.955 -2.23239 6.58171 0
M  V30 5593 H 531.146 -1.77535 4.33127 0
M  V30 5594 H 531.319 -2.222 6.08713 0
M  V30 5595 N 524.725 -1.39134 -0.740242 0
M  V30 5596 C 525.635 -1.39697 -1.88473 0
M  V30 5597 C 526.651 -0.292403 -1.71526 0
M  V30 5598 O 527.827 -0.533021 -1.94219 0
M  V30 5599 C 524.892 -1.23382 -3.24003 0
M  V30 5600 C 523.953 -2.43763 -3.53381 0
M  V30 5601 C 523.186 -2.28216 -4.82445 0
M  V30 5602 O 523.409 -1.28288 -5.55786 0
M  V30 5603 O 522.343 -3.1709 -5.11603 0
M  V30 5604 H 526.169 -2.36159 -1.90952 0
M  V30 5605 H 523.754 -1.20194 -0.887346 0
M  V30 5606 H 525.636 -1.16395 -4.05006 0
M  V30 5607 H 524.311 -0.300121 -3.22306 0
M  V30 5608 H 523.218 -2.56325 -2.72485 0
M  V30 5609 H 524.551 -3.35808 -3.59852 0
M  V30 5610 N 526.204 0.969867 -1.24223 0
M  V30 5611 C 527.154 2.04913 -0.999732 0
M  V30 5612 C 528.138 1.60795 0.0580636 0
M  V30 5613 O 529.33 1.76317 -0.155392 0
M  V30 5614 C 526.459 3.37942 -0.604154 0
M  V30 5615 C 525.545 3.88628 -1.69791 0
M  V30 5616 N 525.936 4.12274 -2.93025 0
M  V30 5617 C 524.234 4.17268 -1.57492 0
M  V30 5618 C 524.935 4.53808 -3.63914 0
M  V30 5619 N 523.911 4.58855 -2.91468 0
M  V30 5620 H 527.713 2.21168 -1.93551 0
M  V30 5621 H 525.227 1.15349 -1.14317 0
M  V30 5622 H 527.224 4.14863 -0.411665 0
M  V30 5623 H 525.884 3.23075 0.324465 0
M  V30 5624 H 526.895 3.99789 -3.29225 0
M  V30 5625 H 523.572 4.11346 -0.714175 0
M  V30 5626 H 524.962 4.80534 -4.69614 0
M  V30 5627 N 527.682 1.05563 1.17022 0
M  V30 5628 C 528.929 0.767937 1.87374 0
M  V30 5629 C 529.257 -0.705224 1.81265 0
M  V30 5630 O 528.512 -1.5318 1.21796 0
M  V30 5631 C 528.811 1.19849 3.36706 0
M  V30 5632 C 528.477 2.6745 3.63017 0
M  V30 5633 C 527.139 3.0777 3.69907 0
M  V30 5634 C 529.491 3.62811 3.74189 0
M  V30 5635 C 526.819 4.42307 3.85463 0
M  V30 5636 C 529.171 4.97087 3.91264 0
M  V30 5637 C 527.835 5.37055 3.96394 0
M  V30 5638 H 527.105 0.281008 0.68565 0
M  V30 5639 H 529.752 1.32339 1.38415 0
M  V30 5640 H 528.057 0.562096 3.87747 0
M  V30 5641 H 529.754 0.953038 3.8951 0
M  V30 5642 H 526.344 2.35228 3.58282 0
M  V30 5643 H 530.528 3.32798 3.68183 0
M  V30 5644 H 525.784 4.72769 3.87684 0
M  V30 5645 H 529.958 5.70869 3.9885 0
M  V30 5646 H 527.585 6.41308 4.082 0
M  V30 5647 N 529.16 -1.33526 0.837174 0
M  V30 5648 C 530.107 -2.29248 0.267169 0
M  V30 5649 C 531.077 -1.54252 -0.616071 0
M  V30 5650 O 532.262 -1.82559 -0.554699 0
M  V30 5651 C 529.402 -3.40638 -0.553152 0
M  V30 5652 C 528.515 -4.30548 0.353921 0
M  V30 5653 C 527.65 -5.29051 -0.477339 0
M  V30 5654 C 526.689 -6.106 0.42823 0
M  V30 5655 N 525.826 -7.01152 -0.364801 0
M  V30 5656 H 530.666 -2.77398 1.08877 0
M  V30 5657 H 528.203 -1.36496 0.54838 0
M  V30 5658 H 530.161 -4.03921 -1.04422 0
M  V30 5659 H 528.791 -2.93685 -1.33973 0
M  V30 5660 H 527.843 -3.68001 0.963289 0
M  V30 5661 H 529.155 -4.87631 1.04964 0
M  V30 5662 H 528.309 -5.97853 -1.0323 0
M  V30 5663 H 527.048 -4.72541 -1.2065 0
M  V30 5664 H 526.053 -5.40718 0.995219 0
M  V30 5665 H 527.278 -6.69193 1.15573 0
M  V30 5666 H 525.224 -6.47092 -1.07738 0
M  V30 5667 H 525.141 -7.5551 0.272238 0
M  V30 5668 H 526.409 -7.74263 -0.902054 0
M  V30 5669 N 530.638 -0.59345 -1.46 0
M  V30 5670 C 531.568 0.121192 -2.33185 0
M  V30 5671 C 532.549 0.872977 -1.4599 0
M  V30 5672 O 533.734 0.846321 -1.74789 0
M  V30 5673 C 530.864 1.12844 -3.28456 0
M  V30 5674 C 529.818 0.4908 -4.25177 0
M  V30 5675 C 529.144 1.60529 -5.10034 0
M  V30 5676 C 530.444 -0.578949 -5.19081 0
M  V30 5677 H 532.138 -0.606767 -2.93187 0
M  V30 5678 H 529.684 -0.293242 -1.40983 0
M  V30 5679 H 531.637 1.63684 -3.88311 0
M  V30 5680 H 530.361 1.88681 -2.66584 0
M  V30 5681 H 529.02 0.00339328 -3.666 0
M  V30 5682 H 528.668 2.35359 -4.44539 0
M  V30 5683 H 528.368 1.18422 -5.75543 0
M  V30 5684 H 529.892 2.11623 -5.72755 0
M  V30 5685 H 531.306 -0.155199 -5.7309 0
M  V30 5686 H 529.703 -0.920947 -5.92991 0
M  V30 5687 H 530.773 -1.46109 -4.62364 0
M  V30 5688 N 532.116 1.54067 -0.331816 0
M  V30 5689 C 533.046 2.27569 0.522932 0
M  V30 5690 C 534.027 1.28679 1.11247 0
M  V30 5691 O 535.212 1.57504 1.13605 0
M  V30 5692 C 532.342 3.0397 1.67987 0
M  V30 5693 C 531.296 4.10267 1.21924 0
M  V30 5694 C 530.622 4.74555 2.46377 0
M  V30 5695 C 531.922 5.21268 0.32815 0
M  V30 5696 H 533.616 2.99264 -0.0901977 0
M  V30 5697 H 531.162 1.4393 -0.044821 0
M  V30 5698 H 533.115 3.54123 2.28418 0
M  V30 5699 H 531.839 2.29906 2.31971 0
M  V30 5700 H 530.498 3.61009 0.637809 0
M  V30 5701 H 530.146 3.97098 3.08743 0
M  V30 5702 H 529.846 5.46363 2.16243 0
M  V30 5703 H 531.37 5.27487 3.07555 0
M  V30 5704 H 532.784 5.67128 0.838978 0
M  V30 5705 H 531.181 5.99982 0.119228 0
M  V30 5706 H 532.251 4.80673 -0.638839 0
M  V30 5707 N 533.594 0.0601682 1.57485 0
M  V30 5708 C 534.84 -0.612501 1.93329 0
M  V30 5709 C 535.173 -1.6996 0.939526 0
M  V30 5710 O 534.448 -1.94472 -0.0330957 0
M  V30 5711 C 534.731 -1.20025 3.39508 0
M  V30 5712 C 534.584 -0.12059 4.49638 0
M  V30 5713 C 535.903 -2.10923 3.86264 0
M  V30 5714 H 533.022 -0.221185 0.703027 0
M  V30 5715 H 535.664 0.123768 1.89596 0
M  V30 5716 H 533.814 -1.82774 3.42821 0
M  V30 5717 H 535.486 0.51185 4.58452 0
M  V30 5718 H 533.729 0.550251 4.30296 0
M  V30 5719 H 534.4 -0.572019 5.49028 0
M  V30 5720 H 536.876 -1.58124 3.84884 0
M  V30 5721 H 535.752 -2.48987 4.8918 0
M  V30 5722 H 536.013 -3.01292 3.23536 0
M  V30 5723 N 535.072 -1.5615 -0.213296 0
M  V30 5724 C 535.982 -1.96265 -1.28519 0
M  V30 5725 C 536.998 -0.86765 -1.50824 0
M  V30 5726 O 538.174 -1.17191 -1.63793 0
M  V30 5727 C 535.239 -2.27836 -2.61327 0
M  V30 5728 C 534.3 -3.50949 -2.47252 0
M  V30 5729 C 533.533 -3.81004 -3.73727 0
M  V30 5730 O 533.756 -3.12612 -4.77106 0
M  V30 5731 O 532.69 -4.74477 -3.70344 0
M  V30 5732 H 536.516 -2.87631 -0.974795 0
M  V30 5733 H 534.101 -1.43467 -0.416832 0
M  V30 5734 H 535.983 -2.49299 -3.39747 0
M  V30 5735 H 534.658 -1.39643 -2.9203 0
M  V30 5736 H 533.565 -3.34754 -1.67004 0
M  V30 5737 H 534.898 -4.39551 -2.21486 0
M  V30 5738 N 536.55 0.480323 -1.50102 0
M  V30 5739 C 537.46 1.60547 -1.71061 0
M  V30 5740 C 538.476 1.63564 -0.593529 0
M  V30 5741 O 539.652 1.81604 -0.870751 0
M  V30 5742 C 536.717 2.96814 -1.79171 0
M  V30 5743 C 535.778 3.04259 -3.02861 0
M  V30 5744 C 535.011 4.34027 -3.10574 0
M  V30 5745 O 535.234 5.24009 -2.25323 0
M  V30 5746 O 534.168 4.46873 -4.03223 0
M  V30 5747 H 537.994 1.45788 -2.6642 0
M  V30 5748 H 535.579 0.658838 -1.34088 0
M  V30 5749 H 537.461 3.77765 -1.86738 0
M  V30 5750 H 536.136 3.11791 -0.869947 0
M  V30 5751 H 535.043 2.22419 -3.008 0
M  V30 5752 H 536.376 2.94216 -3.94586 0
M  V30 5753 N 538.028 1.39524 0.732853 0
M  V30 5754 C 538.958 1.41153 1.86005 0
M  V30 5755 C 539.939 0.274614 1.67869 0
M  V30 5756 O 541.124 0.480745 1.88155 0
M  V30 5757 C 538.254 1.25638 3.23778 0
M  V30 5758 C 537.208 2.36752 3.56556 0
M  V30 5759 C 536.534 2.06326 4.93289 0
M  V30 5760 C 537.834 3.79069 3.5931 0
M  V30 5761 H 539.528 2.35484 1.84899 0
M  V30 5762 H 537.074 1.13348 0.888162 0
M  V30 5763 H 539.027 1.25398 4.0231 0
M  V30 5764 H 537.751 0.277772 3.25417 0
M  V30 5765 H 536.41 2.36213 2.80355 0
M  V30 5766 H 536.058 1.06897 4.9151 0
M  V30 5767 H 535.758 2.80757 5.16187 0
M  V30 5768 H 537.282 2.07739 5.74175 0
M  V30 5769 H 538.696 3.81526 4.27914 0
M  V30 5770 H 537.093 4.52878 3.93728 0
M  V30 5771 H 538.163 4.09893 2.59068 0
M  V30 5772 N 539.506 -0.963266 1.24736 0
M  V30 5773 C 540.439 -2.05758 0.986852 0
M  V30 5774 C 541.417 -1.62398 -0.0809272 0
M  V30 5775 O 542.601 -1.88414 0.0569347 0
M  V30 5776 C 539.728 -3.35135 0.490095 0
M  V30 5777 C 538.774 -3.97451 1.54709 0
M  V30 5778 S 539.607 -4.34519 3.12976 0
M  V30 5779 C 540.763 -5.67026 2.65014 0
M  V30 5780 H 540.996 -2.27539 1.91346 0
M  V30 5781 H 538.529 -1.10176 1.08169 0
M  V30 5782 H 540.487 -4.09962 0.21012 0
M  V30 5783 H 539.148 -3.11335 -0.415873 0
M  V30 5784 H 538.341 -4.90704 1.15003 0
M  V30 5785 H 537.943 -3.29071 1.77731 0
M  V30 5786 H 540.235 -6.44748 2.08102 0
M  V30 5787 H 541.178 -6.11594 3.56873 0
M  V30 5788 H 541.586 -5.25847 2.05294 0
M  V30 5789 N 540.985 -1.06182 -1.16461 0
M  V30 5790 C 542.231 -0.779015 -1.87241 0
M  V30 5791 C 542.564 0.692715 -1.81425 0
M  V30 5792 O 541.839 1.5074 -1.22913 0
M  V30 5793 C 542.122 -1.2728 -3.36856 0
M  V30 5794 C 541.975 -2.80821 -3.51368 0
M  V30 5795 C 543.294 -0.879799 -4.31216 0
M  V30 5796 H 540.413 -0.284464 -0.679889 0
M  V30 5797 H 543.055 -1.31755 -1.36896 0
M  V30 5798 H 541.205 -0.814673 -3.79862 0
M  V30 5799 H 542.877 -3.34833 -3.17308 0
M  V30 5800 H 541.12 -3.19606 -2.93316 0
M  V30 5801 H 541.791 -3.10435 -4.56436 0
M  V30 5802 H 544.267 -1.27436 -3.96105 0
M  V30 5803 H 543.143 -1.25278 -5.34412 0
M  V30 5804 H 543.404 0.215372 -4.41575 0
M  V30 5805 N 542.463 1.3308 -0.844243 0
M  V30 5806 C 543.41 2.29104 -0.279323 0
M  V30 5807 C 544.38 1.54577 0.607882 0
M  V30 5808 O 545.565 1.8285 0.545009 0
M  V30 5809 C 542.705 3.40927 0.53508 0
M  V30 5810 C 541.818 4.30354 -0.376749 0
M  V30 5811 C 540.953 5.29297 0.449276 0
M  V30 5812 C 539.992 6.10365 -0.460606 0
M  V30 5813 N 539.129 7.01335 0.327612 0
M  V30 5814 H 543.969 2.76817 -1.10346 0
M  V30 5815 H 541.506 1.36203 -0.555611 0
M  V30 5816 H 543.464 4.04469 1.02278 0
M  V30 5817 H 542.094 2.94391 1.32414 0
M  V30 5818 H 541.146 3.67485 -0.982791 0
M  V30 5819 H 542.458 4.87067 -1.07549 0
M  V30 5820 H 541.612 5.98392 1.00058 0
M  V30 5821 H 540.351 4.73174 1.18143 0
M  V30 5822 H 539.356 5.40182 -1.02388 0
M  V30 5823 H 540.581 6.68571 -1.1912 0
M  V30 5824 H 538.527 6.47655 1.04305 0
M  V30 5825 H 538.444 7.55355 -0.3123 0
M  V30 5826 H 539.712 7.74731 0.86098 0
M  V30 5827 N 543.941 0.601185 1.45683 0
M  V30 5828 C 545.189 0.0936957 2.01883 0
M  V30 5829 C 545.51 -1.2779 1.47291 0
M  V30 5830 O 544.78 -1.84279 0.664691 0
M  V30 5831 H 543.36 0.0316466 0.746329 0
M  V30 5832 H 546.022 0.781137 1.78562 0
M  V30 5833 H 545.118 0.0386297 3.12076 0
M  V30 5834 N 545.419 -1.53889 0.339982 0
M  V30 5835 C 546.665 -2.01152 -0.258003 0
M  V30 5836 C 546.998 -1.22749 -1.50487 0
M  V30 5837 O 546.273 -0.314156 -1.91946 0
M  V30 5838 C 546.556 -3.55468 -0.575717 0
M  V30 5839 C 546.409 -4.44584 0.682996 0
M  V30 5840 C 547.728 -4.1768 -1.38677 0
M  V30 5841 H 544.847 -0.731198 -0.0922992 0
M  V30 5842 H 547.489 -1.84352 0.459814 0
M  V30 5843 H 545.639 -3.69914 -1.18725 0
M  V30 5844 H 547.311 -4.41981 1.32102 0
M  V30 5845 H 545.554 -4.13592 1.3086 0
M  V30 5846 H 546.225 -5.5043 0.416001 0
M  V30 5847 H 548.701 -4.0691 -0.869705 0
M  V30 5848 H 547.577 -5.25734 -1.57783 0
M  V30 5849 H 547.838 -3.72069 -2.38782 0
M  V30 5850 N 546.897 -0.0685191 -1.57451 0
M  V30 5851 C 548.145 0.60016 -1.92983 0
M  V30 5852 C 548.466 1.70348 -0.949028 0
M  V30 5853 O 547.736 1.959 0.00335647 0
M  V30 5854 H 546.316 0.224682 -0.712409 0
M  V30 5855 H 548.978 -0.125605 -1.94495 0
M  V30 5856 H 548.074 1.02759 -2.94698 0
M  V30 5857 N 548.375 1.56261 0.205012 0
M  V30 5858 C 549.621 1.80306 0.9283 0
M  V30 5859 C 549.954 0.640932 1.83319 0
M  V30 5860 O 549.229 -0.359032 1.91158 0
M  V30 5861 C 549.512 3.14547 1.75306 0
M  V30 5862 C 549.365 4.41236 0.873562 0
M  V30 5863 C 550.684 3.45382 2.72762 0
M  V30 5864 H 547.803 0.655929 0.336044 0
M  V30 5865 H 550.445 1.88984 0.196211 0
M  V30 5866 H 548.595 3.0728 2.37721 0
M  V30 5867 H 550.267 4.60539 0.264887 0
M  V30 5868 H 548.51 4.33427 0.179773 0
M  V30 5869 H 549.181 5.31639 1.48541 0
M  V30 5870 H 551.657 3.52884 2.20481 0
M  V30 5871 H 550.533 4.40449 3.2756 0
M  V30 5872 H 550.794 2.68377 3.51321 0
M  V30 5873 N 549.853 -0.472356 1.50355 0
M  V30 5874 C 551.099 -1.22634 1.6152 0
M  V30 5875 C 551.432 -1.91645 0.313995 0
M  V30 5876 O 550.707 -1.82059 -0.684446 0
M  V30 5877 C 550.99 -2.27099 2.7946 0
M  V30 5878 C 550.843 -1.62402 4.19459 0
M  V30 5879 C 552.162 -3.28421 2.92964 0
M  V30 5880 H 549.281 -0.444494 0.587873 0
M  V30 5881 H 551.923 -0.520321 1.82737 0
M  V30 5882 H 550.073 -2.87314 2.61501 0
M  V30 5883 H 551.745 -1.05793 4.49005 0
M  V30 5884 H 549.988 -0.927184 4.23776 0
M  V30 5885 H 550.659 -2.38309 4.97909 0
M  V30 5886 H 553.135 -2.78227 3.09401 0
M  V30 5887 H 552.011 -3.98845 3.77113 0
M  V30 5888 H 552.272 -3.92467 2.03525 0
M  V30 5889 N 551.331 -1.39911 -0.725443 0
M  V30 5890 C 552.608 -1.28158 -1.47766 0
M  V30 5891 C 552.988 0.104545 -2.10841 0
M  V30 5892 O 552.336 1.11657 -1.99361 0
M  V30 5893 C 552.546 -2.41306 -2.52135 0
M  V30 5894 C 553.894 -2.81076 -3.18247 0
M  V30 5895 O 554.918 -2.40827 -2.62452 0
M  V30 5896 O 553.777 -3.50581 -4.19231 0
M  V30 5897 H 550.871 -0.502761 -0.656628 0
M  V30 5898 H 553.417 -1.51808 -0.758456 0
M  V30 5899 H 552.189 -3.33932 -2.03974 0
M  V30 5900 H 551.812 -2.19374 -3.31603 0
M  V30 5901 N 552.809 0.956637 -1.25245 0
M  V30 5902 C 553.741 2.05628 -1.01242 0
M  V30 5903 C 554.754 1.62785 0.0219579 0
M  V30 5904 O 555.943 1.77184 -0.216365 0
M  V30 5905 C 553.043 3.35069 -0.508161 0
M  V30 5906 C 552.216 4.06761 -1.60823 0
M  V30 5907 C 551.275 5.14473 -1.1047 0
M  V30 5908 O 550.301 5.40033 -1.79868 0
M  V30 5909 N 551.503 5.80474 0.0550773 0
M  V30 5910 H 554.268 2.2679 -1.95925 0
M  V30 5911 H 551.829 1.12505 -1.16423 0
M  V30 5912 H 553.821 4.044 -0.155819 0
M  V30 5913 H 552.391 3.10694 0.344683 0
M  V30 5914 H 551.611 3.31555 -2.13224 0
M  V30 5915 H 552.899 4.51418 -2.34733 0
M  V30 5916 H 552.297 5.62125 0.635004 0
M  V30 5917 H 550.854 6.50868 0.348469 0
M  V30 5918 N 554.287 1.06798 1.15896 0
M  V30 5919 C 555.25 0.687328 2.18651 0
M  V30 5920 C 556.25 -0.269559 1.58524 0
M  V30 5921 O 557.44 -0.0512627 1.74125 0
M  V30 5922 C 554.572 0.0121642 3.40898 0
M  V30 5923 H 555.765 1.59701 2.53842 0
M  V30 5924 H 553.318 0.863828 1.3026 0
M  V30 5925 H 554.053 -0.910025 3.1127 0
M  V30 5926 H 553.838 0.700309 3.85795 0
M  V30 5927 H 555.328 -0.239703 4.16911 0
M  V30 5928 N 555.766 -1.3263 0.851289 0
M  V30 5929 C 556.696 -2.31449 0.308771 0
M  V30 5930 C 557.677 -1.59531 -0.590255 0
M  V30 5931 O 558.862 -1.87351 -0.511205 0
M  V30 5932 C 555.992 -3.43586 -0.506548 0
M  V30 5933 C 554.946 -4.26963 0.297753 0
M  V30 5934 C 554.272 -5.30831 -0.642094 0
M  V30 5935 C 555.572 -4.99643 1.52166 0
M  V30 5936 H 557.266 -2.77074 1.13447 0
M  V30 5937 H 554.812 -1.33207 0.546971 0
M  V30 5938 H 556.765 -4.11754 -0.896474 0
M  V30 5939 H 555.489 -2.96681 -1.36558 0
M  V30 5940 H 554.148 -3.60437 0.669391 0
M  V30 5941 H 553.796 -4.8018 -1.49788 0
M  V30 5942 H 553.496 -5.87501 -0.107968 0
M  V30 5943 H 555.02 -6.01862 -1.02927 0
M  V30 5944 H 556.434 -5.6051 1.20421 0
M  V30 5945 H 554.831 -5.66022 1.99347 0
M  V30 5946 H 555.901 -4.27701 2.28474 0
M  V30 5947 N 557.244 -0.608902 -1.45362 0
M  V30 5948 C 558.66 -0.272659 -1.57254 0
M  V30 5949 C 558.86 1.22477 -1.60005 0
M  V30 5950 O 557.916 2.00785 -1.53106 0
M  V30 5951 C 559.229 -0.944991 -2.85465 0
M  V30 5952 C 560.777 -0.921033 -2.99142 0
M  V30 5953 C 561.252 -1.5734 -4.30126 0
M  V30 5954 N 562.743 -1.53895 -4.36887 0
M  V30 5955 C 563.478 -2.01286 -5.36909 0
M  V30 5956 N 562.974 -2.56768 -6.43461 0
M  V30 5957 N 564.767 -1.92046 -5.28275 0
M  V30 5958 H 556.918 -1.58117 -1.4182 0
M  V30 5959 H 559.181 -0.662437 -0.678146 0
M  V30 5960 H 558.887 -1.99941 -2.89338 0
M  V30 5961 H 558.761 -0.469079 -3.74272 0
M  V30 5962 H 561.148 0.124846 -2.94836 0
M  V30 5963 H 561.229 -1.43522 -2.11743 0
M  V30 5964 H 560.873 -2.61862 -4.35191 0
M  V30 5965 H 560.803 -1.03422 -5.16344 0
M  V30 5966 H 563.294 -1.13366 -3.60495 0
M  V30 5967 H 563.607 -2.9072 -7.16032 0
M  V30 5968 H 561.952 -2.60808 -6.44208 0
M  V30 5969 H 565.143 -1.48439 -4.43941 0
M  V30 5970 H 565.316 -2.29293 -6.06077 0
M  V30 5971 N 558.722 1.53707 -0.348139 0
M  V30 5972 C 559.632 2.28881 0.514857 0
M  V30 5973 C 560.648 1.34168 1.10793 0
M  V30 5974 O 561.824 1.6721 1.12262 0
M  V30 5975 C 558.889 3.05042 1.64774 0
M  V30 5976 C 557.95 4.15389 1.08398 0
M  V30 5977 C 557.183 4.87909 2.16287 0
M  V30 5978 O 557.406 4.60137 3.3709 0
M  V30 5979 O 556.34 5.74254 1.80323 0
M  V30 5980 H 560.166 3.03547 -0.0963699 0
M  V30 5981 H 557.751 1.48972 -0.113043 0
M  V30 5982 H 559.633 3.52656 2.30677 0
M  V30 5983 H 558.308 2.33228 2.24469 0
M  V30 5984 H 557.215 3.72068 0.389341 0
M  V30 5985 H 558.548 4.89318 0.531829 0
M  V30 5986 N 560.2 0.0768682 1.57412 0
M  V30 5987 C 561.163 -0.873949 2.11884 0
M  V30 5988 C 562.163 -1.22301 1.04398 0
M  V30 5989 O 563.353 -1.15545 1.30365 0
M  V30 5990 C 560.485 -2.17575 2.62438 0
M  V30 5991 H 561.678 -0.401278 2.97203 0
M  V30 5992 H 559.231 -0.171904 1.55352 0
M  V30 5993 H 559.966 -2.69368 1.80587 0
M  V30 5994 H 559.751 -1.93534 3.41009 0
M  V30 5995 H 561.241 -2.85631 3.04639 0
M  V30 5996 N 561.678 -1.56367 -0.196722 0
M  V30 5997 C 562.925 -1.80529 -0.917366 0
M  V30 5998 C 563.253 -0.649817 -1.83324 0
M  V30 5999 O 562.508 0.36451 -1.92275 0
M  V30 6000 C 562.807 -3.10663 -1.767 0
M  V30 6001 C 562.473 -4.3962 -1.00225 0
M  V30 6002 C 561.135 -4.74653 -0.791095 0
M  V30 6003 C 563.487 -5.1913 -0.464035 0
M  V30 6004 C 560.815 -5.86692 -0.0302155 0
M  V30 6005 C 563.167 -6.31964 0.283625 0
M  V30 6006 C 561.831 -6.65581 0.505813 0
M  V30 6007 H 561.101 -0.660602 -0.335688 0
M  V30 6008 H 563.748 -1.90615 -0.183844 0
M  V30 6009 H 562.053 -2.95807 -2.56915 0
M  V30 6010 H 563.75 -3.26563 -2.32718 0
M  V30 6011 H 560.34 -4.12127 -1.17684 0
M  V30 6012 H 564.524 -4.9248 -0.614575 0
M  V30 6013 H 559.78 -6.11211 0.151917 0
M  V30 6014 H 563.954 -6.92791 0.708057 0
M  V30 6015 H 561.581 -7.52239 1.0973 0
M  V30 6016 N 563.156 0.464375 -1.50603 0
M  V30 6017 C 564.088 1.57916 -1.66118 0
M  V30 6018 C 565.101 1.53497 -0.54246 0
M  V30 6019 O 566.29 1.58763 -0.815877 0
M  V30 6020 C 563.39 2.96809 -1.63577 0
M  V30 6021 C 562.563 3.26026 -2.91592 0
M  V30 6022 C 561.622 4.44506 -2.81604 0
M  V30 6023 O 560.648 4.44484 -3.55559 0
M  V30 6024 N 561.85 5.46549 -1.95614 0
M  V30 6025 H 564.615 1.45022 -2.62276 0
M  V30 6026 H 562.176 0.652903 -1.48151 0
M  V30 6027 H 564.168 3.74048 -1.54499 0
M  V30 6028 H 562.738 3.03438 -0.751262 0
M  V30 6029 H 561.958 2.37337 -3.14746 0
M  V30 6030 H 563.246 3.42361 -3.76386 0
M  V30 6031 H 562.644 5.49391 -1.34854 0
M  V30 6032 H 561.201 6.22746 -1.92435 0
M  V30 6033 N 564.634 1.40294 0.718013 0
M  V30 6034 C 565.883 1.37746 1.4734 0
M  V30 6035 C 566.196 -0.0180754 1.95592 0
M  V30 6036 O 567.402 -0.166166 2.70991 0
M  V30 6037 C 565.858 2.4208 2.66318 0
M  V30 6038 C 565.466 3.87432 2.24945 0
M  V30 6039 C 567.21 2.48635 3.44065 0
M  V30 6040 C 565.117 4.83368 3.40748 0
M  V30 6041 H 564.047 0.512165 0.553356 0
M  V30 6042 H 566.698 1.66019 0.781661 0
M  V30 6043 H 565.08 2.06903 3.3765 0
M  V30 6044 H 566.254 4.3174 1.6105 0
M  V30 6045 H 564.569 3.8433 1.60249 0
M  V30 6046 H 567.166 3.17499 4.30231 0
M  V30 6047 H 567.509 1.51611 3.87711 0
M  V30 6048 H 568.042 2.82791 2.79775 0
M  V30 6049 H 564.781 5.81716 3.02136 0
M  V30 6050 H 564.301 4.43726 4.03568 0
M  V30 6051 H 565.98 5.03074 4.06848 0
M  V30 6052 N 566.112 -0.949982 1.2575 0
M  V30 6053 C 567.042 -2.06483 1.09028 0
M  V30 6054 C 568.023 -1.701 -0.00201532 0
M  V30 6055 O 569.208 -1.93469 0.168383 0
M  V30 6056 C 566.338 -3.39899 0.71316 0
M  V30 6057 C 565.292 -3.90309 1.75621 0
M  V30 6058 C 564.618 -5.20274 1.23365 0
M  V30 6059 C 565.918 -4.16169 3.15596 0
M  V30 6060 H 567.612 -2.20731 2.02283 0
M  V30 6061 H 565.158 -1.06066 0.973964 0
M  V30 6062 H 567.111 -4.17346 0.58309 0
M  V30 6063 H 565.835 -3.25602 -0.255091 0
M  V30 6064 H 564.494 -3.15035 1.8748 0
M  V30 6065 H 564.142 -5.02351 0.255491 0
M  V30 6066 H 563.842 -5.54971 1.93082 0
M  V30 6067 H 565.366 -6.00314 1.11607 0
M  V30 6068 H 566.78 -4.84259 3.06864 0
M  V30 6069 H 565.177 -4.62131 3.82825 0
M  V30 6070 H 566.247 -3.22273 3.6231 0
M  V30 6071 N 567.59 -1.07411 -1.15328 0
M  V30 6072 C 568.537 -0.694995 -2.20087 0
M  V30 6073 C 569.507 0.313904 -1.63107 0
M  V30 6074 O 570.692 0.200216 -1.89747 0
M  V30 6075 C 567.832 -0.0996218 -3.44956 0
M  V30 6076 C 566.945 -1.16007 -4.16133 0
M  V30 6077 C 566.08 -0.529636 -5.28553 0
M  V30 6078 C 565.119 -1.57283 -5.91548 0
M  V30 6079 N 564.256 -0.964932 -6.95438 0
M  V30 6080 H 569.096 -1.5927 -2.51867 0
M  V30 6081 H 566.633 -0.796115 -1.23695 0
M  V30 6082 H 568.591 0.263197 -4.16369 0
M  V30 6083 H 567.221 0.761435 -3.13691 0
M  V30 6084 H 566.273 -1.64045 -3.4321 0
M  V30 6085 H 567.585 -1.95101 -4.59061 0
M  V30 6086 H 566.739 -0.114487 -6.06592 0
M  V30 6087 H 565.478 0.29307 -4.86819 0
M  V30 6088 H 564.483 -1.99775 -5.12221 0
M  V30 6089 H 565.708 -2.39783 -6.35359 0
M  V30 6090 H 563.654 -0.16314 -6.55797 0
M  V30 6091 H 563.571 -1.69311 -7.36797 0
M  V30 6092 H 564.839 -0.575305 -7.77374 0
M  V30 6093 N 569.068 1.32177 -0.85831 0
M  V30 6094 C 570 2.27688 -0.262835 0
M  V30 6095 C 571.013 1.52588 0.567513 0
M  V30 6096 O 572.202 1.74156 0.391407 0
M  V30 6097 C 569.302 3.32668 0.646937 0
M  V30 6098 C 568.475 4.37148 -0.148372 0
M  V30 6099 C 567.534 5.21686 0.687728 0
M  V30 6100 O 566.56 5.69074 0.119934 0
M  V30 6101 N 567.762 5.44892 2.00182 0
M  V30 6102 H 570.527 2.79426 -1.08356 0
M  V30 6103 H 568.088 1.45076 -0.718647 0
M  V30 6104 H 570.08 3.86134 1.2117 0
M  V30 6105 H 568.65 2.81061 1.36834 0
M  V30 6106 H 567.87 3.83915 -0.894572 0
M  V30 6107 H 569.158 5.04038 -0.694514 0
M  V30 6108 H 568.556 5.08128 2.4864 0
M  V30 6109 H 567.113 6.0134 2.51463 0
M  V30 6110 N 570.547 0.616602 1.45037 0
M  V30 6111 C 571.794 0.115331 2.02171 0
M  V30 6112 C 572.122 -1.25748 1.48383 0
M  V30 6113 O 571.377 -1.84511 0.652229 0
M  V30 6114 C 571.676 0.0356829 3.57382 0
M  V30 6115 C 571.342 1.34535 4.30362 0
M  V30 6116 C 570.004 1.70408 4.50016 0
M  V30 6117 C 572.356 2.21049 4.72003 0
M  V30 6118 C 569.684 2.92529 5.0857 0
M  V30 6119 C 572.036 3.42427 5.31908 0
M  V30 6120 C 570.7 3.78541 5.49784 0
M  V30 6121 H 569.97 0.0422024 0.739797 0
M  V30 6122 H 572.617 0.80002 1.73988 0
M  V30 6123 H 570.922 -0.732314 3.84895 0
M  V30 6124 H 572.619 -0.368463 3.99304 0
M  V30 6125 H 569.209 1.05615 4.15383 0
M  V30 6126 H 573.393 1.94632 4.56544 0
M  V30 6127 H 568.649 3.20605 5.20598 0
M  V30 6128 H 572.823 4.09709 5.63127 0
M  V30 6129 H 570.45 4.73255 5.94923 0
M  V30 6130 N 572.025 -1.5352 0.356285 0
M  V30 6131 C 572.957 -2.23009 -0.529127 0
M  V30 6132 C 573.97 -1.241 -1.05371 0
M  V30 6133 O 575.159 -1.50379 -0.961679 0
M  V30 6134 C 572.259 -2.90685 -1.74229 0
M  V30 6135 C 571.432 -4.16019 -1.35081 0
M  V30 6136 C 570.491 -4.66989 -2.42502 0
M  V30 6137 O 569.517 -5.30895 -2.05279 0
M  V30 6138 N 570.719 -4.44006 -3.7395 0
M  V30 6139 H 573.484 -2.99627 0.0660501 0
M  V30 6140 H 571.045 -1.60885 0.181014 0
M  V30 6141 H 573.037 -3.21695 -2.4555 0
M  V30 6142 H 571.607 -2.17575 -2.24454 0
M  V30 6143 H 570.827 -3.91414 -0.467833 0
M  V30 6144 H 572.115 -4.9752 -1.06542 0
M  V30 6145 H 571.513 -3.92924 -4.06973 0
M  V30 6146 H 570.07 -4.7959 -4.41403 0
M  V30 6147 N 573.503 -0.0852151 -1.57369 0
M  V30 6148 C 574.413 0.891712 -2.16992 0
M  V30 6149 C 575.429 1.3174 -1.13669 0
M  V30 6150 O 576.605 1.38735 -1.45995 0
M  V30 6151 C 573.67 2.13635 -2.73059 0
M  V30 6152 C 572.731 1.7658 -3.91303 0
M  V30 6153 C 571.964 2.95111 -4.44686 0
M  V30 6154 O 572.187 4.09539 -3.97032 0
M  V30 6155 O 571.121 2.74149 -5.35841 0
M  V30 6156 H 574.947 0.414477 -3.00858 0
M  V30 6157 H 572.532 0.138598 -1.48756 0
M  V30 6158 H 574.414 2.86595 -3.08935 0
M  V30 6159 H 573.089 2.6043 -1.92244 0
M  V30 6160 H 571.996 1.00831 -3.60255 0
M  V30 6161 H 573.329 1.34557 -4.7345 0
M  V30 6162 N 574.981 1.5647 0.188427 0
M  V30 6163 C 575.944 1.9421 1.21718 0
M  V30 6164 C 576.944 0.823901 1.38089 0
M  V30 6165 O 578.134 1.09122 1.35787 0
M  V30 6166 C 575.266 2.22197 2.58537 0
M  V30 6167 H 576.459 2.86252 0.894418 0
M  V30 6168 H 574.012 1.50263 0.430211 0
M  V30 6169 H 574.747 1.32814 2.95856 0
M  V30 6170 H 574.532 3.03688 2.48025 0
M  V30 6171 H 576.022 2.52376 3.3271 0
M  V30 6172 N 576.459 -0.456382 1.50847 0
M  V30 6173 C 577.406 -1.55249 1.70782 0
M  V30 6174 C 578.376 -1.56757 0.549231 0
M  V30 6175 O 579.561 -1.74061 0.7815 0
M  V30 6176 C 576.701 -2.93118 1.82143 0
M  V30 6177 C 575.814 -3.01285 3.09598 0
M  V30 6178 C 574.949 -4.30159 3.11667 0
M  V30 6179 C 573.988 -4.32124 4.33515 0
M  V30 6180 N 573.125 -5.52492 4.3324 0
M  V30 6181 H 577.965 -1.37555 2.64353 0
M  V30 6182 H 575.502 -0.668543 1.3103 0
M  V30 6183 H 577.46 -3.73088 1.86711 0
M  V30 6184 H 576.09 -3.09413 0.919978 0
M  V30 6185 H 575.142 -2.14096 3.14431 0
M  V30 6186 H 576.454 -2.98597 3.99551 0
M  V30 6187 H 575.608 -5.18489 3.15046 0
M  V30 6188 H 574.347 -4.35477 2.1957 0
M  V30 6189 H 573.352 -3.42189 4.30333 0
M  V30 6190 H 574.577 -4.28485 5.26856 0
M  V30 6191 H 572.523 -5.58567 3.44004 0
M  V30 6192 H 572.44 -5.51605 5.16979 0
M  V30 6193 H 573.708 -6.42906 4.40786 0
M  V30 6194 N 577.937 -1.40673 -0.710563 0
M  V30 6195 C 578.869 -1.37256 -1.83558 0
M  V30 6196 C 579.882 -0.277133 -1.60424 0
M  V30 6197 O 581.071 -0.537831 -1.70205 0
M  V30 6198 C 578.171 -1.1144 -3.20054 0
M  V30 6199 C 577.344 -2.32734 -3.70342 0
M  V30 6200 C 576.403 -2.03002 -4.85465 0
M  V30 6201 O 575.429 -2.75912 -4.97857 0
M  V30 6202 N 576.631 -1.01105 -5.71627 0
M  V30 6203 H 579.396 -2.34215 -1.86985 0
M  V30 6204 H 576.957 -1.35091 -0.892301 0
M  V30 6205 H 578.949 -0.895265 -3.94673 0
M  V30 6206 H 577.519 -0.231307 -3.11743 0
M  V30 6207 H 576.739 -2.70446 -2.86798 0
M  V30 6208 H 578.027 -3.13584 -4.00678 0
M  V30 6209 H 577.425 -0.407303 -5.64232 0
M  V30 6210 H 575.982 -0.85182 -6.4621 0
M  V30 6211 N 579.415 0.9433 -1.26252 0
M  V30 6212 C 580.663 1.68592 -1.11451 0
M  V30 6213 C 580.984 1.91957 0.343123 0
M  V30 6214 O 580.254 1.51475 1.24226 0
M  V30 6215 H 578.834 0.624789 -0.409448 0
M  V30 6216 H 581.496 1.13351 -1.58548 0
M  V30 6217 H 580.592 2.66054 -1.63162 0
M  V30 6218 N 580.893 1.08022 1.14757 0
M  V30 6219 C 582.118 0.82895 1.90114 0
M  V30 6220 C 582.543 -0.612772 1.77839 0
M  V30 6221 O 581.901 -1.42895 1.11583 0
M  V30 6222 C 581.949 1.25062 3.38219 0
M  V30 6223 O 581.053 0.400119 4.10454 0
M  V30 6224 H 580.394 0.301412 0.591648 0
M  V30 6225 H 582.924 1.44062 1.45284 0
M  V30 6226 H 582.934 1.22977 3.89025 0
M  V30 6227 H 581.609 2.30067 3.46471 0
M  V30 6228 H 580.186 0.484052 3.69745 0
M  V30 6229 N 582.371 -1.3172 0.865308 0
M  V30 6230 C 583.301 -2.31109 0.333302 0
M  V30 6231 C 584.282 -1.60148 -0.573301 0
M  V30 6232 O 585.467 -1.87882 -0.491305 0
M  V30 6233 C 582.597 -3.44104 -0.470078 0
M  V30 6234 C 581.551 -4.26623 0.343021 0
M  V30 6235 C 580.877 -5.31482 -0.585756 0
M  V30 6236 C 582.177 -4.98001 1.57456 0
M  V30 6237 H 583.871 -2.75855 1.1638 0
M  V30 6238 H 581.417 -1.3262 0.561069 0
M  V30 6239 H 583.37 -4.12682 -0.852752 0
M  V30 6240 H 582.094 -2.98112 -1.33404 0
M  V30 6241 H 580.753 -3.59707 0.707583 0
M  V30 6242 H 580.401 -4.81741 -1.44686 0
M  V30 6243 H 580.101 -5.87582 -0.0456494 0
M  V30 6244 H 581.625 -6.0292 -0.965375 0
M  V30 6245 H 583.039 -5.59201 1.26359 0
M  V30 6246 H 581.436 -5.63876 2.05339 0
M  V30 6247 H 582.506 -4.25253 2.32997 0
M  V30 6248 N 583.85 -0.624285 -1.44708 0
M  V30 6249 C 585.09 -0.129273 -2.03991 0
M  V30 6250 C 585.454 1.22321 -1.47992 0
M  V30 6251 O 586.654 1.80993 -1.98734 0
M  V30 6252 C 584.926 -0.108231 -3.57236 0
M  V30 6253 S 586.485 0.323158 -4.37608 0
M  V30 6254 H 583.303 -0.0577318 -0.708652 0
M  V30 6255 H 585.904 -0.826139 -1.77187 0
M  V30 6256 H 584.609 -1.0958 -3.955 0
M  V30 6257 H 584.139 0.610101 -3.8864 0
M  V30 6258 H 586.154 1.56894 -4.70743 0
M  V30 6259 N 585.328 1.53329 -0.364422 0
M  V30 6260 C 586.276 2.27212 0.497737 0
M  V30 6261 C 587.27 1.30146 1.08437 0
M  V30 6262 O 588.476 1.47778 1.0277 0
M  V30 6263 H 584.851 0.730329 0.179232 0
M  V30 6264 H 586.822 2.98037 -0.147182 0
M  V30 6265 C 585.571 3.07333 1.6261 0
M  V30 6266 H 584.894 3.81866 1.184 0
M  V30 6267 H 586.334 3.62209 2.20409 0
M  V30 6268 C 584.793 2.18102 2.56775 0
M  V30 6269 O 585.323 1.79104 3.59562 0
M  V30 6270 N 583.529 1.82759 2.25937 0
M  V30 6271 H 583.076 2.14671 1.42387 0
M  V30 6272 H 583.034 1.23342 2.89196 0
M  V30 6273 N 586.806 0.0935595 1.57322 0
M  V30 6274 C 587.738 -0.895923 2.10964 0
M  V30 6275 C 588.751 -1.24705 1.04654 0
M  V30 6276 O 589.94 -1.20044 1.32105 0
M  V30 6277 C 587.04 -2.20546 2.57318 0
M  V30 6278 C 586.213 -2.0299 3.87445 0
M  V30 6279 C 585.272 -3.17443 4.19662 0
M  V30 6280 O 584.298 -2.91474 4.88909 0
M  V30 6281 N 585.5 -4.43168 3.74943 0
M  V30 6282 H 588.265 -0.437788 2.96485 0
M  V30 6283 H 585.826 -0.0915863 1.61641 0
M  V30 6284 H 587.818 -2.9606 2.75917 0
M  V30 6285 H 586.388 -2.57789 1.76816 0
M  V30 6286 H 585.608 -1.11815 3.78009 0
M  V30 6287 H 586.896 -1.88535 4.7258 0
M  V30 6288 H 586.294 -4.67149 3.19043 0
M  V30 6289 H 584.851 -5.15637 3.987 0
M  V30 6290 N 588.284 -1.56567 -0.180126 0
M  V30 6291 C 589.247 -1.94852 -1.20686 0
M  V30 6292 C 590.247 -0.831212 -1.3765 0
M  V30 6293 O 591.437 -1.09841 -1.35206 0
M  V30 6294 C 588.569 -2.23565 -2.57355 0
M  V30 6295 H 589.762 -2.86722 -0.879225 0
M  V30 6296 H 587.315 -1.50489 -0.422237 0
M  V30 6297 H 588.05 -1.34381 -2.95148 0
M  V30 6298 H 587.835 -3.04999 -2.46411 0
M  V30 6299 H 589.325 -2.54137 -3.31367 0
M  V30 6300 N 589.762 0.448376 -1.51087 0
M  V30 6301 C 591.011 1.19561 -1.62444 0
M  V30 6302 C 591.324 1.92602 -0.341151 0
M  V30 6303 O 592.53 2.69439 -0.333936 0
M  V30 6304 C 590.986 2.17373 -2.8684 0
M  V30 6305 C 590.594 1.5003 -4.22131 0
M  V30 6306 C 592.338 2.92597 -3.0755 0
M  V30 6307 C 590.245 2.46262 -5.37689 0
M  V30 6308 H 589.175 0.449975 -0.605011 0
M  V30 6309 H 591.826 0.463735 -1.77544 0
M  V30 6310 H 590.208 2.93948 -2.65349 0
M  V30 6311 H 591.382 0.790886 -4.53962 0
M  V30 6312 H 589.697 0.870011 -4.0721 0
M  V30 6313 H 592.294 3.64663 -3.91056 0
M  V30 6314 H 592.637 3.53306 -2.20183 0
M  V30 6315 H 593.17 2.23131 -3.29329 0
M  V30 6316 H 589.909 1.90258 -6.27281 0
M  V30 6317 H 589.429 3.15289 -5.10248 0
M  V30 6318 H 591.108 3.07623 -5.6919 0
M  V30 6319 N 591.24 1.41047 0.703093 0
M  V30 6320 C 592.173 1.36713 1.82715 0
M  V30 6321 C 593.151 0.235533 1.60885 0
M  V30 6322 O 594.335 0.421227 1.83733 0
M  V30 6323 C 591.462 1.13069 3.1927 0
M  V30 6324 C 590.508 2.28846 3.59905 0
M  V30 6325 S 591.341 3.91297 3.65578 0
M  V30 6326 C 592.497 3.69941 5.04871 0
M  V30 6327 H 592.73 2.31838 1.86114 0
M  V30 6328 H 590.263 1.27481 0.871083 0
M  V30 6329 H 592.221 1.00113 3.98105 0
M  V30 6330 H 590.882 0.195763 3.13489 0
M  V30 6331 H 590.075 2.07977 4.59088 0
M  V30 6332 H 589.677 2.3817 2.88359 0
M  V30 6333 H 591.969 3.29181 5.92154 0
M  V30 6334 H 592.912 4.68699 5.30779 0
M  V30 6335 H 593.32 3.03369 4.76054 0
M  V30 6336 N 592.718 -0.936591 1.26751 0
M  V30 6337 C 593.648 -2.05315 1.11212 0
M  V30 6338 C 594.629 -1.70092 0.0160262 0
M  V30 6339 O 595.814 -1.93279 0.188894 0
M  V30 6340 C 592.944 -3.39123 0.749171 0
M  V30 6341 C 591.898 -3.88425 1.79751 0
M  V30 6342 C 591.224 -5.18936 1.28876 0
M  V30 6343 C 592.524 -4.12798 3.19992 0
M  V30 6344 H 594.218 -2.18573 2.04613 0
M  V30 6345 H 591.764 -1.05027 0.985159 0
M  V30 6346 H 593.717 -4.16704 0.627323 0
M  V30 6347 H 592.441 -3.25855 -0.220543 0
M  V30 6348 H 591.1 -3.13028 1.90811 0
M  V30 6349 H 590.748 -5.02051 0.308757 0
M  V30 6350 H 590.448 -5.52892 1.98958 0
M  V30 6351 H 591.972 -5.99096 1.17967 0
M  V30 6352 H 593.386 -4.80977 3.11983 0
M  V30 6353 H 591.783 -4.58044 3.87705 0
M  V30 6354 H 592.853 -3.18412 3.65707 0
M  V30 6355 N 594.196 -1.08629 -1.14182 0
M  V30 6356 C 595.445 -0.812271 -1.84621 0
M  V30 6357 C 595.758 0.664313 -1.83973 0
M  V30 6358 O 596.964 1.05357 -2.50224 0
M  V30 6359 C 595.42 -1.4031 -3.31423 0
M  V30 6360 C 595.028 -2.91164 -3.40481 0
M  V30 6361 C 596.772 -1.20767 -4.06959 0
M  V30 6362 C 594.679 -3.43373 -4.81507 0
M  V30 6363 H 593.609 -0.30019 -0.691666 0
M  V30 6364 H 596.26 -1.30798 -1.28701 0
M  V30 6365 H 594.642 -0.835096 -3.87094 0
M  V30 6366 H 595.816 -3.5412 -2.94848 0
M  V30 6367 H 594.131 -3.09646 -2.78403 0
M  V30 6368 H 596.728 -1.57237 -5.11058 0
M  V30 6369 H 597.071 -0.147664 -4.16038 0
M  V30 6370 H 597.604 -1.74274 -3.57594 0
M  V30 6371 H 594.343 -4.48958 -4.77616 0
M  V30 6372 H 593.863 -2.85176 -5.27669 0
M  V30 6373 H 595.542 -3.40095 -5.50404 0
M  V30 6374 N 595.674 1.31259 -0.872281 0
M  V30 6375 C 596.899 2.0133 -0.498099 0
M  V30 6376 C 597.324 1.65031 0.902568 0
M  V30 6377 O 596.682 0.860164 1.59596 0
M  V30 6378 C 596.73 3.54411 -0.665205 0
M  V30 6379 O 595.834 4.11347 0.294473 0
M  V30 6380 H 595.175 0.633844 -0.197832 0
M  V30 6381 H 597.705 1.67402 -1.17633 0
M  V30 6382 H 597.715 4.04147 -0.559373 0
M  V30 6383 H 596.39 3.80171 -1.68651 0
M  V30 6384 H 594.967 3.72624 0.143403 0
M  V30 6385 N 597.152 0.631951 1.44375 0
M  V30 6386 C 598.429 0.067646 1.95483 0
M  V30 6387 C 598.809 -1.40683 1.57389 0
M  V30 6388 O 598.157 -2.12167 0.848375 0
M  V30 6389 C 598.367 0.291392 3.47781 0
M  V30 6390 C 599.715 0.185028 4.24197 0
M  V30 6391 O 600.739 0.222803 3.55503 0
M  V30 6392 O 599.598 0.0906642 5.46425 0
M  V30 6393 H 596.692 -0.0218379 0.826712 0
M  V30 6394 H 599.238 0.703711 1.54421 0
M  V30 6395 H 598.01 1.31449 3.68561 0
M  V30 6396 H 597.633 -0.378772 3.95792 0
M  V30 6397 N 598.631 -1.53133 0.372548 0
M  V30 6398 C 599.879 -2.00958 -0.214534 0
M  V30 6399 C 600.2 -1.26135 -1.48711 0
M  V30 6400 O 599.47 -0.376597 -1.92246 0
M  V30 6401 H 598.05 -0.742456 -0.0822664 0
M  V30 6402 H 600.712 -1.88367 0.500385 0
M  V30 6403 H 599.808 -3.09031 -0.436605 0
M  V30 6404 N 600.109 -0.101901 -1.5727 0
M  V30 6405 C 601.072 0.840129 -2.13247 0
M  V30 6406 C 602.072 1.20625 -1.06331 0
M  V30 6407 O 603.262 1.13456 -1.32186 0
M  V30 6408 C 600.394 2.13372 -2.65867 0
M  V30 6409 H 601.587 0.353945 -2.97804 0
M  V30 6410 H 599.14 0.147167 -1.55606 0
M  V30 6411 H 599.875 2.66461 -1.84849 0
M  V30 6412 H 599.66 1.88085 -3.44044 0
M  V30 6413 H 601.15 2.80748 -3.09145 0
M  V30 6414 N 601.587 1.56661 0.17182 0
M  V30 6415 C 602.833 1.82235 0.889845 0
M  V30 6416 C 603.166 0.679673 1.81918 0
M  V30 6417 O 602.441 -0.318404 1.91876 0
M  V30 6418 C 602.724 3.18195 1.68595 0
M  V30 6419 C 602.577 4.42989 0.779773 0
M  V30 6420 C 603.896 3.5109 2.65375 0
M  V30 6421 H 601.015 0.66291 0.322056 0
M  V30 6422 H 603.657 1.89358 0.15608 0
M  V30 6423 H 601.807 3.12253 2.3115 0
M  V30 6424 H 603.479 4.60997 0.16714 0
M  V30 6425 H 601.722 4.33711 0.0877964 0
M  V30 6426 H 602.393 5.3467 1.3723 0
M  V30 6427 H 604.869 3.57482 2.12946 0
M  V30 6428 H 603.745 4.47298 3.18144 0
M  V30 6429 H 604.006 2.75768 3.45549 0
M  V30 6430 N 603.065 -0.440357 1.51323 0
M  V30 6431 C 603.975 -1.55955 1.75258 0
M  V30 6432 C 604.991 -1.61933 0.636687 0
M  V30 6433 O 606.167 -1.79231 0.918593 0
M  V30 6434 C 603.232 -2.9196 1.86977 0
M  V30 6435 C 602.293 -2.96122 3.10822 0
M  V30 6436 C 601.526 -4.2564 3.21973 0
M  V30 6437 O 601.749 -5.17851 2.39137 0
M  V30 6438 O 600.683 -4.36025 4.14929 0
M  V30 6439 H 604.509 -1.38673 2.70191 0
M  V30 6440 H 602.094 -0.623055 1.35788 0
M  V30 6441 H 603.976 -3.72682 1.96688 0
M  V30 6442 H 602.651 -3.09375 0.952307 0
M  V30 6443 H 601.558 -2.14366 3.06591 0
M  V30 6444 H 602.891 -2.83651 4.02247 0
M  V30 6445 N 604.543 -1.41418 -0.695603 0
M  V30 6446 C 605.82 -1.31264 -1.45014 0
M  V30 6447 C 606.2 0.0597994 -2.11015 0
M  V30 6448 O 605.548 1.07403 -2.01685 0
M  V30 6449 C 605.758 -2.466 -2.4696 0
M  V30 6450 C 607.106 -2.87763 -3.12214 0
M  V30 6451 O 608.13 -2.46339 -2.57285 0
M  V30 6452 O 606.989 -3.59395 -4.11701 0
M  V30 6453 H 604.083 -0.516576 -0.645816 0
M  V30 6454 H 606.629 -1.53382 -0.726084 0
M  V30 6455 H 605.401 -3.38183 -1.96845 0
M  V30 6456 H 605.024 -2.26358 -3.26876 0
M  V30 6457 N 606.021 0.929856 -1.27246 0
M  V30 6458 C 607.251 1.70895 -1.16096 0
M  V30 6459 C 607.659 1.87039 0.285122 0
M  V30 6460 O 607.002 1.38557 1.20614 0
M  V30 6461 C 607.064 3.12919 -1.7698 0
M  V30 6462 C 606.728 3.2012 -3.26148 0
M  V30 6463 C 607.725 3.02533 -4.22812 0
M  V30 6464 C 605.41 3.43148 -3.66817 0
M  V30 6465 C 607.404 3.07861 -5.58122 0
M  V30 6466 C 605.091 3.48109 -5.02258 0
M  V30 6467 C 606.089 3.30483 -5.97721 0
M  V30 6468 O 605.777 3.35175 -7.30694 0
M  V30 6469 H 605.509 0.54152 -0.404639 0
M  V30 6470 H 608.063 1.17342 -1.68582 0
M  V30 6471 H 606.293 3.67945 -1.18969 0
M  V30 6472 H 607.982 3.72787 -1.60576 0
M  V30 6473 H 608.748 2.84586 -3.92728 0
M  V30 6474 H 604.627 3.55918 -2.9299 0
M  V30 6475 H 608.171 2.94021 -6.32612 0
M  V30 6476 H 604.068 3.65579 -5.31998 0
M  V30 6477 H 604.836 3.51644 -7.39114 0
M  V30 6478 N 607.499 1.09233 1.13605 0
M  V30 6479 C 608.409 0.741939 2.22559 0
M  V30 6480 C 609.425 -0.255236 1.72118 0
M  V30 6481 O 610.601 -0.0970747 2.01166 0
M  V30 6482 C 607.666 0.165595 3.46304 0
M  V30 6483 C 606.727 1.21846 4.11645 0
M  V30 6484 C 605.96 0.669526 5.29484 0
M  V30 6485 O 606.183 -0.508228 5.68131 0
M  V30 6486 O 605.117 1.42361 5.84822 0
M  V30 6487 H 608.943 1.65107 2.54899 0
M  V30 6488 H 606.528 0.866584 1.21699 0
M  V30 6489 H 608.41 -0.152592 4.21124 0
M  V30 6490 H 607.085 -0.716573 3.15669 0
M  V30 6491 H 605.992 1.58931 3.38662 0
M  V30 6492 H 607.325 2.07321 4.46407 0
M  V30 6493 N 608.977 -1.30795 0.87923 0
M  V30 6494 C 610.388 -1.78535 0.546093 0
M  V30 6495 C 610.739 -1.72354 -0.937467 0
M  V30 6496 O 609.864 -1.2969 -1.73233 0
M  V30 6497 C 610.459 -3.24181 0.9845 0
M  V30 6498 C 609.018 -3.69779 0.702871 0
M  V30 6499 C 608.165 -2.51377 1.17068 0
M  V30 6500 H 611.116 -1.17746 1.06403 0
M  V30 6501 H 611.137 -3.79227 0.311045 0
M  V30 6502 H 610.649 -3.28647 2.06429 0
M  V30 6503 H 608.75 -3.70806 -0.365166 0
M  V30 6504 H 608.863 -4.61507 1.28639 0
M  V30 6505 H 607.227 -2.47768 0.590172 0
M  V30 6506 H 608.01 -2.58584 2.25808 0
M  V30 6507 N 610.455 -0.639598 -1.44038 0
M  V30 6508 C 611.701 -0.147698 -2.02261 0
M  V30 6509 C 612.034 1.23031 -1.50256 0
M  V30 6510 O 611.309 1.81847 -0.690068 0
M  V30 6511 C 611.592 -0.14362 -3.59813 0
M  V30 6512 C 611.445 -1.55458 -4.22082 0
M  V30 6513 C 612.764 0.527317 -4.36929 0
M  V30 6514 H 609.883 -0.0551453 -0.734934 0
M  V30 6515 H 612.525 -0.817688 -1.71505 0
M  V30 6516 H 610.675 0.426898 -3.86147 0
M  V30 6517 H 612.347 -2.17464 -4.06826 0
M  V30 6518 H 610.59 -2.10594 -3.79253 0
M  V30 6519 H 611.261 -1.50369 -5.31124 0
M  V30 6520 H 613.737 0.0420504 -4.16079 0
M  V30 6521 H 612.613 0.499389 -5.46624 0
M  V30 6522 H 612.874 1.59914 -4.12165 0
M  V30 6523 N 611.933 1.52934 -0.380664 0
M  V30 6524 C 613.18 2.01467 0.204278 0
M  V30 6525 C 613.508 1.26744 1.47533 0
M  V30 6526 O 612.763 0.353723 1.92477 0
M  V30 6527 C 613.062 3.5349 0.527199 0
M  V30 6528 C 612.728 4.46171 -0.651295 0
M  V30 6529 C 611.39 4.71227 -0.974619 0
M  V30 6530 C 613.742 5.00909 -1.44012 0
M  V30 6531 C 611.07 5.4827 -2.08847 0
M  V30 6532 C 613.422 5.7917 -2.5445 0
M  V30 6533 C 612.086 6.02507 -2.87301 0
M  V30 6534 H 611.356 0.73722 0.0747504 0
M  V30 6535 H 614.003 1.84411 -0.516234 0
M  V30 6536 H 612.308 3.68574 1.32892 0
M  V30 6537 H 614.005 3.88529 0.992283 0
M  V30 6538 H 610.595 4.26829 -0.389276 0
M  V30 6539 H 614.779 4.81485 -1.20357 0
M  V30 6540 H 610.035 5.64567 -2.34679 0
M  V30 6541 H 614.209 6.20588 -3.1598 0
M  V30 6542 H 611.836 6.61989 -3.7373 0
M  V30 6543 N 613.412 0.11024 1.57214 0
M  V30 6544 C 614.322 -0.857077 2.18383 0
M  V30 6545 C 615.338 -1.29915 1.1575 0
M  V30 6546 O 616.514 -1.36394 1.48184 0
M  V30 6547 C 613.579 -2.09264 2.76423 0
M  V30 6548 C 612.64 -1.70333 3.94063 0
M  V30 6549 C 611.873 -2.87999 4.49324 0
M  V30 6550 O 612.096 -4.0317 4.03497 0
M  V30 6551 O 611.03 -2.6559 5.40135 0
M  V30 6552 H 614.856 -0.366561 3.0148 0
M  V30 6553 H 612.441 -0.114914 1.48957 0
M  V30 6554 H 614.323 -2.81644 3.13456 0
M  V30 6555 H 612.998 -2.57339 1.96363 0
M  V30 6556 H 611.905 -0.950864 3.61814 0
M  V30 6557 H 613.238 -1.27007 4.75531 0
M  V30 6558 N 614.89 -1.56749 -0.16351 0
M  V30 6559 C 615.837 -1.97011 -1.2023 0
M  V30 6560 C 616.807 -0.835186 -1.43575 0
M  V30 6561 O 617.992 -1.09594 -1.56185 0
M  V30 6562 C 615.132 -2.34186 -2.53478 0
M  V30 6563 C 614.245 -3.60893 -2.37446 0
M  V30 6564 C 613.38 -3.87245 -3.63614 0
M  V30 6565 C 612.419 -5.07274 -3.42548 0
M  V30 6566 N 611.556 -5.29719 -4.60806 0
M  V30 6567 H 616.396 -2.85562 -0.851958 0
M  V30 6568 H 613.933 -1.41292 -0.409257 0
M  V30 6569 H 615.891 -2.53764 -3.31149 0
M  V30 6570 H 614.521 -1.48736 -2.86492 0
M  V30 6571 H 613.573 -3.49185 -1.50911 0
M  V30 6572 H 614.885 -4.48722 -2.1783 0
M  V30 6573 H 614.039 -4.07232 -4.49719 0
M  V30 6574 H 612.778 -2.97806 -3.86216 0
M  V30 6575 H 611.783 -4.87177 -2.5483 0
M  V30 6576 H 613.008 -5.98251 -3.2136 0
M  V30 6577 H 610.954 -4.43233 -4.83612 0
M  V30 6578 H 610.871 -6.11786 -4.44132 0
M  V30 6579 H 612.139 -5.54192 -5.48171 0
M  V30 6580 N 616.368 0.432326 -1.51554 0
M  V30 6581 C 617.598 1.2019 -1.68042 0
M  V30 6582 C 618.006 1.85356 -0.379434 0
M  V30 6583 O 617.349 1.71724 0.652427 0
M  V30 6584 C 617.411 2.32387 -2.74292 0
M  V30 6585 C 617.075 1.87548 -4.16743 0
M  V30 6586 C 618.072 1.37611 -5.01357 0
M  V30 6587 C 615.757 1.95087 -4.62868 0
M  V30 6588 C 617.751 0.958069 -6.30159 0
M  V30 6589 C 615.438 1.52894 -5.91664 0
M  V30 6590 C 616.436 1.03336 -6.75137 0
M  V30 6591 O 616.124 0.617435 -8.01525 0
M  V30 6592 H 615.856 0.368132 -0.56697 0
M  V30 6593 H 618.41 0.517875 -1.98764 0
M  V30 6594 H 616.64 3.04082 -2.38895 0
M  V30 6595 H 618.329 2.94235 -2.79608 0
M  V30 6596 H 619.095 1.31178 -4.66923 0
M  V30 6597 H 614.974 2.32606 -3.98015 0
M  V30 6598 H 618.518 0.570562 -6.95263 0
M  V30 6599 H 614.415 1.58999 -6.25611 0
M  V30 6600 H 615.183 0.742835 -8.15122 0
M  V30 6601 N 617.846 1.41785 0.688094 0
M  V30 6602 C 618.794 1.44436 1.82321 0
M  V30 6603 C 619.788 0.321544 1.6632 0
M  V30 6604 O 620.994 0.493931 1.73091 0
M  V30 6605 H 617.369 0.452084 0.600936 0
M  V30 6606 H 619.34 2.40087 1.77202 0
M  V30 6607 C 618.089 1.35071 3.20392 0
M  V30 6608 H 617.412 2.2076 3.33324 0
M  V30 6609 H 618.852 1.40988 3.99873 0
M  V30 6610 C 617.311 0.0639127 3.36839 0
M  V30 6611 O 617.841 -0.888495 3.91751 0
M  V30 6612 N 616.047 -0.0146114 2.90596 0
M  V30 6613 H 615.594 0.761191 2.46097 0
M  V30 6614 H 615.552 -0.874988 3.01979 0
M  V30 6615 N 619.324 -0.923095 1.27737 0
M  V30 6616 C 620.57 -1.67409 1.15524 0
M  V30 6617 C 620.925 -1.90124 -0.295072 0
M  V30 6618 O 620.218 -1.48382 -1.21216 0
M  V30 6619 C 620.412 -3.04125 1.8773 0
M  V30 6620 C 620.241 -2.94752 3.39634 0
M  V30 6621 C 619.011 -2.96783 4.0896 0
M  V30 6622 C 621.209 -2.73524 4.35533 0
M  V30 6623 N 619.191 -2.779 5.47398 0
M  V30 6624 C 620.562 -2.63391 5.61271 0
M  V30 6625 C 622.617 -2.58447 4.2557 0
M  V30 6626 C 621.32 -2.3972 6.78179 0
M  V30 6627 C 623.346 -2.36154 5.42204 0
M  V30 6628 C 622.708 -2.26768 6.669 0
M  V30 6629 H 618.807 -0.619196 0.477619 0
M  V30 6630 H 621.391 -1.09094 1.61266 0
M  V30 6631 H 619.562 -3.60545 1.44436 0
M  V30 6632 H 621.294 -3.6819 1.67982 0
M  V30 6633 H 618.049 -3.07186 3.60463 0
M  V30 6634 H 618.473 -2.71576 6.20141 0
M  V30 6635 H 623.115 -2.6446 3.2988 0
M  V30 6636 H 620.833 -2.32447 7.73947 0
M  V30 6637 H 624.419 -2.25367 5.36378 0
M  V30 6638 H 623.299 -2.09751 7.55628 0
M  V30 6639 N 620.802 -1.09834 -1.13024 0
M  V30 6640 C 622.213 -0.855651 -1.65938 0
M  V30 6641 C 622.564 0.615159 -1.86307 0
M  V30 6642 O 621.689 1.47335 -1.58497 0
M  V30 6643 C 622.284 -1.5467 -3.01434 0
M  V30 6644 C 620.843 -1.35088 -3.51323 0
M  V30 6645 C 619.99 -1.6001 -2.26478 0
M  V30 6646 H 622.941 -1.25691 -0.968889 0
M  V30 6647 H 622.962 -0.982179 -3.67605 0
M  V30 6648 H 622.474 -2.61715 -2.86578 0
M  V30 6649 H 620.575 -0.30179 -3.71376 0
M  V30 6650 H 620.688 -2.0886 -4.31178 0
M  V30 6651 H 619.052 -1.02246 -2.33276 0
M  V30 6652 H 619.835 -2.68293 -2.14182 0
M  V30 6653 N 622.28 1.30327 -0.886154 0
M  V30 6654 C 623.557 1.90922 -0.425217 0
M  V30 6655 C 623.937 1.80533 1.09413 0
M  V30 6656 O 623.285 1.2233 1.92996 0
M  V30 6657 C 623.495 3.36529 -0.924638 0
M  V30 6658 C 624.843 4.13598 -0.960305 0
M  V30 6659 O 625.867 3.45377 -0.871382 0
M  V30 6660 O 624.726 5.35482 -1.09184 0
M  V30 6661 H 621.82 0.81668 -0.130238 0
M  V30 6662 H 624.366 1.38886 -0.975132 0
M  V30 6663 H 623.138 3.38181 -1.96849 0
M  V30 6664 H 622.761 3.96021 -0.353955 0
M  V30 6665 N 623.758 0.647228 1.43697 0
M  V30 6666 C 624.998 0.16171 2.03759 0
M  V30 6667 C 625.362 -1.19951 1.49919 0
M  V30 6668 O 626.563 -1.77808 2.01588 0
M  V30 6669 C 624.834 0.16505 3.57019 0
M  V30 6670 S 626.393 -0.253497 4.38067 0
M  V30 6671 H 623.211 0.0689985 0.707644 0
M  V30 6672 H 625.813 0.854224 1.7585 0
M  V30 6673 H 624.517 1.15858 3.93707 0
M  V30 6674 H 624.048 -0.548194 3.89562 0
M  V30 6675 H 626.063 -1.49385 4.73179 0
M  V30 6676 N 625.236 -1.5273 0.388769 0
M  V30 6677 C 626.183 -2.26437 -0.446639 0
M  V30 6678 C 627.153 -1.28025 -1.05824 0
M  V30 6679 O 628.338 -1.56852 -1.08637 0
M  V30 6680 C 625.478 -3.07407 -1.56828 0
M  V30 6681 C 624.591 -4.20747 -0.979589 0
M  V30 6682 C 623.726 -4.89113 -2.07224 0
M  V30 6683 C 622.765 -5.94447 -1.45942 0
M  V30 6684 N 621.902 -6.56411 -2.49135 0
M  V30 6685 H 626.742 -2.97404 0.18837 0
M  V30 6686 H 624.279 -1.46727 0.104725 0
M  V30 6687 H 626.237 -3.52642 -2.22934 0
M  V30 6688 H 624.867 -2.3865 -2.17361 0
M  V30 6689 H 623.919 -3.7983 -0.208151 0
M  V30 6690 H 625.231 -4.9637 -0.491747 0
M  V30 6691 H 624.385 -5.3765 -2.81101 0
M  V30 6692 H 623.124 -4.13013 -2.59368 0
M  V30 6693 H 622.129 -5.4525 -0.705894 0
M  V30 6694 H 623.354 -6.7248 -0.945932 0
M  V30 6695 H 621.3 -5.83152 -3.00449 0
M  V30 6696 H 621.217 -7.27645 -2.05105 0
M  V30 6697 H 622.485 -7.09592 -3.22644 0
M  V30 6698 N 626.714 -0.118576 -1.57153 0
M  V30 6699 C 627.96 0.540326 -1.95469 0
M  V30 6700 C 628.293 1.66356 -1.00196 0
M  V30 6701 O 627.568 1.94461 -0.039104 0
M  V30 6702 C 627.851 1.07342 -3.43729 0
M  V30 6703 C 627.704 -0.0463732 -4.49776 0
M  V30 6704 C 629.023 1.96442 -3.93826 0
M  V30 6705 H 626.142 0.19494 -0.710751 0
M  V30 6706 H 628.784 -0.19405 -1.89006 0
M  V30 6707 H 626.934 1.69925 -3.49368 0
M  V30 6708 H 628.606 -0.681648 -4.56236 0
M  V30 6709 H 626.849 -0.709574 -4.27957 0
M  V30 6710 H 627.52 0.367856 -5.50773 0
M  V30 6711 H 629.996 1.43731 -3.90488 0
M  V30 6712 H 628.872 2.3066 -4.98084 0
M  V30 6713 H 629.133 2.89077 -3.34495 0
M  V30 6714 N 628.193 1.56834 0.155195 0
M  V30 6715 C 629.609 1.51315 0.50755 0
M  V30 6716 C 629.809 0.825614 1.83809 0
M  V30 6717 O 628.865 0.39271 2.49427 0
M  V30 6718 C 630.178 2.96074 0.52542 0
M  V30 6719 C 631.726 3.06968 0.611505 0
M  V30 6720 C 632.201 4.53218 0.660115 0
M  V30 6721 N 633.692 4.5753 0.722564 0
M  V30 6722 C 634.427 5.68056 0.781023 0
M  V30 6723 N 633.923 6.88173 0.799327 0
M  V30 6724 N 635.716 5.56068 0.821278 0
M  V30 6725 H 627.867 1.9993 -0.717063 0
M  V30 6726 H 630.13 0.911507 -0.260496 0
M  V30 6727 H 629.836 3.49599 -0.383875 0
M  V30 6728 H 629.71 3.51587 1.36624 0
M  V30 6729 H 632.097 2.53468 1.51122 0
M  V30 6730 H 632.178 2.54513 -0.256306 0
M  V30 6731 H 631.822 5.07354 -0.23541 0
M  V30 6732 H 631.752 5.03447 1.5443 0
M  V30 6733 H 634.243 3.71054 0.716049 0
M  V30 6734 H 634.556 7.6816 0.845553 0
M  V30 6735 H 632.901 6.90751 0.767337 0
M  V30 6736 H 636.092 4.61142 0.804091 0
M  V30 6737 H 636.265 6.42223 0.863372 0
M  V30 6738 N 629.671 -0.424282 1.51781 0
M  V30 6739 C 630.917 -1.17434 1.6534 0
M  V30 6740 C 631.25 -1.90549 0.374806 0
M  V30 6741 O 630.525 -1.84145 -0.626179 0
M  V30 6742 C 630.808 -2.18093 2.86544 0
M  V30 6743 C 630.661 -1.48975 4.24413 0
M  V30 6744 C 631.98 -3.18934 3.03264 0
M  V30 6745 H 629.099 -0.425566 0.601716 0
M  V30 6746 H 631.741 -0.461921 1.84299 0
M  V30 6747 H 629.891 -2.78849 2.7051 0
M  V30 6748 H 631.563 -0.914551 4.52143 0
M  V30 6749 H 629.806 -0.791893 4.26511 0
M  V30 6750 H 630.477 -2.22347 5.05238 0
M  V30 6751 H 632.953 -2.68243 3.18096 0
M  V30 6752 H 631.829 -3.86645 3.89611 0
M  V30 6753 H 632.09 -3.85793 2.15908 0
M  V30 6754 N 631.149 -1.42148 -0.680565 0
M  V30 6755 C 632.396 -1.4231 -1.44063 0
M  V30 6756 C 632.724 -0.037488 -1.94464 0
M  V30 6757 O 631.979 0.953184 -1.70918 0
M  V30 6758 C 632.278 -2.38945 -2.65782 0
M  V30 6759 C 631.944 -3.85455 -2.33956 0
M  V30 6760 C 630.606 -4.25364 -2.24987 0
M  V30 6761 C 632.958 -4.77895 -2.08004 0
M  V30 6762 C 630.286 -5.55701 -1.88184 0
M  V30 6763 C 632.638 -6.08568 -1.72706 0
M  V30 6764 C 631.302 -6.47482 -1.62244 0
M  V30 6765 H 630.572 -0.520748 -0.527164 0
M  V30 6766 H 633.219 -1.7505 -0.776524 0
M  V30 6767 H 631.524 -1.99511 -3.37198 0
M  V30 6768 H 633.221 -2.36336 -3.23954 0
M  V30 6769 H 629.811 -3.53855 -2.41836 0
M  V30 6770 H 633.995 -4.47854 -2.1387 0
M  V30 6771 H 629.251 -5.84718 -1.78648 0
M  V30 6772 H 633.425 -6.79688 -1.5165 0
M  V30 6773 H 631.052 -7.48387 -1.33496 0
M  V30 6774 N 632.627 0.916307 -1.28225 0
M  V30 6775 C 633.855 1.69901 -1.18073 0
M  V30 6776 C 634.27 1.86988 0.260968 0
M  V30 6777 O 633.627 1.39505 1.17663 0
M  V30 6778 C 633.678 3.09254 -1.87201 0
M  V30 6779 O 633.399 2.92959 -3.2574 0
M  V30 6780 C 634.9 4.0362 -1.83319 0
M  V30 6781 H 632.12 0.531181 -0.409985 0
M  V30 6782 H 634.664 1.14703 -1.69303 0
M  V30 6783 H 632.819 3.61277 -1.39848 0
M  V30 6784 H 633.233 3.81139 -3.60324 0
M  V30 6785 H 634.707 4.98873 -2.36282 0
M  V30 6786 H 635.184 4.3176 -0.805007 0
M  V30 6787 H 635.79 3.57524 -2.3034 0
M  V30 6788 N 634.105 1.10431 1.1244 0
M  V30 6789 C 635.335 0.867612 1.87499 0
M  V30 6790 C 635.743 -0.585475 1.79913 0
M  V30 6791 O 635.086 -1.41539 1.171 0
M  V30 6792 C 635.148 1.2374 3.37533 0
M  V30 6793 C 634.812 2.69751 3.68895 0
M  V30 6794 C 635.809 3.67988 3.67261 0
M  V30 6795 C 633.494 3.06135 3.98229 0
M  V30 6796 C 635.488 5.00632 3.9452 0
M  V30 6797 C 633.175 4.38967 4.25149 0
M  V30 6798 C 634.173 5.36025 4.23281 0
M  V30 6799 O 633.861 6.66465 4.49533 0
M  V30 6800 H 633.593 0.311196 0.600111 0
M  V30 6801 H 636.147 1.47257 1.43194 0
M  V30 6802 H 634.377 0.575537 3.82393 0
M  V30 6803 H 636.066 0.978187 3.93937 0
M  V30 6804 H 636.832 3.41224 3.44661 0
M  V30 6805 H 632.711 2.31214 3.98825 0
M  V30 6806 H 636.255 5.7638 3.92978 0
M  V30 6807 H 632.152 4.6547 4.47223 0
M  V30 6808 H 632.92 6.72095 4.67152 0
M  V30 6809 N 635.583 -1.29855 0.893053 0
M  V30 6810 C 636.513 -2.3035 0.382249 0
M  V30 6811 C 637.494 -1.61328 -0.539203 0
M  V30 6812 O 638.679 -1.88882 -0.451342 0
M  V30 6813 C 635.809 -3.45024 -0.396983 0
M  V30 6814 C 634.763 -4.258 0.433437 0
M  V30 6815 C 634.089 -5.32605 -0.472889 0
M  V30 6816 C 635.389 -4.94549 1.67984 0
M  V30 6817 H 637.083 -2.73325 1.22205 0
M  V30 6818 H 634.629 -1.314 0.589073 0
M  V30 6819 H 636.582 -4.14398 -0.765024 0
M  V30 6820 H 635.306 -3.00875 -1.2705 0
M  V30 6821 H 633.965 -3.58125 0.783723 0
M  V30 6822 H 633.613 -4.84702 -1.34435 0
M  V30 6823 H 633.313 -5.87547 0.0789958 0
M  V30 6824 H 634.837 -6.04832 -0.837269 0
M  V30 6825 H 636.251 -5.56395 1.38192 0
M  V30 6826 H 634.648 -5.59393 2.17254 0
M  V30 6827 H 635.718 -4.20215 2.41965 0
M  V30 6828 N 637.061 -0.65484 -1.43351 0
M  V30 6829 C 638.31 -0.166215 -2.01014 0
M  V30 6830 C 638.623 1.22764 -1.52278 0
M  V30 6831 O 639.829 1.81156 -2.02224 0
M  V30 6832 C 638.285 -0.246341 -3.59056 0
M  V30 6833 C 637.893 -1.64299 -4.16785 0
M  V30 6834 C 639.637 0.184597 -4.24098 0
M  V30 6835 C 637.544 -1.67695 -5.67126 0
M  V30 6836 H 636.474 -0.0583769 -0.751737 0
M  V30 6837 H 639.125 -0.817111 -1.64303 0
M  V30 6838 H 637.507 0.472092 -3.93176 0
M  V30 6839 H 638.681 -2.3869 -3.94162 0
M  V30 6840 H 636.996 -2.02004 -3.6412 0
M  V30 6841 H 639.593 0.179088 -5.344 0
M  V30 6842 H 639.936 1.21632 -3.98135 0
M  V30 6843 H 640.469 -0.482141 -3.94867 0
M  V30 6844 H 637.208 -2.68783 -5.9786 0
M  V30 6845 H 636.728 -0.976313 -5.91801 0
M  V30 6846 H 638.407 -1.42142 -6.31193 0
M  V30 6847 N 638.539 1.52521 -0.396863 0
M  V30 6848 C 639.787 2.01274 0.182536 0
M  V30 6849 C 640.108 1.28485 1.46685 0
M  V30 6850 O 639.378 0.407134 1.91623 0
M  V30 6851 H 637.958 0.743671 0.0704442 0
M  V30 6852 H 640.62 1.87547 -0.530289 0
M  V30 6853 H 639.716 3.09687 0.387385 0
M  V30 6854 N 640.017 0.126909 1.57088 0
M  V30 6855 C 641.433 -0.229641 1.57939 0
M  V30 6856 C 641.633 -1.66145 1.1401 0
M  V30 6857 O 640.689 -2.3843 0.831119 0
M  V30 6858 C 642.002 0.0108648 3.00698 0
M  V30 6859 C 643.55 -0.054418 3.12953 0
M  V30 6860 C 644.025 0.158497 4.57726 0
M  V30 6861 N 645.516 0.104735 4.63082 0
M  V30 6862 C 646.251 0.24427 5.72879 0
M  V30 6863 N 645.747 0.440415 6.91399 0
M  V30 6864 N 647.54 0.183286 5.61801 0
M  V30 6865 H 639.691 1.06203 1.83942 0
M  V30 6866 H 641.954 0.418834 0.85046 0
M  V30 6867 H 641.66 1.00102 3.37154 0
M  V30 6868 H 641.534 -0.717512 3.70313 0
M  V30 6869 H 643.921 -1.0351 2.7635 0
M  V30 6870 H 644.002 0.705967 2.45865 0
M  V30 6871 H 643.646 1.13619 4.95028 0
M  V30 6872 H 643.576 -0.62197 5.22914 0
M  V30 6873 H 646.067 -0.0430298 3.77876 0
M  V30 6874 H 646.38 0.537536 7.70928 0
M  V30 6875 H 644.725 0.476488 6.93365 0
M  V30 6876 H 647.916 0.0309561 4.6809 0
M  V30 6877 H 648.089 0.295471 6.47326 0
M  V30 6878 N 641.495 -1.56914 -0.146875 0
M  V30 6879 C 642.405 -2.0154 -1.20079 0
M  V30 6880 C 643.421 -0.930838 -1.47008 0
M  V30 6881 O 644.597 -1.24032 -1.58676 0
M  V30 6882 C 641.662 -2.38715 -2.51428 0
M  V30 6883 C 640.723 -3.6112 -2.32145 0
M  V30 6884 C 639.956 -3.96512 -3.57231 0
M  V30 6885 O 640.179 -3.32566 -4.63418 0
M  V30 6886 O 639.113 -4.89758 -3.49887 0
M  V30 6887 H 642.939 -2.91506 -0.851924 0
M  V30 6888 H 640.524 -1.45106 -0.355607 0
M  V30 6889 H 642.406 -2.63485 -3.28867 0
M  V30 6890 H 641.081 -1.51903 -2.85845 0
M  V30 6891 H 639.988 -3.41536 -1.52656 0
M  V30 6892 H 641.321 -4.48549 -2.02644 0
M  V30 6893 N 642.974 0.416227 -1.52004 0
M  V30 6894 C 644.22 1.16555 -1.6596 0
M  V30 6895 C 644.553 1.90347 -0.384906 0
M  V30 6896 O 643.828 1.84474 0.616405 0
M  V30 6897 C 644.111 2.1657 -2.87696 0
M  V30 6898 C 643.964 1.46722 -4.25197 0
M  V30 6899 C 645.283 3.17321 -3.04951 0
M  V30 6900 H 642.402 0.422369 -0.603965 0
M  V30 6901 H 645.044 0.452141 -1.84542 0
M  V30 6902 H 643.194 2.77411 -2.71985 0
M  V30 6903 H 644.866 0.89056 -4.52622 0
M  V30 6904 H 643.109 0.769263 -4.26925 0
M  V30 6905 H 643.78 2.19665 -5.0641 0
M  V30 6906 H 646.256 2.66552 -3.19514 0
M  V30 6907 H 645.132 3.84573 -3.91656 0
M  V30 6908 H 645.393 3.84643 -2.17951 0
M  V30 6909 N 644.452 1.42507 0.673017 0
M  V30 6910 C 645.677 1.4668 1.46627 0
M  V30 6911 C 646.102 0.080066 1.8793 0
M  V30 6912 O 645.46 -0.921879 1.56112 0
M  V30 6913 C 645.508 2.40091 2.69051 0
M  V30 6914 O 644.612 1.8735 3.67387 0
M  V30 6915 H 643.953 0.496908 0.44043 0
M  V30 6916 H 646.483 1.87215 0.825334 0
M  V30 6917 H 646.493 2.56731 3.17101 0
M  V30 6918 H 645.168 3.4084 2.3833 0
M  V30 6919 H 643.745 1.80274 3.26429 0
M  V30 6920 N 645.93 -0.909495 1.28709 0
M  V30 6921 C 647.177 -1.65905 1.16111 0
M  V30 6922 C 647.505 -1.92334 -0.289436 0
M  V30 6923 O 646.76 -1.52495 -1.22653 0
M  V30 6924 C 647.059 -3.02117 1.90945 0
M  V30 6925 C 646.725 -2.95332 3.40719 0
M  V30 6926 C 645.387 -2.93189 3.81567 0
M  V30 6927 C 647.739 -2.85264 4.36204 0
M  V30 6928 C 645.067 -2.78784 5.16233 0
M  V30 6929 C 647.419 -2.724 5.70948 0
M  V30 6930 C 646.083 -2.68617 6.11066 0
M  V30 6931 H 645.353 -0.60709 0.42488 0
M  V30 6932 H 648 -1.05932 1.59533 0
M  V30 6933 H 646.305 -3.65901 1.40085 0
M  V30 6934 H 648.002 -3.59026 1.7861 0
M  V30 6935 H 644.592 -2.97797 3.08245 0
M  V30 6936 H 648.776 -2.86005 4.05605 0
M  V30 6937 H 644.032 -2.74254 5.46438 0
M  V30 6938 H 648.206 -2.63579 6.44592 0
M  V30 6939 H 645.833 -2.57213 7.15364 0
M  V30 6940 N 647.408 -1.11026 -1.11852 0
M  V30 6941 C 648.371 -0.768006 -2.1595 0
M  V30 6942 C 649.371 0.210538 -1.59416 0
M  V30 6943 O 650.561 -0.0133978 -1.74195 0
M  V30 6944 C 647.693 -0.138678 -3.40618 0
M  V30 6945 H 648.886 -1.69012 -2.4774 0
M  V30 6946 H 646.439 -0.911578 -1.26964 0
M  V30 6947 H 647.174 0.793872 -3.14433 0
M  V30 6948 H 646.959 -0.843012 -3.8293 0
M  V30 6949 H 648.449 0.0848039 -4.17514 0
M  V30 6950 N 648.886 1.2938 -0.899927 0
M  V30 6951 C 650.163 1.9046 -0.445443 0
M  V30 6952 C 650.543 1.81683 1.07492 0
M  V30 6953 O 649.891 1.24371 1.91688 0
M  V30 6954 C 650.101 3.35529 -0.960279 0
M  V30 6955 C 651.449 4.12556 -1.00412 0
M  V30 6956 O 652.473 3.44434 -0.907965 0
M  V30 6957 O 651.332 5.34294 -1.14857 0
M  V30 6958 H 648.426 0.815253 -0.138893 0
M  V30 6959 H 650.972 1.37844 -0.989808 0
M  V30 6960 H 649.744 3.36074 -2.00425 0
M  V30 6961 H 649.367 3.95624 -0.395939 0
M  V30 6962 N 650.364 0.662433 1.43002 0
M  V30 6963 C 651.78 0.330835 1.56133 0
M  V30 6964 C 651.98 -1.16454 1.64441 0
M  V30 6965 O 651.036 -1.94964 1.60453 0
M  V30 6966 C 652.349 1.05029 2.81761 0
M  V30 6967 C 653.897 1.03142 2.95518 0
M  V30 6968 C 654.372 1.73196 4.2399 0
M  V30 6969 N 655.863 1.70004 4.30875 0
M  V30 6970 C 656.598 2.21074 5.29069 0
M  V30 6971 N 656.094 2.80473 6.33488 0
M  V30 6972 N 657.887 2.1152 5.20784 0
M  V30 6973 H 650.038 1.63272 1.35853 0
M  V30 6974 H 652.301 0.687149 0.653092 0
M  V30 6975 H 652.007 2.10542 2.81718 0
M  V30 6976 H 651.881 0.607664 3.72273 0
M  V30 6977 H 654.268 -0.0153339 2.95096 0
M  V30 6978 H 654.349 1.51282 2.0627 0
M  V30 6979 H 653.993 2.77833 4.25172 0
M  V30 6980 H 653.923 1.22515 5.1215 0
M  V30 6981 H 656.414 1.26667 3.56039 0
M  V30 6982 H 656.727 3.17094 7.04749 0
M  V30 6983 H 655.072 2.84538 6.34085 0
M  V30 6984 H 658.263 1.64814 4.38126 0
M  V30 6985 H 658.436 2.51629 5.97149 0
M  V30 6986 N 651.842 -1.52309 0.404946 0
M  V30 6987 C 652.775 -2.23369 -0.467087 0
M  V30 6988 C 653.753 -1.24034 -1.0514 0
M  V30 6989 O 654.937 -1.53071 -1.10006 0
M  V30 6990 C 652.064 -2.95906 -1.64795 0
M  V30 6991 C 651.11 -4.09637 -1.18743 0
M  V30 6992 S 651.943 -5.35273 -0.156022 0
M  V30 6993 C 653.099 -6.11337 -1.34231 0
M  V30 6994 H 653.332 -2.96987 0.136294 0
M  V30 6995 H 650.865 -1.53236 0.189219 0
M  V30 6996 H 652.823 -3.38304 -2.3251 0
M  V30 6997 H 651.484 -2.21937 -2.22267 0
M  V30 6998 H 650.677 -4.59549 -2.06955 0
M  V30 6999 H 650.279 -3.69333 -0.588981 0
M  V30 7000 H 652.571 -6.38458 -2.26665 0
M  V30 7001 H 653.514 -7.02563 -0.883804 0
M  V30 7002 H 653.922 -5.42338 -1.56621 0
M  V30 7003 N 653.32 -0.135238 -1.57019 0
M  V30 7004 C 654.267 0.808908 -2.1616 0
M  V30 7005 C 655.237 1.25234 -1.09113 0
M  V30 7006 O 656.422 1.32697 -1.37099 0
M  V30 7007 C 653.562 2.04729 -2.77813 0
M  V30 7008 C 652.675 1.65074 -3.99218 0
M  V30 7009 C 651.81 2.84002 -4.48906 0
M  V30 7010 C 650.849 2.40663 -5.62803 0
M  V30 7011 N 649.986 3.5256 -6.07162 0
M  V30 7012 H 654.826 0.297751 -2.96509 0
M  V30 7013 H 652.363 0.135264 -1.46477 0
M  V30 7014 H 654.321 2.7731 -3.11697 0
M  V30 7015 H 652.951 2.53275 -2.00128 0
M  V30 7016 H 652.003 0.823029 -3.7139 0
M  V30 7017 H 653.315 1.29236 -4.81767 0
M  V30 7018 H 652.469 3.64788 -4.84783 0
M  V30 7019 H 651.208 3.23076 -3.65339 0
M  V30 7020 H 650.213 1.58314 -5.26514 0
M  V30 7021 H 651.438 2.02687 -6.48147 0
M  V30 7022 H 649.384 3.91278 -5.26534 0
M  V30 7023 H 649.301 3.20699 -6.84608 0
M  V30 7024 H 650.569 4.33738 -6.47682 0
M  V30 7025 N 654.798 1.5699 0.138552 0
M  V30 7026 C 656.044 1.84966 0.846116 0
M  V30 7027 C 656.399 0.72038 1.78405 0
M  V30 7028 O 655.692 -0.281076 1.89527 0
M  V30 7029 C 655.886 3.17007 1.65049 0
M  V30 7030 C 655.715 4.42672 0.79194 0
M  V30 7031 C 654.485 5.03254 0.454293 0
M  V30 7032 C 656.683 5.14164 0.118419 0
M  V30 7033 N 654.665 6.12482 -0.416964 0
M  V30 7034 C 656.036 6.16966 -0.61263 0
M  V30 7035 C 658.091 4.97884 0.0399671 0
M  V30 7036 C 656.794 7.0525 -1.41473 0
M  V30 7037 C 658.82 5.86639 -0.748901 0
M  V30 7038 C 658.182 6.88929 -1.4682 0
M  V30 7039 H 654.281 0.727362 0.287172 0
M  V30 7040 H 656.865 1.94383 0.110972 0
M  V30 7041 H 655.036 3.08722 2.35681 0
M  V30 7042 H 656.768 3.3286 2.30187 0
M  V30 7043 H 653.523 4.6693 0.792038 0
M  V30 7044 H 653.947 6.7172 -0.843865 0
M  V30 7045 H 658.589 4.18779 0.581728 0
M  V30 7046 H 656.307 7.83777 -1.96772 0
M  V30 7047 H 659.893 5.7611 -0.811705 0
M  V30 7048 H 658.773 7.56419 -2.06882 0
M  V30 7049 N 656.276 -0.40816 1.52223 0
M  V30 7050 C 657.525 -1.15212 1.65557 0
M  V30 7051 C 657.838 -1.9163 0.392096 0
M  V30 7052 O 659.044 -2.68458 0.405256 0
M  V30 7053 C 657.5 -2.09691 2.92502 0
M  V30 7054 C 657.108 -1.38785 4.25961 0
M  V30 7055 C 658.852 -2.8434 3.152 0
M  V30 7056 C 656.759 -2.31919 5.44029 0
M  V30 7057 H 655.689 -0.433776 0.616729 0
M  V30 7058 H 658.34 -0.4165 1.78711 0
M  V30 7059 H 656.722 -2.8681 2.7305 0
M  V30 7060 H 657.896 -0.670248 4.55899 0
M  V30 7061 H 656.211 -0.761741 4.09373 0
M  V30 7062 H 658.808 -3.54166 4.00587 0
M  V30 7063 H 659.151 -3.47344 2.29473 0
M  V30 7064 H 659.684 -2.14321 3.35129 0
M  V30 7065 H 656.423 -1.7356 6.32105 0
M  V30 7066 H 655.943 -3.0165 5.18428 0
M  V30 7067 H 657.622 -2.92424 5.77146 0
M  V30 7068 N 657.755 -1.42862 -0.66545 0
M  V30 7069 C 658.718 -1.46756 -1.76055 0
M  V30 7070 C 659.718 -0.353866 -1.56858 0
M  V30 7071 O 660.908 -0.615099 -1.62979 0
M  V30 7072 C 658.04 -1.30829 -3.14796 0
M  V30 7073 H 659.233 -2.44271 -1.73987 0
M  V30 7074 H 656.786 -1.29447 -0.875965 0
M  V30 7075 H 657.521 -0.342733 -3.22484 0
M  V30 7076 H 657.306 -2.11551 -3.30134 0
M  V30 7077 H 658.796 -1.36458 -3.94676 0
M  V30 7078 N 659.233 0.902656 -1.29189 0
M  V30 7079 C 660.473 1.6672 -1.18254 0
M  V30 7080 C 660.837 1.90199 0.262336 0
M  V30 7081 O 662.038 2.6421 0.494612 0
M  V30 7082 C 660.309 2.98178 -1.9704 0
M  V30 7083 S 661.868 3.89226 -2.02605 0
M  V30 7084 H 658.686 0.572432 -0.421714 0
M  V30 7085 H 661.288 1.07279 -1.63436 0
M  V30 7086 H 659.992 2.788 -3.01163 0
M  V30 7087 H 659.523 3.62661 -1.5245 0
M  V30 7088 H 661.538 4.82913 -1.14059 0
M  V30 7089 N 660.711 1.11618 1.11262 0
M  V30 7090 C 661.659 0.771291 2.1944 0
M  V30 7091 C 662.653 -0.238073 1.67719 0
M  V30 7092 O 663.859 -0.0971628 1.79738 0
M  V30 7093 H 660.234 0.231548 0.715465 0
M  V30 7094 H 662.205 1.69226 2.45775 0
M  V30 7095 C 660.954 0.232765 3.4692 0
M  V30 7096 H 660.277 1.00072 3.87073 0
M  V30 7097 H 661.717 0.0296561 4.2399 0
M  V30 7098 C 660.176 -1.03738 3.20531 0
M  V30 7099 O 660.706 -2.11675 3.41404 0
M  V30 7100 N 658.912 -0.960906 2.74253 0
M  V30 7101 H 658.459 -0.0824323 2.57468 0
M  V30 7102 H 658.417 -1.8114 2.56974 0
M  V30 7103 N 662.189 -1.289 0.906776 0
M  V30 7104 C 663.137 -2.29477 0.379873 0
M  V30 7105 C 664.131 -1.61068 -0.524747 0
M  V30 7106 O 665.337 -1.75344 -0.406765 0
M  V30 7107 H 661.712 -0.744742 0.10423 0
M  V30 7108 H 663.683 -2.71353 1.24137 0
M  V30 7109 C 662.432 -3.45713 -0.371154 0
M  V30 7110 H 661.755 -3.98551 0.315716 0
M  V30 7111 H 663.195 -4.18105 -0.704581 0
M  V30 7112 C 661.654 -2.9774 -1.57646 0
M  V30 7113 O 662.184 -2.99618 -2.67567 0
M  V30 7114 N 660.39 -2.53485 -1.42105 0
M  V30 7115 H 659.937 -2.52156 -0.526783 0
M  V30 7116 H 659.895 -2.21747 -2.22881 0
M  V30 7117 N 663.667 -0.670007 -1.42649 0
M  V30 7118 C 664.614 0.0112928 -2.30797 0
M  V30 7119 C 665.584 0.797627 -1.45695 0
M  V30 7120 O 666.769 0.770845 -1.74535 0
M  V30 7121 C 663.909 0.95998 -3.31479 0
M  V30 7122 C 663.022 0.167975 -4.31673 0
M  V30 7123 C 662.157 1.11198 -5.19431 0
M  V30 7124 C 661.196 0.311381 -6.11307 0
M  V30 7125 N 660.333 1.20784 -6.91633 0
M  V30 7126 H 665.173 -0.746231 -2.88505 0
M  V30 7127 H 662.71 -0.379739 -1.42114 0
M  V30 7128 H 664.668 1.52379 -3.88377 0
M  V30 7129 H 663.298 1.68419 -2.75382 0
M  V30 7130 H 662.35 -0.512385 -3.76933 0
M  V30 7131 H 663.662 -0.453814 -4.96731 0
M  V30 7132 H 662.816 1.74587 -5.81037 0
M  V30 7133 H 661.555 1.76766 -4.54538 0
M  V30 7134 H 660.56 -0.335758 -5.48774 0
M  V30 7135 H 661.785 -0.340135 -6.78248 0
M  V30 7136 H 659.731 1.85001 -6.29373 0
M  V30 7137 H 659.648 0.64102 -7.53277 0
M  V30 7138 H 660.916 1.82936 -7.5773 0
M  V30 7139 N 665.145 1.52092 -0.413018 0
M  V30 7140 C 666.393 2.01456 0.161178 0
M  V30 7141 C 666.714 1.30034 1.45314 0
M  V30 7142 O 665.984 0.427435 1.9118 0
M  V30 7143 H 664.564 0.744376 0.0625526 0
M  V30 7144 H 667.226 1.86974 -0.550151 0
M  V30 7145 H 666.322 3.1008 0.354517 0
M  V30 7146 N 666.623 0.143563 1.56945 0
M  V30 7147 C 667.853 -0.514699 2.00086 0
M  V30 7148 C 668.261 -1.59184 1.0226 0
M  V30 7149 O 667.604 -1.83697 0.0110514 0
M  V30 7150 C 667.666 -1.17778 3.39659 0
M  V30 7151 C 667.33 -0.245657 4.56339 0
M  V30 7152 C 668.327 0.525343 5.17239 0
M  V30 7153 C 666.012 -0.149564 5.02077 0
M  V30 7154 C 668.006 1.37992 6.22284 0
M  V30 7155 C 665.693 0.708621 6.06978 0
M  V30 7156 C 666.691 1.47197 6.6695 0
M  V30 7157 O 666.379 2.31586 7.6982 0
M  V30 7158 H 666.111 -0.138789 0.661599 0
M  V30 7159 H 668.665 0.234098 2.04062 0
M  V30 7160 H 666.895 -1.97415 3.32512 0
M  V30 7161 H 668.584 -1.73542 3.6693 0
M  V30 7162 H 669.35 0.461118 4.82803 0
M  V30 7163 H 665.229 -0.733457 4.55128 0
M  V30 7164 H 668.773 1.97621 6.69023 0
M  V30 7165 H 664.67 0.77415 6.40841 0
M  V30 7166 H 665.438 2.24796 7.87025 0
M  V30 7167 N 668.101 -1.57061 -0.130224 0
M  V30 7168 C 669.331 -1.88159 -0.853217 0
M  V30 7169 C 669.739 -0.731675 -1.7448 0
M  V30 7170 O 669.082 0.307035 -1.81116 0
M  V30 7171 C 669.144 -3.1415 -1.74785 0
M  V30 7172 C 668.808 -4.45202 -1.03173 0
M  V30 7173 C 669.805 -5.18526 -0.377759 0
M  V30 7174 C 667.49 -4.91912 -1.01624 0
M  V30 7175 C 669.484 -6.36775 0.282123 0
M  V30 7176 C 667.171 -6.10082 -0.352555 0
M  V30 7177 C 668.169 -6.82361 0.295483 0
M  V30 7178 O 667.857 -7.98284 0.948606 0
M  V30 7179 H 667.589 -0.627596 -0.251197 0
M  V30 7180 H 670.143 -2.05034 -0.1226 0
M  V30 7181 H 668.373 -2.93328 -2.51983 0
M  V30 7182 H 670.062 -3.31359 -2.34427 0
M  V30 7183 H 670.828 -4.83498 -0.381417 0
M  V30 7184 H 666.707 -4.35566 -1.51007 0
M  V30 7185 H 670.251 -6.93129 0.788525 0
M  V30 7186 H 666.148 -6.44569 -0.346621 0
M  V30 7187 H 666.916 -8.14054 0.851954 0
M  V30 7188 N 669.579 0.400081 -1.52437 0
M  V30 7189 C 670.807 1.16768 -1.70801 0
M  V30 7190 C 671.222 1.84036 -0.421462 0
M  V30 7191 O 670.579 1.72242 0.603228 0
M  V30 7192 C 670.63 2.22403 -2.8499 0
M  V30 7193 O 670.351 1.57879 -4.08663 0
M  V30 7194 C 671.852 3.11974 -3.1494 0
M  V30 7195 H 669.072 0.350533 -0.57216 0
M  V30 7196 H 671.616 0.469534 -1.99037 0
M  V30 7197 H 669.771 2.87871 -2.59247 0
M  V30 7198 H 670.185 2.27982 -4.7236 0
M  V30 7199 H 671.659 3.82148 -3.9833 0
M  V30 7200 H 672.136 3.74858 -2.28863 0
M  V30 7201 H 672.742 2.52165 -3.42481 0
M  V30 7202 N 671.057 1.43213 0.657864 0
M  V30 7203 C 671.989 1.43974 1.78337 0
M  V30 7204 C 673.002 0.336482 1.59285 0
M  V30 7205 O 674.191 0.600631 1.68091 0
M  V30 7206 C 671.291 1.23242 3.15697 0
M  V30 7207 C 670.464 2.46319 3.61449 0
M  V30 7208 C 669.523 2.2088 4.77597 0
M  V30 7209 O 668.549 2.942 4.87273 0
M  V30 7210 N 669.751 1.22251 5.67481 0
M  V30 7211 H 672.516 2.40993 1.78164 0
M  V30 7212 H 670.077 1.3831 0.841549 0
M  V30 7213 H 672.069 1.04113 3.91079 0
M  V30 7214 H 670.639 0.346849 3.1067 0
M  V30 7215 H 669.859 2.80904 2.76563 0
M  V30 7216 H 671.147 3.28239 3.88763 0
M  V30 7217 H 670.545 0.616433 5.62331 0
M  V30 7218 H 669.102 1.09107 6.42603 0
M  V30 7219 N 672.536 -0.895792 1.29666 0
M  V30 7220 C 673.785 -1.64131 1.17234 0
M  V30 7221 C 674.098 -1.93665 -0.274416 0
M  V30 7222 O 675.304 -2.66472 -0.520105 0
M  V30 7223 C 673.76 -2.95764 2.05065 0
M  V30 7224 C 673.368 -2.7381 3.54587 0
M  V30 7225 C 675.112 -3.737 2.01367 0
M  V30 7226 C 673.019 -4.01194 4.34508 0
M  V30 7227 H 671.949 -0.615742 0.435175 0
M  V30 7228 H 674.6 -0.992626 1.54335 0
M  V30 7229 H 672.982 -3.61867 1.60837 0
M  V30 7230 H 674.156 -2.16277 4.06892 0
M  V30 7231 H 672.471 -2.09265 3.59996 0
M  V30 7232 H 675.068 -4.68152 2.58337 0
M  V30 7233 H 675.411 -4.04245 0.994575 0
M  V30 7234 H 675.944 -3.14444 2.43659 0
M  V30 7235 H 672.683 -3.75813 5.37071 0
M  V30 7236 H 672.203 -4.58272 3.86971 0
M  V30 7237 H 673.882 -4.69307 4.45376 0
M  V30 7238 N 674.014 -1.12206 -1.10668 0
M  V30 7239 C 675.239 -0.898938 -1.86906 0
M  V30 7240 C 675.664 0.546346 -1.79991 0
M  V30 7241 O 675.022 1.38655 -1.1681 0
M  V30 7242 C 675.07 -1.37529 -3.33344 0
M  V30 7243 O 674.174 -0.55218 -4.08687 0
M  V30 7244 H 673.515 -0.323163 -0.580053 0
M  V30 7245 H 676.045 -1.49355 -1.39837 0
M  V30 7246 H 676.055 -1.3733 -3.84193 0
M  V30 7247 H 674.73 -2.42767 -3.37693 0
M  V30 7248 H 673.307 -0.620947 -3.67694 0
M  V30 7249 N 675.492 1.28418 -0.913599 0
M  V30 7250 C 676.72 1.99106 -0.562536 0
M  V30 7251 C 677.135 1.68273 0.856137 0
M  V30 7252 O 676.492 0.935401 1.56705 0
M  V30 7253 C 676.543 3.5338 -0.761903 0
M  V30 7254 O 676.264 3.83127 -2.12475 0
M  V30 7255 C 677.765 4.41328 -0.417651 0
M  V30 7256 H 674.985 0.635798 -0.214481 0
M  V30 7257 H 677.529 1.63618 -1.22676 0
M  V30 7258 H 675.684 3.8713 -0.144676 0
M  V30 7259 H 676.098 4.77763 -2.16431 0
M  V30 7260 H 677.572 5.48642 -0.607919 0
M  V30 7261 H 678.049 4.34422 0.646108 0
M  V30 7262 H 678.655 4.13074 -1.01241 0
M  V30 7263 N 676.97 0.677563 1.42291 0
M  V30 7264 C 677.9 0.014968 2.33495 0
M  V30 7265 C 678.881 -0.786376 1.50831 0
M  V30 7266 O 680.066 -0.742975 1.79426 0
M  V30 7267 C 677.196 -0.935023 3.34477 0
M  V30 7268 C 676.15 -0.242074 4.27315 0
M  V30 7269 C 675.476 -1.30519 5.18526 0
M  V30 7270 C 676.776 0.880604 5.14823 0
M  V30 7271 H 678.47 0.776671 2.89151 0
M  V30 7272 H 676.016 0.37494 1.39033 0
M  V30 7273 H 677.969 -1.40766 3.97194 0
M  V30 7274 H 676.693 -1.72818 2.77131 0
M  V30 7275 H 675.352 0.210351 3.65996 0
M  V30 7276 H 675 -2.09041 4.57505 0
M  V30 7277 H 674.7 -0.846652 5.81468 0
M  V30 7278 H 676.224 -1.7787 5.84119 0
M  V30 7279 H 677.638 0.489062 5.7121 0
M  V30 7280 H 676.035 1.26511 5.86613 0
M  V30 7281 H 677.105 1.72818 4.53059 0
M  V30 7282 N 678.448 -1.51871 0.421078 0
M  V30 7283 C 679.411 -2.25914 -0.386712 0
M  V30 7284 C 680.411 -1.28733 -0.963555 0
M  V30 7285 O 681.601 -1.52579 -0.840556 0
M  V30 7286 C 678.733 -3.03853 -1.54551 0
M  V30 7287 H 679.926 -2.98754 0.261978 0
M  V30 7288 H 677.479 -1.5533 0.173862 0
M  V30 7289 H 678.214 -2.35392 -2.23072 0
M  V30 7290 H 677.999 -3.75215 -1.13824 0
M  V30 7291 H 679.489 -3.59984 -2.11663 0
M  V30 7292 N 679.926 -0.151884 -1.56866 0
M  V30 7293 C 681.203 0.543328 -1.87902 0
M  V30 7294 C 681.583 1.82636 -1.05864 0
M  V30 7295 O 680.931 2.28028 -0.146868 0
M  V30 7296 C 681.141 0.804056 -3.39611 0
M  V30 7297 C 682.489 1.14267 -4.08935 0
M  V30 7298 O 683.513 0.893248 -3.44818 0
M  V30 7299 O 682.372 1.61229 -5.22176 0
M  V30 7300 H 679.466 0.277724 -0.778973 0
M  V30 7301 H 682.012 -0.188862 -1.68646 0
M  V30 7302 H 680.784 -0.103772 -3.91162 0
M  V30 7303 H 680.407 1.59025 -3.64413 0
M  V30 7304 N 681.404 1.57128 0.121893 0
M  V30 7305 C 682.632 1.88883 0.844451 0
M  V30 7306 C 683.047 0.742824 1.73573 0
M  V30 7307 O 682.404 -0.286475 1.80238 0
M  V30 7308 C 682.455 3.20076 1.68029 0
M  V30 7309 O 682.176 4.30264 0.824898 0
M  V30 7310 C 683.677 3.65515 2.50826 0
M  V30 7311 H 680.897 0.62549 0.242907 0
M  V30 7312 H 683.441 2.04219 0.107151 0
M  V30 7313 H 681.596 3.06418 2.37038 0
M  V30 7314 H 682.01 5.05439 1.40113 0
M  V30 7315 H 683.484 4.60081 3.05008 0
M  V30 7316 H 683.961 2.92029 3.28048 0
M  V30 7317 H 684.567 3.81952 1.87064 0
M  V30 7318 N 682.882 -0.391992 1.52647 0
M  V30 7319 C 683.814 -1.49811 1.73463 0
M  V30 7320 C 684.827 -1.50734 0.615078 0
M  V30 7321 O 686.016 -1.5469 0.890696 0
M  V30 7322 C 683.116 -2.88667 1.77552 0
M  V30 7323 C 682.289 -3.11743 3.06815 0
M  V30 7324 C 681.348 -4.30564 3.02491 0
M  V30 7325 O 680.374 -4.27014 3.76361 0
M  V30 7326 N 681.576 -5.36593 2.21468 0
M  V30 7327 H 684.341 -1.32343 2.68897 0
M  V30 7328 H 681.902 -0.581475 1.51098 0
M  V30 7329 H 683.894 -3.66251 1.7217 0
M  V30 7330 H 682.464 -2.99508 0.895181 0
M  V30 7331 H 681.684 -2.2205 3.25711 0
M  V30 7332 H 682.972 -3.24013 3.92292 0
M  V30 7333 H 682.37 -5.42332 1.60913 0
M  V30 7334 H 680.927 -6.12855 2.21928 0
M  V30 7335 N 684.36 -1.4356 -0.65026 0
M  V30 7336 C 685.27 -1.514 -1.79207 0
M  V30 7337 C 686.286 -0.400895 -1.69319 0
M  V30 7338 O 687.462 -0.655458 -1.90436 0
M  V30 7339 C 684.527 -1.43737 -3.155 0
M  V30 7340 C 683.588 -2.65743 -3.37163 0
M  V30 7341 C 682.821 -2.58436 -4.66954 0
M  V30 7342 O 683.044 -1.63374 -5.46503 0
M  V30 7343 O 681.978 -3.48984 -4.90402 0
M  V30 7344 H 685.804 -2.47825 -1.75547 0
M  V30 7345 H 683.389 -1.25594 -0.809111 0
M  V30 7346 H 685.271 -1.41916 -3.96784 0
M  V30 7347 H 683.946 -0.504488 -3.19745 0
M  V30 7348 H 682.853 -2.73136 -2.55632 0
M  V30 7349 H 684.186 -3.58014 -3.37768 0
M  V30 7350 N 685.838 0.888903 -1.30139 0
M  V30 7351 C 686.786 2.0156 -1.16088 0
M  V30 7352 C 687.78 1.69239 -0.0737413 0
M  V30 7353 O 688.986 1.78468 -0.234313 0
M  V30 7354 H 685.361 0.660825 -0.358907 0
M  V30 7355 H 687.332 2.10547 -2.11453 0
M  V30 7356 C 686.081 3.36758 -0.865426 0
M  V30 7357 H 685.404 3.62137 -1.69402 0
M  V30 7358 H 686.844 4.16246 -0.807192 0
M  V30 7359 C 685.303 3.34124 0.431577 0
M  V30 7360 O 685.833 3.7445 1.45431 0
M  V30 7361 N 684.039 2.87229 0.441321 0
M  V30 7362 H 683.586 2.54609 -0.391433 0
M  V30 7363 H 683.544 2.8585 1.30909 0
M  V30 7364 N 687.317 1.12792 1.10072 0
M  V30 7365 C 688.563 0.886857 1.82381 0
M  V30 7366 C 688.896 -0.58576 1.85155 0
M  V30 7367 O 688.171 -1.43317 1.31493 0
M  V30 7368 C 688.454 1.46703 3.28862 0
M  V30 7369 C 688.307 3.00829 3.34398 0
M  V30 7370 C 689.626 1.12971 4.25353 0
M  V30 7371 H 686.745 0.32362 0.662148 0
M  V30 7372 H 689.387 1.39513 1.28982 0
M  V30 7373 H 687.537 1.03476 3.74466 0
M  V30 7374 H 689.209 3.52764 2.97247 0
M  V30 7375 H 687.452 3.36164 2.74183 0
M  V30 7376 H 688.123 3.36519 4.3756 0
M  V30 7377 H 690.599 1.50313 3.88001 0
M  V30 7378 H 689.475 1.56223 5.26199 0
M  V30 7379 H 689.736 0.0424452 4.4208 0
M  V30 7380 N 688.795 -1.27931 0.920396 0
M  V30 7381 C 689.728 -2.2537 0.358285 0
M  V30 7382 C 690.706 -1.53328 -0.541242 0
M  V30 7383 O 691.89 -1.82196 -0.483399 0
M  V30 7384 C 689.017 -3.35178 -0.487193 0
M  V30 7385 C 688.063 -4.25079 0.347881 0
M  V30 7386 S 688.896 -5.05792 1.75883 0
M  V30 7387 C 690.052 -6.19089 0.920832 0
M  V30 7388 H 690.285 -2.72701 1.18413 0
M  V30 7389 H 687.818 -1.36474 0.722088 0
M  V30 7390 H 689.776 -3.98895 -0.96916 0
M  V30 7391 H 688.437 -2.865 -1.28749 0
M  V30 7392 H 687.63 -5.03113 -0.298912 0
M  V30 7393 H 687.232 -3.66119 0.763748 0
M  V30 7394 H 689.524 -6.77326 0.15349 0
M  V30 7395 H 690.467 -6.8803 1.67394 0
M  V30 7396 H 690.875 -5.62573 0.466069 0
M  V30 7397 N 690.273 -0.685099 -1.4193 0
M  V30 7398 C 691.183 -0.013404 -2.34596 0
M  V30 7399 C 692.199 0.777589 -1.55658 0
M  V30 7400 O 693.375 0.717553 -1.88184 0
M  V30 7401 C 690.44 0.919031 -3.34297 0
M  V30 7402 C 689.501 0.121417 -4.29128 0
M  V30 7403 C 688.734 1.00944 -5.24067 0
M  V30 7404 O 688.957 2.24898 -5.24192 0
M  V30 7405 O 687.891 0.464724 -6.00103 0
M  V30 7406 H 691.717 -0.776978 -2.93593 0
M  V30 7407 H 689.302 -0.445379 -1.42607 0
M  V30 7408 H 691.184 1.45402 -3.9552 0
M  V30 7409 H 689.859 1.66228 -2.77759 0
M  V30 7410 H 688.766 -0.45792 -3.71287 0
M  V30 7411 H 690.099 -0.582937 -4.88736 0
M  V30 7412 N 691.751 1.51645 -0.429126 0
M  V30 7413 C 692.981 2.06133 0.138793 0
M  V30 7414 C 693.389 1.29735 1.37716 0
M  V30 7415 O 692.732 0.347955 1.80375 0
M  V30 7416 C 692.794 3.55504 0.534493 0
M  V30 7417 C 692.458 4.53098 -0.595917 0
M  V30 7418 C 693.455 4.98815 -1.46558 0
M  V30 7419 C 691.14 4.96296 -0.774309 0
M  V30 7420 C 693.134 5.86394 -2.4984 0
M  V30 7421 C 690.821 5.83667 -1.81042 0
M  V30 7422 C 691.819 6.28613 -2.67086 0
M  V30 7423 O 691.507 7.14251 -3.68919 0
M  V30 7424 H 691.239 0.675833 0.0150263 0
M  V30 7425 H 693.793 1.96301 -0.604584 0
M  V30 7426 H 692.023 3.63092 1.33045 0
M  V30 7427 H 693.712 3.92545 1.03262 0
M  V30 7428 H 694.478 4.66143 -1.33925 0
M  V30 7429 H 690.357 4.60859 -0.114178 0
M  V30 7430 H 693.901 6.21398 -3.17034 0
M  V30 7431 H 689.798 6.15753 -1.93698 0
M  V30 7432 H 690.566 7.3241 -3.65402 0
M  V30 7433 N 693.229 0.160201 1.56784 0
M  V30 7434 C 694.159 -0.770264 2.2043 0
M  V30 7435 C 695.14 -1.24736 1.15651 0
M  V30 7436 O 696.325 -1.30253 1.44041 0
M  V30 7437 C 693.455 -2.00427 2.83631 0
M  V30 7438 C 692.409 -1.66345 3.94352 0
M  V30 7439 C 691.735 -2.97119 4.4455 0
M  V30 7440 C 693.035 -0.899972 5.14488 0
M  V30 7441 H 694.729 -0.239783 2.98438 0
M  V30 7442 H 692.275 -0.113891 1.43549 0
M  V30 7443 H 694.228 -2.66012 3.26827 0
M  V30 7444 H 692.952 -2.5587 2.02973 0
M  V30 7445 H 691.611 -1.03133 3.51794 0
M  V30 7446 H 691.259 -3.5058 3.60698 0
M  V30 7447 H 690.959 -2.75073 5.19238 0
M  V30 7448 H 692.483 -3.63753 4.90425 0
M  V30 7449 H 693.897 -1.45818 5.54446 0
M  V30 7450 H 692.294 -0.778968 5.95023 0
M  V30 7451 H 693.364 0.105827 4.84785 0
M  V30 7452 N 694.707 -1.5719 -0.113559 0
M  V30 7453 C 695.657 -1.97166 -1.14497 0
M  V30 7454 C 696.641 -0.847413 -1.36776 0
M  V30 7455 O 697.833 -1.11114 -1.37777 0
M  V30 7456 C 694.962 -2.38411 -2.47013 0
M  V30 7457 C 694.048 -3.5748 -2.28185 0
M  V30 7458 N 694.439 -4.72998 -1.79182 0
M  V30 7459 C 692.737 -3.63218 -2.58821 0
M  V30 7460 C 693.438 -5.55007 -1.74191 0
M  V30 7461 N 692.414 -4.9765 -2.18735 0
M  V30 7462 H 696.216 -2.83937 -0.758733 0
M  V30 7463 H 693.73 -1.59191 -0.321234 0
M  V30 7464 H 695.727 -2.65269 -3.21618 0
M  V30 7465 H 694.387 -1.53007 -2.8639 0
M  V30 7466 H 695.398 -4.96109 -1.48649 0
M  V30 7467 H 692.075 -2.88434 -3.01847 0
M  V30 7468 H 693.465 -6.57678 -1.37512 0
M  V30 7469 N 696.185 0.383891 -1.52853 0
M  V30 7470 C 697.431 1.13009 -1.68395 0
M  V30 7471 C 697.764 1.89488 -0.425195 0
M  V30 7472 O 697.039 1.8574 0.577136 0
M  V30 7473 C 697.322 2.10419 -2.92226 0
M  V30 7474 C 697.175 1.3767 -4.28214 0
M  V30 7475 C 698.494 3.10781 -3.11614 0
M  V30 7476 H 695.613 0.409463 -0.612788 0
M  V30 7477 H 698.255 0.412895 -1.85459 0
M  V30 7478 H 696.405 2.71579 -2.77808 0
M  V30 7479 H 698.077 0.794352 -4.54409 0
M  V30 7480 H 696.32 0.678533 -4.2846 0
M  V30 7481 H 696.991 2.08874 -5.10956 0
M  V30 7482 H 699.467 2.59715 -3.25096 0
M  V30 7483 H 698.343 3.76179 -3.99725 0
M  V30 7484 H 698.604 3.79933 -2.2606 0
M  V30 7485 N 697.663 1.43903 0.642637 0
M  V30 7486 C 698.593 1.52697 1.76652 0
M  V30 7487 C 699.574 0.380816 1.65782 0
M  V30 7488 O 700.759 0.599432 1.84717 0
M  V30 7489 C 697.889 1.45975 3.15133 0
M  V30 7490 C 696.843 2.58949 3.40778 0
M  V30 7491 C 696.169 2.37279 4.79169 0
M  V30 7492 C 697.469 4.01153 3.34475 0
M  V30 7493 H 699.163 2.46766 1.69549 0
M  V30 7494 H 696.709 1.18767 0.814279 0
M  V30 7495 H 698.662 1.5073 3.93521 0
M  V30 7496 H 697.386 0.484162 3.22991 0
M  V30 7497 H 696.045 2.53564 2.64765 0
M  V30 7498 H 695.693 1.37939 4.83717 0
M  V30 7499 H 695.393 3.13016 4.97287 0
M  V30 7500 H 696.917 2.43834 5.59801 0
M  V30 7501 H 698.331 4.07968 4.02784 0
M  V30 7502 H 696.728 4.77001 3.64129 0
M  V30 7503 H 697.798 4.25539 2.32475 0
M  V30 7504 N 699.141 -0.881989 1.30609 0
M  V30 7505 C 700.366 -1.67236 1.22665 0
M  V30 7506 C 700.791 -1.8696 -0.206777 0
M  V30 7507 O 700.149 -1.4027 -1.14865 0
M  V30 7508 C 700.197 -3.02446 1.96363 0
M  V30 7509 O 699.301 -3.91614 1.29276 0
M  V30 7510 H 698.642 -0.510902 0.424117 0
M  V30 7511 H 701.172 -1.10055 1.72479 0
M  V30 7512 H 701.182 -3.52468 2.055 0
M  V30 7513 H 699.857 -2.8741 3.00613 0
M  V30 7514 H 698.434 -3.50055 1.28514 0
M  V30 7515 N 700.619 -1.13374 -1.09472 0
M  V30 7516 C 702.035 -0.871846 -1.33682 0
M  V30 7517 C 702.235 0.492847 -1.9538 0
M  V30 7518 O 701.291 1.23946 -2.19985 0
M  V30 7519 C 702.604 -1.99608 -2.24893 0
M  V30 7520 C 704.152 -2.02812 -2.38404 0
M  V30 7521 C 704.627 -3.14497 -3.3295 0
M  V30 7522 N 706.118 -3.14004 -3.40523 0
M  V30 7523 C 706.853 -3.97061 -4.13679 0
M  V30 7524 N 706.349 -4.90131 -4.89636 0
M  V30 7525 N 708.142 -3.85162 -4.09398 0
M  V30 7526 H 700.293 -2.01288 -0.677995 0
M  V30 7527 H 702.556 -0.876492 -0.361201 0
M  V30 7528 H 702.262 -2.98 -1.86786 0
M  V30 7529 H 702.136 -1.90981 -3.25278 0
M  V30 7530 H 704.523 -1.05034 -2.75775 0
M  V30 7531 H 704.604 -2.15511 -1.37799 0
M  V30 7532 H 704.248 -4.12514 -2.96302 0
M  V30 7533 H 704.178 -2.99035 -4.33458 0
M  V30 7534 H 706.669 -2.46587 -2.86362 0
M  V30 7535 H 706.982 -5.49996 -5.42885 0
M  V30 7536 H 705.327 -4.94138 -4.88726 0
M  V30 7537 H 708.518 -3.11779 -3.49158 0
M  V30 7538 H 708.691 -4.5012 -4.6615 0
M  V30 7539 N 702.098 1.27442 -0.927168 0
M  V30 7540 C 703.509 1.76385 -0.611979 0
M  V30 7541 C 703.86 1.75715 0.872853 0
M  V30 7542 O 702.985 1.3603 1.683 0
M  V30 7543 C 703.58 3.20303 -1.10414 0
M  V30 7544 C 702.139 3.66916 -0.839628 0
M  V30 7545 C 701.286 2.46859 -1.26317 0
M  V30 7546 H 704.237 1.13716 -1.107 0
M  V30 7547 H 704.258 3.77811 -0.451578 0
M  V30 7548 H 703.77 3.20759 -2.18484 0
M  V30 7549 H 701.871 3.71906 0.227292 0
M  V30 7550 H 701.984 4.56415 -1.45679 0
M  V30 7551 H 700.348 2.45407 -0.681723 0
M  V30 7552 H 701.131 2.50025 -2.3525 0
M  V30 7553 N 703.576 0.692616 1.41565 0
M  V30 7554 C 704.509 -0.025063 2.28186 0
M  V30 7555 C 705.487 -0.790912 1.42068 0
M  V30 7556 O 706.671 -0.782344 1.71498 0
M  V30 7557 C 703.798 -1.04285 3.22246 0
M  V30 7558 C 702.844 -0.370515 4.24888 0
M  V30 7559 S 703.677 0.884942 5.28137 0
M  V30 7560 C 704.833 -0.131324 6.25762 0
M  V30 7561 H 705.066 0.709626 2.88707 0
M  V30 7562 H 702.599 0.482783 1.46658 0
M  V30 7563 H 704.557 -1.62493 3.7697 0
M  V30 7564 H 703.218 -1.7501 2.60827 0
M  V30 7565 H 702.411 -1.13911 4.90959 0
M  V30 7566 H 702.013 0.138411 3.73744 0
M  V30 7567 H 704.305 -0.985527 6.70294 0
M  V30 7568 H 705.248 0.495384 7.06365 0
M  V30 7569 H 705.656 -0.484777 5.62415 0
M  V30 7570 N 705.054 -1.51416 0.437162 0
M  V30 7571 C 706.3 -2.02386 -0.129555 0
M  V30 7572 C 706.633 -1.32071 -1.42376 0
M  V30 7573 O 705.908 -0.43559 -1.8956 0
M  V30 7574 C 706.191 -3.5841 -0.348487 0
M  V30 7575 C 706.044 -4.39341 0.964352 0
M  V30 7576 C 707.363 -4.25654 -1.11834 0
M  V30 7577 H 704.482 -0.735587 -0.0456109 0
M  V30 7578 H 707.124 -1.81055 0.576124 0
M  V30 7579 H 705.274 -3.76716 -0.949592 0
M  V30 7580 H 706.946 -4.32685 1.59942 0
M  V30 7581 H 705.189 -4.04432 1.56898 0
M  V30 7582 H 705.86 -5.4667 0.765212 0
M  V30 7583 H 708.336 -4.11617 -0.609165 0
M  V30 7584 H 707.212 -5.34704 -1.24029 0
M  V30 7585 H 707.473 -3.86502 -2.14636 0
M  V30 7586 N 706.532 -0.168513 -1.56696 0
M  V30 7587 C 707.781 0.477233 -1.95973 0
M  V30 7588 C 708.094 1.64578 -1.05704 0
M  V30 7589 O 709.3 2.35758 -1.3465 0
M  V30 7590 C 707.756 0.900413 -3.48455 0
M  V30 7591 C 707.364 -0.242382 -4.47344 0
M  V30 7592 C 709.108 1.51474 -3.96555 0
M  V30 7593 C 707.015 0.200272 -5.91061 0
M  V30 7594 H 705.945 0.182061 -0.73169 0
M  V30 7595 H 708.596 -0.256297 -1.81701 0
M  V30 7596 H 706.978 1.68984 -3.58135 0
M  V30 7597 H 708.152 -1.01967 -4.49377 0
M  V30 7598 H 706.467 -0.766484 -4.09285 0
M  V30 7599 H 709.064 1.85792 -5.01384 0
M  V30 7600 H 709.407 2.41163 -3.39332 0
M  V30 7601 H 709.94 0.789802 -3.89881 0
M  V30 7602 H 706.679 -0.661775 -6.52151 0
M  V30 7603 H 706.199 0.942979 -5.92341 0
M  V30 7604 H 707.878 0.645088 -6.43776 0
M  V30 7605 N 708.01 1.57248 0.105221 0
M  V30 7606 C 708.958 2.02337 1.14728 0
M  V30 7607 C 709.952 0.922652 1.42069 0
M  V30 7608 O 711.158 1.10785 1.41869 0
M  V30 7609 H 707.533 0.644682 0.387155 0
M  V30 7610 H 709.504 2.89063 0.740607 0
M  V30 7611 C 708.253 2.45513 2.46209 0
M  V30 7612 H 707.576 3.29785 2.26013 0
M  V30 7613 H 709.016 2.80846 3.1765 0
M  V30 7614 C 707.475 1.3243 3.09781 0
M  V30 7615 O 708.005 0.647841 3.96442 0
M  V30 7616 N 706.211 1.07785 2.69872 0
M  V30 7617 H 705.758 1.62973 1.99493 0
M  V30 7618 H 705.716 0.323204 3.12734 0
M  V30 7619 N 709.488 -0.375779 1.53054 0
M  V30 7620 C 710.438 -1.45965 1.75152 0
M  V30 7621 C 711.422 -1.49059 0.605823 0
M  V30 7622 O 712.614 -1.54472 0.864133 0
M  V30 7623 C 709.743 -2.83524 1.93569 0
M  V30 7624 C 708.829 -2.84949 3.1411 0
M  V30 7625 N 709.22 -2.56029 4.36214 0
M  V30 7626 C 707.518 -3.16113 3.14625 0
M  V30 7627 C 708.219 -2.64873 5.17897 0
M  V30 7628 N 707.195 -2.99159 4.53878 0
M  V30 7629 H 710.997 -1.22454 2.67175 0
M  V30 7630 H 708.511 -0.583867 1.51541 0
M  V30 7631 H 710.508 -3.61578 2.07525 0
M  V30 7632 H 709.168 -3.08008 1.02768 0
M  V30 7633 H 710.179 -2.29808 4.64121 0
M  V30 7634 H 706.856 -3.45977 2.3368 0
M  V30 7635 H 708.246 -2.45947 6.25268 0
M  V30 7636 N 710.966 -1.44241 -0.634997 0
M  V30 7637 C 712.243 -1.37296 -1.39317 0
M  V30 7638 C 712.623 -0.0297532 -2.11079 0
M  V30 7639 O 711.971 0.987524 -2.06059 0
M  V30 7640 C 712.181 -2.56853 -2.36279 0
M  V30 7641 C 713.529 -3.00747 -2.99728 0
M  V30 7642 O 714.553 -2.5703 -2.46605 0
M  V30 7643 O 713.412 -3.76533 -3.96087 0
M  V30 7644 H 710.506 -0.543503 -0.623325 0
M  V30 7645 H 713.052 -1.56324 -0.660376 0
M  V30 7646 H 711.824 -3.46228 -1.82324 0
M  V30 7647 H 711.447 -2.40019 -3.16981 0
M  V30 7648 N 712.444 0.87505 -1.31075 0
M  V30 7649 C 713.394 1.96933 -1.14898 0
M  V30 7650 C 714.378 1.60783 -0.0613703 0
M  V30 7651 O 715.57 1.74678 -0.285751 0
M  V30 7652 C 712.699 3.3253 -0.853166 0
M  V30 7653 C 711.785 3.74963 -1.98151 0
M  V30 7654 N 712.176 3.89403 -3.22799 0
M  V30 7655 C 710.474 4.04436 -1.8801 0
M  V30 7656 C 711.175 4.25563 -3.96574 0
M  V30 7657 N 710.151 4.3597 -3.24701 0
M  V30 7658 H 713.953 2.06201 -2.09424 0
M  V30 7659 H 711.467 1.06551 -1.22558 0
M  V30 7660 H 713.464 4.10666 -0.718266 0
M  V30 7661 H 712.124 3.24592 0.0839218 0
M  V30 7662 H 713.135 3.74266 -3.57974 0
M  V30 7663 H 709.812 4.04915 -1.01733 0
M  V30 7664 H 711.202 4.44375 -5.03965 0
M  V30 7665 N 713.922 1.13953 1.08869 0
M  V30 7666 C 715.199 0.815768 1.77777 0
M  V30 7667 C 715.579 -0.691624 1.99449 0
M  V30 7668 O 714.927 -1.63085 1.60049 0
M  V30 7669 C 715.137 1.60916 3.09689 0
M  V30 7670 C 716.485 1.80549 3.84301 0
M  V30 7671 O 717.509 1.57562 3.19457 0
M  V30 7672 O 716.368 2.18946 5.00724 0
M  V30 7673 H 713.462 0.298445 0.771271 0
M  V30 7674 H 716.008 1.24446 1.15374 0
M  V30 7675 H 714.78 2.6333 2.89435 0
M  V30 7676 H 714.403 1.17578 3.79817 0
M  V30 7677 N 715.4 -1.26948 0.933913 0
M  V30 7678 C 716.649 -1.93378 0.573409 0
M  V30 7679 C 716.962 -1.74148 -0.890614 0
M  V30 7680 O 718.168 -2.34971 -1.36017 0
M  V30 7681 C 716.624 -3.46449 0.974747 0
M  V30 7682 C 716.232 -3.74425 2.45988 0
M  V30 7683 C 717.976 -4.18924 0.685791 0
M  V30 7684 C 715.883 -5.209 2.8003 0
M  V30 7685 H 714.813 -0.723952 0.210736 0
M  V30 7686 H 717.464 -1.44143 1.13557 0
M  V30 7687 H 715.846 -3.94528 0.341181 0
M  V30 7688 H 717.02 -3.37079 3.14188 0
M  V30 7689 H 715.335 -3.15167 2.72138 0
M  V30 7690 H 717.932 -5.26786 0.916546 0
M  V30 7691 H 718.275 -4.14587 -0.377217 0
M  V30 7692 H 718.808 -3.76687 1.27874 0
M  V30 7693 H 715.547 -5.30332 3.85264 0
M  V30 7694 H 715.067 -5.59369 2.16485 0
M  V30 7695 H 716.746 -5.88837 2.68105 0
M  V30 7696 N 716.879 -0.700114 -1.41195 0
M  V30 7697 C 718.128 -0.230082 -2.00383 0
M  V30 7698 C 718.441 1.17857 -1.56106 0
M  V30 7699 O 719.647 1.74631 -2.07885 0
M  V30 7700 C 718.103 -0.360447 -3.5809 0
M  V30 7701 C 717.711 -1.77475 -4.11347 0
M  V30 7702 C 719.455 0.0495799 -4.24471 0
M  V30 7703 C 717.362 -1.85653 -5.61504 0
M  V30 7704 H 716.292 -0.0822633 -0.749499 0
M  V30 7705 H 718.943 -0.868969 -1.6162 0
M  V30 7706 H 717.325 0.346768 -3.94479 0
M  V30 7707 H 718.499 -2.51109 -3.86369 0
M  V30 7708 H 716.814 -2.13486 -3.57509 0
M  V30 7709 H 719.411 0.00898219 -5.34699 0
M  V30 7710 H 719.754 1.08904 -4.01803 0
M  V30 7711 H 720.287 -0.607521 -3.93134 0
M  V30 7712 H 717.026 -2.87667 -5.89006 0
M  V30 7713 H 716.546 -1.1641 -5.88395 0
M  V30 7714 H 718.225 -1.62151 -6.26351 0
M  V30 7715 N 718.357 1.51182 -0.445186 0
M  V30 7716 C 719.603 2.03097 0.111049 0
M  V30 7717 C 719.958 1.32293 1.397 0
M  V30 7718 O 719.251 0.431529 1.86677 0
M  V30 7719 C 719.445 3.55408 0.376797 0
M  V30 7720 C 719.274 4.40969 -0.88185 0
M  V30 7721 C 718.044 4.85006 -1.41766 0
M  V30 7722 C 720.242 4.82876 -1.77017 0
M  V30 7723 N 718.224 5.54804 -2.62803 0
M  V30 7724 C 719.595 5.51821 -2.82654 0
M  V30 7725 C 721.65 4.64855 -1.78365 0
M  V30 7726 C 720.353 6.04655 -3.89595 0
M  V30 7727 C 722.379 5.18612 -2.84246 0
M  V30 7728 C 721.741 5.87509 -3.88603 0
M  V30 7729 H 717.84 0.781999 0.0012696 0
M  V30 7730 H 720.424 1.84976 -0.60761 0
M  V30 7731 H 718.595 3.73528 1.06449 0
M  V30 7732 H 720.327 3.93985 0.925082 0
M  V30 7733 H 717.082 4.6355 -0.970476 0
M  V30 7734 H 717.506 5.94326 -3.24201 0
M  V30 7735 H 722.148 4.11043 -0.990119 0
M  V30 7736 H 719.866 6.57518 -4.69782 0
M  V30 7737 H 723.452 5.06515 -2.86241 0
M  V30 7738 H 722.332 6.28358 -4.69186 0
M  V30 7739 N 719.835 0.176821 1.56605 0
M  V30 7740 C 721.063 -0.472828 2.01425 0
M  V30 7741 C 721.478 -1.56436 1.05703 0
M  V30 7742 O 720.835 -1.82405 0.058808 0
M  V30 7743 C 720.886 -1.04607 3.46034 0
M  V30 7744 O 720.607 0.00189608 4.381 0
M  V30 7745 C 722.108 -1.7734 4.06282 0
M  V30 7746 H 719.328 -0.120503 0.660091 0
M  V30 7747 H 721.872 0.280166 2.02572 0
M  V30 7748 H 720.027 -1.74953 3.45645 0
M  V30 7749 H 720.441 -0.422118 5.22799 0
M  V30 7750 H 721.915 -2.12703 5.09374 0
M  V30 7751 H 722.392 -2.67043 3.4869 0
M  V30 7752 H 722.998 -1.11623 4.10391 0
M  V30 7753 N 721.313 -1.57302 -0.09688 0
M  V30 7754 C 722.223 -2.05258 -1.13606 0
M  V30 7755 C 723.239 -0.977137 -1.43972 0
M  V30 7756 O 724.415 -1.29018 -1.54649 0
M  V30 7757 C 721.48 -2.46593 -2.43706 0
M  V30 7758 C 720.541 -3.68322 -2.20538 0
M  V30 7759 C 719.774 -4.07676 -3.44435 0
M  V30 7760 O 719.997 -3.47141 -4.52603 0
M  V30 7761 O 718.931 -5.00641 -3.34129 0
M  V30 7762 H 722.757 -2.94069 -0.758752 0
M  V30 7763 H 720.342 -1.46164 -0.309263 0
M  V30 7764 H 722.224 -2.73814 -3.20318 0
M  V30 7765 H 720.899 -1.6092 -2.80867 0
M  V30 7766 H 719.806 -3.4622 -1.41713 0
M  V30 7767 H 721.139 -4.54769 -1.88271 0
M  V30 7768 N 722.791 0.367657 -1.53252 0
M  V30 7769 C 723.754 1.43308 -1.78873 0
M  V30 7770 C 724.754 1.46671 -0.659115 0
M  V30 7771 O 725.944 1.47468 -0.927306 0
M  V30 7772 C 723.076 2.82442 -1.90892 0
M  V30 7773 H 724.269 1.21864 -2.74024 0
M  V30 7774 H 721.822 0.600668 -1.44297 0
M  V30 7775 H 722.557 3.09202 -0.978 0
M  V30 7776 H 722.342 2.81399 -2.73051 0
M  V30 7777 H 723.832 3.59601 -2.12314 0
M  V30 7778 N 724.269 1.44576 0.627338 0
M  V30 7779 C 725.499 1.50829 1.41189 0
M  V30 7780 C 725.907 0.133083 1.88731 0
M  V30 7781 O 725.25 -0.87199 1.61685 0
M  V30 7782 C 725.312 2.41449 2.66351 0
M  V30 7783 C 724.976 3.88549 2.40579 0
M  V30 7784 C 725.973 4.78981 2.0217 0
M  V30 7785 C 723.658 4.33287 2.54102 0
M  V30 7786 C 725.652 6.12153 1.77618 0
M  V30 7787 C 723.339 5.66505 2.29163 0
M  V30 7788 C 724.337 6.55756 1.9098 0
M  V30 7789 O 724.025 7.86506 1.66321 0
M  V30 7790 H 723.757 0.513797 0.439304 0
M  V30 7791 H 726.311 1.90256 0.774059 0
M  V30 7792 H 724.541 1.96955 3.32784 0
M  V30 7793 H 726.23 2.38608 3.28361 0
M  V30 7794 H 726.996 4.45689 1.91277 0
M  V30 7795 H 722.875 3.64074 2.82792 0
M  V30 7796 H 726.419 6.81776 1.47739 0
M  V30 7797 H 722.316 5.99358 2.39668 0
M  V30 7798 H 723.084 7.98341 1.80536 0
M  V30 7799 N 725.747 -0.868086 1.31537 0
M  V30 7800 C 726.68 -1.97871 1.13676 0
M  V30 7801 C 727.658 -1.62551 0.0397589 0
M  V30 7802 O 728.842 -1.87473 0.196539 0
M  V30 7803 C 725.969 -3.30577 0.73734 0
M  V30 7804 C 725.015 -3.8488 1.83765 0
M  V30 7805 S 725.848 -4.10106 3.44345 0
M  V30 7806 C 727.004 -5.45806 3.06344 0
M  V30 7807 H 727.237 -2.12719 2.07697 0
M  V30 7808 H 724.77 -1.01849 1.16044 0
M  V30 7809 H 726.728 -4.07274 0.513641 0
M  V30 7810 H 725.389 -3.13562 -0.183787 0
M  V30 7811 H 724.582 -4.80821 1.51085 0
M  V30 7812 H 724.184 -3.14981 2.01651 0
M  V30 7813 H 726.476 -6.27535 2.55354 0
M  V30 7814 H 727.419 -5.83437 4.01257 0
M  V30 7815 H 727.827 -5.0917 2.43734 0
M  V30 7816 N 727.225 -1.14528 -1.08264 0
M  V30 7817 C 728.502 -0.825185 -1.77342 0
M  V30 7818 C 728.882 0.681037 -1.99813 0
M  V30 7819 O 728.23 1.62234 -1.60912 0
M  V30 7820 C 728.44 -1.62556 -3.08831 0
M  V30 7821 C 729.788 -1.82585 -3.83338 0
M  V30 7822 O 730.812 -1.59254 -3.18617 0
M  V30 7823 O 729.671 -2.21598 -4.99556 0
M  V30 7824 H 726.765 -0.302531 -0.769678 0
M  V30 7825 H 729.311 -1.25056 -1.14713 0
M  V30 7826 H 728.083 -2.64862 -2.88035 0
M  V30 7827 H 727.706 -1.1959 -3.79189 0
M  V30 7828 N 728.703 1.26451 -0.940633 0
M  V30 7829 C 729.928 1.98407 -0.60412 0
M  V30 7830 C 730.353 1.69584 0.81382 0
M  V30 7831 O 729.711 0.943553 1.54812 0
M  V30 7832 C 729.759 3.50387 -0.852136 0
M  V30 7833 O 728.863 4.1233 0.076013 0
M  V30 7834 H 728.204 0.622466 -0.231153 0
M  V30 7835 H 730.734 1.60932 -1.26342 0
M  V30 7836 H 730.744 4.00614 -0.772816 0
M  V30 7837 H 729.419 3.70696 -1.88566 0
M  V30 7838 H 727.996 3.7286 -0.0543187 0
M  V30 7839 N 730.181 0.707592 1.40822 0
M  V30 7840 C 731.128 0.0499029 2.30746 0
M  V30 7841 C 732.098 -0.758718 1.47759 0
M  V30 7842 O 733.283 -0.724299 1.76518 0
M  V30 7843 C 730.423 -0.871756 3.33908 0
M  V30 7844 C 729.536 -0.0534655 4.31967 0
M  V30 7845 C 728.671 -0.973869 5.22197 0
M  V30 7846 C 727.71 -0.149194 6.11918 0
M  V30 7847 N 726.847 -1.02404 6.94592 0
M  V30 7848 H 731.687 0.822461 2.86426 0
M  V30 7849 H 729.224 0.417285 1.41057 0
M  V30 7850 H 731.182 -1.42028 3.9228 0
M  V30 7851 H 729.812 -1.61058 2.7975 0
M  V30 7852 H 728.864 0.612142 3.75442 0
M  V30 7853 H 730.176 0.585354 4.95353 0
M  V30 7854 H 729.33 -1.59121 5.85462 0
M  V30 7855 H 728.069 -1.64652 4.59065 0
M  V30 7856 H 727.074 0.481137 5.47691 0
M  V30 7857 H 728.299 0.519841 6.77107 0
M  V30 7858 H 726.245 -1.6825 6.34057 0
M  V30 7859 H 726.162 -0.441076 7.54712 0
M  V30 7860 H 727.43 -1.62782 7.62314 0
M  V30 7861 N 731.66 -1.50943 0.453197 0
M  V30 7862 C 732.59 -2.31005 -0.34044 0
M  V30 7863 C 733.571 -1.37112 -1.00669 0
M  V30 7864 O 734.756 -1.66033 -1.0073 0
M  V30 7865 C 731.886 -3.16358 -1.433 0
M  V30 7866 C 730.84 -4.18658 -0.889363 0
M  V30 7867 C 730.166 -4.92633 -2.07887 0
M  V30 7868 C 731.466 -5.22227 0.0871142 0
M  V30 7869 H 733.16 -2.97601 0.327723 0
M  V30 7870 H 730.706 -1.43119 0.159054 0
M  V30 7871 H 732.659 -3.71155 -1.99555 0
M  V30 7872 H 731.383 -2.47613 -2.12968 0
M  V30 7873 H 730.042 -3.64936 -0.348915 0
M  V30 7874 H 729.69 -4.20376 -2.76211 0
M  V30 7875 H 729.39 -5.61819 -1.72143 0
M  V30 7876 H 730.914 -5.50258 -2.64666 0
M  V30 7877 H 732.328 -5.72001 -0.385656 0
M  V30 7878 H 730.725 -5.99032 0.357926 0
M  V30 7879 H 731.795 -4.74077 1.01879 0
M  V30 7880 N 733.138 -0.185124 -1.56509 0
M  V30 7881 C 734.068 0.735098 -2.21627 0
M  V30 7882 C 735.049 1.2288 -1.1762 0
M  V30 7883 O 736.234 1.27945 -1.46095 0
M  V30 7884 C 733.364 1.95889 -2.86783 0
M  V30 7885 C 732.318 1.6005 -3.96948 0
M  V30 7886 C 731.644 2.90009 -4.4922 0
M  V30 7887 C 732.944 0.818008 -5.15855 0
M  V30 7888 H 734.638 0.192274 -2.98782 0
M  V30 7889 H 732.184 0.0910393 -1.43712 0
M  V30 7890 H 734.137 2.60779 -3.31017 0
M  V30 7891 H 732.861 2.52608 -2.07018 0
M  V30 7892 H 731.52 0.975237 -3.5339 0
M  V30 7893 H 731.168 3.44797 -3.6623 0
M  V30 7894 H 730.868 2.66778 -5.23549 0
M  V30 7895 H 732.392 3.55904 -4.9615 0
M  V30 7896 H 733.806 1.36979 -5.56695 0
M  V30 7897 H 732.203 0.684207 -5.96187 0
M  V30 7898 H 733.273 -0.182939 -4.84555 0
M  V30 7899 N 734.616 1.57351 0.0885366 0
M  V30 7900 C 735.841 1.91011 0.80805 0
M  V30 7901 C 736.266 0.780009 1.71165 0
M  V30 7902 O 735.624 -0.268083 1.79307 0
M  V30 7903 C 735.672 3.23562 1.59185 0
M  V30 7904 O 734.776 3.11615 2.7013 0
M  V30 7905 H 734.117 0.625943 0.221565 0
M  V30 7906 H 736.647 2.04507 0.0617954 0
M  V30 7907 H 736.657 3.5703 1.97468 0
M  V30 7908 H 735.332 4.05398 0.928741 0
M  V30 7909 H 733.909 2.89673 2.34827 0
M  V30 7910 N 736.094 -0.359525 1.53444 0
M  V30 7911 C 737.319 -1.12644 1.74144 0
M  V30 7912 C 737.744 -1.82082 0.472007 0
M  V30 7913 O 737.102 -1.71962 -0.57436 0
M  V30 7914 C 737.15 -2.12781 2.9113 0
M  V30 7915 O 736.254 -3.19984 2.60162 0
M  V30 7916 H 735.595 -0.326553 0.578152 0
M  V30 7917 H 738.125 -0.414798 2.00351 0
M  V30 7918 H 738.135 -2.56278 3.17467 0
M  V30 7919 H 736.81 -1.61634 3.83207 0
M  V30 7920 H 735.387 -2.81417 2.44661 0
M  V30 7921 N 737.572 -1.44907 -0.619662 0
M  V30 7922 C 738.504 -1.48652 -1.74457 0
M  V30 7923 C 739.517 -0.378596 -1.58337 0
M  V30 7924 O 740.706 -0.644987 -1.6644 0
M  V30 7925 C 737.806 -1.31568 -3.12319 0
M  V30 7926 C 736.979 -2.55816 -3.54792 0
M  V30 7927 C 736.038 -2.33465 -4.71573 0
M  V30 7928 O 735.064 -3.07015 -4.79302 0
M  V30 7929 N 736.266 -1.37254 -5.6404 0
M  V30 7930 H 739.031 -2.45632 -1.71712 0
M  V30 7931 H 736.592 -1.40492 -0.804582 0
M  V30 7932 H 738.584 -1.14445 -3.88181 0
M  V30 7933 H 737.154 -0.429095 -3.09641 0
M  V30 7934 H 736.374 -2.88137 -2.69018 0
M  V30 7935 H 737.662 -3.38431 -3.79924 0
M  V30 7936 H 737.06 -0.765309 -5.60499 0
M  V30 7937 H 735.617 -1.26106 -6.39485 0
M  V30 7938 N 739.05 0.861098 -1.31996 0
M  V30 7939 C 740.013 1.95068 -1.20338 0
M  V30 7940 C 741.013 1.60289 -0.128114 0
M  V30 7941 O 742.203 1.70048 -0.378044 0
M  V30 7942 C 739.335 3.30153 -0.849205 0
M  V30 7943 H 740.528 2.06833 -2.17164 0
M  V30 7944 H 738.081 1.05049 -1.15734 0
M  V30 7945 H 738.816 3.24087 0.117508 0
M  V30 7946 H 738.601 3.56771 -1.62655 0
M  V30 7947 H 740.091 4.10025 -0.791782 0
M  V30 7948 N 740.528 1.15101 1.07655 0
M  V30 7949 C 741.46 0.802722 2.14684 0
M  V30 7950 C 742.473 -0.183874 1.61758 0
M  V30 7951 O 743.662 0.0389349 1.78458 0
M  V30 7952 C 740.762 0.172135 3.38463 0
M  V30 7953 C 739.935 1.19538 4.20749 0
M  V30 7954 C 738.994 0.58714 5.22914 0
M  V30 7955 O 738.02 1.25224 5.55255 0
M  V30 7956 N 739.222 -0.632566 5.77043 0
M  V30 7957 H 741.987 1.72379 2.45164 0
M  V30 7958 H 739.548 1.04647 1.23534 0
M  V30 7959 H 741.54 -0.247465 4.03943 0
M  V30 7960 H 740.11 -0.652214 3.0572 0
M  V30 7961 H 739.33 1.79165 3.51132 0
M  V30 7962 H 740.618 1.88636 4.7254 0
M  V30 7963 H 740.016 -1.19135 5.53013 0
M  V30 7964 H 738.573 -0.994566 6.44167 0
M  V30 7965 N 742.006 -1.2595 0.947325 0
M  V30 7966 C 743.231 -1.98083 0.614633 0
M  V30 7967 C 743.656 -1.70013 -0.804815 0
M  V30 7968 O 743.014 -0.95175 -1.54309 0
M  V30 7969 C 743.062 -3.4993 0.870706 0
M  V30 7970 O 742.166 -4.12364 -0.0541451 0
M  V30 7971 H 741.507 -0.621232 0.234451 0
M  V30 7972 H 744.037 -1.60259 1.27193 0
M  V30 7973 H 744.047 -4.00198 0.794051 0
M  V30 7974 H 742.722 -3.69691 1.90529 0
M  V30 7975 H 741.299 -3.72826 0.0740917 0
M  V30 7976 N 743.484 -0.715051 -1.40445 0
M  V30 7977 C 744.414 -0.0768699 -2.33373 0
M  V30 7978 C 745.395 0.746109 -1.52863 0
M  V30 7979 O 746.58 0.695142 -1.81332 0
M  V30 7980 C 743.71 0.846014 -3.36838 0
M  V30 7981 C 742.664 0.128694 -4.27806 0
M  V30 7982 C 741.99 1.16726 -5.21804 0
M  V30 7983 C 743.29 -1.01679 -5.12307 0
M  V30 7984 H 744.984 -0.853061 -2.8699 0
M  V30 7985 H 742.53 -0.41167 -1.3799 0
M  V30 7986 H 744.483 1.30185 -4.00786 0
M  V30 7987 H 743.207 1.6541 -2.81615 0
M  V30 7988 H 741.866 -0.307314 -3.6531 0
M  V30 7989 H 741.514 1.96838 -4.62887 0
M  V30 7990 H 741.214 0.692188 -5.83509 0
M  V30 7991 H 742.738 1.62321 -5.88629 0
M  V30 7992 H 744.152 -0.640337 -5.69713 0
M  V30 7993 H 742.549 -1.4202 -5.83053 0
M  V30 7994 H 743.619 -1.84769 -4.48317 0
M  V30 7995 N 744.962 1.50701 -0.461195 0
M  V30 7996 C 746.19 2.06681 0.0951756 0
M  V30 7997 C 746.605 1.32615 1.34382 0
M  V30 7998 O 745.962 0.392531 1.78229 0
M  V30 7999 C 746.013 3.59354 0.393316 0
M  V30 8000 O 745.734 4.30626 -0.805797 0
M  V30 8001 C 747.235 4.31926 0.997744 0
M  V30 8002 H 744.455 0.670995 -0.00267259 0
M  V30 8003 H 746.999 1.93991 -0.647137 0
M  V30 8004 H 745.154 3.7188 1.08555 0
M  V30 8005 H 745.568 5.21667 -0.544409 0
M  V30 8006 H 747.042 5.39756 1.15619 0
M  V30 8007 H 747.519 3.91772 1.98523 0
M  V30 8008 H 748.125 4.23905 0.344188 0
M  V30 8009 N 746.441 0.193421 1.56409 0
M  V30 8010 C 747.371 -0.723334 2.22014 0
M  V30 8011 C 748.352 -1.22254 1.1827 0
M  V30 8012 O 749.537 -1.27168 1.46771 0
M  V30 8013 C 746.667 -1.94366 2.87818 0
M  V30 8014 C 745.621 -1.57943 3.97791 0
M  V30 8015 C 744.947 -2.87623 4.50752 0
M  V30 8016 C 746.247 -0.790639 5.16281 0
M  V30 8017 H 747.941 -0.176426 2.9888 0
M  V30 8018 H 745.487 -0.0834166 1.43758 0
M  V30 8019 H 747.44 -2.5902 3.32396 0
M  V30 8020 H 746.164 -2.51507 2.08355 0
M  V30 8021 H 744.823 -0.956482 3.53903 0
M  V30 8022 H 744.471 -3.4285 3.68053 0
M  V30 8023 H 744.171 -2.63998 5.24956 0
M  V30 8024 H 745.695 -3.53268 4.9803 0
M  V30 8025 H 747.109 -1.34024 5.57414 0
M  V30 8026 H 745.506 -0.65258 5.96541 0
M  V30 8027 H 746.576 0.208633 4.84451 0
M  V30 8028 N 747.919 -1.57396 -0.0801906 0
M  V30 8029 C 748.849 -2.06145 -1.09665 0
M  V30 8030 C 749.83 -0.953273 -1.40878 0
M  V30 8031 O 751.015 -1.22548 -1.50651 0
M  V30 8032 C 748.145 -2.49836 -2.41245 0
M  V30 8033 C 747.099 -3.64454 -2.24405 0
M  V30 8034 C 746.425 -3.94172 -3.61293 0
M  V30 8035 C 747.725 -4.94807 -1.67223 0
M  V30 8036 H 749.419 -2.91316 -0.691028 0
M  V30 8037 H 746.965 -1.40145 -0.330957 0
M  V30 8038 H 748.918 -2.82552 -3.12638 0
M  V30 8039 H 747.642 -1.61683 -2.83771 0
M  V30 8040 H 746.301 -3.32008 -1.55454 0
M  V30 8041 H 745.949 -3.03163 -4.01374 0
M  V30 8042 H 745.649 -4.71345 -3.50867 0
M  V30 8043 H 747.173 -4.29376 -4.3413 0
M  V30 8044 H 748.587 -5.25807 -2.28472 0
M  V30 8045 H 746.984 -5.76245 -1.67515 0
M  V30 8046 H 748.054 -4.80751 -0.632944 0
M  V30 8047 N 749.397 0.351382 -1.53633 0
M  V30 8048 C 750.625 1.11275 -1.74429 0
M  V30 8049 C 751.04 1.82602 -0.479798 0
M  V30 8050 O 750.397 1.74074 0.548125 0
M  V30 8051 C 750.448 2.13223 -2.91921 0
M  V30 8052 O 750.169 1.44798 -4.13479 0
M  V30 8053 C 751.67 3.01797 -3.24706 0
M  V30 8054 H 748.89 0.332153 -0.583023 0
M  V30 8055 H 751.434 0.405974 -2.0043 0
M  V30 8056 H 749.589 2.79477 -2.68274 0
M  V30 8057 H 750.003 2.12839 -4.79374 0
M  V30 8058 H 751.477 3.69282 -4.10286 0
M  V30 8059 H 751.954 3.67387 -2.40673 0
M  V30 8060 H 752.56 2.41141 -3.5033 0
M  V30 8061 N 750.875 1.45233 0.611969 0
M  V30 8062 C 752.103 1.52539 1.39784 0
M  V30 8063 C 752.518 0.156533 1.8815 0
M  V30 8064 O 751.875 -0.84112 1.61961 0
M  V30 8065 C 751.926 2.50614 2.60528 0
M  V30 8066 O 751.647 3.8218 2.14173 0
M  V30 8067 C 753.148 2.67574 3.53439 0
M  V30 8068 H 750.368 0.51674 0.428043 0
M  V30 8069 H 752.912 1.90379 0.746727 0
M  V30 8070 H 751.067 2.15858 3.2169 0
M  V30 8071 H 751.481 4.35305 2.92592 0
M  V30 8072 H 752.955 3.40184 4.34717 0
M  V30 8073 H 753.432 1.73458 4.03496 0
M  V30 8074 H 754.038 3.0331 2.98133 0
M  V30 8075 N 752.353 -0.854086 1.3245 0
M  V30 8076 C 753.599 -1.61069 1.23225 0
M  V30 8077 C 753.932 -1.93111 -0.205349 0
M  V30 8078 O 753.207 -1.57397 -1.14265 0
M  V30 8079 C 753.49 -2.93065 2.09249 0
M  V30 8080 C 753.343 -2.67801 3.6139 0
M  V30 8081 C 754.662 -3.94341 1.95406 0
M  V30 8082 H 751.781 -0.584449 0.448986 0
M  V30 8083 H 754.423 -0.986189 1.62402 0
M  V30 8084 H 752.573 -3.46364 1.75967 0
M  V30 8085 H 754.245 -2.21052 4.04887 0
M  V30 8086 H 752.488 -2.01756 3.84027 0
M  V30 8087 H 753.159 -3.6179 4.16907 0
M  V30 8088 H 755.635 -3.50301 2.24562 0
M  V30 8089 H 754.511 -4.84555 2.57872 0
M  V30 8090 H 754.772 -4.32382 0.921865 0
M  V30 8091 N 753.831 -1.1567 -1.07043 0
M  V30 8092 C 754.794 -0.858906 -2.12498 0
M  V30 8093 C 755.794 0.142735 -1.60165 0
M  V30 8094 O 756.984 -0.0872678 -1.73981 0
M  V30 8095 C 754.116 -0.283021 -3.39723 0
M  V30 8096 H 755.309 -1.79368 -2.40348 0
M  V30 8097 H 752.862 -0.964608 -1.22984 0
M  V30 8098 H 753.597 0.659796 -3.17517 0
M  V30 8099 H 753.382 -1.00467 -3.7901 0
M  V30 8100 H 754.872 -0.0923543 -4.17498 0
M  V30 8101 N 755.309 1.25446 -0.953992 0
M  V30 8102 C 756.242 2.24341 -0.417912 0
M  V30 8103 C 757.22 1.54709 0.5004 0
M  V30 8104 O 758.404 1.83414 0.434923 0
M  V30 8105 C 755.531 3.36352 0.398155 0
M  V30 8106 C 754.577 4.24007 -0.460461 0
M  V30 8107 S 755.41 5.00951 -1.89231 0
M  V30 8108 C 756.566 6.1643 -1.08465 0
M  V30 8109 H 756.799 2.69465 -1.25602 0
M  V30 8110 H 754.332 1.34512 -0.758018 0
M  V30 8111 H 756.29 4.01325 0.863059 0
M  V30 8112 H 754.951 2.89813 1.21108 0
M  V30 8113 H 754.144 5.03728 0.165415 0
M  V30 8114 H 753.746 3.63965 -0.860549 0
M  V30 8115 H 756.038 6.76681 -0.333017 0
M  V30 8116 H 756.981 6.8335 -1.85577 0
M  V30 8117 H 757.389 5.61139 -0.615062 0
M  V30 8118 N 756.787 0.722489 1.40064 0
M  V30 8119 C 758.198 0.336507 1.83642 0
M  V30 8120 C 758.549 -1.13002 1.6039 0
M  V30 8121 O 757.674 -1.87036 1.08842 0
M  V30 8122 C 758.269 0.603985 3.33373 0
M  V30 8123 C 756.828 0.271637 3.75419 0
M  V30 8124 C 755.975 0.872898 2.63203 0
M  V30 8125 H 758.926 0.921108 1.29233 0
M  V30 8126 H 758.947 -0.128471 3.80283 0
M  V30 8127 H 758.459 1.67141 3.50265 0
M  V30 8128 H 756.56 -0.790455 3.64119 0
M  V30 8129 H 756.673 0.745457 4.73265 0
M  V30 8130 H 755.037 0.300431 2.52922 0
M  V30 8131 H 755.82 1.94473 2.82905 0
M  V30 8132 N 758.265 -1.50454 0.469181 0
M  V30 8133 C 759.511 -2.02615 -0.0865971 0
M  V30 8134 C 759.844 -1.35062 -1.39542 0
M  V30 8135 O 759.119 -0.475701 -1.88593 0
M  V30 8136 C 759.402 -3.59068 -0.272385 0
M  V30 8137 C 759.255 -4.37196 1.05733 0
M  V30 8138 C 760.574 -4.2793 -1.0278 0
M  V30 8139 H 757.693 -0.736389 -0.0299977 0
M  V30 8140 H 760.335 -1.79792 0.614399 0
M  V30 8141 H 758.485 -3.78646 -0.869471 0
M  V30 8142 H 760.157 -4.29195 1.69084 0
M  V30 8143 H 758.4 -4.01013 1.65442 0
M  V30 8144 H 759.071 -5.44924 0.880997 0
M  V30 8145 H 761.547 -4.12816 -0.521718 0
M  V30 8146 H 760.423 -5.37214 -1.12659 0
M  V30 8147 H 760.684 -3.90968 -2.0639 0
M  V30 8148 N 759.743 -0.201713 -1.56304 0
M  V30 8149 C 760.99 0.435307 -1.97766 0
M  V30 8150 C 761.318 1.61169 -1.0888 0
M  V30 8151 O 760.573 1.95272 -0.12934 0
M  V30 8152 C 760.872 0.931432 -3.45049 0
M  V30 8153 C 760.538 -0.132287 -4.50706 0
M  V30 8154 C 759.2 -0.424552 -4.79323 0
M  V30 8155 C 761.552 -0.852703 -5.14177 0
M  V30 8156 C 758.88 -1.4421 -5.68701 0
M  V30 8157 C 761.232 -1.85944 -6.04655 0
M  V30 8158 C 759.896 -2.15884 -6.31625 0
M  V30 8159 H 759.166 0.15929 -0.723676 0
M  V30 8160 H 761.813 -0.300069 -1.89134 0
M  V30 8161 H 760.118 1.7452 -3.50785 0
M  V30 8162 H 761.815 1.43383 -3.74489 0
M  V30 8163 H 758.405 0.105671 -4.2847 0
M  V30 8164 H 762.589 -0.640139 -4.92154 0
M  V30 8165 H 757.845 -1.6799 -5.87869 0
M  V30 8166 H 762.019 -2.42286 -6.52894 0
M  V30 8167 H 759.646 -2.94875 -7.0068 0
M  V30 8168 N 761.222 1.57436 0.0718424 0
M  V30 8169 C 762.447 1.91858 0.787745 0
M  V30 8170 C 762.872 0.798119 1.70328 0
M  V30 8171 O 762.23 -0.24905 1.79581 0
M  V30 8172 C 762.278 3.25232 1.55744 0
M  V30 8173 O 761.382 3.14462 2.6681 0
M  V30 8174 H 760.723 0.628258 0.214914 0
M  V30 8175 H 763.253 2.04561 0.0401012 0
M  V30 8176 H 763.263 3.59105 1.9367 0
M  V30 8177 H 761.938 4.0636 0.885691 0
M  V30 8178 H 760.515 2.92148 2.31741 0
M  V30 8179 N 762.7 -0.34323 1.53817 0
M  V30 8180 C 763.647 -1.42153 1.81827 0
M  V30 8181 C 764.617 -1.52251 0.663996 0
M  V30 8182 O 765.802 -1.67784 0.908461 0
M  V30 8183 C 762.942 -2.78799 2.03384 0
M  V30 8184 C 762.055 -2.7749 3.31094 0
M  V30 8185 C 761.19 -4.05856 3.42717 0
M  V30 8186 C 760.229 -3.98776 4.64375 0
M  V30 8187 N 759.366 -5.18833 4.73029 0
M  V30 8188 H 764.206 -1.17567 2.73829 0
M  V30 8189 H 761.743 -0.569506 1.35628 0
M  V30 8190 H 763.701 -3.58211 2.13872 0
M  V30 8191 H 762.331 -3.01736 1.14696 0
M  V30 8192 H 761.383 -1.90182 3.29446 0
M  V30 8193 H 762.695 -2.68137 4.206 0
M  V30 8194 H 761.849 -4.93691 3.52638 0
M  V30 8195 H 760.588 -4.1799 2.51267 0
M  V30 8196 H 759.593 -3.09325 4.5453 0
M  V30 8197 H 760.818 -3.88224 5.57189 0
M  V30 8198 H 758.764 -5.31511 3.84489 0
M  V30 8199 H 758.681 -5.11737 5.56472 0
M  V30 8200 H 759.949 -6.08439 4.87261 0
M  V30 8201 N 764.178 -1.45556 -0.604258 0
M  V30 8202 C 765.125 -1.54482 -1.71476 0
M  V30 8203 C 766.095 -0.390479 -1.61445 0
M  V30 8204 O 767.28 -0.604371 -1.80975 0
M  V30 8205 C 764.42 -1.52064 -3.09791 0
M  V30 8206 C 763.533 -2.78073 -3.30604 0
M  V30 8207 C 762.668 -2.67304 -4.59044 0
M  V30 8208 C 761.707 -3.88352 -4.73127 0
M  V30 8209 N 760.844 -3.76098 -5.9287 0
M  V30 8210 H 765.684 -2.49349 -1.63184 0
M  V30 8211 H 763.221 -1.23725 -0.795641 0
M  V30 8212 H 765.179 -1.48649 -3.89819 0
M  V30 8213 H 763.809 -0.607442 -3.17033 0
M  V30 8214 H 762.861 -2.91561 -2.44329 0
M  V30 8215 H 764.173 -3.67847 -3.36883 0
M  V30 8216 H 763.327 -2.61875 -5.47272 0
M  V30 8217 H 762.066 -1.75135 -4.55169 0
M  V30 8218 H 761.071 -3.94137 -3.83322 0
M  V30 8219 H 762.296 -4.81591 -4.78797 0
M  V30 8220 H 760.242 -2.867 -5.90033 0
M  V30 8221 H 760.159 -4.59509 -6.00323 0
M  V30 8222 H 761.427 -3.74607 -6.83586 0
M  V30 8223 N 765.656 0.84705 -1.32902 0
M  V30 8224 C 766.604 1.97765 -1.22441 0
M  V30 8225 C 767.598 1.68919 -0.127546 0
M  V30 8226 O 768.804 1.77633 -0.290973 0
M  V30 8227 H 765.179 0.649072 -0.379748 0
M  V30 8228 H 767.15 2.03713 -2.18044 0
M  V30 8229 C 765.899 3.33834 -0.972125 0
M  V30 8230 H 765.222 3.56564 -1.80837 0
M  V30 8231 H 766.662 4.13467 -0.939209 0
M  V30 8232 C 765.121 3.35328 0.325059 0
M  V30 8233 O 765.651 3.78887 1.33445 0
M  V30 8234 N 763.857 2.88488 0.349718 0
M  V30 8235 H 763.404 2.53234 -0.472236 0
M  V30 8236 H 763.362 2.8987 1.21748 0
M  V30 8237 N 767.134 1.16236 1.06428 0
M  V30 8238 C 768.044 0.881976 2.1739 0
M  V30 8239 C 769.06 -0.145259 1.73393 0
M  V30 8240 O 770.236 0.0310558 2.01376 0
M  V30 8241 C 767.301 0.385496 3.4455 0
M  V30 8242 C 766.362 1.47779 4.03063 0
M  V30 8243 C 765.595 1.0049 5.24154 0
M  V30 8244 O 765.818 -0.145889 5.70213 0
M  V30 8245 O 764.752 1.79265 5.74585 0
M  V30 8246 H 768.578 1.80983 2.43883 0
M  V30 8247 H 766.163 0.942226 1.15942 0
M  V30 8248 H 768.045 0.115536 4.21242 0
M  V30 8249 H 766.72 -0.514369 3.19587 0
M  V30 8250 H 765.627 1.80147 3.27869 0
M  V30 8251 H 766.96 2.35291 4.32318 0
M  V30 8252 N 768.612 -1.24939 0.960631 0
M  V30 8253 C 769.84 -1.96881 0.636045 0
M  V30 8254 C 770.255 -1.71334 -0.793093 0
M  V30 8255 O 769.612 -0.992917 -1.53125 0
M  V30 8256 C 769.663 -3.50309 0.892533 0
M  V30 8257 O 769.384 -3.74977 2.26548 0
M  V30 8258 C 770.885 -4.39474 0.581159 0
M  V30 8259 H 768.105 -0.627399 0.237931 0
M  V30 8260 H 770.649 -1.58952 1.28664 0
M  V30 8261 H 768.804 -3.86326 0.288257 0
M  V30 8262 H 769.218 -4.69401 2.34014 0
M  V30 8263 H 770.692 -5.46008 0.811125 0
M  V30 8264 H 771.169 -4.3652 -0.48443 0
M  V30 8265 H 771.775 -4.09032 1.16502 0
M  V30 8266 N 770.09 -0.729906 -1.39679 0
M  V30 8267 C 771.506 -0.404951 -1.54377 0
M  V30 8268 C 771.706 1.08476 -1.6981 0
M  V30 8269 O 770.762 1.87087 -1.69572 0
M  V30 8270 C 772.075 -1.18352 -2.76429 0
M  V30 8271 C 773.623 -1.17124 -2.9026 0
M  V30 8272 C 774.098 -1.93227 -4.15244 0
M  V30 8273 N 775.589 -1.90368 -4.22273 0
M  V30 8274 C 776.324 -2.46065 -5.17918 0
M  V30 8275 N 775.82 -3.10378 -6.19385 0
M  V30 8276 N 777.613 -2.36127 -5.10099 0
M  V30 8277 H 769.764 -1.69567 -1.27909 0
M  V30 8278 H 772.027 -0.717527 -0.619564 0
M  V30 8279 H 771.733 -2.23743 -2.71352 0
M  V30 8280 H 771.607 -0.784589 -3.6895 0
M  V30 8281 H 773.994 -0.125478 -2.94833 0
M  V30 8282 H 774.075 -1.60951 -1.98817 0
M  V30 8283 H 773.719 -2.97802 -4.11432 0
M  V30 8284 H 773.649 -1.4681 -5.05722 0
M  V30 8285 H 776.14 -1.4351 -3.4959 0
M  V30 8286 H 776.453 -3.50358 -6.88817 0
M  V30 8287 H 774.798 -3.14467 -6.19787 0
M  V30 8288 H 777.989 -1.85529 -4.29763 0
M  V30 8289 H 778.162 -2.79833 -5.84463 0
M  V30 8290 N 771.568 1.50203 -0.477153 0
M  V30 8291 C 772.793 2.07263 0.0754986 0
M  V30 8292 C 773.218 1.33801 1.32208 0
M  V30 8293 O 772.576 0.387482 1.77111 0
M  V30 8294 C 772.624 3.59028 0.336348 0
M  V30 8295 O 771.728 3.87339 1.4157 0
M  V30 8296 H 771.069 0.663815 -0.015662 0
M  V30 8297 H 773.599 1.93321 -0.669936 0
M  V30 8298 H 773.609 4.03927 0.575034 0
M  V30 8299 H 772.284 4.11912 -0.574551 0
M  V30 8300 H 770.861 3.54272 1.16385 0
M  V30 8301 N 773.046 0.209999 1.56195 0
M  V30 8302 C 773.996 -0.717978 2.164 0
M  V30 8303 C 774.98 -1.16577 1.10899 0
M  V30 8304 O 776.172 -1.12169 1.3692 0
M  V30 8305 C 773.301 -1.93091 2.8385 0
M  V30 8306 C 772.387 -1.50333 3.96561 0
M  V30 8307 N 772.778 -0.787621 4.9963 0
M  V30 8308 C 771.076 -1.79151 4.08437 0
M  V30 8309 C 771.777 -0.571204 5.78889 0
M  V30 8310 N 770.753 -1.12444 5.31843 0
M  V30 8311 H 774.555 -0.162603 2.9345 0
M  V30 8312 H 772.069 0.0107928 1.62396 0
M  V30 8313 H 774.066 -2.60635 3.25384 0
M  V30 8314 H 772.726 -2.49087 2.08293 0
M  V30 8315 H 773.737 -0.441513 5.16015 0
M  V30 8316 H 770.414 -2.36549 3.44022 0
M  V30 8317 H 771.804 -0.00237941 6.719 0
M  V30 8318 N 774.524 -1.57472 -0.0634922 0
M  V30 8319 C 775.772 -1.87283 -0.759563 0
M  V30 8320 C 776.093 -0.803135 -1.77693 0
M  V30 8321 O 775.363 0.167293 -1.95184 0
M  V30 8322 H 773.943 -0.691106 -0.283516 0
M  V30 8323 H 776.605 -1.94864 -0.0376091 0
M  V30 8324 H 775.701 -2.85064 -1.27062 0
M  V30 8325 N 776.003 0.335068 -1.53997 0
M  V30 8326 C 777.252 1.07182 -1.70865 0
M  V30 8327 C 777.565 1.89541 -0.483078 0
M  V30 8328 O 778.771 2.66219 -0.532879 0
M  V30 8329 C 777.227 1.95497 -3.02174 0
M  V30 8330 C 776.835 1.18304 -4.32097 0
M  V30 8331 C 778.579 2.68978 -3.28407 0
M  V30 8332 C 776.486 2.05699 -5.54474 0
M  V30 8333 H 775.416 0.403857 -0.636722 0
M  V30 8334 H 778.067 0.33076 -1.80494 0
M  V30 8335 H 776.449 2.73456 -2.86423 0
M  V30 8336 H 777.623 0.451969 -4.58578 0
M  V30 8337 H 775.938 0.565556 -4.12541 0
M  V30 8338 H 778.535 3.34651 -4.17029 0
M  V30 8339 H 778.878 3.36 -2.45784 0
M  V30 8340 H 779.411 1.98087 -3.44973 0
M  V30 8341 H 776.15 1.43204 -6.39666 0
M  V30 8342 H 775.67 2.76572 -5.32229 0
M  V30 8343 H 777.349 2.64554 -5.90441 0
M  V30 8344 N 777.481 1.45874 0.596531 0
M  V30 8345 C 778.411 1.5824 1.71705 0
M  V30 8346 C 779.392 0.433366 1.64487 0
M  V30 8347 O 780.577 0.657895 1.82717 0
M  V30 8348 C 777.707 1.55927 3.10329 0
M  V30 8349 C 776.661 2.69659 3.32367 0
M  V30 8350 C 775.987 2.52403 4.71377 0
M  V30 8351 C 777.287 4.11591 3.21544 0
M  V30 8352 H 778.981 2.52035 1.61613 0
M  V30 8353 H 776.527 1.21297 0.776082 0
M  V30 8354 H 778.48 1.63173 3.88526 0
M  V30 8355 H 777.204 0.586674 3.21288 0
M  V30 8356 H 775.863 2.61859 2.56564 0
M  V30 8357 H 775.511 1.53258 4.79083 0
M  V30 8358 H 775.211 3.28679 4.87077 0
M  V30 8359 H 776.735 2.6152 5.5176 0
M  V30 8360 H 778.149 4.20576 3.89601 0
M  V30 8361 H 776.546 4.88344 3.4877 0
M  V30 8362 H 777.616 4.32719 2.1882 0
M  V30 8363 N 778.959 -0.83999 1.33349 0
M  V30 8364 C 779.889 -1.965 1.26135 0
M  V30 8365 C 780.87 -1.69505 0.142152 0
M  V30 8366 O 782.055 -1.91346 0.331743 0
M  V30 8367 C 779.185 -3.32632 0.99866 0
M  V30 8368 C 778.139 -3.74021 2.08068 0
M  V30 8369 C 777.465 -5.07947 1.67014 0
M  V30 8370 C 778.765 -3.87925 3.49731 0
M  V30 8371 H 780.459 -2.02793 2.20262 0
M  V30 8372 H 778.005 -0.974297 1.06035 0
M  V30 8373 H 779.958 -4.10903 0.934696 0
M  V30 8374 H 778.682 -3.26593 0.0217759 0
M  V30 8375 H 777.341 -2.98012 2.13505 0
M  V30 8376 H 776.989 -4.98378 0.680316 0
M  V30 8377 H 776.689 -5.36611 2.39422 0
M  V30 8378 H 778.213 -5.88695 1.62082 0
M  V30 8379 H 779.627 -4.5651 3.46802 0
M  V30 8380 H 778.024 -4.28023 4.20614 0
M  V30 8381 H 779.094 -2.90407 3.88319 0
M  V30 8382 N 780.437 -1.16799 -1.0581 0
M  V30 8383 C 781.685 -0.950642 -1.78346 0
M  V30 8384 C 782.006 0.522524 -1.87869 0
M  V30 8385 O 781.276 1.3795 -1.39092 0
M  V30 8386 H 779.856 -0.348736 -0.6606 0
M  V30 8387 H 782.518 -1.47158 -1.27791 0
M  V30 8388 H 781.614 -1.37359 -2.80248 0
M  V30 8389 N 781.915 1.24427 -0.967243 0
M  V30 8390 C 783.161 1.92772 -0.629812 0
M  V30 8391 C 783.494 1.75436 0.832827 0
M  V30 8392 O 782.769 1.10716 1.59913 0
M  V30 8393 C 783.052 3.45798 -1.00477 0
M  V30 8394 C 782.905 3.72304 -2.52407 0
M  V30 8395 C 784.224 4.36787 -0.538999 0
M  V30 8396 H 781.343 0.700099 -0.230282 0
M  V30 8397 H 783.985 1.46805 -1.20616 0
M  V30 8398 H 782.135 3.8508 -0.514336 0
M  V30 8399 H 783.807 3.42584 -3.08924 0
M  V30 8400 H 782.05 3.17472 -2.95625 0
M  V30 8401 H 782.721 4.7937 -2.73693 0
M  V30 8402 H 785.197 4.04877 -0.959874 0
M  V30 8403 H 784.073 5.4259 -0.829926 0
M  V30 8404 H 784.334 4.38527 0.560923 0
M  V30 8405 N 783.393 0.737304 1.3929 0
M  V30 8406 C 784.639 0.286681 2.00763 0
M  V30 8407 C 784.972 -1.12388 1.58375 0
M  V30 8408 O 784.247 -1.76661 0.813699 0
M  V30 8409 C 784.53 0.391147 3.57969 0
M  V30 8410 C 784.383 1.84165 4.1037 0
M  V30 8411 C 785.702 -0.225072 4.39524 0
M  V30 8412 H 782.821 0.105642 0.729389 0
M  V30 8413 H 785.463 0.933892 1.65464 0
M  V30 8414 H 783.613 -0.159875 3.88171 0
M  V30 8415 H 785.285 2.44972 3.90879 0
M  V30 8416 H 783.528 2.3622 3.63844 0
M  V30 8417 H 784.199 1.866 5.19504 0
M  V30 8418 H 786.675 0.244677 4.1538 0
M  V30 8419 H 785.551 -0.121646 5.48765 0
M  V30 8420 H 785.812 -1.31141 4.22202 0
M  V30 8421 N 784.871 -1.49948 0.485112 0
M  V30 8422 C 786.119 -2.01996 -0.0648775 0
M  V30 8423 C 786.44 -1.36819 -1.38945 0
M  V30 8424 O 785.71 -0.518163 -1.88923 0
M  V30 8425 H 784.29 -0.746513 -0.0269662 0
M  V30 8426 H 786.952 -1.84136 0.638733 0
M  V30 8427 H 786.048 -3.11418 -0.20617 0
M  V30 8428 N 786.349 -0.21828 -1.56081 0
M  V30 8429 C 787.574 0.422302 -2.03055 0
M  V30 8430 C 787.999 1.5279 -1.09713 0
M  V30 8431 O 787.357 1.81102 -0.0847187 0
M  V30 8432 C 787.405 0.934177 -3.48289 0
M  V30 8433 O 786.509 2.04574 -3.58083 0
M  V30 8434 H 785.85 0.0959764 -0.657027 0
M  V30 8435 H 788.38 -0.335958 -2.01823 0
M  V30 8436 H 788.39 1.24484 -3.88546 0
M  V30 8437 H 787.065 0.124963 -4.15712 0
M  V30 8438 H 785.642 1.74196 -3.29712 0
M  V30 8439 N 787.827 1.57504 0.0551401 0
M  V30 8440 C 789.104 1.79155 0.785048 0
M  V30 8441 C 789.484 0.809995 1.94942 0
M  V30 8442 O 788.832 -0.153432 2.27984 0
M  V30 8443 C 789.042 3.26134 1.24247 0
M  V30 8444 C 790.39 3.90419 1.66908 0
M  V30 8445 O 791.414 3.30126 1.33772 0
M  V30 8446 O 790.273 4.96523 2.28314 0
M  V30 8447 H 787.367 0.735825 0.377479 0
M  V30 8448 H 789.913 1.69666 0.0339285 0
M  V30 8449 H 788.685 3.89145 0.410089 0
M  V30 8450 H 788.308 3.40411 2.05441 0
M  V30 8451 N 789.305 -0.326896 1.54172 0
M  V30 8452 C 790.551 -1.06681 1.72473 0
M  V30 8453 C 790.884 -1.87779 0.49523 0
M  V30 8454 O 790.159 -1.87754 -0.507803 0
M  V30 8455 C 790.442 -1.99429 2.99834 0
M  V30 8456 C 790.295 -1.21682 4.33028 0
M  V30 8457 C 791.614 -2.99002 3.22933 0
M  V30 8458 H 788.733 -0.386438 0.627563 0
M  V30 8459 H 791.375 -0.343779 1.86864 0
M  V30 8460 H 789.525 -2.61081 2.87696 0
M  V30 8461 H 791.197 -0.625153 4.57044 0
M  V30 8462 H 789.44 -0.519045 4.30684 0
M  V30 8463 H 790.111 -1.89766 5.18356 0
M  V30 8464 H 792.587 -2.4747 3.34511 0
M  V30 8465 H 791.463 -3.61085 4.13412 0
M  V30 8466 H 791.724 -3.71281 2.40006 0
M  V30 8467 N 790.784 -1.46188 -0.588786 0
M  V30 8468 C 791.747 -1.55882 -1.68029 0
M  V30 8469 C 792.747 -0.436515 -1.54762 0
M  V30 8470 O 793.937 -0.700626 -1.59489 0
M  V30 8471 C 791.069 -1.47332 -3.07418 0
M  V30 8472 H 792.262 -2.5315 -1.60795 0
M  V30 8473 H 789.815 -1.33908 -0.806116 0
M  V30 8474 H 790.55 -0.513193 -3.20214 0
M  V30 8475 H 790.335 -2.28753 -3.18456 0
M  V30 8476 H 791.825 -1.57187 -3.86887 0
M  V30 8477 N 792.262 0.832906 -1.33792 0
M  V30 8478 C 793.192 1.95828 -1.27176 0
M  V30 8479 C 794.173 1.69427 -0.15114 0
M  V30 8480 O 795.358 1.91167 -0.341886 0
M  V30 8481 C 792.488 3.32098 -1.01629 0
M  V30 8482 C 791.442 3.72912 -2.10049 0
M  V30 8483 C 790.768 5.07054 -1.69706 0
M  V30 8484 C 792.068 3.86064 -3.51783 0
M  V30 8485 H 793.762 2.01622 -2.21334 0
M  V30 8486 H 791.308 0.96866 -1.0655 0
M  V30 8487 H 793.261 4.10402 -0.956474 0
M  V30 8488 H 791.985 3.26577 -0.0390956 0
M  V30 8489 H 790.644 2.96876 -2.15082 0
M  V30 8490 H 790.292 4.9801 -0.706737 0
M  V30 8491 H 789.992 5.35333 -2.42264 0
M  V30 8492 H 791.516 5.87827 -1.65202 0
M  V30 8493 H 792.93 4.54665 -3.49218 0
M  V30 8494 H 791.327 4.25787 -4.22878 0
M  V30 8495 H 792.397 2.88344 -3.89854 0
M  V30 8496 N 793.74 1.17359 1.05189 0
M  V30 8497 C 795.156 0.920861 1.30355 0
M  V30 8498 C 795.356 -0.419993 1.97074 0
M  V30 8499 O 794.412 -1.15696 2.24434 0
M  V30 8500 C 795.725 2.07818 2.1733 0
M  V30 8501 C 797.273 2.1152 2.30712 0
M  V30 8502 C 797.748 3.26637 3.21048 0
M  V30 8503 N 799.239 3.26426 3.28634 0
M  V30 8504 C 799.974 4.12141 3.98657 0
M  V30 8505 N 799.47 5.07966 4.71107 0
M  V30 8506 N 801.263 4.00091 3.94821 0
M  V30 8507 H 793.414 2.03666 0.602821 0
M  V30 8508 H 795.677 0.889294 0.328421 0
M  V30 8509 H 795.383 3.04727 1.75597 0
M  V30 8510 H 795.257 2.02922 3.17966 0
M  V30 8511 H 797.644 1.15196 2.71687 0
M  V30 8512 H 797.725 2.20477 1.29706 0
M  V30 8513 H 797.369 4.23227 2.80788 0
M  V30 8514 H 797.299 3.14917 4.2206 0
M  V30 8515 H 799.79 2.57045 2.77013 0
M  V30 8516 H 800.103 5.69766 5.22099 0
M  V30 8517 H 798.448 5.11936 4.7005 0
M  V30 8518 H 801.639 3.24523 3.37346 0
M  V30 8519 H 801.812 4.6711 4.49123 0
M  V30 8520 N 795.218 -1.23913 0.973828 0
M  V30 8521 C 796.128 -2.28838 0.516735 0
M  V30 8522 C 797.144 -1.68723 -0.425282 0
M  V30 8523 O 798.32 -1.99201 -0.296819 0
M  V30 8524 C 795.385 -3.46233 -0.179914 0
M  V30 8525 C 794.446 -4.21729 0.80269 0
M  V30 8526 C 793.679 -5.33518 0.139191 0
M  V30 8527 O 793.902 -5.60252 -1.07118 0
M  V30 8528 O 792.836 -5.96088 0.834447 0
M  V30 8529 H 796.662 -2.70067 1.38916 0
M  V30 8530 H 794.247 -1.2972 0.74115 0
M  V30 8531 H 796.129 -4.17514 -0.570991 0
M  V30 8532 H 794.804 -3.06969 -1.02721 0
M  V30 8533 H 793.711 -3.52799 1.24434 0
M  V30 8534 H 795.044 -4.64825 1.61859 0
M  V30 8535 N 796.696 -0.74468 -1.38897 0
M  V30 8536 C 797.626 -0.126355 -2.33158 0
M  V30 8537 C 798.607 0.713517 -1.54412 0
M  V30 8538 O 799.792 0.656523 -1.82766 0
M  V30 8539 C 796.922 0.774375 -3.38557 0
M  V30 8540 C 795.876 0.0379214 -4.27983 0
M  V30 8541 C 795.202 1.05631 -5.24162 0
M  V30 8542 C 796.502 -1.12523 -5.10035 0
M  V30 8543 H 798.196 -0.913744 -2.85116 0
M  V30 8544 H 795.742 -0.440847 -1.37086 0
M  V30 8545 H 797.695 1.21655 -4.03458 0
M  V30 8546 H 796.419 1.59399 -2.85061 0
M  V30 8547 H 795.078 -0.384733 -3.64576 0
M  V30 8548 H 794.726 1.86975 -4.66958 0
M  V30 8549 H 794.426 0.568261 -5.84846 0
M  V30 8550 H 795.95 1.49799 -5.9194 0
M  V30 8551 H 797.364 -0.761037 -5.68226 0
M  V30 8552 H 795.761 -1.54355 -5.79909 0
M  V30 8553 H 796.831 -1.94237 -4.44297 0
M  V30 8554 N 798.174 1.49689 -0.493057 0
M  V30 8555 C 799.107 2.25712 0.336062 0
M  V30 8556 C 800.085 1.29953 0.977294 0
M  V30 8557 O 801.269 1.59225 1.00895 0
M  V30 8558 C 798.396 3.0501 1.47263 0
M  V30 8559 C 797.442 4.15863 0.946575 0
M  V30 8560 S 798.275 5.35272 -0.156323 0
M  V30 8561 C 799.431 6.18123 0.983601 0
M  V30 8562 H 799.664 2.95688 -0.309215 0
M  V30 8563 H 797.197 1.51872 -0.278238 0
M  V30 8564 H 799.155 3.51284 2.12391 0
M  V30 8565 H 797.816 2.34519 2.08949 0
M  V30 8566 H 797.009 4.70834 1.7981 0
M  V30 8567 H 796.611 3.72139 0.372647 0
M  V30 8568 H 798.903 6.50588 1.89056 0
M  V30 8569 H 799.846 7.06521 0.472687 0
M  V30 8570 H 800.254 5.50547 1.24735 0
M  V30 8571 N 799.652 0.226554 1.55963 0
M  V30 8572 C 800.599 -0.681504 2.20509 0
M  V30 8573 C 801.569 -1.1866 1.16229 0
M  V30 8574 O 802.754 -1.24478 1.44602 0
M  V30 8575 C 799.894 -1.88183 2.89277 0
M  V30 8576 C 799.007 -1.41517 4.08163 0
M  V30 8577 C 798.142 -2.57346 4.647 0
M  V30 8578 C 797.181 -2.07441 5.75877 0
M  V30 8579 N 796.318 -3.16561 6.26685 0
M  V30 8580 H 801.158 -0.124372 2.9774 0
M  V30 8581 H 798.695 -0.0496333 1.47016 0
M  V30 8582 H 800.653 -2.58666 3.27335 0
M  V30 8583 H 799.283 -2.41177 2.14555 0
M  V30 8584 H 798.335 -0.605099 3.75557 0
M  V30 8585 H 799.647 -1.00928 4.88482 0
M  V30 8586 H 798.801 -3.35903 5.05227 0
M  V30 8587 H 797.54 -3.01227 3.83554 0
M  V30 8588 H 796.545 -1.27347 5.34848 0
M  V30 8589 H 797.77 -1.64554 6.58862 0
M  V30 8590 H 795.716 -3.59914 5.48451 0
M  V30 8591 H 795.633 -2.80239 7.02141 0
M  V30 8592 H 796.901 -3.95238 6.71868 0
M  V30 8593 N 801.13 -1.57531 -0.0467866 0
M  V30 8594 C 802.06 -2.08425 -1.05268 0
M  V30 8595 C 803.041 -0.982941 -1.38825 0
M  V30 8596 O 804.226 -1.25716 -1.48018 0
M  V30 8597 C 801.356 -2.54897 -2.35891 0
M  V30 8598 C 800.31 -3.69132 -2.16623 0
M  V30 8599 C 799.636 -4.01747 -3.52851 0
M  V30 8600 C 800.936 -4.98243 -1.56689 0
M  V30 8601 H 802.63 -2.92716 -0.62908 0
M  V30 8602 H 800.176 -1.40816 -0.301156 0
M  V30 8603 H 802.129 -2.8912 -3.06574 0
M  V30 8604 H 800.853 -1.67666 -2.80278 0
M  V30 8605 H 799.512 -3.35231 -1.48377 0
M  V30 8606 H 799.16 -3.11608 -3.94853 0
M  V30 8607 H 798.86 -4.78681 -3.4079 0
M  V30 8608 H 800.384 -4.38487 -4.24925 0
M  V30 8609 H 801.798 -5.30535 -2.17268 0
M  V30 8610 H 800.195 -5.79669 -1.55255 0
M  V30 8611 H 801.265 -4.81986 -0.530827 0
M  V30 8612 N 802.608 0.318715 -1.54344 0
M  V30 8613 C 803.571 1.37545 -1.83342 0
M  V30 8614 C 804.571 1.445 -0.705444 0
M  V30 8615 O 805.761 1.44443 -0.973752 0
M  V30 8616 C 802.893 2.76225 -1.99781 0
M  V30 8617 H 804.086 1.13084 -2.77762 0
M  V30 8618 H 801.639 0.554457 -1.46135 0
M  V30 8619 H 802.374 3.05934 -1.07588 0
M  V30 8620 H 802.159 2.7257 -2.81865 0
M  V30 8621 H 803.649 3.52664 -2.23647 0
M  V30 8622 N 804.086 1.46499 0.581025 0
M  V30 8623 C 805.497 1.4604 1.16315 0
M  V30 8624 C 805.848 0.202154 1.95156 0
M  V30 8625 O 804.973 -0.694638 2.04948 0
M  V30 8626 C 805.568 2.64593 2.11604 0
M  V30 8627 C 804.127 2.6717 2.65136 0
M  V30 8628 C 803.274 2.38753 1.4104 0
M  V30 8629 H 806.225 1.54354 0.368871 0
M  V30 8630 H 806.246 2.40207 2.95095 0
M  V30 8631 H 805.758 3.56154 1.54194 0
M  V30 8632 H 803.859 1.79685 3.26411 0
M  V30 8633 H 803.972 3.67182 3.07757 0
M  V30 8634 H 802.336 1.88845 1.70908 0
M  V30 8635 H 803.119 3.32493 0.854588 0
M  V30 8636 N 805.565 -0.825799 1.34232 0
M  V30 8637 C 806.981 -1.11848 1.13851 0
M  V30 8638 C 807.181 -2.01405 -0.0619031 0
M  V30 8639 O 806.237 -2.41465 -0.738287 0
M  V30 8640 C 807.55 -1.76797 2.43235 0
M  V30 8641 C 809.098 -1.89304 2.49265 0
M  V30 8642 C 809.573 -2.57669 3.78643 0
M  V30 8643 N 811.064 -2.65171 3.79788 0
M  V30 8644 C 811.799 -3.1879 4.76614 0
M  V30 8645 N 811.295 -3.72995 5.83821 0
M  V30 8646 N 813.088 -3.17164 4.64073 0
M  V30 8647 H 805.239 -0.230049 2.11151 0
M  V30 8648 H 807.502 -0.164609 0.9336 0
M  V30 8649 H 807.208 -1.18455 3.31152 0
M  V30 8650 H 807.082 -2.76693 2.56361 0
M  V30 8651 H 809.469 -2.46796 1.6179 0
M  V30 8652 H 809.55 -0.883191 2.4007 0
M  V30 8653 H 809.194 -2.00833 4.66507 0
M  V30 8654 H 809.124 -3.59152 3.8512 0
M  V30 8655 H 811.615 -2.26746 3.02315 0
M  V30 8656 H 811.928 -4.12151 6.53721 0
M  V30 8657 H 810.273 -3.71246 5.87538 0
M  V30 8658 H 813.464 -2.74082 3.79469 0
M  V30 8659 H 813.637 -3.58647 5.397 0
M  V30 8660 N 807.043 -1.17915 -1.04565 0
M  V30 8661 C 808.273 -0.994716 -1.81077 0
M  V30 8662 C 808.681 0.460146 -1.83519 0
M  V30 8663 O 808.024 1.33136 -1.26572 0
M  V30 8664 C 808.086 -1.46698 -3.28207 0
M  V30 8665 C 807.75 -2.94523 -3.49436 0
M  V30 8666 C 808.747 -3.92414 -3.41038 0
M  V30 8667 C 806.432 -3.32841 -3.76194 0
M  V30 8668 C 808.426 -5.2662 -3.59096 0
M  V30 8669 C 806.113 -4.67212 -3.93899 0
M  V30 8670 C 807.111 -5.6391 -3.8535 0
M  V30 8671 O 806.799 -6.95849 -4.02554 0
M  V30 8672 H 806.531 -0.351797 -0.577248 0
M  V30 8673 H 809.085 -1.56772 -1.32709 0
M  V30 8674 H 807.315 -0.837592 -3.7752 0
M  V30 8675 H 809.004 -1.24724 -3.86263 0
M  V30 8676 H 809.77 -3.64157 -3.20336 0
M  V30 8677 H 805.649 -2.58139 -3.81949 0
M  V30 8678 H 809.193 -6.02082 -3.52339 0
M  V30 8679 H 805.09 -4.95172 -4.14095 0
M  V30 8680 H 805.858 -7.02679 -4.19743 0
M  V30 8681 N 808.521 1.23394 -0.980386 0
M  V30 8682 C 809.468 2.24859 -0.520298 0
M  V30 8683 C 810.438 1.60144 0.440821 0
M  V30 8684 O 811.623 1.87593 0.348369 0
M  V30 8685 C 808.763 3.44675 0.171145 0
M  V30 8686 C 807.876 4.23947 -0.830233 0
M  V30 8687 C 807.011 5.31079 -0.113597 0
M  V30 8688 C 806.05 6.02058 -1.10419 0
M  V30 8689 N 805.187 7.00862 -0.416709 0
M  V30 8690 H 810.027 2.63579 -1.39032 0
M  V30 8691 H 807.564 1.29556 -0.696682 0
M  V30 8692 H 809.522 4.13024 0.588838 0
M  V30 8693 H 808.152 3.06755 1.00504 0
M  V30 8694 H 807.204 3.55016 -1.36631 0
M  V30 8695 H 808.516 4.72945 -1.58508 0
M  V30 8696 H 807.67 6.05622 0.36146 0
M  V30 8697 H 806.409 4.83022 0.673854 0
M  V30 8698 H 805.414 5.26307 -1.59 0
M  V30 8699 H 806.639 6.52203 -1.8923 0
M  V30 8700 H 804.585 6.55057 0.351535 0
M  V30 8701 H 804.502 7.47804 -1.11021 0
M  V30 8702 H 805.77 7.79492 0.0359606 0
M  V30 8703 N 809.999 0.752036 1.385 0
M  V30 8704 C 810.929 0.138718 2.33088 0
M  V30 8705 C 811.91 -0.705318 1.54788 0
M  V30 8706 O 813.095 -0.646821 1.83112 0
M  V30 8707 C 810.225 -0.75641 3.38963 0
M  V30 8708 C 809.179 -0.0152239 4.27997 0
M  V30 8709 C 808.505 -1.0285 5.24715 0
M  V30 8710 C 809.805 1.15226 5.09431 0
M  V30 8711 H 811.499 0.928852 2.84627 0
M  V30 8712 H 809.045 0.448111 1.3685 0
M  V30 8713 H 810.998 -1.19513 4.04097 0
M  V30 8714 H 809.722 -1.57885 2.85902 0
M  V30 8715 H 808.381 0.404061 3.64366 0
M  V30 8716 H 808.029 -1.84496 4.67943 0
M  V30 8717 H 807.729 -0.537238 5.85139 0
M  V30 8718 H 809.253 -1.46657 5.92726 0
M  V30 8719 H 810.667 0.791161 5.67815 0
M  V30 8720 H 809.064 1.57428 5.79082 0
M  V30 8721 H 810.134 1.9659 4.43261 0
M  V30 8722 N 811.477 -1.49425 0.500989 0
M  V30 8723 C 812.725 -2.02053 -0.0434495 0
M  V30 8724 C 813.046 -1.38285 -1.37486 0
M  V30 8725 O 812.316 -0.538171 -1.88363 0
M  V30 8726 H 810.896 -0.746757 -0.0190469 0
M  V30 8727 H 813.558 -1.83449 0.658227 0
M  V30 8728 H 812.654 -3.11619 -0.173129 0
M  V30 8729 N 812.955 -0.234822 -1.55841 0
M  V30 8730 C 814.201 0.393843 -1.98939 0
M  V30 8731 C 814.534 1.58466 -1.1226 0
M  V30 8732 O 813.809 1.93635 -0.183242 0
M  V30 8733 C 814.092 0.815492 -3.50745 0
M  V30 8734 C 813.945 -0.379878 -4.48193 0
M  V30 8735 C 815.264 1.66687 -4.07312 0
M  V30 8736 H 812.383 0.141681 -0.723253 0
M  V30 8737 H 815.025 -0.333716 -1.87046 0
M  V30 8738 H 813.175 1.43541 -3.6101 0
M  V30 8739 H 814.847 -1.0182 -4.49923 0
M  V30 8740 H 813.09 -1.02507 -4.21515 0
M  V30 8741 H 813.761 -0.0417069 -5.51984 0
M  V30 8742 H 816.237 1.14369 -4.00074 0
M  V30 8743 H 815.113 1.93078 -5.13821 0
M  V30 8744 H 815.374 2.63468 -3.55017 0
M  V30 8745 N 814.433 1.57553 0.0384317 0
M  V30 8746 C 815.383 2.02404 1.0496 0
M  V30 8747 C 816.367 0.911705 1.32577 0
M  V30 8748 O 817.559 1.17561 1.32319 0
M  V30 8749 C 814.688 2.49924 2.35357 0
M  V30 8750 C 813.774 3.6796 2.1087 0
M  V30 8751 N 814.165 4.81009 1.56411 0
M  V30 8752 C 812.463 3.75153 2.41197 0
M  V30 8753 C 813.164 5.62686 1.47512 0
M  V30 8754 N 812.14 5.0752 1.94742 0
M  V30 8755 H 815.942 2.87234 0.622399 0
M  V30 8756 H 813.456 1.60543 0.244916 0
M  V30 8757 H 815.453 2.80312 3.08595 0
M  V30 8758 H 814.113 1.66496 2.78763 0
M  V30 8759 H 815.124 5.02636 1.2481 0
M  V30 8760 H 811.801 3.02507 2.87742 0
M  V30 8761 H 813.191 6.6349 1.05976 0
M  V30 8762 N 815.911 -0.310526 1.54511 0
M  V30 8763 C 817.159 -1.04484 1.72996 0
M  V30 8764 C 817.48 -1.88118 0.513479 0
M  V30 8765 O 816.75 -1.90119 -0.472384 0
M  V30 8766 H 815.33 -0.388747 0.637875 0
M  V30 8767 H 817.992 -0.343811 1.91844 0
M  V30 8768 H 817.088 -1.70341 2.61515 0
M  V30 8769 N 817.389 -1.46805 -0.573248 0
M  V30 8770 C 818.619 -1.55965 -1.35494 0
M  V30 8771 C 819.027 -0.203038 -1.88107 0
M  V30 8772 O 818.37 0.81138 -1.6481 0
M  V30 8773 C 818.432 -2.51168 -2.57206 0
M  V30 8774 C 818.096 -3.97211 -2.25993 0
M  V30 8775 C 819.093 -4.86155 -1.84254 0
M  V30 8776 C 816.778 -4.42419 -2.37846 0
M  V30 8777 C 818.772 -6.18323 -1.54776 0
M  V30 8778 C 816.459 -5.74619 -2.0798 0
M  V30 8779 C 817.457 -6.62392 -1.66511 0
M  V30 8780 O 817.145 -7.92137 -1.37016 0
M  V30 8781 H 816.877 -0.529748 -0.419932 0
M  V30 8782 H 819.431 -1.92998 -0.702914 0
M  V30 8783 H 817.661 -2.09171 -3.25245 0
M  V30 8784 H 819.35 -2.50631 -3.19279 0
M  V30 8785 H 820.116 -4.52481 -1.74603 0
M  V30 8786 H 815.995 -3.74319 -2.69085 0
M  V30 8787 H 819.539 -6.8679 -1.22334 0
M  V30 8788 H 815.436 -6.0784 -2.17258 0
M  V30 8789 H 816.204 -8.04492 -1.50782 0
M  V30 8790 N 818.867 0.818669 -1.34668 0
M  V30 8791 C 819.83 1.9114 -1.26483 0
M  V30 8792 C 820.83 1.598 -0.179044 0
M  V30 8793 O 822.02 1.6876 -0.431952 0
M  V30 8794 C 819.152 3.27285 -0.95381 0
M  V30 8795 H 820.345 1.9982 -2.23634 0
M  V30 8796 H 817.898 1.01314 -1.19018 0
M  V30 8797 H 818.633 3.24297 0.0143428 0
M  V30 8798 H 818.418 3.51416 -1.73924 0
M  V30 8799 H 819.908 4.07299 -0.921827 0
M  V30 8800 N 820.346 1.18468 1.03938 0
M  V30 8801 C 821.593 0.980833 1.77161 0
M  V30 8802 C 821.921 -0.489425 1.88242 0
M  V30 8803 O 821.176 -1.37961 1.388 0
M  V30 8804 C 821.475 1.58229 3.20466 0
M  V30 8805 C 821.141 3.07889 3.29416 0
M  V30 8806 C 819.803 3.48737 3.31566 0
M  V30 8807 C 822.155 4.03903 3.29411 0
M  V30 8808 C 819.483 4.84171 3.31355 0
M  V30 8809 C 821.835 5.39253 3.3074 0
M  V30 8810 C 820.499 5.79547 3.31182 0
M  V30 8811 H 819.769 0.358912 0.648277 0
M  V30 8812 H 822.416 1.47552 1.22069 0
M  V30 8813 H 820.721 1.00964 3.78568 0
M  V30 8814 H 822.418 1.39998 3.75768 0
M  V30 8815 H 819.008 2.75335 3.28464 0
M  V30 8816 H 823.192 3.73395 3.2694 0
M  V30 8817 H 818.448 5.14685 3.30015 0
M  V30 8818 H 822.622 6.13417 3.29686 0
M  V30 8819 H 820.249 6.84466 3.30772 0
M  V30 8820 N 821.824 -1.22873 0.986916 0
M  V30 8821 C 822.754 -2.2688 0.552064 0
M  V30 8822 C 823.735 -1.64883 -0.418048 0
M  V30 8823 O 824.92 -1.9171 -0.30999 0
M  V30 8824 C 822.05 -3.47018 -0.139959 0
M  V30 8825 C 821.004 -4.21411 0.748091 0
M  V30 8826 C 820.33 -5.34645 -0.0765132 0
M  V30 8827 C 821.63 -4.80726 2.04206 0
M  V30 8828 H 823.324 -2.63507 1.42143 0
M  V30 8829 H 820.87 -1.26668 0.68492 0
M  V30 8830 H 822.823 -4.18931 -0.455527 0
M  V30 8831 H 821.547 -3.0947 -1.04382 0
M  V30 8832 H 820.206 -3.51325 1.04721 0
M  V30 8833 H 819.854 -4.93339 -0.981109 0
M  V30 8834 H 819.554 -5.85342 0.514606 0
M  V30 8835 H 821.078 -6.09377 -0.386313 0
M  V30 8836 H 822.492 -5.44612 1.79083 0
M  V30 8837 H 820.889 -5.41737 2.5815 0
M  V30 8838 H 821.959 -4.01109 2.72469 0
M  V30 8839 N 823.302 -0.75937 -1.38099 0
M  V30 8840 C 824.25 -0.124954 -2.32264 0
M  V30 8841 C 825.244 0.698863 -1.54312 0
M  V30 8842 O 826.45 0.597312 -1.698 0
M  V30 8843 H 822.825 -0.0216142 -0.751689 0
M  V30 8844 H 824.796 -0.935115 -2.83369 0
M  V30 8845 C 823.545 0.749463 -3.39527 0
M  V30 8846 H 822.868 0.124932 -3.99605 0
M  V30 8847 H 824.308 1.16055 -4.07808 0
M  V30 8848 C 822.767 1.89464 -2.78577 0
M  V30 8849 O 823.297 2.98923 -2.68343 0
M  V30 8850 N 821.503 1.69145 -2.36301 0
M  V30 8851 H 821.05 0.801157 -2.44825 0
M  V30 8852 H 821.008 2.45936 -1.95864 0
M  V30 8853 N 824.78 1.49157 -0.508906 0
M  V30 8854 C 826.008 2.06879 0.0293734 0
M  V30 8855 C 826.423 1.36823 1.30095 0
M  V30 8856 O 825.78 0.449034 1.7689 0
M  V30 8857 C 825.831 3.60423 0.278791 0
M  V30 8858 O 825.552 4.27844 -0.942389 0
M  V30 8859 C 827.053 4.34881 0.859825 0
M  V30 8860 H 824.273 0.67057 -0.0240184 0
M  V30 8861 H 826.817 1.91834 -0.708526 0
M  V30 8862 H 824.972 3.75145 0.966689 0
M  V30 8863 H 825.386 5.19671 -0.710097 0
M  V30 8864 H 826.86 5.43161 0.983884 0
M  V30 8865 H 827.337 3.9789 1.85958 0
M  V30 8866 H 827.943 4.24785 0.209152 0
M  V30 8867 N 826.258 0.243083 1.55714 0
M  V30 8868 C 827.206 -0.674349 2.2261 0
M  V30 8869 C 828.2 -1.18307 1.21243 0
M  V30 8870 O 829.406 -1.1404 1.39265 0
M  V30 8871 H 825.781 -0.235941 0.714028 0
M  V30 8872 H 827.752 -0.0869446 2.98273 0
M  V30 8873 C 826.501 -1.86206 2.93637 0
M  V30 8874 H 825.824 -1.47975 3.71407 0
M  V30 8875 H 827.264 -2.4813 3.43813 0
M  V30 8876 C 825.723 -2.73084 1.97298 0
M  V30 8877 O 826.253 -3.72497 1.50361 0
M  V30 8878 N 824.459 -2.39571 1.64482 0
M  V30 8879 H 824.006 -1.5878 2.02846 0
M  V30 8880 H 823.964 -2.97976 1.00288 0
M  V30 8881 N 827.736 -1.57571 -0.0300757 0
M  V30 8882 C 828.684 -2.0758 -1.04944 0
M  V30 8883 C 829.678 -0.989384 -1.37505 0
M  V30 8884 O 830.884 -1.17427 -1.36422 0
M  V30 8885 H 827.259 -0.662419 -0.355956 0
M  V30 8886 H 829.23 -2.92268 -0.601848 0
M  V30 8887 C 827.979 -2.5698 -2.34215 0
M  V30 8888 H 827.302 -3.40193 -2.10021 0
M  V30 8889 H 828.742 -2.95682 -3.03888 0
M  V30 8890 C 827.201 -1.47059 -3.03109 0
M  V30 8891 O 827.731 -0.83625 -3.92899 0
M  V30 8892 N 825.937 -1.20538 -2.64422 0
M  V30 8893 H 825.484 -1.72305 -1.9149 0
M  V30 8894 H 825.442 -0.472045 -3.10836 0
M  V30 8895 N 829.214 0.302327 -1.54673 0
M  V30 8896 C 830.462 1.03565 -1.73547 0
M  V30 8897 C 830.783 1.87843 -0.523448 0
M  V30 8898 O 830.053 1.90367 0.462295 0
M  V30 8899 H 828.633 0.385358 -0.639928 0
M  V30 8900 H 831.295 0.333632 -1.92023 0
M  V30 8901 H 830.391 1.68952 -2.62415 0
M  V30 8902 N 830.692 1.47107 0.565454 0
M  V30 8903 C 831.922 1.56681 1.34664 0
M  V30 8904 C 832.33 0.213011 1.87997 0
M  V30 8905 O 831.673 -0.802629 1.65238 0
M  V30 8906 C 831.735 2.52528 2.55871 0
M  V30 8907 C 831.399 3.98403 2.23883 0
M  V30 8908 C 832.396 4.87125 1.81673 0
M  V30 8909 C 830.081 4.43674 2.35496 0
M  V30 8910 C 832.075 6.19135 1.51494 0
M  V30 8911 C 829.762 5.75714 2.0493 0
M  V30 8912 C 830.76 6.63266 1.62996 0
M  V30 8913 O 830.448 7.92853 1.32813 0
M  V30 8914 H 830.18 0.531967 0.417117 0
M  V30 8915 H 832.734 1.93368 0.692669 0
M  V30 8916 H 830.964 2.10893 3.24131 0
M  V30 8917 H 832.653 2.5232 3.17945 0
M  V30 8918 H 833.419 4.534 1.72201 0
M  V30 8919 H 829.298 3.7574 2.67096 0
M  V30 8920 H 832.842 6.87429 1.1869 0
M  V30 8921 H 828.739 6.08983 2.14031 0
M  V30 8922 H 829.507 8.0528 1.46513 0
M  V30 8923 N 832.17 -0.811516 1.35101 0
M  V30 8924 C 833.419 -1.56343 1.27435 0
M  V30 8925 C 833.732 -1.95019 -0.150696 0
M  V30 8926 O 834.938 -2.6924 -0.349586 0
M  V30 8927 C 833.394 -2.82124 2.23459 0
M  V30 8928 C 833.002 -2.50706 3.71283 0
M  V30 8929 C 834.746 -3.60137 2.24726 0
M  V30 8930 C 832.653 -3.72748 4.59143 0
M  V30 8931 H 831.583 -0.58682 0.473453 0
M  V30 8932 H 834.234 -0.892465 1.60335 0
M  V30 8933 H 832.616 -3.50905 1.83525 0
M  V30 8934 H 833.79 -1.89962 4.19823 0
M  V30 8935 H 832.105 -1.85947 3.72576 0
M  V30 8936 H 834.702 -4.50775 2.87587 0
M  V30 8937 H 835.045 -3.97101 1.24965 0
M  V30 8938 H 835.578 -2.98311 2.63164 0
M  V30 8939 H 832.317 -3.40896 5.59884 0
M  V30 8940 H 831.837 -4.32735 4.15332 0
M  V30 8941 H 833.516 -4.40033 4.74321 0
M  V30 8942 N 833.648 -1.19017 -1.03309 0
M  V30 8943 C 834.578 -0.94772 -2.13402 0
M  V30 8944 C 835.559 0.117383 -1.69694 0
M  V30 8945 O 836.744 -0.0367733 -1.94165 0
M  V30 8946 C 833.874 -0.480977 -3.43953 0
M  V30 8947 C 832.828 -1.48743 -4.01322 0
M  V30 8948 C 832.154 -0.877924 -5.27443 0
M  V30 8949 C 833.454 -2.86642 -4.36616 0
M  V30 8950 H 835.148 -1.86846 -2.33942 0
M  V30 8951 H 832.694 -0.899781 -1.12427 0
M  V30 8952 H 834.647 -0.298677 -4.2034 0
M  V30 8953 H 833.371 0.475348 -3.23122 0
M  V30 8954 H 832.03 -1.65681 -3.27025 0
M  V30 8955 H 831.678 0.0858232 -5.02927 0
M  V30 8956 H 831.378 -1.54996 -5.66789 0
M  V30 8957 H 832.902 -0.706326 -6.06501 0
M  V30 8958 H 834.316 -2.73312 -5.03958 0
M  V30 8959 H 832.713 -3.50599 -4.87032 0
M  V30 8960 H 833.783 -3.39617 -3.46105 0
M  V30 8961 N 835.127 1.22348 -0.993418 0
M  V30 8962 C 836.352 1.95666 -0.687727 0
M  V30 8963 C 836.777 1.72883 0.741161 0
M  V30 8964 O 836.135 1.00837 1.50671 0
M  V30 8965 C 836.183 3.46457 -0.99998 0
M  V30 8966 O 835.287 4.12281 -0.0989386 0
M  V30 8967 H 834.628 0.612102 -0.257346 0
M  V30 8968 H 837.158 1.55428 -1.33054 0
M  V30 8969 H 837.168 3.96976 -0.942035 0
M  V30 8970 H 835.843 3.62365 -2.04118 0
M  V30 8971 H 834.42 3.72295 -0.212413 0
M  V30 8972 N 836.605 0.766683 1.37694 0
M  V30 8973 C 837.555 0.123173 2.27667 0
M  V30 8974 C 838.539 -0.679436 1.45851 0
M  V30 8975 O 839.731 -0.54324 1.68457 0
M  V30 8976 C 836.86 -0.759064 3.34803 0
M  V30 8977 C 835.946 0.0511009 4.24069 0
M  V30 8978 N 836.337 1.09418 4.93823 0
M  V30 8979 C 834.635 -0.173675 4.45662 0
M  V30 8980 C 835.336 1.58546 5.59677 0
M  V30 8981 N 834.312 0.898503 5.36123 0
M  V30 8982 H 838.114 0.921859 2.79068 0
M  V30 8983 H 835.628 0.603957 1.50752 0
M  V30 8984 H 837.625 -1.23581 3.98163 0
M  V30 8985 H 836.285 -1.55655 2.84959 0
M  V30 8986 H 837.296 1.47623 4.96415 0
M  V30 8987 H 833.973 -0.943473 4.067 0
M  V30 8988 H 835.363 2.45504 6.25442 0
M  V30 8989 N 838.083 -1.48885 0.516809 0
M  V30 8990 C 839.494 -1.86557 0.0729921 0
M  V30 8991 C 839.845 -1.42767 -1.34581 0
M  V30 8992 O 838.97 -0.812514 -2.00567 0
M  V30 8993 C 839.565 -3.38567 0.125686 0
M  V30 8994 C 838.124 -3.75481 -0.262867 0
M  V30 8995 C 837.271 -2.72913 0.491281 0
M  V30 8996 H 840.222 -1.40978 0.728767 0
M  V30 8997 H 840.243 -3.74629 -0.665831 0
M  V30 8998 H 839.755 -3.70408 1.15842 0
M  V30 8999 H 837.856 -3.49251 -1.29824 0
M  V30 9000 H 837.969 -4.79052 0.067579 0
M  V30 9001 H 836.333 -2.54627 -0.0608525 0
M  V30 9002 H 837.116 -3.07599 1.5244 0
M  V30 9003 N 839.561 -0.251338 -1.55583 0
M  V30 9004 C 840.838 0.422729 -1.90977 0
M  V30 9005 C 841.218 1.75534 -1.17265 0
M  V30 9006 O 840.566 2.26632 -0.291588 0
M  V30 9007 C 840.776 0.586448 -3.44037 0
M  V30 9008 C 842.124 0.880294 -4.15375 0
M  V30 9009 O 843.148 0.672148 -3.49801 0
M  V30 9010 O 842.007 1.27694 -5.31372 0
M  V30 9011 H 839.101 0.227622 -0.795058 0
M  V30 9012 H 841.647 -0.295733 -1.67103 0
M  V30 9013 H 840.419 -0.352327 -3.89711 0
M  V30 9014 H 840.042 1.35528 -3.73789 0
M  V30 9015 N 841.039 1.57585 0.0217189 0
M  V30 9016 C 841.969 2.10073 1.01939 0
M  V30 9017 C 842.95 1.0049 1.37243 0
M  V30 9018 O 844.135 1.28055 1.45999 0
M  V30 9019 C 841.265 2.58618 2.31806 0
M  V30 9020 C 840.219 3.72531 2.10724 0
M  V30 9021 C 839.545 4.07309 3.46415 0
M  V30 9022 C 840.845 5.00672 1.48743 0
M  V30 9023 H 842.539 2.9368 0.582432 0
M  V30 9024 H 840.085 1.41277 0.278715 0
M  V30 9025 H 842.038 2.9396 3.01936 0
M  V30 9026 H 840.762 1.72104 2.77575 0
M  V30 9027 H 839.421 3.37549 1.43025 0
M  V30 9028 H 839.069 3.17851 3.89846 0
M  V30 9029 H 838.769 4.84042 3.33132 0
M  V30 9030 H 840.293 4.45192 4.17895 0
M  V30 9031 H 841.707 5.33925 2.088 0
M  V30 9032 H 840.104 5.82065 1.46013 0
M  V30 9033 H 841.174 4.82769 0.45408 0
M  V30 9034 N 842.517 -0.29412 1.54831 0
M  V30 9035 C 843.933 -0.640167 1.46199 0
M  V30 9036 C 844.133 -1.90426 0.658798 0
M  V30 9037 O 843.189 -2.51932 0.169228 0
M  V30 9038 C 844.502 -0.786763 2.90225 0
M  V30 9039 C 846.05 -0.882201 3.0031 0
M  V30 9040 C 846.525 -1.06074 4.45547 0
M  V30 9041 N 848.016 -1.12678 4.49286 0
M  V30 9042 C 848.751 -1.28334 5.58854 0
M  V30 9043 N 848.247 -1.40845 6.78332 0
M  V30 9044 N 850.04 -1.31277 5.46555 0
M  V30 9045 H 842.191 0.536334 2.05517 0
M  V30 9046 H 844.454 0.178363 0.93107 0
M  V30 9047 H 844.16 0.0713018 3.51628 0
M  V30 9048 H 844.034 -1.67364 3.38037 0
M  V30 9049 H 846.421 -1.73075 2.39017 0
M  V30 9050 H 846.502 0.0288405 2.55784 0
M  V30 9051 H 846.146 -0.216935 5.07437 0
M  V30 9052 H 846.076 -1.98611 4.8771 0
M  V30 9053 H 848.567 -1.04335 3.63212 0
M  V30 9054 H 848.88 -1.52566 7.57591 0
M  V30 9055 H 847.225 -1.37888 6.81184 0
M  V30 9056 H 850.416 -1.2112 4.52159 0
M  V30 9057 H 850.589 -1.43136 6.31994 0
M  V30 9058 N 843.995 -1.47404 -0.557645 0
M  V30 9059 C 845.406 -1.47872 -1.13977 0
M  V30 9060 C 845.757 -0.233176 -1.94809 0
M  V30 9061 O 844.882 0.661945 -2.06027 0
M  V30 9062 C 845.477 -2.67926 -2.07368 0
M  V30 9063 C 844.036 -2.71354 -2.60852 0
M  V30 9064 C 843.183 -2.40967 -1.37223 0
M  V30 9065 H 846.134 -1.54921 -0.344268 0
M  V30 9066 H 846.155 -2.44871 -2.91236 0
M  V30 9067 H 845.667 -3.58562 -1.48509 0
M  V30 9068 H 843.768 -1.84855 -3.23511 0
M  V30 9069 H 843.881 -3.72032 -3.01876 0
M  V30 9070 H 842.245 -1.91541 -1.67882 0
M  V30 9071 H 843.028 -3.33811 -0.801583 0
M  V30 9072 N 845.473 0.80434 -1.35529 0
M  V30 9073 C 846.403 1.93086 -1.31301 0
M  V30 9074 C 847.384 1.69068 -0.187044 0
M  V30 9075 O 848.569 1.90399 -0.382359 0
M  V30 9076 C 845.699 3.29867 -1.0865 0
M  V30 9077 C 844.653 3.68373 -2.17911 0
M  V30 9078 C 843.979 5.0334 -1.80423 0
M  V30 9079 C 845.279 3.78516 -3.59893 0
M  V30 9080 H 846.973 1.96882 -2.25561 0
M  V30 9081 H 844.519 0.945841 -1.08581 0
M  V30 9082 H 846.472 4.08281 -1.04331 0
M  V30 9083 H 845.196 3.2642 -0.108359 0
M  V30 9084 H 843.855 2.92247 -2.21331 0
M  V30 9085 H 843.503 4.96399 -0.812213 0
M  V30 9086 H 843.203 5.30074 -2.53565 0
M  V30 9087 H 844.727 5.84191 -1.77633 0
M  V30 9088 H 846.141 4.47155 -3.58783 0
M  V30 9089 H 844.538 4.16721 -4.31814 0
M  V30 9090 H 845.608 2.8001 -3.95882 0
M  V30 9091 N 846.951 1.19563 1.02676 0
M  V30 9092 C 848.181 1.0234 1.79472 0
M  V30 9093 C 848.589 -0.430891 1.84228 0
M  V30 9094 O 847.932 -1.31106 1.28674 0
M  V30 9095 C 847.994 1.51901 3.25832 0
M  V30 9096 C 847.658 3.00045 3.44706 0
M  V30 9097 C 848.655 3.9779 3.34752 0
M  V30 9098 C 846.34 3.38784 3.70851 0
M  V30 9099 C 848.334 5.32267 3.50672 0
M  V30 9100 C 846.021 4.73419 3.86416 0
M  V30 9101 C 847.019 5.69969 3.7633 0
M  V30 9102 O 846.707 7.02165 3.91432 0
M  V30 9103 H 846.439 0.360936 0.571578 0
M  V30 9104 H 848.993 1.58863 1.30198 0
M  V30 9105 H 847.223 0.897546 3.7614 0
M  V30 9106 H 848.912 1.30853 3.84229 0
M  V30 9107 H 849.678 3.69207 3.14502 0
M  V30 9108 H 845.557 2.64183 3.77794 0
M  V30 9109 H 849.101 6.07612 3.42715 0
M  V30 9110 H 844.998 5.01697 4.06165 0
M  V30 9111 H 845.766 7.09268 4.08511 0
M  V30 9112 N 848.429 -1.21819 0.999893 0
M  V30 9113 C 849.845 -1.42847 0.711824 0
M  V30 9114 C 850.045 -1.88391 -0.714928 0
M  V30 9115 O 849.101 -2.0422 -1.48494 0
M  V30 9116 C 850.414 -2.46417 1.72334 0
M  V30 9117 C 851.962 -2.60207 1.73958 0
M  V30 9118 C 852.437 -3.67005 2.73992 0
M  V30 9119 N 853.928 -3.7447 2.72628 0
M  V30 9120 C 854.663 -4.56718 3.46693 0
M  V30 9121 N 854.159 -5.42904 4.3038 0
M  V30 9122 N 855.952 -4.51094 3.35366 0
M  V30 9123 H 848.103 -0.905656 1.92124 0
M  V30 9124 H 850.366 -0.459893 0.828977 0
M  V30 9125 H 850.072 -2.19914 2.74465 0
M  V30 9126 H 849.946 -3.45137 1.52186 0
M  V30 9127 H 852.333 -2.8605 0.725217 0
M  V30 9128 H 852.414 -1.61739 1.98177 0
M  V30 9129 H 852.058 -3.41908 3.75582 0
M  V30 9130 H 851.988 -4.65058 2.4704 0
M  V30 9131 H 854.479 -3.12895 2.11909 0
M  V30 9132 H 854.792 -6.02704 4.83702 0
M  V30 9133 H 853.137 -5.42463 4.34464 0
M  V30 9134 H 856.328 -3.82791 2.69423 0
M  V30 9135 H 856.501 -5.1496 3.93344 0
M  V30 9136 N 849.908 -0.773975 -1.37286 0
M  V30 9137 C 850.818 -0.162571 -2.34036 0
M  V30 9138 C 851.834 0.677022 -1.60289 0
M  V30 9139 O 853.01 0.596423 -1.92366 0
M  V30 9140 C 850.075 0.70457 -3.39465 0
M  V30 9141 C 849.136 -0.151738 -4.29032 0
M  V30 9142 C 848.369 0.674111 -5.29426 0
M  V30 9143 O 848.592 1.91107 -5.37433 0
M  V30 9144 O 847.526 0.0821398 -6.01844 0
M  V30 9145 H 851.352 -0.962119 -2.88057 0
M  V30 9146 H 848.937 -0.53517 -1.39486 0
M  V30 9147 H 850.819 1.19954 -4.03967 0
M  V30 9148 H 849.494 1.48227 -2.87768 0
M  V30 9149 H 848.401 -0.693118 -3.67623 0
M  V30 9150 H 849.734 -0.892575 -4.84039 0
M  V30 9151 N 851.386 1.48609 -0.524698 0
M  V30 9152 C 852.634 2.02097 0.0112991 0
M  V30 9153 C 852.955 1.40455 1.35268 0
M  V30 9154 O 852.225 0.56807 1.87483 0
M  V30 9155 H 850.805 0.746966 0.00716426 0
M  V30 9156 H 853.467 1.82378 -0.687329 0
M  V30 9157 H 852.563 3.11855 0.123531 0
M  V30 9158 N 852.864 0.259585 1.55447 0
M  V30 9159 C 853.811 -0.634578 2.21905 0
M  V30 9160 C 854.781 -1.16168 1.18719 0
M  V30 9161 O 855.966 -1.21383 1.4721 0
M  V30 9162 C 853.106 -1.82005 2.93203 0
M  V30 9163 C 852.219 -1.32828 4.11073 0
M  V30 9164 C 851.354 -2.47431 4.70055 0
M  V30 9165 C 850.393 -1.95179 5.80148 0
M  V30 9166 N 849.53 -3.03197 6.33258 0
M  V30 9167 H 854.37 -0.0611886 2.97937 0
M  V30 9168 H 851.907 -0.0184378 1.47088 0
M  V30 9169 H 853.865 -2.51664 3.32748 0
M  V30 9170 H 852.495 -2.36571 2.19622 0
M  V30 9171 H 851.547 -0.525301 3.76756 0
M  V30 9172 H 852.859 -0.905435 4.90513 0
M  V30 9173 H 852.013 -3.25111 5.12238 0
M  V30 9174 H 850.752 -2.93023 3.89857 0
M  V30 9175 H 849.757 -1.15974 5.37429 0
M  V30 9176 H 850.982 -1.50541 6.62204 0
M  V30 9177 H 848.928 -3.48199 5.55961 0
M  V30 9178 H 848.845 -2.65282 7.07928 0
M  V30 9179 H 850.113 -3.80898 6.80101 0
M  V30 9180 N 854.342 -1.57594 -0.0133615 0
M  V30 9181 C 855.289 -2.07574 -1.00905 0
M  V30 9182 C 856.259 -0.968231 -1.34961 0
M  V30 9183 O 857.444 -1.23981 -1.45028 0
M  V30 9184 C 854.584 -2.5728 -2.30002 0
M  V30 9185 C 853.697 -3.81881 -2.01967 0
M  V30 9186 C 852.832 -4.20139 -3.25049 0
M  V30 9187 C 851.871 -5.37614 -2.92639 0
M  V30 9188 N 851.008 -5.71229 -4.08218 0
M  V30 9189 H 855.848 -2.92382 -0.575899 0
M  V30 9190 H 853.385 -1.4455 -0.272722 0
M  V30 9191 H 855.343 -2.84171 -3.05454 0
M  V30 9192 H 853.973 -1.75365 -2.71011 0
M  V30 9193 H 853.025 -3.61979 -1.16942 0
M  V30 9194 H 854.337 -4.67441 -1.74069 0
M  V30 9195 H 853.491 -4.48242 -4.08857 0
M  V30 9196 H 852.23 -3.33262 -3.56073 0
M  V30 9197 H 851.235 -5.09248 -2.07235 0
M  V30 9198 H 852.46 -6.26157 -2.62876 0
M  V30 9199 H 850.406 -4.8731 -4.39164 0
M  V30 9200 H 850.323 -6.51333 -3.83799 0
M  V30 9201 H 851.591 -6.03917 -4.92854 0
M  V30 9202 N 855.82 0.285905 -1.54985 0
M  V30 9203 C 856.75 1.35752 -1.89983 0
M  V30 9204 C 857.731 1.52163 -0.760295 0
M  V30 9205 O 858.916 1.65421 -1.01733 0
M  V30 9206 C 856.046 2.71925 -2.16042 0
M  V30 9207 C 855 2.70261 -3.31878 0
M  V30 9208 C 854.326 4.09864 -3.43388 0
M  V30 9209 C 855.626 2.30667 -4.68604 0
M  V30 9210 H 857.32 1.06709 -2.79738 0
M  V30 9211 H 854.866 0.511884 -1.34595 0
M  V30 9212 H 856.819 3.46992 -2.39113 0
M  V30 9213 H 855.543 3.02523 -1.23074 0
M  V30 9214 H 854.202 1.97651 -3.08755 0
M  V30 9215 H 853.85 4.37664 -2.47909 0
M  V30 9216 H 853.55 4.09648 -4.21262 0
M  V30 9217 H 855.074 4.86689 -3.68736 0
M  V30 9218 H 856.488 2.95453 -4.91305 0
M  V30 9219 H 854.885 2.41637 -5.49301 0
M  V30 9220 H 855.955 1.25793 -4.68299 0
M  V30 9221 N 857.298 1.47698 0.54982 0
M  V30 9222 C 858.245 1.60739 1.65625 0
M  V30 9223 C 859.215 0.450129 1.59884 0
M  V30 9224 O 860.4 0.671123 1.78607 0
M  V30 9225 C 857.54 1.63457 3.03934 0
M  V30 9226 C 856.653 2.90152 3.20056 0
M  V30 9227 C 855.788 2.84157 4.48807 0
M  V30 9228 C 854.827 4.05644 4.58387 0
M  V30 9229 N 853.964 3.97843 5.78503 0
M  V30 9230 H 858.804 2.55234 1.53817 0
M  V30 9231 H 856.341 1.26593 0.749173 0
M  V30 9232 H 858.299 1.63015 3.84034 0
M  V30 9233 H 856.929 0.724689 3.1456 0
M  V30 9234 H 855.981 3.00428 2.33339 0
M  V30 9235 H 857.293 3.80097 3.22998 0
M  V30 9236 H 856.447 2.82006 5.37175 0
M  V30 9237 H 855.186 1.91908 4.48356 0
M  V30 9238 H 854.191 4.08092 3.6843 0
M  V30 9239 H 855.416 4.9903 4.60593 0
M  V30 9240 H 853.362 3.08401 5.78986 0
M  V30 9241 H 853.279 4.81473 5.82855 0
M  V30 9242 H 854.547 3.99719 6.69212 0
M  V30 9243 N 858.776 -0.797141 1.35954 0
M  V30 9244 C 860.187 -1.37179 1.26644 0
M  V30 9245 C 860.538 -1.9596 -0.0971046 0
M  V30 9246 O 859.663 -1.91994 -0.998355 0
M  V30 9247 C 860.258 -2.49395 2.2932 0
M  V30 9248 C 858.817 -3.02697 2.23722 0
M  V30 9249 C 857.964 -1.75721 2.14517 0
M  V30 9250 H 860.915 -0.599407 1.46945 0
M  V30 9251 H 860.936 -3.28204 1.92515 0
M  V30 9252 H 860.448 -2.06584 3.2855 0
M  V30 9253 H 858.549 -3.49948 1.27934 0
M  V30 9254 H 858.662 -3.60036 3.16087 0
M  V30 9255 H 857.026 -1.97649 1.60646 0
M  V30 9256 H 857.809 -1.35049 3.15621 0
M  V30 9257 N 860.254 -1.20106 -1.0204 0
M  V30 9258 C 861.201 -0.946468 -2.10501 0
M  V30 9259 C 862.171 0.121902 -1.65652 0
M  V30 9260 O 863.356 -0.0220244 -1.90787 0
M  V30 9261 C 860.496 -0.500499 -3.41451 0
M  V30 9262 C 859.609 -1.63659 -3.998 0
M  V30 9263 C 858.744 -1.14131 -5.18794 0
M  V30 9264 C 857.783 -2.25074 -5.69217 0
M  V30 9265 N 856.92 -1.76791 -6.79477 0
M  V30 9266 H 861.76 -1.87506 -2.31615 0
M  V30 9267 H 859.297 -0.934693 -1.13587 0
M  V30 9268 H 861.255 -0.223276 -4.16602 0
M  V30 9269 H 859.885 0.391099 -3.20422 0
M  V30 9270 H 858.937 -2.02882 -3.21781 0
M  V30 9271 H 860.249 -2.47213 -4.33229 0
M  V30 9272 H 859.403 -0.819826 -6.01135 0
M  V30 9273 H 858.142 -0.275615 -4.86921 0
M  V30 9274 H 857.147 -2.58043 -4.85483 0
M  V30 9275 H 858.372 -3.12114 -6.03127 0
M  V30 9276 H 856.318 -0.925428 -6.4944 0
M  V30 9277 H 856.235 -2.53928 -7.12079 0
M  V30 9278 H 857.503 -1.47631 -7.65392 0
M  V30 9279 N 861.732 1.21287 -1.00634 0
M  V30 9280 C 863.143 1.72136 -0.722914 0
M  V30 9281 C 863.494 1.8091 0.759338 0
M  V30 9282 O 862.619 1.46458 1.59308 0
M  V30 9283 C 863.214 3.12633 -1.30561 0
M  V30 9284 C 861.773 3.60833 -1.07127 0
M  V30 9285 C 860.92 2.38326 -1.4176 0
M  V30 9286 H 863.871 1.06445 -1.17708 0
M  V30 9287 H 863.892 3.74174 -0.690937 0
M  V30 9288 H 863.404 3.06215 -2.38441 0
M  V30 9289 H 861.505 3.72599 -0.00968671 0
M  V30 9290 H 861.618 4.46226 -1.74411 0
M  V30 9291 H 859.982 2.40575 -0.836412 0
M  V30 9292 H 860.765 2.34558 -2.50674 0
M  V30 9293 N 863.21 0.781244 1.36873 0
M  V30 9294 C 864.158 0.161889 2.32036 0
M  V30 9295 C 865.152 -0.674225 1.55405 0
M  V30 9296 O 866.358 -0.570223 1.70729 0
M  V30 9297 H 862.733 0.0335702 0.75125 0
M  V30 9298 H 864.704 0.980078 2.81846 0
M  V30 9299 C 863.453 -0.695352 3.40676 0
M  V30 9300 H 862.776 -0.0613425 3.99753 0
M  V30 9301 H 864.216 -1.09553 4.09602 0
M  V30 9302 C 862.675 -1.85008 2.81556 0
M  V30 9303 O 863.205 -2.94616 2.73065 0
M  V30 9304 N 861.411 -1.65364 2.38962 0
M  V30 9305 H 860.958 -0.762106 2.46068 0
M  V30 9306 H 860.916 -2.42789 1.99752 0
M  V30 9307 N 864.689 -1.48329 0.532571 0
M  V30 9308 C 865.919 -2.066 0.00353785 0
M  V30 9309 C 866.327 -1.38913 -1.28451 0
M  V30 9310 O 865.67 -0.471385 -1.77549 0
M  V30 9311 C 865.732 -3.58342 -0.288324 0
M  V30 9312 C 865.396 -4.47917 0.906631 0
M  V30 9313 C 866.393 -4.87534 1.80572 0
M  V30 9314 C 864.078 -4.89783 1.11436 0
M  V30 9315 C 866.072 -5.6779 2.89642 0
M  V30 9316 C 863.759 -5.69809 2.20819 0
M  V30 9317 C 864.757 -6.08721 3.09755 0
M  V30 9318 O 864.445 -6.8714 4.17246 0
M  V30 9319 H 864.177 -0.675263 0.0315661 0
M  V30 9320 H 866.731 -1.91669 0.738375 0
M  V30 9321 H 864.961 -3.71395 -1.07717 0
M  V30 9322 H 866.65 -3.98726 -0.759752 0
M  V30 9323 H 867.416 -4.5581 1.65719 0
M  V30 9324 H 863.295 -4.58977 0.431382 0
M  V30 9325 H 866.839 -5.98082 3.59087 0
M  V30 9326 H 862.736 -6.00947 2.35655 0
M  V30 9327 H 863.504 -7.05498 4.14988 0
M  V30 9328 N 866.167 -0.267825 -1.55308 0
M  V30 9329 C 867.115 0.638848 -2.23655 0
M  V30 9330 C 868.109 1.16363 -1.2311 0
M  V30 9331 O 869.315 1.1181 -1.41062 0
M  V30 9332 H 865.69 0.224551 -0.717691 0
M  V30 9333 H 867.661 0.0394809 -2.98374 0
M  V30 9334 C 866.41 1.8151 -2.96562 0
M  V30 9335 H 865.733 1.42048 -3.73715 0
M  V30 9336 H 867.173 2.42629 -3.47717 0
M  V30 9337 C 865.632 2.69911 -2.01618 0
M  V30 9338 O 866.162 3.70058 -1.56268 0
M  V30 9339 N 864.368 2.36924 -1.68272 0
M  V30 9340 H 863.915 1.55533 -2.05347 0
M  V30 9341 H 863.873 2.96343 -1.05016 0
M  V30 9342 N 867.645 1.57599 0.00500368 0
M  V30 9343 C 868.87 1.95026 0.705663 0
M  V30 9344 C 869.295 0.869643 1.6679 0
M  V30 9345 O 868.653 -0.172659 1.80476 0
M  V30 9346 C 868.701 3.31545 1.4181 0
M  V30 9347 O 867.805 3.25495 2.53232 0
M  V30 9348 H 867.146 0.636808 0.188074 0
M  V30 9349 H 869.676 2.04547 -0.046696 0
M  V30 9350 H 869.686 3.66996 1.78265 0
M  V30 9351 H 868.361 4.09751 0.712543 0
M  V30 9352 H 866.938 3.01714 2.19142 0
M  V30 9353 N 869.123 -0.277682 1.55134 0
M  V30 9354 C 870.369 -1.0114 1.7578 0
M  V30 9355 C 870.702 -1.86109 0.554719 0
M  V30 9356 O 869.977 -1.89275 -0.447813 0
M  V30 9357 C 870.26 -1.89789 3.06027 0
M  V30 9358 C 870.113 -1.07844 4.3668 0
M  V30 9359 C 871.432 -2.88577 3.32282 0
M  V30 9360 H 868.551 -0.366277 0.639539 0
M  V30 9361 H 871.193 -0.284155 1.87863 0
M  V30 9362 H 869.343 -2.51796 2.95856 0
M  V30 9363 H 871.015 -0.479432 4.58802 0
M  V30 9364 H 869.258 -0.381764 4.32117 0
M  V30 9365 H 869.929 -1.73179 5.24131 0
M  V30 9366 H 872.405 -2.36702 3.42215 0
M  V30 9367 H 871.281 -3.47749 4.2469 0
M  V30 9368 H 871.542 -3.63458 2.51696 0
M  V30 9369 N 870.601 -1.47988 -0.541979 0
M  V30 9370 C 871.878 -1.45878 -1.30303 0
M  V30 9371 C 872.258 -0.163931 -2.10463 0
M  V30 9372 O 871.606 0.854479 -2.11922 0
M  V30 9373 C 871.816 -2.71359 -2.19466 0
M  V30 9374 C 873.164 -3.19199 -2.79995 0
M  V30 9375 O 874.188 -2.72193 -2.2976 0
M  V30 9376 O 873.047 -4.00961 -3.71339 0
M  V30 9377 H 870.141 -0.582043 -0.587498 0
M  V30 9378 H 872.687 -1.60207 -0.559623 0
M  V30 9379 H 871.459 -3.57122 -1.59936 0
M  V30 9380 H 871.082 -2.59692 -3.01075 0
M  V30 9381 N 872.079 0.78992 -1.36375 0
M  V30 9382 C 873.009 1.91683 -1.33341 0
M  V30 9383 C 873.99 1.68861 -0.204965 0
M  V30 9384 O 875.175 1.89982 -0.402531 0
M  V30 9385 C 872.305 3.28696 -1.12143 0
M  V30 9386 C 871.259 3.66041 -2.21806 0
M  V30 9387 C 870.585 5.01399 -1.85751 0
M  V30 9388 C 871.885 3.74677 -3.63888 0
M  V30 9389 H 873.579 1.94478 -2.27637 0
M  V30 9390 H 871.125 0.934271 -1.09578 0
M  V30 9391 H 873.078 4.07151 -1.08656 0
M  V30 9392 H 871.802 3.26287 -0.142974 0
M  V30 9393 H 870.461 2.89883 -2.24418 0
M  V30 9394 H 870.109 4.9551 -0.864817 0
M  V30 9395 H 869.809 5.27355 -2.59173 0
M  V30 9396 H 871.333 5.82274 -1.83819 0
M  V30 9397 H 872.747 4.43324 -3.63506 0
M  V30 9398 H 871.144 4.12118 -4.3621 0
M  V30 9399 H 872.214 2.75795 -3.9883 0
M  V30 9400 N 873.557 1.20646 1.01402 0
M  V30 9401 C 874.782 1.04462 1.79172 0
M  V30 9402 C 875.207 -0.401588 1.83763 0
M  V30 9403 O 874.565 -1.28934 1.27459 0
M  V30 9404 C 874.613 1.63583 3.21361 0
M  V30 9405 O 873.717 0.875198 4.03006 0
M  V30 9406 H 873.058 0.368235 0.552539 0
M  V30 9407 H 875.588 1.59994 1.27526 0
M  V30 9408 H 875.598 1.67426 3.72065 0
M  V30 9409 H 874.273 2.68835 3.17334 0
M  V30 9410 H 872.85 0.911172 3.61597 0
M  V30 9411 N 875.035 -1.20752 1.01276 0
M  V30 9412 C 875.945 -2.27079 0.589277 0
M  V30 9413 C 876.961 -1.6999 -0.371389 0
M  V30 9414 O 878.137 -2.00044 -0.233294 0
M  V30 9415 C 875.202 -3.4663 -0.0696715 0
M  V30 9416 C 874.263 -4.18962 0.936454 0
M  V30 9417 C 873.496 -5.32806 0.308856 0
M  V30 9418 O 873.719 -5.63376 -0.8924 0
M  V30 9419 O 872.653 -5.93131 1.02367 0
M  V30 9420 H 876.479 -2.6551 1.47438 0
M  V30 9421 H 874.064 -1.27297 0.782045 0
M  V30 9422 H 875.946 -4.19119 -0.437873 0
M  V30 9423 H 874.621 -3.10082 -0.929029 0
M  V30 9424 H 873.528 -3.48661 1.35595 0
M  V30 9425 H 874.861 -4.59441 1.76565 0
M  V30 9426 N 876.513 -0.788492 -1.36457 0
M  V30 9427 C 877.759 -0.360995 -1.99561 0
M  V30 9428 C 878.092 1.06433 -1.62437 0
M  V30 9429 O 877.367 1.7352 -0.878705 0
M  V30 9430 C 877.65 -0.523735 -3.56271 0
M  V30 9431 C 877.503 -1.99268 -4.03252 0
M  V30 9432 C 878.822 0.0617908 -4.40057 0
M  V30 9433 H 875.941 -0.13264 -0.724966 0
M  V30 9434 H 878.583 -0.994659 -1.61884 0
M  V30 9435 H 876.733 0.0156979 -3.88497 0
M  V30 9436 H 878.405 -2.59311 -3.81518 0
M  V30 9437 H 876.648 -2.49561 -3.54826 0
M  V30 9438 H 877.319 -2.05752 -5.12221 0
M  V30 9439 H 879.795 -0.398674 -4.14186 0
M  V30 9440 H 878.671 -0.0821089 -5.48839 0
M  V30 9441 H 878.932 1.15381 -4.26778 0
M  V30 9442 N 877.991 1.48044 -0.54043 0
M  V30 9443 C 878.901 2.33565 0.220163 0
M  V30 9444 C 879.917 1.47146 0.928659 0
M  V30 9445 O 881.093 1.80107 0.901295 0
M  V30 9446 C 878.158 3.2349 1.2472 0
M  V30 9447 C 877.219 4.25789 0.547938 0
M  V30 9448 C 876.452 5.11417 1.52605 0
M  V30 9449 O 876.675 4.99204 2.75956 0
M  V30 9450 O 875.609 5.92498 1.05972 0
M  V30 9451 H 879.435 2.99868 -0.480898 0
M  V30 9452 H 877.02 1.46332 -0.301226 0
M  V30 9453 H 878.902 3.79084 1.84047 0
M  V30 9454 H 877.577 2.59835 1.93048 0
M  V30 9455 H 876.484 3.74001 -0.0860941 0
M  V30 9456 H 877.817 4.92111 -0.0935896 0
M  V30 9457 N 879.47 0.276058 1.55163 0
M  V30 9458 C 880.716 -0.333945 2.0064 0
M  V30 9459 C 881.071 -1.53414 1.16111 0
M  V30 9460 O 880.364 -1.90293 0.22341 0
M  V30 9461 C 880.558 -0.765744 3.491 0
M  V30 9462 C 880.387 0.391068 4.47996 0
M  V30 9463 C 879.157 0.875151 4.97664 0
M  V30 9464 C 881.355 1.22786 4.99428 0
M  V30 9465 N 879.337 2.00133 5.80362 0
M  V30 9466 C 880.708 2.20192 5.79582 0
M  V30 9467 C 882.763 1.26109 4.81665 0
M  V30 9468 C 881.466 3.20667 6.43868 0
M  V30 9469 C 883.492 2.2543 5.4675 0
M  V30 9470 C 882.854 3.21568 6.26716 0
M  V30 9471 H 878.953 -0.087345 0.777107 0
M  V30 9472 H 881.537 0.400294 1.90541 0
M  V30 9473 H 879.708 -1.46921 3.5954 0
M  V30 9474 H 881.44 -1.35316 3.81407 0
M  V30 9475 H 878.195 0.454297 4.71416 0
M  V30 9476 H 878.619 2.56806 6.26402 0
M  V30 9477 H 883.261 0.531622 4.19444 0
M  V30 9478 H 880.979 3.94547 7.05236 0
M  V30 9479 H 884.565 2.28744 5.34946 0
M  V30 9480 H 883.445 3.97164 6.76188 0
M  V30 9481 N 880.948 -1.576 0.00335426 0
M  V30 9482 C 881.858 -2.12067 -1.00322 0
M  V30 9483 C 882.874 -1.06672 -1.37467 0
M  V30 9484 O 884.05 -1.38592 -1.46131 0
M  V30 9485 C 881.115 -2.61593 -2.27531 0
M  V30 9486 C 880.176 -3.81602 -1.96668 0
M  V30 9487 C 879.409 -4.28756 -3.17811 0
M  V30 9488 O 879.632 -3.75222 -4.2961 0
M  V30 9489 O 878.566 -5.20877 -3.01613 0
M  V30 9490 H 882.392 -2.98299 -0.570199 0
M  V30 9491 H 879.977 -1.47835 -0.215682 0
M  V30 9492 H 881.859 -2.93631 -3.02256 0
M  V30 9493 H 880.534 -1.78457 -2.70065 0
M  V30 9494 H 879.441 -3.54531 -1.19408 0
M  V30 9495 H 880.774 -4.65822 -1.58968 0
M  V30 9496 N 882.426 0.269451 -1.5528 0
M  V30 9497 C 883.703 1.02207 -1.66773 0
M  V30 9498 C 884.083 2.04168 -0.536536 0
M  V30 9499 O 883.431 2.23761 0.462956 0
M  V30 9500 C 883.641 1.67569 -3.0614 0
M  V30 9501 C 884.989 2.18599 -3.64005 0
M  V30 9502 O 886.013 1.7755 -3.08795 0
M  V30 9503 O 884.872 2.93903 -4.60742 0
M  V30 9504 H 881.966 0.474314 -0.677462 0
M  V30 9505 H 884.512 0.265026 -1.67618 0
M  V30 9506 H 883.284 0.937029 -3.79915 0
M  V30 9507 H 882.907 2.49951 -3.09209 0
M  V30 9508 N 883.904 1.48273 0.534124 0
M  V30 9509 C 884.836 1.5857 1.65494 0
M  V30 9510 C 885.849 0.470266 1.5586 0
M  V30 9511 O 887.038 0.740928 1.62396 0
M  V30 9512 C 884.138 1.49554 3.04117 0
M  V30 9513 C 883.311 2.76066 3.39273 0
M  V30 9514 C 882.37 2.60562 4.57159 0
M  V30 9515 O 881.396 3.34438 4.60587 0
M  V30 9516 N 882.598 1.69906 5.55079 0
M  V30 9517 H 885.363 2.55226 1.57099 0
M  V30 9518 H 882.924 1.44944 0.721303 0
M  V30 9519 H 884.916 1.36882 3.80848 0
M  V30 9520 H 883.486 0.608895 3.06613 0
M  V30 9521 H 882.706 3.03332 2.51761 0
M  V30 9522 H 883.994 3.60006 3.59546 0
M  V30 9523 H 883.392 1.09079 5.55084 0
M  V30 9524 H 881.949 1.63175 6.31044 0
M  V30 9525 N 885.382 -0.782676 1.36792 0
M  V30 9526 C 886.345 -1.8772 1.31507 0
M  V30 9527 C 887.345 -1.59269 0.221349 0
M  V30 9528 O 888.535 -1.67555 0.476544 0
M  V30 9529 C 885.667 -3.24641 1.04025 0
M  V30 9530 H 886.86 -1.9382 2.28853 0
M  V30 9531 H 884.413 -0.981226 1.21662 0
M  V30 9532 H 885.148 -3.24221 0.0716439 0
M  V30 9533 H 884.933 -3.46681 1.8318 0
M  V30 9534 H 886.423 -4.04711 1.02949 0
M  V30 9535 N 886.86 -1.21182 -1.00761 0
M  V30 9536 C 887.77 -0.984691 -2.12934 0
M  V30 9537 C 888.786 0.0623657 -1.73888 0
M  V30 9538 O 889.962 -0.1271 -2.00999 0
M  V30 9539 C 887.027 -0.549447 -3.42319 0
M  V30 9540 C 886.088 -1.66841 -3.95553 0
M  V30 9541 C 885.321 -1.25384 -5.18763 0
M  V30 9542 O 885.544 -0.126333 -5.7026 0
M  V30 9543 O 884.478 -2.06475 -5.65377 0
M  V30 9544 H 888.304 -1.92413 -2.3497 0
M  V30 9545 H 885.889 -0.99647 -1.11314 0
M  V30 9546 H 887.771 -0.316384 -4.20211 0
M  V30 9547 H 886.446 0.361304 -3.21677 0
M  V30 9548 H 885.353 -1.95585 -3.189 0
M  V30 9549 H 886.686 -2.55649 -4.206 0
M  V30 9550 N 888.338 1.20213 -1.01915 0
M  V30 9551 C 889.563 1.94163 -0.729076 0
M  V30 9552 C 889.988 1.74416 0.704323 0
M  V30 9553 O 889.346 1.0401 1.48498 0
M  V30 9554 C 889.394 3.44258 -1.07324 0
M  V30 9555 O 888.498 4.11979 -0.186367 0
M  V30 9556 H 887.839 0.606506 -0.270272 0
M  V30 9557 H 890.369 1.52571 -1.3632 0
M  V30 9558 H 890.379 3.94888 -1.02603 0
M  V30 9559 H 889.054 3.57954 -2.11759 0
M  V30 9560 H 887.631 3.7176 -0.291334 0
M  V30 9561 N 889.816 0.795718 1.36037 0
M  V30 9562 C 890.746 0.212803 2.32528 0
M  V30 9563 C 891.727 -0.655716 1.56953 0
M  V30 9564 O 892.912 -0.588238 1.85077 0
M  V30 9565 C 890.042 -0.648189 3.41198 0
M  V30 9566 C 888.996 0.120948 4.27829 0
M  V30 9567 C 888.322 -0.861044 5.27722 0
M  V30 9568 C 889.622 1.31375 5.05508 0
M  V30 9569 H 891.316 1.01893 2.81528 0
M  V30 9570 H 888.862 0.491422 1.35355 0
M  V30 9571 H 890.815 -1.06597 4.07695 0
M  V30 9572 H 889.539 -1.48709 2.9078 0
M  V30 9573 H 888.198 0.519777 3.62897 0
M  V30 9574 H 887.846 -1.69515 4.73575 0
M  V30 9575 H 887.546 -0.350808 5.86552 0
M  V30 9576 H 889.07 -1.27726 5.97092 0
M  V30 9577 H 890.484 0.971406 5.6501 0
M  V30 9578 H 888.881 1.75772 5.73781 0
M  V30 9579 H 889.951 2.10593 4.36782 0
M  V30 9580 N 891.294 -1.47756 0.548274 0
M  V30 9581 C 892.71 -1.58247 0.207401 0
M  V30 9582 C 892.91 -1.54804 -1.28988 0
M  V30 9583 O 891.966 -1.44673 -2.06944 0
M  V30 9584 C 893.279 -2.89129 0.826142 0
M  V30 9585 C 894.827 -3.02695 0.79655 0
M  V30 9586 C 895.302 -4.36264 1.3942 0
M  V30 9587 N 896.793 -4.42877 1.35698 0
M  V30 9588 C 897.528 -5.44773 1.78913 0
M  V30 9589 N 897.024 -6.53528 2.29942 0
M  V30 9590 N 898.817 -5.35765 1.70038 0
M  V30 9591 H 890.968 -1.48236 1.52117 0
M  V30 9592 H 893.231 -0.704957 0.633829 0
M  V30 9593 H 892.937 -2.97358 1.87806 0
M  V30 9594 H 892.811 -3.75891 0.313916 0
M  V30 9595 H 895.198 -2.94067 -0.246655 0
M  V30 9596 H 895.279 -2.17496 1.34644 0
M  V30 9597 H 894.923 -4.45646 2.43642 0
M  V30 9598 H 894.853 -5.20179 0.819827 0
M  V30 9599 H 897.344 -3.64874 0.983623 0
M  V30 9600 H 897.657 -7.27441 2.60863 0
M  V30 9601 H 896.002 -6.54442 2.33947 0
M  V30 9602 H 899.193 -4.49699 1.29955 0
M  V30 9603 H 899.366 -6.1504 2.04035 0
M  V30 9604 N 892.772 -0.284283 -1.55015 0
M  V30 9605 C 894 0.332948 -2.04203 0
M  V30 9606 C 894.415 1.48783 -1.16229 0
M  V30 9607 O 893.772 1.81567 -0.184323 0
M  V30 9608 C 893.823 0.805207 -3.52418 0
M  V30 9609 O 893.544 -0.303689 -4.37046 0
M  V30 9610 C 895.045 1.48931 -4.17534 0
M  V30 9611 H 892.265 0.0747447 -0.666824 0
M  V30 9612 H 894.809 -0.419048 -2.00161 0
M  V30 9613 H 892.964 1.50727 -3.56876 0
M  V30 9614 H 893.378 0.0609703 -5.24465 0
M  V30 9615 H 894.852 1.77108 -5.22816 0
M  V30 9616 H 895.329 2.42389 -3.66257 0
M  V30 9617 H 895.935 0.830867 -4.17105 0
M  V30 9618 N 894.251 1.57596 -0.0117121 0
M  V30 9619 C 895.214 2.08089 0.960816 0
M  V30 9620 C 896.214 0.992519 1.26514 0
M  V30 9621 O 897.404 1.25475 1.20837 0
M  V30 9622 C 894.536 2.53217 2.28241 0
M  V30 9623 H 895.729 2.9529 0.523829 0
M  V30 9624 H 893.282 1.54508 0.235995 0
M  V30 9625 H 894.017 1.69294 2.76604 0
M  V30 9626 H 893.802 3.32714 2.0747 0
M  V30 9627 H 895.292 2.92568 2.97983 0
M  V30 9628 N 895.729 -0.261212 1.5542 0
M  V30 9629 C 896.662 -1.34906 1.84054 0
M  V30 9630 C 897.64 -1.47024 0.694466 0
M  V30 9631 O 898.824 -1.63463 0.938719 0
M  V30 9632 C 895.951 -2.7242 2.01259 0
M  V30 9633 C 894.997 -2.77526 3.23855 0
M  V30 9634 S 895.83 -2.35578 4.80898 0
M  V30 9635 C 896.986 -3.75045 5.01091 0
M  V30 9636 H 897.219 -1.10416 2.76035 0
M  V30 9637 H 894.752 -0.461461 1.47343 0
M  V30 9638 H 896.71 -3.51606 2.11857 0
M  V30 9639 H 895.371 -2.94155 1.10145 0
M  V30 9640 H 894.564 -3.78483 3.32816 0
M  V30 9641 H 894.166 -2.0637 3.11909 0
M  V30 9642 H 896.458 -4.7042 4.87556 0
M  V30 9643 H 897.401 -3.71027 6.03112 0
M  V30 9644 H 897.809 -3.66894 4.29009 0
M  V30 9645 N 897.207 -1.48554 -0.526253 0
M  V30 9646 C 898.456 -1.56014 -1.27837 0
M  V30 9647 C 898.769 -0.240643 -1.94114 0
M  V30 9648 O 899.975 -0.193525 -2.70809 0
M  V30 9649 C 898.431 -2.75161 -2.31979 0
M  V30 9650 C 898.039 -4.13768 -1.71755 0
M  V30 9651 C 899.783 -2.91936 -3.08178 0
M  V30 9652 C 897.69 -5.24171 -2.7386 0
M  V30 9653 H 896.62 -0.58082 -0.480795 0
M  V30 9654 H 899.271 -1.74895 -0.555335 0
M  V30 9655 H 897.653 -2.49722 -3.07335 0
M  V30 9656 H 898.827 -4.49241 -1.02563 0
M  V30 9657 H 897.142 -4.02141 -1.08036 0
M  V30 9658 H 899.739 -3.71586 -3.84484 0
M  V30 9659 H 900.082 -2.01533 -3.64267 0
M  V30 9660 H 900.615 -3.17294 -2.39937 0
M  V30 9661 H 897.354 -6.16552 -2.22586 0
M  V30 9662 H 896.874 -4.93181 -3.41368 0
M  V30 9663 H 898.553 -5.52442 -3.36774 0
M  V30 9664 N 898.685 0.775411 -1.37205 0
M  V30 9665 C 899.633 1.90996 -1.32752 0
M  V30 9666 C 900.627 1.68006 -0.216907 0
M  V30 9667 O 901.833 1.7584 -0.384723 0
M  V30 9668 H 898.208 0.62803 -0.413621 0
M  V30 9669 H 900.179 1.91869 -2.28536 0
M  V30 9670 C 898.928 3.28211 -1.14772 0
M  V30 9671 H 898.251 3.46477 -1.99484 0
M  V30 9672 H 899.691 4.07907 -1.15706 0
M  V30 9673 C 898.15 3.3658 0.146852 0
M  V30 9674 O 898.68 3.85428 1.13173 0
M  V30 9675 N 896.886 2.89936 0.196305 0
M  V30 9676 H 896.433 2.50375 -0.605807 0
M  V30 9677 H 896.391 2.95916 1.06212 0
M  V30 9678 N 900.163 1.21714 1.00117 0
M  V30 9679 C 901.579 0.97532 1.26332 0
M  V30 9680 C 901.779 -0.336029 1.98678 0
M  V30 9681 O 900.835 -1.06073 2.29139 0
M  V30 9682 C 902.148 2.16848 2.0832 0
M  V30 9683 C 903.696 2.21115 2.21533 0
M  V30 9684 C 904.171 3.3996 3.06906 0
M  V30 9685 N 905.662 3.40071 3.14494 0
M  V30 9686 C 906.397 4.28678 3.80818 0
M  V30 9687 N 905.893 5.2749 4.49139 0
M  V30 9688 N 907.686 4.16476 3.77497 0
M  V30 9689 H 899.837 2.06039 0.515897 0
M  V30 9690 H 902.1 0.902423 0.290408 0
M  V30 9691 H 901.806 3.119 1.62515 0
M  V30 9692 H 901.68 2.16226 3.09073 0
M  V30 9693 H 904.067 1.26616 2.66557 0
M  V30 9694 H 904.148 2.2578 1.20238 0
M  V30 9695 H 903.792 4.34755 2.62585 0
M  V30 9696 H 903.722 3.32534 4.08324 0
M  V30 9697 H 906.213 2.68563 2.65861 0
M  V30 9698 H 906.526 5.91397 4.97463 0
M  V30 9699 H 904.871 5.31412 4.47914 0
M  V30 9700 H 908.062 3.38539 3.23278 0
M  V30 9701 H 908.235 4.85739 4.28908 0
M  V30 9702 N 901.641 -1.19671 1.02551 0
M  V30 9703 C 902.551 -2.26441 0.613329 0
M  V30 9704 C 903.567 -1.70375 -0.353339 0
M  V30 9705 O 904.743 -2.0028 -0.212064 0
M  V30 9706 C 901.808 -3.46684 -0.0329028 0
M  V30 9707 C 900.869 -4.17945 0.980837 0
M  V30 9708 C 900.102 -5.32448 0.36535 0
M  V30 9709 O 900.325 -5.64291 -0.832596 0
M  V30 9710 O 899.259 -5.92012 1.08652 0
M  V30 9711 H 903.085 -2.63932 1.50246 0
M  V30 9712 H 900.67 -1.2646 0.795502 0
M  V30 9713 H 902.552 -4.1956 -0.393395 0
M  V30 9714 H 901.227 -3.1105 -0.896089 0
M  V30 9715 H 900.134 -3.47204 1.39286 0
M  V30 9716 H 901.467 -4.57542 1.81428 0
M  V30 9717 N 903.119 -0.802921 -1.35613 0
M  V30 9718 C 904.347 -0.39393 -2.03115 0
M  V30 9719 C 904.762 0.993961 -1.60517 0
M  V30 9720 O 904.119 1.63984 -0.800973 0
M  V30 9721 C 904.17 -0.463486 -3.58516 0
M  V30 9722 O 903.891 -1.79666 -3.99565 0
M  V30 9723 C 905.392 -0.0468377 -4.43275 0
M  V30 9724 H 902.612 -0.160519 -0.651517 0
M  V30 9725 H 905.156 -1.08552 -1.73311 0
M  V30 9726 H 903.311 0.179821 -3.86982 0
M  V30 9727 H 903.725 -1.75688 -4.942 0
M  V30 9728 H 905.199 -0.146626 -5.51805 0
M  V30 9729 H 905.676 1.00741 -4.2749 0
M  V30 9730 H 906.282 -0.663158 -4.20098 0
M  V30 9731 N 904.597 1.47463 -0.556102 0
M  V30 9732 C 905.845 2.02075 -0.0315712 0
M  V30 9733 C 906.166 1.43292 1.32259 0
M  V30 9734 O 905.436 0.60771 1.86236 0
M  V30 9735 H 904.016 0.74695 -0.0086816 0
M  V30 9736 H 906.678 1.80879 -0.725859 0
M  V30 9737 H 905.774 3.12047 0.0573538 0
M  V30 9738 N 906.075 0.2925 1.54862 0
M  V30 9739 C 907.303 -0.322113 2.04377 0
M  V30 9740 C 907.718 -1.48164 1.17016 0
M  V30 9741 O 907.075 -1.81466 0.19395 0
M  V30 9742 C 907.126 -0.786506 3.5284 0
M  V30 9743 O 906.847 0.326863 4.36879 0
M  V30 9744 C 908.348 -1.46715 4.18318 0
M  V30 9745 H 905.568 -0.0712074 0.667211 0
M  V30 9746 H 908.112 0.429657 1.99935 0
M  V30 9747 H 906.267 -1.48832 3.5767 0
M  V30 9748 H 906.681 -0.0331558 5.2449 0
M  V30 9749 H 908.155 -1.74333 5.23748 0
M  V30 9750 H 908.632 -2.40443 3.67538 0
M  V30 9751 H 909.238 -0.808735 4.1754 0
M  V30 9752 N 907.553 -1.57587 0.0200696 0
M  V30 9753 C 908.483 -2.12702 -0.963333 0
M  V30 9754 C 909.464 -1.04094 -1.34531 0
M  V30 9755 O 910.649 -1.31881 -1.42552 0
M  V30 9756 C 907.779 -2.64673 -2.24868 0
M  V30 9757 C 906.733 -3.77987 -2.00772 0
M  V30 9758 C 906.059 -4.16351 -3.35494 0
M  V30 9759 C 907.359 -5.0444 -1.35416 0
M  V30 9760 H 909.053 -2.95121 -0.504363 0
M  V30 9761 H 906.599 -1.41966 -0.24116 0
M  V30 9762 H 908.552 -3.01862 -2.94036 0
M  V30 9763 H 907.276 -1.79403 -2.72914 0
M  V30 9764 H 905.935 -3.41223 -1.34025 0
M  V30 9765 H 905.583 -3.28075 -3.81282 0
M  V30 9766 H 905.283 -4.92705 -3.20181 0
M  V30 9767 H 906.807 -4.56115 -4.05945 0
M  V30 9768 H 908.221 -5.39273 -1.94571 0
M  V30 9769 H 906.618 -5.85732 -1.30529 0
M  V30 9770 H 907.688 -4.83803 -0.325923 0
M  V30 9771 N 909.032 0.252966 -1.55557 0
M  V30 9772 C 910.257 1.0038 -1.8149 0
M  V30 9773 C 910.682 1.78397 -0.596318 0
M  V30 9774 O 910.04 1.7551 0.454535 0
M  V30 9775 C 910.088 1.9222 -3.05096 0
M  V30 9776 O 909.192 3.01302 -2.81587 0
M  V30 9777 H 908.533 0.285949 -0.599274 0
M  V30 9778 H 911.063 0.275795 -2.02733 0
M  V30 9779 H 911.073 2.338 -3.34368 0
M  V30 9780 H 909.748 1.34852 -3.93431 0
M  V30 9781 H 908.325 2.63894 -2.63466 0
M  V30 9782 N 910.51 1.48831 0.518367 0
M  V30 9783 C 911.443 1.588 1.63884 0
M  V30 9784 C 912.421 0.437847 1.56594 0
M  V30 9785 O 913.605 0.651042 1.769 0
M  V30 9786 C 910.732 1.52681 3.02335 0
M  V30 9787 C 909.778 2.7268 3.27945 0
M  V30 9788 S 910.611 4.34536 3.12951 0
M  V30 9789 C 911.767 4.31034 4.53828 0
M  V30 9790 H 912 2.53587 1.5518 0
M  V30 9791 H 909.533 1.37507 0.702218 0
M  V30 9792 H 911.491 1.49837 3.82177 0
M  V30 9793 H 910.152 0.592107 3.08469 0
M  V30 9794 H 909.345 2.64569 4.28974 0
M  V30 9795 H 908.947 2.72847 2.55794 0
M  V30 9796 H 911.239 4.01683 5.45579 0
M  V30 9797 H 912.182 5.32282 4.66991 0
M  V30 9798 H 912.59 3.61343 4.33695 0
M  V30 9799 N 911.988 -0.768124 1.37614 0
M  V30 9800 C 913.265 -1.51637 1.23554 0
M  V30 9801 C 913.645 -2.1042 -0.169331 0
M  V30 9802 O 912.993 -1.95834 -1.17735 0
M  V30 9803 C 913.203 -2.59436 2.33439 0
M  V30 9804 C 914.551 -3.2674 2.71157 0
M  V30 9805 O 915.575 -2.69733 2.32642 0
M  V30 9806 O 914.434 -4.29814 3.37524 0
M  V30 9807 H 911.528 -0.671778 0.482332 0
M  V30 9808 H 914.074 -0.804779 1.49403 0
M  V30 9809 H 912.846 -2.14146 3.27502 0
M  V30 9810 H 912.469 -3.38192 2.09073 0
M  V30 9811 N 913.466 -1.22244 -0.994698 0
M  V30 9812 C 914.712 -1.04746 -1.73655 0
M  V30 9813 C 915.045 0.41668 -1.89677 0
M  V30 9814 O 914.32 1.30897 -1.43862 0
M  V30 9815 C 914.603 -1.75716 -3.14318 0
M  V30 9816 C 914.456 -3.29714 -3.05955 0
M  V30 9817 C 915.775 -1.50809 -4.13455 0
M  V30 9818 H 912.894 -0.381921 -0.630322 0
M  V30 9819 H 915.536 -1.50559 -1.15897 0
M  V30 9820 H 913.686 -1.3677 -3.63629 0
M  V30 9821 H 915.358 -3.78093 -2.64279 0
M  V30 9822 H 913.601 -3.59484 -2.42804 0
M  V30 9823 H 914.272 -3.74547 -4.05485 0
M  V30 9824 H 916.748 -1.84636 -3.72892 0
M  V30 9825 H 915.624 -2.02964 -5.09997 0
M  V30 9826 H 915.885 -0.440292 -4.39902 0
M  V30 9827 N 914.944 1.19125 -1.03184 0
M  V30 9828 C 915.891 2.2245 -0.6152 0
M  V30 9829 C 916.861 1.61869 0.372502 0
M  V30 9830 O 918.046 1.88901 0.268491 0
M  V30 9831 C 915.186 3.45091 0.0248027 0
M  V30 9832 C 914.299 4.20044 -1.0093 0
M  V30 9833 C 913.434 5.30119 -0.338744 0
M  V30 9834 C 912.473 5.96833 -1.35855 0
M  V30 9835 N 911.61 6.98464 -0.713594 0
M  V30 9836 H 916.45 2.57445 -1.50086 0
M  V30 9837 H 913.987 1.26485 -0.751005 0
M  V30 9838 H 915.945 4.15149 0.413131 0
M  V30 9839 H 914.575 3.10742 0.874028 0
M  V30 9840 H 913.627 3.48901 -1.51566 0
M  V30 9841 H 914.939 4.65796 -1.78425 0
M  V30 9842 H 914.093 6.0661 0.104269 0
M  V30 9843 H 912.832 4.85446 0.468382 0
M  V30 9844 H 911.837 5.1909 -1.81179 0
M  V30 9845 H 913.062 6.4359 -2.16722 0
M  V30 9846 H 911.008 6.55959 0.0733863 0
M  V30 9847 H 910.925 7.42422 -1.42638 0
M  V30 9848 H 912.193 7.78943 -0.294681 0
M  V30 9849 N 916.422 0.810101 1.35185 0
M  V30 9850 C 917.668 0.392698 1.98962 0
M  V30 9851 C 918.001 -1.03835 1.64109 0
M  V30 9852 O 917.276 -1.721 0.9062 0
M  V30 9853 C 917.559 0.580349 3.55393 0
M  V30 9854 C 917.412 2.05658 4.00031 0
M  V30 9855 C 918.731 0.00822618 4.40099 0
M  V30 9856 H 915.85 0.144157 0.722764 0
M  V30 9857 H 918.492 1.02029 1.60281 0
M  V30 9858 H 916.642 0.0461106 3.88473 0
M  V30 9859 H 918.314 2.65348 3.77344 0
M  V30 9860 H 916.557 2.55174 3.50811 0
M  V30 9861 H 917.228 2.13875 5.08883 0
M  V30 9862 H 919.704 0.464517 4.13499 0
M  V30 9863 H 918.58 0.169414 5.48638 0
M  V30 9864 H 918.841 -1.08576 4.2856 0
M  V30 9865 N 917.9 -1.47166 0.563914 0
M  V30 9866 C 919.311 -1.86231 0.132307 0
M  V30 9867 C 919.662 -1.46976 -1.29971 0
M  V30 9868 O 918.787 -0.875911 -1.97881 0
M  V30 9869 C 919.382 -3.37996 0.233335 0
M  V30 9870 C 917.941 -3.76127 -0.143278 0
M  V30 9871 C 917.088 -2.71212 0.577857 0
M  V30 9872 H 920.039 -1.38588 0.773249 0
M  V30 9873 H 920.06 -3.76558 -0.546309 0
M  V30 9874 H 919.572 -3.66535 1.27568 0
M  V30 9875 H 917.673 -3.53205 -1.18648 0
M  V30 9876 H 917.786 -4.78595 0.219952 0
M  V30 9877 H 916.15 -2.54692 0.020186 0
M  V30 9878 H 916.933 -3.02593 1.62149 0
M  V30 9879 N 919.378 -0.300708 -1.54705 0
M  V30 9880 C 920.311 0.617513 -2.19686 0
M  V30 9881 C 921.289 1.1331 -1.16617 0
M  V30 9882 O 922.473 1.20135 -1.45258 0
M  V30 9883 C 919.6 1.84486 -2.84047 0
M  V30 9884 C 918.646 1.46253 -4.0064 0
M  V30 9885 S 919.479 0.518718 -5.32982 0
M  V30 9886 C 920.635 1.75387 -6.00825 0
M  V30 9887 H 920.868 0.0654548 -2.97228 0
M  V30 9888 H 918.401 -0.0848492 -1.54167 0
M  V30 9889 H 920.359 2.54921 -3.21754 0
M  V30 9890 H 919.02 2.36808 -2.06351 0
M  V30 9891 H 918.213 2.37648 -4.44454 0
M  V30 9892 H 917.815 0.838129 -3.64488 0
M  V30 9893 H 920.107 2.69448 -6.21614 0
M  V30 9894 H 921.05 1.35829 -6.9495 0
M  V30 9895 H 921.458 1.93045 -5.30466 0
M  V30 9896 N 920.856 1.57574 -0.0284266 0
M  V30 9897 C 922.133 1.83064 0.688979 0
M  V30 9898 C 922.513 0.91219 1.90374 0
M  V30 9899 O 921.861 -0.0323672 2.28477 0
M  V30 9900 C 922.071 3.32262 1.06785 0
M  V30 9901 C 923.419 3.98717 1.45978 0
M  V30 9902 O 924.443 3.36753 1.16085 0
M  V30 9903 O 923.302 5.07927 2.01673 0
M  V30 9904 H 920.396 0.7548 0.337944 0
M  V30 9905 H 922.942 1.69607 -0.0560555 0
M  V30 9906 H 921.714 3.90772 0.203235 0
M  V30 9907 H 921.337 3.50823 1.87107 0
M  V30 9908 N 922.334 -0.244713 1.55689 0
M  V30 9909 C 923.281 -1.30301 1.905 0
M  V30 9910 C 924.251 -1.4772 0.759478 0
M  V30 9911 O 925.436 -1.61667 1.01333 0
M  V30 9912 C 922.576 -2.653 2.20703 0
M  V30 9913 C 921.689 -2.55872 3.48071 0
M  V30 9914 C 920.824 -3.83238 3.67834 0
M  V30 9915 C 919.863 -3.68436 4.88796 0
M  V30 9916 N 919 -4.877 5.05068 0
M  V30 9917 H 923.84 -0.999143 2.80751 0
M  V30 9918 H 921.377 -0.482099 1.38976 0
M  V30 9919 H 923.335 -3.43884 2.36219 0
M  V30 9920 H 921.965 -2.93831 1.33653 0
M  V30 9921 H 921.017 -1.68846 3.40874 0
M  V30 9922 H 922.329 -2.40845 4.36801 0
M  V30 9923 H 921.483 -4.70266 3.83321 0
M  V30 9924 H 920.222 -4.01165 2.77341 0
M  V30 9925 H 919.227 -2.79793 4.73282 0
M  V30 9926 H 920.452 -3.52003 5.8075 0
M  V30 9927 H 918.398 -5.05983 4.17513 0
M  V30 9928 H 918.315 -4.75312 5.8789 0
M  V30 9929 H 919.583 -5.76219 5.24969 0
M  V30 9930 N 923.813 -1.49104 -0.510467 0
M  V30 9931 C 925.061 -1.578 -1.26268 0
M  V30 9932 C 925.382 -0.262349 -1.93227 0
M  V30 9933 O 924.652 0.717624 -1.82283 0
M  V30 9934 H 923.232 -0.581387 -0.46904 0
M  V30 9935 H 925.894 -1.85678 -0.592423 0
M  V30 9936 H 924.99 -2.36919 -2.03165 0
M  V30 9937 N 925.291 0.760815 -1.38019 0
M  V30 9938 C 926.238 1.8744 -1.34666 0
M  V30 9939 C 927.208 1.64762 -0.210386 0
M  V30 9940 O 928.393 1.86528 -0.401479 0
M  V30 9941 C 925.533 3.24648 -1.17037 0
M  V30 9942 C 924.646 3.59206 -2.3999 0
M  V30 9943 C 923.781 4.8568 -2.15148 0
M  V30 9944 C 922.82 5.13002 -3.3391 0
M  V30 9945 N 921.957 6.30668 -3.08549 0
M  V30 9946 H 926.797 1.8964 -2.29871 0
M  V30 9947 H 924.334 0.927004 -1.14215 0
M  V30 9948 H 926.292 4.03814 -1.04834 0
M  V30 9949 H 924.922 3.21793 -0.254758 0
M  V30 9950 H 923.974 2.74939 -2.62893 0
M  V30 9951 H 925.286 3.75328 -3.28527 0
M  V30 9952 H 924.44 5.72773 -2.00039 0
M  V30 9953 H 923.179 4.71682 -1.23965 0
M  V30 9954 H 922.184 4.2438 -3.49545 0
M  V30 9955 H 923.409 5.28901 -4.25958 0
M  V30 9956 H 921.355 6.18008 -2.20006 0
M  V30 9957 H 921.272 6.47257 -3.90633 0
M  V30 9958 H 922.54 7.20669 -2.9708 0
M  V30 9959 N 926.769 1.22769 0.988202 0
M  V30 9960 C 928.185 0.988665 1.2529 0
M  V30 9961 C 928.385 -0.314938 1.99024 0
M  V30 9962 O 927.441 -1.03637 2.30251 0
M  V30 9963 C 928.754 2.19046 2.06009 0
M  V30 9964 C 930.302 2.23452 2.19176 0
M  V30 9965 C 930.777 3.43196 3.03283 0
M  V30 9966 N 932.268 3.43387 3.10869 0
M  V30 9967 C 933.003 4.32693 3.7625 0
M  V30 9968 N 932.499 5.32224 4.43519 0
M  V30 9969 N 934.292 4.20457 3.73058 0
M  V30 9970 H 926.443 2.06575 0.494014 0
M  V30 9971 H 928.706 0.905452 0.28082 0
M  V30 9972 H 928.412 3.13607 1.59197 0
M  V30 9973 H 928.286 2.19492 3.06763 0
M  V30 9974 H 930.673 1.29436 2.65199 0
M  V30 9975 H 930.754 2.27042 1.17836 0
M  V30 9976 H 930.398 4.37515 2.57959 0
M  V30 9977 H 930.328 3.36847 4.04774 0
M  V30 9978 H 932.819 2.71368 2.62998 0
M  V30 9979 H 933.132 5.9664 4.91163 0
M  V30 9980 H 931.477 5.36133 4.42252 0
M  V30 9981 H 934.668 3.41949 3.19669 0
M  V30 9982 H 934.841 4.90261 4.23731 0
M  V30 9983 N 928.247 -1.18576 1.03814 0
M  V30 9984 C 929.493 -1.88773 0.741132 0
M  V30 9985 C 929.826 -1.79993 -0.729127 0
M  V30 9986 O 929.101 -1.19851 -1.53186 0
M  V30 9987 C 929.384 -3.39352 1.20468 0
M  V30 9988 C 929.237 -3.56955 2.73684 0
M  V30 9989 C 930.556 -4.32901 0.792741 0
M  V30 9990 H 927.675 -0.685482 0.270708 0
M  V30 9991 H 930.317 -1.39523 1.2897 0
M  V30 9992 H 928.467 -3.81427 0.737974 0
M  V30 9993 H 930.139 -3.2399 3.28372 0
M  V30 9994 H 928.382 -2.99696 3.13632 0
M  V30 9995 H 929.053 -4.62598 3.01176 0
M  V30 9996 H 931.529 -3.98592 1.1943 0
M  V30 9997 H 930.405 -5.36828 1.14486 0
M  V30 9998 H 930.666 -4.41052 -0.304295 0
M  V30 9999 N 929.725 -0.817259 -1.34754 0
M  V30 10000 C 930.655 -0.249769 -2.3216 0
M  V30 10001 C 931.636 0.630663 -1.57977 0
M  V30 10002 O 932.821 0.558719 -1.85989 0
M  V30 10003 C 929.951 0.593825 -3.42186 0
M  V30 10004 C 928.905 -0.188997 -4.27583 0
M  V30 10005 C 928.231 0.776979 -5.29025 0
M  V30 10006 C 929.531 -1.39401 -5.03354 0
M  V30 10007 H 931.225 -1.06359 -2.79872 0
M  V30 10008 H 928.771 -0.512894 -1.34556 0
M  V30 10009 H 930.724 1.00097 -4.09339 0
M  V30 10010 H 929.448 1.44064 -2.93109 0
M  V30 10011 H 928.107 -0.577445 -3.62024 0
M  V30 10012 H 927.755 1.61959 -4.76212 0
M  V30 10013 H 927.455 0.257448 -5.87036 0
M  V30 10014 H 928.979 1.18211 -5.99048 0
M  V30 10015 H 930.393 -1.06117 -5.63393 0
M  V30 10016 H 928.79 -1.84878 -5.70912 0
M  V30 10017 H 929.86 -2.17515 -4.33377 0
M  V30 10018 N 931.203 1.46865 -0.571711 0
M  V30 10019 C 932.45 2.0243 -0.0531071 0
M  V30 10020 C 932.778 1.44446 1.30252 0
M  V30 10021 O 932.033 0.595182 1.8643 0
M  V30 10022 C 932.332 3.57323 0.0742311 0
M  V30 10023 C 931.998 4.34295 -1.21237 0
M  V30 10024 C 930.66 4.55044 -1.56489 0
M  V30 10025 C 933.012 4.78577 -2.0643 0
M  V30 10026 C 930.34 5.17325 -2.76752 0
M  V30 10027 C 932.692 5.42186 -3.25909 0
M  V30 10028 C 931.356 5.61165 -3.61456 0
M  V30 10029 H 930.626 0.740745 -0.0194333 0
M  V30 10030 H 933.273 1.76366 -0.74614 0
M  V30 10031 H 931.578 3.82461 0.850325 0
M  V30 10032 H 933.275 3.97982 0.491077 0
M  V30 10033 H 929.865 4.18435 -0.927922 0
M  V30 10034 H 934.049 4.62313 -1.80501 0
M  V30 10035 H 929.305 5.30211 -3.04444 0
M  V30 10036 H 933.479 5.75459 -3.92198 0
M  V30 10037 H 931.106 6.09195 -4.54737 0
M  V30 10038 N 932.681 0.308908 1.54543 0
M  V30 10039 C 933.611 -0.556657 2.26768 0
M  V30 10040 C 934.592 -1.13145 1.27013 0
M  V30 10041 O 935.777 -1.15931 1.558 0
M  V30 10042 C 932.907 -1.72481 3.01443 0
M  V30 10043 C 931.861 -1.28001 4.08411 0
M  V30 10044 C 931.187 -2.53395 4.70845 0
M  V30 10045 C 932.487 -0.405497 5.20724 0
M  V30 10046 H 934.181 0.0457618 2.99365 0
M  V30 10047 H 931.727 0.0234495 1.43981 0
M  V30 10048 H 933.68 -2.3365 3.50693 0
M  V30 10049 H 932.404 -2.35359 2.26437 0
M  V30 10050 H 931.063 -0.69133 3.60022 0
M  V30 10051 H 930.711 -3.14604 3.92471 0
M  V30 10052 H 930.411 -2.2433 5.43093 0
M  V30 10053 H 931.935 -3.15352 5.22863 0
M  V30 10054 H 933.349 -0.923076 5.6582 0
M  V30 10055 H 931.746 -0.208282 5.99738 0
M  V30 10056 H 932.816 0.567412 4.81569 0
M  V30 10057 N 934.159 -1.57557 0.0367827 0
M  V30 10058 C 935.387 -1.96419 -0.650168 0
M  V30 10059 C 935.802 -0.913656 -1.6522 0
M  V30 10060 O 935.159 0.103718 -1.82205 0
M  V30 10061 C 935.21 -3.35355 -1.3498 0
M  V30 10062 O 934.931 -4.36379 -0.387905 0
M  V30 10063 C 936.432 -3.88892 -2.12786 0
M  V30 10064 H 933.652 -0.646751 -0.178756 0
M  V30 10065 H 936.196 -2.04261 0.0988197 0
M  V30 10066 H 934.351 -3.28708 -2.05012 0
M  V30 10067 H 934.765 -5.16969 -0.885596 0
M  V30 10068 H 936.239 -4.88428 -2.5718 0
M  V30 10069 H 936.716 -3.23547 -2.97008 0
M  V30 10070 H 937.322 -3.98831 -1.47694 0
M  V30 10071 N 935.637 0.236453 -1.55816 0
M  V30 10072 C 936.585 1.31259 -1.92025 0
M  V30 10073 C 937.579 1.49292 -0.800518 0
M  V30 10074 O 938.785 1.50643 -0.985229 0
M  V30 10075 H 935.16 0.439751 -0.610019 0
M  V30 10076 H 937.131 0.979926 -2.81851 0
M  V30 10077 C 935.88 2.65892 -2.24046 0
M  V30 10078 H 935.203 2.5282 -3.09713 0
M  V30 10079 H 936.643 3.40039 -2.53277 0
M  V30 10080 C 935.102 3.19777 -1.0604 0
M  V30 10081 O 935.632 4.00473 -0.313786 0
M  V30 10082 N 933.838 2.77946 -0.848209 0
M  V30 10083 H 933.385 2.12433 -1.45706 0
M  V30 10084 H 933.343 3.14342 -0.0603424 0
M  V30 10085 N 937.115 1.49373 0.502552 0
M  V30 10086 C 938.392 1.49282 1.26389 0
M  V30 10087 C 938.772 0.219674 2.09954 0
M  V30 10088 O 938.12 -0.797991 2.14113 0
M  V30 10089 C 938.33 2.77083 2.12194 0
M  V30 10090 C 939.678 3.26511 2.71433 0
M  V30 10091 O 940.702 2.78189 2.22462 0
M  V30 10092 O 939.561 4.10665 3.60578 0
M  V30 10093 H 936.655 0.597415 0.57186 0
M  V30 10094 H 939.201 1.61634 0.516951 0
M  V30 10095 H 937.973 3.61237 1.50411 0
M  V30 10096 H 937.596 2.67583 2.94084 0
M  V30 10097 N 938.594 -0.753485 1.38421 0
M  V30 10098 C 939.824 -1.54049 1.37669 0
M  V30 10099 C 940.232 -1.89167 -0.0353656 0
M  V30 10100 O 939.575 -1.53285 -1.01239 0
M  V30 10101 C 939.637 -2.86777 2.16793 0
M  V30 10102 C 939.301 -2.74196 3.65603 0
M  V30 10103 C 940.298 -2.43985 4.59094 0
M  V30 10104 C 937.983 -2.91645 4.0896 0
M  V30 10105 C 939.977 -2.31379 5.93921 0
M  V30 10106 C 937.664 -2.78658 5.43868 0
M  V30 10107 C 938.662 -2.48568 6.36163 0
M  V30 10108 O 938.35 -2.3564 7.68589 0
M  V30 10109 H 938.082 -0.483276 0.472673 0
M  V30 10110 H 940.636 -0.940267 1.82615 0
M  V30 10111 H 938.866 -3.48988 1.66565 0
M  V30 10112 H 940.555 -3.48289 2.08446 0
M  V30 10113 H 941.321 -2.30172 4.26902 0
M  V30 10114 H 937.2 -3.14063 3.37469 0
M  V30 10115 H 940.744 -2.07813 6.65927 0
M  V30 10116 H 936.641 -2.92044 5.75656 0
M  V30 10117 H 937.409 -2.50851 7.79112 0
M  V30 10118 N 940.072 -1.23292 -0.981677 0
M  V30 10119 C 941.319 -1.06424 -1.72279 0
M  V30 10120 C 941.647 0.399055 -1.90362 0
M  V30 10121 O 940.902 1.31181 -1.45224 0
M  V30 10122 C 941.201 -1.73339 -3.12551 0
M  V30 10123 C 940.867 -3.23256 -3.14351 0
M  V30 10124 C 939.529 -3.64159 -3.14549 0
M  V30 10125 C 941.881 -4.1916 -3.09765 0
M  V30 10126 C 939.209 -4.99428 -3.07877 0
M  V30 10127 C 941.561 -5.54419 -3.04635 0
M  V30 10128 C 940.225 -5.94688 -3.03154 0
M  V30 10129 H 939.495 -0.389434 -0.630415 0
M  V30 10130 H 942.142 -1.53208 -1.1489 0
M  V30 10131 H 940.447 -1.18911 -3.73319 0
M  V30 10132 H 942.144 -1.57767 -3.68661 0
M  V30 10133 H 938.734 -2.90693 -3.14953 0
M  V30 10134 H 942.918 -3.88569 -3.08753 0
M  V30 10135 H 938.174 -5.29844 -3.05083 0
M  V30 10136 H 942.348 -6.28448 -3.00043 0
M  V30 10137 H 939.975 -6.99468 -2.97739 0
M  V30 10138 N 941.55 1.18024 -1.04442 0
M  V30 10139 C 942.797 1.88098 -0.750022 0
M  V30 10140 C 943.125 1.80583 0.722489 0
M  V30 10141 O 942.38 1.20329 1.54335 0
M  V30 10142 C 942.679 3.37834 -1.16631 0
M  V30 10143 C 942.345 3.65553 -2.63974 0
M  V30 10144 C 941.007 3.72827 -3.04226 0
M  V30 10145 C 943.359 3.77634 -3.59224 0
M  V30 10146 C 940.687 3.89666 -4.38608 0
M  V30 10147 C 943.039 3.9599 -4.9333 0
M  V30 10148 C 941.703 4.01501 -5.33248 0
M  V30 10149 H 940.973 0.6883 -0.274452 0
M  V30 10150 H 943.62 1.39671 -1.31012 0
M  V30 10151 H 941.925 3.88266 -0.525071 0
M  V30 10152 H 943.622 3.90402 -0.915827 0
M  V30 10153 H 940.212 3.6051 -2.31798 0
M  V30 10154 H 944.396 3.71342 -3.2927 0
M  V30 10155 H 939.652 3.92178 -4.69048 0
M  V30 10156 H 943.826 4.0428 -5.67037 0
M  V30 10157 H 941.453 4.14301 -6.37384 0
M  V30 10158 N 943.028 0.824394 1.34319 0
M  V30 10159 C 944.256 0.426194 2.02463 0
M  V30 10160 C 944.671 -0.968298 1.62078 0
M  V30 10161 O 944.028 -1.62689 0.82696 0
M  V30 10162 C 944.079 0.520465 3.57734 0
M  V30 10163 O 943.8 1.86 3.96656 0
M  V30 10164 C 945.301 0.117353 4.43145 0
M  V30 10165 H 942.521 0.170864 0.648881 0
M  V30 10166 H 945.065 1.11296 1.71562 0
M  V30 10167 H 943.22 -0.118233 3.8722 0
M  V30 10168 H 943.634 1.83528 4.91343 0
M  V30 10169 H 945.108 0.234395 5.51502 0
M  V30 10170 H 945.585 -0.939271 4.29039 0
M  V30 10171 H 946.191 0.729908 4.1899 0
M  V30 10172 N 944.506 -1.46559 0.579492 0
M  V30 10173 C 945.783 -1.956 -0.00287136 0
M  V30 10174 C 946.163 -1.52215 -1.46266 0
M  V30 10175 O 945.511 -0.771335 -2.15088 0
M  V30 10176 C 945.721 -3.48606 0.165824 0
M  V30 10177 C 947.069 -4.24588 0.0319807 0
M  V30 10178 O 948.093 -3.56075 0.094496 0
M  V30 10179 O 946.952 -5.46396 -0.106386 0
M  V30 10180 H 944.046 -0.825387 -0.0516274 0
M  V30 10181 H 946.592 -1.56858 0.647584 0
M  V30 10182 H 945.364 -3.7306 1.18076 0
M  V30 10183 H 944.987 -3.94169 -0.521212 0
M  V30 10184 N 945.984 -0.3171 -1.54377 0
M  V30 10185 C 947.233 0.288271 -1.99629 0
M  V30 10186 C 947.546 1.53754 -1.2091 0
M  V30 10187 O 948.752 2.2185 -1.56508 0
M  V30 10188 C 947.208 0.564188 -3.5545 0
M  V30 10189 C 946.816 -0.667659 -4.42997 0
M  V30 10190 C 948.56 1.12987 -4.09187 0
M  V30 10191 C 946.467 -0.364003 -5.90279 0
M  V30 10192 H 945.397 0.111492 -0.745711 0
M  V30 10193 H 948.048 -0.428317 -1.78431 0
M  V30 10194 H 946.43 1.34079 -3.72611 0
M  V30 10195 H 947.604 -1.44335 -4.37612 0
M  V30 10196 H 945.919 -1.1531 -4.00116 0
M  V30 10197 H 948.516 1.37157 -5.1681 0
M  V30 10198 H 948.859 2.07722 -3.60773 0
M  V30 10199 H 949.392 0.414595 -3.95634 0
M  V30 10200 H 946.131 -1.28035 -6.42874 0
M  V30 10201 H 945.651 0.374102 -5.98632 0
M  V30 10202 H 947.33 0.0285433 -6.46994 0
M  V30 10203 N 947.462 1.57535 -0.0451378 0
M  V30 10204 C 948.687 1.97172 0.64326 0
M  V30 10205 C 949.112 0.922266 1.63939 0
M  V30 10206 O 948.47 -0.115155 1.80934 0
M  V30 10207 C 948.518 3.35889 1.3119 0
M  V30 10208 O 947.622 3.33387 2.42748 0
M  V30 10209 H 946.963 0.642469 0.167719 0
M  V30 10210 H 949.493 2.04295 -0.111747 0
M  V30 10211 H 949.503 3.72481 1.66499 0
M  V30 10212 H 948.178 4.1181 0.581823 0
M  V30 10213 H 946.755 3.08533 2.09432 0
M  V30 10214 N 948.94 -0.228186 1.55939 0
M  V30 10215 C 950.217 -0.977492 1.69424 0
M  V30 10216 C 950.597 -2.02674 0.590479 0
M  V30 10217 O 949.945 -2.2491 -0.403467 0
M  V30 10218 C 950.155 -1.59394 3.10475 0
M  V30 10219 C 951.503 -2.08871 3.69673 0
M  V30 10220 O 952.527 -1.693 3.13394 0
M  V30 10221 O 951.386 -2.81584 4.68372 0
M  V30 10222 H 948.48 -0.456185 0.6898 0
M  V30 10223 H 951.026 -0.220492 1.68261 0
M  V30 10224 H 949.798 -0.835971 3.82266 0
M  V30 10225 H 949.421 -2.41665 3.15727 0
M  V30 10226 N 950.418 -1.49637 -0.494624 0
M  V30 10227 C 951.646 -1.63164 -1.2722 0
M  V30 10228 C 952.061 -0.305552 -1.86311 0
M  V30 10229 O 951.418 0.709758 -1.68133 0
M  V30 10230 C 951.469 -2.70524 -2.39789 0
M  V30 10231 O 951.19 -3.97991 -1.83126 0
M  V30 10232 C 952.691 -2.94814 -3.31058 0
M  V30 10233 H 949.911 -0.54912 -0.385627 0
M  V30 10234 H 952.455 -1.95711 -0.593081 0
M  V30 10235 H 950.61 -2.40738 -3.03519 0
M  V30 10236 H 951.024 -4.57179 -2.57075 0
M  V30 10237 H 952.498 -3.73653 -4.06309 0
M  V30 10238 H 952.975 -2.04974 -3.88436 0
M  V30 10239 H 953.581 -3.26042 -2.73088 0
M  V30 10240 N 951.896 0.746133 -1.38819 0
M  V30 10241 C 953.307 1.32384 -1.31648 0
M  V30 10242 C 953.658 1.96185 0.0243086 0
M  V30 10243 O 952.783 1.95567 0.92641 0
M  V30 10244 C 953.378 2.40712 -2.38418 0
M  V30 10245 C 951.937 2.94185 -2.34803 0
M  V30 10246 C 951.084 1.67639 -2.20891 0
M  V30 10247 H 954.035 0.544457 -1.49068 0
M  V30 10248 H 954.056 3.20833 -2.04564 0
M  V30 10249 H 953.568 1.94247 -3.3599 0
M  V30 10250 H 951.669 3.44959 -1.40834 0
M  V30 10251 H 951.782 3.48057 -3.29231 0
M  V30 10252 H 950.146 1.9155 -1.67871 0
M  V30 10253 H 950.929 1.23242 -3.20416 0
M  V30 10254 N 953.375 1.23811 0.975125 0
M  V30 10255 C 954.622 1.07336 1.71712 0
M  V30 10256 C 954.95 -0.388954 1.90571 0
M  V30 10257 O 954.205 -1.30409 1.45918 0
M  V30 10258 C 954.504 1.74994 3.11628 0
M  V30 10259 C 954.17 3.24918 3.12632 0
M  V30 10260 C 952.832 3.65822 3.12614 0
M  V30 10261 C 955.184 4.20797 3.07538 0
M  V30 10262 C 952.512 5.01054 3.05224 0
M  V30 10263 C 954.864 5.56027 3.0169 0
M  V30 10264 C 953.528 5.96287 2.99996 0
M  V30 10265 H 952.798 0.392771 0.62834 0
M  V30 10266 H 955.445 1.53815 1.14075 0
M  V30 10267 H 953.75 1.20889 3.72684 0
M  V30 10268 H 955.447 1.5972 3.67819 0
M  V30 10269 H 952.037 2.92359 3.13407 0
M  V30 10270 H 956.221 3.902 3.06688 0
M  V30 10271 H 951.477 5.31454 3.02268 0
M  V30 10272 H 955.651 6.3003 2.96706 0
M  V30 10273 H 953.278 7.01037 2.94025 0
M  V30 10274 N 954.853 -1.17469 1.05066 0
M  V30 10275 C 956.078 -1.92162 0.780298 0
M  V30 10276 C 956.503 -1.76222 -0.657832 0
M  V30 10277 O 955.861 -1.0791 -1.45688 0
M  V30 10278 C 955.909 -3.41292 1.16414 0
M  V30 10279 O 955.013 -4.1134 0.295531 0
M  V30 10280 H 954.354 -0.599127 0.286257 0
M  V30 10281 H 956.884 -1.48903 1.40318 0
M  V30 10282 H 956.894 -3.92029 1.13036 0
M  V30 10283 H 955.569 -3.52214 2.21175 0
M  V30 10284 H 954.146 -3.70857 0.389797 0
M  V30 10285 N 956.331 -0.831506 -1.3388 0
M  V30 10286 C 957.261 -0.274378 -2.31882 0
M  V30 10287 C 958.242 0.613872 -1.58637 0
M  V30 10288 O 959.427 0.538961 -1.86571 0
M  V30 10289 C 956.557 0.557498 -3.42796 0
M  V30 10290 C 955.511 -0.234337 -4.27358 0
M  V30 10291 C 954.837 0.720825 -5.29819 0
M  V30 10292 C 956.137 -1.44732 -5.01847 0
M  V30 10293 H 957.831 -1.09322 -2.78728 0
M  V30 10294 H 955.377 -0.527136 -1.34005 0
M  V30 10295 H 957.33 0.957501 -4.10378 0
M  V30 10296 H 956.054 1.40947 -2.94621 0
M  V30 10297 H 954.713 -0.61581 -3.61391 0
M  V30 10298 H 954.361 1.569 -4.77903 0
M  V30 10299 H 954.061 0.195171 -5.87276 0
M  V30 10300 H 955.585 1.1185 -6.00268 0
M  V30 10301 H 956.999 -1.12087 -5.62236 0
M  V30 10302 H 955.396 -1.90923 -5.68919 0
M  V30 10303 H 956.466 -2.22099 -4.31045 0
M  V30 10304 N 957.809 1.4625 -0.587256 0
M  V30 10305 C 959.057 2.01963 -0.0744273 0
M  V30 10306 C 959.378 1.46065 1.29189 0
M  V30 10307 O 958.648 0.647077 1.84905 0
M  V30 10308 H 957.228 0.746597 -0.0245236 0
M  V30 10309 H 959.89 1.79299 -0.764063 0
M  V30 10310 H 958.986 3.12099 -0.00884894 0
M  V30 10311 N 959.287 0.325282 1.54207 0
M  V30 10312 C 960.533 -0.277185 2.00897 0
M  V30 10313 C 960.866 -1.51651 1.21308 0
M  V30 10314 O 960.141 -1.92237 0.295825 0
M  V30 10315 C 960.424 -0.60961 3.54902 0
M  V30 10316 C 960.277 0.640542 4.45216 0
M  V30 10317 C 961.596 -1.42656 4.16338 0
M  V30 10318 H 958.715 -0.0992722 0.730284 0
M  V30 10319 H 961.357 0.442201 1.84783 0
M  V30 10320 H 959.507 -1.22249 3.68765 0
M  V30 10321 H 961.179 1.27878 4.43221 0
M  V30 10322 H 959.422 1.26908 4.14821 0
M  V30 10323 H 960.093 0.363459 5.50802 0
M  V30 10324 H 962.569 -0.908494 4.06061 0
M  V30 10325 H 961.445 -1.62792 5.24204 0
M  V30 10326 H 961.706 -2.42321 3.69774 0
M  V30 10327 N 960.765 -1.57509 0.0534917 0
M  V30 10328 C 962.011 -1.93068 -0.62069 0
M  V30 10329 C 962.344 -0.932313 -1.70357 0
M  V30 10330 O 961.619 0.0413393 -1.94456 0
M  V30 10331 C 961.902 -3.38997 -1.21463 0
M  V30 10332 C 961.755 -4.49583 -0.13965 0
M  V30 10333 C 963.074 -3.85366 -2.12558 0
M  V30 10334 H 960.193 -0.702083 -0.224163 0
M  V30 10335 H 962.835 -1.89647 0.115729 0
M  V30 10336 H 960.985 -3.42043 -1.84226 0
M  V30 10337 H 962.657 -4.58664 0.492411 0
M  V30 10338 H 960.9 -4.30525 0.532006 0
M  V30 10339 H 961.571 -5.48781 -0.595287 0
M  V30 10340 H 964.047 -3.8421 -1.59755 0
M  V30 10341 H 962.923 -4.8812 -2.51058 0
M  V30 10342 H 963.184 -3.22256 -3.02661 0
M  V30 10343 N 962.243 0.219913 -1.56058 0
M  V30 10344 C 963.173 1.27572 -1.9557 0
M  V30 10345 C 964.154 1.48801 -0.824148 0
M  V30 10346 O 965.339 1.60957 -1.08658 0
M  V30 10347 C 962.469 2.62517 -2.27381 0
M  V30 10348 C 961.423 2.55941 -3.43042 0
M  V30 10349 C 960.749 3.94931 -3.60463 0
M  V30 10350 C 962.049 2.10584 -4.77966 0
M  V30 10351 H 963.743 0.947482 -2.84013 0
M  V30 10352 H 961.289 0.454337 -1.36645 0
M  V30 10353 H 963.242 3.36538 -2.53615 0
M  V30 10354 H 961.966 2.97031 -1.35794 0
M  V30 10355 H 960.625 1.84377 -3.1686 0
M  V30 10356 H 960.273 4.26756 -2.66249 0
M  V30 10357 H 959.973 3.91413 -4.38258 0
M  V30 10358 H 961.497 4.70611 -3.89046 0
M  V30 10359 H 962.911 2.74349 -5.03394 0
M  V30 10360 H 961.308 2.18122 -5.59055 0
M  V30 10361 H 962.378 1.05818 -4.73213 0
M  V30 10362 N 963.721 1.49897 0.486681 0
M  V30 10363 C 964.946 1.64106 1.26823 0
M  V30 10364 C 965.371 0.317967 1.85393 0
M  V30 10365 O 964.729 -0.71626 1.66551 0
M  V30 10366 C 964.777 2.72301 2.36399 0
M  V30 10367 O 963.881 2.32469 3.40634 0
M  V30 10368 H 963.222 0.548794 0.373793 0
M  V30 10369 H 965.752 1.96177 0.581017 0
M  V30 10370 H 965.762 2.94906 2.81948 0
M  V30 10371 H 964.437 3.68335 1.93137 0
M  V30 10372 H 963.014 2.20251 3.00905 0
M  V30 10373 N 965.199 -0.738761 1.39212 0
M  V30 10374 C 966.615 -1.04381 1.20734 0
M  V30 10375 C 966.815 -2.01391 0.0663082 0
M  V30 10376 O 965.871 -2.45672 -0.583229 0
M  V30 10377 C 967.184 -1.6097 2.53987 0
M  V30 10378 C 968.732 -1.73069 2.60799 0
M  V30 10379 C 969.207 -2.33067 3.94264 0
M  V30 10380 N 970.698 -2.40481 3.95883 0
M  V30 10381 C 971.433 -2.87834 4.95923 0
M  V30 10382 N 970.929 -3.35111 6.0636 0
M  V30 10383 N 972.722 -2.87009 4.83304 0
M  V30 10384 H 964.873 -0.0952996 2.12186 0
M  V30 10385 H 967.136 -0.104902 0.942178 0
M  V30 10386 H 966.842 -0.971548 3.38015 0
M  V30 10387 H 966.716 -2.59829 2.73439 0
M  V30 10388 H 969.103 -2.36007 1.77157 0
M  V30 10389 H 969.184 -0.728728 2.452 0
M  V30 10390 H 968.828 -1.70758 4.78335 0
M  V30 10391 H 968.758 -3.33933 4.07181 0
M  V30 10392 H 971.249 -2.07061 3.16123 0
M  V30 10393 H 971.562 -3.69742 6.78609 0
M  V30 10394 H 969.907 -3.33129 6.09959 0
M  V30 10395 H 973.098 -2.49395 3.96131 0
M  V30 10396 H 973.271 -3.23598 5.61416 0
M  V30 10397 N 966.677 -1.24326 -0.968545 0
M  V30 10398 C 967.925 -1.08032 -1.70803 0
M  V30 10399 C 968.246 0.381728 -1.91227 0
M  V30 10400 O 967.516 1.27253 -1.48942 0
M  V30 10401 H 966.096 -0.396777 -0.632912 0
M  V30 10402 H 968.758 -1.56232 -1.16523 0
M  V30 10403 H 967.854 -1.57769 -2.69287 0
M  V30 10404 N 968.156 1.1691 -1.05688 0
M  V30 10405 C 969.106 2.19056 -0.632339 0
M  V30 10406 C 970.09 1.574 0.333797 0
M  V30 10407 O 971.282 1.76361 0.150223 0
M  V30 10408 C 968.411 3.43297 -0.0138209 0
M  V30 10409 C 967.497 4.12042 -1.00408 0
M  V30 10410 N 967.888 4.56535 -2.17737 0
M  V30 10411 C 966.186 4.38139 -0.833663 0
M  V30 10412 C 966.887 5.09644 -2.80425 0
M  V30 10413 N 965.863 5.02153 -2.08191 0
M  V30 10414 H 969.665 2.51165 -1.52621 0
M  V30 10415 H 967.179 1.33294 -0.927707 0
M  V30 10416 H 969.176 4.1576 0.308117 0
M  V30 10417 H 967.836 3.12677 0.87538 0
M  V30 10418 H 968.847 4.50463 -2.55546 0
M  V30 10419 H 965.524 4.175 0.00406684 0
M  V30 10420 H 966.914 5.54153 -3.79952 0
M  V30 10421 N 969.634 0.838594 1.33437 0
M  V30 10422 C 970.882 0.433312 1.974 0
M  V30 10423 C 971.203 -1.01078 1.66758 0
M  V30 10424 O 970.473 -1.70406 0.966373 0
M  V30 10425 H 969.053 0.15724 0.730263 0
M  V30 10426 H 971.715 1.07149 1.62804 0
M  V30 10427 H 970.811 0.565144 3.06941 0
M  V30 10428 N 971.112 -1.45937 0.595003 0
M  V30 10429 C 972.022 -2.34221 -0.133325 0
M  V30 10430 C 973.038 -1.50491 -0.873407 0
M  V30 10431 O 974.214 -1.83328 -0.833828 0
M  V30 10432 C 971.279 -3.27896 -1.12628 0
M  V30 10433 C 970.34 -4.27529 -0.389532 0
M  V30 10434 C 969.573 -5.16729 -1.33519 0
M  V30 10435 O 969.796 -5.09102 -2.57238 0
M  V30 10436 O 968.73 -5.96023 -0.839084 0
M  V30 10437 H 972.556 -2.97877 0.591861 0
M  V30 10438 H 970.141 -1.45113 0.355329 0
M  V30 10439 H 972.023 -3.85654 -1.69851 0
M  V30 10440 H 970.698 -2.6682 -1.83272 0
M  V30 10441 H 969.605 -3.73424 0.224843 0
M  V30 10442 H 970.938 -4.91425 0.276169 0
M  V30 10443 N 972.59 -0.333456 -1.54032 0
M  V30 10444 C 973.82 0.267425 -2.04862 0
M  V30 10445 C 974.228 1.45559 -1.20869 0
M  V30 10446 O 973.571 1.82197 -0.234478 0
M  V30 10447 C 973.633 0.755759 -3.51466 0
M  V30 10448 C 973.297 -0.311409 -4.55938 0
M  V30 10449 C 974.294 -1.15078 -5.07004 0
M  V30 10450 C 971.979 -0.462439 -5.00167 0
M  V30 10451 C 973.973 -2.12682 -6.0087 0
M  V30 10452 C 971.66 -1.44188 -5.93846 0
M  V30 10453 C 972.658 -2.27253 -6.44085 0
M  V30 10454 O 972.346 -3.23532 -7.35923 0
M  V30 10455 H 972.078 0.0572596 -0.673571 0
M  V30 10456 H 974.632 -0.480646 -1.99697 0
M  V30 10457 H 972.862 1.55491 -3.54062 0
M  V30 10458 H 974.551 1.27607 -3.8532 0
M  V30 10459 H 975.317 -1.04513 -4.73605 0
M  V30 10460 H 971.196 0.17424 -4.60671 0
M  V30 10461 H 974.74 -2.77555 -6.40007 0
M  V30 10462 H 970.637 -1.54813 -6.2666 0
M  V30 10463 H 971.405 -3.18886 -7.53826 0
M  V30 10464 N 974.068 1.57479 -0.061844 0
M  V30 10465 C 975.317 1.92285 0.609055 0
M  V30 10466 C 975.63 0.942983 1.71369 0
M  V30 10467 O 976.836 1.18349 2.44348 0
M  V30 10468 C 975.292 3.41545 1.13468 0
M  V30 10469 C 974.9 4.47958 0.0615926 0
M  V30 10470 C 976.644 3.85368 1.78022 0
M  V30 10471 C 974.551 5.88341 0.600705 0
M  V30 10472 H 973.481 0.717656 0.23127 0
M  V30 10473 H 976.132 1.83021 -0.132466 0
M  V30 10474 H 974.514 3.45848 1.92886 0
M  V30 10475 H 975.688 4.55258 -0.712527 0
M  V30 10476 H 974.003 4.13541 -0.487116 0
M  V30 10477 H 976.6 4.87627 2.19371 0
M  V30 10478 H 976.943 3.22193 2.63623 0
M  V30 10479 H 977.476 3.83626 1.05242 0
M  V30 10480 H 974.215 6.55138 -0.217922 0
M  V30 10481 H 973.735 5.84581 1.34257 0
M  V30 10482 H 975.414 6.37918 1.08025 0
M  V30 10483 N 975.546 -0.211634 1.56173 0
M  V30 10484 C 976.476 -1.26533 1.96244 0
M  V30 10485 C 977.457 -1.48362 0.832028 0
M  V30 10486 O 978.642 -1.60378 1.0951 0
M  V30 10487 C 975.772 -2.61307 2.2877 0
M  V30 10488 C 974.726 -2.54119 3.44395 0
M  V30 10489 C 974.052 -3.93014 3.62552 0
M  V30 10490 C 975.352 -2.08046 4.79076 0
M  V30 10491 H 977.046 -0.932407 2.84511 0
M  V30 10492 H 974.592 -0.447084 1.36884 0
M  V30 10493 H 976.545 -3.35188 2.55396 0
M  V30 10494 H 975.269 -2.96307 1.37367 0
M  V30 10495 H 973.928 -1.82694 3.17834 0
M  V30 10496 H 973.576 -4.25338 2.68508 0
M  V30 10497 H 973.276 -3.89083 4.40327 0
M  V30 10498 H 974.8 -4.68542 3.91537 0
M  V30 10499 H 976.214 -2.71676 5.04842 0
M  V30 10500 H 974.611 -2.15154 5.60204 0
M  V30 10501 H 975.681 -1.03306 4.73768 0
M  V30 10502 N 977.024 -1.50153 -0.478725 0
M  V30 10503 C 977.954 -1.71384 -1.58587 0
M  V30 10504 C 978.935 -0.562705 -1.60523 0
M  V30 10505 O 980.12 -0.80101 -1.76911 0
M  V30 10506 C 977.25 -1.80094 -2.96957 0
M  V30 10507 C 976.204 -2.95218 -3.09888 0
M  V30 10508 C 975.53 -2.89063 -4.49829 0
M  V30 10509 C 976.83 -4.35841 -2.8782 0
M  V30 10510 H 978.524 -2.64081 -1.41073 0
M  V30 10511 H 976.07 -1.27081 -0.677239 0
M  V30 10512 H 978.023 -1.93531 -3.74331 0
M  V30 10513 H 976.747 -0.840131 -3.1561 0
M  V30 10514 H 975.406 -2.81419 -2.34944 0
M  V30 10515 H 975.054 -1.90844 -4.6539 0
M  V30 10516 H 974.754 -3.66345 -4.59418 0
M  V30 10517 H 976.278 -3.04539 -5.29234 0
M  V30 10518 H 977.692 -4.50205 -3.54948 0
M  V30 10519 H 976.089 -5.14515 -3.0886 0
M  V30 10520 H 977.159 -4.48739 -1.83742 0
M  V30 10521 N 978.502 0.731368 -1.39602 0
M  V30 10522 C 979.75 1.48805 -1.36753 0
M  V30 10523 C 980.071 1.94969 0.034676 0
M  V30 10524 O 979.341 1.69243 0.986591 0
M  V30 10525 H 977.921 0.55203 -0.503261 0
M  V30 10526 H 980.583 0.868013 -1.74504 0
M  V30 10527 H 979.679 2.36844 -2.03252 0
M  V30 10528 N 979.98 1.24838 0.961938 0
M  V30 10529 C 980.928 1.0436 2.07874 0
M  V30 10530 C 981.922 -0.0232531 1.69384 0
M  V30 10531 O 983.128 0.131773 1.79517 0
M  V30 10532 H 979.503 0.320492 0.680286 0
M  V30 10533 H 981.474 1.99055 2.22306 0
M  V30 10534 C 980.223 0.671246 3.41159 0
M  V30 10535 H 979.546 1.48395 3.7124 0
M  V30 10536 H 980.986 0.567608 4.20184 0
M  V30 10537 C 979.445 -0.622124 3.31106 0
M  V30 10538 O 979.975 -1.66627 3.65511 0
M  V30 10539 N 978.181 -0.605009 2.84232 0
M  V30 10540 H 977.728 0.245052 2.56432 0
M  V30 10541 H 977.686 -1.47056 2.77888 0
M  V30 10542 N 981.458 -1.16348 1.06306 0
M  V30 10543 C 982.686 -1.90782 0.800614 0
M  V30 10544 C 983.101 -1.77439 -0.645033 0
M  V30 10545 O 982.458 -1.11912 -1.4416 0
M  V30 10546 C 982.509 -3.41484 1.18621 0
M  V30 10547 O 982.23 -3.54428 2.57512 0
M  V30 10548 C 983.731 -4.32968 0.951525 0
M  V30 10549 H 980.951 -0.604977 0.290247 0
M  V30 10550 H 983.495 -1.47476 1.41672 0
M  V30 10551 H 981.65 -3.82493 0.614633 0
M  V30 10552 H 982.064 -4.4788 2.72954 0
M  V30 10553 H 983.538 -5.37169 1.27095 0
M  V30 10554 H 984.015 -4.39055 -0.112734 0
M  V30 10555 H 984.621 -3.97687 1.50749 0
M  V30 10556 N 982.937 -0.845659 -1.3299 0
M  V30 10557 C 984.162 -0.457435 -2.02293 0
M  V30 10558 C 984.587 0.935634 -1.63179 0
M  V30 10559 O 983.945 1.61297 -0.827835 0
M  V30 10560 C 983.993 -0.593665 -3.5568 0
M  V30 10561 O 983.097 0.37729 -4.10671 0
M  V30 10562 H 982.438 -0.185022 -0.637701 0
M  V30 10563 H 984.968 -1.14237 -1.69738 0
M  V30 10564 H 984.978 -0.477834 -4.05192 0
M  V30 10565 H 983.653 -1.60957 -3.83491 0
M  V30 10566 H 982.23 0.218448 -3.7226 0
M  V30 10567 N 984.415 1.45619 -0.602734 0
M  V30 10568 C 985.661 2.02572 -0.0961759 0
M  V30 10569 C 985.994 1.47076 1.26815 0
M  V30 10570 O 985.269 0.643566 1.83544 0
M  V30 10571 C 985.552 3.60062 -0.0520032 0
M  V30 10572 C 985.405 4.25901 -1.44665 0
M  V30 10573 C 986.724 4.35446 0.638342 0
M  V30 10574 H 983.843 0.736099 -0.0364238 0
M  V30 10575 H 986.485 1.7353 -0.773776 0
M  V30 10576 H 984.635 3.84936 0.525032 0
M  V30 10577 H 986.307 4.12228 -2.0704 0
M  V30 10578 H 984.55 3.84489 -2.00874 0
M  V30 10579 H 985.221 5.34779 -1.36803 0
M  V30 10580 H 987.697 4.15837 0.147926 0
M  V30 10581 H 986.573 5.45176 0.63834 0
M  V30 10582 H 986.834 4.07962 1.70351 0
M  V30 10583 N 985.893 0.34162 1.53853 0
M  V30 10584 C 986.803 -0.524555 2.2866 0
M  V30 10585 C 987.819 -1.1136 1.33697 0
M  V30 10586 O 988.995 -1.1297 1.66732 0
M  V30 10587 C 986.06 -1.66065 3.04341 0
M  V30 10588 C 985.121 -1.10158 4.14926 0
M  V30 10589 C 984.354 -2.18353 4.86988 0
M  V30 10590 O 984.577 -3.39038 4.58704 0
M  V30 10591 O 983.511 -1.82756 5.73484 0
M  V30 10592 H 987.337 0.0835014 3.03585 0
M  V30 10593 H 984.922 0.106727 1.49018 0
M  V30 10594 H 986.804 -2.3217 3.51674 0
M  V30 10595 H 985.479 -2.25456 2.32275 0
M  V30 10596 H 984.386 -0.405109 3.719 0
M  V30 10597 H 985.719 -0.552567 4.89088 0
M  V30 10598 N 987.371 -1.57444 0.0701946 0
M  V30 10599 C 988.281 -2.16132 -0.912377 0
M  V30 10600 C 989.297 -1.12406 -1.32819 0
M  V30 10601 O 990.473 -1.44665 -1.40121 0
M  V30 10602 C 987.538 -2.71008 -2.16231 0
M  V30 10603 C 986.599 -3.896 -1.80306 0
M  V30 10604 C 985.832 -4.4185 -2.9934 0
M  V30 10605 O 986.055 -3.93106 -4.13309 0
M  V30 10606 O 984.989 -5.33201 -2.7925 0
M  V30 10607 H 988.815 -3.00449 -0.443167 0
M  V30 10608 H 986.4 -1.48617 -0.152786 0
M  V30 10609 H 988.282 -3.06186 -2.8953 0
M  V30 10610 H 986.957 -1.8975 -2.62253 0
M  V30 10611 H 985.864 -3.59277 -1.04264 0
M  V30 10612 H 987.197 -4.72145 -1.39068 0
M  V30 10613 N 988.849 0.203349 -1.56283 0
M  V30 10614 C 990.097 0.923183 -1.79782 0
M  V30 10615 C 990.418 1.84134 -0.64185 0
M  V30 10616 O 989.688 1.92922 0.340292 0
M  V30 10617 H 988.268 0.343881 -0.66314 0
M  V30 10618 H 990.93 0.210837 -1.93756 0
M  V30 10619 H 990.026 1.51921 -2.72629 0
M  V30 10620 N 990.327 1.50405 0.470755 0
M  V30 10621 C 991.257 1.72222 1.57676 0
M  V30 10622 C 992.238 0.57121 1.60222 0
M  V30 10623 O 993.423 0.810381 1.76484 0
M  V30 10624 C 990.553 1.81666 2.95998 0
M  V30 10625 C 989.507 2.96857 3.08318 0
M  V30 10626 C 988.833 2.91445 4.4829 0
M  V30 10627 C 990.133 4.37361 2.85504 0
M  V30 10628 H 991.827 2.64825 1.39671 0
M  V30 10629 H 989.373 1.27438 0.67049 0
M  V30 10630 H 991.326 1.95514 3.73299 0
M  V30 10631 H 990.05 0.856856 3.1516 0
M  V30 10632 H 988.709 2.82661 2.33449 0
M  V30 10633 H 988.357 1.93309 4.64371 0
M  V30 10634 H 988.057 3.68776 4.57469 0
M  V30 10635 H 989.581 3.07341 5.27611 0
M  V30 10636 H 990.995 4.52081 3.52555 0
M  V30 10637 H 989.392 5.16145 3.06127 0
M  V30 10638 H 990.462 4.49708 1.81359 0
M  V30 10639 N 991.805 -0.723954 1.39988 0
M  V30 10640 C 992.755 -1.82943 1.36073 0
M  V30 10641 C 993.739 -1.59105 0.239682 0
M  V30 10642 O 994.931 -1.7042 0.478116 0
M  V30 10643 C 992.06 -3.20988 1.21745 0
M  V30 10644 C 991.146 -3.50618 2.38596 0
M  V30 10645 N 991.537 -3.51115 3.64077 0
M  V30 10646 C 989.835 -3.81035 2.31794 0
M  V30 10647 C 990.536 -3.78852 4.41413 0
M  V30 10648 N 989.512 -3.97182 3.71143 0
M  V30 10649 H 993.314 -1.81649 2.31043 0
M  V30 10650 H 990.828 -0.922703 1.33641 0
M  V30 10651 H 992.825 -4.00139 1.17022 0
M  V30 10652 H 991.485 -3.23513 0.277344 0
M  V30 10653 H 992.496 -3.32163 3.97351 0
M  V30 10654 H 989.173 -3.911 1.46105 0
M  V30 10655 H 990.563 -3.85612 5.5023 0
M  V30 10656 N 993.283 -1.25346 -0.955304 0
M  V30 10657 C 994.56 -1.00829 -1.67609 0
M  V30 10658 C 994.94 0.465675 -2.059 0
M  V30 10659 O 994.288 1.44287 -1.77182 0
M  V30 10660 C 994.498 -1.94337 -2.89886 0
M  V30 10661 C 995.846 -2.22142 -3.61854 0
M  V30 10662 O 996.87 -1.9209 -2.99967 0
M  V30 10663 O 995.729 -2.73239 -4.73289 0
M  V30 10664 H 992.823 -0.382314 -0.733325 0
M  V30 10665 H 995.369 -1.36498 -1.00829 0
M  V30 10666 H 994.141 -2.93867 -2.58376 0
M  V30 10667 H 993.764 -1.59062 -3.64397 0
M  V30 10668 N 994.761 1.15782 -1.06922 0
M  V30 10669 C 995.691 2.22538 -0.707045 0
M  V30 10670 C 996.672 1.67371 0.303471 0
M  V30 10671 O 997.857 1.9339 0.177189 0
M  V30 10672 C 994.987 3.47158 -0.0994269 0
M  V30 10673 C 993.941 4.15257 -1.03661 0
M  V30 10674 C 993.267 5.33902 -0.291974 0
M  V30 10675 C 994.567 4.65516 -2.36837 0
M  V30 10676 H 996.261 2.53089 -1.59958 0
M  V30 10677 H 993.807 1.21649 -0.770552 0
M  V30 10678 H 995.76 4.21073 0.165852 0
M  V30 10679 H 994.484 3.15926 0.828155 0
M  V30 10680 H 993.143 3.43276 -1.28674 0
M  V30 10681 H 992.791 4.98926 0.638928 0
M  V30 10682 H 992.491 5.80407 -0.916613 0
M  V30 10683 H 994.015 6.1059 -0.0343915 0
M  V30 10684 H 995.429 5.30981 -2.16175 0
M  V30 10685 H 993.826 5.22666 -2.94856 0
M  V30 10686 H 994.896 3.81387 -2.99453 0
M  V30 10687 N 996.239 0.8527 1.3254 0
M  V30 10688 C 997.169 0.311234 2.31416 0
M  V30 10689 C 998.15 -0.588557 1.59593 0
M  V30 10690 O 999.335 -0.509211 1.87405 0
M  V30 10691 C 996.465 -0.502892 3.4364 0
M  V30 10692 C 995.419 0.302296 4.26931 0
M  V30 10693 C 994.745 -0.636445 5.30899 0
M  V30 10694 C 996.045 1.52697 4.99481 0
M  V30 10695 H 997.739 1.13742 2.76953 0
M  V30 10696 H 995.285 0.548389 1.33149 0
M  V30 10697 H 997.238 -0.892092 4.11849 0
M  V30 10698 H 995.962 -1.36242 2.96826 0
M  V30 10699 H 994.621 0.673226 3.60365 0
M  V30 10700 H 994.269 -1.49277 4.80339 0
M  V30 10701 H 993.969 -0.101716 5.87512 0
M  V30 10702 H 995.493 -1.02286 6.01972 0
M  V30 10703 H 996.907 1.21017 5.60382 0
M  V30 10704 H 995.304 1.9995 5.65809 0
M  V30 10705 H 996.374 2.28929 4.27457 0
M  V30 10706 N 997.718 -1.45297 0.610449 0
M  V30 10707 C 998.668 -2.27639 -0.128194 0
M  V30 10708 C 999.652 -1.37485 -0.835861 0
M  V30 10709 O 1000.84 -1.61454 -0.725378 0
M  V30 10710 C 997.973 -3.24413 -1.123 0
M  V30 10711 C 997.059 -4.22055 -0.416029 0
M  V30 10712 N 997.45 -5.02867 0.543921 0
M  V30 10713 C 995.748 -4.41041 -0.663208 0
M  V30 10714 C 996.449 -5.73728 0.959731 0
M  V30 10715 N 995.425 -5.42756 0.302873 0
M  V30 10716 H 999.227 -2.8752 0.609056 0
M  V30 10717 H 996.741 -1.56484 0.434338 0
M  V30 10718 H 998.738 -3.82139 -1.6666 0
M  V30 10719 H 997.398 -2.66092 -1.86078 0
M  V30 10720 H 998.409 -5.09649 0.920799 0
M  V30 10721 H 995.086 -3.93842 -1.38544 0
M  V30 10722 H 996.476 -6.48666 1.75163 0
M  V30 10723 N 999.196 -0.349774 -1.5367 0
M  V30 10724 C 1000.61 0.132815 -1.86227 0
M  V30 10725 C 1000.96 1.49479 -1.27084 0
M  V30 10726 O 1000.08 2.08292 -0.58679 0
M  V30 10727 C 1000.68 0.247775 -3.37893 0
M  V30 10728 C 999.237 0.674603 -3.70305 0
M  V30 10729 C 998.384 -0.187869 -2.76663 0
M  V30 10730 H 1001.33 -0.569148 -1.48143 0
M  V30 10731 H 1001.36 1.07418 -3.65023 0
M  V30 10732 H 1000.87 -0.743635 -3.80909 0
M  V30 10733 H 998.969 1.67481 -3.32837 0
M  V30 10734 H 999.082 0.460177 -4.76885 0
M  V30 10735 H 997.446 0.340779 -2.5241 0
M  V30 10736 H 998.229 -1.17653 -3.2251 0
M  V30 10737 N 1000.67 1.57404 -0.0785433 0
M  V30 10738 C 1001.95 1.85163 0.630389 0
M  V30 10739 C 1002.33 0.972295 1.87376 0
M  V30 10740 O 1001.68 0.0403375 2.28464 0
M  V30 10741 C 1001.89 3.35491 0.961604 0
M  V30 10742 C 1003.24 4.0316 1.33219 0
M  V30 10743 O 1004.26 3.40276 1.05313 0
M  V30 10744 O 1003.12 5.14086 1.85412 0
M  V30 10745 H 1000.21 0.765169 0.31376 0
M  V30 10746 H 1002.76 1.69343 -0.109986 0
M  V30 10747 H 1001.53 3.91221 0.0788113 0
M  V30 10748 H 1001.15 3.56598 1.75852 0
M  V30 10749 N 1002.15 -0.195058 1.56388 0
M  V30 10750 C 1003.08 -1.24444 1.97575 0
M  V30 10751 C 1004.06 -1.47471 0.847717 0
M  V30 10752 O 1005.25 -1.59208 1.11205 0
M  V30 10753 C 1002.38 -2.58866 2.31529 0
M  V30 10754 C 1001.33 -2.50451 3.47071 0
M  V30 10755 C 1000.66 -3.89146 3.667 0
M  V30 10756 C 1001.96 -2.02953 4.81256 0
M  V30 10757 H 1003.65 -0.902178 2.85484 0
M  V30 10758 H 1001.2 -0.43254 1.3735 0
M  V30 10759 H 1003.15 -3.3246 2.58936 0
M  V30 10760 H 1001.87 -2.94833 1.40502 0
M  V30 10761 H 1000.53 -1.79313 3.19754 0
M  V30 10762 H 1000.18 -4.22466 2.73004 0
M  V30 10763 H 999.882 -3.84391 4.44429 0
M  V30 10764 H 1001.41 -4.64363 3.96484 0
M  V30 10765 H 1002.82 -2.66306 5.07695 0
M  V30 10766 H 1001.22 -2.092 5.62455 0
M  V30 10767 H 1002.29 -0.982757 4.74837 0
M  V30 10768 N 1003.63 -1.50653 -0.462772 0
M  V30 10769 C 1004.59 -1.69561 -1.54213 0
M  V30 10770 C 1005.59 -0.566106 -1.50505 0
M  V30 10771 O 1006.78 -0.833273 -1.52978 0
M  V30 10772 C 1003.91 -1.72856 -2.93826 0
M  V30 10773 H 1005.11 -2.65867 -1.38761 0
M  V30 10774 H 1002.66 -1.40259 -0.689728 0
M  V30 10775 H 1003.4 -0.78273 -3.14712 0
M  V30 10776 H 1003.18 -2.54919 -2.97924 0
M  V30 10777 H 1004.67 -1.89411 -3.72174 0
M  V30 10778 N 1005.11 0.71652 -1.4037 0
M  V30 10779 C 1006.04 1.84345 -1.43315 0
M  V30 10780 C 1007.02 1.67537 -0.294186 0
M  V30 10781 O 1008.2 1.87582 -0.502671 0
M  V30 10782 C 1005.33 3.2229 -1.29408 0
M  V30 10783 C 1004.29 3.53769 -2.40897 0
M  V30 10784 C 1003.61 4.90847 -2.12068 0
M  V30 10785 C 1004.91 3.54862 -3.83237 0
M  V30 10786 H 1006.61 1.82138 -2.37626 0
M  V30 10787 H 1004.15 0.874873 -1.14376 0
M  V30 10788 H 1006.11 4.00819 -1.30085 0
M  V30 10789 H 1004.83 3.2507 -0.31573 0
M  V30 10790 H 1003.49 2.77579 -2.39469 0
M  V30 10791 H 1003.14 4.90229 -1.12626 0
M  V30 10792 H 1002.84 5.12875 -2.86762 0
M  V30 10793 H 1004.36 5.71711 -2.14426 0
M  V30 10794 H 1005.78 4.23432 -3.86494 0
M  V30 10795 H 1004.17 3.88416 -4.57442 0
M  V30 10796 H 1005.24 2.54266 -4.12888 0
M  V30 10797 N 1006.59 1.25851 0.948643 0
M  V30 10798 C 1007.55 1.0683 2.0278 0
M  V30 10799 C 1008.55 0.0191016 1.60789 0
M  V30 10800 O 1009.74 0.261836 1.72221 0
M  V30 10801 C 1006.87 0.623318 3.35153 0
M  V30 10802 H 1008.06 2.02635 2.21086 0
M  V30 10803 H 1005.62 1.08343 1.12657 0
M  V30 10804 H 1006.35 -0.337053 3.22544 0
M  V30 10805 H 1006.14 1.38082 3.66982 0
M  V30 10806 H 1007.63 0.511854 4.14451 0
M  V30 10807 N 1008.06 -1.15214 1.07534 0
M  V30 10808 C 1009.31 -1.85676 0.79805 0
M  V30 10809 C 1009.63 -1.82837 -0.677919 0
M  V30 10810 O 1008.9 -1.27059 -1.49107 0
M  V30 10811 H 1007.48 -0.687468 0.292227 0
M  V30 10812 H 1010.15 -1.39658 1.35947 0
M  V30 10813 H 1009.24 -2.9076 1.13423 0
M  V30 10814 N 1009.54 -0.859717 -1.32086 0
M  V30 10815 C 1010.82 -0.386665 -1.9174 0
M  V30 10816 C 1011.2 1.13028 -1.78292 0
M  V30 10817 O 1010.55 1.95422 -1.18417 0
M  V30 10818 C 1010.76 -0.856648 -3.38323 0
M  V30 10819 C 1012.11 -0.87678 -4.15449 0
M  V30 10820 O 1013.13 -0.80162 -3.47063 0
M  V30 10821 O 1011.99 -0.98373 -5.37573 0
M  V30 10822 H 1009.08 -0.113758 -0.819139 0
M  V30 10823 H 1011.63 -0.946952 -1.40822 0
M  V30 10824 H 1010.4 -1.89996 -3.42078 0
M  V30 10825 H 1010.02 -0.274095 -3.96654 0
M  V30 10826 N 1011.02 1.44971 -0.618145 0
M  V30 10827 C 1012.27 2.03009 -0.126125 0
M  V30 10828 C 1012.62 1.47656 1.23351 0
M  V30 10829 O 1011.91 0.645901 1.80385 0
M  V30 10830 C 1012.11 3.57378 -0.0394861 0
M  V30 10831 C 1011.94 4.27706 -1.38918 0
M  V30 10832 C 1010.71 4.65206 -1.97261 0
M  V30 10833 C 1012.91 4.58987 -2.32024 0
M  V30 10834 N 1010.89 5.2044 -3.256 0
M  V30 10835 C 1012.26 5.15167 -3.44969 0
M  V30 10836 C 1014.31 4.40932 -2.31265 0
M  V30 10837 C 1013.02 5.55193 -4.57333 0
M  V30 10838 C 1015.04 4.81997 -3.42684 0
M  V30 10839 C 1014.4 5.38279 -4.54352 0
M  V30 10840 H 1010.5 0.77683 -0.0897695 0
M  V30 10841 H 1013.09 1.76646 -0.818805 0
M  V30 10842 H 1011.26 3.8338 0.622441 0
M  V30 10843 H 1012.99 4.02075 0.460165 0
M  V30 10844 H 1009.75 4.49102 -1.50348 0
M  V30 10845 H 1010.17 5.52546 -3.9118 0
M  V30 10846 H 1014.81 3.96723 -1.46187 0
M  V30 10847 H 1012.53 5.98362 -5.43128 0
M  V30 10848 H 1016.12 4.69751 -3.43257 0
M  V30 10849 H 1015 5.6947 -5.39142 0
M  V30 10850 N 1012.5 0.357919 1.53482 0
M  V30 10851 C 1013.75 -0.235241 2.00324 0
M  V30 10852 C 1014.06 -1.50494 1.24944 0
M  V30 10853 O 1015.27 -2.17623 1.62335 0
M  V30 10854 C 1013.72 -0.469748 3.56821 0
M  V30 10855 C 1013.33 0.784877 4.41071 0
M  V30 10856 C 1015.07 -1.02098 4.12039 0
M  V30 10857 C 1012.98 0.520377 5.89106 0
M  V30 10858 H 1011.91 -0.0916816 0.748405 0
M  V30 10859 H 1014.56 0.475474 1.77233 0
M  V30 10860 H 1012.94 -1.24153 3.76035 0
M  V30 10861 H 1014.12 1.55886 4.33631 0
M  V30 10862 H 1012.43 1.25878 3.96918 0
M  V30 10863 H 1015.03 -1.23406 5.20264 0
M  V30 10864 H 1015.37 -1.98084 3.66154 0
M  V30 10865 H 1015.91 -0.309554 3.96594 0
M  V30 10866 H 1012.65 1.45035 6.39254 0
M  V30 10867 H 1012.17 -0.215254 5.99414 0
M  V30 10868 H 1013.84 0.143006 6.46842 0
M  V30 10869 N 1013.98 -1.5736 0.0868897 0
M  V30 10870 C 1015.21 -1.981 -0.586498 0
M  V30 10871 C 1015.61 -0.96455 -1.62767 0
M  V30 10872 O 1014.96 0.0551801 -1.83617 0
M  V30 10873 C 1015.02 -3.35193 -1.29947 0
M  V30 10874 C 1014.68 -4.55157 -0.410012 0
M  V30 10875 C 1015.68 -5.18797 0.338532 0
M  V30 10876 C 1013.37 -5.01212 -0.33047 0
M  V30 10877 C 1015.36 -6.26854 1.15468 0
M  V30 10878 C 1013.05 -6.09138 0.48934 0
M  V30 10879 C 1014.04 -6.71823 1.23057 0
M  V30 10880 O 1013.73 -7.77669 2.03683 0
M  V30 10881 H 1013.46 -0.656166 -0.16255 0
M  V30 10882 H 1016.02 -2.04773 0.160379 0
M  V30 10883 H 1014.25 -3.25179 -2.09274 0
M  V30 10884 H 1015.94 -3.60435 -1.86658 0
M  V30 10885 H 1016.7 -4.84151 0.286764 0
M  V30 10886 H 1012.58 -4.52188 -0.897058 0
M  V30 10887 H 1016.13 -6.75712 1.73374 0
M  V30 10888 H 1012.02 -6.43215 0.542618 0
M  V30 10889 H 1012.79 -7.94618 1.96277 0
M  V30 10890 N 1015.45 0.186762 -1.56489 0
M  V30 10891 C 1016.69 0.912523 -1.829 0
M  V30 10892 C 1017.06 1.80094 -0.665598 0
M  V30 10893 O 1018.26 2.56312 -0.809787 0
M  V30 10894 C 1016.53 1.70022 -3.14368 0
M  V30 10895 S 1018.09 2.47686 -3.62211 0
M  V30 10896 H 1014.91 0.305916 -0.641823 0
M  V30 10897 H 1017.51 0.175289 -1.94713 0
M  V30 10898 H 1016.21 1.03832 -3.97048 0
M  V30 10899 H 1015.74 2.47912 -3.05456 0
M  V30 10900 H 1017.76 3.72058 -3.28309 0
M  V30 10901 N 1016.93 1.50896 0.454776 0
M  V30 10902 C 1018.18 1.61936 1.20248 0
M  V30 10903 C 1018.49 0.332983 1.92745 0
M  V30 10904 O 1019.7 0.322512 2.69578 0
M  V30 10905 C 1018.16 2.85916 2.18587 0
M  V30 10906 C 1017.76 4.21492 1.51818 0
M  V30 10907 C 1019.51 3.06307 2.93898 0
M  V30 10908 C 1017.42 5.3664 2.48539 0
M  V30 10909 H 1016.35 0.603098 0.452536 0
M  V30 10910 H 1019 1.77345 0.471257 0
M  V30 10911 H 1017.38 2.64101 2.95071 0
M  V30 10912 H 1018.55 4.53623 0.810123 0
M  V30 10913 H 1016.87 4.06837 0.887265 0
M  V30 10914 H 1019.46 3.89507 3.66317 0
M  V30 10915 H 1019.81 2.18683 3.54236 0
M  V30 10916 H 1020.34 3.2838 2.24525 0
M  V30 10917 H 1017.08 6.26469 1.92916 0
M  V30 10918 H 1016.6 5.08907 3.17449 0
M  V30 10919 H 1018.28 5.67881 3.10033 0
M  V30 10920 N 1018.41 -0.709066 1.40748 0
M  V30 10921 C 1019.64 -1.49808 1.42707 0
M  V30 10922 C 1020.05 -1.88778 0.0285574 0
M  V30 10923 O 1019.41 -1.55883 -0.949035 0
M  V30 10924 C 1019.46 -2.76926 2.32366 0
M  V30 10925 O 1019.18 -2.39602 3.66773 0
M  V30 10926 C 1020.68 -3.70773 2.42986 0
M  V30 10927 H 1017.9 -0.462106 0.486517 0
M  V30 10928 H 1020.45 -0.874135 1.84876 0
M  V30 10929 H 1018.6 -3.3559 1.93541 0
M  V30 10930 H 1019.02 -3.21443 4.14457 0
M  V30 10931 H 1020.49 -4.56789 3.09916 0
M  V30 10932 H 1020.97 -4.14332 1.45691 0
M  V30 10933 H 1021.57 -3.18019 2.8239 0
M  V30 10934 N 1019.89 -1.26353 -0.941956 0
M  V30 10935 C 1021.17 -1.02601 -1.6653 0
M  V30 10936 C 1021.55 0.44381 -2.06382 0
M  V30 10937 O 1020.89 1.42399 -1.78703 0
M  V30 10938 C 1021.1 -1.97401 -2.87809 0
M  V30 10939 C 1022.45 -2.25967 -3.59478 0
M  V30 10940 O 1023.48 -1.95261 -2.97912 0
M  V30 10941 O 1022.34 -2.78244 -4.70364 0
M  V30 10942 H 1019.43 -0.39007 -0.729228 0
M  V30 10943 H 1021.98 -1.37559 -0.993754 0
M  V30 10944 H 1020.75 -2.9659 -2.55245 0
M  V30 10945 H 1020.37 -1.62918 -3.62689 0
M  V30 10946 N 1021.37 1.14642 -1.08144 0
M  V30 10947 C 1022.62 1.84964 -0.804437 0
M  V30 10948 C 1022.93 1.8369 0.672106 0
M  V30 10949 O 1024.14 2.49775 1.06417 0
M  V30 10950 C 1022.59 3.32015 -1.38904 0
M  V30 10951 C 1022.2 3.41713 -2.89718 0
M  V30 10952 C 1023.94 4.07467 -1.19041 0
M  V30 10953 C 1021.85 4.82958 -3.41329 0
M  V30 10954 H 1020.78 0.692932 -0.297256 0
M  V30 10955 H 1023.43 1.29255 -1.30251 0
M  V30 10956 H 1021.81 3.87445 -0.818679 0
M  V30 10957 H 1022.99 2.96347 -3.52867 0
M  V30 10958 H 1021.3 2.79713 -3.08463 0
M  V30 10959 H 1023.9 5.1172 -1.55069 0
M  V30 10960 H 1024.24 4.16097 -0.130027 0
M  V30 10961 H 1024.78 3.58329 -1.72757 0
M  V30 10962 H 1021.51 4.79515 -4.46929 0
M  V30 10963 H 1021.03 5.28873 -2.82937 0
M  V30 10964 H 1022.71 5.51841 -3.37759 0
M  V30 10965 N 1022.85 0.866709 1.31628 0
M  V30 10966 C 1024.12 0.396828 1.91532 0
M  V30 10967 C 1024.5 -1.12081 1.78889 0
M  V30 10968 O 1023.85 -1.94791 1.19452 0
M  V30 10969 C 1024.06 0.874578 3.37864 0
M  V30 10970 C 1025.41 0.8988 4.14978 0
M  V30 10971 O 1026.43 0.820014 3.46633 0
M  V30 10972 O 1025.29 1.01223 5.37044 0
M  V30 10973 H 1022.39 0.1181 0.818524 0
M  V30 10974 H 1024.93 0.954407 1.40318 0
M  V30 10975 H 1023.7 1.91807 3.41066 0
M  V30 10976 H 1023.33 0.295126 3.96503 0
M  V30 10977 N 1024.32 -1.44642 0.625825 0
M  V30 10978 C 1025.73 -1.85502 0.211175 0
M  V30 10979 C 1026.09 -1.52356 -1.2362 0
M  V30 10980 O 1025.21 -0.959051 -1.93988 0
M  V30 10981 C 1025.81 -3.36702 0.37648 0
M  V30 10982 C 1024.36 -3.76396 0.0163795 0
M  V30 10983 C 1023.51 -2.68517 0.692368 0
M  V30 10984 H 1026.46 -1.35183 0.831333 0
M  V30 10985 H 1026.48 -3.78536 -0.386106 0
M  V30 10986 H 1026 -3.60795 1.42999 0
M  V30 10987 H 1024.1 -3.57919 -1.0356 0
M  V30 10988 H 1024.21 -4.77231 0.422742 0
M  V30 10989 H 1022.57 -2.54377 0.128191 0
M  V30 10990 H 1023.36 -2.95444 1.74837 0
M  V30 10991 N 1025.8 -0.366053 -1.5329 0
M  V30 10992 C 1027.08 0.279902 -1.93587 0
M  V30 10993 C 1027.46 1.66352 -1.29963 0
M  V30 10994 O 1026.81 2.23845 -0.458895 0
M  V30 10995 C 1027.02 0.329634 -3.4744 0
M  V30 10996 C 1028.36 0.569754 -4.2076 0
M  V30 10997 O 1029.39 0.410823 -3.53823 0
M  V30 10998 O 1028.25 0.879262 -5.3938 0
M  V30 10999 H 1025.34 0.16802 -0.809752 0
M  V30 11000 H 1027.89 -0.418871 -1.64449 0
M  V30 11001 H 1026.66 -0.640434 -3.86023 0
M  V30 11002 H 1026.28 1.07428 -3.82812 0
M  V30 11003 N 1027.28 1.57312 -0.0952337 0
M  V30 11004 C 1028.23 2.10571 0.87428 0
M  V30 11005 C 1029.21 1.02079 1.24374 0
M  V30 11006 O 1030.41 1.28353 1.2188 0
M  V30 11007 C 1027.53 2.68972 2.13329 0
M  V30 11008 C 1026.62 3.84508 1.78926 0
M  V30 11009 N 1027.01 4.92534 1.15082 0
M  V30 11010 C 1025.31 3.94245 2.08535 0
M  V30 11011 C 1026.01 5.73163 0.992937 0
M  V30 11012 N 1024.99 5.22198 1.51029 0
M  V30 11013 H 1028.79 2.91476 0.376727 0
M  V30 11014 H 1026.3 1.62041 0.107974 0
M  V30 11015 H 1028.3 3.05457 2.83728 0
M  V30 11016 H 1026.96 1.89523 2.6365 0
M  V30 11017 H 1027.97 5.11405 0.817621 0
M  V30 11018 H 1024.65 3.25805 2.61069 0
M  V30 11019 H 1026.04 6.70084 0.493641 0
M  V30 11020 N 1028.76 -0.17846 1.56586 0
M  V30 11021 C 1030.17 -0.529957 1.50544 0
M  V30 11022 C 1030.37 -1.85015 0.798237 0
M  V30 11023 O 1029.43 -2.49983 0.355639 0
M  V30 11024 C 1030.74 -0.569314 2.95261 0
M  V30 11025 C 1032.29 -0.657008 3.06027 0
M  V30 11026 C 1032.77 -0.727323 4.52188 0
M  V30 11027 N 1034.26 -0.790406 4.56406 0
M  V30 11028 C 1034.99 -0.865265 5.66834 0
M  V30 11029 N 1034.49 -0.901398 6.86911 0
M  V30 11030 N 1036.28 -0.903736 5.54787 0
M  V30 11031 H 1028.43 0.687304 2.00972 0
M  V30 11032 H 1030.69 0.246936 0.915274 0
M  V30 11033 H 1030.4 0.331934 3.5013 0
M  V30 11034 H 1030.27 -1.41828 3.4952 0
M  V30 11035 H 1032.66 -1.54868 2.51197 0
M  V30 11036 H 1032.74 0.218495 2.54865 0
M  V30 11037 H 1032.39 0.160067 5.07648 0
M  V30 11038 H 1032.32 -1.61887 5.01099 0
M  V30 11039 H 1034.81 -0.771054 3.6995 0
M  V30 11040 H 1035.12 -0.959494 7.6682 0
M  V30 11041 H 1033.47 -0.869795 6.89536 0
M  V30 11042 H 1036.66 -0.872459 4.59898 0
M  V30 11043 H 1036.83 -0.958615 6.4087 0
M  V30 11044 N 1030.24 -1.51135 -0.446768 0
M  V30 11045 C 1031.18 -1.71767 -1.54158 0
M  V30 11046 C 1032.15 -0.559201 -1.56404 0
M  V30 11047 O 1033.34 -0.792567 -1.7356 0
M  V30 11048 C 1030.48 -1.84006 -2.91952 0
M  V30 11049 C 1029.59 -3.11511 -2.99308 0
M  V30 11050 C 1028.73 -3.144 -4.28166 0
M  V30 11051 C 1027.76 -4.36258 -4.29355 0
M  V30 11052 N 1026.9 -4.3675 -5.49722 0
M  V30 11053 H 1031.74 -2.65224 -1.35869 0
M  V30 11054 H 1029.28 -1.31453 -0.660186 0
M  V30 11055 H 1031.24 -1.89083 -3.71892 0
M  V30 11056 H 1029.87 -0.939661 -3.08821 0
M  V30 11057 H 1028.92 -3.15788 -2.12089 0
M  V30 11058 H 1030.23 -4.01445 -2.96047 0
M  V30 11059 H 1029.38 -3.18341 -5.16473 0
M  V30 11060 H 1028.12 -2.22338 -4.3407 0
M  V30 11061 H 1027.13 -4.32503 -3.39442 0
M  V30 11062 H 1028.35 -5.29574 -4.25122 0
M  V30 11063 H 1026.3 -3.47554 -5.56365 0
M  V30 11064 H 1026.22 -5.20481 -5.48302 0
M  V30 11065 H 1027.48 -4.4487 -6.40086 0
M  V30 11066 N 1031.71 0.701592 -1.41122 0
M  V30 11067 C 1032.64 1.82815 -1.45262 0
M  V30 11068 C 1033.62 1.67215 -0.311939 0
M  V30 11069 O 1034.81 1.87038 -0.522538 0
M  V30 11070 C 1031.94 3.20899 -1.32819 0
M  V30 11071 C 1030.89 3.51194 -2.44636 0
M  V30 11072 C 1030.22 4.8857 -2.17263 0
M  V30 11073 C 1031.52 3.50777 -3.86979 0
M  V30 11074 H 1033.21 1.79608 -2.39544 0
M  V30 11075 H 1030.76 0.862693 -1.15298 0
M  V30 11076 H 1032.71 3.99417 -1.34329 0
M  V30 11077 H 1031.44 3.24717 -0.350191 0
M  V30 11078 H 1030.1 2.75024 -2.42399 0
M  V30 11079 H 1029.74 4.89007 -1.17819 0
M  V30 11080 H 1029.44 5.09805 -2.92186 0
M  V30 11081 H 1030.97 5.69405 -2.20478 0
M  V30 11082 H 1032.38 4.19309 -3.90964 0
M  V30 11083 H 1030.78 3.83542 -4.61536 0
M  V30 11084 H 1031.85 2.49873 -4.15562 0
M  V30 11085 N 1033.19 1.2685 0.935242 0
M  V30 11086 C 1034.42 1.15645 1.72165 0
M  V30 11087 C 1034.84 -0.283909 1.85945 0
M  V30 11088 O 1034.2 -1.20567 1.354 0
M  V30 11089 C 1034.25 1.83689 3.10307 0
M  V30 11090 O 1033.35 1.12972 3.96625 0
M  V30 11091 H 1032.69 0.402629 0.528002 0
M  V30 11092 H 1035.22 1.67781 1.17093 0
M  V30 11093 H 1035.23 1.90749 3.60664 0
M  V30 11094 H 1033.91 2.88472 2.99595 0
M  V30 11095 H 1032.48 1.13929 3.5507 0
M  V30 11096 N 1034.67 -1.14067 1.0875 0
M  V30 11097 C 1035.6 -2.18926 0.67852 0
M  V30 11098 C 1036.62 -1.60441 -0.276163 0
M  V30 11099 O 1037.8 -1.78388 -0.0632788 0
M  V30 11100 C 1034.9 -3.38893 -0.0218852 0
M  V30 11101 C 1034.08 -4.26901 0.952582 0
M  V30 11102 C 1033.14 -5.25418 0.286859 0
M  V30 11103 O 1032.16 -5.61512 0.932354 0
M  V30 11104 N 1033.36 -5.72476 -0.961831 0
M  V30 11105 H 1036.13 -2.54629 1.58063 0
M  V30 11106 H 1033.69 -1.29321 0.974042 0
M  V30 11107 H 1035.68 -4.01864 -0.478278 0
M  V30 11108 H 1034.25 -3.01486 -0.826141 0
M  V30 11109 H 1033.47 -3.60812 1.58772 0
M  V30 11110 H 1034.76 -4.82563 1.61279 0
M  V30 11111 H 1034.16 -5.45287 -1.50594 0
M  V30 11112 H 1032.72 -6.37418 -1.36166 0
M  V30 11113 N 1036.15 -0.873678 -1.31166 0
M  V30 11114 C 1037.08 -0.348011 -2.30892 0
M  V30 11115 C 1038.06 0.563092 -1.60509 0
M  V30 11116 O 1039.24 0.479332 -1.88192 0
M  V30 11117 C 1036.37 0.448158 -3.44396 0
M  V30 11118 C 1035.33 -0.370179 -4.26396 0
M  V30 11119 C 1034.65 0.551903 -5.31844 0
M  V30 11120 C 1035.95 -1.60624 -4.96988 0
M  V30 11121 H 1037.65 -1.18134 -2.75109 0
M  V30 11122 H 1035.19 -0.569502 -1.3226 0
M  V30 11123 H 1037.15 0.826458 -4.13216 0
M  V30 11124 H 1035.87 1.31503 -2.98956 0
M  V30 11125 H 1034.53 -0.730472 -3.59249 0
M  V30 11126 H 1034.18 1.41616 -4.82653 0
M  V30 11127 H 1033.88 0.00823478 -5.87599 0
M  V30 11128 H 1035.4 0.926965 -6.03523 0
M  V30 11129 H 1036.82 -1.29917 -5.58386 0
M  V30 11130 H 1035.21 -2.08926 -5.62557 0
M  V30 11131 H 1036.28 -2.357 -4.23761 0
M  V30 11132 N 1037.63 1.44308 -0.633487 0
M  V30 11133 C 1038.54 2.34492 0.0711787 0
M  V30 11134 C 1039.55 1.52754 0.8332 0
M  V30 11135 O 1040.73 1.85475 0.784929 0
M  V30 11136 C 1037.79 3.30767 1.03895 0
M  V30 11137 C 1036.85 4.28412 0.276043 0
M  V30 11138 C 1036.09 5.20087 1.19772 0
M  V30 11139 O 1036.31 5.15743 2.4365 0
M  V30 11140 O 1035.24 5.98038 0.680764 0
M  V30 11141 H 1039.07 2.96203 -0.67063 0
M  V30 11142 H 1036.66 1.4412 -0.393678 0
M  V30 11143 H 1038.54 3.90021 1.59566 0
M  V30 11144 H 1037.21 2.71586 1.76133 0
M  V30 11145 H 1036.12 3.72696 -0.32377 0
M  V30 11146 H 1037.45 4.9052 -0.406364 0
M  V30 11147 N 1039.1 0.374177 1.53094 0
M  V30 11148 C 1040.07 -0.455999 2.24618 0
M  V30 11149 C 1041.07 -1.00269 1.25709 0
M  V30 11150 O 1042.26 -0.887077 1.49922 0
M  V30 11151 C 1039.39 -1.63822 2.98957 0
M  V30 11152 H 1040.58 0.169986 2.99418 0
M  V30 11153 H 1038.14 0.126015 1.55791 0
M  V30 11154 H 1038.87 -2.30205 2.28421 0
M  V30 11155 H 1038.66 -1.25308 3.71538 0
M  V30 11156 H 1040.15 -2.22633 3.53305 0
M  V30 11157 N 1040.58 -1.57259 0.103575 0
M  V30 11158 C 1041.52 -2.10165 -0.889141 0
M  V30 11159 C 1042.49 -1.01426 -1.27089 0
M  V30 11160 O 1043.68 -1.2898 -1.37465 0
M  V30 11161 C 1040.8 -2.58564 -2.18774 0
M  V30 11162 C 1039.85 -3.79043 -1.95522 0
M  V30 11163 S 1040.68 -5.22213 -1.18551 0
M  V30 11164 C 1041.84 -5.73968 -2.49623 0
M  V30 11165 H 1042.07 -2.9404 -0.439083 0
M  V30 11166 H 1039.61 -1.54008 -0.10989 0
M  V30 11167 H 1041.56 -2.87106 -2.93395 0
M  V30 11168 H 1040.22 -1.749 -2.609 0
M  V30 11169 H 1039.42 -4.11004 -2.91705 0
M  V30 11170 H 1039.02 -3.51038 -1.29028 0
M  V30 11171 H 1041.31 -5.82752 -3.45553 0
M  V30 11172 H 1042.25 -6.72324 -2.22229 0
M  V30 11173 H 1042.66 -5.01946 -2.58284 0
M  V30 11174 N 1042.06 0.170153 -1.56679 0
M  V30 11175 C 1043.31 0.884902 -1.81252 0
M  V30 11176 C 1043.62 1.83361 -0.681024 0
M  V30 11177 O 1044.83 2.59082 -0.811722 0
M  V30 11178 C 1043.28 1.62408 -3.21172 0
M  V30 11179 C 1042.89 0.718947 -4.42194 0
M  V30 11180 C 1044.64 2.32699 -3.55037 0
M  V30 11181 C 1042.54 1.45843 -5.73135 0
M  V30 11182 H 1041.47 0.33418 -0.675899 0
M  V30 11183 H 1044.12 0.137818 -1.82982 0
M  V30 11184 H 1042.51 2.41596 -3.13763 0
M  V30 11185 H 1043.68 -0.0360521 -4.60786 0
M  V30 11186 H 1042 0.125634 -4.1621 0
M  V30 11187 H 1044.59 2.88621 -4.50114 0
M  V30 11188 H 1044.94 3.08092 -2.79974 0
M  V30 11189 H 1045.47 1.60453 -3.64005 0
M  V30 11190 H 1042.21 0.746799 -6.51232 0
M  V30 11191 H 1041.73 2.18672 -5.58518 0
M  V30 11192 H 1043.41 2.0056 -6.1513 0
M  V30 11193 N 1043.54 1.5137 0.438746 0
M  V30 11194 C 1044.95 1.39514 0.775116 0
M  V30 11195 C 1045.15 0.47638 1.95788 0
M  V30 11196 O 1044.21 -0.0689832 2.52406 0
M  V30 11197 C 1045.52 2.81517 1.05681 0
M  V30 11198 C 1047.07 2.90658 1.16133 0
M  V30 11199 C 1047.55 4.33566 1.47597 0
M  V30 11200 N 1049.04 4.36665 1.54524 0
M  V30 11201 C 1049.77 5.4427 1.80438 0
M  V30 11202 N 1049.27 6.62037 2.04154 0
M  V30 11203 N 1051.06 5.31749 1.82208 0
M  V30 11204 H 1043.21 2.09657 -0.340237 0
M  V30 11205 H 1045.48 0.943736 -0.0898115 0
M  V30 11206 H 1045.18 3.50734 0.260441 0
M  V30 11207 H 1045.06 3.20757 1.98481 0
M  V30 11208 H 1047.44 2.2164 1.94833 0
M  V30 11209 H 1047.52 2.54917 0.212376 0
M  V30 11210 H 1047.17 5.03133 0.694251 0
M  V30 11211 H 1047.1 4.66819 2.43696 0
M  V30 11212 H 1049.59 3.51761 1.38105 0
M  V30 11213 H 1049.9 7.39838 2.23293 0
M  V30 11214 H 1048.25 6.65155 2.01479 0
M  V30 11215 H 1051.44 4.3873 1.63198 0
M  V30 11216 H 1051.61 6.15689 2.02067 0
M  V30 11217 N 1045.02 -0.694098 1.41492 0
M  V30 11218 C 1046.26 -1.45415 1.40929 0
M  V30 11219 C 1046.59 -1.94491 0.0189301 0
M  V30 11220 O 1045.85 -1.7 -0.96945 0
M  V30 11221 C 1046.15 -2.6805 2.36398 0
M  V30 11222 C 1045.81 -2.37623 3.83205 0
M  V30 11223 C 1044.47 -2.29035 4.23198 0
M  V30 11224 C 1046.83 -2.12555 4.75888 0
M  V30 11225 C 1044.15 -1.93478 5.5388 0
M  V30 11226 C 1046.51 -1.78506 6.06892 0
M  V30 11227 C 1045.17 -1.68415 6.45905 0
M  V30 11228 H 1044.44 -0.53211 0.515694 0
M  V30 11229 H 1047.09 -0.793193 1.74301 0
M  V30 11230 H 1045.39 -3.39086 1.96285 0
M  V30 11231 H 1047.09 -3.26194 2.33234 0
M  V30 11232 H 1043.68 -2.45202 3.51531 0
M  V30 11233 H 1047.86 -2.18133 4.45793 0
M  V30 11234 H 1043.12 -1.84219 5.82986 0
M  V30 11235 H 1047.29 -1.58128 6.7821 0
M  V30 11236 H 1044.92 -1.40631 7.47079 0
M  V30 11237 N 1046.49 -1.27344 -0.928501 0
M  V30 11238 C 1047.42 -1.12517 -2.04602 0
M  V30 11239 C 1048.41 -0.0268563 -1.70079 0
M  V30 11240 O 1049.59 -0.201197 -1.93155 0
M  V30 11241 C 1046.72 -0.770749 -3.3864 0
M  V30 11242 C 1045.67 -1.8222 -3.87272 0
M  V30 11243 C 1045 -1.32178 -5.18105 0
M  V30 11244 C 1046.3 -3.22614 -4.10752 0
M  V30 11245 H 1047.99 -2.06 -2.17265 0
M  V30 11246 H 1045.54 -0.991827 -1.04397 0
M  V30 11247 H 1047.49 -0.653843 -4.16297 0
M  V30 11248 H 1046.22 0.19979 -3.25988 0
M  V30 11249 H 1044.88 -1.928 -3.11807 0
M  V30 11250 H 1044.52 -0.340719 -5.01845 0
M  V30 11251 H 1044.22 -2.02474 -5.51614 0
M  V30 11252 H 1045.75 -1.2178 -5.98333 0
M  V30 11253 H 1047.16 -3.1504 -4.78981 0
M  V30 11254 H 1045.56 -3.90614 -4.55566 0
M  V30 11255 H 1046.63 -3.67727 -3.16077 0
M  V30 11256 N 1047.97 1.13488 -1.09353 0
M  V30 11257 C 1049.2 1.88592 -0.850915 0
M  V30 11258 C 1049.62 1.79087 0.597761 0
M  V30 11259 O 1048.97 1.15695 1.41142 0
M  V30 11260 C 1049.02 3.38219 -1.27633 0
M  V30 11261 O 1048.74 3.47476 -2.66819 0
M  V30 11262 C 1050.25 4.30293 -1.06598 0
M  V30 11263 H 1047.47 0.597069 -0.306185 0
M  V30 11264 H 1050.01 1.43668 -1.45533 0
M  V30 11265 H 1048.16 3.80729 -0.715828 0
M  V30 11266 H 1048.58 4.40485 -2.84733 0
M  V30 11267 H 1050.05 5.33611 -1.41293 0
M  V30 11268 H 1050.53 4.392 -0.0037135 0
M  V30 11269 H 1051.14 3.9355 -1.6124 0
M  V30 11270 N 1049.45 0.880621 1.30701 0
M  V30 11271 C 1050.87 0.574015 1.4892 0
M  V30 11272 C 1051.07 -0.889312 1.80813 0
M  V30 11273 O 1050.12 -1.67082 1.89314 0
M  V30 11274 C 1051.44 1.48341 2.61563 0
M  V30 11275 C 1052.98 1.48658 2.75445 0
M  V30 11276 C 1053.46 2.3818 3.91196 0
M  V30 11277 N 1054.95 2.36119 3.985 0
M  V30 11278 C 1055.69 3.02101 4.87363 0
M  V30 11279 N 1055.18 3.77293 5.81052 0
M  V30 11280 N 1056.97 2.91356 4.80696 0
M  V30 11281 H 1049.13 1.82732 1.08271 0
M  V30 11282 H 1051.39 0.781939 0.535981 0
M  V30 11283 H 1051.09 2.52515 2.44804 0
M  V30 11284 H 1050.97 1.18977 3.57944 0
M  V30 11285 H 1053.36 0.452374 2.91612 0
M  V30 11286 H 1053.44 1.8205 1.79698 0
M  V30 11287 H 1053.08 3.41683 3.75786 0
M  V30 11288 H 1053.01 2.02106 4.86272 0
M  V30 11289 H 1055.5 1.81474 3.31475 0
M  V30 11290 H 1055.81 4.24742 6.45612 0
M  V30 11291 H 1054.16 3.81401 5.80998 0
M  V30 11292 H 1057.35 2.32143 4.06481 0
M  V30 11293 H 1057.52 3.43056 5.49742 0
M  V30 11294 N 1050.93 -1.4397 0.641131 0
M  V30 11295 C 1051.88 -2.30728 -0.0577905 0
M  V30 11296 C 1052.85 -1.44059 -0.826819 0
M  V30 11297 O 1054.03 -1.72947 -0.805853 0
M  V30 11298 C 1051.17 -3.29478 -1.02657 0
M  V30 11299 C 1050.28 -4.31247 -0.254913 0
M  V30 11300 C 1049.42 -5.17085 -1.2164 0
M  V30 11301 C 1048.46 -6.10556 -0.434481 0
M  V30 11302 N 1047.6 -6.89059 -1.34694 0
M  V30 11303 H 1052.44 -2.8995 0.687953 0
M  V30 11304 H 1049.97 -1.4285 0.351029 0
M  V30 11305 H 1051.93 -3.85228 -1.60173 0
M  V30 11306 H 1050.56 -2.71932 -1.73933 0
M  V30 11307 H 1049.61 -3.77889 0.436338 0
M  V30 11308 H 1050.92 -4.97545 0.353642 0
M  V30 11309 H 1050.08 -5.77402 -1.86258 0
M  V30 11310 H 1048.82 -4.50885 -1.85888 0
M  V30 11311 H 1047.82 -5.49339 0.225125 0
M  V30 11312 H 1049.05 -6.78795 0.203415 0
M  V30 11313 H 1046.99 -6.25518 -1.97644 0
M  V30 11314 H 1046.91 -7.51833 -0.792657 0
M  V30 11315 H 1048.18 -7.5389 -1.98165 0
M  V30 11316 N 1052.41 -0.382291 -1.52893 0
M  V30 11317 C 1053.68 0.259354 -1.93873 0
M  V30 11318 C 1054.06 1.64964 -1.3172 0
M  V30 11319 O 1053.41 2.23345 -0.482611 0
M  V30 11320 C 1053.62 0.292765 -3.4777 0
M  V30 11321 C 1054.97 0.525095 -4.21341 0
M  V30 11322 O 1055.99 0.373272 -3.54239 0
M  V30 11323 O 1054.85 0.822004 -5.40283 0
M  V30 11324 H 1051.95 0.159422 -0.811489 0
M  V30 11325 H 1054.49 -0.436289 -1.63996 0
M  V30 11326 H 1053.27 -0.681341 -3.85323 0
M  V30 11327 H 1052.89 1.03362 -3.8393 0
M  V30 11328 N 1053.89 1.57202 -0.111913 0
M  V30 11329 C 1055.3 1.82039 0.414591 0
M  V30 11330 C 1055.65 1.02863 1.67074 0
M  V30 11331 O 1054.77 0.263068 2.14795 0
M  V30 11332 C 1055.37 3.3019 0.758953 0
M  V30 11333 C 1053.93 3.55732 1.23012 0
M  V30 11334 C 1053.07 2.76301 0.235226 0
M  V30 11335 H 1056.02 1.55078 -0.337142 0
M  V30 11336 H 1056.05 3.44431 1.61701 0
M  V30 11337 H 1055.56 3.87788 -0.155473 0
M  V30 11338 H 1053.66 3.03483 2.16169 0
M  V30 11339 H 1053.77 4.64333 1.18034 0
M  V30 11340 H 1052.14 2.44287 0.720822 0
M  V30 11341 H 1052.92 3.36655 -0.672173 0
M  V30 11342 N 1055.36 -0.161842 1.56767 0
M  V30 11343 C 1056.64 -0.904754 1.73417 0
M  V30 11344 C 1057.02 -1.99987 0.675908 0
M  V30 11345 O 1056.37 -2.26419 -0.307712 0
M  V30 11346 C 1056.58 -1.46082 3.16956 0
M  V30 11347 C 1057.93 -1.93004 3.78199 0
M  V30 11348 O 1058.95 -1.55856 3.20293 0
M  V30 11349 O 1057.81 -2.61465 4.79894 0
M  V30 11350 H 1054.9 -0.426518 0.708528 0
M  V30 11351 H 1057.45 -0.148928 1.69045 0
M  V30 11352 H 1056.22 -0.673087 3.85468 0
M  V30 11353 H 1055.84 -2.28056 3.25693 0
M  V30 11354 N 1056.84 -1.516 -0.430713 0
M  V30 11355 C 1057.77 -1.76342 -1.53054 0
M  V30 11356 C 1058.75 -0.61349 -1.58652 0
M  V30 11357 O 1059.94 -0.856888 -1.74273 0
M  V30 11358 C 1057.07 -1.8945 -2.91077 0
M  V30 11359 C 1056.02 -3.04928 -3.00339 0
M  V30 11360 C 1055.35 -3.03228 -4.40405 0
M  V30 11361 C 1056.65 -4.44777 -2.73808 0
M  V30 11362 H 1058.34 -2.68435 -1.326 0
M  V30 11363 H 1055.89 -1.29171 -0.636466 0
M  V30 11364 H 1057.84 -2.05343 -3.67984 0
M  V30 11365 H 1056.56 -0.940114 -3.12777 0
M  V30 11366 H 1055.22 -2.88751 -2.25872 0
M  V30 11367 H 1054.87 -2.05553 -4.59083 0
M  V30 11368 H 1054.57 -3.80776 -4.47531 0
M  V30 11369 H 1056.1 -3.21222 -5.19277 0
M  V30 11370 H 1057.51 -4.6127 -3.40445 0
M  V30 11371 H 1055.91 -5.2408 -2.92335 0
M  V30 11372 H 1056.98 -4.54358 -1.69372 0
M  V30 11373 N 1058.32 0.686584 -1.41858 0
M  V30 11374 C 1059.23 1.83002 -1.46791 0
M  V30 11375 C 1060.25 1.70284 -0.357675 0
M  V30 11376 O 1061.42 1.92042 -0.606781 0
M  V30 11377 C 1058.49 3.19056 -1.35661 0
M  V30 11378 C 1057.55 3.43817 -2.57077 0
M  V30 11379 C 1056.78 4.7338 -2.46469 0
M  V30 11380 O 1057 5.50483 -1.49413 0
M  V30 11381 O 1055.94 4.99124 -3.36391 0
M  V30 11382 H 1059.76 1.81797 -2.43277 0
M  V30 11383 H 1057.35 0.840812 -1.23494 0
M  V30 11384 H 1059.23 4.00267 -1.31773 0
M  V30 11385 H 1057.91 3.20925 -0.422951 0
M  V30 11386 H 1056.81 2.625 -2.66541 0
M  V30 11387 H 1058.15 3.4677 -3.49302 0
M  V30 11388 N 1059.8 1.27835 0.921735 0
M  V30 11389 C 1061.04 1.15766 1.68457 0
M  V30 11390 C 1061.4 -0.290542 1.89789 0
M  V30 11391 O 1062.6 -0.53378 2.63447 0
M  V30 11392 C 1060.87 1.92591 3.0107 0
M  V30 11393 S 1062.43 1.96804 3.92191 0
M  V30 11394 H 1059.25 0.413169 0.578629 0
M  V30 11395 H 1061.85 1.61826 1.09693 0
M  V30 11396 H 1060.56 2.96991 2.8324 0
M  V30 11397 H 1060.09 1.47049 3.64884 0
M  V30 11398 H 1062.1 1.06877 4.84553 0
M  V30 11399 N 1061.28 -1.12907 1.09954 0
M  V30 11400 C 1062.55 -1.80602 0.751148 0
M  V30 11401 C 1062.93 -1.96826 -0.763077 0
M  V30 11402 O 1062.28 -1.54066 -1.68749 0
M  V30 11403 C 1062.49 -3.15289 1.49646 0
M  V30 11404 C 1063.84 -3.9056 1.66578 0
M  V30 11405 O 1064.86 -3.24929 1.45943 0
M  V30 11406 O 1063.72 -5.08292 2.00752 0
M  V30 11407 H 1060.82 -0.781529 0.270446 0
M  V30 11408 H 1063.36 -1.19786 1.20206 0
M  V30 11409 H 1062.13 -2.9874 2.52725 0
M  V30 11410 H 1061.76 -3.83809 1.03808 0
M  V30 11411 N 1062.75 -0.88754 -1.30232 0
M  V30 11412 C 1063.66 -0.360333 -2.31816 0
M  V30 11413 C 1064.68 0.538741 -1.6545 0
M  V30 11414 O 1065.86 0.431246 -1.96729 0
M  V30 11415 C 1062.92 0.414336 -3.44215 0
M  V30 11416 C 1061.98 -0.514799 -4.26202 0
M  V30 11417 C 1061.21 0.222994 -5.33234 0
M  V30 11418 O 1061.44 1.44871 -5.51696 0
M  V30 11419 O 1060.37 -0.428221 -6.00375 0
M  V30 11420 H 1064.2 -1.20279 -2.78867 0
M  V30 11421 H 1061.78 -0.651459 -1.34448 0
M  V30 11422 H 1063.66 0.852859 -4.12679 0
M  V30 11423 H 1062.34 1.23305 -2.99295 0
M  V30 11424 H 1061.25 -1.00219 -3.60426 0
M  V30 11425 H 1062.58 -1.29959 -4.74733 0
M  V30 11426 N 1064.23 1.43628 -0.648757 0
M  V30 11427 C 1065.14 2.34554 0.0463037 0
M  V30 11428 C 1066.16 1.53629 0.816952 0
M  V30 11429 O 1067.33 1.86297 0.765212 0
M  V30 11430 C 1064.4 3.3185 1.00381 0
M  V30 11431 C 1063.46 4.2868 0.230589 0
M  V30 11432 C 1062.69 5.21328 1.14249 0
M  V30 11433 O 1062.92 5.18298 2.38166 0
M  V30 11434 O 1061.85 5.98726 0.617296 0
M  V30 11435 H 1065.68 2.95475 -0.702008 0
M  V30 11436 H 1063.26 1.43694 -0.408942 0
M  V30 11437 H 1065.14 3.91692 1.5542 0
M  V30 11438 H 1063.82 2.73439 1.73243 0
M  V30 11439 H 1062.73 3.72332 -0.363282 0
M  V30 11440 H 1064.06 4.90061 -0.458368 0
M  V30 11441 N 1065.71 0.390394 1.52688 0
M  V30 11442 C 1066.64 -0.43567 2.294 0
M  V30 11443 C 1067.62 -1.06253 1.32832 0
M  V30 11444 O 1068.81 -1.07509 1.61726 0
M  V30 11445 C 1065.94 -1.56259 3.10162 0
M  V30 11446 C 1064.89 -1.06172 4.14622 0
M  V30 11447 C 1064.22 -2.2808 4.83615 0
M  V30 11448 C 1065.52 -0.128902 5.22141 0
M  V30 11449 H 1067.21 0.204384 2.98702 0
M  V30 11450 H 1064.76 0.0997377 1.43654 0
M  V30 11451 H 1066.71 -2.14732 3.62585 0
M  V30 11452 H 1065.43 -2.23025 2.38595 0
M  V30 11453 H 1064.09 -0.499518 3.63181 0
M  V30 11454 H 1063.74 -2.93358 4.08595 0
M  V30 11455 H 1063.44 -1.95227 5.5422 0
M  V30 11456 H 1064.96 -2.87193 5.38844 0
M  V30 11457 H 1066.38 -0.621849 5.69917 0
M  V30 11458 H 1064.78 0.109919 5.99999 0
M  V30 11459 H 1065.85 0.821884 4.77884 0
M  V30 11460 N 1067.19 -1.57141 0.120249 0
M  V30 11461 C 1068.43 -1.95527 -0.538245 0
M  V30 11462 C 1068.77 -1.00373 -1.6625 0
M  V30 11463 O 1068.04 -0.0411734 -1.94456 0
M  V30 11464 C 1068.33 -3.43843 -1.06976 0
M  V30 11465 C 1068.18 -4.49771 0.0511596 0
M  V30 11466 C 1069.5 -3.94035 -1.96022 0
M  V30 11467 H 1066.62 -0.710958 -0.194183 0
M  V30 11468 H 1069.26 -1.88986 0.196061 0
M  V30 11469 H 1067.41 -3.49548 -1.69553 0
M  V30 11470 H 1069.08 -4.56163 0.686503 0
M  V30 11471 H 1067.32 -4.27882 0.714127 0
M  V30 11472 H 1067.99 -5.50812 -0.361995 0
M  V30 11473 H 1070.47 -3.9064 -1.43315 0
M  V30 11474 H 1069.35 -4.98329 -2.3013 0
M  V30 11475 H 1069.61 -3.34803 -2.8872 0
M  V30 11476 N 1068.67 0.153526 -1.5685 0
M  V30 11477 C 1070.08 0.505939 -1.51368 0
M  V30 11478 C 1070.28 1.83721 -0.82757 0
M  V30 11479 O 1069.34 2.49385 -0.395364 0
M  V30 11480 C 1070.65 0.522269 -2.9613 0
M  V30 11481 C 1072.2 0.608238 -3.07033 0
M  V30 11482 C 1072.67 0.655292 -4.53288 0
M  V30 11483 N 1074.17 0.717695 -4.57606 0
M  V30 11484 C 1074.9 0.774977 -5.68139 0
M  V30 11485 N 1074.4 0.792003 -6.88258 0
M  V30 11486 N 1076.19 0.81536 -5.56155 0
M  V30 11487 H 1068.34 -0.71919 -1.99853 0
M  V30 11488 H 1070.6 -0.261466 -0.91123 0
M  V30 11489 H 1070.31 -0.387595 -3.49558 0
M  V30 11490 H 1070.18 1.3625 -3.51733 0
M  V30 11491 H 1072.57 1.50852 -2.53629 0
M  V30 11492 H 1072.65 -0.259014 -2.54485 0
M  V30 11493 H 1072.3 -0.240809 -5.07329 0
M  V30 11494 H 1072.23 1.53894 -5.03611 0
M  V30 11495 H 1074.72 0.7121 -3.7113 0
M  V30 11496 H 1075.03 0.837378 -7.6825 0
M  V30 11497 H 1073.37 0.759986 -6.90832 0
M  V30 11498 H 1076.57 0.799183 -4.61227 0
M  V30 11499 H 1076.74 0.856537 -6.42314 0
M  V30 11500 N 1070.14 1.51827 0.422667 0
M  V30 11501 C 1071.05 1.77066 1.53899 0
M  V30 11502 C 1072.07 0.655541 1.61179 0
M  V30 11503 O 1073.25 0.939448 1.78147 0
M  V30 11504 C 1070.31 1.90372 2.89758 0
M  V30 11505 C 1069.37 3.14256 2.92475 0
M  V30 11506 C 1068.61 3.26918 4.21853 0
M  V30 11507 O 1068.83 2.45164 5.15025 0
M  V30 11508 O 1067.76 4.19989 4.31153 0
M  V30 11509 H 1071.59 2.71791 1.35511 0
M  V30 11510 H 1069.17 1.36506 0.607165 0
M  V30 11511 H 1071.06 2.01024 3.70361 0
M  V30 11512 H 1069.73 0.988347 3.08242 0
M  V30 11513 H 1068.64 3.09072 2.10773 0
M  V30 11514 H 1069.97 4.0553 2.78937 0
M  V30 11515 N 1071.62 -0.679052 1.4222 0
M  V30 11516 C 1072.87 -1.44125 1.42674 0
M  V30 11517 C 1073.2 -1.94156 0.041438 0
M  V30 11518 O 1072.48 -1.70628 -0.93361 0
M  V30 11519 C 1072.76 -2.64133 2.44756 0
M  V30 11520 C 1072.61 -2.19761 3.9246 0
M  V30 11521 C 1073.93 -3.66347 2.43881 0
M  V30 11522 H 1071.05 -0.522729 0.519541 0
M  V30 11523 H 1073.69 -0.772067 1.73606 0
M  V30 11524 H 1071.84 -3.21225 2.1851 0
M  V30 11525 H 1073.51 -1.67869 4.29671 0
M  V30 11526 H 1071.76 -1.51377 4.06531 0
M  V30 11527 H 1072.43 -3.05944 4.59459 0
M  V30 11528 H 1074.9 -3.18963 2.67211 0
M  V30 11529 H 1073.78 -4.47902 3.17293 0
M  V30 11530 H 1074.04 -4.17183 1.46325 0
M  V30 11531 N 1073.1 -1.28322 -0.914942 0
M  V30 11532 C 1074.03 -1.14681 -2.03398 0
M  V30 11533 C 1075.01 -0.0448939 -1.70041 0
M  V30 11534 O 1076.2 -0.221672 -1.92931 0
M  V30 11535 C 1073.33 -0.806623 -3.37803 0
M  V30 11536 C 1072.28 -1.86318 -3.85318 0
M  V30 11537 C 1071.61 -1.37665 -5.16674 0
M  V30 11538 C 1072.91 -3.26953 -4.07307 0
M  V30 11539 H 1074.6 -2.08293 -2.15068 0
M  V30 11540 H 1072.15 -1.00284 -1.03339 0
M  V30 11541 H 1074.1 -0.69796 -4.1558 0
M  V30 11542 H 1072.82 0.165203 -3.26182 0
M  V30 11543 H 1071.48 -1.96096 -3.09745 0
M  V30 11544 H 1071.13 -0.393927 -5.01455 0
M  V30 11545 H 1070.83 -2.08313 -5.49435 0
M  V30 11546 H 1072.35 -1.28119 -5.97007 0
M  V30 11547 H 1073.77 -3.20102 -4.75613 0
M  V30 11548 H 1072.17 -3.95424 -4.51398 0
M  V30 11549 H 1073.24 -3.71059 -3.12159 0
M  V30 11550 N 1074.58 1.12322 -1.10551 0
M  V30 11551 C 1075.83 1.83858 -0.848674 0
M  V30 11552 C 1076.15 1.84159 0.62575 0
M  V30 11553 O 1075.41 1.28341 1.4774 0
M  V30 11554 C 1075.71 3.31177 -1.34375 0
M  V30 11555 C 1075.37 3.51046 -2.8298 0
M  V30 11556 C 1074.04 3.56177 -3.23561 0
M  V30 11557 C 1076.39 3.58061 -3.78737 0
M  V30 11558 C 1073.72 3.65868 -4.58647 0
M  V30 11559 C 1076.07 3.69283 -5.13627 0
M  V30 11560 C 1074.73 3.7267 -5.53781 0
M  V30 11561 H 1074 0.672784 -0.310552 0
M  V30 11562 H 1076.65 1.3253 -1.38232 0
M  V30 11563 H 1074.95 3.84937 -0.730144 0
M  V30 11564 H 1076.65 3.84998 -1.12148 0
M  V30 11565 H 1073.24 3.47716 -2.50582 0
M  V30 11566 H 1077.42 3.53366 -3.48491 0
M  V30 11567 H 1072.68 3.66763 -4.89178 0
M  V30 11568 H 1076.85 3.73654 -5.8767 0
M  V30 11569 H 1074.48 3.79932 -6.58449 0
M  V30 11570 N 1076.06 0.894434 1.2976 0
M  V30 11571 C 1077.33 0.437365 1.90648 0
M  V30 11572 C 1077.71 -1.08261 1.81226 0
M  V30 11573 O 1077.06 -1.92213 1.23557 0
M  V30 11574 C 1077.27 0.946047 3.35933 0
M  V30 11575 C 1078.62 0.986621 4.12978 0
M  V30 11576 O 1079.64 0.893356 3.44815 0
M  V30 11577 O 1078.5 1.12591 5.34776 0
M  V30 11578 H 1075.6 0.135436 0.815835 0
M  V30 11579 H 1078.14 0.983955 1.38262 0
M  V30 11580 H 1076.91 1.98998 3.3692 0
M  V30 11581 H 1076.54 0.379164 3.95788 0
M  V30 11582 N 1077.53 -1.43282 0.656365 0
M  V30 11583 C 1078.5 -2.29188 -0.0239173 0
M  V30 11584 C 1079.5 -1.42373 -0.747436 0
M  V30 11585 O 1080.69 -1.63969 -0.588213 0
M  V30 11586 C 1077.82 -3.24501 -1.0446 0
M  V30 11587 H 1079.01 -2.9083 0.731978 0
M  V30 11588 H 1076.57 -1.50614 0.417752 0
M  V30 11589 H 1077.3 -2.6776 -1.82962 0
M  V30 11590 H 1077.09 -3.88509 -0.52942 0
M  V30 11591 H 1078.58 -3.88971 -1.51958 0
M  V30 11592 N 1079.01 -0.398486 -1.52479 0
M  V30 11593 C 1080.26 0.181019 -2.0199 0
M  V30 11594 C 1080.59 1.45691 -1.28405 0
M  V30 11595 O 1079.87 1.90607 -0.387207 0
M  V30 11596 C 1080.15 0.439587 -3.57407 0
M  V30 11597 C 1080 -0.85223 -4.41653 0
M  V30 11598 C 1081.32 1.2263 -4.2267 0
M  V30 11599 H 1078.44 0.0643164 -0.734188 0
M  V30 11600 H 1081.08 -0.52986 -1.82462 0
M  V30 11601 H 1079.23 1.04516 -3.74177 0
M  V30 11602 H 1080.91 -1.48879 -4.36615 0
M  V30 11603 H 1079.15 -1.46555 -4.08294 0
M  V30 11604 H 1079.82 -0.625839 -5.48441 0
M  V30 11605 H 1082.3 0.713722 -4.09933 0
M  V30 11606 H 1081.17 1.37596 -5.31374 0
M  V30 11607 H 1081.43 2.24403 -3.80914 0
M  V30 11608 N 1080.49 1.57075 -0.12858 0
M  V30 11609 C 1081.74 1.9581 0.527868 0
M  V30 11610 C 1082.07 1.01253 1.65715 0
M  V30 11611 O 1081.35 0.0514853 1.94432 0
M  V30 11612 C 1081.63 3.44406 1.05151 0
M  V30 11613 C 1081.48 4.49737 -0.0750113 0
M  V30 11614 C 1082.8 3.95069 1.9393 0
M  V30 11615 H 1079.92 0.711978 0.19041 0
M  V30 11616 H 1082.56 1.88879 -0.206081 0
M  V30 11617 H 1080.71 3.50443 1.67697 0
M  V30 11618 H 1082.38 4.55793 -0.710685 0
M  V30 11619 H 1080.63 4.27497 -0.736809 0
M  V30 11620 H 1081.3 5.50996 0.332779 0
M  V30 11621 H 1083.77 3.91395 1.41241 0
M  V30 11622 H 1082.65 4.99542 2.27484 0
M  V30 11623 H 1082.91 3.36329 2.86941 0
M  V30 11624 N 1081.97 -0.145205 1.5693 0
M  V30 11625 C 1083.2 -0.872398 1.87608 0
M  V30 11626 C 1083.61 -1.74657 0.716975 0
M  V30 11627 O 1082.97 -1.79792 -0.3132 0
M  V30 11628 C 1083.02 -1.72762 3.17546 0
M  V30 11629 O 1082.74 -0.888681 4.28992 0
M  V30 11630 C 1084.24 -2.56224 3.61751 0
M  V30 11631 H 1081.46 -0.252166 0.621815 0
M  V30 11632 H 1084.01 -0.137456 2.04038 0
M  V30 11633 H 1082.16 -2.41561 3.02865 0
M  V30 11634 H 1082.58 -1.47601 5.03303 0
M  V30 11635 H 1084.05 -3.11804 4.55502 0
M  V30 11636 H 1084.53 -3.32347 2.87127 0
M  V30 11637 H 1085.13 -1.92714 3.79133 0
M  V30 11638 N 1083.45 -1.52049 -0.414609 0
M  V30 11639 C 1084.41 -1.74382 -1.4874 0
M  V30 11640 C 1085.41 -0.613701 -1.48628 0
M  V30 11641 O 1086.6 -0.88152 -1.50249 0
M  V30 11642 C 1083.73 -1.82116 -2.88178 0
M  V30 11643 H 1084.93 -2.70147 -1.30233 0
M  V30 11644 H 1082.48 -1.42382 -0.644756 0
M  V30 11645 H 1083.21 -0.882457 -3.12063 0
M  V30 11646 H 1083 -2.64268 -2.89663 0
M  V30 11647 H 1084.49 -2.01155 -3.65959 0
M  V30 11648 N 1084.93 0.6715 -1.42579 0
M  V30 11649 C 1086.34 1.2522 -1.38481 0
M  V30 11650 C 1086.69 1.96038 -0.079719 0
M  V30 11651 O 1085.81 2.00203 0.821441 0
M  V30 11652 C 1086.41 2.27736 -2.50842 0
M  V30 11653 C 1084.97 2.81325 -2.50067 0
M  V30 11654 C 1084.11 1.55694 -2.29466 0
M  V30 11655 H 1087.06 0.464673 -1.51745 0
M  V30 11656 H 1087.09 3.09539 -2.21283 0
M  V30 11657 H 1086.6 1.76164 -3.45815 0
M  V30 11658 H 1084.7 3.37008 -1.58922 0
M  V30 11659 H 1084.81 3.30116 -3.47218 0
M  V30 11660 H 1083.18 1.82383 -1.77788 0
M  V30 11661 H 1083.96 1.06084 -3.26498 0
M  V30 11662 N 1086.4 1.28806 0.908124 0
M  V30 11663 C 1087.34 1.07538 2.01273 0
M  V30 11664 C 1088.31 -0.0102454 1.62597 0
M  V30 11665 O 1089.5 0.138797 1.87988 0
M  V30 11666 C 1086.63 0.635337 3.32688 0
M  V30 11667 C 1085.67 1.71843 3.90349 0
M  V30 11668 S 1086.5 3.31571 4.20501 0
M  V30 11669 C 1087.66 2.89416 5.54968 0
M  V30 11670 H 1087.89 2.01058 2.19005 0
M  V30 11671 H 1085.43 1.12857 1.05369 0
M  V30 11672 H 1087.38 0.388159 4.08661 0
M  V30 11673 H 1086.05 -0.280122 3.12848 0
M  V30 11674 H 1085.24 1.36228 4.8524 0
M  V30 11675 H 1084.84 1.91869 3.21033 0
M  V30 11676 H 1087.13 2.35936 6.35091 0
M  V30 11677 H 1088.08 3.83126 5.955 0
M  V30 11678 H 1088.48 2.27962 5.16424 0
M  V30 11679 N 1087.88 -1.11734 1.11145 0
M  V30 11680 C 1088.79 -2.21267 0.779607 0
M  V30 11681 C 1089.81 -1.72526 -0.225986 0
M  V30 11682 O 1090.98 -2.01302 -0.0629166 0
M  V30 11683 C 1088.05 -3.45973 0.22435 0
M  V30 11684 C 1087.11 -4.09518 1.28816 0
M  V30 11685 C 1086.34 -5.28271 0.7593 0
M  V30 11686 O 1086.57 -5.68912 -0.411725 0
M  V30 11687 O 1085.5 -5.82322 1.52266 0
M  V30 11688 H 1089.33 -2.5206 1.6941 0
M  V30 11689 H 1086.91 -1.20211 0.887115 0
M  V30 11690 H 1088.79 -4.21322 -0.0810921 0
M  V30 11691 H 1087.47 -3.1684 -0.662891 0
M  V30 11692 H 1086.37 -3.35915 1.64657 0
M  V30 11693 H 1087.71 -4.42824 2.14868 0
M  V30 11694 N 1089.36 -0.901303 -1.29284 0
M  V30 11695 C 1090.32 -0.385081 -2.25942 0
M  V30 11696 C 1091.32 0.481626 -1.53418 0
M  V30 11697 O 1092.51 0.286451 -1.71829 0
M  V30 11698 C 1089.64 0.449319 -3.37926 0
M  V30 11699 H 1090.84 -1.23877 -2.7312 0
M  V30 11700 H 1088.39 -0.679586 -1.40753 0
M  V30 11701 H 1089.13 1.32292 -2.9609 0
M  V30 11702 H 1088.91 -0.171731 -3.91724 0
M  V30 11703 H 1090.4 0.801746 -4.09831 0
M  V30 11704 N 1090.84 1.42931 -0.663954 0
M  V30 11705 C 1092.07 2.05729 -0.189532 0
M  V30 11706 C 1092.48 1.49914 1.15423 0
M  V30 11707 O 1091.82 0.629324 1.72584 0
M  V30 11708 C 1091.88 3.59482 -0.0354748 0
M  V30 11709 C 1091.54 4.37935 -1.30622 0
M  V30 11710 C 1092.54 4.69297 -2.23733 0
M  V30 11711 C 1090.23 4.77761 -1.5508 0
M  V30 11712 C 1092.22 5.39407 -3.39586 0
M  V30 11713 C 1089.91 5.47613 -2.71224 0
M  V30 11714 C 1090.91 5.7836 -3.63302 0
M  V30 11715 O 1090.59 6.46783 -4.77417 0
M  V30 11716 H 1090.33 0.669678 -0.0922342 0
M  V30 11717 H 1092.88 1.84243 -0.907943 0
M  V30 11718 H 1091.11 3.79584 0.738412 0
M  V30 11719 H 1092.8 4.03947 0.397679 0
M  V30 11720 H 1093.56 4.39038 -2.06084 0
M  V30 11721 H 1089.44 4.53229 -0.842863 0
M  V30 11722 H 1092.99 5.63323 -4.11476 0
M  V30 11723 H 1088.88 5.77289 -2.88804 0
M  V30 11724 H 1089.65 6.6527 -4.76821 0
M  V30 11725 N 1092.32 0.406567 1.52266 0
M  V30 11726 C 1093.56 -0.1627 2.02748 0
M  V30 11727 C 1093.92 -1.43022 1.28695 0
M  V30 11728 O 1093.21 -1.87715 0.383881 0
M  V30 11729 C 1093.4 -0.467124 3.54334 0
M  V30 11730 C 1093.23 0.76934 4.4307 0
M  V30 11731 C 1092 1.29377 4.88456 0
M  V30 11732 C 1094.2 1.64671 4.87225 0
M  V30 11733 N 1092.18 2.48599 5.61313 0
M  V30 11734 C 1093.55 2.68519 5.58836 0
M  V30 11735 C 1095.61 1.66477 4.69244 0
M  V30 11736 C 1094.31 3.74081 6.14374 0
M  V30 11737 C 1096.34 2.70956 5.25677 0
M  V30 11738 C 1095.7 3.73525 5.97209 0
M  V30 11739 H 1091.8 -0.0211706 0.781713 0
M  V30 11740 H 1094.38 0.560338 1.86463 0
M  V30 11741 H 1092.55 -1.15921 3.70698 0
M  V30 11742 H 1094.29 -1.02505 3.91503 0
M  V30 11743 H 1091.04 0.85219 4.6587 0
M  V30 11744 H 1091.46 3.0897 6.02384 0
M  V30 11745 H 1096.11 0.88519 4.1343 0
M  V30 11746 H 1093.82 4.52896 6.69261 0
M  V30 11747 H 1097.41 2.73258 5.13635 0
M  V30 11748 H 1096.29 4.53043 6.40095 0
M  V30 11749 N 1093.79 -1.57004 0.136909 0
M  V30 11750 C 1095.02 -2.00156 -0.523936 0
M  V30 11751 C 1095.44 -1.01688 -1.59075 0
M  V30 11752 O 1094.79 -0.0123678 -1.82496 0
M  V30 11753 C 1094.85 -3.4326 -1.13379 0
M  V30 11754 O 1094.57 -4.37963 -0.109598 0
M  V30 11755 C 1096.07 -4.01637 -1.87623 0
M  V30 11756 H 1093.29 -0.65681 -0.137263 0
M  V30 11757 H 1095.83 -2.03219 0.228522 0
M  V30 11758 H 1093.99 -3.4108 -1.83693 0
M  V30 11759 H 1094.4 -5.21555 -0.55503 0
M  V30 11760 H 1095.87 -5.03795 -2.25597 0
M  V30 11761 H 1096.35 -3.41781 -2.75831 0
M  V30 11762 H 1096.96 -4.07417 -1.22031 0
M  V30 11763 N 1095.27 0.136881 -1.57004 0
M  V30 11764 C 1096.24 1.15267 -1.98106 0
M  V30 11765 C 1097.24 1.35305 -0.868856 0
M  V30 11766 O 1098.43 1.32126 -1.13527 0
M  V30 11767 C 1095.56 2.51092 -2.30577 0
M  V30 11768 H 1096.75 0.799821 -2.89038 0
M  V30 11769 H 1094.3 0.380576 -1.51596 0
M  V30 11770 H 1095.04 2.9133 -1.42469 0
M  V30 11771 H 1094.82 2.37906 -3.11678 0
M  V30 11772 H 1096.31 3.24232 -2.63179 0
M  V30 11773 N 1096.75 1.52266 0.40654 0
M  V30 11774 C 1097.68 1.78755 1.50229 0
M  V30 11775 C 1098.66 0.638652 1.57655 0
M  V30 11776 O 1099.85 0.884505 1.72888 0
M  V30 11777 C 1096.98 1.94057 2.88026 0
M  V30 11778 C 1095.93 3.09667 2.95449 0
M  V30 11779 C 1095.26 3.10196 4.35526 0
M  V30 11780 C 1096.56 4.49077 2.66697 0
M  V30 11781 H 1098.25 2.70511 1.28313 0
M  V30 11782 H 1095.8 1.30167 0.615836 0
M  V30 11783 H 1097.75 2.11171 3.64671 0
M  V30 11784 H 1096.47 0.989755 3.11242 0
M  V30 11785 H 1095.13 2.92308 2.2125 0
M  V30 11786 H 1094.78 2.12831 4.55754 0
M  V30 11787 H 1094.48 3.87847 4.41416 0
M  V30 11788 H 1096 3.29443 5.14101 0
M  V30 11789 H 1097.42 4.66628 3.33064 0
M  V30 11790 H 1095.82 5.28665 2.8396 0
M  V30 11791 H 1096.89 4.56995 1.62122 0
M  V30 11792 N 1098.23 -0.663929 1.42933 0
M  V30 11793 C 1099.19 -1.75899 1.46943 0
M  V30 11794 C 1100.19 -1.5682 0.355535 0
M  V30 11795 O 1101.38 -1.62914 0.616833 0
M  V30 11796 C 1098.51 -3.14657 1.31164 0
M  V30 11797 H 1099.71 -1.73727 2.44456 0
M  V30 11798 H 1097.26 -0.874587 1.2954 0
M  V30 11799 H 1097.99 -3.22447 0.346165 0
M  V30 11800 H 1097.78 -3.29909 2.11902 0
M  V30 11801 H 1099.27 -3.9453 1.36878 0
M  V30 11802 N 1099.71 -1.29285 -0.901281 0
M  V30 11803 C 1100.64 -1.16832 -2.0217 0
M  V30 11804 C 1101.62 -0.0629265 -1.69984 0
M  V30 11805 O 1102.8 -0.242123 -1.92685 0
M  V30 11806 C 1099.93 -0.842406 -3.36929 0
M  V30 11807 C 1098.89 -1.90394 -3.8332 0
M  V30 11808 C 1098.21 -1.43138 -5.15185 0
M  V30 11809 C 1099.51 -3.31254 -4.03817 0
M  V30 11810 H 1101.21 -2.10562 -2.12847 0
M  V30 11811 H 1098.75 -1.01375 -1.0227 0
M  V30 11812 H 1100.71 -0.741999 -4.14816 0
M  V30 11813 H 1099.43 0.130598 -3.26339 0
M  V30 11814 H 1098.09 -1.99371 -3.07647 0
M  V30 11815 H 1097.74 -0.447091 -5.01009 0
M  V30 11816 H 1097.44 -2.14129 -5.47195 0
M  V30 11817 H 1098.96 -1.34444 -5.95615 0
M  V30 11818 H 1100.37 -3.25129 -4.72191 0
M  V30 11819 H 1098.77 -4.00189 -4.47178 0
M  V30 11820 H 1099.84 -3.74349 -3.08206 0
M  V30 11821 N 1101.18 1.11143 -1.11736 0
M  V30 11822 C 1102.13 2.19358 -0.773626 0
M  V30 11823 C 1103.13 1.67744 0.236288 0
M  V30 11824 O 1104.33 1.79748 0.09525 0
M  V30 11825 H 1100.71 0.715218 -0.232309 0
M  V30 11826 H 1102.68 2.45594 -1.69487 0
M  V30 11827 C 1101.43 3.46895 -0.236457 0
M  V30 11828 H 1100.75 3.86967 -1.00483 0
M  V30 11829 H 1102.19 4.23986 -0.034168 0
M  V30 11830 C 1100.65 3.20641 1.03397 0
M  V30 11831 O 1101.18 3.41629 2.11312 0
M  V30 11832 N 1099.39 2.74356 0.957986 0
M  V30 11833 H 1098.93 2.57477 0.0796924 0
M  V30 11834 H 1098.89 2.57166 1.80867 0
M  V30 11835 N 1102.66 0.908147 1.28804 0
M  V30 11836 C 1103.6 0.336764 2.25701 0
M  V30 11837 C 1104.57 -0.555849 1.52804 0
M  V30 11838 O 1105.76 -0.500763 1.81727 0
M  V30 11839 C 1102.88 -0.519154 3.34698 0
M  V30 11840 C 1101.93 0.307304 4.25391 0
M  V30 11841 S 1102.76 1.71048 5.07447 0
M  V30 11842 C 1103.92 0.861715 6.1994 0
M  V30 11843 H 1104.15 1.15806 2.73818 0
M  V30 11844 H 1101.69 0.709033 1.37157 0
M  V30 11845 H 1103.64 -1.00718 3.97952 0
M  V30 11846 H 1102.3 -1.31477 2.85259 0
M  V30 11847 H 1101.5 -0.346906 5.02805 0
M  V30 11848 H 1101.1 0.728777 3.66831 0
M  V30 11849 H 1103.39 0.088851 6.77442 0
M  V30 11850 H 1104.33 1.60821 6.89596 0
M  V30 11851 H 1104.74 0.412366 5.62992 0
M  V30 11852 N 1104.14 -1.42577 0.671525 0
M  V30 11853 C 1105.37 -2.06442 0.199152 0
M  V30 11854 C 1105.79 -1.50104 -1.1336 0
M  V30 11855 O 1105.15 -0.618211 -1.70434 0
M  V30 11856 C 1105.2 -3.60323 0.141215 0
M  V30 11857 O 1104.3 -4.02655 -0.891238 0
M  V30 11858 H 1103.64 -0.655919 0.103277 0
M  V30 11859 H 1106.17 -1.82768 0.919614 0
M  V30 11860 H 1106.18 -4.07984 -0.0360209 0
M  V30 11861 H 1104.86 -4.00702 1.11403 0
M  V30 11862 H 1103.43 -3.66549 -0.685309 0
M  V30 11863 N 1105.62 -0.414636 -1.52048 0
M  V30 11864 C 1106.53 0.414861 -2.30903 0
M  V30 11865 C 1107.54 1.04855 -1.38858 0
M  V30 11866 O 1108.72 1.04886 -1.71933 0
M  V30 11867 C 1105.79 1.51356 -3.11917 0
M  V30 11868 C 1104.85 0.902359 -4.19709 0
M  V30 11869 C 1104.08 1.9487 -4.96852 0
M  V30 11870 O 1104.3 3.16766 -4.74358 0
M  V30 11871 O 1103.24 1.55186 -5.8155 0
M  V30 11872 H 1107.06 -0.228251 -3.02841 0
M  V30 11873 H 1104.65 -0.177704 -1.48339 0
M  V30 11874 H 1106.53 2.15127 -3.62351 0
M  V30 11875 H 1105.2 2.14117 -2.42767 0
M  V30 11876 H 1104.11 0.22721 -3.73409 0
M  V30 11877 H 1105.44 0.318587 -4.91168 0
M  V30 11878 N 1107.1 1.56929 -0.145233 0
M  V30 11879 C 1108.01 2.20238 0.808219 0
M  V30 11880 C 1109.02 1.18615 1.27304 0
M  V30 11881 O 1110.2 1.51186 1.3306 0
M  V30 11882 C 1107.26 2.81016 2.03055 0
M  V30 11883 C 1106.32 3.97759 1.61512 0
M  V30 11884 C 1105.56 4.55628 2.77918 0
M  V30 11885 O 1105.78 4.12378 3.94082 0
M  V30 11886 O 1104.71 5.45917 2.53492 0
M  V30 11887 H 1108.54 3.02221 0.299314 0
M  V30 11888 H 1106.13 1.49176 0.0817051 0
M  V30 11889 H 1108.01 3.19652 2.74592 0
M  V30 11890 H 1106.68 2.02047 2.52901 0
M  V30 11891 H 1105.59 3.63842 0.870033 0
M  V30 11892 H 1106.92 4.78242 1.16383 0
M  V30 11893 N 1108.58 -0.128553 1.57075 0
M  V30 11894 C 1109.8 -0.8564 1.88893 0
M  V30 11895 C 1110.23 -1.73095 0.736196 0
M  V30 11896 O 1109.58 -1.78567 -0.313629 0
M  V30 11897 C 1109.63 -1.67368 3.19406 0
M  V30 11898 O 1108.74 -2.77973 3.04639 0
M  V30 11899 H 1108.08 -0.237424 0.620102 0
M  V30 11900 H 1110.61 -0.113821 2.04283 0
M  V30 11901 H 1110.62 -2.0649 3.51889 0
M  V30 11902 H 1109.29 -1.03161 4.02903 0
M  V30 11903 H 1107.87 -2.42123 2.83603 0
M  V30 11904 N 1110.05 -1.5248 -0.398459 0
M  V30 11905 C 1110.96 -1.79492 -1.51062 0
M  V30 11906 C 1111.98 -0.681101 -1.60116 0
M  V30 11907 O 1113.16 -0.967671 -1.7663 0
M  V30 11908 C 1110.22 -1.94958 -2.86692 0
M  V30 11909 C 1109.28 -3.1887 -2.87438 0
M  V30 11910 C 1108.51 -3.33588 -4.16599 0
M  V30 11911 O 1108.74 -2.53327 -5.11059 0
M  V30 11912 O 1107.67 -4.26795 -4.24416 0
M  V30 11913 H 1111.5 -2.73913 -1.31169 0
M  V30 11914 H 1109.08 -1.37455 -0.585372 0
M  V30 11915 H 1110.96 -2.06891 -3.67116 0
M  V30 11916 H 1109.64 -1.03726 -3.06631 0
M  V30 11917 H 1108.55 -3.12386 -2.0583 0
M  V30 11918 H 1109.88 -4.09917 -2.7245 0
M  V30 11919 N 1111.53 0.65634 -1.43283 0
M  V30 11920 C 1112.48 1.76243 -1.44646 0
M  V30 11921 C 1113.47 1.5778 -0.31532 0
M  V30 11922 O 1114.66 1.67945 -0.558881 0
M  V30 11923 C 1111.79 3.14813 -1.36921 0
M  V30 11924 C 1110.87 3.38835 -2.55053 0
M  V30 11925 N 1111.26 3.33345 -3.80414 0
M  V30 11926 C 1109.56 3.69542 -2.4971 0
M  V30 11927 C 1110.26 3.57361 -4.58986 0
M  V30 11928 N 1109.24 3.79022 -3.8967 0
M  V30 11929 H 1113.04 1.70419 -2.39447 0
M  V30 11930 H 1110.55 0.85789 -1.37891 0
M  V30 11931 H 1112.55 3.941 -1.3598 0
M  V30 11932 H 1111.21 3.21822 -0.431381 0
M  V30 11933 H 1112.22 3.12827 -4.12747 0
M  V30 11934 H 1108.9 3.83684 -1.64598 0
M  V30 11935 H 1110.29 3.58921 -5.68001 0
M  V30 11936 N 1113.01 1.29761 0.894412 0
M  V30 11937 C 1114.26 1.18214 1.64782 0
M  V30 11938 C 1114.59 -0.264635 1.92388 0
M  V30 11939 O 1113.86 -1.19051 1.53809 0
M  V30 11940 C 1114.15 2.00138 2.99361 0
M  V30 11941 C 1114 3.52984 2.78787 0
M  V30 11942 C 1115.32 1.83187 4.00163 0
M  V30 11943 H 1112.44 0.430802 0.597979 0
M  V30 11944 H 1115.08 1.59292 1.03566 0
M  V30 11945 H 1113.23 1.65233 3.51611 0
M  V30 11946 H 1114.9 3.97898 2.33398 0
M  V30 11947 H 1113.14 3.77642 2.13469 0
M  V30 11948 H 1113.82 4.05585 3.7444 0
M  V30 11949 H 1116.29 2.13684 3.57041 0
M  V30 11950 H 1115.17 2.42849 4.92255 0
M  V30 11951 H 1115.43 0.788469 4.35012 0
M  V30 11952 N 1114.49 -1.10549 1.12324 0
M  V30 11953 C 1115.73 -1.82755 0.879117 0
M  V30 11954 C 1116.07 -1.84905 -0.593604 0
M  V30 11955 O 1115.34 -1.30884 -1.43873 0
M  V30 11956 C 1115.62 -3.29481 1.45308 0
M  V30 11957 C 1115.48 -3.3567 2.99408 0
M  V30 11958 C 1116.8 -4.25828 1.11167 0
M  V30 11959 H 1113.92 -0.663513 0.32081 0
M  V30 11960 H 1116.56 -1.29572 1.38965 0
M  V30 11961 H 1114.71 -3.74902 1.01887 0
M  V30 11962 H 1116.38 -2.98739 3.515 0
M  V30 11963 H 1114.62 -2.75606 3.34998 0
M  V30 11964 H 1115.29 -4.38983 3.34661 0
M  V30 11965 H 1117.77 -3.88635 1.48667 0
M  V30 11966 H 1116.65 -5.26857 1.53991 0
M  V30 11967 H 1116.91 -4.42094 0.0237046 0
M  V30 11968 N 1115.97 -0.914965 -1.28321 0
M  V30 11969 C 1117.24 -0.46764 -1.89928 0
M  V30 11970 C 1117.62 1.05364 -1.82925 0
M  V30 11971 O 1116.97 1.90223 -1.26599 0
M  V30 11972 C 1117.18 -0.999372 -3.34385 0
M  V30 11973 C 1118.53 -1.0522 -4.11356 0
M  V30 11974 O 1119.55 -0.9481 -3.4335 0
M  V30 11975 O 1118.41 -1.21085 -5.32917 0
M  V30 11976 H 1115.51 -0.148398 -0.813577 0
M  V30 11977 H 1118.05 -1.00583 -1.36679 0
M  V30 11978 H 1116.82 -2.04333 -3.33712 0
M  V30 11979 H 1116.45 -0.442083 -3.95135 0
M  V30 11980 N 1117.44 1.42219 -0.679077 0
M  V30 11981 C 1118.38 2.28152 0.0468359 0
M  V30 11982 C 1119.35 1.41307 0.804433 0
M  V30 11983 O 1120.54 1.70744 0.798673 0
M  V30 11984 C 1117.67 3.21236 1.07355 0
M  V30 11985 C 1116.71 4.24515 0.411042 0
M  V30 11986 S 1117.54 5.28958 -0.834506 0
M  V30 11987 C 1118.7 6.25608 0.191029 0
M  V30 11988 H 1118.93 2.89371 -0.682045 0
M  V30 11989 H 1116.47 1.47112 -0.468767 0
M  V30 11990 H 1118.42 3.75402 1.66082 0
M  V30 11991 H 1117.09 2.59145 1.7749 0
M  V30 11992 H 1116.28 4.89849 1.1859 0
M  V30 11993 H 1115.88 3.73859 -0.102742 0
M  V30 11994 H 1118.17 6.69323 1.04944 0
M  V30 11995 H 1119.12 7.06806 -0.427959 0
M  V30 11996 H 1119.52 5.61926 0.538422 0
M  V30 11997 N 1118.92 0.422693 1.51826 0
M  V30 11998 C 1119.88 -0.384307 2.25955 0
M  V30 11999 C 1120.88 -0.962184 1.28836 0
M  V30 12000 O 1122.07 -0.838931 1.52668 0
M  V30 12001 C 1119.21 -1.54228 3.04018 0
M  V30 12002 H 1120.4 0.265157 2.98726 0
M  V30 12003 H 1117.95 0.175515 1.55311 0
M  V30 12004 H 1118.69 -2.22822 2.35629 0
M  V30 12005 H 1118.47 -1.13425 3.75336 0
M  V30 12006 H 1119.96 -2.1128 3.60209 0
M  V30 12007 N 1120.4 -1.5685 0.153553 0
M  V30 12008 C 1121.65 -1.96334 -0.495915 0
M  V30 12009 C 1121.97 -1.03873 -1.64441 0
M  V30 12010 O 1121.23 -0.069231 -1.95578 0
M  V30 12011 C 1121.53 -3.42022 -1.0371 0
M  V30 12012 C 1121.19 -4.509 -0.00637049 0
M  V30 12013 C 1119.86 -4.80402 0.276956 0
M  V30 12014 C 1122.21 -5.16556 0.694187 0
M  V30 12015 C 1119.54 -5.72866 1.26653 0
M  V30 12016 C 1121.89 -6.10087 1.67263 0
M  V30 12017 C 1120.55 -6.37965 1.96359 0
M  V30 12018 H 1119.82 -0.718436 -0.181468 0
M  V30 12019 H 1122.47 -1.89968 0.241768 0
M  V30 12020 H 1120.77 -3.45252 -1.85225 0
M  V30 12021 H 1122.47 -3.69903 -1.54831 0
M  V30 12022 H 1119.06 -4.27942 -0.237378 0
M  V30 12023 H 1123.25 -4.9389 0.488496 0
M  V30 12024 H 1118.5 -5.92756 1.49833 0
M  V30 12025 H 1122.68 -6.60036 2.22094 0
M  V30 12026 H 1120.3 -7.09416 2.73189 0
M  V30 12027 N 1121.88 0.120221 -1.57141 0
M  V30 12028 C 1122.81 1.14876 -2.03287 0
M  V30 12029 C 1123.79 1.43259 -0.917112 0
M  V30 12030 O 1124.97 1.53721 -1.18674 0
M  V30 12031 C 1122.1 2.47525 -2.43616 0
M  V30 12032 C 1121.06 2.33607 -3.58625 0
M  V30 12033 C 1120.38 3.71207 -3.84849 0
M  V30 12034 C 1121.68 1.79761 -4.90391 0
M  V30 12035 H 1123.38 0.764943 -2.89463 0
M  V30 12036 H 1120.92 0.366516 -1.39258 0
M  V30 12037 H 1122.88 3.19728 -2.74504 0
M  V30 12038 H 1121.6 2.87794 -1.54409 0
M  V30 12039 H 1120.26 1.63853 -3.27945 0
M  V30 12040 H 1119.91 4.0896 -2.9285 0
M  V30 12041 H 1119.61 3.62749 -4.62263 0
M  V30 12042 H 1121.13 4.44917 -4.18188 0
M  V30 12043 H 1122.55 2.4178 -5.19822 0
M  V30 12044 H 1120.94 1.82126 -5.71795 0
M  V30 12045 H 1122.01 0.755087 -4.78985 0
M  V30 12046 N 1123.36 1.52689 0.390367 0
M  V30 12047 C 1124.6 1.67335 1.13329 0
M  V30 12048 C 1124.93 0.415068 1.90531 0
M  V30 12049 O 1124.2 -0.570504 1.87409 0
M  V30 12050 H 1122.78 0.616821 0.421356 0
M  V30 12051 H 1125.44 1.89799 0.443 0
M  V30 12052 H 1124.53 2.52314 1.83696 0
M  V30 12053 N 1124.83 -0.648732 1.43629 0
M  V30 12054 C 1126.06 -1.4362 1.48932 0
M  V30 12055 C 1126.48 -1.88487 0.108599 0
M  V30 12056 O 1125.83 -1.59768 -0.882066 0
M  V30 12057 C 1125.89 -2.66822 2.43903 0
M  V30 12058 O 1125.61 -2.2383 3.76606 0
M  V30 12059 C 1127.11 -3.60134 2.58493 0
M  V30 12060 H 1124.33 -0.441055 0.505679 0
M  V30 12061 H 1126.87 -0.794936 1.88417 0
M  V30 12062 H 1125.03 -3.27079 2.07601 0
M  V30 12063 H 1125.44 -3.03575 4.27718 0
M  V30 12064 H 1126.91 -4.43234 3.29011 0
M  V30 12065 H 1127.39 -4.07779 1.63134 0
M  V30 12066 H 1128 -3.05756 2.95624 0
M  V30 12067 N 1126.31 -1.30234 -0.887518 0
M  V30 12068 C 1127.73 -1.0851 -1.17037 0
M  V30 12069 C 1127.93 0.155788 -2.00897 0
M  V30 12070 O 1126.98 0.850123 -2.37759 0
M  V30 12071 C 1128.3 -2.34723 -1.87951 0
M  V30 12072 C 1129.85 -2.40163 -2.00726 0
M  V30 12073 C 1130.32 -3.66211 -2.75051 0
M  V30 12074 N 1131.81 -3.67004 -2.82599 0
M  V30 12075 C 1132.55 -4.61224 -3.40676 0
M  V30 12076 N 1132.04 -5.65786 -3.99823 0
M  V30 12077 N 1133.84 -4.48772 -3.38467 0
M  V30 12078 H 1125.99 -2.09847 -0.328297 0
M  V30 12079 H 1128.25 -0.924904 -0.20798 0
M  V30 12080 H 1127.96 -3.25265 -1.33773 0
M  V30 12081 H 1127.83 -2.43175 -2.8835 0
M  V30 12082 H 1130.22 -1.50101 -2.54074 0
M  V30 12083 H 1130.3 -2.35688 -0.994218 0
M  V30 12084 H 1129.94 -4.56631 -2.22376 0
M  V30 12085 H 1129.87 -3.67947 -3.76726 0
M  V30 12086 H 1132.36 -2.91409 -2.40602 0
M  V30 12087 H 1132.68 -6.33783 -4.42197 0
M  V30 12088 H 1131.02 -5.69581 -3.9825 0
M  V30 12089 H 1134.21 -3.6627 -2.91485 0
M  V30 12090 H 1134.38 -5.22382 -3.83433 0
M  V30 12091 N 1127.79 1.09952 -1.12909 0
M  V30 12092 C 1128.75 2.14615 -0.804548 0
M  V30 12093 C 1129.75 1.5975 0.18345 0
M  V30 12094 O 1130.94 1.74147 -0.0429623 0
M  V30 12095 C 1128.08 3.40333 -0.196471 0
M  V30 12096 H 1129.27 2.44835 -1.73193 0
M  V30 12097 H 1126.82 1.25399 -0.932997 0
M  V30 12098 H 1127.56 3.15735 0.740388 0
M  V30 12099 H 1127.34 3.81444 -0.907886 0
M  V30 12100 H 1128.83 4.17598 0.0139264 0
M  V30 12101 N 1129.27 0.921757 1.27833 0
M  V30 12102 C 1130.52 0.557974 1.94245 0
M  V30 12103 C 1130.84 -0.90268 1.72849 0
M  V30 12104 O 1130.11 -1.63915 1.07279 0
M  V30 12105 H 1128.69 0.203364 0.718785 0
M  V30 12106 H 1131.35 1.17286 1.5566 0
M  V30 12107 H 1130.45 0.759202 3.02725 0
M  V30 12108 N 1130.75 -1.41857 0.686609 0
M  V30 12109 C 1131.68 -2.33481 0.0298353 0
M  V30 12110 C 1132.66 -1.51329 -0.776756 0
M  V30 12111 O 1133.84 -1.79895 -0.731535 0
M  V30 12112 C 1130.97 -3.35065 -0.913707 0
M  V30 12113 C 1129.93 -4.2746 -0.214861 0
M  V30 12114 C 1129.25 -5.19346 -1.27215 0
M  V30 12115 C 1130.55 -5.14252 0.913367 0
M  V30 12116 H 1132.25 -2.8865 0.795067 0
M  V30 12117 H 1129.79 -1.38792 0.383785 0
M  V30 12118 H 1131.75 -3.98082 -1.38234 0
M  V30 12119 H 1130.47 -2.78226 -1.7105 0
M  V30 12120 H 1129.13 -3.65855 0.233651 0
M  V30 12121 H 1128.78 -4.58827 -2.06124 0
M  V30 12122 H 1128.48 -5.81996 -0.80961 0
M  V30 12123 H 1130 -5.85239 -1.74147 0
M  V30 12124 H 1131.41 -5.70887 0.525424 0
M  V30 12125 H 1129.81 -5.85796 1.30244 0
M  V30 12126 H 1130.88 -4.51949 1.75699 0
M  V30 12127 N 1132.22 -0.430739 -1.51599 0
M  V30 12128 C 1133.15 0.374695 -2.30474 0
M  V30 12129 C 1134.14 1.02694 -1.35602 0
M  V30 12130 O 1135.32 1.03184 -1.6452 0
M  V30 12131 C 1132.45 1.47981 -3.14196 0
M  V30 12132 C 1131.4 0.951415 -4.17291 0
M  V30 12133 C 1130.73 2.15177 -4.89492 0
M  V30 12134 C 1132.03 -0.00957951 -5.22299 0
M  V30 12135 H 1133.72 -0.283508 -2.98055 0
M  V30 12136 H 1131.27 -0.13779 -1.43339 0
M  V30 12137 H 1133.22 2.05043 -3.68151 0
M  V30 12138 H 1131.95 2.16621 -2.44424 0
M  V30 12139 H 1130.61 0.403052 -3.64378 0
M  V30 12140 H 1130.25 2.82421 -4.1623 0
M  V30 12141 H 1129.95 1.80464 -5.59202 0
M  V30 12142 H 1131.48 2.72806 -5.46269 0
M  V30 12143 H 1132.89 0.470527 -5.71366 0
M  V30 12144 H 1131.29 -0.268959 -5.99497 0
M  V30 12145 H 1132.36 -0.948297 -4.75537 0
M  V30 12146 N 1133.7 1.56767 -0.161869 0
M  V30 12147 C 1135.12 1.58412 0.194403 0
M  V30 12148 C 1135.32 1.17682 1.63564 0
M  V30 12149 O 1134.37 0.884024 2.36519 0
M  V30 12150 C 1135.69 3.00599 -0.0778438 0
M  V30 12151 C 1137.24 3.12996 -0.015307 0
M  V30 12152 C 1137.71 4.57259 -0.260418 0
M  V30 12153 N 1139.2 4.62733 -0.207863 0
M  V30 12154 C 1139.94 5.72193 -0.371821 0
M  V30 12155 N 1139.43 6.90246 -0.594318 0
M  V30 12156 N 1141.23 5.61253 -0.308384 0
M  V30 12157 H 1133.38 1.81531 -1.10274 0
M  V30 12158 H 1135.64 0.840919 -0.437675 0
M  V30 12159 H 1135.35 3.3484 -1.07587 0
M  V30 12160 H 1135.22 3.71819 0.634845 0
M  V30 12161 H 1137.61 2.78588 0.97329 0
M  V30 12162 H 1137.69 2.44232 -0.760559 0
M  V30 12163 H 1137.33 4.92375 -1.24618 0
M  V30 12164 H 1137.26 5.2417 0.505334 0
M  V30 12165 H 1139.75 3.77878 -0.0411541 0
M  V30 12166 H 1140.07 7.6954 -0.70913 0
M  V30 12167 H 1138.41 6.92131 -0.630819 0
M  V30 12168 H 1141.6 4.67905 -0.135217 0
M  V30 12169 H 1141.77 6.46507 -0.439592 0
M  V30 12170 N 1135.18 -0.111886 1.57202 0
M  V30 12171 C 1136.41 -0.836317 1.89791 0
M  V30 12172 C 1136.83 -1.72304 0.754513 0
M  V30 12173 O 1136.19 -1.78889 -0.294672 0
M  V30 12174 C 1136.24 -1.63971 3.21164 0
M  V30 12175 O 1135.34 -2.74726 3.0757 0
M  V30 12176 H 1134.68 -0.230833 0.622585 0
M  V30 12177 H 1137.21 -0.0921478 2.04392 0
M  V30 12178 H 1137.22 -2.02746 3.54059 0
M  V30 12179 H 1135.9 -0.98882 4.03974 0
M  V30 12180 H 1134.47 -2.39101 2.86156 0
M  V30 12181 N 1136.66 -1.52894 -0.382264 0
M  V30 12182 C 1137.88 -1.72453 -1.15216 0
M  V30 12183 C 1138.31 -0.444925 -1.82762 0
M  V30 12184 O 1137.67 0.599825 -1.7109 0
M  V30 12185 C 1137.71 -2.87939 -2.17079 0
M  V30 12186 O 1136.82 -2.55383 -3.23811 0
M  V30 12187 H 1136.16 -0.57324 -0.335099 0
M  V30 12188 H 1138.69 -1.99713 -0.444495 0
M  V30 12189 H 1138.7 -3.13628 -2.60963 0
M  V30 12190 H 1137.37 -3.80765 -1.67305 0
M  V30 12191 H 1135.95 -2.40457 -2.85018 0
M  V30 12192 N 1138.14 0.641106 -1.43971 0
M  V30 12193 C 1139.07 1.76489 -1.52885 0
M  V30 12194 C 1140.05 1.65742 -0.38258 0
M  V30 12195 O 1141.23 1.84653 -0.601397 0
M  V30 12196 C 1138.36 3.14977 -1.4631 0
M  V30 12197 C 1137.32 3.40502 -2.59311 0
M  V30 12198 C 1136.64 4.78916 -2.37789 0
M  V30 12199 C 1137.94 3.34048 -4.01509 0
M  V30 12200 H 1139.64 1.69286 -2.46946 0
M  V30 12201 H 1137.18 0.813015 -1.18853 0
M  V30 12202 H 1139.14 3.9336 -1.51149 0
M  V30 12203 H 1137.86 3.2294 -0.487599 0
M  V30 12204 H 1136.52 2.64495 -2.53846 0
M  V30 12205 H 1136.17 4.8357 -1.38454 0
M  V30 12206 H 1135.87 4.96954 -3.13545 0
M  V30 12207 H 1137.39 5.59541 -2.4443 0
M  V30 12208 H 1138.81 4.0235 -4.08396 0
M  V30 12209 H 1137.2 3.63622 -4.77388 0
M  V30 12210 H 1138.27 2.32022 -4.25786 0
M  V30 12211 N 1139.62 1.30703 0.880598 0
M  V30 12212 C 1140.86 1.19778 1.63277 0
M  V30 12213 C 1141.19 -0.246521 1.92931 0
M  V30 12214 O 1140.45 -1.19226 1.55189 0
M  V30 12215 C 1140.74 1.97628 2.97789 0
M  V30 12216 C 1140.41 3.47213 2.87669 0
M  V30 12217 C 1139.07 3.88004 2.84617 0
M  V30 12218 C 1141.42 4.4245 2.75477 0
M  V30 12219 C 1138.75 5.22315 2.67216 0
M  V30 12220 C 1141.1 5.76874 2.59614 0
M  V30 12221 C 1139.77 6.16898 2.54939 0
M  V30 12222 H 1139.04 0.438298 0.597475 0
M  V30 12223 H 1141.69 1.61853 1.02352 0
M  V30 12224 H 1139.99 1.48201 3.6269 0
M  V30 12225 H 1141.69 1.86563 3.54958 0
M  V30 12226 H 1138.28 3.14802 2.90857 0
M  V30 12227 H 1142.46 4.11875 2.76899 0
M  V30 12228 H 1137.72 5.52412 2.62014 0
M  V30 12229 H 1141.89 6.50304 2.49155 0
M  V30 12230 H 1139.52 7.20916 2.41214 0
M  V30 12231 N 1141.09 -1.09351 1.1349 0
M  V30 12232 C 1142.34 -1.81812 0.898452 0
M  V30 12233 C 1142.67 -1.85525 -0.573959 0
M  V30 12234 O 1141.95 -1.32403 -1.42477 0
M  V30 12235 C 1142.23 -3.27921 1.48794 0
M  V30 12236 C 1142.08 -3.32476 3.02952 0
M  V30 12237 C 1143.4 -4.24625 1.15678 0
M  V30 12238 H 1140.52 -0.660074 0.327829 0
M  V30 12239 H 1143.16 -1.28091 1.40331 0
M  V30 12240 H 1141.31 -3.738 1.05858 0
M  V30 12241 H 1142.99 -2.94994 3.54649 0
M  V30 12242 H 1141.23 -2.72037 3.37903 0
M  V30 12243 H 1141.9 -4.35409 3.39298 0
M  V30 12244 H 1144.38 -3.87036 1.52781 0
M  V30 12245 H 1143.25 -5.25194 1.59571 0
M  V30 12246 H 1143.51 -4.42044 0.0705933 0
M  V30 12247 N 1142.57 -0.928524 -1.27343 0
M  V30 12248 C 1143.82 -0.568267 -1.93946 0
M  V30 12249 C 1144.14 0.893501 -1.73325 0
M  V30 12250 O 1143.41 1.63344 -1.08147 0
M  V30 12251 H 1141.99 -0.207173 -0.717696 0
M  V30 12252 H 1144.65 -1.1811 -1.55036 0
M  V30 12253 H 1143.75 -0.775246 -3.02318 0
M  V30 12254 N 1144.05 1.41491 -0.694123 0
M  V30 12255 C 1145.27 2.06099 -0.23197 0
M  V30 12256 C 1145.7 1.51888 1.10958 0
M  V30 12257 O 1145.06 0.645247 1.69429 0
M  V30 12258 C 1145.11 3.60053 -0.198522 0
M  V30 12259 O 1144.21 4.04021 0.827067 0
M  V30 12260 H 1143.55 0.654193 -0.113699 0
M  V30 12261 H 1146.08 1.81282 -0.948575 0
M  V30 12262 H 1146.09 4.0799 -0.0288904 0
M  V30 12263 H 1144.77 3.98879 -1.17764 0
M  V30 12264 H 1143.34 3.67593 0.626908 0
M  V30 12265 N 1145.53 0.438773 1.51369 0
M  V30 12266 C 1146.44 -0.378074 2.31534 0
M  V30 12267 C 1147.45 -1.02632 1.40508 0
M  V30 12268 O 1148.63 -1.02138 1.73579 0
M  V30 12269 C 1145.69 -1.46374 3.14286 0
M  V30 12270 C 1144.76 -0.835473 4.21092 0
M  V30 12271 C 1143.99 -1.86941 4.99889 0
M  V30 12272 O 1144.21 -3.0918 4.79337 0
M  V30 12273 O 1143.15 -1.45914 5.83946 0
M  V30 12274 H 1146.97 0.276401 3.0244 0
M  V30 12275 H 1144.56 0.201281 1.48038 0
M  V30 12276 H 1146.44 -2.09335 3.65728 0
M  V30 12277 H 1145.11 -2.10227 2.46143 0
M  V30 12278 H 1144.02 -0.167775 3.73724 0
M  V30 12279 H 1145.35 -0.240406 4.91613 0
M  V30 12280 N 1147.01 -1.56678 0.170181 0
M  V30 12281 C 1147.95 -2.17909 -0.760556 0
M  V30 12282 C 1148.92 -1.11875 -1.22773 0
M  V30 12283 O 1150.11 -1.40021 -1.2961 0
M  V30 12284 C 1147.25 -2.82305 -1.9849 0
M  V30 12285 C 1146.36 -4.02796 -1.5614 0
M  V30 12286 C 1145.5 -4.55121 -2.73932 0
M  V30 12287 C 1144.53 -5.68025 -2.28067 0
M  V30 12288 N 1143.67 -6.14865 -3.38947 0
M  V30 12289 H 1148.51 -2.97098 -0.231629 0
M  V30 12290 H 1146.05 -1.46742 -0.102602 0
M  V30 12291 H 1148.01 -3.17797 -2.70298 0
M  V30 12292 H 1146.64 -2.05721 -2.48755 0
M  V30 12293 H 1145.69 -3.73131 -0.740097 0
M  V30 12294 H 1147 -4.84526 -1.18472 0
M  V30 12295 H 1146.15 -4.92789 -3.53898 0
M  V30 12296 H 1144.89 -3.72445 -3.14858 0
M  V30 12297 H 1143.9 -5.2991 -1.46546 0
M  V30 12298 H 1145.12 -6.52501 -1.88199 0
M  V30 12299 H 1143.07 -5.35119 -3.79452 0
M  V30 12300 H 1142.99 -6.91582 -3.05369 0
M  V30 12301 H 1144.25 -6.57183 -4.19203 0
M  V30 12302 N 1148.48 0.103547 -1.57259 0
M  V30 12303 C 1149.73 0.809774 -1.85931 0
M  V30 12304 C 1150.06 1.78791 -0.758122 0
M  V30 12305 O 1149.34 1.93079 0.234682 0
M  V30 12306 C 1149.62 1.54601 -3.25224 0
M  V30 12307 C 1149.47 0.586439 -4.45961 0
M  V30 12308 C 1150.79 2.4986 -3.62296 0
M  V30 12309 H 1147.91 0.29293 -0.676285 0
M  V30 12310 H 1150.55 0.0736065 -1.89857 0
M  V30 12311 H 1148.7 2.17355 -3.22008 0
M  V30 12312 H 1150.38 -0.0334441 -4.61288 0
M  V30 12313 H 1148.62 -0.10085 -4.33683 0
M  V30 12314 H 1149.29 1.13855 -5.40131 0
M  V30 12315 H 1151.77 1.97203 -3.66402 0
M  V30 12316 H 1150.64 2.98396 -4.60707 0
M  V30 12317 H 1150.9 3.33233 -2.90531 0
M  V30 12318 N 1149.96 1.53094 0.37415 0
M  V30 12319 C 1151.19 1.73061 1.143 0
M  V30 12320 C 1151.61 0.454611 1.82524 0
M  V30 12321 O 1150.97 -0.590743 1.71406 0
M  V30 12322 C 1151.02 2.89086 2.15549 0
M  V30 12323 O 1150.12 2.57096 3.22452 0
M  V30 12324 H 1149.46 0.575009 0.332055 0
M  V30 12325 H 1151.99 1.99946 0.433897 0
M  V30 12326 H 1152 3.15007 2.59296 0
M  V30 12327 H 1150.68 3.81647 1.65283 0
M  V30 12328 H 1149.25 2.41965 2.83738 0
M  V30 12329 N 1151.44 -0.633461 1.44309 0
M  V30 12330 C 1152.72 -1.3917 1.37444 0
M  V30 12331 C 1153.1 -2.11076 0.0319994 0
M  V30 12332 O 1152.44 -2.06164 -0.98533 0
M  V30 12333 C 1152.65 -2.36005 2.57104 0
M  V30 12334 C 1154 -2.99407 3.01065 0
M  V30 12335 O 1155.03 -2.46331 2.57292 0
M  V30 12336 O 1153.89 -3.95686 3.76954 0
M  V30 12337 H 1150.98 -0.622746 0.544166 0
M  V30 12338 H 1153.53 -0.658712 1.56394 0
M  V30 12339 H 1152.3 -1.81955 3.46422 0
M  V30 12340 H 1151.92 -3.16725 2.40356 0
M  V30 12341 N 1152.92 -1.31168 -0.873655 0
M  V30 12342 C 1154.33 -1.09745 -1.1588 0
M  V30 12343 C 1154.53 0.134471 -2.01051 0
M  V30 12344 O 1153.59 0.824857 -2.38647 0
M  V30 12345 C 1154.9 -2.36704 -1.85451 0
M  V30 12346 C 1156.45 -2.42278 -1.98167 0
M  V30 12347 C 1156.93 -3.69108 -2.71152 0
M  V30 12348 N 1158.42 -3.69981 -2.7869 0
M  V30 12349 C 1159.15 -4.64811 -3.35765 0
M  V30 12350 N 1158.65 -5.69995 -3.938 0
M  V30 12351 N 1160.44 -4.52337 -3.33688 0
M  V30 12352 H 1152.59 -2.10184 -0.306021 0
M  V30 12353 H 1154.86 -0.927058 -0.198159 0
M  V30 12354 H 1154.56 -3.26666 -1.30316 0
M  V30 12355 H 1154.44 -2.46219 -2.85755 0
M  V30 12356 H 1156.82 -1.52787 -2.52468 0
M  V30 12357 H 1156.9 -2.3673 -0.969164 0
M  V30 12358 H 1156.55 -4.58963 -2.1752 0
M  V30 12359 H 1156.48 -3.71922 -3.72803 0
M  V30 12360 H 1158.97 -2.93944 -2.37498 0
M  V30 12361 H 1159.28 -6.38438 -4.3545 0
M  V30 12362 H 1157.63 -5.73773 -3.92186 0
M  V30 12363 H 1160.82 -3.69341 -2.87584 0
M  V30 12364 H 1160.99 -5.2642 -3.77871 0
M  V30 12365 N 1154.4 1.08748 -1.14068 0
M  V30 12366 C 1155.34 2.15573 -0.824425 0
M  V30 12367 C 1156.31 1.64683 0.216522 0
M  V30 12368 O 1157.5 1.90601 0.0872193 0
M  V30 12369 C 1154.64 3.43756 -0.30423 0
M  V30 12370 C 1153.75 4.08512 -1.40506 0
M  V30 12371 C 1152.89 5.24477 -0.842479 0
M  V30 12372 C 1151.93 5.81167 -1.92123 0
M  V30 12373 N 1151.06 6.88483 -1.37608 0
M  V30 12374 H 1155.9 2.41968 -1.73941 0
M  V30 12375 H 1153.44 1.18751 -0.868143 0
M  V30 12376 H 1155.4 4.17197 0.0155546 0
M  V30 12377 H 1154.03 3.17658 0.573868 0
M  V30 12378 H 1153.08 3.32866 -1.84131 0
M  V30 12379 H 1154.39 4.46669 -2.2201 0
M  V30 12380 H 1153.55 6.04842 -0.474389 0
M  V30 12381 H 1152.28 4.877 0.00355212 0
M  V30 12382 H 1151.29 4.99458 -2.29831 0
M  V30 12383 H 1152.51 6.20003 -2.77079 0
M  V30 12384 H 1150.46 6.53672 -0.552168 0
M  V30 12385 H 1150.38 7.25446 -2.12752 0
M  V30 12386 H 1151.65 7.72588 -1.03578 0
M  V30 12387 N 1155.87 0.935264 1.26849 0
M  V30 12388 C 1157.12 0.57969 1.94025 0
M  V30 12389 C 1157.45 -0.880295 1.73439 0
M  V30 12390 O 1156.7 -1.64429 1.0612 0
M  V30 12391 C 1157 0.861098 3.46872 0
M  V30 12392 C 1156.67 2.30402 3.87589 0
M  V30 12393 C 1155.33 2.69848 3.98417 0
M  V30 12394 C 1157.68 3.242 4.08098 0
M  V30 12395 C 1155.01 4.02199 4.27145 0
M  V30 12396 C 1157.36 4.56141 4.38313 0
M  V30 12397 C 1156.03 4.9541 4.47354 0
M  V30 12398 H 1155.3 0.212123 0.709989 0
M  V30 12399 H 1157.94 1.18066 1.50774 0
M  V30 12400 H 1156.25 0.177534 3.91398 0
M  V30 12401 H 1157.95 0.564841 3.97002 0
M  V30 12402 H 1154.54 1.98803 3.79704 0
M  V30 12403 H 1158.72 2.94924 3.99166 0
M  V30 12404 H 1153.98 4.32295 4.32355 0
M  V30 12405 H 1158.15 5.28818 4.53128 0
M  V30 12406 H 1155.78 5.97994 4.69368 0
M  V30 12407 N 1157.35 -1.41121 0.701616 0
M  V30 12408 C 1158.28 -2.33436 0.0545974 0
M  V30 12409 C 1159.26 -1.52144 -0.760662 0
M  V30 12410 O 1160.45 -1.80661 -0.712414 0
M  V30 12411 C 1157.58 -3.36015 -0.878117 0
M  V30 12412 C 1156.53 -4.27664 -0.169511 0
M  V30 12413 C 1155.86 -5.20666 -1.21699 0
M  V30 12414 C 1157.16 -5.13254 0.967859 0
M  V30 12415 H 1158.85 -2.87791 0.825637 0
M  V30 12416 H 1156.4 -1.38377 0.398484 0
M  V30 12417 H 1158.35 -3.99526 -1.34004 0
M  V30 12418 H 1157.08 -2.80024 -1.68089 0
M  V30 12419 H 1155.73 -3.65586 0.272441 0
M  V30 12420 H 1155.38 -4.60987 -2.01246 0
M  V30 12421 H 1155.08 -5.82822 -0.747836 0
M  V30 12422 H 1156.61 -5.87053 -1.6793 0
M  V30 12423 H 1158.02 -5.70298 0.585944 0
M  V30 12424 H 1156.42 -5.84381 1.3645 0
M  V30 12425 H 1157.49 -4.5006 1.80483 0
M  V30 12426 N 1158.83 -0.446794 -1.51134 0
M  V30 12427 C 1160.06 0.114893 -2.06581 0
M  V30 12428 C 1160.47 1.35642 -1.31327 0
M  V30 12429 O 1159.83 1.78595 -0.375506 0
M  V30 12430 C 1159.88 0.427589 -3.58962 0
M  V30 12431 O 1159.6 -0.764669 -4.31375 0
M  V30 12432 C 1161.1 1.03891 -4.30954 0
M  V30 12433 H 1158.32 0.00373031 -0.67099 0
M  V30 12434 H 1160.87 -0.628596 -1.94599 0
M  V30 12435 H 1159.02 1.12099 -3.70827 0
M  V30 12436 H 1159.44 -0.494605 -5.22163 0
M  V30 12437 H 1160.91 1.20764 -5.38628 0
M  V30 12438 H 1161.39 2.02252 -3.8986 0
M  V30 12439 H 1161.99 0.384623 -4.23557 0
M  V30 12440 N 1160.31 1.56586 -0.178487 0
M  V30 12441 C 1161.72 1.83633 0.337009 0
M  V30 12442 C 1162.07 1.09857 1.6256 0
M  V30 12443 O 1161.2 0.353933 2.13486 0
M  V30 12444 C 1161.79 3.33112 0.618225 0
M  V30 12445 C 1160.35 3.60629 1.07814 0
M  V30 12446 C 1159.5 2.7705 0.117825 0
M  V30 12447 H 1162.45 1.53508 -0.402612 0
M  V30 12448 H 1162.47 3.5098 1.46947 0
M  V30 12449 H 1161.98 3.8678 -0.319808 0
M  V30 12450 H 1160.08 3.12378 2.03103 0
M  V30 12451 H 1160.19 4.68921 0.982339 0
M  V30 12452 H 1158.56 2.47125 0.616563 0
M  V30 12453 H 1159.34 3.33501 -0.814356 0
M  V30 12454 N 1161.79 -0.095206 1.57312 0
M  V30 12455 C 1162.7 -1.13388 2.05379 0
M  V30 12456 C 1163.71 -1.43868 0.978668 0
M  V30 12457 O 1164.89 -1.54512 1.29182 0
M  V30 12458 C 1161.95 -2.43444 2.46852 0
M  V30 12459 C 1161.01 -2.20146 3.68557 0
M  V30 12460 C 1160.25 -3.44001 4.08043 0
M  V30 12461 O 1160.47 -4.52233 3.47623 0
M  V30 12462 O 1159.4 -3.33596 5.00997 0
M  V30 12463 H 1163.23 -0.755622 2.9415 0
M  V30 12464 H 1160.82 -0.307707 1.46197 0
M  V30 12465 H 1162.7 -3.20027 2.74155 0
M  V30 12466 H 1161.37 -2.80696 1.61219 0
M  V30 12467 H 1160.28 -1.41345 3.46371 0
M  V30 12468 H 1161.61 -1.87787 4.54969 0
M  V30 12469 N 1163.26 -1.53291 -0.366026 0
M  V30 12470 C 1164.54 -1.60055 -1.12436 0
M  V30 12471 C 1164.92 -0.407811 -2.07123 0
M  V30 12472 O 1164.27 0.601977 -2.20428 0
M  V30 12473 C 1164.48 -2.95062 -1.86385 0
M  V30 12474 C 1165.83 -3.49623 -2.40934 0
M  V30 12475 O 1166.85 -2.97088 -1.96512 0
M  V30 12476 O 1165.71 -4.41461 -3.2214 0
M  V30 12477 H 1162.8 -0.646476 -0.51575 0
M  V30 12478 H 1165.35 -1.65632 -0.369326 0
M  V30 12479 H 1164.12 -3.73312 -1.17277 0
M  V30 12480 H 1163.75 -2.92973 -2.68798 0
M  V30 12481 N 1164.74 0.6258 -1.44643 0
M  V30 12482 C 1165.65 1.76611 -1.5442 0
M  V30 12483 C 1166.67 1.68614 -0.429576 0
M  V30 12484 O 1167.84 1.89296 -0.687686 0
M  V30 12485 C 1164.91 3.13015 -1.49071 0
M  V30 12486 C 1163.97 3.32604 -2.71428 0
M  V30 12487 C 1163.2 4.62501 -2.66325 0
M  V30 12488 O 1163.43 5.43651 -1.72626 0
M  V30 12489 O 1162.36 4.84408 -3.57258 0
M  V30 12490 H 1166.19 1.71315 -2.50769 0
M  V30 12491 H 1163.77 0.787677 -1.26949 0
M  V30 12492 H 1165.65 3.94318 -1.48631 0
M  V30 12493 H 1164.33 3.18842 -0.558686 0
M  V30 12494 H 1163.24 2.50959 -2.77435 0
M  V30 12495 H 1164.57 3.31642 -3.63695 0
M  V30 12496 N 1166.22 1.31629 0.866686 0
M  V30 12497 C 1167.18 1.1951 1.95576 0
M  V30 12498 C 1168.18 0.121319 1.60342 0
M  V30 12499 O 1169.37 0.370832 1.70207 0
M  V30 12500 C 1166.51 0.835201 3.30511 0
M  V30 12501 H 1167.7 2.16285 2.07752 0
M  V30 12502 H 1165.25 1.15288 1.05539 0
M  V30 12503 H 1165.99 -0.131245 3.24034 0
M  V30 12504 H 1165.77 1.61142 3.57457 0
M  V30 12505 H 1167.26 0.774393 4.10357 0
M  V30 12506 N 1167.7 -1.08142 1.14644 0
M  V30 12507 C 1168.92 -1.84857 0.940349 0
M  V30 12508 C 1169.35 -1.81163 -0.506117 0
M  V30 12509 O 1168.71 -1.19869 -1.36019 0
M  V30 12510 C 1168.76 -3.30198 1.4492 0
M  V30 12511 O 1167.86 -4.07355 0.64308 0
M  V30 12512 H 1167.2 -0.572711 0.336003 0
M  V30 12513 H 1169.73 -1.36475 1.52432 0
M  V30 12514 H 1169.74 -3.81039 1.45854 0
M  V30 12515 H 1168.42 -3.32202 2.50229 0
M  V30 12516 H 1166.99 -3.66219 0.702698 0
M  V30 12517 N 1169.18 -0.941978 -1.26351 0
M  V30 12518 C 1170.42 -0.590845 -1.94002 0
M  V30 12519 C 1170.76 0.868004 -1.73722 0
M  V30 12520 O 1170.03 1.62111 -1.07472 0
M  V30 12521 C 1170.31 -0.934901 -3.47752 0
M  V30 12522 C 1170.17 -2.44855 -3.77314 0
M  V30 12523 C 1171.49 -0.450888 -4.37784 0
M  V30 12524 H 1168.61 -0.21613 -0.704597 0
M  V30 12525 H 1171.25 -1.17634 -1.49205 0
M  V30 12526 H 1169.4 -0.436648 -3.86038 0
M  V30 12527 H 1171.07 -3.01959 -3.48738 0
M  V30 12528 H 1169.31 -2.89169 -3.23363 0
M  V30 12529 H 1169.98 -2.6398 -4.84787 0
M  V30 12530 H 1172.46 -0.878107 -4.06729 0
M  V30 12531 H 1171.34 -0.720439 -5.44152 0
M  V30 12532 H 1171.6 0.649162 -4.37308 0
M  V30 12533 N 1170.66 1.40747 -0.709091 0
M  V30 12534 C 1171.9 2.01003 -0.24581 0
M  V30 12535 C 1172.23 1.56203 1.15891 0
M  V30 12536 O 1171.49 0.770166 1.79908 0
M  V30 12537 C 1171.78 3.56404 -0.266685 0
M  V30 12538 C 1171.45 4.20762 -1.6208 0
M  V30 12539 C 1170.11 4.38056 -1.99148 0
M  V30 12540 C 1172.46 4.56723 -2.51105 0
M  V30 12541 C 1169.79 4.88591 -3.248 0
M  V30 12542 C 1172.14 5.08654 -3.76103 0
M  V30 12543 C 1170.81 5.24158 -4.13297 0
M  V30 12544 H 1170.08 0.73552 -0.0899481 0
M  V30 12545 H 1172.73 1.68451 -0.910844 0
M  V30 12546 H 1171.03 3.88825 0.481915 0
M  V30 12547 H 1172.73 4.0085 0.109509 0
M  V30 12548 H 1169.32 4.07685 -1.32252 0
M  V30 12549 H 1173.5 4.43004 -2.23744 0
M  V30 12550 H 1168.76 4.98779 -3.53595 0
M  V30 12551 H 1172.93 5.35457 -4.45262 0
M  V30 12552 H 1170.56 5.63079 -5.10731 0
M  V30 12553 N 1172.13 0.454803 1.50895 0
M  V30 12554 C 1173.36 -0.103936 2.06639 0
M  V30 12555 C 1173.78 -1.34943 1.32044 0
M  V30 12556 O 1173.13 -1.78393 0.384972 0
M  V30 12557 C 1173.18 -0.408546 3.59184 0
M  V30 12558 O 1172.91 0.787535 4.30963 0
M  V30 12559 C 1174.41 -1.01605 4.31499 0
M  V30 12560 H 1171.63 -0.000171839 0.671 0
M  V30 12561 H 1174.17 0.638907 1.94263 0
M  V30 12562 H 1172.33 -1.1013 3.71416 0
M  V30 12563 H 1172.74 0.52229 5.21893 0
M  V30 12564 H 1174.21 -1.17906 5.39261 0
M  V30 12565 H 1174.69 -2.00182 3.90927 0
M  V30 12566 H 1175.3 -0.362155 4.23755 0
M  V30 12567 N 1173.61 -1.56489 0.186789 0
M  V30 12568 C 1174.54 -2.21705 -0.732739 0
M  V30 12569 C 1175.52 -1.17751 -1.22755 0
M  V30 12570 O 1176.71 -1.46231 -1.27789 0
M  V30 12571 C 1173.84 -2.86992 -1.95584 0
M  V30 12572 C 1172.79 -3.97118 -1.59628 0
M  V30 12573 C 1172.12 -4.49529 -2.89531 0
M  V30 12574 C 1173.42 -5.15941 -0.812518 0
M  V30 12575 H 1175.11 -2.98802 -0.189094 0
M  V30 12576 H 1172.66 -1.43722 -0.0895099 0
M  V30 12577 H 1174.61 -3.31295 -2.60426 0
M  V30 12578 H 1173.33 -2.07287 -2.52388 0
M  V30 12579 H 1171.99 -3.53494 -0.971475 0
M  V30 12580 H 1171.64 -3.66596 -3.44407 0
M  V30 12581 H 1171.34 -5.23832 -2.66221 0
M  V30 12582 H 1172.87 -4.96528 -3.55376 0
M  V30 12583 H 1174.28 -5.56841 -1.36386 0
M  V30 12584 H 1172.68 -5.96259 -0.677862 0
M  V30 12585 H 1173.75 -4.84535 0.188095 0
M  V30 12586 N 1175.09 0.086862 -1.5736 0
M  V30 12587 C 1176.37 0.820984 -1.77537 0
M  V30 12588 C 1176.75 1.96534 -0.770554 0
M  V30 12589 O 1176.09 2.27629 0.199334 0
M  V30 12590 C 1176.3 1.30793 -3.23565 0
M  V30 12591 C 1177.65 1.7474 -3.86977 0
M  V30 12592 O 1178.68 1.40396 -3.27364 0
M  V30 12593 O 1177.54 2.38271 -4.91822 0
M  V30 12594 H 1174.63 0.392228 -0.72807 0
M  V30 12595 H 1177.18 0.0681051 -1.69563 0
M  V30 12596 H 1175.95 0.488409 -3.8824 0
M  V30 12597 H 1175.57 2.12258 -3.36203 0
M  V30 12598 N 1176.57 1.53483 0.357892 0
M  V30 12599 C 1177.98 1.43426 0.700073 0
M  V30 12600 C 1178.18 0.579493 1.92987 0
M  V30 12601 O 1177.24 0.0649086 2.52417 0
M  V30 12602 C 1178.55 2.86723 0.906099 0
M  V30 12603 C 1180.1 2.96405 1.00563 0
M  V30 12604 C 1180.58 4.4078 1.24407 0
M  V30 12605 N 1182.07 4.44243 1.3116 0
M  V30 12606 C 1182.8 5.53069 1.51333 0
M  V30 12607 N 1182.3 6.71928 1.68774 0
M  V30 12608 N 1184.09 5.40659 1.53765 0
M  V30 12609 H 1176.24 2.07559 -0.450894 0
M  V30 12610 H 1178.5 0.937649 -0.139711 0
M  V30 12611 H 1178.21 3.51622 0.0741579 0
M  V30 12612 H 1178.08 3.30827 1.81199 0
M  V30 12613 H 1180.47 2.31656 1.8281 0
M  V30 12614 H 1180.55 2.55684 0.0769512 0
M  V30 12615 H 1180.2 5.06105 0.426575 0
M  V30 12616 H 1180.13 4.7908 2.18608 0
M  V30 12617 H 1182.62 3.58587 1.19265 0
M  V30 12618 H 1182.93 7.50634 1.83762 0
M  V30 12619 H 1181.28 6.749 1.65937 0
M  V30 12620 H 1184.47 4.46764 1.39713 0
M  V30 12621 H 1184.64 6.25535 1.69146 0
M  V30 12622 N 1178.05 -0.61812 1.44973 0
M  V30 12623 C 1179.29 -1.3774 1.48439 0
M  V30 12624 C 1179.62 -1.94117 0.121999 0
M  V30 12625 O 1178.88 -1.749 -0.877974 0
M  V30 12626 C 1179.17 -2.55143 2.50274 0
M  V30 12627 C 1178.84 -2.16976 3.95262 0
M  V30 12628 C 1177.5 -2.06281 4.34743 0
M  V30 12629 C 1179.85 -1.8703 4.86486 0
M  V30 12630 C 1177.18 -1.63846 5.63357 0
M  V30 12631 C 1179.53 -1.46085 6.15501 0
M  V30 12632 C 1178.2 -1.3394 6.53924 0
M  V30 12633 H 1177.47 -0.504026 0.543175 0
M  V30 12634 H 1180.12 -0.699685 1.7826 0
M  V30 12635 H 1178.42 -3.28205 2.13983 0
M  V30 12636 H 1180.12 -3.13373 2.50197 0
M  V30 12637 H 1176.71 -2.26223 3.64034 0
M  V30 12638 H 1180.89 -1.94196 4.56729 0
M  V30 12639 H 1176.15 -1.53058 5.91932 0
M  V30 12640 H 1180.32 -1.21956 6.85638 0
M  V30 12641 H 1177.95 -1.00832 7.53483 0
M  V30 12642 N 1179.52 -1.32087 -0.859693 0
M  V30 12643 C 1180.93 -1.20107 -1.42938 0
M  V30 12644 C 1181.29 0.188411 -1.95293 0
M  V30 12645 O 1180.41 1.08683 -1.87128 0
M  V30 12646 C 1181.01 -2.17436 -2.59821 0
M  V30 12647 C 1179.56 -2.09359 -3.12803 0
M  V30 12648 C 1178.71 -2.06086 -1.85537 0
M  V30 12649 H 1181.66 -1.43989 -0.667302 0
M  V30 12650 H 1181.68 -1.76996 -3.36828 0
M  V30 12651 H 1181.2 -3.18555 -2.21685 0
M  V30 12652 H 1179.3 -1.1147 -3.55535 0
M  V30 12653 H 1179.41 -2.98947 -3.74389 0
M  V30 12654 H 1177.77 -1.51251 -2.04928 0
M  V30 12655 H 1178.56 -3.08978 -1.49625 0
M  V30 12656 N 1181 1.07532 -1.15215 0
M  V30 12657 C 1181.93 2.1668 -0.870171 0
M  V30 12658 C 1182.91 1.69161 0.178483 0
M  V30 12659 O 1184.1 1.94172 0.0332489 0
M  V30 12660 C 1181.23 3.45464 -0.356666 0
M  V30 12661 C 1180.18 4.06424 -1.34179 0
M  V30 12662 C 1179.51 5.30266 -0.687206 0
M  V30 12663 C 1180.81 4.46666 -2.70715 0
M  V30 12664 H 1182.5 2.40526 -1.7829 0
M  V30 12665 H 1180.05 1.15598 -0.858665 0
M  V30 12666 H 1182 4.21144 -0.146947 0
M  V30 12667 H 1180.72 3.21199 0.591527 0
M  V30 12668 H 1179.38 3.32786 -1.53783 0
M  V30 12669 H 1179.03 5.0229 0.267077 0
M  V30 12670 H 1178.73 5.72009 -1.34462 0
M  V30 12671 H 1180.26 6.08653 -0.487218 0
M  V30 12672 H 1181.67 5.13483 -2.54966 0
M  V30 12673 H 1180.07 4.99355 -3.32813 0
M  V30 12674 H 1181.14 3.58123 -3.26919 0
M  V30 12675 N 1182.48 0.948665 1.2585 0
M  V30 12676 C 1183.73 0.610669 1.94016 0
M  V30 12677 C 1184.08 -0.842181 1.72989 0
M  V30 12678 O 1183.37 -1.59556 1.06078 0
M  V30 12679 C 1183.57 0.89784 3.45939 0
M  V30 12680 C 1183.4 2.37705 3.81741 0
M  V30 12681 C 1182.17 3.03355 4.04109 0
M  V30 12682 C 1184.37 3.35602 3.89712 0
M  V30 12683 N 1182.35 4.41211 4.26856 0
M  V30 12684 C 1183.72 4.58743 4.17079 0
M  V30 12685 C 1185.77 3.30523 3.72369 0
M  V30 12686 C 1184.48 5.77436 4.28906 0
M  V30 12687 C 1186.5 4.48548 3.85433 0
M  V30 12688 C 1185.86 5.70474 4.13205 0
M  V30 12689 H 1181.96 0.273966 0.732439 0
M  V30 12690 H 1184.55 1.21961 1.51768 0
M  V30 12691 H 1182.72 0.317878 3.87097 0
M  V30 12692 H 1184.45 0.520353 4.01341 0
M  V30 12693 H 1181.21 2.53947 3.9976 0
M  V30 12694 H 1181.63 5.12589 4.42247 0
M  V30 12695 H 1186.27 2.3731 3.4992 0
M  V30 12696 H 1183.99 6.71095 4.50174 0
M  V30 12697 H 1187.58 4.46159 3.73408 0
M  V30 12698 H 1186.46 6.60277 4.23088 0
M  V30 12699 N 1183.96 -1.40369 0.716545 0
M  V30 12700 C 1185.19 -2.04884 0.265757 0
M  V30 12701 C 1185.6 -1.54095 -1.09779 0
M  V30 12702 O 1184.94 -0.692944 -1.70129 0
M  V30 12703 C 1185 -3.59103 0.16887 0
M  V30 12704 C 1184.67 -4.32785 1.46786 0
M  V30 12705 C 1185.66 -4.6067 2.40997 0
M  V30 12706 C 1183.35 -4.71676 1.72705 0
M  V30 12707 C 1185.34 -5.26432 3.59372 0
M  V30 12708 C 1183.03 -5.3717 2.91362 0
M  V30 12709 C 1184.03 -5.64478 3.84517 0
M  V30 12710 O 1183.71 -6.28618 5.01093 0
M  V30 12711 H 1183.45 -0.665794 0.117025 0
M  V30 12712 H 1186 -1.80746 0.975698 0
M  V30 12713 H 1184.23 -3.82064 -0.597023 0
M  V30 12714 H 1185.92 -4.05145 -0.247483 0
M  V30 12715 H 1186.69 -4.31087 2.22236 0
M  V30 12716 H 1182.56 -4.49789 1.0105 0
M  V30 12717 H 1186.11 -5.47663 4.321 0
M  V30 12718 H 1182.01 -5.66173 3.1003 0
M  V30 12719 H 1182.77 -6.47115 5.01183 0
M  V30 12720 N 1185.44 -0.462799 -1.50652 0
M  V30 12721 C 1186.85 -0.11648 -1.59174 0
M  V30 12722 C 1187.05 1.37638 -1.47167 0
M  V30 12723 O 1186.11 2.14886 -1.3259 0
M  V30 12724 C 1187.42 -0.659289 -2.93383 0
M  V30 12725 C 1188.97 -0.62198 -3.06758 0
M  V30 12726 C 1189.44 -1.14219 -4.43529 0
M  V30 12727 N 1190.94 -1.10125 -4.49919 0
M  V30 12728 C 1191.67 -1.47436 -5.54121 0
M  V30 12729 N 1191.17 -1.92156 -6.65618 0
M  V30 12730 N 1192.96 -1.39091 -5.44619 0
M  V30 12731 H 1185.11 -1.43383 -1.56701 0
M  V30 12732 H 1187.37 -0.592438 -0.740082 0
M  V30 12733 H 1187.08 -1.70477 -3.07621 0
M  V30 12734 H 1186.95 -0.0982388 -3.77072 0
M  V30 12735 H 1189.34 0.414576 -2.92173 0
M  V30 12736 H 1189.42 -1.21974 -2.24847 0
M  V30 12737 H 1189.07 -2.17734 -4.58862 0
M  V30 12738 H 1189 -0.52073 -5.24019 0
M  V30 12739 H 1191.49 -0.773154 -3.69906 0
M  V30 12740 H 1191.8 -2.18796 -7.4118 0
M  V30 12741 H 1190.14 -1.96103 -6.6676 0
M  V30 12742 H 1193.34 -1.04001 -4.564 0
M  V30 12743 H 1193.51 -1.68496 -6.2571 0
M  V30 12744 N 1186.91 1.56388 -0.195085 0
M  V30 12745 C 1187.85 2.16316 0.757643 0
M  V30 12746 C 1188.86 1.12498 1.17678 0
M  V30 12747 O 1190.05 1.39591 1.11251 0
M  V30 12748 C 1187.15 2.7104 2.03447 0
M  V30 12749 C 1186.32 3.99759 1.77514 0
M  V30 12750 C 1185.38 4.3931 2.89644 0
M  V30 12751 O 1184.41 5.06732 2.59252 0
M  V30 12752 N 1185.61 4.02813 4.17998 0
M  V30 12753 H 1188.37 2.98696 0.24517 0
M  V30 12754 H 1185.93 1.61895 -0.0131194 0
M  V30 12755 H 1187.93 2.94483 2.776 0
M  V30 12756 H 1186.5 1.93114 2.45817 0
M  V30 12757 H 1185.72 3.84448 0.8714 0
M  V30 12758 H 1187 4.83782 1.57585 0
M  V30 12759 H 1186.4 3.4858 4.45543 0
M  V30 12760 H 1184.96 4.31206 4.88779 0
M  V30 12761 N 1188.39 -0.0785156 1.57404 0
M  V30 12762 C 1189.36 -1.07835 2.02248 0
M  V30 12763 C 1190.36 -1.31987 0.918475 0
M  V30 12764 O 1191.55 -1.27821 1.18353 0
M  V30 12765 C 1188.68 -2.42361 2.39737 0
M  V30 12766 H 1189.87 -0.691995 2.91807 0
M  V30 12767 H 1187.42 -0.32405 1.52904 0
M  V30 12768 H 1188.16 -2.85841 1.53183 0
M  V30 12769 H 1187.94 -2.26174 3.20293 0
M  V30 12770 H 1189.43 -3.14241 2.75031 0
M  V30 12771 N 1189.87 -1.5367 -0.349747 0
M  V30 12772 C 1191.1 -1.74858 -1.11532 0
M  V30 12773 C 1191.52 -0.483591 -1.81777 0
M  V30 12774 O 1190.88 0.563399 -1.72324 0
M  V30 12775 C 1190.93 -2.92479 -2.10923 0
M  V30 12776 O 1190.03 -2.62194 -3.18321 0
M  V30 12777 H 1189.37 -0.580219 -0.322865 0
M  V30 12778 H 1191.9 -2.00611 -0.402033 0
M  V30 12779 H 1191.91 -3.19093 -2.54252 0
M  V30 12780 H 1190.59 -3.84228 -1.59191 0
M  V30 12781 H 1189.16 -2.46448 -2.79853 0
M  V30 12782 N 1191.35 0.610423 -1.45298 0
M  V30 12783 C 1192.26 1.74964 -1.56285 0
M  V30 12784 C 1193.27 1.68149 -0.447436 0
M  V30 12785 O 1194.45 1.88556 -0.707725 0
M  V30 12786 C 1191.52 3.11417 -1.52383 0
M  V30 12787 C 1190.58 3.29707 -2.7494 0
M  V30 12788 C 1189.81 4.5965 -2.71215 0
M  V30 12789 O 1190.03 5.41789 -1.78383 0
M  V30 12790 O 1188.97 4.80591 -3.62375 0
M  V30 12791 H 1192.79 1.68646 -2.52571 0
M  V30 12792 H 1190.38 0.774168 -1.27777 0
M  V30 12793 H 1192.26 3.9272 -1.52805 0
M  V30 12794 H 1190.93 3.18232 -0.592472 0
M  V30 12795 H 1189.84 2.48003 -2.80081 0
M  V30 12796 H 1191.17 3.27766 -3.67192 0
M  V30 12797 N 1192.83 1.32541 0.852676 0
M  V30 12798 C 1193.78 1.18224 1.94954 0
M  V30 12799 C 1194.76 0.0886514 1.60656 0
M  V30 12800 O 1195.95 0.315359 1.74168 0
M  V30 12801 C 1193.08 0.909484 3.31034 0
M  V30 12802 C 1192.17 2.04486 3.71546 0
M  V30 12803 N 1192.56 3.29362 3.83868 0
M  V30 12804 C 1190.86 1.94848 4.01186 0
M  V30 12805 C 1191.56 4.0374 4.18771 0
M  V30 12806 N 1190.53 3.32054 4.30396 0
M  V30 12807 H 1194.34 2.12893 2.02617 0
M  V30 12808 H 1191.85 1.24349 1.04456 0
M  V30 12809 H 1193.85 0.787865 4.09388 0
M  V30 12810 H 1192.51 -0.0288163 3.24687 0
M  V30 12811 H 1193.52 3.64274 3.68137 0
M  V30 12812 H 1190.19 1.08591 4.0313 0
M  V30 12813 H 1191.58 5.11434 4.35757 0
M  V30 12814 N 1194.3 -1.0692 1.15784 0
M  V30 12815 C 1195.72 -1.61069 0.944123 0
M  V30 12816 C 1196.07 -1.8936 -0.513522 0
M  V30 12817 O 1195.19 -1.66232 -1.38549 0
M  V30 12818 C 1195.79 -2.9263 1.70743 0
M  V30 12819 C 1194.35 -3.43505 1.53887 0
M  V30 12820 C 1193.49 -2.17495 1.72021 0
M  V30 12821 H 1196.44 -0.89951 1.30746 0
M  V30 12822 H 1196.46 -3.61757 1.17951 0
M  V30 12823 H 1195.98 -2.72007 2.76828 0
M  V30 12824 H 1194.08 -3.69201 0.502153 0
M  V30 12825 H 1194.19 -4.19254 2.31868 0
M  V30 12826 H 1192.55 -2.27407 1.1471 0
M  V30 12827 H 1193.34 -1.99362 2.79481 0
M  V30 12828 N 1195.78 -0.955326 -1.25345 0
M  V30 12829 C 1196.75 -0.480564 -2.24105 0
M  V30 12830 C 1197.75 0.416123 -1.55322 0
M  V30 12831 O 1198.94 0.213315 -1.72889 0
M  V30 12832 C 1196.07 0.305589 -3.39528 0
M  V30 12833 H 1197.26 -1.35349 -2.6762 0
M  V30 12834 H 1194.81 -0.738673 -1.37744 0
M  V30 12835 H 1195.55 1.19615 -3.01434 0
M  V30 12836 H 1195.33 -0.337719 -3.90643 0
M  V30 12837 H 1196.82 0.627201 -4.12863 0
M  V30 12838 N 1197.26 1.39987 -0.723979 0
M  V30 12839 C 1198.51 2.00334 -0.266587 0
M  V30 12840 C 1198.83 1.57714 1.14679 0
M  V30 12841 O 1198.1 0.82037 1.77895 0
M  V30 12842 H 1196.68 0.740861 -0.095573 0
M  V30 12843 H 1199.34 1.712 -0.931481 0
M  V30 12844 H 1198.44 3.10594 -0.306282 0
M  V30 12845 N 1198.74 0.470782 1.50404 0
M  V30 12846 C 1199.96 -0.084284 2.07229 0
M  V30 12847 C 1200.39 -1.32774 1.33239 0
M  V30 12848 O 1199.75 -1.77274 0.379971 0
M  V30 12849 C 1199.8 -0.351565 3.58882 0
M  V30 12850 O 1198.9 -1.43211 3.86736 0
M  V30 12851 H 1198.24 0.0128479 0.663876 0
M  V30 12852 H 1200.77 0.661735 1.93603 0
M  V30 12853 H 1200.78 -0.592151 4.0368 0
M  V30 12854 H 1199.46 0.557084 4.12152 0
M  V30 12855 H 1198.03 -1.17886 3.53776 0
M  V30 12856 N 1200.22 -1.56282 0.203376 0
M  V30 12857 C 1201.46 -1.97812 -0.433202 0
M  V30 12858 C 1201.79 -1.09052 -1.61053 0
M  V30 12859 O 1201.05 -0.131417 -1.95258 0
M  V30 12860 C 1201.35 -3.45148 -0.927759 0
M  V30 12861 C 1201.01 -4.50692 0.137083 0
M  V30 12862 C 1199.67 -4.79278 0.429652 0
M  V30 12863 C 1202.03 -5.14086 0.858174 0
M  V30 12864 C 1199.35 -5.68547 1.44815 0
M  V30 12865 C 1201.71 -6.04457 1.86588 0
M  V30 12866 C 1200.37 -6.31395 2.16556 0
M  V30 12867 H 1199.64 -0.723846 -0.15852 0
M  V30 12868 H 1202.29 -1.89102 0.302082 0
M  V30 12869 H 1200.59 -3.5097 -1.74147 0
M  V30 12870 H 1202.29 -3.74642 -1.42984 0
M  V30 12871 H 1198.88 -4.28481 -0.101111 0
M  V30 12872 H 1203.06 -4.92086 0.645376 0
M  V30 12873 H 1198.32 -5.87689 1.68615 0
M  V30 12874 H 1202.49 -6.52636 2.4298 0
M  V30 12875 H 1200.12 -7.00366 2.9562 0
M  V30 12876 N 1201.7 0.070167 -1.57444 0
M  V30 12877 C 1202.94 0.770153 -1.87607 0
M  V30 12878 C 1203.27 1.77143 -0.795875 0
M  V30 12879 O 1202.55 1.93533 0.193674 0
M  V30 12880 C 1202.83 1.47668 -3.2843 0
M  V30 12881 C 1202.69 0.491712 -4.47104 0
M  V30 12882 C 1204 2.42118 -3.67514 0
M  V30 12883 H 1201.12 0.278519 -0.682346 0
M  V30 12884 H 1203.77 0.0333184 -1.89971 0
M  V30 12885 H 1201.92 2.10476 -3.26546 0
M  V30 12886 H 1203.59 -0.131283 -4.61113 0
M  V30 12887 H 1201.83 -0.192817 -4.33371 0
M  V30 12888 H 1202.5 1.02372 -5.42424 0
M  V30 12889 H 1204.98 1.89387 -3.70502 0
M  V30 12890 H 1203.85 2.88556 -4.66933 0
M  V30 12891 H 1204.11 3.26995 -2.97534 0
M  V30 12892 N 1203.17 1.53854 0.341593 0
M  V30 12893 C 1204.42 1.71194 1.08162 0
M  V30 12894 C 1204.75 0.47614 1.88582 0
M  V30 12895 O 1204 -0.542115 1.88041 0
M  V30 12896 C 1204.3 2.92844 2.04884 0
M  V30 12897 C 1203.97 4.28366 1.40759 0
M  V30 12898 C 1202.63 4.65214 1.23 0
M  V30 12899 C 1204.98 5.12546 0.945819 0
M  V30 12900 C 1202.31 5.83857 0.576852 0
M  V30 12901 C 1204.66 6.31857 0.306568 0
M  V30 12902 C 1203.33 6.67398 0.116677 0
M  V30 12903 H 1202.6 0.626442 0.395792 0
M  V30 12904 H 1205.24 1.88073 0.360688 0
M  V30 12905 H 1203.55 2.70576 2.83365 0
M  V30 12906 H 1205.25 3.03454 2.62139 0
M  V30 12907 H 1201.84 3.99366 1.5558 0
M  V30 12908 H 1206.02 4.84609 1.07087 0
M  V30 12909 H 1201.28 6.09967 0.418363 0
M  V30 12910 H 1205.45 6.96375 -0.0593285 0
M  V30 12911 H 1203.08 7.59191 -0.391477 0
M  V30 12912 N 1204.65 -0.602709 1.4562 0
M  V30 12913 C 1205.6 -1.73425 1.55005 0
M  V30 12914 C 1206.59 -1.64118 0.419713 0
M  V30 12915 O 1207.8 -1.69853 0.595815 0
M  V30 12916 H 1204.17 -0.573038 0.486962 0
M  V30 12917 H 1206.15 -1.62637 2.50184 0
M  V30 12918 C 1204.89 -3.11808 1.53853 0
M  V30 12919 H 1204.22 -3.19631 2.40158 0
M  V30 12920 H 1205.66 -3.90798 1.64477 0
M  V30 12921 C 1204.12 -3.35866 0.263765 0
M  V30 12922 O 1204.65 -3.96334 -0.654364 0
M  V30 12923 N 1202.85 -2.90171 0.157927 0
M  V30 12924 H 1202.4 -2.41144 0.905944 0
M  V30 12925 H 1202.36 -3.06641 -0.694175 0
M  V30 12926 N 1206.13 -1.32992 -0.845635 0
M  V30 12927 C 1207.06 -1.25301 -1.97033 0
M  V30 12928 C 1208.04 -0.134966 -1.69564 0
M  V30 12929 O 1209.23 -0.323629 -1.91484 0
M  V30 12930 C 1206.36 -0.984551 -3.33052 0
M  V30 12931 C 1205.31 -2.06481 -3.749 0
M  V30 12932 C 1204.64 -1.6486 -5.08651 0
M  V30 12933 C 1205.94 -3.48083 -3.89404 0
M  V30 12934 H 1207.63 -2.194 -2.03725 0
M  V30 12935 H 1205.18 -1.05621 -0.978783 0
M  V30 12936 H 1207.13 -0.917269 -4.11296 0
M  V30 12937 H 1205.85 -0.00793116 -3.26599 0
M  V30 12938 H 1204.51 -2.1224 -2.98915 0
M  V30 12939 H 1204.16 -0.659183 -4.98662 0
M  V30 12940 H 1203.86 -2.37145 -5.37621 0
M  V30 12941 H 1205.38 -1.59585 -5.89377 0
M  V30 12942 H 1206.8 -3.44863 -4.57976 0
M  V30 12943 H 1205.19 -4.18796 -4.29802 0
M  V30 12944 H 1206.26 -3.87084 -2.92051 0
M  V30 12945 N 1207.61 1.06304 -1.1635 0
M  V30 12946 C 1209.02 1.31227 -0.90838 0
M  V30 12947 C 1209.22 1.96665 0.438779 0
M  V30 12948 O 1208.28 2.2332 1.17833 0
M  V30 12949 C 1209.59 2.19303 -2.05734 0
M  V30 12950 C 1211.14 2.3272 -2.09309 0
M  V30 12951 C 1211.62 3.24151 -3.23559 0
M  V30 12952 N 1213.11 3.31734 -3.23275 0
M  V30 12953 C 1213.84 4.02572 -4.08318 0
M  V30 12954 N 1213.34 4.75933 -5.03448 0
M  V30 12955 N 1215.13 3.98621 -3.96305 0
M  V30 12956 H 1207.28 0.622228 -2.03081 0
M  V30 12957 H 1209.54 0.336892 -0.886119 0
M  V30 12958 H 1209.25 1.78497 -3.03037 0
M  V30 12959 H 1209.12 3.19888 -1.99879 0
M  V30 12960 H 1211.51 2.72774 -1.12599 0
M  V30 12961 H 1211.59 1.31804 -2.19229 0
M  V30 12962 H 1211.24 2.84813 -4.20528 0
M  V30 12963 H 1211.17 4.25046 -3.10875 0
M  V30 12964 H 1213.66 2.79453 -2.5439 0
M  V30 12965 H 1213.97 5.27512 -5.64758 0
M  V30 12966 H 1212.32 4.74913 -5.07427 0
M  V30 12967 H 1215.51 3.40427 -3.21289 0
M  V30 12968 H 1215.68 4.5356 -4.62804 0
M  V30 12969 N 1209.09 0.96196 1.24836 0
M  V30 12970 C 1210.33 0.631213 1.93358 0
M  V30 12971 C 1210.69 -0.823785 1.73872 0
M  V30 12972 O 1209.98 -1.58422 1.07764 0
M  V30 12973 C 1210.17 0.934481 3.44967 0
M  V30 12974 C 1210 2.41741 3.79198 0
M  V30 12975 C 1208.77 3.07624 4.00868 0
M  V30 12976 C 1210.97 3.39717 3.86131 0
M  V30 12977 N 1208.95 4.45714 4.22152 0
M  V30 12978 C 1210.32 4.63141 4.1219 0
M  V30 12979 C 1212.38 3.34454 3.68843 0
M  V30 12980 C 1211.08 5.81953 4.22757 0
M  V30 12981 C 1213.11 4.52611 3.80653 0
M  V30 12982 C 1212.47 5.74825 4.07131 0
M  V30 12983 H 1208.57 0.281719 0.729492 0
M  V30 12984 H 1211.15 1.23564 1.50466 0
M  V30 12985 H 1209.32 0.358917 3.86738 0
M  V30 12986 H 1211.06 0.562892 4.00766 0
M  V30 12987 H 1207.81 2.58172 3.97044 0
M  V30 12988 H 1208.23 5.1725 4.36785 0
M  V30 12989 H 1212.88 2.41008 3.47383 0
M  V30 12990 H 1210.59 6.75832 4.43031 0
M  V30 12991 H 1214.18 4.50095 3.68654 0
M  V30 12992 H 1213.06 6.64727 4.16061 0
M  V30 12993 N 1210.56 -1.39601 0.731392 0
M  V30 12994 C 1211.53 -2.28992 0.0976037 0
M  V30 12995 C 1212.53 -1.46135 -0.670917 0
M  V30 12996 O 1213.72 -1.66856 -0.50047 0
M  V30 12997 C 1210.85 -3.29582 -0.871124 0
M  V30 12998 H 1212.04 -2.86541 0.885112 0
M  V30 12999 H 1209.59 -1.48188 0.497002 0
M  V30 13000 H 1210.33 -2.77082 -1.68512 0
M  V30 13001 H 1210.11 -3.9077 -0.322735 0
M  V30 13002 H 1211.6 -3.96479 -1.31126 0
M  V30 13003 N 1212.04 -0.478751 -1.50152 0
M  V30 13004 C 1212.95 0.316554 -2.32455 0
M  V30 13005 C 1213.97 0.98871 -1.4318 0
M  V30 13006 O 1215.14 0.974998 -1.76226 0
M  V30 13007 C 1212.21 1.3799 -3.18056 0
M  V30 13008 C 1211.27 0.723534 -4.23159 0
M  V30 13009 C 1210.5 1.73621 -5.0467 0
M  V30 13010 O 1210.73 2.96362 -4.87366 0
M  V30 13011 O 1209.66 1.30381 -5.87609 0
M  V30 13012 H 1213.49 -0.356491 -3.016 0
M  V30 13013 H 1211.07 -0.24046 -1.47452 0
M  V30 13014 H 1212.95 1.99565 -3.71149 0
M  V30 13015 H 1211.63 2.03627 -2.5163 0
M  V30 13016 H 1210.54 0.0686296 -3.74037 0
M  V30 13017 H 1211.87 0.109979 -4.92077 0
M  V30 13018 N 1213.52 1.56172 -0.211661 0
M  V30 13019 C 1214.77 1.97648 0.421871 0
M  V30 13020 C 1215.09 1.10026 1.60995 0
M  V30 13021 O 1214.36 0.175109 1.95116 0
M  V30 13022 H 1212.94 0.729914 0.158852 0
M  V30 13023 H 1215.6 1.92542 -0.302254 0
M  V30 13024 H 1214.7 3.02834 0.754868 0
M  V30 13025 N 1215 -0.0618163 1.57479 0
M  V30 13026 C 1216.41 -0.612461 1.76368 0
M  V30 13027 C 1216.76 -1.77381 0.838466 0
M  V30 13028 O 1215.89 -2.16386 0.0250211 0
M  V30 13029 C 1216.48 -1.11782 3.19829 0
M  V30 13030 C 1215.04 -1.61424 3.40028 0
M  V30 13031 C 1214.19 -0.53795 2.72032 0
M  V30 13032 H 1217.14 0.164382 1.57846 0
M  V30 13033 H 1217.16 -1.98634 3.24538 0
M  V30 13034 H 1216.67 -0.272353 3.87143 0
M  V30 13035 H 1214.77 -2.48263 2.77842 0
M  V30 13036 H 1214.88 -1.68431 4.48517 0
M  V30 13037 H 1213.25 -0.985355 2.34868 0
M  V30 13038 H 1214.03 0.297495 3.42009 0
M  V30 13039 N 1216.48 -1.54033 -0.333429 0
M  V30 13040 C 1217.39 -1.85737 -1.43314 0
M  V30 13041 C 1218.4 -0.748398 -1.57083 0
M  V30 13042 O 1219.58 -1.04171 -1.72367 0
M  V30 13043 C 1216.64 -2.06942 -2.78165 0
M  V30 13044 C 1215.7 -3.30774 -2.73655 0
M  V30 13045 C 1214.94 -3.50957 -4.02075 0
M  V30 13046 O 1215.16 -2.74774 -4.99855 0
M  V30 13047 O 1214.09 -4.44412 -4.05933 0
M  V30 13048 H 1217.92 -2.7923 -1.19434 0
M  V30 13049 H 1215.51 -1.39814 -0.526546 0
M  V30 13050 H 1217.39 -2.22276 -3.58011 0
M  V30 13051 H 1216.06 -1.16638 -3.01956 0
M  V30 13052 H 1214.97 -3.20835 -1.92395 0
M  V30 13053 H 1216.3 -4.21103 -2.54819 0
M  V30 13054 N 1217.95 0.594978 -1.45938 0
M  V30 13055 C 1219.18 1.38482 -1.54394 0
M  V30 13056 C 1219.6 1.87222 -0.181563 0
M  V30 13057 O 1218.96 1.60869 0.836119 0
M  V30 13058 C 1219.01 2.55676 -2.54287 0
M  V30 13059 O 1218.11 3.5672 -2.06941 0
M  V30 13060 H 1217.46 0.412918 -0.519995 0
M  V30 13061 H 1219.99 0.722899 -1.91404 0
M  V30 13062 H 1220 3.02756 -2.73501 0
M  V30 13063 H 1218.67 2.19552 -3.53228 0
M  V30 13064 H 1217.25 3.16204 -1.97661 0
M  V30 13065 N 1219.43 1.33438 0.838571 0
M  V30 13066 C 1220.4 1.23632 1.92997 0
M  V30 13067 C 1221.4 0.155302 1.60048 0
M  V30 13068 O 1222.59 0.406852 1.69382 0
M  V30 13069 C 1219.72 0.90512 3.28665 0
M  V30 13070 H 1220.91 2.20643 2.03117 0
M  V30 13071 H 1218.46 1.17501 1.03069 0
M  V30 13072 H 1219.2 -0.0624833 3.2424 0
M  V30 13073 H 1218.98 1.68688 3.53959 0
M  V30 13074 H 1220.47 0.861262 4.08622 0
M  V30 13075 N 1220.91 -1.05686 1.16912 0
M  V30 13076 C 1222.16 -1.78244 0.95254 0
M  V30 13077 C 1222.48 -1.87924 -0.520525 0
M  V30 13078 O 1221.75 -1.39239 -1.37802 0
M  V30 13079 H 1220.33 -0.660228 0.349439 0
M  V30 13080 H 1222.99 -1.27634 1.47294 0
M  V30 13081 H 1222.09 -2.80102 1.37657 0
M  V30 13082 N 1222.39 -0.968567 -1.24324 0
M  V30 13083 C 1223.3 -0.50703 -2.29055 0
M  V30 13084 C 1224.31 0.432431 -1.68541 0
M  V30 13085 O 1225.49 0.30526 -1.99073 0
M  V30 13086 C 1222.56 0.194589 -3.46153 0
M  V30 13087 C 1221.62 -0.784805 -4.22066 0
M  V30 13088 C 1220.85 -0.116574 -5.33573 0
M  V30 13089 O 1221.07 1.09492 -5.59792 0
M  V30 13090 O 1220.01 -0.809171 -5.96436 0
M  V30 13091 H 1223.83 -1.3777 -2.70653 0
M  V30 13092 H 1221.42 -0.735645 -1.30033 0
M  V30 13093 H 1223.3 0.588684 -4.17268 0
M  V30 13094 H 1221.97 1.04021 -3.06531 0
M  V30 13095 H 1220.88 -1.22938 -3.53323 0
M  V30 13096 H 1222.21 -1.59887 -4.65507 0
M  V30 13097 N 1223.87 1.39211 -0.738786 0
M  V30 13098 C 1225.28 1.83237 -0.357916 0
M  V30 13099 C 1225.63 1.61698 1.11123 0
M  V30 13100 O 1224.75 1.11017 1.85753 0
M  V30 13101 C 1225.35 3.32645 -0.64285 0
M  V30 13102 C 1223.91 3.75076 -0.315432 0
M  V30 13103 C 1223.05 2.62166 -0.903556 0
M  V30 13104 H 1226.01 1.2815 -0.936127 0
M  V30 13105 H 1226.03 3.80407 0.0840812 0
M  V30 13106 H 1225.54 3.4829 -1.71218 0
M  V30 13107 H 1223.64 3.65017 0.747907 0
M  V30 13108 H 1223.75 4.72363 -0.800638 0
M  V30 13109 H 1222.12 2.52554 -0.329927 0
M  V30 13110 H 1222.9 2.80616 -1.97761 0
M  V30 13111 N 1225.34 0.486708 1.49896 0
M  V30 13112 C 1226.28 -0.345627 2.25567 0
M  V30 13113 C 1227.26 -0.982794 1.29537 0
M  V30 13114 O 1228.44 -1.01569 1.58796 0
M  V30 13115 C 1225.57 -1.48555 3.04383 0
M  V30 13116 C 1224.61 -0.964196 4.15458 0
M  V30 13117 S 1225.45 0.133631 5.35333 0
M  V30 13118 C 1226.6 -1.00979 6.17701 0
M  V30 13119 H 1226.83 0.296677 2.95816 0
M  V30 13120 H 1224.37 0.271798 1.51989 0
M  V30 13121 H 1226.33 -2.13878 3.50381 0
M  V30 13122 H 1224.99 -2.09942 2.33631 0
M  V30 13123 H 1224.18 -1.81804 4.70067 0
M  V30 13124 H 1223.78 -0.388419 3.71978 0
M  V30 13125 H 1226.07 -1.91812 6.4978 0
M  V30 13126 H 1227.02 -0.502633 7.06314 0
M  V30 13127 H 1227.42 -1.27067 5.50013 0
M  V30 13128 N 1226.82 -1.56058 0.219941 0
M  V30 13129 C 1228.07 -1.98554 -0.412808 0
M  V30 13130 C 1228.4 -1.10742 -1.5953 0
M  V30 13131 O 1227.68 -0.164757 -1.93801 0
M  V30 13132 C 1227.96 -3.4995 -0.848923 0
M  V30 13133 C 1227.81 -4.48535 0.337094 0
M  V30 13134 C 1229.13 -4.05703 -1.70567 0
M  V30 13135 H 1226.25 -0.721869 -0.148576 0
M  V30 13136 H 1228.89 -1.87356 0.315852 0
M  V30 13137 H 1227.04 -3.59624 -1.46979 0
M  V30 13138 H 1228.72 -4.50874 0.975216 0
M  V30 13139 H 1226.96 -4.22474 0.984798 0
M  V30 13140 H 1227.63 -5.51999 -0.0109665 0
M  V30 13141 H 1230.11 -3.98964 -1.18182 0
M  V30 13142 H 1228.98 -5.11955 -1.97972 0
M  V30 13143 H 1229.24 -3.52487 -2.66844 0
M  V30 13144 N 1228.3 0.053464 -1.57509 0
M  V30 13145 C 1229.55 0.750212 -1.88414 0
M  V30 13146 C 1229.88 1.76288 -0.814619 0
M  V30 13147 O 1229.16 1.93728 0.173136 0
M  V30 13148 C 1229.44 1.44176 -3.29978 0
M  V30 13149 C 1229.29 0.444263 -4.47601 0
M  V30 13150 C 1230.61 2.38207 -3.70061 0
M  V30 13151 H 1227.73 0.271266 -0.685262 0
M  V30 13152 H 1230.37 0.0131676 -1.89995 0
M  V30 13153 H 1228.52 2.07001 -3.2876 0
M  V30 13154 H 1230.19 -0.180182 -4.60948 0
M  V30 13155 H 1228.44 -0.238771 -4.33142 0
M  V30 13156 H 1229.11 0.966134 -5.43479 0
M  V30 13157 H 1231.58 1.85446 -3.7249 0
M  V30 13158 H 1230.46 2.83588 -4.69967 0
M  V30 13159 H 1230.72 3.23821 -3.00985 0
M  V30 13160 N 1229.78 1.54207 0.325255 0
M  V30 13161 C 1231.01 1.76293 1.08298 0
M  V30 13162 C 1231.42 0.510722 1.81761 0
M  V30 13163 O 1230.78 -0.5185 1.7498 0
M  V30 13164 C 1230.83 2.95498 2.08238 0
M  V30 13165 O 1230.55 4.15877 1.37759 0
M  V30 13166 C 1232.05 3.29781 2.96242 0
M  V30 13167 H 1229.27 0.588576 0.322209 0
M  V30 13168 H 1231.82 2.0109 0.371896 0
M  V30 13169 H 1229.97 2.72979 2.74884 0
M  V30 13170 H 1230.39 4.82918 2.04672 0
M  V30 13171 H 1231.86 4.16495 3.62265 0
M  V30 13172 H 1232.34 2.46874 3.63249 0
M  V30 13173 H 1232.94 3.54372 2.3516 0
M  V30 13174 N 1231.26 -0.58723 1.46251 0
M  V30 13175 C 1232.22 -1.67863 1.5606 0
M  V30 13176 C 1233.22 -1.54715 0.438162 0
M  V30 13177 O 1234.41 -1.59415 0.702323 0
M  V30 13178 C 1231.54 -3.07262 1.47659 0
M  V30 13179 H 1232.74 -1.60525 2.53321 0
M  V30 13180 H 1230.29 -0.804691 1.33994 0
M  V30 13181 H 1231.02 -3.20159 0.5166 0
M  V30 13182 H 1230.81 -3.18213 2.29092 0
M  V30 13183 H 1232.3 -3.8672 1.57599 0
M  V30 13184 N 1232.74 -1.33881 -0.831482 0
M  V30 13185 C 1233.96 -1.28961 -1.62431 0
M  V30 13186 C 1234.39 0.135249 -1.87613 0
M  V30 13187 O 1233.74 1.09426 -1.44553 0
M  V30 13188 C 1233.79 -2.07767 -2.94729 0
M  V30 13189 O 1232.9 -1.44133 -3.86393 0
M  V30 13190 H 1232.24 -0.443313 -0.494337 0
M  V30 13191 H 1234.77 -1.76555 -1.0339 0
M  V30 13192 H 1234.78 -2.18806 -3.44366 0
M  V30 13193 H 1233.45 -3.11367 -2.75724 0
M  V30 13194 H 1232.03 -1.41784 -3.44894 0
M  V30 13195 N 1234.21 1.05064 -1.1747 0
M  V30 13196 C 1235.44 1.81761 -0.988464 0
M  V30 13197 C 1235.86 1.83028 0.463272 0
M  V30 13198 O 1235.21 1.25846 1.32171 0
M  V30 13199 C 1235.26 3.2782 -1.5237 0
M  V30 13200 O 1234.99 3.26726 -2.91859 0
M  V30 13201 C 1236.49 4.212 -1.38223 0
M  V30 13202 H 1233.71 0.572712 -0.349631 0
M  V30 13203 H 1236.25 1.32477 -1.55789 0
M  V30 13204 H 1234.41 3.7437 -0.996272 0
M  V30 13205 H 1234.82 4.18151 -3.16623 0
M  V30 13206 H 1236.29 5.2166 -1.80485 0
M  V30 13207 H 1236.77 4.37962 -0.329491 0
M  V30 13208 H 1237.38 3.80506 -1.89988 0
M  V30 13209 N 1235.69 0.975146 1.23809 0
M  V30 13210 C 1236.65 0.516157 2.23312 0
M  V30 13211 C 1237.65 -0.39136 1.55965 0
M  V30 13212 O 1238.84 -0.185783 1.73206 0
M  V30 13213 C 1235.98 -0.251534 3.39971 0
M  V30 13214 H 1237.17 1.3959 2.65433 0
M  V30 13215 H 1234.72 0.760493 1.36551 0
M  V30 13216 H 1235.46 -1.14805 3.03299 0
M  V30 13217 H 1235.24 0.399825 3.90056 0
M  V30 13218 H 1236.73 -0.561438 4.13809 0
M  V30 13219 N 1237.17 -1.38817 0.746158 0
M  V30 13220 C 1238.42 -2.00577 0.299458 0
M  V30 13221 C 1238.75 -1.59087 -1.11378 0
M  V30 13222 O 1238.02 -0.824932 -1.7614 0
M  V30 13223 C 1238.31 -3.57713 0.413932 0
M  V30 13224 C 1238.16 -4.09189 1.86774 0
M  V30 13225 C 1239.48 -4.39659 -0.197082 0
M  V30 13226 H 1236.6 -0.728702 0.110285 0
M  V30 13227 H 1239.24 -1.64866 0.944408 0
M  V30 13228 H 1237.39 -3.88265 -0.135155 0
M  V30 13229 H 1239.06 -3.89311 2.47456 0
M  V30 13230 H 1237.3 -3.62333 2.38532 0
M  V30 13231 H 1237.98 -5.18305 1.89904 0
M  V30 13232 H 1240.45 -4.15216 0.271121 0
M  V30 13233 H 1239.33 -5.48832 -0.0867011 0
M  V30 13234 H 1239.59 -4.23028 -1.2845 0
M  V30 13235 N 1238.65 -0.49465 -1.49636 0
M  V30 13236 C 1239.61 0.276064 -2.27531 0
M  V30 13237 C 1240.61 0.899619 -1.3328 0
M  V30 13238 O 1241.8 0.765136 -1.56497 0
M  V30 13239 C 1238.93 1.39547 -3.1103 0
M  V30 13240 H 1240.13 -0.407381 -2.9712 0
M  V30 13241 H 1237.68 -0.249416 -1.54297 0
M  V30 13242 H 1238.41 2.11326 -2.45992 0
M  V30 13243 H 1238.2 0.953877 -3.8032 0
M  V30 13244 H 1239.69 1.93853 -3.69879 0
M  V30 13245 N 1240.13 1.55939 -0.228214 0
M  V30 13246 C 1241.37 1.9877 0.402272 0
M  V30 13247 C 1241.7 1.11587 1.5894 0
M  V30 13248 O 1240.98 0.175032 1.93711 0
M  V30 13249 C 1241.26 3.50396 0.830353 0
M  V30 13250 C 1241.12 4.4835 -0.360876 0
M  V30 13251 C 1242.43 4.06602 1.68413 0
M  V30 13252 H 1239.55 0.722646 0.144746 0
M  V30 13253 H 1242.2 1.87186 -0.325784 0
M  V30 13254 H 1240.35 3.60398 1.4507 0
M  V30 13255 H 1242.02 4.5035 -0.999113 0
M  V30 13256 H 1240.26 4.21946 -1.00719 0
M  V30 13257 H 1240.93 5.51997 -0.0183074 0
M  V30 13258 H 1243.41 3.99585 1.16064 0
M  V30 13259 H 1242.28 5.12998 1.95254 0
M  V30 13260 H 1242.54 3.53897 2.64971 0
M  V30 13261 N 1241.6 -0.0451101 1.57535 0
M  V30 13262 C 1242.83 -0.75132 1.92777 0
M  V30 13263 C 1243.25 -1.69743 0.826599 0
M  V30 13264 O 1242.6 -1.8142 -0.198224 0
M  V30 13265 C 1242.66 -1.52218 3.2789 0
M  V30 13266 O 1242.38 -0.614059 4.33775 0
M  V30 13267 C 1243.88 -2.32699 3.77314 0
M  V30 13268 H 1241.1 -0.21211 0.636593 0
M  V30 13269 H 1243.64 -0.0074174 2.04499 0
M  V30 13270 H 1241.8 -2.2181 3.17614 0
M  V30 13271 H 1242.21 -1.15294 5.11671 0
M  V30 13272 H 1243.68 -2.82205 4.7441 0
M  V30 13273 H 1244.16 -3.13414 3.07682 0
M  V30 13274 H 1244.77 -1.68212 3.90621 0
M  V30 13275 N 1243.08 -1.54377 -0.317073 0
M  V30 13276 C 1244.33 -1.73149 -1.05581 0
M  V30 13277 C 1244.66 -0.507176 -1.8746 0
M  V30 13278 O 1243.94 0.495837 -1.88074 0
M  V30 13279 C 1244.22 -3.01098 -1.97515 0
M  V30 13280 C 1244.07 -4.33794 -1.18922 0
M  V30 13281 C 1245.39 -3.24831 -2.9694 0
M  V30 13282 H 1242.51 -0.630011 -0.382434 0
M  V30 13283 H 1245.15 -1.87079 -0.331873 0
M  V30 13284 H 1243.3 -2.89352 -2.59244 0
M  V30 13285 H 1244.97 -4.57433 -0.596039 0
M  V30 13286 H 1243.22 -4.31005 -0.491612 0
M  V30 13287 H 1243.89 -5.19554 -1.86462 0
M  V30 13288 H 1246.36 -3.3608 -2.45335 0
M  V30 13289 H 1245.24 -4.15702 -3.58445 0
M  V30 13290 H 1245.5 -2.42365 -3.69745 0
M  V30 13291 N 1244.56 0.579466 -1.4656 0
M  V30 13292 C 1245.84 1.33973 -1.42515 0
M  V30 13293 C 1246.22 2.10812 -0.110317 0
M  V30 13294 O 1245.57 2.09679 0.908135 0
M  V30 13295 C 1245.78 2.26301 -2.65686 0
M  V30 13296 C 1247.12 2.88027 -3.1197 0
M  V30 13297 O 1248.15 2.36612 -2.66257 0
M  V30 13298 O 1247.01 3.81423 -3.9138 0
M  V30 13299 H 1244.1 0.602121 -0.566903 0
M  V30 13300 H 1246.65 0.600214 -1.58731 0
M  V30 13301 H 1245.42 1.68973 -3.52936 0
M  V30 13302 H 1245.04 3.07586 -2.51945 0
M  V30 13303 N 1246.04 1.3432 0.824371 0
M  V30 13304 C 1246.99 1.25776 1.93517 0
M  V30 13305 C 1247.96 0.133298 1.65564 0
M  V30 13306 O 1249.14 0.31403 1.88198 0
M  V30 13307 C 1246.28 1.01766 3.29754 0
M  V30 13308 C 1245.39 2.22973 3.7001 0
M  V30 13309 C 1244.53 1.92258 4.95187 0
M  V30 13310 C 1243.57 3.09616 5.2802 0
M  V30 13311 N 1242.7 2.78793 6.44375 0
M  V30 13312 H 1247.54 2.20774 2.00157 0
M  V30 13313 H 1245.08 1.09766 0.979274 0
M  V30 13314 H 1247.04 0.858831 4.08265 0
M  V30 13315 H 1245.67 0.10437 3.22631 0
M  V30 13316 H 1244.72 2.49781 2.86903 0
M  V30 13317 H 1246.03 3.10661 3.90245 0
M  V30 13318 H 1245.19 1.73102 5.81481 0
M  V30 13319 H 1243.93 1.01827 4.76951 0
M  V30 13320 H 1242.93 3.29368 4.40223 0
M  V30 13321 H 1244.16 4.00822 5.48196 0
M  V30 13322 H 1242.1 1.90938 6.27598 0
M  V30 13323 H 1242.02 3.60014 6.64775 0
M  V30 13324 H 1243.29 2.63139 7.33743 0
M  V30 13325 N 1247.52 -1.0444 1.18026 0
M  V30 13326 C 1248.93 -1.29766 0.929143 0
M  V30 13327 C 1249.13 -1.97338 -0.407436 0
M  V30 13328 O 1248.19 -2.25166 -1.14265 0
M  V30 13329 C 1249.5 -2.16002 2.09197 0
M  V30 13330 C 1251.05 -2.29361 2.12985 0
M  V30 13331 C 1251.52 -3.18962 3.28675 0
M  V30 13332 N 1253.02 -3.26549 3.28512 0
M  V30 13333 C 1253.75 -3.96025 4.14671 0
M  V30 13334 N 1253.25 -4.67863 5.10956 0
M  V30 13335 N 1255.04 -3.92266 4.02597 0
M  V30 13336 H 1247.19 -0.58984 2.04046 0
M  V30 13337 H 1249.45 -0.322752 0.891367 0
M  V30 13338 H 1249.16 -1.73653 3.05839 0
M  V30 13339 H 1249.03 -3.16667 2.04943 0
M  V30 13340 H 1251.42 -2.70948 1.16924 0
M  V30 13341 H 1251.5 -1.28299 2.21298 0
M  V30 13342 H 1251.15 -2.78087 4.25006 0
M  V30 13343 H 1251.08 -4.20047 3.17598 0
M  V30 13344 H 1253.57 -2.75371 2.58804 0
M  V30 13345 H 1253.88 -5.1846 5.73079 0
M  V30 13346 H 1252.22 -4.6678 5.14919 0
M  V30 13347 H 1255.42 -3.35273 3.26665 0
M  V30 13348 H 1255.59 -4.4614 4.69961 0
M  V30 13349 N 1248.99 -0.981699 -1.2329 0
M  V30 13350 C 1250.22 -0.66937 -1.95773 0
M  V30 13351 C 1250.64 0.763898 -1.72656 0
M  V30 13352 O 1249.99 1.51418 -1.01876 0
M  V30 13353 C 1250.05 -0.951863 -3.48743 0
M  V30 13354 O 1249.77 -2.3288 -3.71078 0
M  V30 13355 C 1251.27 -0.655668 -4.38424 0
M  V30 13356 H 1248.49 -0.248545 -0.623271 0
M  V30 13357 H 1251.03 -1.31343 -1.56746 0
M  V30 13358 H 1249.19 -0.353787 -3.85781 0
M  V30 13359 H 1249.6 -2.41948 -4.65362 0
M  V30 13360 H 1251.07 -0.903683 -5.44553 0
M  V30 13361 H 1251.55 0.410269 -4.3728 0
M  V30 13362 H 1252.16 -1.23428 -4.06996 0
M  V30 13363 N 1250.47 1.3842 -0.753509 0
M  V30 13364 C 1251.44 2.28808 -0.134022 0
M  V30 13365 C 1252.44 1.47184 0.647583 0
M  V30 13366 O 1253.63 1.67631 0.473861 0
M  V30 13367 C 1250.76 3.30926 0.81858 0
M  V30 13368 H 1251.95 2.85097 -0.930586 0
M  V30 13369 H 1249.5 1.47378 -0.520514 0
M  V30 13370 H 1250.24 2.79728 1.64082 0
M  V30 13371 H 1250.02 3.91234 0.260526 0
M  V30 13372 H 1251.51 3.98515 1.24802 0
M  V30 13373 N 1251.95 0.502579 1.49372 0
M  V30 13374 C 1253.2 -0.0432341 2.01654 0
M  V30 13375 C 1253.51 -1.379 1.38719 0
M  V30 13376 O 1254.72 -2.01159 1.82338 0
M  V30 13377 C 1253.17 -0.127509 3.59674 0
M  V30 13378 C 1252.78 1.20171 4.31582 0
M  V30 13379 C 1254.53 -0.623603 4.19895 0
M  V30 13380 C 1252.43 1.07951 5.81464 0
M  V30 13381 H 1251.36 -0.0199308 0.753737 0
M  V30 13382 H 1254.01 0.642237 1.71894 0
M  V30 13383 H 1252.4 -0.877465 3.86156 0
M  V30 13384 H 1253.57 1.96508 4.16799 0
M  V30 13385 H 1251.89 1.63136 3.83113 0
M  V30 13386 H 1254.48 -0.732562 5.29658 0
M  V30 13387 H 1254.83 -1.62282 3.83367 0
M  V30 13388 H 1255.36 0.0698641 3.97739 0
M  V30 13389 H 1252.1 2.05304 6.22519 0
M  V30 13390 H 1251.62 0.357051 5.98736 0
M  V30 13391 H 1253.3 0.758885 6.42534 0
M  V30 13392 N 1253.43 -1.55816 0.23648 0
M  V30 13393 C 1254.39 -2.1967 -0.654041 0
M  V30 13394 C 1255.39 -1.1629 -1.11056 0
M  V30 13395 O 1256.58 -1.41435 -1.01695 0
M  V30 13396 C 1253.71 -2.83196 -1.89771 0
M  V30 13397 H 1254.91 -2.99743 -0.0970911 0
M  V30 13398 H 1252.46 -1.56295 -0.013098 0
M  V30 13399 H 1253.19 -2.07033 -2.49616 0
M  V30 13400 H 1252.98 -3.58915 -1.57868 0
M  V30 13401 H 1254.47 -3.32095 -2.53184 0
M  V30 13402 N 1254.91 0.036755 -1.57557 0
M  V30 13403 C 1255.87 1.02435 -2.05036 0
M  V30 13404 C 1256.87 1.29506 -0.953146 0
M  V30 13405 O 1258.06 1.24638 -1.217 0
M  V30 13406 C 1255.19 2.3592 -2.46079 0
M  V30 13407 H 1256.38 0.614384 -2.93539 0
M  V30 13408 H 1253.94 0.283396 -1.53709 0
M  V30 13409 H 1254.67 2.8168 -1.60708 0
M  V30 13410 H 1254.46 2.17603 -3.26177 0
M  V30 13411 H 1255.95 3.06839 -2.83266 0
M  V30 13412 N 1256.39 1.54543 0.308881 0
M  V30 13413 C 1257.35 1.84214 1.36374 0
M  V30 13414 C 1258.35 0.71463 1.44047 0
M  V30 13415 O 1259.54 0.98293 1.4382 0
M  V30 13416 C 1256.67 2.01535 2.74948 0
M  V30 13417 H 1257.86 2.78477 1.11314 0
M  V30 13418 H 1255.42 1.46485 0.545141 0
M  V30 13419 H 1256.15 1.09533 3.05242 0
M  V30 13420 H 1255.94 2.83595 2.7077 0
M  V30 13421 H 1257.43 2.25888 3.51233 0
M  V30 13422 N 1257.86 -0.571685 1.46866 0
M  V30 13423 C 1258.83 -1.66198 1.57832 0
M  V30 13424 C 1259.83 -1.54242 0.454547 0
M  V30 13425 O 1261.02 -1.58661 0.719191 0
M  V30 13426 C 1258.15 -3.05678 1.5091 0
M  V30 13427 H 1259.34 -1.57829 2.5501 0
M  V30 13428 H 1256.89 -0.790433 1.3484 0
M  V30 13429 H 1257.63 -3.19593 0.550529 0
M  V30 13430 H 1257.41 -3.15765 2.32454 0
M  V30 13431 H 1258.9 -3.85027 1.61692 0
M  V30 13432 N 1259.34 -1.34755 -0.817236 0
M  V30 13433 C 1260.59 -1.2718 -1.57066 0
M  V30 13434 C 1260.91 0.156531 -1.94371 0
M  V30 13435 O 1260.18 1.09049 -1.62742 0
M  V30 13436 H 1258.76 -0.467755 -0.582421 0
M  V30 13437 H 1261.42 -1.68734 -0.975438 0
M  V30 13438 H 1260.52 -1.88043 -2.49091 0
M  V30 13439 N 1260.82 1.03812 -1.18578 0
M  V30 13440 C 1262.07 1.77319 -0.984173 0
M  V30 13441 C 1262.4 1.88052 0.484789 0
M  V30 13442 O 1261.67 1.3905 1.35998 0
M  V30 13443 C 1261.96 3.20448 -1.6427 0
M  V30 13444 C 1261.81 3.17643 -3.1847 0
M  V30 13445 C 1263.13 4.18623 -1.35805 0
M  V30 13446 H 1260.25 0.643681 -0.358949 0
M  V30 13447 H 1262.89 1.21249 -1.46283 0
M  V30 13448 H 1261.04 3.68324 -1.23572 0
M  V30 13449 H 1262.71 2.77738 -3.6832 0
M  V30 13450 H 1260.95 2.55606 -3.50497 0
M  V30 13451 H 1261.63 4.18724 -3.59686 0
M  V30 13452 H 1264.1 3.79306 -1.71073 0
M  V30 13453 H 1262.98 5.16982 -1.84446 0
M  V30 13454 H 1263.24 4.41203 -0.281418 0
M  V30 13455 N 1262.3 0.988223 1.22768 0
M  V30 13456 C 1263.23 0.492919 2.23837 0
M  V30 13457 C 1264.24 -0.409467 1.57567 0
M  V30 13458 O 1265.43 -0.21235 1.77232 0
M  V30 13459 C 1262.53 -0.305428 3.37521 0
M  V30 13460 C 1261.7 0.591966 4.33376 0
M  V30 13461 C 1260.76 -0.15387 5.25975 0
M  V30 13462 O 1259.79 0.459153 5.67345 0
M  V30 13463 N 1260.99 -1.43756 5.62418 0
M  V30 13464 H 1263.76 1.36199 2.66965 0
M  V30 13465 H 1261.32 0.862395 1.3702 0
M  V30 13466 H 1263.31 -0.812921 3.96451 0
M  V30 13467 H 1261.88 -1.07556 2.93514 0
M  V30 13468 H 1261.1 1.28019 3.72833 0
M  V30 13469 H 1262.39 1.20327 4.94367 0
M  V30 13470 H 1261.79 -1.95701 5.30771 0
M  V30 13471 H 1260.34 -1.89034 6.23786 0
M  V30 13472 N 1263.78 -1.38018 0.760839 0
M  V30 13473 C 1264.71 -2.28037 0.0862629 0
M  V30 13474 C 1265.69 -1.45757 -0.720679 0
M  V30 13475 O 1266.87 -1.7511 -0.697766 0
M  V30 13476 C 1264 -3.26949 -0.884437 0
M  V30 13477 C 1263.04 -4.26189 -0.162839 0
M  V30 13478 S 1263.88 -5.23193 1.14148 0
M  V30 13479 C 1265.03 -6.25658 0.174043 0
M  V30 13480 H 1265.27 -2.84902 0.849596 0
M  V30 13481 H 1262.8 -1.44129 0.55374 0
M  V30 13482 H 1264.76 -3.84447 -1.43913 0
M  V30 13483 H 1263.42 -2.69052 -1.6208 0
M  V30 13484 H 1262.61 -4.9593 -0.89829 0
M  V30 13485 H 1262.21 -3.72624 0.320537 0
M  V30 13486 H 1264.5 -6.74303 -0.657423 0
M  V30 13487 H 1265.45 -7.03108 0.839319 0
M  V30 13488 H 1265.86 -5.6411 -0.209887 0
M  V30 13489 N 1265.25 -0.510493 -1.49103 0
M  V30 13490 C 1266.2 0.262848 -2.29298 0
M  V30 13491 C 1267.17 0.951714 -1.36131 0
M  V30 13492 O 1268.36 0.956534 -1.65091 0
M  V30 13493 C 1265.5 1.31565 -3.19037 0
M  V30 13494 C 1264.61 0.637598 -4.27269 0
M  V30 13495 C 1263.74 1.67165 -5.04212 0
M  V30 13496 C 1262.78 0.975992 -6.04269 0
M  V30 13497 N 1261.92 1.95468 -6.74342 0
M  V30 13498 H 1266.76 -0.427246 -2.94921 0
M  V30 13499 H 1264.3 -0.222538 -1.45407 0
M  V30 13500 H 1266.25 1.93813 -3.69449 0
M  V30 13501 H 1264.88 1.97438 -2.55379 0
M  V30 13502 H 1263.94 -0.0983863 -3.80273 0
M  V30 13503 H 1265.25 0.0904435 -4.98718 0
M  V30 13504 H 1264.4 2.36893 -5.5854 0
M  V30 13505 H 1263.14 2.25267 -4.32557 0
M  V30 13506 H 1262.15 0.264534 -5.49163 0
M  V30 13507 H 1263.37 0.40134 -6.77913 0
M  V30 13508 H 1261.32 2.52515 -6.05452 0
M  V30 13509 H 1261.23 1.45845 -7.41799 0
M  V30 13510 H 1262.5 2.64455 -7.33269 0
M  V30 13511 N 1266.73 1.55688 -0.24474 0
M  V30 13512 C 1267.66 2.24272 0.64995 0
M  V30 13513 C 1268.64 1.22226 1.183 0
M  V30 13514 O 1269.83 1.50873 1.22274 0
M  V30 13515 C 1266.96 2.94053 1.84798 0
M  V30 13516 C 1265.91 4.02769 1.44779 0
M  V30 13517 C 1265.24 4.59965 2.72647 0
M  V30 13518 C 1266.54 5.18601 0.62047 0
M  V30 13519 H 1268.23 2.99298 0.0780654 0
M  V30 13520 H 1265.78 1.43955 0.0361069 0
M  V30 13521 H 1267.73 3.40732 2.47951 0
M  V30 13522 H 1266.45 2.16511 2.44521 0
M  V30 13523 H 1265.11 3.56856 0.839609 0
M  V30 13524 H 1264.76 3.79126 3.30564 0
M  V30 13525 H 1264.46 5.33352 2.46596 0
M  V30 13526 H 1265.99 5.09376 3.36703 0
M  V30 13527 H 1267.4 5.61519 1.15625 0
M  V30 13528 H 1265.8 5.98364 0.456097 0
M  V30 13529 H 1266.87 4.83503 -0.367798 0
M  V30 13530 N 1268.21 -0.0283989 1.57574 0
M  V30 13531 C 1269.12 -1.04575 2.10003 0
M  V30 13532 C 1270.14 -1.39588 1.03881 0
M  V30 13533 O 1271.31 -1.48894 1.35619 0
M  V30 13534 C 1268.38 -2.32755 2.56955 0
M  V30 13535 C 1267.44 -2.04317 3.77562 0
M  V30 13536 C 1266.67 -3.26385 4.22266 0
M  V30 13537 O 1266.89 -4.37082 3.66491 0
M  V30 13538 O 1265.83 -3.12046 5.14695 0
M  V30 13539 H 1269.65 -0.630183 2.9709 0
M  V30 13540 H 1267.24 -0.245423 1.4737 0
M  V30 13541 H 1269.12 -3.08111 2.87482 0
M  V30 13542 H 1267.8 -2.73605 1.72979 0
M  V30 13543 H 1266.7 -1.26527 3.52054 0
M  V30 13544 H 1268.04 -1.68321 4.62524 0
M  V30 13545 N 1269.69 -1.54705 -0.300681 0
M  V30 13546 C 1270.93 -1.74001 -1.03585 0
M  V30 13547 C 1271.26 -0.525972 -1.87253 0
M  V30 13548 O 1270.52 0.492068 -1.89413 0
M  V30 13549 C 1270.82 -2.98173 -1.97047 0
M  V30 13550 C 1270.48 -4.31948 -1.29352 0
M  V30 13551 C 1269.14 -4.68312 -1.10623 0
M  V30 13552 C 1271.5 -5.14874 -0.809594 0
M  V30 13553 C 1268.82 -5.85181 -0.42185 0
M  V30 13554 C 1271.18 -6.32447 -0.138935 0
M  V30 13555 C 1269.84 -6.67473 0.0603129 0
M  V30 13556 H 1269.11 -0.636716 -0.379044 0
M  V30 13557 H 1271.76 -1.88963 -0.310697 0
M  V30 13558 H 1270.06 -2.77994 -2.76091 0
M  V30 13559 H 1271.76 -3.10297 -2.54001 0
M  V30 13560 H 1268.35 -4.0335 -1.44937 0
M  V30 13561 H 1272.53 -4.87278 -0.942006 0
M  V30 13562 H 1267.79 -6.10862 -0.256494 0
M  V30 13563 H 1271.96 -6.95973 0.243939 0
M  V30 13564 H 1269.59 -7.57887 0.592626 0
M  V30 13565 N 1271.17 0.563888 -1.47167 0
M  V30 13566 C 1272.1 1.68137 -1.62025 0
M  V30 13567 C 1273.08 1.63481 -0.469899 0
M  V30 13568 O 1274.26 1.81206 -0.698432 0
M  V30 13569 C 1271.39 3.06779 -1.62801 0
M  V30 13570 C 1270.35 3.26278 -2.76996 0
M  V30 13571 C 1269.67 4.65638 -2.62841 0
M  V30 13572 C 1270.97 3.12295 -4.18651 0
M  V30 13573 H 1272.67 1.55958 -2.55573 0
M  V30 13574 H 1270.21 0.74887 -1.22996 0
M  V30 13575 H 1272.17 3.84795 -1.71787 0
M  V30 13576 H 1270.89 3.19901 -0.658097 0
M  V30 13577 H 1269.55 2.50668 -2.67509 0
M  V30 13578 H 1269.2 4.75551 -1.63892 0
M  V30 13579 H 1268.9 4.79635 -3.39447 0
M  V30 13580 H 1270.42 5.45798 -2.73746 0
M  V30 13581 H 1271.83 3.80136 -4.2915 0
M  V30 13582 H 1270.23 3.37805 -4.95992 0
M  V30 13583 H 1271.3 2.09126 -4.37486 0
M  V30 13584 N 1272.64 1.35187 0.810078 0
M  V30 13585 C 1273.58 1.23673 1.92971 0
M  V30 13586 C 1274.59 0.160819 1.62004 0
M  V30 13587 O 1275.78 0.413793 1.73638 0
M  V30 13588 C 1272.88 0.880887 3.27252 0
M  V30 13589 C 1272.05 2.05444 3.86149 0
M  V30 13590 C 1271.11 1.67494 4.98831 0
M  V30 13591 O 1270.14 2.39322 5.16443 0
M  V30 13592 N 1271.34 0.596539 5.77427 0
M  V30 13593 H 1274.1 2.20133 2.03376 0
M  V30 13594 H 1271.66 1.2831 0.987322 0
M  V30 13595 H 1273.66 0.608556 4.00098 0
M  V30 13596 H 1272.23 0.00607926 3.12599 0
M  V30 13597 H 1271.45 2.49077 3.05539 0
M  V30 13598 H 1272.73 2.83898 4.22231 0
M  V30 13599 H 1272.13 -0.000312591 5.657 0
M  V30 13600 H 1270.69 0.383979 6.50668 0
M  V30 13601 N 1274.12 -1.03182 1.19127 0
M  V30 13602 C 1275.54 -1.28773 0.942854 0
M  V30 13603 C 1275.74 -1.97759 -0.386483 0
M  V30 13604 O 1274.79 -2.26365 -1.1187 0
M  V30 13605 C 1276.11 -2.13771 2.11476 0
M  V30 13606 C 1277.66 -2.27089 2.15406 0
M  V30 13607 C 1278.13 -3.15458 3.32039 0
M  V30 13608 N 1279.62 -3.23046 3.31957 0
M  V30 13609 C 1280.36 -3.91604 4.18848 0
M  V30 13610 N 1279.85 -4.62418 5.15889 0
M  V30 13611 N 1281.65 -3.87974 4.06734 0
M  V30 13612 H 1273.8 -0.568165 2.0466 0
M  V30 13613 H 1276.06 -0.31328 0.89474 0
M  V30 13614 H 1275.77 -1.704 3.07663 0
M  V30 13615 H 1275.64 -3.14476 2.0829 0
M  V30 13616 H 1278.03 -2.69693 1.19791 0
M  V30 13617 H 1278.11 -1.25945 2.22647 0
M  V30 13618 H 1277.75 -2.73564 4.27931 0
M  V30 13619 H 1277.68 -4.16654 3.22035 0
M  V30 13620 H 1280.17 -2.7261 2.6171 0
M  V30 13621 H 1280.49 -5.12353 5.78545 0
M  V30 13622 H 1278.83 -4.61293 5.1984 0
M  V30 13623 H 1282.02 -3.31789 3.30202 0
M  V30 13624 H 1282.19 -4.4113 4.74666 0
M  V30 13625 N 1275.6 -0.99472 -1.22242 0
M  V30 13626 C 1276.55 -0.546504 -2.24236 0
M  V30 13627 C 1277.52 0.422101 -1.60647 0
M  V30 13628 O 1278.7 0.326452 -1.87987 0
M  V30 13629 C 1275.84 0.130909 -3.44852 0
M  V30 13630 C 1274.96 -0.879653 -4.22949 0
M  V30 13631 C 1274.09 -0.175569 -5.3091 0
M  V30 13632 C 1273.13 -1.17438 -6.00729 0
M  V30 13633 N 1272.27 -0.498474 -7.00328 0
M  V30 13634 H 1277.11 -1.42099 -2.61939 0
M  V30 13635 H 1274.64 -0.711755 -1.28734 0
M  V30 13636 H 1276.6 0.540596 -4.13683 0
M  V30 13637 H 1275.23 0.96917 -3.07907 0
M  V30 13638 H 1274.28 -1.40765 -3.53397 0
M  V30 13639 H 1275.6 -1.64017 -4.71062 0
M  V30 13640 H 1274.75 0.290756 -6.06003 0
M  V30 13641 H 1273.49 0.617438 -4.83776 0
M  V30 13642 H 1272.49 -1.65131 -5.24416 0
M  V30 13643 H 1273.72 -1.96829 -6.4995 0
M  V30 13644 H 1271.66 0.275063 -6.55423 0
M  V30 13645 H 1271.58 -1.19741 -7.46457 0
M  V30 13646 H 1272.85 -0.0550119 -7.79481 0
M  V30 13647 N 1277.08 1.37613 -0.768148 0
M  V30 13648 C 1278.33 1.99779 -0.330841 0
M  V30 13649 C 1278.65 1.60978 1.09162 0
M  V30 13650 O 1277.91 0.845778 1.7648 0
M  V30 13651 C 1278.21 3.54952 -0.417608 0
M  V30 13652 C 1277.87 4.13509 -1.7978 0
M  V30 13653 C 1276.54 4.29216 -2.17549 0
M  V30 13654 C 1278.89 4.45662 -2.7025 0
M  V30 13655 C 1276.22 4.74376 -3.45231 0
M  V30 13656 C 1278.57 4.92245 -3.97338 0
M  V30 13657 C 1277.23 5.06157 -4.35157 0
M  V30 13658 H 1276.5 0.731044 -0.121063 0
M  V30 13659 H 1279.15 1.64437 -0.98147 0
M  V30 13660 H 1277.45 3.90519 0.316567 0
M  V30 13661 H 1279.15 4.00954 -0.0606037 0
M  V30 13662 H 1275.74 4.01709 -1.49425 0
M  V30 13663 H 1279.92 4.33116 -2.42332 0
M  V30 13664 H 1275.18 4.83333 -3.74431 0
M  V30 13665 H 1279.35 5.16091 -4.67572 0
M  V30 13666 H 1276.98 5.4091 -5.34154 0
M  V30 13667 N 1278.56 0.518393 1.4883 0
M  V30 13668 C 1279.8 -0.0118581 2.03397 0
M  V30 13669 C 1280.16 -1.33082 1.3895 0
M  V30 13670 O 1279.45 -1.8435 0.522066 0
M  V30 13671 C 1279.64 -0.203001 3.56823 0
M  V30 13672 C 1279.47 1.09588 4.36143 0
M  V30 13673 C 1278.24 1.65254 4.77514 0
M  V30 13674 C 1280.44 2.00358 4.73668 0
M  V30 13675 N 1278.42 2.89551 5.41326 0
M  V30 13676 C 1279.79 3.09233 5.37378 0
M  V30 13677 C 1281.85 2.00826 4.55602 0
M  V30 13678 C 1280.55 4.18623 5.84933 0
M  V30 13679 C 1282.58 3.09203 5.0413 0
M  V30 13680 C 1281.94 4.16796 5.67856 0
M  V30 13681 H 1278.04 0.0368733 0.78113 0
M  V30 13682 H 1280.62 0.697108 1.81792 0
M  V30 13683 H 1278.79 -0.881039 3.78275 0
M  V30 13684 H 1280.53 -0.731818 3.98028 0
M  V30 13685 H 1277.28 1.19541 4.58265 0
M  V30 13686 H 1277.71 3.52802 5.77806 0
M  V30 13687 H 1282.35 1.18942 4.05725 0
M  V30 13688 H 1280.07 5.01293 6.33823 0
M  V30 13689 H 1283.65 3.10605 4.91951 0
M  V30 13690 H 1282.53 4.99275 6.04726 0
M  V30 13691 N 1280.03 -1.55556 0.252993 0
M  V30 13692 C 1281 -2.20351 -0.630705 0
M  V30 13693 C 1282 -1.17461 -1.09816 0
M  V30 13694 O 1283.19 -1.42505 -1.00189 0
M  V30 13695 C 1280.32 -2.85192 -1.86757 0
M  V30 13696 H 1281.51 -2.99829 -0.0652939 0
M  V30 13697 H 1279.07 -1.563 0.00347982 0
M  V30 13698 H 1279.8 -2.09669 -2.47406 0
M  V30 13699 H 1279.59 -3.60569 -1.54053 0
M  V30 13700 H 1281.08 -3.34762 -2.49648 0
M  V30 13701 N 1281.51 0.0200419 -1.57587 0
M  V30 13702 C 1282.48 1.00255 -2.06111 0
M  V30 13703 C 1283.48 1.28488 -0.966829 0
M  V30 13704 O 1284.67 1.2334 -1.23015 0
M  V30 13705 C 1281.8 2.33296 -2.48567 0
M  V30 13706 H 1282.99 0.583216 -2.94174 0
M  V30 13707 H 1280.54 0.267077 -1.54001 0
M  V30 13708 H 1281.28 2.79959 -1.63687 0
M  V30 13709 H 1281.06 2.14131 -3.28467 0
M  V30 13710 H 1282.55 3.03817 -2.86505 0
M  V30 13711 N 1282.99 1.54862 0.292472 0
M  V30 13712 C 1284.22 1.7855 1.04534 0
M  V30 13713 C 1284.63 0.549161 1.80637 0
M  V30 13714 O 1283.99 -0.481268 1.7604 0
M  V30 13715 C 1284.04 2.99849 2.01923 0
M  V30 13716 O 1283.76 4.18706 1.28907 0
M  V30 13717 C 1285.26 3.35991 2.8918 0
M  V30 13718 H 1282.48 0.595279 0.309652 0
M  V30 13719 H 1285.03 2.01834 0.329159 0
M  V30 13720 H 1283.18 2.78749 2.69032 0
M  V30 13721 H 1283.6 4.87151 1.94383 0
M  V30 13722 H 1285.07 4.24085 3.53349 0
M  V30 13723 H 1285.55 2.54524 3.57931 0
M  V30 13724 H 1286.15 3.59281 2.27591 0
M  V30 13725 N 1284.47 -0.556076 1.47464 0
M  V30 13726 C 1285.88 -0.882115 1.33007 0
M  V30 13727 C 1286.08 -1.9892 0.321407 0
M  V30 13728 O 1285.14 -2.51088 -0.266668 0
M  V30 13729 C 1286.45 -1.27428 2.72365 0
M  V30 13730 C 1288 -1.38564 2.80658 0
M  V30 13731 C 1288.48 -1.81136 4.20659 0
M  V30 13732 N 1289.97 -1.88284 4.23206 0
M  V30 13733 C 1290.7 -2.22555 5.28447 0
M  V30 13734 N 1290.2 -2.55432 6.43993 0
M  V30 13735 N 1291.99 -2.23339 5.15826 0
M  V30 13736 H 1284.14 0.17481 2.11679 0
M  V30 13737 H 1286.41 0.0155421 0.947873 0
M  V30 13738 H 1286.11 -0.53463 3.47613 0
M  V30 13739 H 1285.99 -2.23019 3.04208 0
M  V30 13740 H 1288.37 -2.1161 2.05682 0
M  V30 13741 H 1288.45 -0.411588 2.52467 0
M  V30 13742 H 1288.1 -1.08659 4.96141 0
M  V30 13743 H 1288.03 -2.79546 4.46275 0
M  V30 13744 H 1290.52 -1.65259 3.3985 0
M  V30 13745 H 1290.83 -2.80612 7.20053 0
M  V30 13746 H 1289.18 -2.5301 6.47311 0
M  V30 13747 H 1292.37 -1.97094 4.24584 0
M  V30 13748 H 1292.54 -2.49717 5.97951 0
M  V30 13749 N 1285.95 -1.35615 -0.802897 0
M  V30 13750 C 1286.88 -1.24695 -1.92312 0
M  V30 13751 C 1287.89 -0.169409 -1.61916 0
M  V30 13752 O 1289.08 -0.422995 -1.73416 0
M  V30 13753 C 1286.18 -0.898229 -3.2678 0
M  V30 13754 C 1285.35 -2.07489 -3.85054 0
M  V30 13755 C 1284.41 -1.70137 -4.97936 0
M  V30 13756 O 1283.44 -2.42057 -5.15167 0
M  V30 13757 N 1284.64 -0.627153 -5.77102 0
M  V30 13758 H 1287.41 -2.21208 -2.02205 0
M  V30 13759 H 1284.97 -1.28832 -0.980503 0
M  V30 13760 H 1286.96 -0.629766 -3.9977 0
M  V30 13761 H 1285.53 -0.0226571 -3.12592 0
M  V30 13762 H 1284.75 -2.50694 -3.04214 0
M  V30 13763 H 1286.04 -2.86133 -4.2072 0
M  V30 13764 H 1285.44 -0.0296879 -5.65692 0
M  V30 13765 H 1283.99 -0.41848 -6.50455 0
M  V30 13766 N 1287.43 1.02549 -1.19673 0
M  V30 13767 C 1288.67 1.77554 -1.01261 0
M  V30 13768 C 1289.03 1.86692 0.448357 0
M  V30 13769 O 1290.23 2.58055 0.752386 0
M  V30 13770 C 1288.5 3.16132 -1.66719 0
M  V30 13771 S 1290.06 4.07285 -1.63291 0
M  V30 13772 H 1286.88 0.611178 -0.363294 0
M  V30 13773 H 1289.48 1.22852 -1.52078 0
M  V30 13774 H 1288.18 3.07101 -2.72244 0
M  V30 13775 H 1287.72 3.7591 -1.15996 0
M  V30 13776 H 1289.73 4.91798 -0.659499 0
M  V30 13777 N 1288.9 1.00119 1.21713 0
M  V30 13778 C 1290.13 0.700172 1.95224 0
M  V30 13779 C 1290.55 -0.730138 1.73351 0
M  V30 13780 O 1289.91 -1.50026 1.01794 0
M  V30 13781 C 1289.96 1.02202 3.45814 0
M  V30 13782 O 1289.06 0.125188 4.1221 0
M  V30 13783 H 1288.4 0.261238 0.610451 0
M  V30 13784 H 1290.93 1.34041 1.54578 0
M  V30 13785 H 1290.94 0.967293 3.96368 0
M  V30 13786 H 1289.62 2.06422 3.61058 0
M  V30 13787 H 1288.2 0.236114 3.72152 0
M  V30 13788 N 1290.38 -1.37203 0.775435 0
M  V30 13789 C 1291.61 -2.03868 0.352927 0
M  V30 13790 C 1292.02 -1.58482 -1.0261 0
M  V30 13791 O 1291.38 -0.767772 -1.65564 0
M  V30 13792 C 1291.43 -3.59378 0.39116 0
M  V30 13793 O 1291.15 -4.03103 1.71579 0
M  V30 13794 C 1292.65 -4.4328 -0.0424808 0
M  V30 13795 H 1289.87 -0.654619 0.14736 0
M  V30 13796 H 1292.42 -1.75463 1.05039 0
M  V30 13797 H 1290.57 -3.86542 -0.257752 0
M  V30 13798 H 1290.99 -4.9764 1.65695 0
M  V30 13799 H 1292.46 -5.51989 0.0354215 0
M  V30 13800 H 1292.94 -4.25374 -1.09333 0
M  V30 13801 H 1293.54 -4.21349 0.578384 0
M  V30 13802 N 1291.86 -0.526279 -1.48553 0
M  V30 13803 C 1293.11 0.00918008 -2.02798 0
M  V30 13804 C 1293.44 1.34284 -1.4029 0
M  V30 13805 O 1292.71 1.86639 -0.547355 0
M  V30 13806 C 1293 0.135102 -3.59846 0
M  V30 13807 C 1292.85 -1.22347 -4.32841 0
M  V30 13808 C 1294.17 0.863673 -4.31542 0
M  V30 13809 H 1291.29 0.00186216 -0.736998 0
M  V30 13810 H 1293.93 -0.682591 -1.77315 0
M  V30 13811 H 1292.08 0.724279 -3.81689 0
M  V30 13812 H 1293.75 -1.85347 -4.22427 0
M  V30 13813 H 1291.99 -1.80631 -3.94405 0
M  V30 13814 H 1292.67 -1.08839 -5.41164 0
M  V30 13815 H 1295.14 0.363734 -4.14507 0
M  V30 13816 H 1294.02 0.92067 -5.41124 0
M  V30 13817 H 1294.28 1.91313 -3.98562 0
M  V30 13818 N 1293.34 1.5542 -0.261239 0
M  V30 13819 C 1294.61 1.91243 0.41056 0
M  V30 13820 C 1294.99 1.1838 1.74784 0
M  V30 13821 O 1294.34 0.306013 2.26442 0
M  V30 13822 C 1294.55 3.44404 0.56453 0
M  V30 13823 C 1295.9 4.15927 0.853827 0
M  V30 13824 O 1296.92 3.50222 0.649861 0
M  V30 13825 O 1295.78 5.32175 1.24308 0
M  V30 13826 H 1292.88 0.796491 0.222555 0
M  V30 13827 H 1295.42 1.66912 -0.306367 0
M  V30 13828 H 1294.2 3.89478 -0.377134 0
M  V30 13829 H 1293.82 3.74644 1.33145 0
M  V30 13830 N 1294.82 -0.0116844 1.57596 0
M  V30 13831 C 1296.06 -0.697577 1.89679 0
M  V30 13832 C 1296.38 -1.74956 0.861122 0
M  V30 13833 O 1295.65 -1.95629 -0.103031 0
M  V30 13834 H 1294.23 -0.26064 0.700054 0
M  V30 13835 H 1296.9 0.0264782 1.94882 0
M  V30 13836 H 1295.99 -1.17621 2.89088 0
M  V30 13837 N 1296.29 -1.55015 -0.284256 0
M  V30 13838 C 1297.7 -1.65915 -0.856104 0
M  V30 13839 C 1298.06 -0.578758 -1.8747 0
M  V30 13840 O 1297.18 0.281733 -2.14558 0
M  V30 13841 C 1297.78 -3.0077 -1.55957 0
M  V30 13842 C 1296.33 -3.13735 -2.0796 0
M  V30 13843 C 1295.48 -2.61669 -0.917849 0
M  V30 13844 H 1298.43 -1.58583 -0.0608587 0
M  V30 13845 H 1298.45 -2.9313 -2.42601 0
M  V30 13846 H 1297.97 -3.79382 -0.81798 0
M  V30 13847 H 1296.07 -2.39875 -2.85115 0
M  V30 13848 H 1296.18 -4.20138 -2.30263 0
M  V30 13849 H 1294.54 -2.18542 -1.3081 0
M  V30 13850 H 1295.33 -3.42774 -0.189946 0
M  V30 13851 N 1297.77 0.548248 -1.47757 0
M  V30 13852 C 1299.01 1.31569 -1.56426 0
M  V30 13853 C 1299.38 1.90676 -0.225072 0
M  V30 13854 O 1300.58 2.68151 -0.186652 0
M  V30 13855 C 1298.85 2.38951 -2.65776 0
M  V30 13856 S 1300.41 3.25664 -2.94089 0
M  V30 13857 H 1297.22 0.447791 -0.552272 0
M  V30 13858 H 1299.83 0.626659 -1.85184 0
M  V30 13859 H 1298.53 1.93978 -3.61664 0
M  V30 13860 H 1298.06 3.12584 -2.38861 0
M  V30 13861 H 1300.08 4.38629 -2.31989 0
M  V30 13862 N 1299.25 1.36039 0.795694 0
M  V30 13863 C 1300.48 1.33059 1.58439 0
M  V30 13864 C 1300.89 -0.0895496 1.88588 0
M  V30 13865 O 1300.25 -1.04466 1.49643 0
M  V30 13866 C 1300.3 2.14594 2.90915 0
M  V30 13867 O 1300.02 3.51072 2.62069 0
M  V30 13868 C 1301.52 2.19324 3.85242 0
M  V30 13869 H 1298.74 0.456668 0.491625 0
M  V30 13870 H 1301.29 1.79048 0.988035 0
M  V30 13871 H 1299.44 1.72177 3.47036 0
M  V30 13872 H 1299.86 3.93545 3.46732 0
M  V30 13873 H 1301.33 2.80744 4.75276 0
M  V30 13874 H 1301.81 1.19496 4.22631 0
M  V30 13875 H 1302.41 2.6195 3.35056 0
M  V30 13876 N 1300.73 -1.01913 1.20215 0
M  V30 13877 C 1301.66 -2.10513 0.906476 0
M  V30 13878 C 1302.67 -1.62463 -0.104758 0
M  V30 13879 O 1303.86 -1.78055 0.12593 0
M  V30 13880 C 1300.96 -3.3722 0.337012 0
M  V30 13881 C 1300.14 -4.14417 1.39917 0
M  V30 13882 C 1299.19 -5.19428 0.841489 0
M  V30 13883 O 1298.22 -5.48486 1.52157 0
M  V30 13884 N 1299.42 -5.79442 -0.350365 0
M  V30 13885 H 1302.19 -2.36465 1.84132 0
M  V30 13886 H 1299.75 -1.18283 1.10548 0
M  V30 13887 H 1301.74 -4.04669 -0.0501507 0
M  V30 13888 H 1300.31 -3.08538 -0.502325 0
M  V30 13889 H 1299.53 -3.41975 1.96078 0
M  V30 13890 H 1300.82 -4.62777 2.1146 0
M  V30 13891 H 1300.22 -5.58166 -0.920204 0
M  V30 13892 H 1298.77 -6.48252 -0.679194 0
M  V30 13893 N 1302.21 -1.00763 -1.2118 0
M  V30 13894 C 1303.43 -0.710515 -1.9485 0
M  V30 13895 C 1303.86 0.720934 -1.73736 0
M  V30 13896 O 1303.21 1.49484 -1.02588 0
M  V30 13897 C 1303.26 -1.04035 -3.45267 0
M  V30 13898 O 1302.37 -0.147047 -4.12138 0
M  V30 13899 H 1301.71 -0.264472 -0.609057 0
M  V30 13900 H 1304.24 -1.34858 -1.53865 0
M  V30 13901 H 1304.25 -0.9883 -3.95849 0
M  V30 13902 H 1302.92 -2.08334 -3.59958 0
M  V30 13903 H 1301.5 -0.255847 -3.72021 0
M  V30 13904 N 1303.68 1.3679 -0.7827 0
M  V30 13905 C 1304.92 2.01252 -0.357327 0
M  V30 13906 C 1305.29 1.60782 1.04944 0
M  V30 13907 O 1306.49 2.17785 1.57553 0
M  V30 13908 C 1304.76 3.53766 -0.508352 0
M  V30 13909 S 1306.32 4.38471 -0.169862 0
M  V30 13910 H 1303.14 0.697701 -0.136875 0
M  V30 13911 H 1305.74 1.66799 -1.01972 0
M  V30 13912 H 1304.44 3.80708 -1.53262 0
M  V30 13913 H 1303.97 3.93032 0.170209 0
M  V30 13914 H 1305.99 4.85373 1.03088 0
M  V30 13915 N 1305.16 0.53415 1.48272 0
M  V30 13916 C 1306.07 -0.230062 2.33469 0
M  V30 13917 C 1307.09 -0.934889 1.46751 0
M  V30 13918 O 1308.26 -0.908921 1.79724 0
M  V30 13919 C 1305.33 -1.2609 3.22958 0
M  V30 13920 C 1304.39 -0.565983 4.25553 0
M  V30 13921 C 1303.62 -1.54771 5.10766 0
M  V30 13922 O 1303.85 -2.7807 4.9803 0
M  V30 13923 O 1302.78 -1.08482 5.92043 0
M  V30 13924 H 1306.61 0.468182 3.0007 0
M  V30 13925 H 1304.19 0.29502 1.46458 0
M  V30 13926 H 1306.07 -1.85652 3.783 0
M  V30 13927 H 1304.75 -1.94148 2.59014 0
M  V30 13928 H 1303.66 0.0702391 3.74034 0
M  V30 13929 H 1304.99 0.0727277 4.92146 0
M  V30 13930 N 1306.64 -1.55279 0.269478 0
M  V30 13931 C 1307.92 -1.91458 -0.400412 0
M  V30 13932 C 1308.3 -1.19306 -1.74153 0
M  V30 13933 O 1307.65 -0.318017 -2.26276 0
M  V30 13934 C 1307.86 -3.44698 -0.546258 0
M  V30 13935 C 1309.2 -4.16374 -0.831758 0
M  V30 13936 O 1310.23 -3.50561 -0.631279 0
M  V30 13937 O 1309.09 -5.32826 -1.21484 0
M  V30 13938 H 1306.18 -0.79766 -0.218328 0
M  V30 13939 H 1308.73 -1.66747 0.315214 0
M  V30 13940 H 1307.5 -3.89273 0.397784 0
M  V30 13941 H 1307.12 -3.75345 -1.31157 0
M  V30 13942 N 1308.12 0.00332656 -1.576 0
M  V30 13943 C 1309.34 0.703587 -1.95101 0
M  V30 13944 C 1309.77 1.66697 -0.871418 0
M  V30 13945 O 1309.13 1.80494 0.170739 0
M  V30 13946 C 1309.17 1.41457 -3.31696 0
M  V30 13947 O 1308.28 2.52885 -3.25765 0
M  V30 13948 H 1307.62 0.187396 -0.637008 0
M  V30 13949 H 1310.15 -0.0488727 -2.04542 0
M  V30 13950 H 1310.16 1.77874 -3.67185 0
M  V30 13951 H 1308.83 0.708182 -4.09826 0
M  V30 13952 H 1307.41 2.18821 -3.01947 0
M  V30 13953 N 1309.6 1.55164 0.276031 0
M  V30 13954 C 1310.87 1.66338 1.02913 0
M  V30 13955 C 1311.25 0.527876 2.04393 0
M  V30 13956 O 1310.6 -0.472437 2.23563 0
M  V30 13957 C 1310.81 3.05427 1.68865 0
M  V30 13958 C 1312.16 3.63075 2.2014 0
M  V30 13959 O 1313.18 3.0804 1.78857 0
M  V30 13960 O 1312.04 4.59492 2.95854 0
M  V30 13961 H 1309.14 0.675446 0.477181 0
M  V30 13962 H 1311.68 1.67504 0.272129 0
M  V30 13963 H 1310.45 3.79514 0.953125 0
M  V30 13964 H 1310.08 3.08147 2.5126 0
M  V30 13965 N 1311.07 -0.540404 1.48045 0
M  V30 13966 C 1312 -1.65538 1.6468 0
M  V30 13967 C 1312.99 -1.62713 0.495847 0
M  V30 13968 O 1314.17 -1.80072 0.727172 0
M  V30 13969 C 1311.3 -3.0415 1.67661 0
M  V30 13970 C 1310.25 -3.2183 2.82152 0
M  V30 13971 C 1309.58 -4.61397 2.70216 0
M  V30 13972 C 1310.88 -3.05596 4.23567 0
M  V30 13973 H 1312.57 -1.51873 2.58021 0
M  V30 13974 H 1310.12 -0.729208 1.24171 0
M  V30 13975 H 1312.07 -3.82013 1.77887 0
M  V30 13976 H 1310.8 -3.18814 0.708907 0
M  V30 13977 H 1309.46 -2.4638 2.71463 0
M  V30 13978 H 1309.1 -4.72883 1.71437 0
M  V30 13979 H 1308.8 -4.74174 3.47035 0
M  V30 13980 H 1310.33 -5.41374 2.82395 0
M  V30 13981 H 1311.74 -3.73261 4.35143 0
M  V30 13982 H 1310.14 -3.29871 5.01303 0
M  V30 13983 H 1311.21 -2.0214 4.40758 0
M  V30 13984 N 1312.55 -1.36459 -0.788468 0
M  V30 13985 C 1313.83 -1.21289 -1.53455 0
M  V30 13986 C 1314.21 0.200549 -2.10145 0
M  V30 13987 O 1313.56 1.20629 -1.94064 0
M  V30 13988 C 1313.77 -2.29562 -2.62873 0
M  V30 13989 C 1315.12 -2.66277 -3.30729 0
M  V30 13990 O 1316.14 -2.28612 -2.73157 0
M  V30 13991 O 1315 -3.31106 -4.34777 0
M  V30 13992 H 1312.09 -0.472306 -0.678864 0
M  V30 13993 H 1314.64 -1.48192 -0.826869 0
M  V30 13994 H 1313.41 -3.24286 -2.18984 0
M  V30 13995 H 1313.03 -2.0403 -3.41259 0
M  V30 13996 N 1314.03 1.01274 -1.20754 0
M  V30 13997 C 1315.27 1.7647 -1.03139 0
M  V30 13998 C 1315.63 1.87157 0.428531 0
M  V30 13999 O 1316.84 2.58839 0.724973 0
M  V30 14000 C 1315.11 3.14346 -1.70063 0
M  V30 14001 S 1316.67 4.05531 -1.67602 0
M  V30 14002 H 1313.48 0.60729 -0.369756 0
M  V30 14003 H 1316.09 1.21232 -1.53372 0
M  V30 14004 H 1314.79 3.04197 -2.75486 0
M  V30 14005 H 1314.32 3.74659 -1.19977 0
M  V30 14006 H 1316.34 4.91071 -0.711623 0
M  V30 14007 N 1315.51 1.01404 1.20644 0
M  V30 14008 C 1316.76 0.701909 1.89946 0
M  V30 14009 C 1317.08 -0.768212 1.78686 0
M  V30 14010 O 1316.34 -1.57348 1.16363 0
M  V30 14011 C 1316.64 1.07995 3.40693 0
M  V30 14012 C 1316.3 2.54585 3.72152 0
M  V30 14013 C 1314.97 2.94639 3.80449 0
M  V30 14014 C 1317.32 3.49497 3.86654 0
M  V30 14015 C 1314.65 4.2855 4.00702 0
M  V30 14016 C 1317 4.83093 4.08416 0
M  V30 14017 C 1315.66 5.22857 4.14942 0
M  V30 14018 H 1314.93 0.256847 0.695062 0
M  V30 14019 H 1317.58 1.27415 1.4296 0
M  V30 14020 H 1315.88 0.426089 3.89476 0
M  V30 14021 H 1317.58 0.816176 3.92606 0
M  V30 14022 H 1314.17 2.22548 3.66292 0
M  V30 14023 H 1318.36 3.19713 3.79602 0
M  V30 14024 H 1313.61 4.58916 4.03988 0
M  V30 14025 H 1317.79 5.56565 4.18579 0
M  V30 14026 H 1315.41 6.26634 4.30388 0
M  V30 14027 N 1316.99 -1.36373 0.789944 0
M  V30 14028 C 1318.23 -1.99523 0.363119 0
M  V30 14029 C 1318.57 -1.6255 -1.0626 0
M  V30 14030 O 1317.84 -0.880551 -1.73426 0
M  V30 14031 C 1318.12 -3.56215 0.527526 0
M  V30 14032 C 1317.98 -4.0304 1.99697 0
M  V30 14033 C 1319.3 -4.40063 -0.0571079 0
M  V30 14034 H 1316.42 -0.724824 0.133412 0
M  V30 14035 H 1319.06 -1.61778 0.996381 0
M  V30 14036 H 1317.21 -3.88498 -0.0115636 0
M  V30 14037 H 1318.88 -3.81241 2.59717 0
M  V30 14038 H 1317.12 -3.54561 2.49939 0
M  V30 14039 H 1317.79 -5.12001 2.06297 0
M  V30 14040 H 1320.27 -4.14143 0.403082 0
M  V30 14041 H 1319.15 -5.4883 0.0879494 0
M  V30 14042 H 1319.41 -4.26901 -1.14926 0
M  V30 14043 N 1318.47 -0.542005 -1.47987 0
M  V30 14044 C 1319.71 -0.010246 -2.01697 0
M  V30 14045 C 1320.03 1.34173 -1.42327 0
M  V30 14046 O 1321.23 1.96254 -1.87607 0
M  V30 14047 C 1319.69 0.0321032 -3.59886 0
M  V30 14048 C 1319.3 -1.31571 -4.28244 0
M  V30 14049 C 1321.04 0.512056 -4.214 0
M  V30 14050 C 1318.95 -1.23329 -5.78398 0
M  V30 14051 H 1317.88 -6.02097e-05 -0.754 0
M  V30 14052 H 1320.53 -0.687586 -1.70131 0
M  V30 14053 H 1318.91 0.774774 -3.88347 0
M  V30 14054 H 1320.09 -2.07489 -4.11442 0
M  V30 14055 H 1318.4 -1.73237 -3.78653 0
M  V30 14056 H 1321 0.591875 -5.31414 0
M  V30 14057 H 1321.34 1.52061 -3.87535 0
M  V30 14058 H 1321.87 -0.175293 -3.97414 0
M  V30 14059 H 1318.61 -2.21737 -6.16857 0
M  V30 14060 H 1318.13 -0.51567 -5.97579 0
M  V30 14061 H 1319.81 -0.928975 -6.40296 0
M  V30 14062 N 1319.94 1.55134 -0.277709 0
M  V30 14063 C 1321.22 1.91667 0.390253 0
M  V30 14064 C 1321.6 1.20228 1.73518 0
M  V30 14065 O 1320.95 0.330013 2.26104 0
M  V30 14066 C 1321.16 3.44983 0.52797 0
M  V30 14067 C 1322.51 4.16809 0.809665 0
M  V30 14068 O 1323.53 3.50891 0.612679 0
M  V30 14069 O 1322.39 5.33463 1.18656 0
M  V30 14070 H 1319.48 0.798807 0.214095 0
M  V30 14071 H 1322.03 1.66577 -0.324053 0
M  V30 14072 H 1320.8 3.89056 -0.418422 0
M  V30 14073 H 1320.42 3.76035 1.29164 0
M  V30 14074 N 1321.42 0.00503138 1.57599 0
M  V30 14075 C 1322.37 -1.00294 2.09866 0
M  V30 14076 C 1323.36 -1.35267 1.01977 0
M  V30 14077 O 1324.57 -1.33772 1.20437 0
M  V30 14078 H 1320.94 -0.341112 0.670184 0
M  V30 14079 H 1322.92 -0.536595 2.93536 0
M  V30 14080 C 1321.66 -2.28432 2.62133 0
M  V30 14081 H 1320.99 -2.02391 3.44787 0
M  V30 14082 H 1322.43 -2.97227 3.02378 0
M  V30 14083 C 1320.89 -2.99758 1.53774 0
M  V30 14084 O 1321.42 -3.90939 0.923563 0
M  V30 14085 N 1319.62 -2.61671 1.26398 0
M  V30 14086 H 1319.17 -1.87605 1.76528 0
M  V30 14087 H 1319.13 -3.09707 0.541168 0
M  V30 14088 N 1322.9 -1.55308 -0.267798 0
M  V30 14089 C 1323.85 -1.89342 -1.35102 0
M  V30 14090 C 1324.84 -0.770277 -1.50874 0
M  V30 14091 O 1326.05 -0.954679 -1.52597 0
M  V30 14092 H 1322.42 -0.601036 -0.451952 0
M  V30 14093 H 1324.39 -2.7982 -1.03651 0
M  V30 14094 C 1323.14 -2.18644 -2.70352 0
M  V30 14095 H 1322.47 -3.04557 -2.59008 0
M  V30 14096 H 1323.91 -2.46374 -3.45073 0
M  V30 14097 C 1322.36 -0.995753 -3.21848 0
M  V30 14098 O 1322.89 -0.233037 -4.01023 0
M  V30 14099 N 1321.1 -0.792038 -2.79598 0
M  V30 14100 H 1320.65 -1.41396 -2.15325 0
M  V30 14101 H 1320.61 0.00300201 -3.144 0
M  V30 14102 N 1324.38 0.532545 -1.4833 0
M  V30 14103 C 1325.63 1.28597 -1.55908 0
M  V30 14104 C 1325.95 1.93595 -0.233635 0
M  V30 14105 O 1325.22 1.81197 0.744605 0
M  V30 14106 H 1323.8 0.477619 -0.57436 0
M  V30 14107 H 1326.46 0.619922 -1.84778 0
M  V30 14108 H 1325.55 2.0666 -2.33877 0
M  V30 14109 N 1325.86 1.36875 0.78122 0
M  V30 14110 C 1327.1 1.31559 1.53943 0
M  V30 14111 C 1327.43 -0.10273 1.94229 0
M  V30 14112 O 1326.69 -1.07386 1.63605 0
M  V30 14113 C 1326.98 2.19173 2.82309 0
M  V30 14114 C 1326.65 3.67595 2.61121 0
M  V30 14115 C 1325.31 4.08047 2.55051 0
M  V30 14116 C 1327.66 4.61665 2.41898 0
M  V30 14117 C 1324.99 5.40697 2.27736 0
M  V30 14118 C 1327.34 5.94542 2.16108 0
M  V30 14119 C 1326.01 6.34109 2.08476 0
M  V30 14120 H 1325.28 0.48141 0.563317 0
M  V30 14121 H 1327.93 1.68999 0.900638 0
M  V30 14122 H 1326.23 1.74696 3.50697 0
M  V30 14123 H 1327.93 2.12379 3.40141 0
M  V30 14124 H 1324.52 3.35509 2.66705 0
M  V30 14125 H 1328.7 4.3128 2.45584 0
M  V30 14126 H 1323.96 5.70325 2.20315 0
M  V30 14127 H 1328.13 6.66994 2.0023 0
M  V30 14128 H 1325.76 7.36823 1.87073 0
M  V30 14129 N 1327.33 -1.00632 1.21289 0
M  V30 14130 C 1328.58 -1.73802 1.02351 0
M  V30 14131 C 1328.9 -1.90503 -0.443611 0
M  V30 14132 O 1330.1 -2.60868 -0.752356 0
M  V30 14133 C 1328.56 -3.12647 1.78269 0
M  V30 14134 C 1328.17 -3.03923 3.29142 0
M  V30 14135 C 1329.91 -3.89956 1.67735 0
M  V30 14136 C 1327.82 -4.3784 3.97556 0
M  V30 14137 H 1326.75 -0.651616 0.379358 0
M  V30 14138 H 1329.4 -1.12446 1.45011 0
M  V30 14139 H 1327.78 -3.74605 1.28401 0
M  V30 14140 H 1328.95 -2.51211 3.86303 0
M  V30 14141 H 1327.27 -2.40103 3.40205 0
M  V30 14142 H 1329.87 -4.89051 2.1618 0
M  V30 14143 H 1330.21 -4.11423 0.635338 0
M  V30 14144 H 1330.74 -3.34647 2.15072 0
M  V30 14145 H 1327.48 -4.21573 5.01952 0
M  V30 14146 H 1327 -4.90518 3.45184 0
M  V30 14147 H 1328.68 -5.06644 4.02393 0
M  V30 14148 N 1328.81 -1.02043 -1.20104 0
M  V30 14149 C 1329.74 -0.614421 -2.25271 0
M  V30 14150 C 1330.72 0.37242 -1.65973 0
M  V30 14151 O 1331.91 0.257005 -1.92492 0
M  V30 14152 C 1329.04 0.0442085 -3.47272 0
M  V30 14153 C 1327.99 -0.864019 -4.19188 0
M  V30 14154 C 1327.32 -0.0709551 -5.34653 0
M  V30 14155 C 1328.62 -2.17385 -4.74912 0
M  V30 14156 H 1330.31 -1.49355 -2.59487 0
M  V30 14157 H 1327.86 -0.719591 -1.24731 0
M  V30 14158 H 1329.81 0.339825 -4.20028 0
M  V30 14159 H 1328.53 0.958082 -3.12231 0
M  V30 14160 H 1327.19 -1.1437 -3.48303 0
M  V30 14161 H 1326.84 0.844688 -4.95857 0
M  V30 14162 H 1326.54 -0.67583 -5.83701 0
M  V30 14163 H 1328.07 0.218118 -6.1021 0
M  V30 14164 H 1329.48 -1.94034 -5.39466 0
M  V30 14165 H 1327.88 -2.72991 -5.34412 0
M  V30 14166 H 1328.95 -2.83427 -3.93443 0
M  V30 14167 N 1330.29 1.35952 -0.797165 0
M  V30 14168 C 1331.54 1.98283 -0.369685 0
M  V30 14169 C 1331.85 1.63968 1.06649 0
M  V30 14170 O 1333.06 2.19591 1.59662 0
M  V30 14171 C 1331.51 3.54692 -0.610046 0
M  V30 14172 C 1331.12 3.97925 -2.05814 0
M  V30 14173 C 1332.87 4.23778 -0.247457 0
M  V30 14174 C 1330.77 5.47142 -2.24475 0
M  V30 14175 H 1329.7 0.741909 -0.134489 0
M  V30 14176 H 1332.35 1.55146 -0.979893 0
M  V30 14177 H 1330.74 3.95938 0.0699822 0
M  V30 14178 H 1331.91 3.67857 -2.77521 0
M  V30 14179 H 1330.23 3.417 -2.37971 0
M  V30 14180 H 1332.82 5.33452 -0.365059 0
M  V30 14181 H 1333.17 4.08436 0.805315 0
M  V30 14182 H 1333.7 3.87921 -0.881028 0
M  V30 14183 H 1330.44 5.67441 -3.28163 0
M  V30 14184 H 1329.96 5.78811 -1.57282 0
M  V30 14185 H 1331.64 6.13475 -2.05567 0
M  V30 14186 N 1331.77 0.549846 1.47697 0
M  V30 14187 C 1332.99 0.0256819 2.07384 0
M  V30 14188 C 1333.42 -1.25525 1.4009 0
M  V30 14189 O 1332.78 -1.7501 0.473406 0
M  V30 14190 C 1332.82 -0.160835 3.60241 0
M  V30 14191 O 1331.93 -1.22509 3.93783 0
M  V30 14192 H 1331.27 0.0480204 0.662261 0
M  V30 14193 H 1333.8 0.763429 1.89823 0
M  V30 14194 H 1333.81 -0.377337 4.06251 0
M  V30 14195 H 1332.48 0.774774 4.0862 0
M  V30 14196 H 1331.06 -0.98967 3.59527 0
M  V30 14197 N 1333.25 -1.54984 0.285932 0
M  V30 14198 C 1334.19 -2.2295 -0.596822 0
M  V30 14199 C 1335.16 -1.20674 -1.14136 0
M  V30 14200 O 1336.35 -1.49249 -1.18867 0
M  V30 14201 C 1333.49 -2.9625 -1.77002 0
M  V30 14202 C 1332.6 -4.13268 -1.25831 0
M  V30 14203 C 1331.74 -4.74187 -2.39417 0
M  V30 14204 C 1330.78 -5.83377 -1.85304 0
M  V30 14205 N 1329.91 -6.38313 -2.92405 0
M  V30 14206 H 1334.75 -2.97998 -0.0106104 0
M  V30 14207 H 1332.29 -1.47099 0.00653041 0
M  V30 14208 H 1334.25 -3.36971 -2.4598 0
M  V30 14209 H 1332.88 -2.23606 -2.3281 0
M  V30 14210 H 1331.93 -3.77593 -0.461278 0
M  V30 14211 H 1333.24 -4.91979 -0.822049 0
M  V30 14212 H 1332.4 -5.17683 -3.16369 0
M  V30 14213 H 1331.13 -3.94775 -2.86364 0
M  V30 14214 H 1330.14 -5.3932 -1.06835 0
M  V30 14215 H 1331.36 -6.64664 -1.3928 0
M  V30 14216 H 1329.31 -5.61791 -3.38713 0
M  V30 14217 H 1329.23 -7.12328 -2.53228 0
M  V30 14218 H 1330.5 -6.86468 -3.69299 0
M  V30 14219 N 1334.72 -0.0133892 -1.57594 0
M  V30 14220 C 1336.14 0.342848 -1.55874 0
M  V30 14221 C 1336.34 1.73928 -1.01742 0
M  V30 14222 O 1335.4 2.43798 -0.657158 0
M  V30 14223 C 1336.71 0.205831 -2.99995 0
M  V30 14224 C 1338.26 0.279774 -3.11747 0
M  V30 14225 C 1338.73 0.171729 -4.57678 0
M  V30 14226 N 1340.22 0.22921 -4.62633 0
M  V30 14227 C 1340.96 0.169153 -5.7315 0
M  V30 14228 N 1340.45 0.0589166 -6.92775 0
M  V30 14229 N 1342.25 0.221995 -5.61661 0
M  V30 14230 H 1334.4 -0.926727 -1.91117 0
M  V30 14231 H 1336.66 -0.356466 -0.878428 0
M  V30 14232 H 1336.37 -0.755482 -3.4349 0
M  V30 14233 H 1336.24 0.982476 -3.6418 0
M  V30 14234 H 1338.63 1.23154 -2.68174 0
M  V30 14235 H 1338.71 -0.526974 -2.50313 0
M  V30 14236 H 1338.35 -0.776547 -5.01928 0
M  V30 14237 H 1338.28 0.997138 -5.17073 0
M  V30 14238 H 1340.77 0.315196 -3.76583 0
M  V30 14239 H 1341.09 0.0193526 -7.72798 0
M  V30 14240 H 1339.43 0.0243543 -6.94996 0
M  V30 14241 H 1342.62 0.306406 -4.67096 0
M  V30 14242 H 1342.8 0.171727 -6.47772 0
M  V30 14243 N 1336.2 1.55448 0.259558 0
M  V30 14244 C 1337.43 1.81063 1.01148 0
M  V30 14245 C 1337.85 0.58875 1.78649 0
M  V30 14246 O 1337.21 -0.461971 1.75315 0
M  V30 14247 C 1337.26 3.04279 1.93512 0
M  V30 14248 O 1336.36 2.80307 3.02493 0
M  V30 14249 H 1335.7 0.598056 0.288487 0
M  V30 14250 H 1338.23 2.02614 0.284387 0
M  V30 14251 H 1338.24 3.33373 2.35215 0
M  V30 14252 H 1336.92 3.92856 1.36518 0
M  V30 14253 H 1335.5 2.62345 2.65008 0
M  V30 14254 N 1337.68 -0.524672 1.4861 0
M  V30 14255 C 1339.1 -0.853703 1.34848 0
M  V30 14256 C 1339.3 -1.98194 0.363529 0
M  V30 14257 O 1338.35 -2.51597 -0.213348 0
M  V30 14258 C 1339.67 -1.21622 2.75006 0
M  V30 14259 C 1341.21 -1.3258 2.83534 0
M  V30 14260 C 1341.69 -1.72172 4.24406 0
M  V30 14261 N 1343.18 -1.79265 4.27105 0
M  V30 14262 C 1343.91 -2.11296 5.33049 0
M  V30 14263 N 1343.41 -2.41714 6.49266 0
M  V30 14264 N 1345.2 -2.12347 5.20447 0
M  V30 14265 H 1337.35 0.219671 2.11261 0
M  V30 14266 H 1339.62 0.0356444 0.94733 0
M  V30 14267 H 1339.32 -0.460776 3.48669 0
M  V30 14268 H 1339.2 -2.16516 3.0887 0
M  V30 14269 H 1341.58 -2.072 2.10124 0
M  V30 14270 H 1341.67 -0.357943 2.53283 0
M  V30 14271 H 1341.31 -0.981108 4.98334 0
M  V30 14272 H 1341.24 -2.70017 4.52104 0
M  V30 14273 H 1343.73 -1.58013 3.43279 0
M  V30 14274 H 1344.04 -2.65276 7.25843 0
M  V30 14275 H 1342.39 -2.39222 6.52532 0
M  V30 14276 H 1345.58 -1.88044 4.28669 0
M  V30 14277 H 1345.75 -2.36978 6.03113 0
M  V30 14278 N 1339.16 -1.37287 -0.77395 0
M  V30 14279 C 1340.07 -1.35059 -1.91823 0
M  V30 14280 C 1341.08 -0.250489 -1.72188 0
M  V30 14281 O 1342.26 -0.485501 -1.95461 0
M  V30 14282 C 1339.33 -1.15444 -3.26915 0
M  V30 14283 C 1338.39 -2.35073 -3.5922 0
M  V30 14284 C 1337.62 -2.16384 -4.87867 0
M  V30 14285 O 1337.84 -1.14696 -5.58749 0
M  V30 14286 O 1336.78 -3.0452 -5.19183 0
M  V30 14287 H 1340.6 -2.31432 -1.96654 0
M  V30 14288 H 1338.19 -1.17994 -0.916392 0
M  V30 14289 H 1340.07 -1.06484 -4.07724 0
M  V30 14290 H 1338.74 -0.221435 -3.22942 0
M  V30 14291 H 1337.65 -2.49604 -2.78655 0
M  V30 14292 H 1338.98 -3.26933 -3.67934 0
M  V30 14293 N 1340.64 0.999871 -1.21821 0
M  V30 14294 C 1341.86 1.77405 -1.06467 0
M  V30 14295 C 1342.28 1.84828 0.385227 0
M  V30 14296 O 1341.64 1.31338 1.26714 0
M  V30 14297 C 1341.69 3.21062 -1.66137 0
M  V30 14298 O 1341.41 3.14054 -3.05454 0
M  V30 14299 C 1342.91 4.14958 -1.55963 0
M  V30 14300 H 1340.13 0.557368 -0.373607 0
M  V30 14301 H 1342.67 1.2575 -1.61267 0
M  V30 14302 H 1340.83 3.69808 -1.15416 0
M  V30 14303 H 1341.24 4.04346 -3.34073 0
M  V30 14304 H 1342.72 5.13536 -2.02448 0
M  V30 14305 H 1343.19 4.36171 -0.514949 0
M  V30 14306 H 1343.8 3.72105 -2.05956 0
M  V30 14307 N 1342.11 1.02678 1.19562 0
M  V30 14308 C 1343.36 0.72059 1.88817 0
M  V30 14309 C 1343.68 -0.752942 1.79877 0
M  V30 14310 O 1342.95 -1.54233 1.20785 0
M  V30 14311 H 1341.53 0.26355 0.698964 0
M  V30 14312 H 1344.2 1.30056 1.4516 0
M  V30 14313 H 1343.29 1.01303 2.95202 0
M  V30 14314 N 1343.59 -1.35528 0.804364 0
M  V30 14315 C 1345.01 -1.51962 0.487831 0
M  V30 14316 C 1345.21 -1.75426 -0.991353 0
M  V30 14317 O 1344.26 -1.7944 -1.77644 0
M  V30 14318 C 1345.58 -2.69626 1.33126 0
M  V30 14319 C 1347.13 -2.83502 1.32648 0
M  V30 14320 C 1347.6 -4.04188 2.15397 0
M  V30 14321 N 1349.09 -4.11362 2.12922 0
M  V30 14322 C 1349.83 -5.03856 2.73709 0
M  V30 14323 N 1349.32 -6.01696 3.43415 0
M  V30 14324 N 1351.12 -4.96585 2.63363 0
M  V30 14325 H 1343.27 -1.18553 1.76235 0
M  V30 14326 H 1345.53 -0.57986 0.749977 0
M  V30 14327 H 1345.24 -2.58857 2.38088 0
M  V30 14328 H 1345.11 -3.64168 0.982934 0
M  V30 14329 H 1347.5 -2.93723 0.284712 0
M  V30 14330 H 1347.58 -1.89824 1.71466 0
M  V30 14331 H 1347.22 -3.94728 3.19613 0
M  V30 14332 H 1347.15 -4.97044 1.7394 0
M  V30 14333 H 1349.64 -3.41319 1.62203 0
M  V30 14334 H 1349.96 -6.68866 3.8709 0
M  V30 14335 H 1348.3 -6.01877 3.47519 0
M  V30 14336 H 1351.49 -4.19103 2.08496 0
M  V30 14337 H 1351.66 -5.68478 3.11026 0
M  V30 14338 N 1345.07 -0.557671 -1.47404 0
M  V30 14339 C 1346.32 -0.0337884 -2.02472 0
M  V30 14340 C 1346.65 1.31624 -1.43197 0
M  V30 14341 O 1345.9 1.86989 -0.577366 0
M  V30 14342 C 1346.2 0.108324 -3.57236 0
M  V30 14343 C 1345.87 -1.17088 -4.35432 0
M  V30 14344 C 1344.53 -1.5214 -4.56516 0
M  V30 14345 C 1346.88 -2.01854 -4.80525 0
M  V30 14346 C 1344.21 -2.71803 -5.19942 0
M  V30 14347 C 1346.56 -3.2072 -5.45272 0
M  V30 14348 C 1345.22 -3.56085 -5.64588 0
M  V30 14349 H 1344.49 -0.012364 -0.740897 0
M  V30 14350 H 1347.14 -0.729276 -1.7707 0
M  V30 14351 H 1345.45 0.886781 -3.81633 0
M  V30 14352 H 1347.14 0.529031 -3.97495 0
M  V30 14353 H 1343.73 -0.887952 -4.19301 0
M  V30 14354 H 1347.92 -1.76081 -4.64014 0
M  V30 14355 H 1343.17 -2.99371 -5.33092 0
M  V30 14356 H 1347.35 -3.86689 -5.79176 0
M  V30 14357 H 1344.97 -4.48903 -6.13506 0
M  V30 14358 N 1346.55 1.54831 -0.294147 0
M  V30 14359 C 1347.48 2.26226 0.57827 0
M  V30 14360 C 1348.46 1.25928 1.14351 0
M  V30 14361 O 1349.65 1.54687 1.17412 0
M  V30 14362 C 1346.78 2.99783 1.75349 0
M  V30 14363 C 1345.73 4.07171 1.31892 0
M  V30 14364 C 1345.06 4.68406 2.57876 0
M  V30 14365 C 1346.36 5.20313 0.455167 0
M  V30 14366 H 1348.05 2.99395 -0.0171936 0
M  V30 14367 H 1345.6 1.43997 -0.00970944 0
M  V30 14368 H 1347.55 3.48448 2.36986 0
M  V30 14369 H 1346.27 2.24181 2.37509 0
M  V30 14370 H 1344.93 3.59346 0.725653 0
M  V30 14371 H 1344.58 3.89451 3.18335 0
M  V30 14372 H 1344.28 5.40927 2.29502 0
M  V30 14373 H 1345.8 5.1983 3.20327 0
M  V30 14374 H 1347.22 5.64913 0.977026 0
M  V30 14375 H 1345.61 5.99512 0.265501 0
M  V30 14376 H 1346.68 4.82088 -0.521434 0
M  V30 14377 N 1348.03 0.0217466 1.57585 0
M  V30 14378 C 1349.28 -0.657187 1.91116 0
M  V30 14379 C 1349.6 -1.7309 0.898039 0
M  V30 14380 O 1348.87 -1.95803 -0.0615116 0
M  V30 14381 H 1347.45 -0.245732 0.705425 0
M  V30 14382 H 1350.11 0.0678096 1.94782 0
M  V30 14383 H 1349.2 -1.11462 2.91518 0
M  V30 14384 N 1349.51 -1.55583 -0.251311 0
M  V30 14385 C 1350.42 -1.93073 -1.33266 0
M  V30 14386 C 1351.43 -0.830612 -1.52895 0
M  V30 14387 O 1352.61 -1.13162 -1.66602 0
M  V30 14388 C 1349.67 -2.21396 -2.66805 0
M  V30 14389 C 1348.73 -3.44815 -2.55737 0
M  V30 14390 C 1347.97 -3.71777 -3.82907 0
M  V30 14391 O 1348.19 -3.00884 -4.84587 0
M  V30 14392 O 1347.12 -4.65305 -3.81805 0
M  V30 14393 H 1350.95 -2.85168 -1.04465 0
M  V30 14394 H 1348.53 -1.42408 -0.451693 0
M  V30 14395 H 1350.42 -2.4094 -3.45725 0
M  V30 14396 H 1349.09 -1.3248 -2.95348 0
M  V30 14397 H 1348 -3.30582 -1.75118 0
M  V30 14398 H 1349.33 -4.34019 -2.32139 0
M  V30 14399 N 1350.98 0.516783 -1.48886 0
M  V30 14400 C 1352.23 1.27375 -1.57808 0
M  V30 14401 C 1352.56 1.92492 -0.256963 0
M  V30 14402 O 1351.84 1.79947 0.738193 0
M  V30 14403 C 1352.12 2.35295 -2.72595 0
M  V30 14404 C 1351.97 1.74783 -4.14453 0
M  V30 14405 C 1353.29 3.36973 -2.83085 0
M  V30 14406 H 1350.41 0.46175 -0.574418 0
M  V30 14407 H 1353.05 0.57434 -1.81111 0
M  V30 14408 H 1351.2 2.94951 -2.52857 0
M  V30 14409 H 1352.88 1.19076 -4.45666 0
M  V30 14410 H 1351.12 1.05258 -4.20836 0
M  V30 14411 H 1351.79 2.52985 -4.90615 0
M  V30 14412 H 1354.27 2.87289 -3.01005 0
M  V30 14413 H 1353.14 4.09864 -3.65106 0
M  V30 14414 H 1353.4 3.98336 -1.91784 0
M  V30 14415 N 1352.46 1.37696 0.766659 0
M  V30 14416 C 1353.74 1.23715 1.51506 0
M  V30 14417 C 1354.12 -0.167091 2.10438 0
M  V30 14418 O 1353.47 -1.17526 1.95959 0
M  V30 14419 C 1353.68 2.33715 2.59188 0
M  V30 14420 C 1355.02 2.71504 3.26451 0
M  V30 14421 O 1356.05 2.32929 2.69486 0
M  V30 14422 O 1354.91 3.37981 4.29454 0
M  V30 14423 H 1352 0.483046 0.671264 0
M  V30 14424 H 1354.55 1.49489 0.803188 0
M  V30 14425 H 1353.32 3.27729 2.13797 0
M  V30 14426 H 1352.94 2.09433 3.3797 0
M  V30 14427 N 1353.94 -0.993397 1.22349 0
M  V30 14428 C 1355.19 -1.72945 1.04568 0
M  V30 14429 C 1355.51 -1.90419 -0.420178 0
M  V30 14430 O 1354.78 -1.46348 -1.30227 0
M  V30 14431 H 1353.36 -0.640777 0.383945 0
M  V30 14432 H 1356.02 -1.19647 1.53853 0
M  V30 14433 H 1355.12 -2.72411 1.52311 0
M  V30 14434 N 1355.42 -1.03311 -1.19015 0
M  V30 14435 C 1356.38 -0.622114 -2.20596 0
M  V30 14436 C 1357.38 0.316502 -1.57654 0
M  V30 14437 O 1358.57 0.102932 -1.73896 0
M  V30 14438 C 1355.7 0.0890432 -3.40784 0
M  V30 14439 H 1356.9 -1.52095 -2.58471 0
M  V30 14440 H 1354.45 -0.824777 -1.32767 0
M  V30 14441 H 1355.18 1.00203 -3.08431 0
M  V30 14442 H 1354.97 -0.58547 -3.87704 0
M  V30 14443 H 1356.46 0.363366 -4.16016 0
M  V30 14444 N 1356.9 1.35099 -0.81154 0
M  V30 14445 C 1358.14 1.9892 -0.394815 0
M  V30 14446 C 1358.47 1.6422 1.0366 0
M  V30 14447 O 1357.75 0.908031 1.72003 0
M  V30 14448 C 1358.03 3.55331 -0.58413 0
M  V30 14449 C 1357.89 3.99812 -2.06084 0
M  V30 14450 C 1359.2 4.40098 -0.0129096 0
M  V30 14451 H 1356.32 0.72261 -0.144926 0
M  V30 14452 H 1358.97 1.60173 -1.02199 0
M  V30 14453 H 1357.12 3.88468 -0.0502446 0
M  V30 14454 H 1358.79 3.77061 -2.65749 0
M  V30 14455 H 1357.03 3.50539 -2.55548 0
M  V30 14456 H 1357.7 5.08655 -2.14416 0
M  V30 14457 H 1360.18 4.13449 -0.468917 0
M  V30 14458 H 1359.05 5.4862 -0.175252 0
M  V30 14459 H 1359.31 4.28675 1.0812 0
M  V30 14460 N 1358.37 0.56548 1.47106 0
M  V30 14461 C 1359.3 -0.16567 2.32912 0
M  V30 14462 C 1360.28 -0.900678 1.44298 0
M  V30 14463 O 1361.47 -0.879523 1.73142 0
M  V30 14464 C 1358.6 -1.19092 3.26243 0
M  V30 14465 C 1357.55 -0.571849 4.24163 0
M  V30 14466 C 1356.88 -1.70233 5.06878 0
M  V30 14467 C 1358.18 0.479785 5.20092 0
M  V30 14468 H 1359.87 0.550705 2.94292 0
M  V30 14469 H 1357.42 0.266284 1.41517 0
M  V30 14470 H 1359.37 -1.71064 3.85117 0
M  V30 14471 H 1358.1 -1.93734 2.62934 0
M  V30 14472 H 1356.76 -0.073353 3.66527 0
M  V30 14473 H 1356.4 -2.438 4.39967 0
M  V30 14474 H 1356.1 -1.29384 5.73178 0
M  V30 14475 H 1357.63 -2.22515 5.68612 0
M  V30 14476 H 1359.04 0.0458042 5.73282 0
M  V30 14477 H 1357.44 0.807615 5.94641 0
M  V30 14478 H 1358.51 1.37259 4.65068 0
M  V30 14479 N 1359.85 -1.54672 0.302354 0
M  V30 14480 C 1361.08 -2.04578 -0.309093 0
M  V30 14481 C 1361.5 -1.17957 -1.47416 0
M  V30 14482 O 1360.85 -0.2055 -1.81339 0
M  V30 14483 C 1360.9 -3.53334 -0.764023 0
M  V30 14484 O 1360.62 -4.36662 0.354674 0
M  V30 14485 C 1362.13 -4.19243 -1.44048 0
M  V30 14486 H 1359.35 -0.667651 -0.0669575 0
M  V30 14487 H 1361.89 -1.99658 0.442379 0
M  V30 14488 H 1360.04 -3.5861 -1.46552 0
M  V30 14489 H 1360.46 -5.245 0.000241188 0
M  V30 14490 H 1361.93 -5.24847 -1.70995 0
M  V30 14491 H 1362.41 -3.69061 -2.38098 0
M  V30 14492 H 1363.02 -4.18046 -0.782132 0
M  V30 14493 N 1361.33 -0.0301034 -1.57571 0
M  V30 14494 C 1362.26 0.980187 -2.07183 0
M  V30 14495 C 1363.28 1.2882 -0.995449 0
M  V30 14496 O 1364.46 1.25268 -1.27162 0
M  V30 14497 C 1361.56 2.30734 -2.48224 0
M  V30 14498 C 1360.74 2.18434 -3.78953 0
M  V30 14499 C 1359.8 3.34092 -4.06533 0
M  V30 14500 O 1358.82 3.10934 -4.76769 0
M  V30 14501 N 1360.02 4.57914 -3.56784 0
M  V30 14502 H 1362.79 0.556877 -2.94481 0
M  V30 14503 H 1360.35 0.156632 -1.61141 0
M  V30 14504 H 1362.34 3.06936 -2.63766 0
M  V30 14505 H 1360.91 2.64703 -1.66287 0
M  V30 14506 H 1360.13 1.26953 -3.73198 0
M  V30 14507 H 1361.42 2.07421 -4.64601 0
M  V30 14508 H 1360.82 4.79623 -2.99964 0
M  V30 14509 H 1359.38 5.31281 -3.77603 0
M  V30 14510 N 1362.81 1.55714 0.243056 0
M  V30 14511 C 1363.74 1.93655 1.30461 0
M  V30 14512 C 1364.72 0.801968 1.50008 0
M  V30 14513 O 1365.9 1.06256 1.62552 0
M  V30 14514 C 1363.03 2.23459 2.65863 0
M  V30 14515 C 1361.99 3.39205 2.61006 0
M  V30 14516 C 1361.31 3.5456 4.00239 0
M  V30 14517 C 1362.61 4.74787 2.17656 0
M  V30 14518 H 1364.31 2.82575 0.98954 0
M  V30 14519 H 1361.85 1.35955 0.474572 0
M  V30 14520 H 1363.81 2.48591 3.40266 0
M  V30 14521 H 1362.53 1.31369 2.99014 0
M  V30 14522 H 1361.19 3.14088 1.89061 0
M  V30 14523 H 1360.84 2.59884 4.30661 0
M  V30 14524 H 1360.54 4.32399 3.97876 0
M  V30 14525 H 1362.06 3.82017 4.76335 0
M  V30 14526 H 1363.48 4.99266 2.81792 0
M  V30 14527 H 1361.87 5.55756 2.26397 0
M  V30 14528 H 1362.94 4.7159 1.12831 0
M  V30 14529 N 1364.29 -0.50888 1.49158 0
M  V30 14530 C 1365.22 -1.62008 1.68154 0
M  V30 14531 C 1366.2 -1.61624 0.53025 0
M  V30 14532 O 1367.38 -1.78489 0.765205 0
M  V30 14533 C 1364.51 -3.00525 1.74075 0
M  V30 14534 C 1363.47 -3.15773 2.88915 0
M  V30 14535 C 1362.79 -4.55562 2.79942 0
M  V30 14536 C 1364.09 -2.96542 4.29953 0
M  V30 14537 H 1365.79 -1.46365 2.61185 0
M  V30 14538 H 1363.33 -0.702705 1.2569 0
M  V30 14539 H 1365.29 -3.78154 1.8595 0
M  V30 14540 H 1364.01 -3.17238 0.776373 0
M  V30 14541 H 1362.67 -2.40567 2.76628 0
M  V30 14542 H 1362.32 -4.6914 1.81429 0
M  V30 14543 H 1362.02 -4.66706 3.57015 0
M  V30 14544 H 1363.54 -5.35262 2.93814 0
M  V30 14545 H 1364.95 -3.63947 4.42963 0
M  V30 14546 H 1363.35 -3.19164 5.08187 0
M  V30 14547 H 1364.42 -1.92745 4.44946 0
M  V30 14548 N 1365.76 -1.381 -0.759346 0
M  V30 14549 C 1366.99 -1.37389 -1.55367 0
M  V30 14550 C 1367.41 0.0356097 -1.88066 0
M  V30 14551 O 1366.77 1.0161 -1.5015 0
M  V30 14552 C 1366.82 -2.23098 -2.83302 0
M  V30 14553 O 1365.92 -1.64412 -3.7821 0
M  V30 14554 H 1365.27 -0.468894 -0.470143 0
M  V30 14555 H 1367.8 -1.81787 -0.938858 0
M  V30 14556 H 1367.81 -2.36753 -3.32283 0
M  V30 14557 H 1366.48 -3.25544 -2.58831 0
M  V30 14558 H 1365.06 -1.59867 -3.36893 0
M  V30 14559 N 1367.24 0.986894 -1.22875 0
M  V30 14560 C 1368.18 2.07604 -0.947406 0
M  V30 14561 C 1369.15 1.62214 0.111904 0
M  V30 14562 O 1370.34 1.88488 -0.0209682 0
M  V30 14563 C 1367.46 3.3601 -0.42605 0
M  V30 14564 C 1366.51 4.00331 -1.47097 0
M  V30 14565 S 1367.34 4.40412 -3.04627 0
M  V30 14566 C 1368.5 5.7198 -2.54145 0
M  V30 14567 H 1368.73 2.31149 -1.86969 0
M  V30 14568 H 1366.27 1.1222 -1.06047 0
M  V30 14569 H 1368.22 4.10288 -0.131846 0
M  V30 14570 H 1366.88 3.10484 0.475211 0
M  V30 14571 H 1366.08 4.92809 -1.05618 0
M  V30 14572 H 1365.68 3.32403 -1.71418 0
M  V30 14573 H 1367.97 6.48602 -1.9576 0
M  V30 14574 H 1368.91 6.18293 -3.45137 0
M  V30 14575 H 1369.32 5.29669 -1.95221 0
M  V30 14576 N 1368.72 1.0394 1.18466 0
M  V30 14577 C 1369.97 0.740576 1.88042 0
M  V30 14578 C 1370.29 -0.733822 1.80666 0
M  V30 14579 O 1369.56 -1.52943 1.22414 0
M  V30 14580 H 1368.14 0.270949 0.696129 0
M  V30 14581 H 1370.8 1.31588 1.43772 0
M  V30 14582 H 1369.9 1.04429 2.94111 0
M  V30 14583 N 1370.2 -1.34667 0.818693 0
M  V30 14584 C 1371.44 -1.98708 0.405359 0
M  V30 14585 C 1371.78 -1.64767 -1.02788 0
M  V30 14586 O 1371.05 -0.91714 -1.71519 0
M  V30 14587 C 1371.34 -3.55016 0.602966 0
M  V30 14588 C 1371.19 -3.98713 2.08201 0
M  V30 14589 C 1372.51 -4.40085 0.0362489 0
M  V30 14590 H 1369.63 -0.721831 0.148756 0
M  V30 14591 H 1372.27 -1.59628 1.03047 0
M  V30 14592 H 1370.42 -3.88435 0.0708453 0
M  V30 14593 H 1372.09 -3.75647 2.67745 0
M  V30 14594 H 1370.33 -3.49179 2.57403 0
M  V30 14595 H 1371 -5.0751 2.17111 0
M  V30 14596 H 1373.48 -4.13195 0.490837 0
M  V30 14597 H 1372.36 -5.4852 0.204344 0
M  V30 14598 H 1372.62 -4.29243 -1.05845 0
M  V30 14599 N 1371.68 -0.573274 -1.46804 0
M  V30 14600 C 1372.92 -0.0552613 -2.02425 0
M  V30 14601 C 1373.25 1.30098 -1.44585 0
M  V30 14602 O 1372.51 1.86366 -0.597166 0
M  V30 14603 C 1372.81 0.0704285 -3.57331 0
M  V30 14604 C 1372.47 -1.217 -4.34166 0
M  V30 14605 C 1371.13 -1.56973 -4.54877 0
M  V30 14606 C 1373.49 -2.06939 -4.78357 0
M  V30 14607 C 1370.81 -2.77302 -5.1703 0
M  V30 14608 C 1373.17 -3.26486 -5.41839 0
M  V30 14609 C 1371.83 -3.62053 -5.6078 0
M  V30 14610 H 1371.1 -0.0202215 -0.740724 0
M  V30 14611 H 1373.75 -0.748016 -1.76287 0
M  V30 14612 H 1372.05 0.846254 -3.82552 0
M  V30 14613 H 1373.75 0.486841 -3.98034 0
M  V30 14614 H 1370.34 -0.932374 -4.18336 0
M  V30 14615 H 1374.52 -1.80992 -4.62121 0
M  V30 14616 H 1369.78 -3.05008 -5.29887 0
M  V30 14617 H 1373.95 -3.92811 -5.75042 0
M  V30 14618 H 1371.58 -4.55385 -6.08711 0
M  V30 14619 N 1373.15 1.5451 -0.310553 0
M  V30 14620 C 1374.38 2.05204 0.301013 0
M  V30 14621 C 1374.8 1.1859 1.46007 0
M  V30 14622 O 1374.16 0.192081 1.8028 0
M  V30 14623 C 1374.21 3.53221 0.725767 0
M  V30 14624 O 1373.31 3.69596 1.82955 0
M  V30 14625 H 1372.66 0.661566 0.0568026 0
M  V30 14626 H 1375.19 1.99473 -0.455178 0
M  V30 14627 H 1375.2 3.9525 1.01198 0
M  V30 14628 H 1373.87 4.15721 -0.122046 0
M  V30 14629 H 1372.45 3.39472 1.54315 0
M  V30 14630 N 1374.63 0.0384594 1.57553 0
M  V30 14631 C 1375.57 -0.969185 2.077 0
M  V30 14632 C 1376.58 -1.2829 1.00227 0
M  V30 14633 O 1377.77 -1.24592 1.27824 0
M  V30 14634 C 1374.87 -2.29414 2.49444 0
M  V30 14635 C 1374.04 -2.16422 3.80106 0
M  V30 14636 C 1373.1 -3.31931 4.08299 0
M  V30 14637 O 1372.13 -3.08401 4.78412 0
M  V30 14638 N 1373.33 -4.56015 3.59208 0
M  V30 14639 H 1376.09 -0.541252 2.94772 0
M  V30 14640 H 1373.65 -0.148084 1.61221 0
M  V30 14641 H 1375.65 -3.05533 2.6539 0
M  V30 14642 H 1374.22 -2.63817 1.67688 0
M  V30 14643 H 1373.44 -1.24973 3.73866 0
M  V30 14644 H 1374.72 -2.04954 4.65694 0
M  V30 14645 H 1374.12 -4.78025 3.02503 0
M  V30 14646 H 1372.68 -5.29271 3.80415 0
M  V30 14647 N 1376.11 -1.55841 -0.234795 0
M  V30 14648 C 1377.36 -1.78502 -0.96254 0
M  V30 14649 C 1377.69 -0.605832 -1.84508 0
M  V30 14650 O 1376.97 0.395446 -1.90438 0
M  V30 14651 C 1377.25 -3.11144 -1.81277 0
M  V30 14652 C 1377.1 -4.39488 -0.957607 0
M  V30 14653 C 1378.42 -3.40114 -2.79304 0
M  V30 14654 H 1375.54 -0.649397 -0.348501 0
M  V30 14655 H 1378.18 -1.88575 -0.23224 0
M  V30 14656 H 1376.33 -3.02687 -2.43542 0
M  V30 14657 H 1378 -4.59949 -0.352726 0
M  V30 14658 H 1376.25 -4.33005 -0.262454 0
M  V30 14659 H 1376.92 -5.28707 -1.58659 0
M  V30 14660 H 1379.39 -3.48612 -2.27175 0
M  V30 14661 H 1378.27 -4.34118 -3.35906 0
M  V30 14662 H 1378.53 -2.61623 -3.56378 0
M  V30 14663 N 1377.59 0.500963 -1.49426 0
M  V30 14664 C 1378.82 1.27911 -1.62624 0
M  V30 14665 C 1379.23 1.86439 -0.297651 0
M  V30 14666 O 1378.59 1.67831 0.716879 0
M  V30 14667 C 1378.64 2.40934 -2.69505 0
M  V30 14668 O 1378.36 1.84811 -3.97211 0
M  V30 14669 C 1379.86 3.32305 -2.93408 0
M  V30 14670 H 1377.08 0.387951 -0.547481 0
M  V30 14671 H 1379.63 0.601372 -1.95458 0
M  V30 14672 H 1377.78 3.04537 -2.39449 0
M  V30 14673 H 1378.2 2.59011 -4.56085 0
M  V30 14674 H 1379.67 4.0789 -3.71927 0
M  V30 14675 H 1380.15 3.89301 -2.03325 0
M  V30 14676 H 1380.75 2.74467 -3.24881 0
M  V30 14677 N 1379.07 1.38501 0.752011 0
M  V30 14678 C 1380 1.30236 1.87387 0
M  V30 14679 C 1380.98 0.179099 1.61611 0
M  V30 14680 O 1382.16 0.356686 1.85095 0
M  V30 14681 C 1379.29 1.01829 3.2303 0
M  V30 14682 C 1378.34 2.16114 3.67691 0
M  V30 14683 S 1379.17 3.78266 3.79044 0
M  V30 14684 C 1380.32 3.5205 5.17505 0
M  V30 14685 H 1380.56 2.25185 1.94111 0
M  V30 14686 H 1378.09 1.24356 0.915152 0
M  V30 14687 H 1380.05 0.861231 4.01364 0
M  V30 14688 H 1378.71 0.0859612 3.13982 0
M  V30 14689 H 1377.9 1.91788 4.66083 0
M  V30 14690 H 1377.5 2.27936 2.96515 0
M  V30 14691 H 1379.8 3.08262 6.03308 0
M  V30 14692 H 1380.74 4.49842 5.46853 0
M  V30 14693 H 1381.15 2.86528 4.86377 0
M  V30 14694 N 1380.55 -0.980364 1.23396 0
M  V30 14695 C 1381.78 -1.75434 1.09117 0
M  V30 14696 C 1382.18 -1.85739 -0.360243 0
M  V30 14697 O 1381.53 -1.33585 -1.26098 0
M  V30 14698 C 1381.59 -3.19795 1.6423 0
M  V30 14699 C 1381.25 -3.32999 3.12986 0
M  V30 14700 C 1382.25 -3.19321 4.1028 0
M  V30 14701 C 1379.93 -3.57647 3.52695 0
M  V30 14702 C 1381.93 -3.30096 5.45266 0
M  V30 14703 C 1379.62 -3.68061 4.87826 0
M  V30 14704 C 1380.61 -3.54295 5.83921 0
M  V30 14705 O 1380.3 -3.6434 7.16597 0
M  V30 14706 H 1380.03 -0.557382 0.382494 0
M  V30 14707 H 1382.59 -1.24038 1.63718 0
M  V30 14708 H 1380.82 -3.72439 1.04049 0
M  V30 14709 H 1382.51 -3.78954 1.45427 0
M  V30 14710 H 1383.27 -3.00177 3.80945 0
M  V30 14711 H 1379.15 -3.67433 2.78413 0
M  V30 14712 H 1382.7 -3.19268 6.20253 0
M  V30 14713 H 1378.59 -3.86715 5.16838 0
M  V30 14714 H 1379.36 -3.81135 7.24347 0
M  V30 14715 N 1382.02 -1.04567 -1.17913 0
M  V30 14716 C 1383.3 -0.666082 -1.8391 0
M  V30 14717 C 1383.68 0.854062 -1.93052 0
M  V30 14718 O 1383.03 1.75752 -1.46026 0
M  V30 14719 C 1383.24 -1.34776 -3.21926 0
M  V30 14720 C 1384.59 -1.48177 -3.97905 0
M  V30 14721 O 1385.61 -1.30627 -3.31384 0
M  V30 14722 O 1384.47 -1.76822 -5.17104 0
M  V30 14723 H 1381.56 -0.233694 -0.793294 0
M  V30 14724 H 1384.11 -1.14487 -1.25263 0
M  V30 14725 H 1382.88 -2.38514 -3.10204 0
M  V30 14726 H 1382.5 -0.857914 -3.88234 0
M  V30 14727 N 1383.5 1.34231 -0.825823 0
M  V30 14728 C 1384.73 2.02124 -0.427727 0
M  V30 14729 C 1385.14 1.62331 0.971869 0
M  V30 14730 O 1384.48 0.825946 1.64085 0
M  V30 14731 C 1384.54 3.56626 -0.453698 0
M  V30 14732 C 1384.21 4.19752 -1.80713 0
M  V30 14733 C 1385.21 4.40062 -2.76842 0
M  V30 14734 C 1382.89 4.5646 -2.09641 0
M  V30 14735 C 1384.88 4.9621 -4.00069 0
M  V30 14736 C 1382.57 5.12318 -3.33127 0
M  V30 14737 C 1383.57 5.32137 -4.28158 0
M  V30 14738 O 1383.26 5.86811 -5.49462 0
M  V30 14739 H 1382.99 0.654389 -0.169563 0
M  V30 14740 H 1385.54 1.72421 -1.11624 0
M  V30 14741 H 1383.77 3.856 0.291527 0
M  V30 14742 H 1385.46 4.0583 -0.075249 0
M  V30 14743 H 1386.23 4.12064 -2.5579 0
M  V30 14744 H 1382.11 4.40337 -1.36473 0
M  V30 14745 H 1385.65 5.11594 -4.74254 0
M  V30 14746 H 1381.55 5.39746 -3.54041 0
M  V30 14747 H 1382.32 6.05242 -5.51022 0
M  V30 14748 N 1384.98 0.581051 1.46498 0
M  V30 14749 C 1385.91 -0.19094 2.28403 0
M  V30 14750 C 1386.92 -0.857039 1.38415 0
M  V30 14751 O 1388.11 -0.726881 1.6303 0
M  V30 14752 C 1385.21 -1.28972 3.134 0
M  V30 14753 C 1384.39 -0.715867 4.31502 0
M  V30 14754 C 1383.45 -1.70215 4.97909 0
M  V30 14755 O 1382.47 -1.23885 5.55555 0
M  V30 14756 N 1383.67 -3.0362 4.94768 0
M  V30 14757 H 1386.44 0.511754 2.95298 0
M  V30 14758 H 1384 0.41871 1.56392 0
M  V30 14759 H 1385.99 -1.94877 3.5469 0
M  V30 14760 H 1384.56 -1.8953 2.4859 0
M  V30 14761 H 1383.78 0.120591 3.94016 0
M  V30 14762 H 1385.07 -0.312226 5.07841 0
M  V30 14763 H 1384.47 -3.43885 4.49177 0
M  V30 14764 H 1383.02 -3.65018 5.40005 0
M  V30 14765 N 1386.46 -1.54343 0.318742 0
M  V30 14766 C 1387.42 -2.22828 -0.536679 0
M  V30 14767 C 1388.42 -1.22013 -1.04735 0
M  V30 14768 O 1389.61 -1.46626 -0.940549 0
M  V30 14769 C 1386.74 -2.92857 -1.74493 0
M  V30 14770 H 1387.94 -2.99836 0.0619325 0
M  V30 14771 H 1385.49 -1.56144 0.0697687 0
M  V30 14772 H 1386.22 -2.19973 -2.3829 0
M  V30 14773 H 1386.01 -3.66779 -1.38621 0
M  V30 14774 H 1387.5 -3.45049 -2.35225 0
M  V30 14775 N 1387.94 -0.0468143 -1.5753 0
M  V30 14776 C 1388.87 0.96433 -2.06823 0
M  V30 14777 C 1389.85 1.30663 -0.967783 0
M  V30 14778 O 1391.03 1.42025 -1.2394 0
M  V30 14779 C 1388.16 2.27954 -2.50509 0
M  V30 14780 C 1387.2 2.0906 -3.71748 0
M  V30 14781 S 1388.04 1.373 -5.17599 0
M  V30 14782 C 1389.19 2.70153 -5.64596 0
M  V30 14783 H 1389.43 0.544801 -2.92266 0
M  V30 14784 H 1386.96 0.16534 -1.53512 0
M  V30 14785 H 1388.92 3.03555 -2.76342 0
M  V30 14786 H 1387.58 2.67036 -1.65381 0
M  V30 14787 H 1386.77 3.06333 -4.0022 0
M  V30 14788 H 1386.37 1.41599 -3.46158 0
M  V30 14789 H 1388.66 3.66337 -5.69915 0
M  V30 14790 H 1389.61 2.46322 -6.63876 0
M  V30 14791 H 1390.02 2.76212 -4.92308 0
M  V30 14792 N 1389.41 1.55964 0.226527 0
M  V30 14793 C 1390.65 1.80518 0.958774 0
M  V30 14794 C 1391.02 0.619549 1.81729 0
M  V30 14795 O 1392.22 0.744294 2.5829 0
M  V30 14796 C 1390.49 3.09939 1.77968 0
M  V30 14797 S 1392.05 3.5579 2.56824 0
M  V30 14798 H 1388.87 0.633829 0.322151 0
M  V30 14799 H 1391.47 1.94203 0.224786 0
M  V30 14800 H 1390.17 3.94277 1.13903 0
M  V30 14801 H 1389.7 2.99047 2.55605 0
M  V30 14802 H 1391.72 3.18734 3.80293 0
M  V30 14803 N 1390.89 -0.493031 1.4969 0
M  V30 14804 C 1391.84 -1.59367 1.66945 0
M  V30 14805 C 1392.81 -1.58049 0.510842 0
M  V30 14806 O 1393.99 -1.75915 0.738822 0
M  V30 14807 C 1391.13 -2.97472 1.74941 0
M  V30 14808 C 1390.25 -3.08745 3.02159 0
M  V30 14809 C 1389.38 -4.37632 3.01085 0
M  V30 14810 C 1388.42 -4.42567 4.22849 0
M  V30 14811 N 1387.56 -5.62892 4.19639 0
M  V30 14812 H 1392.4 -1.4396 2.6092 0
M  V30 14813 H 1389.94 -0.700297 1.29361 0
M  V30 14814 H 1391.89 -3.7753 1.77558 0
M  V30 14815 H 1390.52 -3.11564 0.844252 0
M  V30 14816 H 1389.58 -2.217 3.09117 0
M  V30 14817 H 1390.89 -3.08251 3.92151 0
M  V30 14818 H 1390.04 -5.26018 3.02309 0
M  V30 14819 H 1388.78 -4.40702 2.08885 0
M  V30 14820 H 1387.79 -3.52581 4.21861 0
M  V30 14821 H 1389.01 -4.41205 5.1625 0
M  V30 14822 H 1386.96 -5.6679 3.30281 0
M  V30 14823 H 1386.87 -5.64048 5.03374 0
M  V30 14824 H 1388.14 -6.53464 4.24977 0
M  V30 14825 N 1392.37 -1.38898 -0.744656 0
M  V30 14826 C 1393.78 -1.31789 -1.32244 0
M  V30 14827 C 1394.13 0.0222208 -1.96187 0
M  V30 14828 O 1393.26 0.924328 -1.95666 0
M  V30 14829 C 1393.85 -2.38674 -2.40458 0
M  V30 14830 C 1392.41 -2.35116 -2.93935 0
M  V30 14831 C 1391.56 -2.21069 -1.67403 0
M  V30 14832 H 1394.51 -1.49126 -0.54287 0
M  V30 14833 H 1394.53 -2.04905 -3.20615 0
M  V30 14834 H 1394.04 -3.36197 -1.9389 0
M  V30 14835 H 1392.14 -1.41201 -3.44809 0
M  V30 14836 H 1392.26 -3.29602 -3.47706 0
M  V30 14837 H 1390.62 -1.68074 -1.91372 0
M  V30 14838 H 1391.4 -3.20547 -1.229 0
M  V30 14839 N 1393.85 0.973806 -1.23914 0
M  V30 14840 C 1395.07 1.7564 -1.10296 0
M  V30 14841 C 1395.5 1.84984 0.340954 0
M  V30 14842 O 1394.86 1.31629 1.24674 0
M  V30 14843 C 1394.9 3.15809 -1.7406 0
M  V30 14844 O 1394.01 3.99911 -1.00722 0
M  V30 14845 H 1393.35 0.540133 -0.386202 0
M  V30 14846 H 1395.88 1.22197 -1.64101 0
M  V30 14847 H 1395.89 3.66359 -1.79568 0
M  V30 14848 H 1394.56 3.08324 -2.79122 0
M  V30 14849 H 1393.14 3.58405 -1.02956 0
M  V30 14850 N 1395.33 1.05191 1.17357 0
M  V30 14851 C 1396.55 0.782343 1.92079 0
M  V30 14852 C 1396.98 -0.655957 1.76292 0
M  V30 14853 O 1396.33 -1.45573 1.08065 0
M  V30 14854 C 1396.38 1.16777 3.41168 0
M  V30 14855 O 1395.49 0.299908 4.11308 0
M  V30 14856 H 1394.83 0.286894 0.598822 0
M  V30 14857 H 1397.36 1.40476 1.48754 0
M  V30 14858 H 1397.37 1.13454 3.91909 0
M  V30 14859 H 1396.04 2.2155 3.51978 0
M  V30 14860 H 1394.62 0.393744 3.70815 0
M  V30 14861 N 1396.8 -1.33791 0.83293 0
M  V30 14862 C 1397.75 -2.26795 0.234069 0
M  V30 14863 C 1398.74 -1.48991 -0.60749 0
M  V30 14864 O 1399.93 -1.70907 -0.46043 0
M  V30 14865 C 1397.06 -3.38107 -0.594863 0
M  V30 14866 C 1396.15 -4.23315 0.257877 0
M  V30 14867 N 1396.54 -4.87899 1.33373 0
M  V30 14868 C 1394.83 -4.45978 0.0438997 0
M  V30 14869 C 1395.54 -5.51278 1.85655 0
M  V30 14870 N 1394.51 -5.31103 1.15892 0
M  V30 14871 H 1398.31 -2.7424 1.05688 0
M  V30 14872 H 1395.83 -1.47627 0.676767 0
M  V30 14873 H 1397.82 -4.03716 -1.04014 0
M  V30 14874 H 1396.48 -2.92212 -1.41571 0
M  V30 14875 H 1397.5 -4.88624 1.71659 0
M  V30 14876 H 1394.17 -4.10818 -0.743985 0
M  V30 14877 H 1395.56 -6.12723 2.75717 0
M  V30 14878 N 1398.28 -0.588812 -1.46187 0
M  V30 14879 C 1399.23 0.161973 -2.27424 0
M  V30 14880 C 1400.22 0.856178 -1.36229 0
M  V30 14881 O 1401.41 0.749266 -1.60359 0
M  V30 14882 C 1398.54 1.17104 -3.2271 0
M  V30 14883 C 1397.62 0.478637 -4.2139 0
M  V30 14884 N 1398.01 -0.46921 -5.03619 0
M  V30 14885 C 1396.31 0.728608 -4.40008 0
M  V30 14886 C 1397.01 -0.874455 -5.7509 0
M  V30 14887 N 1395.99 -0.222267 -5.43145 0
M  V30 14888 H 1399.79 -0.566306 -2.88392 0
M  V30 14889 H 1397.31 -0.41106 -1.57112 0
M  V30 14890 H 1399.3 1.72314 -3.79623 0
M  V30 14891 H 1397.96 1.90008 -2.63301 0
M  V30 14892 H 1398.97 -0.84504 -5.10959 0
M  V30 14893 H 1395.65 1.44375 -3.91742 0
M  V30 14894 H 1397.04 -1.65514 -6.51195 0
M  V30 14895 N 1399.76 1.54172 -0.326923 0
M  V30 14896 C 1400.71 2.21189 0.553126 0
M  V30 14897 C 1401.69 1.19356 1.07903 0
M  V30 14898 O 1402.89 1.44972 1.01549 0
M  V30 14899 C 1400.02 2.97573 1.71188 0
M  V30 14900 C 1399.1 4.06748 1.20071 0
M  V30 14901 N 1399.49 5.0414 0.409473 0
M  V30 14902 C 1397.79 4.20759 1.47913 0
M  V30 14903 C 1398.49 5.81546 0.134036 0
M  V30 14904 N 1397.47 5.38796 0.721097 0
M  V30 14905 H 1401.27 2.93841 -0.0586462 0
M  V30 14906 H 1398.78 1.61855 -0.132947 0
M  V30 14907 H 1400.78 3.44072 2.35415 0
M  V30 14908 H 1399.44 2.26443 2.32709 0
M  V30 14909 H 1400.45 5.17874 0.0520181 0
M  V30 14910 H 1397.13 3.60844 2.09995 0
M  V30 14911 H 1398.52 6.70013 -0.503156 0
M  V30 14912 N 1401.24 0.0551678 1.57503 0
M  V30 14913 C 1402.46 -0.630692 1.97578 0
M  V30 14914 C 1402.89 -1.63348 0.932686 0
M  V30 14915 O 1402.25 -1.81004 -0.103632 0
M  V30 14916 C 1402.29 -1.29049 3.36718 0
M  V30 14917 O 1401.4 -2.40621 3.34926 0
M  V30 14918 H 1400.74 -0.163625 0.643524 0
M  V30 14919 H 1403.27 0.124753 2.04219 0
M  V30 14920 H 1403.28 -1.64124 3.73534 0
M  V30 14921 H 1401.95 -0.55559 4.12172 0
M  V30 14922 H 1400.53 -2.07463 3.0986 0
M  V30 14923 N 1402.72 -1.56081 -0.218252 0
M  V30 14924 C 1403.68 -1.91851 -1.25402 0
M  V30 14925 C 1404.68 -0.797399 -1.39636 0
M  V30 14926 O 1405.87 -1.06511 -1.37844 0
M  V30 14927 C 1403 -2.17223 -2.6273 0
M  V30 14928 H 1404.19 -2.84493 -0.948882 0
M  V30 14929 H 1401.75 -1.49414 -0.458809 0
M  V30 14930 H 1402.48 -1.27144 -2.98337 0
M  V30 14931 H 1402.27 -2.98899 -2.53775 0
M  V30 14932 H 1403.76 -2.45981 -3.37466 0
M  V30 14933 N 1404.2 0.485086 -1.49949 0
M  V30 14934 C 1405.16 1.56713 -1.67253 0
M  V30 14935 C 1406.16 1.51329 -0.543701 0
M  V30 14936 O 1407.35 1.54198 -0.810472 0
M  V30 14937 C 1404.48 2.9636 -1.68475 0
M  V30 14938 H 1405.67 1.42693 -2.63778 0
M  V30 14939 H 1403.23 0.710473 -1.39219 0
M  V30 14940 H 1403.96 3.1584 -0.735924 0
M  V30 14941 H 1403.75 3.01675 -2.50469 0
M  V30 14942 H 1405.24 3.74945 -1.83865 0
M  V30 14943 N 1405.67 1.39291 0.737279 0
M  V30 14944 C 1406.61 1.33728 1.86144 0
M  V30 14945 C 1407.62 0.246468 1.60924 0
M  V30 14946 O 1408.81 0.505252 1.712 0
M  V30 14947 C 1405.91 1.05312 3.22122 0
M  V30 14948 C 1405.08 2.25624 3.74716 0
M  V30 14949 C 1404.14 1.937 4.89251 0
M  V30 14950 O 1403.17 2.66361 5.03031 0
M  V30 14951 N 1404.37 0.901782 5.73453 0
M  V30 14952 H 1407.13 2.30604 1.91421 0
M  V30 14953 H 1404.69 1.33364 0.917919 0
M  V30 14954 H 1406.69 0.819784 3.9631 0
M  V30 14955 H 1405.26 0.171773 3.12128 0
M  V30 14956 H 1404.48 2.64923 2.91906 0
M  V30 14957 H 1405.76 3.05881 4.06589 0
M  V30 14958 H 1405.16 0.299553 5.64906 0
M  V30 14959 H 1403.72 0.728344 6.47718 0
M  V30 14960 N 1407.15 -0.967221 1.24429 0
M  V30 14961 C 1408.56 -1.52488 1.07723 0
M  V30 14962 C 1408.91 -1.93031 -0.351191 0
M  V30 14963 O 1408.04 -1.77376 -1.23963 0
M  V30 14964 C 1408.63 -2.77107 1.94929 0
M  V30 14965 C 1407.19 -3.29227 1.82446 0
M  V30 14966 C 1406.34 -2.02133 1.89835 0
M  V30 14967 H 1409.29 -0.785465 1.37899 0
M  V30 14968 H 1409.31 -3.50459 1.48186 0
M  V30 14969 H 1408.82 -2.47567 2.98885 0
M  V30 14970 H 1406.92 -3.63617 0.813246 0
M  V30 14971 H 1407.04 -3.98095 2.66566 0
M  V30 14972 H 1405.4 -2.16867 1.3357 0
M  V30 14973 H 1406.18 -1.74958 2.95372 0
M  V30 14974 N 1408.63 -1.05812 -1.16797 0
M  V30 14975 C 1409.56 -0.685778 -2.23202 0
M  V30 14976 C 1410.54 0.319428 -1.67074 0
M  V30 14977 O 1411.73 0.195635 -1.93212 0
M  V30 14978 C 1408.86 -0.0662958 -3.47237 0
M  V30 14979 C 1407.81 -0.996943 -4.16227 0
M  V30 14980 C 1407.14 -0.241015 -5.34157 0
M  V30 14981 C 1408.44 -2.32384 -4.67755 0
M  V30 14982 H 1410.13 -1.57535 -2.54604 0
M  V30 14983 H 1407.68 -0.758909 -1.22379 0
M  V30 14984 H 1409.63 0.206024 -4.20896 0
M  V30 14985 H 1408.35 0.858263 -3.15121 0
M  V30 14986 H 1407.01 -1.25393 -3.44488 0
M  V30 14987 H 1406.66 0.686508 -4.98293 0
M  V30 14988 H 1406.36 -0.861188 -5.81255 0
M  V30 14989 H 1407.88 0.0238739 -6.10595 0
M  V30 14990 H 1409.3 -2.11099 -5.3302 0
M  V30 14991 H 1407.69 -2.89855 -5.25456 0
M  V30 14992 H 1408.76 -2.958 -3.84227 0
M  V30 14993 N 1410.11 1.33347 -0.840014 0
M  V30 14994 C 1411.35 1.98037 -0.43692 0
M  V30 14995 C 1411.69 1.66382 1.00154 0
M  V30 14996 O 1410.96 0.944311 1.70038 0
M  V30 14997 C 1411.24 3.54012 -0.65937 0
M  V30 14998 C 1411.1 3.9535 -2.14518 0
M  V30 14999 C 1412.42 4.39972 -0.106258 0
M  V30 15000 H 1409.54 0.719373 -0.160221 0
M  V30 15001 H 1412.18 1.57969 -1.05574 0
M  V30 15002 H 1410.33 3.88274 -0.132633 0
M  V30 15003 H 1412 3.7134 -2.73687 0
M  V30 15004 H 1410.24 3.4504 -2.62926 0
M  V30 15005 H 1410.91 5.03992 -2.25158 0
M  V30 15006 H 1413.39 4.12362 -0.556511 0
M  V30 15007 H 1412.27 5.48125 -0.291583 0
M  V30 15008 H 1412.53 4.30872 0.990032 0
M  V30 15009 N 1411.59 0.596556 1.45873 0
M  V30 15010 C 1412.81 0.0916466 2.07197 0
M  V30 15011 C 1413.24 -1.21004 1.44012 0
M  V30 15012 O 1412.59 -1.73415 0.528844 0
M  V30 15013 C 1412.64 -0.0461457 3.6057 0
M  V30 15014 O 1411.75 -1.09919 3.97481 0
M  V30 15015 H 1411.09 0.0690655 0.660398 0
M  V30 15016 H 1413.62 0.823434 1.87299 0
M  V30 15017 H 1413.63 -0.2479 4.07246 0
M  V30 15018 H 1412.3 0.904381 4.05948 0
M  V30 15019 H 1410.88 -0.874788 3.62494 0
M  V30 15020 N 1413.06 -1.53996 0.335095 0
M  V30 15021 C 1414.47 -1.86092 -0.15058 0
M  V30 15022 C 1414.83 -1.25652 -1.50685 0
M  V30 15023 O 1413.95 -0.566887 -2.08843 0
M  V30 15024 C 1414.55 -3.37641 -0.280007 0
M  V30 15025 C 1413.1 -3.69645 -0.709907 0
M  V30 15026 C 1412.25 -2.7683 0.161461 0
M  V30 15027 H 1415.2 -1.4868 0.554986 0
M  V30 15028 H 1415.22 -3.63981 -1.10896 0
M  V30 15029 H 1414.74 -3.81601 0.707254 0
M  V30 15030 H 1412.84 -3.31224 -1.7065 0
M  V30 15031 H 1412.95 -4.76424 -0.505661 0
M  V30 15032 H 1411.31 -2.52073 -0.364849 0
M  V30 15033 H 1412.1 -3.23618 1.1457 0
M  V30 15034 N 1414.54 -0.0635198 -1.57472 0
M  V30 15035 C 1415.79 0.607008 -1.92349 0
M  V30 15036 C 1416.1 1.71268 -0.944806 0
M  V30 15037 O 1417.31 2.44221 -1.18609 0
M  V30 15038 C 1415.77 1.13105 -3.41666 0
M  V30 15039 C 1415.37 0.0568256 -4.47964 0
M  V30 15040 C 1417.12 1.77611 -3.85557 0
M  V30 15041 C 1415.02 0.594443 -5.88405 0
M  V30 15042 H 1413.95 0.230506 -0.717902 0
M  V30 15043 H 1416.61 -0.134413 -1.83007 0
M  V30 15044 H 1414.99 1.92517 -3.46054 0
M  V30 15045 H 1416.16 -0.717371 -4.55182 0
M  V30 15046 H 1414.48 -0.491517 -4.13489 0
M  V30 15047 H 1417.07 2.18852 -4.87861 0
M  V30 15048 H 1417.42 2.6328 -3.22474 0
M  V30 15049 H 1417.95 1.04834 -3.83738 0
M  V30 15050 H 1414.69 -0.224893 -6.55114 0
M  V30 15051 H 1414.21 1.33635 -5.84724 0
M  V30 15052 H 1415.89 1.07346 -6.38033 0
M  V30 15053 N 1416.02 1.56195 0.209972 0
M  V30 15054 C 1417.24 1.84189 0.953364 0
M  V30 15055 C 1417.67 0.645288 1.76685 0
M  V30 15056 O 1417.03 -0.405962 1.76696 0
M  V30 15057 C 1417.08 3.10281 1.83733 0
M  V30 15058 O 1416.18 2.89788 2.93422 0
M  V30 15059 H 1415.52 0.606931 0.269314 0
M  V30 15060 H 1418.05 2.03416 0.219783 0
M  V30 15061 H 1418.06 3.40688 2.2449 0
M  V30 15062 H 1416.74 3.97 1.23951 0
M  V30 15063 H 1415.31 2.70643 2.56528 0
M  V30 15064 N 1417.5 -0.477127 1.50204 0
M  V30 15065 C 1418.46 -1.55824 1.68082 0
M  V30 15066 C 1419.46 -1.51039 0.551719 0
M  V30 15067 O 1420.65 -1.53766 0.818638 0
M  V30 15068 C 1417.78 -2.95462 1.70044 0
M  V30 15069 H 1418.98 -1.41292 2.64531 0
M  V30 15070 H 1416.53 -0.70308 1.39594 0
M  V30 15071 H 1417.26 -3.15445 0.752663 0
M  V30 15072 H 1417.05 -3.00343 2.52065 0
M  V30 15073 H 1418.54 -3.73964 1.85851 0
M  V30 15074 N 1418.98 -1.3968 -0.729882 0
M  V30 15075 C 1420.22 -1.37182 -1.48954 0
M  V30 15076 C 1420.55 0.0305728 -1.94476 0
M  V30 15077 O 1419.81 1.0124 -1.67478 0
M  V30 15078 C 1420.11 -2.29499 -2.7398 0
M  V30 15079 C 1419.77 -3.77034 -2.47298 0
M  V30 15080 C 1418.43 -4.17232 -2.39731 0
M  V30 15081 C 1420.79 -4.70325 -2.24597 0
M  V30 15082 C 1418.11 -5.48777 -2.07511 0
M  V30 15083 C 1420.47 -6.02153 -1.93893 0
M  V30 15084 C 1419.13 -6.41409 -1.84798 0
M  V30 15085 H 1418.4 -0.501985 -0.545061 0
M  V30 15086 H 1421.05 -1.72226 -0.837294 0
M  V30 15087 H 1419.35 -1.87592 -3.43972 0
M  V30 15088 H 1421.05 -2.24857 -3.32024 0
M  V30 15089 H 1417.64 -3.45177 -2.54069 0
M  V30 15090 H 1421.82 -4.40097 -2.29408 0
M  V30 15091 H 1417.08 -5.78109 -1.98996 0
M  V30 15092 H 1421.25 -6.73966 -1.75337 0
M  V30 15093 H 1418.88 -7.43258 -1.59598 0
M  V30 15094 N 1420.45 0.960609 -1.2494 0
M  V30 15095 C 1421.38 2.074 -1.07274 0
M  V30 15096 C 1422.37 1.70092 0.0164365 0
M  V30 15097 O 1423.55 1.93604 -0.151975 0
M  V30 15098 C 1420.68 3.40491 -0.684317 0
M  V30 15099 C 1419.63 3.91784 -1.72306 0
M  V30 15100 C 1418.96 5.21301 -1.18949 0
M  V30 15101 C 1420.26 4.18829 -3.12056 0
M  V30 15102 H 1421.95 2.22438 -2.00404 0
M  V30 15103 H 1419.5 1.06888 -0.964937 0
M  V30 15104 H 1421.45 4.17826 -0.547686 0
M  V30 15105 H 1420.18 3.25374 0.282687 0
M  V30 15106 H 1418.84 3.16613 -1.84802 0
M  V30 15107 H 1418.48 5.02549 -0.212892 0
M  V30 15108 H 1418.18 5.56588 -1.8837 0
M  V30 15109 H 1419.71 6.01238 -1.06513 0
M  V30 15110 H 1421.12 4.86844 -3.02748 0
M  V30 15111 H 1419.52 4.6536 -3.78894 0
M  V30 15112 H 1420.59 3.25333 -3.59564 0
M  V30 15113 N 1421.93 1.0643 1.16234 0
M  V30 15114 C 1423.16 0.802644 1.90697 0
M  V30 15115 C 1423.58 -0.643145 1.77508 0
M  V30 15116 O 1422.93 -1.4404 1.12065 0
M  V30 15117 C 1422.98 1.18984 3.41358 0
M  V30 15118 O 1422.7 2.5789 3.54153 0
M  V30 15119 C 1424.21 0.956132 4.32866 0
M  V30 15120 H 1421.43 0.290891 0.604668 0
M  V30 15121 H 1423.97 1.41829 1.47325 0
M  V30 15122 H 1422.12 0.618703 3.82428 0
M  V30 15123 H 1422.54 2.73431 4.47589 0
M  V30 15124 H 1424.01 1.27667 5.37034 0
M  V30 15125 H 1424.49 -0.108062 4.39067 0
M  V30 15126 H 1425.1 1.51172 3.97526 0
M  V30 15127 N 1423.41 -1.329 0.847073 0
M  V30 15128 C 1424.37 -2.27341 0.291324 0
M  V30 15129 C 1425.37 -1.51295 -0.544653 0
M  V30 15130 O 1426.56 -1.70497 -0.357258 0
M  V30 15131 C 1423.7 -3.35779 -0.588668 0
M  V30 15132 H 1424.89 -2.78009 1.12477 0
M  V30 15133 H 1422.44 -1.43442 0.620803 0
M  V30 15134 H 1423.18 -2.90366 -1.44423 0
M  V30 15135 H 1422.96 -3.92099 0.00960515 0
M  V30 15136 H 1424.45 -4.06166 -0.970526 0
M  V30 15137 N 1424.89 -0.604284 -1.45555 0
M  V30 15138 C 1426.12 -0.104452 -2.06636 0
M  V30 15139 C 1426.53 1.20976 -1.44949 0
M  V30 15140 O 1425.89 1.73616 -0.562468 0
M  V30 15141 C 1425.94 0.0451646 -3.61472 0
M  V30 15142 O 1425.66 -1.21705 -4.20856 0
M  V30 15143 C 1427.16 0.57684 -4.39531 0
M  V30 15144 H 1424.38 -0.067326 -0.667614 0
M  V30 15145 H 1426.93 -0.831079 -1.86851 0
M  V30 15146 H 1425.08 0.722104 -3.80611 0
M  V30 15147 H 1425.49 -1.04462 -5.13992 0
M  V30 15148 H 1426.97 0.630627 -5.48386 0
M  V30 15149 H 1427.45 1.59842 -4.09081 0
M  V30 15150 H 1428.05 -0.0659444 -4.25249 0
M  V30 15151 N 1426.37 1.53816 -0.343257 0
M  V30 15152 C 1427.78 1.59598 0.00867849 0
M  V30 15153 C 1427.98 1.35922 1.48753 0
M  V30 15154 O 1427.04 1.15334 2.2462 0
M  V30 15155 C 1428.35 2.97649 -0.427234 0
M  V30 15156 C 1429.9 3.1069 -0.379554 0
M  V30 15157 C 1430.37 4.51119 -0.79093 0
M  V30 15158 N 1431.87 4.57168 -0.745105 0
M  V30 15159 C 1432.6 5.63975 -1.03537 0
M  V30 15160 N 1432.1 6.78635 -1.39377 0
M  V30 15161 N 1433.89 5.53848 -0.959628 0
M  V30 15162 H 1426.04 1.6746 -1.30656 0
M  V30 15163 H 1428.3 0.784254 -0.532588 0
M  V30 15164 H 1428.01 3.2004 -1.45834 0
M  V30 15165 H 1427.88 3.76682 0.197704 0
M  V30 15166 H 1430.27 2.88024 0.642376 0
M  V30 15167 H 1430.35 2.33718 -1.03969 0
M  V30 15168 H 1430 4.74521 -1.81087 0
M  V30 15169 H 1429.93 5.26489 -0.108274 0
M  V30 15170 H 1432.42 3.7483 -0.480752 0
M  V30 15171 H 1432.73 7.56053 -1.60011 0
M  V30 15172 H 1431.07 6.80083 -1.43222 0
M  V30 15173 H 1434.27 4.6315 -0.678974 0
M  V30 15174 H 1434.44 6.36995 -1.18919 0
M  V30 15175 N 1427.84 0.0718701 1.57436 0
M  V30 15176 C 1429.09 -0.592107 1.94591 0
M  V30 15177 C 1429.45 -1.67215 0.951678 0
M  V30 15178 O 1428.74 -1.91582 -0.0260281 0
M  V30 15179 C 1428.93 -1.21336 3.36173 0
M  V30 15180 C 1428.76 -0.195025 4.49277 0
M  V30 15181 C 1427.53 0.220335 5.04819 0
M  V30 15182 C 1429.73 0.567752 5.11157 0
M  V30 15183 N 1427.71 1.22937 6.01465 0
M  V30 15184 C 1429.08 1.42926 6.03301 0
M  V30 15185 C 1431.14 0.623812 4.93977 0
M  V30 15186 C 1429.84 2.34185 6.8011 0
M  V30 15187 C 1431.87 1.52391 5.71429 0
M  V30 15188 C 1431.23 2.3731 6.63222 0
M  V30 15189 H 1427.33 -0.187692 0.759141 0
M  V30 15190 H 1429.91 0.149031 1.94129 0
M  V30 15191 H 1428.08 -1.92442 3.37373 0
M  V30 15192 H 1429.81 -1.83781 3.60564 0
M  V30 15193 H 1426.57 -0.162798 4.7332 0
M  V30 15194 H 1426.99 1.7314 6.54486 0
M  V30 15195 H 1431.64 -0.0185243 4.22796 0
M  V30 15196 H 1429.35 2.99455 7.50568 0
M  V30 15197 H 1432.94 1.57212 5.60157 0
M  V30 15198 H 1431.82 3.05829 7.22107 0
M  V30 15199 N 1429.32 -1.56304 -0.201686 0
M  V30 15200 C 1430.25 -1.97046 -1.25281 0
M  V30 15201 C 1431.23 -0.841458 -1.47829 0
M  V30 15202 O 1432.42 -1.10529 -1.59678 0
M  V30 15203 C 1429.55 -2.30429 -2.59845 0
M  V30 15204 C 1428.5 -3.46006 -2.5192 0
M  V30 15205 C 1427.83 -3.65047 -3.90697 0
M  V30 15206 C 1429.13 -4.80391 -2.04992 0
M  V30 15207 H 1430.82 -2.85099 -0.914272 0
M  V30 15208 H 1428.37 -1.37166 -0.438359 0
M  V30 15209 H 1430.32 -2.57525 -3.33555 0
M  V30 15210 H 1429.05 -1.39251 -2.95426 0
M  V30 15211 H 1427.7 -3.18991 -1.80667 0
M  V30 15212 H 1427.35 -2.71211 -4.2362 0
M  V30 15213 H 1427.05 -4.42796 -3.86271 0
M  V30 15214 H 1428.58 -3.94512 -4.66039 0
M  V30 15215 H 1429.99 -5.06561 -2.68456 0
M  V30 15216 H 1428.39 -5.61563 -2.11582 0
M  V30 15217 H 1429.46 -4.74416 -1.00288 0
M  V30 15218 N 1430.8 0.469154 -1.50455 0
M  V30 15219 C 1431.73 1.57493 -1.7239 0
M  V30 15220 C 1432.71 1.60161 -0.572915 0
M  V30 15221 O 1433.9 1.76397 -0.812259 0
M  V30 15222 C 1431.03 2.95804 -1.81981 0
M  V30 15223 C 1429.98 3.08001 -2.97185 0
M  V30 15224 C 1429.31 4.4798 -2.91922 0
M  V30 15225 C 1430.61 2.85039 -4.37665 0
M  V30 15226 H 1432.3 1.39389 -2.64974 0
M  V30 15227 H 1429.85 0.669133 -1.27509 0
M  V30 15228 H 1431.8 3.73091 -1.95911 0
M  V30 15229 H 1430.52 3.15068 -0.86021 0
M  V30 15230 H 1429.18 2.33148 -2.82909 0
M  V30 15231 H 1428.83 4.64165 -1.93803 0
M  V30 15232 H 1428.53 4.57076 -3.69263 0
M  V30 15233 H 1430.05 5.27284 -3.07903 0
M  V30 15234 H 1431.47 3.52074 -4.52456 0
M  V30 15235 H 1429.87 3.05578 -5.16471 0
M  V30 15236 H 1430.94 1.8088 -4.499 0
M  V30 15237 N 1432.28 1.40065 0.722464 0
M  V30 15238 C 1433.21 1.35695 1.84715 0
M  V30 15239 C 1434.22 0.263522 1.60653 0
M  V30 15240 O 1435.41 0.523382 1.70655 0
M  V30 15241 C 1432.51 1.08722 3.20987 0
M  V30 15242 C 1431.69 2.29586 3.72302 0
M  V30 15243 C 1430.74 1.98879 4.87169 0
M  V30 15244 O 1429.77 2.71681 5.00178 0
M  V30 15245 N 1430.97 0.962554 5.72464 0
M  V30 15246 H 1433.74 2.32621 1.88964 0
M  V30 15247 H 1431.3 1.3433 0.903723 0
M  V30 15248 H 1433.29 0.861772 3.95418 0
M  V30 15249 H 1431.86 0.204869 3.11928 0
M  V30 15250 H 1431.08 2.68004 2.8908 0
M  V30 15251 H 1432.37 3.10176 4.03322 0
M  V30 15252 H 1431.77 0.359452 5.64557 0
M  V30 15253 H 1430.32 0.797003 6.46909 0
M  V30 15254 N 1433.76 -0.95397 1.25448 0
M  V30 15255 C 1434.67 -2.08452 1.07634 0
M  V30 15256 C 1435.68 -1.73995 0.013294 0
M  V30 15257 O 1436.86 -2.00256 0.214367 0
M  V30 15258 C 1433.92 -3.39606 0.697756 0
M  V30 15259 C 1432.99 -3.87926 1.83881 0
M  V30 15260 C 1432.22 -5.12821 1.47819 0
M  V30 15261 O 1432.44 -5.69172 0.374143 0
M  V30 15262 O 1431.38 -5.55866 2.3086 0
M  V30 15263 H 1435.2 -2.26382 2.02447 0
M  V30 15264 H 1432.79 -1.06877 1.04392 0
M  V30 15265 H 1434.67 -4.18438 0.498778 0
M  V30 15266 H 1433.34 -3.22944 -0.221108 0
M  V30 15267 H 1432.25 -3.10095 2.09265 0
M  V30 15268 H 1433.58 -4.09087 2.73694 0
M  V30 15269 N 1435.24 -1.07045 -1.15668 0
M  V30 15270 C 1436.17 -0.709413 -2.22463 0
M  V30 15271 C 1437.15 0.30169 -1.67403 0
M  V30 15272 O 1438.33 0.175131 -1.93409 0
M  V30 15273 C 1435.46 -0.103121 -3.47147 0
M  V30 15274 C 1434.42 -1.04103 -4.15146 0
M  V30 15275 C 1433.74 -0.297656 -5.33871 0
M  V30 15276 C 1435.04 -2.37332 -4.65264 0
M  V30 15277 H 1436.74 -1.60227 -2.52918 0
M  V30 15278 H 1434.28 -0.771846 -1.21567 0
M  V30 15279 H 1436.23 0.161371 -4.21091 0
M  V30 15280 H 1434.96 0.824792 -3.16014 0
M  V30 15281 H 1433.62 -1.2904 -3.43139 0
M  V30 15282 H 1433.27 0.633618 -4.98993 0
M  V30 15283 H 1432.97 -0.922789 -5.80309 0
M  V30 15284 H 1434.49 -0.0408892 -6.10586 0
M  V30 15285 H 1435.9 -2.1674 -5.30751 0
M  V30 15286 H 1434.3 -2.95412 -5.22352 0
M  V30 15287 H 1435.37 -2.99859 -3.81068 0
M  V30 15288 N 1436.71 1.32449 -0.85411 0
M  V30 15289 C 1437.96 1.97563 -0.4579 0
M  V30 15290 C 1438.29 1.67435 0.983835 0
M  V30 15291 O 1437.57 0.962292 1.69027 0
M  V30 15292 C 1437.85 3.53292 -0.69688 0
M  V30 15293 C 1437.7 3.93053 -2.18699 0
M  V30 15294 C 1439.02 4.39834 -0.152917 0
M  V30 15295 H 1436.14 0.717634 -0.167842 0
M  V30 15296 H 1438.78 1.5684 -1.07243 0
M  V30 15297 H 1436.93 3.88111 -0.173807 0
M  V30 15298 H 1438.61 3.68416 -2.7761 0
M  V30 15299 H 1436.85 3.42232 -2.6657 0
M  V30 15300 H 1437.52 5.01576 -2.3049 0
M  V30 15301 H 1440 4.11748 -0.600216 0
M  V30 15302 H 1438.87 5.47785 -0.349703 0
M  V30 15303 H 1439.13 4.31898 0.944276 0
M  V30 15304 N 1438.19 0.611994 1.45232 0
M  V30 15305 C 1439.12 -0.0914869 2.33321 0
M  V30 15306 C 1440.1 -0.854315 1.4709 0
M  V30 15307 O 1441.29 -0.823994 1.75852 0
M  V30 15308 C 1438.42 -1.08652 3.29867 0
M  V30 15309 C 1437.37 -0.436615 4.25767 0
M  V30 15310 C 1436.7 -1.54021 5.12037 0
M  V30 15311 C 1438 0.645005 5.18302 0
M  V30 15312 H 1439.69 0.644053 2.92391 0
M  V30 15313 H 1437.24 0.311171 1.40598 0
M  V30 15314 H 1439.19 -1.58726 3.90364 0
M  V30 15315 H 1437.91 -1.85271 2.68965 0
M  V30 15316 H 1436.57 0.0432918 3.66574 0
M  V30 15317 H 1436.22 -2.29679 4.475 0
M  V30 15318 H 1435.92 -1.11084 5.77005 0
M  V30 15319 H 1437.45 -2.04313 5.75403 0
M  V30 15320 H 1438.86 0.228166 5.72846 0
M  V30 15321 H 1437.26 0.996387 5.9177 0
M  V30 15322 H 1438.33 1.51985 4.60466 0
M  V30 15323 N 1439.67 -1.53632 0.351409 0
M  V30 15324 C 1440.92 -2.0104 -0.242687 0
M  V30 15325 C 1441.24 -1.23906 -1.49925 0
M  V30 15326 O 1440.5 -0.316927 -1.93117 0
M  V30 15327 C 1440.8 -3.5242 -0.594561 0
M  V30 15328 C 1440.46 -4.47333 0.566031 0
M  V30 15329 C 1439.13 -4.73001 0.884515 0
M  V30 15330 C 1441.48 -5.03566 1.34426 0
M  V30 15331 C 1438.81 -5.52156 1.98346 0
M  V30 15332 C 1441.16 -5.8392 2.43351 0
M  V30 15333 C 1439.82 -6.0788 2.7575 0
M  V30 15334 H 1439.09 -0.735659 -0.0888056 0
M  V30 15335 H 1441.74 -1.85362 0.480948 0
M  V30 15336 H 1440.04 -3.65971 -1.39902 0
M  V30 15337 H 1441.74 -3.86565 -1.06625 0
M  V30 15338 H 1438.33 -4.27494 0.307751 0
M  V30 15339 H 1442.52 -4.83694 1.11146 0
M  V30 15340 H 1437.77 -5.68942 2.23863 0
M  V30 15341 H 1441.95 -6.26505 3.04079 0
M  V30 15342 H 1439.57 -6.69001 3.61029 0
M  V30 15343 N 1441.15 -0.0802183 -1.57396 0
M  V30 15344 C 1442.08 0.881426 -2.16225 0
M  V30 15345 C 1443.06 1.30459 -1.09154 0
M  V30 15346 O 1444.24 1.37413 -1.37227 0
M  V30 15347 C 1441.37 2.14599 -2.73065 0
M  V30 15348 C 1440.33 1.86195 -3.85377 0
M  V30 15349 C 1439.65 3.19354 -4.28856 0
M  V30 15350 C 1440.95 1.16059 -5.09242 0
M  V30 15351 H 1442.65 0.391325 -2.96832 0
M  V30 15352 H 1440.19 0.186785 -1.42783 0
M  V30 15353 H 1442.15 2.82297 -3.12868 0
M  V30 15354 H 1440.87 2.65866 -1.89691 0
M  V30 15355 H 1439.53 1.209 -3.46091 0
M  V30 15356 H 1439.18 3.68479 -3.42392 0
M  V30 15357 H 1438.88 3.01137 -5.04569 0
M  V30 15358 H 1440.4 3.88235 -4.71281 0
M  V30 15359 H 1441.82 1.7384 -5.46308 0
M  V30 15360 H 1440.21 1.08072 -5.90288 0
M  V30 15361 H 1441.28 0.14098 -4.84695 0
M  V30 15362 N 1442.63 1.56409 0.193394 0
M  V30 15363 C 1443.56 1.97707 1.24234 0
M  V30 15364 C 1444.54 0.849286 1.47381 0
M  V30 15365 O 1445.72 1.11374 1.59089 0
M  V30 15366 C 1442.85 2.31804 2.5862 0
M  V30 15367 C 1441.81 3.47337 2.50082 0
M  V30 15368 C 1441.13 3.67114 3.88756 0
M  V30 15369 C 1442.43 4.81472 2.02441 0
M  V30 15370 H 1444.13 2.8558 0.89914 0
M  V30 15371 H 1441.67 1.37396 0.431078 0
M  V30 15372 H 1443.62 2.5929 3.32185 0
M  V30 15373 H 1442.35 1.40816 2.94684 0
M  V30 15374 H 1441.01 3.19944 1.78973 0
M  V30 15375 H 1440.66 2.73454 4.22175 0
M  V30 15376 H 1440.36 4.44838 3.83918 0
M  V30 15377 H 1441.88 3.96978 4.6394 0
M  V30 15378 H 1443.29 5.07978 2.65766 0
M  V30 15379 H 1441.69 5.62677 2.08601 0
M  V30 15380 H 1442.76 4.74941 0.977704 0
M  V30 15381 N 1444.1 -0.461169 1.50702 0
M  V30 15382 C 1445.01 -1.58355 1.73092 0
M  V30 15383 C 1446.03 -1.62795 0.61431 0
M  V30 15384 O 1447.21 -1.8048 0.893806 0
M  V30 15385 C 1444.27 -2.94509 1.82936 0
M  V30 15386 C 1443.33 -3.00378 3.06711 0
M  V30 15387 C 1442.56 -4.30037 3.16076 0
M  V30 15388 O 1442.79 -5.21097 2.31978 0
M  V30 15389 O 1441.72 -4.41702 4.08881 0
M  V30 15390 H 1445.55 -1.42384 2.68255 0
M  V30 15391 H 1443.13 -0.641709 1.34916 0
M  V30 15392 H 1445.01 -3.75357 1.91534 0
M  V30 15393 H 1443.69 -3.10658 0.909581 0
M  V30 15394 H 1442.6 -2.18571 3.03608 0
M  V30 15395 H 1443.93 -2.89167 3.983 0
M  V30 15396 N 1445.58 -1.40446 -0.715026 0
M  V30 15397 C 1446.83 -1.39962 -1.47587 0
M  V30 15398 C 1447.18 -0.00170702 -1.924 0
M  V30 15399 O 1446.48 0.968788 -1.65303 0
M  V30 15400 C 1446.67 -2.32392 -2.7153 0
M  V30 15401 C 1446.5 -3.81032 -2.3884 0
M  V30 15402 C 1445.27 -4.49842 -2.30153 0
M  V30 15403 C 1447.47 -4.7251 -2.03073 0
M  V30 15404 N 1445.45 -5.83711 -1.90143 0
M  V30 15405 C 1446.82 -5.9518 -1.73668 0
M  V30 15406 C 1448.87 -4.6034 -1.89714 0
M  V30 15407 C 1447.58 -7.07038 -1.32248 0
M  V30 15408 C 1449.6 -5.7214 -1.49698 0
M  V30 15409 C 1448.97 -6.93896 -1.21191 0
M  V30 15410 H 1445.06 -0.567409 -0.538118 0
M  V30 15411 H 1447.65 -1.76163 -0.829144 0
M  V30 15412 H 1445.82 -1.98319 -3.33953 0
M  V30 15413 H 1447.55 -2.22762 -3.37875 0
M  V30 15414 H 1444.31 -4.0353 -2.47912 0
M  V30 15415 H 1444.73 -6.54608 -1.72675 0
M  V30 15416 H 1449.37 -3.66723 -2.10414 0
M  V30 15417 H 1447.09 -8.00538 -1.10291 0
M  V30 15418 H 1450.68 -5.6472 -1.39939 0
M  V30 15419 H 1449.56 -7.78938 -0.906925 0
M  V30 15420 N 1447.06 0.947303 -1.25952 0
M  V30 15421 C 1448.28 1.73261 -1.13997 0
M  V30 15422 C 1448.71 1.85666 0.301639 0
M  V30 15423 O 1448.07 1.34244 1.21854 0
M  V30 15424 C 1448.12 3.12046 -1.8072 0
M  V30 15425 O 1447.22 3.97684 -1.09182 0
M  V30 15426 H 1446.56 0.53182 -0.397572 0
M  V30 15427 H 1449.09 1.18689 -1.66656 0
M  V30 15428 H 1449.1 3.62468 -1.87299 0
M  V30 15429 H 1447.78 3.02334 -2.856 0
M  V30 15430 H 1446.35 3.56141 -1.10536 0
M  V30 15431 N 1448.54 1.07657 1.15099 0
M  V30 15432 C 1449.78 0.802796 1.86234 0
M  V30 15433 C 1450.12 -0.669555 1.82293 0
M  V30 15434 O 1449.39 -1.49162 1.24823 0
M  V30 15435 C 1449.68 1.3156 3.35208 0
M  V30 15436 C 1449.53 2.85272 3.47764 0
M  V30 15437 C 1450.85 0.934641 4.30061 0
M  V30 15438 H 1447.97 0.293099 0.676212 0
M  V30 15439 H 1450.61 1.33488 1.35207 0
M  V30 15440 H 1448.76 0.86298 3.78794 0
M  V30 15441 H 1450.43 3.38847 3.13018 0
M  V30 15442 H 1448.67 3.23316 2.89222 0
M  V30 15443 H 1449.34 3.16223 4.52446 0
M  V30 15444 H 1451.82 1.3247 3.9445 0
M  V30 15445 H 1450.7 1.32074 5.32774 0
M  V30 15446 H 1450.96 -0.159122 4.41814 0
M  V30 15447 N 1450.02 -1.31994 0.861122 0
M  V30 15448 C 1451.26 -1.97712 0.477669 0
M  V30 15449 C 1451.62 -1.66878 -0.957573 0
M  V30 15450 O 1450.91 -0.950114 -1.66383 0
M  V30 15451 C 1451.1 -3.51232 0.661135 0
M  V30 15452 C 1450.93 -3.96985 2.11266 0
M  V30 15453 C 1449.7 -4.23753 2.75247 0
M  V30 15454 C 1451.9 -4.11577 3.08397 0
M  V30 15455 N 1449.88 -4.55798 4.11243 0
M  V30 15456 C 1451.25 -4.47233 4.29398 0
M  V30 15457 C 1453.31 -3.9393 3.04506 0
M  V30 15458 C 1452.01 -4.67083 5.47015 0
M  V30 15459 C 1454.04 -4.14968 4.21373 0
M  V30 15460 C 1453.4 -4.50947 5.41134 0
M  V30 15461 H 1449.5 -0.749334 0.223657 0
M  V30 15462 H 1452.08 -1.59691 1.11387 0
M  V30 15463 H 1450.25 -3.88362 0.0545925 0
M  V30 15464 H 1451.99 -4.03946 0.246941 0
M  V30 15465 H 1448.74 -4.16064 2.26248 0
M  V30 15466 H 1449.17 -4.75995 4.81412 0
M  V30 15467 H 1453.81 -3.6521 2.1303 0
M  V30 15468 H 1451.53 -4.94655 6.39016 0
M  V30 15469 H 1455.11 -4.02809 4.19805 0
M  V30 15470 H 1453.99 -4.66898 6.3006 0
M  V30 15471 N 1451.49 -0.619688 -1.44906 0
M  V30 15472 C 1452.74 -0.119397 -2.01747 0
M  V30 15473 C 1453.06 1.25904 -1.48907 0
M  V30 15474 O 1452.33 1.83417 -0.688104 0
M  V30 15475 H 1450.91 -0.0411482 -0.745866 0
M  V30 15476 H 1453.58 -0.803813 -1.77552 0
M  V30 15477 H 1452.67 -0.078368 -3.12002 0
M  V30 15478 N 1452.97 1.53444 -0.359552 0
M  V30 15479 C 1454.2 2.06058 0.235576 0
M  V30 15480 C 1454.62 1.23175 1.42161 0
M  V30 15481 O 1453.98 0.249338 1.79577 0
M  V30 15482 C 1454.03 3.55351 0.613025 0
M  V30 15483 O 1453.13 3.75229 1.71104 0
M  V30 15484 H 1452.47 0.663038 0.0357266 0
M  V30 15485 H 1455 1.97923 -0.518408 0
M  V30 15486 H 1455.01 3.9827 0.885722 0
M  V30 15487 H 1453.69 4.15122 -0.254243 0
M  V30 15488 H 1452.27 3.4421 1.43437 0
M  V30 15489 N 1454.45 0.0885642 1.57351 0
M  V30 15490 C 1455.7 -0.571435 1.95208 0
M  V30 15491 C 1456.05 -1.66196 0.96936 0
M  V30 15492 O 1455.34 -1.91599 -0.00570677 0
M  V30 15493 C 1455.54 -1.17764 3.37441 0
M  V30 15494 C 1455.37 -0.147362 4.49458 0
M  V30 15495 C 1454.14 0.273866 5.04557 0
M  V30 15496 C 1456.34 0.621935 5.10526 0
M  V30 15497 N 1454.32 1.29309 6.00127 0
M  V30 15498 C 1455.69 1.49317 6.01751 0
M  V30 15499 C 1457.74 0.676169 4.93287 0
M  V30 15500 C 1456.45 2.41386 6.77588 0
M  V30 15501 C 1458.47 1.58443 5.6978 0
M  V30 15502 C 1457.83 2.44331 6.60668 0
M  V30 15503 H 1453.93 -0.179629 0.76109 0
M  V30 15504 H 1456.52 0.169612 1.9396 0
M  V30 15505 H 1454.69 -1.88853 3.39395 0
M  V30 15506 H 1456.42 -1.79947 3.62493 0
M  V30 15507 H 1453.18 -0.112587 4.73466 0
M  V30 15508 H 1453.6 1.80072 6.52613 0
M  V30 15509 H 1458.24 0.0263199 4.22792 0
M  V30 15510 H 1455.96 3.07399 7.4735 0
M  V30 15511 H 1459.55 1.63145 5.58458 0
M  V30 15512 H 1458.43 3.1347 7.18823 0
M  V30 15513 N 1455.93 -1.56509 -0.185096 0
M  V30 15514 C 1457.16 -1.85058 -0.918527 0
M  V30 15515 C 1457.57 -0.670181 -1.76933 0
M  V30 15516 O 1456.91 0.370215 -1.79931 0
M  V30 15517 C 1456.97 -3.07843 -1.85669 0
M  V30 15518 C 1456.64 -4.41319 -1.18686 0
M  V30 15519 C 1457.63 -5.16887 -0.558946 0
M  V30 15520 C 1455.32 -4.88056 -1.18773 0
M  V30 15521 C 1457.31 -6.37373 0.0591595 0
M  V30 15522 C 1455 -6.08475 -0.565791 0
M  V30 15523 C 1456 -6.82977 0.0565621 0
M  V30 15524 O 1455.68 -8.01114 0.668726 0
M  V30 15525 H 1455.42 -0.618423 -0.273001 0
M  V30 15526 H 1457.97 -2.04479 -0.194261 0
M  V30 15527 H 1456.2 -2.84332 -2.62092 0
M  V30 15528 H 1457.89 -3.22954 -2.45877 0
M  V30 15529 H 1458.66 -4.81867 -0.550347 0
M  V30 15530 H 1454.53 -4.30016 -1.66154 0
M  V30 15531 H 1458.08 -6.95464 0.545534 0
M  V30 15532 H 1453.98 -6.42961 -0.571927 0
M  V30 15533 H 1454.74 -8.16536 0.566616 0
M  V30 15534 N 1457.41 0.45317 -1.50944 0
M  V30 15535 C 1458.68 1.21413 -1.53357 0
M  V30 15536 C 1459.06 2.09118 -0.288584 0
M  V30 15537 O 1458.41 2.16621 0.727164 0
M  V30 15538 C 1458.62 2.02969 -2.83909 0
M  V30 15539 C 1459.97 2.60551 -3.35258 0
M  V30 15540 O 1460.99 2.13196 -2.85353 0
M  V30 15541 O 1459.85 3.46881 -4.22298 0
M  V30 15542 H 1456.95 0.551909 -0.615894 0
M  V30 15543 H 1459.49 0.463529 -1.63247 0
M  V30 15544 H 1458.26 1.38453 -3.65987 0
M  V30 15545 H 1457.89 2.85127 -2.77107 0
M  V30 15546 N 1458.88 1.40823 0.707568 0
M  V30 15547 C 1460.3 1.23029 1.01666 0
M  V30 15548 C 1460.5 0.111152 2.01193 0
M  V30 15549 O 1459.56 -0.52836 2.4691 0
M  V30 15550 C 1460.87 2.57509 1.55272 0
M  V30 15551 C 1462.42 2.6459 1.67216 0
M  V30 15552 C 1462.89 3.99357 2.24227 0
M  V30 15553 N 1464.38 4.01141 2.31603 0
M  V30 15554 C 1465.12 5.02211 2.76715 0
M  V30 15555 N 1464.61 6.13674 3.21521 0
M  V30 15556 N 1466.41 4.89577 2.76172 0
M  V30 15557 H 1458.56 2.12346 0.0480107 0
M  V30 15558 H 1460.82 0.944281 0.0838885 0
M  V30 15559 H 1460.53 3.40095 0.896012 0
M  V30 15560 H 1460.4 2.79158 2.53674 0
M  V30 15561 H 1462.79 1.8237 2.32002 0
M  V30 15562 H 1462.87 2.46763 0.673927 0
M  V30 15563 H 1462.51 4.8202 1.6006 0
M  V30 15564 H 1462.44 4.14518 3.2478 0
M  V30 15565 H 1464.93 3.20657 1.99968 0
M  V30 15566 H 1465.25 6.86677 3.54534 0
M  V30 15567 H 1463.59 6.17228 3.1946 0
M  V30 15568 H 1466.78 4.01588 2.40509 0
M  V30 15569 H 1466.96 5.68485 3.11012 0
M  V30 15570 N 1460.36 -0.94061 1.26453 0
M  V30 15571 C 1461.61 -1.68354 1.11809 0
M  V30 15572 C 1461.93 -1.9203 -0.339037 0
M  V30 15573 O 1461.2 -1.51739 -1.23903 0
M  V30 15574 H 1459.78 -0.623916 0.410777 0
M  V30 15575 H 1462.44 -1.13014 1.58789 0
M  V30 15576 H 1461.54 -2.65706 1.63728 0
M  V30 15577 N 1461.84 -1.08266 -1.14527 0
M  V30 15578 C 1462.8 -0.715117 -2.17758 0
M  V30 15579 C 1463.8 0.24935 -1.58855 0
M  V30 15580 O 1464.99 0.0290846 -1.74176 0
M  V30 15581 C 1462.13 -0.055575 -3.40855 0
M  V30 15582 H 1463.32 -1.62921 -2.51787 0
M  V30 15583 H 1460.87 -0.880346 -1.2915 0
M  V30 15584 H 1461.61 0.870312 -3.12404 0
M  V30 15585 H 1461.39 -0.749382 -3.84872 0
M  V30 15586 H 1462.88 0.186592 -4.17183 0
M  V30 15587 N 1463.32 1.31536 -0.86811 0
M  V30 15588 C 1464.23 2.32326 -0.32588 0
M  V30 15589 C 1465.25 1.64632 0.563243 0
M  V30 15590 O 1466.42 1.96067 0.460403 0
M  V30 15591 C 1463.49 3.43562 0.46539 0
M  V30 15592 C 1462.55 4.26919 -0.451472 0
M  V30 15593 C 1461.78 5.32844 0.302129 0
M  V30 15594 O 1462 5.49485 1.53045 0
M  V30 15595 O 1460.94 6.00944 -0.339048 0
M  V30 15596 H 1464.76 2.80622 -1.16126 0
M  V30 15597 H 1462.35 1.35401 -0.631428 0
M  V30 15598 H 1464.23 4.11368 0.914028 0
M  V30 15599 H 1462.91 2.97432 1.27734 0
M  V30 15600 H 1461.81 3.61874 -0.948571 0
M  V30 15601 H 1463.15 4.7661 -1.22897 0
M  V30 15602 N 1464.8 0.627364 1.44575 0
M  V30 15603 C 1465.76 -0.0700881 2.29093 0
M  V30 15604 C 1466.76 -0.775969 1.40838 0
M  V30 15605 O 1467.95 -0.621129 1.6275 0
M  V30 15606 C 1465.08 -1.10977 3.2233 0
M  V30 15607 H 1466.28 0.673234 2.92246 0
M  V30 15608 H 1463.83 0.387322 1.51425 0
M  V30 15609 H 1464.56 -1.8832 2.64019 0
M  V30 15610 H 1464.35 -0.607587 3.87364 0
M  V30 15611 H 1465.84 -1.59764 3.8583 0
M  V30 15612 N 1466.28 -1.53251 0.367684 0
M  V30 15613 C 1467.22 -2.258 -0.477802 0
M  V30 15614 C 1468.19 -1.26554 -1.07579 0
M  V30 15615 O 1469.38 -1.5534 -1.10788 0
M  V30 15616 C 1466.52 -3.05216 -1.6105 0
M  V30 15617 C 1465.63 -4.19357 -1.03748 0
M  V30 15618 C 1464.77 -4.86211 -2.13945 0
M  V30 15619 C 1463.8 -5.9238 -1.5412 0
M  V30 15620 N 1462.94 -6.52916 -2.58158 0
M  V30 15621 H 1467.78 -2.97635 0.147367 0
M  V30 15622 H 1465.32 -1.46857 0.084495 0
M  V30 15623 H 1467.28 -3.49536 -2.27772 0
M  V30 15624 H 1465.91 -2.35632 -2.20629 0
M  V30 15625 H 1464.96 -3.79507 -0.260476 0
M  V30 15626 H 1466.27 -4.95645 -0.560105 0
M  V30 15627 H 1465.42 -5.33725 -2.88483 0
M  V30 15628 H 1464.16 -4.09399 -2.65035 0
M  V30 15629 H 1463.17 -5.44225 -0.780968 0
M  V30 15630 H 1464.39 -6.71112 -1.03852 0
M  V30 15631 H 1462.34 -5.78956 -3.08457 0
M  V30 15632 H 1462.26 -7.2475 -2.15113 0
M  V30 15633 H 1463.52 -7.05079 -3.32392 0
M  V30 15634 N 1467.75 -0.0969077 -1.57302 0
M  V30 15635 C 1468.98 0.578086 -1.99181 0
M  V30 15636 C 1469.4 1.60818 -0.975667 0
M  V30 15637 O 1468.76 1.81215 0.0556054 0
M  V30 15638 C 1468.81 1.20076 -3.40021 0
M  V30 15639 O 1467.91 2.31656 -3.41188 0
M  V30 15640 H 1467.25 0.146506 -0.647636 0
M  V30 15641 H 1469.78 -0.178855 -2.03817 0
M  V30 15642 H 1469.79 1.54162 -3.77754 0
M  V30 15643 H 1468.47 0.446114 -4.135 0
M  V30 15644 H 1467.05 1.99175 -3.15252 0
M  V30 15645 N 1469.23 1.56605 0.176793 0
M  V30 15646 C 1470.48 1.81952 0.895627 0
M  V30 15647 C 1470.81 0.673893 1.82133 0
M  V30 15648 O 1470.09 -0.324494 1.91774 0
M  V30 15649 C 1470.37 3.17658 1.69604 0
M  V30 15650 C 1470.22 4.4274 0.793834 0
M  V30 15651 C 1471.54 3.50246 2.66488 0
M  V30 15652 H 1468.66 0.661884 0.324159 0
M  V30 15653 H 1471.3 1.89307 0.162092 0
M  V30 15654 H 1469.45 3.11518 2.3214 0
M  V30 15655 H 1471.12 4.60942 0.181775 0
M  V30 15656 H 1469.37 4.33681 0.101566 0
M  V30 15657 H 1470.04 5.34231 1.38927 0
M  V30 15658 H 1472.51 3.56804 2.1408 0
M  V30 15659 H 1471.39 4.46286 3.19562 0
M  V30 15660 H 1471.65 2.7467 3.46423 0
M  V30 15661 N 1470.71 -0.445159 1.51182 0
M  V30 15662 C 1471.96 -1.19524 1.63463 0
M  V30 15663 C 1472.28 -1.91377 0.347136 0
M  V30 15664 O 1471.54 -1.83932 -0.668408 0
M  V30 15665 C 1471.84 -2.24274 2.78273 0
M  V30 15666 C 1471.5 -1.6949 4.17833 0
M  V30 15667 C 1470.17 -1.54271 4.558 0
M  V30 15668 C 1472.52 -1.29128 5.04951 0
M  V30 15669 C 1469.85 -0.971532 5.786 0
M  V30 15670 C 1472.2 -0.734426 6.28322 0
M  V30 15671 C 1470.86 -0.569079 6.6507 0
M  V30 15672 H 1470.13 -0.437369 0.598155 0
M  V30 15673 H 1472.78 -0.48742 1.85193 0
M  V30 15674 H 1471.08 -3.01065 2.50734 0
M  V30 15675 H 1472.78 -2.82117 2.84975 0
M  V30 15676 H 1469.37 -1.82309 3.87894 0
M  V30 15677 H 1473.56 -1.39709 4.7623 0
M  V30 15678 H 1468.81 -0.831117 6.05725 0
M  V30 15679 H 1472.99 -0.413133 6.95173 0
M  V30 15680 H 1470.61 -0.124355 7.60098 0
M  V30 15681 N 1472.19 -1.41197 -0.700089 0
M  V30 15682 C 1473.14 -1.39158 -1.80607 0
M  V30 15683 C 1474.12 -0.266653 -1.58675 0
M  V30 15684 O 1475.31 -0.506973 -1.69584 0
M  V30 15685 C 1472.44 -1.27176 -3.18875 0
M  V30 15686 C 1471.53 -2.44513 -3.46517 0
M  V30 15687 N 1471.92 -3.69984 -3.44885 0
M  V30 15688 C 1470.22 -2.38228 -3.77046 0
M  V30 15689 C 1470.92 -4.4778 -3.71306 0
M  V30 15690 N 1469.89 -3.77831 -3.90826 0
M  V30 15691 H 1473.7 -2.34093 -1.77701 0
M  V30 15692 H 1471.21 -1.35188 -0.899887 0
M  V30 15693 H 1473.21 -1.23797 -3.98095 0
M  V30 15694 H 1471.87 -0.332215 -3.22996 0
M  V30 15695 H 1472.88 -4.02932 -3.25371 0
M  V30 15696 H 1469.56 -1.52722 -3.88564 0
M  V30 15697 H 1470.95 -5.56695 -3.76218 0
M  V30 15698 N 1473.67 0.933891 -1.2695 0
M  V30 15699 C 1474.62 2.01966 -1.05801 0
M  V30 15700 C 1475.6 1.60896 0.0119868 0
M  V30 15701 O 1476.79 1.75799 -0.205827 0
M  V30 15702 C 1473.92 3.36073 -0.700695 0
M  V30 15703 C 1473.01 3.83606 -1.80852 0
M  V30 15704 N 1473.4 4.03713 -3.04712 0
M  V30 15705 C 1471.7 4.12586 -1.69378 0
M  V30 15706 C 1472.4 4.43199 -3.76762 0
M  V30 15707 N 1471.37 4.50319 -3.0449 0
M  V30 15708 H 1475.17 2.15534 -1.99806 0
M  V30 15709 H 1472.69 1.12027 -1.17574 0
M  V30 15710 H 1474.69 4.13513 -0.530316 0
M  V30 15711 H 1473.35 3.23872 0.231801 0
M  V30 15712 H 1474.36 3.90196 -3.4054 0
M  V30 15713 H 1471.03 4.09132 -0.831695 0
M  V30 15714 H 1472.42 4.66887 -4.83184 0
M  V30 15715 N 1475.14 1.08871 1.13951 0
M  V30 15716 C 1476.37 0.843055 1.89492 0
M  V30 15717 C 1476.79 -0.599539 1.78289 0
M  V30 15718 O 1476.15 -1.42062 1.12642 0
M  V30 15719 C 1476.2 1.27572 3.3728 0
M  V30 15720 O 1475.3 0.430611 4.10146 0
M  V30 15721 H 1474.64 0.3058 0.589391 0
M  V30 15722 H 1477.17 1.45137 1.44209 0
M  V30 15723 H 1477.18 1.25864 3.88101 0
M  V30 15724 H 1475.86 2.32635 3.44751 0
M  V30 15725 H 1474.44 0.511516 3.69375 0
M  V30 15726 N 1476.62 -1.31073 0.875073 0
M  V30 15727 C 1477.57 -2.25936 0.306104 0
M  V30 15728 C 1478.56 -1.50848 -0.559782 0
M  V30 15729 O 1479.75 -1.72285 -0.405824 0
M  V30 15730 C 1476.88 -3.39828 -0.486995 0
M  V30 15731 C 1475.96 -4.22281 0.392421 0
M  V30 15732 N 1476.35 -4.83409 1.48828 0
M  V30 15733 C 1474.65 -4.45613 0.185762 0
M  V30 15734 C 1475.35 -5.45092 2.031 0
M  V30 15735 N 1474.33 -5.27147 1.3273 0
M  V30 15736 H 1478.13 -2.70738 1.14359 0
M  V30 15737 H 1475.64 -1.45399 0.72339 0
M  V30 15738 H 1477.64 -4.06821 -0.911171 0
M  V30 15739 H 1476.3 -2.96568 -1.32203 0
M  V30 15740 H 1477.31 -4.82915 1.87118 0
M  V30 15741 H 1473.99 -4.12977 -0.61291 0
M  V30 15742 H 1475.38 -6.03641 2.95071 0
M  V30 15743 N 1478.1 -0.635022 -1.4424 0
M  V30 15744 C 1479.05 0.0675707 -2.30701 0
M  V30 15745 C 1480.02 0.832919 -1.43707 0
M  V30 15746 O 1481.2 0.813177 -1.72604 0
M  V30 15747 C 1478.34 1.04053 -3.2904 0
M  V30 15748 C 1477.46 0.273191 -4.31135 0
M  V30 15749 C 1476.59 1.23831 -5.16565 0
M  V30 15750 C 1475.63 0.460359 -6.10366 0
M  V30 15751 N 1474.77 1.37614 -6.88481 0
M  V30 15752 H 1479.61 -0.675656 -2.90239 0
M  V30 15753 H 1477.14 -0.344971 -1.42998 0
M  V30 15754 H 1479.1 1.61805 -3.84545 0
M  V30 15755 H 1477.73 1.75084 -2.71193 0
M  V30 15756 H 1476.78 -0.420315 -3.78071 0
M  V30 15757 H 1478.1 -0.332548 -4.9769 0
M  V30 15758 H 1477.25 1.88704 -5.76607 0
M  V30 15759 H 1475.99 1.87797 -4.50093 0
M  V30 15760 H 1474.99 -0.201836 -5.49429 0
M  V30 15761 H 1476.22 -0.174639 -6.78875 0
M  V30 15762 H 1474.16 2.00294 -6.24675 0
M  V30 15763 H 1474.08 0.82452 -7.5149 0
M  V30 15764 H 1475.35 2.01359 -7.53044 0
M  V30 15765 N 1479.58 1.53054 -0.375806 0
M  V30 15766 C 1480.53 2.22837 0.482477 0
M  V30 15767 C 1481.51 1.22728 1.04051 0
M  V30 15768 O 1482.7 1.48129 0.968854 0
M  V30 15769 C 1479.83 3.02869 1.61634 0
M  V30 15770 C 1478.92 4.10362 1.07069 0
M  V30 15771 N 1479.31 5.05187 0.248878 0
M  V30 15772 C 1477.61 4.25251 1.34452 0
M  V30 15773 C 1478.31 5.81678 -0.0510458 0
M  V30 15774 N 1477.29 5.40817 0.549318 0
M  V30 15775 H 1481.09 2.93506 -0.1521 0
M  V30 15776 H 1478.6 1.6135 -0.184373 0
M  V30 15777 H 1480.6 3.51387 2.24349 0
M  V30 15778 H 1479.26 2.33732 2.25387 0
M  V30 15779 H 1480.27 5.17777 -0.112766 0
M  V30 15780 H 1476.95 3.67342 1.98408 0
M  V30 15781 H 1478.34 6.68073 -0.716061 0
M  V30 15782 N 1481.06 0.105248 1.57248 0
M  V30 15783 C 1482 -0.850012 2.14577 0
M  V30 15784 C 1482.97 -1.27294 1.06703 0
M  V30 15785 O 1484.16 -1.35289 1.34542 0
M  V30 15786 C 1481.3 -2.09993 2.73856 0
M  V30 15787 C 1480.41 -1.72662 3.95995 0
M  V30 15788 C 1479.55 -2.92517 4.43404 0
M  V30 15789 C 1478.59 -2.5136 5.58108 0
M  V30 15790 N 1477.72 -3.64082 6.00324 0
M  V30 15791 H 1482.56 -0.354282 2.95887 0
M  V30 15792 H 1480.1 -0.163192 1.46192 0
M  V30 15793 H 1482.06 -2.83208 3.06348 0
M  V30 15794 H 1480.69 -2.57048 1.95259 0
M  V30 15795 H 1479.74 -0.893754 3.69752 0
M  V30 15796 H 1481.05 -1.38406 4.79213 0
M  V30 15797 H 1480.21 -3.73973 4.77734 0
M  V30 15798 H 1478.94 -3.2999 3.59107 0
M  V30 15799 H 1477.95 -1.68333 5.23397 0
M  V30 15800 H 1479.17 -2.15019 6.44161 0
M  V30 15801 H 1477.12 -4.01255 5.18971 0
M  V30 15802 H 1477.04 -3.33705 6.78363 0
M  V30 15803 H 1478.31 -4.46019 6.39287 0
M  V30 15804 N 1482.53 -1.56697 -0.168486 0
M  V30 15805 C 1483.48 -1.96628 -1.20855 0
M  V30 15806 C 1484.45 -0.830623 -1.4384 0
M  V30 15807 O 1485.64 -1.09097 -1.56533 0
M  V30 15808 C 1482.78 -2.3338 -2.5422 0
M  V30 15809 C 1481.89 -3.60137 -2.3859 0
M  V30 15810 C 1481.02 -3.86088 -3.64842 0
M  V30 15811 C 1480.06 -5.06184 -3.44157 0
M  V30 15812 N 1479.2 -5.28254 -4.62485 0
M  V30 15813 H 1484.04 -2.8529 -0.86102 0
M  V30 15814 H 1481.58 -1.41162 -0.413741 0
M  V30 15815 H 1483.54 -2.52711 -3.31953 0
M  V30 15816 H 1482.17 -1.47825 -2.86963 0
M  V30 15817 H 1481.22 -3.48704 -1.52019 0
M  V30 15818 H 1482.53 -4.48028 -2.19254 0
M  V30 15819 H 1481.68 -4.05802 -4.5101 0
M  V30 15820 H 1480.42 -2.96578 -3.8716 0
M  V30 15821 H 1479.43 -4.86366 -2.56376 0
M  V30 15822 H 1480.65 -5.97228 -3.23258 0
M  V30 15823 H 1478.6 -4.41695 -4.85017 0
M  V30 15824 H 1478.52 -6.10373 -4.46072 0
M  V30 15825 H 1479.78 -5.52448 -5.49928 0
M  V30 15826 N 1484.01 0.437135 -1.51416 0
M  V30 15827 C 1484.94 1.54894 -1.68939 0
M  V30 15828 C 1485.96 1.52493 -0.570059 0
M  V30 15829 O 1487.15 1.57266 -0.844381 0
M  V30 15830 C 1484.25 2.9381 -1.68904 0
M  V30 15831 C 1483.42 3.20714 -2.97425 0
M  V30 15832 C 1482.48 4.39355 -2.89575 0
M  V30 15833 O 1481.5 4.37999 -3.63519 0
M  V30 15834 N 1482.71 5.42931 -2.05441 0
M  V30 15835 H 1485.47 1.40267 -2.64849 0
M  V30 15836 H 1483.03 0.626075 -1.49305 0
M  V30 15837 H 1485.02 3.71201 -1.61221 0
M  V30 15838 H 1483.59 3.02034 -0.805871 0
M  V30 15839 H 1482.81 2.31621 -3.18975 0
M  V30 15840 H 1484.1 3.35516 -3.825 0
M  V30 15841 H 1483.5 5.4687 -1.44742 0
M  V30 15842 H 1482.06 6.19173 -2.03636 0
M  V30 15843 N 1485.49 1.41566 0.692592 0
M  V30 15844 C 1486.77 1.31572 1.44735 0
M  V30 15845 C 1487.15 -0.0553081 2.11028 0
M  V30 15846 O 1486.5 -1.06974 2.01913 0
M  V30 15847 C 1486.71 2.47125 2.46435 0
M  V30 15848 C 1488.05 2.88427 3.11601 0
M  V30 15849 O 1489.08 2.46886 2.5676 0
M  V30 15850 O 1487.94 3.6027 4.10935 0
M  V30 15851 H 1485.03 0.517949 0.644715 0
M  V30 15852 H 1487.58 1.53536 0.722818 0
M  V30 15853 H 1486.35 3.38601 1.96124 0
M  V30 15854 H 1485.97 2.27054 3.26393 0
M  V30 15855 N 1486.97 -0.927146 1.27443 0
M  V30 15856 C 1488.38 -1.48984 1.1252 0
M  V30 15857 C 1488.73 -1.94051 -0.289602 0
M  V30 15858 O 1487.86 -1.8123 -1.18257 0
M  V30 15859 C 1488.45 -2.70765 2.03646 0
M  V30 15860 C 1487.01 -3.23256 1.92827 0
M  V30 15861 C 1486.16 -1.95991 1.9617 0
M  V30 15862 H 1489.11 -0.741196 1.40328 0
M  V30 15863 H 1489.13 -3.45567 1.5926 0
M  V30 15864 H 1488.64 -2.37933 3.0661 0
M  V30 15865 H 1486.74 -3.60845 0.928516 0
M  V30 15866 H 1486.85 -3.89413 2.79096 0
M  V30 15867 H 1485.22 -2.12508 1.40402 0
M  V30 15868 H 1486 -1.65473 3.00788 0
M  V30 15869 N 1488.45 -1.09474 -1.13372 0
M  V30 15870 C 1489.38 -0.756441 -2.20908 0
M  V30 15871 C 1490.36 0.266113 -1.68006 0
M  V30 15872 O 1491.54 0.134067 -1.93737 0
M  V30 15873 C 1488.67 -0.176733 -3.4685 0
M  V30 15874 C 1487.63 -1.12886 -4.12845 0
M  V30 15875 C 1486.95 -0.410831 -5.33119 0
M  V30 15876 C 1488.25 -2.47148 -4.60125 0
M  V30 15877 H 1489.95 -1.65555 -2.49463 0
M  V30 15878 H 1487.49 -0.797458 -1.19902 0
M  V30 15879 H 1489.45 0.0720151 -4.21338 0
M  V30 15880 H 1488.17 0.757576 -3.17692 0
M  V30 15881 H 1486.83 -1.36289 -3.40325 0
M  V30 15882 H 1486.48 0.527632 -5.00225 0
M  V30 15883 H 1486.18 -1.04567 -5.78221 0
M  V30 15884 H 1487.7 -0.170394 -6.10362 0
M  V30 15885 H 1489.11 -2.27949 -5.26034 0
M  V30 15886 H 1487.51 -3.06425 -5.15969 0
M  V30 15887 H 1488.58 -3.07874 -3.74622 0
M  V30 15888 N 1489.92 1.30607 -0.882012 0
M  V30 15889 C 1490.86 2.27177 -0.303861 0
M  V30 15890 C 1491.87 1.53587 0.539898 0
M  V30 15891 O 1493.06 1.74833 0.359931 0
M  V30 15892 C 1490.16 3.33781 0.586828 0
M  V30 15893 C 1489.33 4.3681 -0.227197 0
M  V30 15894 C 1488.39 5.22842 0.593519 0
M  V30 15895 O 1487.42 5.69197 0.0172694 0
M  V30 15896 N 1488.62 5.48414 1.90321 0
M  V30 15897 H 1491.38 2.77426 -1.13378 0
M  V30 15898 H 1488.94 1.43756 -0.744698 0
M  V30 15899 H 1490.94 3.88257 1.14186 0
M  V30 15900 H 1489.51 2.83483 1.31743 0
M  V30 15901 H 1488.73 3.82239 -0.963674 0
M  V30 15902 H 1490.01 5.02703 -0.785315 0
M  V30 15903 H 1489.41 5.1253 2.39435 0
M  V30 15904 H 1487.97 6.05778 2.40575 0
M  V30 15905 N 1491.4 0.642663 1.43901 0
M  V30 15906 C 1492.81 0.232809 1.85243 0
M  V30 15907 C 1493.16 -1.21834 1.53789 0
M  V30 15908 O 1492.29 -1.92855 0.981625 0
M  V30 15909 C 1492.88 0.415749 3.36239 0
M  V30 15910 C 1491.44 0.0603055 3.76352 0
M  V30 15911 C 1490.59 0.723658 2.67691 0
M  V30 15912 H 1493.54 0.847052 1.34204 0
M  V30 15913 H 1493.56 -0.341903 3.78961 0
M  V30 15914 H 1493.07 1.472 3.59101 0
M  V30 15915 H 1491.18 -0.993761 3.59103 0
M  V30 15916 H 1491.29 0.478408 4.76705 0
M  V30 15917 H 1489.65 0.15787 2.5421 0
M  V30 15918 H 1490.44 1.78273 2.93383 0
M  V30 15919 N 1492.88 -1.52852 0.383918 0
M  V30 15920 C 1494.12 -2.03421 -0.199832 0
M  V30 15921 C 1494.49 -1.26439 -1.44489 0
M  V30 15922 O 1495.69 -1.67105 -2.10545 0
M  V30 15923 C 1493.96 -3.54341 -0.466577 0
M  V30 15924 S 1495.52 -4.26747 -1.02138 0
M  V30 15925 H 1492.33 -0.70873 -0.0567636 0
M  V30 15926 H 1494.94 -1.8815 0.531022 0
M  V30 15927 H 1493.64 -4.07961 0.446772 0
M  V30 15928 H 1493.17 -3.73808 -1.226 0
M  V30 15929 H 1495.19 -4.39456 -2.3042 0
M  V30 15930 N 1494.36 -0.113586 -1.5719 0
M  V30 15931 C 1495.64 0.588987 -1.86522 0
M  V30 15932 C 1496.02 1.85163 -1.01379 0
M  V30 15933 O 1495.36 2.28318 -0.0912188 0
M  V30 15934 C 1495.57 0.886633 -3.3755 0
M  V30 15935 C 1496.92 1.24206 -4.06027 0
M  V30 15936 O 1497.95 0.977068 -3.42537 0
M  V30 15937 O 1496.81 1.73914 -5.18089 0
M  V30 15938 H 1493.9 0.296637 -0.771968 0
M  V30 15939 H 1496.45 -0.147681 -1.69056 0
M  V30 15940 H 1495.22 -0.00835421 -3.91299 0
M  V30 15941 H 1494.84 1.67865 -3.60426 0
M  V30 15942 N 1495.84 1.56784 0.160173 0
M  V30 15943 C 1497.07 1.86767 0.89026 0
M  V30 15944 C 1497.48 0.700276 1.75333 0
M  V30 15945 O 1496.84 -0.330342 1.79485 0
M  V30 15946 C 1496.89 3.15883 1.75784 0
M  V30 15947 O 1496.61 4.28124 0.929575 0
M  V30 15948 C 1498.11 3.5929 2.59664 0
M  V30 15949 H 1495.33 0.61938 0.258088 0
M  V30 15950 H 1497.87 2.03897 0.156919 0
M  V30 15951 H 1496.03 3.00546 2.4444 0
M  V30 15952 H 1496.44 5.01872 1.52397 0
M  V30 15953 H 1497.92 4.52506 3.16136 0
M  V30 15954 H 1498.39 2.83943 3.35072 0
M  V30 15955 H 1499 3.77277 1.96323 0
M  V30 15956 N 1497.32 -0.429099 1.51646 0
M  V30 15957 C 1498.23 -1.54648 1.76412 0
M  V30 15958 C 1499.24 -1.61455 0.648703 0
M  V30 15959 O 1500.42 -1.78544 0.931888 0
M  V30 15960 C 1497.48 -2.90562 1.89142 0
M  V30 15961 C 1496.54 -2.93804 3.13014 0
M  V30 15962 C 1495.78 -4.23235 3.25127 0
M  V30 15963 O 1496 -5.1606 2.42979 0
M  V30 15964 O 1494.93 -4.32929 4.18158 0
M  V30 15965 H 1498.76 -1.36661 2.71215 0
M  V30 15966 H 1496.34 -0.612946 1.36247 0
M  V30 15967 H 1498.23 -3.7121 1.99453 0
M  V30 15968 H 1496.9 -3.08659 0.975272 0
M  V30 15969 H 1495.81 -2.12082 3.08175 0
M  V30 15970 H 1497.14 -2.80654 4.04344 0
M  V30 15971 N 1498.79 -1.41931 -0.685074 0
M  V30 15972 C 1500.02 -1.45018 -1.4715 0
M  V30 15973 C 1500.43 -0.0569412 -1.89114 0
M  V30 15974 O 1499.77 0.936419 -1.58041 0
M  V30 15975 C 1499.84 -2.30522 -2.75862 0
M  V30 15976 C 1499.5 -3.78542 -2.56037 0
M  V30 15977 C 1500.5 -4.70448 -2.21303 0
M  V30 15978 C 1498.18 -4.22698 -2.71351 0
M  V30 15979 C 1500.18 -6.045 -2.02135 0
M  V30 15980 C 1497.86 -5.56812 -2.518 0
M  V30 15981 C 1498.86 -6.47529 -2.17244 0
M  V30 15982 O 1498.55 -7.79167 -1.97872 0
M  V30 15983 H 1498.28 -0.495682 -0.459647 0
M  V30 15984 H 1500.84 -1.86983 -0.850079 0
M  V30 15985 H 1499.07 -1.83389 -3.40449 0
M  V30 15986 H 1500.75 -2.25186 -3.37707 0
M  V30 15987 H 1501.52 -4.37621 -2.09077 0
M  V30 15988 H 1497.4 -3.52385 -2.9723 0
M  V30 15989 H 1500.94 -6.75271 -1.75086 0
M  V30 15990 H 1496.84 -5.89216 -2.6362 0
M  V30 15991 H 1497.61 -7.9042 -2.12552 0
M  V30 15992 N 1500.27 0.920374 -1.27933 0
M  V30 15993 C 1501.68 1.48385 -1.13309 0
M  V30 15994 C 1502.03 1.94202 0.279307 0
M  V30 15995 O 1501.16 1.81855 1.17294 0
M  V30 15996 C 1501.75 2.69681 -2.05079 0
M  V30 15997 C 1500.31 3.22229 -1.94539 0
M  V30 15998 C 1499.46 1.94948 -1.97207 0
M  V30 15999 H 1502.41 0.733744 -1.40719 0
M  V30 16000 H 1502.43 3.44717 -1.6109 0
M  V30 16001 H 1501.94 2.36304 -3.07867 0
M  V30 16002 H 1500.04 3.60348 -0.94764 0
M  V30 16003 H 1500.16 3.87927 -2.81157 0
M  V30 16004 H 1498.52 2.1176 -1.41527 0
M  V30 16005 H 1499.3 1.63875 -3.01662 0
M  V30 16006 N 1501.75 1.10074 1.1279 0
M  V30 16007 C 1503 0.842118 1.84489 0
M  V30 16008 C 1503.33 -0.630737 1.83672 0
M  V30 16009 O 1502.6 -1.46481 1.27959 0
M  V30 16010 C 1502.89 1.3864 3.32342 0
M  V30 16011 C 1502.74 2.92585 3.41635 0
M  V30 16012 C 1504.06 1.02565 4.27982 0
M  V30 16013 H 1501.18 0.307376 0.669842 0
M  V30 16014 H 1503.82 1.36326 1.32345 0
M  V30 16015 H 1501.97 0.943134 3.76878 0
M  V30 16016 H 1503.64 3.4541 3.0576 0
M  V30 16017 H 1501.88 3.29378 2.82299 0
M  V30 16018 H 1502.56 3.25749 4.45636 0
M  V30 16019 H 1505.03 1.40807 3.91552 0
M  V30 16020 H 1503.91 1.43345 5.29852 0
M  V30 16021 H 1504.17 -0.0653712 4.42052 0
M  V30 16022 N 1503.23 -1.30138 0.888926 0
M  V30 16023 C 1504.47 -1.95989 0.509365 0
M  V30 16024 C 1504.8 -1.70153 -0.942249 0
M  V30 16025 O 1504.06 -1.00123 -1.68148 0
M  V30 16026 C 1504.36 -3.4975 0.735488 0
M  V30 16027 C 1504.02 -3.95644 2.1628 0
M  V30 16028 C 1502.68 -4.07886 2.55309 0
M  V30 16029 C 1505.04 -4.1952 3.09277 0
M  V30 16030 C 1502.36 -4.41367 3.86539 0
M  V30 16031 C 1504.72 -4.54472 4.40043 0
M  V30 16032 C 1503.38 -4.64923 4.7896 0
M  V30 16033 H 1502.65 -0.717175 0.18639 0
M  V30 16034 H 1505.3 -1.54932 1.12553 0
M  V30 16035 H 1503.6 -3.91783 0.0363165 0
M  V30 16036 H 1505.3 -3.9878 0.421351 0
M  V30 16037 H 1501.89 -3.86624 1.84985 0
M  V30 16038 H 1506.07 -4.09539 2.80342 0
M  V30 16039 H 1501.33 -4.47659 4.16427 0
M  V30 16040 H 1505.5 -4.71897 5.12138 0
M  V30 16041 H 1503.13 -4.90622 5.80685 0
M  V30 16042 N 1504.71 -0.650285 -1.43559 0
M  V30 16043 C 1505.95 -0.162725 -2.02146 0
M  V30 16044 C 1506.28 1.21911 -1.51166 0
M  V30 16045 O 1505.56 1.81329 -0.703563 0
M  V30 16046 C 1505.84 -0.170356 -3.59697 0
M  V30 16047 C 1505.7 -1.5859 -4.20915 0
M  V30 16048 C 1507.01 0.494831 -4.37309 0
M  V30 16049 H 1504.13 -0.0606055 -0.734504 0
M  V30 16050 H 1506.78 -0.830411 -1.70892 0
M  V30 16051 H 1504.93 0.39819 -3.86454 0
M  V30 16052 H 1506.6 -2.20481 -4.05199 0
M  V30 16053 H 1504.84 -2.13407 -3.77677 0
M  V30 16054 H 1505.51 -1.54312 -5.29992 0
M  V30 16055 H 1507.99 0.0111281 -4.16099 0
M  V30 16056 H 1506.86 0.458753 -5.4698 0
M  V30 16057 H 1507.12 1.56846 -4.13342 0
M  V30 16058 N 1506.18 1.52647 -0.392018 0
M  V30 16059 C 1507.41 2.05734 0.189018 0
M  V30 16060 C 1507.82 1.26338 1.40838 0
M  V30 16061 O 1507.16 0.303866 1.81169 0
M  V30 16062 C 1507.23 3.54095 0.621026 0
M  V30 16063 C 1506.89 4.54416 -0.485249 0
M  V30 16064 C 1507.89 5.02241 -1.3435 0
M  V30 16065 C 1505.57 4.98037 -0.653055 0
M  V30 16066 C 1507.57 5.92313 -2.35467 0
M  V30 16067 C 1505.25 5.87908 -1.66755 0
M  V30 16068 C 1506.25 6.34939 -2.51677 0
M  V30 16069 O 1505.94 7.23034 -3.51392 0
M  V30 16070 H 1505.67 0.675266 0.0315024 0
M  V30 16071 H 1508.23 1.97717 -0.556535 0
M  V30 16072 H 1506.46 3.5974 1.4186 0
M  V30 16073 H 1508.14 3.8991 1.12804 0
M  V30 16074 H 1508.91 4.6927 -1.22518 0
M  V30 16075 H 1504.79 4.61 -0.00176071 0
M  V30 16076 H 1508.33 6.28944 -3.01786 0
M  V30 16077 H 1504.23 6.20293 -1.78624 0
M  V30 16078 H 1505 7.41102 -3.47433 0
M  V30 16079 N 1507.66 0.121921 1.57128 0
M  V30 16080 C 1508.59 -0.857725 2.12546 0
M  V30 16081 C 1509.61 -1.22797 1.06886 0
M  V30 16082 O 1510.8 -1.17641 1.34249 0
M  V30 16083 C 1507.9 -2.15869 2.61254 0
M  V30 16084 C 1507.07 -1.95969 3.91043 0
M  V30 16085 C 1506.13 -3.09822 4.2532 0
M  V30 16086 O 1505.15 -2.82608 4.94087 0
M  V30 16087 N 1506.36 -4.36333 3.82875 0
M  V30 16088 H 1509.12 -0.384239 2.97227 0
M  V30 16089 H 1506.68 -0.062416 1.6178 0
M  V30 16090 H 1508.67 -2.91035 2.81213 0
M  V30 16091 H 1507.24 -2.54557 1.81437 0
M  V30 16092 H 1506.46 -1.04979 3.79965 0
M  V30 16093 H 1507.75 -1.79981 4.75904 0
M  V30 16094 H 1507.15 -4.61318 3.27417 0
M  V30 16095 H 1505.71 -5.08362 4.07936 0
M  V30 16096 N 1509.14 -1.56867 -0.151857 0
M  V30 16097 C 1510.55 -1.72573 -0.712411 0
M  V30 16098 C 1510.9 -0.735557 -1.8189 0
M  V30 16099 O 1510.03 0.09888 -2.16174 0
M  V30 16100 C 1510.62 -3.12906 -1.29905 0
M  V30 16101 C 1509.18 -3.30231 -1.80623 0
M  V30 16102 C 1508.33 -2.68507 -0.692781 0
M  V30 16103 H 1511.28 -1.58528 0.0737603 0
M  V30 16104 H 1511.3 -3.12636 -2.16885 0
M  V30 16105 H 1510.81 -3.84949 -0.493509 0
M  V30 16106 H 1508.91 -2.63176 -2.6376 0
M  V30 16107 H 1509.03 -4.38141 -1.93828 0
M  V30 16108 H 1507.39 -2.28842 -1.11818 0
M  V30 16109 H 1508.17 -3.43151 0.10124 0
M  V30 16110 N 1510.62 0.421051 -1.51871 0
M  V30 16111 C 1511.58 1.49478 -1.73749 0
M  V30 16112 C 1512.58 1.48887 -0.607395 0
M  V30 16113 O 1513.77 1.50622 -0.875143 0
M  V30 16114 C 1510.9 2.88947 -1.80893 0
M  V30 16115 H 1512.1 1.31377 -2.69593 0
M  V30 16116 H 1509.65 0.650786 -1.42107 0
M  V30 16117 H 1510.38 3.12434 -0.86922 0
M  V30 16118 H 1510.17 2.90781 -2.63038 0
M  V30 16119 H 1511.66 3.66809 -1.99602 0
M  V30 16120 N 1512.1 1.42293 0.677538 0
M  V30 16121 C 1513.35 1.41909 1.43334 0
M  V30 16122 C 1513.66 0.037951 1.95563 0
M  V30 16123 O 1514.86 -0.0884836 2.71356 0
M  V30 16124 C 1513.32 2.49608 2.59275 0
M  V30 16125 C 1512.93 3.93716 2.13757 0
M  V30 16126 C 1514.67 2.58387 3.36803 0
M  V30 16127 C 1512.58 4.92929 3.26764 0
M  V30 16128 H 1511.51 0.527803 0.538461 0
M  V30 16129 H 1514.16 1.6819 0.733791 0
M  V30 16130 H 1512.54 2.16488 3.31585 0
M  V30 16131 H 1513.72 4.36176 1.48618 0
M  V30 16132 H 1512.03 3.88762 1.49175 0
M  V30 16133 H 1514.63 3.29691 4.20961 0
M  V30 16134 H 1514.97 1.62653 3.8321 0
M  V30 16135 H 1515.5 2.90688 2.71561 0
M  V30 16136 H 1512.24 5.90131 2.85352 0
M  V30 16137 H 1511.76 4.55103 3.90694 0
M  V30 16138 H 1513.44 5.1452 3.92273 0
M  V30 16139 N 1513.57 -0.913576 1.28419 0
M  V30 16140 C 1514.99 -1.192 1.0613 0
M  V30 16141 C 1515.19 -2.00542 -0.196232 0
M  V30 16142 O 1514.25 -2.35998 -0.897853 0
M  V30 16143 C 1515.56 -1.92642 2.30889 0
M  V30 16144 C 1517.11 -2.05524 2.3607 0
M  V30 16145 C 1517.58 -2.82374 3.60595 0
M  V30 16146 N 1519.07 -2.89935 3.61236 0
M  V30 16147 C 1519.81 -3.49899 4.54266 0
M  V30 16148 N 1519.3 -4.11141 5.57615 0
M  V30 16149 N 1521.1 -3.4744 4.41862 0
M  V30 16150 H 1513.25 -0.370509 2.09143 0
M  V30 16151 H 1515.51 -0.226573 0.920526 0
M  V30 16152 H 1515.22 -1.40299 3.22504 0
M  V30 16153 H 1515.09 -2.93191 2.37316 0
M  V30 16154 H 1517.48 -2.57047 1.44951 0
M  V30 16155 H 1517.56 -1.0415 2.33637 0
M  V30 16156 H 1517.2 -2.3153 4.52058 0
M  V30 16157 H 1517.13 -3.84063 3.60282 0
M  V30 16158 H 1519.62 -2.46424 2.86502 0
M  V30 16159 H 1519.94 -4.54877 6.24746 0
M  V30 16160 H 1518.28 -4.09645 5.61441 0
M  V30 16161 H 1521.47 -2.98806 3.60323 0
M  V30 16162 H 1521.65 -3.9388 5.14551 0
M  V30 16163 N 1515.05 -1.1067 -1.12204 0
M  V30 16164 C 1515.96 -0.770221 -2.21596 0
M  V30 16165 C 1516.98 0.233297 -1.72429 0
M  V30 16166 O 1518.15 0.0714493 -2.01273 0
M  V30 16167 C 1515.22 -0.209682 -3.46065 0
M  V30 16168 C 1514.28 -1.27079 -4.1006 0
M  V30 16169 C 1513.51 -0.736899 -5.28588 0
M  V30 16170 O 1513.74 0.435838 -5.68732 0
M  V30 16171 O 1512.67 -1.49797 -5.82962 0
M  V30 16172 H 1516.5 -1.6834 -2.52776 0
M  V30 16173 H 1514.08 -0.882012 -1.20586 0
M  V30 16174 H 1515.96 0.0989516 -4.21284 0
M  V30 16175 H 1514.64 0.676316 -3.16556 0
M  V30 16176 H 1513.55 -1.63231 -3.3661 0
M  V30 16177 H 1514.88 -2.12989 -4.4373 0
M  V30 16178 N 1516.53 1.29665 -0.895815 0
M  V30 16179 C 1517.49 2.26103 -0.3755 0
M  V30 16180 C 1518.49 1.53212 0.488126 0
M  V30 16181 O 1519.68 1.71706 0.293733 0
M  V30 16182 C 1516.82 3.37732 0.46364 0
M  V30 16183 H 1518.01 2.73643 -1.22718 0
M  V30 16184 H 1515.56 1.4104 -0.673613 0
M  V30 16185 H 1516.3 2.95526 1.33546 0
M  V30 16186 H 1516.08 3.91793 -0.155123 0
M  V30 16187 H 1517.57 4.09488 0.819112 0
M  V30 16188 N 1518.01 0.657889 1.43212 0
M  V30 16189 C 1518.96 -0.0427288 2.32561 0
M  V30 16190 C 1519.95 -0.808236 1.48875 0
M  V30 16191 O 1521.16 -0.718109 1.65055 0
M  V30 16192 H 1517.53 -0.0326049 0.751293 0
M  V30 16193 H 1519.5 0.728503 2.89371 0
M  V30 16194 C 1518.25 -0.99216 3.33244 0
M  V30 16195 H 1517.57 -0.412542 3.97666 0
M  V30 16196 H 1519.01 -1.45138 3.98385 0
M  V30 16197 C 1517.47 -2.09044 2.64201 0
M  V30 16198 O 1518 -3.17481 2.46107 0
M  V30 16199 N 1516.21 -1.85732 2.23499 0
M  V30 16200 H 1515.76 -0.975483 2.38416 0
M  V30 16201 H 1515.71 -2.5941 1.77634 0
M  V30 16202 N 1519.49 -1.52437 0.400108 0
M  V30 16203 C 1520.73 -2.01312 -0.178252 0
M  V30 16204 C 1521.06 -1.28797 -1.46411 0
M  V30 16205 O 1520.33 -0.411211 -1.91536 0
M  V30 16206 H 1518.91 -0.743819 -0.0688613 0
M  V30 16207 H 1521.57 -1.87434 0.53428 0
M  V30 16208 H 1520.66 -3.09768 -0.380793 0
M  V30 16209 N 1520.96 -0.130252 -1.57061 0
M  V30 16210 C 1522.21 0.52488 -1.94751 0
M  V30 16211 C 1522.53 1.67107 -1.0166 0
M  V30 16212 O 1523.73 2.38971 -1.28861 0
M  V30 16213 C 1522.19 0.985118 -3.46155 0
M  V30 16214 C 1521.8 -0.133222 -4.47802 0
M  V30 16215 C 1523.54 1.61099 -3.92743 0
M  V30 16216 C 1521.45 0.344346 -5.90397 0
M  V30 16217 H 1520.38 0.19985 -0.727032 0
M  V30 16218 H 1523.03 -0.211912 -1.82272 0
M  V30 16219 H 1521.41 1.77667 -3.53907 0
M  V30 16220 H 1522.58 -0.909784 -4.5173 0
M  V30 16221 H 1520.9 -0.666449 -4.11032 0
M  V30 16222 H 1523.5 1.97963 -4.96704 0
M  V30 16223 H 1523.84 2.49366 -3.3335 0
M  V30 16224 H 1524.37 0.884641 -3.87839 0
M  V30 16225 H 1521.11 -0.502547 -6.53571 0
M  V30 16226 H 1520.63 1.08714 -5.89865 0
M  V30 16227 H 1522.31 0.801885 -6.42012 0
M  V30 16228 N 1522.44 1.56945 0.143535 0
M  V30 16229 C 1523.69 1.8381 0.856831 0
M  V30 16230 C 1524.02 0.712375 1.80662 0
M  V30 16231 O 1523.3 -0.283743 1.92419 0
M  V30 16232 C 1523.58 3.21184 1.62828 0
M  V30 16233 C 1523.43 4.44324 0.699744 0
M  V30 16234 C 1524.75 3.5582 2.58999 0
M  V30 16235 H 1521.87 0.668611 0.310046 0
M  V30 16236 H 1524.51 1.89609 0.1219 0
M  V30 16237 H 1522.66 3.16372 2.2548 0
M  V30 16238 H 1524.34 4.61224 0.0839619 0
M  V30 16239 H 1522.58 4.33799 0.0095529 0
M  V30 16240 H 1523.25 5.37058 1.27564 0
M  V30 16241 H 1525.73 3.61264 2.06464 0
M  V30 16242 H 1524.6 4.52964 3.10024 0
M  V30 16243 H 1524.86 2.81956 3.40519 0
M  V30 16244 N 1523.92 -0.412991 1.52093 0
M  V30 16245 C 1524.83 -1.52768 1.78042 0
M  V30 16246 C 1525.85 -1.60758 0.665791 0
M  V30 16247 O 1527.02 -1.77545 0.950772 0
M  V30 16248 C 1524.09 -2.8854 1.92213 0
M  V30 16249 C 1523.15 -2.90468 3.16112 0
M  V30 16250 C 1522.38 -4.19763 3.29598 0
M  V30 16251 O 1522.61 -5.13454 2.48438 0
M  V30 16252 O 1521.54 -4.2847 4.22726 0
M  V30 16253 H 1525.37 -1.33777 2.72649 0
M  V30 16254 H 1522.95 -0.598461 1.3689 0
M  V30 16255 H 1524.83 -3.69073 2.03379 0
M  V30 16256 H 1523.51 -3.07607 1.00795 0
M  V30 16257 H 1522.41 -2.08801 3.10408 0
M  V30 16258 H 1523.75 -2.76349 4.07298 0
M  V30 16259 N 1525.4 -1.4265 -0.669982 0
M  V30 16260 C 1526.64 -1.44866 -1.44199 0
M  V30 16261 C 1527 -0.0647049 -1.91891 0
M  V30 16262 O 1528.2 0.0384187 -2.68773 0
M  V30 16263 C 1526.48 -2.44846 -2.60356 0
M  V30 16264 S 1528.03 -2.65803 -3.49134 0
M  V30 16265 H 1524.85 -0.512859 -0.49244 0
M  V30 16266 H 1527.45 -1.7929 -0.779442 0
M  V30 16267 H 1526.16 -3.44161 -2.23565 0
M  V30 16268 H 1525.69 -2.11863 -3.31478 0
M  V30 16269 H 1527.7 -1.94466 -4.56506 0
M  V30 16270 N 1526.88 0.906753 -1.28902 0
M  V30 16271 C 1528.13 1.6533 -1.16234 0
M  V30 16272 C 1528.45 1.92861 0.288004 0
M  V30 16273 O 1527.72 1.54971 1.19837 0
M  V30 16274 H 1526.3 0.612806 -0.427174 0
M  V30 16275 H 1528.96 1.08764 -1.6173 0
M  V30 16276 H 1528.05 2.61271 -1.70715 0
M  V30 16277 N 1528.36 1.11264 1.11616 0
M  V30 16278 C 1529.77 0.876713 1.64835 0
M  V30 16279 C 1530.12 -0.591384 1.87075 0
M  V30 16280 O 1529.24 -1.45304 1.60361 0
M  V30 16281 C 1529.84 1.58496 2.9944 0
M  V30 16282 C 1528.4 1.39551 3.49575 0
M  V30 16283 C 1527.54 1.62881 2.24422 0
M  V30 16284 H 1530.49 1.26915 0.952804 0
M  V30 16285 H 1530.52 1.02891 3.66325 0
M  V30 16286 H 1530.03 2.65344 2.83221 0
M  V30 16287 H 1528.13 0.349059 3.70961 0
M  V30 16288 H 1528.24 2.14334 4.28483 0
M  V30 16289 H 1526.61 1.05208 2.31955 0
M  V30 16290 H 1527.39 2.70999 2.10748 0
M  V30 16291 N 1529.83 -1.29188 0.902679 0
M  V30 16292 C 1531.07 -1.97218 0.53707 0
M  V30 16293 C 1531.44 -1.69577 -0.900422 0
M  V30 16294 O 1532.64 -2.31086 -1.37305 0
M  V30 16295 C 1530.91 -3.47753 0.824796 0
M  V30 16296 S 1532.47 -4.35161 0.563943 0
M  V30 16297 H 1529.29 -0.682544 0.199136 0
M  V30 16298 H 1531.89 -1.56941 1.16575 0
M  V30 16299 H 1530.59 -3.65364 1.86916 0
M  V30 16300 H 1530.12 -3.92968 0.184342 0
M  V30 16301 H 1532.14 -4.92683 -0.589697 0
M  V30 16302 N 1531.31 -0.665475 -1.42861 0
M  V30 16303 C 1532.24 0.0574495 -2.29128 0
M  V30 16304 C 1533.26 0.774881 -1.43176 0
M  V30 16305 O 1534.45 0.630593 -1.6699 0
M  V30 16306 C 1531.55 1.10481 -3.20386 0
M  V30 16307 C 1530.72 0.463071 -4.34942 0
M  V30 16308 C 1529.78 1.40896 -5.06986 0
M  V30 16309 O 1528.8 0.912839 -5.61833 0
M  V30 16310 N 1530.01 2.74257 -5.11628 0
M  V30 16311 H 1532.77 -0.683051 -2.91812 0
M  V30 16312 H 1530.33 -0.509179 -1.53685 0
M  V30 16313 H 1532.32 1.73866 -3.65449 0
M  V30 16314 H 1530.89 1.74715 -2.59217 0
M  V30 16315 H 1530.11 -0.350109 -3.92642 0
M  V30 16316 H 1531.4 0.0156092 -5.08798 0
M  V30 16317 H 1530.8 3.17112 -4.68462 0
M  V30 16318 H 1529.36 3.32913 -5.60368 0
M  V30 16319 N 1532.79 1.52222 -0.408187 0
M  V30 16320 C 1533.74 2.26988 0.417767 0
M  V30 16321 C 1534.71 1.29362 1.04185 0
M  V30 16322 O 1535.89 1.58223 1.06631 0
M  V30 16323 C 1533.03 3.09379 1.52901 0
M  V30 16324 C 1532.14 4.2196 0.92593 0
M  V30 16325 C 1531.28 4.91712 2.00979 0
M  V30 16326 C 1530.32 5.96258 1.3836 0
M  V30 16327 N 1529.46 6.59531 2.40756 0
M  V30 16328 H 1534.3 2.9714 -0.226228 0
M  V30 16329 H 1531.83 1.46581 -0.123402 0
M  V30 16330 H 1533.79 3.55452 2.18425 0
M  V30 16331 H 1532.42 2.41399 2.14304 0
M  V30 16332 H 1531.47 3.80064 0.159765 0
M  V30 16333 H 1532.78 4.96956 0.428497 0
M  V30 16334 H 1531.94 5.41186 2.74231 0
M  V30 16335 H 1530.68 4.16282 2.54087 0
M  V30 16336 H 1529.68 5.46104 0.636402 0
M  V30 16337 H 1530.91 6.7363 0.860218 0
M  V30 16338 H 1528.85 5.86931 2.92999 0
M  V30 16339 H 1528.77 7.30198 1.95822 0
M  V30 16340 H 1530.04 7.13643 3.13581 0
M  V30 16341 N 1534.27 0.138579 1.5699 0
M  V30 16342 C 1535.51 -0.51539 1.96142 0
M  V30 16343 C 1535.85 -1.65067 1.02306 0
M  V30 16344 O 1535.12 -1.94395 0.0638645 0
M  V30 16345 C 1535.4 -1.02956 3.45068 0
M  V30 16346 C 1535.26 0.103646 4.49681 0
M  V30 16347 C 1536.58 -1.91411 3.96295 0
M  V30 16348 H 1533.7 -0.185873 0.713176 0
M  V30 16349 H 1536.34 0.218103 1.88744 0
M  V30 16350 H 1534.49 -1.65462 3.51503 0
M  V30 16351 H 1536.16 0.739693 4.55331 0
M  V30 16352 H 1534.4 0.764014 4.27019 0
M  V30 16353 H 1535.07 -0.297688 5.51197 0
M  V30 16354 H 1537.55 -1.38746 3.92286 0
M  V30 16355 H 1536.43 -2.24298 5.0098 0
M  V30 16356 H 1536.69 -2.84793 3.38149 0
M  V30 16357 N 1535.75 -1.57019 -0.13521 0
M  V30 16358 C 1536.99 -1.8399 -0.845818 0
M  V30 16359 C 1537.32 -0.721255 -1.80633 0
M  V30 16360 O 1536.58 0.288778 -1.93558 0
M  V30 16361 C 1536.87 -3.17358 -1.64373 0
M  V30 16362 C 1536.54 -4.43214 -0.828967 0
M  V30 16363 C 1535.2 -4.77391 -0.604226 0
M  V30 16364 C 1537.55 -5.20551 -0.259965 0
M  V30 16365 C 1534.88 -5.86359 0.200033 0
M  V30 16366 C 1537.23 -6.30364 0.531397 0
M  V30 16367 C 1535.9 -6.63083 0.766605 0
M  V30 16368 H 1535.17 -0.673266 -0.309507 0
M  V30 16369 H 1537.82 -1.9119 -0.108903 0
M  V30 16370 H 1536.12 -3.05661 -2.4511 0
M  V30 16371 H 1537.82 -3.35444 -2.19724 0
M  V30 16372 H 1534.41 -4.16427 -1.01421 0
M  V30 16373 H 1538.59 -4.94512 -0.420847 0
M  V30 16374 H 1533.85 -6.10144 0.391646 0
M  V30 16375 H 1538.02 -6.89479 0.979371 0
M  V30 16376 H 1535.65 -7.47354 1.39164 0
M  V30 16377 N 1537.22 0.404919 -1.52309 0
M  V30 16378 C 1538.47 1.15319 -1.66822 0
M  V30 16379 C 1538.8 1.90056 -0.399041 0
M  V30 16380 O 1538.08 1.84927 0.602679 0
M  V30 16381 C 1538.36 2.14426 -2.89298 0
M  V30 16382 C 1538.21 1.43558 -4.26276 0
M  V30 16383 C 1539.53 3.15046 -3.07301 0
M  V30 16384 H 1536.65 0.417869 -0.607087 0
M  V30 16385 H 1539.29 0.438414 -1.84873 0
M  V30 16386 H 1537.44 2.75382 -2.74039 0
M  V30 16387 H 1539.12 0.856899 -4.53271 0
M  V30 16388 H 1537.36 0.737515 -4.27485 0
M  V30 16389 H 1538.03 2.15895 -5.08029 0
M  V30 16390 H 1540.51 2.6417 -3.21486 0
M  V30 16391 H 1539.38 3.81652 -3.94503 0
M  V30 16392 H 1539.64 3.83012 -2.20803 0
M  V30 16393 N 1538.7 1.43003 0.662408 0
M  V30 16394 C 1539.95 1.44346 1.4245 0
M  V30 16395 C 1540.28 0.064094 1.94094 0
M  V30 16396 O 1539.56 -0.913633 1.71706 0
M  V30 16397 C 1539.84 2.47822 2.61259 0
M  V30 16398 C 1539.69 3.94998 2.15166 0
M  V30 16399 C 1541.01 2.48139 3.63476 0
M  V30 16400 H 1538.13 0.525606 0.51663 0
M  V30 16401 H 1540.77 1.74495 0.751754 0
M  V30 16402 H 1538.92 2.22244 3.18653 0
M  V30 16403 H 1540.59 4.31601 1.62843 0
M  V30 16404 H 1538.84 4.0827 1.46622 0
M  V30 16405 H 1539.51 4.62998 3.00561 0
M  V30 16406 H 1541.98 2.70916 3.15823 0
M  V30 16407 H 1540.86 3.22498 4.44169 0
M  V30 16408 H 1541.12 1.51184 4.15447 0
M  V30 16409 N 1540.18 -0.899904 1.29381 0
M  V30 16410 C 1541.11 -2.00914 1.103 0
M  V30 16411 C 1542.13 -1.62721 0.050568 0
M  V30 16412 O 1543.31 -1.76044 0.295068 0
M  V30 16413 C 1540.41 -3.32473 0.656896 0
M  V30 16414 C 1539.59 -3.99195 1.7878 0
M  V30 16415 C 1538.65 -5.09043 1.33274 0
M  V30 16416 O 1537.67 -5.31486 2.03742 0
M  V30 16417 N 1538.87 -5.80143 0.203519 0
M  V30 16418 H 1541.64 -2.17838 2.05832 0
M  V30 16419 H 1539.2 -1.07208 1.21318 0
M  V30 16420 H 1541.19 -4.03305 0.335783 0
M  V30 16421 H 1539.76 -3.11921 -0.205959 0
M  V30 16422 H 1538.98 -3.21729 2.2778 0
M  V30 16423 H 1540.27 -4.40515 2.54606 0
M  V30 16424 H 1539.67 -5.64395 -0.384005 0
M  V30 16425 H 1538.23 -6.51774 -0.0582282 0
M  V30 16426 N 1541.66 -1.11854 -1.11024 0
M  V30 16427 C 1542.59 -0.738635 -2.16972 0
M  V30 16428 C 1543.6 0.231814 -1.61141 0
M  V30 16429 O 1544.79 0.0140607 -1.78494 0
M  V30 16430 C 1541.89 -0.0715797 -3.38824 0
M  V30 16431 C 1541.07 -1.06995 -4.24112 0
M  V30 16432 C 1540.12 -0.431644 -5.24427 0
M  V30 16433 O 1539.15 -1.08685 -5.58727 0
M  V30 16434 N 1540.35 0.803593 -5.74911 0
M  V30 16435 H 1543.12 -1.65025 -2.50174 0
M  V30 16436 H 1540.68 -1.00933 -1.26586 0
M  V30 16437 H 1542.67 0.367274 -4.0303 0
M  V30 16438 H 1541.24 0.742686 -3.03649 0
M  V30 16439 H 1540.46 -1.68662 -3.56296 0
M  V30 16440 H 1541.75 -1.74525 -4.77931 0
M  V30 16441 H 1541.15 1.355 -5.49232 0
M  V30 16442 H 1539.7 1.18536 -6.40931 0
M  V30 16443 N 1543.14 1.28707 -0.909517 0
M  V30 16444 C 1544.39 1.94437 -0.536401 0
M  V30 16445 C 1544.7 1.72416 0.923685 0
M  V30 16446 O 1545.9 2.32333 1.40477 0
M  V30 16447 C 1544.36 3.48246 -0.908455 0
M  V30 16448 C 1543.97 3.79051 -2.38798 0
M  V30 16449 C 1545.71 4.20156 -0.605721 0
M  V30 16450 C 1543.62 5.2615 -2.70038 0
M  V30 16451 H 1542.55 0.727842 -0.196882 0
M  V30 16452 H 1545.2 1.46283 -1.10786 0
M  V30 16453 H 1543.58 3.95107 -0.265829 0
M  V30 16454 H 1544.76 3.43014 -3.07698 0
M  V30 16455 H 1543.07 3.20303 -2.66074 0
M  V30 16456 H 1545.67 5.28439 -0.815849 0
M  V30 16457 H 1546.01 4.13792 0.456266 0
M  V30 16458 H 1546.54 3.79059 -1.20662 0
M  V30 16459 H 1543.28 5.37587 -3.75073 0
M  V30 16460 H 1542.8 5.63399 -2.05771 0
M  V30 16461 H 1544.48 5.93846 -2.56819 0
M  V30 16462 N 1544.61 0.673042 1.42506 0
M  V30 16463 C 1546.03 0.272049 1.84707 0
M  V30 16464 C 1546.38 -1.18545 1.56338 0
M  V30 16465 O 1545.5 -1.9073 1.02231 0
M  V30 16466 C 1546.1 0.486977 3.35282 0
M  V30 16467 C 1544.66 0.140122 3.76139 0
M  V30 16468 C 1543.8 0.780276 2.66096 0
M  V30 16469 H 1546.75 0.875329 1.32377 0
M  V30 16470 H 1546.77 -0.261443 3.79601 0
M  V30 16471 H 1546.29 1.54784 3.55898 0
M  V30 16472 H 1544.39 -0.917366 3.6113 0
M  V30 16473 H 1544.5 0.579417 4.75583 0
M  V30 16474 H 1542.86 0.211756 2.53818 0
M  V30 16475 H 1543.65 1.84456 2.89536 0
M  V30 16476 N 1546.09 -1.52004 0.416254 0
M  V30 16477 C 1547.04 -2.28771 -0.420331 0
M  V30 16478 C 1548.03 -1.33751 -1.03957 0
M  V30 16479 O 1549.24 -1.51181 -0.976951 0
M  V30 16480 H 1545.62 -0.735991 -0.15434 0
M  V30 16481 H 1547.59 -2.97366 0.248255 0
M  V30 16482 C 1546.34 -3.12675 -1.52085 0
M  V30 16483 H 1545.66 -3.85665 -1.0537 0
M  V30 16484 H 1547.1 -3.69482 -2.07989 0
M  V30 16485 C 1545.56 -2.26692 -2.49224 0
M  V30 16486 O 1546.09 -1.91205 -3.53276 0
M  V30 16487 N 1544.29 -1.90322 -2.19604 0
M  V30 16488 H 1543.84 -2.1938 -1.35019 0
M  V30 16489 H 1543.8 -1.33086 -2.84843 0
M  V30 16490 N 1547.57 -0.146903 -1.56914 0
M  V30 16491 C 1548.8 0.514426 -2.00919 0
M  V30 16492 C 1549.22 1.57632 -1.02634 0
M  V30 16493 O 1548.58 1.813 -0.00207478 0
M  V30 16494 C 1548.63 1.09197 -3.43669 0
M  V30 16495 O 1547.73 2.20684 -3.48385 0
M  V30 16496 H 1547.07 0.125827 -0.651969 0
M  V30 16497 H 1549.6 -0.243607 -2.03145 0
M  V30 16498 H 1549.61 1.42066 -3.82467 0
M  V30 16499 H 1548.29 0.314336 -4.1471 0
M  V30 16500 H 1546.86 1.89045 -3.21429 0
M  V30 16501 N 1549.05 1.57088 0.126881 0
M  V30 16502 C 1550 2.00736 1.17506 0
M  V30 16503 C 1550.99 0.902986 1.43327 0
M  V30 16504 O 1552.2 1.08819 1.43382 0
M  V30 16505 H 1548.57 0.639285 0.396003 0
M  V30 16506 H 1550.54 2.88015 0.780373 0
M  V30 16507 C 1549.29 2.42096 2.49569 0
M  V30 16508 H 1548.61 3.26639 2.30536 0
M  V30 16509 H 1550.05 2.76442 3.2149 0
M  V30 16510 C 1548.51 1.28148 3.11576 0
M  V30 16511 O 1549.04 0.593145 3.97297 0
M  V30 16512 N 1547.25 1.04055 2.71332 0
M  V30 16513 H 1546.8 1.60208 2.0172 0
M  V30 16514 H 1546.75 0.280075 3.1315 0
M  V30 16515 N 1550.53 -0.396836 1.52522 0
M  V30 16516 C 1551.46 -1.49088 1.79708 0
M  V30 16517 C 1552.44 -1.57246 0.648678 0
M  V30 16518 O 1553.62 -1.72321 0.895495 0
M  V30 16519 C 1550.75 -2.86785 1.95887 0
M  V30 16520 C 1549.71 -2.93472 3.11542 0
M  V30 16521 C 1549.03 -4.33542 3.12963 0
M  V30 16522 C 1550.33 -2.63832 4.50766 0
M  V30 16523 H 1552.03 -1.26588 2.71322 0
M  V30 16524 H 1549.57 -0.607535 1.30557 0
M  V30 16525 H 1551.53 -3.63319 2.13489 0
M  V30 16526 H 1550.25 -3.10605 1.00955 0
M  V30 16527 H 1548.91 -2.19384 2.93711 0
M  V30 16528 H 1548.56 -4.5439 2.15729 0
M  V30 16529 H 1548.26 -4.38938 3.9065 0
M  V30 16530 H 1549.78 -5.11993 3.32709 0
M  V30 16531 H 1551.19 -3.30086 4.68739 0
M  V30 16532 H 1549.59 -2.80589 5.30462 0
M  V30 16533 H 1550.66 -1.59209 4.58018 0
M  V30 16534 N 1552.01 -1.43353 -0.654814 0
M  V30 16535 C 1552.94 -1.51194 -1.7794 0
M  V30 16536 C 1553.92 -0.366747 -1.66099 0
M  V30 16537 O 1555.1 -0.58375 -1.85219 0
M  V30 16538 C 1552.23 -1.43298 -3.16359 0
M  V30 16539 C 1551.19 -2.5605 -3.42961 0
M  V30 16540 C 1550.51 -2.33208 -4.81163 0
M  V30 16541 C 1551.81 -3.98303 -3.37864 0
M  V30 16542 H 1553.51 -2.4532 -1.71635 0
M  V30 16543 H 1551.05 -1.18072 -0.824319 0
M  V30 16544 H 1553 -1.47388 -3.94784 0
M  V30 16545 H 1551.73 -0.456761 -3.2339 0
M  V30 16546 H 1550.39 -2.5131 -2.66906 0
M  V30 16547 H 1550.04 -1.33833 -4.84869 0
M  V30 16548 H 1549.74 -3.08789 -4.99923 0
M  V30 16549 H 1551.26 -2.39079 -5.61848 0
M  V30 16550 H 1552.67 -4.04538 -4.06229 0
M  V30 16551 H 1551.07 -4.73897 -3.6816 0
M  V30 16552 H 1552.14 -4.23552 -2.36075 0
M  V30 16553 N 1553.48 0.89303 -1.29857 0
M  V30 16554 C 1554.41 2.01422 -1.18117 0
M  V30 16555 C 1555.39 1.6994 -0.0737487 0
M  V30 16556 O 1556.58 1.92527 -0.254387 0
M  V30 16557 C 1553.71 3.36385 -0.863842 0
M  V30 16558 C 1552.66 3.821 -1.92831 0
M  V30 16559 C 1551.99 5.14263 -1.46415 0
M  V30 16560 C 1553.29 4.01699 -3.33819 0
M  V30 16561 H 1554.98 2.11502 -2.11913 0
M  V30 16562 H 1552.53 1.01622 -1.02024 0
M  V30 16563 H 1554.48 4.14335 -0.768397 0
M  V30 16564 H 1553.21 3.26415 0.109816 0
M  V30 16565 H 1551.87 3.06372 -2.01325 0
M  V30 16566 H 1551.51 5.00714 -0.478983 0
M  V30 16567 H 1551.21 5.45821 -2.17609 0
M  V30 16568 H 1552.74 5.94747 -1.38234 0
M  V30 16569 H 1554.15 4.70111 -3.28129 0
M  V30 16570 H 1552.55 4.44621 -4.03029 0
M  V30 16571 H 1553.62 3.05816 -3.76304 0
M  V30 16572 N 1554.96 1.12442 1.10429 0
M  V30 16573 C 1555.89 0.814745 2.18824 0
M  V30 16574 C 1556.87 -0.221476 1.68652 0
M  V30 16575 O 1558.06 -0.0826537 1.94024 0
M  V30 16576 C 1555.19 0.268632 3.4626 0
M  V30 16577 C 1554.14 1.23792 4.09707 0
M  V30 16578 C 1553.47 0.552034 5.31843 0
M  V30 16579 C 1554.77 2.5926 4.53411 0
M  V30 16580 H 1556.46 1.72111 2.44986 0
M  V30 16581 H 1554.01 0.828968 1.17746 0
M  V30 16582 H 1555.96 0.0397207 4.21381 0
M  V30 16583 H 1554.68 -0.673079 3.19589 0
M  V30 16584 H 1553.34 1.45264 3.36592 0
M  V30 16585 H 1552.99 -0.394821 5.01448 0
M  V30 16586 H 1552.69 1.19861 5.75245 0
M  V30 16587 H 1554.22 0.332161 6.09696 0
M  V30 16588 H 1555.63 2.41816 5.19806 0
M  V30 16589 H 1554.03 3.19997 5.07663 0
M  V30 16590 H 1555.1 3.17699 3.66327 0
M  V30 16591 N 1556.44 -1.28223 0.91633 0
M  V30 16592 C 1557.69 -1.95153 0.551639 0
M  V30 16593 C 1558.02 -1.71938 -0.902829 0
M  V30 16594 O 1557.29 -1.04184 -1.64243 0
M  V30 16595 C 1557.58 -3.49565 0.864647 0
M  V30 16596 C 1557.43 -3.82171 2.37203 0
M  V30 16597 C 1558.75 -4.38604 0.362593 0
M  V30 16598 H 1555.87 -0.708808 0.20189 0
M  V30 16599 H 1558.51 -1.51545 1.14604 0
M  V30 16600 H 1556.66 -3.8684 0.358782 0
M  V30 16601 H 1558.33 -3.54751 2.94872 0
M  V30 16602 H 1556.57 -3.29124 2.82595 0
M  V30 16603 H 1557.25 -4.90007 2.54159 0
M  V30 16604 H 1559.72 -4.08416 0.795983 0
M  V30 16605 H 1558.6 -5.45493 0.61066 0
M  V30 16606 H 1558.86 -4.35911 -0.737137 0
M  V30 16607 N 1557.92 -0.68059 -1.42147 0
M  V30 16608 C 1559.15 -0.213839 -2.05792 0
M  V30 16609 C 1559.56 1.13123 -1.51158 0
M  V30 16610 O 1558.92 1.7039 -0.653708 0
M  V30 16611 C 1558.97 -0.146507 -3.61203 0
M  V30 16612 O 1558.69 -1.43843 -4.13813 0
M  V30 16613 C 1560.19 0.343043 -4.41971 0
M  V30 16614 H 1557.41 -0.10262 -0.663106 0
M  V30 16615 H 1559.95 -0.928957 -1.82183 0
M  V30 16616 H 1558.11 0.519335 -3.83903 0
M  V30 16617 H 1558.52 -1.31561 -5.07732 0
M  V30 16618 H 1560 0.339053 -5.50958 0
M  V30 16619 H 1560.47 1.37933 -4.16979 0
M  V30 16620 H 1561.08 -0.291267 -4.24301 0
M  V30 16621 N 1559.4 1.51781 -0.424309 0
M  V30 16622 C 1560.67 1.94514 0.205791 0
M  V30 16623 C 1561.05 1.36219 1.61269 0
M  V30 16624 O 1560.4 0.544019 2.21929 0
M  V30 16625 C 1560.61 3.48445 0.196749 0
M  V30 16626 C 1561.96 4.22628 0.408702 0
M  V30 16627 O 1562.98 3.55133 0.275441 0
M  V30 16628 O 1561.84 5.42344 0.672698 0
M  V30 16629 H 1558.94 0.815576 0.136983 0
M  V30 16630 H 1561.48 1.6273 -0.481349 0
M  V30 16631 H 1560.25 3.83297 -0.787342 0
M  V30 16632 H 1559.88 3.86634 0.92735 0
M  V30 16633 N 1560.87 0.155222 1.56834 0
M  V30 16634 C 1562.28 -0.364232 1.83113 0
M  V30 16635 C 1562.64 -1.64173 1.07432 0
M  V30 16636 O 1561.76 -2.13988 0.322202 0
M  V30 16637 C 1562.36 -0.667608 3.32157 0
M  V30 16638 C 1560.91 -1.13156 3.58989 0
M  V30 16639 C 1560.06 -0.158941 2.76844 0
M  V30 16640 H 1563.01 0.379779 1.54089 0
M  V30 16641 H 1563.03 -1.52141 3.4876 0
M  V30 16642 H 1562.55 0.262355 3.87212 0
M  V30 16643 H 1560.65 -2.07717 3.09329 0
M  V30 16644 H 1560.76 -1.05184 4.67411 0
M  V30 16645 H 1559.12 -0.653181 2.46182 0
M  V30 16646 H 1559.91 0.764757 3.34674 0
M  V30 16647 N 1562.35 -1.57153 -0.118549 0
M  V30 16648 C 1563.58 -1.89062 -0.840429 0
M  V30 16649 C 1563.99 -0.746516 -1.73414 0
M  V30 16650 O 1563.35 0.282638 -1.80298 0
M  V30 16651 C 1563.4 -3.20433 -1.67347 0
M  V30 16652 O 1563.12 -4.30439 -0.815739 0
M  V30 16653 C 1564.62 -3.66048 -2.50047 0
M  V30 16654 H 1561.84 -0.626005 -0.241575 0
M  V30 16655 H 1564.39 -2.04241 -0.102804 0
M  V30 16656 H 1562.54 -3.06922 -2.36385 0
M  V30 16657 H 1562.96 -5.05736 -1.39037 0
M  V30 16658 H 1564.43 -4.60729 -3.04028 0
M  V30 16659 H 1564.91 -2.92727 -3.27426 0
M  V30 16660 H 1565.51 -3.82349 -1.86251 0
M  V30 16661 N 1563.83 0.388742 -1.5273 0
M  V30 16662 C 1565.07 1.14269 -1.69475 0
M  V30 16663 C 1565.43 1.87222 -0.425669 0
M  V30 16664 O 1566.63 2.64668 -0.469486 0
M  V30 16665 C 1564.91 2.09472 -2.8958 0
M  V30 16666 S 1566.46 2.927 -3.26913 0
M  V30 16667 H 1563.28 0.386807 -0.596574 0
M  V30 16668 H 1565.88 0.427089 -1.90778 0
M  V30 16669 H 1564.59 1.54599 -3.80167 0
M  V30 16670 H 1564.12 2.8554 -2.70611 0
M  V30 16671 H 1566.13 4.11605 -2.77121 0
M  V30 16672 N 1565.31 1.43698 0.647203 0
M  V30 16673 C 1566.58 1.3611 1.40476 0
M  V30 16674 C 1566.96 0.0118567 2.11097 0
M  V30 16675 O 1566.31 -1.00496 2.05214 0
M  V30 16676 C 1566.52 2.5484 2.38448 0
M  V30 16677 C 1567.87 2.98195 3.02267 0
M  V30 16678 O 1568.89 2.5493 2.48775 0
M  V30 16679 O 1567.75 3.73162 3.99265 0
M  V30 16680 H 1564.85 0.538198 0.62791 0
M  V30 16681 H 1567.39 1.55758 0.673606 0
M  V30 16682 H 1566.17 3.4467 1.85253 0
M  V30 16683 H 1565.79 2.37323 3.19004 0
M  V30 16684 N 1566.79 -0.886131 1.30328 0
M  V30 16685 C 1568.03 -1.652 1.20367 0
M  V30 16686 C 1568.39 -1.90518 -0.238093 0
M  V30 16687 O 1569.59 -2.64819 -0.460926 0
M  V30 16688 C 1567.86 -2.95645 2.00821 0
M  V30 16689 S 1569.42 -3.86614 2.07545 0
M  V30 16690 H 1566.24 -0.567015 0.428969 0
M  V30 16691 H 1568.84 -1.05189 1.64789 0
M  V30 16692 H 1567.55 -2.74942 3.04688 0
M  V30 16693 H 1567.08 -3.6069 1.57056 0
M  V30 16694 H 1569.09 -4.81421 1.20199 0
M  V30 16695 N 1568.26 -1.13026 -1.09832 0
M  V30 16696 C 1569.49 -0.912803 -1.86233 0
M  V30 16697 C 1569.91 0.532955 -1.80392 0
M  V30 16698 O 1569.27 1.37783 -1.17837 0
M  V30 16699 C 1569.32 -1.40002 -3.32313 0
M  V30 16700 O 1568.42 -0.582537 -4.08265 0
M  V30 16701 H 1567.77 -0.327464 -0.577636 0
M  V30 16702 H 1570.3 -1.5039 -1.38723 0
M  V30 16703 H 1570.31 -1.40182 -3.83162 0
M  V30 16704 H 1568.98 -2.4527 -3.3588 0
M  V30 16705 H 1567.56 -0.648255 -3.67222 0
M  V30 16706 N 1569.74 1.27735 -0.923117 0
M  V30 16707 C 1570.99 1.93857 -0.556994 0
M  V30 16708 C 1571.3 1.73386 0.905346 0
M  V30 16709 O 1572.51 2.3381 1.38005 0
M  V30 16710 C 1570.97 3.47263 -0.94534 0
M  V30 16711 C 1570.57 3.76497 -2.42805 0
M  V30 16712 C 1572.32 4.1949 -0.65025 0
M  V30 16713 C 1570.23 5.23256 -2.75603 0
M  V30 16714 H 1569.16 0.725712 -0.204591 0
M  V30 16715 H 1571.81 1.451 -1.12331 0
M  V30 16716 H 1570.19 3.94803 -0.307721 0
M  V30 16717 H 1571.36 3.39731 -3.11319 0
M  V30 16718 H 1569.68 3.17463 -2.69456 0
M  V30 16719 H 1572.27 5.27544 -0.871851 0
M  V30 16720 H 1572.62 4.14253 0.412352 0
M  V30 16721 H 1573.15 3.77758 -1.24676 0
M  V30 16722 H 1569.89 5.33579 -3.80754 0
M  V30 16723 H 1569.41 5.61185 -2.11735 0
M  V30 16724 H 1571.09 5.91088 -2.63103 0
M  V30 16725 N 1571.22 0.688118 1.41784 0
M  V30 16726 C 1572.47 0.215944 2.01345 0
M  V30 16727 C 1572.8 -1.18197 1.54466 0
M  V30 16728 O 1572.05 -1.81032 0.743374 0
M  V30 16729 C 1572.35 0.213747 3.5676 0
M  V30 16730 C 1572.02 1.55816 4.23122 0
M  V30 16731 C 1570.68 1.92623 4.40964 0
M  V30 16732 C 1573.03 2.44297 4.604 0
M  V30 16733 C 1570.36 3.17511 4.93359 0
M  V30 16734 C 1572.71 3.68511 5.14182 0
M  V30 16735 C 1571.37 4.0547 5.30236 0
M  V30 16736 H 1570.64 0.0790193 0.736775 0
M  V30 16737 H 1573.29 0.885737 1.69785 0
M  V30 16738 H 1571.6 -0.539583 3.88067 0
M  V30 16739 H 1573.29 -0.169004 4.00644 0
M  V30 16740 H 1569.88 1.26186 4.09604 0
M  V30 16741 H 1574.07 2.17143 4.46277 0
M  V30 16742 H 1569.32 3.46151 5.03973 0
M  V30 16743 H 1573.5 4.37264 5.42008 0
M  V30 16744 H 1571.12 5.02316 5.70598 0
M  V30 16745 N 1572.7 -1.51554 0.432352 0
M  V30 16746 C 1574.11 -1.86673 -0.0319274 0
M  V30 16747 C 1574.46 -1.34981 -1.42389 0
M  V30 16748 O 1573.59 -0.698556 -2.04815 0
M  V30 16749 C 1574.18 -3.38738 -0.0647127 0
M  V30 16750 C 1572.74 -3.73411 -0.47339 0
M  V30 16751 C 1571.89 -2.75242 0.337187 0
M  V30 16752 H 1574.84 -1.44849 0.648417 0
M  V30 16753 H 1574.86 -3.70297 -0.875239 0
M  V30 16754 H 1574.37 -3.76331 0.948507 0
M  V30 16755 H 1572.47 -3.41406 -1.4924 0
M  V30 16756 H 1572.58 -4.78675 -0.20165 0
M  V30 16757 H 1570.95 -2.53883 -0.203801 0
M  V30 16758 H 1571.73 -3.15677 1.34919 0
M  V30 16759 N 1574.18 -0.163538 -1.56749 0
M  V30 16760 C 1575.59 0.354516 -1.83303 0
M  V30 16761 C 1575.94 1.63601 -1.08301 0
M  V30 16762 O 1575.06 2.13814 -0.333546 0
M  V30 16763 C 1575.66 0.649983 -3.32507 0
M  V30 16764 C 1574.22 1.1125 -3.59584 0
M  V30 16765 C 1573.36 0.144257 -2.76925 0
M  V30 16766 H 1576.32 -0.387945 -1.53885 0
M  V30 16767 H 1576.34 1.5029 -3.49562 0
M  V30 16768 H 1575.85 -0.282886 -3.87068 0
M  V30 16769 H 1573.95 2.06074 -3.10426 0
M  V30 16770 H 1574.06 1.02704 -4.67962 0
M  V30 16771 H 1572.43 0.640116 -2.46525 0
M  V30 16772 H 1573.21 -0.782495 -3.34263 0
M  V30 16773 N 1575.65 1.57214 0.110213 0
M  V30 16774 C 1576.9 1.85586 0.817649 0
M  V30 16775 C 1577.23 0.750536 1.79111 0
M  V30 16776 O 1576.51 -0.242864 1.92978 0
M  V30 16777 C 1576.79 3.24565 1.55979 0
M  V30 16778 C 1576.64 4.45708 0.605339 0
M  V30 16779 C 1577.96 3.61233 2.51393 0
M  V30 16780 H 1575.08 0.675037 0.295794 0
M  V30 16781 H 1577.72 1.89824 0.0816541 0
M  V30 16782 H 1575.87 3.21083 2.18718 0
M  V30 16783 H 1577.55 4.61298 -0.0138894 0
M  V30 16784 H 1575.79 4.33722 -0.0824644 0
M  V30 16785 H 1576.46 5.39643 1.16143 0
M  V30 16786 H 1578.94 3.65563 1.98754 0
M  V30 16787 H 1577.81 4.59438 3.00346 0
M  V30 16788 H 1578.07 2.89116 3.34461 0
M  V30 16789 N 1577.13 -0.380637 1.52934 0
M  V30 16790 C 1578.06 -1.47174 1.81279 0
M  V30 16791 C 1579.04 -1.56549 0.665319 0
M  V30 16792 O 1580.23 -1.71362 0.913722 0
M  V30 16793 C 1577.36 -2.84691 1.98918 0
M  V30 16794 C 1576.31 -2.90151 3.14637 0
M  V30 16795 C 1575.64 -4.30198 3.17544 0
M  V30 16796 C 1576.94 -2.59037 4.53539 0
M  V30 16797 H 1578.63 -1.23703 2.7265 0
M  V30 16798 H 1576.18 -0.593654 1.31194 0
M  V30 16799 H 1578.13 -3.61034 2.1733 0
M  V30 16800 H 1576.86 -3.09517 1.04244 0
M  V30 16801 H 1575.51 -2.16257 2.96021 0
M  V30 16802 H 1575.16 -4.52076 2.20536 0
M  V30 16803 H 1574.86 -4.3477 3.95284 0
M  V30 16804 H 1576.39 -5.08435 3.38121 0
M  V30 16805 H 1577.8 -3.25096 4.72214 0
M  V30 16806 H 1576.2 -2.74946 5.33408 0
M  V30 16807 H 1577.27 -1.54342 4.59681 0
M  V30 16808 N 1578.61 -1.44039 -0.639573 0
M  V30 16809 C 1579.54 -1.46233 -1.76489 0
M  V30 16810 C 1580.56 -0.356739 -1.58843 0
M  V30 16811 O 1581.74 -0.621988 -1.67313 0
M  V30 16812 C 1578.84 -1.27252 -3.14102 0
M  V30 16813 C 1578.02 -2.50902 -3.58283 0
M  V30 16814 C 1577.08 -2.26944 -4.74745 0
M  V30 16815 O 1576.1 -3.00381 -4.83487 0
M  V30 16816 N 1577.3 -1.29468 -5.65878 0
M  V30 16817 H 1580.07 -2.43243 -1.7508 0
M  V30 16818 H 1577.63 -1.3937 -0.823867 0
M  V30 16819 H 1579.62 -1.09085 -3.89721 0
M  V30 16820 H 1578.19 -0.386383 -3.10203 0
M  V30 16821 H 1577.41 -2.84403 -2.72963 0
M  V30 16822 H 1578.7 -3.33163 -3.84552 0
M  V30 16823 H 1578.1 -0.687994 -5.61501 0
M  V30 16824 H 1576.66 -1.17281 -6.41162 0
M  V30 16825 N 1580.09 0.879207 -1.30796 0
M  V30 16826 C 1581 2.01822 -1.19604 0
M  V30 16827 C 1582.01 1.73621 -0.114715 0
M  V30 16828 O 1583.19 1.98665 -0.330757 0
M  V30 16829 C 1580.26 3.3496 -0.894569 0
M  V30 16830 C 1579.32 3.76545 -2.06185 0
M  V30 16831 C 1578.55 5.0333 -1.77467 0
M  V30 16832 O 1578.77 5.66022 -0.70535 0
M  V30 16833 O 1577.71 5.41461 -2.62876 0
M  V30 16834 H 1581.53 2.14194 -2.15301 0
M  V30 16835 H 1579.12 1.00608 -1.10446 0
M  V30 16836 H 1581 4.14818 -0.741891 0
M  V30 16837 H 1579.67 3.23684 0.0324464 0
M  V30 16838 H 1578.58 2.97367 -2.26988 0
M  V30 16839 H 1579.91 3.92434 -2.97079 0
M  V30 16840 N 1581.57 1.13606 1.09231 0
M  V30 16841 C 1582.53 0.818197 2.14099 0
M  V30 16842 C 1583.53 -0.173275 1.59864 0
M  V30 16843 O 1584.72 0.05405 1.74116 0
M  V30 16844 C 1581.85 0.218138 3.40201 0
M  V30 16845 H 1583.05 1.74748 2.43727 0
M  V30 16846 H 1580.6 0.940962 1.24802 0
M  V30 16847 H 1581.33 -0.720269 3.162 0
M  V30 16848 H 1581.12 0.932156 3.80859 0
M  V30 16849 H 1582.61 0.0126639 4.17598 0
M  V30 16850 N 1583.05 -1.27244 0.929878 0
M  V30 16851 C 1584.27 -1.98373 0.587845 0
M  V30 16852 C 1584.69 -1.69349 -0.834638 0
M  V30 16853 O 1584.05 -0.955281 -1.55501 0
M  V30 16854 C 1584.1 -3.52381 0.806843 0
M  V30 16855 O 1583.82 -3.8039 2.17337 0
M  V30 16856 C 1585.32 -4.40761 0.473818 0
M  V30 16857 H 1582.54 -0.633015 0.22256 0
M  V30 16858 H 1585.08 -1.62043 1.2475 0
M  V30 16859 H 1583.24 -3.86914 0.193963 0
M  V30 16860 H 1583.65 -4.74968 2.22498 0
M  V30 16861 H 1585.13 -5.47824 0.677736 0
M  V30 16862 H 1585.6 -4.35209 -0.590734 0
M  V30 16863 H 1586.21 -4.11751 1.06493 0
M  V30 16864 N 1584.52 -0.695628 -1.41417 0
M  V30 16865 C 1585.43 -0.0308378 -2.3458 0
M  V30 16866 C 1586.45 0.766 -1.56232 0
M  V30 16867 O 1587.63 0.703548 -1.88712 0
M  V30 16868 C 1584.69 0.894162 -3.34971 0
M  V30 16869 C 1583.75 0.0895231 -4.29207 0
M  V30 16870 C 1582.98 0.970467 -5.24802 0
M  V30 16871 O 1583.21 2.20997 -5.25848 0
M  V30 16872 O 1582.14 0.420114 -6.00432 0
M  V30 16873 H 1585.97 -0.798775 -2.93007 0
M  V30 16874 H 1583.55 -0.455964 -1.42272 0
M  V30 16875 H 1585.43 1.42458 -3.9659 0
M  V30 16876 H 1584.11 1.64159 -2.78987 0
M  V30 16877 H 1583.02 -0.4855 -3.70936 0
M  V30 16878 H 1584.35 -0.619241 -4.88289 0
M  V30 16879 N 1586 1.51322 -0.440383 0
M  V30 16880 C 1587.25 2.02413 0.125248 0
M  V30 16881 C 1587.58 1.32374 1.42094 0
M  V30 16882 O 1586.86 0.439624 1.89467 0
M  V30 16883 C 1587.14 3.58483 0.340858 0
M  V30 16884 C 1586.99 4.39134 -0.973701 0
M  V30 16885 C 1588.31 4.25891 1.10927 0
M  V30 16886 H 1585.43 0.735683 0.0440452 0
M  V30 16887 H 1588.07 1.80932 -0.579976 0
M  V30 16888 H 1586.22 3.76917 0.941572 0
M  V30 16889 H 1587.89 4.32343 -1.60863 0
M  V30 16890 H 1586.14 4.04097 -1.57759 0
M  V30 16891 H 1586.81 5.46506 -0.776845 0
M  V30 16892 H 1589.28 4.11746 0.600403 0
M  V30 16893 H 1588.16 5.34967 1.2289 0
M  V30 16894 H 1588.42 3.86958 2.13813 0
M  V30 16895 N 1587.48 0.171848 1.5666 0
M  V30 16896 C 1588.43 -0.758237 2.17989 0
M  V30 16897 C 1589.4 -1.22654 1.12006 0
M  V30 16898 O 1590.58 -1.29461 1.40159 0
M  V30 16899 C 1587.72 -1.98189 2.82516 0
M  V30 16900 C 1586.83 -1.55711 4.02962 0
M  V30 16901 C 1585.97 -2.73447 4.55412 0
M  V30 16902 C 1585.01 -2.27462 5.68267 0
M  V30 16903 N 1584.15 -3.38293 6.15225 0
M  V30 16904 H 1588.99 -0.228467 2.97123 0
M  V30 16905 H 1586.52 -0.10104 1.46753 0
M  V30 16906 H 1588.48 -2.6996 3.18084 0
M  V30 16907 H 1587.11 -2.48536 2.05985 0
M  V30 16908 H 1586.16 -0.736126 3.7321 0
M  V30 16909 H 1587.47 -1.17957 4.84652 0
M  V30 16910 H 1586.63 -3.53374 4.93165 0
M  V30 16911 H 1585.37 -3.14462 3.7278 0
M  V30 16912 H 1584.37 -1.45982 5.30065 0
M  V30 16913 H 1585.6 -1.87505 6.52701 0
M  V30 16914 H 1583.54 -3.78882 5.35522 0
M  V30 16915 H 1583.46 -3.04633 6.91907 0
M  V30 16916 H 1584.73 -4.18503 6.57629 0
M  V30 16917 N 1588.96 -1.5727 -0.101874 0
M  V30 16918 C 1590.19 -1.89667 -0.81914 0
M  V30 16919 C 1590.6 -0.763027 -1.73132 0
M  V30 16920 O 1589.94 0.274317 -1.8164 0
M  V30 16921 C 1590 -3.17252 -1.6909 0
M  V30 16922 C 1589.66 -4.4699 -0.951257 0
M  V30 16923 C 1590.66 -5.19123 -0.28417 0
M  V30 16924 C 1588.35 -4.93665 -0.927349 0
M  V30 16925 C 1590.34 -6.36163 0.396934 0
M  V30 16926 C 1588.03 -6.10619 -0.242456 0
M  V30 16927 C 1589.03 -6.81717 0.418514 0
M  V30 16928 O 1588.71 -7.96443 1.09244 0
M  V30 16929 H 1588.45 -0.632024 -0.239836 0
M  V30 16930 H 1591 -2.05222 -0.0855979 0
M  V30 16931 H 1589.23 -2.97825 -2.46651 0
M  V30 16932 H 1590.92 -3.35533 -2.28413 0
M  V30 16933 H 1591.68 -4.84107 -0.294146 0
M  V30 16934 H 1587.56 -4.38219 -1.43126 0
M  V30 16935 H 1591.11 -6.91594 0.913417 0
M  V30 16936 H 1587 -6.45089 -0.230303 0
M  V30 16937 H 1587.77 -8.12385 0.998647 0
M  V30 16938 N 1590.44 0.372521 -1.53134 0
M  V30 16939 C 1591.38 1.47633 -1.79742 0
M  V30 16940 C 1592.38 1.55752 -0.66617 0
M  V30 16941 O 1593.58 1.58721 -0.848979 0
M  V30 16942 H 1589.96 0.491677 -0.568997 0
M  V30 16943 H 1591.93 1.22392 -2.72145 0
M  V30 16944 C 1590.68 2.84559 -1.99803 0
M  V30 16945 H 1590 2.79069 -2.86288 0
M  V30 16946 H 1591.44 3.60989 -2.22402 0
M  V30 16947 C 1589.9 3.27861 -0.775162 0
M  V30 16948 O 1590.43 4.01681 0.0394991 0
M  V30 16949 N 1588.64 2.84326 -0.600573 0
M  V30 16950 H 1588.18 2.2442 -1.26466 0
M  V30 16951 H 1588.14 3.13655 0.216241 0
M  V30 16952 N 1591.91 1.44376 0.631925 0
M  V30 16953 C 1592.88 1.50825 1.72582 0
M  V30 16954 C 1593.88 0.390379 1.55989 0
M  V30 16955 O 1595.07 0.65297 1.61499 0
M  V30 16956 C 1592.2 1.38141 3.11657 0
M  V30 16957 H 1593.39 2.48265 1.68239 0
M  V30 16958 H 1590.94 1.31456 0.845514 0
M  V30 16959 H 1591.68 0.417905 3.21596 0
M  V30 16960 H 1591.46 2.19198 3.25107 0
M  V30 16961 H 1592.95 1.45633 3.91383 0
M  V30 16962 N 1593.39 -0.872258 1.31261 0
M  V30 16963 C 1594.62 -1.6632 1.23905 0
M  V30 16964 C 1595.04 -1.87109 -0.192878 0
M  V30 16965 O 1594.4 -1.4112 -1.1382 0
M  V30 16966 C 1594.45 -3.00979 1.98606 0
M  V30 16967 O 1593.55 -3.90642 1.32183 0
M  V30 16968 H 1592.89 -0.507736 0.427902 0
M  V30 16969 H 1595.42 -1.0877 1.73292 0
M  V30 16970 H 1595.43 -3.50931 2.08113 0
M  V30 16971 H 1594.11 -2.85168 3.02741 0
M  V30 16972 H 1592.68 -3.4909 1.31112 0
M  V30 16973 N 1594.87 -1.14184 -1.08627 0
M  V30 16974 C 1596.12 -0.91001 -1.81236 0
M  V30 16975 C 1596.45 0.562134 -1.85886 0
M  V30 16976 O 1595.72 1.41631 -1.33307 0
M  V30 16977 C 1596.01 -1.50879 -3.26967 0
M  V30 16978 C 1595.86 -3.05063 -3.3054 0
M  V30 16979 C 1597.18 -1.18379 -4.2388 0
M  V30 16980 H 1594.3 -0.332025 -0.657973 0
M  V30 16981 H 1596.94 -1.41144 -1.27194 0
M  V30 16982 H 1595.09 -1.08236 -3.73118 0
M  V30 16983 H 1596.76 -3.5652 -2.9273 0
M  V30 16984 H 1595 -3.39628 -2.6988 0
M  V30 16985 H 1595.68 -3.42064 -4.33239 0
M  V30 16986 H 1598.15 -1.55242 -3.86056 0
M  V30 16987 H 1597.03 -1.62911 -5.24167 0
M  V30 16988 H 1597.29 -0.0987385 -4.4199 0
M  V30 16989 N 1596.35 1.26749 -0.936613 0
M  V30 16990 C 1597.3 2.26542 -0.441307 0
M  V30 16991 C 1598.27 1.58503 0.496581 0
M  V30 16992 O 1599.45 1.86259 0.41379 0
M  V30 16993 C 1596.59 3.43866 0.291633 0
M  V30 16994 C 1595.7 4.26592 -0.681397 0
M  V30 16995 C 1594.84 5.31151 0.0722826 0
M  V30 16996 C 1593.88 6.05553 -0.892869 0
M  V30 16997 N 1593.01 7.01891 -0.17124 0
M  V30 16998 H 1597.85 2.68282 -1.29725 0
M  V30 16999 H 1595.39 1.31914 -0.650928 0
M  V30 17000 H 1597.35 4.10711 0.732984 0
M  V30 17001 H 1595.98 3.03051 1.11175 0
M  V30 17002 H 1595.03 3.59579 -1.24126 0
M  V30 17003 H 1596.34 4.78201 -1.41864 0
M  V30 17004 H 1595.5 6.03987 0.57313 0
M  V30 17005 H 1594.24 4.80369 0.842439 0
M  V30 17006 H 1593.24 5.31548 -1.40488 0
M  V30 17007 H 1594.47 6.58424 -1.66296 0
M  V30 17008 H 1592.41 6.53426 0.580507 0
M  V30 17009 H 1592.33 7.5123 -0.847897 0
M  V30 17010 H 1593.6 7.78889 0.308662 0
M  V30 17011 N 1597.83 0.703118 1.41046 0
M  V30 17012 C 1599.07 0.241543 2.02968 0
M  V30 17013 C 1599.43 -1.13975 1.54511 0
M  V30 17014 O 1600.63 -1.69761 2.0841 0
M  V30 17015 C 1598.9 0.305021 3.56096 0
M  V30 17016 S 1600.46 -0.0813994 4.38724 0
M  V30 17017 H 1597.28 0.0967141 0.704391 0
M  V30 17018 H 1599.88 0.922571 1.72363 0
M  V30 17019 H 1598.59 1.31219 3.88857 0
M  V30 17020 H 1598.12 -0.394903 3.91413 0
M  V30 17021 H 1600.13 -1.30702 4.78677 0
M  V30 17022 N 1599.3 -1.51086 0.448402 0
M  V30 17023 C 1600.58 -1.94817 -0.174819 0
M  V30 17024 C 1600.96 -1.38767 -1.59081 0
M  V30 17025 O 1600.31 -0.579257 -2.21036 0
M  V30 17026 C 1600.52 -3.48714 -0.14129 0
M  V30 17027 C 1601.87 -4.23225 -0.341414 0
M  V30 17028 O 1602.89 -3.55527 -0.218908 0
M  V30 17029 O 1601.75 -5.43346 -0.586331 0
M  V30 17030 H 1598.84 -0.817652 -0.12399 0
M  V30 17031 H 1601.39 -1.61944 0.507177 0
M  V30 17032 H 1600.16 -3.81996 0.848222 0
M  V30 17033 H 1599.79 -3.88061 -0.865722 0
M  V30 17034 N 1600.78 -0.180154 -1.56567 0
M  V30 17035 C 1602.2 0.175902 -1.58628 0
M  V30 17036 C 1602.4 1.62179 -1.19583 0
M  V30 17037 O 1601.45 2.35471 -0.911566 0
M  V30 17038 C 1602.77 -0.11292 -3.00488 0
M  V30 17039 C 1604.32 -0.051834 -3.12957 0
M  V30 17040 C 1604.79 -0.313764 -4.56924 0
M  V30 17041 N 1606.28 -0.261852 -4.62459 0
M  V30 17042 C 1607.02 -0.438573 -5.7172 0
M  V30 17043 N 1606.51 -0.674832 -6.89506 0
M  V30 17044 N 1608.31 -0.373864 -5.60855 0
M  V30 17045 H 1600.46 -1.12385 -1.80232 0
M  V30 17046 H 1602.72 -0.447459 -0.835754 0
M  V30 17047 H 1602.43 -1.11488 -3.33562 0
M  V30 17048 H 1602.3 0.591409 -3.72535 0
M  V30 17049 H 1604.69 0.940711 -2.79705 0
M  V30 17050 H 1604.77 -0.78901 -2.43327 0
M  V30 17051 H 1604.41 -1.30356 -4.90887 0
M  V30 17052 H 1604.34 0.444127 -5.24724 0
M  V30 17053 H 1606.83 -0.0852513 -3.77804 0
M  V30 17054 H 1607.15 -0.798891 -7.6866 0
M  V30 17055 H 1605.49 -0.711551 -6.91348 0
M  V30 17056 H 1608.68 -0.189815 -4.67715 0
M  V30 17057 H 1608.85 -0.515012 -6.4595 0
M  V30 17058 N 1602.26 1.57322 0.0935319 0
M  V30 17059 C 1603.19 1.97423 1.14452 0
M  V30 17060 C 1604.17 0.84769 1.38755 0
M  V30 17061 O 1605.36 1.10812 1.52489 0
M  V30 17062 C 1602.48 2.29234 2.49338 0
M  V30 17063 C 1601.53 3.51672 2.41306 0
M  V30 17064 S 1602.36 5.0333 1.82808 0
M  V30 17065 C 1603.52 5.3832 3.19315 0
M  V30 17066 H 1603.75 2.86259 0.80268 0
M  V30 17067 H 1601.28 1.51432 0.301269 0
M  V30 17068 H 1603.24 2.48237 3.26938 0
M  V30 17069 H 1601.9 1.40966 2.80691 0
M  V30 17070 H 1601.1 3.71377 3.40727 0
M  V30 17071 H 1600.7 3.32187 1.71837 0
M  V30 17072 H 1602.99 5.35061 4.15591 0
M  V30 17073 H 1603.93 6.39327 3.04413 0
M  V30 17074 H 1604.34 4.6578 3.18919 0
M  V30 17075 N 1603.74 -0.364395 1.53329 0
M  V30 17076 C 1605.15 -0.706147 1.43128 0
M  V30 17077 C 1605.35 -1.93231 0.571307 0
M  V30 17078 O 1604.41 -2.52442 0.0542079 0
M  V30 17079 C 1605.72 -0.918245 2.86337 0
M  V30 17080 C 1607.27 -1.01818 2.95976 0
M  V30 17081 C 1607.75 -1.26274 4.40249 0
M  V30 17082 N 1609.24 -1.33042 4.43683 0
M  V30 17083 C 1609.97 -1.53677 5.52423 0
M  V30 17084 N 1609.47 -1.7162 6.71207 0
M  V30 17085 N 1611.26 -1.56056 5.40003 0
M  V30 17086 H 1603.41 0.442091 2.07748 0
M  V30 17087 H 1605.68 0.135735 0.938232 0
M  V30 17088 H 1605.38 -0.0890628 3.51587 0
M  V30 17089 H 1605.26 -1.826 3.30056 0
M  V30 17090 H 1607.64 -1.83791 2.30879 0
M  V30 17091 H 1607.72 -0.0877892 2.55649 0
M  V30 17092 H 1607.37 -0.448026 5.0592 0
M  V30 17093 H 1607.3 -2.20637 4.78149 0
M  V30 17094 H 1609.79 -1.20784 3.58078 0
M  V30 17095 H 1610.1 -1.86942 7.49848 0
M  V30 17096 H 1608.45 -1.68797 6.7419 0
M  V30 17097 H 1611.64 -1.41605 4.46168 0
M  V30 17098 H 1611.81 -1.71796 6.24812 0
M  V30 17099 N 1605.22 -1.44709 -0.62426 0
M  V30 17100 C 1606.44 -1.51573 -1.41564 0
M  V30 17101 C 1606.87 -0.143806 -1.87549 0
M  V30 17102 O 1606.22 0.868361 -1.59151 0
M  V30 17103 C 1606.27 -2.49085 -2.60747 0
M  V30 17104 O 1605.38 -1.99712 -3.60817 0
M  V30 17105 H 1604.72 -0.51157 -0.423311 0
M  V30 17106 H 1607.25 -1.89908 -0.761316 0
M  V30 17107 H 1607.26 -2.67346 -3.08205 0
M  V30 17108 H 1605.93 -3.48733 -2.26624 0
M  V30 17109 H 1604.51 -1.9125 -3.20122 0
M  V30 17110 N 1606.69 0.865285 -1.31722 0
M  V30 17111 C 1607.63 1.97919 -1.15588 0
M  V30 17112 C 1608.64 1.6253 -0.0936929 0
M  V30 17113 O 1609.83 1.752 -0.341639 0
M  V30 17114 C 1606.93 3.30614 -0.744814 0
M  V30 17115 C 1606.1 3.94314 -1.89301 0
M  V30 17116 C 1605.16 5.0533 -1.46724 0
M  V30 17117 O 1604.19 5.25898 -2.17762 0
M  V30 17118 N 1605.39 5.794 -0.357262 0
M  V30 17119 H 1608.15 2.12304 -2.11535 0
M  V30 17120 H 1605.71 1.03953 -1.24118 0
M  V30 17121 H 1607.71 4.02273 -0.442594 0
M  V30 17122 H 1606.28 3.12357 0.123186 0
M  V30 17123 H 1605.5 3.15577 -2.3623 0
M  V30 17124 H 1606.78 4.33609 -2.66196 0
M  V30 17125 H 1606.18 5.65215 0.23423 0
M  V30 17126 H 1604.74 6.51699 -0.114599 0
M  V30 17127 N 1608.17 1.14759 1.0802 0
M  V30 17128 C 1609.12 0.838134 2.15044 0
M  V30 17129 C 1610.09 -0.206031 1.64817 0
M  V30 17130 O 1611.27 -0.0750812 1.90652 0
M  V30 17131 C 1608.41 0.326112 3.43556 0
M  V30 17132 C 1607.53 1.43104 4.07609 0
M  V30 17133 C 1606.66 0.875857 5.2393 0
M  V30 17134 C 1605.7 1.9582 5.79932 0
M  V30 17135 N 1604.84 1.41989 6.87593 0
M  V30 17136 H 1609.68 1.75478 2.40856 0
M  V30 17137 H 1607.22 0.875686 1.18195 0
M  V30 17138 H 1609.17 0.0110103 4.17199 0
M  V30 17139 H 1607.8 -0.55363 3.18017 0
M  V30 17140 H 1606.86 1.86247 3.31687 0
M  V30 17141 H 1608.17 2.24849 4.45246 0
M  V30 17142 H 1607.32 0.512893 6.04528 0
M  V30 17143 H 1606.06 0.0275017 4.87692 0
M  V30 17144 H 1605.07 2.33006 4.97984 0
M  V30 17145 H 1606.29 2.81021 6.18227 0
M  V30 17146 H 1604.24 0.593779 6.53307 0
M  V30 17147 H 1604.15 2.17367 7.24077 0
M  V30 17148 H 1605.42 1.08495 7.71913 0
M  V30 17149 N 1609.65 -1.26251 0.943322 0
M  V30 17150 C 1610.58 -2.28673 0.472347 0
M  V30 17151 C 1611.56 -1.63319 -0.475481 0
M  V30 17152 O 1612.75 -1.90508 -0.376875 0
M  V30 17153 C 1609.88 -3.46316 -0.261286 0
M  V30 17154 C 1608.83 -4.23771 0.600192 0
M  V30 17155 C 1608.16 -5.3405 -0.263525 0
M  V30 17156 C 1609.46 -4.87576 1.87262 0
M  V30 17157 H 1611.15 -2.68319 1.32836 0
M  V30 17158 H 1608.7 -1.28987 0.640182 0
M  V30 17159 H 1610.65 -4.1708 -0.601821 0
M  V30 17160 H 1609.37 -3.05629 -1.15146 0
M  V30 17161 H 1608.03 -3.54774 0.923651 0
M  V30 17162 H 1607.68 -4.89604 -1.15312 0
M  V30 17163 H 1607.38 -5.86784 0.309495 0
M  V30 17164 H 1608.9 -6.07652 -0.599281 0
M  V30 17165 H 1610.32 -5.50544 1.59919 0
M  V30 17166 H 1608.72 -5.50437 2.39038 0
M  V30 17167 H 1609.79 -4.10397 2.58268 0
M  V30 17168 N 1611.13 -0.710588 -1.40671 0
M  V30 17169 C 1612.55 -0.383638 -1.54921 0
M  V30 17170 C 1612.75 1.10805 -1.68299 0
M  V30 17171 O 1611.8 1.89406 -1.66978 0
M  V30 17172 C 1613.11 -1.14532 -2.78034 0
M  V30 17173 C 1614.66 -1.13113 -2.91847 0
M  V30 17174 C 1615.14 -1.87487 -4.17867 0
M  V30 17175 N 1616.63 -1.8453 -4.24856 0
M  V30 17176 C 1617.36 -2.38904 -5.2126 0
M  V30 17177 N 1616.86 -3.01813 -6.23603 0
M  V30 17178 N 1618.65 -2.29075 -5.13304 0
M  V30 17179 H 1610.8 -1.67789 -1.30233 0
M  V30 17180 H 1613.07 -0.70892 -0.629393 0
M  V30 17181 H 1612.77 -2.19983 -2.74409 0
M  V30 17182 H 1612.65 -0.733669 -3.69996 0
M  V30 17183 H 1615.03 -0.0848347 -2.94978 0
M  V30 17184 H 1615.11 -1.58196 -2.01017 0
M  V30 17185 H 1614.76 -2.92104 -4.15497 0
M  V30 17186 H 1614.69 -1.39827 -5.07697 0
M  V30 17187 H 1617.18 -1.38679 -3.51535 0
M  V30 17188 H 1617.49 -3.40832 -6.9358 0
M  V30 17189 H 1615.84 -3.05896 -6.24062 0
M  V30 17190 H 1619.03 -1.79589 -4.32279 0
M  V30 17191 H 1619.2 -2.71752 -5.88264 0
M  V30 17192 N 1612.61 1.50847 -0.456408 0
M  V30 17193 C 1614.02 1.59222 -0.109731 0
M  V30 17194 C 1614.22 1.46582 1.3826 0
M  V30 17195 O 1613.28 1.31678 2.15446 0
M  V30 17196 C 1614.59 2.9366 -0.646846 0
M  V30 17197 C 1616.14 3.07019 -0.60897 0
M  V30 17198 C 1616.62 4.44009 -1.12338 0
M  V30 17199 N 1618.11 4.50381 -1.08217 0
M  V30 17200 C 1618.84 5.54741 -1.45086 0
M  V30 17201 N 1618.34 6.66427 -1.89333 0
M  V30 17202 N 1620.13 5.45204 -1.36782 0
M  V30 17203 H 1612.28 1.57307 -1.42717 0
M  V30 17204 H 1614.54 0.742587 -0.589295 0
M  V30 17205 H 1614.25 3.0834 -1.69172 0
M  V30 17206 H 1614.12 3.7711 -0.0822535 0
M  V30 17207 H 1616.51 2.91995 0.426958 0
M  V30 17208 H 1616.59 2.25362 -1.21019 0
M  V30 17209 H 1616.24 4.59781 -2.15787 0
M  V30 17210 H 1616.17 5.24235 -0.498512 0
M  V30 17211 H 1618.66 3.70231 -0.757467 0
M  V30 17212 H 1618.97 7.42101 -2.15652 0
M  V30 17213 H 1617.32 6.67585 -1.93275 0
M  V30 17214 H 1620.51 4.56837 -1.02066 0
M  V30 17215 H 1620.68 6.26419 -1.65842 0
M  V30 17216 N 1614.09 0.188454 1.56469 0
M  V30 17217 C 1615.5 -0.167487 1.58719 0
M  V30 17218 C 1615.7 -1.61543 1.20442 0
M  V30 17219 O 1614.76 -2.34985 0.924041 0
M  V30 17220 C 1616.07 0.128854 3.00424 0
M  V30 17221 C 1617.62 0.0684301 3.12925 0
M  V30 17222 C 1618.09 0.337991 4.56751 0
M  V30 17223 N 1619.58 0.286373 4.62314 0
M  V30 17224 C 1620.32 0.468886 5.7148 0
M  V30 17225 N 1619.82 0.711388 6.89138 0
M  V30 17226 N 1621.61 0.403602 5.60649 0
M  V30 17227 H 1613.76 1.13339 1.79633 0
M  V30 17228 H 1616.02 0.451885 0.833369 0
M  V30 17229 H 1615.73 1.13255 3.32966 0
M  V30 17230 H 1615.6 -0.571644 3.72843 0
M  V30 17231 H 1617.99 -0.925864 2.802 0
M  V30 17232 H 1618.07 0.801903 2.42906 0
M  V30 17233 H 1617.71 1.32957 4.90189 0
M  V30 17234 H 1617.64 -0.416293 5.24952 0
M  V30 17235 H 1620.14 0.105286 3.77753 0
M  V30 17236 H 1620.45 0.839643 7.68225 0
M  V30 17237 H 1618.79 0.748205 6.90961 0
M  V30 17238 H 1621.98 0.214616 4.67608 0
M  V30 17239 H 1622.16 0.549261 6.45668 0
M  V30 17240 N 1615.56 -1.5737 -0.0851874 0
M  V30 17241 C 1616.97 -1.7544 -0.638575 0
M  V30 17242 C 1617.33 -0.812041 -1.78607 0
M  V30 17243 O 1616.45 0.00710428 -2.16399 0
M  V30 17244 C 1617.05 -3.18134 -1.16517 0
M  V30 17245 C 1615.6 -3.37594 -1.66454 0
M  V30 17246 C 1614.75 -2.71203 -0.578274 0
M  V30 17247 H 1617.7 -1.58073 0.140931 0
M  V30 17248 H 1617.72 -3.21553 -2.0343 0
M  V30 17249 H 1617.24 -3.86696 -0.329794 0
M  V30 17250 H 1615.34 -2.74126 -2.5236 0
M  V30 17251 H 1615.45 -4.45968 -1.75071 0
M  V30 17252 H 1613.81 -2.33379 -1.02011 0
M  V30 17253 H 1614.6 -3.42413 0.246691 0
M  V30 17254 N 1617.04 0.356258 -1.53521 0
M  V30 17255 C 1618.32 1.11414 -1.60768 0
M  V30 17256 C 1618.7 2.0686 -0.420991 0
M  V30 17257 O 1618.05 2.20807 0.587929 0
M  V30 17258 C 1618.26 1.84503 -2.96243 0
M  V30 17259 C 1619.6 2.38703 -3.5115 0
M  V30 17260 O 1620.63 1.94617 -2.98333 0
M  V30 17261 O 1619.49 3.19322 -4.43504 0
M  V30 17262 H 1616.58 0.511623 -0.649747 0
M  V30 17263 H 1619.13 0.358772 -1.65864 0
M  V30 17264 H 1617.9 1.14898 -3.74051 0
M  V30 17265 H 1617.52 2.66927 -2.94679 0
M  V30 17266 N 1618.52 1.45038 0.616577 0
M  V30 17267 C 1619.74 1.52321 1.40759 0
M  V30 17268 C 1620.17 0.15375 1.87471 0
M  V30 17269 O 1619.53 -0.859908 1.5961 0
M  V30 17270 C 1619.58 2.50464 2.59423 0
M  V30 17271 O 1618.68 2.01623 3.59753 0
M  V30 17272 H 1618.02 0.513808 0.420592 0
M  V30 17273 H 1620.55 1.90309 0.751234 0
M  V30 17274 H 1620.56 2.68977 3.06783 0
M  V30 17275 H 1619.24 3.4993 2.24771 0
M  V30 17276 H 1617.81 1.92945 3.19103 0
M  V30 17277 N 1620 -0.858287 1.32179 0
M  V30 17278 C 1621.24 -1.6261 1.23844 0
M  V30 17279 C 1621.6 -1.9098 -0.197628 0
M  V30 17280 O 1622.8 -2.65737 -0.40465 0
M  V30 17281 C 1621.07 -2.91319 2.07047 0
M  V30 17282 S 1622.63 -3.82125 2.15699 0
M  V30 17283 H 1619.45 -0.557789 0.4409 0
M  V30 17284 H 1622.05 -1.0167 1.66983 0
M  V30 17285 H 1620.76 -2.68417 3.10452 0
M  V30 17286 H 1620.29 -3.57277 1.64671 0
M  V30 17287 H 1622.3 -4.78764 1.30384 0
M  V30 17288 N 1621.48 -1.1533 -1.07409 0
M  V30 17289 C 1622.43 -0.81798 -2.12822 0
M  V30 17290 C 1623.41 0.1975 -1.59683 0
M  V30 17291 O 1624.6 -0.00166798 -1.77 0
M  V30 17292 C 1621.73 -0.308356 -3.41912 0
M  V30 17293 C 1620.82 -1.35396 -4.01906 0
M  V30 17294 N 1621.21 -2.5611 -4.36167 0
M  V30 17295 C 1619.51 -1.20656 -4.29369 0
M  V30 17296 C 1620.21 -3.23124 -4.837 0
M  V30 17297 N 1619.18 -2.50513 -4.82436 0
M  V30 17298 H 1622.98 -1.73611 -2.37143 0
M  V30 17299 H 1620.5 -1.03867 -1.24842 0
M  V30 17300 H 1622.5 -0.0497865 -4.1687 0
M  V30 17301 H 1621.16 0.60384 -3.19036 0
M  V30 17302 H 1622.17 -2.93258 -4.26873 0
M  V30 17303 H 1618.84 -0.354208 -4.15995 0
M  V30 17304 H 1620.23 -4.26103 -5.19505 0
M  V30 17305 N 1622.95 1.25748 -0.950004 0
M  V30 17306 C 1623.92 2.24307 -0.47106 0
M  V30 17307 C 1624.92 1.55145 0.422704 0
M  V30 17308 O 1626.11 1.72797 0.220642 0
M  V30 17309 C 1623.24 3.39395 0.319979 0
M  V30 17310 H 1624.43 2.68192 -1.34214 0
M  V30 17311 H 1621.98 1.38056 -0.732827 0
M  V30 17312 H 1622.72 3.00925 1.20892 0
M  V30 17313 H 1622.5 3.90783 -0.321157 0
M  V30 17314 H 1623.99 4.12594 0.644697 0
M  V30 17315 N 1624.43 0.718038 1.40292 0
M  V30 17316 C 1625.68 0.258603 2.00842 0
M  V30 17317 C 1626.01 -1.14894 1.56938 0
M  V30 17318 O 1625.26 -1.79414 0.781606 0
M  V30 17319 C 1625.56 0.289374 3.56227 0
M  V30 17320 C 1625.23 1.64756 4.19722 0
M  V30 17321 C 1623.89 2.01934 4.36779 0
M  V30 17322 C 1626.24 2.54008 4.55115 0
M  V30 17323 C 1623.57 3.27905 4.86513 0
M  V30 17324 C 1625.92 3.79334 5.06249 0
M  V30 17325 C 1624.58 4.16626 5.21516 0
M  V30 17326 H 1623.85 0.0946296 0.734933 0
M  V30 17327 H 1626.5 0.921552 1.67868 0
M  V30 17328 H 1624.81 -0.457147 3.89124 0
M  V30 17329 H 1626.5 -0.0839832 4.00912 0
M  V30 17330 H 1623.09 1.34846 4.06835 0
M  V30 17331 H 1627.28 2.2656 4.4157 0
M  V30 17332 H 1622.53 3.56763 4.96518 0
M  V30 17333 H 1626.71 4.48663 5.32611 0
M  V30 17334 H 1624.33 5.14306 5.59815 0
M  V30 17335 N 1625.91 -1.50602 0.464402 0
M  V30 17336 C 1626.86 -2.25271 -0.351736 0
M  V30 17337 C 1627.84 -1.28586 -0.967185 0
M  V30 17338 O 1629.04 -1.53526 -0.880843 0
M  V30 17339 C 1626.17 -3.11777 -1.43701 0
M  V30 17340 C 1625.25 -4.15906 -0.82962 0
M  V30 17341 N 1625.64 -5.05779 0.0460845 0
M  V30 17342 C 1623.94 -4.32367 -1.0943 0
M  V30 17343 C 1624.64 -5.80391 0.390094 0
M  V30 17344 N 1623.62 -5.431 -0.233071 0
M  V30 17345 H 1627.42 -2.9212 0.322964 0
M  V30 17346 H 1624.93 -1.60001 0.278131 0
M  V30 17347 H 1626.93 -3.6387 -2.03481 0
M  V30 17348 H 1625.59 -2.46475 -2.11377 0
M  V30 17349 H 1626.6 -5.16239 0.414453 0
M  V30 17350 H 1623.28 -3.78285 -1.76654 0
M  V30 17351 H 1624.67 -6.62762 1.10435 0
M  V30 17352 N 1627.39 -0.19675 -1.56367 0
M  V30 17353 C 1628.8 0.315555 -1.84014 0
M  V30 17354 C 1629.15 1.61267 -1.11747 0
M  V30 17355 O 1628.28 2.13058 -0.378824 0
M  V30 17356 C 1628.87 0.579307 -3.33811 0
M  V30 17357 C 1627.43 1.03598 -3.61862 0
M  V30 17358 C 1626.58 0.0854845 -2.77168 0
M  V30 17359 H 1629.53 -0.4205 -1.53028 0
M  V30 17360 H 1629.55 1.42841 -3.52671 0
M  V30 17361 H 1629.06 -0.364925 -3.86381 0
M  V30 17362 H 1627.16 1.99443 -3.14727 0
M  V30 17363 H 1627.27 0.927547 -4.70035 0
M  V30 17364 H 1625.64 0.58768 -2.47827 0
M  V30 17365 H 1626.42 -0.853221 -3.32528 0
M  V30 17366 N 1628.87 1.57413 0.0768405 0
M  V30 17367 C 1629.78 2.06688 1.10983 0
M  V30 17368 C 1630.79 0.995392 1.42716 0
M  V30 17369 O 1631.97 1.30977 1.52994 0
M  V30 17370 C 1629.03 2.49676 2.40546 0
M  V30 17371 C 1628.09 3.71101 2.1583 0
M  V30 17372 C 1627.33 4.1203 3.39216 0
M  V30 17373 O 1627.55 3.52877 4.48145 0
M  V30 17374 O 1626.48 5.04856 3.27726 0
M  V30 17375 H 1630.31 2.95012 0.721242 0
M  V30 17376 H 1627.9 1.46546 0.290624 0
M  V30 17377 H 1629.78 2.77871 3.16805 0
M  V30 17378 H 1628.45 1.64484 2.78795 0
M  V30 17379 H 1627.36 3.47996 1.37293 0
M  V30 17380 H 1628.69 4.5713 1.82465 0
M  V30 17381 N 1630.34 -0.348112 1.53707 0
M  V30 17382 C 1631.25 -1.45079 1.84361 0
M  V30 17383 C 1632.27 -1.5779 0.733375 0
M  V30 17384 O 1633.45 -1.73353 1.02522 0
M  V30 17385 C 1630.51 -2.80127 2.04278 0
M  V30 17386 C 1629.57 -2.76799 3.28148 0
M  V30 17387 C 1628.81 -4.05406 3.47105 0
M  V30 17388 O 1629.03 -5.02454 2.69992 0
M  V30 17389 O 1627.96 -4.10155 4.40519 0
M  V30 17390 H 1631.79 -1.22093 2.78077 0
M  V30 17391 H 1629.37 -0.539863 1.39305 0
M  V30 17392 H 1631.26 -3.60115 2.18849 0
M  V30 17393 H 1629.93 -3.03055 1.13751 0
M  V30 17394 H 1628.84 -1.95448 3.18984 0
M  V30 17395 H 1630.17 -2.58826 4.18653 0
M  V30 17396 N 1631.82 -1.45363 -0.608876 0
M  V30 17397 C 1632.77 -1.54268 -1.7408 0
M  V30 17398 C 1633.76 -0.412752 -1.64295 0
M  V30 17399 O 1634.97 -0.58861 -1.70104 0
M  V30 17400 H 1631.35 -0.484528 -0.575097 0
M  V30 17401 H 1633.32 -2.49492 -1.63696 0
M  V30 17402 C 1632.07 -1.5253 -3.12458 0
M  V30 17403 H 1631.39 -2.38801 -3.20646 0
M  V30 17404 H 1632.83 -1.62819 -3.91492 0
M  V30 17405 C 1631.29 -0.249525 -3.35975 0
M  V30 17406 O 1631.82 0.671159 -3.96053 0
M  V30 17407 N 1630.02 -0.145625 -2.90235 0
M  V30 17408 H 1629.57 -0.895714 -2.41526 0
M  V30 17409 H 1629.53 0.707167 -3.06344 0
M  V30 17410 N 1633.3 0.851265 -1.32632 0
M  V30 17411 C 1634.26 1.94168 -1.21785 0
M  V30 17412 C 1635.26 1.60189 -0.140023 0
M  V30 17413 O 1636.45 1.69763 -0.390671 0
M  V30 17414 C 1633.59 3.29513 -0.873717 0
M  V30 17415 H 1634.78 2.05214 -2.18695 0
M  V30 17416 H 1632.33 1.04186 -1.16512 0
M  V30 17417 H 1633.07 3.24165 0.0934202 0
M  V30 17418 H 1632.85 3.55552 -1.65302 0
M  V30 17419 H 1634.34 4.09425 -0.822231 0
M  V30 17420 N 1634.78 1.15898 1.06796 0
M  V30 17421 C 1635.71 0.818654 2.14081 0
M  V30 17422 C 1636.72 -0.171847 1.6189 0
M  V30 17423 O 1637.91 0.052196 1.78424 0
M  V30 17424 C 1635.01 0.197283 3.38325 0
M  V30 17425 C 1634.19 1.22662 4.19849 0
M  V30 17426 C 1633.24 0.625985 5.22463 0
M  V30 17427 O 1632.27 1.29347 5.54309 0
M  V30 17428 N 1633.47 -0.589665 5.77497 0
M  V30 17429 H 1636.24 1.74196 2.43877 0
M  V30 17430 H 1633.8 1.05562 1.22753 0
M  V30 17431 H 1635.79 -0.217439 4.04115 0
M  V30 17432 H 1634.36 -0.629476 3.06197 0
M  V30 17433 H 1633.58 1.8177 3.49791 0
M  V30 17434 H 1634.87 1.92143 4.71125 0
M  V30 17435 H 1634.27 -1.15022 5.53883 0
M  V30 17436 H 1632.82 -0.946667 6.44889 0
M  V30 17437 N 1636.26 -1.25243 0.956659 0
M  V30 17438 C 1637.53 -1.88287 0.529832 0
M  V30 17439 C 1637.91 -1.8629 -0.992929 0
M  V30 17440 O 1637.26 -1.32785 -1.85958 0
M  V30 17441 C 1637.47 -3.30919 1.10877 0
M  V30 17442 C 1638.82 -4.07674 1.18687 0
M  V30 17443 O 1639.84 -3.40048 1.06047 0
M  V30 17444 O 1638.7 -5.28648 1.38541 0
M  V30 17445 H 1635.8 -0.808258 0.175066 0
M  V30 17446 H 1638.34 -1.33298 1.05022 0
M  V30 17447 H 1637.11 -3.26813 2.15195 0
M  V30 17448 H 1636.74 -3.93468 0.571755 0
M  V30 17449 N 1637.73 -0.725468 -1.3991 0
M  V30 17450 C 1638.97 -0.273803 -2.02558 0
M  V30 17451 C 1639.34 1.11503 -1.56305 0
M  V30 17452 O 1640.54 1.66424 -2.11084 0
M  V30 17453 C 1638.81 -0.361635 -3.55566 0
M  V30 17454 S 1640.37 0.0115918 -4.38798 0
M  V30 17455 H 1637.19 -0.107908 -0.702764 0
M  V30 17456 H 1639.79 -0.949876 -1.70873 0
M  V30 17457 H 1638.49 -1.37389 -3.8672 0
M  V30 17458 H 1638.02 0.332583 -3.91992 0
M  V30 17459 H 1640.04 1.2307 -4.80695 0
M  V30 17460 N 1639.21 1.50354 -0.472382 0
M  V30 17461 C 1640.46 2.01934 0.0820006 0
M  V30 17462 C 1640.78 1.35636 1.401 0
M  V30 17463 O 1640.05 0.502127 1.89355 0
M  V30 17464 H 1638.63 0.746258 0.0332943 0
M  V30 17465 H 1641.29 1.84671 -0.623099 0
M  V30 17466 H 1640.39 3.11232 0.232565 0
M  V30 17467 N 1640.69 0.205039 1.56261 0
M  V30 17468 C 1641.94 -0.430245 1.97467 0
M  V30 17469 C 1642.26 -1.6146 1.09342 0
M  V30 17470 O 1641.53 -1.95188 0.166836 0
M  V30 17471 H 1640.11 -0.161945 0.729234 0
M  V30 17472 H 1642.77 0.294089 1.92668 0
M  V30 17473 H 1641.87 -0.767699 3.02511 0
M  V30 17474 N 1642.17 -1.57451 -0.0684915 0
M  V30 17475 C 1643.13 -2.0293 -1.06545 0
M  V30 17476 C 1644.13 -0.926861 -1.314 0
M  V30 17477 O 1645.32 -1.19164 -1.27065 0
M  V30 17478 C 1642.45 -2.41276 -2.4083 0
M  V30 17479 H 1643.65 -2.92242 -0.673401 0
M  V30 17480 H 1641.2 -1.53107 -0.314307 0
M  V30 17481 H 1641.94 -1.55 -2.8486 0
M  V30 17482 H 1641.72 -3.21727 -2.2413 0
M  V30 17483 H 1643.21 -2.77026 -3.12484 0
M  V30 17484 N 1643.65 0.339955 -1.5389 0
M  V30 17485 C 1644.87 1.10417 -1.75564 0
M  V30 17486 C 1645.3 1.81466 -0.495156 0
M  V30 17487 O 1644.66 1.72679 0.552415 0
M  V30 17488 C 1644.7 2.09056 -2.93816 0
M  V30 17489 O 1643.81 3.16645 -2.64215 0
M  V30 17490 H 1643.15 0.319164 -0.582263 0
M  V30 17491 H 1645.68 0.389251 -2.00863 0
M  V30 17492 H 1645.69 2.52215 -3.20705 0
M  V30 17493 H 1644.36 1.56741 -3.85234 0
M  V30 17494 H 1642.94 2.78278 -2.48225 0
M  V30 17495 N 1645.13 1.45684 0.601159 0
M  V30 17496 C 1646.4 1.4051 1.36074 0
M  V30 17497 C 1646.78 0.0790095 2.10952 0
M  V30 17498 O 1646.13 -0.939162 2.08307 0
M  V30 17499 C 1646.34 2.62297 2.3022 0
M  V30 17500 C 1647.69 3.0766 2.92627 0
M  V30 17501 O 1648.71 2.62716 2.40539 0
M  V30 17502 O 1647.57 3.85675 3.87191 0
M  V30 17503 H 1644.67 0.557902 0.61047 0
M  V30 17504 H 1647.21 1.57822 0.623712 0
M  V30 17505 H 1645.98 3.50389 1.74194 0
M  V30 17506 H 1645.61 2.47351 3.11293 0
M  V30 17507 N 1646.6 -0.84422 1.33082 0
M  V30 17508 C 1647.83 -1.63133 1.27261 0
M  V30 17509 C 1648.25 -1.88142 -0.157479 0
M  V30 17510 O 1647.6 -1.4578 -1.09793 0
M  V30 17511 C 1647.65 -2.98462 2.03967 0
M  V30 17512 O 1647.38 -2.74555 3.41396 0
M  V30 17513 C 1648.88 -3.92899 2.05293 0
M  V30 17514 H 1646.1 -0.507769 0.438647 0
M  V30 17515 H 1648.64 -1.05194 1.75369 0
M  V30 17516 H 1646.8 -3.53017 1.59554 0
M  V30 17517 H 1647.21 -3.60694 3.80789 0
M  V30 17518 H 1648.68 -4.85088 2.63427 0
M  V30 17519 H 1649.16 -4.26665 1.04183 0
M  V30 17520 H 1649.77 -3.44281 2.49701 0
M  V30 17521 N 1648.08 -1.16463 -1.0618 0
M  V30 17522 C 1649.31 -0.97159 -1.83235 0
M  V30 17523 C 1649.73 0.475295 -1.81996 0
M  V30 17524 O 1649.09 1.33964 -1.22161 0
M  V30 17525 C 1649.14 -1.50504 -3.2769 0
M  V30 17526 O 1648.24 -0.712128 -4.06205 0
M  V30 17527 H 1647.58 -0.345676 -0.566925 0
M  V30 17528 H 1650.11 -1.54727 -1.33868 0
M  V30 17529 H 1650.12 -1.52301 -3.78508 0
M  V30 17530 H 1648.8 -2.55832 -3.27907 0
M  V30 17531 H 1647.37 -0.764756 -3.64974 0
M  V30 17532 N 1649.56 1.24734 -0.963288 0
M  V30 17533 C 1650.52 2.23795 -0.494824 0
M  V30 17534 C 1651.52 1.55584 0.406225 0
M  V30 17535 O 1652.71 1.73021 0.202302 0
M  V30 17536 C 1649.84 3.39715 0.283963 0
M  V30 17537 H 1651.04 2.66753 -1.37051 0
M  V30 17538 H 1648.59 1.37271 -0.747428 0
M  V30 17539 H 1649.33 3.0219 1.17693 0
M  V30 17540 H 1649.11 3.9042 -0.362586 0
M  V30 17541 H 1650.6 4.13254 0.600899 0
M  V30 17542 N 1651.04 0.732878 1.39523 0
M  V30 17543 C 1652.26 0.288717 2.05381 0
M  V30 17544 C 1652.69 -1.06727 1.5489 0
M  V30 17545 O 1652.05 -1.67585 0.691726 0
M  V30 17546 C 1652.09 0.297738 3.59369 0
M  V30 17547 O 1651.2 -0.715335 4.06149 0
M  V30 17548 H 1650.54 0.131696 0.650809 0
M  V30 17549 H 1653.07 0.998206 1.78597 0
M  V30 17550 H 1653.08 0.141391 4.07755 0
M  V30 17551 H 1651.75 1.28719 3.9548 0
M  V30 17552 H 1650.33 -0.525298 3.69182 0
M  V30 17553 N 1652.52 -1.50101 0.480349 0
M  V30 17554 C 1653.93 -1.8668 0.0274773 0
M  V30 17555 C 1654.28 -1.39442 -1.38023 0
M  V30 17556 O 1653.4 -0.763363 -2.02489 0
M  V30 17557 C 1654 -3.38773 0.043087 0
M  V30 17558 C 1652.56 -3.74728 -0.354352 0
M  V30 17559 C 1651.7 -2.7403 0.424583 0
M  V30 17560 H 1654.65 -1.42713 0.694172 0
M  V30 17561 H 1654.68 -3.72894 -0.756989 0
M  V30 17562 H 1654.19 -3.73123 1.06775 0
M  V30 17563 H 1652.29 -3.45981 -1.38303 0
M  V30 17564 H 1652.4 -4.79075 -0.0492608 0
M  V30 17565 H 1650.77 -2.54403 -0.122927 0
M  V30 17566 H 1651.55 -3.11225 1.44894 0
M  V30 17567 N 1653.99 -0.213323 -1.5615 0
M  V30 17568 C 1655.4 0.29602 -1.84338 0
M  V30 17569 C 1655.76 1.60073 -1.13451 0
M  V30 17570 O 1654.88 2.12645 -0.4014 0
M  V30 17571 C 1655.48 0.54387 -3.34406 0
M  V30 17572 C 1654.03 0.997539 -3.62941 0
M  V30 17573 C 1653.18 0.0560823 -2.77243 0
M  V30 17574 H 1656.13 -0.436707 -1.52573 0
M  V30 17575 H 1656.15 1.39093 -3.54166 0
M  V30 17576 H 1655.67 -0.405885 -3.85972 0
M  V30 17577 H 1653.77 1.96094 -3.16825 0
M  V30 17578 H 1653.88 0.877642 -4.70993 0
M  V30 17579 H 1652.24 0.561362 -2.48437 0
M  V30 17580 H 1653.03 -0.888442 -3.31605 0
M  V30 17581 N 1655.47 1.57485 0.0601405 0
M  V30 17582 C 1656.4 2.07525 1.07031 0
M  V30 17583 C 1657.38 0.971136 1.39653 0
M  V30 17584 O 1658.57 1.24456 1.49078 0
M  V30 17585 C 1655.7 2.52888 2.38044 0
M  V30 17586 C 1654.65 3.67282 2.19745 0
M  V30 17587 C 1653.98 3.98741 3.56244 0
M  V30 17588 C 1655.28 4.96896 1.60908 0
M  V30 17589 H 1656.97 2.92173 0.653875 0
M  V30 17590 H 1654.52 1.40555 0.313083 0
M  V30 17591 H 1656.47 2.8651 3.09014 0
M  V30 17592 H 1655.2 1.65284 2.81689 0
M  V30 17593 H 1653.85 3.33961 1.51213 0
M  V30 17594 H 1653.5 3.08249 3.97481 0
M  V30 17595 H 1653.2 4.75775 3.44836 0
M  V30 17596 H 1654.73 4.34869 4.28627 0
M  V30 17597 H 1656.14 5.28674 2.21758 0
M  V30 17598 H 1654.54 5.78332 1.60164 0
M  V30 17599 H 1655.61 4.81518 0.571671 0
M  V30 17600 N 1656.95 -0.331789 1.54068 0
M  V30 17601 C 1657.88 -1.41332 1.8587 0
M  V30 17602 C 1658.86 -1.54353 0.714787 0
M  V30 17603 O 1660.05 -1.68368 0.967777 0
M  V30 17604 C 1657.18 -2.78218 2.07875 0
M  V30 17605 C 1656.13 -2.79994 3.23709 0
M  V30 17606 C 1655.46 -4.19878 3.31069 0
M  V30 17607 C 1656.76 -2.44476 4.6155 0
M  V30 17608 H 1658.45 -1.14966 2.76447 0
M  V30 17609 H 1656 -0.551615 1.33016 0
M  V30 17610 H 1657.95 -3.53937 2.28706 0
M  V30 17611 H 1656.67 -3.06044 1.14038 0
M  V30 17612 H 1655.33 -2.0673 3.02751 0
M  V30 17613 H 1654.98 -4.44831 2.34807 0
M  V30 17614 H 1654.68 -4.21974 4.08915 0
M  V30 17615 H 1656.2 -4.97421 3.54125 0
M  V30 17616 H 1657.62 -3.09908 4.82317 0
M  V30 17617 H 1656.02 -2.57837 5.41886 0
M  V30 17618 H 1657.09 -1.3964 4.64358 0
M  V30 17619 N 1658.43 -1.46001 -0.593424 0
M  V30 17620 C 1659.36 -1.58605 -1.71367 0
M  V30 17621 C 1660.34 -0.436866 -1.64394 0
M  V30 17622 O 1661.52 -0.661782 -1.82576 0
M  V30 17623 C 1658.65 -1.56587 -3.09996 0
M  V30 17624 C 1657.61 -2.70366 -3.31792 0
M  V30 17625 C 1656.93 -2.53406 -4.70839 0
M  V30 17626 C 1658.23 -4.12274 -3.20667 0
M  V30 17627 H 1659.93 -2.52379 -1.61076 0
M  V30 17628 H 1657.47 -1.21462 -0.773499 0
M  V30 17629 H 1659.43 -1.64 -3.88178 0
M  V30 17630 H 1658.15 -0.593511 -3.21162 0
M  V30 17631 H 1656.81 -2.62405 -2.56006 0
M  V30 17632 H 1656.46 -1.54278 -4.78756 0
M  V30 17633 H 1656.16 -3.29715 -4.86376 0
M  V30 17634 H 1657.68 -2.62694 -5.51203 0
M  V30 17635 H 1659.1 -4.21404 -3.88705 0
M  V30 17636 H 1657.49 -4.89085 -3.47729 0
M  V30 17637 H 1658.56 -4.33184 -2.17898 0
M  V30 17638 N 1659.91 0.83715 -1.33527 0
M  V30 17639 C 1660.84 1.96231 -1.26553 0
M  V30 17640 C 1661.82 1.69474 -0.14576 0
M  V30 17641 O 1663 1.91274 -0.335815 0
M  V30 17642 C 1660.13 3.32419 -1.00574 0
M  V30 17643 C 1659.09 3.73577 -2.08864 0
M  V30 17644 C 1658.41 5.07591 -1.68095 0
M  V30 17645 C 1659.71 3.87179 -3.50556 0
M  V30 17646 H 1661.41 2.02324 -2.20693 0
M  V30 17647 H 1658.95 0.972038 -1.06242 0
M  V30 17648 H 1660.91 4.10703 -0.943439 0
M  V30 17649 H 1659.63 3.26587 -0.0287268 0
M  V30 17650 H 1658.29 2.97557 -2.14139 0
M  V30 17651 H 1657.94 4.98232 -0.690922 0
M  V30 17652 H 1657.64 5.361 -2.40563 0
M  V30 17653 H 1659.16 5.88349 -1.63334 0
M  V30 17654 H 1660.57 4.55771 -3.47772 0
M  V30 17655 H 1658.97 4.27127 -4.21524 0
M  V30 17656 H 1660.04 2.8958 -3.88936 0
M  V30 17657 N 1661.38 1.17024 1.05561 0
M  V30 17658 C 1662.8 0.962856 1.59956 0
M  V30 17659 C 1663.15 -0.491388 1.89947 0
M  V30 17660 O 1662.27 -1.366 1.67838 0
M  V30 17661 C 1662.87 1.74146 2.90617 0
M  V30 17662 C 1661.43 1.57885 3.41686 0
M  V30 17663 C 1660.57 1.74548 2.15472 0
M  V30 17664 H 1663.52 1.31787 0.88419 0
M  V30 17665 H 1663.54 1.22165 3.60355 0
M  V30 17666 H 1663.06 2.79984 2.68758 0
M  V30 17667 H 1661.16 0.545207 3.6859 0
M  V30 17668 H 1661.27 2.36745 4.16519 0
M  V30 17669 H 1659.63 1.17356 2.26052 0
M  V30 17670 H 1660.42 2.81789 1.96087 0
M  V30 17671 N 1662.86 -1.24221 0.969889 0
M  V30 17672 C 1664.11 -1.92638 0.633913 0
M  V30 17673 C 1664.44 -1.75612 -0.829092 0
M  V30 17674 O 1663.72 -1.11057 -1.59677 0
M  V30 17675 C 1664 -3.45583 1.01213 0
M  V30 17676 C 1663.85 -3.71766 2.53199 0
M  V30 17677 C 1665.17 -4.36671 0.548294 0
M  V30 17678 H 1662.29 -0.699608 0.231772 0
M  V30 17679 H 1664.93 -1.46548 1.20929 0
M  V30 17680 H 1663.08 -3.8497 0.522531 0
M  V30 17681 H 1664.75 -3.41925 3.09653 0
M  V30 17682 H 1663 -3.16842 2.963 0
M  V30 17683 H 1663.67 -4.78787 2.74713 0
M  V30 17684 H 1666.14 -4.04672 0.968489 0
M  V30 17685 H 1665.02 -5.42412 0.841472 0
M  V30 17686 H 1665.28 -4.38646 -0.551588 0
M  V30 17687 N 1664.34 -0.740267 -1.39132 0
M  V30 17688 C 1665.58 -0.295271 -2.02256 0
M  V30 17689 C 1665.94 1.09839 -1.57478 0
M  V30 17690 O 1667.15 1.64176 -2.12838 0
M  V30 17691 C 1665.42 -0.399327 -3.55162 0
M  V30 17692 S 1666.98 -0.0349493 -4.38786 0
M  V30 17693 H 1663.79 -0.115356 -0.70158 0
M  V30 17694 H 1666.4 -0.967946 -1.69856 0
M  V30 17695 H 1665.1 -1.41482 -3.85241 0
M  V30 17696 H 1664.63 0.290988 -3.92322 0
M  V30 17697 H 1666.65 1.17965 -4.81974 0
M  V30 17698 N 1665.82 1.49844 -0.488302 0
M  V30 17699 C 1666.78 2.27412 0.285706 0
M  V30 17700 C 1667.78 1.32897 0.905261 0
M  V30 17701 O 1668.97 1.56171 0.771763 0
M  V30 17702 C 1666.1 3.10435 1.40864 0
M  V30 17703 H 1667.3 2.9729 -0.394782 0
M  V30 17704 H 1664.85 1.54401 -0.242873 0
M  V30 17705 H 1665.58 2.45094 2.12367 0
M  V30 17706 H 1665.37 3.79913 0.969991 0
M  V30 17707 H 1666.86 3.69054 1.95419 0
M  V30 17708 N 1667.3 0.221601 1.56034 0
M  V30 17709 C 1668.54 -0.403939 1.99349 0
M  V30 17710 C 1668.9 -1.57383 1.10672 0
M  V30 17711 O 1668.19 -1.90958 0.156695 0
M  V30 17712 C 1668.38 -0.887416 3.46208 0
M  V30 17713 C 1668.21 0.234087 4.4909 0
M  V30 17714 C 1666.98 0.700495 5.00421 0
M  V30 17715 C 1669.18 1.05237 5.03418 0
M  V30 17716 N 1667.16 1.79705 5.87009 0
M  V30 17717 C 1668.53 1.99779 5.86931 0
M  V30 17718 C 1670.59 1.0918 4.85782 0
M  V30 17719 C 1669.29 2.97943 6.54693 0
M  V30 17720 C 1671.32 2.06162 5.54302 0
M  V30 17721 C 1670.68 2.99444 6.37584 0
M  V30 17722 H 1666.78 -0.114481 0.773575 0
M  V30 17723 H 1669.36 0.333384 1.91825 0
M  V30 17724 H 1667.53 -1.5941 3.54179 0
M  V30 17725 H 1669.27 -1.48578 3.7644 0
M  V30 17726 H 1666.02 0.289083 4.72717 0
M  V30 17727 H 1666.45 2.34733 6.35003 0
M  V30 17728 H 1671.09 0.384543 4.21048 0
M  V30 17729 H 1668.81 3.69631 7.18609 0
M  V30 17730 H 1672.39 2.09887 5.42622 0
M  V30 17731 H 1671.27 3.73263 6.8967 0
M  V30 17732 N 1668.77 -1.57515 -0.0517878 0
M  V30 17733 C 1670.02 -1.87843 -0.745624 0
M  V30 17734 C 1670.34 -0.816318 -1.77091 0
M  V30 17735 O 1669.61 0.152784 -1.95303 0
M  V30 17736 H 1668.19 -0.693194 -0.278372 0
M  V30 17737 H 1670.86 -1.94886 -0.0231267 0
M  V30 17738 H 1669.95 -2.86001 -1.2494 0
M  V30 17739 N 1670.25 0.323614 -1.54242 0
M  V30 17740 C 1671.18 1.40344 -1.86616 0
M  V30 17741 C 1672.16 1.53972 -0.722963 0
M  V30 17742 O 1673.35 1.67852 -0.976692 0
M  V30 17743 C 1670.48 2.77112 -2.09347 0
M  V30 17744 C 1669.43 2.78273 -3.25189 0
M  V30 17745 C 1668.76 4.18116 -3.33291 0
M  V30 17746 C 1670.06 2.42025 -4.6284 0
M  V30 17747 H 1671.75 1.13499 -2.77053 0
M  V30 17748 H 1669.3 0.544553 -1.33306 0
M  V30 17749 H 1671.25 3.52719 -2.3058 0
M  V30 17750 H 1669.98 3.05435 -1.1566 0
M  V30 17751 H 1668.64 2.05121 -3.03844 0
M  V30 17752 H 1668.28 4.4358 -2.37163 0
M  V30 17753 H 1667.98 4.19799 -4.11147 0
M  V30 17754 H 1669.51 4.95536 -3.56758 0
M  V30 17755 H 1670.92 3.07346 -4.83954 0
M  V30 17756 H 1669.32 2.5496 -5.43245 0
M  V30 17757 H 1670.39 1.37175 -4.65092 0
M  V30 17758 N 1671.73 1.46313 0.585673 0
M  V30 17759 C 1672.66 1.59511 1.70524 0
M  V30 17760 C 1673.64 0.445578 1.6416 0
M  V30 17761 O 1674.83 0.671455 1.82223 0
M  V30 17762 C 1671.96 1.58229 3.09162 0
M  V30 17763 C 1670.91 2.72122 3.30354 0
M  V30 17764 C 1670.24 2.559 4.69489 0
M  V30 17765 C 1671.54 4.13969 3.18476 0
M  V30 17766 H 1673.23 2.53229 1.59735 0
M  V30 17767 H 1670.78 1.2187 0.767046 0
M  V30 17768 H 1672.73 1.66056 3.87303 0
M  V30 17769 H 1671.45 0.610535 3.20843 0
M  V30 17770 H 1670.11 2.63759 2.54611 0
M  V30 17771 H 1669.76 1.56814 4.77931 0
M  V30 17772 H 1669.46 3.32289 4.84621 0
M  V30 17773 H 1670.99 2.65613 5.49802 0
M  V30 17774 H 1672.4 4.23459 3.86465 0
M  V30 17775 H 1670.8 4.90922 3.45131 0
M  V30 17776 H 1671.87 4.34334 2.15598 0
M  V30 17777 N 1673.21 -0.830057 1.33969 0
M  V30 17778 C 1674.62 -1.40227 1.23261 0
M  V30 17779 C 1674.97 -1.95664 -0.144862 0
M  V30 17780 O 1674.1 -1.89503 -1.04488 0
M  V30 17781 C 1674.69 -2.54913 2.2317 0
M  V30 17782 C 1673.25 -3.08062 2.16274 0
M  V30 17783 C 1672.4 -1.809 2.10168 0
M  V30 17784 H 1675.35 -0.635062 1.4544 0
M  V30 17785 H 1675.37 -3.32801 1.84455 0
M  V30 17786 H 1674.88 -2.14534 3.23414 0
M  V30 17787 H 1672.98 -3.52964 1.19362 0
M  V30 17788 H 1673.1 -3.67637 3.07213 0
M  V30 17789 H 1671.46 -2.01508 1.55778 0
M  V30 17790 H 1672.24 -1.42705 3.12234 0
M  V30 17791 N 1674.69 -1.17582 -1.04939 0
M  V30 17792 C 1675.62 -0.852608 -2.12752 0
M  V30 17793 C 1676.63 0.14607 -1.62143 0
M  V30 17794 O 1677.82 -0.0805751 -1.78318 0
M  V30 17795 C 1674.92 -0.251083 -3.37969 0
M  V30 17796 C 1674.09 -1.29325 -4.17844 0
M  V30 17797 C 1673.15 -0.709025 -5.21401 0
M  V30 17798 O 1672.18 -1.38149 -5.52181 0
M  V30 17799 N 1673.38 0.497716 -5.78362 0
M  V30 17800 H 1676.15 -1.78054 -2.41074 0
M  V30 17801 H 1673.71 -1.07502 -1.21058 0
M  V30 17802 H 1675.7 0.15312 -4.0441 0
M  V30 17803 H 1674.27 0.580684 -3.07159 0
M  V30 17804 H 1673.49 -1.87311 -3.46855 0
M  V30 17805 H 1674.78 -1.99614 -4.68008 0
M  V30 17806 H 1674.18 1.06196 -5.55643 0
M  V30 17807 H 1672.73 0.843951 -6.46313 0
M  V30 17808 N 1676.17 1.23705 -0.976463 0
M  V30 17809 C 1677.1 2.2734 -0.532809 0
M  V30 17810 C 1678.08 1.64523 0.432012 0
M  V30 17811 O 1679.26 1.9144 0.326233 0
M  V30 17812 C 1676.39 3.46887 0.169374 0
M  V30 17813 C 1675.35 4.22031 -0.712336 0
M  V30 17814 C 1674.67 5.34561 0.121838 0
M  V30 17815 C 1675.97 4.8244 -2.00123 0
M  V30 17816 H 1677.67 2.64702 -1.39904 0
M  V30 17817 H 1675.21 1.27244 -0.674156 0
M  V30 17818 H 1677.16 4.18529 0.491028 0
M  V30 17819 H 1675.89 3.08574 1.07002 0
M  V30 17820 H 1674.55 3.522 -1.01739 0
M  V30 17821 H 1674.2 4.92489 1.0229 0
M  V30 17822 H 1673.9 5.85758 -0.464962 0
M  V30 17823 H 1675.42 6.09027 0.437963 0
M  V30 17824 H 1676.83 5.46111 -1.7446 0
M  V30 17825 H 1675.23 5.43906 -2.53548 0
M  V30 17826 H 1676.3 4.03405 -2.69059 0
M  V30 17827 N 1677.64 0.747635 1.38738 0
M  V30 17828 C 1678.57 0.131317 2.3313 0
M  V30 17829 C 1679.55 -0.710229 1.54563 0
M  V30 17830 O 1680.74 -0.652631 1.82905 0
M  V30 17831 C 1677.87 -0.767168 3.38721 0
M  V30 17832 C 1676.82 -0.0288124 4.2799 0
M  V30 17833 C 1676.15 -1.04515 5.24386 0
M  V30 17834 C 1677.45 1.13608 5.09795 0
M  V30 17835 H 1679.14 0.91981 2.84921 0
M  V30 17836 H 1676.69 0.443764 1.36992 0
M  V30 17837 H 1678.64 -1.20796 4.03716 0
M  V30 17838 H 1677.37 -1.58792 2.85399 0
M  V30 17839 H 1676.03 0.392491 3.64493 0
M  V30 17840 H 1675.67 -1.8598 4.67355 0
M  V30 17841 H 1675.37 -0.555813 5.84965 0
M  V30 17842 H 1676.9 -1.48538 5.92257 0
M  V30 17843 H 1678.31 0.773129 5.68063 0
M  V30 17844 H 1676.71 1.55589 5.79579 0
M  V30 17845 H 1677.78 1.95182 4.43883 0
M  V30 17846 N 1679.12 -1.49583 0.496242 0
M  V30 17847 C 1680.54 -1.58875 0.151907 0
M  V30 17848 C 1680.74 -1.50196 -1.34326 0
M  V30 17849 O 1679.79 -1.37344 -2.11879 0
M  V30 17850 C 1681.11 -2.91842 0.724478 0
M  V30 17851 C 1682.65 -3.05296 0.690157 0
M  V30 17852 C 1683.13 -4.40875 1.24071 0
M  V30 17853 N 1684.62 -4.47354 1.2012 0
M  V30 17854 C 1685.36 -5.50699 1.59743 0
M  V30 17855 N 1684.85 -6.61173 2.06936 0
M  V30 17856 N 1686.64 -5.41386 1.51189 0
M  V30 17857 H 1678.8 -1.53468 1.46838 0
M  V30 17858 H 1681.06 -0.726702 0.608776 0
M  V30 17859 H 1680.76 -3.03747 1.77287 0
M  V30 17860 H 1680.64 -3.7676 0.182209 0
M  V30 17861 H 1683.03 -2.93024 -0.34939 0
M  V30 17862 H 1683.11 -2.22074 1.26952 0
M  V30 17863 H 1682.75 -4.53898 2.27901 0
M  V30 17864 H 1682.68 -5.22729 0.637328 0
M  V30 17865 H 1685.17 -3.68092 0.855361 0
M  V30 17866 H 1685.48 -7.36122 2.35252 0
M  V30 17867 H 1683.83 -6.62226 2.10906 0
M  V30 17868 H 1687.02 -4.53971 1.14142 0
M  V30 17869 H 1687.19 -6.21802 1.82392 0
M  V30 17870 O 1680.64 -0.371518 -1.57169 0
M  V30 17871 H 1681.33 0.17772 -1.92883 0
M  V30 END ATOM
M  V30 BEGIN BOND
M  V30 END BOND
M  V30 END CTAB
M  END
$$$$
