drugbank_target|P10398 Serine/threonine-protein kinase A-Raf (DB00171)
 OpenBabel12092119313D

  0  0  0     0  0            999 V3000
M  V30 BEGIN CTAB
M  V30 COUNTS 9481 9597 0 0 0
M  V30 BEGIN ATOM
M  V30 1 H -0.908 1.98254 -0.117106 0
M  V30 2 N 0 1.576 0 0
M  V30 3 C 0.933 2.03868 1.02534 0
M  V30 4 C 1.911 0.928543 1.3348 0
M  V30 5 O 3.095 1.19667 1.45644 0
M  V30 6 C 0.222 2.43627 2.35294 0
M  V30 7 C -0.732 3.65373 2.2001 0
M  V30 8 S 0.101 5.13292 1.52614 0
M  V30 9 C 1.257 5.56322 2.86805 0
M  V30 10 H 1.49 2.90518 0.631377 0
M  V30 11 H -0.977 1.52953 0.210867 0
M  V30 12 H 0.981 2.67203 3.11629 0
M  V30 13 H -0.358 1.57376 2.7183 0
M  V30 14 H -1.165 3.90944 3.18086 0
M  V30 15 H -1.563 3.418 1.51819 0
M  V30 16 H 0.729 5.58782 3.83104 0
M  V30 17 H 1.672 6.56266 2.65933 0
M  V30 18 H 2.08 4.83886 2.90714 0
M  V30 19 N 1.4781 -0.272755 1.55222 0
M  V30 20 C 2.3881 -1.35918 1.91216 0
M  V30 21 C 3.4041 -1.54026 0.809436 0
M  V30 22 O 4.5801 -1.68148 1.10852 0
M  V30 23 C 1.6451 -2.69834 2.17693 0
M  V30 24 C 0.7061 -2.6047 3.41253 0
M  V30 25 C -0.0609 -3.88 3.66458 0
M  V30 26 O 0.1621 -4.88693 2.94169 0
M  V30 27 O -0.9039 -3.88189 4.59992 0
M  V30 28 H 2.9221 -1.0839 2.83699 0
M  V30 29 H 0.5071 -0.471301 1.41771 0
M  V30 30 H 2.3891 -3.49017 2.36147 0
M  V30 31 H 1.0641 -2.97148 1.28392 0
M  V30 32 H -0.0289 -1.79663 3.28134 0
M  V30 33 H 1.3041 -2.38106 4.30774 0
M  V30 34 N 2.9562 -1.48159 -0.537278 0
M  V30 35 C 4.3672 -1.49429 -1.11928 0
M  V30 36 C 4.7182 -0.26 -1.9447 0
M  V30 37 O 3.8432 0.633489 -2.0692 0
M  V30 38 C 4.4382 -2.70758 -2.03656 0
M  V30 39 C 2.9972 -2.74923 -2.57088 0
M  V30 40 C 2.1442 -2.42835 -1.3389 0
M  V30 41 H 5.0952 -1.55381 -0.322886 0
M  V30 42 H 5.1162 -2.48861 -2.87834 0
M  V30 43 H 4.6282 -3.60575 -1.43553 0
M  V30 44 H 2.7292 -1.89296 -3.20933 0
M  V30 45 H 2.8422 -3.76157 -2.9672 0
M  V30 46 H 1.2062 -1.93836 -1.65226 0
M  V30 47 H 1.9892 -3.34884 -0.755504 0
M  V30 48 N 4.4343 0.785586 -1.36625 0
M  V30 49 C 5.8453 1.36101 -1.27803 0
M  V30 50 C 6.1963 1.96035 0.0804875 0
M  V30 51 O 5.3213 1.92834 0.982042 0
M  V30 52 C 5.9163 2.47442 -2.31426 0
M  V30 53 C 4.4753 3.00789 -2.26281 0
M  V30 54 C 3.6223 1.73896 -2.15999 0
M  V30 55 H 6.5733 0.586928 -1.47448 0
M  V30 56 H 6.5943 3.2656 -1.95291 0
M  V30 57 H 6.1063 2.03791 -3.30289 0
M  V30 58 H 4.2073 3.48851 -1.30896 0
M  V30 59 H 4.3203 3.57343 -3.19128 0
M  V30 60 H 2.6843 1.9628 -1.62316 0
M  V30 61 H 3.4673 1.32368 -3.16755 0
M  V30 62 N 5.9124 1.20967 1.01018 0
M  V30 63 C 7.3284 0.965905 1.27053 0
M  V30 64 C 7.5284 -0.350785 1.98423 0
M  V30 65 O 6.5844 -1.07773 2.28344 0
M  V30 66 C 7.8974 2.15294 2.09926 0
M  V30 67 C 9.4454 2.19463 2.23171 0
M  V30 68 C 9.9204 3.3767 3.09424 0
M  V30 69 N 11.4114 3.37724 3.17012 0
M  V30 70 C 12.1464 4.25837 3.83993 0
M  V30 71 N 11.6424 5.24138 4.53047 0
M  V30 72 N 13.4354 4.1366 3.80581 0
M  V30 73 H 5.5864 2.0565 0.531194 0
M  V30 74 H 7.8494 0.90024 0.297106 0
M  V30 75 H 7.5554 3.10684 1.64828 0
M  V30 76 H 7.4294 2.13923 3.10672 0
M  V30 77 H 9.8164 1.24632 2.6749 0
M  V30 78 H 9.8974 2.2488 1.21912 0
M  V30 79 H 9.5414 4.32791 2.65808 0
M  V30 80 H 9.4714 3.29491 4.10784 0
M  V30 81 H 11.9624 2.6658 2.6785 0
M  V30 82 H 12.2754 5.87684 5.01844 0
M  V30 83 H 10.6204 5.28068 4.5185 0
M  V30 84 H 13.8114 3.36127 3.25785 0
M  V30 85 H 13.9844 4.82538 4.32505 0
M  V30 86 N 7.3905 -1.2043 1.01659 0
M  V30 87 C 8.6385 -1.89423 0.704522 0
M  V30 88 C 8.9595 -1.79231 -0.768197 0
M  V30 89 O 8.2295 -1.1947 -1.55254 0
M  V30 90 H 6.8095 -0.701178 0.257602 0
M  V30 91 H 9.4715 -1.4626 1.28818 0
M  V30 92 H 8.5675 -2.96052 0.987916 0
M  V30 93 N 8.8686 -0.792821 -1.36206 0
M  V30 94 C 10.2796 -0.429513 -1.81692 0
M  V30 95 C 10.6306 1.04695 -1.65932 0
M  V30 96 O 9.7556 1.81256 -1.18218 0
M  V30 97 C 10.3506 -0.772831 -3.29868 0
M  V30 98 C 8.9096 -0.462307 -3.7355 0
M  V30 99 C 8.0566 -1.00569 -2.5842 0
M  V30 100 H 11.0076 -0.985672 -1.24379 0
M  V30 101 H 11.0286 -0.0651928 -3.80444 0
M  V30 102 H 10.5406 -1.84747 -3.41307 0
M  V30 103 H 8.6416 0.604158 -3.67669 0
M  V30 104 H 8.7546 -0.985299 -4.68859 0
M  V30 105 H 7.1186 -0.428734 -2.51066 0
M  V30 106 H 7.9016 -2.08616 -2.72643 0
M  V30 107 N 10.3467 1.47872 -0.545128 0
M  V30 108 C 11.7577 1.86384 -0.108581 0
M  V30 109 C 12.1087 1.45309 1.31832 0
M  V30 110 O 11.2337 0.850641 1.9898 0
M  V30 111 C 11.8287 3.38265 -0.190274 0
M  V30 112 C 10.3877 3.75914 0.191164 0
M  V30 113 C 9.5347 2.71926 -0.543273 0
M  V30 114 H 12.4857 1.39561 -0.755537 0
M  V30 115 H 12.5067 3.75831 0.594217 0
M  V30 116 H 12.0187 3.6813 -1.2289 0
M  V30 117 H 10.1197 3.51665 1.23136 0
M  V30 118 H 10.2327 4.78836 -0.158987 0
M  V30 119 H 8.5967 2.54697 0.0122495 0
M  V30 120 H 9.3797 3.04634 -1.58282 0
M  V30 121 N 11.8248 0.280983 1.55075 0
M  V30 122 C 12.7878 -0.590896 2.21452 0
M  V30 123 C 13.7878 -1.07682 1.19421 0
M  V30 124 O 14.9778 -0.97605 1.44288 0
M  V30 125 C 12.1098 -1.81587 2.88511 0
M  V30 126 H 13.3028 -0.0112554 2.99898 0
M  V30 127 H 10.8558 0.0316438 1.56268 0
M  V30 128 H 11.5908 -2.43587 2.14093 0
M  V30 129 H 11.3758 -1.4753 3.63287 0
M  V30 130 H 12.8658 -2.43575 3.39206 0
M  V30 131 N 13.3029 -1.57598 0.00835791 0
M  V30 132 C 14.2509 -2.10078 -0.998508 0
M  V30 133 C 15.2449 -1.02262 -1.35051 0
M  V30 134 O 16.4509 -1.20719 -1.33518 0
M  V30 135 H 12.8259 -0.670903 -0.339696 0
M  V30 136 H 14.7969 -2.93648 -0.530398 0
M  V30 137 C 13.5459 -2.62615 -2.27879 0
M  V30 138 H 12.8689 -3.45213 -2.01662 0
M  V30 139 H 14.3089 -3.03004 -2.96588 0
M  V30 140 C 12.7679 -1.54407 -2.99433 0
M  V30 141 O 13.2979 -0.931812 -3.90743 0
M  V30 142 N 11.5039 -1.2695 -2.61404 0
M  V30 143 H 11.0509 -1.76924 -1.87232 0
M  V30 144 H 11.0089 -0.547704 -3.09593 0
M  V30 145 N 14.781 0.264519 -1.55364 0
M  V30 146 C 16.029 0.993021 -1.76021 0
M  V30 147 C 16.35 1.86511 -0.569099 0
M  V30 148 O 15.62 1.91438 0.415735 0
M  V30 149 H 14.2 0.369639 -0.649135 0
M  V30 150 H 16.862 0.286707 -1.9278 0
M  V30 151 H 15.958 1.62502 -2.66457 0
M  V30 152 N 16.2591 1.48442 0.529413 0
M  V30 153 C 17.2221 1.62524 1.61612 0
M  V30 154 C 18.2221 0.498509 1.52877 0
M  V30 155 O 19.4121 0.76431 1.56537 0
M  V30 156 C 16.5441 1.59597 3.01233 0
M  V30 157 H 17.7371 2.59423 1.50465 0
M  V30 158 H 15.2901 1.37047 0.751514 0
M  V30 159 H 16.0251 0.641781 3.17886 0
M  V30 160 H 15.8101 2.41397 3.08982 0
M  V30 161 H 17.3001 1.72646 3.80241 0
M  V30 162 N 17.7372 -0.778329 1.37039 0
M  V30 163 C 18.6472 -1.92253 1.34446 0
M  V30 164 C 19.6632 -1.72267 0.244991 0
M  V30 165 O 20.8392 -1.95615 0.479258 0
M  V30 166 C 17.9042 -3.27282 1.144 0
M  V30 167 C 16.9652 -3.59969 2.33925 0
M  V30 168 C 16.1982 -4.88555 2.14825 0
M  V30 169 O 16.4212 -5.59113 1.12912 0
M  V30 170 O 15.3552 -5.20153 3.02861 0
M  V30 171 H 19.1812 -1.97392 2.30803 0
M  V30 172 H 16.7662 -0.920154 1.17701 0
M  V30 173 H 18.6482 -4.08062 1.05182 0
M  V30 174 H 17.3232 -3.23011 0.211124 0
M  V30 175 H 16.2302 -2.7945 2.48714 0
M  V30 176 H 17.5632 -3.68976 3.25757 0
M  V30 177 N 19.2153 -1.21501 -1.00376 0
M  V30 178 C 20.6263 -1.03146 -1.55621 0
M  V30 179 C 20.9773 0.408375 -1.91903 0
M  V30 180 O 20.1023 1.29177 -1.73616 0
M  V30 181 C 20.6973 -1.86612 -2.82775 0
M  V30 182 C 19.2563 -1.72586 -3.34501 0
M  V30 183 C 18.4033 -1.83747 -2.07683 0
M  V30 184 H 21.3543 -1.35505 -0.826081 0
M  V30 185 H 21.3753 -1.3771 -3.54706 0
M  V30 186 H 20.8873 -2.91399 -2.56336 0
M  V30 187 H 18.9883 -0.704877 -3.65872 0
M  V30 188 H 19.1013 -2.54623 -4.05837 0
M  V30 189 H 17.4653 -1.27069 -2.20739 0
M  V30 190 H 18.2483 -2.90044 -1.83655 0
M  V30 191 N 20.6934 1.19889 -1.02296 0
M  V30 192 C 21.9184 1.9393 -0.735237 0
M  V30 193 C 22.3434 1.74639 0.698782 0
M  V30 194 O 21.7014 1.04481 1.48167 0
M  V30 195 C 21.7494 3.43916 -1.08417 0
M  V30 196 O 20.8534 4.11917 -0.199446 0
M  V30 197 H 20.1944 0.605645 -0.272196 0
M  V30 198 H 22.7244 1.52137 -1.36804 0
M  V30 199 H 22.7344 3.9456 -1.03856 0
M  V30 200 H 21.4094 3.5728 -2.12894 0
M  V30 201 H 19.9864 3.71666 -0.303136 0
M  V30 202 N 22.1715 0.800033 1.35784 0
M  V30 203 C 23.5875 0.482977 1.52117 0
M  V30 204 C 23.7875 -0.996948 1.75109 0
M  V30 205 O 22.8435 -1.78216 1.78872 0
M  V30 206 C 24.1565 1.32264 2.70049 0
M  V30 207 C 25.7045 1.31742 2.83924 0
M  V30 208 C 26.1795 2.14106 4.04874 0
M  V30 209 N 27.6705 2.11607 4.12039 0
M  V30 210 C 28.4055 2.72099 5.04727 0
M  V30 211 N 27.9015 3.41492 6.02789 0
M  V30 212 N 29.6945 2.61776 4.97423 0
M  V30 213 H 21.8455 1.75856 1.19115 0
M  V30 214 H 24.1085 0.748122 0.582252 0
M  V30 215 H 23.8145 2.37261 2.59616 0
M  V30 216 H 23.6885 0.971303 3.6448 0
M  V30 217 H 26.0755 0.275333 2.93813 0
M  V30 218 H 26.1565 1.70859 1.9037 0
M  V30 219 H 25.8005 3.18351 3.95746 0
M  V30 220 H 25.7305 1.72353 4.97596 0
M  V30 221 H 28.2215 1.61112 3.41835 0
M  V30 222 H 28.5345 3.84953 6.70098 0
M  V30 223 H 26.8795 3.45596 6.02983 0
M  V30 224 H 30.0705 2.07157 4.19766 0
M  V30 225 H 30.2435 3.0921 5.69468 0
M  V30 226 N 23.6496 -1.47581 0.552962 0
M  V30 227 C 24.6126 -2.28439 -0.186605 0
M  V30 228 C 25.6126 -1.36706 -0.84665 0
M  V30 229 O 26.8026 -1.59378 -0.703164 0
M  V30 230 C 23.9346 -3.16264 -1.2724 0
M  V30 231 H 25.1276 -2.95294 0.523609 0
M  V30 232 H 22.6806 -1.532 0.309745 0
M  V30 233 H 23.4156 -2.54091 -2.01514 0
M  V30 234 H 23.2006 -3.83769 -0.803968 0
M  V30 235 H 24.6906 -3.77198 -1.79196 0
M  V30 236 N 25.1277 -0.289203 -1.54924 0
M  V30 237 C 26.3737 0.323998 -2.00195 0
M  V30 238 C 26.7067 1.54441 -1.17735 0
M  V30 239 O 25.9817 1.92875 -0.250878 0
M  V30 240 C 26.2647 0.692276 -3.53383 0
M  V30 241 C 26.1177 -0.536457 -4.46589 0
M  V30 242 C 27.4367 1.52335 -4.12895 0
M  V30 243 H 24.5557 0.116289 -0.727768 0
M  V30 244 H 27.1977 -0.398954 -1.85764 0
M  V30 245 H 25.3477 1.30822 -3.65811 0
M  V30 246 H 27.0197 -1.17499 -4.46085 0
M  V30 247 H 25.2627 -1.17192 -4.1767 0
M  V30 248 H 25.9337 -0.234806 -5.515 0
M  V30 249 H 28.4097 1.00302 -4.0383 0
M  V30 250 H 27.2857 1.74982 -5.20262 0
M  V30 251 H 27.5467 2.50886 -3.64018 0
M  V30 252 N 26.6058 1.57591 -0.0167156 0
M  V30 253 C 27.8538 1.90906 0.663285 0
M  V30 254 C 28.1748 0.892509 1.73376 0
M  V30 255 O 27.4448 -0.0677623 1.95783 0
M  V30 256 H 26.0248 0.704637 0.247983 0
M  V30 257 H 28.6868 1.94803 -0.0615909 0
M  V30 258 H 27.7828 2.9116 1.12393 0
M  V30 259 N 28.0839 -0.256276 1.55502 0
M  V30 260 C 29.3119 -1.00342 1.8094 0
M  V30 261 C 29.7269 -1.79307 0.59114 0
M  V30 262 O 29.0839 -1.77114 -0.440081 0
M  V30 263 C 29.1349 -1.94875 3.04476 0
M  V30 264 O 28.8559 -1.19107 4.21598 0
M  V30 265 C 30.3569 -2.81266 3.42644 0
M  V30 266 H 27.5769 -0.295685 0.602338 0
M  V30 267 H 30.1209 -0.281998 2.02546 0
M  V30 268 H 28.2759 -2.62457 2.84947 0
M  V30 269 H 28.6899 -1.82969 4.91551 0
M  V30 270 H 30.1639 -3.43362 4.32211 0
M  V30 271 H 30.6409 -3.51897 2.62802 0
M  V30 272 H 31.2469 -2.1915 3.64491 0
M  V30 273 N 29.562 -1.4872 -0.521534 0
M  V30 274 C 30.808 -1.574 -1.27879 0
M  V30 275 C 31.141 -0.250817 -1.92573 0
M  V30 276 O 30.416 0.743934 -1.79711 0
M  V30 277 C 30.699 -2.71843 -2.36164 0
M  V30 278 C 30.552 -4.13893 -1.76105 0
M  V30 279 C 31.871 -2.82008 -3.37875 0
M  V30 280 H 28.99 -0.572941 -0.463581 0
M  V30 281 H 31.632 -1.80927 -0.580119 0
M  V30 282 H 29.782 -2.51914 -2.95756 0
M  V30 283 H 31.454 -4.45284 -1.20499 0
M  V30 284 H 29.697 -4.20498 -1.06601 0
M  V30 285 H 30.368 -4.89804 -2.5455 0
M  V30 286 H 32.844 -3.00086 -2.88249 0
M  V30 287 H 31.72 -3.63796 -4.11028 0
M  V30 288 H 31.981 -1.90511 -3.98946 0
M  V30 289 N 31.0401 0.771051 -1.3745 0
M  V30 290 C 31.9871 1.88435 -1.3327 0
M  V30 291 C 32.9571 1.64914 -0.198136 0
M  V30 292 O 34.1421 1.86821 -0.387606 0
M  V30 293 C 31.2821 3.25509 -1.14622 0
M  V30 294 C 30.3951 3.60979 -2.37314 0
M  V30 295 C 29.5301 4.87265 -2.11533 0
M  V30 296 C 28.5691 5.15469 -3.30088 0
M  V30 297 N 27.7061 6.32944 -3.03853 0
M  V30 298 H 32.5461 1.91344 -2.28455 0
M  V30 299 H 30.0831 0.935466 -1.13523 0
M  V30 300 H 32.0411 4.04582 -1.01831 0
M  V30 301 H 30.6711 3.21974 -0.230837 0
M  V30 302 H 29.7231 2.76885 -2.60842 0
M  V30 303 H 31.0351 3.77759 -3.25729 0
M  V30 304 H 30.1891 5.74244 -1.95777 0
M  V30 305 H 28.9281 4.7259 -1.20457 0
M  V30 306 H 27.9331 4.26966 -3.46382 0
M  V30 307 H 29.1581 5.32052 -4.22016 0
M  V30 308 H 27.1041 6.19625 -2.15407 0
M  V30 309 H 27.0211 6.50143 -3.85812 0
M  V30 310 H 28.2891 7.22857 -2.91716 0
M  V30 311 N 32.5182 1.22032 0.997298 0
M  V30 312 C 33.7642 1.04376 1.73878 0
M  V30 313 C 34.0972 -0.420716 1.89588 0
M  V30 314 O 33.3722 -1.31202 1.43583 0
M  V30 315 C 33.6552 1.75047 3.14691 0
M  V30 316 C 33.5082 3.29062 3.06656 0
M  V30 317 C 34.8272 1.49928 4.13775 0
M  V30 318 H 31.9462 0.380578 0.631133 0
M  V30 319 H 34.5882 1.50312 1.16217 0
M  V30 320 H 32.7382 1.35996 3.63919 0
M  V30 321 H 34.4102 3.7753 2.65083 0
M  V30 322 H 32.6532 3.58967 2.43568 0
M  V30 323 H 33.3242 3.73683 4.06282 0
M  V30 324 H 35.8002 1.83842 3.73285 0
M  V30 325 H 34.6762 2.01878 5.10428 0
M  V30 326 H 34.9372 0.430929 4.39995 0
M  V30 327 N 33.9963 -1.19345 1.0293 0
M  V30 328 C 35.2263 -1.92717 0.744563 0
M  V30 329 C 35.6343 -1.75751 -0.700579 0
M  V30 330 O 34.9773 -1.07703 -1.48815 0
M  V30 331 C 35.0393 -3.44828 1.01657 0
M  V30 332 C 34.7033 -3.85564 2.45335 0
M  V30 333 C 35.7003 -3.90286 3.43472 0
M  V30 334 C 33.3853 -4.1719 2.79746 0
M  V30 335 C 35.3793 -4.26065 4.74075 0
M  V30 336 C 33.0663 -4.52642 4.10559 0
M  V30 337 C 34.0643 -4.57054 5.07534 0
M  V30 338 O 33.7523 -4.91685 6.36004 0
M  V30 339 H 33.4843 -0.618977 0.271742 0
M  V30 340 H 36.0383 -1.52415 1.37691 0
M  V30 341 H 34.2683 -3.85314 0.327084 0
M  V30 342 H 35.9573 -3.99437 0.721427 0
M  V30 343 H 36.7233 -3.66002 3.18225 0
M  V30 344 H 32.6023 -4.1294 2.04943 0
M  V30 345 H 36.1463 -4.29423 5.49765 0
M  V30 346 H 32.0433 -4.76383 4.35579 0
M  V30 347 H 32.8113 -5.09631 6.40483 0
M  V30 348 N 35.4744 -0.807222 -1.35358 0
M  V30 349 C 36.4044 -0.232509 -2.3234 0
M  V30 350 C 37.3854 0.642386 -1.57504 0
M  V30 351 O 38.5704 0.572526 -1.85569 0
M  V30 352 C 35.7004 0.619238 -3.41735 0
M  V30 353 C 34.6544 -0.157215 -4.27711 0
M  V30 354 C 33.9804 0.816273 -5.28433 0
M  V30 355 C 35.2804 -1.35656 -5.04376 0
M  V30 356 H 36.9744 -1.04276 -2.80654 0
M  V30 357 H 34.5204 -0.50288 -1.34934 0
M  V30 358 H 36.4734 1.03137 -4.08584 0
M  V30 359 H 35.1974 1.46239 -2.92031 0
M  V30 360 H 33.8564 -0.550525 -3.62443 0
M  V30 361 H 33.5044 1.65494 -4.74996 0
M  V30 362 H 33.2044 0.301067 -5.86828 0
M  V30 363 H 34.7284 1.22659 -5.98153 0
M  V30 364 H 36.1424 -1.01927 -5.64166 0
M  V30 365 H 34.5394 -1.8063 -5.7227 0
M  V30 366 H 35.6094 -2.14288 -4.34981 0
M  V30 367 N 36.9525 1.47285 -0.560781 0
M  V30 368 C 38.3635 1.86258 -0.128343 0
M  V30 369 C 38.7145 1.46699 1.30284 0
M  V30 370 O 37.8395 0.871698 1.98067 0
M  V30 371 C 38.4345 3.38044 -0.22614 0
M  V30 372 C 36.9935 3.76096 0.151283 0
M  V30 373 C 36.1405 2.71335 -0.572084 0
M  V30 374 H 39.0915 1.38752 -0.770297 0
M  V30 375 H 39.1125 3.76441 0.554322 0
M  V30 376 H 38.6245 3.66806 -1.26788 0
M  V30 377 H 36.7255 3.52951 1.19399 0
M  V30 378 H 36.8385 4.78641 -0.209765 0
M  V30 379 H 35.2025 2.54696 -0.0147653 0
M  V30 380 H 35.9855 3.02938 -1.61504 0
M  V30 381 N 38.4306 0.297415 1.54768 0
M  V30 382 C 39.3786 -0.596051 2.24833 0
M  V30 383 C 40.3726 -1.13992 1.25308 0
M  V30 384 O 41.5786 -1.09098 1.4317 0
M  V30 385 H 37.9536 -0.210814 0.721846 0
M  V30 386 H 39.9246 0.0174667 2.98395 0
M  V30 387 C 38.6736 -1.75818 2.99972 0
M  V30 388 H 37.9966 -1.3489 3.76357 0
M  V30 389 H 39.4366 -2.35949 3.52284 0
M  V30 390 C 37.8956 -2.66014 2.06732 0
M  V30 391 O 38.4256 -3.67009 1.63302 0
M  V30 392 N 36.6316 -2.33669 1.72763 0
M  V30 393 H 36.1786 -1.51586 2.08277 0
M  V30 394 H 36.1366 -2.94285 1.10652 0
M  V30 395 N 39.9087 -1.5758 0.0250728 0
M  V30 396 C 40.8557 -2.09973 -0.958129 0
M  V30 397 C 41.8257 -1.00085 -1.3256 0
M  V30 398 O 43.0107 -1.27481 -1.41962 0
M  V30 399 C 40.1507 -2.62812 -2.2366 0
M  V30 400 C 39.2637 -3.86693 -1.92594 0
M  V30 401 C 38.3987 -4.27941 -3.14707 0
M  V30 402 C 37.4377 -5.44591 -2.79442 0
M  V30 403 N 36.5747 -5.81014 -3.94167 0
M  V30 404 H 41.4147 -2.937 -0.504428 0
M  V30 405 H 38.9517 -1.45172 -0.237392 0
M  V30 406 H 40.9097 -2.91536 -2.98434 0
M  V30 407 H 39.5397 -1.81922 -2.66654 0
M  V30 408 H 38.5917 -3.64723 -1.0808 0
M  V30 409 H 39.9037 -4.71547 -1.62619 0
M  V30 410 H 39.0577 -4.58079 -3.97804 0
M  V30 411 H 37.7967 -3.41845 -3.4784 0
M  V30 412 H 36.8017 -5.1415 -1.94755 0
M  V30 413 H 38.0267 -6.32382 -2.47528 0
M  V30 414 H 35.9727 -4.97874 -4.2715 0
M  V30 415 H 35.8897 -6.60498 -3.67801 0
M  V30 416 H 37.1577 -6.15756 -4.7798 0
M  V30 417 N 41.3868 0.248026 -1.55636 0
M  V30 418 C 42.3188 1.32993 -1.8667 0
M  V30 419 C 43.3318 1.44345 -0.752877 0
M  V30 420 O 44.5208 1.45715 -1.03098 0
M  V30 421 C 41.6208 2.70863 -2.03682 0
M  V30 422 C 40.7938 2.81792 -3.34532 0
M  V30 423 C 39.8528 4.005 -3.41301 0
M  V30 424 O 38.8788 3.9008 -4.14519 0
M  V30 425 N 40.0808 5.13618 -2.70512 0
M  V30 426 H 42.8458 1.06707 -2.8006 0
M  V30 427 H 40.4068 0.438129 -1.55859 0
M  V30 428 H 42.3988 3.48612 -2.05553 0
M  V30 429 H 40.9688 2.89862 -1.17041 0
M  V30 430 H 40.1888 1.90729 -3.44987 0
M  V30 431 H 41.4768 2.86043 -4.20781 0
M  V30 432 H 40.8748 5.24975 -2.10755 0
M  V30 433 H 39.4318 5.89505 -2.78077 0
M  V30 434 N 42.8649 1.48995 0.513639 0
M  V30 435 C 44.2809 1.35478 0.843682 0
M  V30 436 C 44.4809 0.378213 1.97919 0
M  V30 437 O 43.5369 -0.194689 2.51748 0
M  V30 438 C 44.8499 2.75901 1.1958 0
M  V30 439 C 46.3979 2.84509 1.30474 0
M  V30 440 C 46.8729 4.25671 1.69021 0
M  V30 441 N 48.3639 4.28422 1.76094 0
M  V30 442 C 49.0989 5.34601 2.07338 0
M  V30 443 N 48.5949 6.5104 2.36894 0
M  V30 444 N 50.3879 5.22007 2.08483 0
M  V30 445 H 42.5389 2.11092 -0.235328 0
M  V30 446 H 44.8019 0.947039 -0.0426669 0
M  V30 447 H 44.5079 3.49001 0.434913 0
M  V30 448 H 44.3819 3.10467 2.1422 0
M  V30 449 H 46.7689 2.11655 2.05637 0
M  V30 450 H 46.8499 2.53542 0.339155 0
M  V30 451 H 46.4939 4.99048 0.944135 0
M  V30 452 H 46.4239 4.54094 2.66658 0
M  V30 453 H 48.9149 3.44441 1.55464 0
M  V30 454 H 49.2279 7.2779 2.59887 0
M  V30 455 H 47.5729 6.54287 2.34378 0
M  V30 456 H 50.7639 4.30051 1.84861 0
M  V30 457 H 50.9369 6.04854 2.325 0
M  V30 458 N 44.343 -0.763751 1.37857 0
M  V30 459 C 45.571 -1.55293 1.36718 0
M  V30 460 C 45.986 -1.88745 -0.0455434 0
M  V30 461 O 45.343 -1.52039 -1.00947 0
M  V30 462 C 45.394 -2.85831 2.2132 0
M  V30 463 O 45.115 -2.5381 3.57089 0
M  V30 464 C 46.616 -3.80023 2.28249 0
M  V30 465 H 43.836 -0.480841 0.468009 0
M  V30 466 H 46.38 -0.946009 1.81303 0
M  V30 467 H 44.535 -3.42926 1.80223 0
M  V30 468 H 44.949 -3.37459 4.01524 0
M  V30 469 H 46.423 -4.68599 2.91752 0
M  V30 470 H 46.9 -4.1973 1.2932 0
M  V30 471 H 47.506 -3.28855 2.69693 0
M  V30 472 N 45.8211 -1.22559 -0.990812 0
M  V30 473 C 47.0671 -1.05297 -1.73322 0
M  V30 474 C 47.4001 0.410655 -1.89808 0
M  V30 475 O 46.6751 1.30439 -1.44277 0
M  V30 476 C 46.9581 -1.76713 -3.13759 0
M  V30 477 C 46.8111 -3.30684 -3.04907 0
M  V30 478 C 48.1301 -1.52121 -4.12974 0
M  V30 479 H 45.2491 -0.38392 -0.629106 0
M  V30 480 H 47.8911 -1.50926 -1.15418 0
M  V30 481 H 46.0411 -1.37924 -3.63193 0
M  V30 482 H 47.7131 -3.7893 -2.63077 0
M  V30 483 H 45.9561 -3.60253 -2.41661 0
M  V30 484 H 46.6271 -3.75833 -4.04294 0
M  V30 485 H 49.1031 -1.85819 -3.72304 0
M  V30 486 H 47.9791 -2.04582 -5.0935 0
M  V30 487 H 48.2401 -0.454257 -4.3976 0
M  V30 488 N 47.2992 1.18797 -1.03562 0
M  V30 489 C 48.5452 1.8893 -0.737113 0
M  V30 490 C 48.8782 1.79837 0.732956 0
M  V30 491 O 48.1532 1.19525 1.5344 0
M  V30 492 C 48.4362 3.39607 -1.19745 0
M  V30 493 C 48.2892 3.57537 -2.72924 0
M  V30 494 C 49.6082 4.33069 -0.783526 0
M  V30 495 H 46.7272 0.686057 -0.269249 0
M  V30 496 H 49.3692 1.39797 -1.28673 0
M  V30 497 H 47.5192 3.81583 -0.729855 0
M  V30 498 H 49.1912 3.24688 -3.27682 0
M  V30 499 H 47.4342 3.00363 -3.12993 0
M  V30 500 H 48.1052 4.63238 -3.00191 0
M  V30 501 H 50.5812 3.98846 -1.18581 0
M  V30 502 H 49.4572 5.3707 -1.13343 0
M  V30 503 H 49.7182 4.40986 0.313681 0
M  V30 504 N 48.7773 0.814389 1.34928 0
M  V30 505 C 50.0053 0.411136 2.02774 0
M  V30 506 C 50.4203 -0.980316 1.61354 0
M  V30 507 O 49.7773 -1.63299 0.814847 0
M  V30 508 C 49.8283 0.493865 3.58111 0
M  V30 509 O 49.5493 1.83047 3.98027 0
M  V30 510 C 51.0503 0.0844174 4.4322 0
M  V30 511 H 48.2703 0.166037 0.650133 0
M  V30 512 H 50.8143 1.10018 1.72384 0
M  V30 513 H 48.9693 -0.147006 3.87121 0
M  V30 514 H 49.3833 1.79872 4.92693 0
M  V30 515 H 50.8573 0.193404 5.51661 0
M  V30 516 H 51.3343 -0.97113 4.28329 0
M  V30 517 H 51.9403 0.69875 4.19521 0
M  V30 518 N 50.2554 -1.46986 0.568584 0
M  V30 519 C 51.5014 -2.02741 0.0488709 0
M  V30 520 C 51.8344 -1.44077 -1.30214 0
M  V30 521 O 51.1094 -0.600552 -1.84996 0
M  V30 522 C 51.3924 -3.60086 -0.032047 0
M  V30 523 C 51.2454 -4.29162 1.34686 0
M  V30 524 C 52.5644 -4.33838 -0.739798 0
M  V30 525 H 49.6834 -0.736749 0.0192338 0
M  V30 526 H 52.3254 -1.75289 0.733065 0
M  V30 527 H 50.4754 -3.83606 -0.61473 0
M  V30 528 H 52.1474 -4.16948 1.97362 0
M  V30 529 H 50.3904 -3.89073 1.91846 0
M  V30 530 H 51.0614 -5.37826 1.24285 0
M  V30 531 H 53.5374 -4.15378 -0.244939 0
M  V30 532 H 52.4134 -5.43537 -0.765406 0
M  V30 533 H 52.6744 -4.03875 -1.79827 0
M  V30 534 N 51.7335 -0.305618 -1.54608 0
M  V30 535 C 53.1495 0.0476228 -1.59529 0
M  V30 536 C 53.3495 1.52025 -1.32252 0
M  V30 537 O 52.4055 2.27368 -1.09818 0
M  V30 538 C 53.7185 -0.354471 -2.98603 0
M  V30 539 C 55.2665 -0.303622 -3.11524 0
M  V30 540 C 55.7415 -0.680608 -4.52915 0
M  V30 541 N 57.2325 -0.63332 -4.5885 0
M  V30 542 C 57.9675 -0.897432 -5.66334 0
M  V30 543 N 57.4635 -1.22775 -6.81834 0
M  V30 544 N 59.2565 -0.824186 -5.56025 0
M  V30 545 H 51.4075 -1.2653 -1.70599 0
M  V30 546 H 53.6705 -0.513291 -0.797017 0
M  V30 547 H 53.3765 -1.3798 -3.23503 0
M  V30 548 H 53.2505 0.289568 -3.76087 0
M  V30 549 H 55.6375 0.712472 -2.8637 0
M  V30 550 H 55.7185 -0.982348 -2.36185 0
M  V30 551 H 55.3625 -1.69453 -4.78799 0
M  V30 552 H 55.2925 0.0202385 -5.26596 0
M  V30 553 H 57.7835 -0.389138 -3.75891 0
M  V30 554 H 58.0965 -1.41513 -7.59733 0
M  V30 555 H 56.4415 -1.26583 -6.83375 0
M  V30 556 H 59.6325 -0.565748 -4.64669 0
M  V30 557 H 59.8055 -1.03338 -6.39707 0
M  V30 558 N 53.2116 1.57565 -0.0334293 0
M  V30 559 C 54.4886 1.83282 0.683163 0
M  V30 560 C 54.8686 0.91823 1.90084 0
M  V30 561 O 54.2166 -0.025113 2.28486 0
M  V30 562 C 54.4266 3.32599 1.0573 0
M  V30 563 C 55.7746 3.99179 1.44711 0
M  V30 564 O 56.7986 3.3712 1.15015 0
M  V30 565 O 55.6576 5.08565 2.0006 0
M  V30 566 H 52.7516 0.755869 0.335546 0
M  V30 567 H 55.2976 1.69589 -0.0614402 0
M  V30 568 H 54.0696 3.90834 0.190828 0
M  V30 569 H 53.6926 3.51415 1.85993 0
M  V30 570 N 54.6897 -0.239769 1.55765 0
M  V30 571 C 55.9377 -0.964892 1.77579 0
M  V30 572 C 56.2587 -1.85582 0.598699 0
M  V30 573 O 55.5287 -1.92075 -0.385226 0
M  V30 574 H 54.1087 -0.359265 0.654933 0
M  V30 575 H 56.7707 -0.256001 1.93211 0
M  V30 576 H 55.8667 -1.58243 2.69009 0
M  V30 577 N 56.1678 -1.49265 -0.50573 0
M  V30 578 C 57.1008 -1.60183 -1.62532 0
M  V30 579 C 58.0788 -0.451107 -1.56217 0
M  V30 580 O 59.2628 -0.666016 -1.76342 0
M  V30 581 C 56.3898 -1.55238 -3.01029 0
M  V30 582 C 55.4358 -2.7545 -3.25621 0
M  V30 583 S 56.2688 -4.37174 -3.09256 0
M  V30 584 C 57.4248 -4.34866 -4.50158 0
M  V30 585 H 57.6578 -2.54894 -1.53025 0
M  V30 586 H 55.1908 -1.38098 -0.690535 0
M  V30 587 H 57.1488 -1.53071 -3.80893 0
M  V30 588 H 55.8098 -0.618238 -3.07956 0
M  V30 589 H 55.0028 -2.68197 -4.26716 0
M  V30 590 H 54.6048 -2.75005 -2.53472 0
M  V30 591 H 56.8968 -4.06295 -5.42154 0
M  V30 592 H 57.8398 -5.36223 -4.62462 0
M  V30 593 H 58.2478 -3.65007 -4.30616 0
M  V30 594 N 57.6459 0.756429 -1.3826 0
M  V30 595 C 58.8709 1.55077 -1.37717 0
M  V30 596 C 59.2959 1.88073 0.03164 0
M  V30 597 O 58.6539 1.50364 1.01293 0
M  V30 598 C 58.7019 2.8283 -2.23695 0
M  V30 599 O 57.8059 3.77862 -1.6521 0
M  V30 600 H 57.1469 0.469152 -0.469885 0
M  V30 601 H 59.6769 0.935019 -1.81985 0
M  V30 602 H 59.6869 3.31783 -2.37453 0
M  V30 603 H 58.3619 2.58144 -3.2609 0
M  V30 604 H 56.9389 3.36555 -1.60578 0
M  V30 605 N 59.124 1.23083 0.984299 0
M  V30 606 C 60.37 1.06214 1.72761 0
M  V30 607 C 60.703 -0.400584 1.90024 0
M  V30 608 O 59.978 -1.29672 1.44967 0
M  V30 609 C 60.261 1.78375 3.12817 0
M  V30 610 C 60.114 3.32296 3.03149 0
M  V30 611 C 61.433 1.54309 4.12161 0
M  V30 612 H 58.552 0.387251 0.627061 0
M  V30 613 H 61.194 1.51536 1.14616 0
M  V30 614 H 59.344 1.39848 3.62457 0
M  V30 615 H 61.016 3.8032 2.61064 0
M  V30 616 H 59.259 3.6153 2.39747 0
M  V30 617 H 59.93 3.77972 4.02295 0
M  V30 618 H 62.406 1.87791 3.71314 0
M  V30 619 H 61.282 2.07281 5.08258 0
M  V30 620 H 61.543 0.477572 4.39513 0
M  V30 621 N 60.6021 -1.18246 1.0419 0
M  V30 622 C 61.8321 -1.91916 0.764961 0
M  V30 623 C 62.2401 -1.76485 -0.681898 0
M  V30 624 O 61.5831 -1.09275 -1.47664 0
M  V30 625 C 61.6451 -3.4373 1.05309 0
M  V30 626 C 61.3091 -3.8294 2.4941 0
M  V30 627 C 62.3061 -3.86621 3.47592 0
M  V30 628 C 59.9911 -4.142 2.84155 0
M  V30 629 C 61.9851 -4.21013 4.78568 0
M  V30 630 C 59.6721 -4.48262 4.15337 0
M  V30 631 C 60.6701 -4.51645 5.12353 0
M  V30 632 O 60.3581 -4.84911 6.41183 0
M  V30 633 H 60.0901 -0.61606 0.278292 0
M  V30 634 H 62.6441 -1.50947 1.39299 0
M  V30 635 H 60.8741 -3.84946 0.367933 0
M  V30 636 H 62.5631 -3.9865 0.763752 0
M  V30 637 H 63.3291 -3.62607 3.22089 0
M  V30 638 H 59.2081 -4.10743 2.09311 0
M  V30 639 H 62.7521 -4.23568 5.54289 0
M  V30 640 H 58.6491 -4.71737 4.40607 0
M  V30 641 H 59.4171 -5.02809 6.45852 0
M  V30 642 N 62.0802 -0.821533 -1.34494 0
M  V30 643 C 63.3572 -0.33159 -1.92769 0
M  V30 644 C 63.7372 1.18088 -1.74981 0
M  V30 645 O 63.0852 1.98733 -1.12772 0
M  V30 646 C 63.2952 -0.759398 -3.40638 0
M  V30 647 C 64.6432 -0.757433 -4.1779 0
M  V30 648 O 65.6672 -0.70189 -3.49216 0
M  V30 649 O 64.5262 -0.829361 -5.4017 0
M  V30 650 H 61.6202 -0.0902502 -0.822061 0
M  V30 651 H 64.1662 -0.906231 -1.43477 0
M  V30 652 H 62.9382 -1.8012 -3.47379 0
M  V30 653 H 62.5612 -0.160378 -3.97276 0
M  V30 654 N 63.5583 1.46682 -0.576371 0
M  V30 655 C 64.7833 2.07304 -0.0630475 0
M  V30 656 C 65.2083 1.42329 1.2298 0
M  V30 657 O 64.5663 0.504865 1.74129 0
M  V30 658 C 64.6143 3.60472 0.095895 0
M  V30 659 O 63.7183 3.95927 1.15394 0
M  V30 660 H 63.0593 0.661288 -0.0599463 0
M  V30 661 H 65.5893 1.88417 -0.797511 0
M  V30 662 H 65.5993 4.06865 0.304071 0
M  V30 663 H 64.2743 4.07157 -0.84828 0
M  V30 664 H 62.8513 3.61252 0.924724 0
M  V30 665 N 65.0364 0.313813 1.54444 0
M  V30 666 C 65.9664 -0.549454 2.26943 0
M  V30 667 C 66.9474 -1.12741 1.27372 0
M  V30 668 O 68.1324 -1.15436 1.56167 0
M  V30 669 C 65.2624 -1.71523 3.01989 0
M  V30 670 C 64.2164 -1.26703 4.08816 0
M  V30 671 C 63.5424 -2.51898 4.71647 0
M  V30 672 C 64.8424 -0.388962 5.2085 0
M  V30 673 H 66.5364 0.0552661 2.99349 0
M  V30 674 H 64.0824 0.0280207 1.43973 0
M  V30 675 H 66.0354 -2.32535 3.51433 0
M  V30 676 H 64.7594 -2.34639 2.27183 0
M  V30 677 H 63.4184 -0.679896 3.6024 0
M  V30 678 H 63.0664 -3.13356 3.93468 0
M  V30 679 H 62.7664 -2.22605 5.43802 0
M  V30 680 H 64.2904 -3.1369 5.23861 0
M  V30 681 H 65.7044 -0.905107 5.6611 0
M  V30 682 H 64.1014 -0.18924 5.99802 0
M  V30 683 H 65.1714 0.582699 4.81386 0
M  V30 684 N 66.5145 -1.57545 0.0417849 0
M  V30 685 C 67.7915 -1.83642 -0.673433 0
M  V30 686 C 68.1715 -0.928298 -1.89594 0
M  V30 687 O 67.5195 0.0129955 -2.28496 0
M  V30 688 C 67.7295 -3.33155 -1.03964 0
M  V30 689 C 69.0775 -3.99941 -1.42592 0
M  V30 690 O 70.1015 -3.37725 -1.13226 0
M  V30 691 O 68.9605 -5.09619 -1.9736 0
M  V30 692 H 66.0545 -0.757638 -0.331533 0
M  V30 693 H 68.6005 -1.69554 0.070433 0
M  V30 694 H 67.3725 -3.9093 -0.170098 0
M  V30 695 H 66.9955 -3.52396 -1.84126 0
M  V30 696 N 67.9926 0.231505 -1.5589 0
M  V30 697 C 68.9396 1.28682 -1.91598 0
M  V30 698 C 69.9096 1.47071 -0.771974 0
M  V30 699 O 71.0946 1.60802 -1.027 0
M  V30 700 C 68.2346 2.6342 -2.22944 0
M  V30 701 C 67.3476 2.52912 -3.50228 0
M  V30 702 C 66.4826 3.80106 -3.7107 0
M  V30 703 C 65.5216 3.64279 -4.91902 0
M  V30 704 N 64.6586 4.834 -5.09184 0
M  V30 705 H 69.4986 0.975305 -2.81588 0
M  V30 706 H 67.0356 0.470299 -1.39379 0
M  V30 707 H 68.9936 3.41869 -2.39126 0
M  V30 708 H 67.6236 2.92687 -1.36139 0
M  V30 709 H 66.6756 1.6595 -3.42294 0
M  V30 710 H 67.9876 2.37133 -4.38827 0
M  V30 711 H 67.1416 4.66999 -3.87295 0
M  V30 712 H 65.8806 3.98799 -2.80733 0
M  V30 713 H 64.8856 2.7577 -4.75637 0
M  V30 714 H 66.1106 3.47067 -5.83714 0
M  V30 715 H 64.0566 5.02425 -4.21788 0
M  V30 716 H 63.9736 4.70311 -5.91898 0
M  V30 717 H 65.2416 5.71747 -5.29835 0
M  V30 718 N 69.4707 1.49531 0.497807 0
M  V30 719 C 70.4337 1.65916 1.58128 0
M  V30 720 C 71.4337 0.530825 1.51786 0
M  V30 721 O 72.6237 0.797342 1.54881 0
M  V30 722 C 69.7557 1.65951 2.9778 0
M  V30 723 H 70.9487 2.62556 1.44929 0
M  V30 724 H 68.5017 1.38611 0.722275 0
M  V30 725 H 69.2367 0.709065 3.16453 0
M  V30 726 H 69.0217 2.47897 3.03792 0
M  V30 727 H 70.5117 1.80673 3.76493 0
M  V30 728 N 70.9488 -0.749086 1.3866 0
M  V30 729 C 71.8788 -1.8764 1.38973 0
M  V30 730 C 72.8598 -1.68178 0.255004 0
M  V30 731 O 74.0448 -1.88704 0.458754 0
M  V30 732 C 71.1748 -3.25222 1.21851 0
M  V30 733 C 70.1288 -3.59295 2.32575 0
M  V30 734 C 69.4548 -4.95663 2.00555 0
M  V30 735 C 70.7548 -3.63709 3.7485 0
M  V30 736 H 72.4488 -1.87635 2.3331 0
M  V30 737 H 69.9948 -0.901329 1.12303 0
M  V30 738 H 71.9478 -4.03746 1.20695 0
M  V30 739 H 70.6718 -3.25719 0.239775 0
M  V30 740 H 69.3308 -2.83093 2.32925 0
M  V30 741 H 68.9788 -4.92724 1.01154 0
M  V30 742 H 68.6788 -5.19429 2.74714 0
M  V30 743 H 70.2028 -5.7656 2.01024 0
M  V30 744 H 71.6168 -4.32338 3.76506 0
M  V30 745 H 70.0138 -3.98986 4.48252 0
M  V30 746 H 71.0838 -2.63834 4.06841 0
M  V30 747 N 72.4269 -1.23603 -0.977757 0
M  V30 748 C 73.3739 -1.01954 -2.07061 0
M  V30 749 C 74.3439 0.0638697 -1.65977 0
M  V30 750 O 75.5289 -0.0887624 -1.90593 0
M  V30 751 C 72.6689 -0.619658 -3.39491 0
M  V30 752 C 71.7819 -1.77547 -3.93829 0
M  V30 753 C 70.9169 -1.32212 -5.14484 0
M  V30 754 C 69.9559 -2.44852 -5.60994 0
M  V30 755 N 69.0929 -2.00456 -6.72876 0
M  V30 756 H 73.9329 -1.95495 -2.24913 0
M  V30 757 H 71.4699 -0.973861 -1.10247 0
M  V30 758 H 73.4279 -0.368898 -4.15566 0
M  V30 759 H 72.0579 0.278752 -3.21594 0
M  V30 760 H 71.1099 -2.14016 -3.14486 0
M  V30 761 H 72.4219 -2.62219 -4.24314 0
M  V30 762 H 71.5759 -1.02965 -5.97899 0
M  V30 763 H 70.3149 -0.445808 -4.85658 0
M  V30 764 H 69.3199 -2.74871 -4.76157 0
M  V30 765 H 70.5449 -3.33024 -5.91837 0
M  V30 766 H 68.4909 -1.15208 -6.45804 0
M  V30 767 H 68.4079 -2.78687 -7.02759 0
M  V30 768 H 69.6759 -1.7432 -7.59758 0
M  V30 769 N 73.905 1.17692 -1.04816 0
M  V30 770 C 75.151 1.88137 -0.75711 0
M  V30 771 C 75.484 1.80604 0.713841 0
M  V30 772 O 74.759 1.21146 1.52164 0
M  V30 773 C 75.042 3.38318 -1.2334 0
M  V30 774 C 74.895 3.54622 -2.76701 0
M  V30 775 C 76.214 4.32214 -0.829415 0
M  V30 776 H 73.333 0.683163 -0.27651 0
M  V30 777 H 75.975 1.38424 -1.30149 0
M  V30 778 H 74.125 3.80787 -0.770286 0
M  V30 779 H 75.797 3.21194 -3.31107 0
M  V30 780 H 74.04 2.97026 -3.16161 0
M  V30 781 H 74.711 4.60028 -3.05088 0
M  V30 782 H 77.187 3.97565 -1.22805 0
M  V30 783 H 76.063 5.35838 -1.19033 0
M  V30 784 H 76.324 4.41294 0.266891 0
M  V30 785 N 75.3831 0.828654 1.34056 0
M  V30 786 C 76.7991 0.515135 1.51058 0
M  V30 787 C 76.9991 -0.959581 1.77184 0
M  V30 788 O 76.0551 -1.74382 1.82612 0
M  V30 789 C 77.3681 1.37963 2.67183 0
M  V30 790 C 78.9161 1.37735 2.81066 0
M  V30 791 C 79.3911 2.22645 4.00241 0
M  V30 792 N 80.8821 2.203 4.07458 0
M  V30 793 C 81.6171 2.82744 4.98842 0
M  V30 794 N 81.1131 3.54201 5.9541 0
M  V30 795 N 82.9061 2.72268 4.91759 0
M  V30 796 H 75.0571 1.78343 1.15358 0
M  V30 797 H 77.3201 0.760304 0.566252 0
M  V30 798 H 77.0261 2.42714 2.54525 0
M  V30 799 H 76.9001 1.0484 3.62338 0
M  V30 800 H 79.2871 0.337593 2.93163 0
M  V30 801 H 79.3681 1.74859 1.86703 0
M  V30 802 H 79.0121 3.26674 3.88905 0
M  V30 803 H 78.9421 1.82869 4.93829 0
M  V30 804 H 81.4331 1.68327 3.38341 0
M  V30 805 H 81.7461 3.9908 6.61782 0
M  V30 806 H 80.0911 3.58308 5.95517 0
M  V30 807 H 83.2821 2.16014 4.15278 0
M  V30 808 H 83.4551 3.21219 5.62781 0
M  V30 809 N 76.8612 -1.46375 0.584142 0
M  V30 810 C 78.1092 -2.01978 0.0701287 0
M  V30 811 C 78.4302 -1.4579 -1.295 0
M  V30 812 O 77.7002 -0.64314 -1.85042 0
M  V30 813 H 76.2802 -0.746648 0.0229345 0
M  V30 814 H 78.9422 -1.79461 0.760245 0
M  V30 815 H 78.0382 -3.121 0.0022064 0
M  V30 816 N 78.3393 -0.321999 -1.54275 0
M  V30 817 C 79.2693 0.537411 -2.27231 0
M  V30 818 C 80.2503 1.12064 -1.27968 0
M  V30 819 O 81.4353 1.14606 -1.56777 0
M  V30 820 C 78.5653 1.69919 -3.02894 0
M  V30 821 C 77.5193 1.24534 -4.09482 0
M  V30 822 C 76.8453 2.49394 -4.72977 0
M  V30 823 C 78.1453 0.361335 -5.21049 0
M  V30 824 H 79.8393 -0.0711406 -2.99315 0
M  V30 825 H 77.3853 -0.0356555 -1.43956 0
M  V30 826 H 79.3383 2.30668 -3.52662 0
M  V30 827 H 78.0623 2.33431 -2.28424 0
M  V30 828 H 76.7213 0.660782 -3.60596 0
M  V30 829 H 76.3693 3.11265 -3.95124 0
M  V30 830 H 76.0693 2.19718 -5.44975 0
M  V30 831 H 77.5933 3.10908 -5.25517 0
M  V30 832 H 79.0073 0.875072 -5.66582 0
M  V30 833 H 77.4043 0.157428 -5.99893 0
M  V30 834 H 78.4743 -0.60822 -4.8107 0
M  V30 835 N 79.8174 1.5752 -0.0501392 0
M  V30 836 C 80.7654 2.12651 0.942459 0
M  V30 837 C 81.7594 1.05807 1.32292 0
M  V30 838 O 82.9654 1.24217 1.3027 0
M  V30 839 H 79.3404 0.679673 0.321789 0
M  V30 840 H 81.3114 2.94951 0.452356 0
M  V30 841 C 80.0604 2.68565 2.20836 0
M  V30 842 H 79.3834 3.50439 1.92439 0
M  V30 843 H 80.8234 3.10761 2.8845 0
M  V30 844 C 79.2824 1.62291 2.95234 0
M  V30 845 O 79.8124 1.03508 3.88135 0
M  V30 846 N 78.0184 1.33836 2.57946 0
M  V30 847 H 77.5654 1.81826 1.82475 0
M  V30 848 H 77.5234 0.629595 3.08032 0
M  V30 849 N 81.2955 -0.223234 1.56011 0
M  V30 850 C 82.2275 -1.30006 1.88762 0
M  V30 851 C 83.2405 -1.43129 0.775746 0
M  V30 852 O 84.4295 -1.44057 1.05403 0
M  V30 853 C 81.5295 -2.67589 2.07965 0
M  V30 854 C 80.7025 -2.76434 3.38973 0
M  V30 855 C 79.7615 -3.95019 3.47629 0
M  V30 856 O 78.7875 -3.83436 4.20672 0
M  V30 857 N 79.9895 -5.09249 2.78649 0
M  V30 858 H 82.7545 -1.02238 2.81722 0
M  V30 859 H 80.3155 -0.413278 1.56536 0
M  V30 860 H 82.3075 -3.45297 2.11073 0
M  V30 861 H 80.8775 -2.87964 1.21638 0
M  V30 862 H 80.0975 -1.85216 3.47978 0
M  V30 863 H 81.3855 -2.79313 4.25278 0
M  V30 864 H 80.7835 -5.21556 2.19081 0
M  V30 865 H 79.3405 -5.85007 2.8742 0
M  V30 866 N 82.7736 -1.49793 -0.48987 0
M  V30 867 C 84.0506 -1.50348 -1.25119 0
M  V30 868 C 84.4306 -0.237466 -2.0976 0
M  V30 869 O 83.7786 0.77981 -2.14782 0
M  V30 870 C 83.9886 -2.78872 -2.09837 0
M  V30 871 C 85.3366 -3.288 -2.68655 0
M  V30 872 O 86.3606 -2.80065 -2.20096 0
M  V30 873 O 85.2196 -4.13707 -3.57083 0
M  V30 874 H 82.3136 -0.602242 -0.566775 0
M  V30 875 H 84.8596 -1.62067 -0.503229 0
M  V30 876 H 83.6316 -3.62499 -1.47343 0
M  V30 877 H 83.2546 -2.70066 -2.91805 0
M  V30 878 N 84.2517 0.741722 -1.39055 0
M  V30 879 C 85.4917 1.51385 -1.37338 0
M  V30 880 C 85.8557 1.91972 0.0330513 0
M  V30 881 O 87.0567 2.68229 0.175174 0
M  V30 882 C 85.3277 2.72481 -2.31276 0
M  V30 883 S 86.8867 3.62211 -2.47687 0
M  V30 884 H 83.7047 0.517906 -0.487129 0
M  V30 885 H 86.3067 0.86969 -1.7509 0
M  V30 886 H 85.0107 2.40793 -3.32336 0
M  V30 887 H 84.5417 3.41832 -1.94716 0
M  V30 888 H 86.5567 4.65812 -1.70978 0
M  V30 889 N 85.7298 1.2412 0.971189 0
M  V30 890 C 86.9698 1.09066 1.7287 0
M  V30 891 C 87.3338 -0.364794 1.88503 0
M  V30 892 O 88.5348 -0.636748 2.61149 0
M  V30 893 C 86.8058 1.80629 3.08396 0
M  V30 894 S 88.3648 1.81263 3.99611 0
M  V30 895 H 85.1828 0.390145 0.594397 0
M  V30 896 H 87.7848 1.57397 1.15959 0
M  V30 897 H 86.4888 2.85647 2.94676 0
M  V30 898 H 86.0198 1.32617 3.70373 0
M  V30 899 H 88.0348 0.877804 4.88374 0
M  V30 900 N 87.2079 -1.17134 1.05439 0
M  V30 901 C 88.4539 -1.87733 0.767077 0
M  V30 902 C 88.7869 -1.8098 -0.704253 0
M  V30 903 O 88.0619 -1.21951 -1.5152 0
M  V30 904 C 88.3449 -3.37659 1.25133 0
M  V30 905 C 88.1979 -3.53149 2.78578 0
M  V30 906 C 89.5169 -4.31768 0.852324 0
M  V30 907 H 86.6359 -0.681687 0.280129 0
M  V30 908 H 89.2779 -1.37732 1.30881 0
M  V30 909 H 87.4279 -3.80373 0.790469 0
M  V30 910 H 89.0999 -3.19434 3.32806 0
M  V30 911 H 87.3429 -2.95345 3.17732 0
M  V30 912 H 88.0139 -4.58403 3.07523 0
M  V30 913 H 90.4899 -3.96909 1.24911 0
M  V30 914 H 89.3659 -5.35199 1.21873 0
M  V30 915 H 89.6269 -4.41429 -0.243485 0
M  V30 916 N 88.686 -0.835752 -1.33615 0
M  V30 917 C 89.932 -0.430596 -1.98176 0
M  V30 918 C 90.265 1.00684 -1.66061 0
M  V30 919 O 89.54 1.70339 -0.938877 0
M  V30 920 C 89.823 -0.648065 -3.5422 0
M  V30 921 C 89.676 -2.13255 -3.96033 0
M  V30 922 C 90.995 -0.0922113 -4.40003 0
M  V30 923 H 88.114 -0.157924 -0.719881 0
M  V30 924 H 90.756 -1.05069 -1.58305 0
M  V30 925 H 88.906 -0.120237 -3.88314 0
M  V30 926 H 90.578 -2.725 -3.72211 0
M  V30 927 H 88.821 -2.61823 -3.45878 0
M  V30 928 H 89.492 -2.23547 -5.04708 0
M  V30 929 H 91.968 -0.543343 -4.12537 0
M  V30 930 H 90.844 -0.274083 -5.48215 0
M  V30 931 H 91.105 1.00378 -4.30554 0
M  V30 932 N 90.1641 1.46063 -0.591896 0
M  V30 933 C 91.3941 2.06418 -0.0867676 0
M  V30 934 C 91.8021 1.43975 1.22751 0
M  V30 935 O 91.1451 0.542531 1.75506 0
M  V30 936 C 91.2071 3.59213 0.143725 0
M  V30 937 C 90.8711 4.439 -1.08635 0
M  V30 938 C 91.8681 4.79864 -2.00067 0
M  V30 939 C 89.5531 4.84896 -1.31077 0
M  V30 940 C 91.5471 5.55661 -3.12282 0
M  V30 941 C 89.2341 5.6045 -2.43596 0
M  V30 942 C 90.2321 5.95747 -3.34027 0
M  V30 943 O 89.9201 6.69772 -4.4459 0
M  V30 944 H 89.6521 0.673443 -0.0587447 0
M  V30 945 H 92.2061 1.88539 -0.814994 0
M  V30 946 H 90.4361 3.75433 0.926668 0
M  V30 947 H 92.1251 4.01463 0.5985 0
M  V30 948 H 92.8911 4.48763 -1.83947 0
M  V30 949 H 88.7701 4.56867 -0.61594 0
M  V30 950 H 92.3141 5.8313 -3.82891 0
M  V30 951 H 88.2111 5.90965 -2.59674 0
M  V30 952 H 88.9791 6.88207 -4.43073 0
M  V30 953 N 91.6422 0.330177 1.54103 0
M  V30 954 C 93.0582 -0.0222371 1.59585 0
M  V30 955 C 93.2582 -1.49902 1.34654 0
M  V30 956 O 92.3142 -2.25592 1.13421 0
M  V30 957 C 93.6272 0.401932 2.98002 0
M  V30 958 C 95.1752 0.353145 3.11001 0
M  V30 959 C 95.6502 0.752576 4.51775 0
M  V30 960 N 97.1412 0.706239 4.57784 0
M  V30 961 C 97.8762 0.987417 5.64834 0
M  V30 962 N 97.3722 1.33607 6.79795 0
M  V30 963 N 99.1652 0.91254 5.54643 0
M  V30 964 H 91.3162 1.29228 1.68564 0
M  V30 965 H 93.5792 0.525906 0.78875 0
M  V30 966 H 93.2852 1.4311 3.21267 0
M  V30 967 H 93.1592 -0.229699 3.765 0
M  V30 968 H 95.5462 -0.666822 2.87467 0
M  V30 969 H 95.6272 1.0198 2.34593 0
M  V30 970 H 95.2712 1.77049 4.76042 0
M  V30 971 H 95.2012 0.0635409 5.26562 0
M  V30 972 H 97.6922 0.44889 3.75224 0
M  V30 973 H 98.0052 1.53582 7.57385 0
M  V30 974 H 96.3502 1.37439 6.81275 0
M  V30 975 H 99.5412 0.639601 4.6371 0
M  V30 976 H 99.7142 1.13503 6.37982 0
M  V30 977 N 93.1203 -1.57491 0.0584922 0
M  V30 978 C 94.0503 -2.14988 -0.911178 0
M  V30 979 C 95.0313 -1.07343 -1.31952 0
M  V30 980 O 96.2163 -1.35318 -1.39294 0
M  V30 981 C 93.3463 -2.70078 -2.18347 0
M  V30 982 C 92.3003 -3.82771 -1.91495 0
M  V30 983 C 91.6263 -4.24408 -3.25241 0
M  V30 984 C 92.9263 -5.07592 -1.23075 0
M  V30 985 H 94.6203 -2.96263 -0.432246 0
M  V30 986 H 92.1663 -1.42512 -0.206469 0
M  V30 987 H 94.1193 -3.08943 -2.86587 0
M  V30 988 H 92.8433 -1.86005 -2.68458 0
M  V30 989 H 91.5023 -3.44389 -1.25664 0
M  V30 990 H 91.1503 -3.37275 -3.73168 0
M  V30 991 H 90.8503 -5.00366 -3.08071 0
M  V30 992 H 92.3743 -4.65879 -3.94701 0
M  V30 993 H 93.7883 -5.43857 -1.81362 0
M  V30 994 H 92.1853 -5.88741 -1.16207 0
M  V30 995 H 93.2553 -4.84454 -0.207847 0
M  V30 996 N 94.5984 0.214957 -1.56127 0
M  V30 997 C 95.8474 0.936451 -1.78643 0
M  V30 998 C 96.1604 1.85237 -0.628229 0
M  V30 999 O 97.3664 2.613 -0.737186 0
M  V30 1000 C 95.8224 1.7154 -3.16389 0
M  V30 1001 C 95.4304 0.845299 -4.39953 0
M  V30 1002 C 97.1744 2.42772 -3.48227 0
M  V30 1003 C 95.0814 1.62198 -5.68723 0
M  V30 1004 H 94.0114 0.353401 -0.666051 0
M  V30 1005 H 96.6624 0.190169 -1.82512 0
M  V30 1006 H 95.0444 2.50484 -3.06715 0
M  V30 1007 H 96.2184 0.0959353 -4.607 0
M  V30 1008 H 94.5334 0.244789 -4.1568 0
M  V30 1009 H 97.1304 3.01394 -4.41663 0
M  V30 1010 H 97.4734 3.15984 -2.71035 0
M  V30 1011 H 98.0064 1.70813 -3.5926 0
M  V30 1012 H 94.7454 0.933011 -6.48826 0
M  V30 1013 H 94.2654 2.34579 -5.52026 0
M  V30 1014 H 95.9444 2.18095 -6.09133 0
M  V30 1015 N 96.0765 1.50051 0.48192 0
M  V30 1016 C 97.0235 1.68122 1.58125 0
M  V30 1017 C 97.9935 0.522545 1.57666 0
M  V30 1018 O 99.1785 0.751844 1.75362 0
M  V30 1019 C 96.3185 1.77142 2.96167 0
M  V30 1020 C 95.4315 3.0444 3.06497 0
M  V30 1021 C 94.5665 3.04321 4.35387 0
M  V30 1022 C 93.6055 4.26118 4.3942 0
M  V30 1023 N 92.7425 4.238 5.59766 0
M  V30 1024 H 97.5825 2.6198 1.42022 0
M  V30 1025 H 95.1195 1.29877 0.690687 0
M  V30 1026 H 97.0775 1.80352 3.76203 0
M  V30 1027 H 95.7075 0.867329 3.1093 0
M  V30 1028 H 94.7595 3.10752 2.19402 0
M  V30 1029 H 96.0715 3.94426 3.05336 0
M  V30 1030 H 95.2255 3.062 5.23762 0
M  V30 1031 H 93.9645 2.12147 4.39141 0
M  V30 1032 H 92.9695 4.24463 3.49444 0
M  V30 1033 H 94.1945 5.19507 4.37366 0
M  V30 1034 H 92.1405 3.34474 5.64326 0
M  V30 1035 H 92.0575 5.07542 5.60301 0
M  V30 1036 H 93.3255 4.2981 6.50295 0
M  V30 1037 N 97.5546 -0.734337 1.39446 0
M  V30 1038 C 98.8026 -1.49096 1.36436 0
M  V30 1039 C 99.1236 -1.94961 -0.0388255 0
M  V30 1040 O 98.3936 -1.69033 -0.990191 0
M  V30 1041 H 96.9736 -0.5531 0.502085 0
M  V30 1042 H 99.6356 -0.871725 1.74319 0
M  V30 1043 H 98.7316 -2.37276 2.02747 0
M  V30 1044 N 99.0327 -1.24633 -0.964593 0
M  V30 1045 C 100.449 -1.01239 -1.2338 0
M  V30 1046 C 100.649 0.2769 -1.99588 0
M  V30 1047 O 99.7047 0.992241 -2.32187 0
M  V30 1048 C 101.018 -2.22937 -2.01791 0
M  V30 1049 C 102.566 -2.27594 -2.14872 0
M  V30 1050 C 103.041 -3.48921 -2.96678 0
M  V30 1051 N 104.532 -3.49257 -3.04259 0
M  V30 1052 C 105.267 -4.39795 -3.67924 0
M  V30 1053 N 104.763 -5.40591 -4.33281 0
M  V30 1054 N 106.556 -4.275 -3.64966 0
M  V30 1055 H 98.7067 -2.0748 -0.454502 0
M  V30 1056 H 100.97 -0.910647 -0.26349 0
M  V30 1057 H 100.676 -3.16587 -1.53184 0
M  V30 1058 H 100.55 -2.25306 -3.02518 0
M  V30 1059 H 102.937 -1.34473 -2.6268 0
M  V30 1060 H 103.018 -2.2925 -1.13482 0
M  V30 1061 H 102.662 -4.42359 -2.49562 0
M  V30 1062 H 102.592 -3.4451 -3.98272 0
M  V30 1063 H 105.083 -2.76337 -2.57771 0
M  V30 1064 H 105.396 -6.05904 -4.79687 0
M  V30 1065 H 103.741 -5.44475 -4.3194 0
M  V30 1066 H 106.932 -3.47987 -3.13086 0
M  V30 1067 H 107.105 -4.98258 -4.14298 0
M  V30 1068 N 100.511 1.16574 -1.06058 0
M  V30 1069 C 101.458 2.20883 -0.669263 0
M  V30 1070 C 102.428 1.62729 0.332918 0
M  V30 1071 O 103.613 1.895 0.222346 0
M  V30 1072 C 100.753 3.45049 -0.0593572 0
M  V30 1073 C 99.8658 4.17458 -1.11143 0
M  V30 1074 C 99.0008 5.29135 -0.467916 0
M  V30 1075 C 98.0398 5.93343 -1.50369 0
M  V30 1076 N 97.1768 6.96516 -0.883706 0
M  V30 1077 H 102.017 2.53709 -1.5632 0
M  V30 1078 H 99.5538 1.24616 -0.781625 0
M  V30 1079 H 101.512 4.16033 0.311771 0
M  V30 1080 H 100.142 3.12781 0.797992 0
M  V30 1081 H 99.1938 3.45101 -1.60029 0
M  V30 1082 H 100.506 4.61307 -1.89731 0
M  V30 1083 H 99.6598 6.06684 -0.0436871 0
M  V30 1084 H 98.3988 4.86443 0.349864 0
M  V30 1085 H 97.4038 5.14517 -1.93784 0
M  V30 1086 H 98.6288 6.38114 -2.32352 0
M  V30 1087 H 96.5748 6.55943 -0.086595 0
M  V30 1088 H 96.4918 7.38723 -1.607 0
M  V30 1089 H 97.7598 7.77993 -0.484543 0
M  V30 1090 N 101.989 0.842826 1.3317 0
M  V30 1091 C 103.217 0.454055 2.01856 0
M  V30 1092 C 103.632 -0.94587 1.63397 0
M  V30 1093 O 102.989 -1.61534 0.849302 0
M  V30 1094 C 103.04 0.569715 3.56982 0
M  V30 1095 O 102.761 1.91448 3.94055 0
M  V30 1096 C 104.262 0.178412 4.42941 0
M  V30 1097 H 101.482 0.17979 0.646465 0
M  V30 1098 H 104.026 1.1365 1.70012 0
M  V30 1099 H 102.181 -0.0648587 3.87346 0
M  V30 1100 H 102.595 1.90282 4.88767 0
M  V30 1101 H 104.069 0.310376 5.51127 0
M  V30 1102 H 104.546 -0.880056 4.30293 0
M  V30 1103 H 105.152 0.787579 4.17944 0
M  V30 1104 N 103.467 -1.45747 0.599634 0
M  V30 1105 C 104.713 -2.02592 0.0918643 0
M  V30 1106 C 105.046 -1.46806 -1.27128 0
M  V30 1107 O 104.321 -0.639658 -1.83681 0
M  V30 1108 C 104.604 -3.60073 0.0443398 0
M  V30 1109 C 104.457 -4.26208 1.43759 0
M  V30 1110 C 105.776 -4.35309 -0.647608 0
M  V30 1111 H 102.895 -0.736175 0.034857 0
M  V30 1112 H 105.537 -1.73694 0.770081 0
M  V30 1113 H 103.687 -3.84823 -0.533224 0
M  V30 1114 H 105.359 -4.12668 2.06162 0
M  V30 1115 H 103.602 -3.84916 2.00056 0
M  V30 1116 H 104.273 -5.35069 1.35665 0
M  V30 1117 H 106.749 -4.15805 -0.156776 0
M  V30 1118 H 105.625 -5.45038 -0.649942 0
M  V30 1119 H 105.886 -4.07598 -1.71219 0
M  V30 1120 N 104.945 -0.338344 -1.53925 0
M  V30 1121 C 106.173 0.261298 -2.05243 0
M  V30 1122 C 106.588 1.44625 -1.21363 0
M  V30 1123 O 105.945 1.80811 -0.247736 0
M  V30 1124 C 105.996 0.681412 -3.5502 0
M  V30 1125 O 105.717 -0.456414 -4.35716 0
M  V30 1126 C 107.218 1.34232 -4.22489 0
M  V30 1127 H 104.438 0.0513685 -0.669031 0
M  V30 1128 H 106.982 -0.488822 -1.98572 0
M  V30 1129 H 105.137 1.38148 -3.61931 0
M  V30 1130 H 105.551 -0.122564 -5.24357 0
M  V30 1131 H 107.025 1.58708 -5.28693 0
M  V30 1132 H 107.502 2.29426 -3.74514 0
M  V30 1133 H 108.108 0.684424 -4.19757 0
M  V30 1134 N 106.423 1.57458 -0.0668435 0
M  V30 1135 C 107.386 2.11323 0.887422 0
M  V30 1136 C 108.386 1.03618 1.22964 0
M  V30 1137 O 109.576 1.29626 1.16373 0
M  V30 1138 C 106.708 2.61048 2.19242 0
M  V30 1139 H 107.901 2.96942 0.420194 0
M  V30 1140 H 105.454 1.55239 0.181793 0
M  V30 1141 H 106.189 1.78868 2.70512 0
M  V30 1142 H 105.974 3.39769 1.95702 0
M  V30 1143 H 107.464 3.02814 2.87565 0
M  V30 1144 N 107.901 -0.206675 1.56239 0
M  V30 1145 C 109.147 -0.925733 1.81113 0
M  V30 1146 C 109.502 -1.81368 0.642135 0
M  V30 1147 O 108.795 -1.88126 -0.363211 0
M  V30 1148 C 108.989 -1.78675 3.09532 0
M  V30 1149 C 108.818 -0.98365 4.3881 0
M  V30 1150 C 107.588 -0.672661 5.00803 0
M  V30 1151 C 109.786 -0.341847 5.13163 0
M  V30 1152 N 107.768 0.150283 6.13716 0
M  V30 1153 C 109.139 0.343815 6.19046 0
M  V30 1154 C 111.194 -0.256392 4.97239 0
M  V30 1155 C 109.897 1.10678 7.10734 0
M  V30 1156 C 111.923 0.493142 5.8934 0
M  V30 1157 C 111.285 1.16729 6.94661 0
M  V30 1158 H 107.384 -0.318524 0.714189 0
M  V30 1159 H 109.968 -0.195378 1.93717 0
M  V30 1160 H 108.139 -2.4888 2.98183 0
M  V30 1161 H 109.871 -2.44441 3.22538 0
M  V30 1162 H 106.626 -0.994294 4.63045 0
M  V30 1163 H 107.05 0.551026 6.74754 0
M  V30 1164 H 111.692 -0.763249 4.15854 0
M  V30 1165 H 109.41 1.6251 7.91591 0
M  V30 1166 H 112.996 0.560465 5.79094 0
M  V30 1167 H 111.876 1.738 7.64698 0
M  V30 1168 N 109.379 -1.50304 -0.473955 0
M  V30 1169 C 110.656 -1.51667 -1.23518 0
M  V30 1170 C 111.036 -0.259701 -2.09496 0
M  V30 1171 O 110.384 0.756986 -2.15597 0
M  V30 1172 C 110.594 -2.81082 -2.06868 0
M  V30 1173 C 111.942 -3.31631 -2.65153 0
M  V30 1174 O 112.966 -2.82384 -2.17113 0
M  V30 1175 O 111.825 -4.17471 -3.52675 0
M  V30 1176 H 108.919 -0.60822 -0.560355 0
M  V30 1177 H 111.465 -1.62592 -0.486011 0
M  V30 1178 H 110.237 -3.64041 -1.4349 0
M  V30 1179 H 109.86 -2.73146 -2.88924 0
M  V30 1180 N 110.857 0.726932 -1.39834 0
M  V30 1181 C 112.085 1.51613 -1.40787 0
M  V30 1182 C 112.5 1.88799 -0.00451505 0
M  V30 1183 O 111.857 1.54662 0.968809 0
M  V30 1184 C 111.908 2.79863 -2.28821 0
M  V30 1185 O 111.629 2.44253 -3.63692 0
M  V30 1186 C 113.13 3.73837 -2.38245 0
M  V30 1187 H 110.35 0.468264 -0.480593 0
M  V30 1188 H 112.894 0.897607 -1.83748 0
M  V30 1189 H 111.049 3.38027 -1.89252 0
M  V30 1190 H 111.463 3.26695 -4.1033 0
M  V30 1191 H 112.937 4.60699 -3.04073 0
M  V30 1192 H 113.414 4.16153 -1.40403 0
M  V30 1193 H 114.02 3.21589 -2.78317 0
M  V30 1194 N 112.336 1.25143 0.95797 0
M  V30 1195 C 113.299 1.05321 2.03569 0
M  V30 1196 C 114.299 0.007152 1.60798 0
M  V30 1197 O 115.489 0.24903 1.72411 0
M  V30 1198 C 112.621 0.598394 3.35607 0
M  V30 1199 H 113.814 2.00986 2.22586 0
M  V30 1200 H 111.367 1.07502 1.13459 0
M  V30 1201 H 112.102 -0.361014 3.22284 0
M  V30 1202 H 111.887 1.35351 3.67998 0
M  V30 1203 H 113.377 0.48104 4.1482 0
M  V30 1204 N 113.814 -1.1601 1.06675 0
M  V30 1205 C 115.063 -1.85973 0.780818 0
M  V30 1206 C 115.376 -1.82819 -0.695444 0
M  V30 1207 O 116.582 -2.484 -1.09589 0
M  V30 1208 C 115.038 -3.33757 1.34665 0
M  V30 1209 C 114.646 -3.45374 2.85343 0
M  V30 1210 C 116.39 -4.0895 1.13843 0
M  V30 1211 C 114.297 -4.87266 3.35151 0
M  V30 1212 H 113.227 -0.696661 0.288407 0
M  V30 1213 H 115.878 -1.30903 1.28595 0
M  V30 1214 H 114.26 -3.88456 0.769274 0
M  V30 1215 H 115.434 -3.00816 3.49065 0
M  V30 1216 H 113.749 -2.83619 3.04876 0
M  V30 1217 H 116.346 -5.13654 1.4854 0
M  V30 1218 H 116.689 -4.16229 0.0770282 0
M  V30 1219 H 117.222 -3.605 1.68179 0
M  V30 1220 H 113.961 -4.85168 4.40786 0
M  V30 1221 H 113.481 -5.32433 2.76179 0
M  V30 1222 H 115.16 -5.56097 3.30704 0
M  V30 1223 N 115.292 -0.849877 -1.32721 0
M  V30 1224 C 116.255 -0.296122 -2.27279 0
M  V30 1225 C 117.255 0.541458 -1.5141 0
M  V30 1226 O 118.445 0.353658 -1.70572 0
M  V30 1227 C 115.577 0.581579 -3.35902 0
M  V30 1228 H 116.77 -1.13064 -2.77771 0
M  V30 1229 H 114.323 -0.62383 -1.43311 0
M  V30 1230 H 115.058 1.43809 -2.9067 0
M  V30 1231 H 114.843 -0.0178814 -3.92096 0
M  V30 1232 H 116.333 0.961951 -4.0637 0
M  V30 1233 N 116.77 1.45427 -0.607355 0
M  V30 1234 C 118.181 1.85756 -0.187535 0
M  V30 1235 C 118.532 1.5077 1.25551 0
M  V30 1236 O 117.657 0.93427 1.95193 0
M  V30 1237 C 118.252 3.37154 -0.333572 0
M  V30 1238 C 116.811 3.76387 0.0315542 0
M  V30 1239 C 115.958 2.69377 -0.658117 0
M  V30 1240 H 118.909 1.36231 -0.81405 0
M  V30 1241 H 118.93 3.78014 0.43428 0
M  V30 1242 H 118.442 3.62586 -1.38393 0
M  V30 1243 H 116.543 3.56571 1.0811 0
M  V30 1244 H 116.656 4.77731 -0.361935 0
M  V30 1245 H 115.02 2.5452 -0.0957873 0
M  V30 1246 H 115.803 2.97646 -1.7106 0
M  V30 1247 N 118.248 0.346503 1.53744 0
M  V30 1248 C 119.178 -0.501193 2.28058 0
M  V30 1249 C 120.159 -1.10014 1.29734 0
M  V30 1250 O 121.344 -1.12097 1.58581 0
M  V30 1251 C 118.474 -1.65078 3.05559 0
M  V30 1252 C 117.428 -1.18003 4.11411 0
M  V30 1253 C 116.754 -2.41837 4.76884 0
M  V30 1254 C 118.054 -0.278394 5.21558 0
M  V30 1255 H 119.748 0.11875 2.99164 0
M  V30 1256 H 117.294 0.0585531 1.43881 0
M  V30 1257 H 119.247 -2.25028 3.56287 0
M  V30 1258 H 117.971 -2.29767 2.32109 0
M  V30 1259 H 116.63 -0.603331 3.61601 0
M  V30 1260 H 116.278 -3.0494 4.00026 0
M  V30 1261 H 115.978 -2.1102 5.48402 0
M  V30 1262 H 117.502 -3.02508 5.30397 0
M  V30 1263 H 118.916 -0.784823 5.67903 0
M  V30 1264 H 117.313 -0.0619707 6.00068 0
M  V30 1265 H 118.383 0.684677 4.80042 0
M  V30 1266 N 119.726 -1.57421 0.075193 0
M  V30 1267 C 121.003 -1.85029 -0.634329 0
M  V30 1268 C 121.383 -0.968305 -1.87582 0
M  V30 1269 O 120.731 -0.0354749 -2.28472 0
M  V30 1270 C 120.941 -3.35286 -0.968742 0
M  V30 1271 C 122.289 -4.02875 -1.34077 0
M  V30 1272 O 123.313 -3.40051 -1.06037 0
M  V30 1273 O 122.172 -5.13691 -1.86506 0
M  V30 1274 H 119.266 -0.7645 -0.315387 0
M  V30 1275 H 121.812 -1.69366 0.106382 0
M  V30 1276 H 120.584 -3.91203 -0.0871376 0
M  V30 1277 H 120.207 -3.56223 -1.7661 0
M  V30 1278 N 121.204 0.198386 -1.56346 0
M  V30 1279 C 122.452 0.91747 -1.80075 0
M  V30 1280 C 122.773 1.83929 -0.647692 0
M  V30 1281 O 122.043 1.93029 0.334166 0
M  V30 1282 H 120.623 0.341774 -0.664228 0
M  V30 1283 H 123.285 0.204684 -1.93822 0
M  V30 1284 H 122.381 1.51055 -2.7311 0
M  V30 1285 N 122.682 1.50554 0.465978 0
M  V30 1286 C 123.592 1.72585 1.58907 0
M  V30 1287 C 124.608 0.60911 1.6299 0
M  V30 1288 O 125.784 0.88804 1.80765 0
M  V30 1289 C 122.849 1.81995 2.95091 0
M  V30 1290 C 121.91 3.05751 3.01355 0
M  V30 1291 C 121.143 3.14702 4.31043 0
M  V30 1292 O 121.366 2.30313 5.21835 0
M  V30 1293 O 120.3 4.07468 4.43005 0
M  V30 1294 H 124.126 2.67799 1.43239 0
M  V30 1295 H 121.711 1.34711 0.646013 0
M  V30 1296 H 123.593 1.90335 3.75966 0
M  V30 1297 H 122.268 0.899659 3.10947 0
M  V30 1298 H 121.175 3.02908 2.19539 0
M  V30 1299 H 122.508 3.97375 2.90437 0
M  V30 1300 N 124.16 -0.719506 1.40217 0
M  V30 1301 C 125.07 -1.86378 1.42479 0
M  V30 1302 C 126.086 -1.71073 0.317834 0
M  V30 1303 O 127.262 -1.93406 0.561794 0
M  V30 1304 C 124.327 -3.22136 1.28178 0
M  V30 1305 C 123.388 -3.49723 2.48982 0
M  V30 1306 C 122.621 -4.79004 2.35353 0
M  V30 1307 O 122.844 -5.53821 1.36524 0
M  V30 1308 O 121.778 -5.06839 3.2465 0
M  V30 1309 H 125.604 -1.87425 2.38968 0
M  V30 1310 H 123.189 -0.869405 1.21498 0
M  V30 1311 H 125.071 -4.03234 1.22395 0
M  V30 1312 H 123.746 -3.21825 0.347934 0
M  V30 1313 H 122.653 -2.6865 2.60342 0
M  V30 1314 H 123.986 -3.54828 3.41113 0
M  V30 1315 N 125.638 -1.25649 -0.95132 0
M  V30 1316 C 126.568 -1.08808 -2.06599 0
M  V30 1317 C 127.549 0.00382547 -1.701 0
M  V30 1318 O 128.734 -0.166325 -1.93486 0
M  V30 1319 C 125.864 -0.709542 -3.39975 0
M  V30 1320 C 124.818 -1.75206 -3.90496 0
M  V30 1321 C 124.144 -1.22811 -5.20405 0
M  V30 1322 C 125.444 -3.15153 -4.16504 0
M  V30 1323 H 127.138 -2.02048 -2.20946 0
M  V30 1324 H 124.684 -0.972835 -1.06169 0
M  V30 1325 H 126.637 -0.578649 -4.17408 0
M  V30 1326 H 125.361 0.258556 -3.25575 0
M  V30 1327 H 124.02 -1.87145 -3.15234 0
M  V30 1328 H 123.668 -0.250145 -5.02378 0
M  V30 1329 H 123.368 -1.92492 -5.55176 0
M  V30 1330 H 124.892 -1.10968 -6.00432 0
M  V30 1331 H 126.306 -3.06349 -4.84586 0
M  V30 1332 H 124.703 -3.82333 -4.62538 0
M  V30 1333 H 125.773 -3.61966 -3.22658 0
M  V30 1334 N 127.117 1.15442 -1.07289 0
M  V30 1335 C 128.366 1.85557 -0.790669 0
M  V30 1336 C 128.679 1.83186 0.685739 0
M  V30 1337 O 129.885 2.48977 1.0827 0
M  V30 1338 C 128.341 3.33038 -1.36433 0
M  V30 1339 C 127.949 3.43856 -2.8717 0
M  V30 1340 C 129.693 4.0834 -1.1601 0
M  V30 1341 C 127.6 4.85482 -3.3773 0
M  V30 1342 H 126.53 0.695122 -0.292098 0
M  V30 1343 H 129.181 1.30219 -1.29287 0
M  V30 1344 H 127.563 3.88043 -0.789864 0
M  V30 1345 H 128.737 2.98961 -3.50655 0
M  V30 1346 H 127.052 2.81998 -3.06376 0
M  V30 1347 H 129.649 5.12859 -1.51262 0
M  V30 1348 H 129.992 4.16182 -0.0991007 0
M  V30 1349 H 130.525 3.59603 -1.70089 0
M  V30 1350 H 127.264 4.82823 -4.43353 0
M  V30 1351 H 126.784 5.30961 -2.78999 0
M  V30 1352 H 128.463 5.54335 -3.33648 0
M  V30 1353 N 128.595 0.856903 1.32268 0
M  V30 1354 C 129.841 0.462069 1.97466 0
M  V30 1355 C 130.174 -0.980298 1.67642 0
M  V30 1356 O 129.449 -1.68824 0.965858 0
M  V30 1357 C 129.732 0.704336 3.53145 0
M  V30 1358 C 129.585 2.19529 3.9259 0
M  V30 1359 C 130.904 0.1622 4.39801 0
M  V30 1360 H 128.023 0.169357 0.717278 0
M  V30 1361 H 130.665 1.07574 1.56614 0
M  V30 1362 H 128.815 0.181999 3.88073 0
M  V30 1363 H 130.487 2.78387 3.67829 0
M  V30 1364 H 128.73 2.67292 3.41668 0
M  V30 1365 H 129.401 2.31549 5.01088 0
M  V30 1366 H 131.877 0.608905 4.11621 0
M  V30 1367 H 130.753 0.361265 5.4771 0
M  V30 1368 H 131.014 -0.935158 4.32096 0
M  V30 1369 N 130.073 -1.45103 0.615059 0
M  V30 1370 C 130.983 -2.34382 -0.101034 0
M  V30 1371 C 131.999 -1.51681 -0.852585 0
M  V30 1372 O 133.175 -1.8446 -0.808484 0
M  V30 1373 C 130.24 -3.29417 -1.08099 0
M  V30 1374 C 129.301 -4.28025 -0.330577 0
M  V30 1375 C 128.534 -5.1852 -1.26385 0
M  V30 1376 O 128.757 -5.12598 -2.50198 0
M  V30 1377 O 127.691 -5.97122 -0.756866 0
M  V30 1378 H 131.517 -2.97033 0.632855 0
M  V30 1379 H 129.102 -1.4461 0.375293 0
M  V30 1380 H 130.984 -3.87958 -1.6452 0
M  V30 1381 H 129.659 -2.69321 -1.79577 0
M  V30 1382 H 128.566 -3.73078 0.276283 0
M  V30 1383 H 129.899 -4.90997 0.343866 0
M  V30 1384 N 131.551 -0.354651 -1.53558 0
M  V30 1385 C 132.797 0.238797 -2.01389 0
M  V30 1386 C 133.13 1.49309 -1.2418 0
M  V30 1387 O 132.405 1.91638 -0.332457 0
M  V30 1388 C 132.688 0.541771 -3.56001 0
M  V30 1389 C 132.541 -0.725388 -4.43912 0
M  V30 1390 C 133.86 1.34685 -4.18984 0
M  V30 1391 H 130.979 0.0853177 -0.732045 0
M  V30 1392 H 133.621 -0.477384 -1.83905 0
M  V30 1393 H 131.771 1.15189 -3.71031 0
M  V30 1394 H 133.443 -1.36313 -4.407 0
M  V30 1395 H 131.686 -1.34801 -4.12324 0
M  V30 1396 H 132.357 -0.468505 -5.50008 0
M  V30 1397 H 134.833 0.830837 -4.07721 0
M  V30 1398 H 133.709 1.52759 -5.27215 0
M  V30 1399 H 133.97 2.35221 -3.74331 0
M  V30 1400 N 133.029 1.57378 -0.0835403 0
M  V30 1401 C 133.959 2.1641 0.87686 0
M  V30 1402 C 134.94 1.09429 1.30228 0
M  V30 1403 O 136.125 1.37516 1.37124 0
M  V30 1404 C 133.255 2.73517 2.14022 0
M  V30 1405 C 132.209 3.85769 1.85381 0
M  V30 1406 C 131.535 4.29529 3.18448 0
M  V30 1407 C 132.835 5.09486 1.14984 0
M  V30 1408 H 134.529 2.96914 0.385059 0
M  V30 1409 H 132.075 1.42823 0.18377 0
M  V30 1410 H 134.028 3.13463 2.81636 0
M  V30 1411 H 132.752 1.90252 2.65465 0
M  V30 1412 H 131.411 3.46345 1.20169 0
M  V30 1413 H 131.059 3.43169 3.67755 0
M  V30 1414 H 130.759 5.05204 3.00071 0
M  V30 1415 H 132.283 4.72099 3.8724 0
M  V30 1416 H 133.697 5.46674 1.72687 0
M  V30 1417 H 132.094 5.90515 1.06826 0
M  V30 1418 H 133.164 4.84724 0.130749 0
M  V30 1419 N 134.507 -0.190092 1.56449 0
M  V30 1420 C 135.417 -1.25591 1.98152 0
M  V30 1421 C 136.433 -1.49519 0.889944 0
M  V30 1422 O 137.609 -1.62036 1.19609 0
M  V30 1423 C 134.674 -2.57916 2.3169 0
M  V30 1424 C 133.735 -2.42015 3.5458 0
M  V30 1425 C 132.968 -3.6803 3.8651 0
M  V30 1426 O 133.191 -4.72413 3.1966 0
M  V30 1427 O 132.125 -3.6326 4.79923 0
M  V30 1428 H 135.951 -0.931988 2.89046 0
M  V30 1429 H 133.536 -0.395488 1.4407 0
M  V30 1430 H 135.418 -3.36008 2.54316 0
M  V30 1431 H 134.093 -2.89925 1.43963 0
M  V30 1432 H 133 -1.62017 3.37196 0
M  V30 1433 H 134.333 -2.14937 4.4279 0
M  V30 1434 N 135.985 -1.50799 -0.457987 0
M  V30 1435 C 137.262 -1.52968 -1.21902 0
M  V30 1436 C 137.642 -0.281906 -2.09209 0
M  V30 1437 O 136.99 0.734076 -2.16388 0
M  V30 1438 C 137.2 -2.8326 -2.03875 0
M  V30 1439 C 138.548 -3.34425 -2.6162 0
M  V30 1440 O 139.572 -2.8467 -2.14106 0
M  V30 1441 O 138.431 -4.21188 -3.48228 0
M  V30 1442 H 135.525 -0.614129 -0.553873 0
M  V30 1443 H 138.071 -1.63098 -0.468739 0
M  V30 1444 H 136.843 -3.65543 -1.39621 0
M  V30 1445 H 136.466 -2.76195 -2.8601 0
M  V30 1446 N 137.463 0.71206 -1.40597 0
M  V30 1447 C 138.709 1.47416 -1.39271 0
M  V30 1448 C 139.042 1.942 0.00388791 0
M  V30 1449 O 138.317 1.68403 0.973179 0
M  V30 1450 C 138.6 2.69774 -2.38525 0
M  V30 1451 C 138.453 2.28861 -3.87224 0
M  V30 1452 C 139.772 3.71939 -2.35264 0
M  V30 1453 H 136.891 0.534713 -0.5072 0
M  V30 1454 H 139.533 0.812375 -1.71757 0
M  V30 1455 H 137.683 3.26238 -2.10953 0
M  V30 1456 H 139.355 1.77852 -4.25636 0
M  V30 1457 H 137.598 1.60824 -4.02887 0
M  V30 1458 H 138.269 3.16584 -4.52193 0
M  V30 1459 H 140.745 3.25113 -2.59694 0
M  V30 1460 H 139.621 4.55186 -3.06753 0
M  V30 1461 H 139.882 4.20484 -1.36549 0
M  V30 1462 N 138.941 1.26152 0.944643 0
M  V30 1463 C 140.352 1.10454 1.50522 0
M  V30 1464 C 140.703 -0.31635 1.93633 0
M  V30 1465 O 139.828 -1.20746 1.79581 0
M  V30 1466 C 140.423 1.99891 2.73549 0
M  V30 1467 C 138.982 1.88348 3.25886 0
M  V30 1468 C 138.129 1.93447 1.9868 0
M  V30 1469 H 141.08 1.39292 0.760489 0
M  V30 1470 H 141.101 1.54477 3.47732 0
M  V30 1471 H 140.613 3.03297 2.42141 0
M  V30 1472 H 138.714 0.878636 3.62092 0
M  V30 1473 H 138.827 2.73696 3.93227 0
M  V30 1474 H 137.191 1.37456 2.14425 0
M  V30 1475 H 137.974 2.98476 1.69607 0
M  V30 1476 N 140.419 -1.14872 1.07899 0
M  V30 1477 C 141.349 -2.2193 0.725887 0
M  V30 1478 C 142.33 -1.67622 -0.28927 0
M  V30 1479 O 143.515 -1.93533 -0.160787 0
M  V30 1480 C 140.645 -3.47061 0.128856 0
M  V30 1481 C 139.599 -4.14363 1.07178 0
M  V30 1482 C 138.925 -5.33636 0.337229 0
M  V30 1483 C 140.225 -4.63492 2.40775 0
M  V30 1484 H 141.919 -2.51724 1.62097 0
M  V30 1485 H 139.465 -1.20991 0.780838 0
M  V30 1486 H 141.418 -4.21199 -0.130147 0
M  V30 1487 H 140.142 -3.16617 -0.80134 0
M  V30 1488 H 138.801 -3.42173 1.3158 0
M  V30 1489 H 138.449 -4.99449 -0.596606 0
M  V30 1490 H 138.149 -5.79609 0.965788 0
M  V30 1491 H 139.673 -6.10539 0.0861567 0
M  V30 1492 H 141.087 -5.2913 2.20669 0
M  V30 1493 H 139.484 -5.20148 2.99276 0
M  V30 1494 H 140.554 -3.78834 3.02676 0
M  V30 1495 N 141.898 -0.863906 -1.31812 0
M  V30 1496 C 143.126 -0.486111 -2.01108 0
M  V30 1497 C 143.541 0.919755 -1.64882 0
M  V30 1498 O 142.898 1.60162 -0.874893 0
M  V30 1499 C 142.949 -0.626435 -3.56031 0
M  V30 1500 O 142.67 -1.97693 -3.90959 0
M  V30 1501 C 144.171 -0.248857 -4.42601 0
M  V30 1502 H 141.391 -0.190052 -0.643523 0
M  V30 1503 H 143.935 -1.1634 -1.68182 0
M  V30 1504 H 142.09 0.00322717 -3.874 0
M  V30 1505 H 142.504 -1.98034 -4.85678 0
M  V30 1506 H 143.978 -0.398016 -5.50563 0
M  V30 1507 H 144.455 0.811489 -4.31638 0
M  V30 1508 H 145.061 -0.853971 -4.16638 0
M  V30 1509 N 143.376 1.44774 -0.622745 0
M  V30 1510 C 144.309 2.27792 0.136329 0
M  V30 1511 C 145.287 1.38041 0.859264 0
M  V30 1512 O 146.471 1.67478 0.86506 0
M  V30 1513 C 143.598 3.16776 1.19878 0
M  V30 1514 C 142.644 4.22575 0.57731 0
M  V30 1515 S 143.477 5.31825 -0.626294 0
M  V30 1516 C 144.633 6.24377 0.436378 0
M  V30 1517 H 144.866 2.91824 -0.567967 0
M  V30 1518 H 142.399 1.48838 -0.410677 0
M  V30 1519 H 144.357 3.68596 1.80686 0
M  V30 1520 H 143.018 2.5198 1.87523 0
M  V30 1521 H 142.211 4.84818 1.37721 0
M  V30 1522 H 141.813 3.73974 0.0440439 0
M  V30 1523 H 144.105 6.64689 1.31128 0
M  V30 1524 H 145.048 7.07941 -0.150271 0
M  V30 1525 H 145.456 5.59381 0.758513 0
M  V30 1526 N 144.854 0.36279 1.53368 0
M  V30 1527 C 145.804 -0.501391 2.22419 0
M  V30 1528 C 146.788 -1.0509 1.2184 0
M  V30 1529 O 147.98 -0.981404 1.47301 0
M  V30 1530 C 145.109 -1.64201 3.01484 0
M  V30 1531 C 144.195 -1.10552 4.09438 0
M  V30 1532 N 144.586 -0.291788 5.04958 0
M  V30 1533 C 142.884 -1.3806 4.24094 0
M  V30 1534 C 143.585 0.00162655 5.817 0
M  V30 1535 N 142.561 -0.595244 5.40331 0
M  V30 1536 H 146.363 0.127159 2.93625 0
M  V30 1537 H 143.877 0.170658 1.61501 0
M  V30 1538 H 145.874 -2.27326 3.49469 0
M  V30 1539 H 144.534 -2.27365 2.31809 0
M  V30 1540 H 145.545 0.0687731 5.17854 0
M  V30 1541 H 142.222 -2.01522 3.65644 0
M  V30 1542 H 143.612 0.659278 6.68658 0
M  V30 1543 N 146.332 -1.57332 0.0918853 0
M  V30 1544 C 147.28 -2.15075 -0.885747 0
M  V30 1545 C 148.274 -1.09277 -1.29441 0
M  V30 1546 O 149.48 -1.27627 -1.26931 0
M  V30 1547 H 145.855 -0.687966 -0.303656 0
M  V30 1548 H 147.826 -2.96047 -0.373995 0
M  V30 1549 C 146.575 -2.74325 -2.13638 0
M  V30 1550 H 145.898 -3.55418 -1.8308 0
M  V30 1551 H 147.338 -3.183 -2.80109 0
M  V30 1552 C 145.797 -1.70062 -2.90827 0
M  V30 1553 O 146.327 -1.13763 -3.85254 0
M  V30 1554 N 144.533 -1.40628 -2.54307 0
M  V30 1555 H 144.08 -1.866 -1.7759 0
M  V30 1556 H 144.038 -0.711043 -3.06254 0
M  V30 1557 N 147.81 0.181792 -1.56548 0
M  V30 1558 C 149.057 0.900097 -1.81396 0
M  V30 1559 C 149.385 1.82695 -0.667281 0
M  V30 1560 O 148.64 1.92614 0.346146 0
M  V30 1561 C 148.939 1.73728 -3.12335 0
M  V30 1562 C 148.605 0.960255 -4.40556 0
M  V30 1563 C 147.267 0.745766 -4.75386 0
M  V30 1564 C 149.619 0.414477 -5.19549 0
M  V30 1565 C 146.947 -0.0257694 -5.86694 0
M  V30 1566 C 149.299 -0.343916 -6.31664 0
M  V30 1567 C 147.963 -0.569301 -6.65068 0
M  V30 1568 H 147.233 0.329369 -0.663775 0
M  V30 1569 H 149.88 0.165647 -1.90782 0
M  V30 1570 H 148.185 2.54081 -2.98245 0
M  V30 1571 H 149.882 2.29591 -3.28769 0
M  V30 1572 H 146.472 1.13746 -4.13231 0
M  V30 1573 H 150.656 0.567554 -4.93044 0
M  V30 1574 H 145.912 -0.210233 -6.11038 0
M  V30 1575 H 150.086 -0.774133 -6.92084 0
M  V30 1576 H 147.713 -1.16903 -7.51158 0
M  V30 1577 N 149.288 1.51039 0.449983 0
M  V30 1578 C 150.534 1.63322 1.20223 0
M  V30 1579 C 150.867 0.34241 1.91158 0
M  V30 1580 O 150.142 -0.657344 1.83055 0
M  V30 1581 C 150.425 2.82801 2.22925 0
M  V30 1582 C 150.278 4.21823 1.56157 0
M  V30 1583 C 151.597 2.97807 3.24035 0
M  V30 1584 H 148.716 0.594407 0.435718 0
M  V30 1585 H 151.358 1.83489 0.493136 0
M  V30 1586 H 149.508 2.65738 2.834 0
M  V30 1587 H 151.18 4.50526 0.991162 0
M  V30 1588 H 149.423 4.25105 0.864172 0
M  V30 1589 H 150.094 5.01391 2.30891 0
M  V30 1590 H 152.57 3.13497 2.73603 0
M  V30 1591 H 151.446 3.82992 3.93202 0
M  V30 1592 H 151.707 2.09328 3.89402 0
M  V30 1593 N 150.766 -0.704594 1.40972 0
M  V30 1594 C 152.182 -1.01406 1.23244 0
M  V30 1595 C 152.382 -2.01169 0.115399 0
M  V30 1596 O 151.438 -2.47021 -0.523147 0
M  V30 1597 C 152.751 -1.54728 2.57836 0
M  V30 1598 C 154.299 -1.66658 2.64942 0
M  V30 1599 C 154.774 -2.23383 3.9983 0
M  V30 1600 N 156.265 -2.30756 4.01629 0
M  V30 1601 C 157 -2.75655 5.02794 0
M  V30 1602 N 156.496 -3.20225 6.14352 0
M  V30 1603 N 158.289 -2.75138 4.90159 0
M  V30 1604 H 150.44 -0.0435285 2.12355 0
M  V30 1605 H 152.703 -0.0818951 0.944456 0
M  V30 1606 H 152.409 -0.888832 3.40283 0
M  V30 1607 H 152.283 -2.53084 2.79693 0
M  V30 1608 H 154.67 -2.31617 1.8286 0
M  V30 1609 H 154.751 -0.668717 2.46904 0
M  V30 1610 H 154.395 -1.59043 4.82357 0
M  V30 1611 H 154.325 -3.23904 4.15203 0
M  V30 1612 H 156.816 -1.99291 3.21079 0
M  V30 1613 H 157.129 -3.53084 6.87424 0
M  V30 1614 H 155.474 -3.18156 6.17901 0
M  V30 1615 H 158.665 -2.39661 4.02095 0
M  V30 1616 H 158.838 -3.09812 5.6914 0
M  V30 1617 N 152.244 -1.26651 -0.937939 0
M  V30 1618 C 153.191 -1.0849 -2.03712 0
M  V30 1619 C 154.161 0.011033 -1.66096 0
M  V30 1620 O 155.346 -0.149353 -1.90215 0
M  V30 1621 C 152.486 -0.72735 -3.37348 0
M  V30 1622 C 151.599 -1.89986 -3.87981 0
M  V30 1623 C 150.734 -1.48513 -5.10017 0
M  V30 1624 C 149.773 -2.62575 -5.5292 0
M  V30 1625 N 148.91 -2.21762 -6.66158 0
M  V30 1626 H 153.75 -2.02551 -2.18579 0
M  V30 1627 H 151.287 -1.00844 -1.07093 0
M  V30 1628 H 153.245 -0.50092 -4.14182 0
M  V30 1629 H 151.875 0.176298 -3.22318 0
M  V30 1630 H 150.927 -2.23913 -3.07518 0
M  V30 1631 H 152.239 -2.75586 -4.15757 0
M  V30 1632 H 151.393 -1.21934 -5.94321 0
M  V30 1633 H 150.132 -0.60009 -4.83994 0
M  V30 1634 H 149.137 -2.8988 -4.67172 0
M  V30 1635 H 150.362 -3.51685 -5.80943 0
M  V30 1636 H 148.308 -1.35696 -6.41812 0
M  V30 1637 H 148.225 -3.00903 -6.93537 0
M  V30 1638 H 149.493 -1.98403 -7.53828 0
M  V30 1639 N 153.722 1.14298 -1.08507 0
M  V30 1640 C 154.95 1.89219 -0.836876 0
M  V30 1641 C 155.365 1.78638 0.611054 0
M  V30 1642 O 154.722 1.14643 1.41998 0
M  V30 1643 C 154.773 3.39158 -1.25116 0
M  V30 1644 O 154.494 3.49449 -2.64229 0
M  V30 1645 C 155.995 4.31073 -1.03398 0
M  V30 1646 H 153.215 0.599328 -0.301739 0
M  V30 1647 H 155.759 1.44746 -1.44461 0
M  V30 1648 H 153.914 3.81251 -0.687514 0
M  V30 1649 H 154.328 4.42589 -2.81452 0
M  V30 1650 H 155.802 5.34646 -1.37323 0
M  V30 1651 H 156.279 4.3919 0.0289259 0
M  V30 1652 H 156.885 3.94738 -1.58311 0
M  V30 1653 N 155.201 0.870884 1.31352 0
M  V30 1654 C 156.448 0.482273 1.96673 0
M  V30 1655 C 156.776 -0.965638 1.68836 0
M  V30 1656 O 156.031 -1.69514 0.977937 0
M  V30 1657 C 156.33 0.687157 3.50732 0
M  V30 1658 C 155.996 2.108 3.9859 0
M  V30 1659 C 154.658 2.49656 4.1137 0
M  V30 1660 C 157.01 3.03459 4.23748 0
M  V30 1661 C 154.338 3.80412 4.46659 0
M  V30 1662 C 156.69 4.3373 4.60501 0
M  V30 1663 C 155.354 4.725 4.71487 0
M  V30 1664 H 154.624 0.176476 0.719679 0
M  V30 1665 H 157.271 1.10405 1.56471 0
M  V30 1666 H 155.576 -0.0177476 3.91796 0
M  V30 1667 H 157.273 0.366284 3.99324 0
M  V30 1668 H 153.863 1.79633 3.8914 0
M  V30 1669 H 158.047 2.74665 4.13368 0
M  V30 1670 H 153.303 4.1021 4.53362 0
M  V30 1671 H 157.477 5.05578 4.78919 0
M  V30 1672 H 155.104 5.73859 4.98588 0
M  V30 1673 N 156.679 -1.44442 0.630414 0
M  V30 1674 C 157.926 -2.02052 0.134617 0
M  V30 1675 C 158.254 -1.49576 -1.24327 0
M  V30 1676 O 157.509 -0.669806 -1.83881 0
M  V30 1677 C 157.808 -3.57332 0.0697835 0
M  V30 1678 C 157.474 -4.29058 1.38635 0
M  V30 1679 C 156.136 -4.4837 1.74694 0
M  V30 1680 C 158.488 -4.69872 2.25543 0
M  V30 1681 C 155.816 -5.05756 2.97369 0
M  V30 1682 C 158.168 -5.28616 3.47487 0
M  V30 1683 C 156.832 -5.46147 3.8377 0
M  V30 1684 H 156.102 -0.739361 0.0492598 0
M  V30 1685 H 158.749 -1.73217 0.816586 0
M  V30 1686 H 157.054 -3.85577 -0.695553 0
M  V30 1687 H 158.751 -3.99637 -0.330344 0
M  V30 1688 H 155.341 -4.14357 1.09574 0
M  V30 1689 H 159.525 -4.54666 1.98979 0
M  V30 1690 H 154.781 -5.17515 3.25558 0
M  V30 1691 H 158.955 -5.59192 4.15063 0
M  V30 1692 H 156.582 -5.9038 4.7891 0
M  V30 1693 N 158.157 -0.370918 -1.53173 0
M  V30 1694 C 159.382 0.220293 -2.06227 0
M  V30 1695 C 159.807 1.41243 -1.24225 0
M  V30 1696 O 159.165 1.79387 -0.262645 0
M  V30 1697 C 159.213 0.586663 -3.55796 0
M  V30 1698 O 158.317 1.68317 -3.76488 0
M  V30 1699 H 157.658 0.0308099 -0.663285 0
M  V30 1700 H 160.188 -0.533068 -1.97534 0
M  V30 1701 H 160.198 0.85617 -3.98916 0
M  V30 1702 H 158.873 -0.285013 -4.14922 0
M  V30 1703 H 157.45 1.40881 -3.45264 0
M  V30 1704 N 159.635 1.57281 -0.100228 0
M  V30 1705 C 160.565 2.17328 0.853857 0
M  V30 1706 C 161.546 1.10804 1.2906 0
M  V30 1707 O 162.731 1.38963 1.35657 0
M  V30 1708 C 159.861 2.75772 2.11109 0
M  V30 1709 C 158.815 3.87713 1.81279 0
M  V30 1710 C 158.141 4.32882 3.13874 0
M  V30 1711 C 159.441 5.10677 1.09574 0
M  V30 1712 H 161.135 2.97305 0.353545 0
M  V30 1713 H 158.681 1.43009 0.168612 0
M  V30 1714 H 160.634 3.16433 2.78296 0
M  V30 1715 H 159.358 1.93057 2.63432 0
M  V30 1716 H 158.017 3.476 1.16489 0
M  V30 1717 H 157.665 3.47051 3.64095 0
M  V30 1718 H 157.365 5.08358 2.94696 0
M  V30 1719 H 158.889 4.7618 3.82211 0
M  V30 1720 H 160.303 5.48474 1.66879 0
M  V30 1721 H 158.7 5.91615 1.00557 0
M  V30 1722 H 159.77 4.84835 0.0793299 0
M  V30 1723 N 161.113 -0.173488 1.56642 0
M  V30 1724 C 162.076 -1.19859 1.95362 0
M  V30 1725 C 163.076 -1.37296 0.83704 0
M  V30 1726 O 164.266 -1.34739 1.10413 0
M  V30 1727 C 161.398 -2.56405 2.24654 0
M  V30 1728 H 162.591 -0.867062 2.87092 0
M  V30 1729 H 160.144 -0.415853 1.50666 0
M  V30 1730 H 160.879 -2.94576 1.35631 0
M  V30 1731 H 160.664 -2.45115 3.06041 0
M  V30 1732 H 162.154 -3.30287 2.5554 0
M  V30 1733 N 162.591 -1.51276 -0.441967 0
M  V30 1734 C 163.838 -1.63715 -1.19179 0
M  V30 1735 C 164.166 -0.351175 -1.91303 0
M  V30 1736 O 163.421 0.664524 -1.84072 0
M  V30 1737 C 163.72 -2.78746 -2.23686 0
M  V30 1738 C 163.386 -4.18189 -1.68607 0
M  V30 1739 C 162.048 -4.56125 -1.53308 0
M  V30 1740 C 164.4 -5.05222 -1.28062 0
M  V30 1741 C 161.728 -5.78804 -0.959317 0
M  V30 1742 C 164.08 -6.28476 -0.721162 0
M  V30 1743 C 162.744 -6.65188 -0.55504 0
M  V30 1744 H 162.014 -0.599076 -0.436106 0
M  V30 1745 H 164.661 -1.85296 -0.48351 0
M  V30 1746 H 162.966 -2.51369 -3.00535 0
M  V30 1747 H 164.663 -2.8557 -2.81515 0
M  V30 1748 H 161.253 -3.88277 -1.8149 0
M  V30 1749 H 165.437 -4.76524 -1.38704 0
M  V30 1750 H 160.693 -6.05899 -0.81833 0
M  V30 1751 H 164.867 -6.95259 -0.398458 0
M  V30 1752 H 162.494 -7.60123 -0.108311 0
M  V30 1753 N 164.069 0.697108 -1.41344 0
M  V30 1754 C 165.309 1.46939 -1.42085 0
M  V30 1755 C 165.673 1.9198 -0.0280397 0
M  V30 1756 O 166.874 2.6865 0.0897504 0
M  V30 1757 C 165.145 2.64985 -2.39828 0
M  V30 1758 S 166.704 3.54147 -2.59085 0
M  V30 1759 H 163.522 0.502146 -0.503359 0
M  V30 1760 H 166.124 0.813546 -1.77769 0
M  V30 1761 H 164.828 2.30098 -3.39828 0
M  V30 1762 H 164.359 3.35464 -2.05493 0
M  V30 1763 H 166.374 4.60137 -1.85711 0
M  V30 1764 N 165.547 1.27147 0.931209 0
M  V30 1765 C 166.824 1.0401 1.65654 0
M  V30 1766 C 167.204 -0.426297 2.06751 0
M  V30 1767 O 166.552 -1.40879 1.79904 0
M  V30 1768 C 166.762 1.99834 2.86125 0
M  V30 1769 C 168.11 2.29007 3.57549 0
M  V30 1770 O 169.134 1.97779 2.96246 0
M  V30 1771 O 167.993 2.82222 4.67989 0
M  V30 1772 H 165.087 0.396239 0.725895 0
M  V30 1773 H 167.633 1.38397 0.982056 0
M  V30 1774 H 166.405 2.98744 2.52721 0
M  V30 1775 H 166.028 1.65987 3.61295 0
M  V30 1776 N 167.025 -1.13721 1.09112 0
M  V30 1777 C 168.272 -1.84924 0.825192 0
M  V30 1778 C 168.6 -1.83347 -0.649151 0
M  V30 1779 O 167.855 -1.26449 -1.49362 0
M  V30 1780 C 168.154 -3.32861 1.30146 0
M  V30 1781 C 167.82 -3.54621 2.78486 0
M  V30 1782 C 166.482 -3.60268 3.18999 0
M  V30 1783 C 168.834 -3.62855 3.74146 0
M  V30 1784 C 166.162 -3.71679 4.53951 0
M  V30 1785 C 168.514 -3.75793 5.08883 0
M  V30 1786 C 167.178 -3.79692 5.4899 0
M  V30 1787 H 166.448 -0.676684 0.301959 0
M  V30 1788 H 169.095 -1.3428 1.36533 0
M  V30 1789 H 167.4 -3.85835 0.681064 0
M  V30 1790 H 169.097 -3.86395 1.07236 0
M  V30 1791 H 165.687 -3.50879 2.46134 0
M  V30 1792 H 169.871 -3.57775 3.43963 0
M  V30 1793 H 165.127 -3.72963 4.84467 0
M  V30 1794 H 169.301 -3.81107 5.82864 0
M  V30 1795 H 166.928 -3.88287 6.53558 0
M  V30 1796 N 168.503 -0.877838 -1.30888 0
M  V30 1797 C 169.743 -0.499301 -1.98208 0
M  V30 1798 C 170.107 0.932649 -1.67826 0
M  V30 1799 O 171.308 1.41694 -2.28421 0
M  V30 1800 C 169.579 -0.758221 -3.49265 0
M  V30 1801 S 171.138 -0.480719 -4.36159 0
M  V30 1802 H 167.956 -0.186062 -0.686223 0
M  V30 1803 H 170.558 -1.13556 -1.59139 0
M  V30 1804 H 169.262 -1.79903 -3.68867 0
M  V30 1805 H 168.793 -0.109247 -3.93248 0
M  V30 1806 H 170.808 0.683698 -4.91467 0
M  V30 1807 N 169.982 1.44106 -0.638065 0
M  V30 1808 C 170.912 2.33448 0.0494287 0
M  V30 1809 C 171.893 1.48606 0.827672 0
M  V30 1810 O 173.078 1.77308 0.792173 0
M  V30 1811 C 170.208 3.31771 1.02691 0
M  V30 1812 C 169.162 4.26485 0.359823 0
M  V30 1813 C 168.488 5.14729 1.44769 0
M  V30 1814 C 169.788 5.17056 -0.738296 0
M  V30 1815 H 171.482 2.91183 -0.696636 0
M  V30 1816 H 169.028 1.40014 -0.336456 0
M  V30 1817 H 170.981 3.93161 1.51666 0
M  V30 1818 H 169.705 2.7226 1.80395 0
M  V30 1819 H 168.364 3.66437 -0.10934 0
M  V30 1820 H 168.012 4.51566 2.21578 0
M  V30 1821 H 167.712 5.78913 1.00668 0
M  V30 1822 H 169.236 5.78991 1.93911 0
M  V30 1823 H 170.65 5.72342 -0.331354 0
M  V30 1824 H 169.047 5.89879 -1.10286 0
M  V30 1825 H 170.117 4.57652 -1.60258 0
M  V30 1826 N 171.46 0.379036 1.52974 0
M  V30 1827 C 172.407 -0.461048 2.26148 0
M  V30 1828 C 173.377 -1.06637 1.27349 0
M  V30 1829 O 174.562 -1.09633 1.56157 0
M  V30 1830 C 171.702 -1.58782 3.06402 0
M  V30 1831 C 170.815 -1.00636 4.20115 0
M  V30 1832 C 169.95 -2.10334 4.87784 0
M  V30 1833 C 168.989 -1.49724 5.93506 0
M  V30 1834 N 168.126 -2.5331 6.54812 0
M  V30 1835 H 172.966 0.169429 2.97518 0
M  V30 1836 H 170.503 0.0953806 1.4679 0
M  V30 1837 H 172.461 -2.25174 3.51215 0
M  V30 1838 H 171.091 -2.18876 2.37261 0
M  V30 1839 H 170.143 -0.232332 3.7969 0
M  V30 1840 H 171.455 -0.523343 4.96047 0
M  V30 1841 H 170.609 -2.84519 5.35849 0
M  V30 1842 H 169.348 -2.61992 4.11353 0
M  V30 1843 H 168.353 -0.740598 5.44789 0
M  V30 1844 H 169.578 -0.988732 6.71864 0
M  V30 1845 H 167.524 -3.04156 5.81227 0
M  V30 1846 H 167.441 -2.09734 7.26325 0
M  V30 1847 H 168.709 -3.27155 7.07524 0
M  V30 1848 N 172.938 -1.57226 0.108567 0
M  V30 1849 C 174.185 -1.94833 -0.551943 0
M  V30 1850 C 174.513 -0.991204 -1.67348 0
M  V30 1851 O 173.768 -0.0131878 -1.95696 0
M  V30 1852 C 174.067 -3.38911 -1.13463 0
M  V30 1853 C 173.733 -4.50696 -0.135509 0
M  V30 1854 C 172.395 -4.80998 0.139252 0
M  V30 1855 C 174.747 -5.18333 0.545957 0
M  V30 1856 C 172.075 -5.76259 1.10194 0
M  V30 1857 C 174.427 -6.14627 1.49721 0
M  V30 1858 C 173.091 -6.43327 1.78006 0
M  V30 1859 H 172.361 -0.712944 -0.20197 0
M  V30 1860 H 175.008 -1.90582 0.18726 0
M  V30 1861 H 173.313 -3.39805 -1.95037 0
M  V30 1862 H 175.01 -3.65317 -1.65362 0
M  V30 1863 H 171.6 -4.27087 -0.359846 0
M  V30 1864 H 175.784 -4.95087 0.346842 0
M  V30 1865 H 171.04 -5.96804 1.32795 0
M  V30 1866 H 175.214 -6.66126 2.03099 0
M  V30 1867 H 172.841 -7.1695 2.52759 0
M  V30 1868 N 174.416 0.165178 -1.56732 0
M  V30 1869 C 175.346 1.20651 -1.99914 0
M  V30 1870 C 176.327 1.45827 -0.875705 0
M  V30 1871 O 177.512 1.57057 -1.14223 0
M  V30 1872 C 174.642 2.54401 -2.36427 0
M  V30 1873 C 173.596 2.43782 -3.51787 0
M  V30 1874 C 172.922 3.82078 -3.7406 0
M  V30 1875 C 174.222 1.93732 -4.85041 0
M  V30 1876 H 175.916 0.847534 -2.87154 0
M  V30 1877 H 173.462 0.40625 -1.38151 0
M  V30 1878 H 175.415 3.27458 -2.65234 0
M  V30 1879 H 174.139 2.92098 -1.46103 0
M  V30 1880 H 172.798 1.73178 -3.23117 0
M  V30 1881 H 172.446 4.17179 -2.81017 0
M  V30 1882 H 172.146 3.7584 -4.51684 0
M  V30 1883 H 173.67 4.56712 -4.05274 0
M  V30 1884 H 175.084 2.56569 -5.12684 0
M  V30 1885 H 173.481 1.98428 -5.66345 0
M  V30 1886 H 174.551 0.891962 -4.76626 0
M  V30 1887 N 175.894 1.51508 0.433938 0
M  V30 1888 C 177.141 1.64345 1.18309 0
M  V30 1889 C 177.469 0.361315 1.91115 0
M  V30 1890 O 176.724 -0.654753 1.84422 0
M  V30 1891 C 177.023 2.79928 2.22205 0
M  V30 1892 C 176.689 4.19078 1.66387 0
M  V30 1893 C 175.351 4.56932 1.50887 0
M  V30 1894 C 177.703 5.05894 1.25381 0
M  V30 1895 C 175.031 5.79305 0.928608 0
M  V30 1896 C 177.383 6.2885 0.687823 0
M  V30 1897 C 176.047 6.65473 0.519755 0
M  V30 1898 H 175.317 0.601381 0.432923 0
M  V30 1899 H 177.964 1.85549 0.473676 0
M  V30 1900 H 176.269 2.52959 2.99197 0
M  V30 1901 H 177.966 2.87059 2.79997 0
M  V30 1902 H 174.556 3.89234 1.79428 0
M  V30 1903 H 178.74 4.77253 1.36175 0
M  V30 1904 H 173.996 6.06324 0.786186 0
M  V30 1905 H 178.17 6.95461 0.361581 0
M  V30 1906 H 175.797 7.6017 0.0679979 0
M  V30 1907 N 177.372 -0.689602 1.41712 0
M  V30 1908 C 178.322 -1.79571 1.40493 0
M  V30 1909 C 179.306 -1.58473 0.278409 0
M  V30 1910 O 180.498 -1.69204 0.519532 0
M  V30 1911 C 177.627 -3.17923 1.29536 0
M  V30 1912 C 176.713 -3.44695 2.47075 0
M  V30 1913 N 177.104 -3.42132 3.72531 0
M  V30 1914 C 175.402 -3.75269 2.41017 0
M  V30 1915 C 176.103 -3.67976 4.50521 0
M  V30 1916 N 175.079 -3.88014 3.80718 0
M  V30 1917 H 178.881 -1.75961 2.35404 0
M  V30 1918 H 176.395 -0.889839 1.35851 0
M  V30 1919 H 178.392 -3.97167 1.26745 0
M  V30 1920 H 177.052 -3.22741 0.356153 0
M  V30 1921 H 178.063 -3.22375 4.05333 0
M  V30 1922 H 174.74 -3.87421 1.55599 0
M  V30 1923 H 176.13 -3.7208 5.59469 0
M  V30 1924 N 178.85 -1.27639 -0.924453 0
M  V30 1925 C 180.098 -1.13941 -1.66918 0
M  V30 1926 C 180.419 0.314589 -1.92446 0
M  V30 1927 O 179.689 1.21964 -1.53303 0
M  V30 1928 H 178.269 -0.418678 -0.618642 0
M  V30 1929 H 180.931 -1.60213 -1.10985 0
M  V30 1930 H 180.027 -1.67094 -2.63602 0
M  V30 1931 N 180.328 1.1314 -1.09713 0
M  V30 1932 C 181.575 1.84484 -0.834987 0
M  V30 1933 C 181.903 1.83689 0.639418 0
M  V30 1934 O 181.158 1.2724 1.4869 0
M  V30 1935 C 181.457 3.32167 -1.3191 0
M  V30 1936 C 181.123 3.53139 -2.80363 0
M  V30 1937 C 179.785 3.58571 -3.20905 0
M  V30 1938 C 182.137 3.60866 -3.76065 0
M  V30 1939 C 179.465 3.69267 -4.55916 0
M  V30 1940 C 181.817 3.73089 -5.10869 0
M  V30 1941 C 180.481 3.76775 -5.50996 0
M  V30 1942 H 179.751 0.675073 -0.305544 0
M  V30 1943 H 182.398 1.33554 -1.37243 0
M  V30 1944 H 180.703 3.85469 -0.701517 0
M  V30 1945 H 182.4 3.85821 -1.09284 0
M  V30 1946 H 178.99 3.49569 -2.47991 0
M  V30 1947 H 183.174 3.55946 -3.45855 0
M  V30 1948 H 178.43 3.70388 -4.86438 0
M  V30 1949 H 182.604 3.78011 -5.84877 0
M  V30 1950 H 180.231 3.84815 -6.55608 0
M  V30 1951 N 181.806 0.884767 1.30421 0
M  V30 1952 C 183.222 0.57874 1.48737 0
M  V30 1953 C 183.422 -0.883567 1.81095 0
M  V30 1954 O 182.478 -1.6648 1.89844 0
M  V30 1955 C 183.791 1.49171 2.61091 0
M  V30 1956 C 185.339 1.49532 2.74971 0
M  V30 1957 C 185.814 2.39421 3.90438 0
M  V30 1958 N 187.305 2.37383 3.97748 0
M  V30 1959 C 188.04 3.03647 4.86401 0
M  V30 1960 N 187.536 3.79136 5.79852 0
M  V30 1961 N 189.329 2.9288 4.79768 0
M  V30 1962 H 181.48 1.83075 1.0769 0
M  V30 1963 H 183.743 0.783637 0.533495 0
M  V30 1964 H 183.449 2.53291 2.44001 0
M  V30 1965 H 183.323 1.20113 3.57565 0
M  V30 1966 H 185.71 0.46163 2.91467 0
M  V30 1967 H 185.791 1.8262 1.79119 0
M  V30 1968 H 185.435 3.42874 3.74699 0
M  V30 1969 H 185.365 2.03649 4.85628 0
M  V30 1970 H 187.856 1.82525 3.30897 0
M  V30 1971 H 188.169 4.26789 6.4426 0
M  V30 1972 H 186.514 3.83243 5.79784 0
M  V30 1973 H 189.705 2.33433 4.05742 0
M  V30 1974 H 189.878 3.448 5.4865 0
M  V30 1975 N 183.284 -1.43765 0.645699 0
M  V30 1976 C 184.524 -2.03776 0.159542 0
M  V30 1977 C 184.888 -1.49792 -1.2011 0
M  V30 1978 O 186.089 -2.01398 -1.78023 0
M  V30 1979 C 184.36 -3.57036 0.161251 0
M  V30 1980 S 185.919 -4.3804 -0.258159 0
M  V30 1981 H 182.737 -0.707717 0.0682454 0
M  V30 1982 H 185.339 -1.75941 0.852352 0
M  V30 1983 H 184.043 -3.9383 1.15439 0
M  V30 1984 H 183.574 -3.89503 -0.552339 0
M  V30 1985 H 185.589 -4.7302 -1.49889 0
M  V30 1986 N 184.763 -0.387143 -1.52771 0
M  V30 1987 C 185.695 0.484089 -2.2403 0
M  V30 1988 C 186.708 1.02849 -1.26198 0
M  V30 1989 O 187.897 0.931186 -1.52286 0
M  V30 1990 C 184.997 1.68337 -2.94136 0
M  V30 1991 C 184.17 1.26672 -4.18656 0
M  V30 1992 C 183.229 2.33045 -4.7178 0
M  V30 1993 O 182.255 1.94541 -5.34923 0
M  V30 1994 N 183.457 3.64929 -4.5145 0
M  V30 1995 H 186.222 -0.126404 -2.99433 0
M  V30 1996 H 183.783 -0.213392 -1.60488 0
M  V30 1997 H 185.775 2.39019 -3.26577 0
M  V30 1998 H 184.345 2.20025 -2.22053 0
M  V30 1999 H 183.565 0.388878 -3.92277 0
M  V30 2000 H 184.853 0.964964 -4.99566 0
M  V30 2001 H 184.251 3.98974 -4.01044 0
M  V30 2002 H 182.808 4.31651 -4.88386 0
M  V30 2003 N 186.241 1.57166 -0.116904 0
M  V30 2004 C 187.469 1.99473 0.549383 0
M  V30 2005 C 187.884 0.996541 1.60357 0
M  V30 2006 O 187.241 -0.0108731 1.82497 0
M  V30 2007 C 187.292 3.41788 1.17741 0
M  V30 2008 O 187.013 4.37788 0.165362 0
M  V30 2009 C 188.514 3.99216 1.92722 0
M  V30 2010 H 185.734 0.655009 0.145616 0
M  V30 2011 H 188.278 2.03494 -0.202625 0
M  V30 2012 H 186.433 3.38713 1.88021 0
M  V30 2013 H 186.847 5.20806 0.621403 0
M  V30 2014 H 188.321 5.00882 2.31995 0
M  V30 2015 H 188.798 3.3824 2.80161 0
M  V30 2016 H 189.404 4.0583 1.27209 0
M  V30 2017 N 187.719 -0.156864 1.56817 0
M  V30 2018 C 188.959 -0.877453 1.84608 0
M  V30 2019 C 189.323 -1.78791 0.699845 0
M  V30 2020 O 190.524 -2.5472 0.858553 0
M  V30 2021 C 188.795 -1.63992 3.17555 0
M  V30 2022 S 190.354 -2.40729 3.66872 0
M  V30 2023 H 187.172 -0.293612 0.647544 0
M  V30 2024 H 189.774 -0.138099 1.95012 0
M  V30 2025 H 188.478 -0.962363 3.98957 0
M  V30 2026 H 188.009 -2.42038 3.10131 0
M  V30 2027 H 190.024 -3.65725 3.3535 0
M  V30 2028 N 189.197 -1.51736 -0.425897 0
M  V30 2029 C 190.445 -1.64644 -1.17204 0
M  V30 2030 C 190.766 -0.370486 -1.91448 0
M  V30 2031 O 190.036 0.614088 -1.86026 0
M  V30 2032 H 188.616 -0.606819 -0.435638 0
M  V30 2033 H 191.278 -1.88713 -0.487177 0
M  V30 2034 H 190.374 -2.47958 -1.89534 0
M  V30 2035 N 190.675 0.682077 -1.42076 0
M  V30 2036 C 191.905 1.46844 -1.45329 0
M  V30 2037 C 192.313 1.89102 -0.0609328 0
M  V30 2038 O 191.656 1.58238 0.933082 0
M  V30 2039 C 191.718 2.75375 -2.31104 0
M  V30 2040 C 191.382 2.55238 -3.79081 0
M  V30 2041 C 192.379 2.20309 -4.70914 0
M  V30 2042 C 190.064 2.70459 -4.2327 0
M  V30 2043 C 192.058 2.00859 -6.04925 0
M  V30 2044 C 189.745 2.50624 -5.57343 0
M  V30 2045 C 190.743 2.15876 -6.47986 0
M  V30 2046 O 190.431 1.96227 -7.79583 0
M  V30 2047 H 190.163 0.4586 -0.496651 0
M  V30 2048 H 192.717 0.846131 -1.87162 0
M  V30 2049 H 190.947 3.40061 -1.84107 0
M  V30 2050 H 192.636 3.37231 -2.25898 0
M  V30 2051 H 193.402 2.08153 -4.38061 0
M  V30 2052 H 189.281 2.96485 -3.53012 0
M  V30 2053 H 192.825 1.7366 -6.75639 0
M  V30 2054 H 188.722 2.62375 -5.89771 0
M  V30 2055 H 189.49 2.10883 -7.90867 0
M  V30 2056 N 192.153 1.28127 0.917671 0
M  V30 2057 C 193.1 1.11717 2.0196 0
M  V30 2058 C 194.07 0.0153929 1.66093 0
M  V30 2059 O 195.255 0.179596 1.89953 0
M  V30 2060 C 192.395 0.780927 3.36148 0
M  V30 2061 C 191.508 1.96135 3.84909 0
M  V30 2062 C 190.643 1.56609 5.0759 0
M  V30 2063 C 189.682 2.71339 5.48673 0
M  V30 2064 N 188.819 2.32332 6.62545 0
M  V30 2065 H 193.659 2.06003 2.15329 0
M  V30 2066 H 191.196 1.02535 1.05475 0
M  V30 2067 H 193.154 0.56675 4.13333 0
M  V30 2068 H 191.784 -0.124998 3.22558 0
M  V30 2069 H 190.836 2.28777 3.03916 0
M  V30 2070 H 192.148 2.82165 4.1132 0
M  V30 2071 H 191.302 1.31374 5.92305 0
M  V30 2072 H 190.041 0.677014 4.82978 0
M  V30 2073 H 189.046 2.97276 4.62501 0
M  V30 2074 H 190.271 3.60882 5.75274 0
M  V30 2075 H 188.217 1.45889 6.39572 0
M  V30 2076 H 188.134 3.11899 6.88662 0
M  V30 2077 H 189.402 2.10371 7.50576 0
M  V30 2078 N 193.631 -1.12557 1.10312 0
M  V30 2079 C 194.878 -1.84038 0.844759 0
M  V30 2080 C 195.206 -1.84026 -0.629668 0
M  V30 2081 O 194.461 -1.28026 -1.48013 0
M  V30 2082 C 194.76 -3.31462 1.33669 0
M  V30 2083 C 194.426 -3.51647 2.82232 0
M  V30 2084 C 193.088 -3.56864 3.22802 0
M  V30 2085 C 195.44 -3.58867 3.77974 0
M  V30 2086 C 192.768 -3.66844 4.57867 0
M  V30 2087 C 195.12 -3.70375 5.1284 0
M  V30 2088 C 193.784 -3.73848 5.52986 0
M  V30 2089 H 193.054 -0.673444 0.309119 0
M  V30 2090 H 195.701 -1.32824 1.37949 0
M  V30 2091 H 194.006 -3.85091 0.721949 0
M  V30 2092 H 195.703 -3.85236 1.11329 0
M  V30 2093 H 192.293 -3.48249 2.49842 0
M  V30 2094 H 196.477 -3.54107 3.47738 0
M  V30 2095 H 191.733 -3.67804 4.88396 0
M  V30 2096 H 195.907 -3.74904 5.86873 0
M  V30 2097 H 193.534 -3.81333 6.57639 0
M  V30 2098 N 195.109 -0.891671 -1.2995 0
M  V30 2099 C 196.059 -0.334811 -2.25528 0
M  V30 2100 C 197.043 0.540553 -1.51548 0
M  V30 2101 O 198.235 0.383882 -1.72787 0
M  V30 2102 C 195.364 0.44374 -3.4042 0
M  V30 2103 C 194.45 -0.44609 -4.21747 0
M  V30 2104 N 194.841 -1.54963 -4.81477 0
M  V30 2105 C 193.139 -0.242415 -4.45341 0
M  V30 2106 C 193.84 -2.10015 -5.42465 0
M  V30 2107 N 192.816 -1.39423 -5.25416 0
M  V30 2108 H 196.618 -1.17792 -2.69262 0
M  V30 2109 H 194.132 -0.741822 -1.44467 0
M  V30 2110 H 196.129 0.859362 -4.07947 0
M  V30 2111 H 194.789 1.28421 -2.98225 0
M  V30 2112 H 195.8 -1.93244 -4.80497 0
M  V30 2113 H 192.477 0.560342 -4.13723 0
M  V30 2114 H 193.867 -3.02724 -5.9984 0
M  V30 2115 N 196.587 1.43421 -0.653314 0
M  V30 2116 C 197.519 2.29071 0.0769134 0
M  V30 2117 C 198.532 1.42513 0.787017 0
M  V30 2118 O 199.721 1.66449 0.644757 0
M  V30 2119 C 196.821 3.19436 1.13199 0
M  V30 2120 C 195.994 4.34533 0.500006 0
M  V30 2121 C 195.053 5.05771 1.45198 0
M  V30 2122 O 194.079 5.61037 0.960538 0
M  V30 2123 N 195.281 5.0928 2.78594 0
M  V30 2124 H 198.046 2.92382 -0.658235 0
M  V30 2125 H 195.607 1.54112 -0.496104 0
M  V30 2126 H 197.599 3.63958 1.76964 0
M  V30 2127 H 196.169 2.57724 1.7691 0
M  V30 2128 H 195.389 3.92925 -0.316738 0
M  V30 2129 H 196.677 5.08766 0.0588345 0
M  V30 2130 H 196.075 4.65751 3.2108 0
M  V30 2131 H 194.632 5.57519 3.37662 0
M  V30 2132 N 198.065 0.39524 1.52563 0
M  V30 2133 C 199.015 -0.4541 2.23432 0
M  V30 2134 C 199.999 -1.02482 1.24042 0
M  V30 2135 O 201.191 -0.949938 1.49349 0
M  V30 2136 C 198.32 -1.57769 3.049 0
M  V30 2137 C 197.406 -1.01842 4.1169 0
M  V30 2138 N 197.797 -0.184613 5.05463 0
M  V30 2139 C 196.095 -1.29033 4.26927 0
M  V30 2140 C 196.796 0.125013 5.81566 0
M  V30 2141 N 195.772 -0.480498 5.41472 0
M  V30 2142 H 199.574 0.189413 2.93289 0
M  V30 2143 H 197.088 0.204877 1.61102 0
M  V30 2144 H 199.085 -2.19862 3.54212 0
M  V30 2145 H 197.745 -2.22397 2.36579 0
M  V30 2146 H 198.756 0.178602 5.17592 0
M  V30 2147 H 195.433 -1.93721 3.69836 0
M  V30 2148 H 196.823 0.800962 6.67109 0
M  V30 2149 N 199.544 -1.57102 0.125237 0
M  V30 2150 C 200.784 -1.97294 -0.534259 0
M  V30 2151 C 201.148 -1.0074 -1.63449 0
M  V30 2152 O 202.349 -1.29893 -2.35332 0
M  V30 2153 C 200.62 -3.41705 -1.04748 0
M  V30 2154 S 202.179 -4.03913 -1.71463 0
M  V30 2155 H 198.997 -0.689517 -0.173458 0
M  V30 2156 H 201.599 -1.94349 0.211797 0
M  V30 2157 H 200.303 -4.09723 -0.235649 0
M  V30 2158 H 199.834 -3.48315 -1.82867 0
M  V30 2159 H 201.849 -3.95182 -3.00077 0
M  V30 2160 N 201.022 0.148545 -1.56898 0
M  V30 2161 C 202.247 0.880385 -1.87787 0
M  V30 2162 C 202.672 1.74018 -0.714093 0
M  V30 2163 O 202.03 1.78153 0.336343 0
M  V30 2164 C 202.078 1.71422 -3.17249 0
M  V30 2165 O 201.182 2.8183 -3.01074 0
M  V30 2166 H 200.523 0.245301 -0.617028 0
M  V30 2167 H 203.053 0.139826 -2.04122 0
M  V30 2168 H 203.063 2.10954 -3.49231 0
M  V30 2169 H 201.738 1.08284 -4.01556 0
M  V30 2170 H 200.315 2.45715 -2.80497 0
M  V30 2171 N 202.5 1.5196 0.417844 0
M  V30 2172 C 203.725 1.69717 1.1921 0
M  V30 2173 C 204.15 0.402148 1.83751 0
M  V30 2174 O 203.508 -0.639593 1.69643 0
M  V30 2175 C 203.556 2.82794 2.2374 0
M  V30 2176 O 202.66 2.47756 3.29683 0
M  V30 2177 H 202.001 0.565263 0.348387 0
M  V30 2178 H 204.531 1.98621 0.490985 0
M  V30 2179 H 204.541 3.07452 2.68212 0
M  V30 2180 H 203.216 3.76756 1.76146 0
M  V30 2181 H 201.793 2.33739 2.90552 0
M  V30 2182 N 203.978 -0.674533 1.42435 0
M  V30 2183 C 204.925 -1.78807 1.45934 0
M  V30 2184 C 205.895 -1.63157 0.311271 0
M  V30 2185 O 207.08 -1.83707 0.515383 0
M  V30 2186 C 204.22 -3.16839 1.36773 0
M  V30 2187 C 203.333 -3.43774 2.61617 0
M  V30 2188 C 202.468 -4.71536 2.44597 0
M  V30 2189 C 201.507 -4.91505 3.64814 0
M  V30 2190 N 200.644 -6.10508 3.46734 0
M  V30 2191 H 205.484 -1.75151 2.41093 0
M  V30 2192 H 203.021 -0.85504 1.19697 0
M  V30 2193 H 204.979 -3.96606 1.29459 0
M  V30 2194 H 203.609 -3.19619 0.452089 0
M  V30 2195 H 202.661 -2.58259 2.79297 0
M  V30 2196 H 203.973 -3.54423 3.50978 0
M  V30 2197 H 203.127 -5.59393 2.3487 0
M  V30 2198 H 201.866 -4.6317 1.52726 0
M  V30 2199 H 200.871 -4.0209 3.74972 0
M  V30 2200 H 202.096 -5.01716 4.57665 0
M  V30 2201 H 200.042 -6.03315 2.5758 0
M  V30 2202 H 199.959 -6.2202 4.29682 0
M  V30 2203 H 201.227 -7.01044 3.40819 0
M  V30 2204 N 205.456 -1.28612 -0.910864 0
M  V30 2205 C 206.702 -1.16106 -1.66274 0
M  V30 2206 C 207.035 0.289113 -1.92036 0
M  V30 2207 O 206.31 1.21 -1.52281 0
M  V30 2208 C 206.593 -1.96309 -3.01885 0
M  V30 2209 C 206.446 -3.49405 -2.8326 0
M  V30 2210 C 207.765 -1.78076 -4.02463 0
M  V30 2211 H 204.884 -0.423152 -0.603417 0
M  V30 2212 H 207.526 -1.57961 -1.05586 0
M  V30 2213 H 205.676 -1.60742 -3.53687 0
M  V30 2214 H 207.348 -3.94894 -2.38446 0
M  V30 2215 H 205.591 -3.74893 -2.18261 0
M  V30 2216 H 206.262 -4.00784 -3.79574 0
M  V30 2217 H 208.738 -2.0912 -3.59733 0
M  V30 2218 H 207.614 -2.36561 -4.95308 0
M  V30 2219 H 207.875 -0.733008 -4.35981 0
M  V30 2220 N 206.934 1.1197 -1.10907 0
M  V30 2221 C 208.345 1.65114 -0.871446 0
M  V30 2222 C 208.696 1.86885 0.597353 0
M  V30 2223 O 207.821 1.59896 1.45816 0
M  V30 2224 C 208.416 2.99944 -1.5754 0
M  V30 2225 C 206.975 3.50018 -1.38435 0
M  V30 2226 C 206.122 2.24941 -1.62164 0
M  V30 2227 H 209.073 0.956851 -1.2661 0
M  V30 2228 H 209.094 3.66651 -1.01721 0
M  V30 2229 H 208.606 2.84067 -2.64438 0
M  V30 2230 H 206.707 3.71071 -0.337214 0
M  V30 2231 H 206.82 4.29165 -2.12965 0
M  V30 2232 H 205.184 2.3229 -1.04467 0
M  V30 2233 H 205.967 2.11612 -2.70324 0
M  V30 2234 N 208.412 0.89855 1.29475 0
M  V30 2235 C 209.64 0.539261 1.99749 0
M  V30 2236 C 210.055 -0.875716 1.67262 0
M  V30 2237 O 209.412 -1.57786 0.917049 0
M  V30 2238 C 209.463 0.72061 3.54245 0
M  V30 2239 O 209.184 2.07989 3.8558 0
M  V30 2240 C 210.685 0.366118 4.41786 0
M  V30 2241 H 207.905 0.207047 0.638258 0
M  V30 2242 H 210.449 1.20758 1.65039 0
M  V30 2243 H 208.604 0.0994862 3.87272 0
M  V30 2244 H 209.018 2.10841 4.80257 0
M  V30 2245 H 210.492 0.543848 5.49314 0
M  V30 2246 H 210.969 -0.696763 4.33638 0
M  V30 2247 H 211.575 0.964135 4.14228 0
M  V30 2248 N 209.89 -1.43072 0.660911 0
M  V30 2249 C 211.136 -2.0202 0.177708 0
M  V30 2250 C 211.469 -1.52066 -1.20787 0
M  V30 2251 O 210.744 -0.716987 -1.80802 0
M  V30 2252 C 211.027 -3.59561 0.197019 0
M  V30 2253 C 210.88 -4.19727 1.61706 0
M  V30 2254 C 212.199 -4.37664 -0.462396 0
M  V30 2255 H 209.318 -0.734034 0.0660494 0
M  V30 2256 H 211.96 -1.70272 0.843058 0
M  V30 2257 H 210.11 -3.86739 -0.369527 0
M  V30 2258 H 211.782 -4.03553 2.23479 0
M  V30 2259 H 210.025 -3.76084 2.16201 0
M  V30 2260 H 210.696 -5.28834 1.58237 0
M  V30 2261 H 213.172 -4.16095 0.0197215 0
M  V30 2262 H 212.048 -5.47305 -0.418188 0
M  V30 2263 H 212.309 -4.14493 -1.53778 0
M  V30 2264 N 211.368 -0.403325 -1.52352 0
M  V30 2265 C 212.608 0.173946 -2.03659 0
M  V30 2266 C 212.972 1.42869 -1.28267 0
M  V30 2267 O 214.173 2.08403 -1.69769 0
M  V30 2268 C 212.444 0.421478 -3.54906 0
M  V30 2269 S 214.003 0.967027 -4.28012 0
M  V30 2270 H 210.821 0.0477461 -0.709395 0
M  V30 2271 H 213.423 -0.554906 -1.87459 0
M  V30 2272 H 212.127 -0.498616 -4.0736 0
M  V30 2273 H 211.658 1.17837 -3.75337 0
M  V30 2274 H 213.673 2.24812 -4.4235 0
M  V30 2275 N 212.846 1.57033 -0.133567 0
M  V30 2276 C 214.092 1.95976 0.521649 0
M  V30 2277 C 214.425 1.01779 1.65393 0
M  V30 2278 O 213.7 0.0576581 1.94415 0
M  V30 2279 C 213.983 3.44738 1.04057 0
M  V30 2280 C 213.836 4.49711 -0.0892897 0
M  V30 2281 C 215.155 3.95682 1.92675 0
M  V30 2282 H 212.274 0.712579 0.188149 0
M  V30 2283 H 214.916 1.88813 -0.212076 0
M  V30 2284 H 213.066 3.50973 1.66583 0
M  V30 2285 H 214.738 4.55565 -0.725152 0
M  V30 2286 H 212.981 4.27261 -0.750378 0
M  V30 2287 H 213.652 5.51099 0.315284 0
M  V30 2288 H 216.128 3.91841 1.39998 0
M  V30 2289 H 215.004 5.00262 2.25897 0
M  V30 2290 H 215.265 3.37239 2.85872 0
M  V30 2291 N 214.325 -0.140222 1.56975 0
M  V30 2292 C 215.602 -0.880769 1.74648 0
M  V30 2293 C 215.982 -1.99036 0.703404 0
M  V30 2294 O 215.33 -2.26821 -0.27648 0
M  V30 2295 C 215.54 -1.417 3.18939 0
M  V30 2296 C 216.888 -1.87774 3.80823 0
M  V30 2297 O 217.912 -1.51427 3.2241 0
M  V30 2298 O 216.771 -2.54827 4.83452 0
M  V30 2299 H 213.865 -0.416713 0.714338 0
M  V30 2300 H 216.411 -0.125618 1.69234 0
M  V30 2301 H 215.183 -0.619902 3.86359 0
M  V30 2302 H 214.806 -2.23546 3.28805 0
M  V30 2303 N 215.803 -1.52179 -0.40978 0
M  V30 2304 C 216.736 -1.70196 -1.52015 0
M  V30 2305 C 217.714 -0.549542 -1.53032 0
M  V30 2306 O 218.898 -0.776815 -1.71749 0
M  V30 2307 C 216.025 -1.74069 -2.90547 0
M  V30 2308 C 215.071 -2.95601 -3.07445 0
M  V30 2309 S 215.904 -4.55956 -2.80827 0
M  V30 2310 C 217.06 -4.62614 -4.21591 0
M  V30 2311 H 217.293 -2.64109 -1.36504 0
M  V30 2312 H 214.826 -1.4221 -0.601312 0
M  V30 2313 H 216.784 -1.76985 -3.70387 0
M  V30 2314 H 215.445 -0.812835 -3.034 0
M  V30 2315 H 214.638 -2.94791 -4.08796 0
M  V30 2316 H 214.24 -2.90569 -2.35469 0
M  V30 2317 H 216.532 -4.39951 -5.15218 0
M  V30 2318 H 217.475 -5.64548 -4.27424 0
M  V30 2319 H 217.883 -3.91654 -4.06531 0
M  V30 2320 N 217.281 0.66697 -1.42791 0
M  V30 2321 C 218.506 1.46004 -1.47301 0
M  V30 2322 C 218.931 1.87894 -0.0880317 0
M  V30 2323 O 218.289 1.56502 0.915253 0
M  V30 2324 C 218.337 2.68031 -2.41229 0
M  V30 2325 O 217.441 3.6659 -1.88906 0
M  V30 2326 H 216.782 0.43832 -0.49877 0
M  V30 2327 H 219.312 0.817391 -1.87563 0
M  V30 2328 H 219.322 3.1601 -2.58073 0
M  V30 2329 H 217.997 2.36883 -3.41847 0
M  V30 2330 H 216.574 3.25661 -1.81656 0
M  V30 2331 N 218.759 1.29093 0.90403 0
M  V30 2332 C 219.987 1.19689 1.68766 0
M  V30 2333 C 220.402 -0.243113 1.87228 0
M  V30 2334 O 219.759 -1.16326 1.40621 0
M  V30 2335 C 219.81 1.90144 3.07453 0
M  V30 2336 O 219.531 3.2852 2.89838 0
M  V30 2337 C 221.032 1.87162 4.01852 0
M  V30 2338 H 218.252 0.415035 0.527244 0
M  V30 2339 H 220.796 1.7039 1.13082 0
M  V30 2340 H 218.951 1.43289 3.59926 0
M  V30 2341 H 219.365 3.63944 3.77684 0
M  V30 2342 H 220.839 2.41032 4.96596 0
M  V30 2343 H 221.316 0.84617 4.30972 0
M  V30 2344 H 221.922 2.33741 3.5531 0
M  V30 2345 N 220.237 -1.11381 1.11499 0
M  V30 2346 C 221.185 -2.19522 0.768956 0
M  V30 2347 C 222.179 -1.67693 -0.239857 0
M  V30 2348 O 223.385 -1.79727 -0.0990755 0
M  V30 2349 H 219.76 -0.715711 0.230786 0
M  V30 2350 H 221.731 -2.45954 1.68964 0
M  V30 2351 C 220.48 -3.46945 0.229073 0
M  V30 2352 H 219.803 -3.8718 0.996596 0
M  V30 2353 H 221.243 -4.23993 0.0251441 0
M  V30 2354 C 219.702 -3.2042 -1.04079 0
M  V30 2355 O 220.232 -3.41178 -2.12038 0
M  V30 2356 N 218.438 -2.74151 -0.963823 0
M  V30 2357 H 217.985 -2.57459 -0.0851722 0
M  V30 2358 H 217.943 -2.56781 -1.81414 0
M  V30 2359 N 221.715 -0.905404 -1.28997 0
M  V30 2360 C 223.131 -0.60233 -1.47798 0
M  V30 2361 C 223.331 0.854645 -1.82478 0
M  V30 2362 O 222.387 1.63439 -1.92468 0
M  V30 2363 C 223.7 -1.53306 -2.58685 0
M  V30 2364 C 225.248 -1.53887 -2.72558 0
M  V30 2365 C 225.723 -2.45602 -3.86579 0
M  V30 2366 N 227.214 -2.43681 -3.93921 0
M  V30 2367 C 227.949 -3.11347 -4.81509 0
M  V30 2368 N 227.445 -3.88313 -5.73746 0
M  V30 2369 N 229.238 -3.00476 -4.75048 0
M  V30 2370 H 221.389 -1.84765 -1.04764 0
M  V30 2371 H 223.652 -0.792025 -0.520961 0
M  V30 2372 H 223.358 -2.57141 -2.39941 0
M  V30 2373 H 223.232 -1.25787 -3.55609 0
M  V30 2374 H 225.619 -0.507941 -2.90696 0
M  V30 2375 H 225.7 -1.85447 -1.76191 0
M  V30 2376 H 225.344 -3.48792 -3.69197 0
M  V30 2377 H 225.274 -2.11349 -4.82327 0
M  V30 2378 H 227.765 -1.87767 -3.27951 0
M  V30 2379 H 228.078 -4.36985 -6.37389 0
M  V30 2380 H 226.423 -3.92419 -5.73614 0
M  V30 2381 H 229.614 -2.39858 -4.01977 0
M  V30 2382 H 229.787 -3.53485 -5.43095 0
M  V30 2383 N 223.193 1.4272 -0.668489 0
M  V30 2384 C 224.125 2.2914 0.052613 0
M  V30 2385 C 225.138 1.43339 0.771857 0
M  V30 2386 O 226.327 1.67123 0.627067 0
M  V30 2387 C 223.427 3.20618 1.09804 0
M  V30 2388 C 222.6 4.35039 0.45389 0
M  V30 2389 C 221.659 5.07282 1.39825 0
M  V30 2390 O 220.685 5.62024 0.900978 0
M  V30 2391 N 221.887 5.12206 2.73176 0
M  V30 2392 H 224.652 2.91668 -0.689209 0
M  V30 2393 H 222.213 1.53577 -0.512422 0
M  V30 2394 H 224.205 3.65815 1.73094 0
M  V30 2395 H 222.775 2.59585 1.74167 0
M  V30 2396 H 221.995 3.92567 -0.358396 0
M  V30 2397 H 223.283 5.088 0.00486972 0
M  V30 2398 H 222.681 4.6913 3.16122 0
M  V30 2399 H 221.238 5.61069 3.31729 0
M  V30 2400 N 224.671 0.411399 1.52136 0
M  V30 2401 C 225.603 -0.448386 2.24771 0
M  V30 2402 C 226.616 -1.00828 1.27818 0
M  V30 2403 O 227.805 -0.906841 1.53749 0
M  V30 2404 C 224.905 -1.63636 2.96777 0
M  V30 2405 C 224.078 -1.19995 4.20618 0
M  V30 2406 C 223.137 -2.25509 4.75428 0
M  V30 2407 O 222.163 -1.86007 5.3795 0
M  V30 2408 N 223.365 -3.577 4.57199 0
M  V30 2409 H 226.13 0.174025 2.99194 0
M  V30 2410 H 223.691 0.238897 1.60128 0
M  V30 2411 H 225.683 -2.33793 3.30338 0
M  V30 2412 H 224.253 -2.16465 2.25526 0
M  V30 2413 H 223.473 -0.326421 3.92846 0
M  V30 2414 H 224.761 -0.885365 5.01038 0
M  V30 2415 H 224.159 -3.92543 4.07341 0
M  V30 2416 H 222.716 -4.23827 4.95191 0
M  V30 2417 N 226.149 -1.5696 0.141893 0
M  V30 2418 C 227.396 -1.9596 -0.510492 0
M  V30 2419 C 227.724 -1.02648 -1.65208 0
M  V30 2420 O 226.979 -0.0546947 -1.95624 0
M  V30 2421 C 227.278 -3.41242 -1.06249 0
M  V30 2422 C 226.944 -4.50882 -0.0398791 0
M  V30 2423 C 225.606 -4.80595 0.241247 0
M  V30 2424 C 227.958 -5.17058 0.65578 0
M  V30 2425 C 225.286 -5.73792 1.22393 0
M  V30 2426 C 227.638 -6.11313 1.62724 0
M  V30 2427 C 226.302 -6.39407 1.91612 0
M  V30 2428 H 225.572 -0.717068 -0.186802 0
M  V30 2429 H 228.219 -1.90142 0.227643 0
M  V30 2430 H 226.524 -3.43866 -1.87785 0
M  V30 2431 H 228.221 -3.68742 -1.57576 0
M  V30 2432 H 224.811 -4.27754 -0.269174 0
M  V30 2433 H 228.995 -4.94239 0.451779 0
M  V30 2434 H 224.251 -5.93853 1.45424 0
M  V30 2435 H 228.425 -6.61668 2.17183 0
M  V30 2436 H 226.052 -7.11427 2.6791 0
M  V30 2437 N 227.627 0.131896 -1.57047 0
M  V30 2438 C 228.857 0.855219 -1.88068 0
M  V30 2439 C 229.265 1.74557 -0.729817 0
M  V30 2440 O 228.608 1.81083 0.308962 0
M  V30 2441 C 228.67 1.75119 -3.13964 0
M  V30 2442 C 228.334 1.03646 -4.45091 0
M  V30 2443 C 229.331 0.383276 -5.18485 0
M  V30 2444 C 227.016 1.02148 -4.91804 0
M  V30 2445 C 229.01 -0.275347 -6.36805 0
M  V30 2446 C 226.697 0.359047 -6.10044 0
M  V30 2447 C 227.695 -0.288222 -6.82392 0
M  V30 2448 O 227.383 -0.94011 -7.98384 0
M  V30 2449 H 227.115 0.251864 -0.627328 0
M  V30 2450 H 229.669 0.124782 -2.05021 0
M  V30 2451 H 227.899 2.52295 -2.9306 0
M  V30 2452 H 229.588 2.3478 -3.31109 0
M  V30 2453 H 230.354 0.386562 -4.83457 0
M  V30 2454 H 226.233 1.5147 -4.35405 0
M  V30 2455 H 229.777 -0.781148 -6.93213 0
M  V30 2456 H 225.674 0.35348 -6.44531 0
M  V30 2457 H 226.442 -0.84329 -8.14144 0
M  V30 2458 N 229.106 1.52395 0.401703 0
M  V30 2459 C 230.056 1.72649 1.48917 0
M  V30 2460 C 231.04 0.580436 1.50066 0
M  V30 2461 O 232.232 0.83779 1.55917 0
M  V30 2462 C 229.361 1.88729 2.86769 0
M  V30 2463 C 228.447 3.09228 2.90239 0
M  V30 2464 N 228.838 4.31805 2.63396 0
M  V30 2465 C 227.136 3.09214 3.21408 0
M  V30 2466 C 227.837 5.13326 2.73625 0
M  V30 2467 N 226.813 4.48735 3.06819 0
M  V30 2468 H 230.615 2.65058 1.26971 0
M  V30 2469 H 228.129 1.50528 0.609504 0
M  V30 2470 H 230.126 2.01358 3.65049 0
M  V30 2471 H 228.786 0.975252 3.09708 0
M  V30 2472 H 229.797 4.60154 2.37653 0
M  V30 2473 H 226.474 2.27774 3.49893 0
M  V30 2474 H 227.864 6.21003 2.56524 0
M  V30 2475 N 230.584 -0.659388 1.43143 0
M  V30 2476 C 231.809 -1.45221 1.48073 0
M  V30 2477 C 232.234 -1.87845 0.097995 0
M  V30 2478 O 231.592 -1.56985 -0.90694 0
M  V30 2479 C 231.64 -2.66748 2.42647 0
M  V30 2480 O 230.744 -3.65583 1.90848 0
M  V30 2481 H 230.085 -0.435669 0.501088 0
M  V30 2482 H 232.615 -0.807432 1.87994 0
M  V30 2483 H 232.625 -3.14637 2.59745 0
M  V30 2484 H 231.3 -2.35067 3.43098 0
M  V30 2485 H 229.877 -3.24693 1.83381 0
M  V30 2486 N 232.062 -1.29571 -0.897171 0
M  V30 2487 C 233.308 -1.17863 -1.65034 0
M  V30 2488 C 233.641 0.268729 -1.92332 0
M  V30 2489 O 232.916 1.19378 -1.53555 0
M  V30 2490 C 233.199 -1.995 -2.99786 0
M  V30 2491 C 233.052 -3.5239 -2.79538 0
M  V30 2492 C 234.371 -1.82335 -4.00552 0
M  V30 2493 H 231.49 -0.429528 -0.598895 0
M  V30 2494 H 234.132 -1.59072 -1.03905 0
M  V30 2495 H 232.282 -1.64485 -3.51962 0
M  V30 2496 H 233.954 -3.97401 -2.34244 0
M  V30 2497 H 232.197 -3.77187 -2.14273 0
M  V30 2498 H 232.868 -4.04787 -3.75302 0
M  V30 2499 H 235.344 -2.12924 -3.57495 0
M  V30 2500 H 234.22 -2.41801 -4.92771 0
M  V30 2501 H 234.481 -0.779209 -4.35179 0
M  V30 2502 N 233.54 1.10788 -1.12088 0
M  V30 2503 C 234.472 2.16816 -0.743213 0
M  V30 2504 C 235.485 1.6119 0.228412 0
M  V30 2505 O 236.674 1.78497 0.0102931 0
M  V30 2506 C 233.774 3.38809 -0.0787313 0
M  V30 2507 C 232.947 4.23885 -1.0789 0
M  V30 2508 C 232.006 5.24334 -0.442713 0
M  V30 2509 O 231.032 5.58497 -1.09864 0
M  V30 2510 N 232.234 5.75079 0.791457 0
M  V30 2511 H 234.999 2.49825 -1.65552 0
M  V30 2512 H 232.56 1.26373 -1.012 0
M  V30 2513 H 234.552 4.03107 0.358766 0
M  V30 2514 H 233.122 3.03805 0.736275 0
M  V30 2515 H 232.342 3.55939 -1.69414 0
M  V30 2516 H 233.63 4.77562 -1.75533 0
M  V30 2517 H 233.028 5.49517 1.3434 0
M  V30 2518 H 231.585 6.4118 1.17183 0
M  V30 2519 N 235.018 0.912232 1.28515 0
M  V30 2520 C 236.295 0.463597 1.90027 0
M  V30 2521 C 236.675 -1.05753 1.82701 0
M  V30 2522 O 236.023 -1.90492 1.26194 0
M  V30 2523 C 236.233 0.992253 3.34597 0
M  V30 2524 C 237.581 1.04344 4.11579 0
M  V30 2525 O 238.605 0.94079 3.43551 0
M  V30 2526 O 237.464 1.1995 5.33174 0
M  V30 2527 H 234.558 0.146666 0.813891 0
M  V30 2528 H 237.104 1.00292 1.36893 0
M  V30 2529 H 235.876 2.03623 3.34146 0
M  V30 2530 H 235.499 0.433672 3.95228 0
M  V30 2531 N 236.496 -1.42363 0.676048 0
M  V30 2532 C 237.426 -2.33497 0.0124832 0
M  V30 2533 C 238.407 -1.50748 -0.787981 0
M  V30 2534 O 239.592 -1.79346 -0.744884 0
M  V30 2535 C 236.722 -3.34377 -0.938582 0
M  V30 2536 C 235.676 -4.27289 -0.246622 0
M  V30 2537 C 235.002 -5.18386 -1.31071 0
M  V30 2538 C 236.302 -5.14916 0.875125 0
M  V30 2539 H 237.996 -2.89233 0.773593 0
M  V30 2540 H 235.542 -1.39073 0.37346 0
M  V30 2541 H 237.495 -3.97044 -1.41188 0
M  V30 2542 H 236.219 -2.76947 -1.73113 0
M  V30 2543 H 234.878 -3.66018 0.206456 0
M  V30 2544 H 234.526 -4.57282 -2.09528 0
M  V30 2545 H 234.226 -5.81378 -0.852839 0
M  V30 2546 H 235.75 -5.83929 -1.78492 0
M  V30 2547 H 237.164 -5.71262 0.482983 0
M  V30 2548 H 235.561 -5.86747 1.25887 0
M  V30 2549 H 236.631 -4.53242 1.72335 0
M  V30 2550 N 237.974 -0.419461 -1.51915 0
M  V30 2551 C 239.199 0.154572 -2.06823 0
M  V30 2552 C 239.624 1.3722 -1.28656 0
M  V30 2553 O 238.982 1.78461 -0.319583 0
M  V30 2554 C 239.03 0.473172 -3.57482 0
M  V30 2555 O 238.134 1.56255 -3.81652 0
M  V30 2556 H 237.475 0.0096924 -0.663929 0
M  V30 2557 H 240.005 -0.595642 -1.95738 0
M  V30 2558 H 240.015 0.728825 -4.01438 0
M  V30 2559 H 238.69 -0.416873 -4.13805 0
M  V30 2560 H 237.267 1.29825 -3.49571 0
M  V30 2561 N 239.452 1.56882 -0.150215 0
M  V30 2562 C 240.7 1.9584 0.499105 0
M  V30 2563 C 241.021 1.03623 1.65188 0
M  V30 2564 O 240.291 0.0984084 1.95653 0
M  V30 2565 H 238.871 0.723119 0.187373 0
M  V30 2566 H 241.533 1.9358 -0.226466 0
M  V30 2567 H 240.629 2.99638 0.873122 0
M  V30 2568 N 240.93 -0.123565 1.57115 0
M  V30 2569 C 242.178 -0.83051 1.84247 0
M  V30 2570 C 242.499 -1.80629 0.73471 0
M  V30 2571 O 241.769 -1.94403 -0.241688 0
M  V30 2572 H 240.349 -0.309694 0.679778 0
M  V30 2573 H 243.011 -0.111976 1.94578 0
M  V30 2574 H 242.107 -1.37852 2.80006 0
M  V30 2575 N 242.408 -1.52605 -0.393616 0
M  V30 2576 C 243.633 -1.71592 -1.16495 0
M  V30 2577 C 244.058 -0.43133 -1.83088 0
M  V30 2578 O 243.416 0.612523 -1.7064 0
M  V30 2579 C 243.464 -2.86318 -2.19213 0
M  V30 2580 O 242.568 -2.52969 -3.257 0
M  V30 2581 H 241.909 -0.570734 -0.33935 0
M  V30 2582 H 244.439 -1.99377 -0.459324 0
M  V30 2583 H 244.449 -3.1168 -2.63286 0
M  V30 2584 H 243.124 -3.79511 -1.7013 0
M  V30 2585 H 241.701 -2.38332 -2.86797 0
M  V30 2586 N 243.887 0.651787 -1.4349 0
M  V30 2587 C 245.303 0.96762 -1.26922 0
M  V30 2588 C 245.503 2.00602 -0.189982 0
M  V30 2589 O 244.559 2.48793 0.431107 0
M  V30 2590 C 245.872 1.45052 -2.63401 0
M  V30 2591 C 247.42 1.5671 -2.70945 0
M  V30 2592 C 247.895 2.0839 -4.07845 0
M  V30 2593 N 249.386 2.1569 -4.09917 0
M  V30 2594 C 250.121 2.56804 -5.12679 0
M  V30 2595 N 249.617 2.97203 -6.25813 0
M  V30 2596 N 251.41 2.56756 -5.00033 0
M  V30 2597 H 243.561 -0.0353158 -2.12371 0
M  V30 2598 H 245.824 0.0467858 -0.946845 0
M  V30 2599 H 245.53 0.761926 -3.43348 0
M  V30 2600 H 245.404 2.42529 -2.88894 0
M  V30 2601 H 247.791 2.2467 -1.9133 0
M  V30 2602 H 247.872 0.57662 -2.49216 0
M  V30 2603 H 247.516 1.41031 -4.87927 0
M  V30 2604 H 247.446 3.08271 -4.26938 0
M  V30 2605 H 249.937 1.87237 -3.28254 0
M  V30 2606 H 250.25 3.27328 -7.00055 0
M  V30 2607 H 248.595 2.95004 -6.29283 0
M  V30 2608 H 251.786 2.24572 -4.10713 0
M  V30 2609 H 251.959 2.88475 -5.80247 0
M  V30 2610 N 245.365 1.30045 0.890287 0
M  V30 2611 C 246.297 1.11786 2.00091 0
M  V30 2612 C 247.31 0.0626307 1.62679 0
M  V30 2613 O 248.499 0.308112 1.75821 0
M  V30 2614 C 245.599 0.681527 3.31977 0
M  V30 2615 C 244.772 1.81735 3.97858 0
M  V30 2616 C 243.831 1.37045 5.08041 0
M  V30 2617 O 242.857 2.07677 5.29961 0
M  V30 2618 N 244.059 0.246525 5.79976 0
M  V30 2619 H 246.824 2.07441 2.16306 0
M  V30 2620 H 244.385 1.2211 1.06305 0
M  V30 2621 H 246.377 0.365675 4.03045 0
M  V30 2622 H 244.947 -0.182828 3.12065 0
M  V30 2623 H 244.167 2.30159 3.20032 0
M  V30 2624 H 245.455 2.57865 4.38615 0
M  V30 2625 H 244.853 -0.34215 5.64664 0
M  V30 2626 H 243.41 -0.00990438 6.51799 0
M  V30 2627 N 246.843 -1.10192 1.12674 0
M  V30 2628 C 247.793 -2.14754 0.765801 0
M  V30 2629 C 248.777 -1.59154 -0.236409 0
M  V30 2630 O 249.969 -1.76951 -0.0415261 0
M  V30 2631 C 247.098 -3.42563 0.224827 0
M  V30 2632 C 246.184 -4.05091 1.25548 0
M  V30 2633 N 246.575 -4.42287 2.4539 0
M  V30 2634 C 244.873 -4.32186 1.10142 0
M  V30 2635 C 245.574 -4.91441 3.11224 0
M  V30 2636 N 244.55 -4.88405 2.38666 0
M  V30 2637 H 248.352 -2.41309 1.67772 0
M  V30 2638 H 245.866 -1.27339 1.00789 0
M  V30 2639 H 247.863 -4.16868 -0.0519578 0
M  V30 2640 H 246.523 -3.17467 -0.681515 0
M  V30 2641 H 247.534 -4.33902 2.82754 0
M  V30 2642 H 244.211 -4.16735 0.252587 0
M  V30 2643 H 245.601 -5.29749 4.13298 0
M  V30 2644 N 248.321 -0.919034 -1.28029 0
M  V30 2645 C 249.231 -0.416756 -2.30869 0
M  V30 2646 C 250.247 0.498235 -1.66714 0
M  V30 2647 O 251.423 0.383144 -1.97722 0
M  V30 2648 C 248.488 0.330274 -3.45123 0
M  V30 2649 C 247.549 -0.618578 -4.2482 0
M  V30 2650 C 246.782 0.0928959 -5.33619 0
M  V30 2651 O 247.005 1.31375 -5.55065 0
M  V30 2652 O 245.939 -0.574499 -5.99152 0
M  V30 2653 H 249.765 -1.27043 -2.75851 0
M  V30 2654 H 247.35 -0.684052 -1.3282 0
M  V30 2655 H 249.232 0.751972 -4.14636 0
M  V30 2656 H 247.907 1.1597 -3.02213 0
M  V30 2657 H 246.814 -1.08978 -3.57875 0
M  V30 2658 H 248.147 -1.41497 -4.71423 0
M  V30 2659 N 249.799 1.42003 -0.683588 0
M  V30 2660 C 250.762 2.29191 -0.0198243 0
M  V30 2661 C 251.762 1.43773 0.72013 0
M  V30 2662 O 252.952 1.65061 0.556815 0
M  V30 2663 C 250.084 3.26435 0.982487 0
M  V30 2664 H 251.277 2.8938 -0.787345 0
M  V30 2665 H 248.83 1.49789 -0.446418 0
M  V30 2666 H 249.565 2.71203 1.77819 0
M  V30 2667 H 249.35 3.89449 0.455182 0
M  V30 2668 H 250.84 3.918 1.44508 0
M  V30 2669 N 251.277 0.427512 1.51691 0
M  V30 2670 C 252.688 -0.0378867 1.86662 0
M  V30 2671 C 253.039 -1.42819 1.34525 0
M  V30 2672 O 252.164 -2.05037 0.692014 0
M  V30 2673 C 252.759 -0.0755266 3.38716 0
M  V30 2674 C 251.318 -0.485309 3.73258 0
M  V30 2675 C 250.465 0.328399 2.75349 0
M  V30 2676 H 253.416 0.64379 1.45055 0
M  V30 2677 H 253.437 -0.887056 3.70016 0
M  V30 2678 H 252.949 0.936487 3.76632 0
M  V30 2679 H 251.05 -1.50329 3.40928 0
M  V30 2680 H 251.163 -0.21693 4.78609 0
M  V30 2681 H 249.527 -0.211905 2.53817 0
M  V30 2682 H 250.31 1.3391 3.16106 0
M  V30 2683 N 252.755 -1.56801 0.158532 0
M  V30 2684 C 253.98 -2.01295 -0.499516 0
M  V30 2685 C 254.405 -1.03799 -1.56867 0
M  V30 2686 O 253.763 -0.0155162 -1.81293 0
M  V30 2687 C 253.811 -3.44469 -1.06647 0
M  V30 2688 O 252.915 -3.50012 -2.18095 0
M  V30 2689 H 252.256 -0.652884 -0.12099 0
M  V30 2690 H 254.786 -2.02958 0.258661 0
M  V30 2691 H 254.796 -3.8351 -1.39227 0
M  V30 2692 H 253.471 -4.14932 -0.283581 0
M  V30 2693 H 252.048 -3.22822 -1.86656 0
M  V30 2694 N 254.233 0.115231 -1.57178 0
M  V30 2695 C 255.181 1.16014 -2.01602 0
M  V30 2696 C 256.175 1.42653 -0.913587 0
M  V30 2697 O 257.381 1.42571 -1.09879 0
M  V30 2698 H 253.756 0.391252 -0.642204 0
M  V30 2699 H 255.727 0.758998 -2.88586 0
M  V30 2700 C 254.476 2.47767 -2.4394 0
M  V30 2701 H 253.799 2.28108 -3.28339 0
M  V30 2702 H 255.239 3.19432 -2.78818 0
M  V30 2703 C 253.698 3.10617 -1.30455 0
M  V30 2704 O 254.228 3.96846 -0.622585 0
M  V30 2705 N 252.434 2.70553 -1.06064 0
M  V30 2706 H 251.981 2.00527 -1.61699 0
M  V30 2707 H 251.939 3.12934 -0.303284 0
M  V30 2708 N 255.711 1.52812 0.385517 0
M  V30 2709 C 257.127 1.4214 0.725829 0
M  V30 2710 C 257.327 0.544589 1.94001 0
M  V30 2711 O 256.383 0.0193693 2.52493 0
M  V30 2712 C 257.696 2.85042 0.957668 0
M  V30 2713 C 259.244 2.94543 1.05892 0
M  V30 2714 C 259.719 4.38464 1.32337 0
M  V30 2715 N 261.21 4.41804 1.39151 0
M  V30 2716 C 261.945 5.5025 1.61285 0
M  V30 2717 N 261.441 6.68775 1.80866 0
M  V30 2718 N 263.234 5.37798 1.63492 0
M  V30 2719 H 255.385 2.08338 -0.413383 0
M  V30 2720 H 257.648 0.940016 -0.122775 0
M  V30 2721 H 257.354 3.51431 0.137568 0
M  V30 2722 H 257.228 3.27505 1.87137 0
M  V30 2723 H 259.615 2.28321 1.86959 0
M  V30 2724 H 259.696 2.55504 0.123057 0
M  V30 2725 H 259.34 5.05254 0.517793 0
M  V30 2726 H 259.27 4.75059 2.27214 0
M  V30 2727 H 261.761 3.56377 1.25713 0
M  V30 2728 H 262.074 7.47197 1.97271 0
M  V30 2729 H 260.419 6.71797 1.78083 0
M  V30 2730 H 263.61 4.44171 1.47749 0
M  V30 2731 H 263.783 6.22382 1.80402 0
M  V30 2732 N 257.189 -0.644168 1.43834 0
M  V30 2733 C 258.6 -1.22554 1.40845 0
M  V30 2734 C 258.951 -1.9585 0.117115 0
M  V30 2735 O 258.076 -2.01734 -0.783086 0
M  V30 2736 C 258.671 -2.22907 2.55143 0
M  V30 2737 C 257.23 -2.76501 2.5539 0
M  V30 2738 C 256.377 -1.51287 2.32396 0
M  V30 2739 H 259.328 -0.43563 1.52604 0
M  V30 2740 H 259.349 -3.05259 2.2715 0
M  V30 2741 H 258.861 -1.69533 3.49114 0
M  V30 2742 H 256.962 -3.33914 1.65324 0
M  V30 2743 H 257.075 -3.23429 3.53455 0
M  V30 2744 H 255.439 -1.78957 1.81236 0
M  V30 2745 H 256.222 -0.998336 3.28463 0
M  V30 2746 N 258.668 -1.30515 -0.883378 0
M  V30 2747 C 259.598 -1.19607 -2.00541 0
M  V30 2748 C 260.579 -0.086346 -1.69881 0
M  V30 2749 O 261.764 -0.268654 -1.92333 0
M  V30 2750 C 258.894 -0.888758 -3.35736 0
M  V30 2751 C 257.848 -1.95659 -3.8066 0
M  V30 2752 C 257.174 -1.50224 -5.13164 0
M  V30 2753 C 258.474 -3.36788 -3.99213 0
M  V30 2754 H 260.168 -2.13476 -2.09925 0
M  V30 2755 H 257.714 -1.02775 -1.00863 0
M  V30 2756 H 259.667 -0.799094 -4.13754 0
M  V30 2757 H 258.391 0.0856125 -3.26488 0
M  V30 2758 H 257.05 -2.03591 -3.04871 0
M  V30 2759 H 256.698 -0.516092 -5.00345 0
M  V30 2760 H 256.398 -2.2165 -5.44192 0
M  V30 2761 H 257.922 -1.42639 -5.93706 0
M  V30 2762 H 259.336 -3.31605 -4.67665 0
M  V30 2763 H 257.733 -4.06314 -4.41621 0
M  V30 2764 H 258.803 -3.78561 -3.03017 0
M  V30 2765 N 260.146 1.09593 -1.13257 0
M  V30 2766 C 261.094 2.18271 -0.803783 0
M  V30 2767 C 262.088 1.68054 0.213148 0
M  V30 2768 O 263.294 1.79862 0.0704699 0
M  V30 2769 H 259.669 0.711949 -0.242143 0
M  V30 2770 H 261.64 2.43235 -1.72856 0
M  V30 2771 C 260.389 3.46536 -0.28424 0
M  V30 2772 H 259.712 3.85545 -1.05807 0
M  V30 2773 H 261.152 4.23899 -0.0925945 0
M  V30 2774 C 259.611 3.22036 0.989684 0
M  V30 2775 O 260.141 3.44509 2.06584 0
M  V30 2776 N 258.347 2.7565 0.920086 0
M  V30 2777 H 257.894 2.57562 0.0442019 0
M  V30 2778 H 257.852 2.59635 1.77306 0
M  V30 2779 N 261.624 0.925811 1.2754 0
M  V30 2780 C 262.534 0.428993 2.30644 0
M  V30 2781 C 263.55 -0.489387 1.66976 0
M  V30 2782 O 264.726 -0.372653 1.97922 0
M  V30 2783 C 261.791 -0.311967 3.45294 0
M  V30 2784 C 260.852 0.641098 4.24486 0
M  V30 2785 C 260.085 -0.0645955 5.33661 0
M  V30 2786 O 260.308 -1.28429 5.55754 0
M  V30 2787 O 259.242 0.606265 5.98839 0
M  V30 2788 H 263.068 1.28504 2.75173 0
M  V30 2789 H 260.653 0.691086 1.32455 0
M  V30 2790 H 262.535 -0.729972 4.15029 0
M  V30 2791 H 261.21 -1.14365 3.02824 0
M  V30 2792 H 260.117 1.10874 3.57292 0
M  V30 2793 H 261.45 1.43995 4.70666 0
M  V30 2794 N 263.102 -1.41638 0.69111 0
M  V30 2795 C 264.032 -2.3347 0.037248 0
M  V30 2796 C 265.013 -1.51575 -0.771947 0
M  V30 2797 O 266.198 -1.80126 -0.72582 0
M  V30 2798 C 263.328 -3.35354 -0.903064 0
M  V30 2799 C 262.282 -4.27526 -0.201288 0
M  V30 2800 C 261.608 -5.19747 -1.25565 0
M  V30 2801 C 262.908 -5.13959 0.929689 0
M  V30 2802 H 264.602 -2.88397 0.804227 0
M  V30 2803 H 262.148 -1.38669 0.388189 0
M  V30 2804 H 264.101 -3.98519 -1.36969 0
M  V30 2805 H 262.825 -2.78767 -1.70166 0
M  V30 2806 H 261.484 -3.65779 0.245265 0
M  V30 2807 H 261.132 -4.59479 -2.04666 0
M  V30 2808 H 260.832 -5.8225 -0.791128 0
M  V30 2809 H 262.356 -5.85789 -1.72288 0
M  V30 2810 H 263.77 -5.70718 0.543546 0
M  V30 2811 H 262.167 -5.85379 1.32103 0
M  V30 2812 H 263.237 -4.51389 1.77133 0
M  V30 2813 N 264.58 -0.43555 -1.51462 0
M  V30 2814 C 265.51 0.367376 -2.30592 0
M  V30 2815 C 266.491 1.02263 -1.35928 0
M  V30 2816 O 267.676 1.02661 -1.64847 0
M  V30 2817 C 264.806 1.46983 -3.14664 0
M  V30 2818 C 263.76 0.938161 -4.17591 0
M  V30 2819 C 263.086 2.13622 -4.90173 0
M  V30 2820 C 264.386 -0.0261621 -5.22293 0
M  V30 2821 H 266.08 -0.292969 -2.97963 0
M  V30 2822 H 263.626 -0.14234 -1.43295 0
M  V30 2823 H 265.579 2.03873 -3.688 0
M  V30 2824 H 264.303 2.15843 -2.4511 0
M  V30 2825 H 262.962 0.391481 -3.64504 0
M  V30 2826 H 262.61 2.81098 -4.17124 0
M  V30 2827 H 262.31 1.78688 -5.59772 0
M  V30 2828 H 263.834 2.7107 -5.47132 0
M  V30 2829 H 265.248 0.452384 -5.71512 0
M  V30 2830 H 263.645 -0.287992 -5.99409 0
M  V30 2831 H 264.715 -0.963391 -4.75233 0
M  V30 2832 N 266.058 1.56714 -0.166846 0
M  V30 2833 C 267.286 2.0112 0.485644 0
M  V30 2834 C 267.701 1.04705 1.57106 0
M  V30 2835 O 267.058 0.0471923 1.82439 0
M  V30 2836 C 267.109 3.45361 1.06808 0
M  V30 2837 O 266.83 4.38092 0.0259995 0
M  V30 2838 C 268.331 4.05145 1.79924 0
M  V30 2839 H 265.551 0.65931 0.124704 0
M  V30 2840 H 268.095 2.02746 -0.267262 0
M  V30 2841 H 266.25 3.44524 1.7715 0
M  V30 2842 H 266.664 5.22519 0.455398 0
M  V30 2843 H 268.138 5.08009 2.15942 0
M  V30 2844 H 268.615 3.46982 2.69258 0
M  V30 2845 H 269.221 4.09672 1.14234 0
M  V30 2846 N 267.536 -0.106894 1.57237 0
M  V30 2847 C 268.947 -0.662723 1.74542 0
M  V30 2848 C 269.298 -1.7971 0.787319 0
M  V30 2849 O 268.423 -2.16368 -0.0369636 0
M  V30 2850 C 269.018 -1.20896 3.16496 0
M  V30 2851 C 267.577 -1.71096 3.35266 0
M  V30 2852 C 266.724 -0.615642 2.7038 0
M  V30 2853 H 269.675 0.119106 1.58252 0
M  V30 2854 H 269.696 -2.07847 3.18716 0
M  V30 2855 H 269.208 -0.383122 3.86204 0
M  V30 2856 H 267.309 -2.56119 2.70618 0
M  V30 2857 H 267.422 -1.81208 4.43509 0
M  V30 2858 H 265.786 -1.05222 2.31949 0
M  V30 2859 H 266.569 0.199419 3.4272 0
M  V30 2860 N 269.014 -1.53014 -0.377408 0
M  V30 2861 C 269.946 -1.74884 -1.48149 0
M  V30 2862 C 270.959 -0.629433 -1.5014 0
M  V30 2863 O 272.148 -0.905416 -1.53833 0
M  V30 2864 C 269.248 -1.80299 -2.86959 0
M  V30 2865 C 268.421 -3.09776 -3.08801 0
M  V30 2866 C 267.48 -3.06586 -4.27658 0
M  V30 2867 O 266.506 -3.80419 -4.23403 0
M  V30 2868 N 267.708 -2.26578 -5.34455 0
M  V30 2869 H 270.473 -2.70147 -1.29771 0
M  V30 2870 H 268.034 -1.51646 -0.56703 0
M  V30 2871 H 270.026 -1.75657 -3.64591 0
M  V30 2872 H 268.596 -0.92372 -2.98641 0
M  V30 2873 H 267.816 -3.27815 -2.18931 0
M  V30 2874 H 269.104 -3.95366 -3.20255 0
M  V30 2875 H 268.502 -1.66081 -5.40771 0
M  V30 2876 H 267.059 -2.27766 -6.10709 0
M  V30 2877 N 270.492 0.636531 -1.44174 0
M  V30 2878 C 271.74 1.39343 -1.46383 0
M  V30 2879 C 272.061 1.94766 -0.0955715 0
M  V30 2880 O 271.331 1.75452 0.871395 0
M  V30 2881 H 269.911 0.517199 -0.538994 0
M  V30 2882 H 272.573 0.74957 -1.7991 0
M  V30 2883 H 271.669 2.22746 -2.18611 0
M  V30 2884 N 271.97 1.30982 0.876444 0
M  V30 2885 C 273.381 1.18277 1.44456 0
M  V30 2886 C 273.732 -0.213265 1.95037 0
M  V30 2887 O 272.857 -1.11057 1.85729 0
M  V30 2888 C 273.452 2.1411 2.62569 0
M  V30 2889 C 272.011 2.05358 3.15444 0
M  V30 2890 C 271.158 2.03706 1.88146 0
M  V30 2891 H 274.109 1.43127 0.685584 0
M  V30 2892 H 274.13 1.72692 3.39054 0
M  V30 2893 H 273.642 3.15706 2.25724 0
M  V30 2894 H 271.743 1.06934 3.56926 0
M  V30 2895 H 271.856 2.94156 3.78166 0
M  V30 2896 H 270.22 1.48629 2.06837 0
M  V30 2897 H 271.003 3.07047 1.53547 0
M  V30 2898 N 273.449 -1.08991 1.13837 0
M  V30 2899 C 274.674 -1.85551 0.926585 0
M  V30 2900 C 275.099 -1.80782 -0.519566 0
M  V30 2901 O 274.457 -1.18855 -1.36906 0
M  V30 2902 C 274.505 -3.31266 1.42462 0
M  V30 2903 O 273.609 -4.07822 0.612789 0
M  V30 2904 H 272.95 -0.575192 0.331738 0
M  V30 2905 H 275.48 -1.37604 1.51414 0
M  V30 2906 H 275.49 -3.82112 1.43019 0
M  V30 2907 H 274.165 -3.34052 2.47754 0
M  V30 2908 H 272.742 -3.66731 0.675463 0
M  V30 2909 N 274.927 -0.932562 -1.27047 0
M  V30 2910 C 276.338 -0.619451 -1.76124 0
M  V30 2911 C 276.689 0.865397 -1.76083 0
M  V30 2912 O 275.814 1.67722 -1.36742 0
M  V30 2913 C 276.409 -1.11771 -3.19832 0
M  V30 2914 C 274.968 -0.855174 -3.66557 0
M  V30 2915 C 274.115 -1.27362 -2.46321 0
M  V30 2916 H 277.066 -1.11181 -1.13245 0
M  V30 2917 H 277.087 -0.46759 -3.77616 0
M  V30 2918 H 276.599 -2.19842 -3.1983 0
M  V30 2919 H 274.7 0.211524 -3.71999 0
M  V30 2920 H 274.813 -1.47613 -4.55793 0
M  V30 2921 H 273.177 -0.692119 -2.45116 0
M  V30 2922 H 273.96 -2.36307 -2.49025 0
M  V30 2923 N 276.405 1.4127 -0.698611 0
M  V30 2924 C 277.821 1.55241 -0.370462 0
M  V30 2925 C 278.021 1.67351 1.12231 0
M  V30 2926 O 277.077 1.65363 1.90818 0
M  V30 2927 C 278.39 2.78997 -1.12165 0
M  V30 2928 C 279.938 2.92797 -1.1063 0
M  V30 2929 C 280.413 4.19445 -1.8393 0
M  V30 2930 N 281.904 4.26409 -1.80914 0
M  V30 2931 C 282.639 5.23271 -2.34467 0
M  V30 2932 N 282.135 6.26145 -2.96504 0
M  V30 2933 N 283.928 5.15232 -2.24706 0
M  V30 2934 H 276.079 1.31654 -1.66676 0
M  V30 2935 H 278.342 0.635393 -0.703548 0
M  V30 2936 H 278.048 2.76268 -2.17644 0
M  V30 2937 H 277.922 3.70606 -0.702209 0
M  V30 2938 H 280.309 2.95039 -0.0597713 0
M  V30 2939 H 280.39 2.02353 -1.56483 0
M  V30 2940 H 280.034 4.17964 -2.88563 0
M  V30 2941 H 279.964 5.08866 -1.35509 0
M  V30 2942 H 282.455 3.527 -1.35687 0
M  V30 2943 H 282.768 6.96451 -3.34927 0
M  V30 2944 H 281.113 6.26638 -3.00583 0
M  V30 2945 H 284.304 4.33789 -1.7591 0
M  V30 2946 H 284.477 5.90552 -2.66745 0
M  V30 2947 N 277.883 0.443576 1.51229 0
M  V30 2948 C 279.111 -0.11929 2.06556 0
M  V30 2949 C 279.526 -1.35921 1.31038 0
M  V30 2950 O 278.883 -1.78675 0.371704 0
M  V30 2951 C 278.934 -0.435228 3.5887 0
M  V30 2952 O 278.655 0.755486 4.31537 0
M  V30 2953 C 280.156 -1.04808 4.30732 0
M  V30 2954 H 277.376 -0.0051584 0.67098 0
M  V30 2955 H 279.92 0.624453 1.94733 0
M  V30 2956 H 278.075 -1.12887 3.70588 0
M  V30 2957 H 278.489 0.483491 5.22267 0
M  V30 2958 H 279.963 -1.2191 5.3837 0
M  V30 2959 H 280.44 -2.03081 3.89429 0
M  V30 2960 H 281.046 -0.393637 4.23474 0
M  V30 2961 N 279.361 -1.56624 0.175154 0
M  V30 2962 C 280.293 -2.15333 -0.785128 0
M  V30 2963 C 281.306 -1.1099 -1.19101 0
M  V30 2964 O 282.495 -1.38162 -1.13019 0
M  V30 2965 C 279.595 -2.68427 -2.06882 0
M  V30 2966 C 278.768 -3.97466 -1.8259 0
M  V30 2967 C 277.827 -4.35585 -2.95215 0
M  V30 2968 O 276.853 -5.03389 -2.65684 0
M  V30 2969 N 278.055 -3.97457 -4.23094 0
M  V30 2970 H 280.82 -2.98359 -0.283187 0
M  V30 2971 H 278.381 -1.61898 -0.00749817 0
M  V30 2972 H 280.373 -2.90924 -2.81328 0
M  V30 2973 H 278.943 -1.89968 -2.48256 0
M  V30 2974 H 278.163 -3.83307 -0.920287 0
M  V30 2975 H 279.451 -4.81736 -1.63733 0
M  V30 2976 H 278.849 -3.42878 -4.49945 0
M  V30 2977 H 277.406 -4.24947 -4.9423 0
M  V30 2978 N 280.839 0.0985539 -1.57292 0
M  V30 2979 C 281.789 1.1261 -1.9825 0
M  V30 2980 C 282.773 1.35961 -0.860426 0
M  V30 2981 O 283.965 1.36711 -1.12424 0
M  V30 2982 C 281.094 2.44727 -2.40757 0
M  V30 2983 C 280.18 2.24764 -3.59642 0
M  V30 2984 N 280.571 1.74661 -4.74687 0
M  V30 2985 C 278.869 2.55344 -3.65672 0
M  V30 2986 C 279.57 1.68887 -5.56644 0
M  V30 2987 N 278.546 2.13976 -4.99715 0
M  V30 2988 H 282.348 0.731604 -2.84648 0
M  V30 2989 H 279.862 0.306029 -1.59491 0
M  V30 2990 H 281.859 3.19072 -2.68326 0
M  V30 2991 H 280.519 2.84917 -1.55733 0
M  V30 2992 H 281.53 1.43908 -4.97505 0
M  V30 2993 H 278.207 2.99081 -2.91302 0
M  V30 2994 H 279.597 1.3123 -6.5896 0
M  V30 2995 N 282.317 1.53212 0.369288 0
M  V30 2996 C 283.557 1.70915 1.12105 0
M  V30 2997 C 283.921 0.449444 1.86665 0
M  V30 2998 O 285.122 0.503105 2.6405 0
M  V30 2999 C 283.393 2.9222 2.05772 0
M  V30 3000 S 284.952 3.30609 2.88519 0
M  V30 3001 H 281.77 0.601445 0.379189 0
M  V30 3002 H 284.372 1.91306 0.402794 0
M  V30 3003 H 283.076 3.82103 1.49752 0
M  V30 3004 H 282.607 2.7422 2.82076 0
M  V30 3005 H 284.622 2.82333 4.08047 0
M  V30 3006 N 283.795 -0.628877 1.44509 0
M  V30 3007 C 285.072 -1.38733 1.37886 0
M  V30 3008 C 285.452 -2.11065 0.0387008 0
M  V30 3009 O 284.8 -2.06476 -0.97878 0
M  V30 3010 C 285.01 -2.35188 2.57852 0
M  V30 3011 C 286.358 -2.9845 3.02014 0
M  V30 3012 O 287.382 -2.45513 2.58073 0
M  V30 3013 O 286.241 -3.94487 3.78209 0
M  V30 3014 H 283.335 -0.621015 0.54614 0
M  V30 3015 H 285.881 -0.653744 1.56602 0
M  V30 3016 H 284.653 -1.80855 3.46998 0
M  V30 3017 H 284.276 -3.1596 2.4136 0
M  V30 3018 N 285.273 -1.31445 -0.869486 0
M  V30 3019 C 286.684 -1.19042 -1.43826 0
M  V30 3020 C 287.035 0.202919 -1.95148 0
M  V30 3021 O 286.16 1.10071 -1.86315 0
M  V30 3022 C 286.755 -2.15499 -2.6143 0
M  V30 3023 C 285.314 -2.07028 -3.14351 0
M  V30 3024 C 284.461 -2.04701 -1.87063 0
M  V30 3025 H 287.412 -1.43489 -0.677984 0
M  V30 3026 H 287.433 -1.74488 -3.38134 0
M  V30 3027 H 286.945 -3.16899 -2.24046 0
M  V30 3028 H 285.046 -1.08825 -3.56354 0
M  V30 3029 H 285.159 -2.96157 -3.766 0
M  V30 3030 H 283.523 -1.49724 -2.06046 0
M  V30 3031 H 284.306 -3.07857 -1.51917 0
M  V30 3032 N 286.751 1.08385 -1.14413 0
M  V30 3033 C 287.661 2.18856 -0.844951 0
M  V30 3034 C 288.677 1.73121 0.174668 0
M  V30 3035 O 289.853 2.014 0.00312857 0
M  V30 3036 C 286.918 3.45155 -0.32696 0
M  V30 3037 C 285.979 4.05513 -1.40916 0
M  V30 3038 C 285.212 5.25784 -0.915793 0
M  V30 3039 O 285.435 5.69884 0.242651 0
M  V30 3040 O 284.369 5.77545 -1.69487 0
M  V30 3041 H 288.195 2.46919 -1.76818 0
M  V30 3042 H 285.78 1.17524 -0.922411 0
M  V30 3043 H 287.662 4.21377 -0.0440211 0
M  V30 3044 H 286.337 3.18668 0.568539 0
M  V30 3045 H 285.244 3.30879 -1.74556 0
M  V30 3046 H 286.577 4.3625 -2.27919 0
M  V30 3047 N 288.23 0.939286 1.26551 0
M  V30 3048 C 289.18 0.418284 2.2413 0
M  V30 3049 C 290.164 -0.483935 1.5345 0
M  V30 3050 O 291.356 -0.319489 1.74093 0
M  V30 3051 C 288.485 -0.31709 3.41832 0
M  V30 3052 C 287.571 0.602311 4.19801 0
M  V30 3053 N 287.962 1.72726 4.75394 0
M  V30 3054 C 286.26 0.407534 4.44134 0
M  V30 3055 C 286.961 2.30004 5.34297 0
M  V30 3056 N 285.937 1.58828 5.1988 0
M  V30 3057 H 289.739 1.27705 2.64705 0
M  V30 3058 H 287.253 0.794929 1.41614 0
M  V30 3059 H 289.25 -0.707364 4.10855 0
M  V30 3060 H 287.91 -1.17264 3.02786 0
M  V30 3061 H 288.921 2.10944 4.72994 0
M  V30 3062 H 285.598 -0.406406 4.15517 0
M  V30 3063 H 286.988 3.24778 5.88191 0
M  V30 3064 N 289.708 -1.40897 0.706093 0
M  V30 3065 C 290.955 -2.01054 0.241531 0
M  V30 3066 C 291.283 -1.55956 -1.16223 0
M  V30 3067 O 290.538 -0.766336 -1.80072 0
M  V30 3068 C 290.837 -3.5646 0.259099 0
M  V30 3069 C 290.503 -4.21106 1.61184 0
M  V30 3070 C 289.165 -4.38479 1.98216 0
M  V30 3071 C 291.517 -4.57256 2.50132 0
M  V30 3072 C 288.845 -4.89282 3.2376 0
M  V30 3073 C 291.197 -5.09454 3.7502 0
M  V30 3074 C 289.861 -5.25037 4.12181 0
M  V30 3075 H 289.131 -0.73571 0.0883825 0
M  V30 3076 H 291.778 -1.68645 0.907257 0
M  V30 3077 H 290.083 -3.88721 -0.490189 0
M  V30 3078 H 291.78 -4.00826 -0.11804 0
M  V30 3079 H 288.37 -4.07966 1.31384 0
M  V30 3080 H 292.554 -4.43479 2.228 0
M  V30 3081 H 287.81 -4.99531 3.52532 0
M  V30 3082 H 291.984 -5.36404 4.44121 0
M  V30 3083 H 289.611 -5.64164 5.09532 0
M  V30 3084 N 291.186 -0.45159 -1.50991 0
M  V30 3085 C 292.597 0.00818571 -1.86698 0
M  V30 3086 C 292.948 1.40661 -1.3678 0
M  V30 3087 O 292.073 2.0391 -0.724546 0
M  V30 3088 C 292.668 0.0216303 -3.38793 0
M  V30 3089 C 291.227 0.425865 -3.73983 0
M  V30 3090 C 290.374 -0.372163 -2.74791 0
M  V30 3091 H 293.325 -0.666785 -1.44013 0
M  V30 3092 H 293.346 0.828078 -3.7138 0
M  V30 3093 H 292.858 -0.996288 -3.75094 0
M  V30 3094 H 290.959 1.44886 -3.43277 0
M  V30 3095 H 291.072 0.140761 -4.78893 0
M  V30 3096 H 289.436 0.171498 -2.54122 0
M  V30 3097 H 290.219 -1.38922 -3.13935 0
M  V30 3098 N 292.664 1.56529 -0.183458 0
M  V30 3099 C 293.911 1.97244 0.458357 0
M  V30 3100 C 294.239 1.06992 1.62428 0
M  V30 3101 O 293.494 0.106542 1.9541 0
M  V30 3102 C 293.793 3.43939 0.971637 0
M  V30 3103 C 293.459 4.5083 -0.0796784 0
M  V30 3104 C 292.121 4.79786 -0.368584 0
M  V30 3105 C 294.473 5.15138 -0.792638 0
M  V30 3106 C 291.801 5.70345 -1.37563 0
M  V30 3107 C 294.153 6.06784 -1.78875 0
M  V30 3108 C 292.817 6.34102 -2.08497 0
M  V30 3109 H 292.087 0.721768 0.167725 0
M  V30 3110 H 294.734 1.89472 -0.277976 0
M  V30 3111 H 293.039 3.48724 1.78602 0
M  V30 3112 H 294.736 3.72791 1.47744 0
M  V30 3113 H 291.326 4.28317 0.155668 0
M  V30 3114 H 295.51 4.92868 -0.582659 0
M  V30 3115 H 290.766 5.89789 -1.61118 0
M  V30 3116 H 294.94 6.55677 -2.3465 0
M  V30 3117 H 292.567 7.04074 -2.86678 0
M  V30 3118 N 294.142 -0.090211 1.57342 0
M  V30 3119 C 295.553 -0.644173 1.75235 0
M  V30 3120 C 295.904 -1.78865 0.806335 0
M  V30 3121 O 295.029 -2.16395 -0.0140128 0
M  V30 3122 C 295.624 -1.17532 3.1776 0
M  V30 3123 C 294.183 -1.67531 3.37061 0
M  V30 3124 C 293.33 -0.58693 2.71017 0
M  V30 3125 H 296.281 0.135884 1.58117 0
M  V30 3126 H 296.302 -2.04455 3.20902 0
M  V30 3127 H 295.814 -0.342138 3.86589 0
M  V30 3128 H 293.915 -2.53234 2.73319 0
M  V30 3129 H 294.028 -1.76493 4.45406 0
M  V30 3130 H 292.392 -1.02756 2.33052 0
M  V30 3131 H 293.175 0.235758 3.4249 0
M  V30 3132 N 295.62 -1.53406 -0.361157 0
M  V30 3133 C 296.583 -1.79479 -1.42548 0
M  V30 3134 C 297.583 -0.665327 -1.4639 0
M  V30 3135 O 298.773 -0.933549 -1.47073 0
M  V30 3136 C 295.905 -1.92087 -2.8163 0
M  V30 3137 H 297.098 -2.74538 -1.20701 0
M  V30 3138 H 294.651 -1.4455 -0.594546 0
M  V30 3139 H 295.386 -0.991099 -3.08784 0
M  V30 3140 H 295.171 -2.74241 -2.80239 0
M  V30 3141 H 296.661 -2.13836 -3.58697 0
M  V30 3142 N 297.098 0.621204 -1.44841 0
M  V30 3143 C 298.509 1.20298 -1.42777 0
M  V30 3144 C 298.86 1.95639 -0.148259 0
M  V30 3145 O 297.985 2.02955 0.750892 0
M  V30 3146 C 298.58 2.1882 -2.58657 0
M  V30 3147 C 297.139 2.72403 -2.59756 0
M  V30 3148 C 296.286 1.4757 -2.34773 0
M  V30 3149 H 299.237 0.411297 -1.53278 0
M  V30 3150 H 299.258 3.01607 -2.31977 0
M  V30 3151 H 298.77 1.63957 -3.51766 0
M  V30 3152 H 296.871 3.31242 -1.70615 0
M  V30 3153 H 296.984 3.17765 -3.58556 0
M  V30 3154 H 295.348 1.76051 -1.8406 0
M  V30 3155 H 296.131 0.945954 -3.3001 0
M  V30 3156 N 298.576 1.31904 0.862503 0
M  V30 3157 C 299.539 1.20131 1.95195 0
M  V30 3158 C 300.539 0.126409 1.60302 0
M  V30 3159 O 301.729 0.376234 1.70089 0
M  V30 3160 C 298.861 0.845691 3.30244 0
M  V30 3161 H 300.054 2.16943 2.07064 0
M  V30 3162 H 297.607 1.15622 1.05172 0
M  V30 3163 H 298.342 -0.120957 3.24074 0
M  V30 3164 H 298.127 1.62276 3.56944 0
M  V30 3165 H 299.617 0.787418 4.10109 0
M  V30 3166 N 300.054 -1.07777 1.14986 0
M  V30 3167 C 301.002 -2.16964 0.838406 0
M  V30 3168 C 301.996 -1.68372 -0.186386 0
M  V30 3169 O 303.202 -1.79951 -0.0418465 0
M  V30 3170 H 299.577 -0.708006 0.253439 0
M  V30 3171 H 301.548 -2.40454 1.76704 0
M  V30 3172 C 300.297 -3.4604 0.339335 0
M  V30 3173 H 299.62 -3.83813 1.11927 0
M  V30 3174 H 301.06 -4.23698 0.160021 0
M  V30 3175 C 299.519 -3.23569 -0.938325 0
M  V30 3176 O 300.049 -3.47752 -2.01077 0
M  V30 3177 N 298.255 -2.77079 -0.876117 0
M  V30 3178 H 297.802 -2.576 -0.00322037 0
M  V30 3179 H 297.76 -2.62422 -1.73153 0
M  V30 3180 N 301.532 -0.945985 -1.26051 0
M  V30 3181 C 302.495 -0.463897 -2.24456 0
M  V30 3182 C 303.495 0.427655 -1.55009 0
M  V30 3183 O 304.685 0.226157 -1.72726 0
M  V30 3184 C 301.817 0.330812 -3.39291 0
M  V30 3185 H 303.01 -1.33357 -2.68619 0
M  V30 3186 H 300.563 -0.728416 -1.38289 0
M  V30 3187 H 301.298 1.21852 -3.00537 0
M  V30 3188 H 301.083 -0.308679 -3.90883 0
M  V30 3189 H 302.573 0.657865 -4.12386 0
M  V30 3190 N 303.011 1.40521 -0.713556 0
M  V30 3191 C 304.422 1.83853 -0.324807 0
M  V30 3192 C 304.773 1.59667 1.14021 0
M  V30 3193 O 303.898 1.07649 1.87725 0
M  V30 3194 C 304.493 3.33751 -0.582746 0
M  V30 3195 C 303.052 3.75584 -0.247727 0
M  V30 3196 C 302.199 2.63753 -0.856121 0
M  V30 3197 H 305.15 1.29817 -0.91286 0
M  V30 3198 H 305.171 3.80194 0.152682 0
M  V30 3199 H 304.683 3.51322 -1.64908 0
M  V30 3200 H 302.784 3.63608 0.813624 0
M  V30 3201 H 302.897 4.7373 -0.715307 0
M  V30 3202 H 301.261 2.53108 -0.28432 0
M  V30 3203 H 302.044 2.84137 -1.92668 0
M  V30 3204 N 304.489 0.459591 1.5075 0
M  V30 3205 C 305.419 -0.330644 2.31147 0
M  V30 3206 C 306.4 -1.00087 1.37538 0
M  V30 3207 O 307.585 -1.00025 1.66459 0
M  V30 3208 C 304.715 -1.41958 3.16962 0
M  V30 3209 C 303.669 -0.871608 4.19031 0
M  V30 3210 C 302.995 -2.05797 4.9351 0
M  V30 3211 C 304.295 0.109251 5.22186 0
M  V30 3212 H 305.989 0.340336 2.97459 0
M  V30 3213 H 303.535 0.165119 1.4305 0
M  V30 3214 H 305.488 -1.9798 3.71997 0
M  V30 3215 H 304.212 -2.11917 2.48513 0
M  V30 3216 H 302.871 -0.333442 3.6508 0
M  V30 3217 H 302.519 -2.74427 4.21544 0
M  V30 3218 H 302.219 -1.6976 5.62544 0
M  V30 3219 H 303.743 -2.62331 5.51375 0
M  V30 3220 H 305.157 -0.361405 5.7216 0
M  V30 3221 H 303.554 0.383316 5.98875 0
M  V30 3222 H 304.624 1.03887 4.73641 0
M  V30 3223 N 305.967 -1.56429 0.191757 0
M  V30 3224 C 306.899 -2.16154 -0.762245 0
M  V30 3225 C 307.912 -1.12247 -1.17917 0
M  V30 3226 O 309.101 -1.39353 -1.11548 0
M  V30 3227 C 306.201 -2.70606 -2.04024 0
M  V30 3228 C 305.374 -3.99381 -1.78364 0
M  V30 3229 C 304.433 -4.38692 -2.90578 0
M  V30 3230 O 303.459 -5.06179 -2.6033 0
M  V30 3231 N 304.661 -4.01922 -4.18854 0
M  V30 3232 H 307.426 -2.98643 -0.251526 0
M  V30 3233 H 304.987 -1.61897 0.00967373 0
M  V30 3234 H 306.979 -2.93891 -2.78227 0
M  V30 3235 H 305.549 -1.9259 -2.46227 0
M  V30 3236 H 304.769 -3.84262 -0.879581 0
M  V30 3237 H 306.057 -4.83445 -1.58614 0
M  V30 3238 H 305.455 -3.47631 -4.46283 0
M  V30 3239 H 304.012 -4.30165 -4.89695 0
M  V30 3240 N 307.445 0.0818655 -1.57387 0
M  V30 3241 C 308.861 0.436412 -1.53517 0
M  V30 3242 C 309.061 1.79758 -0.910459 0
M  V30 3243 O 308.117 2.47324 -0.508636 0
M  V30 3244 C 309.43 0.386734 -2.98203 0
M  V30 3245 C 310.978 0.467644 -3.09487 0
M  V30 3246 C 311.453 0.447978 -4.55804 0
M  V30 3247 N 312.944 0.508348 -4.60402 0
M  V30 3248 C 313.679 0.515184 -5.71081 0
M  V30 3249 N 313.175 0.477435 -6.91153 0
M  V30 3250 N 314.968 0.560988 -5.59294 0
M  V30 3251 H 307.119 -0.809546 -1.96367 0
M  V30 3252 H 309.382 -0.302733 -0.898363 0
M  V30 3253 H 309.088 -0.546539 -3.47427 0
M  V30 3254 H 308.962 1.20075 -3.57578 0
M  V30 3255 H 311.349 1.39134 -2.60242 0
M  V30 3256 H 311.43 -0.374753 -2.5304 0
M  V30 3257 H 311.074 -0.471826 -5.05704 0
M  V30 3258 H 311.004 1.30777 -5.10103 0
M  V30 3259 H 313.495 0.54218 -3.7399 0
M  V30 3260 H 313.808 0.486299 -7.71268 0
M  V30 3261 H 312.153 0.444278 -6.93579 0
M  V30 3262 H 315.344 0.5881 -4.64391 0
M  V30 3263 H 315.517 0.562846 -6.45551 0
M  V30 3264 N 308.923 1.53595 0.353017 0
M  V30 3265 C 310.172 1.69603 1.09168 0
M  V30 3266 C 310.485 0.460925 1.90092 0
M  V30 3267 O 311.691 0.501774 2.66823 0
M  V30 3268 C 310.147 2.99872 1.9901 0
M  V30 3269 C 309.755 4.30687 1.23339 0
M  V30 3270 C 311.499 3.25246 2.72792 0
M  V30 3271 C 309.406 5.52036 2.12156 0
M  V30 3272 H 308.336 0.631966 0.411261 0
M  V30 3273 H 310.987 1.80096 0.351802 0
M  V30 3274 H 309.369 2.83212 2.7678 0
M  V30 3275 H 310.543 4.58019 0.505456 0
M  V30 3276 H 308.858 4.11853 0.613663 0
M  V30 3277 H 311.455 4.13095 3.39495 0
M  V30 3278 H 311.798 2.41846 3.38846 0
M  V30 3279 H 312.331 3.42638 2.021 0
M  V30 3280 H 309.07 6.37951 1.50659 0
M  V30 3281 H 308.59 5.28966 2.82764 0
M  V30 3282 H 310.269 5.87313 2.71427 0
M  V30 3283 N 310.401 -0.613514 1.45168 0
M  V30 3284 C 311.817 -0.933629 1.29443 0
M  V30 3285 C 312.017 -2.00028 0.243101 0
M  V30 3286 O 311.073 -2.49848 -0.364992 0
M  V30 3287 C 312.386 -1.38018 2.67155 0
M  V30 3288 C 313.934 -1.49471 2.75004 0
M  V30 3289 C 314.409 -1.97503 4.13227 0
M  V30 3290 N 315.9 -2.04746 4.15491 0
M  V30 3291 C 316.635 -2.43121 5.19307 0
M  V30 3292 N 316.131 -2.80506 6.33473 0
M  V30 3293 N 317.924 -2.43408 5.06664 0
M  V30 3294 H 310.075 0.0916097 2.12202 0
M  V30 3295 H 312.338 -0.0216655 0.947752 0
M  V30 3296 H 312.044 -0.670625 3.45247 0
M  V30 3297 H 311.918 -2.34784 2.95222 0
M  V30 3298 H 314.305 -2.19519 1.9722 0
M  V30 3299 H 314.386 -0.510342 2.50657 0
M  V30 3300 H 314.03 -1.28045 4.91495 0
M  V30 3301 H 313.96 -2.96843 4.34962 0
M  V30 3302 H 316.451 -1.78468 3.33103 0
M  V30 3303 H 316.764 -3.08652 7.08487 0
M  V30 3304 H 315.109 -2.78216 6.36884 0
M  V30 3305 H 318.3 -2.13604 4.16523 0
M  V30 3306 H 318.473 -2.72989 5.87691 0
M  V30 3307 N 311.879 -1.3236 -0.855495 0
M  V30 3308 C 313.104 -1.2601 -1.64731 0
M  V30 3309 C 313.529 0.169068 -1.87339 0
M  V30 3310 O 312.887 1.12016 -1.42556 0
M  V30 3311 C 312.935 -2.02417 -2.98429 0
M  V30 3312 O 312.039 -1.3714 -3.8893 0
M  V30 3313 H 311.38 -0.434325 -0.502253 0
M  V30 3314 H 313.91 -1.74661 -1.06558 0
M  V30 3315 H 313.92 -2.12559 -3.48257 0
M  V30 3316 H 312.595 -3.06343 -2.81295 0
M  V30 3317 H 311.172 -1.3554 -3.47395 0
M  V30 3318 N 313.357 1.07166 -1.15556 0
M  V30 3319 C 314.585 1.83514 -0.955519 0
M  V30 3320 C 315 1.82163 0.49621 0
M  V30 3321 O 314.357 1.23441 1.34419 0
M  V30 3322 C 314.408 3.30515 -1.46432 0
M  V30 3323 O 314.129 3.31937 -2.85918 0
M  V30 3324 C 315.63 4.23625 -1.30603 0
M  V30 3325 H 312.85 0.578926 -0.339244 0
M  V30 3326 H 315.394 1.35265 -1.53374 0
M  V30 3327 H 313.549 3.76106 -0.928584 0
M  V30 3328 H 313.963 4.23794 -3.09029 0
M  V30 3329 H 315.437 5.24831 -1.71047 0
M  V30 3330 H 315.914 4.38485 -0.250441 0
M  V30 3331 H 316.52 3.83871 -1.83094 0
M  V30 3332 N 314.835 0.952656 1.25548 0
M  V30 3333 C 316.06 0.623025 1.97821 0
M  V30 3334 C 316.485 -0.7976 1.70352 0
M  V30 3335 O 315.843 -1.53905 0.958283 0
M  V30 3336 C 315.891 0.885532 3.49558 0
M  V30 3337 O 314.995 -0.0366641 4.12384 0
M  V30 3338 H 314.336 0.237082 0.620232 0
M  V30 3339 H 316.866 1.27871 1.59719 0
M  V30 3340 H 316.876 0.811009 3.99858 0
M  V30 3341 H 315.551 1.92094 3.6888 0
M  V30 3342 H 314.128 0.0898954 3.72792 0
M  V30 3343 N 316.313 -1.40141 0.720998 0
M  V30 3344 C 317.541 -2.05096 0.272656 0
M  V30 3345 C 317.956 -1.54334 -1.0875 0
M  V30 3346 O 317.313 -0.702211 -1.6845 0
M  V30 3347 C 317.364 -3.60636 0.249835 0
M  V30 3348 O 317.085 -4.09526 1.55629 0
M  V30 3349 C 318.586 -4.42772 -0.216396 0
M  V30 3350 H 315.806 -0.659897 0.121558 0
M  V30 3351 H 318.35 -1.79449 0.980723 0
M  V30 3352 H 316.505 -3.85232 -0.409237 0
M  V30 3353 H 316.919 -5.03758 1.4604 0
M  V30 3354 H 318.393 -5.51702 -0.181212 0
M  V30 3355 H 318.87 -4.20756 -1.25941 0
M  V30 3356 H 319.476 -4.23294 0.412596 0
M  V30 3357 N 317.792 -0.46758 -1.50504 0
M  V30 3358 C 319.203 -0.0116166 -1.86696 0
M  V30 3359 C 319.554 1.39202 -1.38265 0
M  V30 3360 O 318.679 2.0313 -0.746132 0
M  V30 3361 C 319.274 -0.0143044 -3.38797 0
M  V30 3362 C 317.833 0.386175 -3.74414 0
M  V30 3363 C 316.98 -0.401287 -2.74381 0
M  V30 3364 H 319.931 -0.682022 -1.43297 0
M  V30 3365 H 319.952 0.788641 -3.72237 0
M  V30 3366 H 319.464 -1.03602 -3.74016 0
M  V30 3367 H 317.565 1.41237 -3.44794 0
M  V30 3368 H 317.678 0.0899596 -4.79016 0
M  V30 3369 H 316.042 0.144536 -2.5429 0
M  V30 3370 H 316.825 -1.42244 -3.12444 0
M  V30 3371 N 319.27 1.56325 -0.20005 0
M  V30 3372 C 320.218 2.20666 0.735482 0
M  V30 3373 C 321.212 1.17934 1.21605 0
M  V30 3374 O 322.418 1.36068 1.17837 0
M  V30 3375 H 318.793 0.70725 0.255542 0
M  V30 3376 H 320.764 2.9792 0.169166 0
M  V30 3377 C 319.513 2.88391 1.94232 0
M  V30 3378 H 318.836 3.67185 1.58161 0
M  V30 3379 H 320.276 3.3684 2.57517 0
M  V30 3380 C 318.735 1.89692 2.78421 0
M  V30 3381 O 319.265 1.40032 3.76502 0
M  V30 3382 N 317.471 1.57813 2.44015 0
M  V30 3383 H 317.018 1.9839 1.64314 0
M  V30 3384 H 316.976 0.920325 3.00628 0
M  V30 3385 N 320.748 -0.0735177 1.57428 0
M  V30 3386 C 321.994 -0.774145 1.87443 0
M  V30 3387 C 322.327 -1.77311 0.792103 0
M  V30 3388 O 321.602 -1.93492 -0.197793 0
M  V30 3389 C 321.885 -1.48367 3.28115 0
M  V30 3390 C 321.738 -0.501227 4.46999 0
M  V30 3391 C 323.057 -2.429 3.66998 0
M  V30 3392 H 320.176 -0.279971 0.681752 0
M  V30 3393 H 322.818 -0.0373616 1.89963 0
M  V30 3394 H 320.968 -2.11171 3.26097 0
M  V30 3395 H 322.64 0.121468 4.6114 0
M  V30 3396 H 320.883 0.183593 4.33411 0
M  V30 3397 H 321.554 -1.03526 5.42205 0
M  V30 3398 H 324.03 -1.90175 3.70098 0
M  V30 3399 H 322.906 -2.89549 4.66318 0
M  V30 3400 H 323.167 -3.27628 2.96837 0
M  V30 3401 N 322.226 -1.5378 -0.344866 0
M  V30 3402 C 323.176 -1.78057 -1.42407 0
M  V30 3403 C 324.16 -0.635732 -1.47808 0
M  V30 3404 O 325.352 -0.89508 -1.527 0
M  V30 3405 C 322.481 -1.99242 -2.79566 0
M  V30 3406 C 321.567 -3.19787 -2.78562 0
M  V30 3407 N 321.958 -4.41284 -2.47189 0
M  V30 3408 C 320.256 -3.2093 -3.0971 0
M  V30 3409 C 320.957 -5.23128 -2.54385 0
M  V30 3410 N 319.933 -4.59813 -2.89953 0
M  V30 3411 H 323.735 -2.69588 -1.17046 0
M  V30 3412 H 321.249 -1.52687 -0.553217 0
M  V30 3413 H 323.246 -2.14768 -3.57324 0
M  V30 3414 H 321.906 -1.08953 -3.05875 0
M  V30 3415 H 322.917 -4.68657 -2.20411 0
M  V30 3416 H 319.594 -2.40603 -3.41199 0
M  V30 3417 H 320.984 -6.30096 -2.333 0
M  V30 3418 N 323.704 0.605807 -1.45491 0
M  V30 3419 C 324.637 1.73022 -1.48791 0
M  V30 3420 C 325.615 1.58917 -0.344112 0
M  V30 3421 O 326.799 1.80453 -0.544876 0
M  V30 3422 C 323.926 3.10865 -1.34463 0
M  V30 3423 C 322.972 3.43554 -2.5273 0
M  V30 3424 S 323.805 3.38196 -4.15191 0
M  V30 3425 C 324.961 4.78616 -4.03333 0
M  V30 3426 H 325.194 1.69961 -2.43928 0
M  V30 3427 H 322.727 0.782611 -1.33096 0
M  V30 3428 H 324.685 3.90398 -1.26884 0
M  V30 3429 H 323.346 3.1144 -0.40794 0
M  V30 3430 H 322.539 4.43924 -2.38637 0
M  V30 3431 H 322.141 2.71541 -2.5718 0
M  V30 3432 H 324.433 5.68463 -3.68587 0
M  V30 3433 H 325.376 4.97767 -5.03621 0
M  V30 3434 H 325.784 4.54381 -3.34959 0
M  V30 3435 N 325.182 1.32811 0.848464 0
M  V30 3436 C 326.428 1.23907 1.60546 0
M  V30 3437 C 326.761 -0.197161 1.93197 0
M  V30 3438 O 326.036 -1.13596 1.5788 0
M  V30 3439 C 326.319 2.10489 2.92175 0
M  V30 3440 C 326.172 3.62522 2.66266 0
M  V30 3441 C 327.491 1.97075 3.93509 0
M  V30 3442 H 324.61 0.451459 0.58254 0
M  V30 3443 H 327.252 1.62818 0.979296 0
M  V30 3444 H 325.402 1.77434 3.45614 0
M  V30 3445 H 327.074 4.05821 2.19334 0
M  V30 3446 H 325.317 3.84879 2.00126 0
M  V30 3447 H 325.988 4.18437 3.6002 0
M  V30 3448 H 328.464 2.26045 3.49346 0
M  V30 3449 H 327.34 2.59923 4.83457 0
M  V30 3450 H 327.601 0.940186 4.31987 0
M  V30 3451 N 326.66 -1.06551 1.16123 0
M  V30 3452 C 327.885 -1.83544 0.965735 0
M  V30 3453 C 328.31 -1.81843 -0.481102 0
M  V30 3454 O 327.668 -1.21732 -1.34354 0
M  V30 3455 C 327.716 -3.28169 1.49457 0
M  V30 3456 O 326.82 -4.0643 0.699157 0
M  V30 3457 H 326.161 -0.568026 0.343864 0
M  V30 3458 H 328.691 -1.34362 1.54299 0
M  V30 3459 H 328.701 -3.78992 1.51092 0
M  V30 3460 H 327.376 -3.28722 2.54784 0
M  V30 3461 H 325.953 -3.65216 0.7531 0
M  V30 3462 N 328.138 -0.959301 -1.25041 0
M  V30 3463 C 329.366 -0.633949 -1.96948 0
M  V30 3464 C 329.781 0.794916 -1.7125 0
M  V30 3465 O 329.138 1.53231 -0.991287 0
M  V30 3466 C 329.189 -0.888805 -3.50403 0
M  V30 3467 O 328.91 -2.26149 -3.75218 0
M  V30 3468 C 330.411 -0.576482 -4.39536 0
M  V30 3469 H 327.631 -0.237263 -0.627652 0
M  V30 3470 H 330.175 -1.28495 -1.59089 0
M  V30 3471 H 328.33 -0.284145 -3.86357 0
M  V30 3472 H 328.744 -2.33514 -4.6965 0
M  V30 3473 H 330.218 -0.805314 -5.46094 0
M  V30 3474 H 330.695 0.489075 -4.36468 0
M  V30 3475 H 331.301 -1.16067 -4.09156 0
M  V30 3476 N 329.616 1.39756 -0.72842 0
M  V30 3477 C 330.844 2.04948 -0.283528 0
M  V30 3478 C 331.259 1.54908 1.0793 0
M  V30 3479 O 330.616 0.711135 1.68075 0
M  V30 3480 C 330.667 3.60498 -0.268957 0
M  V30 3481 O 330.388 4.08695 -1.57798 0
M  V30 3482 C 331.889 4.4288 0.192912 0
M  V30 3483 H 329.109 0.659243 -0.125056 0
M  V30 3484 H 331.653 1.78927 -0.990226 0
M  V30 3485 H 329.808 3.85444 0.388801 0
M  V30 3486 H 330.222 5.02977 -1.48709 0
M  V30 3487 H 331.696 5.51791 0.151952 0
M  V30 3488 H 332.173 4.21418 1.23708 0
M  V30 3489 H 332.779 4.23069 -0.435039 0
M  V30 3490 N 331.094 0.475555 1.50254 0
M  V30 3491 C 332.057 -0.305016 2.27161 0
M  V30 3492 C 333.057 -0.916519 1.32123 0
M  V30 3493 O 334.247 -0.785003 1.5551 0
M  V30 3494 C 331.379 -1.43496 3.09227 0
M  V30 3495 H 332.572 0.369511 2.97615 0
M  V30 3496 H 330.125 0.229747 1.54602 0
M  V30 3497 H 330.86 -2.14441 2.43281 0
M  V30 3498 H 330.645 -1.00223 3.79075 0
M  V30 3499 H 332.135 -1.98548 3.67381 0
M  V30 3500 N 332.573 -1.56217 0.208337 0
M  V30 3501 C 333.984 -1.84243 -0.301904 0
M  V30 3502 C 334.335 -1.12939 -1.60434 0
M  V30 3503 O 333.46 -0.39461 -2.12772 0
M  V30 3504 C 334.055 -3.34231 -0.554543 0
M  V30 3505 C 332.614 -3.62621 -1.00912 0
M  V30 3506 C 331.761 -2.77224 -0.064933 0
M  V30 3507 H 334.712 -1.52712 0.431833 0
M  V30 3508 H 334.733 -3.5372 -1.40223 0
M  V30 3509 H 334.245 -3.86099 0.393561 0
M  V30 3510 H 332.346 -3.16197 -1.97104 0
M  V30 3511 H 332.459 -4.7071 -0.892674 0
M  V30 3512 H 330.823 -2.48256 -0.56929 0
M  V30 3513 H 331.606 -3.31887 0.877851 0
M  V30 3514 N 334.051 0.0651679 -1.57465 0
M  V30 3515 C 334.984 1.10876 -1.99453 0
M  V30 3516 C 335.962 1.37205 -0.872555 0
M  V30 3517 O 337.146 1.50468 -1.13542 0
M  V30 3518 C 334.273 2.45167 -2.3369 0
M  V30 3519 C 333.319 2.3493 -3.55964 0
M  V30 3520 S 334.152 1.73708 -5.06543 0
M  V30 3521 C 335.308 3.09563 -5.43987 0
M  V30 3522 H 335.541 0.750967 -2.87659 0
M  V30 3523 H 333.074 0.273933 -1.51951 0
M  V30 3524 H 335.032 3.22412 -2.54088 0
M  V30 3525 H 333.693 2.78105 -1.46001 0
M  V30 3526 H 332.886 3.3398 -3.77457 0
M  V30 3527 H 332.488 1.65823 -3.3523 0
M  V30 3528 H 334.78 4.05882 -5.42463 0
M  V30 3529 H 335.723 2.92843 -6.44708 0
M  V30 3530 H 336.131 3.10474 -4.71451 0
M  V30 3531 N 335.529 1.53961 0.336706 0
M  V30 3532 C 336.806 1.62171 1.09361 0
M  V30 3533 C 337.186 0.447263 2.06307 0
M  V30 3534 O 336.534 -0.559802 2.21537 0
M  V30 3535 C 336.744 2.98565 1.80721 0
M  V30 3536 C 338.092 3.54157 2.34218 0
M  V30 3537 O 339.116 3.00784 1.90807 0
M  V30 3538 O 337.975 4.47528 3.13657 0
M  V30 3539 H 335.069 0.6562 0.503319 0
M  V30 3540 H 337.615 1.66307 0.33765 0
M  V30 3541 H 336.387 3.75482 1.10132 0
M  V30 3542 H 336.01 2.9805 2.63158 0
M  V30 3543 N 337.007 -0.598083 1.45811 0
M  V30 3544 C 338.232 -1.3881 1.54099 0
M  V30 3545 C 338.657 -1.8726 0.177578 0
M  V30 3546 O 338.015 -1.6069 -0.839541 0
M  V30 3547 C 338.063 -2.56217 2.53743 0
M  V30 3548 O 337.167 -3.5716 2.06182 0
M  V30 3549 H 336.508 -0.414024 0.519115 0
M  V30 3550 H 339.038 -0.726971 1.91249 0
M  V30 3551 H 339.048 -3.03337 2.72856 0
M  V30 3552 H 337.723 -2.20303 3.5276 0
M  V30 3553 H 336.3 -3.16624 1.96987 0
M  V30 3554 N 338.485 -1.33259 -0.841409 0
M  V30 3555 C 339.433 -1.23279 -1.97244 0
M  V30 3556 C 340.427 -0.134706 -1.68864 0
M  V30 3557 O 341.633 -0.298501 -1.77508 0
M  V30 3558 H 338.008 -0.382497 -0.647457 0
M  V30 3559 H 339.979 -2.18906 -2.02787 0
M  V30 3560 C 338.728 -0.986268 -3.33419 0
M  V30 3561 H 338.051 -1.82347 -3.55794 0
M  V30 3562 H 339.491 -0.956728 -4.13065 0
M  V30 3563 C 337.95 0.310842 -3.35463 0
M  V30 3564 O 338.48 1.31838 -3.79449 0
M  V30 3565 N 336.686 0.337485 -2.88634 0
M  V30 3566 H 336.233 -0.482967 -2.53032 0
M  V30 3567 H 336.191 1.20518 -2.90384 0
M  V30 3568 N 339.963 1.05934 -1.16686 0
M  V30 3569 C 340.893 2.1546 -0.899949 0
M  V30 3570 C 341.874 1.69391 0.155154 0
M  V30 3571 O 343.059 1.94199 0.00648693 0
M  V30 3572 C 340.189 3.44939 -0.404241 0
M  V30 3573 C 339.143 4.04536 -1.39767 0
M  V30 3574 C 338.469 5.29268 -0.760216 0
M  V30 3575 C 339.769 4.42893 -2.76845 0
M  V30 3576 H 341.463 2.38046 -1.81588 0
M  V30 3577 H 339.009 1.14404 -0.874514 0
M  V30 3578 H 340.962 4.20901 -0.204971 0
M  V30 3579 H 339.686 3.21983 0.547206 0
M  V30 3580 H 338.345 3.30635 -1.58355 0
M  V30 3581 H 337.993 5.02611 0.197831 0
M  V30 3582 H 337.693 5.70101 -1.42332 0
M  V30 3583 H 339.217 6.07924 -0.57105 0
M  V30 3584 H 340.631 5.09921 -2.62019 0
M  V30 3585 H 339.028 4.94721 -3.39663 0
M  V30 3586 H 340.098 3.53584 -3.31823 0
M  V30 3587 N 341.441 0.965919 1.2453 0
M  V30 3588 C 342.69 0.622437 1.91856 0
M  V30 3589 C 343.003 -0.846006 1.76358 0
M  V30 3590 O 344.209 -1.29993 2.38357 0
M  V30 3591 C 342.665 1.0626 3.43856 0
M  V30 3592 C 342.273 2.55437 3.68043 0
M  V30 3593 C 344.017 0.792183 4.17043 0
M  V30 3594 C 341.924 2.93196 5.13605 0
M  V30 3595 H 340.854 0.229092 0.718354 0
M  V30 3596 H 343.505 1.17189 1.41206 0
M  V30 3597 H 341.887 0.441476 3.93531 0
M  V30 3598 H 343.061 3.22665 3.28974 0
M  V30 3599 H 341.376 2.8007 3.08139 0
M  V30 3600 H 343.973 1.05031 5.24283 0
M  V30 3601 H 344.316 -0.271584 4.15413 0
M  V30 3602 H 344.849 1.37419 3.73311 0
M  V30 3603 H 341.588 3.98636 5.20355 0
M  V30 3604 H 341.108 2.30651 5.53679 0
M  V30 3605 H 342.787 2.83004 5.81823 0
M  V30 3606 N 342.919 -1.39368 0.735821 0
M  V30 3607 C 343.851 -2.2913 0.0567723 0
M  V30 3608 C 344.864 -1.46859 -0.702589 0
M  V30 3609 O 346.053 -1.69925 -0.546616 0
M  V30 3610 C 343.153 -3.25492 -0.943823 0
M  V30 3611 C 342.326 -4.36709 -0.24581 0
M  V30 3612 C 341.385 -5.13376 -1.15463 0
M  V30 3613 O 340.411 -5.65683 -0.631803 0
M  V30 3614 N 341.613 -5.24656 -2.48427 0
M  V30 3615 H 344.378 -2.88047 0.827582 0
M  V30 3616 H 341.939 -1.50957 0.585112 0
M  V30 3617 H 343.931 -3.73657 -1.55443 0
M  V30 3618 H 342.501 -2.676 -1.61583 0
M  V30 3619 H 341.721 -3.9041 0.545286 0
M  V30 3620 H 343.009 -5.08244 0.237891 0
M  V30 3621 H 342.407 -4.83679 -2.93379 0
M  V30 3622 H 340.964 -5.76258 -3.04582 0
M  V30 3623 N 344.397 -0.483516 -1.5 0
M  V30 3624 C 345.327 0.293829 -2.31644 0
M  V30 3625 C 346.308 0.978864 -1.39112 0
M  V30 3626 O 347.493 0.973644 -1.68029 0
M  V30 3627 C 344.623 1.36897 -3.19181 0
M  V30 3628 C 343.577 0.804833 -4.20365 0
M  V30 3629 C 342.903 1.9792 -4.96721 0
M  V30 3630 C 344.203 -0.192313 -5.21946 0
M  V30 3631 H 345.897 -0.387616 -2.9688 0
M  V30 3632 H 343.443 -0.187856 -1.42769 0
M  V30 3633 H 345.396 1.92037 -3.751 0
M  V30 3634 H 344.12 2.07936 -2.51853 0
M  V30 3635 H 342.779 0.275319 -3.65565 0
M  V30 3636 H 342.427 2.67686 -4.25856 0
M  V30 3637 H 342.127 1.60789 -5.65173 0
M  V30 3638 H 343.651 2.53526 -5.55479 0
M  V30 3639 H 345.065 0.270333 -5.72662 0
M  V30 3640 H 343.462 -0.478543 -5.98189 0
M  V30 3641 H 344.532 -1.11409 -4.71928 0
M  V30 3642 N 345.875 1.56104 -0.216619 0
M  V30 3643 C 347.103 2.02563 0.421413 0
M  V30 3644 C 347.518 1.0965 1.53695 0
M  V30 3645 O 346.875 0.10521 1.82196 0
M  V30 3646 C 346.926 3.48584 0.957665 0
M  V30 3647 O 346.647 4.37953 -0.113389 0
M  V30 3648 C 348.148 4.10664 1.66943 0
M  V30 3649 H 345.368 0.662944 0.103665 0
M  V30 3650 H 347.912 2.01793 -0.331629 0
M  V30 3651 H 346.067 3.49985 1.661 0
M  V30 3652 H 346.481 5.23704 0.288932 0
M  V30 3653 H 347.955 5.14622 1.99671 0
M  V30 3654 H 348.432 3.55373 2.58083 0
M  V30 3655 H 349.038 4.13098 1.01142 0
M  V30 3656 N 347.353 -0.0568162 1.57498 0
M  V30 3657 C 348.601 -0.751617 1.87604 0
M  V30 3658 C 348.922 -1.77351 0.81066 0
M  V30 3659 O 348.192 -1.95254 -0.159018 0
M  V30 3660 H 346.772 -0.280583 0.692302 0
M  V30 3661 H 349.434 -0.0293483 1.94878 0
M  V30 3662 H 348.53 -1.25852 2.856 0
M  V30 3663 N 348.832 -1.54138 -0.328536 0
M  V30 3664 C 349.764 -1.79509 -1.4251 0
M  V30 3665 C 350.777 -0.67688 -1.48061 0
M  V30 3666 O 351.966 -0.953898 -1.50874 0
M  V30 3667 C 349.066 -1.89337 -2.81078 0
M  V30 3668 C 348.239 -3.19443 -2.98789 0
M  V30 3669 C 347.298 -3.20036 -4.17688 0
M  V30 3670 O 346.324 -3.93697 -4.11086 0
M  V30 3671 N 347.526 -2.43467 -5.26976 0
M  V30 3672 H 350.291 -2.74139 -1.21111 0
M  V30 3673 H 347.852 -1.53373 -0.518499 0
M  V30 3674 H 349.844 -1.87167 -3.58818 0
M  V30 3675 H 348.414 -1.01826 -2.95551 0
M  V30 3676 H 347.634 -3.34614 -2.08391 0
M  V30 3677 H 348.922 -4.05354 -3.07515 0
M  V30 3678 H 348.32 -1.83201 -5.35214 0
M  V30 3679 H 346.877 -2.4708 -6.03154 0
M  V30 3680 N 350.31 0.590341 -1.46126 0
M  V30 3681 C 351.535 1.37991 -1.54833 0
M  V30 3682 C 351.96 1.87163 -0.187506 0
M  V30 3683 O 351.318 1.61133 0.831008 0
M  V30 3684 C 351.366 2.54867 -2.55098 0
M  V30 3685 O 350.47 3.56061 -2.08073 0
M  V30 3686 H 349.811 0.411265 -0.521303 0
M  V30 3687 H 352.341 0.716819 -1.91632 0
M  V30 3688 H 352.351 3.01886 -2.74461 0
M  V30 3689 H 351.026 2.18429 -3.53923 0
M  V30 3690 H 349.603 3.15574 -1.98664 0
M  V30 3691 N 351.788 1.33704 0.83433 0
M  V30 3692 C 353.035 1.25417 1.58987 0
M  V30 3693 C 353.363 -0.178869 1.93676 0
M  V30 3694 O 352.618 -1.13723 1.59265 0
M  V30 3695 C 352.917 2.07926 2.90692 0
M  V30 3696 C 352.583 3.57066 2.75345 0
M  V30 3697 C 351.245 3.97724 2.70867 0
M  V30 3698 C 353.597 4.51817 2.59828 0
M  V30 3699 C 350.925 5.31344 2.48778 0
M  V30 3700 C 353.277 5.85604 2.39272 0
M  V30 3701 C 351.941 6.25439 2.33199 0
M  V30 3702 H 351.211 0.458934 0.581774 0
M  V30 3703 H 353.858 1.65335 0.966261 0
M  V30 3704 H 352.163 1.608 3.57282 0
M  V30 3705 H 353.86 1.98868 3.48213 0
M  V30 3706 H 350.45 3.24785 2.79665 0
M  V30 3707 H 354.634 4.21311 2.62319 0
M  V30 3708 H 349.89 5.61241 2.42526 0
M  V30 3709 H 354.064 6.58623 2.2625 0
M  V30 3710 H 351.691 7.28914 2.15843 0
M  V30 3711 N 353.266 -1.05314 1.17247 0
M  V30 3712 C 354.491 -1.82509 0.985148 0
M  V30 3713 C 354.916 -1.82343 -0.461788 0
M  V30 3714 O 354.274 -1.23151 -1.33055 0
M  V30 3715 C 354.322 -3.26566 1.52929 0
M  V30 3716 O 353.426 -4.05666 0.742225 0
M  V30 3717 H 352.767 -0.564347 0.349869 0
M  V30 3718 H 355.297 -1.32718 1.55715 0
M  V30 3719 H 355.307 -3.77369 1.55103 0
M  V30 3720 H 353.982 -3.26001 2.58256 0
M  V30 3721 H 352.559 -3.64397 0.791794 0
M  V30 3722 N 354.744 -0.972509 -1.24016 0
M  V30 3723 C 355.972 -0.654803 -1.96265 0
M  V30 3724 C 356.387 0.776708 -1.72083 0
M  V30 3725 O 355.744 1.52171 -1.00748 0
M  V30 3726 C 355.795 -0.92592 -3.49441 0
M  V30 3727 O 355.516 -2.30116 -3.72798 0
M  V30 3728 C 357.017 -0.623068 -4.38899 0
M  V30 3729 H 354.237 -0.243907 -0.6251 0
M  V30 3730 H 356.781 -1.30175 -1.57717 0
M  V30 3731 H 354.936 -0.325108 -3.86033 0
M  V30 3732 H 355.35 -2.38483 -4.67147 0
M  V30 3733 H 356.824 -0.863189 -5.45209 0
M  V30 3734 H 357.301 0.442754 -4.36963 0
M  V30 3735 H 357.907 -1.204 -4.07902 0
M  V30 3736 N 356.222 1.38976 -0.743202 0
M  V30 3737 C 357.499 1.94351 -0.220705 0
M  V30 3738 C 357.879 1.67935 1.2791 0
M  V30 3739 O 357.227 1.01211 2.04862 0
M  V30 3740 C 357.437 3.44426 -0.563171 0
M  V30 3741 C 358.785 4.2144 -0.517046 0
M  V30 3742 O 359.809 3.52661 -0.500846 0
M  V30 3743 O 358.668 5.44032 -0.518806 0
M  V30 3744 H 355.762 0.825879 -0.043047 0
M  V30 3745 H 358.308 1.48429 -0.822618 0
M  V30 3746 H 357.08 3.5712 -1.59941 0
M  V30 3747 H 356.703 3.97543 0.0672883 0
M  V30 3748 N 357.7 0.491464 1.49741 0
M  V30 3749 C 358.663 -0.280906 2.27472 0
M  V30 3750 C 359.663 -0.902454 1.33088 0
M  V30 3751 O 360.853 -0.768465 1.56334 0
M  V30 3752 C 357.985 -1.40209 3.10732 0
M  V30 3753 H 359.178 0.401056 2.97206 0
M  V30 3754 H 356.731 0.246131 1.5435 0
M  V30 3755 H 357.466 -2.11849 2.45541 0
M  V30 3756 H 357.251 -0.961969 3.80117 0
M  V30 3757 H 358.741 -1.9464 3.69466 0
M  V30 3758 N 359.178 -1.55987 0.224894 0
M  V30 3759 C 360.141 -2.19178 -0.670348 0
M  V30 3760 C 361.141 -1.15461 -1.11917 0
M  V30 3761 O 362.331 -1.40675 -1.02743 0
M  V30 3762 C 359.463 -2.81777 -1.9187 0
M  V30 3763 H 360.656 -2.99662 -0.119364 0
M  V30 3764 H 358.209 -1.5628 -0.0247128 0
M  V30 3765 H 358.944 -2.05172 -2.51147 0
M  V30 3766 H 358.729 -3.57732 -1.60531 0
M  V30 3767 H 360.219 -3.30205 -2.55645 0
M  V30 3768 N 360.656 0.0484629 -1.57525 0
M  V30 3769 C 361.904 0.741657 -1.88 0
M  V30 3770 C 362.225 1.76918 -0.820054 0
M  V30 3771 O 361.495 1.95335 0.148661 0
M  V30 3772 H 360.075 0.276908 -0.69378 0
M  V30 3773 H 362.737 0.019013 -1.94891 0
M  V30 3774 H 361.833 1.24336 -2.86264 0
M  V30 3775 N 362.134 1.5431 0.320358 0
M  V30 3776 C 363.359 1.76954 1.08175 0
M  V30 3777 C 363.784 0.518193 1.80821 0
M  V30 3778 O 363.142 -0.530411 1.73368 0
M  V30 3779 C 363.19 2.96451 2.05303 0
M  V30 3780 O 362.294 2.68221 3.13259 0
M  V30 3781 H 361.635 0.586275 0.311733 0
M  V30 3782 H 364.165 2.01342 0.363676 0
M  V30 3783 H 364.175 3.23887 2.48116 0
M  V30 3784 H 362.85 3.87196 1.51829 0
M  V30 3785 H 361.427 2.51744 2.75099 0
M  V30 3786 N 363.613 -0.582584 1.46437 0
M  V30 3787 C 365.029 -0.905962 1.31394 0
M  V30 3788 C 365.229 -1.99468 0.285476 0
M  V30 3789 O 364.285 -2.50566 -0.311914 0
M  V30 3790 C 365.598 -1.3232 2.70022 0
M  V30 3791 C 367.146 -1.43604 2.78113 0
M  V30 3792 C 367.621 -1.88694 4.17323 0
M  V30 3793 N 369.112 -1.95887 4.19741 0
M  V30 3794 C 369.847 -2.32051 5.24347 0
M  V30 3795 N 369.343 -2.67006 6.39281 0
M  V30 3796 N 371.136 -2.32606 5.11713 0
M  V30 3797 H 363.287 0.1366 2.1196 0
M  V30 3798 H 365.55 -0.00155736 0.947999 0
M  V30 3799 H 365.256 -0.597242 3.46592 0
M  V30 3800 H 365.13 -2.28469 3.00136 0
M  V30 3801 H 367.517 -2.15286 2.01832 0
M  V30 3802 H 367.598 -0.457059 2.51684 0
M  V30 3803 H 367.242 -1.1759 4.941 0
M  V30 3804 H 367.172 -2.8755 4.4116 0
M  V30 3805 H 369.663 -1.71362 3.36814 0
M  V30 3806 H 369.976 -2.93554 7.14875 0
M  V30 3807 H 368.321 -2.64644 6.42642 0
M  V30 3808 H 371.512 -2.04721 4.2096 0
M  V30 3809 H 371.685 -2.60462 5.93349 0
M  V30 3810 N 365.091 -1.34144 -0.827227 0
M  V30 3811 C 366.339 -1.26009 -1.58007 0
M  V30 3812 C 366.66 0.170971 -1.94249 0
M  V30 3813 O 365.93 1.10256 -1.61927 0
M  V30 3814 H 364.51 -0.463414 -0.585881 0
M  V30 3815 H 367.172 -1.68005 -0.987951 0
M  V30 3816 H 366.268 -1.86187 -2.50481 0
M  V30 3817 N 366.569 1.04691 -1.17803 0
M  V30 3818 C 367.817 1.7743 -0.967617 0
M  V30 3819 C 368.138 1.88359 0.504574 0
M  V30 3820 O 367.408 1.40402 1.36617 0
M  V30 3821 H 365.988 0.657242 -0.355024 0
M  V30 3822 H 368.65 1.2638 -1.48371 0
M  V30 3823 H 367.746 2.78924 -1.40027 0
M  V30 3824 N 368.047 0.979072 1.23499 0
M  V30 3825 C 369.272 0.664845 1.96455 0
M  V30 3826 C 369.697 -0.761287 1.72006 0
M  V30 3827 O 369.055 -1.51837 0.990713 0
M  V30 3828 C 369.103 0.959479 3.47601 0
M  V30 3829 O 368.207 0.0508168 4.12369 0
M  V30 3830 H 367.548 0.250185 0.615064 0
M  V30 3831 H 370.078 1.31231 1.5697 0
M  V30 3832 H 370.088 0.895642 3.98048 0
M  V30 3833 H 368.763 1.99876 3.64723 0
M  V30 3834 H 367.34 0.16895 3.72517 0
M  V30 3835 N 369.525 -1.3858 0.750561 0
M  V30 3836 C 370.802 -1.94231 0.231009 0
M  V30 3837 C 371.182 -1.68611 -1.27018 0
M  V30 3838 O 370.53 -1.02296 -2.04323 0
M  V30 3839 C 370.74 -3.44123 0.581428 0
M  V30 3840 C 372.088 -4.2116 0.539389 0
M  V30 3841 O 373.112 -3.52391 0.519541 0
M  V30 3842 O 371.971 -5.43749 0.54765 0
M  V30 3843 H 369.065 -0.825639 0.0474263 0
M  V30 3844 H 371.611 -1.4799 0.830478 0
M  V30 3845 H 370.383 -3.56267 1.61833 0
M  V30 3846 H 370.006 -3.97573 -0.0462047 0
M  V30 3847 N 371.003 -0.499398 -1.49478 0
M  V30 3848 C 372.251 0.0455996 -2.02049 0
M  V30 3849 C 372.572 1.37633 -1.38138 0
M  V30 3850 O 371.842 1.8842 -0.536166 0
M  V30 3851 H 370.422 0.0198416 -0.746736 0
M  V30 3852 H 373.084 -0.656274 -1.83519 0
M  V30 3853 H 372.18 0.176445 -3.11601 0
M  V30 3854 N 372.481 1.55866 -0.233164 0
M  V30 3855 C 373.709 2.02998 0.399905 0
M  V30 3856 C 374.124 1.11274 1.52524 0
M  V30 3857 O 373.481 0.124528 1.82075 0
M  V30 3858 C 373.532 3.4958 0.920639 0
M  V30 3859 O 373.253 4.37808 -0.159834 0
M  V30 3860 C 374.754 4.12411 1.62578 0
M  V30 3861 H 371.974 0.664006 0.0966281 0
M  V30 3862 H 374.518 2.0143 -0.353013 0
M  V30 3863 H 372.673 3.51727 1.62379 0
M  V30 3864 H 373.087 5.23981 0.23337 0
M  V30 3865 H 374.561 5.16711 1.94201 0
M  V30 3866 H 375.038 3.5809 2.54299 0
M  V30 3867 H 375.644 4.14148 0.967553 0
M  V30 3868 N 373.959 -0.0401083 1.57549 0
M  V30 3869 C 375.37 -0.588097 1.77196 0
M  V30 3870 C 375.721 -1.76209 0.862832 0
M  V30 3871 O 374.846 -2.16331 0.0548389 0
M  V30 3872 C 375.441 -1.07363 3.21339 0
M  V30 3873 C 374 -1.56723 3.42221 0
M  V30 3874 C 373.147 -0.50041 2.72747 0
M  V30 3875 H 376.098 0.186119 1.57605 0
M  V30 3876 H 376.119 -1.94143 3.27244 0
M  V30 3877 H 375.631 -0.218975 3.87482 0
M  V30 3878 H 373.732 -2.4441 2.81237 0
M  V30 3879 H 373.845 -1.62234 4.50796 0
M  V30 3880 H 372.209 -0.952894 2.36203 0
M  V30 3881 H 372.992 0.344599 3.41566 0
M  V30 3882 N 375.437 -1.54477 -0.31217 0
M  V30 3883 C 376.853 -1.45442 -0.657185 0
M  V30 3884 C 377.053 -0.63653 -1.91182 0
M  V30 3885 O 376.109 -0.139815 -2.52113 0
M  V30 3886 C 377.422 -2.89287 -0.82058 0
M  V30 3887 C 378.97 -2.9926 -0.917188 0
M  V30 3888 C 379.445 -4.44279 -1.11267 0
M  V30 3889 N 380.936 -4.4794 -1.17914 0
M  V30 3890 C 381.671 -5.57318 -1.34848 0
M  V30 3891 N 381.167 -6.76642 -1.48752 0
M  V30 3892 N 382.96 -5.44986 -1.37647 0
M  V30 3893 H 375.111 -2.06129 0.512313 0
M  V30 3894 H 377.374 -0.933088 0.167485 0
M  V30 3895 H 377.08 -3.51687 0.0302604 0
M  V30 3896 H 376.954 -3.36061 -1.71298 0
M  V30 3897 H 379.341 -2.36981 -1.75852 0
M  V30 3898 H 379.422 -2.558 -0.00101257 0
M  V30 3899 H 379.066 -5.07149 -0.27614 0
M  V30 3900 H 378.996 -4.85359 -2.04289 0
M  V30 3901 H 381.487 -3.61969 -1.08567 0
M  V30 3902 H 381.8 -7.55758 -1.61397 0
M  V30 3903 H 380.145 -6.79529 -1.45828 0
M  V30 3904 H 383.336 -4.50715 -1.26388 0
M  V30 3905 H 383.509 -6.3028 -1.50501 0
M  V30 3906 N 376.915 0.57481 -1.46744 0
M  V30 3907 C 378.163 1.33009 -1.52161 0
M  V30 3908 C 378.484 1.94185 -0.178092 0
M  V30 3909 O 377.754 1.7899 0.796196 0
M  V30 3910 H 376.334 0.493873 -0.560445 0
M  V30 3911 H 378.996 0.672589 -1.82927 0
M  V30 3912 H 378.092 2.13273 -2.27862 0
M  V30 3913 N 378.394 1.34581 0.820102 0
M  V30 3914 C 379.619 1.30333 1.61332 0
M  V30 3915 C 380.044 -0.119339 1.87721 0
M  V30 3916 O 379.402 -1.08197 1.45475 0
M  V30 3917 C 379.45 2.10258 2.92957 0
M  V30 3918 O 378.554 1.47404 3.85157 0
M  V30 3919 H 377.895 0.447488 0.490561 0
M  V30 3920 H 380.425 1.77425 1.01889 0
M  V30 3921 H 380.435 2.21718 3.42498 0
M  V30 3922 H 379.11 3.13693 2.73074 0
M  V30 3923 H 377.687 1.44703 3.43679 0
M  V30 3924 N 379.872 -1.04064 1.18357 0
M  V30 3925 C 381.283 -1.58719 0.98312 0
M  V30 3926 C 381.634 -1.90556 -0.467193 0
M  V30 3927 O 380.759 -1.69561 -1.34454 0
M  V30 3928 C 381.354 -2.88379 1.77828 0
M  V30 3929 C 379.913 -3.3965 1.62218 0
M  V30 3930 C 379.06 -2.13235 1.77274 0
M  V30 3931 H 382.011 -0.867359 1.32901 0
M  V30 3932 H 382.032 -3.58773 1.26737 0
M  V30 3933 H 381.544 -2.65176 2.83379 0
M  V30 3934 H 379.645 -3.67866 0.592036 0
M  V30 3935 H 379.758 -4.13475 2.42023 0
M  V30 3936 H 378.122 -2.24542 1.20221 0
M  V30 3937 H 378.905 -1.92487 2.8426 0
M  V30 3938 N 381.35 -0.985608 -1.22978 0
M  V30 3939 C 382.575 -0.675254 -1.961 0
M  V30 3940 C 383 0.752154 -1.72407 0
M  V30 3941 O 382.358 1.5131 -0.998751 0
M  V30 3942 C 382.406 -0.977899 -3.47087 0
M  V30 3943 O 381.51 -0.072685 -4.12336 0
M  V30 3944 H 380.851 -0.253443 -0.613728 0
M  V30 3945 H 383.381 -1.32061 -1.56272 0
M  V30 3946 H 383.391 -0.916739 -3.97567 0
M  V30 3947 H 382.066 -2.01807 -3.63657 0
M  V30 3948 H 380.643 -0.188703 -3.72422 0
M  V30 3949 N 382.828 1.3818 -0.7579 0
M  V30 3950 C 384.239 1.82726 -0.383134 0
M  V30 3951 C 384.59 1.63214 1.08884 0
M  V30 3952 O 383.715 1.13566 1.84205 0
M  V30 3953 C 384.31 3.31728 -0.688631 0
M  V30 3954 C 382.869 3.74606 -0.367091 0
M  V30 3955 C 382.016 2.60896 -0.939599 0
M  V30 3956 H 384.967 1.26847 -0.953699 0
M  V30 3957 H 384.988 3.80487 0.0316492 0
M  V30 3958 H 384.5 3.45898 -1.76001 0
M  V30 3959 H 382.601 3.66013 0.697532 0
M  V30 3960 H 382.714 4.71215 -0.865658 0
M  V30 3961 H 381.078 2.52075 -0.3647 0
M  V30 3962 H 381.861 2.77864 -2.0161 0
M  V30 3963 N 384.306 0.507319 1.49211 0
M  V30 3964 C 385.269 -0.256763 2.27757 0
M  V30 3965 C 386.269 -0.888287 1.34038 0
M  V30 3966 O 387.459 -0.751841 1.5714 0
M  V30 3967 C 384.591 -1.36905 3.12202 0
M  V30 3968 H 385.784 0.432557 2.96764 0
M  V30 3969 H 383.337 0.262488 1.5408 0
M  V30 3970 H 384.072 -2.09233 2.47775 0
M  V30 3971 H 383.857 -0.921599 3.81115 0
M  V30 3972 H 385.347 -1.9071 3.7151 0
M  V30 3973 N 385.784 -1.5574 0.241426 0
M  V30 3974 C 387.009 -2.0366 -0.392111 0
M  V30 3975 C 387.434 -1.11969 -1.51144 0
M  V30 3976 O 386.792 -0.111594 -1.80956 0
M  V30 3977 C 386.84 -3.49638 -0.882371 0
M  V30 3978 O 385.944 -3.6108 -1.99235 0
M  V30 3979 H 385.285 -0.658379 -0.0862122 0
M  V30 3980 H 387.815 -2.01302 0.365881 0
M  V30 3981 H 387.825 -3.90351 -1.18702 0
M  V30 3982 H 386.5 -4.15852 -0.0632361 0
M  V30 3983 H 385.077 -3.32262 -1.69282 0
M  V30 3984 N 387.262 0.0317525 -1.57568 0
M  V30 3985 C 388.508 0.724175 -1.8943 0
M  V30 3986 C 388.841 1.75149 -0.838836 0
M  V30 3987 O 388.116 1.93948 0.146422 0
M  V30 3988 C 388.399 1.39615 -3.31933 0
M  V30 3989 C 388.252 0.382537 -4.4817 0
M  V30 3990 C 389.571 2.33084 -3.73309 0
M  V30 3991 H 386.69 0.261797 -0.688935 0
M  V30 3992 H 389.332 -0.013017 -1.89996 0
M  V30 3993 H 387.482 2.02451 -3.31581 0
M  V30 3994 H 389.154 -0.243689 -4.60656 0
M  V30 3995 H 387.397 -0.29844 -4.32772 0
M  V30 3996 H 388.068 0.891145 -5.44759 0
M  V30 3997 H 390.544 1.80295 -3.7501 0
M  V30 3998 H 389.42 2.77084 -4.73831 0
M  V30 3999 H 389.681 3.19643 -3.05419 0
M  V30 4000 N 388.74 1.54641 0.303973 0
M  V30 4001 C 389.965 1.78092 1.06292 0
M  V30 4002 C 390.39 0.537342 1.80262 0
M  V30 4003 O 389.748 -0.511993 1.7392 0
M  V30 4004 C 389.796 2.98612 2.02147 0
M  V30 4005 O 388.9 2.71528 3.10397 0
M  V30 4006 H 388.241 0.589548 0.305497 0
M  V30 4007 H 390.771 2.01716 0.3423 0
M  V30 4008 H 390.781 3.265 2.44667 0
M  V30 4009 H 389.456 3.88785 1.47714 0
M  V30 4010 H 388.033 2.54648 2.72413 0
M  V30 4011 N 390.218 -0.567019 1.47046 0
M  V30 4012 C 391.443 -1.3551 1.57009 0
M  V30 4013 C 391.868 -1.86841 0.217259 0
M  V30 4014 O 391.226 -1.62435 -0.805268 0
M  V30 4015 C 391.274 -2.50777 2.5912 0
M  V30 4016 O 390.378 -3.52706 2.13711 0
M  V30 4017 H 389.719 -0.402919 0.52778 0
M  V30 4018 H 392.249 -0.686241 1.92748 0
M  V30 4019 H 392.259 -2.97481 2.79229 0
M  V30 4020 H 390.934 -2.12771 3.57353 0
M  V30 4021 H 389.511 -3.12374 2.03659 0
M  V30 4022 N 391.696 -1.35014 -0.812953 0
M  V30 4023 C 392.944 -1.27678 -1.56661 0
M  V30 4024 C 393.265 0.150359 -1.94419 0
M  V30 4025 O 392.535 1.08532 -1.63088 0
M  V30 4026 H 391.115 -0.469602 -0.580933 0
M  V30 4027 H 393.777 -1.69043 -0.970076 0
M  V30 4028 H 392.873 -1.88833 -2.48492 0
M  V30 4029 N 393.175 1.03435 -1.18907 0
M  V30 4030 C 394.591 1.28973 -0.940111 0
M  V30 4031 C 394.791 1.97676 0.390691 0
M  V30 4032 O 393.847 2.26127 1.12352 0
M  V30 4033 C 395.16 2.14221 -2.11021 0
M  V30 4034 C 396.708 2.27547 -2.14922 0
M  V30 4035 C 397.183 3.16164 -3.31367 0
M  V30 4036 N 398.674 3.23752 -3.31269 0
M  V30 4037 C 399.409 3.92495 -4.18014 0
M  V30 4038 N 398.905 4.63515 -5.14904 0
M  V30 4039 N 400.698 3.88838 -4.05908 0
M  V30 4040 H 392.849 0.57252 -2.04538 0
M  V30 4041 H 395.112 0.315184 -0.894071 0
M  V30 4042 H 394.818 1.71054 -3.073 0
M  V30 4043 H 394.692 3.14919 -2.0762 0
M  V30 4044 H 397.079 2.69947 -1.19217 0
M  V30 4045 H 397.16 1.26418 -2.22378 0
M  V30 4046 H 396.804 2.74474 -4.27348 0
M  V30 4047 H 396.734 4.17339 -3.21148 0
M  V30 4048 H 399.225 2.73167 -2.61129 0
M  V30 4049 H 399.538 5.13583 -5.77453 0
M  V30 4050 H 397.883 4.62398 -5.18857 0
M  V30 4051 H 401.074 3.32491 -3.29495 0
M  V30 4052 H 401.247 4.4214 -4.73726 0
M  V30 4053 N 394.653 0.992116 1.22453 0
M  V30 4054 C 395.6 0.541731 2.24352 0
M  V30 4055 C 396.57 -0.425519 1.60557 0
M  V30 4056 O 397.755 -0.330453 1.87917 0
M  V30 4057 C 394.895 -0.138248 3.44823 0
M  V30 4058 C 394.008 0.870649 4.23136 0
M  V30 4059 C 393.143 0.164269 5.30946 0
M  V30 4060 C 392.182 1.16159 6.00977 0
M  V30 4061 N 391.319 0.483568 7.00433 0
M  V30 4062 H 396.159 1.41541 2.62241 0
M  V30 4063 H 393.696 0.709013 1.28885 0
M  V30 4064 H 395.654 -0.5494 4.13567 0
M  V30 4065 H 394.284 -0.975721 3.077 0
M  V30 4066 H 393.336 1.40013 3.53696 0
M  V30 4067 H 394.648 1.63014 4.7141 0
M  V30 4068 H 393.802 -0.303653 6.0594 0
M  V30 4069 H 392.541 -0.627733 4.83643 0
M  V30 4070 H 391.546 1.64015 5.24766 0
M  V30 4071 H 392.771 1.95445 6.50368 0
M  V30 4072 H 390.717 -0.289012 6.55363 0
M  V30 4073 H 390.634 1.18152 7.4671 0
M  V30 4074 H 391.902 0.0384219 7.79491 0
M  V30 4075 N 396.131 -1.37776 0.765217 0
M  V30 4076 C 397.356 -2.04651 0.336537 0
M  V30 4077 C 397.781 -1.57337 -1.03086 0
M  V30 4078 O 397.139 -0.730621 -1.65927 0
M  V30 4079 C 397.187 -3.58577 0.381468 0
M  V30 4080 O 396.291 -4.07706 -0.62042 0
M  V30 4081 H 395.632 -0.64756 0.146838 0
M  V30 4082 H 398.162 -1.76221 1.03959 0
M  V30 4083 H 398.172 -4.07314 0.236448 0
M  V30 4084 H 396.847 -3.9237 1.37907 0
M  V30 4085 H 395.424 -3.70306 -0.439056 0
M  V30 4086 N 397.609 -0.515225 -1.4894 0
M  V30 4087 C 399.02 -0.0710067 -1.86565 0
M  V30 4088 C 399.371 1.34733 -1.42623 0
M  V30 4089 O 398.496 2.00653 -0.810379 0
M  V30 4090 C 399.091 -0.122083 -3.3858 0
M  V30 4091 C 397.65 0.266863 -3.75453 0
M  V30 4092 C 396.797 -0.488376 -2.72966 0
M  V30 4093 H 399.748 -0.727266 -1.41055 0
M  V30 4094 H 399.769 0.669818 -3.74558 0
M  V30 4095 H 399.281 -1.15448 -3.70531 0
M  V30 4096 H 397.382 1.30196 -3.49113 0
M  V30 4097 H 397.495 -0.0624811 -4.79059 0
M  V30 4098 H 395.859 0.0635622 -2.54621 0
M  V30 4099 H 396.642 -1.52113 -3.07761 0
M  V30 4100 N 399.087 1.5561 -0.249682 0
M  V30 4101 C 400.037 2.18157 0.662673 0
M  V30 4102 C 401.021 1.1383 1.13717 0
M  V30 4103 O 402.213 1.39731 1.08648 0
M  V30 4104 C 399.342 2.88672 1.85805 0
M  V30 4105 C 398.428 4.00258 1.40193 0
M  V30 4106 N 398.819 5.01473 0.660213 0
M  V30 4107 C 397.117 4.12864 1.68698 0
M  V30 4108 C 397.818 5.80155 0.423695 0
M  V30 4109 N 396.794 5.34533 0.988721 0
M  V30 4110 H 400.596 2.93769 0.0878688 0
M  V30 4111 H 398.11 1.62316 -0.0521183 0
M  V30 4112 H 400.107 3.31912 2.5227 0
M  V30 4113 H 398.767 2.14564 2.43705 0
M  V30 4114 H 399.778 5.16971 0.310047 0
M  V30 4115 H 396.455 3.4993 2.27717 0
M  V30 4116 H 397.845 6.71688 -0.168616 0
M  V30 4117 N 400.565 -0.0233959 1.57583 0
M  V30 4118 C 401.79 -0.728376 1.94189 0
M  V30 4119 C 402.215 -1.67793 0.850119 0
M  V30 4120 O 401.573 -1.80262 -0.19371 0
M  V30 4121 C 401.621 -1.45669 3.29868 0
M  V30 4122 O 400.725 -2.57013 3.22518 0
M  V30 4123 H 400.066 -0.195493 0.63457 0
M  V30 4124 H 402.596 0.0228214 2.04587 0
M  V30 4125 H 402.606 -1.82535 3.6489 0
M  V30 4126 H 401.281 -0.760314 4.08891 0
M  V30 4127 H 399.858 -2.22648 2.99136 0
M  V30 4128 N 402.043 -1.548 -0.295768 0
M  V30 4129 C 402.99 -1.86113 -1.36494 0
M  V30 4130 C 403.96 -0.7105 -1.50137 0
M  V30 4131 O 405.145 -0.959626 -1.64912 0
M  V30 4132 C 402.285 -2.11861 -2.72413 0
M  V30 4133 C 401.398 -3.39471 -2.67177 0
M  V30 4134 C 400.533 -3.55035 -3.95125 0
M  V30 4135 C 399.572 -4.76418 -3.84308 0
M  V30 4136 N 398.709 -4.8876 -5.04042 0
M  V30 4137 H 403.549 -2.77314 -1.09091 0
M  V30 4138 H 401.086 -1.37315 -0.52753 0
M  V30 4139 H 403.044 -2.24786 -3.51464 0
M  V30 4140 H 401.674 -1.2392 -2.98066 0
M  V30 4141 H 400.726 -3.35139 -1.79962 0
M  V30 4142 H 402.038 -4.28646 -2.55076 0
M  V30 4143 H 401.192 -3.67653 -4.82614 0
M  V30 4144 H 399.931 -2.64002 -4.10066 0
M  V30 4145 H 398.936 -4.63827 -2.95202 0
M  V30 4146 H 400.161 -5.68863 -3.70906 0
M  V30 4147 H 398.107 -4.00652 -5.19436 0
M  V30 4148 H 398.024 -5.71945 -4.94384 0
M  V30 4149 H 399.292 -5.0574 -5.93167 0
M  V30 4150 N 403.521 0.559213 -1.47345 0
M  V30 4151 C 404.746 1.34676 -1.57725 0
M  V30 4152 C 405.171 1.86723 -0.227164 0
M  V30 4153 O 404.529 1.6286 0.796642 0
M  V30 4154 C 404.577 2.49399 -2.60447 0
M  V30 4155 O 403.681 3.51567 -2.15578 0
M  V30 4156 H 403.022 0.400115 -0.52991 0
M  V30 4157 H 405.552 0.676009 -1.93109 0
M  V30 4158 H 405.562 2.95996 -2.80803 0
M  V30 4159 H 404.237 2.10873 -3.58477 0
M  V30 4160 H 402.814 3.11289 -2.05313 0
M  V30 4161 N 404.999 1.35443 0.805782 0
M  V30 4162 C 406.41 1.25768 1.37983 0
M  V30 4163 C 406.761 -0.10958 1.95894 0
M  V30 4164 O 405.886 -1.01056 1.91355 0
M  V30 4165 C 406.481 2.27727 2.5085 0
M  V30 4166 C 405.04 2.2179 3.04115 0
M  V30 4167 C 404.187 2.13393 1.77084 0
M  V30 4168 H 407.138 1.4656 0.608752 0
M  V30 4169 H 407.159 1.90422 3.29424 0
M  V30 4170 H 406.671 3.27227 2.08671 0
M  V30 4171 H 404.772 1.25703 3.50756 0
M  V30 4172 H 404.885 3.13788 3.62042 0
M  V30 4173 H 403.249 1.59384 1.98668 0
M  V30 4174 H 404.032 3.14755 1.37056 0
M  V30 4175 N 406.477 -1.02803 1.19454 0
M  V30 4176 C 407.44 -2.09264 0.934955 0
M  V30 4177 C 408.44 -1.60576 -0.0849015 0
M  V30 4178 O 409.63 -1.73554 0.149933 0
M  V30 4179 C 406.762 -3.38482 0.40531 0
M  V30 4180 H 407.955 -2.33726 1.87916 0
M  V30 4181 H 405.508 -1.19426 1.00832 0
M  V30 4182 H 406.243 -3.19689 -0.544899 0
M  V30 4183 H 406.028 -3.75142 1.14065 0
M  V30 4184 H 407.518 -4.16894 0.242806 0
M  V30 4185 N 407.956 -0.998596 -1.21925 0
M  V30 4186 C 408.866 -0.562736 -2.27751 0
M  V30 4187 C 409.882 0.391203 -1.69545 0
M  V30 4188 O 411.058 0.256625 -1.99758 0
M  V30 4189 C 408.123 0.11012 -3.46525 0
M  V30 4190 C 407.184 -0.887495 -4.20026 0
M  V30 4191 C 406.417 -0.246654 -5.3313 0
M  V30 4192 O 406.64 0.958088 -5.62296 0
M  V30 4193 O 405.574 -0.954374 -5.94286 0
M  V30 4194 H 409.4 -1.44329 -2.67213 0
M  V30 4195 H 406.985 -0.767135 -1.28201 0
M  V30 4196 H 408.867 0.486756 -4.18579 0
M  V30 4197 H 407.542 0.965154 -3.08976 0
M  V30 4198 H 406.449 -1.31517 -3.5022 0
M  V30 4199 H 407.782 -1.71191 -4.6147 0
M  V30 4200 N 409.434 1.37368 -0.772513 0
M  V30 4201 C 410.366 2.28899 -0.117502 0
M  V30 4202 C 411.379 1.4867 0.663405 0
M  V30 4203 O 412.568 1.71314 0.501372 0
M  V30 4204 C 409.668 3.2788 0.857192 0
M  V30 4205 C 408.841 4.37207 0.129938 0
M  V30 4206 C 407.9 5.16257 1.01811 0
M  V30 4207 O 406.926 5.67159 0.481601 0
M  V30 4208 N 408.128 5.31058 2.3443 0
M  V30 4209 H 410.893 2.85752 -0.903662 0
M  V30 4210 H 408.454 1.49353 -0.62493 0
M  V30 4211 H 410.446 3.77647 1.45482 0
M  V30 4212 H 409.016 2.7179 1.54432 0
M  V30 4213 H 408.236 3.88827 -0.648605 0
M  V30 4214 H 409.524 5.07434 -0.372559 0
M  V30 4215 H 408.922 4.91287 2.80452 0
M  V30 4216 H 407.479 5.84131 2.89197 0
M  V30 4217 N 410.912 0.523116 1.48665 0
M  V30 4218 C 412.328 0.180511 1.58576 0
M  V30 4219 C 412.528 -1.31597 1.52592 0
M  V30 4220 O 411.584 -2.0937 1.4114 0
M  V30 4221 C 412.897 0.776949 2.90489 0
M  V30 4222 C 414.445 0.745058 3.04003 0
M  V30 4223 C 414.92 1.31995 4.38567 0
M  V30 4224 N 416.411 1.28162 4.45117 0
M  V30 4225 C 417.146 1.6964 5.47731 0
M  V30 4226 N 416.642 2.18816 6.57337 0
M  V30 4227 N 418.435 1.6092 5.38573 0
M  V30 4228 H 410.586 1.4958 1.50797 0
M  V30 4229 H 412.849 0.621772 0.715614 0
M  V30 4230 H 412.555 1.82732 3.00503 0
M  V30 4231 H 412.429 0.25007 3.7637 0
M  V30 4232 H 414.816 -0.296532 2.93606 0
M  V30 4233 H 414.897 1.30933 2.1975 0
M  V30 4234 H 414.541 2.36043 4.49718 0
M  V30 4235 H 414.471 0.731418 5.21496 0
M  V30 4236 H 416.962 0.92155 3.66491 0
M  V30 4237 H 417.275 2.48478 7.31764 0
M  V30 4238 H 415.62 2.22805 6.58318 0
M  V30 4239 H 418.811 1.22304 4.5184 0
M  V30 4240 H 418.984 1.93567 6.18414 0
M  V30 4241 N 412.39 -1.55475 0.257931 0
M  V30 4242 C 413.3 -2.2549 -0.647425 0
M  V30 4243 C 414.316 -1.2748 -1.18427 0
M  V30 4244 O 415.492 -1.6038 -1.2182 0
M  V30 4245 C 412.557 -2.94916 -1.82278 0
M  V30 4246 C 411.618 -4.08363 -1.32432 0
M  V30 4247 C 410.851 -4.74469 -2.44366 0
M  V30 4248 O 411.074 -4.39701 -3.63344 0
M  V30 4249 O 410.008 -5.62763 -2.13497 0
M  V30 4250 H 413.834 -3.03593 -0.0807707 0
M  V30 4251 H 411.419 -1.49377 0.0259962 0
M  V30 4252 H 413.301 -3.38606 -2.50846 0
M  V30 4253 H 411.976 -2.19744 -2.37685 0
M  V30 4254 H 410.883 -3.69166 -0.605605 0
M  V30 4255 H 412.216 -4.85385 -0.816211 0
M  V30 4256 N 413.868 0.0150385 -1.57593 0
M  V30 4257 C 415.284 0.370907 -1.5523 0
M  V30 4258 C 415.484 1.75735 -0.985882 0
M  V30 4259 O 414.54 2.44944 -0.613077 0
M  V30 4260 C 415.853 0.259908 -2.99575 0
M  V30 4261 C 417.401 0.335959 -3.11192 0
M  V30 4262 C 417.876 0.254253 -4.57294 0
M  V30 4263 N 419.367 0.312618 -4.62144 0
M  V30 4264 C 420.102 0.272505 -5.72752 0
M  V30 4265 N 419.598 0.183864 -6.92556 0
M  V30 4266 N 421.391 0.323267 -5.6117 0
M  V30 4267 H 413.542 -0.892104 -1.92757 0
M  V30 4268 H 415.805 -0.340563 -0.884715 0
M  V30 4269 H 415.511 -0.693403 -3.44797 0
M  V30 4270 H 415.385 1.048 -3.62349 0
M  V30 4271 H 417.772 1.27971 -2.65909 0
M  V30 4272 H 417.853 -0.481739 -2.51223 0
M  V30 4273 H 417.497 -0.685887 -5.03247 0
M  V30 4274 H 417.427 1.09024 -5.15191 0
M  V30 4275 H 419.918 0.38307 -3.75953 0
M  V30 4276 H 420.231 0.15874 -7.72637 0
M  V30 4277 H 418.576 0.149708 -6.94839 0
M  V30 4278 H 421.767 0.390607 -4.66467 0
M  V30 4279 H 421.94 0.288539 -6.47357 0
M  V30 4280 N 415.346 1.54954 0.287554 0
M  V30 4281 C 416.293 1.86834 1.35505 0
M  V30 4282 C 417.263 0.718452 1.49758 0
M  V30 4283 O 418.448 0.968358 1.644 0
M  V30 4284 C 415.588 2.13303 2.71286 0
M  V30 4285 C 414.701 3.40883 2.65373 0
M  V30 4286 C 413.836 3.57125 3.93236 0
M  V30 4287 C 412.875 4.78449 3.81776 0
M  V30 4288 N 412.012 4.91426 5.01443 0
M  V30 4289 H 416.852 2.77889 1.07619 0
M  V30 4290 H 414.389 1.37593 0.520241 0
M  V30 4291 H 416.347 2.26646 3.50267 0
M  V30 4292 H 414.977 1.25499 2.97405 0
M  V30 4293 H 414.029 3.36088 1.78182 0
M  V30 4294 H 415.341 4.29993 2.52799 0
M  V30 4295 H 414.495 3.70207 4.80658 0
M  V30 4296 H 413.234 2.66173 4.0866 0
M  V30 4297 H 412.239 4.65386 2.92738 0
M  V30 4298 H 413.464 5.70822 3.67884 0
M  V30 4299 H 411.41 4.03401 5.17304 0
M  V30 4300 H 411.327 5.74559 4.91343 0
M  V30 4301 H 412.595 5.08879 5.90477 0
M  V30 4302 N 416.824 -0.551391 1.4764 0
M  V30 4303 C 418.049 -1.33837 1.58437 0
M  V30 4304 C 418.474 -1.866 0.237063 0
M  V30 4305 O 417.832 -1.6328 -0.787994 0
M  V30 4306 C 417.88 -2.48014 2.61766 0
M  V30 4307 O 416.984 -3.50419 2.1744 0
M  V30 4308 H 416.325 -0.397299 0.532024 0
M  V30 4309 H 418.855 -0.665759 1.93465 0
M  V30 4310 H 418.865 -2.94503 2.82369 0
M  V30 4311 H 417.54 -2.08969 3.5959 0
M  V30 4312 H 416.117 -3.10196 2.06961 0
M  V30 4313 N 418.302 -1.35869 -0.798587 0
M  V30 4314 C 419.232 -1.32118 -1.92528 0
M  V30 4315 C 420.213 -0.194209 -1.68988 0
M  V30 4316 O 421.398 -0.390426 -1.90235 0
M  V30 4317 C 418.528 -1.10047 -3.29404 0
M  V30 4318 C 417.482 -2.19471 -3.67446 0
M  V30 4319 C 416.808 -1.82555 -5.02571 0
M  V30 4320 C 418.108 -3.61495 -3.76987 0
M  V30 4321 H 419.802 -2.26394 -1.95924 0
M  V30 4322 H 417.348 -1.08981 -0.94123 0
M  V30 4323 H 419.301 -1.06061 -4.07835 0
M  V30 4324 H 418.025 -0.122195 -3.26371 0
M  V30 4325 H 416.684 -2.22568 -2.91306 0
M  V30 4326 H 416.332 -0.833249 -4.9605 0
M  V30 4327 H 416.032 -2.5581 -5.28995 0
M  V30 4328 H 417.556 -1.80108 -5.83432 0
M  V30 4329 H 418.97 -3.60676 -4.4563 0
M  V30 4330 H 417.367 -4.33577 -4.14887 0
M  V30 4331 H 418.437 -3.97065 -2.78329 0
M  V30 4332 N 419.78 1.02168 -1.19998 0
M  V30 4333 C 420.743 2.08765 -0.94604 0
M  V30 4334 C 421.743 1.60618 0.0763846 0
M  V30 4335 O 422.933 1.73472 -0.159135 0
M  V30 4336 C 420.065 3.38262 -0.423255 0
M  V30 4337 H 421.258 2.32726 -1.89153 0
M  V30 4338 H 418.811 1.1889 -1.01464 0
M  V30 4339 H 419.546 3.19974 0.527938 0
M  V30 4340 H 419.331 3.74532 -1.16053 0
M  V30 4341 H 420.821 4.16759 -0.264911 0
M  V30 4342 N 421.258 1.00505 1.21394 0
M  V30 4343 C 422.535 0.603277 1.86064 0
M  V30 4344 C 422.915 -0.919095 1.90042 0
M  V30 4345 O 422.263 -1.80607 1.39977 0
M  V30 4346 C 422.473 1.23772 3.26315 0
M  V30 4347 C 423.821 1.34586 4.02705 0
M  V30 4348 O 424.845 1.19304 3.35626 0
M  V30 4349 O 423.704 1.59169 5.22807 0
M  V30 4350 H 420.798 0.206634 0.800769 0
M  V30 4351 H 423.344 1.1017 1.29076 0
M  V30 4352 H 422.116 2.27848 3.18121 0
M  V30 4353 H 421.739 0.725648 3.90922 0
M  V30 4354 N 422.737 -1.36956 0.779787 0
M  V30 4355 C 424.014 -1.93697 0.272156 0
M  V30 4356 C 424.394 -1.71267 -1.23413 0
M  V30 4357 O 423.742 -1.06607 -2.02107 0
M  V30 4358 C 423.952 -3.42812 0.654291 0
M  V30 4359 C 425.3 -4.19921 0.628602 0
M  V30 4360 O 426.324 -3.51209 0.594172 0
M  V30 4361 O 425.183 -5.42465 0.662864 0
M  V30 4362 H 422.277 -0.824447 0.0649286 0
M  V30 4363 H 424.823 -1.46196 0.861682 0
M  V30 4364 H 423.595 -3.52754 1.69353 0
M  V30 4365 H 423.218 -3.97582 0.0381369 0
M  V30 4366 N 424.215 -0.530993 -1.48385 0
M  V30 4367 C 425.162 0.231223 -2.29639 0
M  V30 4368 C 426.132 0.932864 -1.37429 0
M  V30 4369 O 427.317 0.933692 -1.66394 0
M  V30 4370 C 424.457 1.27155 -3.2082 0
M  V30 4371 C 423.57 0.578655 -4.28107 0
M  V30 4372 C 422.705 1.602 -5.06467 0
M  V30 4373 C 421.744 0.892625 -6.05556 0
M  V30 4374 N 420.881 1.86157 -6.76971 0
M  V30 4375 H 425.721 -0.467848 -2.94305 0
M  V30 4376 H 423.258 -0.242556 -1.45086 0
M  V30 4377 H 425.216 1.88703 -3.72085 0
M  V30 4378 H 423.846 1.939 -2.58075 0
M  V30 4379 H 422.898 -0.150782 -3.80101 0
M  V30 4380 H 424.21 0.0217065 -4.98795 0
M  V30 4381 H 423.364 2.29173 -5.61751 0
M  V30 4382 H 422.103 2.19285 -4.35621 0
M  V30 4383 H 421.108 0.188829 -5.49476 0
M  V30 4384 H 422.333 0.307878 -6.78402 0
M  V30 4385 H 420.279 2.44147 -6.08875 0
M  V30 4386 H 420.196 1.35608 -7.43738 0
M  V30 4387 H 421.464 2.54325 -7.36844 0
M  V30 4388 N 425.693 1.55336 -0.266172 0
M  V30 4389 C 426.64 2.22172 0.625165 0
M  V30 4390 C 427.61 1.19211 1.15663 0
M  V30 4391 O 428.795 1.47723 1.20758 0
M  V30 4392 C 425.935 2.93972 1.8076 0
M  V30 4393 C 425.048 4.11632 1.31084 0
M  V30 4394 C 424.183 4.71099 2.45436 0
M  V30 4395 C 423.222 5.8097 1.92718 0
M  V30 4396 N 422.359 6.34538 3.00509 0
M  V30 4397 H 427.199 2.9796 0.0485582 0
M  V30 4398 H 424.736 1.47095 0.0122024 0
M  V30 4399 H 426.694 3.33811 2.50251 0
M  V30 4400 H 425.324 2.20623 2.35638 0
M  V30 4401 H 424.376 3.76975 0.509326 0
M  V30 4402 H 425.688 4.90893 0.884633 0
M  V30 4403 H 424.842 5.13612 3.22936 0
M  V30 4404 H 423.581 3.91096 2.91368 0
M  V30 4405 H 422.586 5.37916 1.13695 0
M  V30 4406 H 423.811 6.62836 1.47733 0
M  V30 4407 H 421.757 5.57433 3.45839 0
M  V30 4408 H 421.674 7.09046 2.62279 0
M  V30 4409 H 422.942 6.81709 3.78011 0
M  V30 4410 N 427.171 -0.0066808 1.57599 0
M  V30 4411 C 428.118 -1.00024 2.08 0
M  V30 4412 C 429.088 -1.34549 0.973943 0
M  V30 4413 O 430.273 -1.44502 1.24595 0
M  V30 4414 C 427.413 -2.2891 2.58252 0
M  V30 4415 C 426.526 -2.00346 3.82734 0
M  V30 4416 C 425.661 -3.23265 4.21513 0
M  V30 4417 C 424.7 -2.90357 5.3885 0
M  V30 4418 N 423.837 -4.05793 5.72954 0
M  V30 4419 H 428.677 -0.563499 2.92624 0
M  V30 4420 H 426.214 -0.266592 1.44664 0
M  V30 4421 H 428.172 -3.04247 2.85464 0
M  V30 4422 H 426.802 -2.70265 1.76512 0
M  V30 4423 H 425.854 -1.15406 3.62471 0
M  V30 4424 H 427.166 -1.72086 4.68175 0
M  V30 4425 H 426.32 -4.06953 4.49971 0
M  V30 4426 H 425.059 -3.54657 3.34768 0
M  V30 4427 H 424.064 -2.05075 5.10122 0
M  V30 4428 H 425.289 -2.60219 6.27266 0
M  V30 4429 H 423.235 -4.37094 4.89167 0
M  V30 4430 H 423.152 -3.81034 6.52954 0
M  V30 4431 H 424.42 -4.90289 6.06001 0
M  V30 4432 N 428.649 -1.55105 -0.279332 0
M  V30 4433 C 429.895 -1.75672 -1.01327 0
M  V30 4434 C 430.228 -0.552739 -1.86168 0
M  V30 4435 O 429.503 0.449827 -1.89227 0
M  V30 4436 C 429.786 -3.05825 -1.90114 0
M  V30 4437 C 429.639 -4.36565 -1.08309 0
M  V30 4438 C 430.958 -3.31975 -2.8893 0
M  V30 4439 H 428.077 -0.639149 -0.366957 0
M  V30 4440 H 430.719 -1.87833 -0.286154 0
M  V30 4441 H 428.869 -2.95588 -2.52111 0
M  V30 4442 H 430.541 -4.58751 -0.484314 0
M  V30 4443 H 428.784 -4.32076 -0.386362 0
M  V30 4444 H 429.455 -5.23946 -1.73737 0
M  V30 4445 H 431.931 -3.41963 -2.37067 0
M  V30 4446 H 430.807 -4.2432 -3.48201 0
M  V30 4447 H 431.068 -2.51309 -3.63725 0
M  V30 4448 N 430.127 0.543554 -1.4793 0
M  V30 4449 C 431.074 1.64942 -1.6144 0
M  V30 4450 C 432.044 1.59692 -0.456903 0
M  V30 4451 O 433.229 1.78321 -0.678688 0
M  V30 4452 C 430.369 3.03238 -1.64744 0
M  V30 4453 C 429.482 3.18823 -2.91506 0
M  V30 4454 C 428.617 4.47599 -2.86057 0
M  V30 4455 C 427.656 4.56664 -4.07584 0
M  V30 4456 N 426.793 5.76811 -4.00292 0
M  V30 4457 H 431.633 1.52733 -2.55884 0
M  V30 4458 H 429.17 0.7438 -1.2691 0
M  V30 4459 H 431.128 3.83339 -1.64641 0
M  V30 4460 H 429.758 3.1425 -0.738017 0
M  V30 4461 H 428.81 2.32064 -3.01414 0
M  V30 4462 H 430.122 3.21384 -3.81463 0
M  V30 4463 H 429.276 5.35975 -2.84281 0
M  V30 4464 H 428.015 4.47538 -1.93807 0
M  V30 4465 H 427.02 3.66697 -4.09651 0
M  V30 4466 H 428.245 4.58474 -5.00978 0
M  V30 4467 H 426.191 5.77673 -3.10853 0
M  V30 4468 H 426.108 5.80808 -4.8394 0
M  V30 4469 H 427.376 6.67512 -4.02553 0
M  V30 4470 N 431.605 1.3629 0.791371 0
M  V30 4471 C 432.553 1.30514 1.92533 0
M  V30 4472 C 433.547 0.197285 1.68247 0
M  V30 4473 O 434.753 0.364176 1.76278 0
M  V30 4474 H 431.128 0.406263 0.632815 0
M  V30 4475 H 433.099 2.26282 1.94523 0
M  V30 4476 C 431.848 1.10933 3.29529 0
M  V30 4477 H 431.171 1.95427 3.48781 0
M  V30 4478 H 432.611 1.10937 4.0923 0
M  V30 4479 C 431.07 -0.186123 3.36385 0
M  V30 4480 O 431.6 -1.17664 3.84081 0
M  V30 4481 N 429.806 -0.230128 2.89687 0
M  V30 4482 H 429.353 0.576545 2.51065 0
M  V30 4483 H 429.311 -1.09658 2.94657 0
M  V30 4484 N 433.083 -1.0153 1.20538 0
M  V30 4485 C 434.013 -2.11972 0.979295 0
M  V30 4486 C 434.994 -1.6985 -0.0921787 0
M  V30 4487 O 436.179 -1.94089 0.0655932 0
M  V30 4488 C 433.309 -3.43201 0.531984 0
M  V30 4489 C 432.263 -3.9907 1.54685 0
M  V30 4490 C 431.589 -5.26082 0.956127 0
M  V30 4491 C 432.889 -4.32313 2.93092 0
M  V30 4492 H 434.583 -2.31143 1.90298 0
M  V30 4493 H 432.129 -1.11079 0.916372 0
M  V30 4494 H 434.082 -4.1985 0.361044 0
M  V30 4495 H 432.806 -3.23792 -0.427327 0
M  V30 4496 H 431.465 -3.2453 1.70517 0
M  V30 4497 H 431.113 -5.02999 -0.0111538 0
M  V30 4498 H 430.813 -5.64426 1.63393 0
M  V30 4499 H 432.337 -6.05386 0.796284 0
M  V30 4500 H 433.751 -4.99845 2.80763 0
M  V30 4501 H 432.148 -4.81774 3.57791 0
M  V30 4502 H 433.218 -3.41025 3.44717 0
M  V30 4503 N 434.561 -1.01147 -1.20859 0
M  V30 4504 C 435.809 -0.696486 -1.89719 0
M  V30 4505 C 436.13 0.775788 -1.78904 0
M  V30 4506 O 435.4 1.55759 -1.18811 0
M  V30 4507 H 433.98 -0.254628 -0.702263 0
M  V30 4508 H 436.642 -1.28197 -1.46804 0
M  V30 4509 H 435.738 -0.975357 -2.96468 0
M  V30 4510 N 436.039 1.36541 -0.78704 0
M  V30 4511 C 437.269 2.03266 -0.369662 0
M  V30 4512 C 437.677 1.59481 1.01796 0
M  V30 4513 O 437.02 0.778612 1.66383 0
M  V30 4514 C 437.082 3.57779 -0.351371 0
M  V30 4515 C 436.746 4.24756 -1.68617 0
M  V30 4516 C 437.743 4.47811 -2.64124 0
M  V30 4517 C 435.428 4.62277 -1.96481 0
M  V30 4518 C 437.422 5.07464 -3.85693 0
M  V30 4519 C 435.109 5.21649 -3.18317 0
M  V30 4520 C 436.107 5.44182 -4.12741 0
M  V30 4521 O 435.795 6.02307 -5.32429 0
M  V30 4522 H 435.527 0.658977 -0.150751 0
M  V30 4523 H 438.081 1.75548 -1.0664 0
M  V30 4524 H 436.311 3.84606 0.401847 0
M  V30 4525 H 438 4.05879 0.0410147 0
M  V30 4526 H 438.766 4.19221 -2.43883 0
M  V30 4527 H 434.645 4.44065 -1.23805 0
M  V30 4528 H 438.189 5.24968 -4.59407 0
M  V30 4529 H 434.086 5.49664 -3.38437 0
M  V30 4530 H 434.854 6.20775 -5.33461 0
M  V30 4531 N 437.518 0.538854 1.48102 0
M  V30 4532 C 438.934 0.19732 1.58376 0
M  V30 4533 C 439.134 -1.29971 1.5398 0
M  V30 4534 O 438.19 -2.07861 1.43352 0
M  V30 4535 C 439.503 0.807716 2.89649 0
M  V30 4536 C 441.051 0.77726 3.03196 0
M  V30 4537 C 441.526 1.36639 4.37143 0
M  V30 4538 N 443.017 1.32875 4.43732 0
M  V30 4539 C 443.752 1.7544 5.45901 0
M  V30 4540 N 443.248 2.25776 6.54979 0
M  V30 4541 N 445.041 1.66623 5.36836 0
M  V30 4542 H 437.192 1.5117 1.49202 0
M  V30 4543 H 439.455 0.629327 0.708979 0
M  V30 4544 H 439.161 1.85909 2.98548 0
M  V30 4545 H 439.035 0.289975 3.76084 0
M  V30 4546 H 441.422 -0.265374 2.93904 0
M  V30 4547 H 441.503 1.33256 2.18349 0
M  V30 4548 H 441.147 2.408 4.47189 0
M  V30 4549 H 441.077 0.786689 5.20691 0
M  V30 4550 H 443.568 0.96037 3.65493 0
M  V30 4551 H 443.881 2.56226 7.29087 0
M  V30 4552 H 442.226 2.29775 6.55918 0
M  V30 4553 H 445.417 1.27089 4.50517 0
M  V30 4554 H 445.59 2.00115 6.16326 0
M  V30 4555 N 438.996 -1.55193 0.274407 0
M  V30 4556 C 440.273 -1.91584 -0.394331 0
M  V30 4557 C 440.653 -1.19858 -1.73774 0
M  V30 4558 O 440.001 -0.3252 -2.26174 0
M  V30 4559 C 440.211 -3.4487 -0.535311 0
M  V30 4560 C 441.559 -4.16636 -0.818534 0
M  V30 4561 O 442.583 -3.5076 -0.620146 0
M  V30 4562 O 441.442 -5.33209 -1.19792 0
M  V30 4563 H 438.536 -0.798349 -0.215794 0
M  V30 4564 H 441.082 -1.66646 0.320507 0
M  V30 4565 H 439.854 -3.89145 0.410141 0
M  V30 4566 H 439.477 -3.75759 -1.29964 0
M  V30 4567 N 440.474 -0.00167713 -1.576 0
M  V30 4568 C 441.699 0.69739 -1.95323 0
M  V30 4569 C 442.124 1.6642 -0.876706 0
M  V30 4570 O 441.482 1.80548 0.165007 0
M  V30 4571 C 441.53 1.40403 -3.32144 0
M  V30 4572 O 440.634 2.5185 -3.26566 0
M  V30 4573 H 439.975 0.185373 -0.637599 0
M  V30 4574 H 442.505 -0.0553665 -2.04525 0
M  V30 4575 H 442.515 1.76707 -3.67748 0
M  V30 4576 H 441.19 0.695167 -4.10049 0
M  V30 4577 H 439.767 2.17861 -3.0264 0
M  V30 4578 N 441.952 1.55251 0.271103 0
M  V30 4579 C 443.2 1.75599 1.00047 0
M  V30 4580 C 443.521 0.561188 1.8675 0
M  V30 4581 O 442.791 -0.423846 1.9126 0
M  V30 4582 H 441.371 0.647562 0.372387 0
M  V30 4583 H 444.033 1.92656 0.294876 0
M  V30 4584 H 443.129 2.65766 1.6363 0
M  V30 4585 N 443.43 -0.535701 1.48216 0
M  V30 4586 C 444.66 -1.3148 1.59363 0
M  V30 4587 C 445.068 -1.8753 0.250844 0
M  V30 4588 O 444.411 -1.66821 -0.769174 0
M  V30 4589 C 444.473 -2.50731 2.57632 0
M  V30 4590 C 444.137 -2.15811 4.02833 0
M  V30 4591 C 445.134 -1.71822 4.90686 0
M  V30 4592 C 442.819 -2.26509 4.48329 0
M  V30 4593 C 444.813 -1.3899 6.22062 0
M  V30 4594 C 442.5 -1.93289 5.79726 0
M  V30 4595 C 443.498 -1.49599 6.66415 0
M  V30 4596 O 443.186 -1.16812 7.95368 0
M  V30 4597 H 442.918 -0.406315 0.540263 0
M  V30 4598 H 445.472 -0.653569 1.94725 0
M  V30 4599 H 443.702 -3.19817 2.1738 0
M  V30 4600 H 445.391 -3.12797 2.58675 0
M  V30 4601 H 446.157 -1.63031 4.56778 0
M  V30 4602 H 442.036 -2.59471 3.81045 0
M  V30 4603 H 445.58 -1.04816 6.89681 0
M  V30 4604 H 441.477 -2.01718 6.13172 0
M  V30 4605 H 442.245 -1.30259 8.08069 0
M  V30 4606 N 444.908 -1.36708 -0.784132 0
M  V30 4607 C 446.138 -1.34203 -1.57077 0
M  V30 4608 C 446.546 0.0774945 -1.89041 0
M  V30 4609 O 445.889 1.04628 -1.50992 0
M  V30 4610 C 445.951 -2.10351 -2.91535 0
M  V30 4611 C 445.615 -3.59405 -2.82272 0
M  V30 4612 C 446.612 -4.53545 -2.54151 0
M  V30 4613 C 444.297 -4.02362 -3.00683 0
M  V30 4614 C 446.291 -5.8862 -2.44551 0
M  V30 4615 C 443.978 -5.37526 -2.90704 0
M  V30 4616 C 444.976 -6.30468 -2.62677 0
M  V30 4617 O 444.664 -7.63149 -2.52702 0
M  V30 4618 H 444.396 -0.461791 -0.493685 0
M  V30 4619 H 446.95 -1.80475 -0.980712 0
M  V30 4620 H 445.18 -1.5875 -3.52612 0
M  V30 4621 H 446.869 -2.00636 -3.52845 0
M  V30 4622 H 447.635 -4.21669 -2.39625 0
M  V30 4623 H 443.514 -3.30389 -3.21503 0
M  V30 4624 H 447.058 -6.61133 -2.22596 0
M  V30 4625 H 442.955 -5.69008 -3.04795 0
M  V30 4626 H 443.723 -7.73331 -2.68144 0
M  V30 4627 N 446.386 1.0089 -1.21074 0
M  V30 4628 C 447.632 1.7497 -1.03717 0
M  V30 4629 C 447.987 1.8764 0.425344 0
M  V30 4630 O 447.28 1.39679 1.3115 0
M  V30 4631 C 447.474 3.16335 -1.66334 0
M  V30 4632 C 447.303 3.17449 -3.18522 0
M  V30 4633 C 446.073 3.2425 -3.87543 0
M  V30 4634 C 448.271 3.02877 -4.15656 0
M  V30 4635 N 446.253 3.14949 -5.26954 0
M  V30 4636 C 447.624 3.0143 -5.41793 0
M  V30 4637 C 449.679 2.8715 -4.06755 0
M  V30 4638 C 448.382 2.85869 -6.60054 0
M  V30 4639 C 450.408 2.72944 -5.24648 0
M  V30 4640 C 449.77 2.72171 -6.49694 0
M  V30 4641 H 445.869 0.650627 -0.43383 0
M  V30 4642 H 448.453 1.19944 -1.53367 0
M  V30 4643 H 446.624 3.69638 -1.19256 0
M  V30 4644 H 448.356 3.78888 -1.42219 0
M  V30 4645 H 445.111 3.31288 -3.38446 0
M  V30 4646 H 445.535 3.13651 -5.9996 0
M  V30 4647 H 450.177 2.86557 -3.10878 0
M  V30 4648 H 447.895 2.8521 -7.56096 0
M  V30 4649 H 451.481 2.61782 -5.19578 0
M  V30 4650 H 450.361 2.61307 -7.39384 0
M  V30 4651 N 447.864 1.01787 1.20321 0
M  V30 4652 C 448.774 0.598898 2.26827 0
M  V30 4653 C 449.79 -0.36418 1.70146 0
M  V30 4654 O 450.966 -0.224812 2.00141 0
M  V30 4655 C 448.031 -0.0549769 3.46656 0
M  V30 4656 C 447.092 0.954205 4.18561 0
M  V30 4657 C 446.325 0.331439 5.3267 0
M  V30 4658 O 446.548 -0.86851 5.63749 0
M  V30 4659 O 445.482 1.0488 5.92692 0
M  V30 4660 H 449.308 1.48562 2.64883 0
M  V30 4661 H 446.893 0.787434 1.26964 0
M  V30 4662 H 448.775 -0.420102 4.19301 0
M  V30 4663 H 447.45 -0.915876 3.10473 0
M  V30 4664 H 446.357 1.37072 3.48083 0
M  V30 4665 H 447.69 1.78511 4.58688 0
M  V30 4666 N 449.342 -1.36122 0.79427 0
M  V30 4667 C 450.588 -1.99406 0.369452 0
M  V30 4668 C 450.921 -1.62886 -1.05743 0
M  V30 4669 O 450.196 -0.886053 -1.73145 0
M  V30 4670 C 450.479 -3.56046 0.538833 0
M  V30 4671 C 450.332 -4.02404 2.00976 0
M  V30 4672 C 451.651 -4.40079 -0.0431359 0
M  V30 4673 H 448.77 -0.724397 0.135712 0
M  V30 4674 H 451.412 -1.61461 1.00151 0
M  V30 4675 H 449.562 -3.885 0.000771004 0
M  V30 4676 H 451.234 -3.80415 2.60926 0
M  V30 4677 H 449.477 -3.53765 2.51063 0
M  V30 4678 H 450.148 -5.11344 2.07922 0
M  V30 4679 H 452.624 -4.14013 0.416228 0
M  V30 4680 H 451.5 -5.48799 0.105374 0
M  V30 4681 H 451.761 -4.27264 -1.13571 0
M  V30 4682 N 450.82 -0.546701 -1.47814 0
M  V30 4683 C 452.231 -0.110564 -1.86372 0
M  V30 4684 C 452.582 1.31678 -1.45449 0
M  V30 4685 O 451.707 1.98889 -0.852758 0
M  V30 4686 C 452.302 -0.193873 -3.38245 0
M  V30 4687 C 450.861 0.187164 -3.75934 0
M  V30 4688 C 450.008 -0.546166 -2.71868 0
M  V30 4689 H 452.959 -0.757022 -1.39481 0
M  V30 4690 H 452.98 0.590218 -3.75895 0
M  V30 4691 H 452.492 -1.23282 -3.67999 0
M  V30 4692 H 450.593 1.22762 -3.51796 0
M  V30 4693 H 450.706 -0.164083 -4.78819 0
M  V30 4694 H 449.07 0.00953904 -2.54698 0
M  V30 4695 H 449.853 -1.58606 -3.04465 0
M  V30 4696 N 452.299 1.55045 -0.282633 0
M  V30 4697 C 453.71 1.85473 0.213655 0
M  V30 4698 C 454.061 1.20465 1.54863 0
M  V30 4699 O 453.186 0.495676 2.10647 0
M  V30 4700 C 453.781 3.36496 0.394445 0
M  V30 4701 C 452.34 3.67022 0.834961 0
M  V30 4702 C 451.487 2.77218 -0.0674081 0
M  V30 4703 H 454.438 1.50478 -0.504202 0
M  V30 4704 H 454.459 3.60007 1.23186 0
M  V30 4705 H 453.971 3.83782 -0.577326 0
M  V30 4706 H 452.072 3.25241 1.81794 0
M  V30 4707 H 452.185 4.74433 0.667075 0
M  V30 4708 H 450.549 2.5069 0.450196 0
M  V30 4709 H 451.332 3.2732 -1.0352 0
M  V30 4710 N 453.777 0.010035 1.57597 0
M  V30 4711 C 455.002 -0.687021 1.95691 0
M  V30 4712 C 455.427 -1.65952 0.885519 0
M  V30 4713 O 454.785 -1.80633 -0.15543 0
M  V30 4714 C 454.833 -1.3864 3.32884 0
M  V30 4715 O 453.937 -2.50115 3.27897 0
M  V30 4716 H 453.278 -0.181989 0.638573 0
M  V30 4717 H 455.808 0.0662122 2.04493 0
M  V30 4718 H 455.818 -1.74754 3.6868 0
M  V30 4719 H 454.493 -0.673411 4.10412 0
M  V30 4720 H 453.07 -2.16253 3.03791 0
M  V30 4721 N 455.255 -1.55392 -0.262866 0
M  V30 4722 C 456.165 -1.92077 -1.34698 0
M  V30 4723 C 457.181 -0.819227 -1.53508 0
M  V30 4724 O 458.357 -1.11921 -1.67439 0
M  V30 4725 C 455.422 -2.19407 -2.68443 0
M  V30 4726 C 454.483 -3.42905 -2.58292 0
M  V30 4727 C 453.716 -3.68921 -3.85659 0
M  V30 4728 O 453.939 -2.97275 -4.8681 0
M  V30 4729 O 452.873 -4.62455 -3.85252 0
M  V30 4730 H 456.699 -2.84384 -1.06581 0
M  V30 4731 H 454.284 -1.42069 -0.462264 0
M  V30 4732 H 456.166 -2.38365 -3.47506 0
M  V30 4733 H 454.841 -1.30282 -2.96325 0
M  V30 4734 H 453.748 -3.29272 -1.7757 0
M  V30 4735 H 455.081 -4.32282 -2.35358 0
M  V30 4736 N 456.733 0.527833 -1.48498 0
M  V30 4737 C 457.979 1.28545 -1.56857 0
M  V30 4738 C 458.312 1.92678 -0.242651 0
M  V30 4739 O 457.587 1.79394 0.751545 0
M  V30 4740 C 457.87 2.37314 -2.70839 0
M  V30 4741 C 457.723 1.77858 -4.13142 0
M  V30 4742 C 459.042 3.39068 -2.80573 0
M  V30 4743 H 456.161 0.466006 -0.570971 0
M  V30 4744 H 458.803 0.587784 -1.8068 0
M  V30 4745 H 456.953 2.96821 -2.50658 0
M  V30 4746 H 458.625 1.22385 -4.44769 0
M  V30 4747 H 456.868 1.08383 -4.20042 0
M  V30 4748 H 457.539 2.56624 -4.88721 0
M  V30 4749 H 460.015 2.89518 -2.98862 0
M  V30 4750 H 458.891 4.12566 -3.6205 0
M  V30 4751 H 459.152 3.9975 -1.88818 0
M  V30 4752 N 458.211 1.37122 0.776871 0
M  V30 4753 C 459.143 1.28342 1.89897 0
M  V30 4754 C 460.156 0.200277 1.61563 0
M  V30 4755 O 461.345 0.456012 1.72577 0
M  V30 4756 C 458.445 0.960427 3.25006 0
M  V30 4757 C 457.618 2.148 3.81025 0
M  V30 4758 C 456.677 1.79608 4.94598 0
M  V30 4759 O 455.703 2.51845 5.10454 0
M  V30 4760 N 456.905 0.737171 5.758 0
M  V30 4761 H 459.67 2.25027 1.97947 0
M  V30 4762 H 457.231 1.3068 0.955739 0
M  V30 4763 H 459.223 0.705942 3.98495 0
M  V30 4764 H 457.793 0.0823066 3.12492 0
M  V30 4765 H 457.013 2.56454 2.99374 0
M  V30 4766 H 458.301 2.9411 4.15183 0
M  V30 4767 H 457.699 0.137637 5.65533 0
M  V30 4768 H 456.256 0.542534 6.49538 0
M  V30 4769 N 459.689 -1.00246 1.21608 0
M  V30 4770 C 460.619 -2.10921 1.00172 0
M  V30 4771 C 461.6 -1.69938 -0.0741587 0
M  V30 4772 O 462.785 -1.94009 0.0861753 0
M  V30 4773 C 459.915 -3.42618 0.568355 0
M  V30 4774 C 458.869 -3.97407 1.58909 0
M  V30 4775 C 458.195 -5.25038 1.01187 0
M  V30 4776 C 459.495 -4.2918 2.97661 0
M  V30 4777 H 461.189 -2.29112 1.92739 0
M  V30 4778 H 458.735 -1.10101 0.928102 0
M  V30 4779 H 460.688 -4.19444 0.405555 0
M  V30 4780 H 459.412 -3.24227 -0.392961 0
M  V30 4781 H 458.071 -3.22703 1.73949 0
M  V30 4782 H 457.719 -5.02982 0.0421965 0
M  V30 4783 H 457.419 -5.62661 1.6937 0
M  V30 4784 H 458.943 -6.04507 0.860448 0
M  V30 4785 H 460.357 -4.96839 2.86049 0
M  V30 4786 H 458.754 -4.77952 3.6288 0
M  V30 4787 H 459.824 -3.3735 3.48315 0
M  V30 4788 N 461.167 -1.02423 -1.1978 0
M  V30 4789 C 462.097 -0.62157 -2.25075 0
M  V30 4790 C 463.078 0.367148 -1.6609 0
M  V30 4791 O 464.263 0.250892 -1.92573 0
M  V30 4792 C 461.393 0.0331826 -3.47284 0
M  V30 4793 C 460.347 -0.877323 -4.18912 0
M  V30 4794 C 459.673 -0.0879296 -5.34628 0
M  V30 4795 C 460.973 -2.18892 -4.74219 0
M  V30 4796 H 462.667 -1.50179 -2.59011 0
M  V30 4797 H 460.213 -0.723547 -1.24502 0
M  V30 4798 H 462.166 0.326488 -4.20133 0
M  V30 4799 H 460.89 0.948164 -3.12534 0
M  V30 4800 H 459.549 -1.15475 -3.47938 0
M  V30 4801 H 459.197 0.828941 -4.96123 0
M  V30 4802 H 458.897 -0.694359 -5.83483 0
M  V30 4803 H 460.421 0.198743 -6.10276 0
M  V30 4804 H 461.835 -1.95746 -5.38847 0
M  V30 4805 H 460.232 -2.74686 -5.33542 0
M  V30 4806 H 461.302 -2.84674 -3.92541 0
M  V30 4807 N 462.645 1.35699 -0.801477 0
M  V30 4808 C 463.592 2.29876 -0.206294 0
M  V30 4809 C 464.562 1.52565 0.656752 0
M  V30 4810 O 465.747 1.81024 0.602906 0
M  V30 4811 C 462.887 3.39052 0.643272 0
M  V30 4812 C 462 4.31335 -0.239644 0
M  V30 4813 C 461.135 5.27599 0.61744 0
M  V30 4814 C 460.174 6.11521 -0.26619 0
M  V30 4815 N 459.311 6.99938 0.550571 0
M  V30 4816 H 464.151 2.80187 -1.01484 0
M  V30 4817 H 461.688 1.37902 -0.511997 0
M  V30 4818 H 463.646 4.0101 1.15094 0
M  V30 4819 H 462.276 2.9003 1.41713 0
M  V30 4820 H 461.328 3.70426 -0.865381 0
M  V30 4821 H 462.64 4.90243 -0.919985 0
M  V30 4822 H 461.794 5.94906 1.19045 0
M  V30 4823 H 460.533 4.69176 1.33137 0
M  V30 4824 H 459.538 5.43166 -0.851507 0
M  V30 4825 H 460.763 6.72022 -0.9779 0
M  V30 4826 H 458.709 6.44008 1.24856 0
M  V30 4827 H 458.626 7.55966 -0.071832 0
M  V30 4828 H 459.894 7.71599 1.10702 0
M  V30 4829 N 464.123 0.554532 1.47522 0
M  V30 4830 C 465.539 0.214107 1.58157 0
M  V30 4831 C 465.739 -1.28331 1.55349 0
M  V30 4832 O 464.795 -2.06329 1.45549 0
M  V30 4833 C 466.108 0.838391 2.88776 0
M  V30 4834 C 467.656 0.809374 3.02354 0
M  V30 4835 C 468.131 1.41268 4.35669 0
M  V30 4836 N 469.622 1.37574 4.42298 0
M  V30 4837 C 470.357 1.8122 5.4401 0
M  V30 4838 N 469.853 2.3271 6.52547 0
M  V30 4839 N 471.646 1.72307 5.35039 0
M  V30 4840 H 463.797 1.52744 1.4759 0
M  V30 4841 H 466.06 0.636812 0.702264 0
M  V30 4842 H 465.766 1.89065 2.96559 0
M  V30 4843 H 465.64 0.329847 3.75755 0
M  V30 4844 H 468.027 -0.234187 2.94169 0
M  V30 4845 H 468.108 1.35565 2.16924 0
M  V30 4846 H 467.752 2.45529 4.4461 0
M  V30 4847 H 467.682 0.841871 5.19827 0
M  V30 4848 H 470.173 0.999081 3.64454 0
M  V30 4849 H 470.486 2.63944 7.26329 0
M  V30 4850 H 468.831 2.36719 6.53444 0
M  V30 4851 H 472.022 1.3186 4.49144 0
M  V30 4852 H 472.195 2.06641 6.14169 0
M  V30 4853 N 465.601 -1.54893 0.290851 0
M  V30 4854 C 466.85 -1.99111 -0.322113 0
M  V30 4855 C 467.163 -1.18283 -1.55784 0
M  V30 4856 O 468.369 -1.5272 -2.24475 0
M  V30 4857 C 466.825 -3.54442 -0.624438 0
M  V30 4858 C 466.433 -4.44066 0.592373 0
M  V30 4859 C 468.177 -4.07211 -1.19916 0
M  V30 4860 C 466.084 -5.90812 0.263762 0
M  V30 4861 H 465.014 -0.743712 -0.124133 0
M  V30 4862 H 467.665 -1.79132 0.39797 0
M  V30 4863 H 466.047 -3.70281 -1.40384 0
M  V30 4864 H 467.221 -4.39999 1.36886 0
M  V30 4865 H 465.536 -4.02015 1.08502 0
M  V30 4866 H 468.133 -5.14407 -1.45909 0
M  V30 4867 H 468.476 -3.57196 -2.13815 0
M  V30 4868 H 469.009 -3.94873 -0.481687 0
M  V30 4869 H 465.748 -6.44955 1.17105 0
M  V30 4870 H 465.268 -5.97911 -0.475655 0
M  V30 4871 H 466.947 -6.46852 -0.138354 0
M  V30 4872 N 467.08 -0.0183926 -1.57589 0
M  V30 4873 C 468.328 0.661253 -1.90976 0
M  V30 4874 C 468.649 1.73281 -0.894353 0
M  V30 4875 O 467.919 1.9579 0.0656788 0
M  V30 4876 H 466.499 0.247233 -0.704901 0
M  V30 4877 H 469.161 -0.0636639 -1.94796 0
M  V30 4878 H 468.257 1.12083 -2.9128 0
M  V30 4879 N 468.558 1.5553 0.254621 0
M  V30 4880 C 469.786 1.81046 1.00149 0
M  V30 4881 C 470.201 0.593047 1.79244 0
M  V30 4882 O 469.558 -0.438196 1.77161 0
M  V30 4883 C 469.609 3.04684 1.94551 0
M  V30 4884 O 469.33 4.21725 1.18658 0
M  V30 4885 C 470.831 3.42943 2.80901 0
M  V30 4886 H 468.051 0.602653 0.295044 0
M  V30 4887 H 470.595 2.02576 0.279842 0
M  V30 4888 H 468.75 2.85226 2.62154 0
M  V30 4889 H 469.164 4.91746 1.82445 0
M  V30 4890 H 470.638 4.32576 3.42902 0
M  V30 4891 H 471.115 2.63176 3.51617 0
M  V30 4892 H 471.721 3.64724 2.18762 0
M  V30 4893 N 470.036 -0.519951 1.48776 0
M  V30 4894 C 471.284 -1.2727 1.56993 0
M  V30 4895 C 471.605 -1.9339 0.25004 0
M  V30 4896 O 470.875 -1.81822 -0.729216 0
M  V30 4897 H 469.455 -0.472732 0.578389 0
M  V30 4898 H 472.117 -0.604234 1.85297 0
M  V30 4899 H 471.213 -2.04669 2.3562 0
M  V30 4900 N 471.514 -1.37532 -0.769588 0
M  V30 4901 C 472.739 -1.36231 -1.56384 0
M  V30 4902 C 473.164 0.0495849 -1.88035 0
M  V30 4903 O 472.522 1.02723 -1.49391 0
M  V30 4904 C 472.57 -2.20986 -2.84952 0
M  V30 4905 O 471.674 -1.61597 -3.79421 0
M  V30 4906 H 471.015 -0.465387 -0.473615 0
M  V30 4907 H 473.545 -1.81085 -0.952342 0
M  V30 4908 H 473.555 -2.34277 -3.34034 0
M  V30 4909 H 472.23 -3.23612 -2.61243 0
M  V30 4910 H 470.807 -1.57359 -3.38072 0
M  V30 4911 N 472.992 0.995999 -1.22138 0
M  V30 4912 C 474.239 1.7351 -1.04406 0
M  V30 4913 C 474.567 1.89884 0.421244 0
M  V30 4914 O 473.822 1.43683 1.32867 0
M  V30 4915 C 474.121 3.14553 -1.6968 0
M  V30 4916 C 473.787 3.18102 -3.19565 0
M  V30 4917 C 472.449 3.18778 -3.60464 0
M  V30 4918 C 474.801 3.14636 -4.15516 0
M  V30 4919 C 472.129 3.13684 -4.95801 0
M  V30 4920 C 474.481 3.11084 -5.50826 0
M  V30 4921 C 473.145 3.10074 -5.91109 0
M  V30 4922 H 472.415 0.634916 -0.38205 0
M  V30 4923 H 475.062 1.1667 -1.51857 0
M  V30 4924 H 473.367 3.74682 -1.14546 0
M  V30 4925 H 475.064 3.70477 -1.53454 0
M  V30 4926 H 471.654 3.18324 -2.86998 0
M  V30 4927 H 475.838 3.13266 -3.84939 0
M  V30 4928 H 471.094 3.11245 -5.26247 0
M  V30 4929 H 475.268 3.07357 -6.24904 0
M  V30 4930 H 472.895 3.05882 -6.95946 0
M  V30 4931 N 474.47 1.03057 1.19235 0
M  V30 4932 C 475.718 0.726581 1.88587 0
M  V30 4933 C 476.039 -0.747227 1.80115 0
M  V30 4934 O 475.309 -1.53849 1.21274 0
M  V30 4935 H 473.889 0.265768 0.698124 0
M  V30 4936 H 476.551 1.30516 1.44746 0
M  V30 4937 H 475.647 1.0224 2.94879 0
M  V30 4938 N 475.948 -1.35272 0.808662 0
M  V30 4939 C 477.176 -2.02946 0.402537 0
M  V30 4940 C 477.591 -1.60937 -0.987147 0
M  V30 4941 O 476.948 -0.807917 -1.63643 0
M  V30 4942 C 476.999 -3.58317 0.47868 0
M  V30 4943 O 476.72 -3.98799 1.81358 0
M  V30 4944 C 478.221 -4.43251 0.0656281 0
M  V30 4945 H 475.441 -0.650831 0.163279 0
M  V30 4946 H 477.985 -1.72849 1.09286 0
M  V30 4947 H 476.14 -3.87055 -0.163415 0
M  V30 4948 H 476.554 -4.93451 1.77781 0
M  V30 4949 H 478.028 -5.51738 0.170017 0
M  V30 4950 H 478.505 -4.27913 -0.989278 0
M  V30 4951 H 479.111 -4.19813 0.68096 0
M  V30 4952 N 477.426 -0.562348 -1.47226 0
M  V30 4953 C 478.672 -0.0402761 -2.0276 0
M  V30 4954 C 479.005 1.30823 -1.43523 0
M  V30 4955 O 478.28 1.85249 -0.592705 0
M  V30 4956 C 478.563 0.047311 -3.60069 0
M  V30 4957 C 478.416 -1.32865 -4.29729 0
M  V30 4958 C 479.735 0.758182 -4.3352 0
M  V30 4959 H 476.854 -0.0161105 -0.736824 0
M  V30 4960 H 479.496 -0.725628 -1.75598 0
M  V30 4961 H 477.646 0.630986 -3.83342 0
M  V30 4962 H 479.318 -1.95593 -4.17781 0
M  V30 4963 H 477.561 -1.90195 -3.89882 0
M  V30 4964 H 478.232 -1.22004 -5.38349 0
M  V30 4965 H 480.708 0.262546 -4.15271 0
M  V30 4966 H 479.584 0.78844 -5.43208 0
M  V30 4967 H 479.845 1.81537 -4.03109 0
M  V30 4968 N 478.904 1.54736 -0.299062 0
M  V30 4969 C 480.151 2.00101 0.310784 0
M  V30 4970 C 480.479 1.18746 1.54045 0
M  V30 4971 O 479.734 0.251198 1.94081 0
M  V30 4972 C 480.033 3.50199 0.713835 0
M  V30 4973 C 479.699 4.48997 -0.413873 0
M  V30 4974 C 478.361 4.7573 -0.723462 0
M  V30 4975 C 480.713 5.07839 -1.17257 0
M  V30 4976 C 478.041 5.5857 -1.79491 0
M  V30 4977 C 480.393 5.91844 -2.23392 0
M  V30 4978 C 479.057 6.16889 -2.54959 0
M  V30 4979 H 478.327 0.732221 0.113724 0
M  V30 4980 H 480.974 1.86888 -0.417756 0
M  V30 4981 H 479.279 3.61012 1.52243 0
M  V30 4982 H 480.976 3.82723 1.19684 0
M  V30 4983 H 477.566 4.28292 -0.162476 0
M  V30 4984 H 481.75 4.87188 -0.946651 0
M  V30 4985 H 477.006 5.76213 -2.04423 0
M  V30 4986 H 481.18 6.36465 -2.8264 0
M  V30 4987 H 478.807 6.80869 -3.38114 0
M  V30 4988 N 480.382 0.0267497 1.57577 0
M  V30 4989 C 481.798 -0.32962 1.56159 0
M  V30 4990 C 481.998 -1.73059 1.03213 0
M  V30 4991 O 481.054 -2.43233 0.677804 0
M  V30 4992 C 482.367 -0.18039 3.00158 0
M  V30 4993 C 483.915 -0.253334 3.11973 0
M  V30 4994 C 484.39 -0.132921 4.57807 0
M  V30 4995 N 485.881 -0.189979 4.6281 0
M  V30 4996 C 486.616 -0.120554 5.73273 0
M  V30 4997 N 486.112 -0.000180315 6.928 0
M  V30 4998 N 487.905 -0.174369 5.61829 0
M  V30 4999 H 480.056 0.942896 1.90324 0
M  V30 5000 H 482.319 0.3639 0.875375 0
M  V30 5001 H 482.025 0.784576 3.42837 0
M  V30 5002 H 481.899 -0.951565 3.65 0
M  V30 5003 H 484.286 -1.20876 2.69208 0
M  V30 5004 H 484.367 0.548177 2.49857 0
M  V30 5005 H 484.011 0.819073 5.01252 0
M  V30 5006 H 483.941 -0.953264 5.179 0
M  V30 5007 H 486.432 -0.283257 3.76837 0
M  V30 5008 H 486.745 0.0461666 7.72786 0
M  V30 5009 H 485.09 0.034569 6.94991 0
M  V30 5010 H 488.281 -0.266794 4.67339 0
M  V30 5011 H 488.454 -0.116802 6.47895 0
M  V30 5012 N 481.861 -1.55662 -0.24637 0
M  V30 5013 C 483.109 -1.77168 -0.972411 0
M  V30 5014 C 483.43 -0.590827 -1.85834 0
M  V30 5015 O 482.7 0.393365 -1.9191 0
M  V30 5016 H 481.28 -0.653405 -0.362038 0
M  V30 5017 H 483.942 -1.93101 -0.264189 0
M  V30 5018 H 483.038 -2.68335 -1.59382 0
M  V30 5019 N 483.339 0.512053 -1.4905 0
M  V30 5020 C 484.755 0.84224 -1.35567 0
M  V30 5021 C 484.955 1.97878 -0.380319 0
M  V30 5022 O 484.011 2.51769 0.19201 0
M  V30 5023 C 485.324 1.19286 -2.76028 0
M  V30 5024 C 486.872 1.30171 -2.84648 0
M  V30 5025 C 487.347 1.68568 -4.25851 0
M  V30 5026 N 488.838 1.75638 -4.28609 0
M  V30 5027 C 489.573 2.06769 -5.34821 0
M  V30 5028 N 489.069 2.36201 -6.51292 0
M  V30 5029 N 490.862 2.07927 -5.22229 0
M  V30 5030 H 483.013 -0.237574 -2.11067 0
M  V30 5031 H 485.276 -0.0436747 -0.946993 0
M  V30 5032 H 484.982 0.431199 -3.49047 0
M  V30 5033 H 484.856 2.13889 -3.10695 0
M  V30 5034 H 487.243 2.05411 -2.11873 0
M  V30 5035 H 487.324 0.336457 -2.53578 0
M  V30 5036 H 486.968 0.938824 -4.99148 0
M  V30 5037 H 486.898 2.66174 -4.54377 0
M  V30 5038 H 489.389 1.55097 -3.44606 0
M  V30 5039 H 489.702 2.59112 -7.28066 0
M  V30 5040 H 488.047 2.33681 -6.54536 0
M  V30 5041 H 491.238 1.84403 -4.30248 0
M  V30 5042 H 491.411 2.31856 -6.05101 0
M  V30 5043 N 484.817 1.37938 0.762283 0
M  V30 5044 C 486.063 1.34873 1.52253 0
M  V30 5045 C 486.418 -0.0635972 1.92295 0
M  V30 5046 O 485.711 -1.02434 1.61919 0
M  V30 5047 C 485.905 2.23042 2.79261 0
M  V30 5048 C 485.734 3.72706 2.51635 0
M  V30 5049 C 484.504 4.41771 2.45289 0
M  V30 5050 C 486.702 4.65345 2.18994 0
M  V30 5051 N 484.684 5.76921 2.09846 0
M  V30 5052 C 486.055 5.88943 1.9377 0
M  V30 5053 C 488.11 4.53636 2.0523 0
M  V30 5054 C 486.813 7.02142 1.5617 0
M  V30 5055 C 488.839 5.6673 1.69031 0
M  V30 5056 C 488.201 6.89383 1.44673 0
M  V30 5057 H 484.3 0.548818 0.557067 0
M  V30 5058 H 486.884 1.73247 0.888458 0
M  V30 5059 H 485.055 1.8687 3.40491 0
M  V30 5060 H 486.787 2.11165 3.45241 0
M  V30 5061 H 483.542 3.94883 2.61465 0
M  V30 5062 H 483.966 6.4837 1.94794 0
M  V30 5063 H 488.608 3.5937 2.2274 0
M  V30 5064 H 486.326 7.96334 1.37399 0
M  V30 5065 H 489.912 5.59645 1.59026 0
M  V30 5066 H 488.792 7.75411 1.17079 0
M  V30 5067 N 486.295 -0.989507 1.22664 0
M  V30 5068 C 487.245 -2.06478 0.967005 0
M  V30 5069 C 488.229 -1.60682 -0.0836374 0
M  V30 5070 O 489.421 -1.76541 0.127322 0
M  V30 5071 C 486.55 -3.38861 0.550313 0
M  V30 5072 C 485.636 -3.9128 1.63587 0
M  V30 5073 N 486.027 -4.16884 2.86429 0
M  V30 5074 C 484.325 -4.1972 1.50834 0
M  V30 5075 C 485.026 -4.5954 3.56648 0
M  V30 5076 N 484.002 -4.63434 2.84131 0
M  V30 5077 H 487.804 -2.24219 1.90008 0
M  V30 5078 H 485.318 -1.17153 1.12467 0
M  V30 5079 H 487.315 -4.15465 0.345612 0
M  V30 5080 H 485.975 -3.22518 -0.375822 0
M  V30 5081 H 486.986 -4.04976 3.22823 0
M  V30 5082 H 483.663 -4.1243 0.648643 0
M  V30 5083 H 485.053 -4.87944 4.61909 0
M  V30 5084 N 487.773 -1.03688 -1.18687 0
M  V30 5085 C 489.021 -0.736572 -1.88199 0
M  V30 5086 C 489.342 0.737665 -1.80509 0
M  V30 5087 O 488.612 1.53204 -1.22088 0
M  V30 5088 H 487.192 -0.269466 -0.696704 0
M  V30 5089 H 489.854 -1.31282 -1.44052 0
M  V30 5090 H 488.95 -1.03802 -2.94332 0
M  V30 5091 N 489.251 1.34841 -0.815825 0
M  V30 5092 C 490.528 1.92908 -0.323416 0
M  V30 5093 C 490.908 1.74479 1.18828 0
M  V30 5094 O 490.256 1.11928 1.99209 0
M  V30 5095 C 490.466 3.40957 -0.744952 0
M  V30 5096 C 491.814 4.18107 -0.739716 0
M  V30 5097 O 492.838 3.49511 -0.68708 0
M  V30 5098 O 491.697 5.40517 -0.806456 0
M  V30 5099 H 488.791 0.822436 -0.0867646 0
M  V30 5100 H 491.337 1.4386 -0.90014 0
M  V30 5101 H 490.109 3.4814 -1.78646 0
M  V30 5102 H 489.732 3.97341 -0.143535 0
M  V30 5103 N 490.729 0.570148 1.46925 0
M  V30 5104 C 491.975 0.0510284 2.02736 0
M  V30 5105 C 492.308 -1.3006 1.44215 0
M  V30 5106 O 491.583 -1.84932 0.602521 0
M  V30 5107 C 491.866 -0.028215 3.60089 0
M  V30 5108 C 491.719 1.35142 4.29018 0
M  V30 5109 C 493.038 -0.735181 4.33916 0
M  V30 5110 H 490.157 0.0200178 0.736728 0
M  V30 5111 H 492.799 0.73493 1.75211 0
M  V30 5112 H 490.949 -0.610648 3.83671 0
M  V30 5113 H 492.621 1.97806 4.16738 0
M  V30 5114 H 490.864 1.9226 3.88868 0
M  V30 5115 H 491.535 1.24857 5.37694 0
M  V30 5116 H 494.011 -0.240519 4.15404 0
M  V30 5117 H 492.887 -0.759622 5.43618 0
M  V30 5118 H 493.148 -1.79397 4.04066 0
M  V30 5119 N 492.207 -1.54576 0.307264 0
M  V30 5120 C 493.17 -2.22423 -0.553224 0
M  V30 5121 C 494.17 -1.21231 -1.05639 0
M  V30 5122 O 495.36 -1.45923 -0.951419 0
M  V30 5123 C 492.492 -2.91552 -1.76664 0
M  V30 5124 H 493.685 -2.99874 0.0396484 0
M  V30 5125 H 491.238 -1.56192 0.0581629 0
M  V30 5126 H 491.973 -2.18196 -2.39918 0
M  V30 5127 H 491.758 -3.65738 -1.41343 0
M  V30 5128 H 493.248 -3.43292 -2.37783 0
M  V30 5129 N 493.685 -0.035106 -1.57561 0
M  V30 5130 C 494.931 0.64318 -1.92331 0
M  V30 5131 C 495.264 1.71434 -0.912368 0
M  V30 5132 O 494.539 1.94395 0.0640303 0
M  V30 5133 C 494.822 1.25411 -3.37556 0
M  V30 5134 C 494.675 0.192109 -4.4939 0
M  V30 5135 C 495.994 2.17041 -3.82859 0
M  V30 5136 H 493.113 0.232341 -0.699419 0
M  V30 5137 H 495.755 -0.0935889 -1.89769 0
M  V30 5138 H 493.905 1.88205 -3.39869 0
M  V30 5139 H 495.577 -0.438849 -4.59208 0
M  V30 5140 H 493.82 -0.481725 -4.31117 0
M  V30 5141 H 494.491 0.659292 -5.48049 0
M  V30 5142 H 496.967 1.64228 -3.8232 0
M  V30 5143 H 495.843 2.56738 -4.85157 0
M  V30 5144 H 496.104 3.06401 -3.18702 0
M  V30 5145 N 495.163 1.55791 0.238111 0
M  V30 5146 C 496.11 1.9105 1.29493 0
M  V30 5147 C 497.08 0.765733 1.47397 0
M  V30 5148 O 498.265 1.02017 1.61236 0
M  V30 5149 C 495.405 2.21826 2.64362 0
M  V30 5150 C 494.518 3.49153 2.54394 0
M  V30 5151 C 493.653 3.69455 3.81676 0
M  V30 5152 C 492.692 4.90353 3.66361 0
M  V30 5153 N 491.829 5.07131 4.85554 0
M  V30 5154 H 496.669 2.81172 0.987233 0
M  V30 5155 H 494.206 1.39179 0.476203 0
M  V30 5156 H 496.164 2.37675 3.4288 0
M  V30 5157 H 494.794 1.34897 2.93262 0
M  V30 5158 H 493.846 3.41587 1.67399 0
M  V30 5159 H 495.158 4.37818 2.38991 0
M  V30 5160 H 494.312 3.85311 4.68636 0
M  V30 5161 H 493.051 2.7904 3.99985 0
M  V30 5162 H 492.056 4.74464 2.77784 0
M  V30 5163 H 493.281 5.82237 3.49538 0
M  V30 5164 H 491.227 4.19654 5.04209 0
M  V30 5165 H 491.144 5.89899 4.72816 0
M  V30 5166 H 492.412 5.27407 5.73988 0
M  V30 5167 N 496.642 -0.504142 1.49319 0
M  V30 5168 C 497.888 -1.26033 1.58882 0
M  V30 5169 C 498.221 -1.92268 0.273274 0
M  V30 5170 O 497.496 -1.80567 -0.72291 0
M  V30 5171 C 497.779 -2.32976 2.7458 0
M  V30 5172 C 497.632 -1.71263 4.1592 0
M  V30 5173 C 498.951 -3.34561 2.85932 0
M  V30 5174 H 496.07 -0.456863 0.578312 0
M  V30 5175 H 498.712 -0.558965 1.81592 0
M  V30 5176 H 496.862 -2.92796 2.55348 0
M  V30 5177 H 498.534 -1.15294 4.4666 0
M  V30 5178 H 496.777 -1.01686 4.21714 0
M  V30 5179 H 497.448 -2.48816 4.92742 0
M  V30 5180 H 499.924 -2.84727 3.0343 0
M  V30 5181 H 498.8 -4.06754 3.68568 0
M  V30 5182 H 499.061 -3.96695 1.95154 0
M  V30 5183 N 498.12 -1.38341 -0.754957 0
M  V30 5184 C 499.05 -1.38176 -1.88227 0
M  V30 5185 C 500.031 -0.247873 -1.68284 0
M  V30 5186 O 501.216 -0.45075 -1.88896 0
M  V30 5187 C 498.346 -1.20471 -3.25736 0
M  V30 5188 C 497.3 -2.3105 -3.60278 0
M  V30 5189 C 496.626 -1.98452 -4.96509 0
M  V30 5190 C 497.926 -3.73305 -3.65295 0
M  V30 5191 H 499.62 -2.32512 -1.88622 0
M  V30 5192 H 497.166 -1.1192 -0.906082 0
M  V30 5193 H 499.119 -1.18982 -4.04254 0
M  V30 5194 H 497.843 -0.225965 -3.25817 0
M  V30 5195 H 496.502 -2.31723 -2.84078 0
M  V30 5196 H 496.15 -0.990641 -4.93148 0
M  V30 5197 H 495.85 -2.7251 -5.20588 0
M  V30 5198 H 497.374 -1.98578 -5.77407 0
M  V30 5199 H 498.788 -3.7467 -4.3393 0
M  V30 5200 H 497.185 -4.46557 -4.00883 0
M  V30 5201 H 498.255 -4.05719 -2.65556 0
M  V30 5202 N 499.598 0.982988 -1.23187 0
M  V30 5203 C 500.545 2.07491 -1.01075 0
M  V30 5204 C 501.515 1.65949 0.070905 0
M  V30 5205 O 502.7 1.90629 -0.0806822 0
M  V30 5206 C 499.84 3.39751 -0.605261 0
M  V30 5207 C 498.953 3.94578 -1.75876 0
M  V30 5208 C 498.088 5.15039 -1.3003 0
M  V30 5209 C 497.127 5.62027 -2.42472 0
M  V30 5210 N 496.264 6.73719 -1.97602 0
M  V30 5211 H 501.104 2.25739 -1.9454 0
M  V30 5212 H 498.641 1.10659 -0.969179 0
M  V30 5213 H 500.599 4.15719 -0.351279 0
M  V30 5214 H 499.229 3.21473 0.292382 0
M  V30 5215 H 498.281 3.1539 -2.12681 0
M  V30 5216 H 499.593 4.25422 -2.60418 0
M  V30 5217 H 498.747 5.9833 -1.00429 0
M  V30 5218 H 497.486 4.85843 -0.425216 0
M  V30 5219 H 496.491 4.77318 -2.7285 0
M  V30 5220 H 497.716 5.93244 -3.30512 0
M  V30 5221 H 495.662 6.46287 -1.1247 0
M  V30 5222 H 495.579 7.03934 -2.75705 0
M  V30 5223 H 496.847 7.6049 -1.71098 0
M  V30 5224 N 501.076 1.04316 1.18135 0
M  V30 5225 C 502.322 0.749128 1.88457 0
M  V30 5226 C 502.655 -0.72149 1.803 0
M  V30 5227 O 501.93 -1.52676 1.205 0
M  V30 5228 C 502.213 1.21905 3.38838 0
M  V30 5229 C 502.066 2.75195 3.55792 0
M  V30 5230 C 503.385 0.811085 4.32561 0
M  V30 5231 H 500.504 0.273611 0.684329 0
M  V30 5232 H 503.146 1.29561 1.38975 0
M  V30 5233 H 501.296 0.754137 3.8111 0
M  V30 5234 H 502.968 3.29743 3.22595 0
M  V30 5235 H 501.211 3.14899 2.98364 0
M  V30 5236 H 501.882 3.03135 4.61317 0
M  V30 5237 H 504.358 1.21118 3.98082 0
M  V30 5238 H 503.234 1.16761 5.36338 0
M  V30 5239 H 503.495 -0.285596 4.41177 0
M  V30 5240 N 502.554 -1.34406 0.822964 0
M  V30 5241 C 503.779 -2.0304 0.423034 0
M  V30 5242 C 504.204 -1.61568 -0.963196 0
M  V30 5243 O 503.562 -0.800339 -1.62678 0
M  V30 5244 C 503.61 -3.56636 0.53321 0
M  V30 5245 O 502.714 -4.09971 -0.446939 0
M  V30 5246 H 502.055 -0.64075 0.174171 0
M  V30 5247 H 504.585 -1.71653 1.11339 0
M  V30 5248 H 504.595 -4.05945 0.408991 0
M  V30 5249 H 503.27 -3.86168 1.54425 0
M  V30 5250 H 501.847 -3.71835 -0.281601 0
M  V30 5251 N 504.032 -0.577932 -1.46621 0
M  V30 5252 C 504.964 0.195801 -2.28362 0
M  V30 5253 C 505.977 0.859983 -1.38232 0
M  V30 5254 O 507.166 0.730349 -1.62875 0
M  V30 5255 C 504.266 1.29639 -3.13124 0
M  V30 5256 C 503.439 0.725049 -4.31349 0
M  V30 5257 C 502.498 1.71274 -4.97546 0
M  V30 5258 O 501.524 1.25067 -5.5529 0
M  V30 5259 N 502.726 3.04672 -4.94121 0
M  V30 5260 H 505.491 -0.505468 -2.95407 0
M  V30 5261 H 503.052 -0.415381 -1.56481 0
M  V30 5262 H 505.044 1.95631 -3.54275 0
M  V30 5263 H 503.614 1.90059 -2.48186 0
M  V30 5264 H 502.834 -0.112205 -3.9404 0
M  V30 5265 H 504.122 0.323034 -5.07774 0
M  V30 5266 H 503.52 3.4484 -4.48444 0
M  V30 5267 H 502.077 3.66166 -5.39227 0
M  V30 5268 N 505.51 1.54411 -0.315457 0
M  V30 5269 C 506.921 1.85885 0.174265 0
M  V30 5270 C 507.272 1.23723 1.52273 0
M  V30 5271 O 506.397 0.540246 2.09548 0
M  V30 5272 C 506.992 3.37257 0.322981 0
M  V30 5273 C 505.551 3.68711 0.756922 0
M  V30 5274 C 504.698 2.77013 -0.126195 0
M  V30 5275 H 507.649 1.49374 -0.536007 0
M  V30 5276 H 507.67 3.62539 1.15522 0
M  V30 5277 H 507.182 3.82471 -0.658602 0
M  V30 5278 H 505.283 3.29024 1.74854 0
M  V30 5279 H 505.396 4.75741 0.566291 0
M  V30 5280 H 503.76 2.51588 0.39692 0
M  V30 5281 H 504.543 3.25051 -1.1044 0
M  V30 5282 N 506.988 0.0434614 1.5754 0
M  V30 5283 C 508.216 -0.641835 1.96693 0
M  V30 5284 C 508.631 -1.64832 0.920652 0
M  V30 5285 O 507.988 -1.82247 -0.095993 0
M  V30 5286 C 508.039 -1.33557 3.35924 0
M  V30 5287 O 507.76 -0.369403 4.3654 0
M  V30 5288 C 509.261 -2.11135 3.89791 0
M  V30 5289 H 506.481 -0.176013 0.647503 0
M  V30 5290 H 509.025 0.107478 2.04217 0
M  V30 5291 H 507.18 -2.03617 3.29574 0
M  V30 5292 H 507.594 -0.863674 5.1734 0
M  V30 5293 H 509.068 -2.55107 4.89514 0
M  V30 5294 H 509.545 -2.95634 3.24803 0
M  V30 5295 H 510.151 -1.46002 3.99454 0
M  V30 5296 N 508.466 -1.55915 -0.229846 0
M  V30 5297 C 509.429 -1.90914 -1.26824 0
M  V30 5298 C 510.429 -0.786999 -1.40225 0
M  V30 5299 O 511.619 -1.05484 -1.38632 0
M  V30 5300 C 508.751 -2.15264 -2.64337 0
M  V30 5301 H 509.944 -2.8378 -0.969998 0
M  V30 5302 H 507.497 -1.49069 -0.4699 0
M  V30 5303 H 508.232 -1.24923 -2.99274 0
M  V30 5304 H 508.017 -2.97005 -2.55989 0
M  V30 5305 H 509.507 -2.43467 -3.39284 0
M  V30 5306 N 509.944 0.496216 -1.49584 0
M  V30 5307 C 510.854 1.62352 -1.69349 0
M  V30 5308 C 511.87 1.64184 -0.576147 0
M  V30 5309 O 513.046 1.82517 -0.85144 0
M  V30 5310 C 510.111 2.98698 -1.76013 0
M  V30 5311 C 509.172 3.07454 -2.99617 0
M  V30 5312 C 508.405 4.37296 -3.05953 0
M  V30 5313 O 508.628 5.2637 -2.19752 0
M  V30 5314 O 507.562 4.51124 -3.9846 0
M  V30 5315 H 511.388 1.48606 -2.64859 0
M  V30 5316 H 508.973 0.673022 -1.33382 0
M  V30 5317 H 510.855 3.79725 -1.82721 0
M  V30 5318 H 509.53 3.12696 -0.836828 0
M  V30 5319 H 508.437 2.25597 -2.98424 0
M  V30 5320 H 509.77 2.98385 -3.91443 0
M  V30 5321 N 511.423 1.38739 0.74761 0
M  V30 5322 C 512.355 1.32341 1.87132 0
M  V30 5323 C 513.368 0.234502 1.61102 0
M  V30 5324 O 514.557 0.492516 1.71571 0
M  V30 5325 C 511.657 1.02915 3.22896 0
M  V30 5326 C 510.83 2.22834 3.76383 0
M  V30 5327 C 509.889 1.90059 4.90677 0
M  V30 5328 O 508.915 2.62615 5.04997 0
M  V30 5329 N 510.117 0.859141 5.74107 0
M  V30 5330 H 512.882 2.29175 1.93129 0
M  V30 5331 H 510.443 1.32678 0.927805 0
M  V30 5332 H 512.435 0.79031 3.96908 0
M  V30 5333 H 511.005 0.148572 3.12247 0
M  V30 5334 H 510.225 2.62747 2.93867 0
M  V30 5335 H 511.513 3.02851 4.08851 0
M  V30 5336 H 510.911 0.257564 5.65113 0
M  V30 5337 H 509.468 0.680189 6.48241 0
M  V30 5338 N 512.901 -0.976442 1.23707 0
M  V30 5339 C 513.864 -2.0511 1.02287 0
M  V30 5340 C 514.864 -1.60791 -0.0167195 0
M  V30 5341 O 516.054 -1.72761 0.223408 0
M  V30 5342 C 513.186 -3.36458 0.548507 0
M  V30 5343 H 514.379 -2.25545 1.9766 0
M  V30 5344 H 511.932 -1.15042 1.05806 0
M  V30 5345 H 512.667 -3.21713 -0.408818 0
M  V30 5346 H 512.452 -3.69967 1.29874 0
M  V30 5347 H 513.942 -4.15489 0.419406 0
M  V30 5348 N 514.379 -1.04941 -1.1758 0
M  V30 5349 C 515.311 -0.606174 -2.21039 0
M  V30 5350 C 516.324 0.328763 -1.59446 0
M  V30 5351 O 517.513 0.121895 -1.78083 0
M  V30 5352 C 514.613 0.133294 -3.38638 0
M  V30 5353 C 513.786 -0.811711 -4.29802 0
M  V30 5354 C 512.845 -0.113958 -5.26077 0
M  V30 5355 O 511.871 -0.747237 -5.64274 0
M  V30 5356 N 513.073 1.14953 -5.69004 0
M  V30 5357 H 515.838 -1.49606 -2.59689 0
M  V30 5358 H 513.399 -0.930997 -1.32454 0
M  V30 5359 H 515.391 0.610144 -4.00074 0
M  V30 5360 H 513.961 0.924816 -2.98607 0
M  V30 5361 H 513.181 -1.46824 -3.65837 0
M  V30 5362 H 514.469 -1.45326 -4.87604 0
M  V30 5363 H 513.867 1.68441 -5.40041 0
M  V30 5364 H 512.424 1.57049 -6.32597 0
M  V30 5365 N 515.857 1.33968 -0.830081 0
M  V30 5366 C 516.82 2.27694 -0.26235 0
M  V30 5367 C 517.82 1.50589 0.563876 0
M  V30 5368 O 519.01 1.70028 0.378941 0
M  V30 5369 C 516.142 3.35002 0.63138 0
M  V30 5370 H 517.335 2.79419 -1.08928 0
M  V30 5371 H 514.888 1.44221 -0.602486 0
M  V30 5372 H 515.623 2.88504 1.48109 0
M  V30 5373 H 515.408 3.92079 0.0403276 0
M  V30 5374 H 516.898 4.04897 1.02217 0
M  V30 5375 N 517.335 0.585699 1.46312 0
M  V30 5376 C 518.582 0.0724211 2.0237 0
M  V30 5377 C 518.91 -1.28868 1.45683 0
M  V30 5378 O 518.165 -1.85853 0.612945 0
M  V30 5379 C 518.464 -0.0401312 3.57377 0
M  V30 5380 C 518.13 1.25376 4.33119 0
M  V30 5381 C 516.792 1.60824 4.5353 0
M  V30 5382 C 519.144 2.10987 4.76586 0
M  V30 5383 C 516.472 2.81676 5.14661 0
M  V30 5384 C 518.824 3.31068 5.39052 0
M  V30 5385 C 517.488 3.66794 5.5769 0
M  V30 5386 H 516.758 0.0265007 0.740526 0
M  V30 5387 H 519.405 0.762935 1.75646 0
M  V30 5388 H 517.71 -0.813791 3.83255 0
M  V30 5389 H 519.407 -0.453078 3.98432 0
M  V30 5390 H 515.997 0.967808 4.1753 0
M  V30 5391 H 520.181 1.84904 4.60569 0
M  V30 5392 H 515.437 3.0949 5.27282 0
M  V30 5393 H 519.611 3.97672 5.71691 0
M  V30 5394 H 517.238 4.60529 6.04828 0
M  V30 5395 N 518.813 -1.54241 0.323641 0
M  V30 5396 C 519.76 -2.24339 -0.542277 0
M  V30 5397 C 520.73 -1.23421 -1.11159 0
M  V30 5398 O 521.915 -1.52104 -1.15192 0
M  V30 5399 C 519.055 -3.00479 -1.69725 0
M  V30 5400 C 518.168 -4.16214 -1.15716 0
M  V30 5401 C 517.303 -4.79884 -2.27783 0
M  V30 5402 C 516.342 -5.87722 -1.71023 0
M  V30 5403 N 515.479 -6.45254 -2.76752 0
M  V30 5404 H 520.319 -2.97935 0.0620613 0
M  V30 5405 H 517.856 -1.47039 0.0423993 0
M  V30 5406 H 519.814 -3.42869 -2.3769 0
M  V30 5407 H 518.444 -2.29217 -2.27288 0
M  V30 5408 H 517.496 -3.78605 -0.369063 0
M  V30 5409 H 518.808 -4.93838 -0.701832 0
M  V30 5410 H 517.962 -5.25243 -3.03651 0
M  V30 5411 H 516.701 -4.01641 -2.76652 0
M  V30 5412 H 515.706 -5.41765 -0.936518 0
M  V30 5413 H 516.931 -6.67863 -1.2303 0
M  V30 5414 H 514.877 -5.69884 -3.24912 0
M  V30 5415 H 514.794 -7.18292 -2.35782 0
M  V30 5416 H 516.062 -6.95269 -3.5245 0
M  V30 5417 N 520.291 -0.0518155 -1.57515 0
M  V30 5418 C 521.239 0.940195 -2.12751 0
M  V30 5419 C 522.233 1.3218 -1.05948 0
M  V30 5420 O 523.439 1.30138 -1.24355 0
M  V30 5421 H 519.814 0.321066 -0.680015 0
M  V30 5422 H 521.785 0.449217 -2.94999 0
M  V30 5423 C 520.534 2.2055 -2.68799 0
M  V30 5424 H 519.857 1.92066 -3.50643 0
M  V30 5425 H 521.297 2.88119 -3.11068 0
M  V30 5426 C 519.756 2.95061 -1.62605 0
M  V30 5427 O 520.286 3.88025 -1.03921 0
M  V30 5428 N 518.492 2.57804 -1.34111 0
M  V30 5429 H 518.039 1.82281 -1.8202 0
M  V30 5430 H 517.997 3.07964 -0.632872 0
M  V30 5431 N 521.769 1.56035 0.221574 0
M  V30 5432 C 522.679 1.95581 1.29558 0
M  V30 5433 C 523.695 0.859639 1.51282 0
M  V30 5434 O 524.871 1.16321 1.64413 0
M  V30 5435 C 521.936 2.26447 2.62531 0
M  V30 5436 C 520.997 3.49632 2.4911 0
M  V30 5437 C 520.23 3.79017 3.75742 0
M  V30 5438 O 520.453 3.10077 4.78757 0
M  V30 5439 O 519.387 4.72507 3.72855 0
M  V30 5440 H 523.213 2.8711 0.990035 0
M  V30 5441 H 520.798 1.43244 0.424434 0
M  V30 5442 H 522.68 2.47494 3.41064 0
M  V30 5443 H 521.355 1.38092 2.92766 0
M  V30 5444 H 520.262 3.33864 1.68777 0
M  V30 5445 H 521.595 4.3837 2.23814 0
M  V30 5446 N 523.247 -0.488276 1.49845 0
M  V30 5447 C 524.18 -1.60651 1.62069 0
M  V30 5448 C 525.158 -1.5568 0.469308 0
M  V30 5449 O 526.342 -1.75553 0.686551 0
M  V30 5450 C 523.469 -2.99197 1.58741 0
M  V30 5451 C 522.515 -3.22385 2.79232 0
M  V30 5452 S 523.348 -3.04133 4.40753 0
M  V30 5453 C 524.504 -4.45052 4.4009 0
M  V30 5454 H 524.737 -1.50039 2.56662 0
M  V30 5455 H 522.27 -0.674371 1.38894 0
M  V30 5456 H 524.228 -3.79081 1.57506 0
M  V30 5457 H 522.889 -3.07213 0.654136 0
M  V30 5458 H 522.082 -4.23557 2.73159 0
M  V30 5459 H 521.684 -2.50245 2.77945 0
M  V30 5460 H 523.976 -5.37375 4.12594 0
M  V30 5461 H 524.919 -4.56172 5.41583 0
M  V30 5462 H 525.327 -4.26327 3.70008 0
M  V30 5463 N 524.725 -1.39134 -0.740242 0
M  V30 5464 C 525.657 -1.33332 -1.86428 0
M  V30 5465 C 526.67 -0.243042 -1.60976 0
M  V30 5466 O 527.859 -0.501608 -1.71307 0
M  V30 5467 C 524.959 -1.04626 -3.22346 0
M  V30 5468 C 524.132 -2.24826 -3.75196 0
M  V30 5469 C 523.191 -1.92659 -4.89662 0
M  V30 5470 O 522.217 -2.6529 -5.03597 0
M  V30 5471 N 523.419 -0.889575 -5.73643 0
M  V30 5472 H 526.184 -2.30196 -1.91911 0
M  V30 5473 H 523.745 -1.33168 -0.920756 0
M  V30 5474 H 525.737 -0.811347 -3.96484 0
M  V30 5475 H 524.307 -0.165129 -3.12164 0
M  V30 5476 H 523.527 -2.64301 -2.9247 0
M  V30 5477 H 524.815 -3.05015 -4.07239 0
M  V30 5478 H 524.213 -0.287529 -5.64969 0
M  V30 5479 H 522.77 -0.714557 -6.47871 0
M  V30 5480 N 526.204 0.969867 -1.24223 0
M  V30 5481 C 527.45 1.7151 -1.08223 0
M  V30 5482 C 527.783 1.90478 0.37838 0
M  V30 5483 O 527.058 1.4647 1.27971 0
M  V30 5484 C 527.341 3.10714 -1.82013 0
M  V30 5485 C 527.194 2.9925 -3.35811 0
M  V30 5486 C 528.513 4.10332 -1.59108 0
M  V30 5487 H 525.632 0.622499 -0.394543 0
M  V30 5488 H 528.274 1.1284 -1.52863 0
M  V30 5489 H 526.424 3.608 -1.44068 0
M  V30 5490 H 528.096 2.56608 -3.83341 0
M  V30 5491 H 526.339 2.35512 -3.64303 0
M  V30 5492 H 527.01 3.97857 -3.82641 0
M  V30 5493 H 529.486 3.69097 -1.92111 0
M  V30 5494 H 528.362 5.05804 -2.13198 0
M  V30 5495 H 528.623 4.38926 -0.528832 0
M  V30 5496 N 527.682 1.05563 1.17022 0
M  V30 5497 C 528.612 0.681026 2.23348 0
M  V30 5498 C 529.593 -0.322983 1.67005 0
M  V30 5499 O 530.778 -0.199746 1.9317 0
M  V30 5500 C 527.908 0.0589053 3.4725 0
M  V30 5501 C 526.862 0.988082 4.16438 0
M  V30 5502 C 526.188 0.229646 5.34207 0
M  V30 5503 C 527.488 2.31388 4.68249 0
M  V30 5504 H 529.182 1.56993 2.54938 0
M  V30 5505 H 526.728 0.756302 1.2254 0
M  V30 5506 H 528.681 -0.214982 4.20851 0
M  V30 5507 H 527.405 -0.864968 3.14938 0
M  V30 5508 H 526.064 1.24659 3.44754 0
M  V30 5509 H 525.712 -0.697111 4.98146 0
M  V30 5510 H 525.412 0.848815 5.81437 0
M  V30 5511 H 526.936 -0.0368694 6.10589 0
M  V30 5512 H 528.35 2.09964 5.33468 0
M  V30 5513 H 526.747 2.88736 5.26072 0
M  V30 5514 H 527.817 2.94982 3.84855 0
M  V30 5515 N 529.16 -1.33526 0.837174 0
M  V30 5516 C 530.576 -1.50727 0.524743 0
M  V30 5517 C 530.776 -1.77792 -0.948279 0
M  V30 5518 O 529.832 -1.83719 -1.73216 0
M  V30 5519 C 531.145 -2.66299 1.39661 0
M  V30 5520 C 532.693 -2.80183 1.39521 0
M  V30 5521 C 533.168 -3.98815 2.25189 0
M  V30 5522 N 534.659 -4.06047 2.2289 0
M  V30 5523 C 535.394 -4.97032 2.85915 0
M  V30 5524 N 534.89 -5.93143 3.57985 0
M  V30 5525 N 536.683 -4.90015 2.75394 0
M  V30 5526 H 528.834 -1.1422 1.79074 0
M  V30 5527 H 531.097 -0.561399 0.763894 0
M  V30 5528 H 530.803 -2.52974 2.4433 0
M  V30 5529 H 530.677 -3.61663 1.07145 0
M  V30 5530 H 533.064 -2.92942 0.356253 0
M  V30 5531 H 533.145 -1.85586 1.76044 0
M  V30 5532 H 532.789 -3.86817 3.29143 0
M  V30 5533 H 532.719 -4.92654 1.86009 0
M  V30 5534 H 535.21 -3.37262 1.70478 0
M  V30 5535 H 535.523 -6.59227 4.03286 0
M  V30 5536 H 533.868 -5.93223 3.62093 0
M  V30 5537 H 537.059 -4.13894 2.18654 0
M  V30 5538 H 537.232 -5.60724 3.24796 0
M  V30 5539 N 530.638 -0.59345 -1.46 0
M  V30 5540 C 531.585 0.133618 -2.30413 0
M  V30 5541 C 532.555 0.873736 -1.41262 0
M  V30 5542 O 533.74 0.862279 -1.70204 0
M  V30 5543 C 530.88 1.13434 -3.25924 0
M  V30 5544 C 529.993 0.39656 -4.30176 0
M  V30 5545 C 529.128 1.38575 -5.12806 0
M  V30 5546 C 528.167 0.634984 -6.08797 0
M  V30 5547 N 527.304 1.57276 -6.84258 0
M  V30 5548 H 532.144 -0.592252 -2.92055 0
M  V30 5549 H 529.681 -0.303874 -1.43927 0
M  V30 5550 H 531.639 1.72752 -3.79753 0
M  V30 5551 H 530.269 1.82779 -2.66067 0
M  V30 5552 H 529.321 -0.311861 -3.79119 0
M  V30 5553 H 530.633 -0.189869 -4.98438 0
M  V30 5554 H 529.787 2.05141 -5.70966 0
M  V30 5555 H 528.526 2.00611 -4.44529 0
M  V30 5556 H 527.531 -0.0443925 -5.49782 0
M  V30 5557 H 528.756 0.0198678 -6.79097 0
M  V30 5558 H 526.702 2.18103 -6.18682 0
M  V30 5559 H 526.619 1.03941 -7.48821 0
M  V30 5560 H 527.887 2.22844 -7.46968 0
M  V30 5561 N 532.116 1.54067 -0.331816 0
M  V30 5562 C 533.344 2.05131 0.269996 0
M  V30 5563 C 533.759 1.20749 1.45138 0
M  V30 5564 O 533.116 0.240069 1.80914 0
M  V30 5565 C 533.167 3.54728 0.696456 0
M  V30 5566 O 532.888 4.35906 -0.43794 0
M  V30 5567 C 534.389 4.21916 1.36021 0
M  V30 5568 H 531.609 0.668807 0.0542042 0
M  V30 5569 H 534.153 1.98777 -0.4804 0
M  V30 5570 H 532.308 3.61342 1.39681 0
M  V30 5571 H 532.722 5.24404 -0.100334 0
M  V30 5572 H 534.196 5.28015 1.60947 0
M  V30 5573 H 534.673 3.73538 2.31011 0
M  V30 5574 H 535.279 4.19463 0.702212 0
M  V30 5575 N 533.594 0.0601682 1.57485 0
M  V30 5576 C 535.01 -0.296422 1.56823 0
M  V30 5577 C 535.21 -1.70831 1.0686 0
M  V30 5578 O 534.266 -2.4174 0.729245 0
M  V30 5579 C 535.579 -0.116681 3.00474 0
M  V30 5580 C 537.127 -0.187103 3.1244 0
M  V30 5581 C 537.602 -0.035783 4.57986 0
M  V30 5582 N 539.093 -0.0917676 4.63109 0
M  V30 5583 C 539.828 0.00107251 5.734 0
M  V30 5584 N 539.324 0.146773 6.92645 0
M  V30 5585 N 541.117 -0.0551577 5.62073 0
M  V30 5586 H 533.268 0.983055 1.88281 0
M  V30 5587 H 535.531 0.382386 0.867459 0
M  V30 5588 H 535.237 0.85712 3.41096 0
M  V30 5589 H 535.111 -0.873929 3.66936 0
M  V30 5590 H 537.498 -1.15138 2.71712 0
M  V30 5591 H 537.579 0.601052 2.48638 0
M  V30 5592 H 537.223 0.925212 4.99402 0
M  V30 5593 H 537.153 -0.843196 5.19806 0
M  V30 5594 H 539.644 -0.203261 3.77353 0
M  V30 5595 H 539.957 0.210076 7.72514 0
M  V30 5596 H 538.302 0.181979 6.94762 0
M  V30 5597 H 541.493 -0.167605 4.678 0
M  V30 5598 H 541.666 0.020652 6.47997 0
M  V30 5599 N 535.072 -1.5615 -0.213296 0
M  V30 5600 C 536.022 -1.89485 -1.26804 0
M  V30 5601 C 537.006 -0.758713 -1.41889 0
M  V30 5602 O 538.198 -1.02127 -1.44565 0
M  V30 5603 C 535.327 -2.22219 -2.61675 0
M  V30 5604 C 534.413 -3.42245 -2.50458 0
M  V30 5605 N 534.804 -4.60645 -2.089 0
M  V30 5606 C 533.102 -3.46023 -2.81397 0
M  V30 5607 C 533.803 -5.42805 -2.09135 0
M  V30 5608 N 532.779 -4.82732 -2.49941 0
M  V30 5609 H 536.581 -2.78537 -0.937771 0
M  V30 5610 H 534.095 -1.56826 -0.421824 0
M  V30 5611 H 536.092 -2.44278 -3.37837 0
M  V30 5612 H 534.752 -1.34484 -2.95541 0
M  V30 5613 H 535.763 -4.85651 -1.79899 0
M  V30 5614 H 532.44 -2.68654 -3.1958 0
M  V30 5615 H 533.83 -6.47601 -1.79059 0
M  V30 5616 N 536.55 0.480323 -1.50102 0
M  V30 5617 C 537.796 1.23489 -1.60867 0
M  V30 5618 C 538.129 1.91809 -0.303827 0
M  V30 5619 O 537.404 1.81694 0.694092 0
M  V30 5620 C 537.687 2.28578 -2.78252 0
M  V30 5621 C 537.54 1.64624 -4.18592 0
M  V30 5622 C 538.859 3.2997 -2.91218 0
M  V30 5623 H 535.978 0.447605 -0.585507 0
M  V30 5624 H 538.62 0.530005 -1.82458 0
M  V30 5625 H 536.77 2.88697 -2.59974 0
M  V30 5626 H 538.442 1.08173 -4.48438 0
M  V30 5627 H 536.685 0.949645 -4.23278 0
M  V30 5628 H 537.356 2.40946 -4.96638 0
M  V30 5629 H 539.832 2.79864 -3.07921 0
M  V30 5630 H 538.708 4.00839 -3.74993 0
M  V30 5631 H 538.969 3.93541 -2.0144 0
M  V30 5632 N 538.028 1.39524 0.732853 0
M  V30 5633 C 538.976 1.38563 1.86824 0
M  V30 5634 C 539.97 0.268467 1.67259 0
M  V30 5635 O 541.176 0.438613 1.74574 0
M  V30 5636 H 537.551 0.432737 0.615014 0
M  V30 5637 H 539.522 2.34328 1.84751 0
M  V30 5638 C 538.271 1.2481 3.24527 0
M  V30 5639 H 537.594 2.10044 3.40179 0
M  V30 5640 H 539.034 1.28194 4.04156 0
M  V30 5641 C 537.493 -0.0432825 3.36872 0
M  V30 5642 O 538.023 -1.01268 3.88726 0
M  V30 5643 N 536.229 -0.107055 2.90403 0
M  V30 5644 H 535.776 0.682512 2.48394 0
M  V30 5645 H 535.734 -0.970618 2.99042 0
M  V30 5646 N 539.506 -0.963266 1.24736 0
M  V30 5647 C 540.755 -1.70115 1.08369 0
M  V30 5648 C 541.068 -1.91939 -0.376688 0
M  V30 5649 O 542.274 -2.6334 -0.660624 0
M  V30 5650 C 540.73 -3.06218 1.89099 0
M  V30 5651 C 540.338 -2.92221 3.39574 0
M  V30 5652 C 542.082 -3.83848 1.81275 0
M  V30 5653 C 539.989 -4.23662 4.12631 0
M  V30 5654 H 538.919 -0.637944 0.401924 0
M  V30 5655 H 541.57 -1.07304 1.48856 0
M  V30 5656 H 539.952 -3.69884 1.41429 0
M  V30 5657 H 541.126 -2.37541 3.94856 0
M  V30 5658 H 539.441 -2.28054 3.48397 0
M  V30 5659 H 542.038 -4.81188 2.33158 0
M  V30 5660 H 542.381 -4.08949 0.778895 0
M  V30 5661 H 542.914 -3.26918 2.26649 0
M  V30 5662 H 539.653 -4.03753 5.16395 0
M  V30 5663 H 539.173 -4.78141 3.62135 0
M  V30 5664 H 540.852 -4.92256 4.19873 0
M  V30 5665 N 540.985 -1.06182 -1.16461 0
M  V30 5666 C 541.915 -0.692861 -2.22984 0
M  V30 5667 C 542.896 0.314122 -1.67174 0
M  V30 5668 O 544.081 0.189499 -1.93273 0
M  V30 5669 C 541.211 -0.07732 -3.47214 0
M  V30 5670 C 540.165 -1.01015 -4.15909 0
M  V30 5671 C 539.491 -0.257973 -5.34077 0
M  V30 5672 C 540.791 -2.33868 -4.67015 0
M  V30 5673 H 542.485 -1.58343 -2.54102 0
M  V30 5674 H 540.031 -0.76279 -1.22137 0
M  V30 5675 H 541.984 0.19266 -4.20959 0
M  V30 5676 H 540.708 0.848254 -3.15392 0
M  V30 5677 H 539.367 -1.26486 -3.44088 0
M  V30 5678 H 539.015 0.670684 -4.98509 0
M  V30 5679 H 538.715 -0.879638 -5.80979 0
M  V30 5680 H 540.239 0.00448788 -6.106 0
M  V30 5681 H 541.653 -2.1279 -5.32347 0
M  V30 5682 H 540.05 -2.91522 -5.24533 0
M  V30 5683 H 541.12 -2.97019 -3.83286 0
M  V30 5684 N 542.463 1.3308 -0.844243 0
M  V30 5685 C 543.393 2.3161 -0.296493 0
M  V30 5686 C 544.374 1.59215 0.598707 0
M  V30 5687 O 545.559 1.87077 0.521134 0
M  V30 5688 C 542.689 3.43313 0.524762 0
M  V30 5689 C 541.643 4.27115 -0.275106 0
M  V30 5690 C 540.969 5.30483 0.670236 0
M  V30 5691 C 542.269 5.00443 -1.49514 0
M  V30 5692 H 543.963 2.77672 -1.11976 0
M  V30 5693 H 541.509 1.33496 -0.539899 0
M  V30 5694 H 543.462 4.11273 0.918298 0
M  V30 5695 H 542.186 2.95952 1.3813 0
M  V30 5696 H 540.845 3.60787 -0.650267 0
M  V30 5697 H 540.493 4.79379 1.52332 0
M  V30 5698 H 540.193 5.87435 0.139123 0
M  V30 5699 H 541.717 6.01308 1.06117 0
M  V30 5700 H 543.131 5.61141 -1.17447 0
M  V30 5701 H 541.528 5.67071 -1.96343 0
M  V30 5702 H 542.598 4.28906 -2.26202 0
M  V30 5703 N 543.941 0.601185 1.45683 0
M  V30 5704 C 545.188 0.0938811 2.02282 0
M  V30 5705 C 545.516 -1.27315 1.47041 0
M  V30 5706 O 544.771 -1.85193 0.632623 0
M  V30 5707 C 545.07 -0.00222425 3.574 0
M  V30 5708 C 544.736 1.29963 4.31764 0
M  V30 5709 C 543.398 1.65625 4.51798 0
M  V30 5710 C 545.75 2.1603 4.74321 0
M  V30 5711 C 543.078 2.87119 5.11644 0
M  V30 5712 C 545.43 3.36766 5.3551 0
M  V30 5713 C 544.094 3.72689 5.53768 0
M  V30 5714 H 543.364 0.0343535 0.740203 0
M  V30 5715 H 546.011 0.781522 1.74827 0
M  V30 5716 H 544.316 -0.773096 3.84097 0
M  V30 5717 H 546.013 -0.410794 3.9889 0
M  V30 5718 H 542.603 1.01204 4.1648 0
M  V30 5719 H 546.787 1.89778 4.58582 0
M  V30 5720 H 542.043 3.15065 5.2397 0
M  V30 5721 H 546.217 4.03713 5.67441 0
M  V30 5722 H 543.844 4.66918 5.99909 0
M  V30 5723 N 545.419 -1.53889 0.339982 0
M  V30 5724 C 546.352 -2.21187 -0.561405 0
M  V30 5725 C 547.33 -1.19463 -1.10306 0
M  V30 5726 O 548.514 -1.48268 -1.164 0
M  V30 5727 C 545.641 -2.8865 -1.77198 0
M  V30 5728 C 544.687 -4.04232 -1.3601 0
M  V30 5729 S 545.52 -5.34129 -0.382909 0
M  V30 5730 C 546.676 -6.05094 -1.60039 0
M  V30 5731 H 546.909 -2.97298 0.0102092 0
M  V30 5732 H 544.442 -1.53901 0.124056 0
M  V30 5733 H 546.4 -3.28138 -2.4665 0
M  V30 5734 H 545.061 -2.12311 -2.3148 0
M  V30 5735 H 544.254 -4.50358 -2.2626 0
M  V30 5736 H 543.856 -3.66503 -0.745098 0
M  V30 5737 H 546.148 -6.2827 -2.53541 0
M  V30 5738 H 547.091 -6.98182 -1.18099 0
M  V30 5739 H 547.499 -5.35207 -1.79483 0
M  V30 5740 N 546.897 -0.0685191 -1.57451 0
M  V30 5741 C 548.145 0.60016 -1.92983 0
M  V30 5742 C 548.466 1.70348 -0.949028 0
M  V30 5743 O 547.736 1.959 0.00335647 0
M  V30 5744 H 546.316 0.224682 -0.712409 0
M  V30 5745 H 548.978 -0.125605 -1.94495 0
M  V30 5746 H 548.074 1.02759 -2.94698 0
M  V30 5747 N 548.375 1.56261 0.205012 0
M  V30 5748 C 549.622 1.8004 0.926927 0
M  V30 5749 C 549.95 0.640086 1.83666 0
M  V30 5750 O 549.205 -0.374702 1.92079 0
M  V30 5751 C 549.504 3.09722 1.78345 0
M  V30 5752 C 549.17 4.39082 1.02555 0
M  V30 5753 C 547.832 4.74226 0.816256 0
M  V30 5754 C 550.184 5.18877 0.491559 0
M  V30 5755 C 547.512 5.86668 0.0613287 0
M  V30 5756 C 549.864 6.32105 -0.250107 0
M  V30 5757 C 548.528 6.6584 -0.470508 0
M  V30 5758 H 547.798 0.658812 0.339187 0
M  V30 5759 H 550.445 1.90515 0.19395 0
M  V30 5760 H 548.75 2.9444 2.5848 0
M  V30 5761 H 550.447 3.25324 2.34446 0
M  V30 5762 H 547.037 4.11497 1.19868 0
M  V30 5763 H 551.221 4.92147 0.640684 0
M  V30 5764 H 546.477 6.11283 -0.119501 0
M  V30 5765 H 550.651 6.93157 -0.671307 0
M  V30 5766 H 548.278 7.5281 -1.05739 0
M  V30 5767 N 549.853 -0.472356 1.50355 0
M  V30 5768 C 550.786 -1.58923 1.63764 0
M  V30 5769 C 551.764 -1.55173 0.485793 0
M  V30 5770 O 552.948 -1.74815 0.705132 0
M  V30 5771 C 550.075 -2.97497 1.61905 0
M  V30 5772 C 549.121 -3.19405 2.82635 0
M  V30 5773 S 549.954 -2.99441 4.43954 0
M  V30 5774 C 551.11 -4.40359 4.44786 0
M  V30 5775 H 551.343 -1.47309 2.58239 0
M  V30 5776 H 548.876 -0.659601 1.39602 0
M  V30 5777 H 550.834 -3.77389 1.61518 0
M  V30 5778 H 549.495 -3.06502 0.686683 0
M  V30 5779 H 548.688 -4.20636 2.77636 0
M  V30 5780 H 548.29 -2.47283 2.80583 0
M  V30 5781 H 550.582 -5.32969 4.1827 0
M  V30 5782 H 551.525 -4.50403 5.46391 0
M  V30 5783 H 551.933 -4.22378 3.74509 0
M  V30 5784 N 551.331 -1.39911 -0.725443 0
M  V30 5785 C 552.559 -1.40949 -1.51463 0
M  V30 5786 C 552.974 -0.0065242 -1.88799 0
M  V30 5787 O 552.331 0.967163 -1.54765 0
M  V30 5788 C 552.382 -2.29119 -2.79619 0
M  V30 5789 O 552.103 -3.63952 -2.43866 0
M  V30 5790 C 553.604 -2.38642 -3.73584 0
M  V30 5791 H 550.824 -0.481091 -0.467752 0
M  V30 5792 H 553.368 -1.83843 -0.895651 0
M  V30 5793 H 551.523 -1.89612 -3.37826 0
M  V30 5794 H 551.937 -4.10677 -3.26258 0
M  V30 5795 H 553.411 -3.04563 -4.60375 0
M  V30 5796 H 553.888 -1.40846 -4.16004 0
M  V30 5797 H 554.494 -2.78659 -3.21293 0
M  V30 5798 N 552.809 0.956637 -1.25245 0
M  V30 5799 C 554.225 1.22733 -1.02023 0
M  V30 5800 C 554.425 1.99761 0.264186 0
M  V30 5801 O 553.481 2.32814 0.977436 0
M  V30 5802 C 554.794 2.00367 -2.24217 0
M  V30 5803 C 556.342 2.13418 -2.28958 0
M  V30 5804 C 556.817 2.9445 -3.50803 0
M  V30 5805 N 558.308 3.02029 -3.51187 0
M  V30 5806 C 559.043 3.65116 -4.42129 0
M  V30 5807 N 558.539 4.2983 -5.43339 0
M  V30 5808 N 560.332 3.62237 -4.29815 0
M  V30 5809 H 552.483 0.441282 -2.07765 0
M  V30 5810 H 554.746 0.257686 -0.912306 0
M  V30 5811 H 554.452 1.51165 -3.17556 0
M  V30 5812 H 554.326 3.01077 -2.27228 0
M  V30 5813 H 556.713 2.61819 -1.36143 0
M  V30 5814 H 556.794 1.1202 -2.29968 0
M  V30 5815 H 556.438 2.46741 -4.43939 0
M  V30 5816 H 556.368 3.9607 -3.47039 0
M  V30 5817 H 558.859 2.56007 -2.77973 0
M  V30 5818 H 559.172 4.75819 -6.08947 0
M  V30 5819 H 557.517 4.28465 -5.47214 0
M  V30 5820 H 560.708 3.10863 -3.49974 0
M  V30 5821 H 560.881 4.11117 -5.00886 0
M  V30 5822 N 554.287 1.06798 1.15896 0
M  V30 5823 C 555.698 0.811355 1.68149 0
M  V30 5824 C 556.049 -0.664339 1.8461 0
M  V30 5825 O 555.174 -1.51485 1.54535 0
M  V30 5826 C 555.769 1.46624 3.05429 0
M  V30 5827 C 554.328 1.25726 3.54781 0
M  V30 5828 C 553.475 1.53949 2.3064 0
M  V30 5829 H 556.426 1.23078 1.00187 0
M  V30 5830 H 556.447 0.88437 3.7008 0
M  V30 5831 H 555.959 2.54025 2.93416 0
M  V30 5832 H 554.06 0.20322 3.72045 0
M  V30 5833 H 554.173 1.97354 4.36564 0
M  V30 5834 H 552.537 0.96025 2.35905 0
M  V30 5835 H 553.32 2.6252 2.2122 0
M  V30 5836 N 555.766 -1.3263 0.851289 0
M  V30 5837 C 557.014 -1.96978 0.452128 0
M  V30 5838 C 557.335 -1.67715 -0.99482 0
M  V30 5839 O 556.605 -0.98259 -1.69476 0
M  V30 5840 H 555.185 -0.72873 0.164202 0
M  V30 5841 H 557.847 -1.61774 1.08698 0
M  V30 5842 H 556.943 -3.06387 0.594407 0
M  V30 5843 N 557.244 -0.608902 -1.45362 0
M  V30 5844 C 558.491 -0.104607 -2.0223 0
M  V30 5845 C 558.819 1.26534 -1.47714 0
M  V30 5846 O 558.074 1.84855 -0.642435 0
M  V30 5847 C 558.373 -0.0167296 -3.57396 0
M  V30 5848 C 558.039 -1.32251 -4.31069 0
M  V30 5849 C 556.701 -1.68019 -4.50914 0
M  V30 5850 C 559.053 -2.18542 -4.73169 0
M  V30 5851 C 556.381 -2.89828 -5.10114 0
M  V30 5852 C 558.733 -3.39602 -5.33717 0
M  V30 5853 C 557.397 -3.7562 -5.51784 0
M  V30 5854 H 556.667 -0.0382785 -0.740011 0
M  V30 5855 H 559.314 -0.790782 -1.7441 0
M  V30 5856 H 557.619 0.752715 -3.84502 0
M  V30 5857 H 559.316 0.389634 -3.99103 0
M  V30 5858 H 555.906 -1.03411 -4.15938 0
M  V30 5859 H 560.09 -1.92208 -4.5757 0
M  V30 5860 H 555.346 -3.17839 -5.22291 0
M  V30 5861 H 559.52 -4.06716 -5.65292 0
M  V30 5862 H 557.147 -4.70093 -5.97425 0
M  V30 5863 N 558.722 1.53707 -0.348139 0
M  V30 5864 C 559.685 2.23812 0.494058 0
M  V30 5865 C 560.685 1.23989 1.02388 0
M  V30 5866 O 561.875 1.48395 0.912396 0
M  V30 5867 C 559.007 2.96133 1.68872 0
M  V30 5868 H 560.2 2.99663 -0.119141 0
M  V30 5869 H 557.753 1.55983 -0.0995539 0
M  V30 5870 H 558.488 2.24481 2.34049 0
M  V30 5871 H 558.273 3.69357 1.31596 0
M  V30 5872 H 559.763 3.49475 2.28597 0
M  V30 5873 N 560.2 0.0768682 1.57412 0
M  V30 5874 C 561.449 -0.590679 1.92857 0
M  V30 5875 C 561.762 -1.70461 0.959293 0
M  V30 5876 O 562.968 -2.43207 1.20675 0
M  V30 5877 C 561.424 -1.10204 3.42612 0
M  V30 5878 C 561.032 -0.0188447 4.47996 0
M  V30 5879 C 562.776 -1.74336 3.87049 0
M  V30 5880 C 560.683 -0.544536 5.88888 0
M  V30 5881 H 559.613 -0.224411 0.71983 0
M  V30 5882 H 562.264 0.149924 1.82887 0
M  V30 5883 H 560.646 -1.89577 3.47673 0
M  V30 5884 H 561.82 0.755936 4.54557 0
M  V30 5885 H 560.135 0.526555 4.13057 0
M  V30 5886 H 562.732 -2.14708 4.89699 0
M  V30 5887 H 563.075 -2.60537 3.24694 0
M  V30 5888 H 563.608 -1.01577 3.84613 0
M  V30 5889 H 560.347 0.280426 6.549 0
M  V30 5890 H 559.867 -1.28673 5.85836 0
M  V30 5891 H 561.546 -1.01933 6.3892 0
M  V30 5892 N 561.678 -1.56367 -0.196722 0
M  V30 5893 C 562.927 -1.79724 -0.915539 0
M  V30 5894 C 563.24 -0.649804 -1.84491 0
M  V30 5895 O 564.446 -0.767631 -2.60422 0
M  V30 5896 C 562.902 -3.18369 -1.67836 0
M  V30 5897 C 562.51 -4.4091 -0.793897 0
M  V30 5898 C 564.254 -3.51037 -2.38691 0
M  V30 5899 C 562.161 -5.70577 -1.55549 0
M  V30 5900 H 561.091 -0.67013 -0.345604 0
M  V30 5901 H 563.742 -1.82721 -0.168856 0
M  V30 5902 H 562.124 -3.09617 -2.46887 0
M  V30 5903 H 563.298 -4.60781 -0.042163 0
M  V30 5904 H 561.613 -4.15937 -0.19626 0
M  V30 5905 H 564.21 -4.4515 -2.96219 0
M  V30 5906 H 564.553 -2.74704 -3.12799 0
M  V30 5907 H 565.086 -3.61229 -1.66608 0
M  V30 5908 H 561.825 -6.49871 -0.857226 0
M  V30 5909 H 561.345 -5.54726 -2.2812 0
M  V30 5910 H 563.024 -6.11637 -2.10971 0
M  V30 5911 N 563.156 0.464375 -1.50603 0
M  V30 5912 C 564.384 1.23907 -1.65695 0
M  V30 5913 C 564.799 1.85658 -0.343027 0
M  V30 5914 O 564.156 1.69529 0.675739 0
M  V30 5915 C 564.207 2.3429 -2.75301 0
M  V30 5916 O 563.928 1.7507 -4.01599 0
M  V30 5917 C 565.429 3.25051 -3.01424 0
M  V30 5918 H 562.649 0.374485 -0.556778 0
M  V30 5919 H 565.193 0.55353 -1.96866 0
M  V30 5920 H 563.348 2.98607 -2.46804 0
M  V30 5921 H 563.762 2.47812 -4.62266 0
M  V30 5922 H 565.236 3.98699 -3.81763 0
M  V30 5923 H 565.713 3.84227 -2.12758 0
M  V30 5924 H 566.319 2.66463 -3.31477 0
M  V30 5925 N 564.634 1.40294 0.718013 0
M  V30 5926 C 565.566 1.36281 1.84283 0
M  V30 5927 C 566.579 0.268621 1.60569 0
M  V30 5928 O 567.768 0.528798 1.70487 0
M  V30 5929 C 564.868 1.09741 3.2064 0
M  V30 5930 C 564.041 2.30767 3.71571 0
M  V30 5931 C 563.1 2.00424 4.86535 0
M  V30 5932 O 562.126 2.73268 4.99313 0
M  V30 5933 N 563.328 0.980724 5.72156 0
M  V30 5934 H 566.093 2.3322 1.88225 0
M  V30 5935 H 563.654 1.34616 0.899453 0
M  V30 5936 H 565.646 0.874322 3.95143 0
M  V30 5937 H 564.216 0.214771 3.11861 0
M  V30 5938 H 563.436 2.68921 2.88228 0
M  V30 5939 H 564.724 3.11455 4.02335 0
M  V30 5940 H 564.122 0.377375 5.6444 0
M  V30 5941 H 562.679 0.817538 6.46653 0
M  V30 5942 N 566.112 -0.949982 1.2575 0
M  V30 5943 C 567.358 -1.69822 1.11947 0
M  V30 5944 C 567.713 -1.89455 -0.335334 0
M  V30 5945 O 567.006 -1.45778 -1.24336 0
M  V30 5946 C 567.2 -3.08039 1.81237 0
M  V30 5947 C 567.029 -3.0189 3.33305 0
M  V30 5948 C 565.799 -3.05391 4.02573 0
M  V30 5949 C 567.997 -2.827 4.29634 0
M  V30 5950 N 565.979 -2.89449 5.4138 0
M  V30 5951 C 567.35 -2.75237 5.55558 0
M  V30 5952 C 569.405 -2.67416 4.19992 0
M  V30 5953 C 568.108 -2.54051 6.72942 0
M  V30 5954 C 570.134 -2.47602 5.37073 0
M  V30 5955 C 569.496 -2.40863 6.6194 0
M  V30 5956 H 565.595 -0.629188 0.464378 0
M  V30 5957 H 568.179 -1.1249 1.58916 0
M  V30 5958 H 566.35 -3.63528 1.36756 0
M  V30 5959 H 568.082 -3.71671 1.60134 0
M  V30 5960 H 564.837 -3.14763 3.53866 0
M  V30 5961 H 565.261 -2.84669 6.14241 0
M  V30 5962 H 569.903 -2.71398 3.24196 0
M  V30 5963 H 567.621 -2.48811 7.68842 0
M  V30 5964 H 571.207 -2.36694 5.31477 0
M  V30 5965 H 570.087 -2.25732 7.51009 0
M  V30 5966 N 567.59 -1.07411 -1.15328 0
M  V30 5967 C 568.83 -0.807011 -1.87794 0
M  V30 5968 C 569.194 0.654987 -1.80482 0
M  V30 5969 O 570.395 1.03716 -2.47985 0
M  V30 5970 C 568.666 -1.30198 -3.32841 0
M  V30 5971 S 570.225 -1.16564 -4.23034 0
M  V30 5972 H 567.043 -0.292429 -0.648079 0
M  V30 5973 H 569.645 -1.37334 -1.39139 0
M  V30 5974 H 568.349 -2.3607 -3.35707 0
M  V30 5975 H 567.88 -0.730881 -3.86551 0
M  V30 5976 H 569.895 -0.103557 -4.96092 0
M  V30 5977 N 569.068 1.32177 -0.85831 0
M  V30 5978 C 569.978 2.32561 -0.308606 0
M  V30 5979 C 570.994 1.64209 0.575462 0
M  V30 5980 O 572.17 1.95719 0.474961 0
M  V30 5981 C 569.235 3.43207 0.490909 0
M  V30 5982 C 568.296 4.27243 -0.419733 0
M  V30 5983 C 567.529 5.32605 0.341719 0
M  V30 5984 O 567.752 5.48332 1.57125 0
M  V30 5985 O 566.686 6.0118 -0.294379 0
M  V30 5986 H 570.512 2.81477 -1.14037 0
M  V30 5987 H 568.097 1.35866 -0.621349 0
M  V30 5988 H 569.979 4.10677 0.944574 0
M  V30 5989 H 568.654 2.96474 1.29941 0
M  V30 5990 H 567.561 3.62569 -0.921652 0
M  V30 5991 H 568.894 4.7751 -1.19352 0
M  V30 5992 N 570.547 0.616602 1.45037 0
M  V30 5993 C 571.795 0.115103 2.01772 0
M  V30 5994 C 572.116 -1.2622 1.48639 0
M  V30 5995 O 571.386 -1.83563 0.684199 0
M  V30 5996 H 569.966 0.0395607 0.745952 0
M  V30 5997 H 572.628 0.800032 1.77723 0
M  V30 5998 H 571.724 0.0717274 3.12018 0
M  V30 5999 N 572.025 -1.5352 0.356285 0
M  V30 6000 C 573.25 -2.06007 -0.239961 0
M  V30 6001 C 573.675 -1.22872 -1.42422 0
M  V30 6002 O 573.033 -0.245516 -1.7963 0
M  V30 6003 C 573.081 -3.5522 -0.620587 0
M  V30 6004 O 572.185 -3.74864 -1.71902 0
M  V30 6005 H 571.526 -0.662961 -0.0371377 0
M  V30 6006 H 574.056 -1.98033 0.514194 0
M  V30 6007 H 574.066 -3.98081 -0.894197 0
M  V30 6008 H 572.741 -4.15175 0.245407 0
M  V30 6009 H 571.318 -3.43904 -1.44169 0
M  V30 6010 N 573.503 -0.0852151 -1.57369 0
M  V30 6011 C 574.728 0.592872 -1.98746 0
M  V30 6012 C 575.153 1.61538 -0.963689 0
M  V30 6013 O 574.511 1.81168 0.069071 0
M  V30 6014 C 574.559 1.22599 -3.39119 0
M  V30 6015 O 573.663 2.34185 -3.39457 0
M  V30 6016 H 573.004 0.151314 -0.646529 0
M  V30 6017 H 575.534 -0.163703 -2.03944 0
M  V30 6018 H 575.544 1.56965 -3.76598 0
M  V30 6019 H 574.219 0.476831 -4.13158 0
M  V30 6020 H 572.796 2.01512 -3.13763 0
M  V30 6021 N 574.981 1.5647 0.188427 0
M  V30 6022 C 575.911 1.98101 1.23606 0
M  V30 6023 C 576.892 0.853961 1.47111 0
M  V30 6024 O 578.077 1.11879 1.58735 0
M  V30 6025 C 575.207 2.32624 2.57882 0
M  V30 6026 C 574.161 3.48129 2.48978 0
M  V30 6027 C 573.487 3.68347 3.87588 0
M  V30 6028 C 574.787 4.82112 2.00911 0
M  V30 6029 H 576.481 2.85864 0.890068 0
M  V30 6030 H 574.027 1.37532 0.426714 0
M  V30 6031 H 575.98 2.60343 3.3136 0
M  V30 6032 H 574.704 1.41751 2.94235 0
M  V30 6033 H 573.363 3.20511 1.77956 0
M  V30 6034 H 573.011 2.74793 4.21305 0
M  V30 6035 H 572.711 4.46055 3.82503 0
M  V30 6036 H 574.235 3.98449 4.62678 0
M  V30 6037 H 575.649 5.08819 2.64151 0
M  V30 6038 H 574.046 5.63337 2.06814 0
M  V30 6039 H 575.116 4.75249 0.96262 0
M  V30 6040 N 576.459 -0.456382 1.50847 0
M  V30 6041 C 577.689 -1.22848 1.66108 0
M  V30 6042 C 578.097 -1.85936 0.349897 0
M  V30 6043 O 577.44 -1.70664 -0.679665 0
M  V30 6044 C 577.502 -2.36722 2.70561 0
M  V30 6045 C 577.166 -1.94154 4.13707 0
M  V30 6046 C 578.163 -1.4557 4.99105 0
M  V30 6047 C 575.848 -2.02426 4.59705 0
M  V30 6048 C 577.842 -1.0582 6.28555 0
M  V30 6049 C 575.529 -1.62287 5.89157 0
M  V30 6050 C 576.527 -1.14064 6.73408 0
M  V30 6051 O 576.215 -0.744873 8.00442 0
M  V30 6052 H 575.947 -0.377105 0.561042 0
M  V30 6053 H 578.501 -0.549431 1.97915 0
M  V30 6054 H 576.731 -3.07844 2.34027 0
M  V30 6055 H 578.42 -2.98646 2.74892 0
M  V30 6056 H 579.186 -1.38589 4.64777 0
M  V30 6057 H 575.065 -2.38908 3.94264 0
M  V30 6058 H 578.609 -0.6811 6.94267 0
M  V30 6059 H 574.506 -1.68932 6.23003 0
M  V30 6060 H 575.274 -0.87242 8.13837 0
M  V30 6061 N 577.937 -1.40673 -0.710563 0
M  V30 6062 C 578.887 -1.37812 -1.81636 0
M  V30 6063 C 579.871 -0.254853 -1.58869 0
M  V30 6064 O 581.063 -0.494356 -1.69956 0
M  V30 6065 C 578.192 -1.24802 -3.19811 0
M  V30 6066 C 577.278 -2.41931 -3.48325 0
M  V30 6067 N 577.669 -3.67411 -3.47625 0
M  V30 6068 C 575.967 -2.35419 -3.78806 0
M  V30 6069 C 576.668 -4.45008 -3.74623 0
M  V30 6070 N 575.644 -3.74916 -3.93623 0
M  V30 6071 H 579.446 -2.32766 -1.79436 0
M  V30 6072 H 576.96 -1.34516 -0.909909 0
M  V30 6073 H 578.957 -1.20835 -3.99004 0
M  V30 6074 H 577.617 -0.308202 -3.23234 0
M  V30 6075 H 578.628 -4.00503 -3.28356 0
M  V30 6076 H 575.305 -1.4983 -3.89689 0
M  V30 6077 H 576.695 -5.53884 -3.80344 0
M  V30 6078 N 579.415 0.9433 -1.26252 0
M  V30 6079 C 580.365 2.02746 -1.04297 0
M  V30 6080 C 581.349 1.60882 0.0239435 0
M  V30 6081 O 582.541 1.75947 -0.192757 0
M  V30 6082 C 579.67 3.36585 -0.6757 0
M  V30 6083 C 578.756 3.84939 -1.77996 0
M  V30 6084 N 579.147 4.05966 -3.01704 0
M  V30 6085 C 577.445 4.13833 -1.66308 0
M  V30 6086 C 578.146 4.45987 -3.73458 0
M  V30 6087 N 577.122 4.52569 -3.01135 0
M  V30 6088 H 580.924 2.17012 -1.98199 0
M  V30 6089 H 578.438 1.12898 -1.16738 0
M  V30 6090 H 580.435 4.13896 -0.499571 0
M  V30 6091 H 579.095 3.2369 0.255863 0
M  V30 6092 H 580.106 3.92716 -3.37631 0
M  V30 6093 H 576.783 4.09739 -0.801267 0
M  V30 6094 H 578.173 4.70465 -4.79701 0
M  V30 6095 N 580.893 1.08022 1.14757 0
M  V30 6096 C 581.823 0.728248 2.21853 0
M  V30 6097 C 582.804 -0.287486 1.67653 0
M  V30 6098 O 583.989 -0.158727 1.9355 0
M  V30 6099 C 581.119 0.132549 3.47047 0
M  V30 6100 C 580.073 1.07619 4.14249 0
M  V30 6101 C 579.399 0.342907 5.33599 0
M  V30 6102 C 580.699 2.41268 4.63235 0
M  V30 6103 H 582.393 1.62365 2.51551 0
M  V30 6104 H 579.939 0.782125 1.20908 0
M  V30 6105 H 581.892 -0.125665 4.21213 0
M  V30 6106 H 580.616 -0.797971 3.16702 0
M  V30 6107 H 579.275 1.31944 3.42033 0
M  V30 6108 H 578.923 -0.59129 4.99513 0
M  V30 6109 H 578.623 0.971955 5.79506 0
M  V30 6110 H 580.147 0.0926538 6.1053 0
M  V30 6111 H 581.561 2.21232 5.28894 0
M  V30 6112 H 579.958 2.9983 5.19829 0
M  V30 6113 H 581.028 3.03079 3.78512 0
M  V30 6114 N 582.371 -1.3172 0.865308 0
M  V30 6115 C 583.321 -2.26157 0.289305 0
M  V30 6116 C 584.305 -1.50428 -0.570977 0
M  V30 6117 O 585.497 -1.71978 -0.418617 0
M  V30 6118 C 582.626 -3.39457 -0.512237 0
M  V30 6119 C 581.712 -4.22561 0.361028 0
M  V30 6120 N 582.103 -4.84501 1.45231 0
M  V30 6121 C 580.401 -4.45739 0.152641 0
M  V30 6122 C 581.102 -5.46586 1.99043 0
M  V30 6123 N 580.078 -5.28119 1.28809 0
M  V30 6124 H 583.88 -2.71581 1.12344 0
M  V30 6125 H 581.394 -1.45932 0.712565 0
M  V30 6126 H 583.391 -4.06133 -0.941379 0
M  V30 6127 H 582.051 -2.95577 -1.34404 0
M  V30 6128 H 583.062 -4.84293 1.83524 0
M  V30 6129 H 579.739 -4.1251 -0.643583 0
M  V30 6130 H 581.129 -6.05817 2.90577 0
M  V30 6131 N 583.85 -0.624285 -1.44708 0
M  V30 6132 C 585.096 -0.126237 -2.02407 0
M  V30 6133 C 585.428 1.24618 -1.48943 0
M  V30 6134 O 584.704 1.82569 -0.670742 0
M  V30 6135 C 584.986 -0.105449 -3.59946 0
M  V30 6136 C 584.84 -1.50972 -4.23707 0
M  V30 6137 C 586.159 0.573629 -4.36346 0
M  V30 6138 H 583.278 -0.0473472 -0.735478 0
M  V30 6139 H 585.92 -0.799452 -1.72362 0
M  V30 6140 H 584.07 0.46783 -3.85673 0
M  V30 6141 H 585.742 -2.13136 -4.0911 0
M  V30 6142 H 583.985 -2.0656 -3.81465 0
M  V30 6143 H 584.656 -1.44727 -5.32689 0
M  V30 6144 H 587.132 0.0861787 -4.16011 0
M  V30 6145 H 586.008 0.557338 -5.46063 0
M  V30 6146 H 586.269 1.64276 -4.10446 0
M  V30 6147 N 585.328 1.53329 -0.364422 0
M  V30 6148 C 586.291 2.24323 0.470292 0
M  V30 6149 C 587.291 1.25068 1.01067 0
M  V30 6150 O 588.481 1.49354 0.896605 0
M  V30 6151 C 585.613 2.97908 1.65722 0
M  V30 6152 H 586.806 2.9952 -0.150917 0
M  V30 6153 H 584.359 1.55868 -0.116092 0
M  V30 6154 H 585.094 2.2695 2.31655 0
M  V30 6155 H 584.879 3.70732 1.27671 0
M  V30 6156 H 586.369 3.5188 2.24878 0
M  V30 6157 N 586.806 0.0935595 1.57322 0
M  V30 6158 C 588.083 -0.612692 1.85756 0
M  V30 6159 C 588.463 -1.86439 0.99013 0
M  V30 6160 O 587.811 -2.28416 0.0621362 0
M  V30 6161 C 588.021 -0.929547 3.36393 0
M  V30 6162 C 589.369 -1.29366 4.04413 0
M  V30 6163 O 590.393 -1.02061 3.41265 0
M  V30 6164 O 589.252 -1.80498 5.15832 0
M  V30 6165 H 586.346 -0.306444 0.768128 0
M  V30 6166 H 588.892 0.126141 1.69231 0
M  V30 6167 H 587.664 -0.0414766 3.91278 0
M  V30 6168 H 587.287 -1.72441 3.5826 0
M  V30 6169 N 588.284 -1.56567 -0.180126 0
M  V30 6170 C 589.512 -1.85618 -0.913972 0
M  V30 6171 C 589.927 -0.677892 -1.7621 0
M  V30 6172 O 589.284 0.353171 -1.7905 0
M  V30 6173 C 589.335 -3.13619 -1.79793 0
M  V30 6174 O 589.056 -4.26906 -0.98402 0
M  V30 6175 C 590.557 -3.55954 -2.64219 0
M  V30 6176 H 587.777 -0.616043 -0.265954 0
M  V30 6177 H 590.321 -2.03681 -0.182872 0
M  V30 6178 H 588.476 -2.97409 -2.48247 0
M  V30 6179 H 588.89 -4.9989 -1.58776 0
M  V30 6180 H 590.364 -4.48444 -3.21873 0
M  V30 6181 H 590.841 -2.79653 -3.38661 0
M  V30 6182 H 591.447 -3.74746 -2.01111 0
M  V30 6183 N 589.762 0.448376 -1.51087 0
M  V30 6184 C 591.178 0.783984 -1.39017 0
M  V30 6185 C 591.378 1.96087 -0.463904 0
M  V30 6186 O 590.434 2.52357 0.0850534 0
M  V30 6187 C 591.747 1.07471 -2.80839 0
M  V30 6188 C 593.295 1.17981 -2.89913 0
M  V30 6189 C 593.77 1.50354 -4.32617 0
M  V30 6190 N 595.261 1.57301 -4.35673 0
M  V30 6191 C 595.996 1.839 -5.4311 0
M  V30 6192 N 595.492 2.08365 -6.60724 0
M  V30 6193 N 597.285 1.8559 -5.30578 0
M  V30 6194 H 589.436 -0.326881 -2.0987 0
M  V30 6195 H 591.699 -0.0838006 -0.944289 0
M  V30 6196 H 591.405 0.282768 -3.50561 0
M  V30 6197 H 591.279 2.00519 -3.19487 0
M  V30 6198 H 593.666 1.9624 -2.20395 0
M  V30 6199 H 593.747 0.228603 -2.54776 0
M  V30 6200 H 593.391 0.726273 -5.0268 0
M  V30 6201 H 593.321 2.46663 -4.65258 0
M  V30 6202 H 595.812 1.40342 -3.50874 0
M  V30 6203 H 596.125 2.27999 -7.38401 0
M  V30 6204 H 594.47 2.0571 -6.63859 0
M  V30 6205 H 597.661 1.65989 -4.37682 0
M  V30 6206 H 597.834 2.05983 -6.1439 0
M  V30 6207 N 591.24 1.41047 0.703093 0
M  V30 6208 C 592.487 1.4 1.46309 0
M  V30 6209 C 592.815 0.00654574 1.94499 0
M  V30 6210 O 592.07 -0.980255 1.6938 0
M  V30 6211 C 592.369 2.34686 2.6955 0
M  V30 6212 C 592.035 3.81684 2.40058 0
M  V30 6213 C 590.697 4.21731 2.31725 0
M  V30 6214 C 593.049 4.74525 2.15581 0
M  V30 6215 C 590.377 5.52637 1.97001 0
M  V30 6216 C 592.729 6.05744 1.82366 0
M  V30 6217 C 591.393 6.44819 1.72524 0
M  V30 6218 H 590.663 0.512295 0.535382 0
M  V30 6219 H 593.31 1.73792 0.804275 0
M  V30 6220 H 591.615 1.94122 3.40329 0
M  V30 6221 H 593.312 2.31152 3.27673 0
M  V30 6222 H 589.902 3.49963 2.47435 0
M  V30 6223 H 594.086 4.44395 2.20968 0
M  V30 6224 H 589.342 5.81802 1.87928 0
M  V30 6225 H 593.516 6.77189 1.62444 0
M  V30 6226 H 591.143 7.46168 1.45385 0
M  V30 6227 N 592.718 -0.936591 1.26751 0
M  V30 6228 C 593.995 -1.66094 1.03306 0
M  V30 6229 C 594.375 -2.06568 -0.435058 0
M  V30 6230 O 593.723 -1.79305 -1.41641 0
M  V30 6231 C 593.933 -2.86969 1.98619 0
M  V30 6232 C 595.281 -3.58516 2.27489 0
M  V30 6233 O 596.305 -2.97082 1.96522 0
M  V30 6234 O 595.164 -4.69181 2.80235 0
M  V30 6235 H 592.258 -0.727568 0.393158 0
M  V30 6236 H 594.804 -0.987914 1.3798 0
M  V30 6237 H 593.576 -2.53985 2.9767 0
M  V30 6238 H 593.199 -3.61996 1.64454 0
M  V30 6239 N 594.196 -1.08629 -1.14182 0
M  V30 6240 C 595.129 -0.662329 -2.18377 0
M  V30 6241 C 596.107 0.327054 -1.59277 0
M  V30 6242 O 597.291 0.230376 -1.87087 0
M  V30 6243 C 594.418 0.0254765 -3.3869 0
M  V30 6244 C 593.464 -0.924414 -4.16361 0
M  V30 6245 S 594.297 -2.43226 -4.77076 0
M  V30 6246 C 595.453 -1.75663 -6.00744 0
M  V30 6247 H 595.686 -1.54501 -2.54001 0
M  V30 6248 H 593.219 -0.901484 -1.2535 0
M  V30 6249 H 595.177 0.416032 -4.08386 0
M  V30 6250 H 593.838 0.884689 -3.01384 0
M  V30 6251 H 593.031 -0.390099 -5.02488 0
M  V30 6252 H 592.633 -1.25598 -3.5228 0
M  V30 6253 H 594.925 -1.07589 -6.68903 0
M  V30 6254 H 595.868 -2.59673 -6.58768 0
M  V30 6255 H 596.276 -1.22903 -5.50958 0
M  V30 6256 N 595.674 1.31259 -0.872281 0
M  V30 6257 C 596.92 1.96913 -0.485083 0
M  V30 6258 C 597.253 1.68774 0.960667 0
M  V30 6259 O 596.528 0.985495 1.67685 0
M  V30 6260 C 596.811 3.52299 -0.745502 0
M  V30 6261 C 596.664 3.90002 -2.24095 0
M  V30 6262 C 597.983 4.39582 -0.213516 0
M  V30 6263 H 595.102 0.715252 -0.177716 0
M  V30 6264 H 597.744 1.55347 -1.09395 0
M  V30 6265 H 595.894 3.87835 -0.227276 0
M  V30 6266 H 597.566 3.64555 -2.82661 0
M  V30 6267 H 595.809 3.38526 -2.71261 0
M  V30 6268 H 596.48 4.98352 -2.37381 0
M  V30 6269 H 598.956 4.10882 -0.656902 0
M  V30 6270 H 597.832 5.47251 -0.42516 0
M  V30 6271 H 598.093 4.33158 0.884666 0
M  V30 6272 N 597.152 0.631951 1.44375 0
M  V30 6273 C 598.084 -0.110911 2.28931 0
M  V30 6274 C 599.097 -0.808086 1.41329 0
M  V30 6275 O 600.286 -0.669396 1.65473 0
M  V30 6276 C 597.386 -1.17928 3.1772 0
M  V30 6277 C 596.559 -0.564458 4.33743 0
M  V30 6278 C 595.618 -1.5269 5.0356 0
M  V30 6279 O 594.644 -1.04372 5.59549 0
M  V30 6280 N 595.846 -2.86123 5.05088 0
M  V30 6281 H 598.611 0.614758 2.93327 0
M  V30 6282 H 596.172 0.473171 1.54831 0
M  V30 6283 H 598.164 -1.82348 3.61291 0
M  V30 6284 H 596.734 -1.80717 2.55069 0
M  V30 6285 H 595.954 0.258373 3.93352 0
M  V30 6286 H 597.242 -0.134355 5.08623 0
M  V30 6287 H 596.64 -3.27959 4.60933 0
M  V30 6288 H 595.197 -3.45901 5.52445 0
M  V30 6289 N 598.631 -1.53133 0.372548 0
M  V30 6290 C 599.561 -2.28876 -0.462412 0
M  V30 6291 C 600.542 -1.31583 -1.07796 0
M  V30 6292 O 601.727 -1.60461 -1.09389 0
M  V30 6293 C 598.857 -3.08317 -1.59868 0
M  V30 6294 C 597.811 -4.13355 -1.11003 0
M  V30 6295 C 597.137 -4.8092 -2.33708 0
M  V30 6296 C 598.437 -5.21955 -0.18983 0
M  V30 6297 H 600.131 -2.9892 0.169511 0
M  V30 6298 H 597.677 -1.43761 0.0829658 0
M  V30 6299 H 599.63 -3.60055 -2.18949 0
M  V30 6300 H 598.354 -2.35976 -2.25794 0
M  V30 6301 H 597.013 -3.62573 -0.541869 0
M  V30 6302 H 596.661 -4.05144 -2.98106 0
M  V30 6303 H 596.361 -5.51904 -2.01682 0
M  V30 6304 H 597.885 -5.35455 -2.93462 0
M  V30 6305 H 599.299 -5.69153 -0.688319 0
M  V30 6306 H 597.696 -6.00087 0.0398887 0
M  V30 6307 H 598.766 -4.78811 0.766057 0
M  V30 6308 N 600.109 -0.101901 -1.5727 0
M  V30 6309 C 601.358 0.559922 -1.93772 0
M  V30 6310 C 601.671 1.68913 -0.98629 0
M  V30 6311 O 602.877 2.41256 -1.24529 0
M  V30 6312 C 601.333 1.04739 -3.44322 0
M  V30 6313 C 600.941 -0.05243 -4.47969 0
M  V30 6314 C 602.685 1.68157 -3.89774 0
M  V30 6315 C 600.592 0.450781 -5.8968 0
M  V30 6316 H 599.522 0.212931 -0.723309 0
M  V30 6317 H 602.173 -0.179001 -1.82625 0
M  V30 6318 H 600.555 1.84021 -3.50645 0
M  V30 6319 H 601.729 -0.828157 -4.53297 0
M  V30 6320 H 600.044 -0.592202 -4.12167 0
M  V30 6321 H 602.641 2.0689 -4.93052 0
M  V30 6322 H 602.984 2.55338 -3.28798 0
M  V30 6323 H 603.517 0.954453 -3.8618 0
M  V30 6324 H 600.256 -0.38458 -6.54371 0
M  V30 6325 H 599.776 1.19336 -5.87809 0
M  V30 6326 H 601.455 0.917555 -6.40461 0
M  V30 6327 N 601.587 1.56661 0.17182 0
M  V30 6328 C 602.864 1.72838 0.915778 0
M  V30 6329 C 603.244 0.66316 2.00413 0
M  V30 6330 O 602.592 -0.322123 2.26218 0
M  V30 6331 C 602.802 3.16019 1.48097 0
M  V30 6332 C 604.15 3.76962 1.95408 0
M  V30 6333 O 605.174 3.19294 1.57892 0
M  V30 6334 O 604.033 4.78219 2.64516 0
M  V30 6335 H 601.127 0.705797 0.431021 0
M  V30 6336 H 603.673 1.68947 0.159689 0
M  V30 6337 H 602.445 3.85031 0.697618 0
M  V30 6338 H 602.068 3.24234 2.30126 0
M  V30 6339 N 603.065 -0.440357 1.51323 0
M  V30 6340 C 604.311 -1.19181 1.64085 0
M  V30 6341 C 604.644 -1.90936 0.354575 0
M  V30 6342 O 603.919 -1.8347 -0.645675 0
M  V30 6343 C 604.202 -2.2112 2.84215 0
M  V30 6344 C 604.055 -1.53468 4.22809 0
M  V30 6345 C 605.374 -3.22133 2.99864 0
M  V30 6346 H 602.493 -0.431924 0.597169 0
M  V30 6347 H 605.135 -0.481443 1.83799 0
M  V30 6348 H 603.285 -2.81703 2.67537 0
M  V30 6349 H 604.957 -0.962455 4.51148 0
M  V30 6350 H 603.2 -0.837086 4.25647 0
M  V30 6351 H 603.871 -2.27694 5.02852 0
M  V30 6352 H 606.347 -2.71601 3.15233 0
M  V30 6353 H 605.223 -3.90756 3.85488 0
M  V30 6354 H 605.484 -3.88061 2.11804 0
M  V30 6355 N 604.543 -1.41418 -0.695603 0
M  V30 6356 C 605.506 -1.42988 -1.79129 0
M  V30 6357 C 606.506 -0.320514 -1.57573 0
M  V30 6358 O 607.696 -0.58039 -1.64247 0
M  V30 6359 C 604.828 -1.24122 -3.175 0
M  V30 6360 H 606.021 -2.40526 -1.7913 0
M  V30 6361 H 603.574 -1.2756 -0.903225 0
M  V30 6362 H 604.309 -0.274253 -3.23138 0
M  V30 6363 H 604.094 -2.045 -3.34547 0
M  V30 6364 H 605.584 -1.28056 -3.97481 0
M  V30 6365 N 606.021 0.929856 -1.27246 0
M  V30 6366 C 607.437 1.20542 -1.04603 0
M  V30 6367 C 607.637 2.00276 0.221754 0
M  V30 6368 O 606.693 2.34835 0.927833 0
M  V30 6369 C 608.006 1.95566 -2.28417 0
M  V30 6370 C 609.554 2.08513 -2.33433 0
M  V30 6371 C 610.029 2.86943 -3.5697 0
M  V30 6372 N 611.52 2.94512 -3.57515 0
M  V30 6373 C 612.255 3.55656 -4.49774 0
M  V30 6374 N 611.751 4.18209 -5.52334 0
M  V30 6375 N 613.544 3.53038 -4.37402 0
M  V30 6376 H 605.695 0.397113 -2.08655 0
M  V30 6377 H 607.958 0.238277 -0.917566 0
M  V30 6378 H 607.664 1.44395 -3.20691 0
M  V30 6379 H 607.538 2.9619 -2.33563 0
M  V30 6380 H 609.925 2.58872 -1.41666 0
M  V30 6381 H 610.006 1.07117 -2.32292 0
M  V30 6382 H 609.65 2.37268 -4.49072 0
M  V30 6383 H 609.58 3.8862 -3.55362 0
M  V30 6384 H 612.071 2.50053 -2.83341 0
M  V30 6385 H 612.384 4.62796 -6.18902 0
M  V30 6386 H 610.729 4.16761 -5.56179 0
M  V30 6387 H 613.92 3.0337 -3.56489 0
M  V30 6388 H 614.093 4.004 -5.09493 0
M  V30 6389 N 607.499 1.09233 1.13605 0
M  V30 6390 C 608.431 0.687794 2.18637 0
M  V30 6391 C 609.444 -0.26936 1.60556 0
M  V30 6392 O 610.633 -0.0557162 1.78413 0
M  V30 6393 C 607.733 -0.00751901 3.38899 0
M  V30 6394 C 606.906 0.97067 4.26494 0
M  V30 6395 C 605.965 0.309129 5.25291 0
M  V30 6396 O 604.991 0.956149 5.61112 0
M  V30 6397 N 606.193 -0.937555 5.72879 0
M  V30 6398 H 608.958 1.59141 2.53957 0
M  V30 6399 H 606.519 0.979515 1.28907 0
M  V30 6400 H 608.511 -0.461238 4.02063 0
M  V30 6401 H 607.081 -0.813353 3.01833 0
M  V30 6402 H 606.301 1.603 3.60135 0
M  V30 6403 H 607.589 1.63323 4.81875 0
M  V30 6404 H 606.987 -1.48281 5.4592 0
M  V30 6405 H 605.544 -1.33463 6.3799 0
M  V30 6406 N 608.977 -1.30795 0.87923 0
M  V30 6407 C 610.205 -2.00527 0.509548 0
M  V30 6408 C 610.62 -1.65944 -0.90045 0
M  V30 6409 O 609.977 -0.893525 -1.5913 0
M  V30 6410 C 610.028 -3.55276 0.667943 0
M  V30 6411 O 609.749 -3.88625 2.02242 0
M  V30 6412 C 611.25 -4.4228 0.300494 0
M  V30 6413 H 608.47 -0.641261 0.197549 0
M  V30 6414 H 611.014 -1.66813 1.18295 0
M  V30 6415 H 609.169 -3.87377 0.0419843 0
M  V30 6416 H 609.583 -4.83334 2.03688 0
M  V30 6417 H 611.057 -5.50061 0.462242 0
M  V30 6418 H 611.534 -4.32556 -0.76106 0
M  V30 6419 H 612.14 -4.15613 0.902536 0
M  V30 6420 N 610.455 -0.639598 -1.44038 0
M  V30 6421 C 611.418 0.0506628 -2.29144 0
M  V30 6422 C 612.418 0.764001 -1.41491 0
M  V30 6423 O 613.608 0.607309 -1.63271 0
M  V30 6424 C 610.74 1.0824 -3.2326 0
M  V30 6425 H 611.933 -0.697987 -2.91664 0
M  V30 6426 H 609.486 -0.400146 -1.51091 0
M  V30 6427 H 610.221 1.86075 -2.65606 0
M  V30 6428 H 610.006 0.574725 -3.87865 0
M  V30 6429 H 611.496 1.56487 -3.87171 0
M  V30 6430 N 611.933 1.52934 -0.380664 0
M  V30 6431 C 612.865 2.23822 0.493581 0
M  V30 6432 C 613.878 1.25761 1.03383 0
M  V30 6433 O 615.067 1.5189 0.937633 0
M  V30 6434 C 612.167 2.9342 1.69582 0
M  V30 6435 C 611.34 4.18115 1.28445 0
M  V30 6436 C 610.399 4.70788 2.35042 0
M  V30 6437 O 609.425 5.34093 1.96807 0
M  V30 6438 N 610.627 4.49899 3.66839 0
M  V30 6439 H 613.392 2.99484 -0.11371 0
M  V30 6440 H 610.953 1.60577 -0.206587 0
M  V30 6441 H 612.945 3.2556 2.40401 0
M  V30 6442 H 611.515 2.21119 2.20965 0
M  V30 6443 H 610.735 3.92109 0.405503 0
M  V30 6444 H 612.023 4.99152 0.986132 0
M  V30 6445 H 611.421 3.99349 4.0067 0
M  V30 6446 H 609.978 4.86551 4.33718 0
M  V30 6447 N 613.412 0.11024 1.57214 0
M  V30 6448 C 614.66 -0.548783 1.94506 0
M  V30 6449 C 614.981 -1.67772 0.99386 0
M  V30 6450 O 614.251 -1.9584 0.0485841 0
M  V30 6451 H 612.831 -0.205715 0.718116 0
M  V30 6452 H 615.493 0.177127 1.94093 0
M  V30 6453 H 614.589 -0.949096 2.97319 0
M  V30 6454 N 614.89 -1.56749 -0.16351 0
M  V30 6455 C 615.823 -1.9213 -1.23132 0
M  V30 6456 C 616.801 -0.785047 -1.42393 0
M  V30 6457 O 617.985 -1.0391 -1.57273 0
M  V30 6458 C 615.112 -2.17901 -2.59301 0
M  V30 6459 C 614.158 -3.40576 -2.5673 0
M  V30 6460 S 614.991 -4.94689 -2.05045 0
M  V30 6461 C 616.147 -5.23564 -3.42975 0
M  V30 6462 H 616.38 -2.824 -0.929383 0
M  V30 6463 H 613.913 -1.4994 -0.368418 0
M  V30 6464 H 615.871 -2.33429 -3.3767 0
M  V30 6465 H 614.532 -1.28324 -2.86691 0
M  V30 6466 H 613.725 -3.55833 -3.5693 0
M  V30 6467 H 613.327 -3.24204 -1.86462 0
M  V30 6468 H 615.619 -5.16019 -4.3901 0
M  V30 6469 H 616.562 -6.25134 -3.32586 0
M  V30 6470 H 616.97 -4.51113 -3.39348 0
M  V30 6471 N 616.368 0.432326 -1.51554 0
M  V30 6472 C 617.645 1.19288 -1.55015 0
M  V30 6473 C 618.025 2.08701 -0.317375 0
M  V30 6474 O 617.373 2.17602 0.697243 0
M  V30 6475 C 617.583 1.99037 -2.86679 0
M  V30 6476 C 618.931 2.55907 -3.38817 0
M  V30 6477 O 619.955 2.09243 -2.88263 0
M  V30 6478 O 618.814 3.41029 -4.27038 0
M  V30 6479 H 615.908 0.543369 -0.623441 0
M  V30 6480 H 618.454 0.440988 -1.6387 0
M  V30 6481 H 617.226 1.33397 -3.6786 0
M  V30 6482 H 616.849 2.81281 -2.8101 0
M  V30 6483 N 617.846 1.41785 0.688094 0
M  V30 6484 C 619.076 1.44705 1.47459 0
M  V30 6485 C 619.484 0.052916 1.89126 0
M  V30 6486 O 618.827 -0.939781 1.57841 0
M  V30 6487 C 618.889 2.29935 2.76352 0
M  V30 6488 C 618.553 3.77996 2.56843 0
M  V30 6489 C 619.55 4.69976 2.22304 0
M  V30 6490 C 617.235 4.2212 2.7225 0
M  V30 6491 C 619.229 6.04068 2.03421 0
M  V30 6492 C 616.916 5.56275 2.52985 0
M  V30 6493 C 617.914 6.47065 2.18621 0
M  V30 6494 O 617.602 7.78744 1.9953 0
M  V30 6495 H 617.334 0.494703 0.460701 0
M  V30 6496 H 619.888 1.86802 0.854057 0
M  V30 6497 H 618.118 1.82664 3.40839 0
M  V30 6498 H 619.807 2.24467 3.38186 0
M  V30 6499 H 620.573 4.37175 2.10008 0
M  V30 6500 H 616.452 3.51752 2.97979 0
M  V30 6501 H 619.996 6.74897 1.76523 0
M  V30 6502 H 615.893 5.88653 2.64873 0
M  V30 6503 H 616.661 7.89966 2.14234 0
M  V30 6504 N 619.324 -0.923095 1.27737 0
M  V30 6505 C 620.254 -2.04124 1.13383 0
M  V30 6506 C 621.235 -1.70066 0.0340658 0
M  V30 6507 O 622.42 -1.93068 0.209383 0
M  V30 6508 C 619.55 -3.3831 0.785097 0
M  V30 6509 C 618.504 -3.86496 1.8386 0
M  V30 6510 C 617.83 -5.1754 1.34373 0
M  V30 6511 C 619.13 -4.09381 3.24353 0
M  V30 6512 H 620.824 -2.1639 2.06919 0
M  V30 6513 H 618.37 -1.03976 0.996243 0
M  V30 6514 H 620.323 -4.16016 0.671485 0
M  V30 6515 H 619.047 -3.2607 -0.185969 0
M  V30 6516 H 617.706 -3.10987 1.9412 0
M  V30 6517 H 617.354 -5.01696 0.361989 0
M  V30 6518 H 617.054 -5.50751 2.04811 0
M  V30 6519 H 618.578 -5.97811 1.24315 0
M  V30 6520 H 619.992 -4.77641 3.17067 0
M  V30 6521 H 618.389 -4.53906 3.92542 0
M  V30 6522 H 619.459 -3.14515 3.69064 0
M  V30 6523 N 620.802 -1.09834 -1.13024 0
M  V30 6524 C 621.752 -0.710899 -2.16634 0
M  V30 6525 C 622.736 0.276836 -1.58501 0
M  V30 6526 O 623.928 0.0865457 -1.76788 0
M  V30 6527 C 621.057 -0.137574 -3.43024 0
M  V30 6528 C 620.143 -1.15198 -4.08155 0
M  V30 6529 N 620.534 -2.34054 -4.48388 0
M  V30 6530 C 618.832 -0.991074 -4.34849 0
M  V30 6531 C 619.533 -2.98616 -4.99203 0
M  V30 6532 N 618.509 -2.26159 -4.94321 0
M  V30 6533 H 622.311 -1.61576 -2.455 0
M  V30 6534 H 619.825 -0.975158 -1.29863 0
M  V30 6535 H 621.822 0.158031 -4.166 0
M  V30 6536 H 620.482 0.762088 -3.1563 0
M  V30 6537 H 621.493 -2.7162 -4.40957 0
M  V30 6538 H 618.17 -0.146448 -4.17243 0
M  V30 6539 H 619.56 -3.99683 -5.40096 0
M  V30 6540 N 622.28 1.30327 -0.886154 0
M  V30 6541 C 623.243 2.26376 -0.358687 0
M  V30 6542 C 624.243 1.52845 0.499498 0
M  V30 6543 O 625.433 1.71483 0.306485 0
M  V30 6544 C 622.565 3.37379 0.488726 0
M  V30 6545 H 623.758 2.74547 -1.20681 0
M  V30 6546 H 621.311 1.41536 -0.663113 0
M  V30 6547 H 622.046 2.94526 1.35739 0
M  V30 6548 H 621.831 3.91897 -0.126003 0
M  V30 6549 H 623.321 4.08868 0.84952 0
M  V30 6550 N 623.758 0.647228 1.43697 0
M  V30 6551 C 624.705 -0.0480092 2.3075 0
M  V30 6552 C 625.675 -0.820705 1.44408 0
M  V30 6553 O 626.86 -0.798515 1.73287 0
M  V30 6554 C 624 -1.01259 3.2991 0
M  V30 6555 C 623.113 -0.236629 4.31351 0
M  V30 6556 C 622.248 -1.19447 5.17596 0
M  V30 6557 C 621.287 -0.408595 6.10735 0
M  V30 6558 N 620.424 -1.31772 6.89623 0
M  V30 6559 H 625.264 0.700238 2.89656 0
M  V30 6560 H 622.801 0.357082 1.427 0
M  V30 6561 H 624.759 -1.58538 3.85903 0
M  V30 6562 H 623.389 -1.72778 2.72667 0
M  V30 6563 H 622.441 0.452353 3.77701 0
M  V30 6564 H 623.753 0.374731 4.9739 0
M  V30 6565 H 622.907 -1.83809 5.78186 0
M  V30 6566 H 621.646 -1.83975 4.51669 0
M  V30 6567 H 620.651 0.24841 5.49239 0
M  V30 6568 H 621.876 0.232188 6.78703 0
M  V30 6569 H 619.822 -1.94991 6.2635 0
M  V30 6570 H 619.739 -0.760779 7.52162 0
M  V30 6571 H 621.007 -1.94967 7.54724 0
M  V30 6572 N 625.236 -1.5273 0.388769 0
M  V30 6573 C 626.184 -2.27975 -0.461527 0
M  V30 6574 C 627.178 -1.31854 -1.06352 0
M  V30 6575 O 628.384 -1.49394 -1.00406 0
M  V30 6576 H 624.759 -0.733088 -0.16759 0
M  V30 6577 H 626.73 -2.97765 0.194579 0
M  V30 6578 C 625.479 -3.09881 -1.577 0
M  V30 6579 H 624.802 -3.83701 -1.12309 0
M  V30 6580 H 626.242 -3.6567 -2.14619 0
M  V30 6581 C 624.701 -2.22159 -2.53272 0
M  V30 6582 O 625.231 -1.84802 -3.56667 0
M  V30 6583 N 623.437 -1.8633 -2.23001 0
M  V30 6584 H 622.984 -2.16909 -1.38954 0
M  V30 6585 H 622.942 -1.27927 -2.87197 0
M  V30 6586 N 626.714 -0.118576 -1.57153 0
M  V30 6587 C 627.963 0.539339 -1.94355 0
M  V30 6588 C 628.276 1.67858 -1.00415 0
M  V30 6589 O 629.482 2.39922 -1.27081 0
M  V30 6590 C 627.938 1.01082 -3.45414 0
M  V30 6591 C 627.546 -0.0999402 -4.47889 0
M  V30 6592 C 629.29 1.64013 -3.91535 0
M  V30 6593 C 627.197 0.388212 -5.90124 0
M  V30 6594 H 626.127 0.205247 -0.725527 0
M  V30 6595 H 628.778 -0.19836 -1.82425 0
M  V30 6596 H 627.16 1.80292 -3.52577 0
M  V30 6597 H 628.334 -0.876189 -4.52393 0
M  V30 6598 H 626.649 -0.635885 -4.11516 0
M  V30 6599 H 629.246 2.01649 -4.95219 0
M  V30 6600 H 629.589 2.51836 -3.31488 0
M  V30 6601 H 630.122 0.913439 -3.87171 0
M  V30 6602 H 626.861 -0.453963 -6.53926 0
M  V30 6603 H 626.381 1.13095 -5.89041 0
M  V30 6604 H 628.06 0.849574 -6.41398 0
M  V30 6605 N 628.193 1.56834 0.155195 0
M  V30 6606 C 629.442 1.82088 0.867567 0
M  V30 6607 C 629.755 0.69849 1.82703 0
M  V30 6608 O 630.961 0.836407 2.58295 0
M  V30 6609 C 629.417 3.22707 1.59336 0
M  V30 6610 C 629.025 4.42859 0.676719 0
M  V30 6611 C 630.769 3.57242 2.293 0
M  V30 6612 C 628.676 5.74501 1.40367 0
M  V30 6613 H 627.606 0.679057 0.327715 0
M  V30 6614 H 630.257 1.83105 0.120351 0
M  V30 6615 H 628.639 3.16054 2.38591 0
M  V30 6616 H 629.813 4.60731 -0.0800196 0
M  V30 6617 H 628.128 4.16311 0.0859129 0
M  V30 6618 H 630.725 4.52847 2.84312 0
M  V30 6619 H 631.068 2.82901 3.05406 0
M  V30 6620 H 631.601 3.6552 1.56972 0
M  V30 6621 H 628.34 6.51915 0.684623 0
M  V30 6622 H 627.86 5.60579 2.13332 0
M  V30 6623 H 629.539 6.17016 1.94681 0
M  V30 6624 N 629.671 -0.424282 1.51781 0
M  V30 6625 C 630.621 -1.51464 1.70419 0
M  V30 6626 C 631.605 -1.50911 0.558094 0
M  V30 6627 O 632.797 -1.57143 0.814552 0
M  V30 6628 C 629.926 -2.89539 1.84451 0
M  V30 6629 C 629.012 -2.94798 3.04886 0
M  V30 6630 N 629.403 -2.69778 4.27848 0
M  V30 6631 C 627.701 -3.25962 3.04408 0
M  V30 6632 C 628.402 -2.81216 5.09208 0
M  V30 6633 N 627.378 -3.13447 4.44131 0
M  V30 6634 H 631.18 -1.30892 2.63144 0
M  V30 6635 H 628.694 -0.631783 1.49607 0
M  V30 6636 H 630.691 -3.67998 1.95917 0
M  V30 6637 H 629.351 -3.11121 0.929168 0
M  V30 6638 H 630.362 -2.44458 4.56575 0
M  V30 6639 H 627.039 -3.53236 2.22555 0
M  V30 6640 H 628.429 -2.65715 6.17127 0
M  V30 6641 N 631.149 -1.42148 -0.680565 0
M  V30 6642 C 632.565 -1.24947 -0.992995 0
M  V30 6643 C 632.765 -0.149527 -2.00944 0
M  V30 6644 O 631.821 0.481145 -2.47873 0
M  V30 6645 C 633.134 -2.60426 -1.5033 0
M  V30 6646 C 634.682 -2.67733 -1.62137 0
M  V30 6647 C 635.157 -4.03564 -2.16565 0
M  V30 6648 N 636.648 -4.05488 -2.23905 0
M  V30 6649 C 637.383 -5.07401 -2.67081 0
M  V30 6650 N 636.879 -6.19698 -3.09751 0
M  V30 6651 N 638.672 -4.94758 -2.66778 0
M  V30 6652 H 630.823 -2.12399 -0.0074788 0
M  V30 6653 H 633.086 -0.94571 -0.0658529 0
M  V30 6654 H 632.792 -3.41743 -0.830947 0
M  V30 6655 H 632.666 -2.83949 -2.483 0
M  V30 6656 H 635.053 -1.86765 -2.2848 0
M  V30 6657 H 635.134 -2.48004 -0.626713 0
M  V30 6658 H 634.778 -4.84987 -1.50833 0
M  V30 6659 H 634.708 -4.20641 -3.1681 0
M  V30 6660 H 637.199 -3.24415 -1.93812 0
M  V30 6661 H 637.512 -6.93318 -3.41365 0
M  V30 6662 H 635.857 -6.23212 -3.07623 0
M  V30 6663 H 639.048 -4.06105 -2.32801 0
M  V30 6664 H 639.221 -5.74317 -3.00107 0
M  V30 6665 N 632.627 0.916307 -1.28225 0
M  V30 6666 C 633.904 1.64429 -1.05936 0
M  V30 6667 C 634.284 2.07234 0.402139 0
M  V30 6668 O 633.632 1.81535 1.3877 0
M  V30 6669 C 633.842 2.83773 -2.03159 0
M  V30 6670 C 635.19 3.54852 -2.33164 0
M  V30 6671 O 636.214 2.93918 -2.01223 0
M  V30 6672 O 635.073 4.64663 -2.87664 0
M  V30 6673 H 632.167 0.721221 -0.404683 0
M  V30 6674 H 634.713 0.965838 -1.39534 0
M  V30 6675 H 633.485 2.49217 -3.01673 0
M  V30 6676 H 633.108 3.59333 -1.70192 0
M  V30 6677 N 634.105 1.10431 1.1244 0
M  V30 6678 C 635.035 0.775143 2.20258 0
M  V30 6679 C 636.016 -0.25186 1.68225 0
M  V30 6680 O 637.201 -0.117637 1.93843 0
M  V30 6681 C 634.331 0.206133 3.46688 0
M  V30 6682 C 633.285 1.16382 4.11873 0
M  V30 6683 C 632.611 0.456014 5.32752 0
M  V30 6684 C 633.911 2.5104 4.58013 0
M  V30 6685 H 635.605 1.67665 2.4805 0
M  V30 6686 H 633.151 0.807595 1.19222 0
M  V30 6687 H 635.104 -0.036291 4.21384 0
M  V30 6688 H 633.828 -0.730614 3.18323 0
M  V30 6689 H 632.487 1.39169 3.39157 0
M  V30 6690 H 632.135 -0.485203 5.00654 0
M  V30 6691 H 631.835 1.09466 5.77314 0
M  V30 6692 H 633.359 0.222135 6.10196 0
M  V30 6693 H 634.773 2.32401 5.24083 0
M  V30 6694 H 633.17 3.10789 5.13352 0
M  V30 6695 H 634.24 3.11039 3.71998 0
M  V30 6696 N 635.583 -1.29855 0.893053 0
M  V30 6697 C 636.53 -2.27909 0.364161 0
M  V30 6698 C 637.5 -1.56726 -0.550093 0
M  V30 6699 O 638.685 -1.84747 -0.47677 0
M  V30 6700 C 635.825 -3.42678 -0.408178 0
M  V30 6701 C 634.938 -4.28659 0.536212 0
M  V30 6702 C 634.073 -5.30599 -0.252521 0
M  V30 6703 C 633.112 -6.08234 0.686822 0
M  V30 6704 N 632.249 -7.02068 -0.0670902 0
M  V30 6705 H 637.089 -2.72531 1.20544 0
M  V30 6706 H 634.626 -1.34047 0.605779 0
M  V30 6707 H 636.584 -4.07986 -0.871962 0
M  V30 6708 H 635.214 -2.99103 -1.21397 0
M  V30 6709 H 634.266 -3.63584 1.1185 0
M  V30 6710 H 635.578 -4.8274 1.25552 0
M  V30 6711 H 634.732 -6.01694 -0.777801 0
M  V30 6712 H 633.471 -4.77233 -1.005 0
M  V30 6713 H 632.476 -5.3601 1.22366 0
M  V30 6714 H 633.701 -6.63689 1.43852 0
M  V30 6715 H 631.647 -6.5108 -0.801955 0
M  V30 6716 H 631.564 -7.53675 0.59243 0
M  V30 6717 H 632.832 -7.77392 -0.572851 0
M  V30 6718 N 637.061 -0.65484 -1.43351 0
M  V30 6719 C 638.286 -0.175046 -2.0666 0
M  V30 6720 C 638.711 1.15104 -1.4877 0
M  V30 6721 O 638.069 1.71144 -0.598279 0
M  V30 6722 C 638.117 -0.0991544 -3.60464 0
M  V30 6723 O 637.221 0.938169 -4.01587 0
M  V30 6724 H 636.562 -0.0956148 -0.65708 0
M  V30 6725 H 639.092 -0.898222 -1.83829 0
M  V30 6726 H 639.102 0.083632 -4.07914 0
M  V30 6727 H 637.777 -1.06719 -4.01975 0
M  V30 6728 H 636.354 0.72804 -3.65724 0
M  V30 6729 N 638.539 1.52521 -0.396863 0
M  V30 6730 C 639.487 2.28217 0.44943 0
M  V30 6731 C 640.481 1.32416 1.05652 0
M  V30 6732 O 641.687 1.49925 0.996124 0
M  V30 6733 H 638.062 0.733966 0.1637 0
M  V30 6734 H 640.033 2.97658 -0.210367 0
M  V30 6735 C 638.782 3.10713 1.56054 0
M  V30 6736 H 638.105 3.84291 1.10273 0
M  V30 6737 H 639.545 3.66803 2.12677 0
M  V30 6738 C 638.004 2.23499 2.52091 0
M  V30 6739 O 638.534 1.8669 3.55682 0
M  V30 6740 N 636.74 1.8751 2.2201 0
M  V30 6741 H 636.287 2.17643 1.37802 0
M  V30 6742 H 636.245 1.29448 2.86514 0
M  V30 6743 N 640.017 0.126909 1.57088 0
M  V30 6744 C 640.965 -0.837618 2.16995 0
M  V30 6745 C 641.959 -1.26974 1.12133 0
M  V30 6746 O 643.165 -1.24056 1.30423 0
M  V30 6747 H 639.54 -0.288256 0.694559 0
M  V30 6748 H 641.511 -0.307957 2.96807 0
M  V30 6749 C 640.26 -2.07474 2.79016 0
M  V30 6750 H 639.583 -1.75117 3.59408 0
M  V30 6751 H 641.023 -2.72949 3.24461 0
M  V30 6752 C 639.482 -2.86967 1.76498 0
M  V30 6753 O 640.012 -3.82625 1.22316 0
M  V30 6754 N 638.218 -2.51111 1.46258 0
M  V30 6755 H 637.765 -1.73389 1.90509 0
M  V30 6756 H 637.723 -3.04594 0.779085 0
M  V30 6757 N 641.495 -1.56914 -0.146875 0
M  V30 6758 C 642.744 -1.82546 -0.857898 0
M  V30 6759 C 643.057 -0.708169 -1.8233 0
M  V30 6760 O 644.263 -0.850093 -2.57848 0
M  V30 6761 C 642.719 -3.23548 -1.57623 0
M  V30 6762 C 642.327 -4.43212 -0.653224 0
M  V30 6763 C 644.071 -3.58453 -2.27402 0
M  V30 6764 C 641.978 -5.75237 -1.37318 0
M  V30 6765 H 640.908 -0.680786 -0.32411 0
M  V30 6766 H 643.559 -1.83166 -0.110639 0
M  V30 6767 H 641.941 -3.17315 -2.36912 0
M  V30 6768 H 643.115 -4.60682 0.104452 0
M  V30 6769 H 641.43 -4.16351 -0.0638336 0
M  V30 6770 H 644.027 -4.54349 -2.81907 0
M  V30 6771 H 644.37 -2.84516 -3.03901 0
M  V30 6772 H 644.903 -3.66347 -1.55032 0
M  V30 6773 H 641.642 -6.52269 -0.650041 0
M  V30 6774 H 641.162 -5.61703 -2.10357 0
M  V30 6775 H 642.841 -6.18039 -1.91406 0
M  V30 6776 N 642.974 0.416227 -1.52004 0
M  V30 6777 C 644.221 1.16383 -1.65714 0
M  V30 6778 C 644.549 1.9068 -0.383594 0
M  V30 6779 O 643.804 1.85174 0.633185 0
M  V30 6780 C 644.103 2.18923 -2.82502 0
M  V30 6781 C 643.769 1.61485 -4.20991 0
M  V30 6782 C 642.431 1.45545 -4.58661 0
M  V30 6783 C 644.783 1.19468 -5.07323 0
M  V30 6784 C 642.111 0.860937 -5.80349 0
M  V30 6785 C 644.463 0.614386 -6.29609 0
M  V30 6786 C 643.127 0.442056 -6.66035 0
M  V30 6787 H 642.397 0.425875 -0.606392 0
M  V30 6788 H 645.044 0.45199 -1.8609 0
M  V30 6789 H 643.349 2.96225 -2.56433 0
M  V30 6790 H 645.046 2.76628 -2.90307 0
M  V30 6791 H 641.636 1.74873 -3.91302 0
M  V30 6792 H 645.82 1.30596 -4.78809 0
M  V30 6793 H 641.076 0.715372 -6.072 0
M  V30 6794 H 645.25 0.280393 -6.95835 0
M  V30 6795 H 642.877 -0.0207218 -7.60197 0
M  V30 6796 N 644.452 1.42507 0.673017 0
M  V30 6797 C 645.382 1.48916 1.79851 0
M  V30 6798 C 646.363 0.345566 1.66553 0
M  V30 6799 O 647.548 0.560116 1.85947 0
M  V30 6800 C 644.678 1.39258 3.18158 0
M  V30 6801 C 643.632 2.51662 3.46194 0
M  V30 6802 C 642.958 2.27062 4.84094 0
M  V30 6803 C 644.258 3.93968 3.42909 0
M  V30 6804 H 645.952 2.43114 1.74745 0
M  V30 6805 H 643.498 1.17013 0.839288 0
M  V30 6806 H 645.451 1.42349 3.96629 0
M  V30 6807 H 644.175 0.415542 3.23946 0
M  V30 6808 H 642.834 2.47891 2.70084 0
M  V30 6809 H 642.482 1.27648 4.86534 0
M  V30 6810 H 642.182 3.02398 5.03815 0
M  V30 6811 H 643.706 2.31905 5.64847 0
M  V30 6812 H 645.12 3.99332 4.11347 0
M  V30 6813 H 643.517 4.6917 3.74165 0
M  V30 6814 H 644.587 4.20512 2.41449 0
M  V30 6815 N 645.93 -0.909495 1.28709 0
M  V30 6816 C 646.88 -1.9991 1.09636 0
M  V30 6817 C 647.864 -1.60889 0.01872 0
M  V30 6818 O 649.056 -1.75374 0.239338 0
M  V30 6819 C 646.185 -3.34675 0.764702 0
M  V30 6820 C 645.271 -3.80085 1.8814 0
M  V30 6821 N 645.662 -3.97824 3.12361 0
M  V30 6822 C 643.96 -4.09278 1.77221 0
M  V30 6823 C 644.661 -4.35928 3.85151 0
M  V30 6824 N 643.637 -4.44426 3.13028 0
M  V30 6825 H 647.439 -2.11681 2.03883 0
M  V30 6826 H 644.953 -1.09763 1.1969 0
M  V30 6827 H 646.95 -4.12426 0.609132 0
M  V30 6828 H 645.61 -3.24255 -0.169952 0
M  V30 6829 H 646.621 -3.83626 3.47925 0
M  V30 6830 H 643.298 -4.0747 0.909621 0
M  V30 6831 H 644.688 -4.57581 4.92006 0
M  V30 6832 N 647.408 -1.11026 -1.11852 0
M  V30 6833 C 648.318 -0.777252 -2.2135 0
M  V30 6834 C 649.334 0.227821 -1.72502 0
M  V30 6835 O 650.51 0.0650587 -2.01295 0
M  V30 6836 C 647.575 -0.220668 -3.45997 0
M  V30 6837 C 646.636 -1.2838 -4.09655 0
M  V30 6838 C 645.869 -0.753678 -5.28352 0
M  V30 6839 O 646.092 0.417779 -5.68868 0
M  V30 6840 O 645.026 -1.51647 -5.82483 0
M  V30 6841 H 648.852 -1.69141 -2.5224 0
M  V30 6842 H 646.437 -0.885836 -1.20305 0
M  V30 6843 H 648.319 0.0855756 -4.21313 0
M  V30 6844 H 646.994 0.666262 -3.16769 0
M  V30 6845 H 645.901 -1.64299 -3.3609 0
M  V30 6846 H 647.234 -2.14396 -4.43052 0
M  V30 6847 N 648.886 1.2938 -0.899927 0
M  V30 6848 C 650.134 1.95164 -0.524924 0
M  V30 6849 C 650.455 1.71292 0.931888 0
M  V30 6850 O 649.725 1.04481 1.65712 0
M  V30 6851 H 648.305 0.722133 -0.191135 0
M  V30 6852 H 650.967 1.57628 -1.14627 0
M  V30 6853 H 650.063 3.0397 -0.707711 0
M  V30 6854 N 650.364 0.662433 1.43002 0
M  V30 6855 C 651.294 -0.00979809 2.33498 0
M  V30 6856 C 652.275 -0.802329 1.49989 0
M  V30 6857 O 653.46 -0.761964 1.78627 0
M  V30 6858 C 650.59 -0.970446 3.33466 0
M  V30 6859 C 649.544 -0.287383 4.27034 0
M  V30 6860 C 648.87 -1.36012 5.17112 0
M  V30 6861 C 650.17 0.82595 5.15728 0
M  V30 6862 H 651.864 0.745959 2.89958 0
M  V30 6863 H 649.41 0.360172 1.39423 0
M  V30 6864 H 651.363 -1.44971 3.95679 0
M  V30 6865 H 650.087 -1.75748 2.75282 0
M  V30 6866 H 648.746 0.17152 3.66199 0
M  V30 6867 H 648.394 -2.13882 4.55262 0
M  V30 6868 H 648.094 -0.908276 5.80538 0
M  V30 6869 H 649.618 -1.84056 5.82199 0
M  V30 6870 H 651.032 0.42845 5.71697 0
M  V30 6871 H 649.429 1.20282 5.87922 0
M  V30 6872 H 650.499 1.68003 4.54866 0
M  V30 6873 N 651.842 -1.52309 0.404946 0
M  V30 6874 C 653.07 -2.06185 -0.171818 0
M  V30 6875 C 653.485 -1.27536 -1.39212 0
M  V30 6876 O 652.842 -0.326112 -1.79563 0
M  V30 6877 C 652.893 -3.57647 -0.526417 0
M  V30 6878 O 652.614 -4.3332 0.645417 0
M  V30 6879 C 654.115 -4.27925 -1.15736 0
M  V30 6880 H 651.335 -0.670632 -0.0222328 0
M  V30 6881 H 653.879 -1.96259 0.574692 0
M  V30 6882 H 652.034 -3.67595 -1.22282 0
M  V30 6883 H 652.448 -5.23328 0.35042 0
M  V30 6884 H 653.922 -5.35093 -1.35572 0
M  V30 6885 H 654.399 -3.84134 -2.12926 0
M  V30 6886 H 655.005 -4.22335 -0.501281 0
M  V30 6887 N 653.32 -0.135238 -1.57019 0
M  V30 6888 C 654.566 0.519563 -1.96032 0
M  V30 6889 C 654.899 1.65284 -1.01955 0
M  V30 6890 O 654.174 1.94408 -0.059727 0
M  V30 6891 C 654.457 1.0369 -3.44848 0
M  V30 6892 C 654.31 -0.0940754 -4.49702 0
M  V30 6893 C 655.629 1.92254 -3.95887 0
M  V30 6894 H 652.748 0.18739 -0.712779 0
M  V30 6895 H 655.39 -0.214086 -1.8879 0
M  V30 6896 H 653.54 1.66209 -3.5115 0
M  V30 6897 H 655.212 -0.73 -4.55487 0
M  V30 6898 H 653.455 -0.754924 -4.27181 0
M  V30 6899 H 654.126 0.309419 -5.51132 0
M  V30 6900 H 656.602 1.39581 -3.9199 0
M  V30 6901 H 655.478 2.25364 -5.00502 0
M  V30 6902 H 655.739 2.85513 -3.37543 0
M  V30 6903 N 654.798 1.5699 0.138552 0
M  V30 6904 C 655.745 1.98899 1.17081 0
M  V30 6905 C 656.715 0.857922 1.42228 0
M  V30 6906 O 657.9 1.12065 1.54422 0
M  V30 6907 C 655.04 2.38189 2.4972 0
M  V30 6908 C 654.153 3.64624 2.31674 0
M  V30 6909 C 653.288 3.9298 3.57407 0
M  V30 6910 C 652.327 5.1266 3.34435 0
M  V30 6911 N 651.464 5.36983 4.5232 0
M  V30 6912 H 656.304 2.86881 0.80642 0
M  V30 6913 H 653.841 1.41925 0.386727 0
M  V30 6914 H 655.799 2.59 3.2707 0
M  V30 6915 H 654.429 1.53275 2.84089 0
M  V30 6916 H 653.481 3.51542 1.45337 0
M  V30 6917 H 654.793 4.52131 2.10664 0
M  V30 6918 H 653.947 4.14335 4.43183 0
M  V30 6919 H 652.686 3.03912 3.8143 0
M  V30 6920 H 651.691 4.9117 2.47048 0
M  V30 6921 H 652.916 6.03288 3.11802 0
M  V30 6922 H 650.862 4.50871 4.76499 0
M  V30 6923 H 650.779 6.18775 4.34343 0
M  V30 6924 H 652.047 5.62842 5.39285 0
M  V30 6925 N 656.276 -0.40816 1.52223 0
M  V30 6926 C 657.525 -1.15212 1.65557 0
M  V30 6927 C 657.838 -1.9163 0.392096 0
M  V30 6928 O 659.044 -2.68458 0.405256 0
M  V30 6929 C 657.5 -2.09691 2.92502 0
M  V30 6930 C 657.108 -1.38785 4.25961 0
M  V30 6931 C 658.852 -2.8434 3.152 0
M  V30 6932 C 656.759 -2.31919 5.44029 0
M  V30 6933 H 655.689 -0.433776 0.616729 0
M  V30 6934 H 658.34 -0.4165 1.78711 0
M  V30 6935 H 656.722 -2.8681 2.7305 0
M  V30 6936 H 657.896 -0.670248 4.55899 0
M  V30 6937 H 656.211 -0.761741 4.09373 0
M  V30 6938 H 658.808 -3.54166 4.00587 0
M  V30 6939 H 659.151 -3.47344 2.29473 0
M  V30 6940 H 659.684 -2.14321 3.35129 0
M  V30 6941 H 656.423 -1.7356 6.32105 0
M  V30 6942 H 655.943 -3.0165 5.18428 0
M  V30 6943 H 657.622 -2.92424 5.77146 0
M  V30 6944 N 657.755 -1.42862 -0.66545 0
M  V30 6945 C 659.003 -1.43546 -1.42264 0
M  V30 6946 C 659.324 -0.0563116 -1.94919 0
M  V30 6947 O 658.594 0.906568 -1.73661 0
M  V30 6948 H 657.174 -0.528464 -0.527953 0
M  V30 6949 H 659.836 -1.78363 -0.785665 0
M  V30 6950 H 658.932 -2.14079 -2.27105 0
M  V30 6951 N 659.233 0.902656 -1.29189 0
M  V30 6952 C 660.51 1.63296 -1.07674 0
M  V30 6953 C 660.89 2.07649 0.380137 0
M  V30 6954 O 660.238 1.82997 1.36837 0
M  V30 6955 C 660.448 2.81603 -2.06158 0
M  V30 6956 C 661.796 3.52359 -2.36914 0
M  V30 6957 O 662.82 2.91767 -2.04329 0
M  V30 6958 O 661.679 4.61586 -2.92576 0
M  V30 6959 H 658.773 0.716889 -0.41231 0
M  V30 6960 H 661.319 0.950984 -1.4055 0
M  V30 6961 H 660.091 2.46004 -3.04299 0
M  V30 6962 H 659.714 3.57508 -1.73993 0
M  V30 6963 N 660.711 1.11618 1.11262 0
M  V30 6964 C 661.958 0.86618 1.8304 0
M  V30 6965 C 662.286 -0.608149 1.84748 0
M  V30 6966 O 661.541 -1.46508 1.29745 0
M  V30 6967 C 661.84 1.37529 3.2988 0
M  V30 6968 C 661.506 2.86317 3.4833 0
M  V30 6969 C 660.168 3.26945 3.53073 0
M  V30 6970 C 662.52 3.82136 3.54431 0
M  V30 6971 C 659.848 4.62117 3.61475 0
M  V30 6972 C 662.2 5.17128 3.64365 0
M  V30 6973 C 660.864 5.57312 3.67369 0
M  V30 6974 H 660.134 0.316958 0.66979 0
M  V30 6975 H 662.781 1.3949 1.31205 0
M  V30 6976 H 661.086 0.766842 3.84222 0
M  V30 6977 H 662.783 1.15817 3.83911 0
M  V30 6978 H 659.373 2.53889 3.45309 0
M  V30 6979 H 663.557 3.51847 3.50025 0
M  V30 6980 H 658.813 4.92655 3.62079 0
M  V30 6981 H 662.987 5.91208 3.68029 0
M  V30 6982 H 660.614 6.62045 3.73632 0
M  V30 6983 N 662.189 -1.289 0.906776 0
M  V30 6984 C 663.437 -1.94883 0.535266 0
M  V30 6985 C 663.758 -1.71784 -0.922791 0
M  V30 6986 O 663.028 -1.05359 -1.65156 0
M  V30 6987 H 661.608 -0.721109 0.194962 0
M  V30 6988 H 664.27 -1.57018 1.15461 0
M  V30 6989 H 663.366 -3.03591 0.723821 0
M  V30 6990 N 663.667 -0.670007 -1.42649 0
M  V30 6991 C 664.597 -0.00258501 -2.335 0
M  V30 6992 C 665.578 0.794364 -1.50412 0
M  V30 6993 O 666.763 0.75248 -1.79029 0
M  V30 6994 C 663.893 0.952748 -3.33976 0
M  V30 6995 C 662.847 0.264733 -4.2718 0
M  V30 6996 C 662.173 1.33267 -5.17826 0
M  V30 6997 C 663.473 -0.853289 -5.15283 0
M  V30 6998 H 665.167 -0.761326 -2.89559 0
M  V30 6999 H 662.713 -0.367561 -1.3923 0
M  V30 7000 H 664.666 1.4287 -3.96442 0
M  V30 7001 H 663.39 1.74285 -2.7621 0
M  V30 7002 H 662.049 -0.190938 -3.66102 0
M  V30 7003 H 661.697 2.11464 -4.5639 0
M  V30 7004 H 661.397 0.877476 -5.81011 0
M  V30 7005 H 662.921 1.80965 -5.83167 0
M  V30 7006 H 664.335 -0.458763 -5.71462 0
M  V30 7007 H 662.732 -1.23398 -5.87276 0
M  V30 7008 H 663.802 -1.70412 -4.53969 0
M  V30 7009 N 665.145 1.52092 -0.413018 0
M  V30 7010 C 666.108 2.25706 0.398687 0
M  V30 7011 C 667.108 1.28221 0.970368 0
M  V30 7012 O 668.298 1.52131 0.848635 0
M  V30 7013 C 665.43 3.03029 1.5616 0
M  V30 7014 H 666.623 2.98888 -0.246131 0
M  V30 7015 H 664.176 1.5542 -0.165622 0
M  V30 7016 H 664.911 2.34205 2.24317 0
M  V30 7017 H 664.696 3.74606 1.15812 0
M  V30 7018 H 666.186 3.58857 2.13569 0
M  V30 7019 N 666.623 0.143563 1.56945 0
M  V30 7020 C 667.851 -0.515447 2.00377 0
M  V30 7021 C 668.266 -1.58643 1.02361 0
M  V30 7022 O 667.623 -1.82489 0.0201039 0
M  V30 7023 C 667.674 -1.11923 3.43737 0
M  V30 7024 O 667.395 -0.0910318 4.38005 0
M  V30 7025 C 668.896 -1.85918 4.02429 0
M  V30 7026 H 666.116 -0.134478 0.657386 0
M  V30 7027 H 668.66 0.237135 2.0312 0
M  V30 7028 H 666.815 -1.82245 3.41856 0
M  V30 7029 H 667.229 -0.532916 5.21786 0
M  V30 7030 H 668.703 -2.2346 5.04747 0
M  V30 7031 H 669.18 -2.7438 3.42947 0
M  V30 7032 H 669.786 -1.20303 4.07931 0
M  V30 7033 N 668.101 -1.57061 -0.130224 0
M  V30 7034 C 669.347 -1.8453 -0.841216 0
M  V30 7035 C 669.68 -0.727666 -1.80052 0
M  V30 7036 O 668.955 0.267419 -1.92653 0
M  V30 7037 C 669.238 -3.22553 -1.60099 0
M  V30 7038 C 669.091 -4.44901 -0.662048 0
M  V30 7039 C 670.41 -3.58003 -2.55973 0
M  V30 7040 H 667.529 -0.671215 -0.304366 0
M  V30 7041 H 670.171 -1.89705 -0.105821 0
M  V30 7042 H 668.321 -3.18272 -2.22789 0
M  V30 7043 H 669.993 -4.61278 -0.0448559 0
M  V30 7044 H 668.236 -4.33791 0.0272253 0
M  V30 7045 H 668.907 -5.3812 -1.23006 0
M  V30 7046 H 671.383 -3.63002 -2.03393 0
M  V30 7047 H 670.259 -4.55576 -3.06172 0
M  V30 7048 H 670.52 -2.84833 -3.38116 0
M  V30 7049 N 669.579 0.400081 -1.52437 0
M  V30 7050 C 670.526 1.48803 -1.76426 0
M  V30 7051 C 671.496 1.5461 -0.607032 0
M  V30 7052 O 672.681 1.71041 -0.845563 0
M  V30 7053 C 669.821 2.86156 -1.92896 0
M  V30 7054 C 668.934 2.89587 -3.20567 0
M  V30 7055 C 668.069 4.18296 -3.27417 0
M  V30 7056 C 667.108 4.15736 -4.49255 0
M  V30 7057 N 666.245 5.36032 -4.53447 0
M  V30 7058 H 671.085 1.27649 -2.69276 0
M  V30 7059 H 668.622 0.619451 -1.33421 0
M  V30 7060 H 670.58 3.65901 -2.00429 0
M  V30 7061 H 669.21 3.05785 -1.03418 0
M  V30 7062 H 668.262 2.02278 -3.22161 0
M  V30 7063 H 669.574 2.83562 -4.10358 0
M  V30 7064 H 668.728 5.06439 -3.34072 0
M  V30 7065 H 667.467 4.27028 -2.35581 0
M  V30 7066 H 666.472 3.25982 -4.42737 0
M  V30 7067 H 667.697 4.08636 -5.42396 0
M  V30 7068 H 665.643 5.45415 -3.64498 0
M  V30 7069 H 665.56 5.32038 -5.37096 0
M  V30 7070 H 666.828 6.26104 -4.64343 0
M  V30 7071 N 671.057 1.43213 0.657864 0
M  V30 7072 C 672.285 1.48015 1.44566 0
M  V30 7073 C 672.7 0.0965951 1.88553 0
M  V30 7074 O 672.057 -0.892221 1.59203 0
M  V30 7075 C 672.108 2.42199 2.68369 0
M  V30 7076 O 671.829 3.75173 2.26223 0
M  V30 7077 C 673.33 2.56195 3.61772 0
M  V30 7078 H 670.55 0.502861 0.444266 0
M  V30 7079 H 673.094 1.87907 0.806917 0
M  V30 7080 H 671.249 2.05514 3.28394 0
M  V30 7081 H 671.663 4.25776 3.06293 0
M  V30 7082 H 673.137 3.26182 4.4532 0
M  V30 7083 H 673.614 1.60534 4.0881 0
M  V30 7084 H 674.22 2.93671 3.07632 0
M  V30 7085 N 672.536 -0.895792 1.29666 0
M  V30 7086 C 673.952 -1.17726 1.07763 0
M  V30 7087 C 674.152 -2.00794 -0.168576 0
M  V30 7088 O 673.208 -2.37213 -0.865244 0
M  V30 7089 C 674.521 -1.89441 2.33522 0
M  V30 7090 C 676.069 -2.02251 2.3888 0
M  V30 7091 C 676.544 -2.77378 3.64452 0
M  V30 7092 N 678.035 -2.8493 3.65198 0
M  V30 7093 C 678.77 -3.43606 4.59045 0
M  V30 7094 N 678.266 -4.03417 5.63228 0
M  V30 7095 N 680.059 -3.41317 4.46608 0
M  V30 7096 H 672.21 -0.341652 2.09634 0
M  V30 7097 H 674.473 -0.213865 0.923561 0
M  V30 7098 H 674.179 -1.35842 3.24407 0
M  V30 7099 H 674.053 -2.89893 2.41334 0
M  V30 7100 H 676.44 -2.55025 1.4848 0
M  V30 7101 H 676.521 -1.0092 2.3505 0
M  V30 7102 H 676.165 -2.25279 4.55205 0
M  V30 7103 H 676.095 -3.79062 3.65541 0
M  V30 7104 H 678.586 -2.42453 2.89871 0
M  V30 7105 H 678.899 -4.46224 6.30955 0
M  V30 7106 H 677.244 -4.01868 5.67033 0
M  V30 7107 H 680.435 -2.93812 3.64407 0
M  V30 7108 H 680.608 -3.86751 5.1993 0
M  V30 7109 N 674.014 -1.12206 -1.10668 0
M  V30 7110 C 675.26 -0.887096 -1.83036 0
M  V30 7111 C 675.615 0.580887 -1.83422 0
M  V30 7112 O 674.908 1.42379 -1.28213 0
M  V30 7113 C 675.102 -1.39276 -3.29146 0
M  V30 7114 C 674.931 -2.90837 -3.42992 0
M  V30 7115 C 673.701 -3.59047 -3.55546 0
M  V30 7116 C 675.899 -3.8885 -3.36601 0
M  V30 7117 N 673.881 -4.98747 -3.57945 0
M  V30 7118 C 675.252 -5.14666 -3.45716 0
M  V30 7119 C 677.307 -3.81296 -3.20184 0
M  V30 7120 C 676.01 -6.33814 -3.40106 0
M  V30 7121 C 678.036 -4.99965 -3.15895 0
M  V30 7122 C 677.398 -6.24637 -3.25589 0
M  V30 7123 H 673.497 -0.377857 -0.684652 0
M  V30 7124 H 676.081 -1.42791 -1.32358 0
M  V30 7125 H 674.252 -0.879026 -3.78322 0
M  V30 7126 H 675.984 -1.10011 -3.89461 0
M  V30 7127 H 672.739 -3.09533 -3.5845 0
M  V30 7128 H 673.163 -5.71606 -3.62762 0
M  V30 7129 H 677.805 -2.85806 -3.11569 0
M  V30 7130 H 675.523 -7.29574 -3.47487 0
M  V30 7131 H 679.109 -4.95847 -3.04347 0
M  V30 7132 H 677.989 -7.14921 -3.22269 0
M  V30 7133 N 675.492 1.28418 -0.913599 0
M  V30 7134 C 676.717 1.99643 -0.561899 0
M  V30 7135 C 677.142 1.67819 0.849608 0
M  V30 7136 O 676.5 0.910503 1.56779 0
M  V30 7137 C 676.548 3.52116 -0.777622 0
M  V30 7138 O 675.652 4.12076 0.163457 0
M  V30 7139 H 674.993 0.627229 -0.217898 0
M  V30 7140 H 677.523 1.63575 -1.229 0
M  V30 7141 H 677.533 4.02163 -0.687666 0
M  V30 7142 H 676.208 3.74613 -1.8066 0
M  V30 7143 H 674.785 3.72892 0.0247827 0
M  V30 7144 N 676.97 0.677563 1.42291 0
M  V30 7145 C 678.218 0.200578 2.01102 0
M  V30 7146 C 678.539 -1.19803 1.53858 0
M  V30 7147 O 677.809 -1.80496 0.761439 0
M  V30 7148 H 676.389 0.0711634 0.743603 0
M  V30 7149 H 679.051 0.874691 1.7417 0
M  V30 7150 H 678.147 0.204 3.11433 0
M  V30 7151 N 678.448 -1.51871 0.421078 0
M  V30 7152 C 679.411 -2.25914 -0.386712 0
M  V30 7153 C 680.411 -1.28733 -0.963555 0
M  V30 7154 O 681.601 -1.52579 -0.840556 0
M  V30 7155 C 678.733 -3.03853 -1.54551 0
M  V30 7156 H 679.926 -2.98754 0.261978 0
M  V30 7157 H 677.479 -1.5533 0.173862 0
M  V30 7158 H 678.214 -2.35392 -2.23072 0
M  V30 7159 H 677.999 -3.75215 -1.13824 0
M  V30 7160 H 679.489 -3.59984 -2.11663 0
M  V30 7161 N 679.926 -0.151884 -1.56866 0
M  V30 7162 C 680.858 0.817008 -2.14144 0
M  V30 7163 C 681.871 1.20735 -1.0921 0
M  V30 7164 O 683.06 1.15058 -1.36469 0
M  V30 7165 C 680.16 2.10844 -2.65326 0
M  V30 7166 C 679.333 1.88471 -3.94712 0
M  V30 7167 C 678.392 3.01649 -4.31155 0
M  V30 7168 O 677.418 2.73127 -4.9939 0
M  V30 7169 N 678.62 4.28947 -3.91132 0
M  V30 7170 H 681.385 0.327448 -2.97906 0
M  V30 7171 H 678.946 0.0315313 -1.61869 0
M  V30 7172 H 680.938 2.85616 -2.86715 0
M  V30 7173 H 679.508 2.51049 -1.86262 0
M  V30 7174 H 678.728 0.977088 -3.81899 0
M  V30 7175 H 680.016 1.70866 -4.79252 0
M  V30 7176 H 679.414 4.54986 -3.36161 0
M  V30 7177 H 677.971 5.00484 -4.17563 0
M  V30 7178 N 681.404 1.57128 0.121893 0
M  V30 7179 C 682.815 1.73902 0.679348 0
M  V30 7180 C 683.166 0.770135 1.80453 0
M  V30 7181 O 682.291 -0.0576083 2.16323 0
M  V30 7182 C 682.886 3.15328 1.2391 0
M  V30 7183 C 681.445 3.33618 1.74288 0
M  V30 7184 C 680.592 2.6978 0.641414 0
M  V30 7185 H 683.543 1.58359 -0.104 0
M  V30 7186 H 683.564 3.16718 2.10879 0
M  V30 7187 H 683.076 3.85821 0.419957 0
M  V30 7188 H 681.177 2.68162 2.58689 0
M  V30 7189 H 681.29 4.4176 1.85432 0
M  V30 7190 H 679.654 2.30935 1.0743 0
M  V30 7191 H 680.437 3.42895 -0.166707 0
M  V30 7192 N 682.882 -0.391992 1.52647 0
M  V30 7193 C 683.812 -1.48517 1.8018 0
M  V30 7194 C 684.793 -1.57039 0.653667 0
M  V30 7195 O 685.978 -1.72036 0.900962 0
M  V30 7196 C 683.108 -2.86161 1.96797 0
M  V30 7197 C 682.062 -2.92481 3.12472 0
M  V30 7198 C 681.388 -4.32546 3.14338 0
M  V30 7199 C 682.688 -2.624 4.51601 0
M  V30 7200 H 684.382 -1.25726 2.71723 0
M  V30 7201 H 681.928 -0.603387 1.30749 0
M  V30 7202 H 683.881 -3.62639 2.14641 0
M  V30 7203 H 682.605 -3.10283 1.01941 0
M  V30 7204 H 681.264 -2.18451 2.94406 0
M  V30 7205 H 680.912 -4.53703 2.1717 0
M  V30 7206 H 680.612 -4.37695 3.92042 0
M  V30 7207 H 682.136 -5.10934 3.34333 0
M  V30 7208 H 683.55 -3.28596 4.69785 0
M  V30 7209 H 681.947 -2.78903 5.3135 0
M  V30 7210 H 683.017 -1.57754 4.58521 0
M  V30 7211 N 684.36 -1.4356 -0.65026 0
M  V30 7212 C 685.27 -1.514 -1.79207 0
M  V30 7213 C 686.286 -0.400895 -1.69319 0
M  V30 7214 O 687.462 -0.655458 -1.90436 0
M  V30 7215 C 684.527 -1.43737 -3.155 0
M  V30 7216 C 683.588 -2.65743 -3.37163 0
M  V30 7217 C 682.821 -2.58436 -4.66954 0
M  V30 7218 O 683.044 -1.63374 -5.46503 0
M  V30 7219 O 681.978 -3.48984 -4.90402 0
M  V30 7220 H 685.804 -2.47825 -1.75547 0
M  V30 7221 H 683.389 -1.25594 -0.809111 0
M  V30 7222 H 685.271 -1.41916 -3.96784 0
M  V30 7223 H 683.946 -0.504488 -3.19745 0
M  V30 7224 H 682.853 -2.73136 -2.55632 0
M  V30 7225 H 684.186 -3.58014 -3.37768 0
M  V30 7226 N 685.838 0.888903 -1.30139 0
M  V30 7227 C 686.77 1.99972 -1.11999 0
M  V30 7228 C 687.783 1.62673 -0.0643619 0
M  V30 7229 O 688.972 1.75788 -0.309983 0
M  V30 7230 C 686.072 3.31904 -0.685059 0
M  V30 7231 C 685.245 3.97665 -1.82158 0
M  V30 7232 C 684.304 5.07894 -1.37585 0
M  V30 7233 O 683.33 5.2974 -2.08241 0
M  V30 7234 N 684.532 5.7995 -0.252697 0
M  V30 7235 H 687.297 2.16085 -2.07671 0
M  V30 7236 H 684.858 1.06175 -1.22223 0
M  V30 7237 H 686.85 4.03005 -0.369964 0
M  V30 7238 H 685.42 3.12084 0.179507 0
M  V30 7239 H 684.64 3.19787 -2.305 0
M  V30 7240 H 685.928 4.3834 -2.58332 0
M  V30 7241 H 685.326 5.647 0.336141 0
M  V30 7242 H 683.883 6.518 0.00296813 0
M  V30 7243 N 687.317 1.12792 1.10072 0
M  V30 7244 C 688.728 0.899346 1.63611 0
M  V30 7245 C 689.079 -0.565547 1.87872 0
M  V30 7246 O 688.204 -1.43081 1.62348 0
M  V30 7247 C 688.799 1.62608 2.97227 0
M  V30 7248 C 687.358 1.44356 3.47618 0
M  V30 7249 C 686.505 1.65958 2.22156 0
M  V30 7250 H 689.456 1.28216 0.935223 0
M  V30 7251 H 689.477 1.0793 3.64872 0
M  V30 7252 H 688.989 2.69221 2.79538 0
M  V30 7253 H 687.09 0.400148 3.70445 0
M  V30 7254 H 687.203 2.20218 4.25489 0
M  V30 7255 H 685.567 1.08395 2.30484 0
M  V30 7256 H 686.35 2.73877 2.06993 0
M  V30 7257 N 688.795 -1.27931 0.920396 0
M  V30 7258 C 690.02 -1.99343 0.572478 0
M  V30 7259 C 690.445 -1.68267 -0.840696 0
M  V30 7260 O 689.803 -0.918805 -1.56294 0
M  V30 7261 C 689.851 -3.51698 0.796284 0
M  V30 7262 O 688.955 -4.12157 -0.141602 0
M  V30 7263 H 688.296 -0.626065 0.221221 0
M  V30 7264 H 690.826 -1.62921 1.23765 0
M  V30 7265 H 690.836 -4.01793 0.708984 0
M  V30 7266 H 689.511 -3.73649 1.82644 0
M  V30 7267 H 688.088 -3.729 -0.005007 0
M  V30 7268 N 690.273 -0.685099 -1.4193 0
M  V30 7269 C 691.521 -0.21124 -2.00993 0
M  V30 7270 C 691.842 1.18985 -1.54491 0
M  V30 7271 O 691.112 1.8009 -0.771 0
M  V30 7272 H 689.692 -0.0751059 -0.743215 0
M  V30 7273 H 692.354 -0.883915 -1.73704 0
M  V30 7274 H 691.45 -0.220513 -3.1132 0
M  V30 7275 N 691.751 1.51645 -0.429126 0
M  V30 7276 C 692.976 2.06917 0.141399 0
M  V30 7277 C 693.401 1.29527 1.36398 0
M  V30 7278 O 692.759 0.33094 1.78254 0
M  V30 7279 C 692.807 3.57776 0.4504 0
M  V30 7280 O 691.911 3.82639 1.53821 0
M  V30 7281 H 691.252 0.663978 0.0054647 0
M  V30 7282 H 693.782 1.95355 -0.608093 0
M  V30 7283 H 693.792 4.01894 0.703249 0
M  V30 7284 H 692.467 4.13532 -0.443213 0
M  V30 7285 H 691.044 3.5039 1.27597 0
M  V30 7286 N 693.229 0.160201 1.56784 0
M  V30 7287 C 694.475 -0.48831 1.96833 0
M  V30 7288 C 694.808 -1.63641 1.04571 0
M  V30 7289 O 694.083 -1.94289 0.0906481 0
M  V30 7290 C 694.366 -0.981908 3.46454 0
M  V30 7291 C 694.219 0.165607 4.49495 0
M  V30 7292 C 695.538 -1.85931 3.98896 0
M  V30 7293 H 692.657 -0.176027 0.71567 0
M  V30 7294 H 695.299 0.244093 1.88426 0
M  V30 7295 H 693.449 -1.60602 3.5375 0
M  V30 7296 H 695.121 0.802372 4.54268 0
M  V30 7297 H 693.364 0.822789 4.25926 0
M  V30 7298 H 694.035 -0.221699 5.51555 0
M  V30 7299 H 696.511 -1.33327 3.94161 0
M  V30 7300 H 695.387 -2.17373 5.04024 0
M  V30 7301 H 695.648 -2.80106 3.42042 0
M  V30 7302 N 694.707 -1.5719 -0.113559 0
M  V30 7303 C 695.637 -2.03772 -1.14013 0
M  V30 7304 C 696.618 -0.923176 -1.42869 0
M  V30 7305 O 697.803 -1.19325 -1.53216 0
M  V30 7306 C 694.933 -2.44663 -2.4649 0
M  V30 7307 C 693.887 -3.59612 -2.32085 0
M  V30 7308 C 693.213 -3.8642 -3.69573 0
M  V30 7309 C 694.513 -4.91149 -1.7768 0
M  V30 7310 H 696.207 -2.89785 -0.752665 0
M  V30 7311 H 693.753 -1.39412 -0.360609 0
M  V30 7312 H 695.706 -2.75857 -3.18561 0
M  V30 7313 H 694.43 -1.55628 -2.87137 0
M  V30 7314 H 693.089 -3.28636 -1.62461 0
M  V30 7315 H 692.737 -2.94581 -4.07715 0
M  V30 7316 H 692.437 -4.63797 -3.60786 0
M  V30 7317 H 693.961 -4.2007 -4.4314 0
M  V30 7318 H 695.375 -5.20843 -2.39574 0
M  V30 7319 H 693.772 -5.72562 -1.79701 0
M  V30 7320 H 694.842 -4.79301 -0.734776 0
M  V30 7321 N 696.185 0.383891 -1.52853 0
M  V30 7322 C 697.431 1.12667 -1.69345 0
M  V30 7323 C 697.786 1.87519 -0.430635 0
M  V30 7324 O 697.079 1.82742 0.575846 0
M  V30 7325 C 697.273 2.12881 -2.87082 0
M  V30 7326 C 697.102 1.47873 -4.24692 0
M  V30 7327 C 695.872 1.24064 -4.89833 0
M  V30 7328 C 698.07 0.926118 -5.05893 0
M  V30 7329 N 696.052 0.552138 -6.11412 0
M  V30 7330 C 697.423 0.365966 -6.18919 0
M  V30 7331 C 699.478 0.823023 -4.91051 0
M  V30 7332 C 698.181 -0.287204 -7.18726 0
M  V30 7333 C 700.207 0.183666 -5.91115 0
M  V30 7334 C 699.569 -0.365693 -7.0345 0
M  V30 7335 H 695.668 0.398064 -0.673104 0
M  V30 7336 H 698.252 0.415504 -1.90215 0
M  V30 7337 H 696.423 2.81329 -2.67784 0
M  V30 7338 H 698.155 2.79703 -2.92486 0
M  V30 7339 H 694.91 1.51701 -4.48647 0
M  V30 7340 H 695.334 0.223783 -6.7663 0
M  V30 7341 H 699.976 1.23354 -4.04405 0
M  V30 7342 H 697.694 -0.709719 -8.04977 0
M  V30 7343 H 701.28 0.105074 -5.81705 0
M  V30 7344 H 700.16 -0.85261 -7.79551 0
M  V30 7345 N 697.663 1.43903 0.642637 0
M  V30 7346 C 698.596 1.44339 1.76753 0
M  V30 7347 C 699.574 0.303558 1.59741 0
M  V30 7348 O 700.758 0.498775 1.81781 0
M  V30 7349 C 697.885 1.26508 3.14187 0
M  V30 7350 C 696.931 2.43905 3.49875 0
M  V30 7351 S 697.764 4.0645 3.48653 0
M  V30 7352 C 698.92 3.91021 4.88726 0
M  V30 7353 H 699.153 2.39523 1.76113 0
M  V30 7354 H 696.686 1.31061 0.81623 0
M  V30 7355 H 698.644 1.16908 3.93501 0
M  V30 7356 H 697.305 0.328548 3.12377 0
M  V30 7357 H 696.498 2.27262 4.49853 0
M  V30 7358 H 696.1 2.50186 2.77998 0
M  V30 7359 H 698.392 3.54 5.77659 0
M  V30 7360 H 699.335 4.9079 5.10423 0
M  V30 7361 H 699.743 3.23287 4.62759 0
M  V30 7362 N 699.141 -0.881989 1.30609 0
M  V30 7363 C 700.104 -1.96957 1.1722 0
M  V30 7364 C 701.104 -1.60472 0.102598 0
M  V30 7365 O 702.294 -1.70628 0.350943 0
M  V30 7366 C 699.426 -3.31463 0.796572 0
M  V30 7367 H 700.619 -2.10262 2.13846 0
M  V30 7368 H 698.172 -1.06877 1.14048 0
M  V30 7369 H 698.907 -3.23859 -0.169053 0
M  V30 7370 H 698.692 -3.59314 1.56959 0
M  V30 7371 H 700.182 -4.11233 0.72645 0
M  V30 7372 N 700.619 -1.13374 -1.09472 0
M  V30 7373 C 701.582 -0.813639 -2.14272 0
M  V30 7374 C 702.582 0.176677 -1.59826 0
M  V30 7375 O 703.772 -0.0503441 -1.74127 0
M  V30 7376 C 700.904 -0.210897 -3.40247 0
M  V30 7377 H 702.097 -1.74229 -2.44099 0
M  V30 7378 H 699.65 -0.938304 -1.25002 0
M  V30 7379 H 700.385 0.726998 -3.16046 0
M  V30 7380 H 700.17 -0.924048 -3.81056 0
M  V30 7381 H 701.66 -0.00377603 -4.176 0
M  V30 7382 N 702.098 1.27442 -0.927168 0
M  V30 7383 C 703.008 2.30599 -0.431448 0
M  V30 7384 C 704.024 1.67028 0.48761 0
M  V30 7385 O 705.2 1.97962 0.370546 0
M  V30 7386 C 702.265 3.45327 0.308292 0
M  V30 7387 C 701.326 4.24418 -0.645615 0
M  V30 7388 C 700.559 5.33667 0.0589164 0
M  V30 7389 O 700.782 5.5589 1.27838 0
M  V30 7390 O 699.716 5.98774 -0.612638 0
M  V30 7391 H 703.542 2.75036 -1.28797 0
M  V30 7392 H 701.127 1.32382 -0.692495 0
M  V30 7393 H 703.009 4.15107 0.725555 0
M  V30 7394 H 701.684 3.02945 1.14043 0
M  V30 7395 H 700.591 3.57174 -1.11255 0
M  V30 7396 H 701.924 4.70512 -1.44496 0
M  V30 7397 N 703.576 0.692616 1.41565 0
M  V30 7398 C 704.822 0.222664 2.01574 0
M  V30 7399 C 705.155 -1.1737 1.54719 0
M  V30 7400 O 704.43 -1.79161 0.757084 0
M  V30 7401 C 704.713 0.277064 3.59033 0
M  V30 7402 C 704.566 1.71016 4.16021 0
M  V30 7403 C 705.885 -0.36479 4.38586 0
M  V30 7404 H 703.004 0.0823839 0.732381 0
M  V30 7405 H 705.646 0.880778 1.68352 0
M  V30 7406 H 703.796 -0.283288 3.87466 0
M  V30 7407 H 705.468 2.32413 3.98475 0
M  V30 7408 H 703.711 2.24525 3.71175 0
M  V30 7409 H 704.382 1.69978 5.25178 0
M  V30 7410 H 706.858 0.112404 4.15948 0
M  V30 7411 H 705.734 -0.296169 5.481 0
M  V30 7412 H 705.995 -1.44506 4.17816 0
M  V30 7413 N 705.054 -1.51416 0.437162 0
M  V30 7414 C 706.303 -2.01275 -0.130865 0
M  V30 7415 C 706.616 -1.32593 -1.438 0
M  V30 7416 O 707.822 -1.7342 -2.08897 0
M  V30 7417 C 706.278 -3.5878 -0.283763 0
M  V30 7418 C 705.886 -4.36399 1.01293 0
M  V30 7419 C 707.63 -4.16786 -0.805569 0
M  V30 7420 C 705.537 -5.85608 0.825687 0
M  V30 7421 H 704.467 -0.752157 -0.0526818 0
M  V30 7422 H 707.118 -1.74524 0.566896 0
M  V30 7423 H 705.5 -3.81976 -1.04452 0
M  V30 7424 H 706.674 -4.24948 1.78201 0
M  V30 7425 H 704.989 -3.89843 1.46326 0
M  V30 7426 H 707.586 -5.25972 -0.962146 0
M  V30 7427 H 707.929 -3.75949 -1.78796 0
M  V30 7428 H 708.462 -3.97666 -0.103125 0
M  V30 7429 H 705.201 -6.30857 1.78045 0
M  V30 7430 H 704.721 -5.99723 0.0964029 0
M  V30 7431 H 706.4 -6.45226 0.478815 0
M  V30 7432 N 706.532 -0.168513 -1.56696 0
M  V30 7433 C 707.948 0.187686 -1.58493 0
M  V30 7434 C 708.148 1.63063 -1.18375 0
M  V30 7435 O 707.204 2.36142 -0.894042 0
M  V30 7436 C 708.517 -0.0905858 -3.00564 0
M  V30 7437 C 710.065 -0.028575 -3.12987 0
M  V30 7438 C 710.54 -0.279799 -4.57145 0
M  V30 7439 N 712.031 -0.227476 -4.62641 0
M  V30 7440 C 712.766 -0.396073 -5.7203 0
M  V30 7441 N 712.262 -0.623572 -6.89988 0
M  V30 7442 N 714.055 -0.332173 -5.61118 0
M  V30 7443 H 706.206 -1.11042 -1.81062 0
M  V30 7444 H 708.469 -0.441235 -0.839056 0
M  V30 7445 H 708.175 -1.09006 -3.34381 0
M  V30 7446 H 708.049 0.619078 -3.72085 0
M  V30 7447 H 710.436 0.961471 -2.78998 0
M  V30 7448 H 710.517 -0.770905 -2.43907 0
M  V30 7449 H 710.161 -1.26704 -4.91842 0
M  V30 7450 H 710.091 0.48311 -5.24379 0
M  V30 7451 H 712.582 -0.0571723 -3.77857 0
M  V30 7452 H 712.895 -0.741745 -7.69232 0
M  V30 7453 H 711.24 -0.660153 -6.91858 0
M  V30 7454 H 714.431 -0.155051 -4.67843 0
M  V30 7455 H 714.604 -0.466994 -6.46315 0
M  V30 7456 N 708.01 1.57248 0.105221 0
M  V30 7457 C 708.943 1.96567 1.15916 0
M  V30 7458 C 709.921 0.837355 1.39381 0
M  V30 7459 O 711.105 1.09676 1.53308 0
M  V30 7460 C 708.232 2.27375 2.51035 0
M  V30 7461 C 707.278 3.49869 2.43913 0
M  V30 7462 S 708.111 5.01958 1.86543 0
M  V30 7463 C 709.267 5.35932 3.23307 0
M  V30 7464 H 709.5 2.85655 0.823931 0
M  V30 7465 H 707.033 1.51204 0.312515 0
M  V30 7466 H 708.991 2.45801 3.28774 0
M  V30 7467 H 707.652 1.38876 2.81731 0
M  V30 7468 H 706.845 3.68835 3.43477 0
M  V30 7469 H 706.447 3.30901 1.743 0
M  V30 7470 H 708.739 5.31958 4.19556 0
M  V30 7471 H 709.682 6.37047 3.09155 0
M  V30 7472 H 710.09 4.63397 3.22372 0
M  V30 7473 N 709.488 -0.375779 1.53054 0
M  V30 7474 C 710.42 -1.47963 1.75042 0
M  V30 7475 C 711.433 -1.50073 0.631031 0
M  V30 7476 O 712.622 -1.53736 0.907052 0
M  V30 7477 C 709.722 -2.86767 1.80604 0
M  V30 7478 C 708.895 -3.08471 3.10104 0
M  V30 7479 C 707.954 -4.27332 3.07041 0
M  V30 7480 O 706.98 -4.22998 3.80869 0
M  V30 7481 N 708.182 -5.34214 2.27147 0
M  V30 7482 H 710.947 -1.29484 2.70285 0
M  V30 7483 H 708.508 -0.565416 1.51706 0
M  V30 7484 H 710.5 -3.64404 1.76045 0
M  V30 7485 H 709.07 -2.98542 0.926897 0
M  V30 7486 H 708.29 -2.18583 3.28048 0
M  V30 7487 H 709.578 -3.19834 3.95706 0
M  V30 7488 H 708.976 -5.40594 1.66656 0
M  V30 7489 H 707.533 -6.10467 2.28415 0
M  V30 7490 N 710.966 -1.44241 -0.634997 0
M  V30 7491 C 712.243 -1.37296 -1.39317 0
M  V30 7492 C 712.623 -0.0297532 -2.11079 0
M  V30 7493 O 711.971 0.987524 -2.06059 0
M  V30 7494 C 712.181 -2.56853 -2.36279 0
M  V30 7495 C 713.529 -3.00747 -2.99728 0
M  V30 7496 O 714.553 -2.5703 -2.46605 0
M  V30 7497 O 713.412 -3.76533 -3.96087 0
M  V30 7498 H 710.506 -0.543503 -0.623325 0
M  V30 7499 H 713.052 -1.56324 -0.660376 0
M  V30 7500 H 711.824 -3.46228 -1.82324 0
M  V30 7501 H 711.447 -2.40019 -3.16981 0
M  V30 7502 N 712.444 0.87505 -1.31075 0
M  V30 7503 C 713.855 1.4433 -1.18431 0
M  V30 7504 C 714.206 1.9506 0.211189 0
M  V30 7505 O 713.331 1.85847 1.10859 0
M  V30 7506 C 713.926 2.62341 -2.14389 0
M  V30 7507 C 712.485 3.15225 -2.05694 0
M  V30 7508 C 711.632 1.87929 -2.03907 0
M  V30 7509 H 714.583 0.684061 -1.432 0
M  V30 7510 H 714.604 3.3887 -1.73053 0
M  V30 7511 H 714.116 2.25388 -3.15946 0
M  V30 7512 H 712.217 3.56812 -1.07314 0
M  V30 7513 H 712.33 3.77853 -2.94558 0
M  V30 7514 H 710.694 2.06679 -1.48849 0
M  V30 7515 H 711.477 1.53221 -3.07211 0
M  V30 7516 N 713.922 1.13953 1.08869 0
M  V30 7517 C 714.87 0.817664 2.17754 0
M  V30 7518 C 715.864 -0.202444 1.68186 0
M  V30 7519 O 717.07 -0.0590159 1.79903 0
M  V30 7520 H 713.445 0.246671 0.710392 0
M  V30 7521 H 715.416 1.74401 2.4213 0
M  V30 7522 C 714.165 0.3063 3.46348 0
M  V30 7523 H 713.488 1.08259 3.84864 0
M  V30 7524 H 714.928 0.119584 4.23831 0
M  V30 7525 C 713.387 -0.969158 3.22659 0
M  V30 7526 O 713.917 -2.04386 3.45817 0
M  V30 7527 N 712.123 -0.902516 2.7623 0
M  V30 7528 H 711.67 -0.027801 2.57585 0
M  V30 7529 H 711.628 -1.75649 2.60758 0
M  V30 7530 N 715.4 -1.26948 0.933913 0
M  V30 7531 C 716.811 -1.76058 0.621324 0
M  V30 7532 C 717.162 -1.76175 -0.863522 0
M  V30 7533 O 716.287 -1.36921 -1.67576 0
M  V30 7534 C 716.882 -3.19713 1.12111 0
M  V30 7535 C 715.441 -3.66465 0.859074 0
M  V30 7536 C 714.588 -2.46186 1.27624 0
M  V30 7537 H 717.539 -1.13127 1.11301 0
M  V30 7538 H 717.56 -3.77566 0.471608 0
M  V30 7539 H 717.072 -3.19596 2.20182 0
M  V30 7540 H 715.173 -3.72021 -0.207566 0
M  V30 7541 H 715.286 -4.55636 1.48098 0
M  V30 7542 H 713.65 -2.45042 0.694727 0
M  V30 7543 H 714.433 -2.48774 2.36572 0
M  V30 7544 N 716.879 -0.700114 -1.41195 0
M  V30 7545 C 718.109 -0.241828 -2.0518 0
M  V30 7546 C 718.517 1.1157 -1.52803 0
M  V30 7547 O 717.86 1.70926 -0.673042 0
M  V30 7548 C 717.922 -0.12695 -3.59276 0
M  V30 7549 C 717.586 -1.41725 -4.34469 0
M  V30 7550 C 718.583 -2.35604 -4.63451 0
M  V30 7551 C 716.268 -1.67189 -4.73659 0
M  V30 7552 C 718.262 -3.53204 -5.3059 0
M  V30 7553 C 715.949 -2.85073 -5.40534 0
M  V30 7554 C 716.947 -3.77904 -5.68927 0
M  V30 7555 O 716.635 -4.93723 -6.34424 0
M  V30 7556 H 716.367 -0.109247 -0.667114 0
M  V30 7557 H 718.921 -0.954538 -1.81873 0
M  V30 7558 H 717.151 0.641571 -3.81341 0
M  V30 7559 H 718.84 0.294748 -4.04828 0
M  V30 7560 H 719.606 -2.1719 -4.33651 0
M  V30 7561 H 715.485 -0.957935 -4.50937 0
M  V30 7562 H 719.029 -4.25679 -5.52669 0
M  V30 7563 H 714.926 -3.03402 -5.69752 0
M  V30 7564 H 715.694 -4.93597 -6.5292 0
M  V30 7565 N 718.357 1.51182 -0.445186 0
M  V30 7566 C 719.582 2.07056 0.119445 0
M  V30 7567 C 720.007 1.30966 1.35016 0
M  V30 7568 O 719.365 0.349827 1.77893 0
M  V30 7569 C 719.413 3.58234 0.412428 0
M  V30 7570 O 718.517 3.84249 1.49754 0
M  V30 7571 H 717.858 0.663998 -0.00157797 0
M  V30 7572 H 720.388 1.94699 -0.628779 0
M  V30 7573 H 720.398 4.02617 0.660583 0
M  V30 7574 H 719.073 4.13038 -0.487049 0
M  V30 7575 H 717.65 3.51724 1.23873 0
M  V30 7576 N 719.835 0.176821 1.56605 0
M  V30 7577 C 721.082 -0.466715 1.97048 0
M  V30 7578 C 721.41 -1.6288 1.06302 0
M  V30 7579 O 720.665 -1.95453 0.0982571 0
M  V30 7580 C 720.964 -0.986208 3.43524 0
M  V30 7581 C 720.63 0.0605667 4.50859 0
M  V30 7582 C 719.292 0.348242 4.79938 0
M  V30 7583 C 721.644 0.770794 5.15469 0
M  V30 7584 C 718.972 1.35144 5.70923 0
M  V30 7585 C 721.324 1.76301 6.07537 0
M  V30 7586 C 719.988 2.05808 6.3498 0
M  V30 7587 H 719.258 -0.170783 0.721051 0
M  V30 7588 H 721.905 0.269942 1.89588 0
M  V30 7589 H 720.21 -1.80079 3.47964 0
M  V30 7590 H 721.907 -1.49323 3.72161 0
M  V30 7591 H 718.497 -0.173823 4.28247 0
M  V30 7592 H 722.681 0.56176 4.9311 0
M  V30 7593 H 717.937 1.58616 5.90467 0
M  V30 7594 H 722.111 2.31868 6.56666 0
M  V30 7595 H 719.738 2.8369 7.05283 0
M  V30 7596 N 721.313 -1.57302 -0.09688 0
M  V30 7597 C 722.245 -1.98618 -1.14384 0
M  V30 7598 C 723.258 -0.888483 -1.36418 0
M  V30 7599 O 724.447 -1.16661 -1.35101 0
M  V30 7600 C 721.547 -2.28838 -2.49973 0
M  V30 7601 C 720.72 -3.60132 -2.48241 0
M  V30 7602 C 719.779 -3.7831 -3.65743 0
M  V30 7603 O 718.805 -4.50183 -3.48316 0
M  V30 7604 N 720.007 -3.18752 -4.85157 0
M  V30 7605 H 722.772 -2.8904 -0.792202 0
M  V30 7606 H 720.333 -1.59356 -0.285883 0
M  V30 7607 H 722.325 -2.38193 -3.27179 0
M  V30 7608 H 720.895 -1.44431 -2.77233 0
M  V30 7609 H 720.115 -3.61763 -1.56593 0
M  V30 7610 H 721.403 -4.46389 -2.4416 0
M  V30 7611 H 720.801 -2.60368 -5.0222 0
M  V30 7612 H 719.358 -3.33595 -5.59962 0
M  V30 7613 N 722.791 0.367657 -1.53252 0
M  V30 7614 C 724.016 1.13566 -1.73544 0
M  V30 7615 C 724.441 1.82329 -0.462344 0
M  V30 7616 O 723.799 1.71655 0.583472 0
M  V30 7617 C 723.847 2.14322 -2.89997 0
M  V30 7618 O 722.951 3.21359 -2.58461 0
M  V30 7619 H 722.292 0.329614 -0.576412 0
M  V30 7620 H 724.822 0.425417 -2.00128 0
M  V30 7621 H 724.832 2.57958 -3.16104 0
M  V30 7622 H 723.507 1.63664 -3.82344 0
M  V30 7623 H 722.084 2.8271 -2.43165 0
M  V30 7624 N 724.269 1.44576 0.627338 0
M  V30 7625 C 725.546 1.38033 1.38586 0
M  V30 7626 C 725.926 0.0409468 2.1106 0
M  V30 7627 O 725.274 -0.976582 2.0658 0
M  V30 7628 C 725.484 2.58102 2.34913 0
M  V30 7629 C 726.832 3.02332 2.98129 0
M  V30 7630 O 727.856 2.58334 2.45238 0
M  V30 7631 O 726.715 3.78628 3.94085 0
M  V30 7632 H 723.809 0.546801 0.620434 0
M  V30 7633 H 726.355 1.56672 0.652077 0
M  V30 7634 H 725.127 3.4719 1.80485 0
M  V30 7635 H 724.75 2.41696 3.15703 0
M  V30 7636 N 725.747 -0.868086 1.31537 0
M  V30 7637 C 726.993 -1.62367 1.2151 0
M  V30 7638 C 727.326 -1.92883 -0.225819 0
M  V30 7639 O 726.601 -1.56176 -1.15927 0
M  V30 7640 C 726.884 -2.95268 2.06129 0
M  V30 7641 C 726.737 -2.71619 3.58529 0
M  V30 7642 C 728.056 -3.96391 1.91212 0
M  V30 7643 H 725.175 -0.589178 0.442762 0
M  V30 7644 H 727.817 -1.00336 1.61347 0
M  V30 7645 H 725.967 -3.4821 1.72284 0
M  V30 7646 H 727.639 -2.25334 4.0252 0
M  V30 7647 H 725.882 -2.05817 3.81866 0
M  V30 7648 H 726.553 -3.66192 4.13047 0
M  V30 7649 H 729.029 -3.52663 2.20834 0
M  V30 7650 H 727.905 -4.87263 2.52718 0
M  V30 7651 H 728.166 -4.33335 0.875953 0
M  V30 7652 N 727.225 -1.14528 -1.08264 0
M  V30 7653 C 728.455 -0.936604 -1.8415 0
M  V30 7654 C 728.863 0.518298 -1.81962 0
M  V30 7655 O 728.206 1.37096 -1.22272 0
M  V30 7656 C 728.268 -1.36182 -3.32708 0
M  V30 7657 C 727.932 -2.83257 -3.58629 0
M  V30 7658 C 728.929 -3.81366 -3.5335 0
M  V30 7659 C 726.614 -3.20704 -3.86593 0
M  V30 7660 C 728.608 -5.14929 -3.75668 0
M  V30 7661 C 726.295 -4.54443 -4.08564 0
M  V30 7662 C 727.293 -5.51365 -4.03095 0
M  V30 7663 O 726.981 -6.8269 -4.24488 0
M  V30 7664 H 726.713 -0.333254 -0.588148 0
M  V30 7665 H 729.267 -1.5247 -1.3763 0
M  V30 7666 H 727.497 -0.717063 -3.79994 0
M  V30 7667 H 729.186 -1.12372 -3.90035 0
M  V30 7668 H 729.952 -3.53781 -3.31759 0
M  V30 7669 H 725.831 -2.45857 -3.89969 0
M  V30 7670 H 729.375 -5.90568 -3.71315 0
M  V30 7671 H 725.272 -4.81747 -4.29639 0
M  V30 7672 H 726.04 -6.8897 -4.41886 0
M  V30 7673 N 728.703 1.26451 -0.940633 0
M  V30 7674 C 729.666 2.24651 -0.454378 0
M  V30 7675 C 730.666 1.54826 0.434222 0
M  V30 7676 O 731.856 1.72628 0.233477 0
M  V30 7677 C 728.988 3.39148 0.345192 0
M  V30 7678 H 730.181 2.69182 -1.32217 0
M  V30 7679 H 727.734 1.38596 -0.722547 0
M  V30 7680 H 728.469 3.00018 1.23125 0
M  V30 7681 H 728.254 3.9101 -0.292107 0
M  V30 7682 H 729.744 4.12103 0.675341 0
M  V30 7683 N 730.181 0.707592 1.40822 0
M  V30 7684 C 731.411 0.252706 2.05049 0
M  V30 7685 C 731.819 -1.10758 1.53393 0
M  V30 7686 O 731.162 -1.70567 0.682097 0
M  V30 7687 C 731.224 0.146001 3.59203 0
M  V30 7688 C 730.888 1.44027 4.33711 0
M  V30 7689 C 731.885 2.38058 4.62195 0
M  V30 7690 C 729.57 1.69698 4.72766 0
M  V30 7691 C 731.564 3.56013 5.28709 0
M  V30 7692 C 729.251 2.87936 5.39014 0
M  V30 7693 C 730.249 3.80915 5.66915 0
M  V30 7694 O 729.937 4.9708 6.31796 0
M  V30 7695 H 729.669 0.112784 0.666525 0
M  V30 7696 H 732.223 0.96417 1.81364 0
M  V30 7697 H 730.453 -0.621338 3.81676 0
M  V30 7698 H 732.142 -0.273275 4.04979 0
M  V30 7699 H 732.908 2.19487 4.32493 0
M  V30 7700 H 728.787 0.981835 4.50423 0
M  V30 7701 H 732.331 4.28604 5.50404 0
M  V30 7702 H 728.228 3.06419 5.68135 0
M  V30 7703 H 728.996 4.97053 6.50293 0
M  V30 7704 N 731.66 -1.50943 0.453197 0
M  V30 7705 C 732.908 -2.01813 -0.107709 0
M  V30 7706 C 733.229 -1.33841 -1.41816 0
M  V30 7707 O 732.499 -0.477973 -1.8998 0
M  V30 7708 H 731.079 -0.745773 -0.0427948 0
M  V30 7709 H 733.741 -1.8545 0.599531 0
M  V30 7710 H 732.837 -3.10911 -0.27218 0
M  V30 7711 N 733.138 -0.185124 -1.56509 0
M  V30 7712 C 734.384 0.456934 -1.97585 0
M  V30 7713 C 734.717 1.61957 -1.07161 0
M  V30 7714 O 733.992 1.9412 -0.121546 0
M  V30 7715 C 734.275 0.926666 -3.47973 0
M  V30 7716 C 734.128 -0.237097 -4.49175 0
M  V30 7717 C 735.447 1.79561 -4.01803 0
M  V30 7718 H 732.566 0.164619 -0.71838 0
M  V30 7719 H 735.208 -0.274039 -1.88013 0
M  V30 7720 H 733.358 1.54954 -3.56261 0
M  V30 7721 H 735.03 -0.87454 -4.52934 0
M  V30 7722 H 733.273 -0.890446 -4.24563 0
M  V30 7723 H 733.944 0.133924 -5.51838 0
M  V30 7724 H 736.42 1.27039 -3.96232 0
M  V30 7725 H 735.296 2.09327 -5.07418 0
M  V30 7726 H 735.557 2.74629 -3.46455 0
M  V30 7727 N 734.616 1.57351 0.0885366 0
M  V30 7728 C 735.862 1.86696 0.791996 0
M  V30 7729 C 736.195 0.775148 1.78059 0
M  V30 7730 O 735.47 -0.216247 1.93294 0
M  V30 7731 C 735.753 3.26684 1.51491 0
M  V30 7732 C 735.606 4.465 0.543858 0
M  V30 7733 C 736.925 3.64664 2.46391 0
M  V30 7734 H 734.044 0.679049 0.286463 0
M  V30 7735 H 736.686 1.89919 0.0554866 0
M  V30 7736 H 734.836 3.24067 2.14273 0
M  V30 7737 H 736.508 4.61235 -0.0774597 0
M  V30 7738 H 734.751 4.33567 -0.142228 0
M  V30 7739 H 735.422 5.41192 1.08696 0
M  V30 7740 H 737.898 3.68267 1.93698 0
M  V30 7741 H 736.774 4.63534 2.93986 0
M  V30 7742 H 737.035 2.93698 3.30445 0
M  V30 7743 N 736.094 -0.359525 1.53444 0
M  V30 7744 C 737.024 -1.44662 1.8329 0
M  V30 7745 C 738.005 -1.55617 0.68683 0
M  V30 7746 O 739.19 -1.70086 0.93725 0
M  V30 7747 C 736.32 -2.81923 2.02822 0
M  V30 7748 C 735.274 -2.85787 3.18606 0
M  V30 7749 C 734.6 -4.25781 3.23442 0
M  V30 7750 C 735.9 -2.52762 4.57065 0
M  V30 7751 H 737.594 -1.19934 2.74329 0
M  V30 7752 H 735.14 -0.575517 1.31999 0
M  V30 7753 H 737.093 -3.58005 2.22285 0
M  V30 7754 H 735.817 -3.08051 1.085 0
M  V30 7755 H 734.476 -2.12157 2.98973 0
M  V30 7756 H 734.124 -4.48994 2.26745 0
M  V30 7757 H 733.824 -4.29281 4.01238 0
M  V30 7758 H 735.348 -5.03727 3.45096 0
M  V30 7759 H 736.762 -3.18557 4.76649 0
M  V30 7760 H 735.159 -2.67569 5.37147 0
M  V30 7761 H 736.229 -1.47993 4.61764 0
M  V30 7762 N 737.572 -1.44907 -0.619662 0
M  V30 7763 C 738.802 -1.51575 -1.40387 0
M  V30 7764 C 739.21 -0.14309 -1.88658 0
M  V30 7765 O 738.553 0.863403 -1.62145 0
M  V30 7766 C 738.615 -2.42858 -2.65067 0
M  V30 7767 C 738.279 -3.8982 -2.38515 0
M  V30 7768 C 739.276 -4.80047 -1.99627 0
M  V30 7769 C 736.961 -4.34628 -2.51801 0
M  V30 7770 C 738.955 -6.13086 -1.74369 0
M  V30 7771 C 736.642 -5.67712 -2.26156 0
M  V30 7772 C 737.64 -6.56759 -1.875 0
M  V30 7773 O 737.328 -7.87377 -1.62148 0
M  V30 7774 H 737.06 -0.51612 -0.436573 0
M  V30 7775 H 739.614 -1.90664 -0.763959 0
M  V30 7776 H 737.844 -1.98717 -3.31735 0
M  V30 7777 H 739.533 -2.40346 -3.27091 0
M  V30 7778 H 740.299 -4.46697 -1.8891 0
M  V30 7779 H 736.178 -3.65568 -2.80857 0
M  V30 7780 H 739.722 -6.8255 -1.44122 0
M  V30 7781 H 735.619 -6.0062 -2.36486 0
M  V30 7782 H 736.387 -7.99288 -1.763 0
M  V30 7783 N 739.05 0.861098 -1.31996 0
M  V30 7784 C 739.96 2.00154 -1.22374 0
M  V30 7785 C 740.976 1.73447 -0.138631 0
M  V30 7786 O 742.152 1.98191 -0.358104 0
M  V30 7787 C 739.217 3.33696 -0.940645 0
M  V30 7788 C 738.278 3.73668 -2.11355 0
M  V30 7789 C 737.511 5.00837 -1.84386 0
M  V30 7790 O 737.734 5.64996 -0.783287 0
M  V30 7791 O 736.668 5.37787 -2.70313 0
M  V30 7792 H 740.494 2.11207 -2.18233 0
M  V30 7793 H 738.079 0.990768 -1.11822 0
M  V30 7794 H 739.961 4.13756 -0.798987 0
M  V30 7795 H 738.636 3.23698 -0.0121636 0
M  V30 7796 H 737.543 2.94211 -2.31065 0
M  V30 7797 H 738.876 3.88303 -3.02459 0
M  V30 7798 N 740.528 1.15101 1.07655 0
M  V30 7799 C 741.458 0.867864 2.16773 0
M  V30 7800 C 742.439 -0.180283 1.69142 0
M  V30 7801 O 743.624 -0.0353152 1.94168 0
M  V30 7802 C 740.754 0.35299 3.45501 0
M  V30 7803 C 739.708 1.33746 4.06566 0
M  V30 7804 C 739.034 0.681562 5.30338 0
M  V30 7805 C 740.334 2.7024 4.46954 0
M  V30 7806 H 742.028 1.78034 2.40716 0
M  V30 7807 H 739.574 0.857435 1.15689 0
M  V30 7808 H 741.527 0.142465 4.21159 0
M  V30 7809 H 740.251 -0.594945 3.21135 0
M  V30 7810 H 738.91 1.53429 3.32949 0
M  V30 7811 H 738.558 -0.272422 5.02262 0
M  V30 7812 H 738.258 1.33853 5.72151 0
M  V30 7813 H 739.782 0.48074 6.08705 0
M  V30 7814 H 741.196 2.5442 5.13754 0
M  V30 7815 H 739.593 3.32282 4.99709 0
M  V30 7816 H 740.663 3.26537 3.58471 0
M  V30 7817 N 742.006 -1.2595 0.947325 0
M  V30 7818 C 742.939 -2.24559 0.406009 0
M  V30 7819 C 743.917 -1.54441 -0.508598 0
M  V30 7820 O 745.101 -1.83181 -0.444644 0
M  V30 7821 C 742.228 -3.36136 -0.415987 0
M  V30 7822 C 741.274 -4.24245 0.437969 0
M  V30 7823 S 742.107 -5.01948 1.86572 0
M  V30 7824 C 743.263 -6.16997 1.05194 0
M  V30 7825 H 743.496 -2.70128 1.24171 0
M  V30 7826 H 741.029 -1.34912 0.750874 0
M  V30 7827 H 742.987 -4.00861 -0.88433 0
M  V30 7828 H 741.648 -2.89167 -1.22643 0
M  V30 7829 H 740.841 -5.03634 -0.192127 0
M  V30 7830 H 740.443 -3.64416 0.841235 0
M  V30 7831 H 742.735 -6.76848 0.297126 0
M  V30 7832 H 743.678 -6.84324 1.8195 0
M  V30 7833 H 744.086 -5.61458 0.585294 0
M  V30 7834 N 743.484 -0.715051 -1.40445 0
M  V30 7835 C 744.712 -0.263959 -2.05209 0
M  V30 7836 C 745.127 1.09403 -1.53871 0
M  V30 7837 O 744.484 1.68746 -0.695064 0
M  V30 7838 C 744.535 -0.234545 -3.60738 0
M  V30 7839 O 744.256 -1.53891 -4.10182 0
M  V30 7840 C 745.757 0.235164 -4.42676 0
M  V30 7841 H 742.977 -0.11876 -0.660407 0
M  V30 7842 H 745.521 -0.973107 -1.79864 0
M  V30 7843 H 743.676 0.425563 -3.85055 0
M  V30 7844 H 744.09 -1.43903 -5.04373 0
M  V30 7845 H 745.564 0.204598 -5.51621 0
M  V30 7846 H 746.041 1.27724 -4.20218 0
M  V30 7847 H 746.647 -0.394649 -4.23465 0
M  V30 7848 N 744.962 1.50701 -0.461195 0
M  V30 7849 C 746.21 2.01867 0.0970051 0
M  V30 7850 C 746.531 1.34591 1.41104 0
M  V30 7851 O 745.801 0.488041 1.89723 0
M  V30 7852 H 744.381 0.74599 0.0388392 0
M  V30 7853 H 747.043 1.85129 -0.609357 0
M  V30 7854 H 746.139 3.11051 0.255688 0
M  V30 7855 N 746.441 0.193421 1.56409 0
M  V30 7856 C 747.666 -0.454552 2.02358 0
M  V30 7857 C 748.091 -1.54516 1.07268 0
M  V30 7858 O 747.449 -1.81214 0.0558962 0
M  V30 7859 C 747.497 -0.989469 3.46759 0
M  V30 7860 O 746.601 -2.10244 3.54783 0
M  V30 7861 H 745.942 -0.106417 0.655417 0
M  V30 7862 H 748.472 0.303807 2.02332 0
M  V30 7863 H 748.482 -1.30649 3.86516 0
M  V30 7864 H 747.157 -0.191083 4.15461 0
M  V30 7865 H 745.734 -1.79419 3.26899 0
M  V30 7866 N 747.919 -1.57396 -0.0801906 0
M  V30 7867 C 748.849 -2.06145 -1.09665 0
M  V30 7868 C 749.83 -0.953273 -1.40878 0
M  V30 7869 O 751.015 -1.22548 -1.50651 0
M  V30 7870 C 748.145 -2.49836 -2.41245 0
M  V30 7871 C 747.099 -3.64454 -2.24405 0
M  V30 7872 C 746.425 -3.94172 -3.61293 0
M  V30 7873 C 747.725 -4.94807 -1.67223 0
M  V30 7874 H 749.419 -2.91316 -0.691028 0
M  V30 7875 H 746.965 -1.40145 -0.330957 0
M  V30 7876 H 748.918 -2.82552 -3.12638 0
M  V30 7877 H 747.642 -1.61683 -2.83771 0
M  V30 7878 H 746.301 -3.32008 -1.55454 0
M  V30 7879 H 745.949 -3.03163 -4.01374 0
M  V30 7880 H 745.649 -4.71345 -3.50867 0
M  V30 7881 H 747.173 -4.29376 -4.3413 0
M  V30 7882 H 748.587 -5.25807 -2.28472 0
M  V30 7883 H 746.984 -5.76245 -1.67515 0
M  V30 7884 H 748.054 -4.80751 -0.632944 0
M  V30 7885 N 749.397 0.351382 -1.53633 0
M  V30 7886 C 750.808 0.927429 -1.62036 0
M  V30 7887 C 751.159 1.89809 -0.496706 0
M  V30 7888 O 750.284 2.1313 0.374749 0
M  V30 7889 C 750.879 1.68886 -2.93706 0
M  V30 7890 C 749.438 2.21404 -3.04397 0
M  V30 7891 C 748.585 1.03075 -2.57431 0
M  V30 7892 H 751.536 0.129748 -1.58169 0
M  V30 7893 H 751.557 2.55116 -2.82305 0
M  V30 7894 H 751.069 0.982149 -3.75467 0
M  V30 7895 H 749.17 2.95274 -2.27253 0
M  V30 7896 H 749.283 2.48312 -4.09729 0
M  V30 7897 H 747.647 1.40188 -2.12649 0
M  V30 7898 H 748.43 0.338793 -3.41624 0
M  V30 7899 N 750.875 1.45233 0.611969 0
M  V30 7900 C 752.105 1.52318 1.39581 0
M  V30 7901 C 752.513 0.153093 1.8858 0
M  V30 7902 O 751.856 -0.854792 1.62601 0
M  V30 7903 C 751.918 2.4426 2.63775 0
M  V30 7904 C 751.582 3.91079 2.36445 0
M  V30 7905 C 752.579 4.81099 1.97079 0
M  V30 7906 C 750.264 4.35958 2.49492 0
M  V30 7907 C 752.258 6.14002 1.71115 0
M  V30 7908 C 749.945 5.68903 2.23142 0
M  V30 7909 C 750.943 6.57744 1.84015 0
M  V30 7910 O 750.631 7.88226 1.5797 0
M  V30 7911 H 750.363 0.518428 0.43383 0
M  V30 7912 H 752.917 1.91067 0.753837 0
M  V30 7913 H 751.147 2.00474 3.30677 0
M  V30 7914 H 752.836 2.42077 3.25812 0
M  V30 7915 H 753.602 4.47692 1.86539 0
M  V30 7916 H 749.481 3.67053 2.78914 0
M  V30 7917 H 753.025 6.83305 1.405 0
M  V30 7918 H 748.922 6.01866 2.33297 0
M  V30 7919 H 749.69 8.00211 1.72058 0
M  V30 7920 N 752.353 -0.854086 1.3245 0
M  V30 7921 C 753.578 -1.64597 1.26185 0
M  V30 7922 C 754.003 -1.87357 -0.167074 0
M  V30 7923 O 753.361 -1.42675 -1.11864 0
M  V30 7924 C 753.409 -2.98213 2.02734 0
M  V30 7925 O 752.513 -3.88784 1.37554 0
M  V30 7926 H 751.854 -0.50179 0.434859 0
M  V30 7927 H 754.384 -1.06372 1.74775 0
M  V30 7928 H 754.394 -3.4803 2.1293 0
M  V30 7929 H 753.069 -2.80969 3.06642 0
M  V30 7930 H 751.646 -3.4725 1.3591 0
M  V30 7931 N 753.831 -1.1567 -1.07043 0
M  V30 7932 C 754.781 -0.824733 -2.12561 0
M  V30 7933 C 755.765 0.19243 -1.59745 0
M  V30 7934 O 756.957 -0.00728759 -1.76998 0
M  V30 7935 C 754.086 -0.31921 -3.41813 0
M  V30 7936 C 753.172 -1.36671 -4.01475 0
M  V30 7937 N 753.563 -2.57493 -4.35351 0
M  V30 7938 C 751.861 -1.22018 -4.28984 0
M  V30 7939 C 752.562 -3.24658 -4.82672 0
M  V30 7940 N 751.538 -2.52043 -4.81638 0
M  V30 7941 H 755.34 -1.74363 -2.3659 0
M  V30 7942 H 752.854 -1.04262 -1.24511 0
M  V30 7943 H 754.851 -0.0630216 -4.16852 0
M  V30 7944 H 753.511 0.593708 -3.19226 0
M  V30 7945 H 754.522 -2.94612 -4.25939 0
M  V30 7946 H 751.199 -0.367414 -4.1588 0
M  V30 7947 H 752.589 -4.2775 -5.1815 0
M  V30 7948 N 755.309 1.25446 -0.953992 0
M  V30 7949 C 756.558 1.92441 -0.604101 0
M  V30 7950 C 756.871 1.75543 0.862796 0
M  V30 7951 O 758.077 2.37106 1.32262 0
M  V30 7952 C 756.533 3.44854 -1.02974 0
M  V30 7953 C 756.141 3.70464 -2.51914 0
M  V30 7954 C 757.885 4.1778 -0.752352 0
M  V30 7955 C 755.792 5.1638 -2.88281 0
M  V30 7956 H 754.722 0.720508 -0.222227 0
M  V30 7957 H 757.373 1.42318 -1.15836 0
M  V30 7958 H 755.755 3.93935 -0.403904 0
M  V30 7959 H 756.929 3.32038 -3.19511 0
M  V30 7960 H 755.244 3.10797 -2.77117 0
M  V30 7961 H 757.841 5.25261 -1.00024 0
M  V30 7962 H 758.184 4.15135 0.311212 0
M  V30 7963 H 758.717 3.74605 -1.33851 0
M  V30 7964 H 755.456 5.24135 -3.93653 0
M  V30 7965 H 754.976 5.55855 -2.25357 0
M  V30 7966 H 756.655 5.84497 -2.77439 0
M  V30 7967 N 756.787 0.722489 1.40064 0
M  V30 7968 C 758.035 0.264455 2.00362 0
M  V30 7969 C 758.356 -1.14847 1.57592 0
M  V30 7970 O 757.626 -1.77982 0.818477 0
M  V30 7971 H 756.206 0.0947846 0.740962 0
M  V30 7972 H 758.868 0.929659 1.71299 0
M  V30 7973 H 757.964 0.302977 3.10626 0
M  V30 7974 N 758.265 -1.50454 0.469181 0
M  V30 7975 C 759.505 -2.04222 -0.0852381 0
M  V30 7976 C 759.869 -1.34357 -1.37158 0
M  V30 7977 O 761.07 -1.78669 -2.00825 0
M  V30 7978 C 759.341 -3.56403 -0.266778 0
M  V30 7979 S 760.9 -4.31811 -0.780028 0
M  V30 7980 H 757.718 -0.7108 -0.0168589 0
M  V30 7981 H 760.32 -1.8487 0.635883 0
M  V30 7982 H 759.024 -4.04807 0.67525 0
M  V30 7983 H 758.555 -3.80106 -1.01407 0
M  V30 7984 H 760.57 -4.51706 -2.05368 0
M  V30 7985 N 759.743 -0.201713 -1.56304 0
M  V30 7986 C 761.159 0.154025 -1.58855 0
M  V30 7987 C 761.359 1.60516 -1.21807 0
M  V30 7988 O 760.415 2.34193 -0.94393 0
M  V30 7989 C 761.728 -0.154319 -3.00304 0
M  V30 7990 C 763.276 -0.0949578 -3.12856 0
M  V30 7991 C 763.751 -0.376703 -4.56448 0
M  V30 7992 N 765.242 -0.325558 -4.62054 0
M  V30 7993 C 765.977 -0.51732 -5.71062 0
M  V30 7994 N 765.473 -0.769789 -6.8851 0
M  V30 7995 N 767.266 -0.45112 -5.60287 0
M  V30 7996 H 759.417 -1.14858 -1.78666 0
M  V30 7997 H 761.68 -0.458934 -0.829508 0
M  V30 7998 H 761.386 -1.16074 -3.31994 0
M  V30 7999 H 761.26 0.540014 -3.73314 0
M  V30 8000 H 763.647 0.902075 -2.80974 0
M  V30 8001 H 763.728 -0.822468 -2.42217 0
M  V30 8002 H 763.372 -1.37108 -4.89044 0
M  V30 8003 H 763.302 0.371772 -5.25286 0
M  V30 8004 H 765.793 -0.137308 -3.7765 0
M  V30 8005 H 766.106 -0.904744 -7.67486 0
M  V30 8006 H 764.451 -0.806758 -6.90302 0
M  V30 8007 H 767.642 -0.254253 -4.67409 0
M  V30 8008 H 767.815 -0.603982 -6.45179 0
M  V30 8009 N 761.222 1.57436 0.0718424 0
M  V30 8010 C 762.499 1.78312 0.804006 0
M  V30 8011 C 762.879 0.789273 1.9579 0
M  V30 8012 O 762.227 -0.177605 2.27809 0
M  V30 8013 C 762.437 3.24798 1.277 0
M  V30 8014 C 763.785 3.88627 1.71039 0
M  V30 8015 O 764.809 3.28689 1.37266 0
M  V30 8016 O 763.668 4.94073 2.33567 0
M  V30 8017 H 760.762 0.73178 0.385262 0
M  V30 8018 H 763.308 1.69621 0.0519219 0
M  V30 8019 H 762.08 3.88688 0.45134 0
M  V30 8020 H 761.703 3.38213 2.0904 0
M  V30 8021 N 762.7 -0.34323 1.53817 0
M  V30 8022 C 763.632 -1.44216 1.78141 0
M  V30 8023 C 764.645 -1.48701 0.662721 0
M  V30 8024 O 765.834 -1.51778 0.939458 0
M  V30 8025 C 762.934 -2.82872 1.86646 0
M  V30 8026 C 762.107 -3.01824 3.16577 0
M  V30 8027 C 761.166 -4.20723 3.16036 0
M  V30 8028 O 760.192 -4.14824 3.89756 0
M  V30 8029 N 761.394 -5.29276 2.38427 0
M  V30 8030 H 764.159 -1.23721 2.72971 0
M  V30 8031 H 761.72 -0.53311 1.52871 0
M  V30 8032 H 763.712 -3.60588 1.83735 0
M  V30 8033 H 762.282 -2.96509 0.990014 0
M  V30 8034 H 761.502 -2.11575 3.3261 0
M  V30 8035 H 762.79 -3.11369 4.02402 0
M  V30 8036 H 762.188 -5.36938 1.78085 0
M  V30 8037 H 760.745 -6.05484 2.41313 0
M  V30 8038 N 764.178 -1.45556 -0.604258 0
M  V30 8039 C 765.427 -1.49019 -1.35928 0
M  V30 8040 C 765.74 -0.137409 -1.95117 0
M  V30 8041 O 766.946 -0.0497032 -2.71455 0
M  V30 8042 C 765.402 -2.62477 -2.46239 0
M  V30 8043 C 765.01 -4.04082 -1.93447 0
M  V30 8044 C 766.754 -2.7519 -3.23219 0
M  V30 8045 C 764.661 -5.08917 -3.0126 0
M  V30 8046 H 763.591 -0.554518 -0.510907 0
M  V30 8047 H 766.242 -1.71705 -0.647262 0
M  V30 8048 H 764.624 -2.3308 -3.2014 0
M  V30 8049 H 765.798 -4.43173 -1.26232 0
M  V30 8050 H 764.113 -3.95849 -1.29201 0
M  V30 8051 H 766.71 -3.50683 -4.0364 0
M  V30 8052 H 767.053 -1.81941 -3.74437 0
M  V30 8053 H 767.586 -3.04129 -2.56418 0
M  V30 8054 H 764.325 -6.03886 -2.54955 0
M  V30 8055 H 763.845 -4.74393 -3.67031 0
M  V30 8056 H 765.524 -5.33814 -3.65584 0
M  V30 8057 N 765.656 0.84705 -1.32902 0
M  V30 8058 C 766.905 1.59667 -1.23245 0
M  V30 8059 C 767.218 1.94551 0.202349 0
M  V30 8060 O 768.424 2.68218 0.420847 0
M  V30 8061 C 766.88 2.8795 -2.15901 0
M  V30 8062 C 766.488 2.60461 -3.64505 0
M  V30 8063 C 768.232 3.65968 -2.15098 0
M  V30 8064 C 766.139 3.84791 -4.49099 0
M  V30 8065 H 765.069 0.599167 -0.457728 0
M  V30 8066 H 767.72 0.934662 -1.57912 0
M  V30 8067 H 766.102 3.55648 -1.74157 0
M  V30 8068 H 767.276 2.01026 -4.14639 0
M  V30 8069 H 765.591 1.9576 -3.67515 0
M  V30 8070 H 768.188 4.58241 -2.75534 0
M  V30 8071 H 768.531 4.00275 -1.14392 0
M  V30 8072 H 769.064 3.05184 -2.55162 0
M  V30 8073 H 765.803 3.55621 -5.50649 0
M  V30 8074 H 765.323 4.43594 -4.03713 0
M  V30 8075 H 767.002 4.52454 -4.62487 0
M  V30 8076 N 767.134 1.16236 1.06428 0
M  V30 8077 C 768.381 0.943034 1.79201 0
M  V30 8078 C 768.709 -0.529243 1.87161 0
M  V30 8079 O 767.964 -1.40874 1.35842 0
M  V30 8080 C 768.263 1.51396 3.2375 0
M  V30 8081 C 767.929 3.00833 3.35873 0
M  V30 8082 C 766.591 3.41626 3.38888 0
M  V30 8083 C 768.943 3.96825 3.37904 0
M  V30 8084 C 766.271 4.77033 3.4155 0
M  V30 8085 C 768.623 5.32116 3.42104 0
M  V30 8086 C 767.287 5.72392 3.43401 0
M  V30 8087 H 766.557 0.34508 0.655744 0
M  V30 8088 H 769.204 1.44929 1.25171 0
M  V30 8089 H 767.509 0.929114 3.80624 0
M  V30 8090 H 769.206 1.31996 3.78653 0
M  V30 8091 H 765.796 2.68306 3.3423 0
M  V30 8092 H 769.98 3.66376 3.34787 0
M  V30 8093 H 765.236 5.07569 3.40858 0
M  V30 8094 H 769.41 6.06286 3.42623 0
M  V30 8095 H 767.037 6.77296 3.45216 0
M  V30 8096 N 768.612 -1.24939 0.960631 0
M  V30 8097 C 769.545 -2.24116 0.429804 0
M  V30 8098 C 770.523 -1.54972 -0.492188 0
M  V30 8099 O 771.707 -1.83642 -0.42519 0
M  V30 8100 C 768.834 -3.36558 -0.380312 0
M  V30 8101 C 767.88 -4.23757 0.482941 0
M  V30 8102 S 768.713 -4.9994 1.91885 0
M  V30 8103 C 769.869 -6.15846 1.11732 0
M  V30 8104 H 770.102 -2.68795 1.27029 0
M  V30 8105 H 767.635 -1.34108 0.765141 0
M  V30 8106 H 769.593 -4.01777 -0.841764 0
M  V30 8107 H 768.254 -2.90451 -1.19569 0
M  V30 8108 H 767.447 -5.03809 -0.138699 0
M  V30 8109 H 767.049 -3.63504 0.879839 0
M  V30 8110 H 769.341 -6.76495 0.368898 0
M  V30 8111 H 770.284 -6.82356 1.89198 0
M  V30 8112 H 770.692 -5.60805 0.644812 0
M  V30 8113 N 770.09 -0.729906 -1.39679 0
M  V30 8114 C 771.336 -0.27603 -2.00913 0
M  V30 8115 C 771.669 1.13227 -1.57776 0
M  V30 8116 O 770.944 1.7709 -0.804319 0
M  V30 8117 C 771.227 -0.372157 -3.58172 0
M  V30 8118 C 771.08 -1.81986 -4.11341 0
M  V30 8119 C 772.399 0.248378 -4.39399 0
M  V30 8120 H 769.518 -0.101773 -0.729939 0
M  V30 8121 H 772.16 -0.925104 -1.65957 0
M  V30 8122 H 770.31 0.180459 -3.88081 0
M  V30 8123 H 771.982 -2.42896 -3.92172 0
M  V30 8124 H 770.225 -2.34287 -3.65092 0
M  V30 8125 H 770.896 -1.83842 -5.20486 0
M  V30 8126 H 773.372 -0.222645 -4.15504 0
M  V30 8127 H 772.248 0.150746 -5.48693 0
M  V30 8128 H 772.509 1.33378 -4.21501 0
M  V30 8129 N 771.568 1.50203 -0.477153 0
M  V30 8130 C 772.816 2.01959 0.0755889 0
M  V30 8131 C 773.137 1.3608 1.39668 0
M  V30 8132 O 772.407 0.508136 1.89195 0
M  V30 8133 H 770.987 0.74636 0.0309248 0
M  V30 8134 H 773.649 1.84473 -0.628959 0
M  V30 8135 H 772.745 3.11305 0.222683 0
M  V30 8136 N 773.046 0.209999 1.56195 0
M  V30 8137 C 774.462 -0.145598 1.58934 0
M  V30 8138 C 774.662 -1.59868 1.22656 0
M  V30 8139 O 773.718 -2.33689 0.956336 0
M  V30 8140 C 775.031 0.170243 3.00218 0
M  V30 8141 C 776.579 0.111548 3.12801 0
M  V30 8142 C 777.054 0.400904 4.56242 0
M  V30 8143 N 778.545 0.350058 4.61875 0
M  V30 8144 C 779.28 0.547598 5.70779 0
M  V30 8145 N 778.776 0.806291 6.88092 0
M  V30 8146 N 780.569 0.480827 5.6004 0
M  V30 8147 H 772.72 1.15804 1.78054 0
M  V30 8148 H 774.983 0.463326 0.827063 0
M  V30 8149 H 774.689 1.17833 3.31373 0
M  V30 8150 H 774.563 -0.520208 3.73596 0
M  V30 8151 H 776.95 -0.887162 2.81449 0
M  V30 8152 H 777.031 0.835302 2.41777 0
M  V30 8153 H 776.675 1.397 4.8831 0
M  V30 8154 H 776.605 -0.34391 5.25476 0
M  V30 8155 H 779.096 0.157334 3.77572 0
M  V30 8156 H 779.409 0.945433 7.66995 0
M  V30 8157 H 777.754 0.843355 6.89864 0
M  V30 8158 H 780.945 0.279037 4.67268 0
M  V30 8159 H 781.118 0.638189 6.4485 0
M  V30 8160 N 774.524 -1.57472 -0.0634922 0
M  V30 8161 C 775.772 -1.87283 -0.759563 0
M  V30 8162 C 776.093 -0.803135 -1.77693 0
M  V30 8163 O 775.363 0.167293 -1.95184 0
M  V30 8164 H 773.943 -0.691106 -0.283516 0
M  V30 8165 H 776.605 -1.94864 -0.0376091 0
M  V30 8166 H 775.701 -2.85064 -1.27062 0
M  V30 8167 N 776.003 0.335068 -1.53997 0
M  V30 8168 C 777.233 1.0926 -1.75345 0
M  V30 8169 C 777.641 1.82568 -0.496545 0
M  V30 8170 O 776.984 1.75525 0.541897 0
M  V30 8171 C 777.046 2.14473 -2.88516 0
M  V30 8172 C 776.71 1.60665 -4.27827 0
M  V30 8173 C 777.707 1.05448 -5.09094 0
M  V30 8174 C 775.392 1.65255 -4.74337 0
M  V30 8175 C 777.386 0.555372 -6.34976 0
M  V30 8176 C 775.073 1.14956 -6.0019 0
M  V30 8177 C 776.071 0.601907 -6.80343 0
M  V30 8178 O 775.759 0.106445 -8.0383 0
M  V30 8179 H 775.491 0.331329 -0.589234 0
M  V30 8180 H 778.045 0.39042 -2.01655 0
M  V30 8181 H 776.275 2.88274 -2.5775 0
M  V30 8182 H 777.964 2.75857 -2.97755 0
M  V30 8183 H 778.73 1.01218 -4.74321 0
M  V30 8184 H 774.609 2.06822 -4.12002 0
M  V30 8185 H 778.153 0.127245 -6.97484 0
M  V30 8186 H 774.05 1.18891 -6.34457 0
M  V30 8187 H 774.818 0.222944 -8.18196 0
M  V30 8188 N 777.481 1.45874 0.596531 0
M  V30 8189 C 778.411 1.5824 1.71705 0
M  V30 8190 C 779.392 0.433366 1.64487 0
M  V30 8191 O 780.577 0.657895 1.82717 0
M  V30 8192 C 777.707 1.55927 3.10329 0
M  V30 8193 C 776.661 2.69659 3.32367 0
M  V30 8194 C 775.987 2.52403 4.71377 0
M  V30 8195 C 777.287 4.11591 3.21544 0
M  V30 8196 H 778.981 2.52035 1.61613 0
M  V30 8197 H 776.527 1.21297 0.776082 0
M  V30 8198 H 778.48 1.63173 3.88526 0
M  V30 8199 H 777.204 0.586674 3.21288 0
M  V30 8200 H 775.863 2.61859 2.56564 0
M  V30 8201 H 775.511 1.53258 4.79083 0
M  V30 8202 H 775.211 3.28679 4.87077 0
M  V30 8203 H 776.735 2.6152 5.5176 0
M  V30 8204 H 778.149 4.20576 3.89601 0
M  V30 8205 H 776.546 4.88344 3.4877 0
M  V30 8206 H 777.616 4.32719 2.1882 0
M  V30 8207 N 778.959 -0.83999 1.33349 0
M  V30 8208 C 780.184 -1.63249 1.27924 0
M  V30 8209 C 780.609 -1.87523 -0.147193 0
M  V30 8210 O 779.967 -1.43853 -1.10345 0
M  V30 8211 C 780.015 -2.96046 2.05886 0
M  V30 8212 O 779.119 -3.87303 1.4167 0
M  V30 8213 H 778.46 -0.49715 0.440157 0
M  V30 8214 H 780.99 -1.04512 1.75893 0
M  V30 8215 H 781 -3.45752 2.16609 0
M  V30 8216 H 779.675 -2.77701 3.09605 0
M  V30 8217 H 778.252 -3.45789 1.39585 0
M  V30 8218 N 780.437 -1.16799 -1.0581 0
M  V30 8219 C 781.848 -0.95945 -1.60161 0
M  V30 8220 C 782.199 0.49543 -1.89842 0
M  V30 8221 O 781.324 1.36957 -1.67546 0
M  V30 8222 C 781.919 -1.73527 -2.90987 0
M  V30 8223 C 780.478 -1.57158 -3.42021 0
M  V30 8224 C 779.625 -1.74089 -2.15843 0
M  V30 8225 H 782.576 -1.31598 -0.886992 0
M  V30 8226 H 782.597 -1.21397 -3.60615 0
M  V30 8227 H 782.109 -2.79411 -2.69353 0
M  V30 8228 H 780.21 -0.537361 -3.68705 0
M  V30 8229 H 780.323 -2.35858 -4.17022 0
M  V30 8230 H 778.687 -1.16874 -2.26302 0
M  V30 8231 H 779.47 -2.81371 -1.96686 0
M  V30 8232 N 781.915 1.24427 -0.967243 0
M  V30 8233 C 783.192 1.87831 -0.545776 0
M  V30 8234 C 783.572 1.87126 0.977099 0
M  V30 8235 O 782.92 1.34357 1.84826 0
M  V30 8236 C 783.13 3.29967 -1.13679 0
M  V30 8237 C 784.478 4.06654 -1.22139 0
M  V30 8238 O 785.502 3.39136 -1.08926 0
M  V30 8239 O 784.361 5.27455 -1.43017 0
M  V30 8240 H 781.455 0.806745 -0.181912 0
M  V30 8241 H 784.001 1.32403 -1.06148 0
M  V30 8242 H 782.773 3.24977 -2.17958 0
M  V30 8243 H 782.396 3.92969 -0.605093 0
M  V30 8244 N 783.393 0.737304 1.3929 0
M  V30 8245 C 784.323 0.113988 2.33222 0
M  V30 8246 C 785.304 -0.721695 1.54031 0
M  V30 8247 O 786.489 -0.666206 1.82415 0
M  V30 8248 C 783.619 -0.792319 3.38141 0
M  V30 8249 C 782.573 -0.0606178 4.27957 0
M  V30 8250 C 781.899 -1.08409 5.23595 0
M  V30 8251 C 783.199 1.09817 5.10625 0
M  V30 8252 H 784.893 0.898611 2.85596 0
M  V30 8253 H 782.439 0.433571 1.37318 0
M  V30 8254 H 784.392 -1.23793 4.02807 0
M  V30 8255 H 783.116 -1.60908 2.84211 0
M  V30 8256 H 781.775 0.365393 3.64775 0
M  V30 8257 H 781.423 -1.89449 4.6596 0
M  V30 8258 H 781.123 -0.599269 5.84536 0
M  V30 8259 H 782.647 -1.52936 5.91137 0
M  V30 8260 H 784.061 0.730892 5.68622 0
M  V30 8261 H 782.458 1.51278 5.80719 0
M  V30 8262 H 783.528 1.91878 4.45321 0
M  V30 8263 N 784.871 -1.49948 0.485112 0
M  V30 8264 C 786.096 -2.073 -0.0645059 0
M  V30 8265 C 786.521 -1.345 -1.31497 0
M  V30 8266 O 785.879 -0.39687 -1.76903 0
M  V30 8267 C 785.927 -3.59201 -0.317304 0
M  V30 8268 O 785.031 -3.88085 -1.39514 0
M  V30 8269 H 784.372 -0.663723 0.0191822 0
M  V30 8270 H 786.902 -1.92963 0.680179 0
M  V30 8271 H 786.912 -4.04227 -0.553604 0
M  V30 8272 H 785.587 -4.11602 0.596387 0
M  V30 8273 H 784.164 -3.54885 -1.14504 0
M  V30 8274 N 786.349 -0.21828 -1.56081 0
M  V30 8275 C 787.296 0.693189 -2.20144 0
M  V30 8276 C 788.266 1.19274 -1.15598 0
M  V30 8277 O 789.451 1.25243 -1.4394 0
M  V30 8278 C 786.591 1.89715 -2.88275 0
M  V30 8279 C 785.704 1.4368 -4.07407 0
M  V30 8280 C 784.839 2.59807 -4.63329 0
M  V30 8281 C 783.878 2.10492 -5.74769 0
M  V30 8282 N 783.015 3.1988 -6.24997 0
M  V30 8283 H 787.855 0.14016 -2.9767 0
M  V30 8284 H 785.392 0.0574292 -1.46988 0
M  V30 8285 H 787.35 2.60398 -3.25958 0
M  V30 8286 H 785.98 2.42311 -2.13273 0
M  V30 8287 H 785.032 0.625007 -3.7523 0
M  V30 8288 H 786.344 1.03517 -4.8794 0
M  V30 8289 H 785.498 3.38577 -5.03438 0
M  V30 8290 H 784.237 3.03256 -3.81951 0
M  V30 8291 H 783.242 1.30182 -5.34165 0
M  V30 8292 H 784.467 1.68045 -6.5798 0
M  V30 8293 H 782.413 3.62817 -5.46534 0
M  V30 8294 H 782.33 2.83958 -7.00645 0
M  V30 8295 H 783.598 3.98796 -6.69763 0
M  V30 8296 N 787.827 1.57504 0.0551401 0
M  V30 8297 C 789.076 1.87237 0.750009 0
M  V30 8298 C 789.389 0.813268 1.77891 0
M  V30 8299 O 790.595 0.99898 2.52453 0
M  V30 8300 C 789.051 3.32187 1.38491 0
M  V30 8301 C 788.659 4.46267 0.393707 0
M  V30 8302 C 790.403 3.71101 2.06117 0
M  V30 8303 C 788.31 5.82265 1.03547 0
M  V30 8304 H 787.24 0.698524 0.283866 0
M  V30 8305 H 789.891 1.835 0.00365997 0
M  V30 8306 H 788.273 3.30588 2.18008 0
M  V30 8307 H 789.447 4.59289 -0.372865 0
M  V30 8308 H 787.762 4.16015 -0.17902 0
M  V30 8309 H 790.359 4.70012 2.54937 0
M  V30 8310 H 790.702 3.01751 2.86796 0
M  V30 8311 H 791.235 3.74762 1.33409 0
M  V30 8312 H 787.974 6.54949 0.268644 0
M  V30 8313 H 787.494 5.73012 1.7725 0
M  V30 8314 H 789.173 6.28148 1.55047 0
M  V30 8315 N 789.305 -0.326896 1.54172 0
M  V30 8316 C 790.53 -1.08924 1.76494 0
M  V30 8317 C 790.955 -1.81039 0.510523 0
M  V30 8318 O 790.313 -1.73141 -0.537756 0
M  V30 8319 C 790.361 -2.06558 2.95578 0
M  V30 8320 O 789.465 -3.14394 2.6689 0
M  V30 8321 H 788.806 -0.314216 0.584948 0
M  V30 8322 H 791.336 -0.372207 2.01186 0
M  V30 8323 H 791.346 -2.49487 3.22832 0
M  V30 8324 H 790.021 -1.53469 3.86549 0
M  V30 8325 H 788.598 -2.76164 2.50576 0
M  V30 8326 N 790.784 -1.46188 -0.588786 0
M  V30 8327 C 792.009 -1.5498 -1.37826 0
M  V30 8328 C 792.434 -0.189498 -1.87143 0
M  V30 8329 O 791.792 0.829293 -1.61222 0
M  V30 8330 C 791.84 -2.55369 -2.54596 0
M  V30 8331 O 790.944 -2.08452 -3.55839 0
M  V30 8332 H 790.285 -0.521741 -0.41071 0
M  V30 8333 H 792.815 -1.91708 -0.714779 0
M  V30 8334 H 792.825 -2.74782 -3.01594 0
M  V30 8335 H 791.5 -3.54155 -2.18052 0
M  V30 8336 H 790.077 -1.98999 -3.15363 0
M  V30 8337 N 792.262 0.832906 -1.33792 0
M  V30 8338 C 793.21 1.96455 -1.24532 0
M  V30 8339 C 794.204 1.68774 -0.145455 0
M  V30 8340 O 795.41 1.77314 -0.309797 0
M  V30 8341 H 791.785 0.645008 -0.386611 0
M  V30 8342 H 793.756 2.01389 -2.20193 0
M  V30 8343 C 792.505 3.32784 -1.00748 0
M  V30 8344 H 791.828 3.54626 -1.84609 0
M  V30 8345 H 793.268 4.12447 -0.98301 0
M  V30 8346 C 791.727 3.35654 0.289475 0
M  V30 8347 O 792.257 3.80281 1.29419 0
M  V30 8348 N 790.463 2.88843 0.3191 0
M  V30 8349 H 790.01 2.52719 -0.499069 0
M  V30 8350 H 789.968 2.91145 1.18667 0
M  V30 8351 N 793.74 1.17359 1.05189 0
M  V30 8352 C 794.98 0.972812 1.79766 0
M  V30 8353 C 795.344 -0.489832 1.85647 0
M  V30 8354 O 796.545 -0.809682 2.56315 0
M  V30 8355 C 794.816 1.59636 3.19767 0
M  V30 8356 S 796.375 1.54178 4.10822 0
M  V30 8357 H 793.193 0.34959 0.619119 0
M  V30 8358 H 795.795 1.49304 1.26209 0
M  V30 8359 H 794.499 2.65336 3.13089 0
M  V30 8360 H 794.03 1.07594 3.78401 0
M  V30 8361 H 796.045 0.549785 4.93145 0
M  V30 8362 N 795.218 -1.23913 0.973828 0
M  V30 8363 C 796.629 -1.73992 0.677021 0
M  V30 8364 C 796.98 -1.78833 -0.807036 0
M  V30 8365 O 796.105 -1.42183 -1.63135 0
M  V30 8366 C 796.7 -3.15985 1.22226 0
M  V30 8367 C 795.259 -3.63547 0.975228 0
M  V30 8368 C 794.406 -2.42001 1.35392 0
M  V30 8369 H 797.357 -1.09529 1.14844 0
M  V30 8370 H 797.378 -3.75875 0.591489 0
M  V30 8371 H 796.89 -3.12429 2.30238 0
M  V30 8372 H 794.991 -3.72493 -0.0891047 0
M  V30 8373 H 795.104 -4.50693 1.62518 0
M  V30 8374 H 793.468 -2.42708 0.772334 0
M  V30 8375 H 794.251 -2.41122 2.44367 0
M  V30 8376 N 796.696 -0.74468 -1.38897 0
M  V30 8377 C 797.643 -0.111064 -2.30533 0
M  V30 8378 C 798.613 0.719276 -1.49719 0
M  V30 8379 O 799.798 0.677244 -1.78376 0
M  V30 8380 C 796.938 0.78292 -3.36102 0
M  V30 8381 C 796.051 -0.0610817 -4.31957 0
M  V30 8382 C 795.186 0.835075 -5.24595 0
M  V30 8383 C 794.225 -0.0130974 -6.12099 0
M  V30 8384 N 793.362 0.839525 -6.97063 0
M  V30 8385 H 798.202 -0.898113 -2.84144 0
M  V30 8386 H 795.739 -0.454537 -1.39901 0
M  V30 8387 H 797.697 1.31578 -3.95908 0
M  V30 8388 H 796.327 1.53585 -2.83922 0
M  V30 8389 H 795.379 -0.711469 -3.73687 0
M  V30 8390 H 796.691 -0.716482 -4.93627 0
M  V30 8391 H 795.845 1.43542 -5.89475 0
M  V30 8392 H 794.584 1.52423 -4.63269 0
M  V30 8393 H 793.589 -0.626179 -5.46223 0
M  V30 8394 H 794.814 -0.699181 -6.75491 0
M  V30 8395 H 792.76 1.5138 -6.38295 0
M  V30 8396 H 792.677 0.240823 -7.55616 0
M  V30 8397 H 793.945 1.42513 -7.66362 0
M  V30 8398 N 798.174 1.49689 -0.493057 0
M  V30 8399 C 799.137 2.27502 0.278485 0
M  V30 8400 C 800.137 1.33184 0.901037 0
M  V30 8401 O 801.327 1.56415 0.766801 0
M  V30 8402 C 798.459 3.10881 1.39878 0
M  V30 8403 H 799.652 2.97163 -0.404219 0
M  V30 8404 H 797.205 1.54324 -0.247774 0
M  V30 8405 H 797.94 2.45767 2.11587 0
M  V30 8406 H 797.725 3.80219 0.957924 0
M  V30 8407 H 799.215 3.69673 1.94247 0
M  V30 8408 N 799.652 0.226554 1.55963 0
M  V30 8409 C 800.585 -0.721625 2.1649 0
M  V30 8410 C 801.563 -1.18745 1.11078 0
M  V30 8411 O 802.747 -1.26929 1.3936 0
M  V30 8412 C 799.874 -1.97828 2.74921 0
M  V30 8413 C 798.92 -1.65202 3.93206 0
M  V30 8414 S 799.753 -0.772419 5.299 0
M  V30 8415 C 800.909 -2.03853 5.91773 0
M  V30 8416 H 801.142 -0.207192 2.96577 0
M  V30 8417 H 798.675 0.0111976 1.54396 0
M  V30 8418 H 800.633 -2.69982 3.09225 0
M  V30 8419 H 799.294 -2.46384 1.94817 0
M  V30 8420 H 798.487 -2.58583 4.32609 0
M  V30 8421 H 798.089 -1.01108 3.60074 0
M  V30 8422 H 800.381 -2.98799 6.08051 0
M  V30 8423 H 801.324 -1.68831 6.87678 0
M  V30 8424 H 801.732 -2.18134 5.20651 0
M  V30 8425 N 801.13 -1.57531 -0.0467866 0
M  V30 8426 C 802.546 -1.54451 -0.402107 0
M  V30 8427 C 802.746 -0.950275 -1.77685 0
M  V30 8428 O 801.802 -0.563602 -2.4613 0
M  V30 8429 C 803.115 -2.9899 -0.320212 0
M  V30 8430 C 804.663 -3.10452 -0.398588 0
M  V30 8431 C 805.138 -4.56689 -0.346335 0
M  V30 8432 N 806.629 -4.6142 -0.405666 0
M  V30 8433 C 807.364 -5.72087 -0.387845 0
M  V30 8434 N 806.86 -6.92045 -0.32336 0
M  V30 8435 N 808.653 -5.60404 -0.436263 0
M  V30 8436 H 800.804 -1.94515 0.853087 0
M  V30 8437 H 803.067 -0.891397 0.322669 0
M  V30 8438 H 802.773 -3.46124 0.623794 0
M  V30 8439 H 802.647 -3.60164 -1.1208 0
M  V30 8440 H 805.034 -2.63276 -1.33302 0
M  V30 8441 H 805.115 -2.52142 0.431026 0
M  V30 8442 H 804.759 -5.04527 0.584356 0
M  V30 8443 H 804.689 -5.12889 -1.19382 0
M  V30 8444 H 807.18 -3.75105 -0.458737 0
M  V30 8445 H 807.493 -7.7216 -0.314375 0
M  V30 8446 H 805.838 -6.94396 -0.28967 0
M  V30 8447 H 809.029 -4.65586 -0.48451 0
M  V30 8448 H 809.202 -6.46645 -0.418907 0
M  V30 8449 N 802.608 0.318715 -1.54344 0
M  V30 8450 C 804.024 0.663345 -1.45162 0
M  V30 8451 C 804.224 1.9145 -0.62842 0
M  V30 8452 O 803.28 2.5217 -0.129126 0
M  V30 8453 C 804.593 0.832836 -2.88937 0
M  V30 8454 C 806.141 0.929866 -2.98869 0
M  V30 8455 C 806.616 1.13149 -4.43803 0
M  V30 8456 N 808.107 1.19811 -4.47437 0
M  V30 8457 C 808.842 1.37209 -5.56742 0
M  V30 8458 N 808.338 1.51619 -6.76006 0
M  V30 8459 N 810.131 1.39956 -5.44398 0
M  V30 8460 H 802.282 -0.50357 -2.06344 0
M  V30 8461 H 804.545 -0.163528 -0.933789 0
M  V30 8462 H 804.251 -0.0153519 -3.51697 0
M  V30 8463 H 804.125 1.72721 -3.35332 0
M  V30 8464 H 806.512 1.76855 -2.36233 0
M  V30 8465 H 806.593 0.0118561 -2.55797 0
M  V30 8466 H 806.237 0.297636 -5.07027 0
M  V30 8467 H 806.167 2.06345 -4.84489 0
M  V30 8468 H 808.658 1.101 -3.61506 0
M  V30 8469 H 808.971 1.64599 -7.55067 0
M  V30 8470 H 807.316 1.48708 -6.78904 0
M  V30 8471 H 810.507 1.28298 -4.50175 0
M  V30 8472 H 810.68 1.53172 -6.29637 0
M  V30 8473 N 804.086 1.46499 0.581025 0
M  V30 8474 C 805.016 1.60052 1.70017 0
M  V30 8475 C 805.997 0.450788 1.64018 0
M  V30 8476 O 807.182 0.677237 1.82009 0
M  V30 8477 C 804.312 1.5921 3.08658 0
M  V30 8478 C 803.266 2.73169 3.29488 0
M  V30 8479 C 802.592 2.57389 4.68674 0
M  V30 8480 C 803.892 4.14978 3.1716 0
M  V30 8481 H 805.586 2.53735 1.5893 0
M  V30 8482 H 803.132 1.22113 0.763173 0
M  V30 8483 H 805.085 1.67285 3.86773 0
M  V30 8484 H 803.809 0.620718 3.20647 0
M  V30 8485 H 802.468 2.64566 2.53773 0
M  V30 8486 H 802.116 1.58331 4.77431 0
M  V30 8487 H 801.816 3.33826 4.83564 0
M  V30 8488 H 803.34 2.67358 5.48956 0
M  V30 8489 H 804.754 4.24684 3.85119 0
M  V30 8490 H 803.151 4.92016 3.4357 0
M  V30 8491 H 804.221 4.35016 2.14218 0
M  V30 8492 N 805.565 -0.825799 1.34232 0
M  V30 8493 C 806.495 -1.95151 1.28212 0
M  V30 8494 C 807.476 -1.69345 0.160123 0
M  V30 8495 O 808.661 -1.90983 0.352019 0
M  V30 8496 C 805.791 -3.31554 1.03388 0
M  V30 8497 C 804.745 -3.71793 2.12023 0
M  V30 8498 C 804.071 -5.06147 1.72392 0
M  V30 8499 C 805.371 -3.84193 3.53826 0
M  V30 8500 H 807.065 -2.00445 2.22401 0
M  V30 8501 H 804.611 -0.962996 1.07063 0
M  V30 8502 H 806.564 -4.09889 0.978225 0
M  V30 8503 H 805.288 -3.26551 0.0564142 0
M  V30 8504 H 803.947 -2.95731 2.16654 0
M  V30 8505 H 803.595 -4.97628 0.733137 0
M  V30 8506 H 803.295 -5.34041 2.451 0
M  V30 8507 H 804.819 -5.86943 1.68317 0
M  V30 8508 H 806.233 -4.52806 3.51624 0
M  V30 8509 H 804.63 -4.23538 4.2513 0
M  V30 8510 H 805.7 -2.86272 3.91377 0
M  V30 8511 N 807.043 -1.17915 -1.04565 0
M  V30 8512 C 808.268 -0.996749 -1.81878 0
M  V30 8513 C 808.693 0.450169 -1.82634 0
M  V30 8514 O 808.051 1.32268 -1.23995 0
M  V30 8515 C 808.099 -1.55005 -3.25585 0
M  V30 8516 O 807.203 -0.76804 -4.05185 0
M  V30 8517 H 806.544 -0.353456 -0.562108 0
M  V30 8518 H 809.074 -1.56557 -1.31723 0
M  V30 8519 H 809.084 -1.57503 -3.76373 0
M  V30 8520 H 807.759 -2.60327 -3.2435 0
M  V30 8521 H 806.336 -0.81498 -3.63885 0
M  V30 8522 N 808.521 1.23394 -0.980386 0
M  V30 8523 C 809.798 1.87242 -0.565667 0
M  V30 8524 C 810.178 1.88151 0.957197 0
M  V30 8525 O 809.526 1.36309 1.8339 0
M  V30 8526 C 809.736 3.28743 -1.17172 0
M  V30 8527 C 811.084 4.05335 -1.26446 0
M  V30 8528 O 812.108 3.37962 -1.12517 0
M  V30 8529 O 810.967 5.25908 -1.48604 0
M  V30 8530 H 808.061 0.80477 -0.190459 0
M  V30 8531 H 810.607 1.3127 -1.07547 0
M  V30 8532 H 809.379 3.22647 -2.21392 0
M  V30 8533 H 809.002 3.92305 -0.646739 0
M  V30 8534 N 809.999 0.752036 1.385 0
M  V30 8535 C 811.239 0.312408 2.01998 0
M  V30 8536 C 811.603 -1.085 1.58404 0
M  V30 8537 O 812.804 -1.62365 2.14222 0
M  V30 8538 C 811.075 0.429423 3.54811 0
M  V30 8539 S 812.634 0.0721487 4.38741 0
M  V30 8540 H 809.452 0.1213 0.700576 0
M  V30 8541 H 812.054 0.982312 1.69029 0
M  V30 8542 H 810.758 1.44743 3.84028 0
M  V30 8543 H 810.289 -0.257716 3.92555 0
M  V30 8544 H 812.304 -1.13875 4.82957 0
M  V30 8545 N 811.477 -1.49425 0.500989 0
M  V30 8546 C 812.407 -2.31971 -0.266775 0
M  V30 8547 C 813.388 -1.40245 -0.962563 0
M  V30 8548 O 814.573 -1.69154 -0.953968 0
M  V30 8549 C 811.703 -3.20757 -1.33163 0
M  V30 8550 C 810.657 -4.21275 -0.75572 0
M  V30 8551 C 809.983 -4.98997 -1.92109 0
M  V30 8552 C 811.283 -5.21686 0.253213 0
M  V30 8553 H 812.977 -2.96408 0.422237 0
M  V30 8554 H 810.523 -1.4254 0.204505 0
M  V30 8555 H 812.476 -3.77315 -1.87646 0
M  V30 8556 H 811.2 -2.54263 -2.04983 0
M  V30 8557 H 809.859 -3.65861 -0.232637 0
M  V30 8558 H 809.507 -4.28951 -2.62698 0
M  V30 8559 H 809.207 -5.67011 -1.54182 0
M  V30 8560 H 810.731 -5.584 -2.47026 0
M  V30 8561 H 812.145 -5.72939 -0.203483 0
M  V30 8562 H 810.542 -5.9759 0.548322 0
M  V30 8563 H 811.612 -4.70596 1.16909 0
M  V30 8564 N 812.955 -0.234822 -1.55841 0
M  V30 8565 C 813.902 0.6698 -2.20867 0
M  V30 8566 C 814.872 1.18042 -1.16856 0
M  V30 8567 O 816.057 1.23709 -1.45261 0
M  V30 8568 C 813.197 1.86646 -2.90271 0
M  V30 8569 C 812.31 1.39351 -4.08908 0
M  V30 8570 C 811.445 2.54878 -4.66059 0
M  V30 8571 C 810.484 2.04384 -5.76969 0
M  V30 8572 N 809.621 3.13233 -6.28355 0
M  V30 8573 H 814.461 0.10858 -2.97802 0
M  V30 8574 H 811.998 0.041836 -1.4704 0
M  V30 8575 H 813.956 2.56926 -3.28702 0
M  V30 8576 H 812.586 2.40035 -2.15831 0
M  V30 8577 H 811.638 0.585173 -3.75872 0
M  V30 8578 H 812.95 0.983356 -4.89011 0
M  V30 8579 H 812.104 3.33219 -5.07001 0
M  V30 8580 H 810.843 2.99188 -3.85146 0
M  V30 8581 H 809.848 1.24509 -5.35516 0
M  V30 8582 H 811.073 1.61057 -6.59725 0
M  V30 8583 H 809.019 3.57 -5.50352 0
M  V30 8584 H 808.936 2.76511 -7.03618 0
M  V30 8585 H 810.204 3.91669 -6.73955 0
M  V30 8586 N 814.433 1.57553 0.0384317 0
M  V30 8587 C 815.68 1.88841 0.731116 0
M  V30 8588 C 816.008 0.83093 1.75857 0
M  V30 8589 O 815.263 -0.169248 1.94967 0
M  V30 8590 C 815.562 3.26862 1.44554 0
M  V30 8591 C 815.228 4.47472 0.554946 0
M  V30 8592 C 813.89 4.80203 0.309621 0
M  V30 8593 C 816.242 5.21165 -0.0605204 0
M  V30 8594 C 813.57 5.8402 -0.560101 0
M  V30 8595 C 815.922 6.25905 -0.91789 0
M  V30 8596 C 814.586 6.57117 -1.17277 0
M  V30 8597 H 813.856 0.691018 0.267534 0
M  V30 8598 H 816.503 1.91498 -0.00883195 0
M  V30 8599 H 814.808 3.2015 2.25856 0
M  V30 8600 H 816.505 3.48316 1.98688 0
M  V30 8601 H 813.095 4.21874 0.756304 0
M  V30 8602 H 817.279 4.96164 0.116064 0
M  V30 8603 H 812.535 6.06583 -0.765974 0
M  V30 8604 H 816.709 6.82155 -1.40136 0
M  V30 8605 H 814.336 7.37385 -1.84843 0
M  V30 8606 N 815.911 -0.310526 1.54511 0
M  V30 8607 C 816.843 -1.40405 1.8116 0
M  V30 8608 C 817.856 -1.47261 0.694114 0
M  V30 8609 O 819.045 -1.49751 0.971441 0
M  V30 8610 C 816.145 -2.78849 1.92604 0
M  V30 8611 C 815.318 -2.95041 3.22908 0
M  V30 8612 C 814.377 -4.13925 3.24889 0
M  V30 8613 O 813.403 -4.06463 3.98467 0
M  V30 8614 N 814.605 -5.24099 2.496 0
M  V30 8615 H 817.37 -1.17903 2.75534 0
M  V30 8616 H 814.931 -0.500564 1.53967 0
M  V30 8617 H 816.923 -3.5661 1.91342 0
M  V30 8618 H 815.493 -2.94342 1.05268 0
M  V30 8619 H 814.713 -2.04472 3.37023 0
M  V30 8620 H 816.001 -3.02763 4.08916 0
M  V30 8621 H 815.399 -5.33039 1.89435 0
M  V30 8622 H 813.956 -6.0023 2.54102 0
M  V30 8623 N 817.389 -1.46805 -0.573248 0
M  V30 8624 C 818.805 -1.31969 -0.897577 0
M  V30 8625 C 819.005 -0.298171 -1.99282 0
M  V30 8626 O 818.061 0.295953 -2.5076 0
M  V30 8627 C 819.374 -2.70859 -1.30598 0
M  V30 8628 C 820.922 -2.79022 -1.4183 0
M  V30 8629 C 821.397 -4.18516 -1.86033 0
M  V30 8630 N 822.888 -4.2098 -1.9321 0
M  V30 8631 C 823.623 -5.25814 -2.28707 0
M  V30 8632 N 823.119 -6.40968 -2.6293 0
M  V30 8633 N 824.912 -5.13184 -2.29343 0
M  V30 8634 H 817.063 -2.11869 0.150094 0
M  V30 8635 H 819.326 -0.947989 0.00447895 0
M  V30 8636 H 819.032 -3.46965 -0.575161 0
M  V30 8637 H 818.906 -3.01585 -2.26554 0
M  V30 8638 H 821.293 -2.03198 -2.13996 0
M  V30 8639 H 821.374 -2.51969 -0.441024 0
M  V30 8640 H 821.018 -4.94839 -1.14442 0
M  V30 8641 H 820.948 -4.42982 -2.84735 0
M  V30 8642 H 823.439 -3.37898 -1.69214 0
M  V30 8643 H 823.752 -7.16729 -2.88996 0
M  V30 8644 H 822.097 -6.44314 -2.60547 0
M  V30 8645 H 825.288 -4.22255 -2.02036 0
M  V30 8646 H 825.461 -5.94996 -2.56679 0
M  V30 8647 N 818.867 0.818669 -1.34668 0
M  V30 8648 C 819.777 1.9616 -1.2868 0
M  V30 8649 C 820.793 1.72918 -0.193742 0
M  V30 8650 O 821.969 1.96951 -0.420975 0
M  V30 8651 C 819.034 3.30534 -1.04633 0
M  V30 8652 C 818.095 3.66755 -2.23136 0
M  V30 8653 C 817.328 4.94717 -2.00227 0
M  V30 8654 O 817.551 5.62218 -0.96264 0
M  V30 8655 O 816.485 5.28915 -2.87286 0
M  V30 8656 H 820.311 2.04157 -2.24842 0
M  V30 8657 H 817.896 0.954691 -1.14917 0
M  V30 8658 H 819.778 4.11005 -0.930216 0
M  V30 8659 H 818.453 3.23495 -0.115139 0
M  V30 8660 H 817.36 2.8671 -2.40308 0
M  V30 8661 H 818.693 3.78484 -3.1466 0
M  V30 8662 N 820.346 1.18468 1.03938 0
M  V30 8663 C 821.256 0.927889 2.1547 0
M  V30 8664 C 822.272 -0.108447 1.73662 0
M  V30 8665 O 823.448 0.0737636 2.01265 0
M  V30 8666 C 820.513 0.458494 3.43655 0
M  V30 8667 C 819.574 1.56295 3.99838 0
M  V30 8668 C 818.807 1.11586 5.21904 0
M  V30 8669 O 819.03 -0.0249057 5.70395 0
M  V30 8670 O 817.964 1.91412 5.70653 0
M  V30 8671 H 821.79 1.86116 2.39989 0
M  V30 8672 H 819.375 0.966607 1.13917 0
M  V30 8673 H 821.257 0.204861 4.20902 0
M  V30 8674 H 819.932 -0.446464 3.20606 0
M  V30 8675 H 818.839 1.87061 3.23974 0
M  V30 8676 H 820.172 2.44408 4.2723 0
M  V30 8677 N 821.824 -1.22873 0.986916 0
M  V30 8678 C 823.24 -1.43594 0.696633 0
M  V30 8679 C 823.44 -1.87622 -0.734869 0
M  V30 8680 O 822.496 -2.02633 -1.50652 0
M  V30 8681 C 823.809 -2.48231 1.69711 0
M  V30 8682 C 825.357 -2.62037 1.71188 0
M  V30 8683 C 825.832 -3.6989 2.70084 0
M  V30 8684 N 827.323 -3.77341 2.68641 0
M  V30 8685 C 828.058 -4.6037 3.41829 0
M  V30 8686 N 827.554 -5.47438 4.24598 0
M  V30 8687 N 829.347 -4.54626 3.30563 0
M  V30 8688 H 821.498 -0.925982 1.91153 0
M  V30 8689 H 823.761 -0.46866 0.824052 0
M  V30 8690 H 823.467 -2.22812 2.72117 0
M  V30 8691 H 823.341 -3.46731 1.48516 0
M  V30 8692 H 825.728 -2.86803 0.694837 0
M  V30 8693 H 825.809 -1.63831 1.96451 0
M  V30 8694 H 825.453 -3.45872 3.71934 0
M  V30 8695 H 825.383 -4.67652 2.42093 0
M  V30 8696 H 827.874 -3.15124 2.08578 0
M  V30 8697 H 828.187 -6.078 4.77283 0
M  V30 8698 H 826.532 -5.4704 4.28687 0
M  V30 8699 H 829.723 -3.85627 2.65347 0
M  V30 8700 H 829.896 -5.19103 3.8786 0
M  V30 8701 N 823.302 -0.75937 -1.38099 0
M  V30 8702 C 824.713 -0.385078 -1.82686 0
M  V30 8703 C 825.064 1.0871 -1.6333 0
M  V30 8704 O 824.189 1.84084 -1.13762 0
M  V30 8705 C 824.784 -0.692161 -3.31654 0
M  V30 8706 C 823.343 -0.371077 -3.74566 0
M  V30 8707 C 822.49 -0.942375 -2.60796 0
M  V30 8708 H 825.441 -0.955048 -1.26746 0
M  V30 8709 H 825.462 0.0276001 -3.8049 0
M  V30 8710 H 824.974 -1.76369 -3.4571 0
M  V30 8711 H 823.075 0.693637 -3.66087 0
M  V30 8712 H 823.188 -0.870672 -4.71122 0
M  V30 8713 H 821.552 -0.367383 -2.52036 0
M  V30 8714 H 822.335 -2.01905 -2.77649 0
M  V30 8715 N 824.78 1.49157 -0.508906 0
M  V30 8716 C 825.71 2.32109 0.254469 0
M  V30 8717 C 826.691 1.40754 0.955111 0
M  V30 8718 O 827.876 1.69658 0.944983 0
M  V30 8719 C 825.006 3.21458 1.3146 0
M  V30 8720 C 823.96 4.2167 0.733368 0
M  V30 8721 C 823.286 5.00009 1.8946 0
M  V30 8722 C 824.586 5.21544 -0.280875 0
M  V30 8723 H 826.28 2.9618 -0.43795 0
M  V30 8724 H 823.826 1.4243 -0.212062 0
M  V30 8725 H 825.779 3.78305 1.85643 0
M  V30 8726 H 824.503 2.55346 2.03632 0
M  V30 8727 H 823.162 3.65979 0.213231 0
M  V30 8728 H 822.81 4.30338 2.60419 0
M  V30 8729 H 822.51 5.67821 1.51173 0
M  V30 8730 H 824.034 5.59702 2.44061 0
M  V30 8731 H 825.448 5.73039 0.173095 0
M  V30 8732 H 823.845 5.97291 -0.580006 0
M  V30 8733 H 824.915 4.69969 -1.19404 0
M  V30 8734 N 826.258 0.243083 1.55714 0
M  V30 8735 C 827.505 -0.38272 1.9885 0
M  V30 8736 C 827.833 -1.58225 1.13115 0
M  V30 8737 O 827.088 -1.94861 0.181067 0
M  V30 8738 C 827.387 -0.839621 3.47398 0
M  V30 8739 C 827.053 0.251737 4.50197 0
M  V30 8740 C 825.715 0.551487 4.78029 0
M  V30 8741 C 828.067 0.988728 5.11736 0
M  V30 8742 C 825.395 1.59237 5.64677 0
M  V30 8743 C 827.747 2.0191 5.99512 0
M  V30 8744 C 826.411 2.32554 6.2568 0
M  V30 8745 H 825.681 -0.140047 0.727645 0
M  V30 8746 H 828.328 0.35011 1.88272 0
M  V30 8747 H 826.633 -1.65159 3.55288 0
M  V30 8748 H 828.33 -1.33404 3.78159 0
M  V30 8749 H 824.92 0.00796741 4.28599 0
M  V30 8750 H 829.104 0.7704 4.90284 0
M  V30 8751 H 824.36 1.83517 5.83208 0
M  V30 8752 H 828.534 2.59511 6.46241 0
M  V30 8753 H 826.161 3.13349 6.92616 0
M  V30 8754 N 827.736 -1.57571 -0.0300757 0
M  V30 8755 C 829.147 -1.77567 -0.576802 0
M  V30 8756 C 829.498 -0.874034 -1.75656 0
M  V30 8757 O 828.623 -0.0686124 -2.16291 0
M  V30 8758 C 829.218 -3.22016 -1.05315 0
M  V30 8759 C 827.777 -3.43212 -1.5454 0
M  V30 8760 C 826.924 -2.73061 -0.483033 0
M  V30 8761 H 829.875 -1.57483 0.196151 0
M  V30 8762 H 829.896 -3.28474 -1.92055 0
M  V30 8763 H 829.408 -3.87613 -0.194298 0
M  V30 8764 H 827.509 -2.82788 -2.42615 0
M  V30 8765 H 827.622 -4.5182 -1.5936 0
M  V30 8766 H 825.986 -2.36805 -0.937835 0
M  V30 8767 H 826.769 -3.4134 0.366341 0
M  V30 8768 N 829.214 0.302327 -1.54673 0
M  V30 8769 C 830.146 1.39443 -1.81902 0
M  V30 8770 C 831.159 1.46891 -0.701914 0
M  V30 8771 O 832.348 1.49233 -0.979369 0
M  V30 8772 C 829.448 2.77824 -1.9408 0
M  V30 8773 C 828.621 2.93324 -3.24468 0
M  V30 8774 C 827.68 4.12196 -3.27079 0
M  V30 8775 O 826.706 4.04344 -4.00617 0
M  V30 8776 N 827.908 5.22768 -2.52376 0
M  V30 8777 H 830.673 1.1644 -2.76155 0
M  V30 8778 H 828.234 0.492392 -1.54231 0
M  V30 8779 H 830.226 3.5559 -1.9323 0
M  V30 8780 H 828.796 2.9378 -1.06828 0
M  V30 8781 H 828.016 2.02682 -3.38103 0
M  V30 8782 H 829.304 3.0059 -4.10516 0
M  V30 8783 H 828.702 5.32027 -1.92259 0
M  V30 8784 H 827.259 5.98874 -2.57281 0
M  V30 8785 N 830.692 1.47107 0.565454 0
M  V30 8786 C 831.941 1.5257 1.31929 0
M  V30 8787 C 832.254 0.189092 1.94684 0
M  V30 8788 O 833.46 0.121657 2.71227 0
M  V30 8789 C 831.916 2.68914 2.39193 0
M  V30 8790 C 831.524 4.09069 1.82665 0
M  V30 8791 C 833.268 2.83663 3.1581 0
M  V30 8792 C 831.175 5.16726 2.87661 0
M  V30 8793 H 830.105 0.567869 0.496025 0
M  V30 8794 H 832.756 1.73361 0.60151 0
M  V30 8795 H 831.138 2.41486 3.13848 0
M  V30 8796 H 832.312 4.46364 1.14438 0
M  V30 8797 H 830.627 3.99135 1.1866 0
M  V30 8798 H 833.224 3.61261 3.94201 0
M  V30 8799 H 833.567 1.91804 3.69482 0
M  V30 8800 H 834.1 3.10821 2.48265 0
M  V30 8801 H 830.839 6.10433 2.38854 0
M  V30 8802 H 830.359 4.83957 3.54324 0
M  V30 8803 H 832.038 5.43319 3.51303 0
M  V30 8804 N 832.17 -0.811516 1.35101 0
M  V30 8805 C 833.1 -1.9378 1.30275 0
M  V30 8806 C 834.081 -1.69165 0.178075 0
M  V30 8807 O 835.266 -1.90599 0.372256 0
M  V30 8808 C 832.396 -3.30439 1.06899 0
M  V30 8809 C 831.35 -3.69523 2.15955 0
M  V30 8810 C 830.676 -5.0429 1.77751 0
M  V30 8811 C 831.976 -3.80419 3.57881 0
M  V30 8812 H 833.67 -1.98075 2.24514 0
M  V30 8813 H 831.216 -0.951586 1.08078 0
M  V30 8814 H 833.169 -4.08828 1.02164 0
M  V30 8815 H 831.893 -3.26473 0.0910462 0
M  V30 8816 H 830.552 -2.93416 2.19778 0
M  V30 8817 H 830.2 -4.96823 0.785876 0
M  V30 8818 H 829.9 -5.31411 2.5075 0
M  V30 8819 H 831.424 -5.85125 1.74533 0
M  V30 8820 H 832.838 -4.49051 3.56407 0
M  V30 8821 H 831.235 -4.19005 4.29598 0
M  V30 8822 H 832.305 -2.82105 3.94391 0
M  V30 8823 N 833.648 -1.19017 -1.03309 0
M  V30 8824 C 834.611 -0.926076 -2.09658 0
M  V30 8825 C 835.611 0.0917077 -1.60538 0
M  V30 8826 O 836.801 -0.142574 -1.73616 0
M  V30 8827 C 833.933 -0.390958 -3.38651 0
M  V30 8828 H 835.126 -1.86923 -2.3452 0
M  V30 8829 H 832.679 -1.00325 -1.19853 0
M  V30 8830 H 833.414 0.558446 -3.19456 0
M  V30 8831 H 833.199 -1.12474 -3.75622 0
M  V30 8832 H 834.689 -0.225131 -4.16993 0
M  V30 8833 N 835.127 1.22348 -0.993418 0
M  V30 8834 C 836.355 1.95125 -0.688021 0
M  V30 8835 C 836.77 1.73377 0.747388 0
M  V30 8836 O 836.127 1.03317 1.50439 0
M  V30 8837 C 836.178 3.47819 -0.985097 0
M  V30 8838 O 835.899 3.68838 -2.3641 0
M  V30 8839 C 837.4 4.37779 -0.697474 0
M  V30 8840 H 834.62 0.62087 -0.254481 0
M  V30 8841 H 837.164 1.55485 -1.32833 0
M  V30 8842 H 835.319 3.85426 -0.390583 0
M  V30 8843 H 835.733 4.63032 -2.46377 0
M  V30 8844 H 837.207 5.43666 -0.955604 0
M  V30 8845 H 837.684 4.37651 0.368524 0
M  V30 8846 H 838.29 4.05799 -1.27306 0
M  V30 8847 N 836.605 0.766683 1.37694 0
M  V30 8848 C 837.854 0.325425 1.99057 0
M  V30 8849 C 838.167 -1.10275 1.61551 0
M  V30 8850 O 839.373 -1.64513 2.1598 0
M  V30 8851 C 837.829 0.530886 3.55963 0
M  V30 8852 C 837.437 1.96899 4.02411 0
M  V30 8853 C 839.181 0.152997 4.24224 0
M  V30 8854 C 837.088 2.12232 5.52007 0
M  V30 8855 H 836.018 0.117929 0.744721 0
M  V30 8856 H 838.669 0.945091 1.5729 0
M  V30 8857 H 837.051 -0.158162 3.95684 0
M  V30 8858 H 838.225 2.69258 3.73948 0
M  V30 8859 H 836.54 2.303 3.46916 0
M  V30 8860 H 839.137 0.24614 5.34133 0
M  V30 8861 H 839.48 -0.896096 4.06541 0
M  V30 8862 H 840.013 0.794398 3.89787 0
M  V30 8863 H 836.752 3.15442 5.7461 0
M  V30 8864 H 836.272 1.4435 5.82171 0
M  V30 8865 H 837.951 1.9185 6.17902 0
M  V30 8866 N 838.083 -1.48885 0.516809 0
M  V30 8867 C 838.993 -2.33185 -0.257293 0
M  V30 8868 C 840.009 -1.4565 -0.951952 0
M  V30 8869 O 841.185 -1.78651 -0.929834 0
M  V30 8870 C 838.25 -3.21465 -1.29851 0
M  V30 8871 C 837.311 -4.24863 -0.615608 0
M  V30 8872 C 836.544 -5.08925 -1.60722 0
M  V30 8873 O 836.767 -4.9475 -2.83863 0
M  V30 8874 O 835.701 -5.90737 -1.15384 0
M  V30 8875 H 839.527 -3.00596 0.433131 0
M  V30 8876 H 837.112 -1.46792 0.277908 0
M  V30 8877 H 838.994 -3.76108 -1.90055 0
M  V30 8878 H 837.669 -2.5673 -1.97158 0
M  V30 8879 H 836.576 -3.74091 0.0265829 0
M  V30 8880 H 837.909 -4.92198 0.0152871 0
M  V30 8881 N 839.561 -0.251338 -1.55583 0
M  V30 8882 C 840.491 0.640437 -2.24545 0
M  V30 8883 C 841.472 1.17781 -1.22726 0
M  V30 8884 O 842.657 1.21633 -1.5139 0
M  V30 8885 C 839.787 1.8355 -2.94834 0
M  V30 8886 C 838.741 1.4307 -4.03379 0
M  V30 8887 C 838.067 2.70695 -4.61116 0
M  V30 8888 C 839.367 0.59848 -5.1886 0
M  V30 8889 H 841.061 0.0653772 -2.99329 0
M  V30 8890 H 838.607 0.0300042 -1.43969 0
M  V30 8891 H 840.56 2.46505 -3.4178 0
M  V30 8892 H 839.284 2.43601 -2.17546 0
M  V30 8893 H 837.943 0.824474 -3.57209 0
M  V30 8894 H 837.591 3.28954 -3.80524 0
M  V30 8895 H 837.291 2.44332 -5.34393 0
M  V30 8896 H 838.815 3.34541 -5.10798 0
M  V30 8897 H 840.229 1.13244 -5.62004 0
M  V30 8898 H 838.626 0.430728 -5.98552 0
M  V30 8899 H 839.696 -0.38829 -4.83343 0
M  V30 8900 N 841.039 1.57585 0.0217189 0
M  V30 8901 C 841.969 2.10073 1.01939 0
M  V30 8902 C 842.95 1.0049 1.37243 0
M  V30 8903 O 844.135 1.28055 1.45999 0
M  V30 8904 C 841.265 2.58618 2.31806 0
M  V30 8905 C 840.219 3.72531 2.10724 0
M  V30 8906 C 839.545 4.07309 3.46415 0
M  V30 8907 C 840.845 5.00672 1.48743 0
M  V30 8908 H 842.539 2.9368 0.582432 0
M  V30 8909 H 840.085 1.41277 0.278715 0
M  V30 8910 H 842.038 2.9396 3.01936 0
M  V30 8911 H 840.762 1.72104 2.77575 0
M  V30 8912 H 839.421 3.37549 1.43025 0
M  V30 8913 H 839.069 3.17851 3.89846 0
M  V30 8914 H 838.769 4.84042 3.33132 0
M  V30 8915 H 840.293 4.45192 4.17895 0
M  V30 8916 H 841.707 5.33925 2.088 0
M  V30 8917 H 840.104 5.82065 1.46013 0
M  V30 8918 H 841.174 4.82769 0.45408 0
M  V30 8919 N 842.517 -0.29412 1.54831 0
M  V30 8920 C 843.449 -1.38476 1.82639 0
M  V30 8921 C 844.462 -1.46517 0.709694 0
M  V30 8922 O 845.651 -1.48712 0.987269 0
M  V30 8923 C 842.751 -2.76791 1.95551 0
M  V30 8924 C 841.924 -2.91599 3.26019 0
M  V30 8925 C 840.983 -4.10456 3.29261 0
M  V30 8926 O 840.009 -4.02214 4.02756 0
M  V30 8927 N 841.211 -5.21422 2.55145 0
M  V30 8928 H 843.976 -1.14974 2.76769 0
M  V30 8929 H 841.537 -0.484206 1.5449 0
M  V30 8930 H 843.529 -3.5456 1.95113 0
M  V30 8931 H 842.099 -2.93209 1.08384 0
M  V30 8932 H 841.319 -2.00886 3.39173 0
M  V30 8933 H 842.607 -2.98409 4.12104 0
M  V30 8934 H 842.005 -5.31 1.95078 0
M  V30 8935 H 840.562 -5.97501 2.60454 0
M  V30 8936 N 843.995 -1.47404 -0.557645 0
M  V30 8937 C 845.411 -1.32913 -0.88353 0
M  V30 8938 C 845.611 -0.31929 -1.98954 0
M  V30 8939 O 844.667 0.26934 -2.51059 0
M  V30 8940 C 845.98 -2.72229 -1.27718 0
M  V30 8941 C 847.528 -2.8051 -1.38863 0
M  V30 8942 C 848.003 -4.20466 -1.81583 0
M  V30 8943 N 849.494 -4.23005 -1.88735 0
M  V30 8944 C 850.229 -5.2821 -2.23118 0
M  V30 8945 N 849.725 -6.4372 -2.56117 0
M  V30 8946 N 851.518 -5.15588 -2.23888 0
M  V30 8947 H 843.669 -2.11698 0.172557 0
M  V30 8948 H 845.932 -0.947889 0.0145334 0
M  V30 8949 H 845.638 -3.47556 -0.538329 0
M  V30 8950 H 845.512 -3.03971 -2.23342 0
M  V30 8951 H 847.899 -2.05457 -2.11829 0
M  V30 8952 H 847.98 -2.52423 -0.414274 0
M  V30 8953 H 847.624 -4.96025 -1.09187 0
M  V30 8954 H 847.554 -4.45977 -2.80021 0
M  V30 8955 H 850.045 -3.39674 -1.65621 0
M  V30 8956 H 850.358 -7.19754 -2.81378 0
M  V30 8957 H 848.703 -6.47041 -2.53698 0
M  V30 8958 H 851.894 -4.24374 -1.97546 0
M  V30 8959 H 852.067 -5.97685 -2.50353 0
M  V30 8960 N 845.473 0.80434 -1.35529 0
M  V30 8961 C 846.698 1.598 -1.32207 0
M  V30 8962 C 847.123 1.87848 0.0974226 0
M  V30 8963 O 846.481 1.46728 1.06492 0
M  V30 8964 C 846.529 2.90483 -2.13663 0
M  V30 8965 O 845.633 3.83411 -1.51888 0
M  V30 8966 H 844.974 0.485305 -0.453183 0
M  V30 8967 H 847.504 0.998119 -1.78602 0
M  V30 8968 H 847.514 3.39888 -2.257 0
M  V30 8969 H 846.189 2.69395 -3.16859 0
M  V30 8970 H 844.766 3.41967 -1.48704 0
M  V30 8971 N 846.951 1.19563 1.02676 0
M  V30 8972 C 847.881 0.959024 2.12897 0
M  V30 8973 C 848.862 -0.108382 1.69754 0
M  V30 8974 O 850.047 0.0470698 1.94143 0
M  V30 8975 C 847.177 0.499211 3.43693 0
M  V30 8976 C 846.131 1.5087 4.00528 0
M  V30 8977 C 845.457 0.905884 5.2697 0
M  V30 8978 C 846.757 2.88954 4.3509 0
M  V30 8979 H 848.451 1.88084 2.32948 0
M  V30 8980 H 845.997 0.905731 1.11949 0
M  V30 8981 H 847.95 0.320965 4.20176 0
M  V30 8982 H 846.674 -0.458205 3.2337 0
M  V30 8983 H 845.333 1.67413 3.26142 0
M  V30 8984 H 844.981 -0.0591506 5.02965 0
M  V30 8985 H 844.681 1.58 5.65959 0
M  V30 8986 H 846.205 0.73848 6.06118 0
M  V30 8987 H 847.619 2.75981 5.02501 0
M  V30 8988 H 846.016 3.53177 4.85166 0
M  V30 8989 H 847.086 3.41447 3.44299 0
M  V30 8990 N 848.429 -1.21819 0.999893 0
M  V30 8991 C 849.84 -1.72517 0.713775 0
M  V30 8992 C 850.191 -1.80505 -0.768922 0
M  V30 8993 O 849.316 -1.45611 -1.60083 0
M  V30 8994 C 849.911 -3.13321 1.28901 0
M  V30 8995 C 848.47 -3.61396 1.05212 0
M  V30 8996 C 847.617 -2.39074 1.40494 0
M  V30 8997 H 850.568 -1.07068 1.17141 0
M  V30 8998 H 850.589 -3.74535 0.671084 0
M  V30 8999 H 850.101 -3.07475 2.36814 0
M  V30 9000 H 848.202 -3.72599 -0.0100732 0
M  V30 9001 H 848.315 -4.47145 1.72042 0
M  V30 9002 H 846.679 -2.41015 0.823642 0
M  V30 9003 H 847.462 -2.35884 2.49427 0
M  V30 9004 N 849.908 -0.773975 -1.37286 0
M  V30 9005 C 850.855 -0.159938 -2.30245 0
M  V30 9006 C 851.825 0.687356 -1.51211 0
M  V30 9007 O 853.01 0.639255 -1.79773 0
M  V30 9008 C 850.15 0.711452 -3.37687 0
M  V30 9009 C 849.263 -0.152692 -4.3173 0
M  V30 9010 C 848.398 0.723613 -5.26248 0
M  V30 9011 C 847.437 -0.14293 -6.11933 0
M  V30 9012 N 846.574 0.691479 -6.98687 0
M  V30 9013 H 851.414 -0.958182 -2.82175 0
M  V30 9014 H 848.951 -0.48411 -1.38906 0
M  V30 9015 H 850.909 1.2315 -3.9861 0
M  V30 9016 H 849.539 1.47528 -2.87116 0
M  V30 9017 H 848.591 -0.790574 -3.72094 0
M  V30 9018 H 849.903 -0.821027 -4.91997 0
M  V30 9019 H 849.057 1.31006 -5.92387 0
M  V30 9020 H 847.796 1.42562 -4.66398 0
M  V30 9021 H 846.801 -0.7419 -5.44771 0
M  V30 9022 H 848.026 -0.842305 -6.73856 0
M  V30 9023 H 845.972 1.37806 -6.41362 0
M  V30 9024 H 845.889 0.0804911 -7.55957 0
M  V30 9025 H 847.157 1.26225 -7.69212 0
M  V30 9026 N 851.386 1.48609 -0.524698 0
M  V30 9027 C 852.635 2.01696 0.0132937 0
M  V30 9028 C 852.948 1.40751 1.35825 0
M  V30 9029 O 854.154 1.85304 1.9843 0
M  V30 9030 C 852.61 3.59824 0.0741012 0
M  V30 9031 C 852.218 4.2975 -1.26564 0
M  V30 9032 C 853.962 4.20774 0.5612 0
M  V30 9033 C 851.869 5.79798 -1.16571 0
M  V30 9034 H 850.799 0.753949 0.00873931 0
M  V30 9035 H 853.45 1.70922 -0.667684 0
M  V30 9036 H 851.832 3.87416 0.820043 0
M  V30 9037 H 853.006 4.13836 -2.02674 0
M  V30 9038 H 851.321 3.80649 -1.68806 0
M  V30 9039 H 853.918 5.30687 0.653853 0
M  V30 9040 H 854.261 3.85734 1.56573 0
M  V30 9041 H 854.794 3.97591 -0.128901 0
M  V30 9042 H 851.533 6.19403 -2.14523 0
M  V30 9043 H 851.053 5.9814 -0.445894 0
M  V30 9044 H 852.732 6.41337 -0.854186 0
M  V30 9045 N 852.864 0.259585 1.55447 0
M  V30 9046 C 853.774 -0.645026 2.25558 0
M  V30 9047 C 854.79 -1.18291 1.27606 0
M  V30 9048 O 855.966 -1.21649 1.6051 0
M  V30 9049 C 853.031 -1.81964 2.9511 0
M  V30 9050 C 852.092 -1.31997 4.08504 0
M  V30 9051 C 851.325 -2.43861 4.74729 0
M  V30 9052 O 851.548 -3.62876 4.40088 0
M  V30 9053 O 850.482 -2.12898 5.6299 0
M  V30 9054 H 854.308 -0.0775399 3.03601 0
M  V30 9055 H 851.893 0.0275859 1.49375 0
M  V30 9056 H 853.775 -2.50485 3.38873 0
M  V30 9057 H 852.45 -2.37451 2.19997 0
M  V30 9058 H 851.357 -0.601676 3.6923 0
M  V30 9059 H 852.69 -0.811045 4.85472 0
M  V30 9060 N 854.342 -1.57594 -0.0133615 0
M  V30 9061 C 855.758 -1.5527 -0.369255 0
M  V30 9062 C 855.958 -0.987751 -1.7563 0
M  V30 9063 O 855.014 -0.615683 -2.44879 0
M  V30 9064 C 856.327 -2.99602 -0.25672 0
M  V30 9065 C 857.875 -3.11227 -0.332647 0
M  V30 9066 C 858.35 -4.57321 -0.249387 0
M  V30 9067 N 859.841 -4.62177 -0.3077 0
M  V30 9068 C 860.576 -5.72781 -0.26641 0
M  V30 9069 N 860.072 -6.92575 -0.176494 0
M  V30 9070 N 861.865 -5.61204 -0.317295 0
M  V30 9071 H 854.016 -1.92662 0.894154 0
M  V30 9072 H 856.279 -0.884352 0.341505 0
M  V30 9073 H 855.985 -3.44723 0.697072 0
M  V30 9074 H 855.859 -3.6246 -1.04415 0
M  V30 9075 H 858.246 -2.66045 -1.27688 0
M  V30 9076 H 858.327 -2.51171 0.484412 0
M  V30 9077 H 857.971 -5.03174 0.691242 0
M  V30 9078 H 857.901 -5.15306 -1.08476 0
M  V30 9079 H 860.392 -3.75994 -0.379069 0
M  V30 9080 H 860.705 -7.72653 -0.150518 0
M  V30 9081 H 859.05 -6.94854 -0.142314 0
M  V30 9082 H 862.241 -4.66509 -0.385643 0
M  V30 9083 H 862.414 -6.47388 -0.28165 0
M  V30 9084 N 855.82 0.285905 -1.54985 0
M  V30 9085 C 857.045 1.04207 -1.7932 0
M  V30 9086 C 857.47 1.79622 -0.558343 0
M  V30 9087 O 856.828 1.74506 0.491661 0
M  V30 9088 C 856.876 1.98648 -3.0095 0
M  V30 9089 O 855.98 3.07207 -2.75132 0
M  V30 9090 H 855.321 0.298596 -0.593074 0
M  V30 9091 H 857.851 0.318736 -2.02102 0
M  V30 9092 H 857.861 2.4084 -3.29333 0
M  V30 9093 H 856.536 1.43167 -3.90482 0
M  V30 9094 H 855.113 2.69423 -2.57809 0
M  V30 9095 N 857.298 1.47698 0.54982 0
M  V30 9096 C 858.261 1.60282 1.63837 0
M  V30 9097 C 859.261 0.477394 1.5355 0
M  V30 9098 O 860.451 0.742665 1.57576 0
M  V30 9099 C 857.583 1.55431 3.03404 0
M  V30 9100 H 858.776 2.57325 1.54026 0
M  V30 9101 H 856.329 1.35999 0.770329 0
M  V30 9102 H 857.064 0.597912 3.1874 0
M  V30 9103 H 856.849 2.37116 3.12279 0
M  V30 9104 H 858.339 1.6739 3.82584 0
M  V30 9105 N 858.776 -0.797141 1.35954 0
M  V30 9106 C 860.001 -1.59097 1.33053 0
M  V30 9107 C 860.426 -1.87897 -0.0874592 0
M  V30 9108 O 859.784 -1.47291 -1.05712 0
M  V30 9109 C 859.832 -2.89346 2.152 0
M  V30 9110 O 858.936 -3.826 1.5392 0
M  V30 9111 H 858.277 -0.482895 0.45575 0
M  V30 9112 H 860.807 -0.988633 1.79129 0
M  V30 9113 H 860.817 -3.38686 2.27499 0
M  V30 9114 H 859.492 -2.6771 3.18283 0
M  V30 9115 H 858.069 -3.41174 1.50516 0
M  V30 9116 N 860.254 -1.20106 -1.0204 0
M  V30 9117 C 861.164 -0.962051 -2.13967 0
M  V30 9118 C 862.18 0.0808053 -1.73812 0
M  V30 9119 O 863.356 -0.105774 -2.01122 0
M  V30 9120 C 860.421 -0.513108 -3.42882 0
M  V30 9121 C 859.482 -1.62636 -3.97301 0
M  V30 9122 C 858.715 -1.19875 -5.20063 0
M  V30 9123 O 858.938 -0.0658423 -5.70362 0
M  V30 9124 O 857.872 -2.00467 -5.67536 0
M  V30 9125 H 861.698 -1.8991 -2.36998 0
M  V30 9126 H 859.283 -0.984608 -1.12365 0
M  V30 9127 H 861.165 -0.271797 -4.20523 0
M  V30 9128 H 859.84 0.395402 -3.21276 0
M  V30 9129 H 858.747 -1.92192 -3.20957 0
M  V30 9130 H 860.08 -2.51174 -4.23288 0
M  V30 9131 N 861.732 1.21287 -1.00634 0
M  V30 9132 C 863.143 1.72136 -0.722914 0
M  V30 9133 C 863.494 1.8091 0.759338 0
M  V30 9134 O 862.619 1.46458 1.59308 0
M  V30 9135 C 863.214 3.12633 -1.30561 0
M  V30 9136 C 861.773 3.60833 -1.07127 0
M  V30 9137 C 860.92 2.38326 -1.4176 0
M  V30 9138 H 863.871 1.06445 -1.17708 0
M  V30 9139 H 863.892 3.74174 -0.690937 0
M  V30 9140 H 863.404 3.06215 -2.38441 0
M  V30 9141 H 861.505 3.72599 -0.00968671 0
M  V30 9142 H 861.618 4.46226 -1.74411 0
M  V30 9143 H 859.982 2.40575 -0.836412 0
M  V30 9144 H 860.765 2.34558 -2.50674 0
M  V30 9145 N 863.21 0.781244 1.36873 0
M  V30 9146 C 864.435 0.360398 2.04245 0
M  V30 9147 C 864.86 -1.01242 1.58529 0
M  V30 9148 O 864.218 -1.65063 0.749936 0
M  V30 9149 C 864.266 0.42329 3.58107 0
M  V30 9150 O 863.37 -0.572796 4.08403 0
M  V30 9151 H 862.711 0.154386 0.645803 0
M  V30 9152 H 865.241 1.06008 1.74996 0
M  V30 9153 H 865.251 0.283967 4.07011 0
M  V30 9154 H 863.926 1.42477 3.90734 0
M  V30 9155 H 862.503 -0.395809 3.70793 0
M  V30 9156 N 864.689 -1.48329 0.532571 0
M  V30 9157 C 865.619 -2.32485 -0.217511 0
M  V30 9158 C 866.6 -1.42255 -0.932598 0
M  V30 9159 O 867.785 -1.7114 -0.917873 0
M  V30 9160 C 864.915 -3.23509 -1.26329 0
M  V30 9161 C 863.869 -4.22784 -0.666191 0
M  V30 9162 C 863.195 -5.0296 -1.81482 0
M  V30 9163 C 864.495 -5.21031 0.363813 0
M  V30 9164 H 866.189 -2.95445 0.485014 0
M  V30 9165 H 863.735 -1.42075 0.234694 0
M  V30 9166 H 865.688 -3.81211 -1.79601 0
M  V30 9167 H 864.412 -2.58554 -1.99543 0
M  V30 9168 H 863.071 -3.66272 -0.15498 0
M  V30 9169 H 862.719 -4.34427 -2.5354 0
M  V30 9170 H 862.419 -5.70154 -1.4212 0
M  V30 9171 H 863.943 -5.63514 -2.35126 0
M  V30 9172 H 865.357 -5.73241 -0.0819079 0
M  V30 9173 H 863.754 -5.96292 0.674956 0
M  V30 9174 H 864.824 -4.6801 1.26865 0
M  V30 9175 N 866.167 -0.267825 -1.55308 0
M  V30 9176 C 867.117 0.637168 -2.18916 0
M  V30 9177 C 868.101 1.12381 -1.15149 0
M  V30 9178 O 869.293 1.0701 -1.40989 0
M  V30 9179 C 866.422 1.82423 -2.90821 0
M  V30 9180 C 865.508 1.35512 -4.01867 0
M  V30 9181 N 865.899 0.601644 -5.02209 0
M  V30 9182 C 864.197 1.63868 -4.14805 0
M  V30 9183 C 864.898 0.35596 -5.8061 0
M  V30 9184 N 863.874 0.926271 -5.3565 0
M  V30 9185 H 867.676 0.0535787 -2.93851 0
M  V30 9186 H 865.19 -0.0710577 -1.62244 0
M  V30 9187 H 867.187 2.48379 -3.34834 0
M  V30 9188 H 865.847 2.41185 -2.17394 0
M  V30 9189 H 866.858 0.249693 -5.17298 0
M  V30 9190 H 863.535 2.23618 -3.52564 0
M  V30 9191 H 864.925 -0.246994 -6.71446 0
M  V30 9192 N 867.645 1.57599 0.00500368 0
M  V30 9193 C 869.061 1.55463 0.361015 0
M  V30 9194 C 869.261 0.997051 1.75103 0
M  V30 9195 O 868.317 0.628661 2.44549 0
M  V30 9196 C 869.63 2.99734 0.240828 0
M  V30 9197 C 871.178 3.11399 0.316138 0
M  V30 9198 C 871.653 4.57446 0.22513 0
M  V30 9199 N 873.144 4.62334 0.283186 0
M  V30 9200 C 873.879 5.72914 0.23603 0
M  V30 9201 N 873.375 6.92659 0.139762 0
M  V30 9202 N 875.168 5.61364 0.287529 0
M  V30 9203 H 867.319 1.92185 -0.904359 0
M  V30 9204 H 869.582 0.882529 -0.34619 0
M  V30 9205 H 869.288 3.44348 -0.715343 0
M  V30 9206 H 869.162 3.63009 1.02491 0
M  V30 9207 H 871.549 2.66718 1.26275 0
M  V30 9208 H 871.63 2.50911 -0.497725 0
M  V30 9209 H 871.274 5.02801 -0.717917 0
M  V30 9210 H 871.204 5.15874 1.05742 0
M  V30 9211 H 873.695 3.7619 0.359123 0
M  V30 9212 H 874.008 7.72722 0.10954 0
M  V30 9213 H 872.353 6.9492 0.105462 0
M  V30 9214 H 875.544 4.66707 0.360897 0
M  V30 9215 H 875.717 6.47528 0.247313 0
M  V30 9216 N 869.123 -0.277682 1.55134 0
M  V30 9217 C 870.351 -1.02826 1.7954 0
M  V30 9218 C 870.766 -1.80105 0.566373 0
M  V30 9219 O 870.123 -1.76491 -0.464448 0
M  V30 9220 C 870.174 -1.99053 3.01762 0
M  V30 9221 O 869.895 -1.24906 4.19917 0
M  V30 9222 C 871.396 -2.85961 3.38735 0
M  V30 9223 H 868.616 -0.303958 0.598206 0
M  V30 9224 H 871.16 -0.309884 2.02138 0
M  V30 9225 H 869.315 -2.66359 2.81303 0
M  V30 9226 H 869.729 -1.89725 4.88983 0
M  V30 9227 H 871.203 -3.49286 4.27438 0
M  V30 9228 H 871.68 -3.55486 2.57928 0
M  V30 9229 H 872.286 -2.24152 3.61436 0
M  V30 9230 N 870.601 -1.47988 -0.541979 0
M  V30 9231 C 871.533 -1.5769 -1.66332 0
M  V30 9232 C 872.546 -0.461994 -1.56107 0
M  V30 9233 O 873.735 -0.732306 -1.62787 0
M  V30 9234 C 870.835 -1.47939 -3.04905 0
M  V30 9235 C 870.008 -2.74263 -3.40733 0
M  V30 9236 C 869.067 -2.58133 -4.58534 0
M  V30 9237 O 868.093 -3.31991 -4.62354 0
M  V30 9238 N 869.295 -1.6696 -5.55972 0
M  V30 9239 H 872.06 -2.54389 -1.5845 0
M  V30 9240 H 869.621 -1.4456 -0.728979 0
M  V30 9241 H 871.613 -1.34861 -3.81569 0
M  V30 9242 H 870.183 -0.592626 -3.06931 0
M  V30 9243 H 869.403 -3.01992 -2.53366 0
M  V30 9244 H 870.691 -3.58094 -3.6145 0
M  V30 9245 H 870.089 -1.06134 -5.55655 0
M  V30 9246 H 868.646 -1.59826 -6.31901 0
M  V30 9247 N 872.079 0.78992 -1.36375 0
M  V30 9248 C 873.042 1.88414 -1.30509 0
M  V30 9249 C 874.042 1.59384 -0.2129 0
M  V30 9250 O 875.232 1.67805 -0.467651 0
M  V30 9251 C 872.364 3.25188 -1.02302 0
M  V30 9252 H 873.557 1.95031 -2.27822 0
M  V30 9253 H 871.11 0.987664 -1.2114 0
M  V30 9254 H 871.845 3.24254 -0.0544486 0
M  V30 9255 H 871.63 3.47647 -1.81338 0
M  V30 9256 H 873.12 4.05252 -1.00801 0
M  V30 9257 N 873.557 1.20646 1.01402 0
M  V30 9258 C 874.834 0.927176 1.72229 0
M  V30 9259 C 875.214 -0.563382 2.03443 0
M  V30 9260 O 874.562 -1.52576 1.70096 0
M  V30 9261 C 874.772 1.80285 2.98828 0
M  V30 9262 C 876.12 2.04624 3.72041 0
M  V30 9263 O 877.144 1.77559 3.0879 0
M  V30 9264 O 876.003 2.50347 4.85787 0
M  V30 9265 H 873.097 0.346891 0.75073 0
M  V30 9266 H 875.643 1.31532 1.07227 0
M  V30 9267 H 874.415 2.81204 2.72102 0
M  V30 9268 H 874.038 1.41495 3.71571 0
M  V30 9269 N 875.035 -1.20752 1.01276 0
M  V30 9270 C 875.945 -2.27079 0.589277 0
M  V30 9271 C 876.961 -1.6999 -0.371389 0
M  V30 9272 O 878.137 -2.00044 -0.233294 0
M  V30 9273 C 875.202 -3.4663 -0.0696715 0
M  V30 9274 C 874.263 -4.18962 0.936454 0
M  V30 9275 C 873.496 -5.32806 0.308856 0
M  V30 9276 O 873.719 -5.63376 -0.8924 0
M  V30 9277 O 872.653 -5.93131 1.02367 0
M  V30 9278 H 876.479 -2.6551 1.47438 0
M  V30 9279 H 874.064 -1.27297 0.782045 0
M  V30 9280 H 875.946 -4.19119 -0.437873 0
M  V30 9281 H 874.621 -3.10082 -0.929029 0
M  V30 9282 H 873.528 -3.48661 1.35595 0
M  V30 9283 H 874.861 -4.59441 1.76565 0
M  V30 9284 N 876.513 -0.788492 -1.36457 0
M  V30 9285 C 877.443 -0.200468 -2.32638 0
M  V30 9286 C 878.424 0.664031 -1.56603 0
M  V30 9287 O 879.609 0.598045 -1.84762 0
M  V30 9288 C 876.739 0.666274 -3.40849 0
M  V30 9289 C 875.693 -0.0982574 -4.27887 0
M  V30 9290 C 875.019 0.889018 -5.27258 0
M  V30 9291 C 876.319 -1.28692 -5.06197 0
M  V30 9292 H 878.013 -1.00399 -2.82065 0
M  V30 9293 H 875.559 -0.484237 -1.35614 0
M  V30 9294 H 877.512 1.08757 -4.07124 0
M  V30 9295 H 876.236 1.50249 -2.89987 0
M  V30 9296 H 874.895 -0.500525 -3.63167 0
M  V30 9297 H 874.543 1.72024 -4.7267 0
M  V30 9298 H 874.243 0.381909 -5.86358 0
M  V30 9299 H 875.767 1.30891 -5.96406 0
M  V30 9300 H 877.181 -0.941429 -5.65517 0
M  V30 9301 H 875.578 -1.72726 -5.74705 0
M  V30 9302 H 876.648 -2.08273 -4.37893 0
M  V30 9303 N 877.991 1.48044 -0.54043 0
M  V30 9304 C 879.402 1.86418 -0.102662 0
M  V30 9305 C 879.753 1.4489 1.32293 0
M  V30 9306 O 878.878 0.844319 1.99249 0
M  V30 9307 C 879.473 3.38324 -0.179533 0
M  V30 9308 C 878.032 3.75852 0.203098 0
M  V30 9309 C 877.179 2.72097 -0.534637 0
M  V30 9310 H 880.13 1.398 -0.751103 0
M  V30 9311 H 880.151 3.75641 0.606147 0
M  V30 9312 H 879.663 3.68518 -1.21721 0
M  V30 9313 H 877.764 3.51272 1.24252 0
M  V30 9314 H 877.877 4.78884 -0.143784 0
M  V30 9315 H 876.241 2.54692 0.0203358 0
M  V30 9316 H 877.024 3.05135 -1.57314 0
M  V30 9317 N 879.47 0.276058 1.55163 0
M  V30 9318 C 880.433 -0.597924 2.21263 0
M  V30 9319 C 881.433 -1.0806 1.19078 0
M  V30 9320 O 882.623 -0.980626 1.43977 0
M  V30 9321 C 879.755 -1.82503 2.87933 0
M  V30 9322 H 880.948 -0.0207769 2.99893 0
M  V30 9323 H 878.501 0.0266823 1.56277 0
M  V30 9324 H 879.236 -2.44266 2.13318 0
M  V30 9325 H 879.021 -1.48683 3.62816 0
M  V30 9326 H 880.511 -2.44651 3.38431 0
M  V30 9327 N 880.948 -1.576 0.00335426 0
M  V30 9328 C 882.188 -1.92571 -0.685253 0
M  V30 9329 C 882.552 -0.877961 -1.70751 0
M  V30 9330 O 883.753 -1.11303 -2.44673 0
M  V30 9331 C 882.024 -3.3258 -1.30863 0
M  V30 9332 S 883.583 -3.89442 -2.02189 0
M  V30 9333 H 880.401 -0.674035 -0.226268 0
M  V30 9334 H 883.003 -1.95405 0.0608461 0
M  V30 9335 H 881.707 -4.06673 -0.551837 0
M  V30 9336 H 881.238 -3.33128 -2.09259 0
M  V30 9337 H 883.253 -3.70789 -3.29742 0
M  V30 9338 N 882.426 0.269451 -1.5528 0
M  V30 9339 C 883.356 1.33729 -1.91413 0
M  V30 9340 C 884.337 1.51348 -0.776391 0
M  V30 9341 O 885.522 1.64332 -1.03482 0
M  V30 9342 C 882.652 2.69618 -2.18914 0
M  V30 9343 C 881.606 2.66725 -3.34726 0
M  V30 9344 C 880.932 4.06199 -3.47716 0
M  V30 9345 C 882.232 2.25684 -4.71025 0
M  V30 9346 H 883.926 1.03736 -2.80854 0
M  V30 9347 H 881.472 0.497579 -1.3513 0
M  V30 9348 H 883.425 3.44436 -2.42779 0
M  V30 9349 H 882.149 3.01201 -1.26275 0
M  V30 9350 H 880.808 1.94365 -3.10834 0
M  V30 9351 H 880.456 4.3501 -2.52537 0
M  V30 9352 H 880.156 4.05157 -4.25583 0
M  V30 9353 H 881.68 4.8275 -3.73877 0
M  V30 9354 H 883.094 2.90225 -4.94411 0
M  V30 9355 H 881.491 2.35797 -5.51833 0
M  V30 9356 H 882.561 1.20819 -4.69607 0
M  V30 9357 N 883.904 1.48273 0.534124 0
M  V30 9358 C 884.834 1.6538 1.64839 0
M  V30 9359 C 885.815 0.502741 1.62501 0
M  V30 9360 O 887 0.734799 1.79762 0
M  V30 9361 C 884.13 1.68949 3.03436 0
M  V30 9362 C 883.084 2.83513 3.20631 0
M  V30 9363 C 882.41 2.72169 4.60248 0
M  V30 9364 C 883.71 4.24858 3.03797 0
M  V30 9365 H 885.404 2.58663 1.50777 0
M  V30 9366 H 882.95 1.24479 0.723937 0
M  V30 9367 H 884.903 1.79505 3.81256 0
M  V30 9368 H 883.627 0.722415 3.1851 0
M  V30 9369 H 882.286 2.72505 2.45227 0
M  V30 9370 H 881.934 1.7344 4.72152 0
M  V30 9371 H 881.634 3.49042 4.72698 0
M  V30 9372 H 883.158 2.84687 5.40172 0
M  V30 9373 H 884.572 4.36721 3.71413 0
M  V30 9374 H 882.969 5.02697 3.27743 0
M  V30 9375 H 884.039 4.41611 2.0027 0
M  V30 9376 N 885.382 -0.782676 1.36792 0
M  V30 9377 C 886.607 -1.57676 1.34733 0
M  V30 9378 C 887.032 -1.87979 -0.0675253 0
M  V30 9379 O 886.39 -1.48404 -1.04144 0
M  V30 9380 C 886.438 -2.87047 2.18257 0
M  V30 9381 O 885.542 -3.80946 1.57969 0
M  V30 9382 H 884.883 -0.478034 0.460846 0
M  V30 9383 H 887.413 -0.969578 1.80168 0
M  V30 9384 H 887.423 -3.36254 2.31079 0
M  V30 9385 H 886.098 -2.64319 3.21104 0
M  V30 9386 H 884.675 -3.39558 1.54126 0
M  V30 9387 N 886.86 -1.21182 -1.00761 0
M  V30 9388 C 887.823 -0.970339 -2.07646 0
M  V30 9389 C 888.823 0.0576345 -1.60697 0
M  V30 9390 O 890.013 -0.179369 -1.73274 0
M  V30 9391 C 887.145 -0.462703 -3.37745 0
M  V30 9392 H 888.338 -1.91856 -2.30502 0
M  V30 9393 H 885.891 -1.02844 -1.17698 0
M  V30 9394 H 886.626 0.490559 -3.20568 0
M  V30 9395 H 886.411 -1.20416 -3.73152 0
M  V30 9396 H 887.901 -0.313531 -4.16421 0
M  V30 9397 N 888.338 1.20213 -1.01915 0
M  V30 9398 C 889.301 2.21307 -0.596327 0
M  V30 9399 C 890.301 1.57274 0.334879 0
M  V30 9400 O 891.491 1.73764 0.12322 0
M  V30 9401 C 888.623 3.40657 0.128808 0
M  V30 9402 H 889.816 2.60228 -1.49068 0
M  V30 9403 H 887.369 1.33721 -0.809226 0
M  V30 9404 H 888.104 3.07241 1.03796 0
M  V30 9405 H 887.889 3.88361 -0.540183 0
M  V30 9406 H 889.379 4.15564 0.411892 0
M  V30 9407 N 889.816 0.795718 1.36037 0
M  V30 9408 C 891.232 0.478145 1.52269 0
M  V30 9409 C 891.432 -1.0025 1.74792 0
M  V30 9410 O 890.488 -1.78783 1.78305 0
M  V30 9411 C 891.801 1.31406 2.70468 0
M  V30 9412 C 893.349 1.3084 2.84341 0
M  V30 9413 C 893.824 2.12819 4.05551 0
M  V30 9414 N 895.315 2.10298 4.12709 0
M  V30 9415 C 896.05 2.70495 5.05589 0
M  V30 9416 N 895.546 3.39576 6.03871 0
M  V30 9417 N 897.339 2.60195 4.98252 0
M  V30 9418 H 889.49 1.75477 1.19673 0
M  V30 9419 H 891.753 0.74627 0.584624 0
M  V30 9420 H 891.459 2.36435 2.60368 0
M  V30 9421 H 891.333 0.959726 3.64786 0
M  V30 9422 H 893.72 0.266003 2.93899 0
M  V30 9423 H 893.801 1.70254 1.90912 0
M  V30 9424 H 893.445 3.17093 3.96755 0
M  V30 9425 H 893.375 1.70772 4.98141 0
M  V30 9426 H 895.866 1.60026 3.42345 0
M  V30 9427 H 896.179 3.82823 6.71317 0
M  V30 9428 H 894.524 3.43679 6.04077 0
M  V30 9429 H 897.715 2.05823 4.20422 0
M  V30 9430 H 897.888 3.074 5.70447 0
M  V30 9431 N 891.294 -1.47756 0.548274 0
M  V30 9432 C 892.224 -2.32702 -0.19284 0
M  V30 9433 C 893.205 -1.43237 -0.917457 0
M  V30 9434 O 894.39 -1.72103 -0.89967 0
M  V30 9435 C 891.52 -3.24831 -1.22891 0
M  V30 9436 C 890.474 -4.23466 -0.621312 0
M  V30 9437 C 889.8 -5.04856 -1.76137 0
M  V30 9438 C 891.1 -5.20616 0.419055 0
M  V30 9439 H 892.794 -2.94914 0.516323 0
M  V30 9440 H 890.34 -1.41818 0.24975 0
M  V30 9441 H 892.293 -3.83094 -1.75547 0
M  V30 9442 H 891.017 -2.60656 -1.9679 0
M  V30 9443 H 889.676 -3.66416 -0.116123 0
M  V30 9444 H 889.324 -4.37091 -2.48918 0
M  V30 9445 H 889.024 -5.71629 -1.36065 0
M  V30 9446 H 890.548 -5.65976 -2.29136 0
M  V30 9447 H 891.962 -5.73296 -0.0211034 0
M  V30 9448 H 890.359 -5.95543 0.738163 0
M  V30 9449 H 891.429 -4.66638 1.31822 0
M  V30 9450 N 892.772 -0.284283 -1.55015 0
M  V30 9451 C 894.018 0.330352 -2.00091 0
M  V30 9452 C 894.351 1.54814 -1.17244 0
M  V30 9453 O 893.626 1.92954 -0.244753 0
M  V30 9454 C 893.909 0.703492 -3.53161 0
M  V30 9455 C 893.762 -0.522275 -4.46758 0
M  V30 9456 C 895.081 1.53645 -4.12409 0
M  V30 9457 H 892.2 0.118599 -0.727395 0
M  V30 9458 H 894.842 -0.393054 -1.8589 0
M  V30 9459 H 892.992 1.31983 -3.65394 0
M  V30 9460 H 894.664 -1.16082 -4.46456 0
M  V30 9461 H 892.907 -1.15865 -4.1804 0
M  V30 9462 H 893.578 -0.217295 -5.51572 0
M  V30 9463 H 896.054 1.01583 -4.0351 0
M  V30 9464 H 894.93 1.76633 -5.19704 0
M  V30 9465 H 895.191 2.5204 -3.63219 0
M  V30 9466 N 894.251 1.57596 -0.0117121 0
M  V30 9467 C 895.662 1.79033 0.529521 0
M  V30 9468 C 896.013 0.920299 1.73277 0
M  V30 9469 O 895.138 0.125934 2.16033 0
M  V30 9470 C 895.733 3.24695 0.967405 0
M  V30 9471 C 894.292 3.47188 1.45387 0
M  V30 9472 C 893.439 2.74245 0.410466 0
M  V30 9473 H 896.39 1.56908 -0.237836 0
M  V30 9474 H 896.411 3.33451 1.83278 0
M  V30 9475 H 895.923 3.87992 0.0914605 0
M  V30 9476 H 894.024 2.89121 2.35032 0
M  V30 9477 H 894.137 4.55886 1.47325 0
M  V30 9478 H 892.501 2.39209 0.874721 0
M  V30 9479 H 893.284 3.40248 -0.456713 0
M  V30 9480 O 895.768 -0.130305 1.60973 0
M  V30 9481 H 896.459 -0.762809 1.78048 0
M  V30 END ATOM
M  V30 BEGIN BOND
M  V30 END BOND
M  V30 END CTAB
M  END
$$$$
