drugbank_target|O75715 Epididymal secretory glutathione peroxidase (DB00143; DB03310)
 OpenBabel12092119403D

  0  0  0     0  0            999 V3000
M  V30 BEGIN CTAB
M  V30 COUNTS 3571 3620 0 0 0
M  V30 BEGIN ATOM
M  V30 1 H -0.908 1.98254 -0.117106 0
M  V30 2 N 0 1.576 0 0
M  V30 3 C 0.933 2.03868 1.02534 0
M  V30 4 C 1.911 0.928543 1.3348 0
M  V30 5 O 3.095 1.19667 1.45644 0
M  V30 6 C 0.222 2.43627 2.35294 0
M  V30 7 C -0.732 3.65373 2.2001 0
M  V30 8 S 0.101 5.13292 1.52614 0
M  V30 9 C 1.257 5.56322 2.86805 0
M  V30 10 H 1.49 2.90518 0.631377 0
M  V30 11 H -0.977 1.52953 0.210867 0
M  V30 12 H 0.981 2.67203 3.11629 0
M  V30 13 H -0.358 1.57376 2.7183 0
M  V30 14 H -1.165 3.90944 3.18086 0
M  V30 15 H -1.563 3.418 1.51819 0
M  V30 16 H 0.729 5.58782 3.83104 0
M  V30 17 H 1.672 6.56266 2.65933 0
M  V30 18 H 2.08 4.83886 2.90714 0
M  V30 19 N 1.4781 -0.272755 1.55222 0
M  V30 20 C 2.7061 -1.02255 1.79865 0
M  V30 21 C 3.1211 -1.79924 0.572088 0
M  V30 22 O 2.4781 -1.76638 -0.458842 0
M  V30 23 C 2.5291 -1.98094 3.02392 0
M  V30 24 O 2.2501 -1.23572 4.20311 0
M  V30 25 C 3.7511 -2.84884 3.39641 0
M  V30 26 H 0.9711 -0.302057 0.599168 0
M  V30 27 H 3.5151 -0.303465 2.02236 0
M  V30 28 H 1.6701 -2.65465 2.82147 0
M  V30 29 H 2.0841 -1.88172 4.89583 0
M  V30 30 H 3.5581 -3.47927 4.28545 0
M  V30 31 H 4.0351 -3.54665 2.59055 0
M  V30 32 H 4.6411 -2.23003 3.62146 0
M  V30 33 N 2.9562 -1.48159 -0.537278 0
M  V30 34 C 4.1842 -1.59454 -1.31841 0
M  V30 35 C 4.5992 -0.252065 -1.8711 0
M  V30 36 O 3.9562 0.757621 -1.66031 0
M  V30 37 C 4.0072 -2.63546 -2.47439 0
M  V30 38 O 3.7282 -3.92583 -1.94449 0
M  V30 39 C 5.2292 -2.85212 -3.39366 0
M  V30 40 H 2.4492 -0.53785 -0.401196 0
M  V30 41 H 4.9932 -1.93932 -0.648891 0
M  V30 42 H 3.1482 -2.31946 -3.1029 0
M  V30 43 H 3.5622 -4.49629 -2.70063 0
M  V30 44 H 5.0362 -3.61863 -4.16844 0
M  V30 45 H 5.5132 -1.93765 -3.94147 0
M  V30 46 H 6.1192 -3.18086 -2.82314 0
M  V30 47 N 4.4343 0.785586 -1.36625 0
M  V30 48 C 5.3663 1.90711 -1.2713 0
M  V30 49 C 6.3793 1.61688 -0.189986 0
M  V30 50 O 7.5683 1.72864 -0.445014 0
M  V30 51 C 4.6683 3.25611 -0.939713 0
M  V30 52 C 3.8413 3.82385 -2.12369 0
M  V30 53 C 2.9003 4.95732 -1.76456 0
M  V30 54 O 1.9263 5.12047 -2.48589 0
M  V30 55 N 3.1283 5.76258 -0.700492 0
M  V30 56 H 5.8933 1.99376 -2.23762 0
M  V30 57 H 3.4543 0.964041 -1.30069 0
M  V30 58 H 5.4463 3.98937 -0.680554 0
M  V30 59 H 4.0163 3.12538 -0.0624074 0
M  V30 60 H 3.2363 3.01001 -2.54543 0
M  V30 61 H 4.5243 4.17047 -2.9146 0
M  V30 62 H 3.9223 5.65609 -0.101624 0
M  V30 63 H 2.4793 6.4987 -0.501165 0
M  V30 64 N 5.9124 1.20967 1.01018 0
M  V30 65 C 6.8424 0.988272 2.11555 0
M  V30 66 C 7.8234 -0.0849778 1.69888 0
M  V30 67 O 9.0084 0.0738202 1.9406 0
M  V30 68 C 6.1384 0.546528 3.42973 0
M  V30 69 C 5.0924 1.56375 3.9841 0
M  V30 70 C 4.4184 0.97842 5.25672 0
M  V30 71 C 5.7184 2.94922 4.31066 0
M  V30 72 H 7.4124 1.91276 2.30334 0
M  V30 73 H 4.9584 0.921073 1.1069 0
M  V30 74 H 6.9114 0.378839 4.19694 0
M  V30 75 H 5.6354 -0.413598 3.23971 0
M  V30 76 H 4.2944 1.71891 3.23804 0
M  V30 77 H 3.9424 0.0101688 5.02999 0
M  V30 78 H 3.6424 1.65784 5.63728 0
M  V30 79 H 5.1664 0.821939 6.05043 0
M  V30 80 H 6.5804 2.8288 4.9865 0
M  V30 81 H 4.9774 3.5983 4.80253 0
M  V30 82 H 6.0474 3.4616 3.39561 0
M  V30 83 N 7.3905 -1.2043 1.01659 0
M  V30 84 C 8.8065 -1.41852 0.731442 0
M  V30 85 C 9.0065 -1.89358 -0.688898 0
M  V30 86 O 8.0625 -2.06247 -1.45666 0
M  V30 87 C 9.3755 -2.44019 1.75714 0
M  V30 88 C 10.9235 -2.57785 1.77527 0
M  V30 89 C 11.3985 -3.63194 2.79023 0
M  V30 90 N 12.8895 -3.70678 2.77763 0
M  V30 91 C 13.6245 -4.51897 3.52954 0
M  V30 92 N 13.1205 -5.36921 4.37821 0
M  V30 93 N 14.9135 -4.4643 3.41551 0
M  V30 94 H 7.0645 -0.879093 1.93354 0
M  V30 95 H 9.3275 -0.448425 0.835236 0
M  V30 96 H 9.0335 -2.1611 2.77469 0
M  V30 97 H 8.9075 -3.43007 1.56927 0
M  V30 98 H 11.2945 -2.85023 0.764569 0
M  V30 99 H 11.3755 -1.58992 2.00387 0
M  V30 100 H 11.0195 -3.36699 3.80258 0
M  V30 101 H 10.9495 -4.61609 2.53425 0
M  V30 102 H 13.4405 -3.09944 2.16201 0
M  V30 103 H 13.7535 -5.95981 4.91962 0
M  V30 104 H 12.0985 -5.36424 4.41899 0
M  V30 105 H 15.2895 -3.79042 2.74672 0
M  V30 106 H 15.4625 -5.09491 4.00404 0
M  V30 107 N 8.8686 -0.792821 -1.36206 0
M  V30 108 C 10.1146 -0.36733 -1.99446 0
M  V30 109 C 10.4476 1.05917 -1.62774 0
M  V30 110 O 9.7226 1.7324 -0.88421 0
M  V30 111 C 10.0056 -0.535044 -3.56103 0
M  V30 112 C 9.8586 -2.00548 -4.02617 0
M  V30 113 C 11.1776 0.0478191 -4.40074 0
M  V30 114 H 8.2966 -0.134941 -0.724541 0
M  V30 115 H 10.9386 -0.999794 -1.61568 0
M  V30 116 H 9.0886 0.00336329 -3.885 0
M  V30 117 H 10.7606 -2.60521 -3.80692 0
M  V30 118 H 9.0036 -2.50686 -3.54032 0
M  V30 119 H 9.6746 -2.07377 -5.11565 0
M  V30 120 H 12.1506 -0.411822 -4.14057 0
M  V30 121 H 11.0266 -0.0995336 -5.4881 0
M  V30 122 H 11.2876 1.14025 -4.27142 0
M  V30 123 N 10.3467 1.47872 -0.545128 0
M  V30 124 C 11.5927 2.02793 -0.0166104 0
M  V30 125 C 11.9257 1.41987 1.32489 0
M  V30 126 O 11.2007 0.571045 1.85928 0
M  V30 127 C 11.4837 3.59989 0.0893294 0
M  V30 128 C 11.3367 4.3125 -1.27841 0
M  V30 129 C 12.6557 4.32606 0.808724 0
M  V30 130 H 9.7747 0.736962 -0.00751035 0
M  V30 131 H 12.4167 1.76433 -0.705085 0
M  V30 132 H 10.5667 3.82579 0.675681 0
M  V30 133 H 12.2387 4.20035 -1.90704 0
M  V30 134 H 10.4817 3.92076 -1.85632 0
M  V30 135 H 11.1527 5.39736 -1.15713 0
M  V30 136 H 13.6287 4.14936 0.310992 0
M  V30 137 H 12.5047 5.42251 0.851782 0
M  V30 138 H 12.7657 4.00963 1.86229 0
M  V30 139 N 11.8248 0.280983 1.55075 0
M  V30 140 C 12.7748 -0.618585 2.19448 0
M  V30 141 C 13.7588 -1.11401 1.16098 0
M  V30 142 O 14.9508 -1.0581 1.41891 0
M  V30 143 C 12.0798 -1.79951 2.92357 0
M  V30 144 C 11.1658 -1.321 4.03002 0
M  V30 145 N 11.5568 -0.559044 5.02701 0
M  V30 146 C 9.8548 -1.60346 4.16179 0
M  V30 147 C 10.5558 -0.306722 5.80891 0
M  V30 148 N 9.5318 -0.880825 5.36416 0
M  V30 149 H 13.3338 -0.0286638 2.93886 0
M  V30 150 H 10.8478 0.0848104 1.62178 0
M  V30 151 H 12.8448 -2.45531 3.36927 0
M  V30 152 H 11.5048 -2.39333 2.19431 0
M  V30 153 H 12.5158 -0.205827 5.17491 0
M  V30 154 H 9.1928 -2.20621 3.54447 0
M  V30 155 H 10.5828 0.30391 6.71212 0
M  V30 156 N 13.3029 -1.57598 0.00835791 0
M  V30 157 C 14.2329 -2.1198 -0.979113 0
M  V30 158 C 15.2139 -1.03091 -1.35301 0
M  V30 159 O 16.3989 -1.30818 -1.43528 0
M  V30 160 C 13.5289 -2.62995 -2.26828 0
M  V30 161 C 12.4829 -3.76485 -2.03576 0
M  V30 162 C 11.8089 -4.13846 -3.38579 0
M  V30 163 C 13.1089 -5.0342 -1.39161 0
M  V30 164 H 14.8029 -2.94738 -0.526281 0
M  V30 165 H 12.3489 -1.41783 -0.251704 0
M  V30 166 H 14.3019 -2.99669 -2.96271 0
M  V30 167 H 13.0259 -1.7737 -2.7424 0
M  V30 168 H 11.6849 -3.40217 -1.36557 0
M  V30 169 H 11.3329 -3.25232 -3.83709 0
M  V30 170 H 11.0329 -4.90312 -3.23834 0
M  V30 171 H 12.5569 -4.53086 -4.09323 0
M  V30 172 H 13.9709 -5.37812 -1.98573 0
M  V30 173 H 12.3679 -5.84746 -1.34878 0
M  V30 174 H 13.4379 -4.83548 -0.361868 0
M  V30 175 N 14.781 0.264519 -1.55364 0
M  V30 176 C 15.711 1.33121 -1.91836 0
M  V30 177 C 16.692 1.51101 -0.781192 0
M  V30 178 O 17.877 1.64003 -1.04003 0
M  V30 179 C 15.007 2.68921 -2.19769 0
M  V30 180 C 13.961 2.65661 -3.35571 0
M  V30 181 C 13.287 4.05093 -3.49004 0
M  V30 182 C 14.587 2.24187 -4.71739 0
M  V30 183 H 16.281 1.02844 -2.81182 0
M  V30 184 H 13.827 0.493286 -1.35287 0
M  V30 185 H 15.78 3.43663 -2.43872 0
M  V30 186 H 14.504 3.00799 -1.27231 0
M  V30 187 H 13.163 1.93377 -3.1145 0
M  V30 188 H 12.811 4.34206 -2.53917 0
M  V30 189 H 12.511 4.03804 -4.26868 0
M  V30 190 H 14.035 4.81561 -3.75408 0
M  V30 191 H 15.449 2.88654 -4.9533 0
M  V30 192 H 13.846 2.34044 -5.52579 0
M  V30 193 H 14.916 1.19327 -4.69988 0
M  V30 194 N 16.2591 1.48442 0.529413 0
M  V30 195 C 17.6701 1.5002 1.11134 0
M  V30 196 C 18.0211 0.27031 1.94329 0
M  V30 197 O 17.1461 -0.622507 2.07253 0
M  V30 198 C 17.7411 2.71834 2.02217 0
M  V30 199 C 16.3001 2.76283 2.55627 0
M  V30 200 C 15.4471 2.43542 1.326 0
M  V30 201 H 18.3981 1.5555 0.314641 0
M  V30 202 H 18.4191 2.50384 2.8651 0
M  V30 203 H 17.9311 3.61331 1.41639 0
M  V30 204 H 16.0321 1.90995 3.19924 0
M  V30 205 H 16.1451 3.77725 2.94721 0
M  V30 206 H 14.5091 1.94709 1.64196 0
M  V30 207 H 15.2921 3.3528 0.737734 0
M  V30 208 N 17.7372 -0.778329 1.37039 0
M  V30 209 C 18.6672 -1.90546 1.34962 0
M  V30 210 C 19.6482 -1.68681 0.219274 0
M  V30 211 O 20.8332 -1.89634 0.418624 0
M  V30 212 C 17.9632 -3.27734 1.14925 0
M  V30 213 C 16.9172 -3.64147 2.24902 0
M  V30 214 C 16.2432 -4.99806 1.89996 0
M  V30 215 C 17.5432 -3.71579 3.67051 0
M  V30 216 H 19.2372 -1.92541 2.29277 0
M  V30 217 H 16.7832 -0.924948 1.10366 0
M  V30 218 H 18.7362 -4.06215 1.12104 0
M  V30 219 H 17.4602 -3.26154 0.170631 0
M  V30 220 H 16.1192 -2.8797 2.26868 0
M  V30 221 H 15.7672 -4.94759 0.906796 0
M  V30 222 H 15.4672 -5.25139 2.63634 0
M  V30 223 H 16.9912 -5.80694 1.88749 0
M  V30 224 H 18.4052 -4.40227 3.67251 0
M  V30 225 H 16.8022 -4.08405 4.39688 0
M  V30 226 H 17.8722 -2.72404 4.01154 0
M  V30 227 N 19.2153 -1.21501 -1.00376 0
M  V30 228 C 20.1453 -0.999478 -2.11028 0
M  V30 229 C 21.1263 0.0759671 -1.6993 0
M  V30 230 O 22.3113 -0.0841106 -1.94018 0
M  V30 231 C 19.4413 -0.564709 -3.42678 0
M  V30 232 C 18.3953 -1.58486 -3.97576 0
M  V30 233 C 17.7213 -1.00628 -5.25146 0
M  V30 234 C 19.0213 -2.97204 -4.29496 0
M  V30 235 H 20.7153 -1.92495 -2.29317 0
M  V30 236 H 18.2613 -0.92693 -1.102 0
M  V30 237 H 20.2143 -0.401091 -4.19487 0
M  V30 238 H 18.9383 0.396411 -3.24185 0
M  V30 239 H 17.5973 -1.73606 -3.22888 0
M  V30 240 H 17.2453 -0.0368439 -5.02987 0
M  V30 241 H 16.9453 -1.68771 -5.62841 0
M  V30 242 H 18.4693 -0.854015 -6.04598 0
M  V30 243 H 19.8833 -2.8552 -4.97143 0
M  V30 244 H 18.2803 -3.62372 -4.78338 0
M  V30 245 H 19.3503 -3.47956 -3.3772 0
M  V30 246 N 20.6934 1.19889 -1.02296 0
M  V30 247 C 21.6234 2.25141 -0.619174 0
M  V30 248 C 22.6044 1.66051 0.368915 0
M  V30 249 O 23.7894 1.92546 0.252941 0
M  V30 250 C 20.9194 3.4728 0.0368783 0
M  V30 251 C 19.8734 4.19005 -0.872865 0
M  V30 252 C 19.1994 5.34637 -0.0822402 0
M  V30 253 C 20.4994 4.74452 -2.18387 0
M  V30 254 H 22.1934 2.59171 -1.49903 0
M  V30 255 H 19.7394 1.24579 -0.722222 0
M  V30 256 H 21.6924 4.20098 0.330958 0
M  V30 257 H 20.4164 3.12433 0.95149 0
M  V30 258 H 19.0754 3.48061 -1.15105 0
M  V30 259 H 18.7234 4.96034 0.83422 0
M  V30 260 H 18.4234 5.83557 -0.688149 0
M  V30 261 H 19.9474 6.10255 0.205238 0
M  V30 262 H 21.3614 5.39055 -1.95172 0
M  V30 263 H 19.7584 5.33834 -2.74119 0
M  V30 264 H 20.8284 3.92844 -2.84257 0
M  V30 265 N 22.1715 0.800033 1.35784 0
M  V30 266 C 23.1345 0.211565 2.28221 0
M  V30 267 C 24.1345 -0.59728 1.49296 0
M  V30 268 O 25.3245 -0.416721 1.69142 0
M  V30 269 C 22.4565 -0.705846 3.33513 0
M  V30 270 H 23.6495 1.02677 2.81776 0
M  V30 271 H 21.2025 0.570211 1.45528 0
M  V30 272 H 21.9375 -1.54498 2.85133 0
M  V30 273 H 21.7225 -0.127655 3.91892 0
M  V30 274 H 23.2125 -1.11211 4.02519 0
M  V30 275 N 23.6496 -1.47581 0.552962 0
M  V30 276 C 24.8896 -2.04379 0.0296245 0
M  V30 277 C 25.2536 -1.4185 -1.29393 0
M  V30 278 O 26.4546 -1.89669 -1.90471 0
M  V30 279 C 24.7256 -3.57339 -0.0661371 0
M  V30 280 S 26.2846 -4.35511 -0.536213 0
M  V30 281 H 23.1026 -0.710625 0.0230991 0
M  V30 282 H 25.7046 -1.81005 0.738734 0
M  V30 283 H 24.4086 -4.00374 0.901596 0
M  V30 284 H 23.9396 -3.85202 -0.798931 0
M  V30 285 H 25.9546 -4.6253 -1.79668 0
M  V30 286 N 25.1277 -0.289203 -1.54924 0
M  V30 287 C 26.3747 0.323519 -1.99899 0
M  V30 288 C 26.7027 1.54797 -1.17762 0
M  V30 289 O 25.9577 1.94237 -0.238835 0
M  V30 290 C 26.2567 0.736119 -3.49737 0
M  V30 291 C 25.9227 -0.385276 -4.49251 0
M  V30 292 C 24.5847 -0.693156 -4.76181 0
M  V30 293 C 26.9367 -1.14021 -5.08575 0
M  V30 294 C 24.2647 -1.7593 -5.59701 0
M  V30 295 C 26.6167 -2.19619 -5.93254 0
M  V30 296 C 25.2807 -2.51026 -6.185 0
M  V30 297 H 24.5507 0.118384 -0.731482 0
M  V30 298 H 27.1977 -0.405847 -1.8715 0
M  V30 299 H 25.5027 1.54539 -3.60035 0
M  V30 300 H 27.1997 1.22118 -3.81953 0
M  V30 301 H 23.7897 -0.135202 -4.28387 0
M  V30 302 H 27.9737 -0.915611 -4.87781 0
M  V30 303 H 23.2297 -2.0075 -5.77503 0
M  V30 304 H 27.4037 -2.78581 -6.38252 0
M  V30 305 H 25.0307 -3.33772 -6.83008 0
M  V30 306 N 26.6058 1.57591 -0.0167156 0
M  V30 307 C 27.8518 1.91567 0.665582 0
M  V30 308 C 28.1848 0.892298 1.72487 0
M  V30 309 O 27.4598 -0.0867127 1.94307 0
M  V30 310 C 27.7428 3.36069 1.29342 0
M  V30 311 C 27.5958 4.49135 0.244541 0
M  V30 312 C 28.9148 3.803 2.21495 0
M  V30 313 H 26.0338 0.69666 0.240488 0
M  V30 314 H 28.6758 1.89866 -0.0714356 0
M  V30 315 H 26.8258 3.3765 1.92158 0
M  V30 316 H 28.4978 4.59689 -0.385228 0
M  V30 317 H 26.7408 4.3165 -0.431379 0
M  V30 318 H 27.4118 5.47242 0.723207 0
M  V30 319 H 29.8878 3.80377 1.68678 0
M  V30 320 H 28.7638 4.82127 2.62382 0
M  V30 321 H 29.0248 3.15104 3.101 0
M  V30 322 N 28.0839 -0.256276 1.55502 0
M  V30 323 C 29.0159 -1.33981 1.85962 0
M  V30 324 C 30.0289 -1.44743 0.745212 0
M  V30 325 O 31.2179 -1.4626 1.02324 0
M  V30 326 C 28.3179 -2.7194 2.02242 0
M  V30 327 C 27.4909 -2.83562 3.33033 0
M  V30 328 C 26.5499 -4.02304 3.39172 0
M  V30 329 O 25.5759 -3.92273 4.12444 0
M  V30 330 N 26.7779 -5.15045 2.67784 0
M  V30 331 H 29.5429 -1.08191 2.7949 0
M  V30 332 H 27.1039 -0.446388 1.55624 0
M  V30 333 H 29.0959 -3.49697 2.03701 0
M  V30 334 H 27.6659 -2.90479 1.15502 0
M  V30 335 H 26.8859 -1.92555 3.43971 0
M  V30 336 H 28.1739 -2.88271 4.19258 0
M  V30 337 H 27.5719 -5.26085 2.07968 0
M  V30 338 H 26.1289 -5.90972 2.74947 0
M  V30 339 N 29.562 -1.4872 -0.521534 0
M  V30 340 C 30.79 -1.60843 -1.30142 0
M  V30 341 C 31.205 -0.271897 -1.86832 0
M  V30 342 O 30.562 0.739969 -1.66825 0
M  V30 343 C 30.613 -2.66155 -2.4463 0
M  V30 344 O 30.334 -3.94623 -1.90275 0
M  V30 345 C 31.835 -2.88795 -3.36322 0
M  V30 346 H 29.055 -0.542075 -0.395468 0
M  V30 347 H 31.599 -1.94609 -0.628285 0
M  V30 348 H 29.754 -2.35224 -3.07812 0
M  V30 349 H 30.168 -4.52468 -2.65279 0
M  V30 350 H 31.642 -3.66264 -4.12983 0
M  V30 351 H 32.119 -1.97934 -3.9207 0
M  V30 352 H 32.725 -3.21063 -2.78924 0
M  V30 353 N 31.0401 0.771051 -1.3745 0
M  V30 354 C 32.2651 1.56529 -1.36065 0
M  V30 355 C 32.6901 1.88029 0.0515859 0
M  V30 356 O 32.0481 1.49282 1.02882 0
M  V30 357 C 32.0961 2.85187 -2.20683 0
M  V30 358 O 31.2001 3.79593 -1.61193 0
M  V30 359 H 30.5411 0.47411 -0.464883 0
M  V30 360 H 33.0711 0.954269 -1.80983 0
M  V30 361 H 33.0811 3.34283 -2.33921 0
M  V30 362 H 31.7561 2.61588 -3.23334 0
M  V30 363 H 30.3331 3.38239 -1.56999 0
M  V30 364 N 32.5182 1.22032 0.997298 0
M  V30 365 C 33.9292 1.0397 1.55071 0
M  V30 366 C 34.2802 -0.398192 1.92117 0
M  V30 367 O 33.4052 -1.28254 1.74298 0
M  V30 368 C 34.0002 1.88109 2.81781 0
M  V30 369 C 32.5592 1.74357 3.33581 0
M  V30 370 C 31.7062 1.84846 2.06706 0
M  V30 371 H 34.6572 1.35941 0.818883 0
M  V30 372 H 34.6782 1.39589 3.53971 0
M  V30 373 H 34.1902 2.92754 2.54787 0
M  V30 374 H 32.2912 0.72427 3.65493 0
M  V30 375 H 32.4042 2.56772 4.04481 0
M  V30 376 H 30.7682 1.28238 2.20062 0
M  V30 377 H 31.5512 2.91014 1.82114 0
M  V30 378 N 33.9963 -1.19345 1.0293 0
M  V30 379 C 34.9433 -2.2258 0.610464 0
M  V30 380 C 35.9133 -1.6179 -0.375946 0
M  V30 381 O 37.0983 -1.88844 -0.272511 0
M  V30 382 C 34.2383 -3.45085 -0.0321473 0
M  V30 383 C 33.3513 -4.20258 1.00035 0
M  V30 384 C 32.4863 -5.3019 0.32746 0
M  V30 385 C 31.5253 -5.97121 1.34584 0
M  V30 386 N 30.6623 -6.98615 0.698726 0
M  V30 387 H 35.5023 -2.57764 1.49538 0
M  V30 388 H 33.0393 -1.26644 0.748311 0
M  V30 389 H 34.9973 -4.15061 -0.421966 0
M  V30 390 H 33.6273 -3.10555 -0.88064 0
M  V30 391 H 32.6793 -3.49223 1.50823 0
M  V30 392 H 33.9913 -4.66175 1.77433 0
M  V30 393 H 33.1453 -6.06587 -0.11718 0
M  V30 394 H 31.8843 -4.85345 -0.478713 0
M  V30 395 H 30.8893 -5.19474 1.80074 0
M  V30 396 H 32.1143 -6.4405 2.15352 0
M  V30 397 H 30.0603 -6.55942 -0.0873471 0
M  V30 398 H 29.9773 -7.42724 1.41058 0
M  V30 399 H 31.2453 -7.79004 0.278102 0
M  V30 400 N 35.4744 -0.807222 -1.35358 0
M  V30 401 C 36.4064 -0.175717 -2.28525 0
M  V30 402 C 37.4194 0.625354 -1.5031 0
M  V30 403 O 38.6084 0.457611 -1.72535 0
M  V30 404 C 35.7084 0.773471 -3.29956 0
M  V30 405 C 34.8814 0.0186296 -4.37396 0
M  V30 406 C 33.9404 0.886395 -5.18681 0
M  V30 407 O 32.9664 0.337106 -5.68201 0
M  V30 408 N 34.1684 2.20839 -5.36852 0
M  V30 409 H 36.9334 -0.976091 -2.83359 0
M  V30 410 H 34.4944 -0.662737 -1.47714 0
M  V30 411 H 36.4864 1.35824 -3.81227 0
M  V30 412 H 35.0564 1.47465 -2.75632 0
M  V30 413 H 34.2764 -0.747349 -3.87051 0
M  V30 414 H 35.5644 -0.501577 -5.06322 0
M  V30 415 H 34.9624 2.67858 -4.98265 0
M  V30 416 H 33.5194 2.74237 -5.91301 0
M  V30 417 N 36.9525 1.47285 -0.560781 0
M  V30 418 C 37.8625 2.33846 0.187954 0
M  V30 419 C 38.8785 1.48412 0.908293 0
M  V30 420 O 40.0545 1.81332 0.876388 0
M  V30 421 C 37.1195 3.25178 1.2025 0
M  V30 422 C 36.1805 4.26504 0.489208 0
M  V30 423 C 35.4135 5.13472 1.45542 0
M  V30 424 O 35.6365 5.02959 2.6905 0
M  V30 425 O 34.5705 5.93902 0.977963 0
M  V30 426 H 38.3965 2.99177 -0.522177 0
M  V30 427 H 35.9815 1.45903 -0.321364 0
M  V30 428 H 37.8635 3.81584 1.78805 0
M  V30 429 H 36.5385 2.6247 1.89449 0
M  V30 430 H 35.4455 3.73847 -0.137627 0
M  V30 431 H 36.7785 4.91935 -0.161399 0
M  V30 432 N 38.4306 0.297415 1.54768 0
M  V30 433 C 39.3776 -0.580276 2.23386 0
M  V30 434 C 40.3476 -1.13238 1.21517 0
M  V30 435 O 41.5326 -1.17757 1.50126 0
M  V30 436 C 38.6726 -1.74801 2.97555 0
M  V30 437 C 37.7856 -1.22764 4.1419 0
M  V30 438 C 36.9206 -2.35895 4.75949 0
M  V30 439 C 35.9596 -1.80974 5.84735 0
M  V30 440 N 35.0966 -2.87664 6.40464 0
M  V30 441 H 39.9366 0.0114833 2.97998 0
M  V30 442 H 37.4736 0.0174361 1.4709 0
M  V30 443 H 39.4316 -2.43475 3.38786 0
M  V30 444 H 38.0616 -2.31145 2.25326 0
M  V30 445 H 37.1136 -0.433271 3.77924 0
M  V30 446 H 38.4256 -0.785551 4.92575 0
M  V30 447 H 37.5796 -3.12523 5.20014 0
M  V30 448 H 36.3186 -2.83429 3.96887 0
M  V30 449 H 35.3236 -1.02834 5.40097 0
M  V30 450 H 36.5486 -1.34348 6.65678 0
M  V30 451 H 34.4946 -3.34538 5.64287 0
M  V30 452 H 34.4116 -2.4794 7.14186 0
M  V30 453 H 35.6796 -3.642 6.89187 0
M  V30 454 N 39.9087 -1.5758 0.0250728 0
M  V30 455 C 40.8417 -2.05473 -0.992777 0
M  V30 456 C 41.8197 -0.949661 -1.31986 0
M  V30 457 O 43.0037 -1.21969 -1.43722 0
M  V30 458 C 40.1307 -2.4734 -2.31389 0
M  V30 459 C 39.1767 -3.68827 -2.1417 0
M  V30 460 S 40.0097 -5.15655 -1.44429 0
M  V30 461 C 41.1657 -5.60814 -2.77918 0
M  V30 462 H 41.3987 -2.91486 -0.585078 0
M  V30 463 H 38.9317 -1.53269 -0.186507 0
M  V30 464 H 40.8897 -2.72127 -3.07339 0
M  V30 465 H 39.5507 -1.6168 -2.69292 0
M  V30 466 H 38.7437 -3.95955 -3.11826 0
M  V30 467 H 38.3457 -3.44172 -1.46362 0
M  V30 468 H 40.6377 -5.64806 -3.74166 0
M  V30 469 H 41.5807 -6.60414 -2.55459 0
M  V30 470 H 41.9887 -4.8845 -2.82979 0
M  V30 471 N 41.3868 0.248026 -1.55636 0
M  V30 472 C 42.3338 1.30707 -1.90222 0
M  V30 473 C 43.3038 1.47881 -0.756332 0
M  V30 474 O 44.4888 1.61883 -1.00988 0
M  V30 475 C 41.6288 2.65769 -2.20138 0
M  V30 476 C 40.7418 2.56612 -3.47526 0
M  V30 477 C 39.8768 3.8402 -3.67017 0
M  V30 478 C 38.9158 3.69476 -4.8801 0
M  V30 479 N 38.0528 4.88774 -5.04029 0
M  V30 480 H 42.8928 1.00512 -2.80538 0
M  V30 481 H 40.4298 0.485055 -1.38873 0
M  V30 482 H 42.3878 3.44386 -2.35487 0
M  V30 483 H 41.0178 2.94115 -1.33027 0
M  V30 484 H 40.0698 1.69571 -3.40514 0
M  V30 485 H 41.3818 2.41774 -4.36287 0
M  V30 486 H 40.5358 4.7108 -3.8232 0
M  V30 487 H 39.2748 4.01754 -2.76487 0
M  V30 488 H 38.2798 2.80799 -4.72686 0
M  V30 489 H 39.5048 3.53238 -5.8 0
M  V30 490 H 37.4508 5.0687 -4.16435 0
M  V30 491 H 37.3678 4.76562 -5.86877 0
M  V30 492 H 38.6358 5.77335 -5.23741 0
M  V30 493 N 42.8649 1.48995 0.513639 0
M  V30 494 C 43.7979 1.59319 1.63379 0
M  V30 495 C 44.7759 0.442816 1.56454 0
M  V30 496 O 45.9599 0.656655 1.76693 0
M  V30 497 C 43.0869 1.5364 3.01848 0
M  V30 498 C 42.1329 2.7372 3.27078 0
M  V30 499 S 42.9659 4.35528 3.1157 0
M  V30 500 C 44.1219 4.32473 4.52458 0
M  V30 501 H 44.3549 2.54079 1.54374 0
M  V30 502 H 41.8879 1.3773 0.697849 0
M  V30 503 H 43.8459 1.51049 3.81699 0
M  V30 504 H 42.5069 0.601898 3.08279 0
M  V30 505 H 41.6999 2.6593 4.28132 0
M  V30 506 H 41.3019 2.73657 2.54927 0
M  V30 507 H 43.5939 4.03414 5.44301 0
M  V30 508 H 44.5369 5.33762 4.65299 0
M  V30 509 H 44.9449 3.62718 4.32546 0
M  V30 510 N 44.343 -0.763751 1.37857 0
M  V30 511 C 45.62 -1.51244 1.24035 0
M  V30 512 C 46 -2.10472 -0.162649 0
M  V30 513 O 45.348 -1.96206 -1.17112 0
M  V30 514 C 45.558 -2.58694 2.34261 0
M  V30 515 C 46.906 -3.25878 2.72193 0
M  V30 516 O 47.93 -2.68993 2.33497 0
M  V30 517 O 46.789 -4.2874 3.38887 0
M  V30 518 H 43.883 -0.670243 0.484462 0
M  V30 519 H 46.429 -0.800031 1.49658 0
M  V30 520 H 45.201 -2.13105 3.2818 0
M  V30 521 H 44.824 -3.37527 2.10146 0
M  V30 522 N 45.8211 -1.22559 -0.990812 0
M  V30 523 C 47.0611 -1.06302 -1.74583 0
M  V30 524 C 47.4251 0.394737 -1.87898 0
M  V30 525 O 48.6261 0.678214 -2.60103 0
M  V30 526 C 46.8971 -1.75699 -3.11231 0
M  V30 527 S 48.4561 -1.74882 -4.02445 0
M  V30 528 H 45.2741 -0.380639 -0.600529 0
M  V30 529 H 47.8761 -1.55532 -1.18449 0
M  V30 530 H 46.5801 -2.80923 -2.99183 0
M  V30 531 H 46.1111 -1.26708 -3.72436 0
M  V30 532 H 48.1261 -0.799997 -4.89709 0
M  V30 533 N 47.2992 1.18797 -1.03562 0
M  V30 534 C 48.2492 2.20161 -0.592724 0
M  V30 535 C 49.2332 1.56772 0.362133 0
M  V30 536 O 50.4252 1.76062 0.182009 0
M  V30 537 C 47.5542 3.43266 0.0481024 0
M  V30 538 C 46.6402 4.13786 -0.9296 0
M  V30 539 N 47.0312 4.60388 -2.09467 0
M  V30 540 C 45.3292 4.39572 -0.754499 0
M  V30 541 C 46.0302 5.14619 -2.71187 0
M  V30 542 N 45.0062 5.05826 -1.991 0
M  V30 543 H 48.8082 2.53877 -1.48066 0
M  V30 544 H 46.3222 1.34946 -0.903514 0
M  V30 545 H 48.3192 4.15136 0.383058 0
M  V30 546 H 46.9792 3.11048 0.931636 0
M  V30 547 H 47.9902 4.54999 -2.47379 0
M  V30 548 H 44.6672 4.17425 0.0793713 0
M  V30 549 H 46.0572 5.60917 -3.69895 0
M  V30 550 N 48.7773 0.814389 1.34928 0
M  V30 551 C 49.7243 0.22822 2.29669 0
M  V30 552 C 50.6943 -0.642164 1.53184 0
M  V30 553 O 51.8793 -0.585605 1.81591 0
M  V30 554 C 49.0193 -0.61089 3.3965 0
M  V30 555 C 48.1323 0.280792 4.31086 0
M  V30 556 C 47.2673 -0.567067 5.28165 0
M  V30 557 C 46.3063 0.324531 6.11239 0
M  V30 558 N 45.4433 -0.483756 7.00431 0
M  V30 559 H 50.2833 1.04153 2.79206 0
M  V30 560 H 47.8203 0.525133 1.37407 0
M  V30 561 H 49.7783 -1.11263 4.0209 0
M  V30 562 H 48.4083 -1.38939 2.91369 0
M  V30 563 H 47.4603 0.900688 3.69583 0
M  V30 564 H 48.7723 0.966723 4.89342 0
M  V30 565 H 47.9263 -1.13363 5.96015 0
M  V30 566 H 46.6653 -1.28654 4.70425 0
M  V30 567 H 45.6703 0.903298 5.42329 0
M  V30 568 H 46.8953 1.04198 6.71059 0
M  V30 569 H 44.8413 -1.18706 6.45171 0
M  V30 570 H 44.7583 0.143965 7.55863 0
M  V30 571 H 46.0263 -1.03334 7.7262 0
M  V30 572 N 50.2554 -1.46986 0.568584 0
M  V30 573 C 51.5324 -1.95592 -0.0174074 0
M  V30 574 C 51.9124 -1.51124 -1.47393 0
M  V30 575 O 51.2604 -0.755329 -2.15655 0
M  V30 576 C 51.4704 -3.48719 0.139913 0
M  V30 577 C 52.8184 -4.246 0.000426376 0
M  V30 578 O 53.8424 -3.56135 0.0680316 0
M  V30 579 O 52.7014 -5.46302 -0.146988 0
M  V30 580 H 49.7954 -0.82498 -0.0577599 0
M  V30 581 H 52.3414 -1.57335 0.635909 0
M  V30 582 H 51.1134 -3.73927 1.15301 0
M  V30 583 H 50.7364 -3.93771 -0.550491 0
M  V30 584 N 51.7335 -0.305618 -1.54608 0
M  V30 585 C 52.6435 0.57778 -2.27374 0
M  V30 586 C 53.6595 1.14451 -1.31061 0
M  V30 587 O 54.8355 1.16831 -1.6405 0
M  V30 588 C 51.9005 1.73123 -3.00382 0
M  V30 589 C 50.9615 1.19812 -4.12242 0
M  V30 590 C 50.1945 2.2966 -4.81759 0
M  V30 591 O 50.4175 3.49651 -4.50666 0
M  V30 592 O 49.3515 1.96091 -5.69062 0
M  V30 593 H 53.1775 -0.012624 -3.03697 0
M  V30 594 H 50.7625 -0.0719184 -1.49227 0
M  V30 595 H 52.6445 2.40315 -3.4616 0
M  V30 596 H 51.3195 2.30815 -2.26949 0
M  V30 597 H 50.2265 0.491798 -3.70853 0
M  V30 598 H 51.5595 0.666566 -4.87666 0
M  V30 599 N 53.2116 1.57565 -0.0334293 0
M  V30 600 C 54.1586 2.10478 0.946981 0
M  V30 601 C 55.1286 1.00787 1.32027 0
M  V30 602 O 56.3136 1.28232 1.41284 0
M  V30 603 C 53.4536 2.63994 2.22263 0
M  V30 604 C 52.5666 3.87709 1.90541 0
M  V30 605 C 51.7016 4.29604 3.12433 0
M  V30 606 C 50.7406 5.46065 2.76549 0
M  V30 607 N 49.8776 5.83096 3.9108 0
M  V30 608 H 54.7176 2.93963 0.488846 0
M  V30 609 H 52.2546 1.45296 0.22969 0
M  V30 610 H 54.2126 2.93114 2.96884 0
M  V30 611 H 52.8426 1.83333 2.65685 0
M  V30 612 H 51.8946 3.65291 1.06144 0
M  V30 613 H 53.2066 4.72403 1.60116 0
M  V30 614 H 52.3606 4.60182 3.9537 0
M  V30 615 H 51.0996 3.43685 3.46023 0
M  V30 616 H 50.1046 5.15176 1.92026 0
M  V30 617 H 51.3296 6.33685 2.44171 0
M  V30 618 H 49.2756 5.00132 4.24504 0
M  V30 619 H 49.1926 6.6244 3.64293 0
M  V30 620 H 50.4606 6.18282 4.74708 0
M  V30 621 N 54.6897 -0.239769 1.55765 0
M  V30 622 C 55.9377 -0.964892 1.77579 0
M  V30 623 C 56.2587 -1.85582 0.598699 0
M  V30 624 O 55.5287 -1.92075 -0.385226 0
M  V30 625 H 54.1087 -0.359265 0.654933 0
M  V30 626 H 56.7707 -0.256001 1.93211 0
M  V30 627 H 55.8667 -1.58243 2.69009 0
M  V30 628 N 56.1678 -1.49265 -0.50573 0
M  V30 629 C 57.3958 -1.62215 -1.28429 0
M  V30 630 C 57.8108 -0.291697 -1.86533 0
M  V30 631 O 57.1678 0.722233 -1.67601 0
M  V30 632 C 57.2188 -2.68735 -2.41793 0
M  V30 633 O 56.9398 -3.96619 -1.86078 0
M  V30 634 C 58.4408 -2.92346 -3.3324 0
M  V30 635 H 55.6608 -0.546239 -0.389697 0
M  V30 636 H 58.2048 -1.95265 -0.607609 0
M  V30 637 H 56.3598 -2.38476 -3.053 0
M  V30 638 H 56.7738 -4.55256 -2.60465 0
M  V30 639 H 58.2478 -3.70623 -4.09075 0
M  V30 640 H 58.7248 -2.02081 -3.89948 0
M  V30 641 H 59.3308 -3.24003 -2.75503 0
M  V30 642 N 57.6459 0.756429 -1.3826 0
M  V30 643 C 58.8949 1.51082 -1.3363 0
M  V30 644 C 59.2079 1.95467 0.0720068 0
M  V30 645 O 60.4139 2.7043 0.240834 0
M  V30 646 C 58.8699 2.72893 -2.34644 0
M  V30 647 C 58.4779 2.35544 -3.81081 0
M  V30 648 C 60.2219 3.50791 -2.39052 0
M  V30 649 C 58.1289 3.53948 -4.73787 0
M  V30 650 H 57.0589 0.56727 -0.49671 0
M  V30 651 H 59.7099 0.827147 -1.638 0
M  V30 652 H 58.0919 3.43227 -1.97513 0
M  V30 653 H 59.2659 1.72894 -4.27135 0
M  V30 654 H 57.5809 1.70786 -3.79764 0
M  V30 655 H 60.1779 4.38823 -3.05513 0
M  V30 656 H 60.5209 3.91745 -1.40861 0
M  V30 657 H 61.0539 2.87467 -2.74968 0
M  V30 658 H 57.7929 3.18064 -5.73163 0
M  V30 659 H 57.3129 4.15651 -4.32428 0
M  V30 660 H 58.9919 4.20566 -4.91663 0
M  V30 661 N 59.124 1.23083 0.984299 0
M  V30 662 C 60.354 1.08556 1.75781 0
M  V30 663 C 60.762 -0.366171 1.85623 0
M  V30 664 O 60.105 -1.26524 1.33182 0
M  V30 665 C 60.167 1.63208 3.20318 0
M  V30 666 C 59.831 3.11922 3.33997 0
M  V30 667 C 60.828 4.09259 3.2063 0
M  V30 668 C 58.513 3.51552 3.58771 0
M  V30 669 C 60.507 5.4421 3.31835 0
M  V30 670 C 58.194 4.86649 3.69616 0
M  V30 671 C 59.192 5.82787 3.56157 0
M  V30 672 O 58.88 7.15431 3.66626 0
M  V30 673 H 58.612 0.380713 0.5586 0
M  V30 674 H 61.166 1.63321 1.2456 0
M  V30 675 H 59.396 1.0286 3.72769 0
M  V30 676 H 61.085 1.44216 3.79416 0
M  V30 677 H 61.851 3.79984 3.01392 0
M  V30 678 H 57.73 2.77239 3.6832 0
M  V30 679 H 61.274 6.1923 3.21247 0
M  V30 680 H 57.171 5.15601 3.88363 0
M  V30 681 H 57.939 7.23127 3.83445 0
M  V30 682 N 60.6021 -1.18246 1.0419 0
M  V30 683 C 61.8791 -1.84121 0.660208 0
M  V30 684 C 62.2591 -1.92778 -0.860221 0
M  V30 685 O 61.6071 -1.45464 -1.76217 0
M  V30 686 C 61.8171 -3.22355 1.33747 0
M  V30 687 C 63.1651 -3.98376 1.46906 0
M  V30 688 O 64.1891 -3.31799 1.29568 0
M  V30 689 O 63.0481 -5.17665 1.75171 0
M  V30 690 H 60.1421 -0.794036 0.231161 0
M  V30 691 H 62.6881 -1.25628 1.14087 0
M  V30 692 H 61.4601 -3.10964 2.37522 0
M  V30 693 H 61.0831 -3.88506 0.845515 0
M  V30 694 N 62.0802 -0.821533 -1.34494 0
M  V30 695 C 63.3102 -0.421272 -2.02259 0
M  V30 696 C 63.7182 0.977047 -1.6202 0
M  V30 697 O 63.0612 1.64348 -0.820703 0
M  V30 698 C 63.1232 -0.44231 -3.56769 0
M  V30 699 C 62.7872 -1.79372 -4.20327 0
M  V30 700 C 63.7842 -2.75435 -4.40944 0
M  V30 701 C 61.4692 -2.08182 -4.57127 0
M  V30 702 C 63.4632 -3.98482 -4.97484 0
M  V30 703 C 61.1502 -3.31489 -5.13379 0
M  V30 704 C 62.1482 -4.26457 -5.33501 0
M  V30 705 O 61.8362 -5.47585 -5.88562 0
M  V30 706 H 61.5682 -0.167473 -0.654927 0
M  V30 707 H 64.1222 -1.11073 -1.72777 0
M  V30 708 H 62.3522 0.303836 -3.85505 0
M  V30 709 H 64.0412 -0.0622925 -4.05852 0
M  V30 710 H 64.8072 -2.54473 -4.12878 0
M  V30 711 H 60.6862 -1.35066 -4.4077 0
M  V30 712 H 64.2302 -4.72618 -5.13106 0
M  V30 713 H 60.1272 -3.52316 -5.40873 0
M  V30 714 H 60.8952 -5.49086 -6.06998 0
M  V30 715 N 63.5583 1.46682 -0.576371 0
M  V30 716 C 64.4683 2.34032 0.163141 0
M  V30 717 C 65.4843 1.49367 0.892501 0
M  V30 718 O 66.6603 1.82252 0.857106 0
M  V30 719 C 63.7253 3.26435 1.16795 0
M  V30 720 C 62.7863 4.26998 0.443944 0
M  V30 721 C 62.0193 5.14986 1.40088 0
M  V30 722 O 62.2423 5.05785 2.637 0
M  V30 723 O 61.1763 5.94906 0.914917 0
M  V30 724 H 65.0023 2.98607 -0.55388 0
M  V30 725 H 62.5873 1.45554 -0.336821 0
M  V30 726 H 64.4693 3.83459 1.74748 0
M  V30 727 H 63.1443 2.64465 1.86655 0
M  V30 728 H 62.0513 3.7368 -0.177271 0
M  V30 729 H 63.3843 4.91736 -0.213566 0
M  V30 730 N 65.0364 0.313813 1.54444 0
M  V30 731 C 65.9994 -0.54379 2.22656 0
M  V30 732 C 66.9994 -1.05124 1.21678 0
M  V30 733 O 68.1894 -0.945225 1.46325 0
M  V30 734 C 65.3214 -1.75427 2.92298 0
M  V30 735 H 66.5144 0.0523599 2.99854 0
M  V30 736 H 64.0674 0.0647834 1.56166 0
M  V30 737 H 64.8024 -2.38991 2.19211 0
M  V30 738 H 64.5874 -1.39791 3.66334 0
M  V30 739 H 66.0774 -2.36325 3.44297 0
M  V30 740 N 66.5145 -1.57545 0.0417849 0
M  V30 741 C 67.7635 -1.91494 -0.633492 0
M  V30 742 C 68.0765 -0.921084 -1.72556 0
M  V30 743 O 69.2825 -1.15228 -2.45835 0
M  V30 744 C 67.7385 -3.40072 -1.17808 0
M  V30 745 C 67.3465 -4.47843 -0.118633 0
M  V30 746 C 69.0905 -3.8307 -1.82915 0
M  V30 747 C 66.9975 -5.87529 -0.675578 0
M  V30 748 H 65.9275 -0.714653 -0.24039 0
M  V30 749 H 68.5785 -1.83175 0.109148 0
M  V30 750 H 66.9605 -3.43364 -1.97274 0
M  V30 751 H 68.1345 -4.56128 0.654494 0
M  V30 752 H 66.4495 -4.14128 0.434414 0
M  V30 753 H 69.0465 -4.84794 -2.25563 0
M  V30 754 H 69.3895 -3.1881 -2.67705 0
M  V30 755 H 69.9225 -3.82255 -1.10119 0
M  V30 756 H 66.6615 -6.55362 0.134475 0
M  V30 757 H 66.1815 -5.82824 -1.4169 0
M  V30 758 H 67.8605 -6.36491 -1.1614 0
M  V30 759 N 67.9926 0.231505 -1.5589 0
M  V30 760 C 68.9556 1.27028 -1.90779 0
M  V30 761 C 69.9556 1.40308 -0.785507 0
M  V30 762 O 71.1456 1.38744 -1.05336 0
M  V30 763 C 68.2776 2.64566 -2.14983 0
M  V30 764 H 69.4706 0.973017 -2.83677 0
M  V30 765 H 67.0236 0.471486 -1.49019 0
M  V30 766 H 67.7586 2.99406 -1.24604 0
M  V30 767 H 67.5436 2.56305 -2.96732 0
M  V30 768 H 69.0336 3.39543 -2.43105 0
M  V30 769 N 69.4707 1.49531 0.497807 0
M  V30 770 C 70.4007 1.6935 1.60757 0
M  V30 771 C 71.3817 0.542218 1.61227 0
M  V30 772 O 72.5667 0.778417 1.77917 0
M  V30 773 C 69.6967 1.76298 2.99226 0
M  V30 774 C 68.6507 2.91248 3.13622 0
M  V30 775 C 67.9767 2.83312 4.53474 0
M  V30 776 C 69.2767 4.3214 2.93346 0
M  V30 777 H 70.9707 2.62263 1.44425 0
M  V30 778 H 68.5167 1.26208 0.693367 0
M  V30 779 H 70.4697 1.88749 3.76765 0
M  V30 780 H 69.1937 0.799871 3.16654 0
M  V30 781 H 67.8527 2.78404 2.38509 0
M  V30 782 H 67.5007 1.84902 4.67782 0
M  V30 783 H 67.2007 3.60465 4.64046 0
M  V30 784 H 68.7247 2.97775 5.33069 0
M  V30 785 H 70.1387 4.45649 3.60652 0
M  V30 786 H 68.5357 5.1054 3.15387 0
M  V30 787 H 69.6057 4.46363 1.89441 0
M  V30 788 N 70.9488 -0.749086 1.3866 0
M  V30 789 C 71.8968 -1.88428 1.36373 0
M  V30 790 C 72.8908 -1.67561 0.248929 0
M  V30 791 O 74.0968 -1.75074 0.41821 0
M  V30 792 H 70.4718 -0.620023 0.42553 0
M  V30 793 H 72.4428 -1.87473 2.32156 0
M  V30 794 C 71.1918 -3.25961 1.21014 0
M  V30 795 H 70.5148 -3.42607 2.06059 0
M  V30 796 H 71.9548 -4.05625 1.23469 0
M  V30 797 C 70.4138 -3.36799 -0.0825941 0
M  V30 798 O 70.9438 -3.87517 -1.05797 0
M  V30 799 N 69.1498 -2.90258 -0.140939 0
M  V30 800 H 68.6968 -2.49174 0.653477 0
M  V30 801 H 68.6548 -2.97889 -1.00545 0
M  V30 802 N 72.4269 -1.23603 -0.977757 0
M  V30 803 C 73.3739 -1.01954 -2.07061 0
M  V30 804 C 74.3439 0.0638697 -1.65977 0
M  V30 805 O 75.5289 -0.0887624 -1.90593 0
M  V30 806 C 72.6689 -0.619658 -3.39491 0
M  V30 807 C 71.7819 -1.77547 -3.93829 0
M  V30 808 C 70.9169 -1.32212 -5.14484 0
M  V30 809 C 69.9559 -2.44852 -5.60994 0
M  V30 810 N 69.0929 -2.00456 -6.72876 0
M  V30 811 H 73.9329 -1.95495 -2.24913 0
M  V30 812 H 71.4699 -0.973861 -1.10247 0
M  V30 813 H 73.4279 -0.368898 -4.15566 0
M  V30 814 H 72.0579 0.278752 -3.21594 0
M  V30 815 H 71.1099 -2.14016 -3.14486 0
M  V30 816 H 72.4219 -2.62219 -4.24314 0
M  V30 817 H 71.5759 -1.02965 -5.97899 0
M  V30 818 H 70.3149 -0.445808 -4.85658 0
M  V30 819 H 69.3199 -2.74871 -4.76157 0
M  V30 820 H 70.5449 -3.33024 -5.91837 0
M  V30 821 H 68.4909 -1.15208 -6.45804 0
M  V30 822 H 68.4079 -2.78687 -7.02759 0
M  V30 823 H 69.6759 -1.7432 -7.59758 0
M  V30 824 N 73.905 1.17692 -1.04816 0
M  V30 825 C 74.853 2.23632 -0.63966 0
M  V30 826 C 75.847 1.6601 0.337219 0
M  V30 827 O 77.053 1.78844 0.203693 0
M  V30 828 H 73.428 0.727949 -0.188665 0
M  V30 829 H 75.399 2.55387 -1.54337 0
M  V30 830 C 74.148 3.4769 -0.0264051 0
M  V30 831 H 73.471 3.92331 -0.769164 0
M  V30 832 H 74.911 4.23418 0.222098 0
M  V30 833 C 73.37 3.13807 1.22584 0
M  V30 834 O 73.9 3.28236 2.31569 0
M  V30 835 N 72.106 2.68065 1.12202 0
M  V30 836 H 71.653 2.56525 0.235133 0
M  V30 837 H 71.611 2.45767 1.96076 0
M  V30 838 N 75.3831 0.828654 1.34056 0
M  V30 839 C 76.2931 0.256725 2.33191 0
M  V30 840 C 77.3091 -0.611898 1.62886 0
M  V30 841 O 78.4851 -0.51844 1.94613 0
M  V30 842 C 75.5501 -0.567238 3.42028 0
M  V30 843 C 74.6111 0.324458 4.28072 0
M  V30 844 C 73.8441 -0.460274 5.31712 0
M  V30 845 O 74.0671 -1.693 5.44696 0
M  V30 846 O 73.0011 0.160391 6.01686 0
M  V30 847 H 76.8271 1.07739 2.83947 0
M  V30 848 H 74.4121 0.59093 1.37217 0
M  V30 849 H 76.2941 -1.03582 4.08471 0
M  V30 850 H 74.9691 -1.36513 2.93506 0
M  V30 851 H 73.8761 0.840659 3.64532 0
M  V30 852 H 75.2091 1.08685 4.8005 0
M  V30 853 N 76.8612 -1.46375 0.584142 0
M  V30 854 C 78.0912 -2.06461 0.0758195 0
M  V30 855 C 78.4992 -1.43322 -1.23512 0
M  V30 856 O 77.8422 -0.533216 -1.75791 0
M  V30 857 C 77.9042 -3.59131 -0.162773 0
M  V30 858 C 77.5682 -4.4447 1.06279 0
M  V30 859 C 78.5652 -4.80918 1.97519 0
M  V30 860 C 76.2502 -4.85584 1.28504 0
M  V30 861 C 78.2442 -5.57309 3.09331 0
M  V30 862 C 75.9312 -5.61734 2.4062 0
M  V30 863 C 76.9292 -5.9751 3.30863 0
M  V30 864 O 76.6172 -6.72121 4.41032 0
M  V30 865 H 76.3492 -0.673745 0.0551725 0
M  V30 866 H 78.9032 -1.88969 0.804984 0
M  V30 867 H 77.1332 -3.74936 -0.946565 0
M  V30 868 H 78.8222 -4.0114 -0.619782 0
M  V30 869 H 79.5882 -4.49732 1.81565 0
M  V30 870 H 75.4672 -4.57187 0.591702 0
M  V30 871 H 79.0112 -5.85152 3.79793 0
M  V30 872 H 74.9082 -5.92334 2.56537 0
M  V30 873 H 75.6762 -6.90547 4.39417 0
M  V30 874 N 78.3393 -0.321999 -1.54275 0
M  V30 875 C 79.5853 0.281461 -2.00837 0
M  V30 876 C 79.9183 1.51909 -1.20985 0
M  V30 877 O 79.1933 1.923 -0.291733 0
M  V30 878 C 79.4763 0.617162 -3.54772 0
M  V30 879 C 79.3293 -0.631064 -4.45351 0
M  V30 880 C 80.6483 1.43542 -4.16033 0
M  V30 881 H 77.7673 0.100826 -0.730071 0
M  V30 882 H 80.4093 -0.438268 -1.84876 0
M  V30 883 H 78.5593 1.23034 -3.68504 0
M  V30 884 H 80.2313 -1.26934 -4.43492 0
M  V30 885 H 78.4743 -1.26025 -4.15091 0
M  V30 886 H 79.1453 -0.351735 -5.50878 0
M  V30 887 H 81.6213 0.917134 -4.05867 0
M  V30 888 H 80.4973 1.63907 -5.23856 0
M  V30 889 H 80.7583 2.43108 -3.69257 0
M  V30 890 N 79.8174 1.5752 -0.0501392 0
M  V30 891 C 81.0424 1.97376 0.636997 0
M  V30 892 C 81.4674 0.927466 1.63645 0
M  V30 893 O 80.8254 -0.10941 1.8097 0
M  V30 894 C 80.8734 3.36304 1.30123 0
M  V30 895 O 79.9774 3.34156 2.41689 0
M  V30 896 H 79.3184 0.642998 0.165679 0
M  V30 897 H 81.8484 2.04258 -0.118233 0
M  V30 898 H 81.8584 3.73008 1.65315 0
M  V30 899 H 80.5334 4.11993 0.568746 0
M  V30 900 H 79.1104 3.09196 2.08451 0
M  V30 901 N 81.2955 -0.223234 1.56011 0
M  V30 902 C 82.5425 -0.947875 1.78946 0
M  V30 903 C 82.8705 -1.844 0.618608 0
M  V30 904 O 82.1255 -1.91629 -0.397093 0
M  V30 905 C 82.4245 -1.81948 3.0762 0
M  V30 906 C 82.0905 -1.07672 4.37856 0
M  V30 907 C 80.7525 -0.871544 4.73242 0
M  V30 908 C 83.1045 -0.552081 5.18268 0
M  V30 909 C 80.4325 -0.129791 5.86556 0
M  V30 910 C 82.7845 0.17632 6.32354 0
M  V30 911 C 81.4485 0.39277 6.66343 0
M  V30 912 H 80.7185 -0.346852 0.654809 0
M  V30 913 H 83.3655 -0.216171 1.90276 0
M  V30 914 H 81.6705 -2.61899 2.91404 0
M  V30 915 H 83.3675 -2.38227 3.22566 0
M  V30 916 H 79.9575 -1.24662 4.1007 0
M  V30 917 H 84.1415 -0.698076 4.91366 0
M  V30 918 H 79.3975 0.048153 6.11381 0
M  V30 919 H 83.5715 0.590367 6.93893 0
M  V30 920 H 81.1985 0.969466 7.53993 0
M  V30 921 N 82.7736 -1.49793 -0.48987 0
M  V30 922 C 83.7206 -1.67281 -1.59014 0
M  V30 923 C 84.6906 -0.514177 -1.57941 0
M  V30 924 O 85.8756 -0.742533 -1.75759 0
M  V30 925 C 83.0156 -1.75569 -2.97102 0
M  V30 926 C 82.1286 -3.0281 -3.08107 0
M  V30 927 C 81.2636 -3.02008 -4.36995 0
M  V30 928 C 80.3026 -4.23782 -4.41673 0
M  V30 929 N 79.4396 -4.20826 -5.62005 0
M  V30 930 H 84.2796 -2.61224 -1.43409 0
M  V30 931 H 81.8166 -1.29508 -0.697565 0
M  V30 932 H 83.7746 -1.78354 -3.77155 0
M  V30 933 H 82.4046 -0.850827 -3.11385 0
M  V30 934 H 81.4566 -3.09584 -2.21047 0
M  V30 935 H 82.7686 -3.92801 -3.07423 0
M  V30 936 H 81.9226 -3.03418 -5.25378 0
M  V30 937 H 80.6616 -2.09815 -4.4026 0
M  V30 938 H 79.6666 -4.22604 -3.5169 0
M  V30 939 H 80.8916 -5.17181 -4.40115 0
M  V30 940 H 78.8376 -3.31476 -5.66091 0
M  V30 941 H 78.7546 -5.04564 -5.62984 0
M  V30 942 H 80.0226 -4.26355 -6.52565 0
M  V30 943 N 84.2517 0.741722 -1.39055 0
M  V30 944 C 85.1837 1.8657 -1.33133 0
M  V30 945 C 86.1967 1.61001 -0.241329 0
M  V30 946 O 87.3857 1.7136 -0.499784 0
M  V30 947 C 84.4857 3.22457 -1.04283 0
M  V30 948 C 83.6587 3.75435 -2.24427 0
M  V30 949 C 82.7177 4.89867 -1.92138 0
M  V30 950 O 81.7437 5.03879 -2.64754 0
M  V30 951 N 82.9457 5.73738 -0.88347 0
M  V30 952 H 85.7107 1.92156 -2.29991 0
M  V30 953 H 83.2717 0.922172 -1.3307 0
M  V30 954 H 85.2637 3.9657 -0.807128 0
M  V30 955 H 83.8337 3.12181 -0.161807 0
M  V30 956 H 83.0537 2.92751 -2.6399 0
M  V30 957 H 84.3417 4.07563 -3.04581 0
M  V30 958 H 83.7397 5.64999 -0.281517 0
M  V30 959 H 82.2967 6.47947 -0.707662 0
M  V30 960 N 85.7298 1.2412 0.971189 0
M  V30 961 C 86.9598 1.10415 1.7462 0
M  V30 962 C 87.3678 -0.346462 1.86001 0
M  V30 963 O 86.7108 -1.25104 1.34517 0
M  V30 964 C 86.7728 1.66596 3.18568 0
M  V30 965 C 86.4368 3.15446 3.3067 0
M  V30 966 C 87.4338 4.12636 3.16271 0
M  V30 967 C 85.1188 3.55337 3.55022 0
M  V30 968 C 87.1128 5.47699 3.26044 0
M  V30 969 C 84.7998 4.90542 3.64434 0
M  V30 970 C 85.7978 5.86532 3.49956 0
M  V30 971 O 85.4858 7.19279 3.59017 0
M  V30 972 H 85.2178 0.386616 0.55453 0
M  V30 973 H 87.7718 1.64633 1.22821 0
M  V30 974 H 86.0018 1.06808 3.71657 0
M  V30 975 H 87.6908 1.48232 3.77865 0
M  V30 976 H 88.4568 3.8316 2.97344 0
M  V30 977 H 84.3358 2.8113 3.65359 0
M  V30 978 H 87.8798 6.22603 3.14661 0
M  V30 979 H 83.7768 5.19691 3.82873 0
M  V30 980 H 84.5448 7.27153 3.75754 0
M  V30 981 N 87.2079 -1.17134 1.05439 0
M  V30 982 C 88.4539 -1.87733 0.767077 0
M  V30 983 C 88.7869 -1.8098 -0.704253 0
M  V30 984 O 88.0619 -1.21951 -1.5152 0
M  V30 985 C 88.3449 -3.37659 1.25133 0
M  V30 986 C 88.1979 -3.53149 2.78578 0
M  V30 987 C 89.5169 -4.31768 0.852324 0
M  V30 988 H 86.6359 -0.681687 0.280129 0
M  V30 989 H 89.2779 -1.37732 1.30881 0
M  V30 990 H 87.4279 -3.80373 0.790469 0
M  V30 991 H 89.0999 -3.19434 3.32806 0
M  V30 992 H 87.3429 -2.95345 3.17732 0
M  V30 993 H 88.0139 -4.58403 3.07523 0
M  V30 994 H 90.4899 -3.96909 1.24911 0
M  V30 995 H 89.3659 -5.35199 1.21873 0
M  V30 996 H 89.6269 -4.41429 -0.243485 0
M  V30 997 N 88.686 -0.835752 -1.33615 0
M  V30 998 C 89.934 -0.429109 -1.97492 0
M  V30 999 C 90.255 1.01433 -1.66543 0
M  V30 1000 O 89.525 1.70611 -0.962744 0
M  V30 1001 H 88.105 -0.155686 -0.730596 0
M  V30 1002 H 90.767 -1.06802 -1.63031 0
M  V30 1003 H 89.863 -0.55861 -3.0706 0
M  V30 1004 N 90.1641 1.46063 -0.591896 0
M  V30 1005 C 91.1111 2.30399 0.136069 0
M  V30 1006 C 92.0811 1.41169 0.875238 0
M  V30 1007 O 93.2661 1.70112 0.86409 0
M  V30 1008 C 90.4061 3.25804 1.13781 0
M  V30 1009 C 89.5191 4.30134 0.401137 0
M  V30 1010 C 88.6541 5.12659 1.39121 0
M  V30 1011 C 87.6931 6.0873 0.641462 0
M  V30 1012 N 86.8301 6.8409 1.58004 0
M  V30 1013 H 91.6701 2.92118 -0.589144 0
M  V30 1014 H 89.2071 1.43959 -0.302342 0
M  V30 1015 H 91.1651 3.79569 1.73156 0
M  V30 1016 H 89.7951 2.65872 1.83062 0
M  V30 1017 H 88.8471 3.79152 -0.307826 0
M  V30 1018 H 90.1591 4.98458 -0.184565 0
M  V30 1019 H 89.3131 5.70747 2.05749 0
M  V30 1020 H 88.0521 4.44316 2.01084 0
M  V30 1021 H 87.0571 5.49786 -0.0385419 0
M  V30 1022 H 88.2821 6.79095 0.0270945 0
M  V30 1023 H 86.2281 6.18449 2.18761 0
M  V30 1024 H 86.1451 7.48709 1.04738 0
M  V30 1025 H 87.4131 7.4673 2.23639 0
M  V30 1026 N 91.6422 0.330177 1.54103 0
M  V30 1027 C 92.5922 -0.548456 2.21305 0
M  V30 1028 C 93.5762 -1.07651 1.19583 0
M  V30 1029 O 94.7682 -1.01243 1.45186 0
M  V30 1030 C 91.8972 -1.70559 2.97934 0
M  V30 1031 C 90.9832 -1.19212 4.07 0
M  V30 1032 N 91.3742 -0.398831 5.04225 0
M  V30 1033 C 89.6722 -1.47024 4.2107 0
M  V30 1034 C 90.3732 -0.121761 5.81573 0
M  V30 1035 N 89.3492 -0.709722 5.38947 0
M  V30 1036 H 93.1512 0.0648483 2.93828 0
M  V30 1037 H 90.6652 0.136363 1.61826 0
M  V30 1038 H 92.6622 -2.34688 3.44568 0
M  V30 1039 H 91.3222 -2.32231 2.26934 0
M  V30 1040 H 92.3332 -0.0410869 5.17884 0
M  V30 1041 H 89.0102 -2.09232 3.61287 0
M  V30 1042 H 90.4002 0.517298 6.69906 0
M  V30 1043 N 93.1203 -1.57491 0.0584922 0
M  V30 1044 C 94.3693 -1.92155 -0.613146 0
M  V30 1045 C 94.6823 -0.939334 -1.71569 0
M  V30 1046 O 95.8883 -1.17829 -2.44599 0
M  V30 1047 C 94.3443 -3.41303 -1.14195 0
M  V30 1048 C 93.9523 -4.47944 -0.0711265 0
M  V30 1049 C 95.6963 -3.84988 -1.78841 0
M  V30 1050 C 93.6033 -5.88212 -0.613225 0
M  V30 1051 H 92.5333 -0.717162 -0.232796 0
M  V30 1052 H 95.1843 -1.83049 0.12857 0
M  V30 1053 H 93.5663 -3.45437 -1.93621 0
M  V30 1054 H 94.7403 -4.55408 0.702836 0
M  V30 1055 H 93.0553 -4.13644 0.478313 0
M  V30 1056 H 95.6523 -4.87159 -2.20408 0
M  V30 1057 H 95.9953 -3.21632 -2.64308 0
M  V30 1058 H 96.5283 -3.83401 -1.06059 0
M  V30 1059 H 93.2673 -6.55183 0.203978 0
M  V30 1060 H 92.7873 -5.84294 -1.35501 0
M  V30 1061 H 94.4663 -6.37687 -1.09383 0
M  V30 1062 N 94.5984 0.214957 -1.56127 0
M  V30 1063 C 95.5284 1.2695 -1.95974 0
M  V30 1064 C 96.5094 1.48539 -0.828868 0
M  V30 1065 O 97.6944 1.60611 -1.09168 0
M  V30 1066 C 94.8244 2.61794 -2.28214 0
M  V30 1067 C 93.7784 2.54851 -3.43853 0
M  V30 1068 C 93.1044 3.93785 -3.61715 0
M  V30 1069 C 94.4044 2.09065 -4.78632 0
M  V30 1070 H 96.0984 0.93846 -2.84312 0
M  V30 1071 H 93.6444 0.449996 -1.36788 0
M  V30 1072 H 95.5974 3.35731 -2.54682 0
M  V30 1073 H 94.3214 2.96599 -1.36736 0
M  V30 1074 H 92.9804 1.8337 -3.17444 0
M  V30 1075 H 92.6284 4.25908 -2.67602 0
M  V30 1076 H 92.3284 3.90019 -4.39498 0
M  V30 1077 H 93.8524 4.69374 -3.90539 0
M  V30 1078 H 95.2664 2.7275 -5.04262 0
M  V30 1079 H 93.6634 2.16346 -5.59745 0
M  V30 1080 H 94.7334 1.04315 -4.73547 0
M  V30 1081 N 96.0765 1.50051 0.48192 0
M  V30 1082 C 97.3235 1.60498 1.23477 0
M  V30 1083 C 97.6515 0.300331 1.92167 0
M  V30 1084 O 96.9065 -0.713094 1.82246 0
M  V30 1085 C 97.2055 2.72717 2.30998 0
M  V30 1086 C 96.8715 4.13572 1.79636 0
M  V30 1087 C 95.5335 4.519 1.65348 0
M  V30 1088 C 97.8855 5.01649 1.41412 0
M  V30 1089 C 95.2135 5.76057 1.11244 0
M  V30 1090 C 97.5655 6.26343 0.887538 0
M  V30 1091 C 96.2295 6.63483 0.731207 0
M  V30 1092 H 95.4995 0.587303 0.451836 0
M  V30 1093 H 98.1465 1.83948 0.532468 0
M  V30 1094 H 96.4515 2.43312 3.07094 0
M  V30 1095 H 98.1485 2.78006 2.88988 0
M  V30 1096 H 94.7385 3.83329 1.91721 0
M  V30 1097 H 98.9225 4.72679 1.51289 0
M  V30 1098 H 94.1785 6.03516 0.978686 0
M  V30 1099 H 98.3525 6.93958 0.582654 0
M  V30 1100 H 95.9795 7.59568 0.309806 0
M  V30 1101 N 97.5546 -0.734337 1.39446 0
M  V30 1102 C 98.8006 -1.49613 1.36908 0
M  V30 1103 C 99.1336 -1.94169 -0.0347829 0
M  V30 1104 O 98.4086 -1.66833 -0.999847 0
M  V30 1105 C 98.6916 -2.73534 2.34203 0
M  V30 1106 C 98.5446 -2.34993 3.83534 0
M  V30 1107 C 99.8636 -3.75635 2.29317 0
M  V30 1108 H 96.9826 -0.542714 0.498629 0
M  V30 1109 H 99.6246 -0.839597 1.70443 0
M  V30 1110 H 97.7746 -3.29553 2.05736 0
M  V30 1111 H 99.4466 -1.84601 4.22753 0
M  V30 1112 H 97.6896 -1.67213 4.00278 0
M  V30 1113 H 98.3606 -3.23738 4.47099 0
M  V30 1114 H 100.837 -3.29203 2.54489 0
M  V30 1115 H 99.7126 -4.60008 2.99472 0
M  V30 1116 H 99.9736 -4.22603 1.29842 0
M  V30 1117 N 99.0327 -1.24633 -0.964593 0
M  V30 1118 C 99.9807 -1.03917 -2.08096 0
M  V30 1119 C 100.975 0.0268581 -1.69379 0
M  V30 1120 O 102.181 -0.127952 -1.79545 0
M  V30 1121 H 98.5557 -0.319044 -0.680966 0
M  V30 1122 H 100.527 -1.98581 -2.22729 0
M  V30 1123 C 99.2757 -0.663983 -3.41301 0
M  V30 1124 H 98.5987 -1.47605 -3.71555 0
M  V30 1125 H 100.039 -0.558663 -4.20303 0
M  V30 1126 C 98.4977 0.629169 -3.30973 0
M  V30 1127 O 99.0277 1.67404 -3.65156 0
M  V30 1128 N 97.2337 0.611057 -2.84103 0
M  V30 1129 H 96.7807 -0.239593 -2.56483 0
M  V30 1130 H 96.7387 1.47647 -2.77575 0
M  V30 1131 N 100.511 1.16574 -1.06058 0
M  V30 1132 C 101.757 1.87324 -0.777022 0
M  V30 1133 C 102.09 1.81351 0.694645 0
M  V30 1134 O 101.365 1.22753 1.50871 0
M  V30 1135 C 101.648 3.36991 -1.26922 0
M  V30 1136 C 101.501 3.51667 -2.80447 0
M  V30 1137 C 102.82 4.3131 -0.87521 0
M  V30 1138 H 99.9388 0.680191 -0.28374 0
M  V30 1139 H 102.581 1.37036 -1.3161 0
M  V30 1140 H 100.731 3.79949 -0.81063 0
M  V30 1141 H 102.403 3.17664 -3.34495 0
M  V30 1142 H 100.646 2.93656 -3.19294 0
M  V30 1143 H 101.317 4.56766 -3.0995 0
M  V30 1144 H 103.793 3.9624 -1.27014 0
M  V30 1145 H 102.669 5.34545 -1.2471 0
M  V30 1146 H 102.93 4.41552 0.220071 0
M  V30 1147 N 101.989 0.842826 1.3317 0
M  V30 1148 C 102.952 0.284065 2.27433 0
M  V30 1149 C 103.952 -0.54948 1.5112 0
M  V30 1150 O 105.142 -0.362699 1.70382 0
M  V30 1151 C 102.274 -0.599384 3.35589 0
M  V30 1152 H 103.467 1.11589 2.78366 0
M  V30 1153 H 101.02 0.616221 1.4364 0
M  V30 1154 H 101.755 -1.45349 2.89904 0
M  V30 1155 H 101.54 -0.00291266 3.921 0
M  V30 1156 H 103.03 -0.983488 4.05854 0
M  V30 1157 N 103.467 -1.45747 0.599634 0
M  V30 1158 C 104.695 -2.06668 0.0978551 0
M  V30 1159 C 105.11 -1.44562 -1.21439 0
M  V30 1160 O 104.467 -0.556923 -1.73795 0
M  V30 1161 C 104.518 -3.61456 -0.0567044 0
M  V30 1162 O 104.239 -4.21242 1.20361 0
M  V30 1163 C 105.74 -4.39345 -0.590869 0
M  V30 1164 H 102.96 -0.667825 0.0651943 0
M  V30 1165 H 105.504 -1.87115 0.82511 0
M  V30 1166 H 103.659 -3.80378 -0.734251 0
M  V30 1167 H 104.073 -5.14323 1.02821 0
M  V30 1168 H 105.547 -5.48182 -0.648131 0
M  V30 1169 H 106.024 -4.08568 -1.61147 0
M  V30 1170 H 106.63 -4.25268 0.0523679 0
M  V30 1171 N 104.945 -0.338344 -1.53925 0
M  V30 1172 C 106.175 0.260919 -2.04946 0
M  V30 1173 C 106.583 1.45174 -1.2133 0
M  V30 1174 O 105.926 1.82122 -0.240262 0
M  V30 1175 C 105.988 0.744596 -3.51704 0
M  V30 1176 C 105.652 -0.325883 -4.55837 0
M  V30 1177 C 106.649 -1.16687 -5.06636 0
M  V30 1178 C 104.334 -0.478317 -5.00017 0
M  V30 1179 C 106.328 -2.14588 -6.00192 0
M  V30 1180 C 104.015 -1.46073 -5.93385 0
M  V30 1181 C 105.013 -2.29297 -6.4336 0
M  V30 1182 O 104.701 -3.25867 -7.34892 0
M  V30 1183 H 104.433 0.0551207 -0.673749 0
M  V30 1184 H 106.987 -0.486984 -1.99544 0
M  V30 1185 H 105.217 1.54366 -3.54553 0
M  V30 1186 H 106.906 1.26383 -3.85723 0
M  V30 1187 H 107.672 -1.06016 -4.73271 0
M  V30 1188 H 103.551 0.159613 -4.60724 0
M  V30 1189 H 107.095 -2.79585 -6.39123 0
M  V30 1190 H 102.992 -1.56802 -6.26166 0
M  V30 1191 H 103.76 -3.21278 -7.5281 0
M  V30 1192 N 106.423 1.57458 -0.0668435 0
M  V30 1193 C 107.663 1.95175 0.607116 0
M  V30 1194 C 108.027 0.946039 1.67075 0
M  V30 1195 O 109.228 1.2107 2.39991 0
M  V30 1196 C 107.499 3.37582 1.17358 0
M  V30 1197 S 109.058 3.97271 1.86336 0
M  V30 1198 H 105.876 0.682604 0.19893 0
M  V30 1199 H 108.478 1.95002 -0.139519 0
M  V30 1200 H 107.182 4.08566 0.387553 0
M  V30 1201 H 106.713 3.41288 1.95669 0
M  V30 1202 H 108.728 3.83772 3.14537 0
M  V30 1203 N 107.901 -0.206675 1.56239 0
M  V30 1204 C 109.149 -0.927007 1.79586 0
M  V30 1205 C 109.47 -1.8427 0.637929 0
M  V30 1206 O 108.74 -1.92849 -0.344398 0
M  V30 1207 H 107.32 -0.345292 0.662407 0
M  V30 1208 H 109.982 -0.21496 1.93711 0
M  V30 1209 H 109.078 -1.52501 2.72305 0
M  V30 1210 N 109.379 -1.50304 -0.473955 0
M  V30 1211 C 110.309 -1.71886 -1.58042 0
M  V30 1212 C 111.29 -0.567799 -1.60344 0
M  V30 1213 O 112.475 -0.806623 -1.76656 0
M  V30 1214 C 109.605 -1.81036 -2.96384 0
M  V30 1215 C 108.559 -2.962 -3.08949 0
M  V30 1216 C 107.885 -2.9049 -4.48909 0
M  V30 1217 C 109.185 -4.36752 -2.86434 0
M  V30 1218 H 110.879 -2.64527 -1.40234 0
M  V30 1219 H 108.425 -1.27295 -0.673201 0
M  V30 1220 H 110.378 -1.94719 -3.73714 0
M  V30 1221 H 109.102 -0.850147 -3.15341 0
M  V30 1222 H 107.761 -2.82164 -2.3405 0
M  V30 1223 H 107.409 -1.92321 -4.64781 0
M  V30 1224 H 107.109 -3.67802 -4.58253 0
M  V30 1225 H 108.633 -3.06218 -5.28264 0
M  V30 1226 H 110.047 -4.5133 -3.53517 0
M  V30 1227 H 108.444 -5.15493 -3.07225 0
M  V30 1228 H 109.514 -4.49321 -1.82316 0
M  V30 1229 N 110.857 0.726932 -1.39834 0
M  V30 1230 C 112.085 1.51613 -1.40787 0
M  V30 1231 C 112.5 1.88799 -0.00451505 0
M  V30 1232 O 111.857 1.54662 0.968809 0
M  V30 1233 C 111.908 2.79863 -2.28821 0
M  V30 1234 O 111.629 2.44253 -3.63692 0
M  V30 1235 C 113.13 3.73837 -2.38245 0
M  V30 1236 H 110.35 0.468264 -0.480593 0
M  V30 1237 H 112.894 0.897607 -1.83748 0
M  V30 1238 H 111.049 3.38027 -1.89252 0
M  V30 1239 H 111.463 3.26695 -4.1033 0
M  V30 1240 H 112.937 4.60699 -3.04073 0
M  V30 1241 H 113.414 4.16153 -1.40403 0
M  V30 1242 H 114.02 3.21589 -2.78317 0
M  V30 1243 N 112.336 1.25143 0.95797 0
M  V30 1244 C 113.299 1.05321 2.03569 0
M  V30 1245 C 114.299 0.007152 1.60798 0
M  V30 1246 O 115.489 0.24903 1.72411 0
M  V30 1247 C 112.621 0.598394 3.35607 0
M  V30 1248 H 113.814 2.00986 2.22586 0
M  V30 1249 H 111.367 1.07502 1.13459 0
M  V30 1250 H 112.102 -0.361014 3.22284 0
M  V30 1251 H 111.887 1.35351 3.67998 0
M  V30 1252 H 113.377 0.48104 4.1482 0
M  V30 1253 N 113.814 -1.1601 1.06675 0
M  V30 1254 C 114.746 -2.20115 0.638921 0
M  V30 1255 C 115.759 -1.59916 -0.305057 0
M  V30 1256 O 116.948 -1.78245 -0.0954446 0
M  V30 1257 C 114.048 -3.38798 -0.0830083 0
M  V30 1258 C 113.221 -4.2855 0.875426 0
M  V30 1259 C 112.28 -5.25849 0.192042 0
M  V30 1260 O 111.306 -5.63102 0.830921 0
M  V30 1261 N 112.508 -5.70648 -1.06493 0
M  V30 1262 H 115.273 -2.57439 1.53444 0
M  V30 1263 H 112.834 -1.31057 0.950557 0
M  V30 1264 H 114.826 -4.00936 -0.550685 0
M  V30 1265 H 113.396 -2.99947 -0.880386 0
M  V30 1266 H 112.616 -3.63617 1.52238 0
M  V30 1267 H 113.904 -4.85393 1.52548 0
M  V30 1268 H 113.302 -5.42482 -1.60405 0
M  V30 1269 H 111.859 -6.34859 -1.47641 0
M  V30 1270 N 115.292 -0.849877 -1.32721 0
M  V30 1271 C 116.522 -0.46408 -2.0132 0
M  V30 1272 C 116.93 0.94246 -1.64056 0
M  V30 1273 O 116.273 1.6257 -0.855379 0
M  V30 1274 C 116.335 -0.517887 -3.5575 0
M  V30 1275 C 115.999 -1.88248 -4.16427 0
M  V30 1276 C 116.996 -2.84726 -4.35002 0
M  V30 1277 C 114.681 -2.17832 -4.52609 0
M  V30 1278 C 116.675 -4.08945 -4.8892 0
M  V30 1279 C 114.362 -3.42304 -5.06232 0
M  V30 1280 C 115.36 -4.37677 -5.24335 0
M  V30 1281 O 115.048 -5.59946 -5.76815 0
M  V30 1282 H 114.78 -0.181327 -0.651227 0
M  V30 1283 H 117.334 -1.14713 -1.70382 0
M  V30 1284 H 115.564 0.221997 -3.86062 0
M  V30 1285 H 117.253 -0.148366 -4.05629 0
M  V30 1286 H 118.019 -2.63174 -4.07388 0
M  V30 1287 H 113.898 -1.44385 -4.37806 0
M  V30 1288 H 117.442 -4.83396 -5.02966 0
M  V30 1289 H 113.339 -3.63709 -5.33278 0
M  V30 1290 H 114.107 -5.61838 -5.95214 0
M  V30 1291 N 116.77 1.45427 -0.607355 0
M  V30 1292 C 118.181 1.85756 -0.187535 0
M  V30 1293 C 118.532 1.5077 1.25551 0
M  V30 1294 O 117.657 0.93427 1.95193 0
M  V30 1295 C 118.252 3.37154 -0.333572 0
M  V30 1296 C 116.811 3.76387 0.0315542 0
M  V30 1297 C 115.958 2.69377 -0.658117 0
M  V30 1298 H 118.909 1.36231 -0.81405 0
M  V30 1299 H 118.93 3.78014 0.43428 0
M  V30 1300 H 118.442 3.62586 -1.38393 0
M  V30 1301 H 116.543 3.56571 1.0811 0
M  V30 1302 H 116.656 4.77731 -0.361935 0
M  V30 1303 H 115.02 2.5452 -0.0957873 0
M  V30 1304 H 115.803 2.97646 -1.7106 0
M  V30 1305 N 118.248 0.346503 1.53744 0
M  V30 1306 C 119.158 -0.517293 2.28826 0
M  V30 1307 C 120.174 -1.10935 1.3405 0
M  V30 1308 O 121.35 -1.1244 1.6709 0
M  V30 1309 C 118.415 -1.65098 3.04866 0
M  V30 1310 C 117.476 -1.0884 4.15274 0
M  V30 1311 C 116.709 -2.16806 4.87679 0
M  V30 1312 O 116.932 -3.3758 4.59778 0
M  V30 1313 O 115.866 -1.80934 5.74061 0
M  V30 1314 H 119.692 0.0931396 3.03557 0
M  V30 1315 H 117.277 0.111458 1.48984 0
M  V30 1316 H 119.159 -2.31053 3.5241 0
M  V30 1317 H 117.834 -2.24717 2.32989 0
M  V30 1318 H 116.741 -0.3933 3.72027 0
M  V30 1319 H 118.074 -0.537036 4.89261 0
M  V30 1320 N 119.726 -1.57421 0.075193 0
M  V30 1321 C 120.656 -2.15942 -0.888324 0
M  V30 1322 C 121.637 -1.08737 -1.30806 0
M  V30 1323 O 122.822 -1.36787 -1.37851 0
M  V30 1324 C 119.952 -2.72379 -2.1547 0
M  V30 1325 C 118.906 -3.8478 -1.87425 0
M  V30 1326 C 118.232 -4.27834 -3.20721 0
M  V30 1327 C 119.532 -5.08869 -1.17684 0
M  V30 1328 H 121.226 -2.96705 -0.400799 0
M  V30 1329 H 118.772 -1.42723 -0.191342 0
M  V30 1330 H 120.725 -3.11965 -2.83295 0
M  V30 1331 H 119.449 -1.88841 -2.6647 0
M  V30 1332 H 118.108 -3.45703 -1.22004 0
M  V30 1333 H 117.756 -3.41214 -3.6957 0
M  V30 1334 H 117.456 -5.03605 -3.02746 0
M  V30 1335 H 118.98 -4.70039 -3.89738 0
M  V30 1336 H 120.394 -5.4575 -1.75584 0
M  V30 1337 H 118.791 -5.8994 -1.09956 0
M  V30 1338 H 119.861 -4.84648 -0.156453 0
M  V30 1339 N 121.204 0.198386 -1.56346 0
M  V30 1340 C 122.152 1.26538 -1.95169 0
M  V30 1341 C 123.146 1.47295 -0.836685 0
M  V30 1342 O 124.352 1.48195 -1.02167 0
M  V30 1343 H 120.727 0.424744 -0.620561 0
M  V30 1344 H 122.698 0.910904 -2.84157 0
M  V30 1345 C 121.447 2.6035 -2.30463 0
M  V30 1346 H 120.77 2.45192 -3.15786 0
M  V30 1347 H 122.21 3.33762 -2.61494 0
M  V30 1348 C 120.669 3.17096 -1.13806 0
M  V30 1349 O 121.199 3.99588 -0.41135 0
M  V30 1350 N 119.405 2.75795 -0.915736 0
M  V30 1351 H 118.952 2.08816 -1.50843 0
M  V30 1352 H 118.91 3.14101 -0.136979 0
M  V30 1353 N 122.682 1.50554 0.465978 0
M  V30 1354 C 123.645 1.69233 1.54574 0
M  V30 1355 C 124.645 0.562901 1.50626 0
M  V30 1356 O 125.835 0.830016 1.53155 0
M  V30 1357 C 122.967 1.7223 2.94193 0
M  V30 1358 H 124.16 2.65571 1.39327 0
M  V30 1359 H 121.713 1.40111 0.692711 0
M  V30 1360 H 122.448 0.77603 3.14878 0
M  V30 1361 H 122.233 2.54285 2.98466 0
M  V30 1362 H 123.723 1.88618 3.72576 0
M  V30 1363 N 124.16 -0.719506 1.40217 0
M  V30 1364 C 125.09 -1.8465 1.42922 0
M  V30 1365 C 126.071 -1.67599 0.29062 0
M  V30 1366 O 127.256 -1.87688 0.498677 0
M  V30 1367 C 124.386 -3.22565 1.28722 0
M  V30 1368 C 123.34 -3.54281 2.40144 0
M  V30 1369 C 122.666 -4.91298 2.11023 0
M  V30 1370 C 123.966 -3.55676 3.82481 0
M  V30 1371 H 125.66 -1.82644 2.37237 0
M  V30 1372 H 123.206 -0.877305 1.1419 0
M  V30 1373 H 125.159 -4.01095 1.29232 0
M  V30 1374 H 123.883 -3.25137 0.308811 0
M  V30 1375 H 122.542 -2.78088 2.38877 0
M  V30 1376 H 122.19 -4.90468 1.11582 0
M  V30 1377 H 121.89 -5.13485 2.8567 0
M  V30 1378 H 123.414 -5.72166 2.13209 0
M  V30 1379 H 124.828 -4.24254 3.85592 0
M  V30 1380 H 123.225 -3.89388 4.56614 0
M  V30 1381 H 124.295 -2.55144 4.12346 0
M  V30 1382 N 125.638 -1.25649 -0.95132 0
M  V30 1383 C 126.57 -1.02112 -2.05197 0
M  V30 1384 C 127.583 0.0150571 -1.62793 0
M  V30 1385 O 128.772 -0.223874 -1.77091 0
M  V30 1386 C 125.872 -0.522361 -3.3485 0
M  V30 1387 C 125.045 -1.62546 -4.06076 0
M  V30 1388 C 124.104 -1.12649 -5.14001 0
M  V30 1389 O 123.13 -1.82156 -5.39266 0
M  V30 1390 N 124.332 0.03047 -5.80492 0
M  V30 1391 H 127.097 -1.96885 -2.25957 0
M  V30 1392 H 124.658 -1.16899 -1.1201 0
M  V30 1393 H 126.65 -0.172961 -4.0433 0
M  V30 1394 H 125.22 0.33151 -3.10837 0
M  V30 1395 H 124.44 -2.14628 -3.30649 0
M  V30 1396 H 125.728 -2.36644 -4.50419 0
M  V30 1397 H 125.126 0.611169 -5.62389 0
M  V30 1398 H 123.683 0.320875 -6.5101 0
M  V30 1399 N 127.117 1.15442 -1.07289 0
M  V30 1400 C 128.027 2.23786 -0.704057 0
M  V30 1401 C 129.043 1.7166 0.284413 0
M  V30 1402 O 130.219 2.00972 0.131205 0
M  V30 1403 C 127.284 3.46535 -0.106792 0
M  V30 1404 C 126.345 4.13654 -1.14842 0
M  V30 1405 C 125.578 5.30544 -0.57956 0
M  V30 1406 O 125.801 5.67187 0.604585 0
M  V30 1407 O 124.735 5.87154 -1.32414 0
M  V30 1408 H 128.561 2.57664 -1.60757 0
M  V30 1409 H 126.146 1.23152 -0.845803 0
M  V30 1410 H 128.028 4.20804 0.224048 0
M  V30 1411 H 126.703 3.14407 0.770049 0
M  V30 1412 H 125.61 3.4131 -1.5316 0
M  V30 1413 H 126.943 4.49861 -1.99714 0
M  V30 1414 N 128.595 0.856903 1.32268 0
M  V30 1415 C 129.505 0.306131 2.32594 0
M  V30 1416 C 130.521 -0.577209 1.64147 0
M  V30 1417 O 131.697 -0.477043 1.95669 0
M  V30 1418 C 128.762 -0.494561 3.43154 0
M  V30 1419 C 127.823 0.415186 4.27288 0
M  V30 1420 C 127.056 -0.347387 5.32568 0
M  V30 1421 O 127.279 -1.57708 5.48165 0
M  V30 1422 O 126.213 0.287982 6.01211 0
M  V30 1423 H 130.039 1.13737 2.81598 0
M  V30 1424 H 127.624 0.619902 1.35932 0
M  V30 1425 H 129.506 -0.948944 4.10576 0
M  V30 1426 H 128.181 -1.30257 2.96336 0
M  V30 1427 H 127.088 0.917793 3.62667 0
M  V30 1428 H 128.421 1.18844 4.77637 0
M  V30 1429 N 130.073 -1.45103 0.615059 0
M  V30 1430 C 131.003 -2.33339 -0.0865619 0
M  V30 1431 C 131.984 -1.4727 -0.851209 0
M  V30 1432 O 133.169 -1.76026 -0.820281 0
M  V30 1433 C 130.299 -3.30095 -1.07956 0
M  V30 1434 C 129.253 -4.25858 -0.427628 0
M  V30 1435 C 128.579 -5.12361 -1.5294 0
M  V30 1436 C 129.879 -5.18165 0.655944 0
M  V30 1437 H 131.573 -2.92254 0.650224 0
M  V30 1438 H 129.119 -1.40532 0.314138 0
M  V30 1439 H 131.072 -3.90698 -1.57901 0
M  V30 1440 H 129.796 -2.69355 -1.84703 0
M  V30 1441 H 128.455 -3.66564 0.0510292 0
M  V30 1442 H 128.103 -4.47984 -2.28734 0
M  V30 1443 H 127.803 -5.77238 -1.09865 0
M  V30 1444 H 129.327 -5.75833 -2.03098 0
M  V30 1445 H 130.741 -5.72796 0.240257 0
M  V30 1446 H 129.138 -5.91559 1.00888 0
M  V30 1447 H 130.208 -4.60144 1.52957 0
M  V30 1448 N 131.551 -0.354651 -1.53558 0
M  V30 1449 C 132.498 0.496968 -2.25386 0
M  V30 1450 C 133.468 1.0865 -1.25636 0
M  V30 1451 O 134.653 1.12104 -1.54394 0
M  V30 1452 C 131.793 1.63637 -3.03837 0
M  V30 1453 C 130.906 1.07307 -4.18461 0
M  V30 1454 C 130.041 2.18068 -4.84376 0
M  V30 1455 C 129.08 1.59147 -5.91049 0
M  V30 1456 N 128.217 2.63695 -6.50699 0
M  V30 1457 H 133.057 -0.122075 -2.9775 0
M  V30 1458 H 130.594 -0.0720154 -1.46924 0
M  V30 1459 H 132.552 2.30734 -3.47589 0
M  V30 1460 H 131.182 2.22623 -2.33749 0
M  V30 1461 H 130.234 0.292708 -3.79272 0
M  V30 1462 H 131.546 0.602193 -4.95152 0
M  V30 1463 H 130.7 2.93007 -5.31255 0
M  V30 1464 H 129.439 2.68504 -4.07133 0
M  V30 1465 H 128.444 0.827175 -5.43542 0
M  V30 1466 H 129.669 1.09549 -6.70206 0
M  V30 1467 H 127.615 3.13365 -5.76315 0
M  V30 1468 H 127.532 2.21263 -7.22896 0
M  V30 1469 H 128.8 3.3837 -7.02229 0
M  V30 1470 N 133.029 1.57378 -0.0835403 0
M  V30 1471 C 134.44 1.81261 0.447358 0
M  V30 1472 C 134.791 0.998331 1.68902 0
M  V30 1473 O 133.916 0.224282 2.15235 0
M  V30 1474 C 134.511 3.28767 0.818386 0
M  V30 1475 C 133.07 3.53455 1.29409 0
M  V30 1476 C 132.217 2.75831 0.285024 0
M  V30 1477 H 135.168 1.5566 -0.309115 0
M  V30 1478 H 135.189 3.41459 1.67887 0
M  V30 1479 H 134.701 3.88006 -0.0855019 0
M  V30 1480 H 132.802 2.99534 2.21608 0
M  V30 1481 H 132.915 4.62128 1.2639 0
M  V30 1482 H 131.279 2.42947 0.764767 0
M  V30 1483 H 132.062 3.37813 -0.611341 0
M  V30 1484 N 134.507 -0.190092 1.56449 0
M  V30 1485 C 135.737 -0.92443 1.84764 0
M  V30 1486 C 136.145 -1.77146 0.664529 0
M  V30 1487 O 135.488 -1.79812 -0.375957 0
M  V30 1488 C 135.55 -1.86651 3.07248 0
M  V30 1489 C 135.214 -1.20094 4.40938 0
M  V30 1490 C 136.211 -0.575445 5.16706 0
M  V30 1491 C 133.896 -1.2033 4.87674 0
M  V30 1492 C 135.89 0.0388111 6.37388 0
M  V30 1493 C 133.577 -0.585214 6.08291 0
M  V30 1494 C 134.575 0.0347578 6.82991 0
M  V30 1495 O 134.263 0.643147 8.01323 0
M  V30 1496 H 133.995 -0.274974 0.617548 0
M  V30 1497 H 136.549 -0.200788 2.04416 0
M  V30 1498 H 134.779 -2.62998 2.83494 0
M  V30 1499 H 136.468 -2.46907 3.22167 0
M  V30 1500 H 137.234 -0.565728 4.81689 0
M  V30 1501 H 133.113 -1.67526 4.29484 0
M  V30 1502 H 136.657 0.523329 6.95634 0
M  V30 1503 H 132.554 -0.592451 6.42775 0
M  V30 1504 H 133.322 0.540545 8.16713 0
M  V30 1505 N 135.985 -1.50799 -0.457987 0
M  V30 1506 C 137.233 -1.62121 -1.2067 0
M  V30 1507 C 137.554 -0.329793 -1.92191 0
M  V30 1508 O 136.824 0.653409 -1.84682 0
M  V30 1509 H 135.404 -0.597441 -0.448411 0
M  V30 1510 H 138.066 -1.87637 -0.527096 0
M  V30 1511 H 137.162 -2.43882 -1.94751 0
M  V30 1512 N 137.463 0.71206 -1.40597 0
M  V30 1513 C 138.393 1.83889 -1.43899 0
M  V30 1514 C 139.374 1.67442 -0.299504 0
M  V30 1515 O 140.559 1.87421 -0.508624 0
M  V30 1516 C 137.689 3.21877 -1.30431 0
M  V30 1517 C 136.643 3.53002 -2.42019 0
M  V30 1518 C 135.969 4.90172 -2.13626 0
M  V30 1519 C 137.269 3.53643 -3.84362 0
M  V30 1520 H 138.963 1.81383 -2.38203 0
M  V30 1521 H 136.509 0.871237 -1.14654 0
M  V30 1522 H 138.462 4.00404 -1.31357 0
M  V30 1523 H 137.186 3.24968 -0.326049 0
M  V30 1524 H 135.845 2.76818 -2.40349 0
M  V30 1525 H 135.493 4.89869 -1.14182 0
M  V30 1526 H 135.193 5.11962 -2.88389 0
M  V30 1527 H 136.717 5.71028 -2.1624 0
M  V30 1528 H 138.131 4.22203 -3.87837 0
M  V30 1529 H 136.528 3.86961 -4.58673 0
M  V30 1530 H 137.598 2.52954 -4.13693 0
M  V30 1531 N 138.941 1.26152 0.944643 0
M  V30 1532 C 140.187 1.11657 1.69294 0
M  V30 1533 C 140.52 -0.339926 1.91202 0
M  V30 1534 O 139.795 -1.24994 1.49019 0
M  V30 1535 C 140.078 1.88236 3.06984 0
M  V30 1536 C 139.931 3.41772 2.92424 0
M  V30 1537 C 141.25 1.67343 4.07043 0
M  V30 1538 H 138.369 0.407004 0.614424 0
M  V30 1539 H 141.011 1.55106 1.09737 0
M  V30 1540 H 139.161 1.51308 3.57824 0
M  V30 1541 H 140.833 3.88433 2.48832 0
M  V30 1542 H 139.076 3.68974 2.28124 0
M  V30 1543 H 139.747 3.90579 3.90067 0
M  V30 1544 H 142.223 1.99509 3.65151 0
M  V30 1545 H 141.099 2.23346 5.01406 0
M  V30 1546 H 141.36 0.617158 4.37771 0
M  V30 1547 N 140.419 -1.14872 1.07899 0
M  V30 1548 C 141.665 -1.86064 0.806725 0
M  V30 1549 C 141.998 -1.82434 -0.665706 0
M  V30 1550 O 141.273 -1.25138 -1.48899 0
M  V30 1551 C 141.556 -3.34929 1.32267 0
M  V30 1552 C 141.409 -3.47161 2.86006 0
M  V30 1553 C 142.728 -4.29863 0.943717 0
M  V30 1554 H 139.847 -0.675591 0.294526 0
M  V30 1555 H 142.489 -1.34925 1.33773 0
M  V30 1556 H 140.639 -3.78611 0.870974 0
M  V30 1557 H 142.311 -3.12302 3.39507 0
M  V30 1558 H 140.554 -2.88539 3.23925 0
M  V30 1559 H 141.225 -4.51777 3.17177 0
M  V30 1560 H 143.701 -3.9417 1.33302 0
M  V30 1561 H 142.577 -5.32494 1.33198 0
M  V30 1562 H 142.838 -4.41846 -0.149796 0
M  V30 1563 N 141.898 -0.863906 -1.31812 0
M  V30 1564 C 142.828 -0.330843 -2.31144 0
M  V30 1565 C 143.809 0.575005 -1.60087 0
M  V30 1566 O 144.994 0.493304 -1.8783 0
M  V30 1567 C 142.124 0.47374 -3.44054 0
M  V30 1568 C 141.078 -0.338481 -4.26659 0
M  V30 1569 C 140.404 0.591412 -5.31419 0
M  V30 1570 C 141.704 -1.56926 -4.98168 0
M  V30 1571 H 143.398 -1.16086 -2.75979 0
M  V30 1572 H 140.944 -0.559657 -1.32679 0
M  V30 1573 H 142.897 0.857143 -4.12591 0
M  V30 1574 H 141.621 1.33721 -2.9797 0
M  V30 1575 H 140.28 -0.703754 -3.59782 0
M  V30 1576 H 139.928 1.45199 -4.81587 0
M  V30 1577 H 139.628 0.0519022 -5.87577 0
M  V30 1578 H 141.152 0.97179 -6.02817 0
M  V30 1579 H 142.566 -1.25764 -5.59336 0
M  V30 1580 H 140.963 -2.04739 -5.64094 0
M  V30 1581 H 142.033 -2.32544 -4.25501 0
M  V30 1582 N 143.376 1.44774 -0.622745 0
M  V30 1583 C 144.624 2.01721 -0.123655 0
M  V30 1584 C 144.945 1.49172 1.25589 0
M  V30 1585 O 144.215 0.691974 1.83272 0
M  V30 1586 H 142.795 0.745777 -0.0427225 0
M  V30 1587 H 145.457 1.77382 -0.807559 0
M  V30 1588 H 144.553 3.11984 -0.0849534 0
M  V30 1589 N 144.854 0.36279 1.53368 0
M  V30 1590 C 146.101 -0.227776 2.01215 0
M  V30 1591 C 146.429 -1.49003 1.25014 0
M  V30 1592 O 145.684 -1.92876 0.331236 0
M  V30 1593 C 145.983 -0.568417 3.52851 0
M  V30 1594 C 145.649 0.59918 4.46901 0
M  V30 1595 C 144.311 0.919559 4.72332 0
M  V30 1596 C 146.663 1.38156 5.02556 0
M  V30 1597 C 143.991 2.02434 5.5067 0
M  V30 1598 C 146.343 2.47674 5.821 0
M  V30 1599 C 145.007 2.8025 6.05819 0
M  V30 1600 H 144.277 -0.083349 0.736297 0
M  V30 1601 H 146.924 0.494677 1.85001 0
M  V30 1602 H 145.229 -1.37185 3.66998 0
M  V30 1603 H 146.926 -1.03756 3.87344 0
M  V30 1604 H 143.516 0.339437 4.27254 0
M  V30 1605 H 147.7 1.14729 4.82857 0
M  V30 1606 H 142.956 2.28075 5.67267 0
M  V30 1607 H 147.13 3.08716 6.24234 0
M  V30 1608 H 144.757 3.65979 6.66306 0
M  V30 1609 N 146.332 -1.57332 0.0918853 0
M  V30 1610 C 147.743 -1.81496 -0.437739 0
M  V30 1611 C 148.094 -1.00727 -1.6837 0
M  V30 1612 O 147.219 -0.235694 -2.15113 0
M  V30 1613 C 147.814 -3.29197 -0.800939 0
M  V30 1614 C 146.373 -3.54136 -1.27532 0
M  V30 1615 C 145.52 -2.75979 -0.270392 0
M  V30 1616 H 148.471 -1.55494 0.317366 0
M  V30 1617 H 148.492 -3.42344 -1.66074 0
M  V30 1618 H 148.004 -3.87955 0.106078 0
M  V30 1619 H 146.105 -3.00705 -2.20016 0
M  V30 1620 H 146.218 -4.62792 -1.23938 0
M  V30 1621 H 144.582 -2.43349 -0.751872 0
M  V30 1622 H 145.365 -3.37484 0.629248 0
M  V30 1623 N 147.81 0.181792 -1.56548 0
M  V30 1624 C 149.05 0.906711 -1.83189 0
M  V30 1625 C 149.414 1.79882 -0.671312 0
M  V30 1626 O 150.615 2.56054 -0.81792 0
M  V30 1627 C 148.886 1.69023 -3.14906 0
M  V30 1628 S 150.445 2.46535 -3.62996 0
M  V30 1629 H 147.263 0.303877 -0.642791 0
M  V30 1630 H 149.865 0.169107 -1.94767 0
M  V30 1631 H 148.569 1.02571 -3.97376 0
M  V30 1632 H 148.1 2.46941 -3.06241 0
M  V30 1633 H 150.115 3.71014 -3.29489 0
M  V30 1634 N 149.288 1.51039 0.449983 0
M  V30 1635 C 150.236 1.71995 1.5659 0
M  V30 1636 C 151.23 0.586029 1.5894 0
M  V30 1637 O 152.436 0.76709 1.62837 0
M  V30 1638 H 148.811 0.543233 0.520001 0
M  V30 1639 H 150.782 2.65562 1.36085 0
M  V30 1640 C 149.531 1.8506 2.9436 0
M  V30 1641 H 148.854 2.71712 2.93279 0
M  V30 1642 H 150.294 2.0374 3.71842 0
M  V30 1643 C 148.753 0.607277 3.31382 0
M  V30 1644 O 149.283 -0.243903 4.00959 0
M  V30 1645 N 147.489 0.455073 2.87015 0
M  V30 1646 H 147.036 1.14879 2.30566 0
M  V30 1647 H 146.994 -0.375611 3.12148 0
M  V30 1648 N 150.766 -0.704594 1.40972 0
M  V30 1649 C 151.698 -1.82974 1.38033 0
M  V30 1650 C 152.711 -1.60305 0.283931 0
M  V30 1651 O 153.9 -1.69975 0.545042 0
M  V30 1652 C 151 -3.19578 1.12795 0
M  V30 1653 C 150.173 -3.69352 2.34302 0
M  V30 1654 C 149.232 -4.84601 2.05058 0
M  V30 1655 O 148.258 -4.96682 2.7802 0
M  V30 1656 N 149.46 -5.71194 1.03528 0
M  V30 1657 H 152.225 -1.85991 2.35005 0
M  V30 1658 H 149.786 -0.886567 1.35468 0
M  V30 1659 H 151.778 -3.9429 0.911987 0
M  V30 1660 H 150.348 -3.11642 0.24452 0
M  V30 1661 H 149.568 -2.85649 2.71659 0
M  V30 1662 H 150.856 -3.99345 3.1528 0
M  V30 1663 H 150.254 -5.64054 0.431217 0
M  V30 1664 H 148.811 -6.45843 0.879205 0
M  V30 1665 N 152.244 -1.26651 -0.937939 0
M  V30 1666 C 153.491 -1.12387 -1.6845 0
M  V30 1667 C 153.819 0.332208 -1.91642 0
M  V30 1668 O 153.074 1.2602 -1.49725 0
M  V30 1669 C 153.373 -1.84168 -3.06295 0
M  V30 1670 C 153.039 -3.34056 -3.02849 0
M  V30 1671 C 151.701 -3.74942 -3.01616 0
M  V30 1672 C 154.053 -4.29741 -2.9491 0
M  V30 1673 C 151.381 -5.09894 -2.90215 0
M  V30 1674 C 153.733 -5.64738 -2.8505 0
M  V30 1675 C 152.397 -6.0493 -2.82162 0
M  V30 1676 H 151.667 -0.411252 -0.616403 0
M  V30 1677 H 154.314 -1.57134 -1.09459 0
M  V30 1678 H 152.619 -1.319 -3.6893 0
M  V30 1679 H 154.316 -1.70569 -3.62915 0
M  V30 1680 H 150.906 -3.01534 -3.0459 0
M  V30 1681 H 155.09 -3.99133 -2.94969 0
M  V30 1682 H 150.346 -5.40194 -2.86358 0
M  V30 1683 H 154.52 -6.38561 -2.77872 0
M  V30 1684 H 152.147 -7.09457 -2.73084 0
M  V30 1685 N 153.722 1.14298 -1.08507 0
M  V30 1686 C 154.97 1.84993 -0.813763 0
M  V30 1687 C 155.291 1.83405 0.662393 0
M  V30 1688 O 154.561 1.28319 1.48024 0
M  V30 1689 H 153.141 0.684966 -0.298045 0
M  V30 1690 H 155.803 1.385 -1.37126 0
M  V30 1691 H 154.899 2.89788 -1.15884 0
M  V30 1692 N 155.201 0.870884 1.31352 0
M  V30 1693 C 156.148 0.325425 2.28494 0
M  V30 1694 C 157.118 -0.576615 1.5577 0
M  V30 1695 O 158.303 -0.508059 1.83911 0
M  V30 1696 C 155.443 -0.466283 3.41935 0
M  V30 1697 C 154.556 0.463378 4.29508 0
M  V30 1698 C 153.691 -0.342544 5.30094 0
M  V30 1699 C 152.73 0.583486 6.09313 0
M  V30 1700 N 151.867 -0.186244 7.01853 0
M  V30 1701 H 156.707 1.15901 2.74538 0
M  V30 1702 H 154.244 0.58294 1.35056 0
M  V30 1703 H 156.202 -0.941085 4.06447 0
M  V30 1704 H 154.832 -1.26456 2.97 0
M  V30 1705 H 153.884 1.05663 3.65431 0
M  V30 1706 H 155.196 1.1734 4.84802 0
M  V30 1707 H 154.35 -0.879816 6.00287 0
M  V30 1708 H 153.089 -1.08585 4.75458 0
M  V30 1709 H 152.094 1.13251 5.3801 0
M  V30 1710 H 153.319 1.32566 6.66035 0
M  V30 1711 H 151.265 -0.912348 6.49625 0
M  V30 1712 H 151.182 0.464422 7.54572 0
M  V30 1713 H 152.45 -0.704716 7.76308 0
M  V30 1714 N 156.679 -1.44442 0.630414 0
M  V30 1715 C 157.611 -2.2892 -0.113347 0
M  V30 1716 C 158.624 -1.41243 -0.80959 0
M  V30 1717 O 159.813 -1.65402 -0.671156 0
M  V30 1718 C 156.913 -3.17594 -1.18266 0
M  V30 1719 C 156.086 -4.33682 -0.569073 0
M  V30 1720 C 155.145 -5.03397 -1.53226 0
M  V30 1721 O 154.171 -5.59438 -1.04967 0
M  V30 1722 N 155.373 -5.04783 -2.86661 0
M  V30 1723 H 158.138 -2.93392 0.611636 0
M  V30 1724 H 155.699 -1.54881 0.471523 0
M  V30 1725 H 157.691 -3.61097 -1.82732 0
M  V30 1726 H 156.261 -2.54876 -1.80988 0
M  V30 1727 H 155.481 -3.9338 0.254187 0
M  V30 1728 H 156.769 -5.08608 -0.139767 0
M  V30 1729 H 156.167 -4.60584 -3.28449 0
M  V30 1730 H 154.724 -5.52077 -3.46489 0
M  V30 1731 N 158.157 -0.370918 -1.53173 0
M  V30 1732 C 159.067 0.480823 -2.2962 0
M  V30 1733 C 160.083 1.08789 -1.35798 0
M  V30 1734 O 161.259 1.09768 -1.68858 0
M  V30 1735 C 158.324 1.60227 -3.07454 0
M  V30 1736 C 157.385 1.0222 -4.16953 0
M  V30 1737 C 156.618 2.0902 -4.91066 0
M  V30 1738 O 156.841 3.30222 -4.65091 0
M  V30 1739 O 155.775 1.71778 -5.76867 0
M  V30 1740 H 159.601 -0.141421 -3.03371 0
M  V30 1741 H 157.186 -0.135146 -1.48787 0
M  V30 1742 H 159.068 2.25417 -3.56041 0
M  V30 1743 H 157.743 2.20982 -2.36535 0
M  V30 1744 H 156.65 0.334064 -3.72605 0
M  V30 1745 H 157.983 0.459131 -4.90054 0
M  V30 1746 N 159.635 1.57281 -0.100228 0
M  V30 1747 C 161.046 1.81725 0.428107 0
M  V30 1748 C 161.397 1.01619 1.67833 0
M  V30 1749 O 160.522 0.247098 2.14985 0
M  V30 1750 C 161.117 3.29617 0.78347 0
M  V30 1751 C 159.676 3.54808 1.25653 0
M  V30 1752 C 158.823 2.76118 0.255752 0
M  V30 1753 H 161.774 1.55324 -0.325608 0
M  V30 1754 H 161.795 3.4322 1.64256 0
M  V30 1755 H 161.307 3.87893 -0.12665 0
M  V30 1756 H 159.408 3.01868 2.18418 0
M  V30 1757 H 159.521 4.63443 1.21482 0
M  V30 1758 H 157.885 2.43745 0.738956 0
M  V30 1759 H 158.668 3.37145 -0.647136 0
M  V30 1760 N 161.113 -0.173488 1.56642 0
M  V30 1761 C 162.361 -0.888706 1.81512 0
M  V30 1762 C 162.682 -1.82875 0.676872 0
M  V30 1763 O 161.952 -1.93536 -0.303414 0
M  V30 1764 H 160.532 -0.331164 0.669582 0
M  V30 1765 H 163.194 -0.173823 1.94123 0
M  V30 1766 H 162.29 -1.46691 2.75478 0
M  V30 1767 N 162.591 -1.51276 -0.441967 0
M  V30 1768 C 163.868 -1.54252 -1.20273 0
M  V30 1769 C 164.248 -0.30408 -2.08898 0
M  V30 1770 O 163.596 0.711084 -2.17154 0
M  V30 1771 C 163.806 -2.85406 -2.00859 0
M  V30 1772 C 165.154 -3.37181 -2.58059 0
M  V30 1773 O 166.178 -2.86925 -2.11074 0
M  V30 1774 O 165.037 -4.24858 -3.43741 0
M  V30 1775 H 162.131 -0.619969 -0.547328 0
M  V30 1776 H 164.677 -1.63586 -0.451413 0
M  V30 1777 H 163.449 -3.67003 -1.35736 0
M  V30 1778 H 163.072 -2.79213 -2.83065 0
M  V30 1779 N 164.069 0.697108 -1.41344 0
M  V30 1780 C 165.017 1.83237 -1.43272 0
M  V30 1781 C 166.011 1.66522 -0.310947 0
M  V30 1782 O 167.217 1.73402 -0.482899 0
M  V30 1783 H 163.592 0.603802 -0.448249 0
M  V30 1784 H 165.563 1.78727 -2.38954 0
M  V30 1785 C 164.312 3.21245 -1.33029 0
M  V30 1786 H 163.635 3.34723 -2.18633 0
M  V30 1787 H 165.075 4.00763 -1.38439 0
M  V30 1788 C 163.534 3.36873 -0.0424635 0
M  V30 1789 O 164.064 3.91177 0.913421 0
M  V30 1790 N 162.27 2.90581 0.0331145 0
M  V30 1791 H 161.817 2.46577 -0.745506 0
M  V30 1792 H 161.775 3.01416 0.894199 0
M  V30 1793 N 165.547 1.27147 0.931209 0
M  V30 1794 C 166.494 1.09568 2.03134 0
M  V30 1795 C 167.464 -0.00222433 1.661 0
M  V30 1796 O 168.649 0.159439 1.90133 0
M  V30 1797 C 165.789 0.745231 3.36957 0
M  V30 1798 C 164.902 1.92041 3.86968 0
M  V30 1799 C 164.037 1.51216 5.09222 0
M  V30 1800 C 163.076 2.65504 5.5152 0
M  V30 1801 N 162.213 2.25291 6.64972 0
M  V30 1802 H 167.053 2.03708 2.17502 0
M  V30 1803 H 164.59 1.01411 1.06556 0
M  V30 1804 H 166.548 0.522878 4.1391 0
M  V30 1805 H 165.178 -0.159202 3.22407 0
M  V30 1806 H 164.23 2.25541 3.06326 0
M  V30 1807 H 165.542 2.77787 4.1429 0
M  V30 1808 H 164.696 1.25084 5.93666 0
M  V30 1809 H 163.435 0.625749 4.83669 0
M  V30 1810 H 162.44 2.92354 4.65628 0
M  V30 1811 H 163.665 3.54761 5.7907 0
M  V30 1812 H 161.611 1.39098 6.41083 0
M  V30 1813 H 161.528 3.04577 6.91931 0
M  V30 1814 H 162.796 2.02398 7.52765 0
M  V30 1815 N 167.025 -1.13721 1.09112 0
M  V30 1816 C 167.935 -2.22638 0.73957 0
M  V30 1817 C 168.951 -1.72091 -0.257068 0
M  V30 1818 O 170.127 -2.01155 -0.0992154 0
M  V30 1819 C 167.192 -3.46322 0.16191 0
M  V30 1820 C 166.253 -4.11775 1.21408 0
M  V30 1821 C 165.486 -5.29555 0.663891 0
M  V30 1822 O 165.709 -5.68077 -0.514274 0
M  V30 1823 O 164.643 -5.84973 1.41738 0
M  V30 1824 H 168.469 -2.55074 1.64836 0
M  V30 1825 H 166.054 -1.21791 0.865289 0
M  V30 1826 H 167.936 -4.21107 -0.157073 0
M  V30 1827 H 166.611 -3.15593 -0.719932 0
M  V30 1828 H 165.518 -3.3883 1.58571 0
M  V30 1829 H 166.851 -4.46627 2.06845 0
M  V30 1830 N 168.503 -0.877838 -1.30888 0
M  V30 1831 C 169.752 -0.488793 -1.95688 0
M  V30 1832 C 170.065 0.965485 -1.70111 0
M  V30 1833 O 171.271 1.46104 -2.28836 0
M  V30 1834 C 169.727 -0.823201 -3.50359 0
M  V30 1835 C 169.335 -2.29477 -3.84765 0
M  V30 1836 C 171.079 -0.503009 -4.21509 0
M  V30 1837 C 168.986 -2.57118 -5.32583 0
M  V30 1838 H 167.916 -0.179062 -0.732429 0
M  V30 1839 H 170.567 -1.07183 -1.48943 0
M  V30 1840 H 168.949 -0.169331 -3.95638 0
M  V30 1841 H 170.123 -2.99236 -3.5042 0
M  V30 1842 H 168.438 -2.58178 -3.267 0
M  V30 1843 H 171.035 -0.68665 -5.30273 0
M  V30 1844 H 171.378 0.557109 -4.12555 0
M  V30 1845 H 171.911 -1.11376 -3.8189 0
M  V30 1846 H 168.65 -3.61843 -5.4658 0
M  V30 1847 H 168.17 -1.91961 -5.68253 0
M  V30 1848 H 169.849 -2.42251 -5.99936 0
M  V30 1849 N 169.982 1.44106 -0.638065 0
M  V30 1850 C 170.912 2.33448 0.0494287 0
M  V30 1851 C 171.893 1.48606 0.827672 0
M  V30 1852 O 173.078 1.77308 0.792173 0
M  V30 1853 C 170.208 3.31771 1.02691 0
M  V30 1854 C 169.162 4.26485 0.359823 0
M  V30 1855 C 168.488 5.14729 1.44769 0
M  V30 1856 C 169.788 5.17056 -0.738296 0
M  V30 1857 H 171.482 2.91183 -0.696636 0
M  V30 1858 H 169.028 1.40014 -0.336456 0
M  V30 1859 H 170.981 3.93161 1.51666 0
M  V30 1860 H 169.705 2.7226 1.80395 0
M  V30 1861 H 168.364 3.66437 -0.10934 0
M  V30 1862 H 168.012 4.51566 2.21578 0
M  V30 1863 H 167.712 5.78913 1.00668 0
M  V30 1864 H 169.236 5.78991 1.93911 0
M  V30 1865 H 170.65 5.72342 -0.331354 0
M  V30 1866 H 169.047 5.89879 -1.10286 0
M  V30 1867 H 170.117 4.57652 -1.60258 0
M  V30 1868 N 171.46 0.379036 1.52974 0
M  V30 1869 C 172.871 -0.0972525 1.86447 0
M  V30 1870 C 173.222 -1.47027 1.29914 0
M  V30 1871 O 172.347 -2.07135 0.626433 0
M  V30 1872 C 172.942 -0.183248 3.38304 0
M  V30 1873 C 171.501 -0.603812 3.71525 0
M  V30 1874 C 170.648 0.240632 2.76254 0
M  V30 1875 H 173.599 0.597316 1.4703 0
M  V30 1876 H 173.62 -1.00432 3.67006 0
M  V30 1877 H 173.132 0.816191 3.79421 0
M  V30 1878 H 171.233 -1.61099 3.35973 0
M  V30 1879 H 171.346 -0.369086 4.77676 0
M  V30 1880 H 169.71 -0.292548 2.53014 0
M  V30 1881 H 170.493 1.23786 3.20206 0
M  V30 1882 N 172.938 -1.57226 0.108567 0
M  V30 1883 C 174.186 -1.94448 -0.550853 0
M  V30 1884 C 174.507 -0.992074 -1.67878 0
M  V30 1885 O 173.777 -0.0465 -1.95845 0
M  V30 1886 H 172.357 -0.717897 -0.206479 0
M  V30 1887 H 175.019 -1.94112 0.175062 0
M  V30 1888 H 174.115 -2.97218 -0.952259 0
M  V30 1889 N 174.416 0.165178 -1.56732 0
M  V30 1890 C 175.346 1.20651 -1.99914 0
M  V30 1891 C 176.327 1.45827 -0.875705 0
M  V30 1892 O 177.512 1.57057 -1.14223 0
M  V30 1893 C 174.642 2.54401 -2.36427 0
M  V30 1894 C 173.596 2.43782 -3.51787 0
M  V30 1895 C 172.922 3.82078 -3.7406 0
M  V30 1896 C 174.222 1.93732 -4.85041 0
M  V30 1897 H 175.916 0.847534 -2.87154 0
M  V30 1898 H 173.462 0.40625 -1.38151 0
M  V30 1899 H 175.415 3.27458 -2.65234 0
M  V30 1900 H 174.139 2.92098 -1.46103 0
M  V30 1901 H 172.798 1.73178 -3.23117 0
M  V30 1902 H 172.446 4.17179 -2.81017 0
M  V30 1903 H 172.146 3.7584 -4.51684 0
M  V30 1904 H 173.67 4.56712 -4.05274 0
M  V30 1905 H 175.084 2.56569 -5.12684 0
M  V30 1906 H 173.481 1.98428 -5.66345 0
M  V30 1907 H 174.551 0.891962 -4.76626 0
M  V30 1908 N 175.894 1.51508 0.433938 0
M  V30 1909 C 176.841 1.73068 1.52696 0
M  V30 1910 C 177.811 0.572441 1.55924 0
M  V30 1911 O 178.996 0.807253 1.72882 0
M  V30 1912 C 176.136 1.86474 2.90381 0
M  V30 1913 C 175.249 3.14037 2.96656 0
M  V30 1914 C 174.384 3.18019 4.25485 0
M  V30 1915 C 173.423 4.39882 4.2564 0
M  V30 1916 N 172.56 4.41394 5.45999 0
M  V30 1917 H 177.4 2.66366 1.33615 0
M  V30 1918 H 174.937 1.32008 0.649018 0
M  V30 1919 H 176.895 1.92229 3.70275 0
M  V30 1920 H 175.525 0.965809 3.08013 0
M  V30 1921 H 174.577 3.17575 2.09404 0
M  V30 1922 H 175.889 4.0394 2.92633 0
M  V30 1923 H 175.043 3.22708 5.13755 0
M  V30 1924 H 173.782 2.2601 4.3217 0
M  V30 1925 H 172.787 4.35366 3.35763 0
M  V30 1926 H 174.012 5.33159 4.20617 0
M  V30 1927 H 171.958 3.52258 5.53399 0
M  V30 1928 H 171.875 5.25111 5.4387 0
M  V30 1929 H 173.143 4.50281 6.36292 0
M  V30 1930 N 177.372 -0.689602 1.41712 0
M  V30 1931 C 178.602 -1.47613 1.44548 0
M  V30 1932 C 179.01 -1.89132 0.0509034 0
M  V30 1933 O 178.353 -1.57741 -0.94146 0
M  V30 1934 C 178.415 -2.76596 2.2964 0
M  V30 1935 C 178.079 -2.57245 3.77722 0
M  V30 1936 C 179.076 -2.22804 4.69739 0
M  V30 1937 C 176.761 -2.727 4.2183 0
M  V30 1938 C 178.755 -2.04064 6.03851 0
M  V30 1939 C 176.442 -2.53576 5.56006 0
M  V30 1940 C 177.44 -2.1931 6.46832 0
M  V30 1941 O 177.128 -2.00359 7.78532 0
M  V30 1942 H 176.86 -0.461227 0.494212 0
M  V30 1943 H 179.414 -0.856045 1.86711 0
M  V30 1944 H 177.644 -3.41033 1.82301 0
M  V30 1945 H 179.333 -3.38424 2.24107 0
M  V30 1946 H 180.099 -2.10473 4.36951 0
M  V30 1947 H 175.978 -2.98353 3.51435 0
M  V30 1948 H 179.522 -1.77241 6.74708 0
M  V30 1949 H 175.419 -2.65499 5.88371 0
M  V30 1950 H 176.187 -2.15075 7.89737 0
M  V30 1951 N 178.85 -1.27639 -0.924453 0
M  V30 1952 C 180.096 -1.14336 -1.67497 0
M  V30 1953 C 180.429 0.309465 -1.91718 0
M  V30 1954 O 179.704 1.22608 -1.50989 0
M  V30 1955 C 179.987 -1.93096 -3.0395 0
M  V30 1956 C 179.84 -3.46381 -2.8695 0
M  V30 1957 C 181.159 -1.73798 -4.0433 0
M  V30 1958 H 178.278 -0.416728 -0.607871 0
M  V30 1959 H 180.92 -1.56832 -1.07256 0
M  V30 1960 H 179.07 -1.56982 -3.55372 0
M  V30 1961 H 180.742 -3.92343 -2.42621 0
M  V30 1962 H 178.985 -3.72557 -2.22225 0
M  V30 1963 H 179.656 -3.96735 -3.83804 0
M  V30 1964 H 182.132 -2.05293 -3.61931 0
M  V30 1965 H 181.008 -2.31294 -4.97789 0
M  V30 1966 H 181.269 -0.686725 -4.36734 0
M  V30 1967 N 180.328 1.1314 -1.09713 0
M  V30 1968 C 181.744 1.36477 -0.827423 0
M  V30 1969 C 181.944 1.93654 0.556817 0
M  V30 1970 O 181 2.15791 1.31112 0
M  V30 1971 C 182.313 2.31334 -1.92106 0
M  V30 1972 C 183.861 2.44943 -1.94864 0
M  V30 1973 C 184.336 3.4311 -3.0338 0
M  V30 1974 N 185.827 3.50662 -3.02639 0
M  V30 1975 C 186.562 4.2651 -3.83246 0
M  V30 1976 N 186.058 5.05485 -4.73768 0
M  V30 1977 N 187.851 4.2184 -3.71493 0
M  V30 1978 H 180.002 0.743807 -1.9895 0
M  V30 1979 H 182.265 0.389823 -0.864143 0
M  V30 1980 H 181.971 1.96483 -2.91698 0
M  V30 1981 H 181.845 3.31381 -1.80184 0
M  V30 1982 H 184.232 2.79079 -0.959099 0
M  V30 1983 H 184.313 1.4481 -2.10864 0
M  V30 1984 H 183.957 3.09704 -4.02549 0
M  V30 1985 H 183.887 4.43055 -2.84622 0
M  V30 1986 H 186.378 2.94315 -2.37039 0
M  V30 1987 H 186.691 5.60675 -5.3185 0
M  V30 1988 H 185.036 5.04708 -4.77802 0
M  V30 1989 H 188.227 3.5922 -3.00131 0
M  V30 1990 H 188.4 4.80697 -4.3455 0
M  V30 1991 N 181.806 0.884767 1.30421 0
M  V30 1992 C 183.217 0.553656 1.78302 0
M  V30 1993 C 183.568 -0.930153 1.7275 0
M  V30 1994 O 182.693 -1.72681 1.30423 0
M  V30 1995 C 183.288 0.998234 3.2376 0
M  V30 1996 C 181.847 0.71854 3.69478 0
M  V30 1997 C 180.994 1.18132 2.50879 0
M  V30 1998 H 183.945 1.06901 1.17294 0
M  V30 1999 H 183.966 0.327118 3.79091 0
M  V30 2000 H 183.478 2.0782 3.27769 0
M  V30 2001 H 181.579 -0.349444 3.70958 0
M  V30 2002 H 181.692 1.30595 4.60958 0
M  V30 2003 H 180.056 0.600669 2.47516 0
M  V30 2004 H 180.839 2.26902 2.57624 0
M  V30 2005 N 183.284 -1.43765 0.645699 0
M  V30 2006 C 184.532 -2.01499 0.155731 0
M  V30 2007 C 184.853 -1.51151 -1.232 0
M  V30 2008 O 184.123 -0.721044 -1.82148 0
M  V30 2009 H 182.703 -0.745003 0.0545817 0
M  V30 2010 H 185.365 -1.76075 0.835677 0
M  V30 2011 H 184.461 -3.1181 0.134577 0
M  V30 2012 N 184.763 -0.387143 -1.52771 0
M  V30 2013 C 186.011 0.195349 -2.01154 0
M  V30 2014 C 186.332 1.475 -1.27549 0
M  V30 2015 O 185.602 1.91878 -0.394924 0
M  V30 2016 H 184.182 0.075178 -0.743207 0
M  V30 2017 H 186.844 -0.518337 -1.87881 0
M  V30 2018 H 185.94 0.407096 -3.09434 0
M  V30 2019 N 186.241 1.57166 -0.116904 0
M  V30 2020 C 187.489 1.94737 0.540533 0
M  V30 2021 C 187.81 1.00096 1.67349 0
M  V30 2022 O 187.08 0.0568854 1.95817 0
M  V30 2023 H 185.66 0.718981 0.202669 0
M  V30 2024 H 188.322 1.94017 -0.185353 0
M  V30 2025 H 187.418 2.97719 0.936483 0
M  V30 2026 N 187.719 -0.156864 1.56817 0
M  V30 2027 C 188.966 -0.871125 1.82805 0
M  V30 2028 C 189.294 -1.81611 0.696262 0
M  V30 2029 O 188.549 -1.93141 -0.315459 0
M  V30 2030 C 188.848 -1.68737 3.1506 0
M  V30 2031 C 188.514 -0.890045 4.42028 0
M  V30 2032 C 187.176 -0.670042 4.76512 0
M  V30 2033 C 189.528 -0.331769 5.20143 0
M  V30 2034 C 186.856 0.119104 5.86579 0
M  V30 2035 C 189.208 0.444365 6.31037 0
M  V30 2036 C 187.872 0.675035 6.64078 0
M  V30 2037 H 187.142 -0.318767 0.668931 0
M  V30 2038 H 189.789 -0.135274 1.91022 0
M  V30 2039 H 188.094 -2.49304 3.0225 0
M  V30 2040 H 189.791 -2.24331 3.3238 0
M  V30 2041 H 186.381 -1.07157 4.14988 0
M  V30 2042 H 190.565 -0.489043 4.93885 0
M  V30 2043 H 185.821 0.307417 6.10627 0
M  V30 2044 H 189.995 0.884139 6.90765 0
M  V30 2045 H 187.622 1.28839 7.49203 0
M  V30 2046 N 189.197 -1.51736 -0.425897 0
M  V30 2047 C 190.443 -1.65214 -1.1761 0
M  V30 2048 C 190.776 -0.372778 -1.90589 0
M  V30 2049 O 190.051 0.628139 -1.84078 0
M  V30 2050 C 190.334 -2.86312 -2.18398 0
M  V30 2051 C 190.187 -4.24254 -1.49426 0
M  V30 2052 C 191.506 -3.02925 -3.19256 0
M  V30 2053 H 188.625 -0.601263 -0.426206 0
M  V30 2054 H 191.267 -1.8425 -0.463882 0
M  V30 2055 H 189.417 -2.70213 -2.79137 0
M  V30 2056 H 191.089 -4.52046 -0.919362 0
M  V30 2057 H 189.332 -4.26426 -0.796432 0
M  V30 2058 H 190.003 -5.05001 -2.22885 0
M  V30 2059 H 192.479 -3.1781 -2.68581 0
M  V30 2060 H 191.355 -3.89199 -3.8706 0
M  V30 2061 H 191.616 -2.15497 -3.86023 0
M  V30 2062 N 190.675 0.682077 -1.42076 0
M  V30 2063 C 192.086 1.26246 -1.37546 0
M  V30 2064 C 192.437 1.96092 -0.0651481 0
M  V30 2065 O 191.562 1.99587 0.836297 0
M  V30 2066 C 192.157 2.29594 -2.49143 0
M  V30 2067 C 190.716 2.83175 -2.47969 0
M  V30 2068 C 189.863 1.57395 -2.28303 0
M  V30 2069 H 192.814 0.475937 -1.51395 0
M  V30 2070 H 192.835 3.11175 -2.18976 0
M  V30 2071 H 192.347 1.78729 -3.44496 0
M  V30 2072 H 190.448 3.3818 -1.56413 0
M  V30 2073 H 190.561 3.32687 -3.44755 0
M  V30 2074 H 188.925 1.83699 -1.76428 0
M  V30 2075 H 189.708 1.08507 -3.25701 0
M  V30 2076 N 192.153 1.28127 0.917671 0
M  V30 2077 C 193.378 1.18007 1.70555 0
M  V30 2078 C 193.803 -0.258257 1.86319 0
M  V30 2079 O 193.161 -1.1869 1.37049 0
M  V30 2080 C 193.209 1.87948 3.07746 0
M  V30 2081 O 192.313 1.18427 3.9503 0
M  V30 2082 H 191.654 0.409867 0.522403 0
M  V30 2083 H 194.184 1.69379 1.1477 0
M  V30 2084 H 194.194 1.95701 3.58001 0
M  V30 2085 H 192.869 2.92573 2.95591 0
M  V30 2086 H 191.446 1.18811 3.53466 0
M  V30 2087 N 193.631 -1.12557 1.10312 0
M  V30 2088 C 194.878 -1.84038 0.844759 0
M  V30 2089 C 195.206 -1.84026 -0.629668 0
M  V30 2090 O 194.461 -1.28026 -1.48013 0
M  V30 2091 C 194.76 -3.31462 1.33669 0
M  V30 2092 C 194.426 -3.51647 2.82232 0
M  V30 2093 C 193.088 -3.56864 3.22802 0
M  V30 2094 C 195.44 -3.58867 3.77974 0
M  V30 2095 C 192.768 -3.66844 4.57867 0
M  V30 2096 C 195.12 -3.70375 5.1284 0
M  V30 2097 C 193.784 -3.73848 5.52986 0
M  V30 2098 H 193.054 -0.673444 0.309119 0
M  V30 2099 H 195.701 -1.32824 1.37949 0
M  V30 2100 H 194.006 -3.85091 0.721949 0
M  V30 2101 H 195.703 -3.85236 1.11329 0
M  V30 2102 H 192.293 -3.48249 2.49842 0
M  V30 2103 H 196.477 -3.54107 3.47738 0
M  V30 2104 H 191.733 -3.67804 4.88396 0
M  V30 2105 H 195.907 -3.74904 5.86873 0
M  V30 2106 H 193.534 -3.81333 6.57639 0
M  V30 2107 N 195.109 -0.891671 -1.2995 0
M  V30 2108 C 196.041 -0.320695 -2.26945 0
M  V30 2109 C 197.054 0.528497 -1.53983 0
M  V30 2110 O 198.243 0.346959 -1.75096 0
M  V30 2111 C 195.343 0.562066 -3.34207 0
M  V30 2112 C 194.516 -0.259576 -4.36629 0
M  V30 2113 C 193.575 0.554739 -5.23268 0
M  V30 2114 O 192.601 -0.0249311 -5.69195 0
M  V30 2115 N 193.803 1.8625 -5.4981 0
M  V30 2116 H 196.568 -1.15432 -2.76578 0
M  V30 2117 H 194.129 -0.755336 -1.432 0
M  V30 2118 H 196.121 1.11304 -3.89093 0
M  V30 2119 H 194.691 1.29637 -2.84452 0
M  V30 2120 H 193.911 -0.991986 -3.81514 0
M  V30 2121 H 195.199 -0.822564 -5.02107 0
M  V30 2122 H 194.597 2.35628 -5.14292 0
M  V30 2123 H 193.154 2.36078 -6.07545 0
M  V30 2124 N 196.587 1.43421 -0.653314 0
M  V30 2125 C 197.517 2.33487 0.0246656 0
M  V30 2126 C 198.498 1.49475 0.811863 0
M  V30 2127 O 199.683 1.78139 0.773322 0
M  V30 2128 C 196.813 3.32841 0.99166 0
M  V30 2129 C 195.767 4.26842 0.314568 0
M  V30 2130 C 195.093 5.16236 1.39302 0
M  V30 2131 C 196.393 5.16243 -0.793095 0
M  V30 2132 H 198.087 2.90427 -0.727481 0
M  V30 2133 H 195.633 1.39649 -0.351287 0
M  V30 2134 H 197.586 3.94747 1.47487 0
M  V30 2135 H 196.31 2.74158 1.77497 0
M  V30 2136 H 194.969 3.663 -0.148199 0
M  V30 2137 H 194.617 4.53891 2.16776 0
M  V30 2138 H 194.317 5.79948 0.945223 0
M  V30 2139 H 195.841 5.81015 1.87759 0
M  V30 2140 H 197.255 5.71958 -0.392039 0
M  V30 2141 H 195.652 5.88676 -1.16536 0
M  V30 2142 H 196.722 4.55927 -1.65103 0
M  V30 2143 N 198.065 0.39524 1.52563 0
M  V30 2144 C 199.312 -0.185044 2.01653 0
M  V30 2145 C 199.64 -1.46317 1.28146 0
M  V30 2146 O 198.895 -1.9213 0.372074 0
M  V30 2147 C 199.194 -0.493444 3.53977 0
M  V30 2148 C 198.86 0.69384 4.4553 0
M  V30 2149 C 197.522 1.01954 4.70275 0
M  V30 2150 C 199.874 1.48785 4.99512 0
M  V30 2151 C 197.202 2.14069 5.46252 0
M  V30 2152 C 199.554 2.59965 5.76716 0
M  V30 2153 C 198.218 2.93037 5.99738 0
M  V30 2154 H 197.488 -0.0677123 0.7379 0
M  V30 2155 H 200.135 0.533807 1.8391 0
M  V30 2156 H 198.44 -1.29369 3.69825 0
M  V30 2157 H 200.137 -0.955163 3.89458 0
M  V30 2158 H 196.727 0.429987 4.26438 0
M  V30 2159 H 200.911 1.24946 4.80315 0
M  V30 2160 H 196.167 2.40056 5.62302 0
M  V30 2161 H 200.341 3.21887 6.17545 0
M  V30 2162 H 197.968 3.8003 6.58393 0
M  V30 2163 N 199.544 -1.57102 0.125237 0
M  V30 2164 C 200.454 -2.19191 -0.8362 0
M  V30 2165 C 201.47 -1.16985 -1.28805 0
M  V30 2166 O 202.646 -1.49479 -1.34974 0
M  V30 2167 C 199.711 -2.78407 -2.06617 0
M  V30 2168 C 198.772 -3.9567 -1.66565 0
M  V30 2169 C 198.005 -4.52052 -2.83698 0
M  V30 2170 O 198.228 -4.07326 -3.99302 0
M  V30 2171 O 197.162 -5.42645 -2.60423 0
M  V30 2172 H 200.988 -3.01816 -0.337776 0
M  V30 2173 H 198.573 -1.4906 -0.100695 0
M  V30 2174 H 200.455 -3.16129 -2.7864 0
M  V30 2175 H 199.13 -1.9881 -2.55453 0
M  V30 2176 H 198.037 -3.62705 -0.916296 0
M  V30 2177 H 199.37 -4.76722 -1.22464 0
M  V30 2178 N 201.022 0.148545 -1.56898 0
M  V30 2179 C 201.969 1.18345 -1.98149 0
M  V30 2180 C 202.939 1.42772 -0.848848 0
M  V30 2181 O 204.124 1.55132 -1.11079 0
M  V30 2182 C 201.264 2.51231 -2.36594 0
M  V30 2183 C 200.377 2.33991 -3.63142 0
M  V30 2184 C 199.512 3.59902 -3.90697 0
M  V30 2185 C 198.551 3.37692 -5.1052 0
M  V30 2186 N 197.688 4.5573 -5.34092 0
M  V30 2187 H 202.528 0.82467 -2.86362 0
M  V30 2188 H 200.065 0.395756 -1.41676 0
M  V30 2189 H 202.023 3.28713 -2.56912 0
M  V30 2190 H 200.653 2.85059 -1.51463 0
M  V30 2191 H 199.705 1.47572 -3.50609 0
M  V30 2192 H 201.017 2.13539 -4.5078 0
M  V30 2193 H 200.171 4.45813 -4.11505 0
M  V30 2194 H 198.91 3.83357 -3.01477 0
M  V30 2195 H 197.915 2.5017 -4.89587 0
M  V30 2196 H 199.14 3.15637 -6.0129 0
M  V30 2197 H 197.086 4.79361 -4.47827 0
M  V30 2198 H 197.003 4.38274 -6.15996 0
M  V30 2199 H 198.271 5.42858 -5.59397 0
M  V30 2200 N 202.5 1.5196 0.417844 0
M  V30 2201 C 203.748 1.65263 1.16329 0
M  V30 2202 C 204.069 0.380634 1.91249 0
M  V30 2203 O 203.339 -0.604214 1.86349 0
M  V30 2204 H 201.919 0.60912 0.432414 0
M  V30 2205 H 204.581 1.88969 0.477162 0
M  V30 2206 H 203.677 2.4896 1.88217 0
M  V30 2207 N 203.978 -0.674533 1.42435 0
M  V30 2208 C 205.255 -1.4305 1.33402 0
M  V30 2209 C 205.635 -2.11081 -0.0284674 0
M  V30 2210 O 204.983 -2.03257 -1.04397 0
M  V30 2211 C 205.193 -2.43272 2.50239 0
M  V30 2212 C 206.541 -3.07907 2.92367 0
M  V30 2213 O 207.565 -2.53599 2.50132 0
M  V30 2214 O 206.424 -4.0632 3.65467 0
M  V30 2215 H 203.518 -0.638076 0.526106 0
M  V30 2216 H 206.064 -0.703235 1.54443 0
M  V30 2217 H 204.836 -1.91803 3.41068 0
M  V30 2218 H 204.459 -3.23479 2.31186 0
M  V30 2219 N 205.456 -1.28612 -0.910864 0
M  V30 2220 C 206.702 -1.16106 -1.66274 0
M  V30 2221 C 207.035 0.289113 -1.92036 0
M  V30 2222 O 206.31 1.21 -1.52281 0
M  V30 2223 C 206.593 -1.96309 -3.01885 0
M  V30 2224 C 206.446 -3.49405 -2.8326 0
M  V30 2225 C 207.765 -1.78076 -4.02463 0
M  V30 2226 H 204.884 -0.423152 -0.603417 0
M  V30 2227 H 207.526 -1.57961 -1.05586 0
M  V30 2228 H 205.676 -1.60742 -3.53687 0
M  V30 2229 H 207.348 -3.94894 -2.38446 0
M  V30 2230 H 205.591 -3.74893 -2.18261 0
M  V30 2231 H 206.262 -4.00784 -3.79574 0
M  V30 2232 H 208.738 -2.0912 -3.59733 0
M  V30 2233 H 207.614 -2.36561 -4.95308 0
M  V30 2234 H 207.875 -0.733008 -4.35981 0
M  V30 2235 N 206.934 1.1197 -1.10907 0
M  V30 2236 C 207.882 2.19927 -0.757303 0
M  V30 2237 C 208.876 1.67564 0.248747 0
M  V30 2238 O 210.082 1.79672 0.108605 0
M  V30 2239 H 206.457 0.716925 -0.226987 0
M  V30 2240 H 208.428 2.46847 -1.67658 0
M  V30 2241 C 207.177 3.47061 -0.210671 0
M  V30 2242 H 206.5 3.87703 -0.976049 0
M  V30 2243 H 207.94 4.24 -0.0026584 0
M  V30 2244 C 206.399 3.19864 1.05777 0
M  V30 2245 O 206.929 3.40049 2.13845 0
M  V30 2246 N 205.135 2.73636 0.978349 0
M  V30 2247 H 204.682 2.5741 0.0988246 0
M  V30 2248 H 204.64 2.55815 1.82773 0
M  V30 2249 N 208.412 0.89855 1.29475 0
M  V30 2250 C 209.66 0.522847 1.9522 0
M  V30 2251 C 209.981 -0.93371 1.71192 0
M  V30 2252 O 209.251 -1.65823 1.04305 0
M  V30 2253 H 207.831 0.190366 0.722336 0
M  V30 2254 H 210.493 1.14459 1.5775 0
M  V30 2255 H 209.589 0.704476 3.04045 0
M  V30 2256 N 209.89 -1.43072 0.660911 0
M  V30 2257 C 210.8 -2.34585 -0.0264163 0
M  V30 2258 C 211.816 -1.54316 -0.803898 0
M  V30 2259 O 212.992 -1.86939 -0.749391 0
M  V30 2260 C 210.057 -3.32689 -0.975639 0
M  V30 2261 C 209.118 -4.2886 -0.194236 0
M  V30 2262 C 208.351 -5.22278 -1.09825 0
M  V30 2263 O 208.574 -5.20299 -2.33763 0
M  V30 2264 O 207.508 -5.99228 -0.566513 0
M  V30 2265 H 211.334 -2.94869 0.727034 0
M  V30 2266 H 208.919 -1.43342 0.42111 0
M  V30 2267 H 210.801 -3.92995 -1.52094 0
M  V30 2268 H 209.476 -2.74898 -1.70918 0
M  V30 2269 H 208.383 -3.72011 0.394835 0
M  V30 2270 H 209.716 -4.89655 0.499899 0
M  V30 2271 N 211.368 -0.403325 -1.52352 0
M  V30 2272 C 212.315 0.425011 -2.26853 0
M  V30 2273 C 213.285 1.04598 -1.29029 0
M  V30 2274 O 214.47 1.07135 -1.57882 0
M  V30 2275 C 211.61 1.53888 -3.08889 0
M  V30 2276 C 210.723 0.939396 -4.21663 0
M  V30 2277 C 209.858 2.02547 -4.91068 0
M  V30 2278 C 208.897 1.40263 -5.95813 0
M  V30 2279 N 208.034 2.4286 -6.58759 0
M  V30 2280 H 212.874 -0.21674 -2.97211 0
M  V30 2281 H 210.411 -0.118722 -1.4662 0
M  V30 2282 H 212.369 2.19558 -3.54753 0
M  V30 2283 H 210.999 2.15074 -2.40714 0
M  V30 2284 H 210.051 0.171898 -3.80011 0
M  V30 2285 H 211.363 0.44436 -4.96817 0
M  V30 2286 H 210.517 2.75958 -5.40308 0
M  V30 2287 H 209.256 2.55415 -4.15469 0
M  V30 2288 H 208.261 0.653833 -5.45898 0
M  V30 2289 H 209.486 0.881719 -6.73352 0
M  V30 2290 H 207.432 2.94871 -5.85992 0
M  V30 2291 H 207.349 1.98152 -7.2957 0
M  V30 2292 H 208.617 3.15858 -7.12639 0
M  V30 2293 N 212.846 1.57033 -0.133567 0
M  V30 2294 C 213.756 2.19632 0.824564 0
M  V30 2295 C 214.772 1.17666 1.28182 0
M  V30 2296 O 215.948 1.50193 1.3418 0
M  V30 2297 C 213.013 2.79499 2.05137 0
M  V30 2298 C 212.074 3.96548 1.64464 0
M  V30 2299 C 211.307 4.5355 2.81297 0
M  V30 2300 O 211.53 4.09438 3.97136 0
M  V30 2301 O 210.464 5.44018 2.57542 0
M  V30 2302 H 214.29 3.01991 0.321766 0
M  V30 2303 H 211.875 1.49112 0.0927889 0
M  V30 2304 H 213.757 3.17602 2.7696 0
M  V30 2305 H 212.432 2.00162 2.54395 0
M  V30 2306 H 211.339 3.63186 0.897048 0
M  V30 2307 H 212.672 4.77364 1.19934 0
M  V30 2308 N 214.325 -0.140222 1.56975 0
M  V30 2309 C 215.257 -1.19818 1.95388 0
M  V30 2310 C 216.27 -1.38816 0.850525 0
M  V30 2311 O 217.459 -1.38267 1.12891 0
M  V30 2312 C 214.559 -2.56189 2.21857 0
M  V30 2313 C 213.732 -2.58077 3.5315 0
M  V30 2314 C 212.791 -3.76037 3.6808 0
M  V30 2315 O 211.817 -3.60598 4.40406 0
M  V30 2316 N 213.019 -4.93763 3.05251 0
M  V30 2317 H 215.784 -0.871609 2.86746 0
M  V30 2318 H 213.345 -0.32972 1.58507 0
M  V30 2319 H 215.337 -3.33623 2.2908 0
M  V30 2320 H 213.907 -2.81111 1.36731 0
M  V30 2321 H 213.127 -1.6651 3.57307 0
M  V30 2322 H 214.415 -2.56377 4.39486 0
M  V30 2323 H 213.813 -5.09209 2.46419 0
M  V30 2324 H 212.37 -5.68949 3.18026 0
M  V30 2325 N 215.803 -1.52179 -0.40978 0
M  V30 2326 C 216.75 -1.75475 -1.49924 0
M  V30 2327 C 217.72 -0.597175 -1.54994 0
M  V30 2328 O 218.905 -0.834655 -1.71575 0
M  V30 2329 C 216.045 -1.9107 -2.87378 0
M  V30 2330 C 215.158 -3.18717 -2.91622 0
M  V30 2331 C 214.293 -3.24747 -4.20372 0
M  V30 2332 C 213.332 -4.46598 -4.18588 0
M  V30 2333 N 212.469 -4.50025 -5.38908 0
M  V30 2334 H 217.309 -2.68458 -1.29361 0
M  V30 2335 H 214.846 -1.33024 -0.627934 0
M  V30 2336 H 216.804 -1.98096 -3.6717 0
M  V30 2337 H 215.434 -1.01469 -3.06437 0
M  V30 2338 H 214.486 -3.20866 -2.04326 0
M  V30 2339 H 215.798 -4.08544 -2.86169 0
M  V30 2340 H 214.952 -3.30841 -5.08556 0
M  V30 2341 H 213.691 -2.32857 -4.28519 0
M  V30 2342 H 212.696 -4.40652 -3.28794 0
M  V30 2343 H 213.921 -5.39783 -4.12081 0
M  V30 2344 H 211.867 -3.61017 -5.47725 0
M  V30 2345 H 211.784 -5.33697 -5.35447 0
M  V30 2346 H 213.052 -4.60347 -6.29048 0
M  V30 2347 N 217.281 0.66697 -1.42791 0
M  V30 2348 C 218.527 1.4291 -1.43891 0
M  V30 2349 C 218.86 1.94114 -0.0578972 0
M  V30 2350 O 218.135 1.71414 0.91911 0
M  V30 2351 C 218.418 2.62049 -2.46987 0
M  V30 2352 C 218.271 2.16426 -3.94309 0
M  V30 2353 C 219.59 3.64266 -2.46978 0
M  V30 2354 H 216.709 0.518306 -0.523954 0
M  V30 2355 H 219.351 0.757321 -1.74255 0
M  V30 2356 H 217.501 3.19361 -2.21225 0
M  V30 2357 H 219.173 1.64221 -4.31079 0
M  V30 2358 H 217.416 1.47925 -4.078 0
M  V30 2359 H 218.087 3.02038 -4.62036 0
M  V30 2360 H 220.563 3.16686 -2.69906 0
M  V30 2361 H 219.439 4.45196 -3.21079 0
M  V30 2362 H 219.7 4.15927 -1.49857 0
M  V30 2363 N 218.759 1.29093 0.90403 0
M  V30 2364 C 220.006 1.16813 1.65411 0
M  V30 2365 C 220.334 -0.28128 1.92455 0
M  V30 2366 O 219.589 -1.22006 1.53013 0
M  V30 2367 C 219.888 1.92224 3.01305 0
M  V30 2368 C 219.554 3.41968 2.93885 0
M  V30 2369 C 218.216 3.82807 2.91569 0
M  V30 2370 C 220.568 4.37409 2.83413 0
M  V30 2371 C 217.896 5.1741 2.76594 0
M  V30 2372 C 220.248 5.72097 2.69977 0
M  V30 2373 C 218.912 6.12199 2.66024 0
M  V30 2374 H 218.182 0.42745 0.605283 0
M  V30 2375 H 220.829 1.59981 1.05254 0
M  V30 2376 H 219.134 1.41635 3.65304 0
M  V30 2377 H 220.831 1.80131 3.58265 0
M  V30 2378 H 217.421 3.09504 2.96488 0
M  V30 2379 H 221.605 4.06813 2.84283 0
M  V30 2380 H 216.861 5.47596 2.71935 0
M  V30 2381 H 221.035 6.45704 2.60844 0
M  V30 2382 H 218.662 7.16448 2.54178 0
M  V30 2383 N 220.237 -1.11381 1.11499 0
M  V30 2384 C 221.462 -1.87475 0.887019 0
M  V30 2385 C 221.887 -1.79639 -0.557796 0
M  V30 2386 O 221.245 -1.15924 -1.39396 0
M  V30 2387 C 221.293 -3.34213 1.35403 0
M  V30 2388 O 220.397 -4.0903 0.526146 0
M  V30 2389 H 219.738 -0.582099 0.319463 0
M  V30 2390 H 222.268 -1.40785 1.48461 0
M  V30 2391 H 222.278 -3.8506 1.34881 0
M  V30 2392 H 220.953 -3.39232 2.40612 0
M  V30 2393 H 219.53 -3.68082 0.597522 0
M  V30 2394 N 221.715 -0.905404 -1.28997 0
M  V30 2395 C 222.962 -0.534248 -1.95325 0
M  V30 2396 C 223.29 0.920535 -1.71337 0
M  V30 2397 O 222.545 1.66861 -1.02254 0
M  V30 2398 C 222.844 -0.779906 -3.48787 0
M  V30 2399 C 222.51 -2.21293 -3.92861 0
M  V30 2400 C 221.172 -2.60475 -4.04606 0
M  V30 2401 C 223.524 -3.14587 -4.15553 0
M  V30 2402 C 220.852 -3.9212 -4.36416 0
M  V30 2403 C 223.204 -4.45787 -4.48839 0
M  V30 2404 C 221.868 -4.84834 -4.58794 0
M  V30 2405 H 221.138 -0.195495 -0.714747 0
M  V30 2406 H 223.785 -1.14514 -1.53488 0
M  V30 2407 H 222.09 -0.0861365 -3.91705 0
M  V30 2408 H 223.787 -0.472029 -3.98212 0
M  V30 2409 H 220.377 -1.89887 -3.84241 0
M  V30 2410 H 224.561 -2.85528 -4.0594 0
M  V30 2411 H 219.817 -4.22086 -4.42327 0
M  V30 2412 H 223.991 -5.18098 -4.65346 0
M  V30 2413 H 221.618 -5.86877 -4.83197 0
M  V30 2414 N 223.193 1.4272 -0.668489 0
M  V30 2415 C 224.123 2.335 -0.000100175 0
M  V30 2416 C 225.104 1.50328 0.795964 0
M  V30 2417 O 226.289 1.78949 0.754385 0
M  V30 2418 C 223.419 3.33874 0.956302 0
M  V30 2419 C 222.373 4.27152 0.269278 0
M  V30 2420 C 221.699 5.17684 1.33818 0
M  V30 2421 C 222.999 5.15373 -0.847805 0
M  V30 2422 H 224.693 2.89639 -0.758244 0
M  V30 2423 H 222.239 1.39269 -0.366079 0
M  V30 2424 H 224.192 3.9629 1.43292 0
M  V30 2425 H 222.916 2.76025 1.74579 0
M  V30 2426 H 221.575 3.66123 -0.187042 0
M  V30 2427 H 221.223 4.56165 2.1195 0
M  V30 2428 H 220.923 5.80918 0.883659 0
M  V30 2429 H 222.447 5.82974 1.81586 0
M  V30 2430 H 223.861 5.7151 -0.452681 0
M  V30 2431 H 222.258 5.87407 -1.22773 0
M  V30 2432 H 223.328 4.5415 -1.69929 0
M  V30 2433 N 224.671 0.411399 1.52136 0
M  V30 2434 C 225.618 -0.412975 2.27075 0
M  V30 2435 C 226.588 -1.03912 1.29582 0
M  V30 2436 O 227.773 -1.06296 1.58448 0
M  V30 2437 C 224.913 -1.52247 3.09701 0
M  V30 2438 C 224.026 -0.917021 4.22155 0
M  V30 2439 C 223.161 -1.9994 4.92135 0
M  V30 2440 C 222.2 -1.37101 5.96548 0
M  V30 2441 N 221.337 -2.39364 6.60038 0
M  V30 2442 H 226.177 0.232499 2.97092 0
M  V30 2443 H 223.714 0.126496 1.46555 0
M  V30 2444 H 225.672 -2.17674 3.55913 0
M  V30 2445 H 224.302 -2.13794 2.41851 0
M  V30 2446 H 223.354 -0.151742 3.80097 0
M  V30 2447 H 224.666 -0.418006 4.97045 0
M  V30 2448 H 223.82 -2.73088 5.41763 0
M  V30 2449 H 222.559 -2.53208 4.16818 0
M  V30 2450 H 221.564 -0.624873 5.46237 0
M  V30 2451 H 222.789 -0.845998 6.7381 0
M  V30 2452 H 220.735 -2.91759 5.87548 0
M  V30 2453 H 220.652 -1.9428 7.3061 0
M  V30 2454 H 221.92 -3.12074 7.14304 0
M  V30 2455 N 226.149 -1.5696 0.141893 0
M  V30 2456 C 227.099 -2.13074 -0.811383 0
M  V30 2457 C 228.083 -1.05726 -1.21288 0
M  V30 2458 O 229.275 -1.31914 -1.18015 0
M  V30 2459 C 226.404 -2.75186 -2.0525 0
M  V30 2460 C 225.49 -3.8965 -1.67432 0
M  V30 2461 N 225.881 -4.95733 -1.0041 0
M  V30 2462 C 224.179 -4.00262 -1.96739 0
M  V30 2463 C 224.88 -5.75858 -0.822345 0
M  V30 2464 N 223.856 -5.26452 -1.3546 0
M  V30 2465 H 227.658 -2.92465 -0.290031 0
M  V30 2466 H 225.172 -1.6229 -0.0598218 0
M  V30 2467 H 227.169 -3.13745 -2.74535 0
M  V30 2468 H 225.829 -1.97266 -2.57907 0
M  V30 2469 H 226.84 -5.13607 -0.665441 0
M  V30 2470 H 223.517 -3.33412 -2.51282 0
M  V30 2471 H 224.907 -6.71254 -0.294496 0
M  V30 2472 N 227.627 0.131896 -1.57047 0
M  V30 2473 C 228.852 0.860418 -1.8871 0
M  V30 2474 C 229.277 1.73251 -0.73251 0
M  V30 2475 O 228.635 1.785 0.317429 0
M  V30 2476 C 228.683 1.68047 -3.19049 0
M  V30 2477 O 227.787 2.7862 -3.04047 0
M  V30 2478 H 227.128 0.238743 -0.619595 0
M  V30 2479 H 229.658 0.118169 -2.04258 0
M  V30 2480 H 229.668 2.07238 -3.51449 0
M  V30 2481 H 228.343 1.04018 -4.02682 0
M  V30 2482 H 226.92 2.42726 -2.83088 0
M  V30 2483 N 229.106 1.52395 0.401703 0
M  V30 2484 C 230.346 1.68498 1.15705 0
M  V30 2485 C 230.71 0.409748 1.87577 0
M  V30 2486 O 231.911 0.446983 2.65058 0
M  V30 2487 C 230.182 2.87789 2.11924 0
M  V30 2488 S 231.741 3.24415 2.95466 0
M  V30 2489 H 228.559 0.593267 0.391862 0
M  V30 2490 H 231.161 1.90408 0.443282 0
M  V30 2491 H 229.865 3.7884 1.57824 0
M  V30 2492 H 229.396 2.68175 2.87829 0
M  V30 2493 H 231.411 2.73614 4.13944 0
M  V30 2494 N 230.584 -0.659388 1.43143 0
M  V30 2495 C 231.995 -1.24041 1.39537 0
M  V30 2496 C 232.346 -1.95963 0.0963364 0
M  V30 2497 O 231.471 -2.00892 -0.804438 0
M  V30 2498 C 232.066 -2.25601 2.52764 0
M  V30 2499 C 230.625 -2.79195 2.52443 0
M  V30 2500 C 229.772 -1.53743 2.30778 0
M  V30 2501 H 232.723 -0.451792 1.52133 0
M  V30 2502 H 232.744 -3.07651 2.23899 0
M  V30 2503 H 232.256 -1.73226 3.47296 0
M  V30 2504 H 230.357 -3.35649 1.61773 0
M  V30 2505 H 230.47 -3.2716 3.50004 0
M  V30 2506 H 228.834 -1.80869 1.79328 0
M  V30 2507 H 229.617 -1.03312 3.27386 0
M  V30 2508 N 232.062 -1.29571 -0.897171 0
M  V30 2509 C 233.012 -1.11539 -1.98855 0
M  V30 2510 C 233.996 -0.0340716 -1.60864 0
M  V30 2511 O 235.188 -0.256062 -1.75138 0
M  V30 2512 C 232.317 -0.796603 -3.3393 0
M  V30 2513 C 231.403 -1.91758 -3.78272 0
M  V30 2514 N 231.794 -3.16143 -3.94826 0
M  V30 2515 C 230.092 -1.81119 -4.07568 0
M  V30 2516 C 230.793 -3.89293 -4.32233 0
M  V30 2517 N 229.769 -3.17255 -4.41419 0
M  V30 2518 H 233.571 -2.05894 -2.09726 0
M  V30 2519 H 231.085 -1.20732 -1.08616 0
M  V30 2520 H 233.082 -0.648459 -4.11826 0
M  V30 2521 H 231.742 0.139003 -3.24402 0
M  V30 2522 H 232.753 -3.5157 -3.80288 0
M  V30 2523 H 229.43 -0.948461 -4.06584 0
M  V30 2524 H 230.82 -4.9635 -4.52865 0
M  V30 2525 N 233.54 1.10788 -1.12088 0
M  V30 2526 C 234.951 1.64181 -0.88891 0
M  V30 2527 C 235.302 1.87508 0.577498 0
M  V30 2528 O 234.427 1.61434 1.44112 0
M  V30 2529 C 235.022 2.98257 -1.60712 0
M  V30 2530 C 233.581 3.4853 -1.42139 0
M  V30 2531 C 232.728 2.23208 -1.6454 0
M  V30 2532 H 235.679 0.943368 -1.27618 0
M  V30 2533 H 235.7 3.65552 -1.05604 0
M  V30 2534 H 235.212 2.81246 -2.67436 0
M  V30 2535 H 233.313 3.70692 -0.376552 0
M  V30 2536 H 233.426 4.26882 -2.17505 0
M  V30 2537 H 231.79 2.31169 -1.06925 0
M  V30 2538 H 232.573 2.08733 -2.72554 0
M  V30 2539 N 235.018 0.912232 1.28515 0
M  V30 2540 C 236.243 0.559774 1.99703 0
M  V30 2541 C 236.668 -0.851393 1.67729 0
M  V30 2542 O 236.026 -1.56875 0.908834 0
M  V30 2543 C 236.074 0.773874 3.52198 0
M  V30 2544 O 235.178 -0.167842 4.12058 0
M  V30 2545 H 234.519 0.21723 0.627461 0
M  V30 2546 H 237.049 1.22725 1.63706 0
M  V30 2547 H 237.059 0.683386 4.02236 0
M  V30 2548 H 235.734 1.80261 3.74805 0
M  V30 2549 H 234.311 -0.0287509 3.72889 0
M  V30 2550 N 236.496 -1.42363 0.676048 0
M  V30 2551 C 237.406 -2.346 -0.00153389 0
M  V30 2552 C 238.422 -1.5516 -0.787485 0
M  V30 2553 O 239.598 -1.87723 -0.729521 0
M  V30 2554 C 236.663 -3.33705 -0.940298 0
M  V30 2555 C 235.724 -4.29042 -0.148739 0
M  V30 2556 C 234.957 -5.23413 -1.04279 0
M  V30 2557 O 235.18 -5.22749 -2.28232 0
M  V30 2558 O 234.114 -5.99795 -0.502925 0
M  V30 2559 H 237.94 -2.94082 0.758268 0
M  V30 2560 H 235.525 -1.42888 0.436289 0
M  V30 2561 H 237.407 -3.94586 -1.47917 0
M  V30 2562 H 236.082 -2.76695 -1.67993 0
M  V30 2563 H 234.989 -3.71571 0.43427 0
M  V30 2564 H 236.322 -4.89097 0.551805 0
M  V30 2565 N 237.974 -0.419461 -1.51915 0
M  V30 2566 C 239.223 0.154346 -2.01109 0
M  V30 2567 C 239.536 1.45338 -1.30905 0
M  V30 2568 O 240.742 2.10906 -1.7097 0
M  V30 2569 C 239.198 0.325615 -3.58424 0
M  V30 2570 C 238.806 -0.961934 -4.37551 0
M  V30 2571 C 240.55 0.854155 -4.15818 0
M  V30 2572 C 238.457 -0.757287 -5.86531 0
M  V30 2573 H 237.387 0.0614563 -0.751491 0
M  V30 2574 H 240.038 -0.54649 -1.75173 0
M  V30 2575 H 238.42 1.08903 -3.80731 0
M  V30 2576 H 239.594 -1.7323 -4.26999 0
M  V30 2577 H 237.909 -1.41766 -3.91524 0
M  V30 2578 H 240.506 1.02346 -5.24814 0
M  V30 2579 H 240.849 1.83172 -3.73837 0
M  V30 2580 H 241.382 0.149528 -3.97519 0
M  V30 2581 H 238.121 -1.70671 -6.32892 0
M  V30 2582 H 237.641 -0.0264061 -5.99794 0
M  V30 2583 H 239.32 -0.403482 -6.45741 0
M  V30 2584 N 239.452 1.56882 -0.150215 0
M  V30 2585 C 240.382 2.19935 0.784284 0
M  V30 2586 C 241.363 1.14854 1.25469 0
M  V30 2587 O 242.548 1.43209 1.31168 0
M  V30 2588 C 239.678 2.82349 2.02229 0
M  V30 2589 C 238.632 3.93285 1.68853 0
M  V30 2590 C 237.958 4.42649 2.99944 0
M  V30 2591 C 239.258 5.13904 0.932714 0
M  V30 2592 H 240.952 2.9828 0.258781 0
M  V30 2593 H 238.498 1.43473 0.123029 0
M  V30 2594 H 240.451 3.25126 2.68088 0
M  V30 2595 H 239.175 2.0134 2.57157 0
M  V30 2596 H 237.834 3.5113 1.05371 0
M  V30 2597 H 237.482 3.58458 3.52869 0
M  V30 2598 H 237.182 5.17476 2.78374 0
M  V30 2599 H 238.706 4.88099 3.66868 0
M  V30 2600 H 240.12 5.53506 1.49345 0
M  V30 2601 H 238.517 5.94515 0.81684 0
M  V30 2602 H 239.587 4.84842 -0.0749568 0
M  V30 2603 N 240.93 -0.123565 1.57115 0
M  V30 2604 C 242.178 -0.83051 1.84247 0
M  V30 2605 C 242.499 -1.80629 0.73471 0
M  V30 2606 O 241.769 -1.94403 -0.241688 0
M  V30 2607 H 240.349 -0.309694 0.679778 0
M  V30 2608 H 243.011 -0.111976 1.94578 0
M  V30 2609 H 242.107 -1.37852 2.80006 0
M  V30 2610 N 242.408 -1.52605 -0.393616 0
M  V30 2611 C 243.636 -1.71294 -1.16043 0
M  V30 2612 C 244.051 -0.429259 -1.83855 0
M  V30 2613 O 243.408 0.595921 -1.72496 0
M  V30 2614 C 243.459 -2.8593 -2.21193 0
M  V30 2615 O 243.18 -4.09329 -1.56146 0
M  V30 2616 C 244.681 -3.16259 -3.10636 0
M  V30 2617 H 241.901 -0.573641 -0.348104 0
M  V30 2618 H 244.445 -1.99234 -0.461092 0
M  V30 2619 H 242.6 -2.60465 -2.86769 0
M  V30 2620 H 243.014 -4.73323 -2.25978 0
M  V30 2621 H 244.488 -3.99946 -3.80456 0
M  V30 2622 H 244.965 -2.3045 -3.73884 0
M  V30 2623 H 245.571 -3.43547 -2.50711 0
M  V30 2624 N 243.887 0.651787 -1.4349 0
M  V30 2625 C 245.134 1.41167 -1.45183 0
M  V30 2626 C 245.462 1.94349 -0.0766601 0
M  V30 2627 O 244.717 1.72804 0.918555 0
M  V30 2628 C 245.016 2.60914 -2.44251 0
M  V30 2629 C 244.682 2.26142 -3.9009 0
M  V30 2630 C 243.344 2.16371 -4.2981 0
M  V30 2631 C 245.696 1.98334 -4.81989 0
M  V30 2632 C 243.024 1.7695 -5.5938 0
M  V30 2633 C 245.376 1.6041 -6.11924 0
M  V30 2634 C 244.04 1.49166 -6.5062 0
M  V30 2635 H 243.31 0.516566 -0.531263 0
M  V30 2636 H 245.957 0.741099 -1.76579 0
M  V30 2637 H 244.262 3.3311 -2.06265 0
M  V30 2638 H 245.959 3.19127 -2.42815 0
M  V30 2639 H 242.549 2.34658 -3.58655 0
M  V30 2640 H 246.733 2.04803 -4.52072 0
M  V30 2641 H 241.989 1.66831 -5.88198 0
M  V30 2642 H 246.163 1.37925 -6.82605 0
M  V30 2643 H 243.79 1.1839 -7.50925 0
M  V30 2644 N 245.365 1.30045 0.890287 0
M  V30 2645 C 246.312 1.15976 1.99545 0
M  V30 2646 C 247.282 0.0506202 1.66023 0
M  V30 2647 O 248.467 0.219847 1.89529 0
M  V30 2648 C 245.607 0.852054 3.34416 0
M  V30 2649 C 244.72 2.04255 3.80662 0
M  V30 2650 C 243.855 1.6734 5.04154 0
M  V30 2651 C 242.894 2.82916 5.42794 0
M  V30 2652 N 242.031 2.46333 6.57468 0
M  V30 2653 H 246.871 2.10524 2.10911 0
M  V30 2654 H 244.408 1.04749 1.03276 0
M  V30 2655 H 246.366 0.654296 4.12037 0
M  V30 2656 H 244.996 -0.0565502 3.2275 0
M  V30 2657 H 244.048 2.35172 2.98995 0
M  V30 2658 H 245.36 2.90826 4.05242 0
M  V30 2659 H 244.514 1.43908 5.89386 0
M  V30 2660 H 243.253 0.779308 4.81433 0
M  V30 2661 H 242.258 3.0702 4.56091 0
M  V30 2662 H 243.483 3.73004 5.6749 0
M  V30 2663 H 241.429 1.59423 6.36334 0
M  V30 2664 H 241.346 3.26436 6.81891 0
M  V30 2665 H 242.614 2.26244 7.45945 0
M  V30 2666 N 246.843 -1.10192 1.12674 0
M  V30 2667 C 248.068 -1.86523 0.906853 0
M  V30 2668 C 248.493 -1.80221 -0.538711 0
M  V30 2669 O 247.851 -1.17396 -1.38158 0
M  V30 2670 C 247.899 -3.32758 1.3894 0
M  V30 2671 O 247.003 -4.08449 0.5695 0
M  V30 2672 H 246.344 -0.578678 0.325619 0
M  V30 2673 H 248.874 -1.39203 1.49946 0
M  V30 2674 H 248.884 -3.83608 1.38958 0
M  V30 2675 H 247.559 -3.36661 2.44197 0
M  V30 2676 H 246.136 -3.67427 0.636528 0
M  V30 2677 N 248.321 -0.919034 -1.28029 0
M  V30 2678 C 249.57 -0.550802 -1.94034 0
M  V30 2679 C 249.883 0.910877 -1.73096 0
M  V30 2680 O 251.089 1.3875 -2.33368 0
M  V30 2681 C 249.545 -0.934249 -3.47563 0
M  V30 2682 C 249.153 -2.41602 -3.7727 0
M  V30 2683 C 250.897 -0.636854 -4.19696 0
M  V30 2684 C 248.804 -2.73932 -5.24133 0
M  V30 2685 H 247.734 -0.202273 -0.726362 0
M  V30 2686 H 250.385 -1.11867 -1.45458 0
M  V30 2687 H 248.767 -0.295115 -3.94899 0
M  V30 2688 H 249.941 -3.10233 -3.40723 0
M  V30 2689 H 248.256 -2.68441 -3.18321 0
M  V30 2690 H 250.853 -0.855005 -5.2782 0
M  V30 2691 H 251.196 0.425575 -4.14119 0
M  V30 2692 H 251.729 -1.23469 -3.78154 0
M  V30 2693 H 248.468 -3.79049 -5.34792 0
M  V30 2694 H 247.988 -2.09942 -5.61858 0
M  V30 2695 H 249.667 -2.61215 -5.91925 0
M  V30 2696 N 249.799 1.42003 -0.683588 0
M  V30 2697 C 251.024 2.06265 -0.216647 0
M  V30 2698 C 251.449 1.51059 1.12083 0
M  V30 2699 O 250.807 0.632638 1.69904 0
M  V30 2700 C 250.855 3.60191 -0.171759 0
M  V30 2701 O 249.959 4.03396 0.857069 0
M  V30 2702 H 249.3 0.65502 -0.108834 0
M  V30 2703 H 251.83 1.81982 -0.935077 0
M  V30 2704 H 251.84 4.08 0.0014303 0
M  V30 2705 H 250.515 3.99743 -1.14796 0
M  V30 2706 H 249.092 3.67117 0.654208 0
M  V30 2707 N 251.277 0.427512 1.51691 0
M  V30 2708 C 252.523 -0.134744 2.02953 0
M  V30 2709 C 252.878 -1.41235 1.30654 0
M  V30 2710 O 252.171 -1.87168 0.409713 0
M  V30 2711 C 252.365 -0.418249 3.54944 0
M  V30 2712 C 252.194 0.830327 4.41968 0
M  V30 2713 C 250.964 1.36097 4.86627 0
M  V30 2714 C 253.162 1.7137 4.84909 0
M  V30 2715 N 251.144 2.56311 5.57833 0
M  V30 2716 C 252.515 2.76195 5.55082 0
M  V30 2717 C 254.57 1.72928 4.66905 0
M  V30 2718 C 253.273 3.82512 6.09161 0
M  V30 2719 C 255.299 2.78175 5.21894 0
M  V30 2720 C 254.661 3.8172 5.92004 0
M  V30 2721 H 250.76 -0.0103958 0.781931 0
M  V30 2722 H 253.344 0.585981 1.85673 0
M  V30 2723 H 251.515 -1.10801 3.7226 0
M  V30 2724 H 253.247 -0.970999 3.92879 0
M  V30 2725 H 250.002 0.916311 4.64651 0
M  V30 2726 H 250.426 3.17242 5.98069 0
M  V30 2727 H 255.068 0.942081 4.12171 0
M  V30 2728 H 252.786 4.62077 6.62956 0
M  V30 2729 H 256.372 2.8031 5.09821 0
M  V30 2730 H 255.252 4.61821 6.33791 0
M  V30 2731 N 252.755 -1.56801 0.158532 0
M  V30 2732 C 254.032 -1.88131 -0.535357 0
M  V30 2733 C 254.412 -1.06638 -1.82186 0
M  V30 2734 O 253.76 -0.156533 -2.27963 0
M  V30 2735 C 253.97 -3.39949 -0.789653 0
M  V30 2736 C 255.318 -4.09416 -1.12533 0
M  V30 2737 O 256.342 -3.45194 -0.878622 0
M  V30 2738 O 255.201 -5.22855 -1.59014 0
M  V30 2739 H 252.295 -0.780143 -0.27442 0
M  V30 2740 H 254.841 -1.68564 0.19601 0
M  V30 2741 H 253.613 -3.91115 0.120353 0
M  V30 2742 H 253.236 -3.65084 -1.57479 0
M  V30 2743 N 254.233 0.115231 -1.57178 0
M  V30 2744 C 255.644 0.67197 -1.74188 0
M  V30 2745 C 255.995 1.80125 -0.777777 0
M  V30 2746 O 255.12 2.16346 0.0484376 0
M  V30 2747 C 255.715 1.22573 -3.1585 0
M  V30 2748 C 254.274 1.72872 -3.34353 0
M  V30 2749 C 253.421 0.629972 -2.70049 0
M  V30 2750 H 256.372 -0.110712 -1.58313 0
M  V30 2751 H 256.393 2.09535 -3.17609 0
M  V30 2752 H 255.905 0.403598 -3.85996 0
M  V30 2753 H 254.006 2.5755 -2.69256 0
M  V30 2754 H 254.119 1.83557 -4.42542 0
M  V30 2755 H 252.483 1.0645 -2.31388 0
M  V30 2756 H 253.266 -0.181241 -3.42821 0
M  V30 2757 N 255.711 1.52812 0.385517 0
M  V30 2758 C 256.957 1.68275 1.13188 0
M  V30 2759 C 257.29 0.423179 1.89533 0
M  V30 2760 O 256.565 -0.579113 1.85679 0
M  V30 2761 C 256.848 2.92001 2.1073 0
M  V30 2762 C 256.701 4.28067 1.38125 0
M  V30 2763 C 258.02 3.11283 3.11113 0
M  V30 2764 H 255.139 0.612352 0.410115 0
M  V30 2765 H 257.781 1.85415 0.414869 0
M  V30 2766 H 255.931 2.77519 2.71874 0
M  V30 2767 H 257.603 4.54324 0.799187 0
M  V30 2768 H 255.846 4.28388 0.683092 0
M  V30 2769 H 256.517 5.10733 2.09417 0
M  V30 2770 H 258.993 3.2482 2.6006 0
M  V30 2771 H 257.869 3.99325 3.76605 0
M  V30 2772 H 258.13 2.25656 3.80173 0
M  V30 2773 N 257.189 -0.644168 1.43834 0
M  V30 2774 C 258.136 -1.75671 1.49694 0
M  V30 2775 C 259.106 -1.6246 0.345809 0
M  V30 2776 O 260.291 -1.82573 0.554234 0
M  V30 2777 C 257.431 -3.13867 1.43463 0
M  V30 2778 C 256.544 -3.38147 2.6885 0
M  V30 2779 C 255.679 -4.66241 2.54544 0
M  V30 2780 C 254.718 -4.83657 3.75157 0
M  V30 2781 N 253.855 -6.03016 3.59605 0
M  V30 2782 H 258.695 -1.69998 2.44754 0
M  V30 2783 H 256.232 -0.829458 1.21484 0
M  V30 2784 H 258.19 -3.9377 1.37843 0
M  V30 2785 H 256.82 -3.18588 0.519783 0
M  V30 2786 H 255.872 -2.52276 2.84712 0
M  V30 2787 H 257.184 -3.46899 3.58417 0
M  V30 2788 H 256.338 -5.54285 2.46683 0
M  V30 2789 H 255.077 -4.59826 1.62516 0
M  V30 2790 H 254.082 -3.94046 3.83416 0
M  V30 2791 H 255.307 -4.91896 4.68204 0
M  V30 2792 H 253.253 -5.97715 2.7032 0
M  V30 2793 H 253.17 -6.12766 4.42779 0
M  V30 2794 H 254.438 -6.93657 3.55613 0
M  V30 2795 N 258.668 -1.30515 -0.883378 0
M  V30 2796 C 259.914 -1.19607 -1.63774 0
M  V30 2797 C 260.247 0.248314 -1.92606 0
M  V30 2798 O 259.522 1.17742 -1.54813 0
M  V30 2799 C 259.805 -2.02669 -2.97653 0
M  V30 2800 C 259.658 -3.55335 -2.75784 0
M  V30 2801 C 260.977 -1.86573 -3.98596 0
M  V30 2802 H 258.096 -0.435856 -0.594305 0
M  V30 2803 H 260.738 -1.60165 -1.02212 0
M  V30 2804 H 258.888 -1.68208 -3.50197 0
M  V30 2805 H 260.56 -3.99863 -2.30016 0
M  V30 2806 H 258.803 -3.79438 -2.1026 0
M  V30 2807 H 259.474 -4.08745 -3.70988 0
M  V30 2808 H 261.95 -2.16703 -3.55217 0
M  V30 2809 H 260.826 -2.47014 -4.90179 0
M  V30 2810 H 261.087 -0.825321 -4.34328 0
M  V30 2811 N 260.146 1.09593 -1.13257 0
M  V30 2812 C 261.096 2.14345 -0.777179 0
M  V30 2813 C 262.08 1.59277 0.227966 0
M  V30 2814 O 263.272 1.76971 0.0321413 0
M  V30 2815 C 260.401 3.42439 -0.242991 0
M  V30 2816 C 259.487 4.04419 -1.27694 0
M  V30 2817 N 259.878 4.40979 -2.47732 0
M  V30 2818 C 258.176 4.31596 -1.12432 0
M  V30 2819 C 258.877 4.89784 -3.13826 0
M  V30 2820 N 257.853 4.87133 -2.41252 0
M  V30 2821 H 261.655 2.40415 -1.69049 0
M  V30 2822 H 259.169 1.26803 -1.01463 0
M  V30 2823 H 261.166 4.16889 0.0298496 0
M  V30 2824 H 259.826 3.17824 0.66467 0
M  V30 2825 H 260.837 4.32396 -2.85051 0
M  V30 2826 H 257.514 4.16595 -0.274684 0
M  V30 2827 H 258.904 5.2755 -4.16102 0
M  V30 2828 N 261.624 0.925811 1.2754 0
M  V30 2829 C 262.901 0.483726 1.89524 0
M  V30 2830 C 263.281 -1.03809 1.83812 0
M  V30 2831 O 262.629 -1.89143 1.28207 0
M  V30 2832 C 262.839 1.02769 3.33526 0
M  V30 2833 C 264.187 1.08703 4.10449 0
M  V30 2834 O 265.211 0.977175 3.42534 0
M  V30 2835 O 264.07 1.25599 5.31871 0
M  V30 2836 H 261.164 0.15529 0.812289 0
M  V30 2837 H 263.71 1.01738 1.35822 0
M  V30 2838 H 262.482 2.07155 3.31967 0
M  V30 2839 H 262.105 0.475567 3.94746 0
M  V30 2840 N 263.102 -1.41638 0.69111 0
M  V30 2841 C 264.351 -2.00526 0.217318 0
M  V30 2842 C 264.664 -1.55353 -1.18848 0
M  V30 2843 O 265.87 -2.06769 -1.75951 0
M  V30 2844 C 264.326 -3.58313 0.337639 0
M  V30 2845 C 263.934 -4.12469 1.74852 0
M  V30 2846 C 265.678 -4.24431 -0.0766066 0
M  V30 2847 C 263.585 -5.62675 1.82074 0
M  V30 2848 H 262.515 -0.750008 0.0774893 0
M  V30 2849 H 265.166 -1.6217 0.858661 0
M  V30 2850 H 263.548 -3.9425 -0.371879 0
M  V30 2851 H 264.722 -3.8796 2.48644 0
M  V30 2852 H 263.037 -3.58861 2.11205 0
M  V30 2853 H 265.634 -5.34683 -0.0430284 0
M  V30 2854 H 265.977 -4.01101 -1.1146 0
M  V30 2855 H 266.51 -3.93512 0.582476 0
M  V30 2856 H 263.249 -5.90826 2.83911 0
M  V30 2857 H 262.769 -5.89124 1.12661 0
M  V30 2858 H 264.448 -6.27371 1.58159 0
M  V30 2859 N 264.58 -0.43555 -1.51462 0
M  V30 2860 C 265.996 -0.0877501 -1.59359 0
M  V30 2861 C 266.196 1.4027 -1.4466 0
M  V30 2862 O 265.252 2.17243 -1.28693 0
M  V30 2863 C 266.565 -0.606264 -2.94525 0
M  V30 2864 C 268.113 -0.566548 -3.0783 0
M  V30 2865 C 268.588 -1.06201 -4.45517 0
M  V30 2866 N 270.079 -1.01992 -4.51832 0
M  V30 2867 C 270.814 -1.37417 -5.5669 0
M  V30 2868 N 270.31 -1.80119 -6.68976 0
M  V30 2869 N 272.103 -1.29245 -5.47039 0
M  V30 2870 H 264.254 -1.40533 -1.59261 0
M  V30 2871 H 266.517 -0.578992 -0.750648 0
M  V30 2872 H 266.223 -1.64901 -3.10645 0
M  V30 2873 H 266.097 -0.0302097 -3.77188 0
M  V30 2874 H 268.484 0.467208 -2.91378 0
M  V30 2875 H 268.565 -1.17898 -2.2701 0
M  V30 2876 H 268.209 -2.09422 -4.62715 0
M  V30 2877 H 268.139 -0.426127 -5.24873 0
M  V30 2878 H 270.63 -0.706308 -3.71241 0
M  V30 2879 H 270.943 -2.05392 -7.45006 0
M  V30 2880 H 269.288 -1.84044 -6.70189 0
M  V30 2881 H 272.479 -0.957522 -4.58202 0
M  V30 2882 H 272.652 -1.57182 -6.28648 0
M  V30 2883 N 266.058 1.56714 -0.166846 0
M  V30 2884 C 267.304 1.97813 0.473473 0
M  V30 2885 C 267.659 1.05095 1.61161 0
M  V30 2886 O 266.952 0.0897541 1.9139 0
M  V30 2887 C 267.146 3.42889 1.00806 0
M  V30 2888 C 266.975 4.49635 -0.0767392 0
M  V30 2889 C 265.745 5.02566 -0.524894 0
M  V30 2890 C 267.943 5.06793 -0.875504 0
M  V30 2891 N 265.925 5.9294 -1.59047 0
M  V30 2892 C 267.296 5.93565 -1.79111 0
M  V30 2893 C 269.351 4.89306 -0.921083 0
M  V30 2894 C 268.054 6.64721 -2.74843 0
M  V30 2895 C 270.08 5.61179 -1.86633 0
M  V30 2896 C 269.442 6.47675 -2.76942 0
M  V30 2897 H 265.541 0.769093 0.141489 0
M  V30 2898 H 268.125 1.92874 -0.266031 0
M  V30 2899 H 266.296 3.48382 1.7171 0
M  V30 2900 H 268.028 3.71008 1.61664 0
M  V30 2901 H 264.783 4.73439 -0.123432 0
M  V30 2902 H 265.207 6.42831 -2.12361 0
M  V30 2903 H 269.849 4.22136 -0.23692 0
M  V30 2904 H 267.567 7.31107 -3.44249 0
M  V30 2905 H 271.153 5.49636 -1.90764 0
M  V30 2906 H 270.033 7.02313 -3.48893 0
M  V30 2907 N 267.536 -0.106894 1.57237 0
M  V30 2908 C 268.484 -1.14944 2.02215 0
M  V30 2909 C 269.478 -1.42167 0.92114 0
M  V30 2910 O 270.684 -1.41987 1.10634 0
M  V30 2911 H 267.059 -0.387841 0.64427 0
M  V30 2912 H 269.03 -0.743683 2.88984 0
M  V30 2913 C 267.779 -2.4647 2.4525 0
M  V30 2914 H 267.102 -2.26363 3.29545 0
M  V30 2915 H 268.542 -3.17948 2.80508 0
M  V30 2916 C 267.001 -3.09921 1.321 0
M  V30 2917 O 267.531 -3.9651 0.643622 0
M  V30 2918 N 265.737 -2.69986 1.07497 0
M  V30 2919 H 265.284 -1.99667 1.62761 0
M  V30 2920 H 265.242 -3.12769 0.319876 0
M  V30 2921 N 269.014 -1.53014 -0.377408 0
M  V30 2922 C 270.261 -1.68623 -1.12128 0
M  V30 2923 C 270.589 -0.431997 -1.89642 0
M  V30 2924 O 269.844 0.585855 -1.86725 0
M  V30 2925 C 270.143 -2.87982 -2.11663 0
M  V30 2926 C 269.809 -4.24964 -1.50719 0
M  V30 2927 C 268.471 -4.62217 -1.33825 0
M  V30 2928 C 270.823 -5.10199 -1.06519 0
M  V30 2929 C 268.151 -5.82352 -0.712963 0
M  V30 2930 C 270.503 -6.30969 -0.453955 0
M  V30 2931 C 269.167 -6.66944 -0.272411 0
M  V30 2932 H 268.437 -0.617034 -0.410305 0
M  V30 2933 H 271.084 -1.8718 -0.404484 0
M  V30 2934 H 269.389 -2.63889 -2.89603 0
M  V30 2935 H 271.086 -2.97253 -2.6915 0
M  V30 2936 H 267.676 -3.95626 -1.64858 0
M  V30 2937 H 271.86 -4.81978 -1.18368 0
M  V30 2938 H 267.116 -6.08824 -0.560611 0
M  V30 2939 H 271.29 -6.96324 -0.103217 0
M  V30 2940 H 268.917 -7.59898 0.214181 0
M  V30 2941 N 270.492 0.636531 -1.44174 0
M  V30 2942 C 271.402 1.77754 -1.53103 0
M  V30 2943 C 272.418 1.68928 -0.417034 0
M  V30 2944 O 273.594 1.89801 -0.6736 0
M  V30 2945 C 270.659 3.14115 -1.46741 0
M  V30 2946 C 269.72 3.34612 -2.68948 0
M  V30 2947 C 268.953 4.64467 -2.6288 0
M  V30 2948 O 269.176 5.44919 -1.68581 0
M  V30 2949 O 268.11 4.87049 -3.53648 0
M  V30 2950 H 271.936 1.73174 -2.49489 0
M  V30 2951 H 269.521 0.79709 -1.2636 0
M  V30 2952 H 271.403 3.95412 -1.45696 0
M  V30 2953 H 270.078 3.19249 -0.534975 0
M  V30 2954 H 268.985 2.53014 -2.75562 0
M  V30 2955 H 270.318 3.34336 -3.61221 0
M  V30 2956 N 271.97 1.30982 0.876444 0
M  V30 2957 C 272.917 1.18085 1.98304 0
M  V30 2958 C 273.887 0.0682263 1.6596 0
M  V30 2959 O 275.072 0.239937 1.89285 0
M  V30 2960 C 272.212 0.887475 3.33493 0
M  V30 2961 C 271.325 2.08281 3.78475 0
M  V30 2962 C 270.46 1.72678 5.0235 0
M  V30 2963 C 269.499 2.88657 5.39762 0
M  V30 2964 N 268.636 2.53292 6.54819 0
M  V30 2965 H 273.476 2.1275 2.08666 0
M  V30 2966 H 271.013 1.05839 1.02159 0
M  V30 2967 H 272.971 0.697961 4.1132 0
M  V30 2968 H 271.601 -0.022315 3.22792 0
M  V30 2969 H 270.653 2.3833 2.96484 0
M  V30 2970 H 271.965 2.95108 4.02135 0
M  V30 2971 H 271.119 1.50151 5.87826 0
M  V30 2972 H 269.858 0.830327 4.8058 0
M  V30 2973 H 268.863 3.1184 4.52809 0
M  V30 2974 H 270.088 3.79002 5.63502 0
M  V30 2975 H 268.034 1.66163 6.34607 0
M  V30 2976 H 267.951 3.3365 6.7839 0
M  V30 2977 H 269.219 2.34143 7.43503 0
M  V30 2978 N 273.449 -1.08991 1.13837 0
M  V30 2979 C 274.696 -1.81258 0.902882 0
M  V30 2980 C 275.024 -1.85936 -0.570803 0
M  V30 2981 O 274.279 -1.3267 -1.43865 0
M  V30 2982 C 274.578 -3.27042 1.44147 0
M  V30 2983 C 274.244 -3.4249 2.93276 0
M  V30 2984 C 272.906 -3.46414 3.33992 0
M  V30 2985 C 275.258 -3.4666 3.892 0
M  V30 2986 C 272.586 -3.52091 4.69307 0
M  V30 2987 C 274.938 -3.53872 5.24364 0
M  V30 2988 C 273.602 -3.56066 5.646 0
M  V30 2989 H 272.872 -0.663268 0.330388 0
M  V30 2990 H 275.519 -1.28368 1.42105 0
M  V30 2991 H 273.824 -3.82599 0.844097 0
M  V30 2992 H 275.521 -3.81499 1.23528 0
M  V30 2993 H 272.111 -3.40124 2.60794 0
M  V30 2994 H 276.295 -3.42865 3.58828 0
M  V30 2995 H 271.551 -3.52079 4.9985 0
M  V30 2996 H 275.725 -3.56043 5.98503 0
M  V30 2997 H 273.352 -3.60218 6.69438 0
M  V30 2998 N 274.927 -0.932562 -1.27047 0
M  V30 2999 C 275.857 -0.452902 -2.29066 0
M  V30 3000 C 276.838 0.489338 -1.62909 0
M  V30 3001 O 278.023 0.393046 -1.90181 0
M  V30 3002 C 275.153 0.290698 -3.46081 0
M  V30 3003 C 274.107 -0.564168 -4.24265 0
M  V30 3004 C 273.433 0.308886 -5.33807 0
M  V30 3005 C 274.733 -1.83112 -4.89149 0
M  V30 3006 H 276.427 -1.30552 -2.69437 0
M  V30 3007 H 273.973 -0.629201 -1.29526 0
M  V30 3008 H 275.926 0.637233 -4.16554 0
M  V30 3009 H 274.65 1.17738 -3.0464 0
M  V30 3010 H 273.309 -0.893477 -3.55545 0
M  V30 3011 H 272.957 1.19467 -4.88607 0
M  V30 3012 H 272.657 -0.259633 -5.87026 0
M  V30 3013 H 274.181 0.650884 -6.07121 0
M  V30 3014 H 275.595 -1.55236 -5.51883 0
M  V30 3015 H 273.992 -2.34353 -5.52448 0
M  V30 3016 H 275.062 -2.54772 -4.12576 0
M  V30 3017 N 276.405 1.4127 -0.698611 0
M  V30 3018 C 277.651 2.01478 -0.231207 0
M  V30 3019 C 277.984 1.55215 1.16713 0
M  V30 3020 O 277.259 0.764672 1.78838 0
M  V30 3021 C 277.542 3.58912 -0.292281 0
M  V30 3022 C 277.395 4.15293 -1.72778 0
M  V30 3023 C 278.714 4.38736 0.346194 0
M  V30 3024 H 275.833 0.732025 -0.0854878 0
M  V30 3025 H 278.475 1.67977 -0.887906 0
M  V30 3026 H 276.625 3.87582 0.26686 0
M  V30 3027 H 278.297 3.97486 -2.341 0
M  V30 3028 H 276.54 3.7022 -2.26096 0
M  V30 3029 H 277.211 5.24452 -1.72202 0
M  V30 3030 H 279.687 4.15897 -0.130035 0
M  V30 3031 H 278.563 5.48221 0.272932 0
M  V30 3032 H 278.824 4.18425 1.42734 0
M  V30 3033 N 277.883 0.443576 1.51229 0
M  V30 3034 C 279.131 -0.120557 2.0174 0
M  V30 3035 C 279.452 -1.42665 1.32935 0
M  V30 3036 O 278.722 -1.9028 0.465866 0
M  V30 3037 H 277.302 -0.0475426 0.745486 0
M  V30 3038 H 279.964 0.587711 1.85828 0
M  V30 3039 H 279.06 -0.291972 3.10731 0
M  V30 3040 N 279.361 -1.56624 0.175154 0
M  V30 3041 C 280.772 -1.83561 -0.340916 0
M  V30 3042 C 281.123 -1.09511 -1.62794 0
M  V30 3043 O 280.248 -0.349389 -2.13561 0
M  V30 3044 C 280.843 -3.32979 -0.625313 0
M  V30 3045 C 279.402 -3.60399 -1.08581 0
M  V30 3046 C 278.549 -2.77024 -0.123722 0
M  V30 3047 H 281.5 -1.53593 0.399344 0
M  V30 3048 H 281.521 -3.50666 -1.47694 0
M  V30 3049 H 281.033 -3.86847 0.311575 0
M  V30 3050 H 279.134 -3.11945 -2.03767 0
M  V30 3051 H 279.247 -4.68711 -0.992317 0
M  V30 3052 H 277.611 -2.46993 -0.621821 0
M  V30 3053 H 278.394 -3.33674 0.807256 0
M  V30 3054 N 280.839 0.0985539 -1.57292 0
M  V30 3055 C 282.116 0.834155 -1.76921 0
M  V30 3056 C 282.496 1.97101 -0.755928 0
M  V30 3057 O 281.844 2.27474 0.216245 0
M  V30 3058 C 282.054 1.33194 -3.22584 0
M  V30 3059 C 283.402 1.77611 -3.85668 0
M  V30 3060 O 284.426 1.42825 -3.26312 0
M  V30 3061 O 283.285 2.4192 -4.90038 0
M  V30 3062 H 280.379 0.397628 -0.725135 0
M  V30 3063 H 282.925 0.0807044 -1.69508 0
M  V30 3064 H 281.697 0.517248 -3.87866 0
M  V30 3065 H 281.32 2.1475 -3.34616 0
M  V30 3066 N 282.317 1.53212 0.369288 0
M  V30 3067 C 283.565 1.68881 1.11012 0
M  V30 3068 C 283.886 0.441285 1.89941 0
M  V30 3069 O 283.156 -0.544623 1.88177 0
M  V30 3070 H 281.736 0.622569 0.412816 0
M  V30 3071 H 284.398 1.90391 0.416802 0
M  V30 3072 H 283.494 2.54822 1.80201 0
M  V30 3073 N 283.795 -0.628877 1.44509 0
M  V30 3074 C 285.044 -1.38437 1.4669 0
M  V30 3075 C 285.357 -1.95322 0.104272 0
M  V30 3076 O 286.563 -2.715 0.00362163 0
M  V30 3077 C 285.019 -2.50659 2.5826 0
M  V30 3078 C 284.627 -2.00277 4.0074 0
M  V30 3079 C 286.371 -3.27844 2.69664 0
M  V30 3080 C 284.278 -3.09854 5.0373 0
M  V30 3081 H 283.208 -0.520245 0.545766 0
M  V30 3082 H 285.859 -0.676313 1.70582 0
M  V30 3083 H 284.241 -3.2405 2.27612 0
M  V30 3084 H 285.415 -1.33736 4.40966 0
M  V30 3085 H 283.73 -1.35901 3.93599 0
M  V30 3086 H 286.327 -4.09534 3.43781 0
M  V30 3087 H 286.67 -3.77471 1.75559 0
M  V30 3088 H 287.203 -2.61543 2.99733 0
M  V30 3089 H 283.942 -2.65168 5.99472 0
M  V30 3090 H 283.462 -3.7503 4.68095 0
M  V30 3091 H 285.141 -3.74592 5.27532 0
M  V30 3092 N 285.273 -1.31445 -0.869486 0
M  V30 3093 C 286.684 -1.19042 -1.43826 0
M  V30 3094 C 287.035 0.202919 -1.95148 0
M  V30 3095 O 286.16 1.10071 -1.86315 0
M  V30 3096 C 286.755 -2.15499 -2.6143 0
M  V30 3097 C 285.314 -2.07028 -3.14351 0
M  V30 3098 C 284.461 -2.04701 -1.87063 0
M  V30 3099 H 287.412 -1.43489 -0.677984 0
M  V30 3100 H 287.433 -1.74488 -3.38134 0
M  V30 3101 H 286.945 -3.16899 -2.24046 0
M  V30 3102 H 285.046 -1.08825 -3.56354 0
M  V30 3103 H 285.159 -2.96157 -3.766 0
M  V30 3104 H 283.523 -1.49724 -2.06046 0
M  V30 3105 H 284.306 -3.07857 -1.51917 0
M  V30 3106 N 286.751 1.08385 -1.14413 0
M  V30 3107 C 287.997 1.81044 -0.913834 0
M  V30 3108 C 288.33 1.86004 0.558209 0
M  V30 3109 O 287.605 1.33606 1.4135 0
M  V30 3110 C 287.888 3.26648 -1.51569 0
M  V30 3111 C 287.741 3.29895 -3.0576 0
M  V30 3112 C 289.06 4.23629 -1.19273 0
M  V30 3113 H 286.179 0.65727 -0.333414 0
M  V30 3114 H 288.821 1.26896 -1.41412 0
M  V30 3115 H 286.971 3.72889 -1.09023 0
M  V30 3116 H 288.643 2.91977 -3.57137 0
M  V30 3117 H 286.886 2.69163 -3.40197 0
M  V30 3118 H 287.557 4.32516 -3.42977 0
M  V30 3119 H 290.033 3.85727 -1.56057 0
M  V30 3120 H 288.909 5.23822 -1.64017 0
M  V30 3121 H 289.17 4.41968 -0.108068 0
M  V30 3122 N 288.23 0.939286 1.26551 0
M  V30 3123 C 289.163 0.391702 2.24813 0
M  V30 3124 C 290.141 -0.518421 1.54114 0
M  V30 3125 O 291.325 -0.456299 1.82894 0
M  V30 3126 C 288.452 -0.437382 3.35864 0
M  V30 3127 C 287.498 0.410946 4.24516 0
M  V30 3128 S 288.331 1.83372 5.03125 0
M  V30 3129 C 289.487 1.01264 6.17654 0
M  V30 3130 H 289.72 1.22448 2.70913 0
M  V30 3131 H 287.253 0.742269 1.35387 0
M  V30 3132 H 289.211 -0.909837 4.0029 0
M  V30 3133 H 287.872 -1.24482 2.8838 0
M  V30 3134 H 287.065 -0.224191 5.03501 0
M  V30 3135 H 286.667 0.818014 3.64945 0
M  V30 3136 H 288.959 0.254023 6.77024 0
M  V30 3137 H 289.902 1.77589 6.85469 0
M  V30 3138 H 290.31 0.549532 5.61819 0
M  V30 3139 N 289.708 -1.40897 0.706093 0
M  V30 3140 C 291.124 -1.55042 0.37869 0
M  V30 3141 C 291.324 -1.67944 -1.11342 0
M  V30 3142 O 290.38 -1.66372 -1.89938 0
M  V30 3143 C 291.693 -2.78398 1.13643 0
M  V30 3144 C 293.241 -2.92206 1.12181 0
M  V30 3145 C 293.716 -4.18463 1.86152 0
M  V30 3146 N 295.207 -4.25443 1.83173 0
M  V30 3147 C 295.942 -5.2202 2.37239 0
M  V30 3148 N 295.438 -6.24563 2.99821 0
M  V30 3149 N 297.231 -5.14033 2.27435 0
M  V30 3150 H 289.382 -1.30769 1.67372 0
M  V30 3151 H 291.645 -0.631653 0.706907 0
M  V30 3152 H 291.351 -2.7511 2.19106 0
M  V30 3153 H 291.225 -3.70228 0.721853 0
M  V30 3154 H 293.612 -2.95004 0.0754171 0
M  V30 3155 H 293.693 -2.01521 1.57554 0
M  V30 3156 H 293.337 -4.16427 2.90776 0
M  V30 3157 H 293.267 -5.08141 1.38206 0
M  V30 3158 H 295.758 -3.51976 1.37556 0
M  V30 3159 H 296.071 -6.94665 3.38616 0
M  V30 3160 H 294.416 -6.25035 3.03902 0
M  V30 3161 H 297.607 -4.3285 1.78208 0
M  V30 3162 H 297.78 -5.89129 2.69873 0
M  V30 3163 N 291.186 -0.45159 -1.50991 0
M  V30 3164 C 292.432 0.102439 -2.03142 0
M  V30 3165 C 292.787 1.39138 -1.32884 0
M  V30 3166 O 292.08 1.86493 -0.439438 0
M  V30 3167 C 292.274 0.361728 -3.55565 0
M  V30 3168 C 292.103 -0.900535 -4.40591 0
M  V30 3169 C 290.873 -1.43821 -4.844 0
M  V30 3170 C 293.071 -1.79063 -4.82121 0
M  V30 3171 N 291.053 -2.65153 -5.53685 0
M  V30 3172 C 292.424 -2.84991 -5.50618 0
M  V30 3173 C 294.479 -1.80334 -4.64095 0
M  V30 3174 C 293.182 -3.92155 -6.02998 0
M  V30 3175 C 295.208 -2.86442 -5.17402 0
M  V30 3176 C 294.57 -3.9109 -5.85857 0
M  V30 3177 H 290.669 -0.00204537 -0.781997 0
M  V30 3178 H 293.253 -0.615446 -1.84717 0
M  V30 3179 H 291.424 1.04865 -3.73976 0
M  V30 3180 H 293.156 0.908372 -3.94374 0
M  V30 3181 H 289.911 -0.990117 -4.63135 0
M  V30 3182 H 290.335 -3.26717 -5.92946 0
M  V30 3183 H 294.977 -1.00753 -4.1062 0
M  V30 3184 H 292.695 -4.72565 -6.55521 0
M  V30 3185 H 296.281 -2.88386 -5.05297 0
M  V30 3186 H 295.161 -4.71845 -6.26364 0
M  V30 3187 N 292.664 1.56529 -0.183458 0
M  V30 3188 C 293.889 2.02064 0.467428 0
M  V30 3189 C 294.314 1.06282 1.55196 0
M  V30 3190 O 293.672 0.0443565 1.81246 0
M  V30 3191 C 293.72 3.46122 1.01153 0
M  V30 3192 O 292.824 3.53437 2.12499 0
M  V30 3193 H 292.165 0.654726 0.110588 0
M  V30 3194 H 294.695 2.02521 -0.290917 0
M  V30 3195 H 294.705 3.85676 1.33108 0
M  V30 3196 H 293.38 4.15331 0.217533 0
M  V30 3197 H 291.957 3.2575 1.81497 0
M  V30 3198 N 294.142 -0.090211 1.57342 0
M  V30 3199 C 295.092 -1.11557 1.98844 0
M  V30 3200 C 296.076 -1.35503 0.867624 0
M  V30 3201 O 297.268 -1.36113 1.13148 0
M  V30 3202 C 294.397 -2.43446 2.42051 0
M  V30 3203 C 293.483 -2.22853 3.60828 0
M  V30 3204 N 293.874 -1.72141 4.75606 0
M  V30 3205 C 292.172 -2.53401 3.67021 0
M  V30 3206 C 292.873 -1.65932 5.57531 0
M  V30 3207 N 291.849 -2.11323 5.00843 0
M  V30 3208 H 295.651 -0.716499 2.85032 0
M  V30 3209 H 293.165 -0.297567 1.59651 0
M  V30 3210 H 295.162 -3.17644 2.70014 0
M  V30 3211 H 293.822 -2.84087 1.57241 0
M  V30 3212 H 294.833 -1.41268 4.98261 0
M  V30 3213 H 291.51 -2.97532 2.92884 0
M  V30 3214 H 292.9 -1.27733 6.59647 0
M  V30 3215 N 295.62 -1.53406 -0.361157 0
M  V30 3216 C 297.036 -1.43277 -0.703124 0
M  V30 3217 C 297.236 -0.575384 -1.9311 0
M  V30 3218 O 296.292 -0.0595362 -2.5243 0
M  V30 3219 C 297.605 -2.8653 -0.9122 0
M  V30 3220 C 299.153 -2.96191 -1.01193 0
M  V30 3221 C 299.628 -4.40514 -1.25345 0
M  V30 3222 N 301.119 -4.43962 -1.32105 0
M  V30 3223 C 301.854 -5.52746 -1.5251 0
M  V30 3224 N 301.35 -6.71567 -1.70203 0
M  V30 3225 N 303.143 -5.40331 -1.54916 0
M  V30 3226 H 295.294 -2.07654 0.446475 0
M  V30 3227 H 297.557 -0.937944 0.137715 0
M  V30 3228 H 297.263 -3.51605 -0.0816414 0
M  V30 3229 H 297.137 -3.30441 -1.81903 0
M  V30 3230 H 299.524 -2.31266 -1.83303 0
M  V30 3231 H 299.605 -2.55667 -0.0823929 0
M  V30 3232 H 299.249 -5.06014 -0.437346 0
M  V30 3233 H 299.179 -4.78614 -2.19627 0
M  V30 3234 H 301.67 -3.58332 -1.20028 0
M  V30 3235 H 301.983 -7.50241 -1.85359 0
M  V30 3236 H 300.328 -6.74545 -1.67373 0
M  V30 3237 H 303.519 -4.46465 -1.40663 0
M  V30 3238 H 303.692 -6.25173 -1.70477 0
M  V30 3239 N 297.098 0.621204 -1.44841 0
M  V30 3240 C 298.061 1.71459 -1.521 0
M  V30 3241 C 299.061 1.55696 -0.401933 0
M  V30 3242 O 300.251 1.61011 -0.664925 0
M  V30 3243 C 297.383 3.10624 -1.40447 0
M  V30 3244 H 298.576 1.66394 -2.49506 0
M  V30 3245 H 296.129 0.835745 -1.3208 0
M  V30 3246 H 296.864 3.21277 -0.441737 0
M  V30 3247 H 296.649 3.23473 -2.21602 0
M  V30 3248 H 298.139 3.90293 -1.4853 0
M  V30 3249 N 298.576 1.31904 0.862503 0
M  V30 3250 C 299.804 1.24998 1.64873 0
M  V30 3251 C 300.219 -0.183425 1.87907 0
M  V30 3252 O 299.576 -1.11794 1.44251 0
M  V30 3253 C 299.627 1.99829 3.01248 0
M  V30 3254 O 299.348 3.37575 2.79239 0
M  V30 3255 C 300.849 1.99852 3.95694 0
M  V30 3256 H 298.069 0.431599 0.513773 0
M  V30 3257 H 300.613 1.73901 1.07604 0
M  V30 3258 H 298.768 1.54668 3.55185 0
M  V30 3259 H 299.182 3.75776 3.65914 0
M  V30 3260 H 300.656 2.56709 4.88676 0
M  V30 3261 H 301.133 0.982852 4.28062 0
M  V30 3262 H 301.739 2.44926 3.47694 0
M  V30 3263 N 300.054 -1.07777 1.14986 0
M  V30 3264 C 301.3 -1.80557 0.923422 0
M  V30 3265 C 301.633 -1.86298 -0.548337 0
M  V30 3266 O 300.908 -1.34354 -1.40639 0
M  V30 3267 C 301.191 -3.25839 1.53299 0
M  V30 3268 C 301.044 -3.28269 3.07505 0
M  V30 3269 C 302.363 -4.22991 1.21518 0
M  V30 3270 H 299.482 -0.655493 0.336894 0
M  V30 3271 H 302.124 -1.26144 1.42083 0
M  V30 3272 H 300.274 -3.72306 1.10999 0
M  V30 3273 H 301.946 -2.90079 3.58681 0
M  V30 3274 H 300.189 -2.67355 3.4162 0
M  V30 3275 H 300.86 -4.30691 3.45266 0
M  V30 3276 H 303.336 -3.84894 1.581 0
M  V30 3277 H 302.212 -5.22945 1.66793 0
M  V30 3278 H 302.473 -4.41904 0.131505 0
M  V30 3279 N 301.532 -0.945985 -1.26051 0
M  V30 3280 C 302.757 -0.612525 -1.98149 0
M  V30 3281 C 303.182 0.806623 -1.69927 0
M  V30 3282 O 302.54 1.54411 -0.950108 0
M  V30 3283 C 302.588 -0.866981 -3.50023 0
M  V30 3284 O 301.692 0.0585333 -4.12358 0
M  V30 3285 H 301.033 -0.23379 -0.621481 0
M  V30 3286 H 303.563 -1.27023 -1.60395 0
M  V30 3287 H 303.573 -0.789792 -4.00283 0
M  V30 3288 H 302.248 -1.90135 -3.69894 0
M  V30 3289 H 300.825 -0.0701241 -3.72834 0
M  V30 3290 N 303.011 1.40521 -0.713556 0
M  V30 3291 C 304.236 2.05759 -0.26035 0
M  V30 3292 C 304.661 1.53403 1.08854 0
M  V30 3293 O 304.019 0.668535 1.68524 0
M  V30 3294 C 304.067 3.59745 -0.248122 0
M  V30 3295 O 303.171 4.05123 0.77131 0
M  V30 3296 H 302.512 0.652564 -0.122703 0
M  V30 3297 H 305.042 1.79958 -0.973467 0
M  V30 3298 H 305.052 4.07911 -0.0851129 0
M  V30 3299 H 303.727 3.97218 -1.2325 0
M  V30 3300 H 302.304 3.68422 0.57619 0
M  V30 3301 N 304.489 0.459591 1.5075 0
M  V30 3302 C 305.735 -0.0994966 2.02556 0
M  V30 3303 C 306.068 -1.40399 1.3417 0
M  V30 3304 O 305.343 -1.88892 0.463683 0
M  V30 3305 C 305.626 -0.295242 3.58888 0
M  V30 3306 C 305.479 1.02947 4.37861 0
M  V30 3307 C 306.798 -1.05502 4.27267 0
M  V30 3308 H 303.917 -0.034686 0.736183 0
M  V30 3309 H 306.559 0.602938 1.8018 0
M  V30 3310 H 304.709 -0.893563 3.78084 0
M  V30 3311 H 306.381 1.66348 4.30263 0
M  V30 3312 H 304.624 1.62885 4.02058 0
M  V30 3313 H 305.295 0.846281 5.45474 0
M  V30 3314 H 307.771 -0.547993 4.12476 0
M  V30 3315 H 306.647 -1.16077 5.36486 0
M  V30 3316 H 306.908 -2.08875 3.89645 0
M  V30 3317 N 305.967 -1.56429 0.191757 0
M  V30 3318 C 306.914 -2.18936 -0.730454 0
M  V30 3319 C 307.884 -1.13557 -1.21219 0
M  V30 3320 O 309.069 -1.41794 -1.27668 0
M  V30 3321 C 306.209 -2.85013 -1.9458 0
M  V30 3322 C 305.322 -4.04909 -1.50574 0
M  V30 3323 C 304.457 -4.58853 -2.67634 0
M  V30 3324 C 303.496 -5.71114 -2.20217 0
M  V30 3325 N 302.633 -6.19478 -3.30442 0
M  V30 3326 H 307.473 -2.97389 -0.190664 0
M  V30 3327 H 305.01 -1.46869 -0.0823694 0
M  V30 3328 H 306.968 -3.21492 -2.65893 0
M  V30 3329 H 305.598 -2.09129 -2.45896 0
M  V30 3330 H 304.65 -3.74115 -0.688605 0
M  V30 3331 H 305.962 -4.86113 -1.11784 0
M  V30 3332 H 305.116 -4.97619 -3.47074 0
M  V30 3333 H 303.855 -3.76749 -3.09696 0
M  V30 3334 H 302.86 -5.31879 -1.3923 0
M  V30 3335 H 304.085 -6.55033 -1.79189 0
M  V30 3336 H 302.031 -5.40297 -3.72041 0
M  V30 3337 H 301.948 -6.95725 -2.9581 0
M  V30 3338 H 303.216 -6.62898 -4.10106 0
M  V30 3339 N 307.445 0.0818655 -1.57387 0
M  V30 3340 C 308.673 0.796108 -1.9097 0
M  V30 3341 C 309.088 1.71626 -0.786757 0
M  V30 3342 O 308.445 1.80908 0.240513 0
M  V30 3343 C 308.496 1.59829 -3.24248 0
M  V30 3344 O 308.217 0.715131 -4.32224 0
M  V30 3345 C 309.718 2.41442 -3.7178 0
M  V30 3346 H 306.938 0.22691 -0.631469 0
M  V30 3347 H 309.482 0.0551439 -2.04426 0
M  V30 3348 H 307.637 2.29163 -3.12351 0
M  V30 3349 H 308.051 1.27205 -5.08841 0
M  V30 3350 H 309.525 2.932 -4.67694 0
M  V30 3351 H 310.002 3.2051 -3.00283 0
M  V30 3352 H 310.608 1.77283 -3.86589 0
M  V30 3353 N 308.923 1.53595 0.353017 0
M  V30 3354 C 310.2 1.61002 1.11075 0
M  V30 3355 C 310.58 0.425356 2.0677 0
M  V30 3356 O 309.928 -0.583267 2.2093 0
M  V30 3357 C 310.138 2.96631 1.83877 0
M  V30 3358 C 311.486 3.51653 2.37961 0
M  V30 3359 O 312.51 2.98743 1.93987 0
M  V30 3360 O 311.369 4.44177 3.18386 0
M  V30 3361 H 308.463 0.650825 0.510251 0
M  V30 3362 H 311.009 1.6594 0.35527 0
M  V30 3363 H 309.781 3.74293 1.14108 0
M  V30 3364 H 309.404 2.95242 2.66304 0
M  V30 3365 N 310.401 -0.613514 1.45168 0
M  V30 3366 C 311.65 -1.36874 1.4815 0
M  V30 3367 C 311.963 -1.952 0.124982 0
M  V30 3368 O 313.169 -2.71481 0.0324176 0
M  V30 3369 C 311.625 -2.47905 2.60904 0
M  V30 3370 C 311.233 -1.96016 4.02842 0
M  V30 3371 C 312.977 -3.24965 2.73126 0
M  V30 3372 C 310.884 -3.04494 5.06988 0
M  V30 3373 H 309.814 -0.514428 0.551253 0
M  V30 3374 H 312.465 -0.658182 1.7129 0
M  V30 3375 H 310.847 -3.21618 2.31037 0
M  V30 3376 H 312.021 -1.29051 4.4236 0
M  V30 3377 H 310.336 -1.31719 3.95018 0
M  V30 3378 H 312.933 -4.05865 3.48106 0
M  V30 3379 H 313.276 -3.75588 1.79553 0
M  V30 3380 H 313.809 -2.5835 3.0249 0
M  V30 3381 H 310.548 -2.58795 6.0225 0
M  V30 3382 H 310.068 -3.70044 4.72046 0
M  V30 3383 H 311.747 -3.68976 5.31475 0
M  V30 3384 N 311.879 -1.3236 -0.855495 0
M  V30 3385 C 312.809 -1.23833 -1.97958 0
M  V30 3386 C 313.79 -0.122361 -1.69659 0
M  V30 3387 O 314.975 -0.30939 -1.9172 0
M  V30 3388 C 312.105 -0.959772 -3.33775 0
M  V30 3389 C 311.059 -2.03689 -3.76424 0
M  V30 3390 C 310.385 -1.61075 -5.09862 0
M  V30 3391 C 311.685 -3.4518 -3.9198 0
M  V30 3392 H 313.379 -2.1788 -2.0535 0
M  V30 3393 H 310.925 -1.04891 -0.986605 0
M  V30 3394 H 312.878 -0.886678 -4.11966 0
M  V30 3395 H 311.602 0.0163404 -3.26596 0
M  V30 3396 H 310.261 -2.10012 -3.00484 0
M  V30 3397 H 309.909 -0.622107 -4.99138 0
M  V30 3398 H 309.609 -2.33143 -5.39368 0
M  V30 3399 H 311.133 -1.55201 -5.90546 0
M  V30 3400 H 312.547 -3.4145 -4.60526 0
M  V30 3401 H 310.944 -4.1559 -4.32903 0
M  V30 3402 H 312.014 -3.84903 -2.94919 0
M  V30 3403 N 313.357 1.07166 -1.15556 0
M  V30 3404 C 314.32 2.12589 -0.856644 0
M  V30 3405 C 315.32 1.6015 0.14444 0
M  V30 3406 O 316.51 1.7399 -0.0854163 0
M  V30 3407 C 313.642 3.39753 -0.279405 0
M  V30 3408 H 314.835 2.40539 -1.79112 0
M  V30 3409 H 312.388 1.23086 -0.963298 0
M  V30 3410 H 313.123 3.17447 0.663174 0
M  V30 3411 H 312.908 3.79117 -1.00063 0
M  V30 3412 H 314.398 4.17507 -0.0879113 0
M  V30 3413 N 314.835 0.952656 1.25548 0
M  V30 3414 C 316.065 0.622592 1.96996 0
M  V30 3415 C 316.473 -0.809112 1.71026 0
M  V30 3416 O 315.816 -1.55258 0.981861 0
M  V30 3417 C 315.878 0.798946 3.5051 0
M  V30 3418 C 315.542 2.20744 4.00151 0
M  V30 3419 C 316.539 3.18394 4.11001 0
M  V30 3420 C 314.224 2.5311 4.33867 0
M  V30 3421 C 316.218 4.46504 4.54877 0
M  V30 3422 C 313.905 3.8145 4.7743 0
M  V30 3423 C 314.903 4.77959 4.87897 0
M  V30 3424 O 314.591 6.04012 5.30494 0
M  V30 3425 H 314.323 0.232503 0.634758 0
M  V30 3426 H 316.877 1.2789 1.60728 0
M  V30 3427 H 315.107 0.0854903 3.86605 0
M  V30 3428 H 316.796 0.47023 4.03167 0
M  V30 3429 H 317.562 2.94715 3.85186 0
M  V30 3430 H 313.441 1.78719 4.24948 0
M  V30 3431 H 316.985 5.21835 4.62962 0
M  V30 3432 H 312.882 4.04936 5.0269 0
M  V30 3433 H 313.65 6.0736 5.48685 0
M  V30 3434 N 316.313 -1.40141 0.720998 0
M  V30 3435 C 317.243 -2.33339 0.0867621 0
M  V30 3436 C 318.224 -1.53178 -0.739622 0
M  V30 3437 O 319.409 -1.81625 -0.687449 0
M  V30 3438 C 316.539 -3.37194 -0.831728 0
M  V30 3439 C 315.493 -4.27857 -0.110558 0
M  V30 3440 C 314.819 -5.22294 -1.14513 0
M  V30 3441 C 316.119 -5.11872 1.0385 0
M  V30 3442 H 317.813 -2.86626 0.865219 0
M  V30 3443 H 315.359 -1.37814 0.417516 0
M  V30 3444 H 317.312 -4.01335 -1.28485 0
M  V30 3445 H 316.036 -2.82314 -1.64214 0
M  V30 3446 H 314.695 -3.65176 0.322797 0
M  V30 3447 H 314.343 -4.63717 -1.94874 0
M  V30 3448 H 314.043 -5.83797 -0.667446 0
M  V30 3449 H 315.567 -5.89312 -1.59824 0
M  V30 3450 H 316.981 -5.69436 0.664482 0
M  V30 3451 H 315.378 -5.82445 1.4449 0
M  V30 3452 H 316.448 -4.4753 1.86668 0
M  V30 3453 N 317.792 -0.46758 -1.50504 0
M  V30 3454 C 318.739 0.328413 -2.28452 0
M  V30 3455 C 319.709 0.990313 -1.33349 0
M  V30 3456 O 320.894 1.00343 -1.62284 0
M  V30 3457 C 318.034 1.40648 -3.15138 0
M  V30 3458 C 317.147 0.759709 -4.25267 0
M  V30 3459 C 316.282 1.81537 -4.99217 0
M  V30 3460 C 315.321 1.14866 -6.01226 0
M  V30 3461 N 314.458 2.14702 -6.68467 0
M  V30 3462 H 319.298 -0.342603 -2.96024 0
M  V30 3463 H 316.835 -0.180801 -1.45985 0
M  V30 3464 H 318.793 2.04315 -3.63746 0
M  V30 3465 H 317.423 2.04671 -2.49619 0
M  V30 3466 H 316.475 0.0105671 -3.80399 0
M  V30 3467 H 317.787 0.233243 -4.98254 0
M  V30 3468 H 316.941 2.52793 -5.51526 0
M  V30 3469 H 315.68 2.37564 -4.25928 0
M  V30 3470 H 314.685 0.42171 -5.4818 0
M  V30 3471 H 315.91 0.595334 -6.76485 0
M  V30 3472 H 313.856 2.69752 -5.97972 0
M  V30 3473 H 313.773 1.6703 -7.37317 0
M  V30 3474 H 315.041 2.85348 -7.25394 0
M  V30 3475 N 319.27 1.56325 -0.20005 0
M  V30 3476 C 320.202 2.16555 0.750771 0
M  V30 3477 C 321.215 1.12871 1.1732 0
M  V30 3478 O 322.404 1.39943 1.10807 0
M  V30 3479 C 319.504 2.71684 2.02586 0
M  V30 3480 C 318.677 4.00321 1.76244 0
M  V30 3481 C 317.736 4.40227 2.88248 0
M  V30 3482 O 316.762 5.07552 2.57642 0
M  V30 3483 N 317.964 4.04138 4.16717 0
M  V30 3484 H 320.729 2.98772 0.235685 0
M  V30 3485 H 318.29 1.6189 -0.0182594 0
M  V30 3486 H 320.282 2.95363 2.76664 0
M  V30 3487 H 318.852 1.93893 2.45202 0
M  V30 3488 H 318.072 3.84723 0.85919 0
M  V30 3489 H 319.36 4.84279 1.56048 0
M  V30 3490 H 318.758 3.49993 4.44434 0
M  V30 3491 H 317.315 4.32756 4.87407 0
M  V30 3492 N 320.748 -0.0735177 1.57428 0
M  V30 3493 C 321.995 -0.772999 1.87166 0
M  V30 3494 C 322.323 -1.77665 0.791551 0
M  V30 3495 O 321.578 -1.94541 -0.212636 0
M  V30 3496 C 321.877 -1.51799 3.23561 0
M  V30 3497 C 321.543 -0.654484 4.46125 0
M  V30 3498 C 320.205 -0.416511 4.79394 0
M  V30 3499 C 322.557 -0.0555862 5.2117 0
M  V30 3500 C 319.885 0.429869 5.85123 0
M  V30 3501 C 322.237 0.778239 6.27795 0
M  V30 3502 C 320.901 1.0261 6.59566 0
M  V30 3503 H 320.171 -0.282861 0.684888 0
M  V30 3504 H 322.818 -0.0338272 1.9147 0
M  V30 3505 H 321.123 -2.32932 3.1504 0
M  V30 3506 H 322.82 -2.06397 3.43804 0
M  V30 3507 H 319.41 -0.850091 4.20085 0
M  V30 3508 H 323.594 -0.226558 4.95783 0
M  V30 3509 H 318.85 0.630665 6.08139 0
M  V30 3510 H 323.024 1.24906 6.85107 0
M  V30 3511 H 320.651 1.68371 7.4132 0
M  V30 3512 N 322.226 -1.5378 -0.344866 0
M  V30 3513 C 323.173 -1.81676 -1.42346 0
M  V30 3514 C 324.143 -0.662376 -1.52321 0
M  V30 3515 O 325.328 -0.906675 -1.67881 0
M  V30 3516 C 322.468 -2.03087 -2.79015 0
M  V30 3517 C 321.581 -3.30799 -2.77842 0
M  V30 3518 C 320.716 -3.42285 -4.0622 0
M  V30 3519 C 319.755 -4.6395 -3.9927 0
M  V30 3520 N 318.892 -4.72477 -5.19336 0
M  V30 3521 H 323.732 -2.73703 -1.17858 0
M  V30 3522 H 321.269 -1.35568 -0.570949 0
M  V30 3523 H 323.227 -2.1349 -3.58438 0
M  V30 3524 H 321.857 -1.14375 -3.01858 0
M  V30 3525 H 320.909 -3.29244 -1.90533 0
M  V30 3526 H 322.221 -4.20314 -2.68584 0
M  V30 3527 H 321.375 -3.52113 -4.94066 0
M  V30 3528 H 320.114 -2.50823 -4.18258 0
M  V30 3529 H 319.119 -4.54201 -3.09809 0
M  V30 3530 H 320.344 -5.56775 -3.88817 0
M  V30 3531 H 318.29 -3.83924 -5.3192 0
M  V30 3532 H 318.207 -5.55927 -5.12329 0
M  V30 3533 H 319.475 -4.86613 -6.08957 0
M  V30 3534 N 323.704 0.605807 -1.45491 0
M  V30 3535 C 324.932 1.39136 -1.5313 0
M  V30 3536 C 325.347 1.88082 -0.164507 0
M  V30 3537 O 324.704 1.62316 0.834247 0
M  V30 3538 C 324.755 2.59463 -2.51716 0
M  V30 3539 O 324.476 2.12551 -3.83084 0
M  V30 3540 C 325.977 3.52301 -2.6907 0
M  V30 3541 H 323.197 0.425849 -0.51855 0
M  V30 3542 H 325.741 0.73865 -1.90694 0
M  V30 3543 H 323.896 3.20772 -2.17219 0
M  V30 3544 H 324.31 2.90744 -4.36541 0
M  V30 3545 H 325.784 4.33271 -3.42024 0
M  V30 3546 H 326.261 4.02757 -1.75167 0
M  V30 3547 H 326.867 2.96845 -3.04571 0
M  V30 3548 N 325.182 1.32811 0.848464 0
M  V30 3549 C 326.129 1.22265 1.95755 0
M  V30 3550 C 327.099 0.103413 1.65778 0
M  V30 3551 O 328.284 0.280033 1.88734 0
M  V30 3552 C 325.424 0.958014 3.31536 0
M  V30 3553 C 324.537 2.16262 3.73971 0
M  V30 3554 C 323.672 1.83295 4.98575 0
M  V30 3555 C 322.711 3.00041 5.33518 0
M  V30 3556 N 321.848 2.67125 6.49299 0
M  V30 3557 H 326.688 2.17128 2.04107 0
M  V30 3558 H 324.225 1.07982 0.998913 0
M  V30 3559 H 326.183 0.785052 4.09747 0
M  V30 3560 H 324.813 0.046159 3.22767 0
M  V30 3561 H 323.865 2.44565 2.91362 0
M  V30 3562 H 325.177 3.03572 3.95785 0
M  V30 3563 H 324.331 1.62586 5.84509 0
M  V30 3564 H 323.07 0.932078 4.7871 0
M  V30 3565 H 322.075 3.21374 4.46093 0
M  V30 3566 H 323.3 3.90869 5.55336 0
M  V30 3567 H 321.246 1.79586 6.3094 0
M  V30 3568 H 321.163 3.47965 6.71161 0
M  V30 3569 H 322.431 2.49861 7.3837 0
M  V30 3570 O 326.699 -0.985968 1.2791 0
M  V30 3571 H 327.39 -1.60943 1.07783 0
M  V30 END ATOM
M  V30 BEGIN BOND
M  V30 END BOND
M  V30 END CTAB
M  END
$$$$
