drugbank_target|Q9UM07 Protein-arginine deiminase type-4 (DB00155; DB00207; DB00759; DB01082; DB07449)
 OpenBabel12092119473D

  0  0  0     0  0            999 V3000
M  V30 BEGIN CTAB
M  V30 COUNTS 10388 10515 0 0 0
M  V30 BEGIN ATOM
M  V30 1 H -0.908 1.98254 -0.117106 0
M  V30 2 N 0 1.576 0 0
M  V30 3 C 0.933 2.03868 1.02534 0
M  V30 4 C 1.911 0.928543 1.3348 0
M  V30 5 O 3.095 1.19667 1.45644 0
M  V30 6 C 0.222 2.43627 2.35294 0
M  V30 7 C -0.732 3.65373 2.2001 0
M  V30 8 S 0.101 5.13292 1.52614 0
M  V30 9 C 1.257 5.56322 2.86805 0
M  V30 10 H 1.49 2.90518 0.631377 0
M  V30 11 H -0.977 1.52953 0.210867 0
M  V30 12 H 0.981 2.67203 3.11629 0
M  V30 13 H -0.358 1.57376 2.7183 0
M  V30 14 H -1.165 3.90944 3.18086 0
M  V30 15 H -1.563 3.418 1.51819 0
M  V30 16 H 0.729 5.58782 3.83104 0
M  V30 17 H 1.672 6.56266 2.65933 0
M  V30 18 H 2.08 4.83886 2.90714 0
M  V30 19 N 1.4781 -0.272755 1.55222 0
M  V30 20 C 2.4411 -1.32041 1.87344 0
M  V30 21 C 3.4411 -1.42342 0.74803 0
M  V30 22 O 4.6311 -1.41488 1.0162 0
M  V30 23 C 1.7631 -2.70173 2.07893 0
M  V30 24 H 2.9561 -1.04789 2.80997 0
M  V30 25 H 0.5091 -0.51083 1.47717 0
M  V30 26 H 1.2441 -3.02605 1.16622 0
M  V30 27 H 1.0291 -2.64082 2.89833 0
M  V30 28 H 2.5191 -3.45869 2.34017 0
M  V30 29 N 2.9562 -1.48159 -0.537278 0
M  V30 30 C 3.8882 -1.58218 -1.65831 0
M  V30 31 C 4.9012 -0.466948 -1.5596 0
M  V30 32 O 6.0902 -0.73747 -1.62553 0
M  V30 33 C 3.1902 -1.48906 -3.04434 0
M  V30 34 C 2.3632 -2.75343 -3.3986 0
M  V30 35 C 1.4222 -2.59588 -4.57712 0
M  V30 36 O 0.4482 -3.33457 -4.61297 0
M  V30 37 N 1.6502 -1.68724 -5.55439 0
M  V30 38 H 4.4152 -2.54891 -1.57641 0
M  V30 39 H 1.9762 -1.4479 -0.724386 0
M  V30 40 H 3.9682 -1.36072 -3.81139 0
M  V30 41 H 2.5382 -0.602368 -3.06741 0
M  V30 42 H 1.7582 -3.02795 -2.52406 0
M  V30 43 H 3.0462 -3.5924 -3.60311 0
M  V30 44 H 2.4442 -1.07898 -5.55315 0
M  V30 45 H 1.0012 -1.61832 -6.3139 0
M  V30 46 N 4.4343 0.785586 -1.36625 0
M  V30 47 C 5.6823 1.54057 -1.30808 0
M  V30 48 C 6.0033 1.94683 0.111157 0
M  V30 49 O 5.2733 1.65241 1.05224 0
M  V30 50 H 3.8533 0.571354 -0.481211 0
M  V30 51 H 6.5153 0.935821 -1.70963 0
M  V30 52 H 5.6113 2.44637 -1.93801 0
M  V30 53 N 5.9124 1.20967 1.01018 0
M  V30 54 C 7.1404 1.04956 1.78303 0
M  V30 55 C 7.5554 -0.400915 1.84494 0
M  V30 56 O 6.9124 -1.27826 1.30257 0
M  V30 57 C 6.9634 1.63403 3.22462 0
M  V30 58 O 6.6844 3.02775 3.16637 0
M  V30 59 C 8.1854 1.52432 4.16268 0
M  V30 60 H 5.4054 0.368858 0.560522 0
M  V30 61 H 7.9494 1.60193 1.27116 0
M  V30 62 H 6.1044 1.1227 3.70775 0
M  V30 63 H 6.5184 3.30626 4.07169 0
M  V30 64 H 7.9924 1.98078 5.15237 0
M  V30 65 H 8.4694 0.477875 4.36592 0
M  V30 66 H 9.0754 2.02787 3.73841 0
M  V30 67 N 7.3905 -1.2043 1.01659 0
M  V30 68 C 8.3205 -2.25466 0.607226 0
M  V30 69 C 9.3015 -1.65853 -0.377716 0
M  V30 70 O 10.4865 -1.92409 -0.263149 0
M  V30 71 C 7.6165 -3.47256 -0.0552949 0
M  V30 72 C 6.5705 -4.19462 0.850632 0
M  V30 73 C 5.8965 -5.34673 0.0538859 0
M  V30 74 C 7.1965 -4.75603 2.15868 0
M  V30 75 H 8.8905 -2.59962 1.48526 0
M  V30 76 H 6.4365 -1.2496 0.715605 0
M  V30 77 H 8.3895 -4.19917 -0.353233 0
M  V30 78 H 7.1135 -3.11924 -0.968045 0
M  V30 79 H 5.7725 -3.48667 1.13257 0
M  V30 80 H 5.4205 -4.95585 -0.860514 0
M  V30 81 H 5.1205 -5.83913 0.657192 0
M  V30 82 H 6.6445 -6.10138 -0.237598 0
M  V30 83 H 8.0585 -5.40083 1.92311 0
M  V30 84 H 6.4555 -5.3528 2.71284 0
M  V30 85 H 7.5255 -3.94346 2.82169 0
M  V30 86 N 8.8686 -0.792821 -1.36206 0
M  V30 87 C 10.1176 -0.363353 -1.984 0
M  V30 88 C 10.4306 1.07172 -1.63626 0
M  V30 89 O 11.6366 1.60362 -2.19081 0
M  V30 90 C 10.0926 -0.59872 -3.54885 0
M  V30 91 C 9.7006 -2.04543 -3.9858 0
M  V30 92 C 11.4446 -0.233926 -4.23855 0
M  V30 93 C 9.3516 -2.22727 -5.47856 0
M  V30 94 H 8.2816 -0.13212 -0.742334 0
M  V30 95 H 10.9326 -0.974935 -1.55458 0
M  V30 96 H 9.3146 0.0826222 -3.95914 0
M  V30 97 H 10.4886 -2.76345 -3.68741 0
M  V30 98 H 8.8036 -2.36879 -3.42458 0
M  V30 99 H 11.4006 -0.348027 -5.33566 0
M  V30 100 H 11.7436 0.818351 -4.08177 0
M  V30 101 H 12.2766 -0.868639 -3.882 0
M  V30 102 H 9.0156 -3.2635 -5.68486 0
M  V30 103 H 8.5356 -1.55434 -5.7931 0
M  V30 104 H 10.2146 -2.03607 -6.14128 0
M  V30 105 N 10.3467 1.47872 -0.545128 0
M  V30 106 C 11.7627 1.5829 -0.204032 0
M  V30 107 C 11.9627 1.54529 1.29317 0
M  V30 108 O 11.0187 1.44232 2.07252 0
M  V30 109 C 12.3317 2.89304 -0.819987 0
M  V30 110 C 13.8797 3.02864 -0.790105 0
M  V30 111 C 14.3547 4.3656 -1.38491 0
M  V30 112 N 15.8457 4.43165 -1.34755 0
M  V30 113 C 16.5807 5.45153 -1.77753 0
M  V30 114 N 16.0767 6.54016 -2.2855 0
M  V30 115 N 17.8697 5.36125 -1.68897 0
M  V30 116 H 10.0207 1.4856 -1.51802 0
M  V30 117 H 12.2837 0.706305 -0.632327 0
M  V30 118 H 11.9897 2.97757 -1.87173 0
M  V30 119 H 11.8637 3.75957 -0.305915 0
M  V30 120 H 14.2507 2.94014 0.252913 0
M  V30 121 H 14.3317 2.17782 -1.34181 0
M  V30 122 H 13.9757 4.46164 -2.42693 0
M  V30 123 H 13.9057 5.20353 -0.808754 0
M  V30 124 H 16.3967 3.65083 -0.975855 0
M  V30 125 H 16.7097 7.27994 -2.59314 0
M  V30 126 H 15.0547 6.54938 -2.32553 0
M  V30 127 H 18.2457 4.49975 -1.28998 0
M  V30 128 H 18.4187 6.15472 -2.02726 0
M  V30 129 N 11.8248 0.280983 1.55075 0
M  V30 130 C 13.0708 -0.33461 2.00021 0
M  V30 131 C 13.4038 -1.55063 1.16915 0
M  V30 132 O 12.6788 -1.93006 0.240646 0
M  V30 133 C 12.9618 -0.711007 3.53011 0
M  V30 134 C 12.8148 0.512766 4.46868 0
M  V30 135 C 14.1338 -1.54522 4.12081 0
M  V30 136 H 11.2528 -0.120147 0.727141 0
M  V30 137 H 13.8948 0.389097 1.85973 0
M  V30 138 H 12.0448 -1.32761 3.65112 0
M  V30 139 H 13.7168 1.15131 4.46702 0
M  V30 140 H 11.9598 1.14975 4.18286 0
M  V30 141 H 12.6308 0.205556 5.51617 0
M  V30 142 H 15.1068 -1.02442 4.03293 0
M  V30 143 H 13.9828 -1.77739 5.19327 0
M  V30 144 H 14.2438 -2.52813 3.62682 0
M  V30 145 N 13.3029 -1.57598 0.00835791 0
M  V30 146 C 14.5309 -1.95214 -0.68549 0
M  V30 147 C 14.9459 -0.883706 -1.66841 0
M  V30 148 O 14.3029 0.136565 -1.81988 0
M  V30 149 C 14.3539 -3.32865 -1.41007 0
M  V30 150 O 14.0749 -4.35609 -0.466552 0
M  V30 151 C 15.5759 -3.84991 -2.19765 0
M  V30 152 H 12.7959 -0.643422 -0.190392 0
M  V30 153 H 15.3399 -2.04406 0.0619607 0
M  V30 154 H 13.4949 -3.24956 -2.10908 0
M  V30 155 H 13.9089 -5.15288 -0.978699 0
M  V30 156 H 15.3829 -4.8371 -2.65948 0
M  V30 157 H 15.8599 -3.18137 -3.02796 0
M  V30 158 H 16.4659 -3.96103 -1.54864 0
M  V30 159 N 14.781 0.264519 -1.55364 0
M  V30 160 C 16.192 0.834936 -1.6699 0
M  V30 161 C 16.543 1.86718 -0.602552 0
M  V30 162 O 15.668 2.14899 0.254425 0
M  V30 163 C 16.263 1.5212 -3.02729 0
M  V30 164 C 14.822 2.03954 -3.16354 0
M  V30 165 C 13.969 0.884498 -2.62815 0
M  V30 166 H 16.92 0.0406869 -1.58648 0
M  V30 167 H 16.941 2.38853 -2.96191 0
M  V30 168 H 16.453 0.769668 -3.80392 0
M  V30 169 H 14.554 2.82041 -2.43482 0
M  V30 170 H 14.667 2.24902 -4.23032 0
M  V30 171 H 13.031 1.2802 -2.20188 0
M  V30 172 H 13.814 0.14634 -3.42988 0
M  V30 173 N 16.2591 1.48442 0.529413 0
M  V30 174 C 17.1691 1.6569 1.66084 0
M  V30 175 C 18.1851 0.539432 1.65427 0
M  V30 176 O 19.3611 0.810572 1.84368 0
M  V30 177 C 16.4261 1.69315 3.02545 0
M  V30 178 C 15.4871 2.92694 3.14052 0
M  V30 179 C 14.7201 2.96137 4.44003 0
M  V30 180 O 14.9431 2.07973 5.31134 0
M  V30 181 O 13.8771 3.88312 4.59888 0
M  V30 182 H 17.7031 2.61483 1.54469 0
M  V30 183 H 15.2881 1.3185 0.702567 0
M  V30 184 H 17.1701 1.74217 3.83701 0
M  V30 185 H 15.8451 0.766966 3.14483 0
M  V30 186 H 14.7521 2.93324 2.32189 0
M  V30 187 H 16.0851 3.84699 3.0703 0
M  V30 188 N 17.7372 -0.778329 1.37039 0
M  V30 189 C 18.6692 -1.90034 1.2814 0
M  V30 190 C 19.6822 -1.61585 0.198558 0
M  V30 191 O 20.8712 -1.72625 0.454175 0
M  V30 192 C 17.9712 -3.25108 0.956968 0
M  V30 193 C 17.1442 -3.81253 2.14394 0
M  V30 194 C 16.2032 -4.94789 1.79082 0
M  V30 195 O 15.2292 -5.10721 2.51301 0
M  V30 196 N 16.4312 -5.75878 0.731043 0
M  V30 197 H 19.1962 -1.98186 2.24816 0
M  V30 198 H 16.7572 -0.957129 1.30578 0
M  V30 199 H 18.7492 -3.9857 0.701701 0
M  V30 200 H 17.3192 -3.125 0.0789812 0
M  V30 201 H 16.5392 -2.99647 2.56135 0
M  V30 202 H 17.8272 -4.15495 2.93668 0
M  V30 203 H 17.2252 -5.65547 0.131618 0
M  V30 204 H 15.7822 -6.49596 0.535622 0
M  V30 205 N 19.2153 -1.21501 -1.00376 0
M  V30 206 C 20.6263 -1.03146 -1.55621 0
M  V30 207 C 20.9773 0.408375 -1.91903 0
M  V30 208 O 20.1023 1.29177 -1.73616 0
M  V30 209 C 20.6973 -1.86612 -2.82775 0
M  V30 210 C 19.2563 -1.72586 -3.34501 0
M  V30 211 C 18.4033 -1.83747 -2.07683 0
M  V30 212 H 21.3543 -1.35505 -0.826081 0
M  V30 213 H 21.3753 -1.3771 -3.54706 0
M  V30 214 H 20.8873 -2.91399 -2.56336 0
M  V30 215 H 18.9883 -0.704877 -3.65872 0
M  V30 216 H 19.1013 -2.54623 -4.05837 0
M  V30 217 H 17.4653 -1.27069 -2.20739 0
M  V30 218 H 18.2483 -2.90044 -1.83655 0
M  V30 219 N 20.6934 1.19889 -1.02296 0
M  V30 220 C 21.9214 1.9339 -0.735399 0
M  V30 221 C 22.3364 1.75148 0.704887 0
M  V30 222 O 21.6934 1.06954 1.47875 0
M  V30 223 C 21.7444 3.45313 -1.06962 0
M  V30 224 O 21.4654 3.62964 -2.45334 0
M  V30 225 C 22.9664 4.35948 -0.804021 0
M  V30 226 H 20.1864 0.61448 -0.269546 0
M  V30 227 H 22.7304 1.522 -1.36585 0
M  V30 228 H 20.8854 3.84359 -0.484455 0
M  V30 229 H 21.2994 4.56886 -2.57595 0
M  V30 230 H 22.7734 5.41174 -1.0879 0
M  V30 231 H 23.2504 4.3842 0.261691 0
M  V30 232 H 23.8564 4.02574 -1.37164 0
M  V30 233 N 22.1715 0.800033 1.35784 0
M  V30 234 C 23.1215 0.178654 2.27299 0
M  V30 235 C 24.1055 -0.643667 1.47464 0
M  V30 236 O 25.2975 -0.502 1.69732 0
M  V30 237 C 22.4265 -0.677194 3.36555 0
M  V30 238 C 21.5125 0.154497 4.23818 0
M  V30 239 N 21.9035 1.21427 4.91008 0
M  V30 240 C 20.2015 -0.0649462 4.45953 0
M  V30 241 C 20.9025 1.72147 5.55644 0
M  V30 242 N 19.8785 1.02897 5.33773 0
M  V30 243 H 23.6805 0.989637 2.76737 0
M  V30 244 H 21.1945 0.64054 1.49234 0
M  V30 245 H 23.1915 -1.13835 4.01058 0
M  V30 246 H 21.8515 -1.4866 2.8867 0
M  V30 247 H 22.8625 1.59684 4.92668 0
M  V30 248 H 19.5395 -0.844016 4.0888 0
M  V30 249 H 20.9295 2.60683 6.19269 0
M  V30 250 N 23.6496 -1.47581 0.552962 0
M  V30 251 C 24.6126 -2.28439 -0.186605 0
M  V30 252 C 25.6126 -1.36706 -0.84665 0
M  V30 253 O 26.8026 -1.59378 -0.703164 0
M  V30 254 C 23.9346 -3.16264 -1.2724 0
M  V30 255 H 25.1276 -2.95294 0.523609 0
M  V30 256 H 22.6806 -1.532 0.309745 0
M  V30 257 H 23.4156 -2.54091 -2.01514 0
M  V30 258 H 23.2006 -3.83769 -0.803968 0
M  V30 259 H 24.6906 -3.77198 -1.79196 0
M  V30 260 N 25.1277 -0.289203 -1.54924 0
M  V30 261 C 26.3737 0.323998 -2.00195 0
M  V30 262 C 26.7067 1.54441 -1.17735 0
M  V30 263 O 25.9817 1.92875 -0.250878 0
M  V30 264 C 26.2647 0.692276 -3.53383 0
M  V30 265 C 26.1177 -0.536457 -4.46589 0
M  V30 266 C 27.4367 1.52335 -4.12895 0
M  V30 267 H 24.5557 0.116289 -0.727768 0
M  V30 268 H 27.1977 -0.398954 -1.85764 0
M  V30 269 H 25.3477 1.30822 -3.65811 0
M  V30 270 H 27.0197 -1.17499 -4.46085 0
M  V30 271 H 25.2627 -1.17192 -4.1767 0
M  V30 272 H 25.9337 -0.234806 -5.515 0
M  V30 273 H 28.4097 1.00302 -4.0383 0
M  V30 274 H 27.2857 1.74982 -5.20262 0
M  V30 275 H 27.5467 2.50886 -3.64018 0
M  V30 276 N 26.6058 1.57591 -0.0167156 0
M  V30 277 C 27.8458 1.93145 0.668902 0
M  V30 278 C 28.2098 0.892406 1.7 0
M  V30 279 O 29.4108 1.13373 2.43721 0
M  V30 280 C 27.6818 3.33678 1.28039 0
M  V30 281 S 29.2408 3.91142 1.9888 0
M  V30 282 H 26.0588 0.67593 0.220545 0
M  V30 283 H 28.6608 1.95347 -0.0774105 0
M  V30 284 H 27.3648 4.07126 0.517339 0
M  V30 285 H 26.8958 3.3489 2.06427 0
M  V30 286 H 28.9108 3.73571 3.26587 0
M  V30 287 N 28.0839 -0.256276 1.55502 0
M  V30 288 C 29.3299 -0.987079 1.77157 0
M  V30 289 C 29.6629 -1.85327 0.580315 0
M  V30 290 O 28.9379 -1.89874 -0.421686 0
M  V30 291 C 29.2209 -1.85553 3.08613 0
M  V30 292 C 29.0739 -1.01816 4.38125 0
M  V30 293 C 30.3929 -2.8397 3.36228 0
M  V30 294 H 27.5119 -0.357428 0.644526 0
M  V30 295 H 30.1539 -0.258239 1.88237 0
M  V30 296 H 28.3039 -2.47695 2.99298 0
M  V30 297 H 29.9759 -0.416159 4.59419 0
M  V30 298 H 28.2189 -0.322178 4.32602 0
M  V30 299 H 28.8899 -1.65939 5.26468 0
M  V30 300 H 31.3659 -2.31964 3.45445 0
M  V30 301 H 30.2419 -3.41864 4.29442 0
M  V30 302 H 30.5029 -3.59955 2.56681 0
M  V30 303 N 29.562 -1.4872 -0.521534 0
M  V30 304 C 30.492 -1.66771 -1.63431 0
M  V30 305 C 31.473 -0.516499 -1.62069 0
M  V30 306 O 32.658 -0.750013 -1.79132 0
M  V30 307 C 29.788 -1.71515 -3.01993 0
M  V30 308 C 28.742 -2.86222 -3.18216 0
M  V30 309 C 28.068 -2.76061 -4.57924 0
M  V30 310 C 29.368 -4.27419 -3.00184 0
M  V30 311 H 31.062 -2.59932 -1.48579 0
M  V30 312 H 28.608 -1.25089 -0.713358 0
M  V30 313 H 30.561 -1.82731 -3.7972 0
M  V30 314 H 29.285 -0.749393 -3.17886 0
M  V30 315 H 27.944 -2.74575 -2.42908 0
M  V30 316 H 27.592 -1.77437 -4.70665 0
M  V30 317 H 27.292 -3.53037 -4.69722 0
M  V30 318 H 28.816 -2.89256 -5.37739 0
M  V30 319 H 30.23 -4.39855 -3.67697 0
M  V30 320 H 28.627 -5.05458 -3.2347 0
M  V30 321 H 29.697 -4.43293 -1.96518 0
M  V30 322 N 31.0401 0.771051 -1.3745 0
M  V30 323 C 32.2881 1.52661 -1.32435 0
M  V30 324 C 32.6091 1.9479 0.0905024 0
M  V30 325 O 31.8791 1.66348 1.03466 0
M  V30 326 H 30.4591 0.566218 -0.487244 0
M  V30 327 H 33.1211 0.917636 -1.71946 0
M  V30 328 H 32.2171 2.42568 -1.96385 0
M  V30 329 N 32.5182 1.22032 0.997298 0
M  V30 330 C 33.7462 1.06841 1.7718 0
M  V30 331 C 34.1612 -0.381325 1.84909 0
M  V30 332 O 33.5182 -1.26437 1.31605 0
M  V30 333 C 33.5692 1.66814 3.20711 0
M  V30 334 O 33.2902 3.06116 3.13408 0
M  V30 335 C 34.7912 1.56838 4.14628 0
M  V30 336 H 32.0112 0.374782 0.556578 0
M  V30 337 H 34.5552 1.61532 1.2541 0
M  V30 338 H 32.7102 1.16196 3.69564 0
M  V30 339 H 33.1242 3.34926 4.0364 0
M  V30 340 H 34.5982 2.03532 5.13107 0
M  V30 341 H 35.0752 0.524155 4.36061 0
M  V30 342 H 35.6812 2.06741 3.7167 0
M  V30 343 N 33.9963 -1.19345 1.0293 0
M  V30 344 C 34.9263 -2.2481 0.631105 0
M  V30 345 C 35.9073 -1.66245 -0.360104 0
M  V30 346 O 37.0923 -1.92677 -0.242726 0
M  V30 347 C 34.2223 -3.47295 -0.0184607 0
M  V30 348 C 33.1763 -4.18536 0.895073 0
M  V30 349 C 32.5023 -5.34586 0.110592 0
M  V30 350 C 33.8023 -4.73287 2.209 0
M  V30 351 H 35.4963 -2.58372 1.51275 0
M  V30 352 H 33.0423 -1.24194 0.728818 0
M  V30 353 H 34.9953 -4.20268 -0.308675 0
M  V30 354 H 33.7193 -3.12933 -0.934907 0
M  V30 355 H 32.3783 -3.47446 1.16949 0
M  V30 356 H 32.0263 -4.96469 -0.807902 0
M  V30 357 H 31.7263 -5.83183 0.719087 0
M  V30 358 H 33.2503 -6.10355 -0.172871 0
M  V30 359 H 34.6643 -5.38013 1.98028 0
M  V30 360 H 33.0613 -5.32373 2.76946 0
M  V30 361 H 34.1313 -3.91331 2.86336 0
M  V30 362 N 35.4744 -0.807222 -1.35358 0
M  V30 363 C 36.7024 -0.400377 -2.02989 0
M  V30 364 C 37.1174 0.988859 -1.60832 0
M  V30 365 O 36.4744 1.63729 -0.806175 0
M  V30 366 C 36.5254 -0.474867 -3.58368 0
M  V30 367 O 36.2464 -1.80933 -3.98992 0
M  V30 368 C 37.7474 -0.0609112 -4.43258 0
M  V30 369 H 34.9674 -0.162587 -0.651004 0
M  V30 370 H 37.5114 -1.09102 -1.72965 0
M  V30 371 H 35.6664 0.167534 -3.87038 0
M  V30 372 H 36.0804 -1.77256 -4.9364 0
M  V30 373 H 37.5544 -0.164145 -5.51756 0
M  V30 374 H 38.0314 0.993831 -4.27808 0
M  V30 375 H 38.6374 -0.676492 -4.19885 0
M  V30 376 N 36.9525 1.47285 -0.560781 0
M  V30 377 C 37.8845 2.28118 0.222438 0
M  V30 378 C 38.8975 1.37219 0.876056 0
M  V30 379 O 40.0865 1.62011 0.749307 0
M  V30 380 C 37.1865 3.1159 1.33285 0
M  V30 381 C 36.3595 4.30473 0.77534 0
M  V30 382 C 35.4185 4.95513 1.77069 0
M  V30 383 O 34.4445 5.53792 1.31539 0
M  V30 384 N 35.6465 4.90531 3.10418 0
M  V30 385 H 38.4115 2.95976 -0.470958 0
M  V30 386 H 35.9725 1.56955 -0.39709 0
M  V30 387 H 37.9645 3.51967 1.99752 0
M  V30 388 H 36.5345 2.45951 1.92943 0
M  V30 389 H 35.7545 3.94144 -0.0662113 0
M  V30 390 H 37.0425 5.07362 0.382272 0
M  V30 391 H 36.4405 4.44389 3.5005 0
M  V30 392 H 34.9975 5.34917 3.72434 0
M  V30 393 N 38.4306 0.297415 1.54768 0
M  V30 394 C 39.3606 -0.573494 2.26348 0
M  V30 395 C 40.3416 -1.14085 1.26169 0
M  V30 396 O 41.5266 -1.17086 1.54934 0
M  V30 397 C 38.6566 -1.74716 3.00153 0
M  V30 398 C 37.6106 -1.31032 4.07449 0
M  V30 399 C 36.9366 -2.56887 4.68949 0
M  V30 400 C 38.2366 -0.444183 5.20408 0
M  V30 401 H 39.9306 0.0235131 2.99391 0
M  V30 402 H 37.4766 0.0127488 1.43994 0
M  V30 403 H 39.4296 -2.3625 3.48947 0
M  V30 404 H 38.1536 -2.37035 2.24682 0
M  V30 405 H 36.8126 -0.718066 3.59499 0
M  V30 406 H 36.4606 -3.17512 3.90122 0
M  V30 407 H 36.1606 -2.2836 5.41411 0
M  V30 408 H 37.6846 -3.19229 5.20505 0
M  V30 409 H 39.0986 -0.9651 5.65118 0
M  V30 410 H 37.4956 -0.252846 5.99567 0
M  V30 411 H 38.5656 0.531609 4.81977 0
M  V30 412 N 39.9087 -1.5758 0.0250728 0
M  V30 413 C 41.1857 -1.82917 -0.692873 0
M  V30 414 C 41.5657 -0.908137 -1.90568 0
M  V30 415 O 40.9137 0.0372298 -2.2847 0
M  V30 416 C 41.1237 -3.32034 -1.07492 0
M  V30 417 C 42.4717 -3.98406 -1.46826 0
M  V30 418 O 43.4957 -3.36505 -1.16801 0
M  V30 419 O 42.3547 -5.07497 -2.02754 0
M  V30 420 H 39.4487 -0.754079 -0.33955 0
M  V30 421 H 41.9947 -1.69619 0.0524456 0
M  V30 422 H 40.7667 -3.90728 -0.211552 0
M  V30 423 H 40.3897 -3.50424 -1.87854 0
M  V30 424 N 41.3868 0.248026 -1.55636 0
M  V30 425 C 42.6358 0.974134 -1.76617 0
M  V30 426 C 42.9488 1.86528 -0.588796 0
M  V30 427 O 44.1548 2.62805 -0.681594 0
M  V30 428 C 42.6108 1.78213 -3.12679 0
M  V30 429 C 42.2188 0.93843 -4.38061 0
M  V30 430 C 43.9628 2.50104 -3.42999 0
M  V30 431 C 41.8698 1.74225 -5.65155 0
M  V30 432 H 40.7998 0.36745 -0.658405 0
M  V30 433 H 43.4508 0.22884 -1.82067 0
M  V30 434 H 41.8328 2.56933 -3.01333 0
M  V30 435 H 43.0068 0.193635 -4.60393 0
M  V30 436 H 41.3218 0.332905 -4.15067 0
M  V30 437 H 43.9188 3.10694 -4.3517 0
M  V30 438 H 44.2618 3.21662 -2.64271 0
M  V30 439 H 44.7948 1.78395 -3.55556 0
M  V30 440 H 41.5338 1.07043 -6.46701 0
M  V30 441 H 41.0538 2.46235 -5.46926 0
M  V30 442 H 42.7328 2.30967 -6.0437 0
M  V30 443 N 42.8649 1.48995 0.513639 0
M  V30 444 C 44.1049 1.59452 1.27885 0
M  V30 445 C 44.4689 0.269479 1.90099 0
M  V30 446 O 45.6699 0.249139 2.67643 0
M  V30 447 C 43.9409 2.71277 2.32688 0
M  V30 448 S 45.4999 3.01604 3.18717 0
M  V30 449 H 42.3179 0.562565 0.434789 0
M  V30 450 H 44.9199 1.86595 0.583301 0
M  V30 451 H 43.6239 3.66089 1.8549 0
M  V30 452 H 43.1549 2.46086 3.06929 0
M  V30 453 H 45.1699 2.42155 4.331 0
M  V30 454 N 44.343 -0.763751 1.37857 0
M  V30 455 C 45.568 -1.55805 1.36893 0
M  V30 456 C 45.993 -1.88054 -0.0416135 0
M  V30 457 O 45.351 -1.49825 -1.02089 0
M  V30 458 C 45.399 -2.84012 2.22192 0
M  V30 459 O 44.503 -3.78732 1.63204 0
M  V30 460 H 43.844 -0.471638 0.46739 0
M  V30 461 H 46.374 -0.944657 1.81487 0
M  V30 462 H 46.384 -3.33037 2.35691 0
M  V30 463 H 45.059 -2.59869 3.24716 0
M  V30 464 H 43.636 -3.37402 1.58791 0
M  V30 465 N 45.8211 -1.22559 -0.990812 0
M  V30 466 C 47.0461 -1.07862 -1.77145 0
M  V30 467 C 47.4711 0.366447 -1.84496 0
M  V30 468 O 46.8291 1.26478 -1.29896 0
M  V30 469 C 46.8771 -1.69686 -3.18181 0
M  V30 470 O 45.9811 -0.951946 -4.01263 0
M  V30 471 H 45.3221 -0.378712 -0.545411 0
M  V30 472 H 47.8521 -1.62399 -1.2445 0
M  V30 473 H 47.8621 -1.74496 -3.68802 0
M  V30 474 H 46.5371 -2.74841 -3.12146 0
M  V30 475 H 45.1141 -0.980011 -3.59792 0
M  V30 476 N 47.2992 1.18797 -1.03562 0
M  V30 477 C 48.2622 2.20464 -0.626769 0
M  V30 478 C 49.2622 1.57721 0.313173 0
M  V30 479 O 50.4522 1.73917 0.0992615 0
M  V30 480 C 47.5842 3.40802 0.0818498 0
M  V30 481 H 48.7772 2.58149 -1.5264 0
M  V30 482 H 46.3302 1.32593 -0.827578 0
M  V30 483 H 47.0652 3.08642 0.995518 0
M  V30 484 H 46.8502 3.8758 -0.593652 0
M  V30 485 H 48.3402 4.16092 0.354584 0
M  V30 486 N 48.7773 0.814389 1.34928 0
M  V30 487 C 50.1883 0.458364 1.80986 0
M  V30 488 C 50.5393 -1.02042 1.67577 0
M  V30 489 O 49.6643 -1.79352 1.21086 0
M  V30 490 C 50.2593 0.825212 3.28597 0
M  V30 491 C 48.8183 0.521677 3.72767 0
M  V30 492 C 47.9653 1.04668 2.56788 0
M  V30 493 H 50.9163 1.00533 1.22795 0
M  V30 494 H 50.9373 0.12571 3.80292 0
M  V30 495 H 50.4493 1.90154 3.38324 0
M  V30 496 H 48.5503 -0.545589 3.68584 0
M  V30 497 H 48.6633 1.05977 4.67232 0
M  V30 498 H 47.0273 0.468622 2.50352 0
M  V30 499 H 47.8103 2.12927 2.6929 0
M  V30 500 N 50.2554 -1.46986 0.568584 0
M  V30 501 C 51.1654 -2.33942 -0.17555 0
M  V30 502 C 52.1814 -1.48891 -0.90041 0
M  V30 503 O 53.3574 -1.81794 -0.86676 0
M  V30 504 C 50.4224 -3.25811 -1.18524 0
M  V30 505 C 49.4834 -4.26757 -0.466582 0
M  V30 506 C 48.7164 -5.14236 -1.42817 0
M  V30 507 O 48.9394 -5.04379 -2.66379 0
M  V30 508 O 47.8734 -5.94412 -0.946453 0
M  V30 509 H 51.6994 -2.98896 0.538036 0
M  V30 510 H 49.2844 -1.4573 0.329097 0
M  V30 511 H 51.1664 -3.82527 -1.76779 0
M  V30 512 H 49.8414 -2.63471 -1.88055 0
M  V30 513 H 48.7484 -3.73769 0.157451 0
M  V30 514 H 50.0814 -4.91843 0.187485 0
M  V30 515 N 51.7335 -0.305618 -1.54608 0
M  V30 516 C 53.0105 0.355652 -1.92339 0
M  V30 517 C 53.3905 1.71324 -1.23335 0
M  V30 518 O 52.7385 2.25473 -0.370702 0
M  V30 519 C 52.9485 0.46572 -3.45879 0
M  V30 520 C 54.2965 0.734426 -4.182 0
M  V30 521 O 55.3205 0.54935 -3.51938 0
M  V30 522 O 54.1795 1.09024 -5.35515 0
M  V30 523 H 51.2735 0.199666 -0.802535 0
M  V30 524 H 53.8195 -0.354017 -1.65966 0
M  V30 525 H 52.5915 -0.488461 -3.88239 0
M  V30 526 H 52.2145 1.22367 -3.78301 0
M  V30 527 N 53.2116 1.57565 -0.0334293 0
M  V30 528 C 54.4516 1.93844 0.648379 0
M  V30 529 C 54.8156 0.910387 1.69044 0
M  V30 530 O 56.0166 1.15952 2.42505 0
M  V30 531 C 54.2876 3.35017 1.24492 0
M  V30 532 S 55.8466 3.93229 1.94721 0
M  V30 533 H 52.6646 0.678231 0.213364 0
M  V30 534 H 55.2666 1.95254 -0.0981253 0
M  V30 535 H 53.9706 4.07652 0.474128 0
M  V30 536 H 53.5016 3.37061 2.02864 0
M  V30 537 H 55.5166 3.77014 3.22606 0
M  V30 538 N 54.6897 -0.239769 1.55765 0
M  V30 539 C 55.9177 -0.98417 1.81994 0
M  V30 540 C 56.3327 -1.7867 0.610124 0
M  V30 541 O 55.6897 -1.77571 -0.421271 0
M  V30 542 C 55.7407 -1.91635 3.06526 0
M  V30 543 O 55.4617 -1.14629 4.22838 0
M  V30 544 C 56.9627 -2.77616 3.45607 0
M  V30 545 H 54.1827 -0.28928 0.605441 0
M  V30 546 H 56.7267 -0.260499 2.02834 0
M  V30 547 H 54.8817 -2.5942 2.87715 0
M  V30 548 H 55.2957 -1.77745 4.93464 0
M  V30 549 H 56.7697 -3.38759 4.35828 0
M  V30 550 H 57.2467 -3.4909 2.6652 0
M  V30 551 H 57.8527 -2.15271 3.66795 0
M  V30 552 N 56.1678 -1.49265 -0.50573 0
M  V30 553 C 57.3928 -1.62478 -1.28902 0
M  V30 554 C 57.8178 -0.294332 -1.85783 0
M  V30 555 O 57.1758 0.737412 -1.65626 0
M  V30 556 C 57.2238 -2.69268 -2.39848 0
M  V30 557 O 56.3278 -2.28113 -3.43567 0
M  V30 558 H 55.6688 -0.54399 -0.380751 0
M  V30 559 H 58.1988 -1.95421 -0.605952 0
M  V30 560 H 58.2088 -2.91291 -2.85681 0
M  V30 561 H 56.8838 -3.65846 -1.97812 0
M  V30 562 H 55.4608 -2.16401 -3.03685 0
M  V30 563 N 57.6459 0.756429 -1.3826 0
M  V30 564 C 58.8929 1.51547 -1.34312 0
M  V30 565 C 59.2209 1.94382 0.0677144 0
M  V30 566 O 58.4759 1.65514 1.04421 0
M  V30 567 C 58.7749 2.78313 -2.24224 0
M  V30 568 C 58.4409 2.54455 -3.72241 0
M  V30 569 C 57.1029 2.47657 -4.12576 0
M  V30 570 C 59.4549 2.3354 -4.65949 0
M  V30 571 C 56.7829 2.17956 -5.44713 0
M  V30 572 C 59.1349 2.05359 -5.9834 0
M  V30 573 C 57.7989 1.97016 -6.37762 0
M  V30 574 H 57.0689 0.55455 -0.491482 0
M  V30 575 H 59.7159 0.870039 -1.70595 0
M  V30 576 H 58.0209 3.47492 -1.80987 0
M  V30 577 H 59.7179 3.36259 -2.18474 0
M  V30 578 H 56.3079 2.60616 -3.40261 0
M  V30 579 H 60.4919 2.37772 -4.35635 0
M  V30 580 H 55.7479 2.10003 -5.74203 0
M  V30 581 H 59.9219 1.88179 -6.70494 0
M  V30 582 H 57.5489 1.73766 -7.40074 0
M  V30 583 N 59.124 1.23083 0.984299 0
M  V30 584 C 60.349 1.088 1.76571 0
M  V30 585 C 60.774 -0.356657 1.84688 0
M  V30 586 O 60.132 -1.25788 1.30565 0
M  V30 587 C 60.18 1.71371 3.17277 0
M  V30 588 O 59.284 0.973213 4.00752 0
M  V30 589 H 58.625 0.381599 0.543395 0
M  V30 590 H 61.155 1.63057 1.23587 0
M  V30 591 H 61.165 1.76449 3.67872 0
M  V30 592 H 59.84 2.76493 3.10684 0
M  V30 593 H 58.417 0.999078 3.59267 0
M  V30 594 N 60.6021 -1.18246 1.0419 0
M  V30 595 C 61.8511 -1.87588 0.741194 0
M  V30 596 C 62.1641 -1.81303 -0.734066 0
M  V30 597 O 63.3701 -2.46019 -1.14834 0
M  V30 598 C 61.8261 -3.36538 1.27555 0
M  V30 599 C 61.4341 -3.51349 2.77953 0
M  V30 600 C 63.1781 -4.11273 1.05143 0
M  V30 601 C 61.0851 -4.94265 3.2474 0
M  V30 602 H 60.0151 -0.702622 0.273565 0
M  V30 603 H 62.6661 -1.33601 1.25789 0
M  V30 604 H 61.0481 -3.9 0.686703 0
M  V30 605 H 62.2221 -3.08153 3.42605 0
M  V30 606 H 60.5371 -2.90022 2.98791 0
M  V30 607 H 63.1341 -5.16689 1.37611 0
M  V30 608 H 63.4771 -4.16298 -0.0112774 0
M  V30 609 H 64.0101 -3.63987 1.60495 0
M  V30 610 H 60.7491 -4.94408 4.30396 0
M  V30 611 H 60.2691 -5.38172 2.64823 0
M  V30 612 H 61.9481 -5.62987 3.18834 0
M  V30 613 N 62.0802 -0.821533 -1.34494 0
M  V30 614 C 63.0282 -0.230702 -2.31453 0
M  V30 615 C 64.0222 0.627793 -1.57338 0
M  V30 616 O 65.2282 0.519288 -1.72347 0
M  V30 617 H 61.6032 -0.0558577 -0.749923 0
M  V30 618 H 63.5742 -1.06332 -2.78812 0
M  V30 619 C 62.3232 0.59391 -3.4259 0
M  V30 620 H 61.6462 -0.0573588 -3.99759 0
M  V30 621 H 63.0862 0.973446 -4.12674 0
M  V30 622 C 61.5452 1.76568 -2.86924 0
M  V30 623 O 62.0752 2.8638 -2.81691 0
M  V30 624 N 60.2812 1.58198 -2.43766 0
M  V30 625 H 59.8282 0.68872 -2.48222 0
M  V30 626 H 59.7862 2.36752 -2.06871 0
M  V30 627 N 63.5583 1.46682 -0.576371 0
M  V30 628 C 64.5213 2.28707 0.150239 0
M  V30 629 C 65.5213 1.38035 0.824794 0
M  V30 630 O 66.7113 1.60476 0.677719 0
M  V30 631 C 63.8433 3.18248 1.22192 0
M  V30 632 H 65.0363 2.94423 -0.570521 0
M  V30 633 H 62.5893 1.52688 -0.334078 0
M  V30 634 H 63.3243 2.57265 1.97447 0
M  V30 635 H 63.1093 3.85 0.742812 0
M  V30 636 H 64.5993 3.80001 1.73172 0
M  V30 637 N 65.0364 0.313813 1.54444 0
M  V30 638 C 66.2614 -0.296681 2.05267 0
M  V30 639 C 66.6864 -1.45757 1.18897 0
M  V30 640 O 66.0444 -1.80239 0.195886 0
M  V30 641 C 66.0924 -0.71831 3.53373 0
M  V30 642 O 65.1964 -1.82175 3.69981 0
M  V30 643 H 64.5374 -0.0554061 0.661684 0
M  V30 644 H 67.0674 0.459387 1.99376 0
M  V30 645 H 67.0774 -1.00364 3.95463 0
M  V30 646 H 65.7524 0.130821 4.15694 0
M  V30 647 H 64.3294 -1.53598 3.39797 0
M  V30 648 N 66.5145 -1.57545 0.0417849 0
M  V30 649 C 67.9255 -1.80011 -0.495259 0
M  V30 650 C 68.2765 -0.953199 -1.71489 0
M  V30 651 O 67.4015 -0.167138 -2.15754 0
M  V30 652 C 67.9965 -3.26482 -0.905265 0
M  V30 653 C 66.5555 -3.499 -1.38734 0
M  V30 654 C 65.7025 -2.74979 -0.358056 0
M  V30 655 H 68.6535 -1.56425 0.267736 0
M  V30 656 H 68.6745 -3.36887 -1.76882 0
M  V30 657 H 68.1865 -3.88096 -0.017401 0
M  V30 658 H 66.2875 -2.93553 -2.29471 0
M  V30 659 H 66.4005 -4.58615 -1.38598 0
M  V30 660 H 64.7645 -2.40834 -0.828912 0
M  V30 661 H 65.5475 -3.39315 0.521561 0
M  V30 662 N 67.9926 0.231505 -1.5589 0
M  V30 663 C 69.2406 0.955461 -1.78088 0
M  V30 664 C 69.5616 1.85262 -0.608533 0
M  V30 665 O 68.8316 1.92277 0.375035 0
M  V30 666 H 67.4116 0.355787 -0.656829 0
M  V30 667 H 70.0736 0.245751 -1.93344 0
M  V30 668 H 69.1696 1.56814 -2.69844 0
M  V30 669 N 69.4707 1.49531 0.497807 0
M  V30 670 C 70.7167 1.59415 1.25358 0
M  V30 671 C 71.0497 0.281422 1.9215 0
M  V30 672 O 70.3247 -0.715249 1.80871 0
M  V30 673 C 70.6077 2.75566 2.3181 0
M  V30 674 C 70.4607 4.16642 1.69498 0
M  V30 675 C 71.7797 2.87347 3.33346 0
M  V30 676 H 68.8987 0.580244 0.454408 0
M  V30 677 H 71.5407 1.81827 0.551262 0
M  V30 678 H 69.6907 2.56587 2.91711 0
M  V30 679 H 71.3627 4.47145 1.13399 0
M  V30 680 H 69.6057 4.22141 0.998978 0
M  V30 681 H 70.2767 4.93792 2.46725 0
M  V30 682 H 72.7527 3.04634 2.83438 0
M  V30 683 H 71.6287 3.70289 4.05188 0
M  V30 684 H 71.8897 1.96834 3.95865 0
M  V30 685 N 70.9488 -0.749086 1.3866 0
M  V30 686 C 72.1948 -1.51056 1.35314 0
M  V30 687 C 72.5278 -1.94121 -0.0553751 0
M  V30 688 O 71.8028 -1.65763 -1.01749 0
M  V30 689 C 72.0858 -2.76003 2.31288 0
M  V30 690 C 71.9388 -2.39047 3.8102 0
M  V30 691 C 73.2578 -3.78046 2.2532 0
M  V30 692 H 70.3768 -0.547972 0.492844 0
M  V30 693 H 73.0188 -0.857628 1.69543 0
M  V30 694 H 71.1688 -3.31716 2.02229 0
M  V30 695 H 72.8408 -1.89074 4.20771 0
M  V30 696 H 71.0838 -1.71449 3.98482 0
M  V30 697 H 71.7548 -3.28462 4.4364 0
M  V30 698 H 74.2308 -3.31884 2.50983 0
M  V30 699 H 73.1068 -4.63159 2.94576 0
M  V30 700 H 73.3678 -4.23957 1.25352 0
M  V30 701 N 72.4269 -1.23603 -0.977757 0
M  V30 702 C 73.6729 -1.07129 -1.72195 0
M  V30 703 C 74.0059 0.390501 -1.90233 0
M  V30 704 O 73.2809 1.28902 -1.45653 0
M  V30 705 C 73.5639 -1.80031 -3.11867 0
M  V30 706 C 73.4169 -3.33899 -3.01383 0
M  V30 707 C 74.7359 -1.56492 -4.11337 0
M  V30 708 H 71.8549 -0.390571 -0.624999 0
M  V30 709 H 74.4969 -1.52142 -1.13811 0
M  V30 710 H 72.6469 -1.41768 -3.6171 0
M  V30 711 H 74.3189 -3.81699 -2.59043 0
M  V30 712 H 72.5619 -3.62796 -2.37827 0
M  V30 713 H 73.2329 -3.801 -4.00285 0
M  V30 714 H 75.7089 -1.89757 -3.70313 0
M  V30 715 H 74.5849 -2.09973 -5.07151 0
M  V30 716 H 74.8459 -0.500874 -4.39254 0
M  V30 717 N 73.905 1.17692 -1.04816 0
M  V30 718 C 75.182 1.83768 -0.669963 0
M  V30 719 C 75.562 1.93232 0.849986 0
M  V30 720 O 74.91 1.46397 1.75443 0
M  V30 721 C 75.12 3.21641 -1.35455 0
M  V30 722 C 76.468 3.97592 -1.49017 0
M  V30 723 O 77.492 3.31107 -1.31326 0
M  V30 724 O 76.351 5.16729 -1.77914 0
M  V30 725 H 73.445 0.792799 -0.235368 0
M  V30 726 H 75.991 1.25021 -1.14751 0
M  V30 727 H 74.763 3.097 -2.39168 0
M  V30 728 H 74.386 3.88052 -0.866107 0
M  V30 729 N 75.3831 0.828654 1.34056 0
M  V30 730 C 76.6321 0.415828 1.97367 0
M  V30 731 C 76.9451 -1.02796 1.6641 0
M  V30 732 O 78.1511 -1.54497 2.23255 0
M  V30 733 C 76.6071 0.692601 3.53173 0
M  V30 734 C 76.2151 2.15038 3.93017 0
M  V30 735 C 77.9591 0.346222 4.23086 0
M  V30 736 C 75.8661 2.37174 5.41758 0
M  V30 737 H 74.7961 0.151755 0.738571 0
M  V30 738 H 77.4471 1.01581 1.52819 0
M  V30 739 H 75.8291 0.0223764 3.95994 0
M  V30 740 H 77.0031 2.86024 3.61285 0
M  V30 741 H 75.3181 2.45875 3.36057 0
M  V30 742 H 77.9151 0.48937 5.32456 0
M  V30 743 H 78.2581 -0.709842 4.10204 0
M  V30 744 H 78.7911 0.971258 3.85761 0
M  V30 745 H 75.5301 3.41308 5.59633 0
M  V30 746 H 75.0501 1.70738 5.74986 0
M  V30 747 H 76.7291 2.19818 6.08514 0
M  V30 748 N 76.8612 -1.46375 0.584142 0
M  V30 749 C 77.8242 -2.28784 -0.138108 0
M  V30 750 C 78.8242 -1.38471 -0.817462 0
M  V30 751 O 80.0142 -1.60833 -0.669199 0
M  V30 752 C 77.1462 -3.18892 -1.20503 0
M  V30 753 H 78.3392 -2.94117 0.586127 0
M  V30 754 H 75.8922 -1.52509 0.342171 0
M  V30 755 H 76.6272 -2.58309 -1.96079 0
M  V30 756 H 76.4122 -3.85388 -0.722384 0
M  V30 757 H 77.9022 -3.80914 -1.71155 0
M  V30 758 N 78.3393 -0.321999 -1.54275 0
M  V30 759 C 79.2893 0.560185 -2.21011 0
M  V30 760 C 80.2733 1.08283 -1.19011 0
M  V30 761 O 81.4653 1.02011 -1.44647 0
M  V30 762 C 78.5943 1.72137 -2.97025 0
M  V30 763 C 77.6803 1.21369 -4.06363 0
M  V30 764 N 78.0713 0.425566 -5.04007 0
M  V30 765 C 76.3693 1.49255 -4.20284 0
M  V30 766 C 77.0703 0.152601 -5.815 0
M  V30 767 N 76.0463 0.738294 -5.38563 0
M  V30 768 H 79.8483 -0.049265 -2.93859 0
M  V30 769 H 77.3623 -0.127779 -1.61897 0
M  V30 770 H 79.3593 2.36512 -3.43319 0
M  V30 771 H 78.0193 2.33431 -2.25699 0
M  V30 772 H 79.0303 0.068551 -5.17855 0
M  V30 773 H 75.7073 2.11145 -3.60172 0
M  V30 774 H 77.0973 -0.481764 -6.70171 0
M  V30 775 N 79.8174 1.5752 -0.0501392 0
M  V30 776 C 81.0654 1.9227 0.622642 0
M  V30 777 C 81.3864 0.929083 1.71444 0
M  V30 778 O 80.6564 -0.0262186 1.95882 0
M  V30 779 H 79.2364 0.709739 0.232981 0
M  V30 780 H 81.8984 1.94628 -0.102898 0
M  V30 781 H 80.9944 2.93479 1.06191 0
M  V30 782 N 81.2955 -0.223234 1.56011 0
M  V30 783 C 82.7065 -0.790368 1.69145 0
M  V30 784 C 83.0575 -1.85055 0.651845 0
M  V30 785 O 82.1825 -2.15498 -0.197359 0
M  V30 786 C 82.7775 -1.4404 3.06656 0
M  V30 787 C 81.3365 -1.95494 3.2165 0
M  V30 788 C 80.4835 -0.814506 2.65068 0
M  V30 789 H 83.4345 0.00139011 1.587 0
M  V30 790 H 83.4555 -2.30916 3.0242 0
M  V30 791 H 82.9675 -0.668543 3.82298 0
M  V30 792 H 81.0685 -2.75487 2.50874 0
M  V30 793 H 81.1815 -2.13607 4.28846 0
M  V30 794 H 79.5455 -1.22137 2.23505 0
M  V30 795 H 80.3285 -0.0553515 3.43255 0
M  V30 796 N 82.7736 -1.49793 -0.48987 0
M  V30 797 C 84.1846 -1.52914 -1.07118 0
M  V30 798 C 84.5356 -0.321738 -1.93544 0
M  V30 799 O 83.6606 0.567338 -2.08831 0
M  V30 800 C 84.2556 -2.771 -1.94938 0
M  V30 801 C 82.8146 -2.82963 -2.48212 0
M  V30 802 C 81.9616 -2.46972 -1.26096 0
M  V30 803 H 84.9126 -1.56329 -0.273289 0
M  V30 804 H 84.9336 -2.57892 -2.79771 0
M  V30 805 H 84.4456 -3.64959 -1.32009 0
M  V30 806 H 82.5466 -1.99411 -3.14748 0
M  V30 807 H 82.6596 -3.85406 -2.84603 0
M  V30 808 H 81.0236 -1.98994 -1.58976 0
M  V30 809 H 81.8066 -3.37118 -0.648581 0
M  V30 810 N 84.2517 0.741722 -1.39055 0
M  V30 811 C 85.2147 1.83733 -1.37021 0
M  V30 812 C 86.2147 1.58542 -0.268534 0
M  V30 813 O 87.4047 1.66067 -0.526076 0
M  V30 814 C 84.5367 3.2141 -1.13617 0
M  V30 815 H 85.7297 1.86941 -2.34506 0
M  V30 816 H 83.2827 0.944676 -1.24521 0
M  V30 817 H 84.0177 3.23865 -0.167863 0
M  V30 818 H 83.8027 3.4109 -1.93391 0
M  V30 819 H 85.2927 4.01477 -1.14918 0
M  V30 820 N 85.7298 1.2412 0.971189 0
M  V30 821 C 86.6768 1.0305 2.06517 0
M  V30 822 C 87.6468 -0.0550666 1.66009 0
M  V30 823 O 88.8318 0.0988688 1.90544 0
M  V30 824 C 85.9718 0.637653 3.39158 0
M  V30 825 C 85.0848 1.79633 3.92882 0
M  V30 826 C 84.2198 1.34939 5.13775 0
M  V30 827 C 83.2588 2.47823 5.59687 0
M  V30 828 N 82.3958 2.04022 6.71803 0
M  V30 829 H 87.2358 1.96685 2.23873 0
M  V30 830 H 84.7728 0.979694 1.09729 0
M  V30 831 H 86.7308 0.390931 4.15364 0
M  V30 832 H 85.3608 -0.261693 3.21737 0
M  V30 833 H 84.4128 2.15681 3.13346 0
M  V30 834 H 85.7248 2.64466 4.22918 0
M  V30 835 H 84.8788 1.06134 5.97345 0
M  V30 836 H 83.6178 0.471557 4.85415 0
M  V30 837 H 82.6228 2.77392 4.74693 0
M  V30 838 H 83.8478 3.36158 5.90063 0
M  V30 839 H 81.7938 1.18632 6.45184 0
M  V30 840 H 81.7108 2.82409 7.01271 0
M  V30 841 H 82.9788 1.78347 7.58823 0
M  V30 842 N 87.2079 -1.17134 1.05439 0
M  V30 843 C 88.1549 -2.21235 0.657539 0
M  V30 844 C 89.1249 -1.62551 -0.341543 0
M  V30 845 O 90.3099 -1.89379 -0.232393 0
M  V30 846 C 87.4499 -3.45076 0.0410575 0
M  V30 847 C 86.5629 -4.18042 1.08927 0
M  V30 848 C 85.6979 -5.29376 0.439848 0
M  V30 849 C 84.7369 -5.94132 1.4722 0
M  V30 850 N 83.8739 -6.96975 0.846756 0
M  V30 851 H 88.7139 -2.54534 1.54972 0
M  V30 852 H 86.2509 -1.25028 0.775006 0
M  V30 853 H 88.2089 -4.15862 -0.33383 0
M  V30 854 H 86.8389 -3.12353 -0.814568 0
M  V30 855 H 85.8909 -3.45945 1.58196 0
M  V30 856 H 87.2029 -4.62306 1.87282 0
M  V30 857 H 86.3569 -6.06699 0.0115125 0
M  V30 858 H 85.0959 -4.86251 -0.375656 0
M  V30 859 H 84.1009 -5.15538 1.91052 0
M  V30 860 H 85.3259 -6.39337 2.28965 0
M  V30 861 H 83.2719 -6.5598 0.0518075 0
M  V30 862 H 83.1889 -7.39565 1.5678 0
M  V30 863 H 84.4569 -7.78239 0.443277 0
M  V30 864 N 88.686 -0.835752 -1.33615 0
M  V30 865 C 89.633 -0.26473 -2.29277 0
M  V30 866 C 90.603 0.617712 -1.54187 0
M  V30 867 O 91.788 0.556641 -1.825 0
M  V30 868 C 88.928 0.556777 -3.40579 0
M  V30 869 C 88.041 -0.349339 -4.30585 0
M  V30 870 C 87.176 0.482969 -5.29 0
M  V30 871 C 86.215 -0.421732 -6.10645 0
M  V30 872 N 85.352 0.372262 -7.01112 0
M  V30 873 H 90.192 -1.08582 -2.77514 0
M  V30 874 H 87.729 -0.546927 -1.36554 0
M  V30 875 H 89.687 1.04852 -4.03809 0
M  V30 876 H 88.317 1.34286 -2.93542 0
M  V30 877 H 87.369 -0.959372 -3.68104 0
M  V30 878 H 88.681 -1.04445 -4.87742 0
M  V30 879 H 87.835 1.03866 -5.97743 0
M  V30 880 H 86.574 1.21153 -4.72412 0
M  V30 881 H 85.579 -0.989464 -5.40823 0
M  V30 882 H 86.804 -1.14861 -6.69316 0
M  V30 883 H 84.75 1.08426 -6.46977 0
M  V30 884 H 84.667 -0.264198 -7.55538 0
M  V30 885 H 85.935 0.910293 -7.74167 0
M  V30 886 N 90.1641 1.46063 -0.591896 0
M  V30 887 C 91.3891 2.07226 -0.0850314 0
M  V30 888 C 91.8141 1.43625 1.21463 0
M  V30 889 O 91.1721 0.523305 1.73583 0
M  V30 890 C 91.2201 3.60554 0.0576567 0
M  V30 891 O 90.3241 3.97128 1.11188 0
M  V30 892 H 89.6651 0.660615 -0.0669568 0
M  V30 893 H 92.1951 1.8756 -0.81745 0
M  V30 894 H 92.2051 4.07165 0.2609 0
M  V30 895 H 90.8801 4.06235 -0.891416 0
M  V30 896 H 89.4571 3.62213 0.886356 0
M  V30 897 N 91.6422 0.330177 1.54103 0
M  V30 898 C 92.8702 -0.272179 2.05102 0
M  V30 899 C 93.2852 -1.45267 1.20595 0
M  V30 900 O 92.6422 -1.8094 0.238144 0
M  V30 901 C 92.6932 -0.70023 3.54653 0
M  V30 902 O 92.4142 0.433301 4.35952 0
M  V30 903 C 93.9152 -1.3647 4.21771 0
M  V30 904 H 91.1352 -0.0549159 0.668749 0
M  V30 905 H 93.6792 0.478285 1.98828 0
M  V30 906 H 91.8342 -1.40066 3.61193 0
M  V30 907 H 92.2482 0.0947539 5.24414 0
M  V30 908 H 93.7222 -1.61509 5.27843 0
M  V30 909 H 94.1992 -2.31409 3.73292 0
M  V30 910 H 94.8052 -0.706675 4.19388 0
M  V30 911 N 93.1203 -1.57491 0.0584922 0
M  V30 912 C 94.3683 -1.92597 -0.612436 0
M  V30 913 C 94.6893 -0.938162 -1.70949 0
M  V30 914 O 93.9593 0.0158301 -1.95894 0
M  V30 915 H 92.5393 -0.710964 -0.229214 0
M  V30 916 H 95.2013 -1.94571 0.113218 0
M  V30 917 H 94.2973 -2.94038 -1.04633 0
M  V30 918 N 94.5984 0.214957 -1.56127 0
M  V30 919 C 95.8234 0.95924 -1.83884 0
M  V30 920 C 96.2484 1.7689 -0.639644 0
M  V30 921 O 95.6064 1.76566 0.411601 0
M  V30 922 C 95.6544 1.84723 -3.09693 0
M  V30 923 O 94.7584 2.94346 -2.8885 0
M  V30 924 H 94.0994 0.27125 -0.606069 0
M  V30 925 H 96.6294 0.226276 -2.03345 0
M  V30 926 H 96.6394 2.25576 -3.39969 0
M  V30 927 H 95.3144 1.25218 -3.96602 0
M  V30 928 H 93.8914 2.57391 -2.69823 0
M  V30 929 N 96.0765 1.50051 0.48192 0
M  V30 930 C 97.3015 1.64508 1.26301 0
M  V30 931 C 97.7265 0.323851 1.85291 0
M  V30 932 O 97.0845 -0.710969 1.66778 0
M  V30 933 C 97.1325 2.7305 2.35533 0
M  V30 934 O 96.2365 2.3355 3.39895 0
M  V30 935 H 95.5775 0.549978 0.372048 0
M  V30 936 H 98.1075 1.9636 0.574786 0
M  V30 937 H 98.1175 2.95799 2.8101 0
M  V30 938 H 96.7925 3.68946 1.91967 0
M  V30 939 H 95.3695 2.21205 3.00204 0
M  V30 940 N 97.5546 -0.734337 1.39446 0
M  V30 941 C 98.7826 -1.52358 1.39981 0
M  V30 942 C 99.1976 -1.88799 -0.0054975 0
M  V30 943 O 98.5546 -1.54146 -0.976998 0
M  V30 944 C 98.6056 -2.81072 2.27333 0
M  V30 945 O 98.3266 -2.46178 3.62392 0
M  V30 946 C 99.8276 -3.75096 2.36259 0
M  V30 947 H 97.0476 -0.470806 0.478103 0
M  V30 948 H 99.5916 -0.907339 1.83269 0
M  V30 949 H 97.7466 -3.39026 1.87457 0
M  V30 950 H 98.1606 -3.28866 4.08592 0
M  V30 951 H 99.6346 -4.62305 3.01626 0
M  V30 952 H 100.112 -4.16892 1.38194 0
M  V30 953 H 100.718 -3.23061 2.76608 0
M  V30 954 N 99.0327 -1.24633 -0.964593 0
M  V30 955 C 100.279 -1.09957 -1.71117 0
M  V30 956 C 100.634 0.357422 -1.89051 0
M  V30 957 O 99.9267 1.26029 -1.44317 0
M  V30 958 C 100.121 -1.7763 -3.10133 0
M  V30 959 C 99.9497 -3.29759 -3.05759 0
M  V30 960 C 98.7197 -3.98981 -3.10068 0
M  V30 961 C 100.918 -4.26305 -2.87695 0
M  V30 962 N 98.8997 -5.37966 -2.95747 0
M  V30 963 C 100.271 -5.52308 -2.81702 0
M  V30 964 C 102.326 -4.16842 -2.72299 0
M  V30 965 C 101.029 -6.69931 -2.61887 0
M  V30 966 C 103.055 -5.34147 -2.53853 0
M  V30 967 C 102.417 -6.59084 -2.48572 0
M  V30 968 H 98.5157 -0.457003 -0.634564 0
M  V30 969 H 101.1 -1.57592 -1.14337 0
M  V30 970 H 99.2707 -1.32504 -3.65099 0
M  V30 971 H 101.003 -1.55786 -3.73514 0
M  V30 972 H 97.7577 -3.50169 -3.18871 0
M  V30 973 H 98.1817 -6.10877 -2.91818 0
M  V30 974 H 102.824 -3.21007 -2.75163 0
M  V30 975 H 100.542 -7.65886 -2.57767 0
M  V30 976 H 104.128 -5.28678 -2.4288 0
M  V30 977 H 103.008 -7.48324 -2.34481 0
M  V30 978 N 100.511 1.16574 -1.06058 0
M  V30 979 C 101.922 1.68662 -0.800632 0
M  V30 980 C 102.273 1.84184 0.67608 0
M  V30 981 O 101.398 1.53568 1.52466 0
M  V30 982 C 101.993 3.06356 -1.44676 0
M  V30 983 C 100.552 3.55575 -1.23465 0
M  V30 984 C 99.6988 2.31616 -1.52477 0
M  V30 985 H 102.65 1.00969 -1.22438 0
M  V30 986 H 102.671 3.70636 -0.860788 0
M  V30 987 H 102.183 2.95027 -2.52152 0
M  V30 988 H 100.284 3.72167 -0.179527 0
M  V30 989 H 100.397 4.37812 -1.94571 0
M  V30 990 H 98.7608 2.36512 -0.945209 0
M  V30 991 H 99.5438 2.22887 -2.61106 0
M  V30 992 N 101.989 0.842826 1.3317 0
M  V30 993 C 102.919 0.294028 2.31641 0
M  V30 994 C 103.9 -0.600401 1.59151 0
M  V30 995 O 105.085 -0.523124 1.87022 0
M  V30 996 C 102.215 -0.528416 3.43257 0
M  V30 997 C 101.169 0.27056 4.27144 0
M  V30 998 C 100.495 -0.675881 5.30411 0
M  V30 999 C 101.795 1.48981 5.00602 0
M  V30 1000 H 103.489 1.11681 2.77791 0
M  V30 1001 H 101.035 0.538478 1.33553 0
M  V30 1002 H 102.988 -0.922674 4.11175 0
M  V30 1003 H 101.712 -1.38445 2.95805 0
M  V30 1004 H 100.371 0.646427 3.60856 0
M  V30 1005 H 100.019 -1.52842 4.79216 0
M  V30 1006 H 99.7189 -0.145374 5.8742 0
M  V30 1007 H 101.243 -1.06757 6.01195 0
M  V30 1008 H 102.657 1.16849 5.61266 0
M  V30 1009 H 101.054 1.95739 5.6728 0
M  V30 1010 H 102.124 2.25746 4.29147 0
M  V30 1011 N 103.467 -1.45747 0.599634 0
M  V30 1012 C 104.744 -1.95585 0.0240846 0
M  V30 1013 C 105.124 -1.54217 -1.44154 0
M  V30 1014 O 104.472 -0.800903 -2.14004 0
M  V30 1015 C 104.682 -3.48344 0.21385 0
M  V30 1016 C 106.03 -4.24504 0.0904902 0
M  V30 1017 O 107.054 -3.55911 0.143558 0
M  V30 1018 O 105.913 -5.46491 -0.0310766 0
M  V30 1019 H 103.007 -0.82602 -0.0402478 0
M  V30 1020 H 105.553 -1.55951 0.669139 0
M  V30 1021 H 104.325 -3.71397 1.23206 0
M  V30 1022 H 103.948 -3.9485 -0.466842 0
M  V30 1023 N 104.945 -0.338344 -1.53925 0
M  V30 1024 C 106.356 0.146651 -1.86123 0
M  V30 1025 C 106.707 1.5042 -1.2597 0
M  V30 1026 O 105.832 2.08723 -0.571294 0
M  V30 1027 C 106.427 0.272879 -3.37699 0
M  V30 1028 C 104.986 0.702103 -3.69794 0
M  V30 1029 C 104.133 -0.167304 -2.76795 0
M  V30 1030 H 107.084 -0.558123 -1.48562 0
M  V30 1031 H 107.105 1.10128 -3.64214 0
M  V30 1032 H 106.617 -0.715307 -3.81451 0
M  V30 1033 H 104.718 1.6995 -3.31584 0
M  V30 1034 H 104.831 0.495604 -4.7653 0
M  V30 1035 H 103.195 0.359527 -2.5215 0
M  V30 1036 H 103.978 -1.15253 -3.23375 0
M  V30 1037 N 106.423 1.57458 -0.0668435 0
M  V30 1038 C 107.671 1.92919 0.602214 0
M  V30 1039 C 107.992 0.947215 1.70449 0
M  V30 1040 O 107.262 -0.00544117 1.95899 0
M  V30 1041 H 105.842 0.71217 0.22544 0
M  V30 1042 H 108.504 1.94508 -0.123535 0
M  V30 1043 H 107.6 2.94589 1.03073 0
M  V30 1044 N 107.901 -0.206675 1.56239 0
M  V30 1045 C 109.147 -0.930218 1.80208 0
M  V30 1046 C 109.48 -1.83387 0.638981 0
M  V30 1047 O 108.755 -1.91119 -0.361066 0
M  V30 1048 C 109.038 -1.75641 3.1436 0
M  V30 1049 C 108.891 -0.878257 4.41142 0
M  V30 1050 C 110.21 -2.73129 3.45092 0
M  V30 1051 H 107.329 -0.336742 0.655571 0
M  V30 1052 H 109.971 -0.198222 1.88963 0
M  V30 1053 H 108.121 -2.38048 3.07027 0
M  V30 1054 H 109.793 -0.269787 4.6051 0
M  V30 1055 H 108.036 -0.184385 4.33408 0
M  V30 1056 H 108.707 -1.49106 5.3148 0
M  V30 1057 H 111.183 -2.20856 3.52649 0
M  V30 1058 H 110.059 -3.28028 4.40101 0
M  V30 1059 H 110.32 -3.51606 2.68003 0
M  V30 1060 N 109.379 -1.50304 -0.473955 0
M  V30 1061 C 110.289 -1.7174 -1.5982 0
M  V30 1062 C 111.305 -0.600457 -1.63311 0
M  V30 1063 O 112.481 -0.878441 -1.81233 0
M  V30 1064 C 109.546 -1.80427 -2.96052 0
M  V30 1065 C 108.607 -3.04148 -3.02972 0
M  V30 1066 C 107.84 -3.12411 -4.32706 0
M  V30 1067 O 108.063 -2.27542 -5.23049 0
M  V30 1068 O 106.997 -4.05113 -4.45159 0
M  V30 1069 H 110.823 -2.67035 -1.44657 0
M  V30 1070 H 108.408 -1.34366 -0.653148 0
M  V30 1071 H 110.29 -1.88338 -3.7697 0
M  V30 1072 H 108.965 -0.883156 -3.11419 0
M  V30 1073 H 107.872 -3.0174 -2.21142 0
M  V30 1074 H 109.205 -3.95829 -2.92541 0
M  V30 1075 N 110.857 0.726932 -1.39834 0
M  V30 1076 C 112.103 1.48884 -1.377 0
M  V30 1077 C 112.436 1.94185 0.0244852 0
M  V30 1078 O 111.711 1.67361 0.990986 0
M  V30 1079 C 111.994 2.72288 -2.3565 0
M  V30 1080 C 111.847 2.32956 -3.84775 0
M  V30 1081 C 113.166 3.74414 -2.31306 0
M  V30 1082 H 110.285 0.540062 -0.5015 0
M  V30 1083 H 112.927 0.830547 -1.70886 0
M  V30 1084 H 111.077 3.28457 -2.07481 0
M  V30 1085 H 112.749 1.82356 -4.23726 0
M  V30 1086 H 110.992 1.65088 -4.01159 0
M  V30 1087 H 111.663 3.21362 -4.4881 0
M  V30 1088 H 114.139 3.27849 -2.56231 0
M  V30 1089 H 113.015 4.58414 -3.01907 0
M  V30 1090 H 113.276 4.21909 -1.32081 0
M  V30 1091 N 112.336 1.25143 0.95797 0
M  V30 1092 C 113.564 1.12424 1.73691 0
M  V30 1093 C 113.979 -0.322304 1.86029 0
M  V30 1094 O 113.336 -1.22186 1.35561 0
M  V30 1095 C 113.387 1.76933 3.15241 0
M  V30 1096 O 113.108 3.15932 3.03511 0
M  V30 1097 C 114.609 1.6995 4.09429 0
M  V30 1098 H 111.829 0.3923 0.544373 0
M  V30 1099 H 114.373 1.6544 1.20207 0
M  V30 1100 H 112.528 1.27895 3.6568 0
M  V30 1101 H 112.942 3.47598 3.9278 0
M  V30 1102 H 114.416 2.19753 5.06372 0
M  V30 1103 H 114.893 0.662619 4.34173 0
M  V30 1104 H 115.499 2.18461 3.64904 0
M  V30 1105 N 113.814 -1.1601 1.06675 0
M  V30 1106 C 114.744 -2.22688 0.702307 0
M  V30 1107 C 115.725 -1.67306 -0.307032 0
M  V30 1108 O 116.91 -1.93352 -0.181305 0
M  V30 1109 C 114.04 -3.47178 0.092038 0
M  V30 1110 C 112.994 -4.15477 1.02777 0
M  V30 1111 C 112.32 -5.33963 0.28061 0
M  V30 1112 C 113.62 -4.66019 2.35846 0
M  V30 1113 H 115.314 -2.53429 1.59419 0
M  V30 1114 H 112.86 -1.21813 0.767961 0
M  V30 1115 H 114.813 -4.21037 -0.174814 0
M  V30 1116 H 113.537 -3.15749 -0.834877 0
M  V30 1117 H 112.196 -3.43549 1.27944 0
M  V30 1118 H 111.844 -4.98788 -0.649545 0
M  V30 1119 H 111.544 -5.806 0.904258 0
M  V30 1120 H 113.068 -6.10596 0.021396 0
M  V30 1121 H 114.482 -5.3144 2.15045 0
M  V30 1122 H 112.879 -5.23293 2.93743 0
M  V30 1123 H 113.949 -3.82023 2.98641 0
M  V30 1124 N 115.292 -0.849877 -1.32721 0
M  V30 1125 C 116.52 -0.464754 -2.01613 0
M  V30 1126 C 116.935 0.937191 -1.63897 0
M  V30 1127 O 116.292 1.61081 -0.857856 0
M  V30 1128 C 116.343 -0.588638 -3.56675 0
M  V30 1129 O 116.064 -1.93535 -3.93034 0
M  V30 1130 C 117.565 -0.2019 -4.4284 0
M  V30 1131 H 114.785 -0.183215 -0.645502 0
M  V30 1132 H 117.329 -1.1455 -1.69407 0
M  V30 1133 H 115.484 0.0443159 -3.87375 0
M  V30 1134 H 115.898 -1.92871 -4.87751 0
M  V30 1135 H 117.372 -0.339599 -5.50954 0
M  V30 1136 H 117.849 0.857224 -4.30753 0
M  V30 1137 H 118.455 -0.809733 -4.17521 0
M  V30 1138 N 116.77 1.45427 -0.607355 0
M  V30 1139 C 117.703 2.27635 0.160482 0
M  V30 1140 C 118.681 1.37122 0.873857 0
M  V30 1141 O 119.865 1.66551 0.882775 0
M  V30 1142 C 116.992 3.15486 1.23231 0
M  V30 1143 C 116.038 4.21939 0.622097 0
M  V30 1144 S 116.871 5.32459 -0.569852 0
M  V30 1145 C 118.027 6.23879 0.502577 0
M  V30 1146 H 118.26 2.9241 -0.536983 0
M  V30 1147 H 115.793 1.49265 -0.394868 0
M  V30 1148 H 117.751 3.66659 1.84585 0
M  V30 1149 H 116.412 2.49977 1.90185 0
M  V30 1150 H 115.605 4.8333 1.42856 0
M  V30 1151 H 115.207 3.73906 0.0837063 0
M  V30 1152 H 117.499 6.63261 1.38171 0
M  V30 1153 H 118.442 7.0806 -0.0751759 0
M  V30 1154 H 118.85 5.58545 0.8178 0
M  V30 1155 N 118.248 0.346503 1.53744 0
M  V30 1156 C 119.195 -0.508914 2.25119 0
M  V30 1157 C 120.165 -1.09315 1.25058 0
M  V30 1158 O 121.35 -1.12921 1.53797 0
M  V30 1159 C 118.49 -1.65246 3.02965 0
M  V30 1160 C 117.603 -1.09525 4.17886 0
M  V30 1161 C 116.738 -2.20634 4.83212 0
M  V30 1162 C 115.777 -1.62279 5.90196 0
M  V30 1163 N 114.914 -2.67143 6.49291 0
M  V30 1164 H 119.754 0.106283 2.9781 0
M  V30 1165 H 117.291 0.0642227 1.4696 0
M  V30 1166 H 119.249 -2.32574 3.4636 0
M  V30 1167 H 117.879 -2.2386 2.32565 0
M  V30 1168 H 116.931 -0.312818 3.79112 0
M  V30 1169 H 118.243 -0.628444 4.94825 0
M  V30 1170 H 117.397 -2.95821 5.29693 0
M  V30 1171 H 116.136 -2.70659 4.05703 0
M  V30 1172 H 115.141 -0.855989 5.43096 0
M  V30 1173 H 116.366 -1.13102 6.69615 0
M  V30 1174 H 114.312 -3.16417 5.74645 0
M  V30 1175 H 114.229 -2.25093 7.21713 0
M  V30 1176 H 115.497 -3.4209 7.00425 0
M  V30 1177 N 119.726 -1.57421 0.075193 0
M  V30 1178 C 120.972 -1.93905 -0.594025 0
M  V30 1179 C 121.305 -0.955701 -1.69056 0
M  V30 1180 O 120.58 0.0145373 -1.94495 0
M  V30 1181 C 120.863 -3.40638 -1.1678 0
M  V30 1182 C 120.716 -4.49733 -0.0776792 0
M  V30 1183 C 122.035 -3.88259 -2.07228 0
M  V30 1184 H 119.154 -0.705105 -0.214466 0
M  V30 1185 H 121.796 -1.8947 0.141854 0
M  V30 1186 H 119.946 -3.44549 -1.79494 0
M  V30 1187 H 121.618 -4.57942 0.555573 0
M  V30 1188 H 119.861 -4.29751 0.591286 0
M  V30 1189 H 120.532 -5.49549 -0.519603 0
M  V30 1190 H 123.008 -3.86376 -1.54445 0
M  V30 1191 H 121.884 -4.91533 -2.44308 0
M  V30 1192 H 122.145 -3.26396 -2.98191 0
M  V30 1193 N 121.204 0.198386 -1.56346 0
M  V30 1194 C 122.167 1.22952 -1.93431 0
M  V30 1195 C 123.167 1.38611 -0.815092 0
M  V30 1196 O 124.357 1.36479 -1.08255 0
M  V30 1197 C 121.489 2.59946 -2.20546 0
M  V30 1198 H 122.682 0.912626 -2.85677 0
M  V30 1199 H 120.235 0.43977 -1.49986 0
M  V30 1200 H 120.97 2.96696 -1.30927 0
M  V30 1201 H 120.755 2.49953 -3.02102 0
M  V30 1202 H 122.245 3.3431 -2.50253 0
M  V30 1203 N 122.682 1.50554 0.465978 0
M  V30 1204 C 123.907 1.65838 1.24549 0
M  V30 1205 C 124.332 0.343486 1.84937 0
M  V30 1206 O 123.69 -0.69324 1.67523 0
M  V30 1207 C 123.738 2.75533 2.32624 0
M  V30 1208 O 122.842 2.37142 3.37398 0
M  V30 1209 H 122.183 0.553893 0.366194 0
M  V30 1210 H 124.713 1.96959 0.553927 0
M  V30 1211 H 124.723 2.98763 2.77857 0
M  V30 1212 H 123.398 3.70962 1.88043 0
M  V30 1213 H 121.975 2.24377 2.97841 0
M  V30 1214 N 124.16 -0.719506 1.40217 0
M  V30 1215 C 125.408 -1.47641 1.3801 0
M  V30 1216 C 125.729 -1.94992 -0.018145 0
M  V30 1217 O 124.999 -1.70073 -0.972207 0
M  V30 1218 H 123.579 -0.547744 0.507923 0
M  V30 1219 H 126.241 -0.853187 1.75233 0
M  V30 1220 H 125.337 -2.35112 2.05253 0
M  V30 1221 N 125.638 -1.25649 -0.95132 0
M  V30 1222 C 126.863 -1.13443 -1.73624 0
M  V30 1223 C 127.288 0.307565 -1.85568 0
M  V30 1224 O 126.646 1.22282 -1.33854 0
M  V30 1225 C 126.694 -1.79723 -3.12621 0
M  V30 1226 O 125.798 -1.07912 -3.98031 0
M  V30 1227 H 125.139 -0.395872 -0.533086 0
M  V30 1228 H 127.669 -1.66276 -1.1922 0
M  V30 1229 H 127.679 -1.86141 -3.63064 0
M  V30 1230 H 126.354 -2.84633 -3.03244 0
M  V30 1231 H 124.931 -1.09398 -3.56492 0
M  V30 1232 N 127.117 1.15442 -1.07289 0
M  V30 1233 C 128.345 1.90096 -0.81676 0
M  V30 1234 C 128.76 1.7798 0.629966 0
M  V30 1235 O 128.117 1.1313 1.43206 0
M  V30 1236 C 128.168 3.40466 -1.21512 0
M  V30 1237 O 127.889 3.52232 -2.60508 0
M  V30 1238 C 129.39 4.32145 -0.988198 0
M  V30 1239 H 126.61 0.602495 -0.295366 0
M  V30 1240 H 129.154 1.4627 -1.42918 0
M  V30 1241 H 127.309 3.81958 -0.647039 0
M  V30 1242 H 127.723 4.45549 -2.76742 0
M  V30 1243 H 129.197 5.36072 -1.31645 0
M  V30 1244 H 129.674 4.39135 0.0755063 0
M  V30 1245 H 130.28 3.96395 -1.54115 0
M  V30 1246 N 128.595 0.856903 1.32268 0
M  V30 1247 C 129.843 0.460474 1.96784 0
M  V30 1248 C 130.164 -0.987701 1.68135 0
M  V30 1249 O 129.434 -1.69058 0.989765 0
M  V30 1250 H 128.014 0.167289 0.728027 0
M  V30 1251 H 130.676 1.09383 1.61312 0
M  V30 1252 H 129.772 0.60739 3.06133 0
M  V30 1253 N 130.073 -1.45103 0.615059 0
M  V30 1254 C 131.35 -1.95549 0.0448276 0
M  V30 1255 C 131.73 -1.55737 -1.4251 0
M  V30 1256 O 131.078 -0.823556 -2.13143 0
M  V30 1257 C 131.288 -3.48098 0.250785 0
M  V30 1258 C 132.636 -4.24384 0.135509 0
M  V30 1259 O 133.66 -3.55738 0.181299 0
M  V30 1260 O 132.519 -5.46493 0.0268878 0
M  V30 1261 H 129.613 -0.8264 -0.0314845 0
M  V30 1262 H 132.159 -1.55232 0.685642 0
M  V30 1263 H 130.931 -3.7007 1.27139 0
M  V30 1264 H 130.554 -3.95323 -0.424937 0
M  V30 1265 N 131.551 -0.354651 -1.53558 0
M  V30 1266 C 132.483 0.5315 -2.22952 0
M  V30 1267 C 133.496 1.05503 -1.23988 0
M  V30 1268 O 134.685 0.963279 -1.50277 0
M  V30 1269 C 131.785 1.74538 -2.90499 0
M  V30 1270 C 130.958 1.35524 -4.15875 0
M  V30 1271 C 130.017 2.42999 -4.66731 0
M  V30 1272 O 129.043 2.05844 -5.30676 0
M  V30 1273 N 130.245 3.74423 -4.43608 0
M  V30 1274 H 133.01 -0.0628615 -2.99634 0
M  V30 1275 H 130.571 -0.179302 -1.60904 0
M  V30 1276 H 132.563 2.45892 -3.21433 0
M  V30 1277 H 131.133 2.24686 -2.17336 0
M  V30 1278 H 130.353 0.471998 -3.91364 0
M  V30 1279 H 131.641 1.07071 -4.97406 0
M  V30 1280 H 131.039 4.07391 -3.92491 0
M  V30 1281 H 129.596 4.41913 -4.7912 0
M  V30 1282 N 133.029 1.57378 -0.0835403 0
M  V30 1283 C 133.976 2.13384 0.879539 0
M  V30 1284 C 134.946 1.04936 1.28754 0
M  V30 1285 O 136.131 1.32662 1.37133 0
M  V30 1286 C 133.271 2.70932 2.13752 0
M  V30 1287 C 132.384 3.93575 1.7811 0
M  V30 1288 C 131.519 4.39326 2.98607 0
M  V30 1289 C 130.558 5.54587 2.59037 0
M  V30 1290 N 129.695 5.95243 3.72331 0
M  V30 1291 H 134.535 2.9537 0.395076 0
M  V30 1292 H 132.072 1.45953 0.183349 0
M  V30 1293 H 134.03 3.02411 2.87408 0
M  V30 1294 H 132.66 1.91693 2.59718 0
M  V30 1295 H 131.712 3.68483 0.94469 0
M  V30 1296 H 133.024 4.77258 1.45005 0
M  V30 1297 H 132.178 4.72528 3.80529 0
M  V30 1298 H 130.917 3.5452 3.34913 0
M  V30 1299 H 129.922 5.21024 1.75539 0
M  V30 1300 H 131.147 6.41133 2.23887 0
M  V30 1301 H 129.093 5.13385 4.08378 0
M  V30 1302 H 129.01 6.73694 3.43034 0
M  V30 1303 H 130.278 6.33072 4.54797 0
M  V30 1304 N 134.507 -0.190092 1.56449 0
M  V30 1305 C 135.753 -0.911052 1.81184 0
M  V30 1306 C 136.086 -1.82699 0.658396 0
M  V30 1307 O 135.361 -1.91491 -0.340775 0
M  V30 1308 C 135.644 -1.72297 3.16205 0
M  V30 1309 C 135.497 -0.831419 4.42049 0
M  V30 1310 C 136.816 -2.69454 3.47969 0
M  V30 1311 H 133.935 -0.32977 0.659106 0
M  V30 1312 H 136.577 -0.178169 1.89163 0
M  V30 1313 H 134.727 -2.34778 3.09534 0
M  V30 1314 H 136.399 -0.220929 4.60771 0
M  V30 1315 H 134.642 -0.138406 4.33579 0
M  V30 1316 H 135.313 -1.43461 5.33032 0
M  V30 1317 H 137.789 -2.17104 3.54972 0
M  V30 1318 H 136.665 -3.23342 4.43555 0
M  V30 1319 H 136.926 -3.48744 2.71717 0
M  V30 1320 N 135.985 -1.50799 -0.457987 0
M  V30 1321 C 136.917 -1.66786 -1.57211 0
M  V30 1322 C 137.93 -0.548962 -1.53265 0
M  V30 1323 O 139.119 -0.8226 -1.58416 0
M  V30 1324 C 136.219 -1.64834 -2.96113 0
M  V30 1325 C 135.392 -2.92971 -3.24787 0
M  V30 1326 C 134.451 -2.83485 -4.43309 0
M  V30 1327 O 133.477 -3.5744 -4.42973 0
M  V30 1328 N 134.679 -1.97929 -5.45714 0
M  V30 1329 H 137.444 -2.62889 -1.43909 0
M  V30 1330 H 135.005 -1.48427 -0.646617 0
M  V30 1331 H 136.997 -1.56084 -3.7339 0
M  V30 1332 H 135.567 -0.764118 -3.03117 0
M  V30 1333 H 134.787 -3.15749 -2.36 0
M  V30 1334 H 136.075 -3.77834 -3.40762 0
M  V30 1335 H 135.473 -1.37182 -5.48815 0
M  V30 1336 H 134.03 -1.95073 -6.21924 0
M  V30 1337 N 137.463 0.71206 -1.40597 0
M  V30 1338 C 138.712 1.46754 -1.38369 0
M  V30 1339 C 139.025 1.95598 0.0097839 0
M  V30 1340 O 140.231 2.71059 0.154677 0
M  V30 1341 C 138.687 2.65289 -2.43207 0
M  V30 1342 C 138.295 2.23301 -3.88382 0
M  V30 1343 C 140.039 3.43008 -2.50091 0
M  V30 1344 C 137.946 3.38696 -4.84808 0
M  V30 1345 H 136.876 0.55118 -0.514506 0
M  V30 1346 H 139.527 0.774616 -1.66349 0
M  V30 1347 H 137.909 3.36769 -2.08332 0
M  V30 1348 H 139.083 1.59218 -4.32419 0
M  V30 1349 H 137.398 1.58618 -3.85006 0
M  V30 1350 H 139.995 4.28881 -3.1932 0
M  V30 1351 H 140.338 3.87065 -1.53253 0
M  V30 1352 H 140.871 2.78574 -2.83974 0
M  V30 1353 H 137.61 2.99668 -5.82992 0
M  V30 1354 H 137.13 4.01683 -4.45433 0
M  V30 1355 H 138.809 4.04712 -5.04794 0
M  V30 1356 N 138.941 1.26152 0.944643 0
M  V30 1357 C 140.166 1.14363 1.7302 0
M  V30 1358 C 140.591 -0.29772 1.85729 0
M  V30 1359 O 139.949 -1.2157 1.34501 0
M  V30 1360 C 139.997 1.81378 3.11664 0
M  V30 1361 O 139.101 1.10022 3.97453 0
M  V30 1362 H 138.442 0.398694 0.53098 0
M  V30 1363 H 140.972 1.66906 1.18337 0
M  V30 1364 H 140.982 1.88064 3.62072 0
M  V30 1365 H 139.657 2.86237 3.0173 0
M  V30 1366 H 138.234 1.11287 3.55907 0
M  V30 1367 N 140.419 -1.14872 1.07899 0
M  V30 1368 C 141.649 -1.89386 0.825631 0
M  V30 1369 C 142.057 -1.78565 -0.625406 0
M  V30 1370 O 141.4 -1.13918 -1.44113 0
M  V30 1371 C 141.462 -3.40206 1.16191 0
M  V30 1372 C 141.126 -3.74812 2.61467 0
M  V30 1373 C 142.123 -3.75367 3.59716 0
M  V30 1374 C 139.808 -4.0495 2.97189 0
M  V30 1375 C 141.802 -4.05574 4.9172 0
M  V30 1376 C 139.489 -4.34821 4.29388 0
M  V30 1377 C 140.487 -4.35116 5.26463 0
M  V30 1378 O 140.175 -4.64267 6.56286 0
M  V30 1379 H 139.907 -0.606894 0.297751 0
M  V30 1380 H 142.461 -1.46438 1.44031 0
M  V30 1381 H 140.691 -3.8358 0.490214 0
M  V30 1382 H 142.38 -3.96018 0.890193 0
M  V30 1383 H 143.146 -3.52176 3.33462 0
M  V30 1384 H 139.025 -4.03876 2.22273 0
M  V30 1385 H 142.569 -4.05719 5.67484 0
M  V30 1386 H 138.466 -4.5748 4.55392 0
M  V30 1387 H 139.234 -4.82007 6.61522 0
M  V30 1388 N 141.898 -0.863906 -1.31812 0
M  V30 1389 C 143.128 -0.485406 -2.00817 0
M  V30 1390 C 143.536 0.925007 -1.65046 0
M  V30 1391 O 142.879 1.61653 -0.872574 0
M  V30 1392 C 142.941 -0.555589 -3.55181 0
M  V30 1393 C 142.605 -1.92654 -4.14407 0
M  V30 1394 C 143.602 -2.89324 -4.31958 0
M  V30 1395 C 141.287 -2.2262 -4.50273 0
M  V30 1396 C 143.281 -4.14108 -4.84555 0
M  V30 1397 C 140.968 -3.47654 -5.02573 0
M  V30 1398 C 141.966 -4.43214 -5.19664 0
M  V30 1399 O 141.654 -5.66033 -5.70843 0
M  V30 1400 H 141.386 -0.188224 -0.649267 0
M  V30 1401 H 143.94 -1.16514 -1.69156 0
M  V30 1402 H 142.17 0.181037 -3.86276 0
M  V30 1403 H 143.859 -0.19138 -4.05449 0
M  V30 1404 H 144.625 -2.6748 -4.04573 0
M  V30 1405 H 140.504 -1.4902 -4.3625 0
M  V30 1406 H 144.048 -4.88703 -4.9781 0
M  V30 1407 H 139.945 -3.69345 -5.29391 0
M  V30 1408 H 140.713 -5.6812 -5.89222 0
M  V30 1409 N 143.376 1.44774 -0.622745 0
M  V30 1410 C 144.624 2.01721 -0.123655 0
M  V30 1411 C 144.945 1.49172 1.25589 0
M  V30 1412 O 144.215 0.691974 1.83272 0
M  V30 1413 H 142.795 0.745777 -0.0427225 0
M  V30 1414 H 145.457 1.77382 -0.807559 0
M  V30 1415 H 144.553 3.11984 -0.0849534 0
M  V30 1416 N 144.854 0.36279 1.53368 0
M  V30 1417 C 146.265 -0.117022 1.86333 0
M  V30 1418 C 146.616 -1.48397 1.28347 0
M  V30 1419 O 145.741 -2.07787 0.604428 0
M  V30 1420 C 146.336 -0.21912 3.38091 0
M  V30 1421 C 144.895 -0.643184 3.70864 0
M  V30 1422 C 144.042 0.211318 2.76494 0
M  V30 1423 H 146.993 0.581687 1.47655 0
M  V30 1424 H 147.014 -1.04319 3.6592 0
M  V30 1425 H 146.526 0.775902 3.80265 0
M  V30 1426 H 144.627 -1.64654 3.34245 0
M  V30 1427 H 144.74 -0.41973 4.77258 0
M  V30 1428 H 143.104 -0.319367 2.5269 0
M  V30 1429 H 143.887 1.20383 3.21501 0
M  V30 1430 N 146.332 -1.57332 0.0918853 0
M  V30 1431 C 147.279 -2.13847 -0.868211 0
M  V30 1432 C 148.249 -1.05618 -1.28196 0
M  V30 1433 O 149.434 -1.33387 -1.36427 0
M  V30 1434 C 146.574 -2.72062 -2.12312 0
M  V30 1435 C 145.687 -3.94514 -1.7602 0
M  V30 1436 C 144.822 -4.40903 -2.96273 0
M  V30 1437 C 143.861 -5.55953 -2.56092 0
M  V30 1438 N 142.998 -5.97209 -3.69169 0
M  V30 1439 H 147.838 -2.95575 -0.379406 0
M  V30 1440 H 145.375 -1.46048 -0.175606 0
M  V30 1441 H 147.333 -3.03931 -2.858 0
M  V30 1442 H 145.963 -1.93068 -2.58698 0
M  V30 1443 H 145.015 -3.68979 -0.925135 0
M  V30 1444 H 146.327 -4.7802 -1.42472 0
M  V30 1445 H 145.481 -4.74539 -3.78018 0
M  V30 1446 H 144.22 -3.56291 -3.33029 0
M  V30 1447 H 143.225 -5.21948 -1.72773 0
M  V30 1448 H 144.45 -6.42311 -2.20484 0
M  V30 1449 H 142.396 -5.15543 -4.05649 0
M  V30 1450 H 142.313 -6.75504 -3.39456 0
M  V30 1451 H 143.581 -6.35475 -4.51434 0
M  V30 1452 N 147.81 0.181792 -1.56548 0
M  V30 1453 C 149.038 0.915947 -1.85521 0
M  V30 1454 C 149.453 1.76282 -0.676016 0
M  V30 1455 O 148.81 1.79012 0.355077 0
M  V30 1456 C 148.861 1.80126 -3.13427 0
M  V30 1457 O 148.582 0.988562 -4.26801 0
M  V30 1458 C 150.083 2.64597 -3.55673 0
M  V30 1459 H 147.303 0.26661 -0.61576 0
M  V30 1460 H 149.847 0.185039 -2.03661 0
M  V30 1461 H 148.002 2.48563 -2.97145 0
M  V30 1462 H 148.416 1.59308 -4.99721 0
M  V30 1463 H 149.89 3.2235 -4.48101 0
M  V30 1464 H 150.367 3.38958 -2.79292 0
M  V30 1465 H 150.973 2.0151 -3.74532 0
M  V30 1466 N 149.288 1.51039 0.449983 0
M  V30 1467 C 150.699 1.557 1.03026 0
M  V30 1468 C 151.05 0.372939 1.92623 0
M  V30 1469 O 150.175 -0.511771 2.10261 0
M  V30 1470 C 150.77 2.82171 1.87523 0
M  V30 1471 C 149.329 2.89444 2.40622 0
M  V30 1472 C 148.476 2.50228 1.19504 0
M  V30 1473 H 151.427 1.56999 0.231745 0
M  V30 1474 H 151.448 2.65219 2.72835 0
M  V30 1475 H 150.96 3.68331 1.22286 0
M  V30 1476 H 149.061 2.07685 3.0935 0
M  V30 1477 H 149.174 3.92816 2.74285 0
M  V30 1478 H 147.538 2.03139 1.53644 0
M  V30 1479 H 148.321 3.38719 0.558972 0
M  V30 1480 N 150.766 -0.704594 1.40972 0
M  V30 1481 C 152.177 -1.28418 1.3552 0
M  V30 1482 C 152.528 -1.96171 0.0339434 0
M  V30 1483 O 151.653 -1.98231 -0.867944 0
M  V30 1484 C 152.248 -2.33528 2.45459 0
M  V30 1485 C 150.807 -2.87085 2.43433 0
M  V30 1486 C 149.954 -1.61007 2.2577 0
M  V30 1487 H 152.905 -0.499963 1.50619 0
M  V30 1488 H 152.926 -3.14619 2.13998 0
M  V30 1489 H 152.438 -1.84187 3.41609 0
M  V30 1490 H 150.539 -3.40626 1.51013 0
M  V30 1491 H 150.652 -3.3813 3.39419 0
M  V30 1492 H 149.016 -1.86482 1.73483 0
M  V30 1493 H 149.799 -1.13675 3.23933 0
M  V30 1494 N 152.244 -1.26651 -0.937939 0
M  V30 1495 C 153.49 -1.12553 -1.687 0
M  V30 1496 C 153.823 0.329782 -1.91379 0
M  V30 1497 O 153.098 1.24202 -1.4968 0
M  V30 1498 C 153.381 -1.89862 -3.05981 0
M  V30 1499 C 153.234 -3.43318 -2.90607 0
M  V30 1500 C 154.553 -1.69499 -4.0615 0
M  V30 1501 H 151.672 -0.410257 -0.612257 0
M  V30 1502 H 154.314 -1.55685 -1.08913 0
M  V30 1503 H 152.464 -1.53204 -3.57017 0
M  V30 1504 H 154.136 -3.89747 -2.46769 0
M  V30 1505 H 152.379 -3.70179 -2.26164 0
M  V30 1506 H 153.05 -3.92642 -3.8799 0
M  V30 1507 H 155.526 -2.01442 -3.64088 0
M  V30 1508 H 154.402 -2.26002 -5.00214 0
M  V30 1509 H 154.663 -0.640365 -4.37438 0
M  V30 1510 N 153.722 1.14298 -1.08507 0
M  V30 1511 C 154.669 2.19414 -0.715965 0
M  V30 1512 C 155.639 1.63399 0.298326 0
M  V30 1513 O 156.824 1.89929 0.182101 0
M  V30 1514 C 153.964 3.44845 -0.132534 0
M  V30 1515 C 153.077 4.15007 -1.19973 0
M  V30 1516 C 152.212 5.28024 -0.580048 0
M  V30 1517 C 151.251 5.9002 -1.62921 0
M  V30 1518 N 150.388 6.94485 -1.03125 0
M  V30 1519 H 155.228 2.50336 -1.61666 0
M  V30 1520 H 152.765 1.2293 -0.807882 0
M  V30 1521 H 154.723 4.16601 0.223454 0
M  V30 1522 H 153.353 3.14403 0.731467 0
M  V30 1523 H 152.405 3.41629 -1.67313 0
M  V30 1524 H 153.717 4.57178 -1.99473 0
M  V30 1525 H 152.871 6.06455 -0.172364 0
M  V30 1526 H 151.61 4.87076 0.246603 0
M  V30 1527 H 150.615 5.10291 -2.04654 0
M  V30 1528 H 151.84 6.33042 -2.45835 0
M  V30 1529 H 149.786 6.55612 -0.225711 0
M  V30 1530 H 149.703 7.35148 -1.76334 0
M  V30 1531 H 150.971 7.7679 -0.649458 0
M  V30 1532 N 155.201 0.870884 1.31352 0
M  V30 1533 C 156.164 0.332243 2.26779 0
M  V30 1534 C 157.164 -0.517302 1.52252 0
M  V30 1535 O 158.354 -0.326477 1.71113 0
M  V30 1536 C 155.486 -0.528066 3.36785 0
M  V30 1537 H 156.679 1.17469 2.75937 0
M  V30 1538 H 154.232 0.64655 1.423 0
M  V30 1539 H 154.967 -1.39167 2.92922 0
M  V30 1540 H 154.752 0.0802582 3.92018 0
M  V30 1541 H 156.242 -0.897179 4.07849 0
M  V30 1542 N 156.679 -1.44442 0.630414 0
M  V30 1543 C 157.609 -2.33418 -0.0618083 0
M  V30 1544 C 158.59 -1.48165 -0.835541 0
M  V30 1545 O 159.775 -1.76886 -0.801564 0
M  V30 1546 C 156.905 -3.31222 -1.04449 0
M  V30 1547 C 155.859 -4.26288 -0.382436 0
M  V30 1548 C 155.185 -5.13954 -1.47497 0
M  V30 1549 C 156.485 -5.1744 0.710865 0
M  V30 1550 H 158.179 -2.91548 0.681184 0
M  V30 1551 H 155.725 -1.40191 0.329026 0
M  V30 1552 H 157.678 -3.92351 -1.53748 0
M  V30 1553 H 156.402 -2.71299 -1.81836 0
M  V30 1554 H 155.061 -3.6649 0.0899054 0
M  V30 1555 H 154.709 -4.50385 -2.2397 0
M  V30 1556 H 154.409 -5.7837 -1.03737 0
M  V30 1557 H 155.933 -5.77955 -1.96979 0
M  V30 1558 H 157.347 -5.72509 0.300996 0
M  V30 1559 H 155.744 -5.90455 1.07156 0
M  V30 1560 H 156.814 -4.58496 1.57829 0
M  V30 1561 N 158.157 -0.370918 -1.53173 0
M  V30 1562 C 159.087 0.464847 -2.28826 0
M  V30 1563 C 160.068 1.07936 -1.31468 0
M  V30 1564 O 161.253 1.0956 -1.60344 0
M  V30 1565 C 158.383 1.60196 -3.08147 0
M  V30 1566 C 157.337 1.11443 -4.13237 0
M  V30 1567 C 156.663 2.3422 -4.80672 0
M  V30 1568 C 157.963 0.195384 -5.21934 0
M  V30 1569 H 159.657 -0.166329 -2.98938 0
M  V30 1570 H 157.203 -0.0814359 -1.4377 0
M  V30 1571 H 159.156 2.19332 -3.59822 0
M  V30 1572 H 157.88 2.26045 -2.35735 0
M  V30 1573 H 156.539 0.545727 -3.62515 0
M  V30 1574 H 156.187 2.98537 -4.04827 0
M  V30 1575 H 155.887 2.02269 -5.51689 0
M  V30 1576 H 157.411 2.94032 -5.35143 0
M  V30 1577 H 158.825 0.694375 -5.69079 0
M  V30 1578 H 157.222 -0.0335027 -6.00091 0
M  V30 1579 H 158.292 -0.760961 -4.78892 0
M  V30 1580 N 159.635 1.57281 -0.100228 0
M  V30 1581 C 160.865 1.98591 0.569681 0
M  V30 1582 C 161.273 0.978315 1.61943 0
M  V30 1583 O 160.616 -0.0396108 1.83657 0
M  V30 1584 C 160.678 3.36282 1.271 0
M  V30 1585 C 160.342 4.55488 0.371409 0
M  V30 1586 C 161.339 5.18491 -0.382504 0
M  V30 1587 C 159.024 5.01474 0.287965 0
M  V30 1588 C 161.018 6.25852 -1.20779 0
M  V30 1589 C 158.705 6.08701 -0.540965 0
M  V30 1590 C 159.703 6.70755 -1.28749 0
M  V30 1591 O 159.391 7.75914 -2.10269 0
M  V30 1592 H 159.123 0.65752 0.156982 0
M  V30 1593 H 161.677 2.0463 -0.177734 0
M  V30 1594 H 159.907 3.26941 2.0651 0
M  V30 1595 H 161.596 3.62005 1.83595 0
M  V30 1596 H 162.362 4.83891 -0.3278 0
M  V30 1597 H 158.241 4.52932 0.858689 0
M  V30 1598 H 161.785 6.74218 -1.79096 0
M  V30 1599 H 157.682 6.42732 -0.597131 0
M  V30 1600 H 158.45 7.92925 -2.03007 0
M  V30 1601 N 161.113 -0.173488 1.56642 0
M  V30 1602 C 162.043 -1.2171 1.99271 0
M  V30 1603 C 163.024 -1.46289 0.867959 0
M  V30 1604 O 164.209 -1.5766 1.13388 0
M  V30 1605 C 161.339 -2.55651 2.35074 0
M  V30 1606 C 160.293 -2.45645 3.50489 0
M  V30 1607 C 159.619 -3.84056 3.72028 0
M  V30 1608 C 160.919 -1.96302 4.84007 0
M  V30 1609 H 162.613 -0.86275 2.867 0
M  V30 1610 H 160.159 -0.413571 1.37933 0
M  V30 1611 H 162.112 -3.2886 2.63494 0
M  V30 1612 H 160.836 -2.92869 1.44552 0
M  V30 1613 H 159.495 -1.7489 3.22194 0
M  V30 1614 H 159.143 -4.18664 2.788 0
M  V30 1615 H 158.843 -3.7823 4.49684 0
M  V30 1616 H 160.367 -4.58854 4.02846 0
M  V30 1617 H 161.781 -2.59284 5.11317 0
M  V30 1618 H 160.178 -2.01429 5.65284 0
M  V30 1619 H 161.248 -0.917226 4.76146 0
M  V30 1620 N 162.591 -1.51276 -0.441967 0
M  V30 1621 C 163.819 -1.67516 -1.21434 0
M  V30 1622 C 164.234 -0.37055 -1.85128 0
M  V30 1623 O 163.591 0.650498 -1.70513 0
M  V30 1624 C 163.642 -2.78748 -2.30177 0
M  V30 1625 O 163.363 -4.04154 -1.69089 0
M  V30 1626 C 164.864 -3.06217 -3.20541 0
M  V30 1627 H 162.084 -0.562276 -0.366178 0
M  V30 1628 H 164.628 -1.97666 -0.524244 0
M  V30 1629 H 162.783 -2.5121 -2.94911 0
M  V30 1630 H 163.197 -4.65894 -2.40922 0
M  V30 1631 H 164.671 -3.8764 -3.92987 0
M  V30 1632 H 165.148 -2.18439 -3.81026 0
M  V30 1633 H 165.754 -3.35397 -2.61513 0
M  V30 1634 N 164.069 0.697108 -1.41344 0
M  V30 1635 C 165.317 1.45426 -1.40341 0
M  V30 1636 C 165.638 1.94996 -0.0128787 0
M  V30 1637 O 164.908 1.71599 0.945027 0
M  V30 1638 H 163.488 0.539594 -0.516573 0
M  V30 1639 H 166.15 0.825201 -1.76569 0
M  V30 1640 H 165.246 2.31817 -2.08967 0
M  V30 1641 N 165.547 1.27147 0.931209 0
M  V30 1642 C 166.793 1.13446 1.68101 0
M  V30 1643 C 167.126 -0.319628 1.91552 0
M  V30 1644 O 166.401 -1.23407 1.50336 0
M  V30 1645 C 166.684 1.91482 3.0497 0
M  V30 1646 C 166.537 3.44855 2.88782 0
M  V30 1647 C 167.856 1.71651 4.05246 0
M  V30 1648 H 164.975 0.413498 0.610072 0
M  V30 1649 H 167.617 1.56261 1.08086 0
M  V30 1650 H 165.767 1.55095 3.56199 0
M  V30 1651 H 167.439 3.9105 2.44698 0
M  V30 1652 H 165.682 3.71373 2.24198 0
M  V30 1653 H 166.353 3.94694 3.85902 0
M  V30 1654 H 168.829 2.0337 3.63015 0
M  V30 1655 H 167.705 2.28651 4.99009 0
M  V30 1656 H 167.966 0.663555 4.37092 0
M  V30 1657 N 167.025 -1.13721 1.09112 0
M  V30 1658 C 167.935 -2.22638 0.73957 0
M  V30 1659 C 168.951 -1.72091 -0.257068 0
M  V30 1660 O 170.127 -2.01155 -0.0992154 0
M  V30 1661 C 167.192 -3.46322 0.16191 0
M  V30 1662 C 166.253 -4.11775 1.21408 0
M  V30 1663 C 165.486 -5.29555 0.663891 0
M  V30 1664 O 165.709 -5.68077 -0.514274 0
M  V30 1665 O 164.643 -5.84973 1.41738 0
M  V30 1666 H 168.469 -2.55074 1.64836 0
M  V30 1667 H 166.054 -1.21791 0.865289 0
M  V30 1668 H 167.936 -4.21107 -0.157073 0
M  V30 1669 H 166.611 -3.15593 -0.719932 0
M  V30 1670 H 165.518 -3.3883 1.58571 0
M  V30 1671 H 166.851 -4.46627 2.06845 0
M  V30 1672 N 168.503 -0.877838 -1.30888 0
M  V30 1673 C 169.752 -0.488793 -1.95688 0
M  V30 1674 C 170.065 0.965485 -1.70111 0
M  V30 1675 O 171.271 1.46104 -2.28836 0
M  V30 1676 C 169.727 -0.823201 -3.50359 0
M  V30 1677 C 169.335 -2.29477 -3.84765 0
M  V30 1678 C 171.079 -0.503009 -4.21509 0
M  V30 1679 C 168.986 -2.57118 -5.32583 0
M  V30 1680 H 167.916 -0.179062 -0.732429 0
M  V30 1681 H 170.567 -1.07183 -1.48943 0
M  V30 1682 H 168.949 -0.169331 -3.95638 0
M  V30 1683 H 170.123 -2.99236 -3.5042 0
M  V30 1684 H 168.438 -2.58178 -3.267 0
M  V30 1685 H 171.035 -0.68665 -5.30273 0
M  V30 1686 H 171.378 0.557109 -4.12555 0
M  V30 1687 H 171.911 -1.11376 -3.8189 0
M  V30 1688 H 168.65 -3.61843 -5.4658 0
M  V30 1689 H 168.17 -1.91961 -5.68253 0
M  V30 1690 H 169.849 -2.42251 -5.99936 0
M  V30 1691 N 169.982 1.44106 -0.638065 0
M  V30 1692 C 171.207 2.0685 -0.150916 0
M  V30 1693 C 171.632 1.47417 1.16833 0
M  V30 1694 O 170.99 0.578264 1.71831 0
M  V30 1695 C 171.038 3.60555 -0.05708 0
M  V30 1696 O 170.142 4.00465 0.984972 0
M  V30 1697 H 169.483 0.658151 -0.0879399 0
M  V30 1698 H 172.013 1.84865 -0.876707 0
M  V30 1699 H 172.023 4.07789 0.131232 0
M  V30 1700 H 170.698 4.03193 -1.02021 0
M  V30 1701 H 169.275 3.64849 0.770672 0
M  V30 1702 N 171.46 0.379036 1.52974 0
M  V30 1703 C 172.39 -0.452706 2.29069 0
M  V30 1704 C 173.371 -1.07237 1.32039 0
M  V30 1705 O 174.556 -1.08708 1.60923 0
M  V30 1706 C 171.686 -1.5856 3.08992 0
M  V30 1707 C 170.64 -1.0925 4.13822 0
M  V30 1708 C 169.966 -2.31668 4.81907 0
M  V30 1709 C 171.266 -0.167702 5.22031 0
M  V30 1710 H 172.96 0.182181 2.98845 0
M  V30 1711 H 170.506 0.0890592 1.43724 0
M  V30 1712 H 172.459 -2.1742 3.6098 0
M  V30 1713 H 171.183 -2.24792 2.36931 0
M  V30 1714 H 169.842 -0.526494 3.628 0
M  V30 1715 H 169.49 -2.96386 4.06404 0
M  V30 1716 H 169.19 -1.9934 5.52754 0
M  V30 1717 H 170.714 -2.91189 5.36695 0
M  V30 1718 H 172.128 -0.664186 5.6944 0
M  V30 1719 H 170.525 0.0653265 6.00064 0
M  V30 1720 H 171.595 0.786347 4.78482 0
M  V30 1721 N 172.938 -1.57226 0.108567 0
M  V30 1722 C 174.178 -1.96717 -0.555155 0
M  V30 1723 C 174.542 -0.990003 -1.64508 0
M  V30 1724 O 175.743 -1.2739 -2.36696 0
M  V30 1725 C 174.014 -3.40575 -1.08367 0
M  V30 1726 S 175.573 -4.02072 -1.75737 0
M  V30 1727 H 172.391 -0.687638 -0.180762 0
M  V30 1728 H 174.993 -1.94563 0.191172 0
M  V30 1729 H 173.697 -4.0945 -0.279092 0
M  V30 1730 H 173.228 -3.46356 -1.86551 0
M  V30 1731 H 175.243 -3.91977 -3.04251 0
M  V30 1732 N 174.416 0.165178 -1.56732 0
M  V30 1733 C 175.379 1.18822 -1.95995 0
M  V30 1734 C 176.379 1.3685 -0.84431 0
M  V30 1735 O 177.569 1.34152 -1.11126 0
M  V30 1736 C 174.701 2.5521 -2.26011 0
M  V30 1737 H 175.894 0.851825 -2.87548 0
M  V30 1738 H 173.447 0.407857 -1.50885 0
M  V30 1739 H 174.182 2.93852 -1.37191 0
M  V30 1740 H 173.967 2.43489 -3.07336 0
M  V30 1741 H 175.457 3.28927 -2.57288 0
M  V30 1742 N 175.894 1.51508 0.433938 0
M  V30 1743 C 177.171 1.54888 1.19453 0
M  V30 1744 C 177.551 0.315154 2.08734 0
M  V30 1745 O 176.899 -0.699558 2.17528 0
M  V30 1746 C 177.109 2.86467 1.99342 0
M  V30 1747 C 178.457 3.38545 2.56267 0
M  V30 1748 O 179.481 2.88041 2.0955 0
M  V30 1749 O 178.34 4.26675 3.41483 0
M  V30 1750 H 175.434 0.622863 0.544032 0
M  V30 1751 H 177.98 1.63823 0.442732 0
M  V30 1752 H 176.752 3.67718 1.33788 0
M  V30 1753 H 176.375 2.8071 2.8158 0
M  V30 1754 N 177.372 -0.689602 1.41712 0
M  V30 1755 C 178.621 -1.44534 1.40686 0
M  V30 1756 C 178.934 -1.95588 0.0213352 0
M  V30 1757 O 180.14 -2.71271 -0.111534 0
M  V30 1758 C 178.596 -2.61387 2.47396 0
M  V30 1759 C 178.204 -2.17094 3.91885 0
M  V30 1760 C 179.948 -3.38986 2.55517 0
M  V30 1761 C 177.855 -3.3094 4.90135 0
M  V30 1762 H 176.785 -0.542925 0.52321 0
M  V30 1763 H 179.436 -0.748054 1.6756 0
M  V30 1764 H 177.818 -3.33412 2.13664 0
M  V30 1765 H 178.992 -1.52318 4.34897 0
M  V30 1766 H 177.307 -1.52473 3.8748 0
M  V30 1767 H 179.904 -4.23747 3.26102 0
M  V30 1768 H 180.247 -3.84578 1.59391 0
M  V30 1769 H 180.78 -2.74021 2.8837 0
M  V30 1770 H 177.519 -2.90355 5.87685 0
M  V30 1771 H 177.039 -3.94546 4.51767 0
M  V30 1772 H 178.718 -3.9663 5.11169 0
M  V30 1773 N 178.85 -1.27639 -0.924453 0
M  V30 1774 C 180.078 -1.16989 -1.70649 0
M  V30 1775 C 180.493 0.272869 -1.86818 0
M  V30 1776 O 179.85 1.18549 -1.38753 0
M  V30 1777 C 179.901 -1.85229 -3.10439 0
M  V30 1778 O 179.622 -3.23868 -2.95028 0
M  V30 1779 C 181.123 -1.80746 -4.04779 0
M  V30 1780 H 178.343 -0.406595 -0.53378 0
M  V30 1781 H 180.887 -1.68569 -1.15778 0
M  V30 1782 H 179.042 -1.37545 -3.6216 0
M  V30 1783 H 179.456 -3.57889 -3.83426 0
M  V30 1784 H 180.93 -2.33101 -5.00368 0
M  V30 1785 H 181.407 -0.777499 -4.32263 0
M  V30 1786 H 182.013 -2.28059 -3.58984 0
M  V30 1787 N 180.328 1.1314 -1.09713 0
M  V30 1788 C 181.744 1.36477 -0.827423 0
M  V30 1789 C 181.944 1.93654 0.556817 0
M  V30 1790 O 181 2.15791 1.31112 0
M  V30 1791 C 182.313 2.31334 -1.92106 0
M  V30 1792 C 183.861 2.44943 -1.94864 0
M  V30 1793 C 184.336 3.4311 -3.0338 0
M  V30 1794 N 185.827 3.50662 -3.02639 0
M  V30 1795 C 186.562 4.2651 -3.83246 0
M  V30 1796 N 186.058 5.05485 -4.73768 0
M  V30 1797 N 187.851 4.2184 -3.71493 0
M  V30 1798 H 180.002 0.743807 -1.9895 0
M  V30 1799 H 182.265 0.389823 -0.864143 0
M  V30 1800 H 181.971 1.96483 -2.91698 0
M  V30 1801 H 181.845 3.31381 -1.80184 0
M  V30 1802 H 184.232 2.79079 -0.959099 0
M  V30 1803 H 184.313 1.4481 -2.10864 0
M  V30 1804 H 183.957 3.09704 -4.02549 0
M  V30 1805 H 183.887 4.43055 -2.84622 0
M  V30 1806 H 186.378 2.94315 -2.37039 0
M  V30 1807 H 186.691 5.60675 -5.3185 0
M  V30 1808 H 185.036 5.04708 -4.77802 0
M  V30 1809 H 188.227 3.5922 -3.00131 0
M  V30 1810 H 188.4 4.80697 -4.3455 0
M  V30 1811 N 181.806 0.884767 1.30421 0
M  V30 1812 C 183.034 0.518044 2.0031 0
M  V30 1813 C 183.449 -0.893408 1.66324 0
M  V30 1814 O 182.806 -1.5875 0.900262 0
M  V30 1815 C 182.857 0.682997 3.54989 0
M  V30 1816 O 182.578 2.03888 3.87764 0
M  V30 1817 C 184.079 0.31924 4.42149 0
M  V30 1818 H 181.299 0.200265 0.640418 0
M  V30 1819 H 183.843 1.19001 1.6631 0
M  V30 1820 H 181.998 0.0584052 3.87356 0
M  V30 1821 H 182.412 2.05735 4.82466 0
M  V30 1822 H 183.886 0.485555 5.4986 0
M  V30 1823 H 184.363 -0.742717 4.32875 0
M  V30 1824 H 184.969 0.920147 4.15227 0
M  V30 1825 N 183.284 -1.43765 0.645699 0
M  V30 1826 C 184.532 -2.01499 0.155731 0
M  V30 1827 C 184.853 -1.51151 -1.232 0
M  V30 1828 O 184.123 -0.721044 -1.82148 0
M  V30 1829 H 182.703 -0.745003 0.0545817 0
M  V30 1830 H 185.365 -1.76075 0.835677 0
M  V30 1831 H 184.461 -3.1181 0.134577 0
M  V30 1832 N 184.763 -0.387143 -1.52771 0
M  V30 1833 C 185.71 0.449048 -2.26389 0
M  V30 1834 C 186.68 1.05961 -1.27912 0
M  V30 1835 O 187.865 1.08804 -1.56737 0
M  V30 1836 C 185.005 1.57155 -3.0724 0
M  V30 1837 C 184.118 0.984066 -4.20643 0
M  V30 1838 C 183.253 2.07745 -4.88892 0
M  V30 1839 C 182.292 1.46574 -5.94292 0
M  V30 1840 N 181.429 2.49834 -6.56146 0
M  V30 1841 H 186.269 -0.185205 -2.97424 0
M  V30 1842 H 183.806 -0.103164 -1.46738 0
M  V30 1843 H 185.764 2.23309 -3.52405 0
M  V30 1844 H 184.394 2.17615 -2.38419 0
M  V30 1845 H 183.446 0.212193 -3.79808 0
M  V30 1846 H 184.758 0.497029 -4.96318 0
M  V30 1847 H 183.912 2.81673 -5.3735 0
M  V30 1848 H 182.651 2.59807 -4.12737 0
M  V30 1849 H 181.656 0.711696 -5.45174 0
M  V30 1850 H 182.881 0.953088 -6.72379 0
M  V30 1851 H 180.827 3.0107 -5.82832 0
M  V30 1852 H 180.744 2.05879 -7.27427 0
M  V30 1853 H 182.012 3.23399 -7.09249 0
M  V30 1854 N 186.241 1.57166 -0.116904 0
M  V30 1855 C 187.487 1.95412 0.542405 0
M  V30 1856 C 187.82 1.00019 1.66463 0
M  V30 1857 O 187.095 0.0370346 1.94465 0
M  V30 1858 C 187.378 3.43615 1.07708 0
M  V30 1859 C 187.231 4.49781 -0.0415868 0
M  V30 1860 C 188.55 3.93616 1.96861 0
M  V30 1861 H 185.669 0.710543 0.195696 0
M  V30 1862 H 188.311 1.89027 -0.192038 0
M  V30 1863 H 186.461 3.49187 1.70296 0
M  V30 1864 H 188.133 4.56308 -0.676793 0
M  V30 1865 H 186.376 4.28033 -0.705019 0
M  V30 1866 H 187.047 5.50733 0.373717 0
M  V30 1867 H 189.523 3.90335 1.44146 0
M  V30 1868 H 188.399 4.97838 2.3119 0
M  V30 1869 H 188.66 3.34188 2.89432 0
M  V30 1870 N 187.719 -0.156864 1.56817 0
M  V30 1871 C 188.666 -1.19394 1.97519 0
M  V30 1872 C 189.636 -1.4322 0.841265 0
M  V30 1873 O 190.821 -1.55719 1.10255 0
M  V30 1874 C 187.961 -2.52483 2.35258 0
M  V30 1875 C 187.074 -2.35914 3.61896 0
M  V30 1876 C 186.209 -3.61969 3.88782 0
M  V30 1877 C 185.248 -3.40395 5.08722 0
M  V30 1878 N 184.385 -4.58556 5.31668 0
M  V30 1879 H 189.225 -0.839845 2.85921 0
M  V30 1880 H 186.762 -0.403264 1.41464 0
M  V30 1881 H 188.72 -3.30071 2.55165 0
M  V30 1882 H 187.35 -2.85859 1.49949 0
M  V30 1883 H 186.402 -1.49429 3.49821 0
M  V30 1884 H 187.714 -2.15926 4.49641 0
M  V30 1885 H 186.868 -4.47989 4.09135 0
M  V30 1886 H 185.607 -3.84951 2.9944 0
M  V30 1887 H 184.612 -2.52763 4.88253 0
M  V30 1888 H 185.837 -3.18822 5.99608 0
M  V30 1889 H 183.783 -4.81729 4.45279 0
M  V30 1890 H 183.7 -4.41535 6.13664 0
M  V30 1891 H 184.968 -5.45817 5.5651 0
M  V30 1892 N 189.197 -1.51736 -0.425897 0
M  V30 1893 C 190.608 -1.5732 -1.00536 0
M  V30 1894 C 190.959 -0.403537 -1.92005 0
M  V30 1895 O 190.084 0.478256 -2.11049 0
M  V30 1896 C 190.679 -2.85119 -1.8301 0
M  V30 1897 C 189.238 -2.93236 -2.35987 0
M  V30 1898 C 188.385 -2.52098 -1.15508 0
M  V30 1899 H 191.336 -1.57348 -0.206739 0
M  V30 1900 H 191.357 -2.69526 -2.68581 0
M  V30 1901 H 190.869 -3.7023 -1.16411 0
M  V30 1902 H 188.97 -2.12581 -3.06007 0
M  V30 1903 H 189.083 -3.9713 -2.68001 0
M  V30 1904 H 187.447 -2.05558 -1.50393 0
M  V30 1905 H 188.23 -3.39565 -0.505014 0
M  V30 1906 N 190.675 0.682077 -1.42076 0
M  V30 1907 C 191.903 1.47057 -1.4554 0
M  V30 1908 C 192.318 1.8869 -0.0645779 0
M  V30 1909 O 191.675 1.57666 0.919115 0
M  V30 1910 C 191.726 2.72442 -2.37609 0
M  V30 1911 O 191.447 2.32559 -3.71279 0
M  V30 1912 C 192.948 3.66069 -2.50017 0
M  V30 1913 H 190.168 0.452737 -0.495248 0
M  V30 1914 H 192.712 0.838695 -1.8651 0
M  V30 1915 H 190.867 3.31835 -1.9991 0
M  V30 1916 H 191.281 3.13475 -4.20516 0
M  V30 1917 H 192.755 4.50792 -3.18576 0
M  V30 1918 H 193.232 4.11476 -1.53572 0
M  V30 1919 H 193.838 3.12572 -2.88407 0
M  V30 1920 N 192.153 1.28127 0.917671 0
M  V30 1921 C 193.569 1.05749 1.19538 0
M  V30 1922 C 193.769 -0.202633 2.00479 0
M  V30 1923 O 192.825 -0.905382 2.3571 0
M  V30 1924 C 194.138 2.30273 1.93378 0
M  V30 1925 C 195.686 2.35412 2.06277 0
M  V30 1926 C 196.161 3.59692 2.83524 0
M  V30 1927 N 197.652 3.60309 2.91087 0
M  V30 1928 C 198.387 4.53147 3.51348 0
M  V30 1929 N 197.883 5.563 4.12919 0
M  V30 1930 N 199.676 4.40751 3.48849 0
M  V30 1931 H 191.827 2.09024 0.377184 0
M  V30 1932 H 194.09 0.919798 0.22951 0
M  V30 1933 H 193.796 3.22055 1.41328 0
M  V30 1934 H 193.67 2.36378 2.93947 0
M  V30 1935 H 196.057 1.4413 2.57508 0
M  V30 1936 H 196.138 2.33304 1.04895 0
M  V30 1937 H 195.782 4.51316 2.32973 0
M  V30 1938 H 195.712 3.59054 3.85211 0
M  V30 1939 H 198.203 2.85714 2.47338 0
M  V30 1940 H 198.516 6.2329 4.56869 0
M  V30 1941 H 196.861 5.60131 4.11435 0
M  V30 1942 H 200.052 3.59367 2.99955 0
M  V30 1943 H 200.225 5.13291 3.9552 0
M  V30 1944 N 193.631 -1.12557 1.10312 0
M  V30 1945 C 194.594 -2.16434 0.75424 0
M  V30 1946 C 195.594 -1.59278 -0.220685 0
M  V30 1947 O 196.784 -1.742 0.00230591 0
M  V30 1948 C 193.916 -3.40699 0.116987 0
M  V30 1949 H 195.109 -2.48811 1.67431 0
M  V30 1950 H 192.662 -1.27542 0.903475 0
M  V30 1951 H 193.397 -3.13921 -0.813877 0
M  V30 1952 H 193.182 -3.83459 0.818613 0
M  V30 1953 H 194.672 -4.17451 -0.111387 0
M  V30 1954 N 195.109 -0.891671 -1.2995 0
M  V30 1955 C 196.355 -0.514261 -1.96171 0
M  V30 1956 C 196.688 0.935506 -1.70182 0
M  V30 1957 O 195.963 1.66204 -1.01028 0
M  V30 1958 C 196.246 -0.797719 -3.51153 0
M  V30 1959 C 196.099 -2.2986 -3.86632 0
M  V30 1960 C 197.418 -0.278749 -4.39216 0
M  V30 1961 H 194.537 -0.188314 -0.712535 0
M  V30 1962 H 197.179 -1.11689 -1.53706 0
M  V30 1963 H 195.329 -0.284826 -3.87455 0
M  V30 1964 H 197.001 -2.88042 -3.60319 0
M  V30 1965 H 195.244 -2.76257 -3.34462 0
M  V30 1966 H 195.915 -2.44753 -4.94773 0
M  V30 1967 H 198.391 -0.717825 -4.09862 0
M  V30 1968 H 197.267 -0.506353 -5.46559 0
M  V30 1969 H 197.528 0.820266 -4.34424 0
M  V30 1970 N 196.587 1.43421 -0.653314 0
M  V30 1971 C 197.534 2.30768 0.0382271 0
M  V30 1972 C 198.504 1.44755 0.814576 0
M  V30 1973 O 199.689 1.73624 0.791162 0
M  V30 1974 C 196.829 3.30336 0.998599 0
M  V30 1975 C 195.942 4.31448 0.218342 0
M  V30 1976 C 195.077 5.18098 1.17252 0
M  V30 1977 C 194.116 6.10902 0.382702 0
M  V30 1978 N 193.253 6.90176 1.28848 0
M  V30 1979 H 198.093 2.89357 -0.712511 0
M  V30 1980 H 195.63 1.42548 -0.363128 0
M  V30 1981 H 197.588 3.86572 1.56901 0
M  V30 1982 H 196.218 2.73397 1.71621 0
M  V30 1983 H 195.27 3.77506 -0.46836 0
M  V30 1984 H 196.582 4.97227 -0.395812 0
M  V30 1985 H 195.736 5.7896 1.81356 0
M  V30 1986 H 194.475 4.52444 1.82058 0
M  V30 1987 H 193.48 5.49128 -0.27169 0
M  V30 1988 H 194.705 6.78598 -0.260957 0
M  V30 1989 H 192.651 6.27171 1.92334 0
M  V30 1990 H 192.568 7.52478 0.728887 0
M  V30 1991 H 193.836 7.55543 1.91766 0
M  V30 1992 N 198.065 0.39524 1.52563 0
M  V30 1993 C 199.342 -0.242908 1.94086 0
M  V30 1994 C 199.722 -1.63841 1.33114 0
M  V30 1995 O 199.07 -2.22928 0.501529 0
M  V30 1996 C 199.28 -0.26327 3.48006 0
M  V30 1997 C 200.628 -0.489354 4.21771 0
M  V30 1998 O 201.652 -0.343226 3.54543 0
M  V30 1999 O 200.511 -0.776169 5.4096 0
M  V30 2000 H 197.605 -0.152536 0.812811 0
M  V30 2001 H 200.151 0.450178 1.6362 0
M  V30 2002 H 198.923 0.713985 3.84731 0
M  V30 2003 H 198.546 -1.00103 3.84792 0
M  V30 2004 N 199.544 -1.57102 0.125237 0
M  V30 2005 C 200.476 -2.12726 -0.853237 0
M  V30 2006 C 201.489 -1.07145 -1.22571 0
M  V30 2007 O 202.678 -1.34497 -1.17358 0
M  V30 2008 C 199.778 -2.61709 -2.15317 0
M  V30 2009 C 198.951 -3.91456 -1.95143 0
M  V30 2010 C 198.01 -4.25973 -3.08923 0
M  V30 2011 O 197.036 -4.94682 -2.81564 0
M  V30 2012 N 198.238 -3.83795 -4.35524 0
M  V30 2013 H 201.003 -2.97307 -0.377964 0
M  V30 2014 H 198.564 -1.61792 -0.0590011 0
M  V30 2015 H 200.556 -2.81826 -2.90441 0
M  V30 2016 H 199.126 -1.81974 -2.54174 0
M  V30 2017 H 198.346 -3.80185 -1.04177 0
M  V30 2018 H 199.634 -4.76283 -1.78976 0
M  V30 2019 H 199.032 -3.2839 -4.60626 0
M  V30 2020 H 197.589 -4.09008 -5.07499 0
M  V30 2021 N 201.022 0.148545 -1.56898 0
M  V30 2022 C 202.438 0.501131 -1.51528 0
M  V30 2023 C 202.638 1.83458 -0.833399 0
M  V30 2024 O 201.694 2.49259 -0.40328 0
M  V30 2025 C 203.007 0.512864 -2.96294 0
M  V30 2026 C 204.555 0.598487 -3.07225 0
M  V30 2027 C 205.03 0.640897 -4.53494 0
M  V30 2028 N 206.521 0.703163 -4.57832 0
M  V30 2029 C 207.256 0.756935 -5.68382 0
M  V30 2030 N 206.752 0.770147 -6.88506 0
M  V30 2031 N 208.545 0.797698 -5.56411 0
M  V30 2032 H 200.696 -0.725532 -1.99624 0
M  V30 2033 H 202.959 -0.264358 -0.910395 0
M  V30 2034 H 202.665 -0.398691 -3.49433 0
M  V30 2035 H 202.539 1.35133 -3.52163 0
M  V30 2036 H 204.926 1.50046 -2.54106 0
M  V30 2037 H 205.007 -0.267093 -2.54402 0
M  V30 2038 H 204.651 -0.256915 -5.0725 0
M  V30 2039 H 204.581 1.52295 -5.04097 0
M  V30 2040 H 207.072 0.700314 -3.71354 0
M  V30 2041 H 207.385 0.812983 -7.68512 0
M  V30 2042 H 205.73 0.738049 -6.9107 0
M  V30 2043 H 208.921 0.784535 -4.61479 0
M  V30 2044 H 209.094 0.83614 -6.42583 0
M  V30 2045 N 202.5 1.5196 0.417844 0
M  V30 2046 C 203.728 1.69426 1.18753 0
M  V30 2047 C 204.143 0.399955 1.84515 0
M  V30 2048 O 203.5 -0.623288 1.71527 0
M  V30 2049 C 203.551 2.82375 2.25714 0
M  V30 2050 O 203.272 4.06793 1.62638 0
M  V30 2051 C 204.773 3.11277 3.15628 0
M  V30 2052 H 201.993 0.568031 0.357186 0
M  V30 2053 H 204.537 1.98475 0.49273 0
M  V30 2054 H 202.692 2.5587 2.90877 0
M  V30 2055 H 203.106 4.69667 2.3348 0
M  V30 2056 H 204.58 3.93843 3.86771 0
M  V30 2057 H 205.057 2.24473 3.77503 0
M  V30 2058 H 205.663 3.39515 2.56144 0
M  V30 2059 N 203.978 -0.674533 1.42435 0
M  V30 2060 C 205.224 -1.43521 1.4413 0
M  V30 2061 C 205.579 -1.92316 0.0567773 0
M  V30 2062 O 204.872 -1.68008 -0.921076 0
M  V30 2063 C 205.066 -2.64767 2.40069 0
M  V30 2064 C 204.895 -2.27836 3.87713 0
M  V30 2065 C 203.665 -2.17183 4.56245 0
M  V30 2066 C 205.863 -1.89466 4.78129 0
M  V30 2067 N 203.845 -1.73358 5.88915 0
M  V30 2068 C 205.216 -1.56561 5.99907 0
M  V30 2069 C 207.271 -1.7646 4.65582 0
M  V30 2070 C 205.974 -1.11957 7.10534 0
M  V30 2071 C 208 -1.3326 5.76191 0
M  V30 2072 C 207.362 -1.0128 6.97081 0
M  V30 2073 H 203.461 -0.521656 0.582579 0
M  V30 2074 H 206.045 -0.778381 1.78464 0
M  V30 2075 H 204.216 -3.28139 2.07796 0
M  V30 2076 H 205.948 -3.3136 2.32342 0
M  V30 2077 H 202.703 -2.3626 4.10461 0
M  V30 2078 H 203.127 -1.53867 6.59283 0
M  V30 2079 H 207.769 -1.99831 3.72595 0
M  V30 2080 H 205.487 -0.873318 8.03367 0
M  V30 2081 H 209.073 -1.23717 5.68494 0
M  V30 2082 H 207.953 -0.683597 7.81215 0
M  V30 2083 N 205.456 -1.28612 -0.910864 0
M  V30 2084 C 206.684 -1.18792 -1.69399 0
M  V30 2085 C 207.099 0.253039 -1.87097 0
M  V30 2086 O 206.456 1.17071 -1.40003 0
M  V30 2087 C 206.507 -1.88511 -3.08457 0
M  V30 2088 O 206.228 -3.26979 -2.91576 0
M  V30 2089 C 207.729 -1.85029 -4.02839 0
M  V30 2090 H 204.949 -0.412233 -0.529438 0
M  V30 2091 H 207.493 -1.69788 -1.13984 0
M  V30 2092 H 205.648 -1.41379 -3.60681 0
M  V30 2093 H 206.062 -3.61936 -3.79608 0
M  V30 2094 H 207.536 -2.38395 -4.97867 0
M  V30 2095 H 208.013 -0.823303 -4.31414 0
M  V30 2096 H 208.619 -2.31853 -3.56545 0
M  V30 2097 N 206.934 1.1197 -1.10907 0
M  V30 2098 C 208.18 1.84059 -0.865674 0
M  V30 2099 C 208.535 1.82731 0.602254 0
M  V30 2100 O 207.828 1.26543 1.43866 0
M  V30 2101 C 208.022 3.30749 -1.35425 0
M  V30 2102 C 207.851 3.46363 -2.86815 0
M  V30 2103 C 206.621 3.59712 -3.54874 0
M  V30 2104 C 208.819 3.41116 -3.84895 0
M  V30 2105 N 206.801 3.63741 -4.94536 0
M  V30 2106 C 208.172 3.51698 -5.10596 0
M  V30 2107 C 210.227 3.24612 -3.77533 0
M  V30 2108 C 208.93 3.4748 -6.29802 0
M  V30 2109 C 210.956 3.21708 -4.96244 0
M  V30 2110 C 210.318 3.32856 -6.20795 0
M  V30 2111 H 206.417 0.689015 -0.369841 0
M  V30 2112 H 209.001 1.34016 -1.41237 0
M  V30 2113 H 207.172 3.79322 -0.834814 0
M  V30 2114 H 208.904 3.90718 -1.05458 0
M  V30 2115 H 205.659 3.62038 -3.05329 0
M  V30 2116 H 206.083 3.69408 -5.67333 0
M  V30 2117 H 210.725 3.14883 -2.8215 0
M  V30 2118 H 208.443 3.55978 -7.25469 0
M  V30 2119 H 212.029 3.10113 -4.92261 0
M  V30 2120 H 210.909 3.3059 -7.11112 0
M  V30 2121 N 208.412 0.89855 1.29475 0
M  V30 2122 C 209.66 0.522847 1.9522 0
M  V30 2123 C 209.981 -0.93371 1.71192 0
M  V30 2124 O 209.251 -1.65823 1.04305 0
M  V30 2125 H 207.831 0.190366 0.722336 0
M  V30 2126 H 210.493 1.14459 1.5775 0
M  V30 2127 H 209.589 0.704476 3.04045 0
M  V30 2128 N 209.89 -1.43072 0.660911 0
M  V30 2129 C 211.301 -1.84932 0.256348 0
M  V30 2130 C 211.652 -1.55325 -1.19868 0
M  V30 2131 O 210.777 -1.00607 -1.91591 0
M  V30 2132 C 211.372 -3.35684 0.458475 0
M  V30 2133 C 209.931 -3.76245 0.108161 0
M  V30 2134 C 209.078 -2.66749 0.757641 0
M  V30 2135 H 212.029 -1.33116 0.864051 0
M  V30 2136 H 212.05 -3.79365 -0.293683 0
M  V30 2137 H 211.562 -3.572 1.51755 0
M  V30 2138 H 209.663 -3.60338 -0.948014 0
M  V30 2139 H 209.776 -4.76058 0.538992 0
M  V30 2140 H 208.14 -2.53989 0.190185 0
M  V30 2141 H 208.923 -2.91092 1.81989 0
M  V30 2142 N 211.368 -0.403325 -1.52352 0
M  V30 2143 C 212.608 0.173946 -2.03659 0
M  V30 2144 C 212.972 1.42869 -1.28267 0
M  V30 2145 O 214.173 2.08403 -1.69769 0
M  V30 2146 C 212.444 0.421478 -3.54906 0
M  V30 2147 S 214.003 0.967027 -4.28012 0
M  V30 2148 H 210.821 0.0477461 -0.709395 0
M  V30 2149 H 213.423 -0.554906 -1.87459 0
M  V30 2150 H 212.127 -0.498616 -4.0736 0
M  V30 2151 H 211.658 1.17837 -3.75337 0
M  V30 2152 H 213.673 2.24812 -4.4235 0
M  V30 2153 N 212.846 1.57033 -0.133567 0
M  V30 2154 C 214.094 1.953 0.519848 0
M  V30 2155 C 214.415 1.01866 1.66278 0
M  V30 2156 O 213.685 0.0776513 1.95746 0
M  V30 2157 H 212.265 0.721091 0.195032 0
M  V30 2158 H 214.927 1.93809 -0.205921 0
M  V30 2159 H 214.023 2.98695 0.904854 0
M  V30 2160 N 214.325 -0.140222 1.56975 0
M  V30 2161 C 215.257 -1.19818 1.95388 0
M  V30 2162 C 216.27 -1.38816 0.850525 0
M  V30 2163 O 217.459 -1.38267 1.12891 0
M  V30 2164 C 214.559 -2.56189 2.21857 0
M  V30 2165 C 213.732 -2.58077 3.5315 0
M  V30 2166 C 212.791 -3.76037 3.6808 0
M  V30 2167 O 211.817 -3.60598 4.40406 0
M  V30 2168 N 213.019 -4.93763 3.05251 0
M  V30 2169 H 215.784 -0.871609 2.86746 0
M  V30 2170 H 213.345 -0.32972 1.58507 0
M  V30 2171 H 215.337 -3.33623 2.2908 0
M  V30 2172 H 213.907 -2.81111 1.36731 0
M  V30 2173 H 213.127 -1.6651 3.57307 0
M  V30 2174 H 214.415 -2.56377 4.39486 0
M  V30 2175 H 213.813 -5.09209 2.46419 0
M  V30 2176 H 212.37 -5.68949 3.18026 0
M  V30 2177 N 215.803 -1.52179 -0.40978 0
M  V30 2178 C 217.051 -1.65878 -1.15451 0
M  V30 2179 C 217.372 -0.390771 -1.91044 0
M  V30 2180 O 216.642 0.594323 -1.86667 0
M  V30 2181 H 215.222 -0.611405 -0.429177 0
M  V30 2182 H 217.884 -1.89219 -0.467134 0
M  V30 2183 H 216.98 -2.49954 -1.86894 0
M  V30 2184 N 217.281 0.66697 -1.42791 0
M  V30 2185 C 218.244 1.76211 -1.46568 0
M  V30 2186 C 219.244 1.56896 -0.352196 0
M  V30 2187 O 220.434 1.63044 -0.613364 0
M  V30 2188 C 217.566 3.14935 -1.30494 0
M  V30 2189 H 218.759 1.74247 -2.44086 0
M  V30 2190 H 216.312 0.877342 -1.29354 0
M  V30 2191 H 217.047 3.2252 -0.339301 0
M  V30 2192 H 216.832 3.30359 -2.11199 0
M  V30 2193 H 218.322 3.94821 -1.36038 0
M  V30 2194 N 218.759 1.29093 0.90403 0
M  V30 2195 C 220.008 1.16187 1.64874 0
M  V30 2196 C 220.321 -0.286742 1.93487 0
M  V30 2197 O 221.527 -0.537062 2.66135 0
M  V30 2198 C 219.983 2.03177 2.97064 0
M  V30 2199 C 219.591 3.52836 2.76062 0
M  V30 2200 C 221.335 1.98984 3.74974 0
M  V30 2201 C 219.242 4.31945 4.03952 0
M  V30 2202 H 218.172 0.431246 0.618501 0
M  V30 2203 H 220.823 1.53699 1.00243 0
M  V30 2204 H 219.205 1.5853 3.62883 0
M  V30 2205 H 220.379 4.05507 2.18863 0
M  V30 2206 H 218.694 3.58656 2.11553 0
M  V30 2207 H 221.291 2.55351 4.69787 0
M  V30 2208 H 221.634 0.968815 4.0487 0
M  V30 2209 H 222.167 2.41652 3.15989 0
M  V30 2210 H 218.906 5.34667 3.79225 0
M  V30 2211 H 218.426 3.84045 4.60727 0
M  V30 2212 H 220.105 4.42379 4.72133 0
M  V30 2213 N 220.237 -1.11381 1.11499 0
M  V30 2214 C 221.167 -2.19509 0.796125 0
M  V30 2215 C 222.148 -1.68458 -0.235796 0
M  V30 2216 O 223.333 -1.93947 -0.0991344 0
M  V30 2217 C 220.463 -3.46475 0.239205 0
M  V30 2218 C 219.417 -4.10744 1.20307 0
M  V30 2219 C 218.743 -5.32293 0.50683 0
M  V30 2220 C 220.043 -4.55597 2.55399 0
M  V30 2221 H 221.737 -2.46439 1.70024 0
M  V30 2222 H 219.283 -1.18446 0.818935 0
M  V30 2223 H 221.236 -4.214 0.00392006 0
M  V30 2224 H 219.96 -3.19006 -0.700206 0
M  V30 2225 H 218.619 -3.37813 1.42399 0
M  V30 2226 H 218.267 -5.01095 -0.437408 0
M  V30 2227 H 217.967 -5.76243 1.1497 0
M  V30 2228 H 219.491 -6.09956 0.280351 0
M  V30 2229 H 220.905 -5.21841 2.37391 0
M  V30 2230 H 219.302 -5.10363 3.15673 0
M  V30 2231 H 220.372 -3.69013 3.14575 0
M  V30 2232 N 221.715 -0.905404 -1.28997 0
M  V30 2233 C 222.645 -0.404212 -2.29975 0
M  V30 2234 C 223.626 0.523784 -1.61835 0
M  V30 2235 O 224.811 0.433298 -1.89304 0
M  V30 2236 C 221.941 0.364042 -3.45387 0
M  V30 2237 C 220.895 -0.474048 -4.25367 0
M  V30 2238 C 220.221 0.422045 -5.33032 0
M  V30 2239 C 221.521 -1.72696 -4.92923 0
M  V30 2240 H 223.215 -1.24807 -2.72146 0
M  V30 2241 H 220.761 -0.601585 -1.30832 0
M  V30 2242 H 222.714 0.725447 -4.15109 0
M  V30 2243 H 221.438 1.24174 -3.02074 0
M  V30 2244 H 220.097 -0.81786 -3.57361 0
M  V30 2245 H 219.745 1.29804 -4.85963 0
M  V30 2246 H 219.445 -0.135057 -5.87445 0
M  V30 2247 H 220.969 0.779517 -6.05604 0
M  V30 2248 H 222.383 -1.43495 -5.55051 0
M  V30 2249 H 220.78 -2.22582 -5.57295 0
M  V30 2250 H 221.85 -2.45964 -4.17887 0
M  V30 2251 N 223.193 1.4272 -0.668489 0
M  V30 2252 C 224.439 2.01923 -0.188419 0
M  V30 2253 C 224.772 1.52704 1.19979 0
M  V30 2254 O 224.047 0.726566 1.8042 0
M  V30 2255 C 224.33 3.59451 -0.216085 0
M  V30 2256 C 224.183 4.18864 -1.6393 0
M  V30 2257 C 225.502 4.37903 0.439179 0
M  V30 2258 H 222.621 0.733674 -0.0699412 0
M  V30 2259 H 225.263 1.69822 -0.852076 0
M  V30 2260 H 223.413 3.86929 0.349012 0
M  V30 2261 H 225.085 4.02362 -2.25616 0
M  V30 2262 H 223.328 3.74933 -2.18193 0
M  V30 2263 H 223.999 5.27987 -1.61039 0
M  V30 2264 H 226.475 4.16079 -0.0417878 0
M  V30 2265 H 225.351 5.47519 0.389157 0
M  V30 2266 H 225.612 4.15303 1.51577 0
M  V30 2267 N 224.671 0.411399 1.52136 0
M  V30 2268 C 225.619 -0.427633 2.28635 0
M  V30 2269 C 226.613 -1.04383 1.33419 0
M  V30 2270 O 227.819 -0.981772 1.50868 0
M  V30 2271 H 224.194 -0.156689 0.735495 0
M  V30 2272 H 226.165 0.238761 2.97443 0
M  V30 2273 C 224.914 -1.53082 3.12188 0
M  V30 2274 H 224.237 -1.06601 3.85326 0
M  V30 2275 H 225.677 -2.09167 3.68816 0
M  V30 2276 C 224.136 -2.49946 2.25895 0
M  V30 2277 O 224.666 -3.53884 1.90076 0
M  V30 2278 N 222.872 -2.2021 1.8962 0
M  V30 2279 H 222.419 -1.35719 2.18948 0
M  V30 2280 H 222.377 -2.85266 1.32176 0
M  V30 2281 N 226.149 -1.5696 0.141893 0
M  V30 2282 C 227.389 -1.9785 -0.513304 0
M  V30 2283 C 227.753 -1.02467 -1.62371 0
M  V30 2284 O 228.954 -1.32382 -2.33941 0
M  V30 2285 C 227.225 -3.42797 -1.01118 0
M  V30 2286 S 228.784 -4.05709 -1.67169 0
M  V30 2287 H 225.602 -0.691318 -0.166135 0
M  V30 2288 H 228.204 -1.94114 0.232398 0
M  V30 2289 H 226.908 -4.0995 -0.192179 0
M  V30 2290 H 226.439 -3.50235 -1.79162 0
M  V30 2291 H 228.454 -3.98342 -2.95868 0
M  V30 2292 N 227.627 0.131896 -1.57047 0
M  V30 2293 C 228.904 0.871495 -1.75112 0
M  V30 2294 C 229.284 1.9866 -0.713949 0
M  V30 2295 O 228.632 2.26965 0.264447 0
M  V30 2296 C 228.842 1.40007 -3.19686 0
M  V30 2297 C 230.19 1.85752 -3.81813 0
M  V30 2298 O 231.214 1.49715 -3.23209 0
M  V30 2299 O 230.073 2.5226 -4.84796 0
M  V30 2300 H 227.167 0.412919 -0.716538 0
M  V30 2301 H 229.713 0.116641 -1.69299 0
M  V30 2302 H 228.485 0.599404 -3.86682 0
M  V30 2303 H 228.108 2.218 -3.29986 0
M  V30 2304 N 229.106 1.52395 0.401703 0
M  V30 2305 C 230.522 1.41363 0.740864 0
M  V30 2306 C 230.722 0.523982 1.94568 0
M  V30 2307 O 229.778 -0.00741204 2.52499 0
M  V30 2308 C 231.091 2.84011 0.987847 0
M  V30 2309 C 232.639 2.93404 1.09011 0
M  V30 2310 C 233.114 4.37036 1.3698 0
M  V30 2311 N 234.605 4.40304 1.43829 0
M  V30 2312 C 235.34 5.48508 1.67112 0
M  V30 2313 N 234.836 6.66819 1.87949 0
M  V30 2314 N 236.629 5.36034 1.69187 0
M  V30 2315 H 228.78 2.08765 -0.391262 0
M  V30 2316 H 231.043 0.941265 -0.112798 0
M  V30 2317 H 230.749 3.51265 0.174835 0
M  V30 2318 H 230.623 3.25502 1.906 0
M  V30 2319 H 233.01 2.26325 1.8937 0
M  V30 2320 H 233.091 2.55359 0.15015 0
M  V30 2321 H 232.735 5.04676 0.571353 0
M  V30 2322 H 232.665 4.72623 2.3224 0
M  V30 2323 H 235.156 3.55024 1.29486 0
M  V30 2324 H 235.469 7.45063 2.05185 0
M  V30 2325 H 233.814 6.6987 1.85199 0
M  V30 2326 H 237.005 4.42579 1.52451 0
M  V30 2327 H 237.178 6.20434 1.86993 0
M  V30 2328 N 230.584 -0.659388 1.43143 0
M  V30 2329 C 231.861 -1.41627 1.34912 0
M  V30 2330 C 232.241 -2.11099 -0.00607785 0
M  V30 2331 O 231.589 -2.04353 -1.02236 0
M  V30 2332 C 231.799 -2.40604 2.52805 0
M  V30 2333 C 233.147 -3.04789 2.95616 0
M  V30 2334 O 234.171 -2.50932 2.52807 0
M  V30 2335 O 233.03 -4.02421 3.69756 0
M  V30 2336 H 230.124 -0.63246 0.532844 0
M  V30 2337 H 232.67 -0.686814 1.5518 0
M  V30 2338 H 231.442 -1.88174 3.43083 0
M  V30 2339 H 231.065 -3.21009 2.34604 0
M  V30 2340 N 232.062 -1.29571 -0.897171 0
M  V30 2341 C 233.01 -1.14802 -2.02295 0
M  V30 2342 C 234.004 -0.0629637 -1.69283 0
M  V30 2343 O 235.21 -0.222945 -1.78614 0
M  V30 2344 H 231.585 -0.354692 -0.663097 0
M  V30 2345 H 233.556 -2.10108 -2.11889 0
M  V30 2346 C 232.305 -0.843966 -3.37302 0
M  V30 2347 H 231.628 -1.67093 -3.63208 0
M  V30 2348 H 233.068 -0.780672 -4.16751 0
M  V30 2349 C 231.527 0.452843 -3.33843 0
M  V30 2350 O 232.057 1.47813 -3.73516 0
M  V30 2351 N 230.263 0.459601 -2.86943 0
M  V30 2352 H 229.81 -0.375213 -2.54853 0
M  V30 2353 H 229.768 1.32726 -2.85011 0
M  V30 2354 N 233.54 1.10788 -1.12088 0
M  V30 2355 C 234.47 2.19083 -0.807755 0
M  V30 2356 C 235.451 1.6858 0.226859 0
M  V30 2357 O 236.636 1.93997 0.0888475 0
M  V30 2358 C 233.766 3.46344 -0.257576 0
M  V30 2359 C 232.72 4.101 -1.22483 0
M  V30 2360 C 232.046 5.32016 -0.535052 0
M  V30 2361 C 233.346 4.54236 -2.57811 0
M  V30 2362 H 235.04 2.45534 -1.71328 0
M  V30 2363 H 232.586 1.1801 -0.825205 0
M  V30 2364 H 234.539 4.21392 -0.0262679 0
M  V30 2365 H 233.263 3.19373 0.683278 0
M  V30 2366 H 231.922 3.37054 -1.44189 0
M  V30 2367 H 231.57 5.01319 0.410827 0
M  V30 2368 H 231.27 5.75625 -1.18024 0
M  V30 2369 H 232.794 6.09799 -0.312695 0
M  V30 2370 H 234.208 5.20575 -2.40155 0
M  V30 2371 H 232.605 5.08682 -3.18375 0
M  V30 2372 H 233.675 3.6734 -3.16528 0
M  V30 2373 N 235.018 0.912232 1.28515 0
M  V30 2374 C 235.928 0.404506 2.31086 0
M  V30 2375 C 236.944 -0.50707 1.66448 0
M  V30 2376 O 238.12 -0.393624 1.97516 0
M  V30 2377 C 235.185 -0.348572 3.44943 0
M  V30 2378 C 234.246 0.59604 4.25142 0
M  V30 2379 C 233.479 -0.121194 5.33562 0
M  V30 2380 O 233.702 -1.34317 5.5436 0
M  V30 2381 O 232.636 0.542716 5.99448 0
M  V30 2382 H 236.462 1.25579 2.76521 0
M  V30 2383 H 234.047 0.676998 1.33181 0
M  V30 2384 H 235.929 -0.77395 4.14232 0
M  V30 2385 H 234.604 -1.17571 3.01594 0
M  V30 2386 H 233.511 1.07079 3.58448 0
M  V30 2387 H 234.844 1.38995 4.72167 0
M  V30 2388 N 236.496 -1.42363 0.676048 0
M  V30 2389 C 237.721 -2.06377 0.205705 0
M  V30 2390 C 238.146 -1.50463 -1.12883 0
M  V30 2391 O 237.504 -0.623619 -1.70237 0
M  V30 2392 C 237.552 -3.60277 0.152655 0
M  V30 2393 O 236.656 -4.02935 -0.87845 0
M  V30 2394 H 235.997 -0.655588 0.105359 0
M  V30 2395 H 238.527 -1.82475 0.925412 0
M  V30 2396 H 238.537 -4.07993 -0.0230675 0
M  V30 2397 H 237.212 -4.00346 1.12675 0
M  V30 2398 H 235.789 -3.66764 -0.673668 0
M  V30 2399 N 237.974 -0.419461 -1.51915 0
M  V30 2400 C 239.199 0.154572 -2.06823 0
M  V30 2401 C 239.624 1.3722 -1.28656 0
M  V30 2402 O 238.982 1.78461 -0.319583 0
M  V30 2403 C 239.03 0.473172 -3.57482 0
M  V30 2404 O 238.134 1.56255 -3.81652 0
M  V30 2405 H 237.475 0.0096924 -0.663929 0
M  V30 2406 H 240.005 -0.595642 -1.95738 0
M  V30 2407 H 240.015 0.728825 -4.01438 0
M  V30 2408 H 238.69 -0.416873 -4.13805 0
M  V30 2409 H 237.267 1.29825 -3.49571 0
M  V30 2410 N 239.452 1.56882 -0.150215 0
M  V30 2411 C 240.415 2.1573 0.774157 0
M  V30 2412 C 241.415 1.0999 1.17298 0
M  V30 2413 O 242.605 1.35613 1.09338 0
M  V30 2414 C 239.737 2.72302 2.05096 0
M  V30 2415 H 240.93 2.98752 0.262201 0
M  V30 2416 H 238.483 1.55985 0.099248 0
M  V30 2417 H 239.218 1.92956 2.6065 0
M  V30 2418 H 239.003 3.49665 1.77416 0
M  V30 2419 H 240.493 3.17632 2.71109 0
M  V30 2420 N 240.93 -0.123565 1.57115 0
M  V30 2421 C 241.863 -1.18202 1.95201 0
M  V30 2422 C 242.841 -1.40349 0.821031 0
M  V30 2423 O 244.025 -1.54578 1.07879 0
M  V30 2424 C 241.152 -2.53671 2.24429 0
M  V30 2425 C 240.198 -2.4798 3.46999 0
M  V30 2426 S 241.031 -1.92389 4.99747 0
M  V30 2427 C 242.187 -3.2954 5.32123 0
M  V30 2428 H 242.42 -0.857212 2.84674 0
M  V30 2429 H 239.953 -0.33014 1.50829 0
M  V30 2430 H 241.911 -3.3162 2.41947 0
M  V30 2431 H 240.572 -2.83332 1.35579 0
M  V30 2432 H 239.765 -3.47758 3.64801 0
M  V30 2433 H 239.367 -1.7815 3.28844 0
M  V30 2434 H 241.659 -4.25736 5.27025 0
M  V30 2435 H 242.602 -3.16569 6.33395 0
M  V30 2436 H 243.01 -3.27758 4.59603 0
M  V30 2437 N 242.408 -1.52605 -0.393616 0
M  V30 2438 C 243.685 -1.58001 -1.15304 0
M  V30 2439 C 244.065 -0.370385 -2.07825 0
M  V30 2440 O 243.413 0.641638 -2.19306 0
M  V30 2441 C 243.623 -2.91652 -1.91677 0
M  V30 2442 C 244.971 -3.4522 -2.47201 0
M  V30 2443 O 245.995 -2.93495 -2.01839 0
M  V30 2444 O 244.854 -4.35579 -3.3005 0
M  V30 2445 H 241.948 -0.637068 -0.527327 0
M  V30 2446 H 244.494 -1.64939 -0.399141 0
M  V30 2447 H 243.266 -3.71136 -1.23992 0
M  V30 2448 H 242.889 -2.88077 -2.74039 0
M  V30 2449 N 243.887 0.651787 -1.4349 0
M  V30 2450 C 245.127 1.42345 -1.46688 0
M  V30 2451 C 245.491 1.91793 -0.0891023 0
M  V30 2452 O 246.692 2.688 0.00423594 0
M  V30 2453 C 244.963 2.57221 -2.48137 0
M  V30 2454 S 246.522 3.45725 -2.70221 0
M  V30 2455 H 243.34 0.485878 -0.51908 0
M  V30 2456 H 245.942 0.756578 -1.80267 0
M  V30 2457 H 244.646 2.1917 -3.46976 0
M  V30 2458 H 244.177 3.28757 -2.16061 0
M  V30 2459 H 246.192 4.53996 -2.00255 0
M  V30 2460 N 245.365 1.30045 0.890287 0
M  V30 2461 C 246.275 1.17885 2.02831 0
M  V30 2462 C 247.291 0.0999609 1.73713 0
M  V30 2463 O 248.467 0.313867 1.98939 0
M  V30 2464 C 245.532 0.866079 3.35708 0
M  V30 2465 C 244.593 2.02979 3.78283 0
M  V30 2466 C 243.826 1.73184 5.0482 0
M  V30 2467 O 244.049 0.657237 5.66601 0
M  V30 2468 O 242.983 2.58267 5.43674 0
M  V30 2469 H 246.809 2.13474 2.16015 0
M  V30 2470 H 244.394 1.09587 1.01543 0
M  V30 2471 H 246.276 0.706623 4.15433 0
M  V30 2472 H 244.951 -0.0599443 3.23644 0
M  V30 2473 H 243.858 2.24454 2.99285 0
M  V30 2474 H 245.191 2.93734 3.94944 0
M  V30 2475 N 246.843 -1.10192 1.12674 0
M  V30 2476 C 248.12 -1.78717 0.794965 0
M  V30 2477 C 248.5 -1.98628 -0.714853 0
M  V30 2478 O 247.848 -1.58135 -1.64941 0
M  V30 2479 C 248.058 -3.11546 1.5729 0
M  V30 2480 C 249.406 -3.86382 1.76052 0
M  V30 2481 O 250.43 -3.21274 1.53823 0
M  V30 2482 O 249.289 -5.03246 2.13087 0
M  V30 2483 H 246.383 -0.774702 0.289423 0
M  V30 2484 H 248.929 -1.16819 1.23091 0
M  V30 2485 H 247.701 -2.92489 2.59935 0
M  V30 2486 H 247.324 -3.81164 1.13137 0
M  V30 2487 N 248.321 -0.919034 -1.28029 0
M  V30 2488 C 249.598 -0.473668 -1.89778 0
M  V30 2489 C 249.978 1.04783 -1.83259 0
M  V30 2490 O 249.326 1.8982 -1.27202 0
M  V30 2491 C 249.536 -1.00998 -3.34066 0
M  V30 2492 C 250.884 -1.06525 -4.1102 0
M  V30 2493 O 251.908 -0.958996 -3.43048 0
M  V30 2494 O 250.767 -1.22776 -5.3253 0
M  V30 2495 H 247.861 -0.15098 -0.813101 0
M  V30 2496 H 250.407 -1.01016 -1.36359 0
M  V30 2497 H 249.179 -2.05392 -3.33061 0
M  V30 2498 H 248.802 -0.454626 -3.94992 0
M  V30 2499 N 249.799 1.42003 -0.683588 0
M  V30 2500 C 250.709 2.34597 -0.0109075 0
M  V30 2501 C 251.725 1.55576 0.779245 0
M  V30 2502 O 252.901 1.88107 0.719555 0
M  V30 2503 C 249.966 3.34199 0.922588 0
M  V30 2504 C 249.027 4.29115 0.125984 0
M  V30 2505 C 248.26 5.23959 1.01502 0
M  V30 2506 O 248.483 5.23952 2.25456 0
M  V30 2507 O 247.417 6.00053 0.47111 0
M  V30 2508 H 251.243 2.93675 -0.773853 0
M  V30 2509 H 248.828 1.42654 -0.443861 0
M  V30 2510 H 250.71 3.95365 1.45823 0
M  V30 2511 H 249.385 2.77582 1.66523 0
M  V30 2512 H 248.292 3.71335 -0.453969 0
M  V30 2513 H 249.625 4.88798 -0.577736 0
M  V30 2514 N 251.277 0.427512 1.51691 0
M  V30 2515 C 252.523 -0.142439 2.02299 0
M  V30 2516 C 252.856 -1.43214 1.31162 0
M  V30 2517 O 252.131 -1.89833 0.423511 0
M  V30 2518 C 252.414 -0.371301 3.58181 0
M  V30 2519 C 252.267 0.936358 4.39946 0
M  V30 2520 C 253.586 -1.14542 4.24933 0
M  V30 2521 H 250.705 -0.0502937 0.735282 0
M  V30 2522 H 253.347 0.564584 1.81418 0
M  V30 2523 H 251.497 -0.973559 3.76104 0
M  V30 2524 H 253.169 1.57184 4.33694 0
M  V30 2525 H 251.412 1.5432 4.05423 0
M  V30 2526 H 252.083 0.730388 5.47147 0
M  V30 2527 H 254.559 -0.635362 4.11221 0
M  V30 2528 H 253.435 -1.27431 5.33903 0
M  V30 2529 H 253.696 -2.17093 3.85127 0
M  V30 2530 N 252.755 -1.56801 0.158532 0
M  V30 2531 C 253.685 -2.20347 -0.772609 0
M  V30 2532 C 254.666 -1.15518 -1.24859 0
M  V30 2533 O 255.851 -1.43902 -1.30406 0
M  V30 2534 C 252.981 -2.83417 -2.00729 0
M  V30 2535 C 251.935 -3.94174 -1.66765 0
M  V30 2536 C 251.261 -4.44233 -2.97592 0
M  V30 2537 C 252.561 -5.14392 -0.905447 0
M  V30 2538 H 254.255 -2.98413 -0.242959 0
M  V30 2539 H 251.801 -1.43537 -0.115419 0
M  V30 2540 H 253.754 -3.26543 -2.6636 0
M  V30 2541 H 252.478 -2.02701 -2.56086 0
M  V30 2542 H 251.137 -3.51684 -1.03508 0
M  V30 2543 H 250.785 -3.60325 -3.50963 0
M  V30 2544 H 250.485 -5.18945 -2.75626 0
M  V30 2545 H 252.009 -4.90037 -3.64274 0
M  V30 2546 H 253.423 -5.5429 -1.46408 0
M  V30 2547 H 251.82 -5.9494 -0.7853 0
M  V30 2548 H 252.89 -4.84795 0.100668 0
M  V30 2549 N 254.233 0.115231 -1.57178 0
M  V30 2550 C 255.51 0.852873 -1.76027 0
M  V30 2551 C 255.89 1.97892 -0.73498 0
M  V30 2552 O 255.238 2.27232 0.24036 0
M  V30 2553 C 255.448 1.36608 -3.21153 0
M  V30 2554 C 256.796 1.81692 -3.83762 0
M  V30 2555 O 257.82 1.46278 -3.24779 0
M  V30 2556 O 256.679 2.47104 -4.87444 0
M  V30 2557 H 253.773 0.405296 -0.720877 0
M  V30 2558 H 256.319 0.0986785 -1.69413 0
M  V30 2559 H 255.091 0.558357 -3.87296 0
M  V30 2560 H 254.714 2.18287 -3.3232 0
M  V30 2561 N 255.711 1.52812 0.385517 0
M  V30 2562 C 256.936 1.72207 1.15583 0
M  V30 2563 C 257.361 0.441034 1.82857 0
M  V30 2564 O 256.719 -0.603465 1.70962 0
M  V30 2565 C 256.767 2.87476 2.17692 0
M  V30 2566 O 255.871 2.54693 3.24354 0
M  V30 2567 H 255.212 0.572526 0.336319 0
M  V30 2568 H 257.742 1.99618 0.448744 0
M  V30 2569 H 257.752 3.13072 2.6163 0
M  V30 2570 H 256.427 3.80408 1.68115 0
M  V30 2571 H 255.004 2.3985 2.85529 0
M  V30 2572 N 257.189 -0.644168 1.43834 0
M  V30 2573 C 258.099 -1.78563 1.52159 0
M  V30 2574 C 259.115 -1.69147 0.408069 0
M  V30 2575 O 260.291 -1.90156 0.663524 0
M  V30 2576 C 257.356 -3.14888 1.45073 0
M  V30 2577 C 256.417 -3.36034 2.6717 0
M  V30 2578 C 255.65 -4.65855 2.60413 0
M  V30 2579 O 255.873 -5.45805 1.65689 0
M  V30 2580 O 254.807 -4.88918 3.5106 0
M  V30 2581 H 258.633 -1.74494 2.48567 0
M  V30 2582 H 256.218 -0.80378 1.25935 0
M  V30 2583 H 258.1 -3.96179 1.43597 0
M  V30 2584 H 256.775 -3.19528 0.518037 0
M  V30 2585 H 255.682 -2.54472 2.74217 0
M  V30 2586 H 257.015 -3.36247 3.59442 0
M  V30 2587 N 258.668 -1.30515 -0.883378 0
M  V30 2588 C 259.945 -1.10086 -1.6168 0
M  V30 2589 C 260.325 0.349269 -2.08191 0
M  V30 2590 O 259.673 1.34105 -1.85008 0
M  V30 2591 C 259.883 -2.10315 -2.78511 0
M  V30 2592 C 261.231 -2.42119 -3.48803 0
M  V30 2593 O 262.255 -2.08638 -2.88702 0
M  V30 2594 O 261.114 -2.99396 -4.57192 0
M  V30 2595 H 258.208 -0.422907 -0.710689 0
M  V30 2596 H 260.754 -1.41947 -0.930015 0
M  V30 2597 H 259.526 -3.07917 -2.41459 0
M  V30 2598 H 259.149 -1.79282 -3.54886 0
M  V30 2599 N 260.146 1.09593 -1.13257 0
M  V30 2600 C 261.076 2.18214 -0.830946 0
M  V30 2601 C 262.057 1.68812 0.208966 0
M  V30 2602 O 263.242 1.9408 0.0682666 0
M  V30 2603 C 260.372 3.46051 -0.294296 0
M  V30 2604 C 259.326 4.08778 -1.26826 0
M  V30 2605 C 258.652 5.31419 -0.591449 0
M  V30 2606 C 259.952 4.51476 -2.62615 0
M  V30 2607 H 261.646 2.43703 -1.73923 0
M  V30 2608 H 259.192 1.17128 -0.837675 0
M  V30 2609 H 261.145 4.2134 -0.0709606 0
M  V30 2610 H 259.869 3.20079 0.649366 0
M  V30 2611 H 258.528 3.35505 -1.47756 0
M  V30 2612 H 258.176 5.01727 0.357633 0
M  V30 2613 H 257.876 5.74341 -1.24123 0
M  V30 2614 H 259.4 6.09433 -0.377355 0
M  V30 2615 H 260.814 5.17999 -2.45663 0
M  V30 2616 H 259.211 5.05277 -3.23752 0
M  V30 2617 H 260.281 3.63962 -3.20406 0
M  V30 2618 N 261.624 0.925811 1.2754 0
M  V30 2619 C 262.556 0.380753 2.26015 0
M  V30 2620 C 263.569 -0.487485 1.5533 0
M  V30 2621 O 264.758 -0.300413 1.75954 0
M  V30 2622 C 261.858 -0.473259 3.35579 0
M  V30 2623 C 261.031 0.375249 4.35787 0
M  V30 2624 C 260.09 -0.415809 5.24555 0
M  V30 2625 O 259.116 0.175834 5.68928 0
M  V30 2626 N 260.318 -1.71607 5.54555 0
M  V30 2627 H 263.083 1.22725 2.73421 0
M  V30 2628 H 260.644 0.793037 1.41147 0
M  V30 2629 H 262.636 -1.00949 3.91907 0
M  V30 2630 H 261.206 -1.2205 2.87789 0
M  V30 2631 H 260.426 1.09279 3.7875 0
M  V30 2632 H 261.714 0.955399 4.99749 0
M  V30 2633 H 261.112 -2.2191 5.20358 0
M  V30 2634 H 259.669 -2.19887 6.1359 0
M  V30 2635 N 263.102 -1.41638 0.69111 0
M  V30 2636 C 264.379 -1.95036 0.148421 0
M  V30 2637 C 264.759 -1.63072 -1.34055 0
M  V30 2638 O 264.107 -0.93538 -2.08478 0
M  V30 2639 C 264.317 -3.46279 0.434951 0
M  V30 2640 C 265.665 -4.23069 0.360275 0
M  V30 2641 O 266.689 -3.54277 0.369613 0
M  V30 2642 O 265.548 -5.45583 0.316534 0
M  V30 2643 H 262.642 -0.826908 0.0123654 0
M  V30 2644 H 265.188 -1.5138 0.766963 0
M  V30 2645 H 263.96 -3.6281 1.46576 0
M  V30 2646 H 263.583 -3.97019 -0.214787 0
M  V30 2647 N 264.58 -0.43555 -1.51462 0
M  V30 2648 C 265.513 0.421989 -2.24264 0
M  V30 2649 C 266.491 1.02619 -1.26127 0
M  V30 2650 O 267.675 1.069 -1.55257 0
M  V30 2651 C 264.802 1.588 -2.99166 0
M  V30 2652 C 263.848 1.10465 -4.11946 0
M  V30 2653 S 264.681 0.048146 -5.35478 0
M  V30 2654 C 265.837 1.21887 -6.13917 0
M  V30 2655 H 266.07 -0.196102 -2.96653 0
M  V30 2656 H 263.603 -0.220054 -1.52824 0
M  V30 2657 H 265.561 2.25647 -3.42919 0
M  V30 2658 H 264.222 2.1775 -2.26371 0
M  V30 2659 H 263.415 1.97654 -4.63626 0
M  V30 2660 H 263.017 0.51445 -3.70445 0
M  V30 2661 H 265.309 2.13756 -6.42895 0
M  V30 2662 H 266.252 0.742076 -7.04201 0
M  V30 2663 H 266.66 1.45663 -5.45383 0
M  V30 2664 N 266.058 1.56714 -0.166846 0
M  V30 2665 C 267.283 2.01557 0.488833 0
M  V30 2666 C 267.708 1.0463 1.56314 0
M  V30 2667 O 267.066 0.0251304 1.81283 0
M  V30 2668 C 267.114 3.4503 1.04818 0
M  V30 2669 O 266.218 3.51163 2.16236 0
M  V30 2670 H 265.559 0.653516 0.117526 0
M  V30 2671 H 268.089 2.02818 -0.269421 0
M  V30 2672 H 268.099 3.84243 1.37191 0
M  V30 2673 H 266.774 4.15077 0.261572 0
M  V30 2674 H 265.351 3.23807 1.84942 0
M  V30 2675 N 267.536 -0.106894 1.57237 0
M  V30 2676 C 268.466 -1.13148 2.04254 0
M  V30 2677 C 269.447 -1.42476 0.929224 0
M  V30 2678 O 270.632 -1.52709 1.19973 0
M  V30 2679 C 267.762 -2.4545 2.45706 0
M  V30 2680 C 266.716 -2.30558 3.60592 0
M  V30 2681 C 266.042 -3.67931 3.87983 0
M  V30 2682 C 267.342 -1.75597 4.91897 0
M  V30 2683 H 269.036 -0.740374 2.90101 0
M  V30 2684 H 266.582 -0.354696 1.39563 0
M  V30 2685 H 268.535 -3.17389 2.77205 0
M  V30 2686 H 267.259 -2.86475 1.56843 0
M  V30 2687 H 265.918 -1.61067 3.29322 0
M  V30 2688 H 265.566 -4.06462 2.96306 0
M  V30 2689 H 265.266 -3.58817 4.65322 0
M  V30 2690 H 266.79 -4.41356 4.21945 0
M  V30 2691 H 268.204 -2.37364 5.21854 0
M  V30 2692 H 266.601 -1.77272 5.73319 0
M  V30 2693 H 267.671 -0.714451 4.79608 0
M  V30 2694 N 269.014 -1.53014 -0.377408 0
M  V30 2695 C 269.947 -1.73382 -1.48371 0
M  V30 2696 C 270.925 -0.581879 -1.51832 0
M  V30 2697 O 272.109 -0.81307 -1.70063 0
M  V30 2698 C 269.236 -1.80192 -2.8679 0
M  V30 2699 C 268.282 -3.02056 -3.01105 0
M  V30 2700 S 269.115 -4.61811 -2.71093 0
M  V30 2701 C 270.271 -4.71453 -4.11683 0
M  V30 2702 H 270.504 -2.66946 -1.30872 0
M  V30 2703 H 268.037 -1.43453 -0.571012 0
M  V30 2704 H 269.995 -1.84802 -3.6655 0
M  V30 2705 H 268.656 -0.877008 -3.01608 0
M  V30 2706 H 267.849 -3.03396 -4.02451 0
M  V30 2707 H 267.451 -2.95498 -2.29253 0
M  V30 2708 H 269.743 -4.50781 -5.0577 0
M  V30 2709 H 270.686 -5.73487 -4.15353 0
M  V30 2710 H 271.094 -4.00189 -3.98132 0
M  V30 2711 N 270.492 0.636531 -1.44174 0
M  V30 2712 C 271.72 1.42353 -1.50144 0
M  V30 2713 C 272.135 1.88389 -0.124575 0
M  V30 2714 O 271.492 1.6051 0.868489 0
M  V30 2715 C 271.543 2.64744 -2.46156 0
M  V30 2716 O 271.264 2.20629 -3.7849 0
M  V30 2717 C 272.765 3.57929 -2.61537 0
M  V30 2718 H 269.985 0.436752 -0.5094 0
M  V30 2719 H 272.529 0.778933 -1.89084 0
M  V30 2720 H 270.684 3.25307 -2.10366 0
M  V30 2721 H 271.098 2.99938 -4.30276 0
M  V30 2722 H 272.572 4.40428 -3.32757 0
M  V30 2723 H 273.049 4.06382 -1.66585 0
M  V30 2724 H 273.655 3.03238 -2.98206 0
M  V30 2725 N 271.97 1.30982 0.876444 0
M  V30 2726 C 272.9 1.20668 1.99903 0
M  V30 2727 C 273.881 0.095354 1.69833 0
M  V30 2728 O 275.066 0.27885 1.92188 0
M  V30 2729 C 272.196 0.90655 3.3526 0
M  V30 2730 C 271.15 1.97675 3.79617 0
M  V30 2731 C 270.476 1.52943 5.1236 0
M  V30 2732 C 271.776 3.389 3.97422 0
M  V30 2733 H 273.47 2.14586 2.0879 0
M  V30 2734 H 271.016 1.03308 1.00317 0
M  V30 2735 H 272.969 0.821025 4.13324 0
M  V30 2736 H 271.693 -0.0682969 3.26529 0
M  V30 2737 H 270.352 2.05205 3.03787 0
M  V30 2738 H 270 0.54262 5.00065 0
M  V30 2739 H 269.7 2.24532 5.43009 0
M  V30 2740 H 271.224 1.45786 5.92941 0
M  V30 2741 H 272.638 3.34081 4.659 0
M  V30 2742 H 271.035 4.0865 4.3946 0
M  V30 2743 H 272.105 3.80163 3.01006 0
M  V30 2744 N 273.449 -1.08991 1.13837 0
M  V30 2745 C 274.674 -1.85551 0.926585 0
M  V30 2746 C 275.099 -1.80782 -0.519566 0
M  V30 2747 O 274.457 -1.18855 -1.36906 0
M  V30 2748 C 274.505 -3.31266 1.42462 0
M  V30 2749 O 273.609 -4.07822 0.612789 0
M  V30 2750 H 272.95 -0.575192 0.331738 0
M  V30 2751 H 275.48 -1.37604 1.51414 0
M  V30 2752 H 275.49 -3.82112 1.43019 0
M  V30 2753 H 274.165 -3.34052 2.47754 0
M  V30 2754 H 272.742 -3.66731 0.675463 0
M  V30 2755 N 274.927 -0.932562 -1.27047 0
M  V30 2756 C 276.155 -0.592031 -1.98249 0
M  V30 2757 C 276.57 0.831062 -1.69525 0
M  V30 2758 O 275.927 1.55299 -0.958561 0
M  V30 2759 C 275.978 -0.814279 -3.5221 0
M  V30 2760 O 275.699 -2.18139 -3.7993 0
M  V30 2761 C 277.2 -0.483121 -4.4066 0
M  V30 2762 H 274.42 -0.223896 -0.632544 0
M  V30 2763 H 276.964 -1.25091 -1.61779 0
M  V30 2764 H 275.119 -0.20213 -3.86872 0
M  V30 2765 H 275.533 -2.235 -4.74498 0
M  V30 2766 H 277.007 -0.689298 -5.47679 0
M  V30 2767 H 277.484 0.581546 -4.35333 0
M  V30 2768 H 278.09 -1.07362 -4.11526 0
M  V30 2769 N 276.405 1.4127 -0.698611 0
M  V30 2770 C 277.352 2.30773 -0.0352094 0
M  V30 2771 C 278.322 1.47273 0.768111 0
M  V30 2772 O 279.507 1.76053 0.735524 0
M  V30 2773 C 276.647 3.33346 0.893 0
M  V30 2774 C 275.76 4.31924 0.0809695 0
M  V30 2775 C 274.895 5.21566 1.0071 0
M  V30 2776 C 273.934 6.11811 0.188155 0
M  V30 2777 N 273.071 6.93926 1.06825 0
M  V30 2778 H 277.911 2.86943 -0.804207 0
M  V30 2779 H 275.448 1.4132 -0.408294 0
M  V30 2780 H 277.406 3.91368 1.44523 0
M  V30 2781 H 276.036 2.78719 1.62836 0
M  V30 2782 H 275.088 3.75825 -0.588224 0
M  V30 2783 H 276.4 4.95716 -0.553801 0
M  V30 2784 H 275.554 5.84437 1.62845 0
M  V30 2785 H 274.293 4.58008 1.67572 0
M  V30 2786 H 273.298 5.47986 -0.446254 0
M  V30 2787 H 274.523 6.77425 -0.476716 0
M  V30 2788 H 272.469 6.32973 1.72283 0
M  V30 2789 H 272.386 7.54416 0.489123 0
M  V30 2790 H 273.654 7.61262 1.67632 0
M  V30 2791 N 277.883 0.443576 1.51229 0
M  V30 2792 C 279.111 -0.11929 2.06556 0
M  V30 2793 C 279.526 -1.35921 1.31038 0
M  V30 2794 O 278.883 -1.78675 0.371704 0
M  V30 2795 C 278.934 -0.435228 3.5887 0
M  V30 2796 O 278.655 0.755486 4.31537 0
M  V30 2797 C 280.156 -1.04808 4.30732 0
M  V30 2798 H 277.376 -0.0051584 0.67098 0
M  V30 2799 H 279.92 0.624453 1.94733 0
M  V30 2800 H 278.075 -1.12887 3.70588 0
M  V30 2801 H 278.489 0.483491 5.22267 0
M  V30 2802 H 279.963 -1.2191 5.3837 0
M  V30 2803 H 280.44 -2.03081 3.89429 0
M  V30 2804 H 281.046 -0.393637 4.23474 0
M  V30 2805 N 279.361 -1.56624 0.175154 0
M  V30 2806 C 280.772 -1.83561 -0.340916 0
M  V30 2807 C 281.123 -1.09511 -1.62794 0
M  V30 2808 O 280.248 -0.349389 -2.13561 0
M  V30 2809 C 280.843 -3.32979 -0.625313 0
M  V30 2810 C 279.402 -3.60399 -1.08581 0
M  V30 2811 C 278.549 -2.77024 -0.123722 0
M  V30 2812 H 281.5 -1.53593 0.399344 0
M  V30 2813 H 281.521 -3.50666 -1.47694 0
M  V30 2814 H 281.033 -3.86847 0.311575 0
M  V30 2815 H 279.134 -3.11945 -2.03767 0
M  V30 2816 H 279.247 -4.68711 -0.992317 0
M  V30 2817 H 277.611 -2.46993 -0.621821 0
M  V30 2818 H 278.394 -3.33674 0.807256 0
M  V30 2819 N 280.839 0.0985539 -1.57292 0
M  V30 2820 C 281.786 1.11981 -2.01814 0
M  V30 2821 C 282.756 1.39999 -0.89384 0
M  V30 2822 O 283.941 1.5152 -1.15958 0
M  V30 2823 C 281.081 2.43577 -2.44467 0
M  V30 2824 C 280.194 2.2232 -3.70402 0
M  V30 2825 C 279.329 3.4729 -4.01949 0
M  V30 2826 C 278.368 3.2128 -5.21005 0
M  V30 2827 N 277.505 4.38507 -5.48321 0
M  V30 2828 H 282.345 0.733149 -2.88841 0
M  V30 2829 H 279.882 0.350482 -1.42864 0
M  V30 2830 H 281.84 3.20373 -2.6724 0
M  V30 2831 H 280.47 2.80097 -1.60455 0
M  V30 2832 H 279.522 1.36343 -3.55126 0
M  V30 2833 H 280.834 1.99089 -4.57345 0
M  V30 2834 H 279.988 4.32495 -4.25479 0
M  V30 2835 H 278.727 3.73572 -3.13521 0
M  V30 2836 H 277.732 2.34468 -4.97298 0
M  V30 2837 H 278.957 2.96348 -6.11028 0
M  V30 2838 H 276.903 4.64871 -4.62851 0
M  V30 2839 H 276.82 4.18455 -6.29628 0
M  V30 2840 H 278.088 5.24787 -5.76385 0
M  V30 2841 N 282.317 1.53212 0.369288 0
M  V30 2842 C 283.594 1.59815 1.12776 0
M  V30 2843 C 283.974 0.403402 2.0721 0
M  V30 2844 O 283.322 -0.606667 2.20299 0
M  V30 2845 C 283.532 2.94664 1.87013 0
M  V30 2846 C 284.88 3.49109 2.41677 0
M  V30 2847 O 285.904 2.96669 1.97144 0
M  V30 2848 O 284.763 4.40775 3.23079 0
M  V30 2849 H 281.857 0.645376 0.517125 0
M  V30 2850 H 284.403 1.65553 0.37285 0
M  V30 2851 H 283.175 3.73061 1.18071 0
M  V30 2852 H 282.798 2.92401 2.69421 0
M  V30 2853 N 283.795 -0.628877 1.44509 0
M  V30 2854 C 285.042 -1.38839 1.47411 0
M  V30 2855 C 285.37 -1.94202 0.10757 0
M  V30 2856 O 284.625 -1.74243 -0.890947 0
M  V30 2857 C 284.924 -2.56995 2.48371 0
M  V30 2858 C 284.59 -2.19908 3.93639 0
M  V30 2859 C 283.252 -2.09506 4.33198 0
M  V30 2860 C 285.604 -1.9064 4.85083 0
M  V30 2861 C 282.932 -1.68028 5.62124 0
M  V30 2862 C 285.284 -1.50655 6.14399 0
M  V30 2863 C 283.948 -1.38796 6.5291 0
M  V30 2864 H 283.218 -0.508048 0.539414 0
M  V30 2865 H 285.865 -0.712913 1.77735 0
M  V30 2866 H 284.17 -3.29786 2.11538 0
M  V30 2867 H 285.867 -3.15223 2.47861 0
M  V30 2868 H 282.457 -2.28922 3.62343 0
M  V30 2869 H 286.641 -1.97585 4.55273 0
M  V30 2870 H 281.897 -1.57452 5.90778 0
M  V30 2871 H 286.071 -1.27048 6.84713 0
M  V30 2872 H 283.698 -1.06429 7.52713 0
M  V30 2873 N 285.273 -1.31445 -0.869486 0
M  V30 2874 C 286.52 -1.21158 -1.62256 0
M  V30 2875 C 286.848 0.230155 -1.93133 0
M  V30 2876 O 286.103 1.17906 -1.56194 0
M  V30 2877 C 286.402 -2.00145 -2.96102 0
M  V30 2878 C 286.068 -3.4964 -2.84715 0
M  V30 2879 C 284.73 -3.90403 -2.81317 0
M  V30 2880 C 287.082 -4.44769 -2.71716 0
M  V30 2881 C 284.41 -5.24561 -2.62778 0
M  V30 2882 C 286.762 -5.79054 -2.54714 0
M  V30 2883 C 285.426 -6.19037 -2.49699 0
M  V30 2884 H 284.696 -0.443348 -0.593737 0
M  V30 2885 H 287.343 -1.62715 -1.00976 0
M  V30 2886 H 285.648 -1.5127 -3.6142 0
M  V30 2887 H 287.345 -1.89566 -3.53363 0
M  V30 2888 H 283.935 -3.17256 -2.88178 0
M  V30 2889 H 288.119 -4.14208 -2.73397 0
M  V30 2890 H 283.375 -5.54613 -2.57321 0
M  V30 2891 H 287.549 -6.52393 -2.43632 0
M  V30 2892 H 285.176 -7.22935 -2.35093 0
M  V30 2893 N 286.751 1.08385 -1.14413 0
M  V30 2894 C 287.979 1.84517 -0.936001 0
M  V30 2895 C 288.394 1.81626 0.515503 0
M  V30 2896 O 287.751 1.22008 1.35721 0
M  V30 2897 C 287.802 3.32049 -1.42918 0
M  V30 2898 O 287.523 3.34951 -2.82381 0
M  V30 2899 C 289.024 4.24986 -1.26103 0
M  V30 2900 H 286.244 0.582491 -0.333084 0
M  V30 2901 H 288.788 1.36885 -1.5193 0
M  V30 2902 H 286.943 3.7707 -0.888641 0
M  V30 2903 H 287.357 4.27048 -3.04517 0
M  V30 2904 H 288.831 5.26615 -1.6547 0
M  V30 2905 H 289.308 4.38726 -0.20392 0
M  V30 2906 H 289.914 3.85791 -1.79012 0
M  V30 2907 N 288.23 0.939286 1.26551 0
M  V30 2908 C 289.178 0.43815 2.28436 0
M  V30 2909 C 290.172 -0.483587 1.62351 0
M  V30 2910 O 291.378 -0.362009 1.76322 0
M  V30 2911 H 287.753 0.123149 0.741848 0
M  V30 2912 H 289.724 1.31002 2.68106 0
M  V30 2913 C 288.473 -0.283052 3.46546 0
M  V30 2914 H 287.796 0.417043 3.97619 0
M  V30 2915 H 289.236 -0.597948 4.19763 0
M  V30 2916 C 287.695 -1.50018 3.01656 0
M  V30 2917 O 288.225 -2.59855 3.0633 0
M  V30 2918 N 286.431 -1.35608 2.57019 0
M  V30 2919 H 285.978 -0.46244 2.53415 0
M  V30 2920 H 285.936 -2.17165 2.27347 0
M  V30 2921 N 289.708 -1.40897 0.706093 0
M  V30 2922 C 290.658 -2.27987 0.0240746 0
M  V30 2923 C 291.642 -1.42759 -0.742204 0
M  V30 2924 O 292.834 -1.65936 -0.615966 0
M  V30 2925 C 289.963 -3.31186 -0.903907 0
M  V30 2926 C 289.049 -4.2389 -0.133318 0
M  V30 2927 N 289.44 -4.98113 0.878444 0
M  V30 2928 C 287.738 -4.44485 -0.367269 0
M  V30 2929 C 288.439 -5.6604 1.34064 0
M  V30 2930 N 287.415 -5.39522 0.664565 0
M  V30 2931 H 291.217 -2.82812 0.799658 0
M  V30 2932 H 288.731 -1.53235 0.537845 0
M  V30 2933 H 290.728 -3.92413 -1.40775 0
M  V30 2934 H 289.388 -2.77922 -1.67897 0
M  V30 2935 H 290.399 -5.02364 1.25901 0
M  V30 2936 H 287.076 -4.02213 -1.1194 0
M  V30 2937 H 288.466 -6.35524 2.1808 0
M  V30 2938 N 291.186 -0.45159 -1.50991 0
M  V30 2939 C 292.414 0.108334 -2.06616 0
M  V30 2940 C 292.829 1.35224 -1.31757 0
M  V30 2941 O 292.186 1.78475 -0.381174 0
M  V30 2942 C 292.237 0.41619 -3.59096 0
M  V30 2943 O 291.958 -0.778361 -4.3113 0
M  V30 2944 C 293.459 1.02523 -4.31282 0
M  V30 2945 H 290.679 0.00159995 -0.670998 0
M  V30 2946 H 293.223 -0.634771 -1.94399 0
M  V30 2947 H 291.378 1.10921 -3.71181 0
M  V30 2948 H 291.792 -0.511181 -5.22003 0
M  V30 2949 H 293.266 1.19053 -5.39009 0
M  V30 2950 H 293.743 2.01013 -3.905 0
M  V30 2951 H 294.349 0.371173 -4.23677 0
M  V30 2952 N 292.664 1.56529 -0.183458 0
M  V30 2953 C 293.594 2.21549 0.737456 0
M  V30 2954 C 294.575 1.17489 1.23005 0
M  V30 2955 O 295.76 1.45959 1.281 0
M  V30 2956 C 292.89 2.86575 1.96194 0
M  V30 2957 C 291.844 3.96778 1.60473 0
M  V30 2958 C 291.17 4.48911 2.90487 0
M  V30 2959 C 292.47 5.15767 0.823497 0
M  V30 2960 H 294.164 2.98761 0.195453 0
M  V30 2961 H 291.71 1.43702 0.0925686 0
M  V30 2962 H 293.663 3.30739 2.61131 0
M  V30 2963 H 292.387 2.06749 2.52828 0
M  V30 2964 H 291.046 3.53286 0.978997 0
M  V30 2965 H 290.694 3.65862 3.45186 0
M  V30 2966 H 290.394 5.23265 2.67335 0
M  V30 2967 H 291.918 4.95771 3.56432 0
M  V30 2968 H 293.332 5.56549 1.37571 0
M  V30 2969 H 291.729 5.96114 0.690551 0
M  V30 2970 H 292.799 4.84574 -0.177782 0
M  V30 2971 N 294.142 -0.090211 1.57342 0
M  V30 2972 C 295.388 -0.793982 1.86611 0
M  V30 2973 C 295.721 -1.78142 0.773252 0
M  V30 2974 O 294.996 -1.93271 -0.218304 0
M  V30 2975 C 295.279 -1.51839 3.26523 0
M  V30 2976 C 295.132 -0.548609 4.46442 0
M  V30 2977 C 296.451 -2.46779 3.64401 0
M  V30 2978 H 293.57 -0.287186 0.678744 0
M  V30 2979 H 296.212 -0.0575076 1.89913 0
M  V30 2980 H 294.362 -2.14617 3.23839 0
M  V30 2981 H 296.034 0.0725513 4.61243 0
M  V30 2982 H 294.277 0.137614 4.33582 0
M  V30 2983 H 294.948 -1.09271 5.41076 0
M  V30 2984 H 297.424 -1.94089 3.68061 0
M  V30 2985 H 296.3 -2.94479 4.63221 0
M  V30 2986 H 296.561 -3.30758 2.93346 0
M  V30 2987 N 295.62 -1.53406 -0.361157 0
M  V30 2988 C 296.55 -1.83136 -1.44857 0
M  V30 2989 C 297.531 -0.685174 -1.5569 0
M  V30 2990 O 298.716 -0.93544 -1.70186 0
M  V30 2991 C 295.846 -2.02522 -2.82138 0
M  V30 2992 C 294.8 -3.18302 -2.86126 0
M  V30 2993 C 294.126 -3.22989 -4.26125 0
M  V30 2994 C 295.426 -4.56796 -2.53248 0
M  V30 2995 H 297.12 -2.74201 -1.20226 0
M  V30 2996 H 294.666 -1.31938 -0.576922 0
M  V30 2997 H 296.619 -2.21904 -3.58241 0
M  V30 2998 H 295.343 -1.08172 -3.08166 0
M  V30 2999 H 294.002 -2.98747 -2.12475 0
M  V30 3000 H 293.65 -2.26267 -4.49235 0
M  V30 3001 H 293.35 -4.00781 -4.29708 0
M  V30 3002 H 294.874 -3.44559 -5.04094 0
M  V30 3003 H 296.288 -4.7631 -3.19064 0
M  V30 3004 H 294.685 -5.36862 -2.68141 0
M  V30 3005 H 295.755 -4.61606 -1.48484 0
M  V30 3006 N 297.098 0.621204 -1.44841 0
M  V30 3007 C 298.048 1.72663 -1.48901 0
M  V30 3008 C 299.032 1.56964 -0.353702 0
M  V30 3009 O 300.224 1.66532 -0.599669 0
M  V30 3010 C 297.353 3.11381 -1.44557 0
M  V30 3011 C 296.439 3.32514 -2.6324 0
M  V30 3012 N 296.83 3.23969 -3.8843 0
M  V30 3013 C 295.128 3.63343 -2.58647 0
M  V30 3014 C 295.829 3.46062 -4.67564 0
M  V30 3015 N 294.805 3.69407 -3.98797 0
M  V30 3016 H 298.607 1.64529 -2.43531 0
M  V30 3017 H 296.121 0.82401 -1.39942 0
M  V30 3018 H 298.118 3.90667 -1.4555 0
M  V30 3019 H 296.778 3.20674 -0.509731 0
M  V30 3020 H 297.789 3.02669 -4.20252 0
M  V30 3021 H 294.466 3.79556 -1.73906 0
M  V30 3022 H 295.856 3.44963 -5.76585 0
M  V30 3023 N 298.576 1.31904 0.862503 0
M  V30 3024 C 299.822 1.22197 1.61851 0
M  V30 3025 C 300.155 -0.217641 1.92977 0
M  V30 3026 O 299.43 -1.15264 1.56666 0
M  V30 3027 C 299.713 2.07378 2.94391 0
M  V30 3028 C 299.566 3.59678 2.70096 0
M  V30 3029 C 300.885 1.92891 3.95577 0
M  V30 3030 H 298.004 0.445255 0.587296 0
M  V30 3031 H 300.646 1.6177 0.99651 0
M  V30 3032 H 298.796 1.73758 3.47477 0
M  V30 3033 H 300.468 4.03472 2.23625 0
M  V30 3034 H 298.711 3.82735 2.04197 0
M  V30 3035 H 299.382 4.14595 3.64438 0
M  V30 3036 H 301.858 2.22327 3.51724 0
M  V30 3037 H 300.734 2.54781 4.86187 0
M  V30 3038 H 300.995 0.894315 4.3296 0
M  V30 3039 N 300.054 -1.07777 1.14986 0
M  V30 3040 C 301.017 -2.13041 0.845358 0
M  V30 3041 C 302.017 -1.60071 -0.152931 0
M  V30 3042 O 303.207 -1.74033 0.0761879 0
M  V30 3043 C 300.339 -3.39896 0.261383 0
M  V30 3044 H 301.532 -2.41485 1.77834 0
M  V30 3045 H 299.085 -1.23595 0.956757 0
M  V30 3046 H 299.82 -3.17091 -0.68 0
M  V30 3047 H 299.605 -3.79642 0.980514 0
M  V30 3048 H 301.095 -4.17548 0.0657687 0
M  V30 3049 N 301.532 -0.945985 -1.26051 0
M  V30 3050 C 302.948 -0.649045 -1.45807 0
M  V30 3051 C 303.148 0.796158 -1.85104 0
M  V30 3052 O 302.204 1.57233 -1.97571 0
M  V30 3053 C 303.517 -1.61458 -2.53677 0
M  V30 3054 C 305.065 -1.62481 -2.67524 0
M  V30 3055 C 305.54 -2.57776 -3.7857 0
M  V30 3056 N 307.031 -2.5609 -3.85969 0
M  V30 3057 C 307.766 -3.26508 -4.7136 0
M  V30 3058 N 307.262 -4.0637 -5.61102 0
M  V30 3059 N 309.055 -3.15437 -4.65248 0
M  V30 3060 H 301.206 -1.88005 -0.988328 0
M  V30 3061 H 303.469 -0.808198 -0.4955 0
M  V30 3062 H 303.175 -2.64644 -2.31638 0
M  V30 3063 H 303.049 -1.37036 -3.51427 0
M  V30 3064 H 305.436 -0.600167 -2.88933 0
M  V30 3065 H 305.517 -1.90958 -1.70202 0
M  V30 3066 H 305.161 -3.60361 -3.57913 0
M  V30 3067 H 305.091 -2.26587 -4.75359 0
M  V30 3068 H 307.582 -1.98105 -3.21812 0
M  V30 3069 H 307.895 -4.57042 -6.23164 0
M  V30 3070 H 306.24 -4.10469 -5.60839 0
M  V30 3071 H 309.431 -2.52525 -3.94143 0
M  V30 3072 H 309.604 -3.70584 -5.31575 0
M  V30 3073 N 303.011 1.40521 -0.713556 0
M  V30 3074 C 304.236 2.05759 -0.26035 0
M  V30 3075 C 304.661 1.53403 1.08854 0
M  V30 3076 O 304.019 0.668535 1.68524 0
M  V30 3077 C 304.067 3.59745 -0.248122 0
M  V30 3078 O 303.171 4.05123 0.77131 0
M  V30 3079 H 302.512 0.652564 -0.122703 0
M  V30 3080 H 305.042 1.79958 -0.973467 0
M  V30 3081 H 305.052 4.07911 -0.0851129 0
M  V30 3082 H 303.727 3.97218 -1.2325 0
M  V30 3083 H 302.304 3.68422 0.57619 0
M  V30 3084 N 304.489 0.459591 1.5075 0
M  V30 3085 C 305.399 -0.34613 2.32033 0
M  V30 3086 C 306.415 -1.00686 1.41909 0
M  V30 3087 O 307.591 -0.997361 1.7497 0
M  V30 3088 C 304.656 -1.42029 3.16273 0
M  V30 3089 C 303.717 -0.777362 4.22203 0
M  V30 3090 C 302.95 -1.80034 5.02418 0
M  V30 3091 O 303.173 -3.02544 4.83553 0
M  V30 3092 O 302.107 -1.37853 5.85901 0
M  V30 3093 H 305.933 0.318054 3.0203 0
M  V30 3094 H 303.518 0.221663 1.47746 0
M  V30 3095 H 305.4 -2.04275 3.68578 0
M  V30 3096 H 304.075 -2.06815 2.49016 0
M  V30 3097 H 302.982 -0.116256 3.73919 0
M  V30 3098 H 304.315 -0.172634 4.91897 0
M  V30 3099 N 305.967 -1.56429 0.191757 0
M  V30 3100 C 306.9 -2.14829 -0.76967 0
M  V30 3101 C 307.878 -1.08405 -1.2119 0
M  V30 3102 O 309.062 -1.36498 -1.30002 0
M  V30 3103 C 306.189 -2.70446 -2.03903 0
M  V30 3104 C 305.235 -3.89428 -1.7392 0
M  V30 3105 S 306.068 -5.28048 -0.890265 0
M  V30 3106 C 307.224 -5.87085 -2.16984 0
M  V30 3107 H 307.457 -2.96042 -0.273204 0
M  V30 3108 H 304.99 -1.54383 -0.0231975 0
M  V30 3109 H 306.948 -3.03134 -2.76803 0
M  V30 3110 H 305.609 -1.89281 -2.50662 0
M  V30 3111 H 304.802 -4.26742 -2.68155 0
M  V30 3112 H 304.404 -3.57732 -1.09103 0
M  V30 3113 H 306.696 -6.01244 -3.12269 0
M  V30 3114 H 307.639 -6.83747 -1.84108 0
M  V30 3115 H 308.047 -5.15663 -2.29678 0
M  V30 3116 N 307.445 0.0818655 -1.57387 0
M  V30 3117 C 308.722 0.815343 -1.77796 0
M  V30 3118 C 309.102 1.96289 -0.77679 0
M  V30 3119 O 308.45 2.27691 0.192106 0
M  V30 3120 C 308.66 1.29765 -3.23978 0
M  V30 3121 C 310.008 1.7351 -3.8753 0
M  V30 3122 O 311.032 1.39356 -3.27808 0
M  V30 3123 O 309.891 2.36708 -4.92576 0
M  V30 3124 H 306.985 0.389914 -0.729312 0
M  V30 3125 H 309.531 0.0627213 -1.69584 0
M  V30 3126 H 308.303 0.47608 -3.88393 0
M  V30 3127 H 307.926 2.11189 -3.36875 0
M  V30 3128 N 308.923 1.53595 0.353017 0
M  V30 3129 C 309.87 1.80919 1.43308 0
M  V30 3130 C 310.84 0.654288 1.5267 0
M  V30 3131 O 312.025 0.897759 1.6836 0
M  V30 3132 C 309.165 2.01605 2.80089 0
M  V30 3133 C 308.278 3.29321 2.79593 0
M  V30 3134 C 307.413 3.40125 4.0803 0
M  V30 3135 C 306.452 4.61826 4.01725 0
M  V30 3136 N 305.589 4.69716 5.21834 0
M  V30 3137 H 310.429 2.73074 1.19308 0
M  V30 3138 H 307.966 1.35263 0.578131 0
M  V30 3139 H 309.924 2.11586 3.59565 0
M  V30 3140 H 308.554 1.12772 3.0246 0
M  V30 3141 H 307.606 3.28229 1.92276 0
M  V30 3142 H 308.918 4.18884 2.70809 0
M  V30 3143 H 308.072 3.49488 4.95927 0
M  V30 3144 H 306.811 2.48601 4.19582 0
M  V30 3145 H 305.816 4.52552 3.12213 0
M  V30 3146 H 307.041 5.54705 3.91764 0
M  V30 3147 H 304.987 3.81097 5.33948 0
M  V30 3148 H 304.904 5.53202 5.1527 0
M  V30 3149 H 306.172 4.83376 6.11529 0
M  V30 3150 N 310.401 -0.613514 1.45168 0
M  V30 3151 C 311.647 -1.37471 1.49096 0
M  V30 3152 C 311.98 -1.93765 0.129901 0
M  V30 3153 O 311.255 -1.74707 -0.854858 0
M  V30 3154 C 311.538 -2.52701 2.56542 0
M  V30 3155 C 311.391 -2.01643 4.0207 0
M  V30 3156 C 312.71 -3.54849 2.60327 0
M  V30 3157 H 309.829 -0.498502 0.54283 0
M  V30 3158 H 312.471 -0.692125 1.76945 0
M  V30 3159 H 310.621 -3.10931 2.32926 0
M  V30 3160 H 312.293 -1.48108 4.36877 0
M  V30 3161 H 310.536 -1.32688 4.13009 0
M  V30 3162 H 311.207 -2.84681 4.72928 0
M  V30 3163 H 313.683 -3.0645 2.81474 0
M  V30 3164 H 312.559 -4.32973 3.37381 0
M  V30 3165 H 312.82 -4.10079 1.6519 0
M  V30 3166 N 311.879 -1.3236 -0.855495 0
M  V30 3167 C 313.295 -1.11332 -1.14356 0
M  V30 3168 C 313.495 0.106751 -2.01217 0
M  V30 3169 O 312.551 0.791891 -2.39761 0
M  V30 3170 C 313.864 -2.39237 -1.82171 0
M  V30 3171 C 315.412 -2.44986 -1.9481 0
M  V30 3172 C 315.887 -3.7281 -2.66039 0
M  V30 3173 N 317.378 -3.73787 -2.73565 0
M  V30 3174 C 318.113 -4.69394 -3.29327 0
M  V30 3175 N 317.609 -5.75367 -3.85907 0
M  V30 3176 N 319.402 -4.56893 -3.27423 0
M  V30 3177 H 311.553 -2.10586 -0.277027 0
M  V30 3178 H 313.816 -0.929701 -0.185364 0
M  V30 3179 H 313.522 -3.28431 -1.25802 0
M  V30 3180 H 313.396 -2.50134 -2.82335 0
M  V30 3181 H 315.783 -1.56252 -2.50338 0
M  V30 3182 H 315.864 -2.38043 -0.936448 0
M  V30 3183 H 315.508 -4.61918 -2.11174 0
M  V30 3184 H 315.438 -3.77024 -3.67642 0
M  V30 3185 H 317.929 -2.97189 -2.33424 0
M  V30 3186 H 318.242 -6.44378 -4.26611 0
M  V30 3187 H 316.587 -5.79123 -3.84242 0
M  V30 3188 H 319.778 -3.73269 -2.82467 0
M  V30 3189 H 319.951 -5.31577 -3.7058 0
M  V30 3190 N 313.357 1.07166 -1.15556 0
M  V30 3191 C 314.603 1.80065 -0.932984 0
M  V30 3192 C 314.936 1.86586 0.53845 0
M  V30 3193 O 314.211 1.35098 1.39924 0
M  V30 3194 C 314.494 3.25022 -1.55025 0
M  V30 3195 C 314.347 3.26634 -3.09242 0
M  V30 3196 C 315.666 4.22341 -1.2376 0
M  V30 3197 H 312.785 0.653697 -0.340366 0
M  V30 3198 H 315.427 1.25389 -1.4275 0
M  V30 3199 H 313.577 3.71712 -1.12972 0
M  V30 3200 H 315.249 2.88173 -3.60214 0
M  V30 3201 H 313.492 2.65539 -3.43033 0
M  V30 3202 H 314.163 4.28854 -3.47546 0
M  V30 3203 H 316.639 3.8405 -1.60139 0
M  V30 3204 H 315.515 5.22053 -1.69564 0
M  V30 3205 H 315.776 4.41828 -0.154938 0
M  V30 3206 N 314.835 0.952656 1.25548 0
M  V30 3207 C 316.082 0.606373 1.93208 0
M  V30 3208 C 316.41 -0.85631 1.74636 0
M  V30 3209 O 315.665 -1.62951 1.08376 0
M  V30 3210 C 315.964 0.908818 3.45652 0
M  V30 3211 C 315.63 2.35722 3.84378 0
M  V30 3212 C 314.292 2.75312 3.9466 0
M  V30 3213 C 316.644 3.29793 4.03591 0
M  V30 3214 C 313.972 4.08047 4.21562 0
M  V30 3215 C 316.324 4.62138 4.31985 0
M  V30 3216 C 314.988 5.01528 4.40484 0
M  V30 3217 H 314.258 0.221888 0.706998 0
M  V30 3218 H 316.905 1.20132 1.49133 0
M  V30 3219 H 315.21 0.231456 3.91116 0
M  V30 3220 H 316.907 0.619498 3.96186 0
M  V30 3221 H 313.497 2.04017 3.76928 0
M  V30 3222 H 317.681 3.00397 3.95064 0
M  V30 3223 H 312.937 4.38212 4.26357 0
M  V30 3224 H 317.111 5.35012 4.45797 0
M  V30 3225 H 314.738 6.04406 4.61083 0
M  V30 3226 N 316.313 -1.40141 0.720998 0
M  V30 3227 C 317.245 -2.29177 0.0324669 0
M  V30 3228 C 318.258 -1.46105 -0.718126 0
M  V30 3229 O 319.447 -1.69335 -0.564608 0
M  V30 3230 C 316.547 -3.24473 -0.978292 0
M  V30 3231 C 315.72 -4.36423 -0.292115 0
M  V30 3232 C 314.779 -5.12122 -1.20901 0
M  V30 3233 O 313.805 -5.64981 -0.691766 0
M  V30 3234 N 315.007 -5.21992 -2.53978 0
M  V30 3235 H 317.772 -2.88909 0.796984 0
M  V30 3236 H 315.333 -1.51569 0.569068 0
M  V30 3237 H 317.325 -3.71987 -1.59398 0
M  V30 3238 H 315.895 -2.65871 -1.64413 0
M  V30 3239 H 315.115 -3.90967 0.503847 0
M  V30 3240 H 316.403 -5.08467 0.183971 0
M  V30 3241 H 315.801 -4.8054 -2.98493 0
M  V30 3242 H 314.358 -5.72995 -3.10677 0
M  V30 3243 N 317.792 -0.46758 -1.50504 0
M  V30 3244 C 318.755 0.317059 -2.26996 0
M  V30 3245 C 319.755 0.923513 -1.31635 0
M  V30 3246 O 320.945 0.793239 -1.55091 0
M  V30 3247 C 318.077 1.45134 -3.08462 0
M  V30 3248 H 319.27 -0.353723 -2.97807 0
M  V30 3249 H 316.823 -0.221545 -1.54722 0
M  V30 3250 H 317.558 2.15728 -2.4214 0
M  V30 3251 H 317.343 1.02232 -3.78538 0
M  V30 3252 H 318.833 2.00493 -3.66323 0
M  V30 3253 N 319.27 1.56325 -0.20005 0
M  V30 3254 C 320.498 2.02105 0.442874 0
M  V30 3255 C 320.913 1.08014 1.5485 0
M  V30 3256 O 320.27 0.0858797 1.82298 0
M  V30 3257 C 320.321 3.47549 0.994583 0
M  V30 3258 O 320.042 4.38049 -0.0669322 0
M  V30 3259 C 321.543 4.0887 1.7129 0
M  V30 3260 H 318.763 0.661807 0.110691 0
M  V30 3261 H 321.307 2.02134 -0.310207 0
M  V30 3262 H 319.462 3.48204 1.69803 0
M  V30 3263 H 319.876 5.23368 0.344462 0
M  V30 3264 H 321.35 5.12475 2.05118 0
M  V30 3265 H 321.827 3.52615 2.61838 0
M  V30 3266 H 322.433 4.12002 1.05518 0
M  V30 3267 N 320.748 -0.0735177 1.57428 0
M  V30 3268 C 322.164 -0.428264 1.53747 0
M  V30 3269 C 322.364 -1.79272 0.91998 0
M  V30 3270 O 321.42 -2.47051 0.521745 0
M  V30 3271 C 322.733 -0.370914 2.98404 0
M  V30 3272 C 324.281 -0.451224 3.0973 0
M  V30 3273 C 324.756 -0.4238 4.56035 0
M  V30 3274 N 326.247 -0.483925 4.60665 0
M  V30 3275 C 326.982 -0.484891 5.71346 0
M  V30 3276 N 326.478 -0.440775 6.91396 0
M  V30 3277 N 328.271 -0.531319 5.59583 0
M  V30 3278 H 320.422 0.819949 1.95935 0
M  V30 3279 H 322.685 0.307493 0.896745 0
M  V30 3280 H 322.391 0.564956 3.47133 0
M  V30 3281 H 322.265 -1.18176 3.5821 0
M  V30 3282 H 324.652 -1.37752 2.60976 0
M  V30 3283 H 324.733 0.388167 2.52838 0
M  V30 3284 H 324.377 0.498638 5.05446 0
M  V30 3285 H 324.307 -1.2807 5.10789 0
M  V30 3286 H 326.798 -0.522338 3.74273 0
M  V30 3287 H 327.111 -0.44539 7.71515 0
M  V30 3288 H 325.456 -0.40749 6.93804 0
M  V30 3289 H 328.647 -0.563464 4.64696 0
M  V30 3290 H 328.82 -0.528603 6.4584 0
M  V30 3291 N 322.226 -1.5378 -0.344866 0
M  V30 3292 C 323.474 -1.70625 -1.08311 0
M  V30 3293 C 323.795 -0.471447 -1.89215 0
M  V30 3294 O 323.065 0.514616 -1.8902 0
M  V30 3295 H 321.645 -0.629058 -0.402859 0
M  V30 3296 H 324.307 -1.9103 -0.386459 0
M  V30 3297 H 323.403 -2.57656 -1.76124 0
M  V30 3298 N 323.704 0.605807 -1.45491 0
M  V30 3299 C 324.651 1.7164 -1.54299 0
M  V30 3300 C 325.621 1.61486 -0.388761 0
M  V30 3301 O 326.806 1.81039 -0.602445 0
M  V30 3302 C 323.946 3.09953 -1.51734 0
M  V30 3303 C 323.059 3.309 -2.77721 0
M  V30 3304 C 322.194 4.59329 -2.66816 0
M  V30 3305 C 321.233 4.7354 -3.87848 0
M  V30 3306 N 320.37 5.9327 -3.75467 0
M  V30 3307 H 325.21 1.63449 -2.49176 0
M  V30 3308 H 322.747 0.796957 -1.23641 0
M  V30 3309 H 324.705 3.89977 -1.48235 0
M  V30 3310 H 323.335 3.17098 -0.604068 0
M  V30 3311 H 322.387 2.44639 -2.913 0
M  V30 3312 H 323.699 3.37274 -3.67488 0
M  V30 3313 H 322.853 5.4755 -2.61292 0
M  V30 3314 H 321.592 4.55355 -1.74651 0
M  V30 3315 H 320.597 3.83741 -3.93729 0
M  V30 3316 H 321.822 4.79309 -4.81082 0
M  V30 3317 H 319.768 5.90338 -2.86072 0
M  V30 3318 H 319.685 6.00811 -4.5887 0
M  V30 3319 H 320.953 6.83984 -3.73879 0
M  V30 3320 N 325.182 1.32811 0.848464 0
M  V30 3321 C 326.112 1.24882 1.97299 0
M  V30 3322 C 327.093 0.131357 1.69592 0
M  V30 3323 O 328.278 0.319553 1.91553 0
M  V30 3324 C 325.408 0.97746 3.33261 0
M  V30 3325 C 324.362 2.05682 3.75338 0
M  V30 3326 C 323.688 1.63777 5.09 0
M  V30 3327 C 324.988 3.47254 3.90144 0
M  V30 3328 H 326.682 2.18966 2.04191 0
M  V30 3329 H 324.228 1.05413 0.981029 0
M  V30 3330 H 326.181 0.908513 4.1149 0
M  V30 3331 H 324.905 0.000980011 3.266 0
M  V30 3332 H 323.564 2.11603 2.99366 0
M  V30 3333 H 323.212 0.648569 4.98801 0
M  V30 3334 H 322.912 2.36 5.38124 0
M  V30 3335 H 324.436 1.5833 5.89715 0
M  V30 3336 H 325.85 3.43888 4.58709 0
M  V30 3337 H 324.247 4.1788 4.30693 0
M  V30 3338 H 325.317 3.86462 2.92874 0
M  V30 3339 N 326.66 -1.06551 1.16123 0
M  V30 3340 C 327.885 -1.83544 0.965735 0
M  V30 3341 C 328.31 -1.81843 -0.481102 0
M  V30 3342 O 327.668 -1.21732 -1.34354 0
M  V30 3343 C 327.716 -3.28169 1.49457 0
M  V30 3344 O 326.82 -4.0643 0.699157 0
M  V30 3345 H 326.161 -0.568026 0.343864 0
M  V30 3346 H 328.691 -1.34362 1.54299 0
M  V30 3347 H 328.701 -3.78992 1.51092 0
M  V30 3348 H 327.376 -3.28722 2.54784 0
M  V30 3349 H 325.953 -3.65216 0.7531 0
M  V30 3350 N 328.138 -0.959301 -1.25041 0
M  V30 3351 C 329.363 -0.633507 -1.97488 0
M  V30 3352 C 329.788 0.788555 -1.70773 0
M  V30 3353 O 329.146 1.53394 -0.966431 0
M  V30 3354 C 329.194 -0.904057 -3.49083 0
M  V30 3355 O 328.298 0.0147939 -4.12397 0
M  V30 3356 H 327.639 -0.240368 -0.618966 0
M  V30 3357 H 330.169 -1.28717 -1.59038 0
M  V30 3358 H 330.179 -0.832203 -3.99423 0
M  V30 3359 H 328.854 -1.94048 -3.67856 0
M  V30 3360 H 327.431 -0.109664 -3.72739 0
M  V30 3361 N 329.616 1.39756 -0.72842 0
M  V30 3362 C 330.563 2.30647 -0.0841519 0
M  V30 3363 C 331.533 1.48869 0.7367 0
M  V30 3364 O 332.718 1.77574 0.698015 0
M  V30 3365 C 329.858 3.35165 0.822091 0
M  V30 3366 C 328.971 4.31999 -0.0106663 0
M  V30 3367 C 328.106 5.23585 0.896241 0
M  V30 3368 C 327.145 6.12072 0.0583381 0
M  V30 3369 N 326.282 6.96035 0.920818 0
M  V30 3370 H 331.122 2.85173 -0.864891 0
M  V30 3371 H 328.659 1.40422 -0.438179 0
M  V30 3372 H 330.617 3.94345 1.36189 0
M  V30 3373 H 329.247 2.8211 1.56888 0
M  V30 3374 H 328.299 3.74492 -0.66781 0
M  V30 3375 H 329.611 4.9443 -0.658825 0
M  V30 3376 H 328.765 5.87759 1.50412 0
M  V30 3377 H 327.504 4.61459 1.57819 0
M  V30 3378 H 326.509 5.46916 -0.562389 0
M  V30 3379 H 327.734 6.76261 -0.6203 0
M  V30 3380 H 325.68 6.36485 1.58818 0
M  V30 3381 H 325.597 7.55284 0.32899 0
M  V30 3382 H 326.865 7.64646 1.51447 0
M  V30 3383 N 331.094 0.475555 1.50254 0
M  V30 3384 C 332.334 -0.0765802 2.04256 0
M  V30 3385 C 332.698 -1.36587 1.34937 0
M  V30 3386 O 333.899 -2.00066 1.79519 0
M  V30 3387 C 332.17 -0.251668 3.56513 0
M  V30 3388 S 333.729 -0.761716 4.32138 0
M  V30 3389 H 330.547 -0.0138456 0.710865 0
M  V30 3390 H 333.149 0.643714 1.84598 0
M  V30 3391 H 331.853 0.692404 4.04517 0
M  V30 3392 H 331.384 -0.997946 3.80532 0
M  V30 3393 H 333.399 -2.03451 4.52573 0
M  V30 3394 N 332.573 -1.56217 0.208337 0
M  V30 3395 C 333.798 -2.02782 -0.435222 0
M  V30 3396 C 334.223 -1.08738 -1.53485 0
M  V30 3397 O 333.581 -0.0731855 -1.81152 0
M  V30 3398 C 333.629 -3.47687 -0.956335 0
M  V30 3399 O 332.733 -3.56773 -2.06849 0
M  V30 3400 H 332.074 -0.656403 -0.100158 0
M  V30 3401 H 334.604 -2.02033 0.3231 0
M  V30 3402 H 334.614 -3.87745 -1.26955 0
M  V30 3403 H 333.289 -4.15624 -0.15143 0
M  V30 3404 H 331.866 -3.28597 -1.76292 0
M  V30 3405 N 334.051 0.0651679 -1.57465 0
M  V30 3406 C 335.297 0.764193 -1.87851 0
M  V30 3407 C 335.63 1.76889 -0.801495 0
M  V30 3408 O 334.905 1.93594 0.187528 0
M  V30 3409 C 335.188 1.46625 -3.28897 0
M  V30 3410 C 335.041 0.477515 -4.47258 0
M  V30 3411 C 336.36 2.4095 -3.68281 0
M  V30 3412 H 333.479 0.276351 -0.683227 0
M  V30 3413 H 336.121 0.0272868 -1.8998 0
M  V30 3414 H 334.271 2.09438 -3.27212 0
M  V30 3415 H 335.943 -0.145922 -4.61069 0
M  V30 3416 H 334.186 -0.206576 -4.33308 0
M  V30 3417 H 334.857 1.0065 -5.42746 0
M  V30 3418 H 337.333 1.88209 -3.71102 0
M  V30 3419 H 336.209 2.87072 -4.67847 0
M  V30 3420 H 336.47 3.26049 -2.98571 0
M  V30 3421 N 335.529 1.53961 0.336706 0
M  V30 3422 C 336.775 1.7179 1.07777 0
M  V30 3423 C 337.108 0.483263 1.88091 0
M  V30 3424 O 336.383 -0.519747 1.87427 0
M  V30 3425 C 336.666 2.98558 2.01334 0
M  V30 3426 C 336.519 4.32245 1.24437 0
M  V30 3427 C 337.838 3.21023 3.01052 0
M  V30 3428 H 334.957 0.625089 0.390426 0
M  V30 3429 H 337.599 1.86641 0.35567 0
M  V30 3430 H 335.749 2.86028 2.62908 0
M  V30 3431 H 337.421 4.56637 0.654243 0
M  V30 3432 H 335.664 4.30344 0.546458 0
M  V30 3433 H 336.335 5.17137 1.93063 0
M  V30 3434 H 338.811 3.32929 2.49595 0
M  V30 3435 H 337.687 4.11104 3.6371 0
M  V30 3436 H 337.948 2.37637 3.72802 0
M  V30 3437 N 337.007 -0.598083 1.45811 0
M  V30 3438 C 337.937 -1.71873 1.58057 0
M  V30 3439 C 338.918 -1.64533 0.431615 0
M  V30 3440 O 340.103 -1.82787 0.65595 0
M  V30 3441 C 337.233 -3.10495 1.55597 0
M  V30 3442 C 336.187 -3.32654 2.69305 0
M  V30 3443 C 335.513 -4.71646 2.51902 0
M  V30 3444 C 336.813 -3.21981 4.11248 0
M  V30 3445 H 338.507 -1.61881 2.51863 0
M  V30 3446 H 336.053 -0.777372 1.21214 0
M  V30 3447 H 338.006 -3.88699 1.6276 0
M  V30 3448 H 336.73 -3.2135 0.583255 0
M  V30 3449 H 335.389 -2.56843 2.61586 0
M  V30 3450 H 335.037 -4.79246 1.52748 0
M  V30 3451 H 334.737 -4.87426 3.2816 0
M  V30 3452 H 336.261 -5.52038 2.60933 0
M  V30 3453 H 337.675 -3.90049 4.20161 0
M  V30 3454 H 336.072 -3.49289 4.87972 0
M  V30 3455 H 337.142 -2.1928 4.32486 0
M  V30 3456 N 338.485 -1.33259 -0.841409 0
M  V30 3457 C 339.733 -1.24326 -1.59334 0
M  V30 3458 C 340.054 0.191564 -1.94057 0
M  V30 3459 O 339.324 1.11967 -1.60749 0
M  V30 3460 H 337.904 -0.457174 -0.590763 0
M  V30 3461 H 340.566 -1.66947 -1.00571 0
M  V30 3462 H 339.662 -1.8352 -2.52442 0
M  V30 3463 N 339.963 1.05934 -1.16686 0
M  V30 3464 C 341.374 1.60263 -0.957745 0
M  V30 3465 C 341.725 1.89789 0.49745 0
M  V30 3466 O 340.85 1.67401 1.37135 0
M  V30 3467 C 341.445 2.91172 -1.73218 0
M  V30 3468 C 340.004 3.42188 -1.56794 0
M  V30 3469 C 339.151 2.16028 -1.73859 0
M  V30 3470 H 342.102 0.888392 -1.31504 0
M  V30 3471 H 342.123 3.60744 -1.21014 0
M  V30 3472 H 341.635 2.6965 -2.79124 0
M  V30 3473 H 339.736 3.68762 -0.533437 0
M  V30 3474 H 339.849 4.17273 -2.35414 0
M  V30 3475 H 338.213 2.26426 -1.16633 0
M  V30 3476 H 338.996 1.96985 -2.81161 0
M  V30 3477 N 341.441 0.965919 1.2453 0
M  V30 3478 C 342.388 0.49402 2.25451 0
M  V30 3479 C 343.358 -0.45948 1.59618 0
M  V30 3480 O 344.543 -0.370238 1.87173 0
M  V30 3481 C 341.683 -0.211359 3.44452 0
M  V30 3482 C 340.796 0.7807 4.24887 0
M  V30 3483 C 339.931 0.0516105 5.31175 0
M  V30 3484 C 338.97 1.03385 6.03306 0
M  V30 3485 N 338.107 0.334887 7.01301 0
M  V30 3486 H 342.947 1.35946 2.65184 0
M  V30 3487 H 340.484 0.681515 1.3036 0
M  V30 3488 H 342.442 -0.637 4.12308 0
M  V30 3489 H 341.072 -1.04077 3.05562 0
M  V30 3490 H 340.124 1.32479 3.56586 0
M  V30 3491 H 341.436 1.52978 4.74762 0
M  V30 3492 H 340.59 -0.432114 6.05159 0
M  V30 3493 H 339.329 -0.730179 4.82203 0
M  V30 3494 H 338.334 1.52847 5.28127 0
M  V30 3495 H 339.559 1.81606 6.54367 0
M  V30 3496 H 337.505 -0.427959 6.54603 0
M  V30 3497 H 337.422 1.02287 7.49048 0
M  V30 3498 H 338.69 -0.126928 7.79397 0
M  V30 3499 N 342.919 -1.39368 0.735821 0
M  V30 3500 C 344.165 -2.01272 0.293439 0
M  V30 3501 C 344.52 -1.57344 -1.10728 0
M  V30 3502 O 343.813 -0.792744 -1.74431 0
M  V30 3503 C 344.007 -3.5583 0.334651 0
M  V30 3504 C 343.836 -4.14764 1.73784 0
M  V30 3505 C 342.606 -4.47315 2.35026 0
M  V30 3506 C 344.804 -4.38246 2.69157 0
M  V30 3507 N 342.786 -4.91756 3.6749 0
M  V30 3508 C 344.157 -4.849 3.86357 0
M  V30 3509 C 346.212 -4.20315 2.66908 0
M  V30 3510 C 344.915 -5.15505 5.01645 0
M  V30 3511 C 346.941 -4.52033 3.8134 0
M  V30 3512 C 346.303 -4.98895 4.97276 0
M  V30 3513 H 342.402 -0.766756 0.153652 0
M  V30 3514 H 344.986 -1.69276 0.961967 0
M  V30 3515 H 343.157 -3.87212 -0.303527 0
M  V30 3516 H 344.889 -4.04503 -0.126358 0
M  V30 3517 H 341.644 -4.35143 1.86943 0
M  V30 3518 H 342.068 -5.18333 4.35499 0
M  V30 3519 H 346.71 -3.83287 1.78468 0
M  V30 3520 H 344.428 -5.51437 5.90713 0
M  V30 3521 H 348.014 -4.39781 3.80899 0
M  V30 3522 H 346.894 -5.22973 5.84353 0
M  V30 3523 N 344.397 -0.483516 -1.5 0
M  V30 3524 C 345.808 -0.0314176 -1.86674 0
M  V30 3525 C 346.159 1.37728 -1.39733 0
M  V30 3526 O 345.284 2.02327 -0.767635 0
M  V30 3527 C 345.879 -0.0502376 -3.38763 0
M  V30 3528 C 344.438 0.346442 -3.74802 0
M  V30 3529 C 343.585 -0.430366 -2.7394 0
M  V30 3530 H 346.536 -0.697182 -1.42566 0
M  V30 3531 H 346.557 0.749116 -3.73053 0
M  V30 3532 H 346.069 -1.07563 -3.72897 0
M  V30 3533 H 344.17 1.37572 -3.46273 0
M  V30 3534 H 344.283 0.0391486 -4.79084 0
M  V30 3535 H 342.647 0.117557 -2.54429 0
M  V30 3536 H 343.43 -1.4555 -3.10918 0
M  V30 3537 N 345.875 1.56104 -0.216619 0
M  V30 3538 C 347.1 2.0301 0.424462 0
M  V30 3539 C 347.525 1.0955 1.52907 0
M  V30 3540 O 346.883 0.0827914 1.81111 0
M  V30 3541 C 346.931 3.4819 0.937883 0
M  V30 3542 O 346.035 3.57865 2.04955 0
M  V30 3543 H 345.376 0.656925 0.0966755 0
M  V30 3544 H 347.906 2.01859 -0.33381 0
M  V30 3545 H 347.916 3.88413 1.24897 0
M  V30 3546 H 346.591 4.15699 0.129387 0
M  V30 3547 H 345.168 3.29527 1.74546 0
M  V30 3548 N 347.353 -0.0568162 1.57498 0
M  V30 3549 C 348.303 -1.07315 2.01166 0
M  V30 3550 C 349.287 -1.33632 0.896171 0
M  V30 3551 O 350.479 -1.33682 1.16009 0
M  V30 3552 C 347.608 -2.38257 2.47161 0
M  V30 3553 C 346.694 -2.1515 3.65474 0
M  V30 3554 N 347.085 -1.62014 4.7915 0
M  V30 3555 C 345.383 -2.45559 3.72313 0
M  V30 3556 C 346.084 -1.54069 5.60926 0
M  V30 3557 N 345.06 -2.00652 5.05213 0
M  V30 3558 H 348.862 -0.655878 2.86488 0
M  V30 3559 H 346.376 -0.263635 1.60246 0
M  V30 3560 H 348.373 -3.11845 2.76691 0
M  V30 3561 H 347.033 -2.80687 1.63232 0
M  V30 3562 H 348.044 -1.30667 5.01145 0
M  V30 3563 H 344.721 -2.91253 2.99129 0
M  V30 3564 H 346.111 -1.13712 6.62208 0
M  V30 3565 N 348.832 -1.54138 -0.328536 0
M  V30 3566 C 350.062 -1.75807 -1.08516 0
M  V30 3567 C 350.47 -0.50428 -1.82356 0
M  V30 3568 O 349.813 0.534451 -1.75754 0
M  V30 3569 C 349.875 -2.89423 -2.13248 0
M  V30 3570 C 349.539 -4.28504 -1.5885 0
M  V30 3571 C 350.536 -5.09536 -1.03289 0
M  V30 3572 C 348.221 -4.75034 -1.63243 0
M  V30 3573 C 350.215 -6.35206 -0.52845 0
M  V30 3574 C 347.902 -6.00672 -1.12411 0
M  V30 3575 C 348.9 -6.80592 -0.573062 0
M  V30 3576 O 348.588 -8.03867 -0.0723692 0
M  V30 3577 H 348.32 -0.590633 -0.328829 0
M  V30 3578 H 350.874 -2.01819 -0.381868 0
M  V30 3579 H 349.104 -2.5897 -2.87178 0
M  V30 3580 H 350.793 -2.98921 -2.74592 0
M  V30 3581 H 351.559 -4.74745 -0.99206 0
M  V30 3582 H 347.438 -4.12875 -2.05074 0
M  V30 3583 H 350.982 -6.97532 -0.0976774 0
M  V30 3584 H 346.879 -6.34955 -1.162 0
M  V30 3585 H 347.647 -8.18283 -0.188258 0
M  V30 3586 N 350.31 0.590341 -1.46126 0
M  V30 3587 C 351.24 1.71032 -1.58966 0
M  V30 3588 C 352.221 1.64302 -0.440335 0
M  V30 3589 O 353.406 1.82436 -0.665634 0
M  V30 3590 C 350.536 3.09665 -1.57241 0
M  V30 3591 C 349.49 3.31221 -2.71066 0
M  V30 3592 C 348.816 4.70303 -2.54399 0
M  V30 3593 C 350.116 3.19796 -4.1295 0
M  V30 3594 H 351.81 1.60543 -2.52718 0
M  V30 3595 H 349.356 0.770933 -1.21625 0
M  V30 3596 H 351.309 3.87831 -1.64819 0
M  V30 3597 H 350.033 3.21036 -0.600289 0
M  V30 3598 H 348.692 2.55452 -2.62944 0
M  V30 3599 H 348.34 4.78429 -1.55288 0
M  V30 3600 H 348.04 4.85679 -3.30741 0
M  V30 3601 H 349.564 5.50647 -2.63857 0
M  V30 3602 H 350.978 3.87815 -4.22223 0
M  V30 3603 H 349.375 3.46696 -4.89818 0
M  V30 3604 H 350.445 2.16983 -4.33643 0
M  V30 3605 N 351.788 1.33704 0.83433 0
M  V30 3606 C 352.721 1.18675 1.94914 0
M  V30 3607 C 353.699 0.0811145 1.62398 0
M  V30 3608 O 354.883 0.244186 1.86912 0
M  V30 3609 C 352.01 0.821231 3.28593 0
M  V30 3610 C 351.056 1.93501 3.80079 0
M  V30 3611 S 351.889 3.54671 4.01209 0
M  V30 3612 C 353.045 3.20136 5.37833 0
M  V30 3613 H 353.278 2.13043 2.07364 0
M  V30 3614 H 350.811 1.18598 0.988624 0
M  V30 3615 H 352.769 0.617123 4.05835 0
M  V30 3616 H 351.43 -0.103927 3.13928 0
M  V30 3617 H 350.623 1.63273 4.76821 0
M  V30 3618 H 350.225 2.09601 3.09747 0
M  V30 3619 H 352.517 2.71242 6.20833 0
M  V30 3620 H 353.46 4.15975 5.73036 0
M  V30 3621 H 353.868 2.56613 5.02802 0
M  V30 3622 N 353.266 -1.05314 1.17247 0
M  V30 3623 C 354.512 -1.78557 0.961513 0
M  V30 3624 C 354.845 -1.87419 -0.508697 0
M  V30 3625 O 354.12 -1.37307 -1.37757 0
M  V30 3626 C 354.403 -3.22514 1.60176 0
M  V30 3627 C 354.256 -3.21673 3.14399 0
M  V30 3628 C 355.575 -4.20318 1.30463 0
M  V30 3629 H 352.694 -0.6482 0.350723 0
M  V30 3630 H 355.336 -1.23102 1.44727 0
M  V30 3631 H 353.486 -3.69867 1.18871 0
M  V30 3632 H 355.158 -2.82405 3.64753 0
M  V30 3633 H 353.401 -2.60048 3.47214 0
M  V30 3634 H 354.072 -4.23271 3.54324 0
M  V30 3635 H 356.548 -3.81454 1.66229 0
M  V30 3636 H 355.424 -5.19289 1.77848 0
M  V30 3637 H 355.685 -4.41526 0.22521 0
M  V30 3638 N 354.744 -0.972509 -1.24016 0
M  V30 3639 C 356.155 -0.67517 -1.74064 0
M  V30 3640 C 356.506 0.808939 -1.78747 0
M  V30 3641 O 355.631 1.63286 -1.42009 0
M  V30 3642 C 356.226 -1.21889 -3.16115 0
M  V30 3643 C 354.785 -0.971358 -3.6365 0
M  V30 3644 C 353.932 -1.35134 -2.42145 0
M  V30 3645 H 356.883 -1.14727 -1.09651 0
M  V30 3646 H 356.904 -0.587489 -3.75937 0
M  V30 3647 H 356.416 -2.29906 -3.12674 0
M  V30 3648 H 354.517 0.0930686 -3.72484 0
M  V30 3649 H 354.63 -1.62039 -4.50866 0
M  V30 3650 H 352.994 -0.769751 -2.4279 0
M  V30 3651 H 353.777 -2.4411 -2.41381 0
M  V30 3652 N 356.222 1.38976 -0.743202 0
M  V30 3653 C 357.47 1.99948 -0.29417 0
M  V30 3654 C 357.791 1.59279 1.12495 0
M  V30 3655 O 357.061 0.844808 1.76748 0
M  V30 3656 H 355.641 0.739473 -0.105774 0
M  V30 3657 H 358.303 1.699 -0.954986 0
M  V30 3658 H 357.399 3.10142 -0.349056 0
M  V30 3659 N 357.7 0.491464 1.49741 0
M  V30 3660 C 358.948 -0.0563141 2.02022 0
M  V30 3661 C 359.269 -1.38363 1.37407 0
M  V30 3662 O 358.539 -1.88702 0.526166 0
M  V30 3663 H 357.119 -0.0238014 0.746621 0
M  V30 3664 H 359.781 0.646533 1.83864 0
M  V30 3665 H 358.877 -0.192967 3.11503 0
M  V30 3666 N 359.178 -1.55987 0.224894 0
M  V30 3667 C 360.125 -2.20436 -0.68385 0
M  V30 3668 C 361.095 -1.16102 -1.18783 0
M  V30 3669 O 362.28 -1.4447 -1.24632 0
M  V30 3670 C 359.42 -2.89076 -1.88491 0
M  V30 3671 C 358.533 -4.08012 -1.41951 0
M  V30 3672 C 357.668 -4.64426 -2.5784 0
M  V30 3673 C 356.707 -5.75656 -2.08053 0
M  V30 3674 N 355.844 -6.26347 -3.17227 0
M  V30 3675 H 360.684 -2.97727 -0.12754 0
M  V30 3676 H 358.221 -1.47011 -0.0511978 0
M  V30 3677 H 360.179 -3.27059 -2.59014 0
M  V30 3678 H 358.809 -2.14298 -2.41405 0
M  V30 3679 H 357.861 -3.75492 -0.609095 0
M  V30 3680 H 359.173 -4.88375 -1.01447 0
M  V30 3681 H 358.327 -5.04869 -3.3644 0
M  V30 3682 H 357.066 -3.83233 -3.01635 0
M  V30 3683 H 356.071 -5.34712 -1.27916 0
M  V30 3684 H 357.296 -6.58686 -1.65255 0
M  V30 3685 H 355.242 -5.48067 -3.60497 0
M  V30 3686 H 355.159 -7.01843 -2.80986 0
M  V30 3687 H 356.427 -6.71447 -3.95953 0
M  V30 3688 N 360.656 0.0484629 -1.57525 0
M  V30 3689 C 361.606 1.06246 -2.01732 0
M  V30 3690 C 362.59 1.33155 -0.903245 0
M  V30 3691 O 363.782 1.33065 -1.16717 0
M  V30 3692 C 360.911 2.36943 -2.48421 0
M  V30 3693 C 359.997 2.13208 -3.6661 0
M  V30 3694 N 360.388 1.5947 -4.80003 0
M  V30 3695 C 358.686 2.43581 -3.7361 0
M  V30 3696 C 359.387 1.51092 -5.61735 0
M  V30 3697 N 358.363 1.9797 -5.0627 0
M  V30 3698 H 362.165 0.640675 -2.86832 0
M  V30 3699 H 359.679 0.255134 -1.60383 0
M  V30 3700 H 361.676 3.10374 -2.78341 0
M  V30 3701 H 360.336 2.79818 -1.64718 0
M  V30 3702 H 361.347 1.28008 -5.01831 0
M  V30 3703 H 358.024 2.89662 -3.00669 0
M  V30 3704 H 359.414 1.10199 -6.62801 0
M  V30 3705 N 362.134 1.5431 0.320358 0
M  V30 3706 C 363.082 1.84647 1.4145 0
M  V30 3707 C 364.076 0.718624 1.53402 0
M  V30 3708 O 365.282 0.902335 1.5575 0
M  V30 3709 H 361.657 0.585349 0.472091 0
M  V30 3710 H 363.628 2.7614 1.13089 0
M  V30 3711 C 362.377 2.09341 2.77617 0
M  V30 3712 H 361.7 2.9559 2.69196 0
M  V30 3713 H 363.14 2.3452 3.53237 0
M  V30 3714 C 361.599 0.885939 3.25043 0
M  V30 3715 O 362.129 0.0967891 4.01583 0
M  V30 3716 N 360.335 0.696682 2.82125 0
M  V30 3717 H 359.882 1.34006 2.2 0
M  V30 3718 H 359.84 -0.109712 3.14209 0
M  V30 3719 N 363.613 -0.582584 1.46437 0
M  V30 3720 C 364.546 -1.70633 1.51524 0
M  V30 3721 C 365.524 -1.58349 0.369351 0
M  V30 3722 O 366.708 -1.79563 0.573516 0
M  V30 3723 C 363.835 -3.08687 1.39392 0
M  V30 3724 C 362.881 -3.3949 2.58164 0
M  V30 3725 S 363.714 -3.31548 4.20519 0
M  V30 3726 C 364.87 -4.72139 4.10896 0
M  V30 3727 H 365.103 -1.66058 2.46601 0
M  V30 3728 H 362.636 -0.761337 1.34324 0
M  V30 3729 H 364.594 -3.8833 1.33079 0
M  V30 3730 H 363.255 -3.10751 0.457436 0
M  V30 3731 H 362.448 -4.40071 2.45669 0
M  V30 3732 H 362.05 -2.67415 2.61468 0
M  V30 3733 H 364.342 -5.62527 3.77584 0
M  V30 3734 H 365.285 -4.89692 5.11476 0
M  V30 3735 H 365.693 -4.48995 3.42146 0
M  V30 3736 N 365.091 -1.34144 -0.827227 0
M  V30 3737 C 366.368 -1.16844 -1.56865 0
M  V30 3738 C 366.748 0.260654 -2.09485 0
M  V30 3739 O 366.096 1.26138 -1.9053 0
M  V30 3740 C 366.306 -2.21939 -2.6934 0
M  V30 3741 C 367.654 -2.56695 -3.3822 0
M  V30 3742 O 368.678 -2.20695 -2.79593 0
M  V30 3743 O 367.537 -3.18518 -4.44082 0
M  V30 3744 H 364.631 -0.452669 -0.692112 0
M  V30 3745 H 367.177 -1.45763 -0.868973 0
M  V30 3746 H 365.949 -3.17882 -2.28182 0
M  V30 3747 H 365.572 -1.94172 -3.46962 0
M  V30 3748 N 366.569 1.04691 -1.17803 0
M  V30 3749 C 367.816 1.77782 -0.969532 0
M  V30 3750 C 368.144 1.87926 0.501401 0
M  V30 3751 O 367.399 1.37918 1.38842 0
M  V30 3752 C 367.698 3.21467 -1.56186 0
M  V30 3753 C 367.364 3.3137 -3.05786 0
M  V30 3754 C 366.026 3.3378 -3.46619 0
M  V30 3755 C 368.378 3.31976 -4.01797 0
M  V30 3756 C 365.706 3.34431 -4.82051 0
M  V30 3757 C 368.058 3.34167 -5.37136 0
M  V30 3758 C 366.722 3.34866 -5.77426 0
M  V30 3759 H 365.992 0.650549 -0.354777 0
M  V30 3760 H 368.639 1.23006 -1.46772 0
M  V30 3761 H 366.944 3.79203 -0.985515 0
M  V30 3762 H 368.641 3.76652 -1.37602 0
M  V30 3763 H 365.231 3.3021 -2.73238 0
M  V30 3764 H 369.415 3.29311 -3.71306 0
M  V30 3765 H 364.671 3.33285 -5.12573 0
M  V30 3766 H 368.845 3.33585 -6.11305 0
M  V30 3767 H 366.472 3.35124 -6.82346 0
M  V30 3768 N 368.047 0.979072 1.23499 0
M  V30 3769 C 369.277 0.664237 1.95631 0
M  V30 3770 C 369.685 -0.772653 1.72704 0
M  V30 3771 O 369.028 -1.53141 1.01457 0
M  V30 3772 C 369.09 0.873115 3.48736 0
M  V30 3773 C 368.754 2.29182 3.95379 0
M  V30 3774 C 369.751 3.2704 4.04155 0
M  V30 3775 C 367.436 2.62256 4.28401 0
M  V30 3776 C 369.43 4.56052 4.45304 0
M  V30 3777 C 367.117 3.91491 4.69231 0
M  V30 3778 C 368.115 4.88201 4.77649 0
M  V30 3779 O 367.803 6.15129 5.17563 0
M  V30 3780 H 367.535 0.245915 0.629684 0
M  V30 3781 H 370.089 1.3127 1.57979 0
M  V30 3782 H 368.319 0.167476 3.86337 0
M  V30 3783 H 370.008 0.555642 4.02079 0
M  V30 3784 H 370.774 3.02819 3.78848 0
M  V30 3785 H 366.653 1.87692 4.21061 0
M  V30 3786 H 370.197 5.31538 4.51789 0
M  V30 3787 H 366.094 4.15508 4.93987 0
M  V30 3788 H 366.862 6.18862 5.35679 0
M  V30 3789 N 369.525 -1.3858 0.750561 0
M  V30 3790 C 370.771 -2.00481 0.305825 0
M  V30 3791 C 371.104 -1.5944 -1.10872 0
M  V30 3792 O 370.379 -0.83052 -1.75877 0
M  V30 3793 C 370.662 -3.5758 0.425287 0
M  V30 3794 C 370.515 -4.08594 1.88072 0
M  V30 3795 C 371.834 -4.39719 -0.183122 0
M  V30 3796 H 368.953 -0.728348 0.112598 0
M  V30 3797 H 371.595 -1.64566 0.949638 0
M  V30 3798 H 369.745 -3.88306 -0.122828 0
M  V30 3799 H 371.417 -3.88523 2.48691 0
M  V30 3800 H 369.66 -3.61574 2.39681 0
M  V30 3801 H 370.331 -5.177 1.91548 0
M  V30 3802 H 372.807 -4.15128 0.284303 0
M  V30 3803 H 371.683 -5.48856 -0.0692757 0
M  V30 3804 H 371.944 -4.23434 -1.27106 0
M  V30 3805 N 371.003 -0.499398 -1.49478 0
M  V30 3806 C 371.913 0.284489 -2.32869 0
M  V30 3807 C 372.929 0.968885 -1.44529 0
M  V30 3808 O 374.105 0.95062 -1.77553 0
M  V30 3809 C 371.17 1.33594 -3.19928 0
M  V30 3810 C 370.231 0.665149 -4.24116 0
M  V30 3811 C 369.464 1.6665 -5.07014 0
M  V30 3812 O 369.687 2.89618 -4.91404 0
M  V30 3813 O 368.621 1.22271 -5.8935 0
M  V30 3814 H 372.447 -0.39802 -3.01081 0
M  V30 3815 H 370.032 -0.260758 -1.47107 0
M  V30 3816 H 371.914 1.94431 -3.73864 0
M  V30 3817 H 370.589 2.0014 -2.54412 0
M  V30 3818 H 369.496 0.0170769 -3.74096 0
M  V30 3819 H 370.829 0.0421555 -4.92182 0
M  V30 3820 N 372.481 1.55866 -0.233164 0
M  V30 3821 C 373.444 2.1953 0.658715 0
M  V30 3822 C 374.444 1.16053 1.11303 0
M  V30 3823 O 375.634 1.41218 1.01996 0
M  V30 3824 C 372.766 2.82791 1.90373 0
M  V30 3825 H 373.959 2.99721 0.10347 0
M  V30 3826 H 371.512 1.56291 0.0164245 0
M  V30 3827 H 372.247 2.06501 2.50056 0
M  V30 3828 H 372.032 3.58578 1.58632 0
M  V30 3829 H 373.522 3.31556 2.53891 0
M  V30 3830 N 373.959 -0.0401083 1.57549 0
M  V30 3831 C 374.889 -1.04384 2.08869 0
M  V30 3832 C 375.87 -1.38407 0.988817 0
M  V30 3833 O 377.055 -1.47483 1.26342 0
M  V30 3834 C 374.185 -2.34808 2.55895 0
M  V30 3835 C 373.139 -2.15057 3.70047 0
M  V30 3836 C 372.465 -3.51145 4.03239 0
M  V30 3837 C 373.765 -1.54576 4.98902 0
M  V30 3838 H 375.459 -0.616666 2.92981 0
M  V30 3839 H 373.005 -0.295184 1.40942 0
M  V30 3840 H 374.958 -3.05346 2.90417 0
M  V30 3841 H 373.682 -2.79565 1.68853 0
M  V30 3842 H 372.341 -1.46954 3.35857 0
M  V30 3843 H 371.989 -3.93529 3.13279 0
M  V30 3844 H 371.689 -3.38758 4.80122 0
M  V30 3845 H 373.213 -4.23062 4.40285 0
M  V30 3846 H 374.627 -2.15017 5.31451 0
M  V30 3847 H 373.024 -1.52796 5.80322 0
M  V30 3848 H 374.094 -0.51039 4.82206 0
M  V30 3849 N 375.437 -1.54477 -0.31217 0
M  V30 3850 C 376.4 -1.83923 -1.36766 0
M  V30 3851 C 377.4 -0.711563 -1.44199 0
M  V30 3852 O 378.59 -0.979866 -1.44029 0
M  V30 3853 C 375.722 -2.0095 -2.75376 0
M  V30 3854 H 376.915 -2.78239 -1.11906 0
M  V30 3855 H 374.468 -1.46369 -0.548257 0
M  V30 3856 H 375.203 -1.08883 -3.05475 0
M  V30 3857 H 374.988 -2.83018 -2.71373 0
M  V30 3858 H 376.478 -2.2514 -3.51713 0
M  V30 3859 N 376.915 0.57481 -1.46744 0
M  V30 3860 C 378.162 1.33272 -1.52462 0
M  V30 3861 C 378.49 1.93669 -0.179572 0
M  V30 3862 O 377.745 1.7743 0.825664 0
M  V30 3863 C 378.044 2.476 -2.57738 0
M  V30 3864 C 377.71 2.05146 -4.01529 0
M  V30 3865 C 376.372 1.93284 -4.40676 0
M  V30 3866 C 378.724 1.72506 -4.91824 0
M  V30 3867 C 376.052 1.47049 -5.67973 0
M  V30 3868 C 378.404 1.27748 -6.19567 0
M  V30 3869 C 377.068 1.14468 -6.57612 0
M  V30 3870 H 376.338 0.487678 -0.557899 0
M  V30 3871 H 378.985 0.646456 -1.80259 0
M  V30 3872 H 377.29 3.21708 -2.23632 0
M  V30 3873 H 378.987 3.05807 -2.5939 0
M  V30 3874 H 375.577 2.15316 -3.7059 0
M  V30 3875 H 379.761 1.80552 -4.62293 0
M  V30 3876 H 375.017 1.35417 -5.96215 0
M  V30 3877 H 379.191 1.01547 -6.88957 0
M  V30 3878 H 376.818 0.78419 -7.56145 0
M  V30 3879 N 378.394 1.34581 0.820102 0
M  V30 3880 C 379.805 1.24298 1.39309 0
M  V30 3881 C 380.156 -0.130351 1.95767 0
M  V30 3882 O 379.281 -1.0308 1.90272 0
M  V30 3883 C 379.876 2.25054 2.53251 0
M  V30 3884 C 378.435 2.18552 3.0645 0
M  V30 3885 C 377.582 2.11503 1.79337 0
M  V30 3886 H 380.533 1.45906 0.624262 0
M  V30 3887 H 380.554 1.86917 3.31425 0
M  V30 3888 H 380.066 3.24996 2.1213 0
M  V30 3889 H 378.167 1.21976 3.52069 0
M  V30 3890 H 378.28 3.0993 3.65349 0
M  V30 3891 H 376.644 1.57268 2.00347 0
M  V30 3892 H 377.427 3.13284 1.40386 0
M  V30 3893 N 379.872 -1.04064 1.18357 0
M  V30 3894 C 381.149 -1.74252 0.888581 0
M  V30 3895 C 381.529 -2.02138 -0.60856 0
M  V30 3896 O 380.877 -1.66656 -1.56327 0
M  V30 3897 C 381.087 -3.0277 1.73584 0
M  V30 3898 C 382.435 -3.76506 1.96286 0
M  V30 3899 O 383.459 -3.12668 1.70637 0
M  V30 3900 O 382.318 -4.91243 2.39464 0
M  V30 3901 H 379.412 -0.758271 0.330082 0
M  V30 3902 H 381.958 -1.1013 1.2911 0
M  V30 3903 H 380.73 -2.78299 2.75073 0
M  V30 3904 H 380.353 -3.74631 1.33183 0
M  V30 3905 N 381.35 -0.985608 -1.22978 0
M  V30 3906 C 382.578 -0.675582 -1.95559 0
M  V30 3907 C 382.993 0.758413 -1.72897 0
M  V30 3908 O 382.35 1.51094 -1.02357 0
M  V30 3909 C 382.401 -0.96293 -3.48439 0
M  V30 3910 O 382.122 -2.34057 -3.70336 0
M  V30 3911 C 383.623 -0.669585 -4.38214 0
M  V30 3912 H 380.843 -0.250523 -0.622478 0
M  V30 3913 H 383.387 -1.3184 -1.56328 0
M  V30 3914 H 381.542 -0.366033 -3.85667 0
M  V30 3915 H 381.956 -2.43424 -4.64591 0
M  V30 3916 H 383.43 -0.920967 -5.44263 0
M  V30 3917 H 383.907 0.396383 -4.37408 0
M  V30 3918 H 384.513 -1.2472 -4.06602 0
M  V30 3919 N 382.828 1.3818 -0.7579 0
M  V30 3920 C 384.105 1.94106 -0.241306 0
M  V30 3921 C 384.485 1.69282 1.26122 0
M  V30 3922 O 383.833 1.03378 2.03777 0
M  V30 3923 C 384.043 3.43809 -0.59967 0
M  V30 3924 C 385.391 4.20868 -0.561717 0
M  V30 3925 O 386.415 3.5211 -0.538222 0
M  V30 3926 O 385.274 5.43451 -0.576478 0
M  V30 3927 H 382.368 0.825376 -0.0518042 0
M  V30 3928 H 384.914 1.47548 -0.838315 0
M  V30 3929 H 383.686 3.55403 -1.6372 0
M  V30 3930 H 383.309 3.97592 0.0251197 0
M  V30 3931 N 384.306 0.507319 1.49211 0
M  V30 3932 C 385.553 -0.0349529 2.0247 0
M  V30 3933 C 385.881 -1.36409 1.38647 0
M  V30 3934 O 385.136 -1.88841 0.513566 0
M  V30 3935 C 385.435 -0.229513 3.56662 0
M  V30 3936 C 385.101 1.02241 4.39156 0
M  V30 3937 C 383.763 1.36557 4.61417 0
M  V30 3938 C 386.115 1.85428 4.871 0
M  V30 3939 C 383.443 2.53999 5.28868 0
M  V30 3940 C 385.795 3.02028 5.55843 0
M  V30 3941 C 384.459 3.36717 5.76349 0
M  V30 3942 H 383.729 -0.0127902 0.74089 0
M  V30 3943 H 386.376 0.668756 1.79443 0
M  V30 3944 H 384.681 -1.0158 3.78403 0
M  V30 3945 H 386.378 -0.663641 3.9547 0
M  V30 3946 H 382.968 0.745124 4.22073 0
M  V30 3947 H 387.152 1.6023 4.69723 0
M  V30 3948 H 382.408 2.81105 5.42946 0
M  V30 3949 H 386.582 3.66808 5.91967 0
M  V30 3950 H 384.209 4.27821 6.28389 0
M  V30 3951 N 385.784 -1.5574 0.241426 0
M  V30 3952 C 387.195 -1.84842 -0.262755 0
M  V30 3953 C 387.546 -1.16317 -1.58003 0
M  V30 3954 O 386.671 -0.439653 -2.11887 0
M  V30 3955 C 387.266 -3.35332 -0.483523 0
M  V30 3956 C 385.825 -3.6468 -0.931977 0
M  V30 3957 C 384.972 -2.77299 -0.0061151 0
M  V30 3958 H 387.923 -1.51761 0.464129 0
M  V30 3959 H 387.944 -3.56615 -1.32688 0
M  V30 3960 H 387.456 -3.85178 0.47537 0
M  V30 3961 H 385.557 -3.20307 -1.90353 0
M  V30 3962 H 385.67 -4.72498 -0.792628 0
M  V30 3963 H 384.034 -2.49408 -0.516503 0
M  V30 3964 H 384.817 -3.2995 0.948052 0
M  V30 3965 N 387.262 0.0317525 -1.57568 0
M  V30 3966 C 388.51 0.721676 -1.88776 0
M  V30 3967 C 388.831 1.76039 -0.838772 0
M  V30 3968 O 388.101 1.95482 0.127935 0
M  V30 3969 H 386.681 0.269534 -0.696678 0
M  V30 3970 H 389.343 -0.00165879 -1.949 0
M  V30 3971 H 388.439 1.21293 -2.87566 0
M  V30 3972 N 388.74 1.54641 0.303973 0
M  V30 3973 C 389.67 1.88386 1.3796 0
M  V30 3974 C 390.651 0.742485 1.5304 0
M  V30 3975 O 391.836 0.997959 1.66597 0
M  V30 3976 C 388.966 2.12854 2.74427 0
M  V30 3977 C 387.92 3.28702 2.74115 0
M  V30 3978 C 387.246 3.38582 4.13844 0
M  V30 3979 C 388.546 4.65881 2.3612 0
M  V30 3980 H 390.24 2.78474 1.09966 0
M  V30 3981 H 387.786 1.33988 0.527556 0
M  V30 3982 H 389.739 2.35047 3.49758 0
M  V30 3983 H 388.463 1.19535 3.03939 0
M  V30 3984 H 387.122 3.06428 2.0124 0
M  V30 3985 H 386.77 2.42784 4.40528 0
M  V30 3986 H 386.47 4.16453 4.14537 0
M  V30 3987 H 387.994 3.63031 4.90959 0
M  V30 3988 H 389.408 4.87823 3.01167 0
M  V30 3989 H 387.805 5.46444 2.48031 0
M  V30 3990 H 388.875 4.66799 1.3125 0
M  V30 3991 N 390.218 -0.567019 1.47046 0
M  V30 3992 C 391.467 -1.32091 1.5243 0
M  V30 3993 C 391.78 -1.94704 0.187021 0
M  V30 3994 O 392.986 -2.7124 0.118771 0
M  V30 3995 C 391.442 -2.39479 2.68659 0
M  V30 3996 C 391.05 -1.831 4.08874 0
M  V30 3997 C 392.794 -3.16111 2.83327 0
M  V30 3998 C 390.701 -2.8821 5.16419 0
M  V30 3999 H 389.631 -0.496629 0.56734 0
M  V30 4000 H 392.282 -0.603354 1.73297 0
M  V30 4001 H 390.664 -3.14105 2.41152 0
M  V30 4002 H 391.838 -1.14913 4.46242 0
M  V30 4003 H 390.153 -1.19085 3.99008 0
M  V30 4004 H 392.75 -3.94585 3.60842 0
M  V30 4005 H 393.093 -3.69686 1.91411 0
M  V30 4006 H 393.626 -2.48595 3.10556 0
M  V30 4007 H 390.365 -2.39504 6.10179 0
M  V30 4008 H 389.885 -3.54839 4.8358 0
M  V30 4009 H 391.564 -3.51881 5.42945 0
M  V30 4010 N 391.696 -1.35014 -0.812953 0
M  V30 4011 C 392.924 -1.31031 -1.6012 0
M  V30 4012 C 393.339 0.113558 -1.88458 0
M  V30 4013 O 392.696 1.06363 -1.48301 0
M  V30 4014 C 392.747 -2.10872 -2.93624 0
M  V30 4015 O 392.468 -3.47706 -2.66518 0
M  V30 4016 C 393.969 -2.14401 -3.88004 0
M  V30 4017 H 391.189 -0.45037 -0.497401 0
M  V30 4018 H 393.733 -1.77775 -1.01076 0
M  V30 4019 H 391.888 -1.67744 -3.492 0
M  V30 4020 H 392.302 -3.89097 -3.51715 0
M  V30 4021 H 393.776 -2.74669 -4.78812 0
M  V30 4022 H 394.253 -1.14105 -4.24119 0
M  V30 4023 H 394.859 -2.57662 -3.38364 0
M  V30 4024 N 393.175 1.03435 -1.18907 0
M  V30 4025 C 394.105 2.13503 -0.945448 0
M  V30 4026 C 395.086 1.69682 0.119189 0
M  V30 4027 O 396.271 1.94169 -0.034707 0
M  V30 4028 C 393.401 3.44004 -0.477316 0
M  V30 4029 C 392.355 4.0148 -1.48316 0
M  V30 4030 C 391.681 5.27537 -0.872311 0
M  V30 4031 C 392.981 4.36921 -2.86177 0
M  V30 4032 H 394.675 2.34141 -1.86597 0
M  V30 4033 H 392.221 1.12523 -0.898584 0
M  V30 4034 H 394.174 4.20372 -0.294204 0
M  V30 4035 H 392.898 3.23072 0.478786 0
M  V30 4036 H 391.557 3.27201 -1.65332 0
M  V30 4037 H 391.205 5.02917 0.0911752 0
M  V30 4038 H 390.905 5.66954 -1.54393 0
M  V30 4039 H 392.429 6.06576 -0.699871 0
M  V30 4040 H 393.843 5.04248 -2.72776 0
M  V30 4041 H 392.24 4.87405 -3.50081 0
M  V30 4042 H 393.31 3.46466 -3.39248 0
M  V30 4043 N 394.653 0.992116 1.22453 0
M  V30 4044 C 395.881 0.685944 1.95198 0
M  V30 4045 C 396.296 -0.749233 1.73297 0
M  V30 4046 O 395.653 -1.50549 1.03156 0
M  V30 4047 C 395.704 0.981395 3.47924 0
M  V30 4048 O 395.425 2.36018 3.6909 0
M  V30 4049 C 396.926 0.692815 4.37853 0
M  V30 4050 H 394.146 0.253821 0.621141 0
M  V30 4051 H 396.69 1.32668 1.55626 0
M  V30 4052 H 394.845 0.386481 3.85467 0
M  V30 4053 H 395.259 2.45884 4.63294 0
M  V30 4054 H 396.733 0.949818 5.43767 0
M  V30 4055 H 397.21 -0.373181 4.37612 0
M  V30 4056 H 397.816 1.26874 4.05935 0
M  V30 4057 N 396.131 -1.37776 0.765217 0
M  V30 4058 C 397.38 -1.99092 0.323307 0
M  V30 4059 C 397.693 -1.61434 -1.10446 0
M  V30 4060 O 398.899 -2.15805 -1.64743 0
M  V30 4061 C 397.355 -3.56019 0.527098 0
M  V30 4062 C 396.963 -4.0262 1.96471 0
M  V30 4063 C 398.707 -4.2424 0.148483 0
M  V30 4064 C 396.614 -5.52233 2.11644 0
M  V30 4065 H 395.544 -0.744846 0.117137 0
M  V30 4066 H 398.195 -1.57391 0.943417 0
M  V30 4067 H 396.577 -3.95667 -0.162372 0
M  V30 4068 H 397.751 -3.74234 2.68859 0
M  V30 4069 H 396.066 -3.47161 2.29931 0
M  V30 4070 H 398.663 -5.34159 0.240456 0
M  V30 4071 H 399.006 -4.06446 -0.900422 0
M  V30 4072 H 399.539 -3.89872 0.79025 0
M  V30 4073 H 396.278 -5.74945 3.1483 0
M  V30 4074 H 395.798 -5.82324 1.4373 0
M  V30 4075 H 397.477 -6.18106 1.91193 0
M  V30 4076 N 397.609 -0.515225 -1.4894 0
M  V30 4077 C 398.834 0.022727 -2.07388 0
M  V30 4078 C 399.259 1.2876 -1.37122 0
M  V30 4079 O 398.617 1.76067 -0.432431 0
M  V30 4080 C 398.665 0.244869 -3.59768 0
M  V30 4081 O 397.769 1.31667 -3.90817 0
M  V30 4082 H 397.11 -0.0325506 -0.663202 0
M  V30 4083 H 399.64 -0.718918 -1.91553 0
M  V30 4084 H 399.65 0.47205 -4.0526 0
M  V30 4085 H 398.325 -0.679194 -4.10317 0
M  V30 4086 H 396.902 1.07331 -3.5712 0
M  V30 4087 N 399.087 1.5561 -0.249682 0
M  V30 4088 C 400.017 2.24477 0.642826 0
M  V30 4089 C 400.998 1.22601 1.17911 0
M  V30 4090 O 402.183 1.5126 1.21795 0
M  V30 4091 C 399.313 2.94638 1.83863 0
M  V30 4092 C 398.267 4.03227 1.435 0
M  V30 4093 C 397.593 4.60828 2.71186 0
M  V30 4094 C 398.893 5.18796 0.604002 0
M  V30 4095 H 400.587 2.99321 0.0685625 0
M  V30 4096 H 398.133 1.43965 0.0315363 0
M  V30 4097 H 400.086 3.41517 2.46868 0
M  V30 4098 H 398.81 2.17287 2.43832 0
M  V30 4099 H 397.469 3.57121 0.828275 0
M  V30 4100 H 397.117 3.80174 3.29358 0
M  V30 4101 H 396.817 5.34132 2.44901 0
M  V30 4102 H 398.341 5.10442 3.35084 0
M  V30 4103 H 399.755 5.61883 1.13842 0
M  V30 4104 H 398.152 5.98506 0.437097 0
M  V30 4105 H 399.222 4.83384 -0.383147 0
M  V30 4106 N 400.565 -0.0233959 1.57583 0
M  V30 4107 C 401.495 -1.02162 2.09965 0
M  V30 4108 C 402.476 -1.3735 1.00344 0
M  V30 4109 O 403.661 -1.46135 1.27899 0
M  V30 4110 C 400.791 -2.32081 2.58371 0
M  V30 4111 C 399.745 -2.1112 3.72307 0
M  V30 4112 C 399.071 -3.46848 4.06941 0
M  V30 4113 C 400.371 -1.49276 5.00514 0
M  V30 4114 H 402.065 -0.585557 2.93618 0
M  V30 4115 H 399.611 -0.280218 1.41247 0
M  V30 4116 H 401.564 -3.02249 2.93639 0
M  V30 4117 H 400.288 -2.77758 1.71808 0
M  V30 4118 H 398.947 -1.43384 3.37397 0
M  V30 4119 H 398.595 -3.90184 3.17436 0
M  V30 4120 H 398.295 -3.33646 4.83688 0
M  V30 4121 H 399.819 -4.18369 4.44747 0
M  V30 4122 H 401.233 -2.09368 5.33702 0
M  V30 4123 H 399.63 -1.46632 5.8191 0
M  V30 4124 H 400.7 -0.459217 4.82721 0
M  V30 4125 N 402.043 -1.548 -0.295768 0
M  V30 4126 C 403.32 -1.65014 -1.05023 0
M  V30 4127 C 403.7 -0.501805 -2.05049 0
M  V30 4128 O 403.048 0.500869 -2.22943 0
M  V30 4129 C 403.258 -3.03252 -1.72741 0
M  V30 4130 C 404.606 -3.60242 -2.24746 0
M  V30 4131 O 405.63 -3.05737 -1.82765 0
M  V30 4132 O 404.489 -4.55687 -3.01681 0
M  V30 4133 H 401.583 -0.669314 -0.485744 0
M  V30 4134 H 404.129 -1.67144 -0.293438 0
M  V30 4135 H 402.901 -3.7827 -1.00138 0
M  V30 4136 H 402.524 -3.04922 -2.55163 0
M  V30 4137 N 403.521 0.559213 -1.47345 0
M  V30 4138 C 404.749 1.34194 -1.57479 0
M  V30 4139 C 405.164 1.87463 -0.224261 0
M  V30 4140 O 404.521 1.64888 0.782185 0
M  V30 4141 C 404.572 2.51324 -2.59843 0
M  V30 4142 O 404.293 2.00256 -3.89653 0
M  V30 4143 C 405.794 3.43563 -2.80142 0
M  V30 4144 H 403.014 0.409136 -0.531835 0
M  V30 4145 H 405.558 0.677609 -1.92947 0
M  V30 4146 H 403.713 3.13699 -2.27314 0
M  V30 4147 H 404.127 2.76708 -4.4557 0
M  V30 4148 H 405.601 4.2217 -3.55635 0
M  V30 4149 H 406.078 3.9698 -1.87892 0
M  V30 4150 H 406.684 2.87005 -3.1386 0
M  V30 4151 N 404.999 1.35443 0.805782 0
M  V30 4152 C 406.224 1.32037 1.59941 0
M  V30 4153 C 406.649 -0.0994215 1.87837 0
M  V30 4154 O 406.007 -1.06648 1.46615 0
M  V30 4155 C 406.055 2.13354 2.90711 0
M  V30 4156 O 405.159 1.5148 3.83572 0
M  V30 4157 H 404.5 0.452666 0.485787 0
M  V30 4158 H 407.03 1.78496 1.00002 0
M  V30 4159 H 407.04 2.25338 3.40128 0
M  V30 4160 H 405.715 3.16572 2.69732 0
M  V30 4161 H 404.292 1.4834 3.42125 0
M  V30 4162 N 406.477 -1.02803 1.19454 0
M  V30 4163 C 407.425 -2.13213 0.929673 0
M  V30 4164 C 408.419 -1.69011 -0.114806 0
M  V30 4165 O 409.625 -1.79967 0.0345147 0
M  V30 4166 H 406 -0.69662 0.28324 0
M  V30 4167 H 407.971 -2.32744 1.86743 0
M  V30 4168 C 406.72 -3.4429 0.485797 0
M  V30 4169 H 406.043 -3.7872 1.28105 0
M  V30 4170 H 407.483 -4.22638 0.339582 0
M  V30 4171 C 405.942 -3.27258 -0.800244 0
M  V30 4172 O 406.472 -3.55967 -1.86146 0
M  V30 4173 N 404.678 -2.80545 -0.75781 0
M  V30 4174 H 404.225 -2.57382 0.106039 0
M  V30 4175 H 404.183 -2.6953 -1.61867 0
M  V30 4176 N 407.956 -0.998596 -1.21925 0
M  V30 4177 C 408.886 -0.573688 -2.26343 0
M  V30 4178 C 409.867 0.402296 -1.65274 0
M  V30 4179 O 411.052 0.291683 -1.91997 0
M  V30 4180 C 408.182 0.106839 -3.47136 0
M  V30 4181 C 407.136 -0.788269 -4.20678 0
M  V30 4182 C 406.462 0.0254927 -5.34694 0
M  V30 4183 C 407.762 -2.08784 -4.78755 0
M  V30 4184 H 409.456 -1.44651 -2.62138 0
M  V30 4185 H 407.002 -0.696975 -1.26009 0
M  V30 4186 H 408.955 0.415531 -4.19346 0
M  V30 4187 H 407.679 1.01424 -3.10452 0
M  V30 4188 H 406.338 -1.08069 -3.50309 0
M  V30 4189 H 405.986 0.933989 -4.94253 0
M  V30 4190 H 405.686 -0.570437 -5.84825 0
M  V30 4191 H 407.21 0.328147 -6.09718 0
M  V30 4192 H 408.624 -1.84272 -5.42878 0
M  V30 4193 H 407.021 -2.63307 -5.39249 0
M  V30 4194 H 408.091 -2.76284 -3.98491 0
M  V30 4195 N 409.434 1.37368 -0.772513 0
M  V30 4196 C 410.344 2.34053 -0.160081 0
M  V30 4197 C 411.36 1.60216 0.678728 0
M  V30 4198 O 412.536 1.92303 0.59847 0
M  V30 4199 C 409.601 3.3939 0.708182 0
M  V30 4200 C 408.662 4.29048 -0.147172 0
M  V30 4201 C 407.895 5.29354 0.679744 0
M  V30 4202 O 408.118 5.3723 1.91678 0
M  V30 4203 O 407.052 6.01835 0.0885444 0
M  V30 4204 H 410.878 2.88159 -0.959053 0
M  V30 4205 H 408.463 1.39543 -0.533685 0
M  V30 4206 H 410.345 4.03839 1.20384 0
M  V30 4207 H 409.02 2.8761 1.48533 0
M  V30 4208 H 407.927 3.67697 -0.689205 0
M  V30 4209 H 409.26 4.84134 -0.887423 0
M  V30 4210 N 410.912 0.523116 1.48665 0
M  V30 4211 C 411.842 -0.23231 2.32342 0
M  V30 4212 C 412.823 -0.941637 1.41659 0
M  V30 4213 O 414.008 -0.928751 1.70552 0
M  V30 4214 C 411.138 -1.28387 3.22698 0
M  V30 4215 C 410.092 -0.693098 4.22351 0
M  V30 4216 C 409.418 -1.8468 5.01794 0
M  V30 4217 C 410.718 0.33063 5.21252 0
M  V30 4218 H 412.412 0.466192 2.95748 0
M  V30 4219 H 409.958 0.225643 1.42221 0
M  V30 4220 H 411.911 -1.82024 3.80059 0
M  V30 4221 H 410.635 -2.01186 2.57278 0
M  V30 4222 H 409.294 -0.178299 3.66166 0
M  V30 4223 H 408.942 -2.56301 4.32804 0
M  V30 4224 H 408.642 -1.45747 5.69238 0
M  V30 4225 H 410.166 -2.38709 5.62006 0
M  V30 4226 H 411.58 -0.118407 5.73178 0
M  V30 4227 H 409.977 0.636974 5.9671 0
M  V30 4228 H 411.047 1.23883 4.68808 0
M  V30 4229 N 412.39 -1.55475 0.257931 0
M  V30 4230 C 413.801 -1.8511 -0.243135 0
M  V30 4231 C 414.152 -1.17986 -1.5676 0
M  V30 4232 O 413.277 -0.462102 -2.11409 0
M  V30 4233 C 413.872 -3.35826 -0.447929 0
M  V30 4234 C 412.431 -3.65647 -0.893245 0
M  V30 4235 C 411.578 -2.7729 0.0232965 0
M  V30 4236 H 414.529 -1.51261 0.480199 0
M  V30 4237 H 414.55 -3.58002 -1.28898 0
M  V30 4238 H 414.062 -3.84652 0.516196 0
M  V30 4239 H 412.163 -3.22308 -1.86945 0
M  V30 4240 H 412.276 -4.73312 -0.742469 0
M  V30 4241 H 410.64 -2.49942 -0.490021 0
M  V30 4242 H 411.423 -3.28926 0.982994 0
M  V30 4243 N 413.868 0.0150385 -1.57593 0
M  V30 4244 C 414.778 1.02791 -2.10882 0
M  V30 4245 C 415.794 1.38702 -1.0506 0
M  V30 4246 O 416.97 1.47739 -1.36877 0
M  V30 4247 C 414.035 2.30568 -2.58919 0
M  V30 4248 C 413.096 2.01108 -3.79281 0
M  V30 4249 C 412.329 3.22794 -4.25018 0
M  V30 4250 O 412.552 4.33959 -3.70183 0
M  V30 4251 O 411.486 3.07672 -5.17322 0
M  V30 4252 H 415.312 0.604973 -2.97613 0
M  V30 4253 H 412.897 0.23292 -1.47573 0
M  V30 4254 H 414.779 3.05662 -2.90084 0
M  V30 4255 H 413.454 2.72129 -1.75293 0
M  V30 4256 H 412.361 1.23537 -3.53114 0
M  V30 4257 H 413.694 1.64394 -4.63935 0
M  V30 4258 N 415.346 1.54954 0.287554 0
M  V30 4259 C 416.309 1.86076 1.33823 0
M  V30 4260 C 417.309 0.734414 1.43049 0
M  V30 4261 O 418.499 1.00266 1.42452 0
M  V30 4262 C 415.631 2.05305 2.72144 0
M  V30 4263 H 416.824 2.79984 1.07465 0
M  V30 4264 H 414.377 1.47223 0.524902 0
M  V30 4265 H 415.112 1.1373 3.03704 0
M  V30 4266 H 414.897 2.873 2.66836 0
M  V30 4267 H 416.387 2.30706 3.48087 0
M  V30 4268 N 416.824 -0.551391 1.4764 0
M  V30 4269 C 418.07 -1.31024 1.54792 0
M  V30 4270 C 418.403 -1.9304 0.211967 0
M  V30 4271 O 417.678 -1.78175 -0.77999 0
M  V30 4272 C 417.961 -2.41593 2.67029 0
M  V30 4273 C 417.814 -1.84408 4.10261 0
M  V30 4274 C 419.133 -3.43488 2.75143 0
M  V30 4275 H 416.252 -0.475031 0.563485 0
M  V30 4276 H 418.894 -0.616454 1.79722 0
M  V30 4277 H 417.044 -3.00772 2.45904 0
M  V30 4278 H 418.716 -1.29445 4.42766 0
M  V30 4279 H 416.959 -1.15051 4.18265 0
M  V30 4280 H 417.63 -2.64367 4.84576 0
M  V30 4281 H 420.106 -2.94236 2.94218 0
M  V30 4282 H 418.982 -4.18274 3.55441 0
M  V30 4283 H 419.243 -4.02703 1.82435 0
M  V30 4284 N 418.302 -1.35869 -0.798587 0
M  V30 4285 C 419.548 -1.2978 -1.55836 0
M  V30 4286 C 419.881 0.125322 -1.93795 0
M  V30 4287 O 419.156 1.07658 -1.61987 0
M  V30 4288 C 419.439 -2.21188 -2.84162 0
M  V30 4289 C 419.292 -3.72155 -2.52628 0
M  V30 4290 C 420.611 -2.11545 -3.85923 0
M  V30 4291 H 417.73 -0.472769 -0.565383 0
M  V30 4292 H 420.372 -1.66341 -0.918192 0
M  V30 4293 H 418.522 -1.90139 -3.38791 0
M  V30 4294 H 420.194 -4.13682 -2.04121 0
M  V30 4295 H 418.437 -3.92042 -1.85704 0
M  V30 4296 H 419.108 -4.31511 -3.44242 0
M  V30 4297 H 421.584 -2.38855 -3.40716 0
M  V30 4298 H 420.46 -2.77688 -4.73477 0
M  V30 4299 H 420.721 -1.09987 -4.282 0
M  V30 4300 N 419.78 1.02168 -1.19998 0
M  V30 4301 C 421.027 1.75685 -1.00702 0
M  V30 4302 C 421.355 1.88947 0.461426 0
M  V30 4303 O 420.61 1.40832 1.35885 0
M  V30 4304 C 420.909 3.18081 -1.62969 0
M  V30 4305 C 420.575 3.24809 -3.12746 0
M  V30 4306 C 419.237 3.26352 -3.53621 0
M  V30 4307 C 421.589 3.23379 -4.08749 0
M  V30 4308 C 418.917 3.2413 -4.89036 0
M  V30 4309 C 421.269 3.22698 -5.44104 0
M  V30 4310 C 419.933 3.22542 -5.84399 0
M  V30 4311 H 419.203 0.642877 -0.368496 0
M  V30 4312 H 421.85 1.19865 -1.49348 0
M  V30 4313 H 420.155 3.77027 -1.06573 0
M  V30 4314 H 421.852 3.73648 -1.45561 0
M  V30 4315 H 418.442 3.2434 -2.80181 0
M  V30 4316 H 422.626 3.21361 -3.78207 0
M  V30 4317 H 417.882 3.22338 -5.19527 0
M  V30 4318 H 422.056 3.20543 -6.18244 0
M  V30 4319 H 419.683 3.20575 -6.89301 0
M  V30 4320 N 421.258 1.00505 1.21394 0
M  V30 4321 C 422.19 0.52372 2.23136 0
M  V30 4322 C 423.203 -0.387714 1.58116 0
M  V30 4323 O 424.392 -0.187905 1.77508 0
M  V30 4324 C 421.492 -0.258885 3.3791 0
M  V30 4325 C 420.665 0.651634 4.32519 0
M  V30 4326 C 419.724 -0.0813705 5.26137 0
M  V30 4327 O 418.75 0.537295 5.66658 0
M  V30 4328 N 419.952 -1.35992 5.64346 0
M  V30 4329 H 422.717 1.39865 2.65062 0
M  V30 4330 H 420.278 0.881196 1.35818 0
M  V30 4331 H 422.27 -0.758208 3.97534 0
M  V30 4332 H 420.84 -1.035 2.94968 0
M  V30 4333 H 420.06 1.33145 3.71034 0
M  V30 4334 H 421.348 1.27129 4.92662 0
M  V30 4335 H 420.746 -1.88368 5.33417 0
M  V30 4336 H 419.303 -1.8042 6.26332 0
M  V30 4337 N 422.737 -1.36956 0.779787 0
M  V30 4338 C 424.014 -1.93697 0.272156 0
M  V30 4339 C 424.394 -1.71267 -1.23413 0
M  V30 4340 O 423.742 -1.06607 -2.02107 0
M  V30 4341 C 423.952 -3.42812 0.654291 0
M  V30 4342 C 425.3 -4.19921 0.628602 0
M  V30 4343 O 426.324 -3.51209 0.594172 0
M  V30 4344 O 425.183 -5.42465 0.662864 0
M  V30 4345 H 422.277 -0.824447 0.0649286 0
M  V30 4346 H 424.823 -1.46196 0.861682 0
M  V30 4347 H 423.595 -3.52754 1.69353 0
M  V30 4348 H 423.218 -3.97582 0.0381369 0
M  V30 4349 N 424.215 -0.530993 -1.48385 0
M  V30 4350 C 425.44 0.000729535 -2.074 0
M  V30 4351 C 425.865 1.27298 -1.3848 0
M  V30 4352 O 425.223 1.75599 -0.451081 0
M  V30 4353 C 425.271 0.206697 -3.60007 0
M  V30 4354 O 424.375 1.27514 -3.92191 0
M  V30 4355 H 423.716 -0.039583 -0.662819 0
M  V30 4356 H 426.246 -0.739194 -1.9078 0
M  V30 4357 H 426.256 0.42904 -4.05738 0
M  V30 4358 H 424.931 -0.722675 -4.09573 0
M  V30 4359 H 423.508 1.03537 -3.58238 0
M  V30 4360 N 425.693 1.55336 -0.266172 0
M  V30 4361 C 426.939 1.99692 0.353681 0
M  V30 4362 C 427.272 1.1543 1.56172 0
M  V30 4363 O 426.547 0.222218 1.93226 0
M  V30 4364 C 426.83 3.52316 0.74466 0
M  V30 4365 C 426.683 4.47337 -0.470101 0
M  V30 4366 C 428.002 4.10588 1.58447 0
M  V30 4367 H 425.121 0.725961 0.12708 0
M  V30 4368 H 427.763 1.86336 -0.371333 0
M  V30 4369 H 425.913 3.63829 1.36239 0
M  V30 4370 H 427.585 4.4778 -1.10864 0
M  V30 4371 H 425.828 4.19364 -1.10978 0
M  V30 4372 H 426.499 5.51788 -0.15291 0
M  V30 4373 H 428.975 4.02297 1.06286 0
M  V30 4374 H 427.851 5.17607 1.82686 0
M  V30 4375 H 428.112 3.60253 2.56262 0
M  V30 4376 N 427.171 -0.0066808 1.57599 0
M  V30 4377 C 428.417 -0.693947 1.90558 0
M  V30 4378 C 428.75 -1.73792 0.866594 0
M  V30 4379 O 428.025 -1.94156 -0.115548 0
M  V30 4380 C 428.308 -1.34317 3.34112 0
M  V30 4381 C 428.161 -0.311189 4.48722 0
M  V30 4382 C 429.48 -2.27116 3.7697 0
M  V30 4383 H 426.599 -0.250803 0.693013 0
M  V30 4384 H 429.241 0.043242 1.89951 0
M  V30 4385 H 427.391 -1.9715 3.3476 0
M  V30 4386 H 429.063 0.316944 4.6021 0
M  V30 4387 H 427.306 0.367253 4.32243 0
M  V30 4388 H 427.977 -0.804366 5.46108 0
M  V30 4389 H 430.453 -1.74306 3.77831 0
M  V30 4390 H 429.329 -2.69511 4.78179 0
M  V30 4391 H 429.59 -3.14743 3.10466 0
M  V30 4392 N 428.649 -1.55105 -0.279332 0
M  V30 4393 C 429.896 -1.75412 -1.01177 0
M  V30 4394 C 430.224 -0.551728 -1.86511 0
M  V30 4395 O 429.479 0.465919 -1.90073 0
M  V30 4396 C 429.778 -3.0086 -1.92919 0
M  V30 4397 C 429.444 -4.33689 -1.23387 0
M  V30 4398 C 428.106 -4.69792 -1.04159 0
M  V30 4399 C 430.458 -5.15941 -0.738562 0
M  V30 4400 C 427.786 -5.85707 -0.341166 0
M  V30 4401 C 430.138 -6.32579 -0.0517636 0
M  V30 4402 C 428.802 -6.67326 0.152292 0
M  V30 4403 H 428.072 -0.641879 -0.370233 0
M  V30 4404 H 430.719 -1.89373 -0.284627 0
M  V30 4405 H 429.024 -2.81773 -2.72234 0
M  V30 4406 H 430.721 -3.13768 -2.49701 0
M  V30 4407 H 427.311 -4.05309 -1.39364 0
M  V30 4408 H 431.495 -4.8853 -0.874764 0
M  V30 4409 H 426.751 -6.11157 -0.172287 0
M  V30 4410 H 430.925 -6.9557 0.339828 0
M  V30 4411 H 428.552 -7.56998 0.697014 0
M  V30 4412 N 430.127 0.543554 -1.4793 0
M  V30 4413 C 431.543 0.870806 -1.3375 0
M  V30 4414 C 431.743 1.9864 -0.338261 0
M  V30 4415 O 430.799 2.51305 0.245371 0
M  V30 4416 C 432.112 1.25114 -2.73435 0
M  V30 4417 C 433.66 1.3618 -2.81823 0
M  V30 4418 C 434.135 1.77563 -4.22179 0
M  V30 4419 N 435.626 1.8469 -4.24787 0
M  V30 4420 C 436.361 2.18067 -5.30315 0
M  V30 4421 N 435.857 2.49963 -6.46135 0
M  V30 4422 N 437.65 2.18958 -5.17701 0
M  V30 4423 H 429.801 -0.19275 -2.11524 0
M  V30 4424 H 432.064 -0.0235777 -0.947707 0
M  V30 4425 H 431.77 0.50514 -3.48053 0
M  V30 4426 H 431.644 2.20431 -3.06088 0
M  V30 4427 H 434.031 2.09859 -2.07468 0
M  V30 4428 H 434.112 0.390169 -2.52807 0
M  V30 4429 H 433.756 1.04449 -4.97044 0
M  V30 4430 H 433.686 2.75753 -4.48629 0
M  V30 4431 H 436.177 1.62372 -3.41239 0
M  V30 4432 H 436.49 2.74497 -7.22406 0
M  V30 4433 H 434.835 2.47513 -6.49432 0
M  V30 4434 H 438.026 1.93488 -4.2624 0
M  V30 4435 H 438.199 2.44639 -6.00047 0
M  V30 4436 N 431.605 1.3629 0.791371 0
M  V30 4437 C 432.851 1.30605 1.55146 0
M  V30 4438 C 433.184 -0.115042 1.93859 0
M  V30 4439 O 432.459 -1.06798 1.62556 0
M  V30 4440 C 432.742 2.22692 2.82985 0
M  V30 4441 C 432.595 3.73489 2.50651 0
M  V30 4442 C 433.914 2.13588 3.84796 0
M  V30 4443 H 431.033 0.475761 0.562868 0
M  V30 4444 H 433.675 1.66825 0.909358 0
M  V30 4445 H 431.825 1.91933 3.37778 0
M  V30 4446 H 433.497 4.14758 2.01924 0
M  V30 4447 H 431.74 3.93021 1.83622 0
M  V30 4448 H 432.411 4.3333 3.41949 0
M  V30 4449 H 434.887 2.40659 3.39445 0
M  V30 4450 H 433.763 2.80195 4.71998 0
M  V30 4451 H 434.024 1.12256 4.27611 0
M  V30 4452 N 433.083 -1.0153 1.20538 0
M  V30 4453 C 434.046 -2.0826 0.957098 0
M  V30 4454 C 435.046 -1.60657 -0.0678655 0
M  V30 4455 O 436.236 -1.73385 0.168332 0
M  V30 4456 C 433.368 -3.38033 0.441188 0
M  V30 4457 H 434.561 -2.31719 1.90384 0
M  V30 4458 H 432.114 -1.1835 1.02093 0
M  V30 4459 H 432.849 -3.20249 -0.510961 0
M  V30 4460 H 432.634 -3.73911 1.18038 0
M  V30 4461 H 434.124 -4.16613 0.287009 0
M  V30 4462 N 434.561 -1.01147 -1.20859 0
M  V30 4463 C 435.972 -0.730205 -1.71828 0
M  V30 4464 C 436.323 0.751662 -1.8123 0
M  V30 4465 O 435.448 1.58686 -1.47132 0
M  V30 4466 C 436.043 -1.31885 -3.12077 0
M  V30 4467 C 434.602 -1.08656 -3.60376 0
M  V30 4468 C 433.749 -1.42769 -2.37723 0
M  V30 4469 H 436.7 -1.18158 -1.05945 0
M  V30 4470 H 436.721 -0.706793 -3.73878 0
M  V30 4471 H 436.233 -2.39737 -3.05201 0
M  V30 4472 H 434.334 -0.0254814 -3.72591 0
M  V30 4473 H 434.447 -1.76301 -4.45483 0
M  V30 4474 H 432.811 -0.846603 -2.40218 0
M  V30 4475 H 433.594 -2.51666 -2.33493 0
M  V30 4476 N 436.039 1.36541 -0.78704 0
M  V30 4477 C 437.285 2.00044 -0.367938 0
M  V30 4478 C 437.64 1.61345 1.04812 0
M  V30 4479 O 436.933 0.856936 1.71368 0
M  V30 4480 C 437.127 3.54343 -0.466485 0
M  V30 4481 C 436.956 4.08029 -1.89058 0
M  V30 4482 C 435.726 4.38284 -2.51466 0
M  V30 4483 C 437.924 4.27954 -2.85236 0
M  V30 4484 N 435.906 4.77778 -3.85488 0
M  V30 4485 C 437.277 4.70227 -4.04088 0
M  V30 4486 C 439.332 4.10119 -2.82324 0
M  V30 4487 C 438.035 4.96532 -5.20432 0
M  V30 4488 C 440.061 4.37569 -3.97854 0
M  V30 4489 C 439.423 4.80095 -5.15449 0
M  V30 4490 H 435.522 0.760525 -0.182004 0
M  V30 4491 H 438.106 1.65589 -1.02413 0
M  V30 4492 H 436.277 3.88072 0.159606 0
M  V30 4493 H 438.009 4.04693 -0.0238577 0
M  V30 4494 H 434.764 4.27905 -2.02965 0
M  V30 4495 H 435.188 5.01813 -4.54437 0
M  V30 4496 H 439.83 3.76399 -1.92571 0
M  V30 4497 H 437.548 5.29134 -6.10773 0
M  V30 4498 H 441.134 4.25341 -3.96958 0
M  V30 4499 H 440.014 5.00925 -6.0336 0
M  V30 4500 N 437.518 0.538854 1.48102 0
M  V30 4501 C 438.767 0.0059532 2.01699 0
M  V30 4502 C 439.08 -1.34476 1.42041 0
M  V30 4503 O 440.286 -1.96653 1.87189 0
M  V30 4504 C 438.742 -0.0397627 3.59878 0
M  V30 4505 C 438.35 1.30659 4.28523 0
M  V30 4506 C 440.094 -0.521024 4.2129 0
M  V30 4507 C 438.001 1.22098 5.78659 0
M  V30 4508 H 436.931 -0.00154456 0.753998 0
M  V30 4509 H 439.582 0.683963 1.70277 0
M  V30 4510 H 437.964 -0.783037 3.88181 0
M  V30 4511 H 439.138 2.06613 4.11883 0
M  V30 4512 H 437.453 1.7243 3.79021 0
M  V30 4513 H 440.05 -0.603184 5.31287 0
M  V30 4514 H 440.393 -1.52885 3.8721 0
M  V30 4515 H 440.926 0.166834 3.9745 0
M  V30 4516 H 437.665 2.20424 6.17328 0
M  V30 4517 H 437.185 0.50295 5.97688 0
M  V30 4518 H 438.864 0.915345 6.40492 0
M  V30 4519 N 438.996 -1.55193 0.274407 0
M  V30 4520 C 439.929 -2.18606 -0.654712 0
M  V30 4521 C 440.907 -1.14677 -1.15273 0
M  V30 4522 O 442.091 -1.43198 -1.22583 0
M  V30 4523 C 439.218 -2.80875 -1.89281 0
M  V30 4524 C 438.264 -3.981 -1.53032 0
M  V30 4525 S 439.097 -5.32025 -0.609107 0
M  V30 4526 C 440.253 -5.97761 -1.85559 0
M  V30 4527 H 440.486 -2.97074 -0.115894 0
M  V30 4528 H 438.019 -1.54288 0.05867 0
M  V30 4529 H 439.977 -3.17381 -2.60345 0
M  V30 4530 H 438.638 -2.02302 -2.40277 0
M  V30 4531 H 437.831 -4.40356 -2.45158 0
M  V30 4532 H 437.433 -3.63013 -0.899874 0
M  V30 4533 H 439.725 -6.16951 -2.7996 0
M  V30 4534 H 440.668 -6.92545 -1.47605 0
M  V30 4535 H 441.076 -5.27113 -2.02021 0
M  V30 4536 N 440.474 -0.00167713 -1.576 0
M  V30 4537 C 441.702 0.693759 -1.94922 0
M  V30 4538 C 442.117 1.67215 -0.876626 0
M  V30 4539 O 441.474 1.81929 0.144279 0
M  V30 4540 C 441.525 1.42416 -3.32265 0
M  V30 4541 O 441.246 0.485014 -4.35407 0
M  V30 4542 C 442.747 2.21395 -3.84056 0
M  V30 4543 H 439.967 0.193118 -0.642609 0
M  V30 4544 H 442.511 -0.0532952 -2.04431 0
M  V30 4545 H 440.666 2.12284 -3.24059 0
M  V30 4546 H 441.08 1.00053 -5.14868 0
M  V30 4547 H 442.554 2.67996 -4.82578 0
M  V30 4548 H 443.031 3.04142 -3.16851 0
M  V30 4549 H 443.637 1.56542 -3.95443 0
M  V30 4550 N 441.952 1.55251 0.271103 0
M  V30 4551 C 443.363 1.66635 0.842007 0
M  V30 4552 C 443.714 0.594631 1.86972 0
M  V30 4553 O 442.839 -0.263532 2.14789 0
M  V30 4554 C 443.434 3.02082 1.53401 0
M  V30 4555 C 441.993 3.15487 2.05293 0
M  V30 4556 C 441.14 2.62438 0.895631 0
M  V30 4557 H 444.091 1.58629 0.0474117 0
M  V30 4558 H 444.112 2.95176 2.40107 0
M  V30 4559 H 443.624 3.80062 0.785786 0
M  V30 4560 H 441.725 2.42284 2.83071 0
M  V30 4561 H 441.838 4.22075 2.26693 0
M  V30 4562 H 440.202 2.19644 1.28953 0
M  V30 4563 H 440.985 3.42923 0.160878 0
M  V30 4564 N 443.43 -0.535701 1.48216 0
M  V30 4565 C 444.378 -1.66179 1.62749 0
M  V30 4566 C 445.372 -1.62034 0.49409 0
M  V30 4567 O 446.578 -1.6696 0.672624 0
M  V30 4568 H 442.953 -0.550244 0.512578 0
M  V30 4569 H 444.924 -1.51063 2.57337 0
M  V30 4570 C 443.673 -3.04471 1.67907 0
M  V30 4571 H 442.996 -3.08351 2.54479 0
M  V30 4572 H 444.436 -3.82894 1.82121 0
M  V30 4573 C 442.895 -3.34314 0.416596 0
M  V30 4574 O 443.425 -3.98905 -0.473014 0
M  V30 4575 N 441.631 -2.89149 0.290038 0
M  V30 4576 H 441.178 -2.36764 1.01493 0
M  V30 4577 H 441.136 -3.09486 -0.55367 0
M  V30 4578 N 444.908 -1.36708 -0.784132 0
M  V30 4579 C 446.136 -1.34398 -1.57305 0
M  V30 4580 C 446.551 0.0735577 -1.88657 0
M  V30 4581 O 445.908 1.03193 -1.50524 0
M  V30 4582 C 445.959 -2.17053 -2.89085 0
M  V30 4583 O 445.68 -3.53281 -2.59083 0
M  V30 4584 C 447.181 -2.22583 -3.83369 0
M  V30 4585 H 444.401 -0.460819 -0.487736 0
M  V30 4586 H 446.945 -1.79879 -0.972819 0
M  V30 4587 H 445.1 -1.75113 -3.45564 0
M  V30 4588 H 445.514 -3.9647 -3.43383 0
M  V30 4589 H 446.988 -2.84763 -4.72878 0
M  V30 4590 H 447.465 -1.23075 -4.21603 0
M  V30 4591 H 448.071 -2.64781 -3.32823 0
M  V30 4592 N 446.386 1.0089 -1.21074 0
M  V30 4593 C 447.318 2.09737 -0.924291 0
M  V30 4594 C 448.331 1.62546 0.0909809 0
M  V30 4595 O 449.52 1.77942 -0.141021 0
M  V30 4596 C 446.62 3.36922 -0.36559 0
M  V30 4597 C 445.793 4.13216 -1.43426 0
M  V30 4598 C 444.852 5.18696 -0.885496 0
M  V30 4599 O 443.878 5.47176 -1.56801 0
M  V30 4600 N 445.08 5.79718 0.301227 0
M  V30 4601 H 447.845 2.34895 -1.8613 0
M  V30 4602 H 445.406 1.17341 -1.11546 0
M  V30 4603 H 447.398 4.04697 0.0158407 0
M  V30 4604 H 445.968 3.08952 0.476149 0
M  V30 4605 H 445.188 3.40301 -1.9897 0
M  V30 4606 H 446.476 4.60967 -2.15376 0
M  V30 4607 H 445.874 5.58926 0.872849 0
M  V30 4608 H 444.431 6.48804 0.624211 0
M  V30 4609 N 447.864 1.01787 1.20321 0
M  V30 4610 C 449.275 0.739307 1.71438 0
M  V30 4611 C 449.626 -0.742041 1.81627 0
M  V30 4612 O 448.751 -1.57903 1.47971 0
M  V30 4613 C 449.346 1.33538 3.11373 0
M  V30 4614 C 447.905 1.10566 3.59795 0
M  V30 4615 C 447.052 1.44028 2.36962 0
M  V30 4616 H 450.003 1.18718 1.05317 0
M  V30 4617 H 450.024 0.726611 3.73498 0
M  V30 4618 H 449.536 2.41352 3.03926 0
M  V30 4619 H 447.637 0.0452405 3.72573 0
M  V30 4620 H 447.75 1.78661 4.44542 0
M  V30 4621 H 446.114 0.85933 2.39766 0
M  V30 4622 H 446.897 2.52901 2.32155 0
M  V30 4623 N 449.342 -1.36122 0.79427 0
M  V30 4624 C 450.753 -1.81646 0.431446 0
M  V30 4625 C 451.104 -1.66043 -1.04518 0
M  V30 4626 O 450.229 -1.1841 -1.8113 0
M  V30 4627 C 450.824 -3.29785 0.776341 0
M  V30 4628 C 449.383 -3.73501 0.466282 0
M  V30 4629 C 448.53 -2.58313 1.00844 0
M  V30 4630 H 451.481 -1.24274 0.986995 0
M  V30 4631 H 451.502 -3.80437 0.0692413 0
M  V30 4632 H 451.014 -3.4111 1.8511 0
M  V30 4633 H 449.115 -3.67733 -0.600245 0
M  V30 4634 H 449.228 -4.68754 0.990288 0
M  V30 4635 H 447.592 -2.5102 0.431406 0
M  V30 4636 H 448.375 -2.72421 2.08906 0
M  V30 4637 N 450.82 -0.546701 -1.47814 0
M  V30 4638 C 451.752 0.244196 -2.27895 0
M  V30 4639 C 452.765 0.88911 -1.36377 0
M  V30 4640 O 453.954 0.764733 -1.61289 0
M  V30 4641 C 451.054 1.36252 -3.10304 0
M  V30 4642 C 450.227 0.816382 -4.29714 0
M  V30 4643 C 449.286 1.81789 -4.93801 0
M  V30 4644 O 448.312 1.36818 -5.52512 0
M  V30 4645 N 449.514 3.15085 -4.87547 0
M  V30 4646 H 452.279 -0.442694 -2.96412 0
M  V30 4647 H 449.84 -0.382095 -1.57327 0
M  V30 4648 H 451.832 2.03102 -3.50045 0
M  V30 4649 H 450.402 1.95281 -2.44099 0
M  V30 4650 H 449.622 -0.0285981 -3.9419 0
M  V30 4651 H 450.91 0.430668 -5.06974 0
M  V30 4652 H 450.308 3.54275 -4.41028 0
M  V30 4653 H 448.865 3.77522 -5.31339 0
M  V30 4654 N 452.299 1.55045 -0.282633 0
M  V30 4655 C 453.209 2.26491 0.61147 0
M  V30 4656 C 454.225 1.29348 1.16384 0
M  V30 4657 O 455.401 1.62298 1.19253 0
M  V30 4658 C 452.466 2.97779 1.77563 0
M  V30 4659 C 451.527 4.10418 1.25919 0
M  V30 4660 C 450.76 4.78297 2.36786 0
M  V30 4661 O 450.983 4.45426 3.56303 0
M  V30 4662 O 449.917 5.66089 2.04517 0
M  V30 4663 H 453.743 3.03683 0.0324615 0
M  V30 4664 H 451.328 1.49317 -0.0497576 0
M  V30 4665 H 453.21 3.42554 2.45427 0
M  V30 4666 H 451.885 2.23498 2.34159 0
M  V30 4667 H 450.792 3.70082 0.546797 0
M  V30 4668 H 452.125 4.86622 0.738887 0
M  V30 4669 N 453.777 0.010035 1.57597 0
M  V30 4670 C 455.023 -0.673697 1.91283 0
M  V30 4671 C 455.356 -1.72863 0.884979 0
M  V30 4672 O 454.631 -1.94268 -0.0949487 0
M  V30 4673 C 454.914 -1.30766 3.35518 0
M  V30 4674 C 454.767 -0.263578 4.49027 0
M  V30 4675 C 456.086 -2.23105 3.79358 0
M  V30 4676 H 453.205 -0.243439 0.695634 0
M  V30 4677 H 455.847 0.0633864 1.89894 0
M  V30 4678 H 453.997 -1.93588 3.36832 0
M  V30 4679 H 455.669 0.365738 4.59848 0
M  V30 4680 H 453.912 0.413077 4.31829 0
M  V30 4681 H 454.583 -0.746398 5.4693 0
M  V30 4682 H 457.059 -1.70289 3.79659 0
M  V30 4683 H 455.935 -2.64424 4.81011 0
M  V30 4684 H 456.196 -3.11433 3.13787 0
M  V30 4685 N 455.255 -1.55392 -0.262866 0
M  V30 4686 C 456.485 -1.80251 -1.00961 0
M  V30 4687 C 456.893 -0.58117 -1.80053 0
M  V30 4688 O 456.236 0.459427 -1.77862 0
M  V30 4689 C 456.298 -2.98207 -2.00781 0
M  V30 4690 C 455.962 -4.34856 -1.40533 0
M  V30 4691 C 456.959 -5.13459 -0.815853 0
M  V30 4692 C 454.644 -4.8153 -1.42948 0
M  V30 4693 C 456.638 -6.36875 -0.258562 0
M  V30 4694 C 454.325 -6.04899 -0.868334 0
M  V30 4695 C 455.323 -6.8241 -0.283884 0
M  V30 4696 O 455.011 -8.03451 0.268644 0
M  V30 4697 H 454.743 -0.604049 -0.303482 0
M  V30 4698 H 457.297 -2.03257 -0.295926 0
M  V30 4699 H 455.527 -2.70917 -2.75936 0
M  V30 4700 H 457.216 -3.10299 -2.61667 0
M  V30 4701 H 457.982 -4.78526 -0.789812 0
M  V30 4702 H 453.861 -4.21201 -1.87378 0
M  V30 4703 H 457.405 -6.97318 0.198257 0
M  V30 4704 H 453.302 -6.39312 -0.891649 0
M  V30 4705 H 454.07 -8.18346 0.158974 0
M  V30 4706 N 456.733 0.527833 -1.48498 0
M  V30 4707 C 457.696 1.61439 -1.62696 0
M  V30 4708 C 458.696 1.52824 -0.500136 0
M  V30 4709 O 459.886 1.56456 -0.765976 0
M  V30 4710 C 457.018 3.01063 -1.59918 0
M  V30 4711 H 458.211 1.50189 -2.59583 0
M  V30 4712 H 455.764 0.750055 -1.37127 0
M  V30 4713 H 456.499 3.17818 -0.645163 0
M  V30 4714 H 456.284 3.08725 -2.41726 0
M  V30 4715 H 457.774 3.80057 -1.73051 0
M  V30 4716 N 458.211 1.37122 0.776871 0
M  V30 4717 C 459.451 1.33441 1.54831 0
M  V30 4718 C 459.815 -0.0818963 1.91825 0
M  V30 4719 O 461.016 -0.24338 2.67696 0
M  V30 4720 C 459.287 2.24267 2.78279 0
M  V30 4721 S 460.846 2.38389 3.68397 0
M  V30 4722 H 457.664 0.473791 0.530135 0
M  V30 4723 H 460.266 1.7282 0.913968 0
M  V30 4724 H 458.97 3.261 2.49173 0
M  V30 4725 H 458.501 1.85953 3.46677 0
M  V30 4726 H 460.516 1.59068 4.70013 0
M  V30 4727 N 459.689 -1.00246 1.21608 0
M  V30 4728 C 460.914 -1.78167 1.06167 0
M  V30 4729 C 461.339 -1.84138 -0.384035 0
M  V30 4730 O 460.697 -1.28683 -1.27712 0
M  V30 4731 C 460.745 -3.19786 1.66642 0
M  V30 4732 O 459.849 -4.02153 0.913613 0
M  V30 4733 H 459.19 -0.549 0.37349 0
M  V30 4734 H 461.72 -1.25994 1.61204 0
M  V30 4735 H 461.73 -3.70451 1.70969 0
M  V30 4736 H 460.405 -3.14754 2.7185 0
M  V30 4737 H 458.982 -3.60711 0.945635 0
M  V30 4738 N 461.167 -1.02423 -1.1978 0
M  V30 4739 C 462.416 -0.713265 -1.88667 0
M  V30 4740 C 462.729 0.7609 -1.80193 0
M  V30 4741 O 463.935 1.18473 -2.44288 0
M  V30 4742 C 462.391 -1.22545 -3.38394 0
M  V30 4743 C 461.999 -2.72706 -3.55437 0
M  V30 4744 C 463.743 -0.990257 -4.12788 0
M  V30 4745 C 461.65 -3.17367 -4.99031 0
M  V30 4746 H 460.58 -0.263105 -0.706606 0
M  V30 4747 H 463.231 -1.23792 -1.35454 0
M  V30 4748 H 461.613 -0.628732 -3.90977 0
M  V30 4749 H 462.787 -3.37993 -3.13205 0
M  V30 4750 H 461.102 -2.94453 -2.94425 0
M  V30 4751 H 463.699 -1.29926 -5.18675 0
M  V30 4752 H 464.042 0.0730761 -4.16236 0
M  V30 4753 H 464.575 -1.55074 -3.66329 0
M  V30 4754 H 461.314 -4.23009 -5.00743 0
M  V30 4755 H 460.834 -2.56805 -5.42044 0
M  V30 4756 H 462.513 -3.10441 -5.67658 0
M  V30 4757 N 462.645 1.35699 -0.801477 0
M  V30 4758 C 463.892 1.98913 -0.379459 0
M  V30 4759 C 464.22 1.63592 1.05204 0
M  V30 4760 O 463.475 0.888563 1.74365 0
M  V30 4761 C 463.774 3.53828 -0.504041 0
M  V30 4762 C 463.44 4.09002 -1.8981 0
M  V30 4763 C 462.102 4.23783 -2.27951 0
M  V30 4764 C 464.454 4.38939 -2.81038 0
M  V30 4765 C 461.782 4.65816 -3.56696 0
M  V30 4766 C 464.134 4.82409 -4.09224 0
M  V30 4767 C 462.798 4.95395 -4.4737 0
M  V30 4768 H 462.068 0.727874 -0.138854 0
M  V30 4769 H 464.715 1.61994 -1.02128 0
M  V30 4770 H 463.02 3.91175 0.221242 0
M  V30 4771 H 464.717 4.00687 -0.158361 0
M  V30 4772 H 461.307 3.97946 -1.59176 0
M  V30 4773 H 465.491 4.27077 -2.52821 0
M  V30 4774 H 460.747 4.74059 -3.86106 0
M  V30 4775 H 464.921 5.04535 -4.80018 0
M  V30 4776 H 462.548 5.27724 -5.47185 0
M  V30 4777 N 464.123 0.554532 1.47522 0
M  V30 4778 C 465.033 -0.197865 2.33764 0
M  V30 4779 C 466.049 -0.914576 1.48025 0
M  V30 4780 O 467.225 -0.884067 1.80959 0
M  V30 4781 C 464.29 -1.21628 3.24665 0
M  V30 4782 C 463.351 -0.507283 4.26292 0
M  V30 4783 C 462.584 -1.47718 5.1285 0
M  V30 4784 O 462.807 -2.7118 5.01814 0
M  V30 4785 O 461.741 -1.00313 5.93482 0
M  V30 4786 H 465.567 0.50949 2.99396 0
M  V30 4787 H 463.152 0.315176 1.46038 0
M  V30 4788 H 465.034 -1.80421 3.80823 0
M  V30 4789 H 463.709 -1.9056 2.61665 0
M  V30 4790 H 462.616 0.121778 3.73902 0
M  V30 4791 H 463.949 0.140544 4.91999 0
M  V30 4792 N 465.601 -1.54893 0.290851 0
M  V30 4793 C 466.549 -2.24579 -0.605576 0
M  V30 4794 C 467.543 -1.24824 -1.14522 0
M  V30 4795 O 468.749 -1.42706 -1.09704 0
M  V30 4796 H 465.124 -0.720946 -0.213872 0
M  V30 4797 H 467.095 -2.984 0.0048173 0
M  V30 4798 C 465.844 -2.99224 -1.77088 0
M  V30 4799 H 465.167 -3.75782 -1.36484 0
M  V30 4800 H 466.607 -3.51281 -2.3744 0
M  V30 4801 C 465.066 -2.05602 -2.66888 0
M  V30 4802 O 465.596 -1.61745 -3.67698 0
M  V30 4803 N 463.802 -1.71771 -2.34399 0
M  V30 4804 H 463.349 -2.07633 -1.52468 0
M  V30 4805 H 463.307 -1.09403 -2.94751 0
M  V30 4806 N 467.08 -0.0183926 -1.57589 0
M  V30 4807 C 467.99 0.982943 -2.13015 0
M  V30 4808 C 469.006 1.36443 -1.07979 0
M  V30 4809 O 470.182 1.44802 -1.3998 0
M  V30 4810 C 467.247 2.25024 -2.63752 0
M  V30 4811 C 466.308 1.93018 -3.83461 0
M  V30 4812 C 465.541 3.13706 -4.31769 0
M  V30 4813 O 465.764 4.2601 -3.79305 0
M  V30 4814 O 464.698 2.96629 -5.23732 0
M  V30 4815 H 468.524 0.541709 -2.9883 0
M  V30 4816 H 466.109 0.201565 -1.48034 0
M  V30 4817 H 467.991 2.99441 -2.96502 0
M  V30 4818 H 466.666 2.68349 -1.81026 0
M  V30 4819 H 465.573 1.16019 -3.55655 0
M  V30 4820 H 466.906 1.54516 -4.67317 0
M  V30 4821 N 468.558 1.5553 0.254621 0
M  V30 4822 C 469.835 1.6774 1.00611 0
M  V30 4823 C 470.215 0.555993 2.03647 0
M  V30 4824 O 469.563 -0.441583 2.24193 0
M  V30 4825 C 469.773 3.07725 1.6464 0
M  V30 4826 C 471.121 3.66074 2.15116 0
M  V30 4827 O 472.145 3.10476 1.74595 0
M  V30 4828 O 471.004 4.63526 2.89493 0
M  V30 4829 H 468.098 0.681958 0.467828 0
M  V30 4830 H 470.644 1.67863 0.24902 0
M  V30 4831 H 469.416 3.80792 0.900734 0
M  V30 4832 H 469.039 3.1158 2.46989 0
M  V30 4833 N 470.036 -0.519951 1.48776 0
M  V30 4834 C 471.283 -1.27522 1.57303 0
M  V30 4835 C 471.611 -1.92869 0.251328 0
M  V30 4836 O 470.866 -1.80372 -0.759243 0
M  V30 4837 C 471.165 -2.37864 2.6675 0
M  V30 4838 C 470.831 -1.90103 4.08867 0
M  V30 4839 C 469.493 -1.76795 4.47546 0
M  V30 4840 C 471.845 -1.54133 4.97888 0
M  V30 4841 C 469.173 -1.25868 5.73039 0
M  V30 4842 C 471.525 -1.04665 6.23881 0
M  V30 4843 C 470.189 -0.899823 6.61407 0
M  V30 4844 H 469.459 -0.466636 0.575614 0
M  V30 4845 H 472.106 -0.579109 1.82534 0
M  V30 4846 H 470.411 -3.13186 2.35418 0
M  V30 4847 H 472.108 -2.95969 2.70561 0
M  V30 4848 H 468.698 -2.01414 3.78326 0
M  V30 4849 H 472.882 -1.6327 4.68675 0
M  V30 4850 H 468.138 -1.13196 6.0083 0
M  V30 4851 H 472.312 -0.759074 6.92251 0
M  V30 4852 H 469.939 -0.503011 7.58534 0
M  V30 4853 N 471.514 -1.37532 -0.769588 0
M  V30 4854 C 472.444 -1.36172 -1.89682 0
M  V30 4855 C 473.425 -0.23001 -1.68538 0
M  V30 4856 O 474.61 -0.43069 -1.89364 0
M  V30 4857 C 471.74 -1.1701 -3.26995 0
M  V30 4858 C 470.694 -2.27216 -3.62708 0
M  V30 4859 C 470.02 -1.93174 -4.98586 0
M  V30 4860 C 471.32 -3.6941 -3.69234 0
M  V30 4861 H 473.014 -2.30499 -1.91078 0
M  V30 4862 H 470.56 -1.10953 -0.917902 0
M  V30 4863 H 472.513 -1.14688 -4.05493 0
M  V30 4864 H 471.237 -0.191395 -3.26039 0
M  V30 4865 H 469.896 -2.28697 -2.86519 0
M  V30 4866 H 469.544 -0.938281 -4.94171 0
M  V30 4867 H 469.244 -2.66973 -5.23449 0
M  V30 4868 H 470.768 -1.92443 -5.79481 0
M  V30 4869 H 472.182 -3.70047 -4.37879 0
M  V30 4870 H 470.579 -4.4228 -4.05597 0
M  V30 4871 H 471.649 -4.0288 -2.69844 0
M  V30 4872 N 472.992 0.995999 -1.22138 0
M  V30 4873 C 473.939 2.08551 -0.988687 0
M  V30 4874 C 474.909 1.65864 0.0885021 0
M  V30 4875 O 476.094 1.90704 -0.0604589 0
M  V30 4876 C 473.234 3.40374 -0.569191 0
M  V30 4877 C 472.347 3.96421 -1.71681 0
M  V30 4878 C 471.482 5.1639 -1.2456 0
M  V30 4879 C 470.521 5.64567 -2.36497 0
M  V30 4880 N 469.658 6.75777 -1.90445 0
M  V30 4881 H 474.498 2.2779 -1.92135 0
M  V30 4882 H 472.035 1.1168 -0.957388 0
M  V30 4883 H 473.993 4.16068 -0.307166 0
M  V30 4884 H 472.623 3.21145 0.326462 0
M  V30 4885 H 471.675 3.17628 -2.09324 0
M  V30 4886 H 472.987 4.2816 -2.55891 0
M  V30 4887 H 472.141 5.99362 -0.940774 0
M  V30 4888 H 470.88 4.86266 -0.373662 0
M  V30 4889 H 469.885 4.80185 -2.67772 0
M  V30 4890 H 471.11 5.96716 -3.24202 0
M  V30 4891 H 469.056 6.47443 -1.05609 0
M  V30 4892 H 468.973 7.06818 -2.68223 0
M  V30 4893 H 470.241 7.62262 -1.63022 0
M  V30 4894 N 474.47 1.03057 1.19235 0
M  V30 4895 C 475.695 0.74757 1.93458 0
M  V30 4896 C 476.12 -0.687648 1.7508 0
M  V30 4897 O 475.478 -1.47499 1.05422 0
M  V30 4898 C 475.526 1.10604 3.43219 0
M  V30 4899 O 474.63 0.225671 4.11782 0
M  V30 4900 H 473.971 0.276047 0.603899 0
M  V30 4901 H 476.501 1.3777 1.51263 0
M  V30 4902 H 476.511 1.06366 3.93891 0
M  V30 4903 H 475.186 2.15165 3.55917 0
M  V30 4904 H 473.763 0.326795 3.71465 0
M  V30 4905 N 475.948 -1.35272 0.808662 0
M  V30 4906 C 477.194 -1.99003 0.390581 0
M  V30 4907 C 477.527 -1.63999 -1.0401 0
M  V30 4908 O 476.802 -0.904368 -1.72196 0
M  V30 4909 C 477.085 -3.55454 0.576566 0
M  V30 4910 C 476.938 -4.00249 2.05233 0
M  V30 4911 C 478.257 -4.401 0.00354277 0
M  V30 4912 H 475.376 -0.722917 0.143388 0
M  V30 4913 H 478.018 -1.6039 1.01858 0
M  V30 4914 H 476.168 -3.88477 0.0419766 0
M  V30 4915 H 477.84 -3.77626 2.64946 0
M  V30 4916 H 476.083 -3.51082 2.54801 0
M  V30 4917 H 476.754 -5.0911 2.13333 0
M  V30 4918 H 479.23 -4.13548 0.460117 0
M  V30 4919 H 478.106 -5.48656 0.163575 0
M  V30 4920 H 478.367 -4.28444 -1.09032 0
M  V30 4921 N 477.426 -0.562348 -1.47226 0
M  V30 4922 C 478.654 -0.0452275 -2.06851 0
M  V30 4923 C 479.069 1.25078 -1.41424 0
M  V30 4924 O 478.426 1.75156 -0.512513 0
M  V30 4925 C 478.477 0.148674 -3.61194 0
M  V30 4926 O 478.198 -1.09602 -4.24169 0
M  V30 4927 C 479.699 0.702488 -4.37699 0
M  V30 4928 H 476.919 -0.0481775 -0.669268 0
M  V30 4929 H 479.463 -0.777223 -1.89155 0
M  V30 4930 H 477.618 0.830817 -3.78386 0
M  V30 4931 H 478.032 -0.896982 -5.16773 0
M  V30 4932 H 479.506 0.78743 -5.46355 0
M  V30 4933 H 479.983 1.71493 -4.04335 0
M  V30 4934 H 480.589 0.0558772 -4.25263 0
M  V30 4935 N 478.904 1.54736 -0.299062 0
M  V30 4936 C 480.132 2.04512 0.313447 0
M  V30 4937 C 480.547 1.17643 1.47667 0
M  V30 4938 O 479.904 0.20164 1.81383 0
M  V30 4939 C 479.955 3.53171 0.771542 0
M  V30 4940 O 479.676 4.36736 -0.345379 0
M  V30 4941 C 481.177 4.18936 1.4494 0
M  V30 4942 H 478.397 0.667507 0.0683784 0
M  V30 4943 H 480.941 1.99752 -0.438129 0
M  V30 4944 H 479.096 3.58298 1.47314 0
M  V30 4945 H 479.51 5.24499 0.0109219 0
M  V30 4946 H 480.984 5.24482 1.72111 0
M  V30 4947 H 481.461 3.68554 2.38883 0
M  V30 4948 H 482.067 4.17879 0.791028 0
M  V30 4949 N 480.382 0.0267497 1.57577 0
M  V30 4950 C 481.312 -0.954308 2.13108 0
M  V30 4951 C 482.293 -1.34088 1.04663 0
M  V30 4952 O 483.478 -1.41992 1.32484 0
M  V30 4953 C 480.608 -2.23744 2.65624 0
M  V30 4954 C 479.562 -1.99168 3.78835 0
M  V30 4955 C 478.888 -3.33726 4.17769 0
M  V30 4956 C 480.188 -1.33277 5.0501 0
M  V30 4957 H 481.882 -0.491848 2.95332 0
M  V30 4958 H 479.428 -0.23514 1.42067 0
M  V30 4959 H 481.381 -2.92754 3.03106 0
M  V30 4960 H 480.105 -2.72151 1.80558 0
M  V30 4961 H 478.764 -1.32577 3.41788 0
M  V30 4962 H 478.412 -3.79888 3.29688 0
M  V30 4963 H 478.112 -3.18089 4.94058 0
M  V30 4964 H 479.636 -4.04008 4.57832 0
M  V30 4965 H 481.05 -1.92283 5.40093 0
M  V30 4966 H 479.447 -1.28045 5.8628 0
M  V30 4967 H 480.517 -0.305411 4.83937 0
M  V30 4968 N 481.861 -1.55662 -0.24637 0
M  V30 4969 C 482.824 -1.89558 -1.28842 0
M  V30 4970 C 483.824 -0.772082 -1.41052 0
M  V30 4971 O 485.014 -1.04007 -1.39743 0
M  V30 4972 C 482.146 -2.12449 -2.66605 0
M  V30 4973 H 483.339 -2.82735 -1.00004 0
M  V30 4974 H 480.892 -1.48562 -0.485684 0
M  V30 4975 H 481.627 -1.21742 -3.00582 0
M  V30 4976 H 481.412 -2.94273 -2.59125 0
M  V30 4977 H 482.902 -2.39854 -3.41847 0
M  V30 4978 N 483.339 0.512053 -1.4905 0
M  V30 4979 C 484.272 1.63209 -1.59493 0
M  V30 4980 C 485.25 1.56407 -0.444481 0
M  V30 4981 O 486.434 1.76623 -0.658535 0
M  V30 4982 C 483.561 3.01685 -1.53961 0
M  V30 4983 C 482.607 3.26786 -2.74068 0
M  V30 4984 S 483.44 3.11107 -4.35859 0
M  V30 4985 C 484.596 4.51997 -4.32954 0
M  V30 4986 H 484.829 1.54104 -2.54243 0
M  V30 4987 H 482.362 0.696382 -1.37804 0
M  V30 4988 H 484.32 3.81538 -1.51455 0
M  V30 4989 H 482.981 3.08215 -0.605178 0
M  V30 4990 H 482.174 4.27849 -2.66386 0
M  V30 4991 H 481.776 2.54635 -2.73928 0
M  V30 4992 H 484.068 5.43871 -4.03993 0
M  V30 4993 H 485.011 4.64731 -5.34257 0
M  V30 4994 H 485.419 4.32159 -3.63178 0
M  V30 4995 N 484.817 1.37938 0.762283 0
M  V30 4996 C 485.764 1.34467 1.87583 0
M  V30 4997 C 486.734 0.208633 1.64785 0
M  V30 4998 O 487.919 0.399494 1.86571 0
M  V30 4999 C 485.059 1.16692 3.24772 0
M  V30 5000 C 484.172 2.39608 3.59461 0
M  V30 5001 C 483.307 2.14631 4.85908 0
M  V30 5002 C 482.346 3.33364 5.13357 0
M  V30 5003 N 481.483 3.07877 6.30996 0
M  V30 5004 H 486.323 2.29669 1.89885 0
M  V30 5005 H 483.86 1.14116 0.928219 0
M  V30 5006 H 485.818 1.04405 4.03925 0
M  V30 5007 H 484.448 0.251333 3.2182 0
M  V30 5008 H 483.5 2.626 2.75219 0
M  V30 5009 H 484.812 3.28128 3.75678 0
M  V30 5010 H 483.966 1.99429 5.72986 0
M  V30 5011 H 482.705 1.23463 4.71814 0
M  V30 5012 H 481.71 3.49094 4.24751 0
M  V30 5013 H 482.935 4.25395 5.29354 0
M  V30 5014 H 480.881 2.19348 6.18241 0
M  V30 5015 H 480.798 3.89944 6.47673 0
M  V30 5016 H 482.066 2.96313 7.20985 0
M  V30 5017 N 486.295 -0.989507 1.22664 0
M  V30 5018 C 487.258 -2.06183 1.00106 0
M  V30 5019 C 488.258 -1.60765 -0.0337726 0
M  V30 5020 O 489.448 -1.72989 0.205072 0
M  V30 5021 C 486.58 -3.37021 0.51279 0
M  V30 5022 H 487.773 -2.27629 1.95256 0
M  V30 5023 H 485.326 -1.16158 1.0458 0
M  V30 5024 H 486.061 -3.21261 -0.442917 0
M  V30 5025 H 485.846 -3.71323 1.25942 0
M  V30 5026 H 487.336 -4.1591 0.375315 0
M  V30 5027 N 487.773 -1.03688 -1.18687 0
M  V30 5028 C 488.72 -0.624624 -2.22187 0
M  V30 5029 C 489.69 0.365636 -1.62026 0
M  V30 5030 O 490.875 0.260481 -1.89014 0
M  V30 5031 C 488.015 0.0101738 -3.45099 0
M  V30 5032 C 487.128 -1.02709 -4.19613 0
M  V30 5033 C 486.263 -0.361213 -5.2997 0
M  V30 5034 C 485.302 -1.38384 -5.96252 0
M  V30 5035 N 484.439 -0.743196 -6.98155 0
M  V30 5036 H 489.279 -1.51176 -2.56807 0
M  V30 5037 H 486.816 -0.75636 -1.26165 0
M  V30 5038 H 488.774 0.395528 -4.15321 0
M  V30 5039 H 487.404 0.860848 -3.1111 0
M  V30 5040 H 486.456 -1.53043 -3.48256 0
M  V30 5041 H 487.768 -1.80398 -4.65036 0
M  V30 5042 H 486.922 0.0785537 -6.06649 0
M  V30 5043 H 485.661 0.447799 -4.8564 0
M  V30 5044 H 484.666 -1.83378 -5.18317 0
M  V30 5045 H 485.891 -2.19448 -6.42666 0
M  V30 5046 H 483.837 0.0455789 -6.55984 0
M  V30 5047 H 483.754 -1.45784 -7.41811 0
M  V30 5048 H 485.022 -0.327698 -7.78811 0
M  V30 5049 N 489.251 1.34841 -0.815825 0
M  V30 5050 C 490.491 2.00321 -0.406297 0
M  V30 5051 C 490.855 1.63293 1.00992 0
M  V30 5052 O 492.056 2.21563 1.52195 0
M  V30 5053 C 490.327 3.52421 -0.594469 0
M  V30 5054 S 491.886 4.37926 -0.276735 0
M  V30 5055 H 488.704 0.694155 -0.153848 0
M  V30 5056 H 491.306 1.64263 -1.06009 0
M  V30 5057 H 490.01 3.76858 -1.625 0
M  V30 5058 H 489.541 3.9333 0.0743157 0
M  V30 5059 H 491.556 4.87743 0.912215 0
M  V30 5060 N 490.729 0.570148 1.46925 0
M  V30 5061 C 491.676 -0.170257 2.30171 0
M  V30 5062 C 492.646 -0.896099 1.39855 0
M  V30 5063 O 493.831 -0.889248 1.68811 0
M  V30 5064 C 490.971 -1.18605 3.24079 0
M  V30 5065 C 490.084 -0.464947 4.29491 0
M  V30 5066 C 489.219 -1.46716 5.10537 0
M  V30 5067 C 488.258 -0.731758 6.0771 0
M  V30 5068 N 487.395 -1.68142 6.81669 0
M  V30 5069 H 492.235 0.545713 2.92961 0
M  V30 5070 H 489.772 0.280938 1.44392 0
M  V30 5071 H 491.73 -1.78771 3.76957 0
M  V30 5072 H 490.36 -1.86989 2.63125 0
M  V30 5073 H 489.412 0.251506 3.79568 0
M  V30 5074 H 490.724 0.110548 4.98677 0
M  V30 5075 H 489.878 -2.14199 5.6763 0
M  V30 5076 H 488.617 -2.07658 4.41282 0
M  V30 5077 H 487.622 -0.0430787 5.49783 0
M  V30 5078 H 488.847 -0.127904 6.7898 0
M  V30 5079 H 486.793 -2.27918 6.15134 0
M  V30 5080 H 486.71 -1.15841 7.47072 0
M  V30 5081 H 487.978 -2.347 7.43328 0
M  V30 5082 N 492.207 -1.54576 0.307264 0
M  V30 5083 C 493.137 -2.26708 -0.55907 0
M  V30 5084 C 494.118 -1.26893 -1.1328 0
M  V30 5085 O 495.303 -1.55677 -1.16097 0
M  V30 5086 C 492.433 -3.01259 -1.72801 0
M  V30 5087 C 491.387 -4.08275 -1.28435 0
M  V30 5088 C 490.713 -4.70575 -2.53895 0
M  V30 5089 C 492.013 -5.2068 -0.411038 0
M  V30 5090 H 493.707 -2.9937 0.042576 0
M  V30 5091 H 491.253 -1.43983 0.0219173 0
M  V30 5092 H 493.206 -3.50444 -2.34023 0
M  V30 5093 H 491.93 -2.26187 -2.356 0
M  V30 5094 H 490.589 -3.59949 -0.695161 0
M  V30 5095 H 490.237 -3.92136 -3.15021 0
M  V30 5096 H 489.937 -5.42854 -2.24908 0
M  V30 5097 H 491.461 -5.22527 -3.15908 0
M  V30 5098 H 492.875 -5.65721 -0.929097 0
M  V30 5099 H 491.272 -5.99716 -0.214664 0
M  V30 5100 H 492.342 -4.81629 0.562287 0
M  V30 5101 N 493.685 -0.035106 -1.57561 0
M  V30 5102 C 494.913 0.652258 -1.9635 0
M  V30 5103 C 495.328 1.65317 -0.911897 0
M  V30 5104 O 494.685 1.82194 0.105657 0
M  V30 5105 C 494.736 1.35337 -3.35211 0
M  V30 5106 O 494.457 0.392548 -4.36338 0
M  V30 5107 C 495.958 2.13199 -3.88666 0
M  V30 5108 H 493.178 0.179444 -0.646561 0
M  V30 5109 H 495.722 -0.0966459 -2.04271 0
M  V30 5110 H 493.877 2.05362 -3.28489 0
M  V30 5111 H 494.291 0.891097 -5.16875 0
M  V30 5112 H 495.765 2.577 -4.88154 0
M  V30 5113 H 496.242 2.97353 -3.23231 0
M  V30 5114 H 496.848 1.48118 -3.98674 0
M  V30 5115 N 495.163 1.55791 0.238111 0
M  V30 5116 C 496.412 1.77234 0.962868 0
M  V30 5117 C 496.725 0.600661 1.86149 0
M  V30 5118 O 497.931 0.698315 2.62366 0
M  V30 5119 C 496.387 3.13808 1.76218 0
M  V30 5120 C 495.995 4.3865 0.910518 0
M  V30 5121 C 497.739 3.44585 2.47914 0
M  V30 5122 C 495.646 5.66252 1.70623 0
M  V30 5123 H 494.576 0.660731 0.36325 0
M  V30 5124 H 497.227 1.8221 0.217242 0
M  V30 5125 H 495.609 3.02963 2.55009 0
M  V30 5126 H 496.783 4.60507 0.164316 0
M  V30 5127 H 495.098 4.15271 0.30647 0
M  V30 5128 H 497.695 4.3714 3.07917 0
M  V30 5129 H 498.038 2.66314 3.19973 0
M  V30 5130 H 498.571 3.56685 1.76127 0
M  V30 5131 H 495.31 6.47369 1.02923 0
M  V30 5132 H 494.83 5.48483 2.42748 0
M  V30 5133 H 496.509 6.05829 2.27114 0
M  V30 5134 N 496.642 -0.504142 1.49319 0
M  V30 5135 C 497.882 -1.26867 1.60263 0
M  V30 5136 C 498.246 -1.89924 0.281578 0
M  V30 5137 O 499.447 -2.67479 0.266176 0
M  V30 5138 C 497.718 -2.30956 2.72753 0
M  V30 5139 S 499.277 -3.1679 3.03628 0
M  V30 5140 H 496.095 -0.431198 0.565322 0
M  V30 5141 H 498.697 -0.571407 1.86963 0
M  V30 5142 H 497.401 -1.83156 3.67263 0
M  V30 5143 H 496.932 -3.05356 2.48035 0
M  V30 5144 H 498.947 -4.31549 2.44908 0
M  V30 5145 N 498.12 -1.38341 -0.754957 0
M  V30 5146 C 499.531 -1.30803 -1.3322 0
M  V30 5147 C 499.882 0.0368 -1.96165 0
M  V30 5148 O 499.007 0.938844 -1.94974 0
M  V30 5149 C 499.602 -2.3688 -2.42225 0
M  V30 5150 C 498.161 -2.32925 -2.95674 0
M  V30 5151 C 497.308 -2.19819 -1.69042 0
M  V30 5152 H 500.259 -1.48719 -0.553937 0
M  V30 5153 H 500.28 -2.02517 -3.22129 0
M  V30 5154 H 499.792 -3.34747 -1.96383 0
M  V30 5155 H 497.893 -1.38635 -3.45848 0
M  V30 5156 H 498.006 -3.27008 -3.50146 0
M  V30 5157 H 496.37 -1.66648 -1.92615 0
M  V30 5158 H 497.153 -3.19625 -1.25279 0
M  V30 5159 N 499.598 0.982988 -1.23187 0
M  V30 5160 C 500.508 2.10907 -1.02739 0
M  V30 5161 C 501.524 1.73979 0.0273188 0
M  V30 5162 O 502.7 2.00702 -0.16757 0
M  V30 5163 C 499.765 3.41142 -0.618304 0
M  V30 5164 C 498.826 3.92112 -1.74777 0
M  V30 5165 C 498.059 5.16131 -1.3581 0
M  V30 5166 O 498.282 5.6989 -0.241201 0
M  V30 5167 O 497.216 5.61103 -2.17824 0
M  V30 5168 H 501.042 2.31046 -1.97108 0
M  V30 5169 H 498.627 1.09284 -1.01869 0
M  V30 5170 H 500.509 4.19488 -0.400982 0
M  V30 5171 H 499.184 3.2234 0.296421 0
M  V30 5172 H 498.091 3.14895 -2.0197 0
M  V30 5173 H 499.424 4.15364 -2.64071 0
M  V30 5174 N 501.076 1.04316 1.18135 0
M  V30 5175 C 501.986 0.646876 2.25505 0
M  V30 5176 C 503.002 -0.328008 1.7088 0
M  V30 5177 O 504.178 -0.182309 2.00573 0
M  V30 5178 C 501.243 0.0185664 3.46695 0
M  V30 5179 C 500.304 1.04277 4.16443 0
M  V30 5180 C 499.537 0.444352 5.31847 0
M  V30 5181 O 499.76 -0.748735 5.65465 0
M  V30 5182 O 498.694 1.17428 5.90334 0
M  V30 5183 H 502.52 1.54147 2.61672 0
M  V30 5184 H 500.105 0.814188 1.25265 0
M  V30 5185 H 501.987 -0.331068 4.20097 0
M  V30 5186 H 500.662 -0.849814 3.12346 0
M  V30 5187 H 499.569 1.44425 3.45098 0
M  V30 5188 H 500.902 1.882 4.54798 0
M  V30 5189 N 502.554 -1.34406 0.822964 0
M  V30 5190 C 503.464 -2.33298 0.246838 0
M  V30 5191 C 504.48 -1.62625 -0.618797 0
M  V30 5192 O 505.656 -1.94391 -0.526685 0
M  V30 5193 C 502.721 -3.41785 -0.581731 0
M  V30 5194 C 501.782 -4.28206 0.306309 0
M  V30 5195 C 501.015 -5.31512 -0.48281 0
M  V30 5196 O 501.238 -5.43973 -1.71607 0
M  V30 5197 O 500.172 -6.01749 0.134884 0
M  V30 5198 H 503.998 -2.84401 1.06534 0
M  V30 5199 H 501.583 -1.37466 0.585108 0
M  V30 5200 H 503.465 -4.08028 -1.05313 0
M  V30 5201 H 502.14 -2.92925 -1.37756 0
M  V30 5202 H 501.047 -3.64885 0.825199 0
M  V30 5203 H 502.38 -4.80507 1.06649 0
M  V30 5204 N 504.032 -0.577932 -1.46621 0
M  V30 5205 C 504.98 0.170882 -2.31971 0
M  V30 5206 C 505.974 0.889086 -1.44193 0
M  V30 5207 O 507.18 0.808017 -1.60845 0
M  V30 5208 H 503.555 0.0739763 -0.748353 0
M  V30 5209 H 505.526 -0.567856 -2.92947 0
M  V30 5210 C 504.275 1.17438 -3.27267 0
M  V30 5211 H 503.598 0.63116 -3.94787 0
M  V30 5212 H 505.038 1.66882 -3.89778 0
M  V30 5213 C 503.497 2.23292 -2.52274 0
M  V30 5214 O 504.027 3.30567 -2.28229 0
M  V30 5215 N 502.233 1.97772 -2.12919 0
M  V30 5216 H 501.78 1.10545 -2.32675 0
M  V30 5217 H 501.738 2.68809 -1.63062 0
M  V30 5218 N 505.51 1.54411 -0.315457 0
M  V30 5219 C 506.443 2.20265 0.596522 0
M  V30 5220 C 507.421 1.17693 1.12192 0
M  V30 5221 O 508.605 1.46397 1.18744 0
M  V30 5222 C 505.732 2.85794 1.81767 0
M  V30 5223 C 504.778 4.02017 1.42424 0
M  V30 5224 S 505.611 5.33452 0.467836 0
M  V30 5225 C 506.767 6.02471 1.69645 0
M  V30 5226 H 507 2.97277 0.0370896 0
M  V30 5227 H 504.533 1.54079 -0.0995562 0
M  V30 5228 H 506.491 3.24172 2.51839 0
M  V30 5229 H 505.152 2.08601 2.34828 0
M  V30 5230 H 504.345 4.46701 2.33396 0
M  V30 5231 H 503.947 3.65271 0.803311 0
M  V30 5232 H 506.239 6.24157 2.63504 0
M  V30 5233 H 507.182 6.96215 1.29192 0
M  V30 5234 H 507.59 5.32284 1.87974 0
M  V30 5235 N 506.988 0.0434614 1.5754 0
M  V30 5236 C 508.265 -0.671479 1.83713 0
M  V30 5237 C 508.645 -1.89495 0.930315 0
M  V30 5238 O 507.993 -2.28498 -0.0105639 0
M  V30 5239 C 508.203 -1.0361 3.33266 0
M  V30 5240 C 509.551 -1.42167 4.00092 0
M  V30 5241 O 510.575 -1.12866 3.37846 0
M  V30 5242 O 509.434 -1.96817 5.09829 0
M  V30 5243 H 506.528 -0.330726 0.75799 0
M  V30 5244 H 509.074 0.0722373 1.69546 0
M  V30 5245 H 507.846 -0.165938 3.90948 0
M  V30 5246 H 507.469 -1.83751 3.52592 0
M  V30 5247 N 508.466 -1.55915 -0.229846 0
M  V30 5248 C 509.743 -1.6932 -0.979295 0
M  V30 5249 C 510.123 -0.588321 -2.02736 0
M  V30 5250 O 509.471 0.40586 -2.24867 0
M  V30 5251 C 509.681 -3.10305 -1.59724 0
M  V30 5252 C 511.029 -3.6945 -2.09264 0
M  V30 5253 O 512.053 -3.13214 -1.69633 0
M  V30 5254 O 510.912 -4.68072 -2.82082 0
M  V30 5255 H 508.006 -0.689314 -0.456919 0
M  V30 5256 H 510.552 -1.68238 -0.222283 0
M  V30 5257 H 509.324 -3.82177 -0.840039 0
M  V30 5258 H 508.947 -3.1547 -2.42001 0
M  V30 5259 N 509.944 0.496216 -1.49584 0
M  V30 5260 C 510.876 1.61404 -1.62731 0
M  V30 5261 C 511.889 1.54613 -0.50978 0
M  V30 5262 O 513.078 1.60458 -0.782017 0
M  V30 5263 C 510.178 3.00212 -1.57245 0
M  V30 5264 C 509.351 3.32138 -2.84611 0
M  V30 5265 C 508.41 4.5038 -2.72112 0
M  V30 5266 O 507.436 4.51926 -3.46051 0
M  V30 5267 N 508.638 5.50575 -1.83977 0
M  V30 5268 H 511.403 1.50552 -2.59141 0
M  V30 5269 H 508.964 0.684182 -1.46733 0
M  V30 5270 H 510.956 3.77241 -1.4653 0
M  V30 5271 H 509.526 3.04964 -0.686729 0
M  V30 5272 H 508.746 2.4396 -3.09641 0
M  V30 5273 H 510.034 3.50268 -3.69039 0
M  V30 5274 H 509.432 5.52128 -1.23171 0
M  V30 5275 H 507.989 6.26687 -1.79182 0
M  V30 5276 N 511.423 1.38739 0.74761 0
M  V30 5277 C 512.669 1.3648 1.50814 0
M  V30 5278 C 513.024 -0.0431982 1.92351 0
M  V30 5279 O 512.317 -1.0071 1.62997 0
M  V30 5280 C 512.511 2.25992 2.7688 0
M  V30 5281 C 512.34 3.75354 2.47668 0
M  V30 5282 C 511.11 4.44348 2.40589 0
M  V30 5283 C 513.308 4.67642 2.14046 0
M  V30 5284 N 511.29 5.79114 2.03715 0
M  V30 5285 C 512.661 5.90965 1.87512 0
M  V30 5286 C 514.716 4.55787 2.00407 0
M  V30 5287 C 513.419 7.03759 1.48714 0
M  V30 5288 C 515.445 5.68491 1.63011 0
M  V30 5289 C 514.807 6.90879 1.37353 0
M  V30 5290 H 510.906 0.554695 0.551214 0
M  V30 5291 H 513.49 1.7418 0.870033 0
M  V30 5292 H 511.661 1.9047 3.3849 0
M  V30 5293 H 513.393 2.14815 3.42982 0
M  V30 5294 H 510.148 3.97634 2.57262 0
M  V30 5295 H 510.572 6.504 1.87906 0
M  V30 5296 H 515.214 3.61712 2.18916 0
M  V30 5297 H 512.932 7.97746 1.28945 0
M  V30 5298 H 516.518 5.613 1.53081 0
M  V30 5299 H 515.398 7.76609 1.08848 0
M  V30 5300 N 512.901 -0.976442 1.23707 0
M  V30 5301 C 513.834 -2.06793 0.964973 0
M  V30 5302 C 514.812 -1.62304 -0.0981472 0
M  V30 5303 O 515.996 -1.88464 0.0369477 0
M  V30 5304 C 513.123 -3.35636 0.454522 0
M  V30 5305 C 512.169 -3.99069 1.50485 0
M  V30 5306 S 513.002 -4.37814 3.0835 0
M  V30 5307 C 514.158 -5.69805 2.58985 0
M  V30 5308 H 514.391 -2.29556 1.88922 0
M  V30 5309 H 511.924 -1.11317 1.06995 0
M  V30 5310 H 513.882 -4.10162 0.166626 0
M  V30 5311 H 512.543 -3.10876 -0.448871 0
M  V30 5312 H 511.736 -4.91896 1.09792 0
M  V30 5313 H 511.338 -3.30938 1.7423 0
M  V30 5314 H 513.63 -6.46919 2.01252 0
M  V30 5315 H 514.573 -6.15345 3.50366 0
M  V30 5316 H 514.981 -5.27994 1.99705 0
M  V30 5317 N 514.379 -1.04941 -1.1758 0
M  V30 5318 C 515.311 -0.606174 -2.21039 0
M  V30 5319 C 516.324 0.328763 -1.59446 0
M  V30 5320 O 517.513 0.121895 -1.78083 0
M  V30 5321 C 514.613 0.133294 -3.38638 0
M  V30 5322 C 513.786 -0.811711 -4.29802 0
M  V30 5323 C 512.845 -0.113958 -5.26077 0
M  V30 5324 O 511.871 -0.747237 -5.64274 0
M  V30 5325 N 513.073 1.14953 -5.69004 0
M  V30 5326 H 515.838 -1.49606 -2.59689 0
M  V30 5327 H 513.399 -0.930997 -1.32454 0
M  V30 5328 H 515.391 0.610144 -4.00074 0
M  V30 5329 H 513.961 0.924816 -2.98607 0
M  V30 5330 H 513.181 -1.46824 -3.65837 0
M  V30 5331 H 514.469 -1.45326 -4.87604 0
M  V30 5332 H 513.867 1.68441 -5.40041 0
M  V30 5333 H 512.424 1.57049 -6.32597 0
M  V30 5334 N 515.857 1.33968 -0.830081 0
M  V30 5335 C 517.134 1.92554 -0.343858 0
M  V30 5336 C 517.514 1.7573 1.16971 0
M  V30 5337 O 516.862 1.14035 1.98011 0
M  V30 5338 C 517.072 3.40147 -0.781073 0
M  V30 5339 C 518.42 4.17299 -0.78402 0
M  V30 5340 O 519.444 3.48762 -0.724112 0
M  V30 5341 O 518.303 5.39631 -0.863739 0
M  V30 5342 H 515.397 0.821469 -0.0954827 0
M  V30 5343 H 517.943 1.42897 -0.915348 0
M  V30 5344 H 516.715 3.46225 -1.82329 0
M  V30 5345 H 516.338 3.97166 -0.18567 0
M  V30 5346 N 517.335 0.585699 1.46312 0
M  V30 5347 C 518.245 -0.148236 2.34131 0
M  V30 5348 C 519.261 -0.882972 1.49932 0
M  V30 5349 O 520.437 -0.845484 1.82794 0
M  V30 5350 C 517.502 -1.14714 3.27172 0
M  V30 5351 C 516.563 -0.416746 4.27272 0
M  V30 5352 C 515.796 -1.36806 5.15868 0
M  V30 5353 O 516.019 -2.60475 5.07454 0
M  V30 5354 O 514.953 -0.877018 5.95476 0
M  V30 5355 H 518.779 0.572882 2.98248 0
M  V30 5356 H 516.364 0.346082 1.45336 0
M  V30 5357 H 518.246 -1.72303 3.84564 0
M  V30 5358 H 516.921 -1.84967 2.65648 0
M  V30 5359 H 515.828 0.201061 3.73559 0
M  V30 5360 H 517.161 0.244872 4.9159 0
M  V30 5361 N 518.813 -1.54241 0.323641 0
M  V30 5362 C 519.746 -2.20579 -0.584833 0
M  V30 5363 C 520.724 -1.18286 -1.11567 0
M  V30 5364 O 521.908 -1.47025 -1.17966 0
M  V30 5365 C 519.035 -2.86754 -1.80249 0
M  V30 5366 C 518.081 -4.02767 -1.4029 0
M  V30 5367 S 518.914 -5.33693 -0.439539 0
M  V30 5368 C 520.07 -6.03362 -1.66448 0
M  V30 5369 H 520.303 -2.97292 -0.0213238 0
M  V30 5370 H 517.836 -1.54024 0.107726 0
M  V30 5371 H 519.794 -3.25503 -2.50116 0
M  V30 5372 H 518.455 -2.09844 -2.33719 0
M  V30 5373 H 517.648 -4.47933 -2.31024 0
M  V30 5374 H 517.25 -3.65692 -0.783928 0
M  V30 5375 H 519.542 -6.25546 -2.6019 0
M  V30 5376 H 520.485 -6.9689 -1.25498 0
M  V30 5377 H 520.893 -5.33273 -1.85149 0
M  V30 5378 N 520.291 -0.0518155 -1.57515 0
M  V30 5379 C 521.201 0.937539 -2.15052 0
M  V30 5380 C 522.217 1.34121 -1.10849 0
M  V30 5381 O 523.393 1.418 -1.4302 0
M  V30 5382 C 520.458 2.19379 -2.68466 0
M  V30 5383 C 519.519 1.84841 -3.87469 0
M  V30 5384 C 518.752 3.04477 -4.38326 0
M  V30 5385 O 518.975 4.17868 -3.88256 0
M  V30 5386 O 517.909 2.85453 -5.29906 0
M  V30 5387 H 521.735 0.478201 -2.99912 0
M  V30 5388 H 519.32 0.17012 -1.48428 0
M  V30 5389 H 521.202 2.93084 -3.02787 0
M  V30 5390 H 519.877 2.64449 -1.86677 0
M  V30 5391 H 518.784 1.08449 -3.58036 0
M  V30 5392 H 520.117 1.44569 -4.7049 0
M  V30 5393 N 521.769 1.56035 0.221574 0
M  V30 5394 C 523.018 1.78245 0.944016 0
M  V30 5395 C 523.331 0.620371 1.85501 0
M  V30 5396 O 524.537 0.726103 2.6161 0
M  V30 5397 C 522.993 3.15659 1.7288 0
M  V30 5398 C 522.601 4.39591 0.863942 0
M  V30 5399 C 524.345 3.47195 2.44246 0
M  V30 5400 C 522.252 5.6803 1.64607 0
M  V30 5401 H 521.182 0.664547 0.356222 0
M  V30 5402 H 523.833 1.8243 0.197904 0
M  V30 5403 H 522.215 3.0565 2.51781 0
M  V30 5404 H 523.389 4.60655 0.115464 0
M  V30 5405 H 521.704 4.15572 0.262407 0
M  V30 5406 H 524.301 4.40381 3.03263 0
M  V30 5407 H 524.644 2.69693 3.1713 0
M  V30 5408 H 525.177 3.58533 1.72334 0
M  V30 5409 H 521.916 6.48425 0.960507 0
M  V30 5410 H 521.436 5.51027 2.36917 0
M  V30 5411 H 523.115 6.08203 2.20675 0
M  V30 5412 N 523.247 -0.488276 1.49845 0
M  V30 5413 C 524.495 -1.23911 1.59657 0
M  V30 5414 C 524.816 -1.92816 0.291005 0
M  V30 5415 O 524.086 -1.83328 -0.690485 0
M  V30 5416 H 522.666 -0.460357 0.588286 0
M  V30 5417 H 525.328 -0.564794 1.86537 0
M  V30 5418 H 524.424 -1.99625 2.39909 0
M  V30 5419 N 524.725 -1.39134 -0.740242 0
M  V30 5420 C 525.955 -1.39132 -1.52728 0
M  V30 5421 C 526.363 0.0173133 -1.89192 0
M  V30 5422 O 525.706 0.997715 -1.54244 0
M  V30 5423 C 525.768 -2.1952 -2.84695 0
M  V30 5424 C 525.432 -3.68203 -2.70695 0
M  V30 5425 C 526.429 -4.61401 -2.39593 0
M  V30 5426 C 524.114 -4.11724 -2.8773 0
M  V30 5427 C 526.108 -5.96102 -2.25701 0
M  V30 5428 C 523.795 -5.46503 -2.73456 0
M  V30 5429 C 524.793 -6.38506 -2.42486 0
M  V30 5430 O 524.481 -7.70803 -2.28295 0
M  V30 5431 H 524.213 -0.477263 -0.478744 0
M  V30 5432 H 526.767 -1.83504 -0.922799 0
M  V30 5433 H 524.997 -1.69888 -3.47383 0
M  V30 5434 H 526.686 -2.1176 -3.46284 0
M  V30 5435 H 527.452 -4.29079 -2.26088 0
M  V30 5436 H 523.331 -3.4045 -3.10829 0
M  V30 5437 H 526.875 -6.6788 -2.0145 0
M  V30 5438 H 522.772 -5.78417 -2.86538 0
M  V30 5439 H 523.54 -7.8147 -2.43405 0
M  V30 5440 N 526.204 0.969867 -1.24223 0
M  V30 5441 C 527.453 1.70687 -1.07466 0
M  V30 5442 C 527.766 1.91736 0.386861 0
M  V30 5443 O 528.972 2.62986 0.674581 0
M  V30 5444 C 527.428 3.07217 -1.87472 0
M  V30 5445 C 527.036 2.94018 -3.3802 0
M  V30 5446 C 528.78 3.84804 -1.79237 0
M  V30 5447 C 526.687 4.25844 -4.10379 0
M  V30 5448 H 525.617 0.640067 -0.398536 0
M  V30 5449 H 528.268 1.08092 -1.48285 0
M  V30 5450 H 526.65 3.70628 -1.39466 0
M  V30 5451 H 527.824 2.39632 -3.9359 0
M  V30 5452 H 526.139 2.29898 -3.47183 0
M  V30 5453 H 528.736 4.82417 -2.30603 0
M  V30 5454 H 529.079 4.09356 -0.757197 0
M  V30 5455 H 529.612 3.28115 -2.24912 0
M  V30 5456 H 526.351 4.06486 -5.14246 0
M  V30 5457 H 525.871 4.80054 -3.59594 0
M  V30 5458 H 527.55 4.94475 -4.17257 0
M  V30 5459 N 527.682 1.05563 1.17022 0
M  V30 5460 C 528.614 0.617888 2.20714 0
M  V30 5461 C 529.627 -0.320303 1.59618 0
M  V30 5462 O 530.816 -0.112449 1.78145 0
M  V30 5463 C 527.916 -0.115333 3.38704 0
M  V30 5464 C 527.089 0.834493 4.29366 0
M  V30 5465 C 526.148 0.141855 5.26009 0
M  V30 5466 O 525.174 0.777151 5.6387 0
M  V30 5467 N 526.376 -1.11934 5.69606 0
M  V30 5468 H 529.141 1.50981 2.58892 0
M  V30 5469 H 526.702 0.938008 1.31958 0
M  V30 5470 H 528.694 -0.588918 4.00392 0
M  V30 5471 H 527.264 -0.908967 2.99093 0
M  V30 5472 H 526.484 1.48762 3.65053 0
M  V30 5473 H 527.772 1.4791 4.86827 0
M  V30 5474 H 527.17 -1.65574 5.40927 0
M  V30 5475 H 525.727 -1.53692 6.33421 0
M  V30 5476 N 529.16 -1.33526 0.837174 0
M  V30 5477 C 530.123 -2.27551 0.274421 0
M  V30 5478 C 531.123 -1.50886 -0.555881 0
M  V30 5479 O 532.313 -1.70227 -0.369918 0
M  V30 5480 C 529.445 -3.35332 -0.613605 0
M  V30 5481 H 530.638 -2.78837 1.10408 0
M  V30 5482 H 528.191 -1.439 0.610126 0
M  V30 5483 H 528.926 -2.89285 -1.46577 0
M  V30 5484 H 528.711 -3.92095 -0.0195341 0
M  V30 5485 H 530.201 -4.05433 -1.00068 0
M  V30 5486 N 530.638 -0.59345 -1.46 0
M  V30 5487 C 532.049 -0.169801 -1.85926 0
M  V30 5488 C 532.4 1.26984 -1.49565 0
M  V30 5489 O 531.525 1.96076 -0.915602 0
M  V30 5490 C 532.12 -0.301385 -3.37457 0
M  V30 5491 C 530.679 0.0674684 -3.7634 0
M  V30 5492 C 529.826 -0.632383 -2.69993 0
M  V30 5493 H 532.777 -0.801014 -1.37002 0
M  V30 5494 H 532.798 0.470331 -3.77582 0
M  V30 5495 H 532.31 -1.34927 -3.63891 0
M  V30 5496 H 530.411 1.11507 -3.55523 0
M  V30 5497 H 530.524 -0.316332 -4.78055 0
M  V30 5498 H 528.888 -0.0714961 -2.546 0
M  V30 5499 H 529.671 -1.68212 -2.99265 0
M  V30 5500 N 532.116 1.54067 -0.331816 0
M  V30 5501 C 533.066 2.21363 0.546101 0
M  V30 5502 C 534.05 1.19698 1.07523 0
M  V30 5503 O 535.242 1.45293 1.01088 0
M  V30 5504 C 532.371 2.98115 1.70242 0
M  V30 5505 C 531.457 4.07127 1.18779 0
M  V30 5506 N 531.848 5.04267 0.393465 0
M  V30 5507 C 530.146 4.21226 1.46576 0
M  V30 5508 C 530.847 5.81585 0.115572 0
M  V30 5509 N 529.823 5.39022 0.703987 0
M  V30 5510 H 533.625 2.93821 -0.0679751 0
M  V30 5511 H 531.139 1.61812 -0.138085 0
M  V30 5512 H 533.136 3.44818 2.34321 0
M  V30 5513 H 531.796 2.27181 2.31989 0
M  V30 5514 H 532.807 5.17888 0.0355757 0
M  V30 5515 H 529.484 3.61509 2.08848 0
M  V30 5516 H 530.874 6.6985 -0.524426 0
M  V30 5517 N 533.594 0.0601682 1.57485 0
M  V30 5518 C 534.541 -0.91112 2.12055 0
M  V30 5519 C 535.511 -1.30298 1.03013 0
M  V30 5520 O 536.696 -1.39087 1.30612 0
M  V30 5521 C 533.836 -2.1775 2.67729 0
M  V30 5522 C 532.949 -1.83933 3.90887 0
M  V30 5523 C 532.084 -3.05096 4.34845 0
M  V30 5524 C 531.123 -2.67241 5.5068 0
M  V30 5525 N 530.26 -3.81127 5.8965 0
M  V30 5526 H 535.1 -0.43888 2.9475 0
M  V30 5527 H 532.637 -0.204995 1.45665 0
M  V30 5528 H 534.595 -2.91866 2.98111 0
M  V30 5529 H 533.225 -2.62535 1.87816 0
M  V30 5530 H 532.277 -0.999287 3.6704 0
M  V30 5531 H 533.589 -1.52074 4.75052 0
M  V30 5532 H 532.743 -3.87502 4.66827 0
M  V30 5533 H 531.482 -3.40139 3.49509 0
M  V30 5534 H 530.487 -1.83254 5.18361 0
M  V30 5535 H 531.712 -2.3338 6.37738 0
M  V30 5536 H 529.658 -4.15954 5.07266 0
M  V30 5537 H 529.575 -3.52997 6.68528 0
M  V30 5538 H 530.843 -4.64145 6.2625 0
M  V30 5539 N 535.072 -1.5615 -0.213296 0
M  V30 5540 C 536.3 -1.83638 -0.953139 0
M  V30 5541 C 536.715 -0.640362 -1.77609 0
M  V30 5542 O 536.072 0.391071 -1.78261 0
M  V30 5543 C 536.123 -3.09735 -1.86405 0
M  V30 5544 O 535.844 -4.24723 -1.07435 0
M  V30 5545 C 537.345 -3.5027 -2.71709 0
M  V30 5546 H 534.565 -0.610263 -0.278962 0
M  V30 5547 H 537.109 -2.03247 -0.226035 0
M  V30 5548 H 535.264 -2.92077 -2.545 0
M  V30 5549 H 535.678 -4.9641 -1.69343 0
M  V30 5550 H 537.152 -4.41515 -3.31313 0
M  V30 5551 H 537.629 -2.72406 -3.44516 0
M  V30 5552 H 538.235 -3.70396 -2.09015 0
M  V30 5553 N 536.55 0.480323 -1.50102 0
M  V30 5554 C 537.48 1.58769 -1.71215 0
M  V30 5555 C 538.461 1.60583 -0.560997 0
M  V30 5556 O 539.646 1.76996 -0.799127 0
M  V30 5557 C 536.776 2.97148 -1.79778 0
M  V30 5558 C 535.73 3.10201 -2.94888 0
M  V30 5559 C 535.056 4.50137 -2.88584 0
M  V30 5560 C 536.356 2.88283 -4.35534 0
M  V30 5561 H 538.05 1.41354 -2.6393 0
M  V30 5562 H 535.596 0.678591 -1.27008 0
M  V30 5563 H 537.549 3.74536 -1.93133 0
M  V30 5564 H 536.273 3.15699 -0.836772 0
M  V30 5565 H 534.932 2.35244 -2.81169 0
M  V30 5566 H 534.58 4.65593 -1.90349 0
M  V30 5567 H 534.28 4.59808 -3.65856 0
M  V30 5568 H 535.804 5.29558 -3.03976 0
M  V30 5569 H 537.218 3.55427 -4.49827 0
M  V30 5570 H 535.615 3.09408 -5.14186 0
M  V30 5571 H 536.685 1.84219 -4.48544 0
M  V30 5572 N 538.028 1.39524 0.732853 0
M  V30 5573 C 539.439 1.32905 1.31122 0
M  V30 5574 C 539.79 -0.00558708 1.96199 0
M  V30 5575 O 538.915 -0.907706 1.96443 0
M  V30 5576 C 539.51 2.40704 2.38426 0
M  V30 5577 C 538.069 2.37599 2.91931 0
M  V30 5578 C 537.216 2.2248 1.65523 0
M  V30 5579 H 540.167 1.49581 0.530207 0
M  V30 5580 H 540.188 2.07616 3.18867 0
M  V30 5581 H 539.7 3.37829 1.91033 0
M  V30 5582 H 537.801 1.44119 3.43599 0
M  V30 5583 H 537.914 3.32538 3.44899 0
M  V30 5584 H 536.278 1.69691 1.8994 0
M  V30 5585 H 537.061 3.21577 1.20178 0
M  V30 5586 N 539.506 -0.963266 1.24736 0
M  V30 5587 C 540.752 -1.70933 1.09131 0
M  V30 5588 C 541.085 -1.90676 -0.368273 0
M  V30 5589 O 540.36 -1.47147 -1.27193 0
M  V30 5590 C 540.643 -3.09744 1.83658 0
M  V30 5591 C 540.496 -2.97465 3.37394 0
M  V30 5592 C 541.815 -4.09483 1.61282 0
M  V30 5593 H 538.934 -0.620398 0.397838 0
M  V30 5594 H 541.576 -1.12028 1.53459 0
M  V30 5595 H 539.726 -3.60031 1.4598 0
M  V30 5596 H 541.398 -2.54571 3.84696 0
M  V30 5597 H 539.641 -2.33576 3.65547 0
M  V30 5598 H 540.312 -3.95822 3.84745 0
M  V30 5599 H 542.788 -3.68073 1.94066 0
M  V30 5600 H 541.664 -5.04666 2.15878 0
M  V30 5601 H 541.925 -4.38639 0.552102 0
M  V30 5602 N 540.985 -1.06182 -1.16461 0
M  V30 5603 C 542.231 -0.779015 -1.87241 0
M  V30 5604 C 542.564 0.692715 -1.81425 0
M  V30 5605 O 541.839 1.5074 -1.22913 0
M  V30 5606 C 542.122 -1.2728 -3.36856 0
M  V30 5607 C 541.975 -2.80821 -3.51368 0
M  V30 5608 C 543.294 -0.879799 -4.31216 0
M  V30 5609 H 540.413 -0.284464 -0.679889 0
M  V30 5610 H 543.055 -1.31755 -1.36896 0
M  V30 5611 H 541.205 -0.814673 -3.79862 0
M  V30 5612 H 542.877 -3.34833 -3.17308 0
M  V30 5613 H 541.12 -3.19606 -2.93316 0
M  V30 5614 H 541.791 -3.10435 -4.56436 0
M  V30 5615 H 544.267 -1.27436 -3.96105 0
M  V30 5616 H 543.143 -1.25278 -5.34412 0
M  V30 5617 H 543.404 0.215372 -4.41575 0
M  V30 5618 N 542.463 1.3308 -0.844243 0
M  V30 5619 C 543.71 1.97605 -0.44255 0
M  V30 5620 C 544.038 1.66856 0.999458 0
M  V30 5621 O 543.293 0.943586 1.7145 0
M  V30 5622 C 543.592 3.52045 -0.616354 0
M  V30 5623 C 543.258 4.02757 -2.02726 0
M  V30 5624 C 541.92 4.16316 -2.41317 0
M  V30 5625 C 544.272 4.29776 -2.9486 0
M  V30 5626 C 541.6 4.54232 -3.71335 0
M  V30 5627 C 543.952 4.69146 -4.24364 0
M  V30 5628 C 542.616 4.80911 -4.62904 0
M  V30 5629 H 541.886 0.723088 -0.161941 0
M  V30 5630 H 544.533 1.58663 -1.0723 0
M  V30 5631 H 542.838 3.91681 0.0966812 0
M  V30 5632 H 544.535 3.99981 -0.285756 0
M  V30 5633 H 541.125 3.9268 -1.71756 0
M  V30 5634 H 545.309 4.18818 -2.6628 0
M  V30 5635 H 540.565 4.61535 -4.00993 0
M  V30 5636 H 544.739 4.89008 -4.95827 0
M  V30 5637 H 542.366 5.10048 -5.63698 0
M  V30 5638 N 543.941 0.601185 1.45683 0
M  V30 5639 C 545.218 0.0261659 1.95582 0
M  V30 5640 C 545.598 -1.4399 1.5437 0
M  V30 5641 O 544.946 -2.13919 0.80318 0
M  V30 5642 C 545.156 0.217557 3.48321 0
M  V30 5643 C 546.504 0.0950076 4.24494 0
M  V30 5644 O 547.528 0.147345 3.55895 0
M  V30 5645 O 546.387 -0.025261 5.46494 0
M  V30 5646 H 543.481 -0.0393688 0.826062 0
M  V30 5647 H 546.027 0.670798 1.55879 0
M  V30 5648 H 544.799 1.23601 3.71266 0
M  V30 5649 H 544.422 -0.46264 3.94899 0
M  V30 5650 N 545.419 -1.53889 0.339982 0
M  V30 5651 C 546.644 -2.05741 -0.261798 0
M  V30 5652 C 547.069 -1.21354 -1.43718 0
M  V30 5653 O 546.427 -0.22645 -1.7988 0
M  V30 5654 C 546.475 -3.54542 -0.658228 0
M  V30 5655 O 545.579 -3.7302 -1.75869 0
M  V30 5656 H 544.92 -0.662529 -0.0441672 0
M  V30 5657 H 547.45 -1.98568 0.493161 0
M  V30 5658 H 547.46 -3.9711 -0.936368 0
M  V30 5659 H 546.135 -4.15412 0.201358 0
M  V30 5660 H 544.712 -3.42355 -1.47809 0
M  V30 5661 N 546.897 -0.0685191 -1.57451 0
M  V30 5662 C 548.308 0.464634 -1.80826 0
M  V30 5663 C 548.659 1.69847 -0.982169 0
M  V30 5664 O 547.784 2.15439 -0.203734 0
M  V30 5665 C 548.379 0.849721 -3.27971 0
M  V30 5666 C 546.938 1.32776 -3.52204 0
M  V30 5667 C 546.085 0.311332 -2.75547 0
M  V30 5668 H 549.036 -0.294248 -1.55948 0
M  V30 5669 H 549.057 1.71138 -3.39841 0
M  V30 5670 H 548.569 -0.0484736 -3.8807 0
M  V30 5671 H 546.67 2.24456 -2.97406 0
M  V30 5672 H 546.783 1.30794 -4.60901 0
M  V30 5673 H 545.147 0.787915 -2.42206 0
M  V30 5674 H 545.93 -0.579078 -3.38381 0
M  V30 5675 N 548.375 1.56261 0.205012 0
M  V30 5676 C 549.791 1.49623 0.555433 0
M  V30 5677 C 549.991 0.766719 1.86343 0
M  V30 5678 O 549.047 0.313158 2.50551 0
M  V30 5679 C 550.36 2.94253 0.619347 0
M  V30 5680 C 551.908 3.04868 0.708855 0
M  V30 5681 C 552.383 4.50888 0.803969 0
M  V30 5682 N 553.874 4.54999 0.867758 0
M  V30 5683 C 554.609 5.65284 0.96135 0
M  V30 5684 N 554.105 6.85282 1.01786 0
M  V30 5685 N 555.898 5.53174 0.997771 0
M  V30 5686 H 548.049 2.0211 -0.653094 0
M  V30 5687 H 550.312 0.919333 -0.231366 0
M  V30 5688 H 550.018 3.50643 -0.272458 0
M  V30 5689 H 549.892 3.47063 1.47741 0
M  V30 5690 H 552.279 2.48532 1.5911 0
M  V30 5691 H 552.36 2.55199 -0.175205 0
M  V30 5692 H 552.004 5.07846 -0.0738798 0
M  V30 5693 H 551.934 4.98279 1.70369 0
M  V30 5694 H 554.425 3.68588 0.833735 0
M  V30 5695 H 554.738 7.65081 1.08951 0
M  V30 5696 H 553.083 6.8796 0.986706 0
M  V30 5697 H 556.274 4.5835 0.950392 0
M  V30 5698 H 556.447 6.39151 1.06725 0
M  V30 5699 N 549.853 -0.472356 1.50355 0
M  V30 5700 C 550.801 -1.59126 1.69651 0
M  V30 5701 C 551.795 -1.59793 0.56237 0
M  V30 5702 O 553.001 -1.63957 0.742832 0
M  V30 5703 H 549.376 -0.528008 0.535454 0
M  V30 5704 H 551.347 -1.40013 2.63513 0
M  V30 5705 C 550.096 -2.97075 1.8067 0
M  V30 5706 H 549.419 -2.9728 2.67329 0
M  V30 5707 H 550.859 -3.74825 1.98197 0
M  V30 5708 C 549.318 -3.32247 0.558016 0
M  V30 5709 O 549.848 -4.00553 -0.303399 0
M  V30 5710 N 548.054 -2.87659 0.412415 0
M  V30 5711 H 547.601 -2.32246 1.11443 0
M  V30 5712 H 547.559 -3.11556 -0.421908 0
M  V30 5713 N 551.331 -1.39911 -0.725443 0
M  V30 5714 C 552.747 -1.21725 -1.03224 0
M  V30 5715 C 552.947 -0.0855224 -2.01318 0
M  V30 5716 O 552.003 0.55976 -2.46217 0
M  V30 5717 C 553.316 -2.55511 -1.58539 0
M  V30 5718 C 554.864 -2.62439 -1.70572 0
M  V30 5719 C 555.339 -3.9647 -2.29294 0
M  V30 5720 N 556.83 -3.98159 -2.36692 0
M  V30 5721 C 557.565 -4.98647 -2.83088 0
M  V30 5722 N 557.061 -6.0953 -3.2931 0
M  V30 5723 N 558.854 -4.8602 -2.82384 0
M  V30 5724 H 551.005 -2.12267 -0.075048 0
M  V30 5725 H 553.268 -0.943136 -0.0959066 0
M  V30 5726 H 552.974 -3.38926 -0.939249 0
M  V30 5727 H 552.848 -2.75905 -2.57208 0
M  V30 5728 H 555.235 -1.79401 -2.34306 0
M  V30 5729 H 555.316 -2.45885 -0.705297 0
M  V30 5730 H 554.96 -4.79942 -1.66186 0
M  V30 5731 H 554.89 -4.10349 -3.30032 0
M  V30 5732 H 557.381 -3.18085 -2.04035 0
M  V30 5733 H 557.694 -6.82106 -3.6325 0
M  V30 5734 H 556.039 -6.1311 -3.27294 0
M  V30 5735 H 559.23 -3.98493 -2.45603 0
M  V30 5736 H 559.403 -5.64478 -3.18226 0
M  V30 5737 N 552.809 0.956637 -1.25245 0
M  V30 5738 C 554.057 1.69764 -1.09657 0
M  V30 5739 C 554.378 1.91583 0.363464 0
M  V30 5740 O 553.648 1.50149 1.25825 0
M  V30 5741 H 552.228 0.629097 -0.402798 0
M  V30 5742 H 554.89 1.15026 -1.57337 0
M  V30 5743 H 553.986 2.67769 -1.60331 0
M  V30 5744 N 554.287 1.06798 1.15896 0
M  V30 5745 C 555.217 0.704677 2.22613 0
M  V30 5746 C 556.198 -0.305252 1.67339 0
M  V30 5747 O 557.383 -0.179247 1.93371 0
M  V30 5748 C 554.513 0.0957325 3.47168 0
M  V30 5749 C 553.467 1.0322 4.15367 0
M  V30 5750 C 552.793 0.286293 5.33933 0
M  V30 5751 C 554.093 2.36341 4.65768 0
M  V30 5752 H 555.787 1.59688 2.53259 0
M  V30 5753 H 553.333 0.769257 1.21731 0
M  V30 5754 H 555.286 -0.170333 4.21056 0
M  V30 5755 H 554.01 -0.831516 3.15838 0
M  V30 5756 H 552.669 1.28309 3.43413 0
M  V30 5757 H 552.317 -0.644237 4.98857 0
M  V30 5758 H 552.017 0.910436 5.80504 0
M  V30 5759 H 553.541 0.0278938 6.10594 0
M  V30 5760 H 554.955 2.1561 5.31211 0
M  V30 5761 H 553.352 2.94299 5.2298 0
M  V30 5762 H 554.422 2.99047 3.81705 0
M  V30 5763 N 555.766 -1.3263 0.851289 0
M  V30 5764 C 556.713 -2.28952 0.291469 0
M  V30 5765 C 557.683 -1.54897 -0.599676 0
M  V30 5766 O 558.868 -1.83137 -0.535305 0
M  V30 5767 C 556.008 -3.41206 -0.516992 0
M  V30 5768 C 555.121 -4.30148 0.399566 0
M  V30 5769 C 554.256 -5.29527 -0.4212 0
M  V30 5770 C 553.295 -6.10112 0.492969 0
M  V30 5771 N 552.432 -7.01499 -0.290414 0
M  V30 5772 H 557.272 -2.76228 1.11813 0
M  V30 5773 H 554.809 -1.35907 0.562826 0
M  V30 5774 H 556.767 -4.05005 -1.00132 0
M  V30 5775 H 555.397 -2.9509 -1.30851 0
M  V30 5776 H 554.449 -3.66959 1.00227 0
M  V30 5777 H 555.761 -4.8649 1.1013 0
M  V30 5778 H 554.915 -5.98914 -0.968832 0
M  V30 5779 H 553.654 -4.73794 -1.15632 0
M  V30 5780 H 552.659 -5.39632 1.05251 0
M  V30 5781 H 553.884 -6.6793 1.22664 0
M  V30 5782 H 551.83 -6.48199 -1.00868 0
M  V30 5783 H 551.747 -7.55178 0.352354 0
M  V30 5784 H 553.015 -7.75176 -0.819882 0
M  V30 5785 N 557.244 -0.608902 -1.45362 0
M  V30 5786 C 558.154 0.110969 -2.34337 0
M  V30 5787 C 559.17 0.859007 -1.51318 0
M  V30 5788 O 560.346 0.816296 -1.84116 0
M  V30 5789 C 557.411 1.09494 -3.28956 0
M  V30 5790 C 556.472 0.348718 -4.27881 0
M  V30 5791 C 555.705 1.28582 -5.17979 0
M  V30 5792 O 555.928 2.52369 -5.11533 0
M  V30 5793 O 554.862 0.782172 -5.96796 0
M  V30 5794 H 558.688 -0.620258 -2.97299 0
M  V30 5795 H 556.273 -0.36916 -1.44767 0
M  V30 5796 H 558.155 1.66163 -3.87257 0
M  V30 5797 H 556.83 1.80717 -2.68557 0
M  V30 5798 H 555.737 -0.260465 -3.73192 0
M  V30 5799 H 557.07 -0.323049 -4.91139 0
M  V30 5800 N 558.722 1.53707 -0.348139 0
M  V30 5801 C 559.969 2.00988 0.246966 0
M  V30 5802 C 560.297 1.23586 1.50189 0
M  V30 5803 O 559.552 0.312817 1.93184 0
M  V30 5804 C 559.851 3.52292 0.602061 0
M  V30 5805 C 559.517 4.47453 -0.556509 0
M  V30 5806 C 558.179 4.73188 -0.874446 0
M  V30 5807 C 560.531 5.03851 -1.33354 0
M  V30 5808 C 557.859 5.52577 -1.9717 0
M  V30 5809 C 560.211 5.84437 -2.42108 0
M  V30 5810 C 558.875 6.08465 -2.74456 0
M  V30 5811 H 558.145 0.735469 0.0903712 0
M  V30 5812 H 560.792 1.85464 -0.477001 0
M  V30 5813 H 559.097 3.65672 1.40681 0
M  V30 5814 H 560.794 3.86337 1.07447 0
M  V30 5815 H 557.384 4.27558 -0.298652 0
M  V30 5816 H 561.568 4.8393 -1.10117 0
M  V30 5817 H 556.824 5.69418 -2.22651 0
M  V30 5818 H 560.998 6.27151 -3.02745 0
M  V30 5819 H 558.625 6.69768 -3.59604 0
M  V30 5820 N 560.2 0.0768682 1.57412 0
M  V30 5821 C 561.611 -0.455037 1.8107 0
M  V30 5822 C 561.962 -1.69323 0.991162 0
M  V30 5823 O 561.087 -2.15328 0.215156 0
M  V30 5824 C 561.682 -0.832316 3.28417 0
M  V30 5825 C 560.241 -1.30906 3.52903 0
M  V30 5826 C 559.388 -0.296714 2.75708 0
M  V30 5827 H 562.339 0.302514 1.5579 0
M  V30 5828 H 562.36 -1.69333 3.40744 0
M  V30 5829 H 561.872 0.0690532 3.88039 0
M  V30 5830 H 559.973 -2.22875 2.98592 0
M  V30 5831 H 560.086 -1.28348 4.61588 0
M  V30 5832 H 558.45 -0.775059 2.42621 0
M  V30 5833 H 559.233 0.597015 3.38069 0
M  V30 5834 N 561.678 -1.56367 -0.196722 0
M  V30 5835 C 562.927 -1.79724 -0.915539 0
M  V30 5836 C 563.24 -0.649804 -1.84491 0
M  V30 5837 O 564.446 -0.767631 -2.60422 0
M  V30 5838 C 562.902 -3.18369 -1.67836 0
M  V30 5839 C 562.51 -4.4091 -0.793897 0
M  V30 5840 C 564.254 -3.51037 -2.38691 0
M  V30 5841 C 562.161 -5.70577 -1.55549 0
M  V30 5842 H 561.091 -0.67013 -0.345604 0
M  V30 5843 H 563.742 -1.82721 -0.168856 0
M  V30 5844 H 562.124 -3.09617 -2.46887 0
M  V30 5845 H 563.298 -4.60781 -0.042163 0
M  V30 5846 H 561.613 -4.15937 -0.19626 0
M  V30 5847 H 564.21 -4.4515 -2.96219 0
M  V30 5848 H 564.553 -2.74704 -3.12799 0
M  V30 5849 H 565.086 -3.61229 -1.66608 0
M  V30 5850 H 561.825 -6.49871 -0.857226 0
M  V30 5851 H 561.345 -5.54726 -2.2812 0
M  V30 5852 H 563.024 -6.11637 -2.10971 0
M  V30 5853 N 563.156 0.464375 -1.50603 0
M  V30 5854 C 564.103 1.56152 -1.69956 0
M  V30 5855 C 565.073 1.57046 -0.54091 0
M  V30 5856 O 566.258 1.74473 -0.772258 0
M  V30 5857 C 563.398 2.94079 -1.80586 0
M  V30 5858 C 562.511 3.02923 -3.07996 0
M  V30 5859 C 561.646 4.31806 -3.09382 0
M  V30 5860 C 560.685 4.34417 -4.31218 0
M  V30 5861 N 559.822 5.54782 -4.30304 0
M  V30 5862 H 564.662 1.38955 -2.6362 0
M  V30 5863 H 562.199 0.675482 -1.30674 0
M  V30 5864 H 564.157 3.74073 -1.8473 0
M  V30 5865 H 562.787 3.09896 -0.903556 0
M  V30 5866 H 561.839 2.1576 -3.13292 0
M  V30 5867 H 563.151 3.00712 -3.97962 0
M  V30 5868 H 562.305 5.20153 -3.12292 0
M  V30 5869 H 561.044 4.36636 -2.17257 0
M  V30 5870 H 560.049 3.44467 -4.28512 0
M  V30 5871 H 561.274 4.31273 -5.24576 0
M  V30 5872 H 559.22 5.60384 -3.41037 0
M  V30 5873 H 559.137 5.54339 -5.14047 0
M  V30 5874 H 560.405 6.45235 -4.3737 0
M  V30 5875 N 564.634 1.40294 0.718013 0
M  V30 5876 C 566.05 1.2227 1.02577 0
M  V30 5877 C 566.25 0.0961976 2.0127 0
M  V30 5878 O 565.306 -0.546695 2.46511 0
M  V30 5879 C 566.619 2.56348 1.57182 0
M  V30 5880 C 568.167 2.6334 1.69178 0
M  V30 5881 C 568.642 3.9768 2.27188 0
M  V30 5882 N 570.133 3.99409 2.34578 0
M  V30 5883 C 570.868 5.00141 2.8044 0
M  V30 5884 N 570.364 6.11268 3.26073 0
M  V30 5885 N 572.157 4.87511 2.79802 0
M  V30 5886 H 564.308 2.12304 0.0637899 0
M  V30 5887 H 566.571 0.943632 0.0909036 0
M  V30 5888 H 566.277 3.3942 0.921262 0
M  V30 5889 H 566.151 2.77266 2.55741 0
M  V30 5890 H 568.538 1.80641 2.33351 0
M  V30 5891 H 568.619 2.46255 0.692247 0
M  V30 5892 H 568.263 4.80817 1.63638 0
M  V30 5893 H 568.193 4.12093 3.27852 0
M  V30 5894 H 570.684 3.19162 2.02346 0
M  V30 5895 H 570.997 6.84023 3.59628 0
M  V30 5896 H 569.342 6.14837 3.24038 0
M  V30 5897 H 572.533 3.9979 2.43487 0
M  V30 5898 H 572.706 5.66158 3.15228 0
M  V30 5899 N 566.112 -0.949982 1.2575 0
M  V30 5900 C 567.358 -1.69766 1.10938 0
M  V30 5901 C 567.691 -1.91056 -0.348028 0
M  V30 5902 O 566.966 -1.48488 -1.25625 0
M  V30 5903 C 567.249 -3.07779 1.86933 0
M  V30 5904 C 567.102 -2.9387 3.4053 0
M  V30 5905 C 568.421 -4.07749 1.65616 0
M  V30 5906 H 565.54 -0.616144 0.404396 0
M  V30 5907 H 568.182 -1.10394 1.54639 0
M  V30 5908 H 566.332 -3.58462 1.4979 0
M  V30 5909 H 568.004 -2.50476 3.87375 0
M  V30 5910 H 566.247 -2.29686 3.68004 0
M  V30 5911 H 566.918 -3.91719 3.88922 0
M  V30 5912 H 569.394 -3.65994 1.97959 0
M  V30 5913 H 568.27 -5.02348 2.21218 0
M  V30 5914 H 568.531 -4.38029 0.598595 0
M  V30 5915 N 567.59 -1.07411 -1.15328 0
M  V30 5916 C 568.523 -0.63913 -2.19067 0
M  V30 5917 C 569.501 0.343929 -1.58921 0
M  V30 5918 O 570.685 0.250207 -1.86832 0
M  V30 5919 C 567.812 0.0613977 -3.38644 0
M  V30 5920 C 566.858 -0.880201 -4.17318 0
M  V30 5921 S 567.691 -2.38152 -4.79629 0
M  V30 5922 C 568.847 -1.69281 -6.02573 0
M  V30 5923 H 569.08 -1.51799 -2.55626 0
M  V30 5924 H 566.613 -0.888138 -1.26299 0
M  V30 5925 H 568.571 0.459323 -4.07922 0
M  V30 5926 H 567.232 0.916605 -3.00428 0
M  V30 5927 H 566.425 -0.336781 -5.02874 0
M  V30 5928 H 566.027 -1.21854 -3.53592 0
M  V30 5929 H 568.319 -1.00488 -6.70006 0
M  V30 5930 H 569.262 -2.52671 -6.61485 0
M  V30 5931 H 569.67 -1.17053 -5.52231 0
M  V30 5932 N 569.068 1.32177 -0.85831 0
M  V30 5933 C 570.316 1.96735 -0.462568 0
M  V30 5934 C 570.637 1.6824 0.985911 0
M  V30 5935 O 569.907 0.991564 1.68952 0
M  V30 5936 H 568.487 0.727849 -0.168064 0
M  V30 5937 H 571.149 1.61195 -1.09554 0
M  V30 5938 H 570.245 3.06068 -0.610647 0
M  V30 5939 N 570.547 0.616602 1.45037 0
M  V30 5940 C 571.958 0.199359 1.85633 0
M  V30 5941 C 572.309 -1.24588 1.51566 0
M  V30 5942 O 571.434 -1.94594 0.94668 0
M  V30 5943 C 572.029 0.355033 3.36935 0
M  V30 5944 C 570.588 -0.00758748 3.76399 0
M  V30 5945 C 569.735 0.675256 2.68953 0
M  V30 5946 H 572.686 0.822708 1.3571 0
M  V30 5947 H 572.707 -0.410201 3.78282 0
M  V30 5948 H 572.219 1.40699 3.61698 0
M  V30 5949 H 570.32 -1.05837 3.57252 0
M  V30 5950 H 570.433 0.392346 4.77491 0
M  V30 5951 H 568.797 0.111992 2.54454 0
M  V30 5952 H 569.58 1.72952 2.96551 0
M  V30 5953 N 572.025 -1.5352 0.356285 0
M  V30 5954 C 573.302 -1.93405 -0.292223 0
M  V30 5955 C 573.682 -1.28901 -1.67176 0
M  V30 5956 O 573.03 -0.444632 -2.24132 0
M  V30 5957 C 573.24 -3.47223 -0.35175 0
M  V30 5958 C 574.588 -4.20389 -0.596534 0
M  V30 5959 O 575.612 -3.53554 -0.433344 0
M  V30 5960 O 574.471 -5.3881 -0.913589 0
M  V30 5961 H 571.565 -0.808666 -0.173172 0
M  V30 5962 H 574.111 -1.64713 0.408391 0
M  V30 5963 H 572.883 -3.86423 0.615841 0
M  V30 5964 H 572.506 -3.8212 -1.09864 0
M  V30 5965 N 573.503 -0.0852151 -1.57369 0
M  V30 5966 C 574.75 0.580806 -1.93992 0
M  V30 5967 C 575.078 1.68801 -0.966252 0
M  V30 5968 O 574.333 1.95694 0.0158649 0
M  V30 5969 C 574.632 1.18482 -3.3719 0
M  V30 5970 C 574.298 0.2024 -4.50446 0
M  V30 5971 C 572.96 -0.0678318 -4.81152 0
M  V30 5972 C 575.312 -0.46895 -5.19086 0
M  V30 5973 C 572.64 -1.01627 -5.77831 0
M  V30 5974 C 574.992 -1.4058 -6.16782 0
M  V30 5975 C 573.656 -1.68436 -6.45899 0
M  V30 5976 H 572.926 0.212532 -0.709867 0
M  V30 5977 H 575.573 -0.158947 -1.90839 0
M  V30 5978 H 573.878 2.0006 -3.36873 0
M  V30 5979 H 575.575 1.70767 -3.62822 0
M  V30 5980 H 572.165 0.423208 -4.26505 0
M  V30 5981 H 576.349 -0.273307 -4.95547 0
M  V30 5982 H 571.605 -1.2392 -5.9871 0
M  V30 5983 H 575.779 -1.93188 -6.69068 0
M  V30 5984 H 573.406 -2.42088 -7.20623 0
M  V30 5985 N 574.981 1.5647 0.188427 0
M  V30 5986 C 576.229 1.80655 0.905986 0
M  V30 5987 C 576.55 0.659391 1.83513 0
M  V30 5988 O 575.82 -0.321868 1.93238 0
M  V30 5989 H 574.4 0.666391 0.337538 0
M  V30 5990 H 577.062 1.93949 0.192339 0
M  V30 5991 H 576.158 2.74066 1.49313 0
M  V30 5992 N 576.459 -0.456382 1.50847 0
M  V30 5993 C 577.689 -1.22848 1.66108 0
M  V30 5994 C 578.097 -1.85936 0.349897 0
M  V30 5995 O 577.44 -1.70664 -0.679665 0
M  V30 5996 C 577.502 -2.36722 2.70561 0
M  V30 5997 C 577.166 -1.94154 4.13707 0
M  V30 5998 C 578.163 -1.4557 4.99105 0
M  V30 5999 C 575.848 -2.02426 4.59705 0
M  V30 6000 C 577.842 -1.0582 6.28555 0
M  V30 6001 C 575.529 -1.62287 5.89157 0
M  V30 6002 C 576.527 -1.14064 6.73408 0
M  V30 6003 O 576.215 -0.744873 8.00442 0
M  V30 6004 H 575.947 -0.377105 0.561042 0
M  V30 6005 H 578.501 -0.549431 1.97915 0
M  V30 6006 H 576.731 -3.07844 2.34027 0
M  V30 6007 H 578.42 -2.98646 2.74892 0
M  V30 6008 H 579.186 -1.38589 4.64777 0
M  V30 6009 H 575.065 -2.38908 3.94264 0
M  V30 6010 H 578.609 -0.6811 6.94267 0
M  V30 6011 H 574.506 -1.68932 6.23003 0
M  V30 6012 H 575.274 -0.87242 8.13837 0
M  V30 6013 N 577.937 -1.40673 -0.710563 0
M  V30 6014 C 579.183 -1.39428 -1.47267 0
M  V30 6015 C 579.516 0.00182129 -1.942 0
M  V30 6016 O 578.791 0.971387 -1.68506 0
M  V30 6017 C 579.074 -2.38812 -2.6952 0
M  V30 6018 C 578.927 -3.87467 -2.28449 0
M  V30 6019 C 580.246 -2.3566 -3.71689 0
M  V30 6020 H 577.365 -0.507768 -0.534173 0
M  V30 6021 H 580.007 -1.71843 -0.810547 0
M  V30 6022 H 578.157 -2.113 -3.26013 0
M  V30 6023 H 579.829 -4.25825 -1.77399 0
M  V30 6024 H 578.072 -4.03058 -1.60395 0
M  V30 6025 H 578.743 -4.5253 -3.16103 0
M  V30 6026 H 581.219 -2.6004 -3.24836 0
M  V30 6027 H 580.095 -3.07237 -4.54859 0
M  V30 6028 H 580.356 -1.36996 -4.20339 0
M  V30 6029 N 579.415 0.9433 -1.26252 0
M  V30 6030 C 580.643 1.72367 -1.14443 0
M  V30 6031 C 581.058 1.86392 0.300572 0
M  V30 6032 O 580.415 1.36978 1.20596 0
M  V30 6033 C 580.466 3.13155 -1.806 0
M  V30 6034 O 580.187 2.99803 -3.19452 0
M  V30 6035 C 581.688 4.07417 -1.74717 0
M  V30 6036 H 578.908 0.539758 -0.398626 0
M  V30 6037 H 581.452 1.18268 -1.66832 0
M  V30 6038 H 579.607 3.64162 -1.32154 0
M  V30 6039 H 580.021 3.88697 -3.52158 0
M  V30 6040 H 581.495 5.03773 -2.25647 0
M  V30 6041 H 581.972 4.3337 -0.713244 0
M  V30 6042 H 582.578 3.6233 -2.22704 0
M  V30 6043 N 580.893 1.08022 1.14757 0
M  V30 6044 C 582.309 0.807072 1.3769 0
M  V30 6045 C 582.509 -0.585504 1.92806 0
M  V30 6046 O 581.565 -1.34301 2.13821 0
M  V30 6047 C 582.878 1.88651 2.34161 0
M  V30 6048 C 584.426 1.91206 2.47809 0
M  V30 6049 C 584.901 2.98253 3.47576 0
M  V30 6050 N 586.392 2.974 3.55117 0
M  V30 6051 C 587.127 3.76872 4.32152 0
M  V30 6052 N 586.623 4.66212 5.12463 0
M  V30 6053 N 588.416 3.6519 4.27309 0
M  V30 6054 H 580.567 1.97824 0.77326 0
M  V30 6055 H 582.83 0.85826 0.402608 0
M  V30 6056 H 582.536 2.88749 2.00791 0
M  V30 6057 H 582.41 1.75244 3.3402 0
M  V30 6058 H 584.797 0.917564 2.80472 0
M  V30 6059 H 584.878 2.08691 1.47925 0
M  V30 6060 H 584.522 3.97907 3.15646 0
M  V30 6061 H 584.452 2.78014 4.47231 0
M  V30 6062 H 586.943 2.32643 2.97801 0
M  V30 6063 H 587.256 5.23468 5.68508 0
M  V30 6064 H 585.601 4.70257 5.11745 0
M  V30 6065 H 588.792 2.94765 3.63636 0
M  V30 6066 H 588.965 4.27366 4.87095 0
M  V30 6067 N 582.371 -1.3172 0.865308 0
M  V30 6068 C 583.619 -1.96487 0.472995 0
M  V30 6069 C 583.94 -1.68761 -0.976975 0
M  V30 6070 O 583.21 -1.00051 -1.68424 0
M  V30 6071 H 581.79 -0.726947 0.171922 0
M  V30 6072 H 584.452 -1.60612 1.10407 0
M  V30 6073 H 583.548 -3.0574 0.62687 0
M  V30 6074 N 583.85 -0.624285 -1.44708 0
M  V30 6075 C 585.26 -0.2092 -1.85524 0
M  V30 6076 C 585.611 1.23783 -1.52225 0
M  V30 6077 O 584.736 1.94089 -0.956986 0
M  V30 6078 C 585.332 -0.372897 -3.36742 0
M  V30 6079 C 583.891 -0.012374 -3.76398 0
M  V30 6080 C 583.038 -0.68951 -2.68591 0
M  V30 6081 H 585.989 -0.829894 -1.35272 0
M  V30 6082 H 586.01 0.390134 -3.78495 0
M  V30 6083 H 585.522 -1.42615 -3.60947 0
M  V30 6084 H 583.623 1.03941 -3.57809 0
M  V30 6085 H 583.736 -0.417663 -4.77276 0
M  V30 6086 H 582.1 -0.125484 -2.54391 0
M  V30 6087 H 582.883 -1.74522 -2.9563 0
M  V30 6088 N 585.328 1.53329 -0.364422 0
M  V30 6089 C 586.26 2.23286 0.517293 0
M  V30 6090 C 587.273 1.24657 1.04711 0
M  V30 6091 O 588.462 1.50887 0.95369 0
M  V30 6092 C 585.562 2.91604 1.72685 0
M  V30 6093 C 584.735 4.1673 1.32873 0
M  V30 6094 C 583.794 4.68269 2.40022 0
M  V30 6095 O 582.82 5.31976 2.02461 0
M  V30 6096 N 584.022 4.45983 3.7159 0
M  V30 6097 H 586.787 2.99588 -0.0819391 0
M  V30 6098 H 584.348 1.60787 -0.189544 0
M  V30 6099 H 586.34 3.22992 2.4384 0
M  V30 6100 H 584.91 2.18763 2.23297 0
M  V30 6101 H 584.13 3.91657 0.447069 0
M  V30 6102 H 585.418 4.98078 1.03902 0
M  V30 6103 H 584.816 3.95077 4.04883 0
M  V30 6104 H 583.373 4.81924 4.38854 0
M  V30 6105 N 586.806 0.0935595 1.57322 0
M  V30 6106 C 588.034 -0.578934 1.98635 0
M  V30 6107 C 588.449 -1.61819 0.972626 0
M  V30 6108 O 587.806 -1.82461 -0.0379638 0
M  V30 6109 C 587.857 -1.22802 3.40003 0
M  V30 6110 O 587.578 -0.230334 4.37494 0
M  V30 6111 C 589.079 -1.98627 3.96311 0
M  V30 6112 H 586.299 -0.155324 0.652775 0
M  V30 6113 H 588.843 0.172393 2.03772 0
M  V30 6114 H 586.998 -1.93029 3.35885 0
M  V30 6115 H 587.412 -0.698649 5.19826 0
M  V30 6116 H 588.886 -2.39405 4.97382 0
M  V30 6117 H 589.363 -2.85151 3.34044 0
M  V30 6118 H 589.969 -1.3322 4.03897 0
M  V30 6119 N 588.284 -1.56567 -0.180126 0
M  V30 6120 C 589.532 -1.81133 -0.896392 0
M  V30 6121 C 589.853 -0.669114 -1.83161 0
M  V30 6122 O 589.123 0.311616 -1.93406 0
M  V30 6123 H 587.703 -0.668172 -0.333999 0
M  V30 6124 H 590.365 -1.94048 -0.182051 0
M  V30 6125 H 589.461 -2.74854 -1.47857 0
M  V30 6126 N 589.762 0.448376 -1.51087 0
M  V30 6127 C 591.01 1.19635 -1.62886 0
M  V30 6128 C 591.331 1.91977 -0.342024 0
M  V30 6129 O 590.601 1.85094 0.641636 0
M  V30 6130 H 589.181 0.444598 -0.600285 0
M  V30 6131 H 591.843 0.515138 -1.87969 0
M  V30 6132 H 590.939 1.93194 -2.45117 0
M  V30 6133 N 591.24 1.41047 0.703093 0
M  V30 6134 C 592.489 1.39301 1.4587 0
M  V30 6135 C 592.802 0.00267077 1.956 0
M  V30 6136 O 594.008 -0.137414 2.71152 0
M  V30 6137 C 592.464 2.44891 2.63735 0
M  V30 6138 C 592.072 3.89796 2.20824 0
M  V30 6139 C 593.816 2.5227 3.41409 0
M  V30 6140 C 591.723 4.86955 3.35602 0
M  V30 6141 H 590.653 0.518005 0.547893 0
M  V30 6142 H 593.304 1.66839 0.764009 0
M  V30 6143 H 591.686 2.10472 3.35436 0
M  V30 6144 H 592.86 4.33424 1.56461 0
M  V30 6145 H 591.175 3.86008 1.56163 0
M  V30 6146 H 593.772 3.22044 4.26839 0
M  V30 6147 H 594.115 1.55714 3.86081 0
M  V30 6148 H 594.648 2.85742 2.7676 0
M  V30 6149 H 591.387 5.84888 2.9595 0
M  V30 6150 H 590.907 4.47982 3.98839 0
M  V30 6151 H 592.586 5.07361 4.01489 0
M  V30 6152 N 592.718 -0.936591 1.26751 0
M  V30 6153 C 593.943 -1.72288 1.15462 0
M  V30 6154 C 594.368 -1.85915 -0.285887 0
M  V30 6155 O 593.726 -1.35272 -1.20711 0
M  V30 6156 C 593.774 -3.10503 1.83359 0
M  V30 6157 O 592.878 -3.96745 1.1255 0
M  V30 6158 H 592.219 -0.52843 0.402067 0
M  V30 6159 H 594.749 -1.17271 1.67656 0
M  V30 6160 H 594.759 -3.60867 1.90365 0
M  V30 6161 H 593.434 -2.99901 2.88153 0
M  V30 6162 H 592.011 -3.55191 1.13551 0
M  V30 6163 N 594.196 -1.08629 -1.14182 0
M  V30 6164 C 595.444 -0.815731 -1.84906 0
M  V30 6165 C 595.765 0.660441 -1.83475 0
M  V30 6166 O 595.035 1.47888 -1.28476 0
M  V30 6167 H 593.615 -0.298773 -0.684648 0
M  V30 6168 H 596.277 -1.37274 -1.38354 0
M  V30 6169 H 595.373 -1.16193 -2.89665 0
M  V30 6170 N 595.674 1.31259 -0.872281 0
M  V30 6171 C 596.604 2.30929 -0.345554 0
M  V30 6172 C 597.585 1.60449 0.5648 0
M  V30 6173 O 598.77 1.8814 0.481335 0
M  V30 6174 C 595.9 3.44348 0.451823 0
M  V30 6175 C 594.854 4.26435 -0.365641 0
M  V30 6176 C 594.18 5.31785 0.557562 0
M  V30 6177 C 595.48 4.97159 -1.60095 0
M  V30 6178 H 597.174 2.75234 -1.17841 0
M  V30 6179 H 594.72 1.3232 -0.568094 0
M  V30 6180 H 596.673 4.13128 0.830854 0
M  V30 6181 H 595.397 2.98816 1.31821 0
M  V30 6182 H 594.056 3.59326 -0.726649 0
M  V30 6183 H 593.704 4.82502 1.4213 0
M  V30 6184 H 593.404 5.87598 0.0144878 0
M  V30 6185 H 594.928 6.03424 0.933387 0
M  V30 6186 H 596.342 5.58523 -1.29323 0
M  V30 6187 H 594.739 5.62779 -2.08327 0
M  V30 6188 H 595.809 4.24012 -2.35249 0
M  V30 6189 N 597.152 0.631951 1.44375 0
M  V30 6190 C 598.429 0.067646 1.95483 0
M  V30 6191 C 598.809 -1.40683 1.57389 0
M  V30 6192 O 598.157 -2.12167 0.848375 0
M  V30 6193 C 598.367 0.291392 3.47781 0
M  V30 6194 C 599.715 0.185028 4.24197 0
M  V30 6195 O 600.739 0.222803 3.55503 0
M  V30 6196 O 599.598 0.0906642 5.46425 0
M  V30 6197 H 596.692 -0.0218379 0.826712 0
M  V30 6198 H 599.238 0.703711 1.54421 0
M  V30 6199 H 598.01 1.31449 3.68561 0
M  V30 6200 H 597.633 -0.378772 3.95792 0
M  V30 6201 N 598.631 -1.53133 0.372548 0
M  V30 6202 C 599.856 -2.0625 -0.218098 0
M  V30 6203 C 600.281 -1.24375 -1.41111 0
M  V30 6204 O 599.639 -0.264554 -1.79359 0
M  V30 6205 C 599.687 -3.55858 -0.582876 0
M  V30 6206 O 598.791 -3.76667 -1.67917 0
M  V30 6207 H 598.132 -0.663317 -0.030104 0
M  V30 6208 H 600.662 -1.97477 0.535169 0
M  V30 6209 H 600.672 -3.99007 -0.851925 0
M  V30 6210 H 599.347 -4.14892 0.289428 0
M  V30 6211 H 597.924 -3.45413 -1.40513 0
M  V30 6212 N 600.109 -0.101901 -1.5727 0
M  V30 6213 C 601.356 0.560197 -1.94597 0
M  V30 6214 C 601.684 1.67767 -0.984101 0
M  V30 6215 O 600.939 1.95699 -0.00489193 0
M  V30 6216 C 601.238 1.14898 -3.38427 0
M  V30 6217 C 600.904 0.154613 -4.50635 0
M  V30 6218 C 599.566 -0.118861 -4.81053 0
M  V30 6219 C 601.918 -0.523979 -5.18559 0
M  V30 6220 C 599.246 -1.0775 -5.76721 0
M  V30 6221 C 601.598 -1.47114 -6.15256 0
M  V30 6222 C 600.262 -1.75278 -6.44076 0
M  V30 6223 H 599.532 0.204991 -0.712081 0
M  V30 6224 H 602.179 -0.17918 -1.9066 0
M  V30 6225 H 600.484 1.96476 -3.38976 0
M  V30 6226 H 602.181 1.66909 -3.64613 0
M  V30 6227 H 598.771 0.377948 -4.2693 0
M  V30 6228 H 602.955 -0.325851 -4.95229 0
M  V30 6229 H 598.211 -1.30263 -5.97362 0
M  V30 6230 H 602.385 -2.00274 -6.66981 0
M  V30 6231 H 600.012 -2.49717 -7.18015 0
M  V30 6232 N 601.587 1.56661 0.17182 0
M  V30 6233 C 602.835 1.81606 0.886774 0
M  V30 6234 C 603.156 0.678818 1.82803 0
M  V30 6235 O 602.426 -0.301354 1.93568 0
M  V30 6236 H 601.006 0.669934 0.330451 0
M  V30 6237 H 603.668 1.94142 0.171757 0
M  V30 6238 H 602.764 2.75634 1.46398 0
M  V30 6239 N 603.065 -0.440357 1.51323 0
M  V30 6240 C 604.013 -1.55492 1.72988 0
M  V30 6241 C 605.007 -1.58564 0.596138 0
M  V30 6242 O 606.213 -1.62345 0.777443 0
M  V30 6243 H 602.588 -0.516532 0.546533 0
M  V30 6244 H 604.559 -1.34392 2.66423 0
M  V30 6245 C 603.308 -2.93176 1.86931 0
M  V30 6246 H 602.631 -2.91543 2.73574 0
M  V30 6247 H 604.071 -3.70537 2.06103 0
M  V30 6248 C 602.53 -3.30988 0.628365 0
M  V30 6249 O 603.06 -4.01106 -0.218367 0
M  V30 6250 N 601.266 -2.86719 0.473339 0
M  V30 6251 H 600.813 -2.2983 1.16345 0
M  V30 6252 H 600.771 -3.12381 -0.355727 0
M  V30 6253 N 604.543 -1.41418 -0.695603 0
M  V30 6254 C 605.473 -1.46035 -1.82197 0
M  V30 6255 C 606.454 -0.319025 -1.67082 0
M  V30 6256 O 607.639 -0.530462 -1.86815 0
M  V30 6257 C 604.769 -1.34179 -3.20333 0
M  V30 6258 C 603.723 -2.46123 -3.50154 0
M  V30 6259 C 603.049 -2.19332 -4.87645 0
M  V30 6260 C 604.349 -3.88463 -3.49133 0
M  V30 6261 H 606.043 -2.40303 -1.78591 0
M  V30 6262 H 603.589 -1.15663 -0.857797 0
M  V30 6263 H 605.542 -1.36021 -3.98844 0
M  V30 6264 H 604.266 -0.363952 -3.24566 0
M  V30 6265 H 602.925 -2.43563 -2.73994 0
M  V30 6266 H 602.573 -1.19891 -4.88503 0
M  V30 6267 H 602.273 -2.94344 -5.08562 0
M  V30 6268 H 603.797 -2.22889 -5.68465 0
M  V30 6269 H 605.211 -3.92738 -4.17648 0
M  V30 6270 H 603.608 -4.63158 -3.81582 0
M  V30 6271 H 604.678 -4.16617 -2.48109 0
M  V30 6272 N 606.021 0.929856 -1.27246 0
M  V30 6273 C 606.931 2.0636 -1.11592 0
M  V30 6274 C 607.947 1.73938 -0.046496 0
M  V30 6275 O 609.123 1.9981 -0.252544 0
M  V30 6276 C 606.188 3.38213 -0.762437 0
M  V30 6277 C 605.249 3.84346 -1.9125 0
M  V30 6278 C 604.482 5.09906 -1.57579 0
M  V30 6279 O 604.705 5.68354 -0.482694 0
M  V30 6280 O 603.639 5.51359 -2.41426 0
M  V30 6281 H 607.465 2.22478 -2.0673 0
M  V30 6282 H 605.05 1.04865 -1.06413 0
M  V30 6283 H 606.932 4.1741 -0.57854 0
M  V30 6284 H 605.607 3.23307 0.159439 0
M  V30 6285 H 604.514 3.06045 -2.15144 0
M  V30 6286 H 605.847 4.0379 -2.81451 0
M  V30 6287 N 607.499 1.09233 1.13605 0
M  V30 6288 C 608.745 0.828385 1.8511 0
M  V30 6289 C 609.078 -0.64437 1.83198 0
M  V30 6290 O 608.353 -1.47428 1.26867 0
M  V30 6291 C 608.636 1.36167 3.33363 0
M  V30 6292 C 608.489 2.90038 3.438 0
M  V30 6293 C 609.808 0.993819 4.28732 0
M  V30 6294 H 606.927 0.30239 0.672108 0
M  V30 6295 H 609.569 1.35339 1.33355 0
M  V30 6296 H 607.719 0.9151 3.77569 0
M  V30 6297 H 609.391 3.43128 3.08319 0
M  V30 6298 H 607.634 3.27271 2.84739 0
M  V30 6299 H 608.305 3.22428 4.48045 0
M  V30 6300 H 610.781 1.37893 3.92587 0
M  V30 6301 H 609.657 1.39403 5.30903 0
M  V30 6302 H 609.918 -0.0982206 4.41991 0
M  V30 6303 N 608.977 -1.30795 0.87923 0
M  V30 6304 C 610.202 -2.01063 0.508769 0
M  V30 6305 C 610.627 -1.65508 -0.893803 0
M  V30 6306 O 609.985 -0.868616 -1.59138 0
M  V30 6307 C 610.033 -3.54054 0.683991 0
M  V30 6308 O 609.137 -4.11498 -0.272654 0
M  V30 6309 H 608.478 -0.632786 0.201191 0
M  V30 6310 H 611.008 -1.66776 1.18519 0
M  V30 6311 H 611.018 -4.03845 0.580798 0
M  V30 6312 H 609.693 -3.79271 1.70665 0
M  V30 6313 H 608.27 -3.72695 -0.12364 0
M  V30 6314 N 610.455 -0.639598 -1.44038 0
M  V30 6315 C 611.866 -0.228866 -1.85292 0
M  V30 6316 C 612.217 1.22161 -1.53529 0
M  V30 6317 O 611.342 1.93064 -0.977518 0
M  V30 6318 C 611.937 -0.408592 -3.36327 0
M  V30 6319 C 610.496 -0.0522953 -3.76364 0
M  V30 6320 C 609.643 -0.717959 -2.67844 0
M  V30 6321 H 612.594 -0.844194 -1.34384 0
M  V30 6322 H 612.615 0.349968 -3.78887 0
M  V30 6323 H 612.127 -1.46435 -3.59414 0
M  V30 6324 H 610.228 1.0014 -3.58891 0
M  V30 6325 H 610.341 -0.468261 -4.76806 0
M  V30 6326 H 608.705 -0.152459 -2.54243 0
M  V30 6327 H 609.488 -1.77648 -2.93762 0
M  V30 6328 N 611.933 1.52934 -0.380664 0
M  V30 6329 C 613.344 1.86457 0.0952684 0
M  V30 6330 C 613.695 1.3007 1.46889 0
M  V30 6331 O 612.82 0.628636 2.07068 0
M  V30 6332 C 613.415 3.38323 0.179648 0
M  V30 6333 C 611.974 3.71589 0.599858 0
M  V30 6334 C 611.121 2.76228 -0.243572 0
M  V30 6335 H 614.072 1.46966 -0.59888 0
M  V30 6336 H 614.093 3.67113 1.00042 0
M  V30 6337 H 613.605 3.79333 -0.820228 0
M  V30 6338 H 611.706 3.36144 1.60742 0
M  V30 6339 H 611.819 4.77715 0.364003 0
M  V30 6340 H 610.183 2.53045 0.289855 0
M  V30 6341 H 610.966 3.20074 -1.24127 0
M  V30 6342 N 613.412 0.11024 1.57214 0
M  V30 6343 C 614.658 -0.550684 1.9518 0
M  V30 6344 C 614.991 -1.66885 0.993122 0
M  V30 6345 O 614.266 -1.94479 0.0287907 0
M  V30 6346 C 614.549 -1.09163 3.43155 0
M  V30 6347 C 614.402 0.0225198 4.49794 0
M  V30 6348 C 615.721 -1.98527 3.92778 0
M  V30 6349 H 612.84 -0.198706 0.709708 0
M  V30 6350 H 615.482 0.184024 1.89107 0
M  V30 6351 H 613.632 -1.71775 3.48462 0
M  V30 6352 H 615.304 0.657443 4.56591 0
M  V30 6353 H 613.547 0.686868 4.28328 0
M  V30 6354 H 614.218 -0.39706 5.5057 0
M  V30 6355 H 616.694 -1.458 3.8972 0
M  V30 6356 H 615.57 -2.33298 4.96853 0
M  V30 6357 H 615.831 -2.90846 3.32958 0
M  V30 6358 N 614.89 -1.56749 -0.16351 0
M  V30 6359 C 616.118 -1.86577 -0.894233 0
M  V30 6360 C 616.533 -0.696543 -1.75481 0
M  V30 6361 O 615.89 0.334161 -1.79415 0
M  V30 6362 C 615.941 -3.15508 -1.76456 0
M  V30 6363 O 615.662 -4.27926 -0.938685 0
M  V30 6364 C 617.163 -3.58737 -2.60428 0
M  V30 6365 H 614.383 -0.618829 -0.259405 0
M  V30 6366 H 616.927 -2.03863 -0.161259 0
M  V30 6367 H 615.082 -3.00025 -2.45079 0
M  V30 6368 H 615.496 -5.01546 -1.53465 0
M  V30 6369 H 616.97 -4.51832 -3.17099 0
M  V30 6370 H 617.447 -2.83229 -3.35675 0
M  V30 6371 H 618.053 -3.76858 -1.97125 0
M  V30 6372 N 616.368 0.432326 -1.51554 0
M  V30 6373 C 617.614 1.18309 -1.64714 0
M  V30 6374 C 617.947 1.90745 -0.364696 0
M  V30 6375 O 617.222 1.8381 0.635936 0
M  V30 6376 C 617.505 2.1961 -2.85383 0
M  V30 6377 C 617.358 1.51223 -4.23617 0
M  V30 6378 C 618.677 3.20538 -3.01569 0
M  V30 6379 H 615.796 0.428751 -0.599451 0
M  V30 6380 H 618.438 0.471689 -1.84052 0
M  V30 6381 H 616.588 2.8028 -2.69027 0
M  V30 6382 H 618.26 0.938516 -4.51652 0
M  V30 6383 H 616.503 0.814501 -4.26085 0
M  V30 6384 H 617.174 2.25024 -5.04052 0
M  V30 6385 H 619.65 2.69926 -3.16669 0
M  V30 6386 H 618.526 3.88706 -3.87555 0
M  V30 6387 H 618.787 3.86933 -2.13859 0
M  V30 6388 N 617.846 1.41785 0.688094 0
M  V30 6389 C 619.262 1.24419 0.999608 0
M  V30 6390 C 619.462 0.138868 2.01021 0
M  V30 6391 O 618.518 -0.494283 2.47615 0
M  V30 6392 C 619.831 2.59625 1.51709 0
M  V30 6393 C 621.379 2.66869 1.63554 0
M  V30 6394 C 621.854 4.0241 2.18702 0
M  V30 6395 N 623.345 4.04295 2.26053 0
M  V30 6396 C 624.08 5.05977 2.69768 0
M  V30 6397 N 623.576 6.18047 3.13033 0
M  V30 6398 N 625.369 4.93336 2.69398 0
M  V30 6399 H 617.52 2.12392 0.0187427 0
M  V30 6400 H 619.783 0.945347 0.0708673 0
M  V30 6401 H 619.489 3.41297 0.849059 0
M  V30 6402 H 619.363 2.82628 2.49803 0
M  V30 6403 H 621.75 1.8555 2.29467 0
M  V30 6404 H 621.831 2.47668 0.639857 0
M  V30 6405 H 621.475 4.8418 1.53402 0
M  V30 6406 H 621.405 4.18955 3.19037 0
M  V30 6407 H 623.896 3.23383 1.9553 0
M  V30 6408 H 624.209 6.91498 3.45038 0
M  V30 6409 H 622.554 6.21572 3.10923 0
M  V30 6410 H 625.745 4.04865 2.34952 0
M  V30 6411 H 625.918 5.72717 3.03148 0
M  V30 6412 N 619.324 -0.923095 1.27737 0
M  V30 6413 C 620.572 -1.66797 1.14119 0
M  V30 6414 C 620.893 -1.92479 -0.312541 0
M  V30 6415 O 620.163 -1.53432 -1.218 0
M  V30 6416 H 618.743 -0.618196 0.419336 0
M  V30 6417 H 621.405 -1.10815 1.60331 0
M  V30 6418 H 620.501 -2.63424 1.67374 0
M  V30 6419 N 620.802 -1.09834 -1.13024 0
M  V30 6420 C 621.749 -0.741522 -2.18564 0
M  V30 6421 C 622.719 0.279236 -1.63736 0
M  V30 6422 O 623.904 0.159923 -1.90129 0
M  V30 6423 C 621.044 -0.17277 -3.44667 0
M  V30 6424 C 620.157 -1.24808 -4.13578 0
M  V30 6425 C 619.292 -0.641631 -5.27311 0
M  V30 6426 C 618.331 -1.69795 -5.88078 0
M  V30 6427 N 617.468 -1.11223 -6.93234 0
M  V30 6428 H 622.308 -1.64576 -2.48432 0
M  V30 6429 H 619.845 -0.822174 -1.21978 0
M  V30 6430 H 621.803 0.17482 -4.16834 0
M  V30 6431 H 620.433 0.694725 -3.15235 0
M  V30 6432 H 619.485 -1.71288 -3.39653 0
M  V30 6433 H 620.797 -2.04795 -4.54819 0
M  V30 6434 H 619.951 -0.243128 -6.06213 0
M  V30 6435 H 618.69 0.189742 -4.87331 0
M  V30 6436 H 617.695 -2.10595 -5.07868 0
M  V30 6437 H 618.92 -2.53206 -6.3013 0
M  V30 6438 H 616.866 -0.302208 -6.55304 0
M  V30 6439 H 616.783 -1.84901 -7.3304 0
M  V30 6440 H 618.051 -0.740068 -7.75979 0
M  V30 6441 N 622.28 1.30327 -0.886154 0
M  V30 6442 C 623.19 2.31854 -0.357866 0
M  V30 6443 C 624.206 1.65392 0.540502 0
M  V30 6444 O 625.382 1.96683 0.433339 0
M  V30 6445 C 622.447 3.44171 0.417999 0
M  V30 6446 C 621.508 4.26257 -0.510263 0
M  V30 6447 C 620.741 5.3321 0.228669 0
M  V30 6448 O 620.964 5.51542 1.45458 0
M  V30 6449 O 619.898 6.0042 -0.421832 0
M  V30 6450 H 623.724 2.78995 -1.19982 0
M  V30 6451 H 621.309 1.34518 -0.650028 0
M  V30 6452 H 623.191 4.12588 0.857251 0
M  V30 6453 H 621.866 2.99164 1.23623 0
M  V30 6454 H 620.773 3.60533 -0.99835 0
M  V30 6455 H 622.106 4.74871 -1.29454 0
M  V30 6456 N 623.758 0.647228 1.43697 0
M  V30 6457 C 624.988 0.16551 2.05936 0
M  V30 6458 C 625.396 -1.17164 1.48557 0
M  V30 6459 O 624.739 -1.73307 0.60914 0
M  V30 6460 C 624.801 -0.00648082 3.59499 0
M  V30 6461 C 624.465 1.25503 4.39429 0
M  V30 6462 C 625.462 2.18241 4.71876 0
M  V30 6463 C 623.147 1.49494 4.79538 0
M  V30 6464 C 625.141 3.33268 5.43333 0
M  V30 6465 C 622.828 2.64815 5.50742 0
M  V30 6466 C 623.826 3.56528 5.82561 0
M  V30 6467 O 623.514 4.69836 6.52311 0
M  V30 6468 H 623.246 0.0844124 0.670709 0
M  V30 6469 H 625.8 0.88638 1.8529 0
M  V30 6470 H 624.03 -0.782661 3.78697 0
M  V30 6471 H 625.719 -0.444794 4.03456 0
M  V30 6472 H 626.485 2.00946 4.41413 0
M  V30 6473 H 622.364 0.789912 4.54182 0
M  V30 6474 H 625.908 4.04874 5.68087 0
M  V30 6475 H 621.805 2.82047 5.8062 0
M  V30 6476 H 622.573 4.69024 6.70789 0
M  V30 6477 N 625.236 -1.5273 0.388769 0
M  V30 6478 C 626.647 -1.86505 -0.0853788 0
M  V30 6479 C 626.998 -1.30847 -1.46197 0
M  V30 6480 O 626.123 -0.639609 -2.06732 0
M  V30 6481 C 626.718 -3.38414 -0.161703 0
M  V30 6482 C 625.277 -3.71902 -0.580144 0
M  V30 6483 C 624.424 -2.76095 0.258218 0
M  V30 6484 H 627.375 -1.46647 0.606665 0
M  V30 6485 H 627.396 -3.67638 -0.980936 0
M  V30 6486 H 626.908 -3.78893 0.840333 0
M  V30 6487 H 625.009 -3.36992 -1.58957 0
M  V30 6488 H 625.122 -4.77902 -0.338663 0
M  V30 6489 H 623.486 -2.53195 -0.276432 0
M  V30 6490 H 624.269 -3.19411 1.25822 0
M  V30 6491 N 626.714 -0.118576 -1.57153 0
M  V30 6492 C 627.644 0.828436 -2.1831 0
M  V30 6493 C 628.625 1.27758 -1.12303 0
M  V30 6494 O 629.81 1.34026 -1.40537 0
M  V30 6495 C 626.94 2.07876 -2.78217 0
M  V30 6496 C 625.894 1.76742 -3.89803 0
M  V30 6497 C 625.22 3.08801 -4.36516 0
M  V30 6498 C 626.52 1.03606 -5.11921 0
M  V30 6499 H 628.214 0.318824 -2.97698 0
M  V30 6500 H 625.76 0.151911 -1.43196 0
M  V30 6501 H 627.713 2.74584 -3.19659 0
M  V30 6502 H 626.437 2.61161 -1.96118 0
M  V30 6503 H 625.096 1.12424 -3.48936 0
M  V30 6504 H 624.744 3.6002 -3.51276 0
M  V30 6505 H 624.444 2.88743 -5.11763 0
M  V30 6506 H 625.968 3.76627 -4.80608 0
M  V30 6507 H 627.382 1.60467 -5.50385 0
M  V30 6508 H 625.779 0.936454 -5.92748 0
M  V30 6509 H 626.849 0.0227421 -4.84895 0
M  V30 6510 N 628.193 1.56834 0.155195 0
M  V30 6511 C 629.441 1.82536 0.867462 0
M  V30 6512 C 629.762 0.698168 1.82073 0
M  V30 6513 O 629.032 -0.280807 1.93877 0
M  V30 6514 H 627.612 0.673401 0.323327 0
M  V30 6515 H 630.274 1.94313 0.151156 0
M  V30 6516 H 629.37 2.77171 1.43466 0
M  V30 6517 N 629.671 -0.424282 1.51781 0
M  V30 6518 C 631.087 -0.761768 1.40247 0
M  V30 6519 C 631.287 -1.95324 0.495041 0
M  V30 6520 O 630.343 -2.5246 -0.0448949 0
M  V30 6521 C 631.656 -1.0299 2.82513 0
M  V30 6522 C 633.204 -1.13354 2.91753 0
M  V30 6523 C 633.679 -1.43453 4.34954 0
M  V30 6524 N 635.17 -1.5035 4.3812 0
M  V30 6525 C 635.905 -1.75236 5.45967 0
M  V30 6526 N 635.401 -1.97827 6.63955 0
M  V30 6527 N 637.194 -1.77126 5.33463 0
M  V30 6528 H 629.345 0.360228 2.09323 0
M  V30 6529 H 631.608 0.0988128 0.942836 0
M  V30 6530 H 631.314 -0.226961 3.50967 0
M  V30 6531 H 631.188 -1.95411 3.22637 0
M  V30 6532 H 633.575 -1.92709 2.23489 0
M  V30 6533 H 633.656 -0.188041 2.55108 0
M  V30 6534 H 633.3 -0.646209 5.03772 0
M  V30 6535 H 633.23 -2.3923 4.69123 0
M  V30 6536 H 635.721 -1.34742 3.53062 0
M  V30 6537 H 636.034 -2.16223 7.41935 0
M  V30 6538 H 634.379 -1.95123 6.67047 0
M  V30 6539 H 637.57 -1.59005 4.40267 0
M  V30 6540 H 637.743 -1.96182 6.17589 0
M  V30 6541 N 631.149 -1.42148 -0.680565 0
M  V30 6542 C 632.398 -1.41604 -1.43636 0
M  V30 6543 C 632.711 -0.0337887 -1.95571 0
M  V30 6544 O 633.917 0.0942588 -2.71336 0
M  V30 6545 C 632.373 -2.49056 -2.59806 0
M  V30 6546 C 631.981 -3.9326 -2.14594 0
M  V30 6547 C 633.725 -2.5767 -3.37352 0
M  V30 6548 C 631.632 -4.92232 -3.27813 0
M  V30 6549 H 630.562 -0.526656 -0.539583 0
M  V30 6550 H 633.213 -1.68033 -0.737369 0
M  V30 6551 H 631.595 -2.15782 -3.32045 0
M  V30 6552 H 632.769 -4.35858 -1.49546 0
M  V30 6553 H 631.084 -3.88443 -1.50002 0
M  V30 6554 H 633.681 -3.28794 -4.21662 0
M  V30 6555 H 634.024 -1.61837 -3.83555 0
M  V30 6556 H 634.557 -2.90109 -2.72179 0
M  V30 6557 H 631.296 -5.89522 -2.86607 0
M  V30 6558 H 630.816 -4.5427 -3.91661 0
M  V30 6559 H 632.495 -5.13684 -3.93367 0
M  V30 6560 N 632.627 0.916307 -1.28225 0
M  V30 6561 C 633.557 2.0352 -1.14464 0
M  V30 6562 C 634.538 1.70045 -0.0430844 0
M  V30 6563 O 635.723 1.92954 -0.219619 0
M  V30 6564 C 632.853 3.37889 -0.803027 0
M  V30 6565 C 631.807 3.85516 -1.85908 0
M  V30 6566 C 631.133 5.1682 -1.37116 0
M  V30 6567 C 632.433 4.07655 -3.26519 0
M  V30 6568 H 634.127 2.1529 -2.08064 0
M  V30 6569 H 631.673 1.03446 -1.00174 0
M  V30 6570 H 633.626 4.15654 -0.693537 0
M  V30 6571 H 632.35 3.26164 0.168674 0
M  V30 6572 H 631.009 3.09953 -1.95767 0
M  V30 6573 H 630.657 5.01497 -0.38859 0
M  V30 6574 H 630.357 5.49657 -2.07728 0
M  V30 6575 H 631.881 5.97143 -1.27484 0
M  V30 6576 H 633.295 4.75953 -3.19596 0
M  V30 6577 H 631.692 4.51818 -3.94943 0
M  V30 6578 H 632.762 3.12553 -3.70727 0
M  V30 6579 N 634.105 1.10431 1.1244 0
M  V30 6580 C 635.352 0.846717 1.83948 0
M  V30 6581 C 635.68 -0.627709 1.84093 0
M  V30 6582 O 634.935 -1.47876 1.28184 0
M  V30 6583 C 635.234 1.34022 3.3132 0
M  V30 6584 C 634.9 2.82606 3.51347 0
M  V30 6585 C 633.562 3.23182 3.56521 0
M  V30 6586 C 635.914 3.78356 3.58464 0
M  V30 6587 C 633.242 4.58258 3.66356 0
M  V30 6588 C 635.594 5.13234 3.69829 0
M  V30 6589 C 634.258 5.53384 3.73259 0
M  V30 6590 H 633.528 0.309836 0.673114 0
M  V30 6591 H 636.175 1.38091 1.32677 0
M  V30 6592 H 634.48 0.726047 3.85014 0
M  V30 6593 H 636.177 1.11739 3.85118 0
M  V30 6594 H 632.767 2.50212 3.47983 0
M  V30 6595 H 636.951 3.48115 3.53737 0
M  V30 6596 H 632.207 4.88787 3.67284 0
M  V30 6597 H 636.381 5.87272 3.74279 0
M  V30 6598 H 634.008 6.58045 3.80633 0
M  V30 6599 N 635.583 -1.29855 0.893053 0
M  V30 6600 C 636.831 -1.9544 0.514566 0
M  V30 6601 C 637.152 -1.70795 -0.940959 0
M  V30 6602 O 636.422 -1.03601 -1.66264 0
M  V30 6603 H 635.002 -0.723137 0.187302 0
M  V30 6604 H 637.664 -1.58234 1.13789 0
M  V30 6605 H 636.76 -3.04341 0.691581 0
M  V30 6606 N 637.061 -0.65484 -1.43351 0
M  V30 6607 C 638.338 -0.0987371 -1.95351 0
M  V30 6608 C 638.718 1.38161 -1.59608 0
M  V30 6609 O 638.066 2.10791 -0.882021 0
M  V30 6610 C 638.276 -0.346684 -3.47274 0
M  V30 6611 C 639.624 -0.25249 -4.23849 0
M  V30 6612 O 640.648 -0.279332 -3.55103 0
M  V30 6613 O 639.507 -0.177584 -5.46211 0
M  V30 6614 H 636.601 0.0086829 -0.826954 0
M  V30 6615 H 639.147 -0.728189 -1.53282 0
M  V30 6616 H 637.919 -1.37296 -3.66423 0
M  V30 6617 H 637.542 0.315757 -3.96344 0
M  V30 6618 N 638.539 1.52521 -0.396863 0
M  V30 6619 C 639.764 2.06571 0.185258 0
M  V30 6620 C 640.189 1.26605 1.39115 0
M  V30 6621 O 639.547 0.293055 1.78916 0
M  V30 6622 C 639.595 3.5674 0.526189 0
M  V30 6623 O 638.699 3.7929 1.61903 0
M  V30 6624 H 638.04 0.663712 0.0195474 0
M  V30 6625 H 640.57 1.966 -0.566519 0
M  V30 6626 H 640.58 4.00311 0.788338 0
M  V30 6627 H 639.255 4.14379 -0.355397 0
M  V30 6628 H 637.832 3.47605 1.35 0
M  V30 6629 N 640.017 0.126909 1.57088 0
M  V30 6630 C 641.257 -0.53216 1.97351 0
M  V30 6631 C 641.621 -1.63342 1.00913 0
M  V30 6632 O 642.822 -2.35194 1.30144 0
M  V30 6633 C 641.093 -1.04385 3.41817 0
M  V30 6634 S 642.652 -1.71033 4.04095 0
M  V30 6635 H 639.47 -0.172724 0.689701 0
M  V30 6636 H 642.072 0.213865 1.94327 0
M  V30 6637 H 640.776 -0.231289 4.09748 0
M  V30 6638 H 640.307 -1.82496 3.48509 0
M  V30 6639 H 642.322 -2.99656 3.95501 0
M  V30 6640 N 641.495 -1.56914 -0.146875 0
M  V30 6641 C 642.725 -1.87243 -0.873126 0
M  V30 6642 C 643.133 -0.713127 -1.75246 0
M  V30 6643 O 642.476 0.326228 -1.8078 0
M  V30 6644 C 642.538 -3.12279 -1.78107 0
M  V30 6645 C 642.202 -4.44082 -1.07889 0
M  V30 6646 C 643.199 -5.18096 -0.432734 0
M  V30 6647 C 640.884 -4.90807 -1.06836 0
M  V30 6648 C 642.878 -6.37039 0.214569 0
M  V30 6649 C 640.565 -6.09674 -0.417243 0
M  V30 6650 C 641.563 -6.82636 0.223093 0
M  V30 6651 O 641.251 -7.99245 0.863884 0
M  V30 6652 H 640.983 -0.624896 -0.257839 0
M  V30 6653 H 643.537 -2.04892 -0.14434 0
M  V30 6654 H 641.767 -2.90639 -2.5508 0
M  V30 6655 H 643.456 -3.28854 -2.37929 0
M  V30 6656 H 644.222 -4.83066 -0.432677 0
M  V30 6657 H 640.101 -4.3394 -1.55618 0
M  V30 6658 H 643.645 -6.93927 0.714965 0
M  V30 6659 H 639.542 -6.44165 -0.414967 0
M  V30 6660 H 640.31 -8.14912 0.765564 0
M  V30 6661 N 642.974 0.416227 -1.52004 0
M  V30 6662 C 644.385 0.995319 -1.57957 0
M  V30 6663 C 644.736 1.91744 -0.415754 0
M  V30 6664 O 643.861 2.11349 0.464808 0
M  V30 6665 C 644.456 1.81191 -2.86278 0
M  V30 6666 C 643.015 2.34115 -2.94732 0
M  V30 6667 C 642.162 1.139 -2.52828 0
M  V30 6668 H 645.113 0.196716 -1.57476 0
M  V30 6669 H 645.134 2.66859 -2.71231 0
M  V30 6670 H 644.646 1.14051 -3.70963 0
M  V30 6671 H 642.747 3.04647 -2.14525 0
M  V30 6672 H 642.86 2.65466 -3.98829 0
M  V30 6673 H 641.224 1.49081 -2.06511 0
M  V30 6674 H 642.007 0.483383 -3.3988 0
M  V30 6675 N 644.452 1.42507 0.673017 0
M  V30 6676 C 645.677 1.4668 1.46627 0
M  V30 6677 C 646.102 0.080066 1.8793 0
M  V30 6678 O 645.46 -0.921879 1.56112 0
M  V30 6679 C 645.508 2.40091 2.69051 0
M  V30 6680 O 644.612 1.8735 3.67387 0
M  V30 6681 H 643.953 0.496908 0.44043 0
M  V30 6682 H 646.483 1.87215 0.825334 0
M  V30 6683 H 646.493 2.56731 3.17101 0
M  V30 6684 H 645.168 3.4084 2.3833 0
M  V30 6685 H 643.745 1.80274 3.26429 0
M  V30 6686 N 645.93 -0.909495 1.28709 0
M  V30 6687 C 646.878 -2.03381 1.12866 0
M  V30 6688 C 647.872 -1.69335 0.0468074 0
M  V30 6689 O 649.078 -1.78819 0.205891 0
M  V30 6690 H 645.453 -0.666452 0.348348 0
M  V30 6691 H 647.424 -2.13885 2.08077 0
M  V30 6692 C 646.173 -3.38092 0.811742 0
M  V30 6693 H 645.496 -3.64786 1.63619 0
M  V30 6694 H 646.936 -4.17477 0.740869 0
M  V30 6695 C 645.395 -3.33395 -0.484679 0
M  V30 6696 O 645.925 -3.72089 -1.5137 0
M  V30 6697 N 644.131 -2.86491 -0.486961 0
M  V30 6698 H 643.678 -2.55199 0.350877 0
M  V30 6699 H 643.636 -2.83731 -1.3544 0
M  V30 6700 N 647.408 -1.11026 -1.11852 0
M  V30 6701 C 648.685 -0.768347 -1.79877 0
M  V30 6702 C 649.065 0.744261 -1.97545 0
M  V30 6703 O 648.413 1.67271 -1.55669 0
M  V30 6704 C 648.623 -1.52648 -3.13846 0
M  V30 6705 C 649.971 -1.70297 -3.88953 0
M  V30 6706 O 650.995 -1.49037 -3.23522 0
M  V30 6707 O 649.854 -2.05593 -5.06353 0
M  V30 6708 H 646.948 -0.277891 -0.778913 0
M  V30 6709 H 649.494 -1.21343 -1.18633 0
M  V30 6710 H 648.266 -2.55564 -2.96315 0
M  V30 6711 H 647.889 -1.07466 -3.82801 0
M  V30 6712 N 648.886 1.2938 -0.899927 0
M  V30 6713 C 650.111 2.00228 -0.540692 0
M  V30 6714 C 650.536 1.66909 0.867359 0
M  V30 6715 O 649.894 0.893824 1.57735 0
M  V30 6716 C 649.942 3.52921 -0.740232 0
M  V30 6717 O 649.046 4.11879 0.207154 0
M  V30 6718 H 648.387 0.629505 -0.211233 0
M  V30 6719 H 650.917 1.6487 -1.21158 0
M  V30 6720 H 650.927 4.0287 -0.644973 0
M  V30 6721 H 649.602 3.76508 -1.76677 0
M  V30 6722 H 648.179 3.72845 0.0643315 0
M  V30 6723 N 650.364 0.662433 1.43002 0
M  V30 6724 C 651.78 0.330835 1.56133 0
M  V30 6725 C 651.98 -1.16454 1.64441 0
M  V30 6726 O 651.036 -1.94964 1.60453 0
M  V30 6727 C 652.349 1.05029 2.81761 0
M  V30 6728 C 653.897 1.03142 2.95518 0
M  V30 6729 C 654.372 1.73196 4.2399 0
M  V30 6730 N 655.863 1.70004 4.30875 0
M  V30 6731 C 656.598 2.21074 5.29069 0
M  V30 6732 N 656.094 2.80473 6.33488 0
M  V30 6733 N 657.887 2.1152 5.20784 0
M  V30 6734 H 650.038 1.63272 1.35853 0
M  V30 6735 H 652.301 0.687149 0.653092 0
M  V30 6736 H 652.007 2.10542 2.81718 0
M  V30 6737 H 651.881 0.607664 3.72273 0
M  V30 6738 H 654.268 -0.0153339 2.95096 0
M  V30 6739 H 654.349 1.51282 2.0627 0
M  V30 6740 H 653.993 2.77833 4.25172 0
M  V30 6741 H 653.923 1.22515 5.1215 0
M  V30 6742 H 656.414 1.26667 3.56039 0
M  V30 6743 H 656.727 3.17094 7.04749 0
M  V30 6744 H 655.072 2.84538 6.34085 0
M  V30 6745 H 658.263 1.64814 4.38126 0
M  V30 6746 H 658.436 2.51629 5.97149 0
M  V30 6747 N 651.842 -1.52309 0.404946 0
M  V30 6748 C 652.774 -2.24579 -0.45791 0
M  V30 6749 C 653.787 -1.2739 -1.01369 0
M  V30 6750 O 654.976 -1.53363 -0.91335 0
M  V30 6751 C 652.076 -2.9608 -1.64893 0
M  V30 6752 C 651.249 -4.20106 -1.21777 0
M  V30 6753 C 650.308 -4.74468 -2.27523 0
M  V30 6754 O 649.334 -5.37157 -1.88285 0
M  V30 6755 N 650.536 -4.55678 -3.59635 0
M  V30 6756 H 653.301 -2.99265 0.161341 0
M  V30 6757 H 650.862 -1.60228 0.232107 0
M  V30 6758 H 652.854 -3.29344 -2.35191 0
M  V30 6759 H 651.424 -2.24606 -2.17419 0
M  V30 6760 H 650.644 -3.92704 -0.343071 0
M  V30 6761 H 651.932 -5.00658 -0.906596 0
M  V30 6762 H 651.33 -4.05673 -3.94266 0
M  V30 6763 H 649.887 -4.9339 -4.25922 0
M  V30 6764 N 653.32 -0.135238 -1.57019 0
M  V30 6765 C 654.253 0.846618 -2.11914 0
M  V30 6766 C 655.231 1.25019 -1.03966 0
M  V30 6767 O 656.415 1.34838 -1.31723 0
M  V30 6768 C 653.542 2.1352 -2.6292 0
M  V30 6769 C 652.588 1.87846 -3.82905 0
M  V30 6770 S 653.421 1.08005 -5.24495 0
M  V30 6771 C 654.577 2.38008 -5.78881 0
M  V30 6772 H 654.81 0.379752 -2.94865 0
M  V30 6773 H 652.343 0.0788387 -1.54199 0
M  V30 6774 H 654.301 2.87551 -2.92958 0
M  V30 6775 H 652.962 2.57323 -1.80121 0
M  V30 6776 H 652.155 2.83365 -4.16797 0
M  V30 6777 H 651.757 1.21929 -3.53567 0
M  V30 6778 H 654.049 3.33742 -5.89595 0
M  V30 6779 H 654.992 2.08638 -6.76665 0
M  V30 6780 H 655.4 2.48119 -5.07048 0
M  V30 6781 N 654.798 1.5699 0.138552 0
M  V30 6782 C 655.748 1.9532 1.17619 0
M  V30 6783 C 656.732 0.825545 1.38107 0
M  V30 6784 O 657.924 1.08908 1.39528 0
M  V30 6785 C 655.053 2.34451 2.50774 0
M  V30 6786 C 654.139 3.53805 2.33844 0
M  V30 6787 N 654.53 4.70088 1.86685 0
M  V30 6788 C 652.828 3.59055 2.64567 0
M  V30 6789 C 653.529 5.52165 1.82998 0
M  V30 6790 N 652.505 4.94108 2.26624 0
M  V30 6791 H 656.307 2.82694 0.803809 0
M  V30 6792 H 653.821 1.5866 0.346519 0
M  V30 6793 H 655.818 2.60119 3.25797 0
M  V30 6794 H 654.478 1.48431 2.88788 0
M  V30 6795 H 655.489 4.93681 1.56523 0
M  V30 6796 H 652.166 2.83596 3.06398 0
M  V30 6797 H 653.556 6.55407 1.47957 0
M  V30 6798 N 656.276 -0.40816 1.52223 0
M  V30 6799 C 657.208 -1.51642 1.71864 0
M  V30 6800 C 658.221 -1.51378 0.599056 0
M  V30 6801 O 659.41 -1.55626 0.874239 0
M  V30 6802 C 656.51 -2.90534 1.74481 0
M  V30 6803 C 655.683 -3.14979 3.03491 0
M  V30 6804 C 654.742 -4.33749 2.97907 0
M  V30 6805 O 653.768 -4.30982 3.71811 0
M  V30 6806 N 654.97 -5.38912 2.15764 0
M  V30 6807 H 657.735 -1.35188 2.67478 0
M  V30 6808 H 655.296 -0.597468 1.50472 0
M  V30 6809 H 657.288 -3.68056 1.68275 0
M  V30 6810 H 655.858 -3.00441 0.863363 0
M  V30 6811 H 655.078 -2.25492 3.23337 0
M  V30 6812 H 656.366 -3.28156 3.88833 0
M  V30 6813 H 655.764 -5.44008 1.55152 0
M  V30 6814 H 654.321 -6.15174 2.15415 0
M  V30 6815 N 657.755 -1.42862 -0.66545 0
M  V30 6816 C 658.718 -1.46756 -1.76055 0
M  V30 6817 C 659.718 -0.353866 -1.56858 0
M  V30 6818 O 660.908 -0.615099 -1.62979 0
M  V30 6819 C 658.04 -1.30829 -3.14796 0
M  V30 6820 H 659.233 -2.44271 -1.73987 0
M  V30 6821 H 656.786 -1.29447 -0.875965 0
M  V30 6822 H 657.521 -0.342733 -3.22484 0
M  V30 6823 H 657.306 -2.11551 -3.30134 0
M  V30 6824 H 658.796 -1.36458 -3.94676 0
M  V30 6825 N 659.233 0.902656 -1.29189 0
M  V30 6826 C 660.163 2.02294 -1.16616 0
M  V30 6827 C 661.144 1.6999 -0.0611175 0
M  V30 6828 O 662.329 1.9271 -0.240072 0
M  V30 6829 C 659.459 3.37018 -0.83882 0
M  V30 6830 C 658.413 3.83522 -1.89986 0
M  V30 6831 C 657.739 5.15337 -1.42589 0
M  V30 6832 C 659.039 4.04169 -3.30824 0
M  V30 6833 H 660.733 2.13071 -2.10336 0
M  V30 6834 H 658.279 1.02378 -1.01266 0
M  V30 6835 H 660.232 4.14895 -0.737584 0
M  V30 6836 H 658.956 3.26325 0.134071 0
M  V30 6837 H 657.615 3.07859 -1.99043 0
M  V30 6838 H 657.263 5.01056 -0.441759 0
M  V30 6839 H 656.963 5.47423 -2.13547 0
M  V30 6840 H 658.487 5.95758 -1.3381 0
M  V30 6841 H 659.901 4.72537 -3.24626 0
M  V30 6842 H 658.298 4.47604 -3.99713 0
M  V30 6843 H 659.368 3.08604 -3.74021 0
M  V30 6844 N 660.711 1.11618 1.11262 0
M  V30 6845 C 661.643 0.734015 2.17129 0
M  V30 6846 C 662.656 -0.235243 1.61091 0
M  V30 6847 O 663.845 -0.0178597 1.78491 0
M  V30 6848 C 660.945 0.0643682 3.38839 0
M  V30 6849 C 660.118 1.06092 4.24339 0
M  V30 6850 C 659.177 0.420482 5.24517 0
M  V30 6851 O 658.203 1.07495 5.58957 0
M  V30 6852 N 659.405 -0.815828 5.74739 0
M  V30 6853 H 662.17 1.64492 2.50524 0
M  V30 6854 H 659.731 1.00664 1.26801 0
M  V30 6855 H 661.723 -0.375851 4.02951 0
M  V30 6856 H 660.293 -0.749147 3.03491 0
M  V30 6857 H 659.513 1.67903 3.56654 0
M  V30 6858 H 660.801 1.73507 4.78302 0
M  V30 6859 H 660.199 -1.36668 5.48943 0
M  V30 6860 H 658.756 -1.199 6.40677 0
M  V30 6861 N 662.189 -1.289 0.906776 0
M  V30 6862 C 663.466 -1.90221 0.455537 0
M  V30 6863 C 663.846 -1.82251 -1.06527 0
M  V30 6864 O 663.194 -1.25385 -1.91026 0
M  V30 6865 C 663.404 -3.35015 0.97806 0
M  V30 6866 C 664.752 -4.12018 1.02598 0
M  V30 6867 O 665.776 -3.43947 0.926218 0
M  V30 6868 O 664.635 -5.33677 1.17689 0
M  V30 6869 H 661.729 -0.814505 0.143214 0
M  V30 6870 H 664.275 -1.37317 0.997104 0
M  V30 6871 H 663.047 -3.35006 2.02204 0
M  V30 6872 H 662.67 -3.95408 0.416914 0
M  V30 6873 N 663.667 -0.670007 -1.42649 0
M  V30 6874 C 664.914 -0.190286 -2.01604 0
M  V30 6875 C 665.242 1.20155 -1.52948 0
M  V30 6876 O 664.497 1.81964 -0.72026 0
M  V30 6877 C 664.796 -0.168298 -3.57004 0
M  V30 6878 C 664.462 -1.50415 -4.25072 0
M  V30 6879 C 663.124 -1.86992 -4.43382 0
M  V30 6880 C 665.476 -2.38414 -4.63474 0
M  V30 6881 C 662.804 -3.11203 -4.97363 0
M  V30 6882 C 665.156 -3.61933 -5.18833 0
M  V30 6883 C 663.82 -3.98685 -5.35356 0
M  V30 6884 H 663.09 -0.0696305 -0.737721 0
M  V30 6885 H 665.737 -0.864044 -1.70899 0
M  V30 6886 H 664.042 0.588958 -3.87348 0
M  V30 6887 H 665.739 0.22001 -4.00396 0
M  V30 6888 H 662.329 -1.20959 -4.11177 0
M  V30 6889 H 666.513 -2.11442 -4.49006 0
M  V30 6890 H 661.769 -3.39705 -5.08341 0
M  V30 6891 H 665.943 -4.30326 -5.47533 0
M  V30 6892 H 663.57 -4.95009 -5.76949 0
M  V30 6893 N 665.145 1.52092 -0.413018 0
M  V30 6894 C 666.075 2.30021 0.401567 0
M  V30 6895 C 667.056 1.34395 1.04269 0
M  V30 6896 O 668.241 1.63304 1.05097 0
M  V30 6897 C 665.371 3.12447 1.51638 0
M  V30 6898 C 664.325 4.16153 1.00005 0
M  V30 6899 C 663.651 4.86948 2.20875 0
M  V30 6900 C 664.951 5.22275 0.0513757 0
M  V30 6901 H 666.645 2.98365 -0.248704 0
M  V30 6902 H 664.191 1.4349 -0.121052 0
M  V30 6903 H 666.144 3.65733 2.09326 0
M  V30 6904 H 664.868 2.41879 2.19458 0
M  V30 6905 H 663.527 3.63882 0.445549 0
M  V30 6906 H 663.175 4.12905 2.8726 0
M  V30 6907 H 662.875 5.57057 1.86978 0
M  V30 6908 H 664.399 5.43048 2.79162 0
M  V30 6909 H 665.813 5.70778 0.537176 0
M  V30 6910 H 664.21 5.9977 -0.198977 0
M  V30 6911 H 665.28 4.76611 -0.892736 0
M  V30 6912 N 666.623 0.143563 1.56945 0
M  V30 6913 C 667.848 -0.518701 2.00809 0
M  V30 6914 C 668.273 -1.5785 1.02298 0
M  V30 6915 O 667.631 -1.813 -0.0017839 0
M  V30 6916 C 667.679 -1.09929 3.43436 0
M  V30 6917 O 666.783 -2.21425 3.47915 0
M  V30 6918 H 666.124 -0.127215 0.6517 0
M  V30 6919 H 668.654 0.239283 2.03196 0
M  V30 6920 H 668.664 -1.4288 3.82164 0
M  V30 6921 H 667.339 -0.323162 4.14643 0
M  V30 6922 H 665.916 -1.89728 3.21026 0
M  V30 6923 N 668.101 -1.57061 -0.130224 0
M  V30 6924 C 669.064 -1.98593 -1.14426 0
M  V30 6925 C 670.064 -0.874584 -1.34936 0
M  V30 6926 O 671.254 -1.14086 -1.31643 0
M  V30 6927 C 668.386 -2.31639 -2.50112 0
M  V30 6928 H 669.579 -2.89374 -0.787561 0
M  V30 6929 H 667.132 -1.51756 -0.374146 0
M  V30 6930 H 667.867 -1.43703 -2.90723 0
M  V30 6931 H 667.652 -3.12684 -2.36583 0
M  V30 6932 H 669.142 -2.64551 -3.23114 0
M  V30 6933 N 669.579 0.400081 -1.52437 0
M  V30 6934 C 670.511 1.50729 -1.72666 0
M  V30 6935 C 671.524 1.51058 -0.607075 0
M  V30 6936 O 672.713 1.5516 -0.88248 0
M  V30 6937 C 669.813 2.89604 -1.76019 0
M  V30 6938 C 668.986 3.13365 -3.05157 0
M  V30 6939 C 668.045 4.32163 -3.00203 0
M  V30 6940 O 667.071 4.29004 -3.74092 0
M  V30 6941 N 668.273 5.3776 -2.18619 0
M  V30 6942 H 671.038 1.33767 -2.68191 0
M  V30 6943 H 668.599 0.58948 -1.50787 0
M  V30 6944 H 670.591 3.67159 -1.70225 0
M  V30 6945 H 669.161 2.99979 -0.879284 0
M  V30 6946 H 668.381 2.23774 -3.24529 0
M  V30 6947 H 669.669 3.26089 -3.90568 0
M  V30 6948 H 669.067 5.43177 -1.58035 0
M  V30 6949 H 667.624 6.14023 -2.18674 0
M  V30 6950 N 671.057 1.43213 0.657864 0
M  V30 6951 C 671.989 1.43974 1.78337 0
M  V30 6952 C 673.002 0.336482 1.59285 0
M  V30 6953 O 674.191 0.600631 1.68091 0
M  V30 6954 C 671.291 1.23242 3.15697 0
M  V30 6955 C 670.464 2.46319 3.61449 0
M  V30 6956 C 669.523 2.2088 4.77597 0
M  V30 6957 O 668.549 2.942 4.87273 0
M  V30 6958 N 669.751 1.22251 5.67481 0
M  V30 6959 H 672.516 2.40993 1.78164 0
M  V30 6960 H 670.077 1.3831 0.841549 0
M  V30 6961 H 672.069 1.04113 3.91079 0
M  V30 6962 H 670.639 0.346849 3.1067 0
M  V30 6963 H 669.859 2.80904 2.76563 0
M  V30 6964 H 671.147 3.28239 3.88763 0
M  V30 6965 H 670.545 0.616433 5.62331 0
M  V30 6966 H 669.102 1.09107 6.42603 0
M  V30 6967 N 672.536 -0.895792 1.29666 0
M  V30 6968 C 673.782 -1.64908 1.18039 0
M  V30 6969 C 674.115 -1.9236 -0.266682 0
M  V30 6970 O 673.39 -1.53682 -1.19214 0
M  V30 6971 C 673.673 -2.99574 1.99819 0
M  V30 6972 C 673.526 -2.79163 3.52687 0
M  V30 6973 C 674.845 -4.00358 1.82761 0
M  V30 6974 H 671.964 -0.598437 0.430165 0
M  V30 6975 H 674.606 -1.03736 1.59182 0
M  V30 6976 H 672.756 -3.51786 1.64859 0
M  V30 6977 H 674.428 -2.33821 3.9765 0
M  V30 6978 H 672.671 -2.13871 3.77414 0
M  V30 6979 H 673.342 -3.74871 4.05186 0
M  V30 6980 H 675.818 -3.57268 2.13304 0
M  V30 6981 H 674.694 -4.92514 2.42325 0
M  V30 6982 H 674.955 -4.35096 0.783839 0
M  V30 6983 N 674.014 -1.12206 -1.10668 0
M  V30 6984 C 674.946 -0.74552 -2.16736 0
M  V30 6985 C 675.959 0.226696 -1.61214 0
M  V30 6986 O 677.148 0.0083936 -1.78498 0
M  V30 6987 C 674.248 -0.0823368 -3.388 0
M  V30 6988 C 673.421 -1.08341 -4.2377 0
M  V30 6989 C 672.48 -0.448292 -5.24287 0
M  V30 6990 O 671.506 -1.10458 -5.58379 0
M  V30 6991 N 672.708 0.785336 -5.75163 0
M  V30 6992 H 675.473 -1.65818 -2.49649 0
M  V30 6993 H 673.034 -1.01335 -1.26265 0
M  V30 6994 H 675.026 0.354476 -4.03145 0
M  V30 6995 H 673.596 0.733041 -3.03884 0
M  V30 6996 H 672.816 -1.69792 -3.55759 0
M  V30 6997 H 674.104 -1.76042 -4.77375 0
M  V30 6998 H 673.502 1.33755 -5.4966 0
M  V30 6999 H 672.059 1.16501 -6.41304 0
M  V30 7000 N 675.492 1.28418 -0.913599 0
M  V30 7001 C 676.455 2.25564 -0.406624 0
M  V30 7002 C 677.455 1.5387 0.466965 0
M  V30 7003 O 678.645 1.72094 0.270042 0
M  V30 7004 C 675.777 3.38339 0.417053 0
M  V30 7005 H 676.97 2.71926 -1.26477 0
M  V30 7006 H 674.523 1.40098 -0.692986 0
M  V30 7007 H 675.258 2.97339 1.29461 0
M  V30 7008 H 675.043 3.91542 -0.209102 0
M  V30 7009 H 676.533 4.10578 0.762602 0
M  V30 7010 N 676.97 0.677563 1.42291 0
M  V30 7011 C 678.381 0.277912 1.8462 0
M  V30 7012 C 678.732 -1.18048 1.56714 0
M  V30 7013 O 677.857 -1.90404 1.02836 0
M  V30 7014 C 678.452 0.497619 3.35126 0
M  V30 7015 C 677.011 0.152063 3.76093 0
M  V30 7016 C 676.158 0.78872 2.65847 0
M  V30 7017 H 679.109 0.879527 1.32098 0
M  V30 7018 H 679.13 -0.24939 3.79682 0
M  V30 7019 H 678.642 1.55913 3.55405 0
M  V30 7020 H 676.743 -0.905896 3.6142 0
M  V30 7021 H 676.856 0.594514 4.75397 0
M  V30 7022 H 675.22 0.219813 2.5375 0
M  V30 7023 H 676.003 1.85374 2.88949 0
M  V30 7024 N 678.448 -1.51871 0.421078 0
M  V30 7025 C 679.694 -2.02237 -0.151014 0
M  V30 7026 C 680.027 -1.30554 -1.43768 0
M  V30 7027 O 679.302 -0.41546 -1.90011 0
M  V30 7028 C 679.585 -3.5802 -0.386482 0
M  V30 7029 C 679.438 -4.40339 0.9177 0
M  V30 7030 C 680.757 -4.24444 -1.16342 0
M  V30 7031 H 677.876 -0.735062 -0.0534102 0
M  V30 7032 H 680.518 -1.81656 0.556888 0
M  V30 7033 H 678.668 -3.75688 -0.989494 0
M  V30 7034 H 680.34 -4.34357 1.55344 0
M  V30 7035 H 678.583 -4.06073 1.526 0
M  V30 7036 H 679.254 -5.47451 0.707187 0
M  V30 7037 H 681.73 -4.10948 -0.652788 0
M  V30 7038 H 680.606 -5.33358 -1.29693 0
M  V30 7039 H 680.867 -3.84204 -2.18724 0
M  V30 7040 N 679.926 -0.151884 -1.56866 0
M  V30 7041 C 680.873 0.785936 -2.17006 0
M  V30 7042 C 681.843 1.2407 -1.10435 0
M  V30 7043 O 683.028 1.31235 -1.38499 0
M  V30 7044 C 680.168 2.01771 -2.79969 0
M  V30 7045 C 679.281 1.6083 -4.00946 0
M  V30 7046 C 678.416 2.79224 -4.51893 0
M  V30 7047 C 677.455 2.3468 -5.65324 0
M  V30 7048 N 676.592 3.461 -6.10867 0
M  V30 7049 H 681.432 0.266286 -2.96808 0
M  V30 7050 H 678.969 0.11972 -1.46612 0
M  V30 7051 H 680.927 2.73989 -3.14621 0
M  V30 7052 H 679.557 2.51139 -2.02803 0
M  V30 7053 H 678.609 0.783592 -3.72242 0
M  V30 7054 H 679.921 1.24119 -4.83111 0
M  V30 7055 H 679.075 3.59625 -4.88625 0
M  V30 7056 H 677.814 3.19183 -3.68746 0
M  V30 7057 H 676.819 1.52721 -5.28163 0
M  V30 7058 H 678.044 1.95801 -6.5026 0
M  V30 7059 H 675.99 3.85671 -5.30654 0
M  V30 7060 H 675.907 3.1342 -6.87971 0
M  V30 7061 H 677.175 4.26844 -6.52246 0
M  V30 7062 N 681.404 1.57128 0.121893 0
M  V30 7063 C 682.334 2.03165 1.15092 0
M  V30 7064 C 683.315 0.915587 1.43356 0
M  V30 7065 O 684.5 1.1851 1.53847 0
M  V30 7066 C 681.63 2.43352 2.47784 0
M  V30 7067 C 680.584 3.58376 2.33989 0
M  V30 7068 C 679.91 3.84454 3.71617 0
M  V30 7069 C 681.21 4.90199 1.80283 0
M  V30 7070 H 682.904 2.89382 0.768023 0
M  V30 7071 H 680.45 1.39218 0.367998 0
M  V30 7072 H 682.403 2.74163 3.20019 0
M  V30 7073 H 681.127 1.54103 2.87958 0
M  V30 7074 H 679.786 3.2777 1.64202 0
M  V30 7075 H 679.434 2.92414 4.09271 0
M  V30 7076 H 679.134 4.61877 3.6324 0
M  V30 7077 H 680.658 4.17714 4.45362 0
M  V30 7078 H 682.072 5.19565 2.42333 0
M  V30 7079 H 680.469 5.71601 1.82735 0
M  V30 7080 H 681.539 4.78904 0.760184 0
M  V30 7081 N 682.882 -0.391992 1.52647 0
M  V30 7082 C 684.112 -1.15692 1.71169 0
M  V30 7083 C 684.52 -1.84285 0.428444 0
M  V30 7084 O 683.863 -1.73393 -0.606669 0
M  V30 7085 C 683.925 -2.25033 2.80357 0
M  V30 7086 C 683.589 -1.76433 4.21569 0
M  V30 7087 C 684.586 -1.2427 5.0483 0
M  V30 7088 C 682.271 -1.82746 4.67877 0
M  V30 7089 C 684.265 -0.790657 6.32477 0
M  V30 7090 C 681.952 -1.37153 5.9551 0
M  V30 7091 C 682.95 -0.853997 6.7764 0
M  V30 7092 O 682.638 -0.404708 8.02881 0
M  V30 7093 H 682.37 -0.35297 0.576531 0
M  V30 7094 H 684.924 -0.464994 2.00067 0
M  V30 7095 H 683.154 -2.97641 2.46874 0
M  V30 7096 H 684.843 -2.86718 2.87311 0
M  V30 7097 H 685.609 -1.18752 4.70237 0
M  V30 7098 H 681.488 -2.21971 4.04042 0
M  V30 7099 H 685.032 -0.386024 6.96531 0
M  V30 7100 H 680.929 -1.42356 6.29607 0
M  V30 7101 H 681.697 -0.526459 8.16805 0
M  V30 7102 N 684.36 -1.4356 -0.65026 0
M  V30 7103 C 685.585 -1.48995 -1.44275 0
M  V30 7104 C 686.01 -0.109954 -1.87778 0
M  V30 7105 O 685.368 0.896926 -1.57559 0
M  V30 7106 C 685.416 -2.44341 -2.65198 0
M  V30 7107 O 684.52 -1.93172 -3.6436 0
M  V30 7108 H 683.861 -0.503852 -0.432469 0
M  V30 7109 H 686.391 -1.88504 -0.795446 0
M  V30 7110 H 686.401 -2.61743 -3.12977 0
M  V30 7111 H 685.076 -3.44588 -2.32877 0
M  V30 7112 H 683.653 -1.85445 -3.23519 0
M  V30 7113 N 685.838 0.888903 -1.30139 0
M  V30 7114 C 687.115 1.62145 -1.094 0
M  V30 7115 C 687.495 2.08041 0.358091 0
M  V30 7116 O 686.843 1.84438 1.34888 0
M  V30 7117 C 687.053 2.794 -2.09133 0
M  V30 7118 C 688.401 3.49826 -2.40638 0
M  V30 7119 O 689.425 2.89583 -2.07412 0
M  V30 7120 O 688.284 4.58457 -2.97455 0
M  V30 7121 H 685.378 0.712475 -0.41989 0
M  V30 7122 H 687.924 0.936023 -1.41551 0
M  V30 7123 H 686.696 2.42762 -3.06891 0
M  V30 7124 H 686.319 3.55643 -1.77776 0
M  V30 7125 N 687.317 1.12792 1.10072 0
M  V30 7126 C 688.563 0.89679 1.82563 0
M  V30 7127 C 688.918 -0.571152 1.83727 0
M  V30 7128 O 688.211 -1.41697 1.28967 0
M  V30 7129 C 688.405 1.4102 3.28403 0
M  V30 7130 C 688.234 2.92652 3.41445 0
M  V30 7131 C 687.004 3.60928 3.53637 0
M  V30 7132 C 689.202 3.9063 3.34534 0
M  V30 7133 N 687.184 5.00638 3.55295 0
M  V30 7134 C 688.555 5.16492 3.42981 0
M  V30 7135 C 690.61 3.82989 3.18157 0
M  V30 7136 C 689.313 6.35609 3.3674 0
M  V30 7137 C 691.339 5.01633 3.13239 0
M  V30 7138 C 690.701 6.26355 3.22272 0
M  V30 7139 H 686.8 0.381482 0.682638 0
M  V30 7140 H 689.384 1.43491 1.31599 0
M  V30 7141 H 687.555 0.899077 3.77851 0
M  V30 7142 H 689.287 1.12075 3.88872 0
M  V30 7143 H 686.042 3.11429 3.56803 0
M  V30 7144 H 686.466 5.73521 3.59725 0
M  V30 7145 H 691.108 2.87454 3.10049 0
M  V30 7146 H 688.826 7.31407 3.43613 0
M  V30 7147 H 692.412 4.97454 3.01713 0
M  V30 7148 H 691.292 7.1662 3.18473 0
M  V30 7149 N 688.795 -1.27931 0.920396 0
M  V30 7150 C 689.725 -2.29487 0.431024 0
M  V30 7151 C 690.706 -1.62435 -0.504861 0
M  V30 7152 O 691.891 -1.89797 -0.411176 0
M  V30 7153 C 689.021 -3.45788 -0.323709 0
M  V30 7154 C 687.975 -4.24784 0.523658 0
M  V30 7155 C 687.301 -5.33488 -0.359809 0
M  V30 7156 C 688.601 -4.90874 1.78437 0
M  V30 7157 H 690.295 -2.70671 1.27975 0
M  V30 7158 H 687.841 -1.30121 0.616813 0
M  V30 7159 H 689.794 -4.15927 -0.676952 0
M  V30 7160 H 688.518 -3.03502 -1.2064 0
M  V30 7161 H 687.177 -3.56382 0.85951 0
M  V30 7162 H 686.825 -4.87445 -1.24124 0
M  V30 7163 H 686.525 -5.87247 0.203605 0
M  V30 7164 H 688.049 -6.06472 -0.708787 0
M  V30 7165 H 689.463 -5.53339 1.49963 0
M  V30 7166 H 687.86 -5.54659 2.29071 0
M  V30 7167 H 688.93 -4.14988 2.50824 0
M  V30 7168 N 690.273 -0.685099 -1.4193 0
M  V30 7169 C 691.498 -0.218842 -2.06242 0
M  V30 7170 C 691.923 1.11923 -1.51178 0
M  V30 7171 O 691.281 1.69837 -0.634446 0
M  V30 7172 C 691.329 -0.175592 -3.60172 0
M  V30 7173 O 690.433 0.852776 -4.03487 0
M  V30 7174 H 689.774 -0.109531 -0.654904 0
M  V30 7175 H 692.304 -0.937013 -1.81882 0
M  V30 7176 H 692.314 -0.00291151 -4.08 0
M  V30 7177 H 690.989 -1.15222 -3.99621 0
M  V30 7178 H 689.566 0.650301 -3.67186 0
M  V30 7179 N 691.751 1.51645 -0.429126 0
M  V30 7180 C 692.997 2.02314 0.140286 0
M  V30 7181 C 693.33 1.31314 1.43074 0
M  V30 7182 O 692.605 0.425531 1.89788 0
M  V30 7183 C 692.888 3.5822 0.36749 0
M  V30 7184 C 692.741 4.39846 -0.941039 0
M  V30 7185 C 694.06 4.25055 1.14089 0
M  V30 7186 H 691.179 0.735335 0.0495112 0
M  V30 7187 H 693.821 1.81358 -0.566514 0
M  V30 7188 H 691.971 3.76207 0.969556 0
M  V30 7189 H 693.643 4.33527 -1.57646 0
M  V30 7190 H 691.886 4.05259 -1.54751 0
M  V30 7191 H 692.557 5.47069 -0.73621 0
M  V30 7192 H 695.033 4.11288 0.630986 0
M  V30 7193 H 693.909 5.34038 1.26863 0
M  V30 7194 H 694.17 3.85358 2.16683 0
M  V30 7195 N 693.229 0.160201 1.56784 0
M  V30 7196 C 694.477 -0.486625 1.96154 0
M  V30 7197 C 694.798 -1.64525 1.04673 0
M  V30 7198 O 694.068 -1.95586 0.110864 0
M  V30 7199 H 692.648 -0.182764 0.724297 0
M  V30 7200 H 695.31 0.238787 1.93432 0
M  V30 7201 H 694.406 -0.854025 3.00188 0
M  V30 7202 N 694.707 -1.5719 -0.113559 0
M  V30 7203 C 695.657 -1.97166 -1.14497 0
M  V30 7204 C 696.641 -0.847413 -1.36776 0
M  V30 7205 O 697.833 -1.11114 -1.37777 0
M  V30 7206 C 694.962 -2.38411 -2.47013 0
M  V30 7207 C 694.048 -3.5748 -2.28185 0
M  V30 7208 N 694.439 -4.72998 -1.79182 0
M  V30 7209 C 692.737 -3.63218 -2.58821 0
M  V30 7210 C 693.438 -5.55007 -1.74191 0
M  V30 7211 N 692.414 -4.9765 -2.18735 0
M  V30 7212 H 696.216 -2.83937 -0.758733 0
M  V30 7213 H 693.73 -1.59191 -0.321234 0
M  V30 7214 H 695.727 -2.65269 -3.21618 0
M  V30 7215 H 694.387 -1.53007 -2.8639 0
M  V30 7216 H 695.398 -4.96109 -1.48649 0
M  V30 7217 H 692.075 -2.88434 -3.01847 0
M  V30 7218 H 693.465 -6.57678 -1.37512 0
M  V30 7219 N 696.185 0.383891 -1.52853 0
M  V30 7220 C 697.431 1.13009 -1.68395 0
M  V30 7221 C 697.764 1.89488 -0.425195 0
M  V30 7222 O 697.039 1.8574 0.577136 0
M  V30 7223 C 697.322 2.10419 -2.92226 0
M  V30 7224 C 697.175 1.3767 -4.28214 0
M  V30 7225 C 698.494 3.10781 -3.11614 0
M  V30 7226 H 695.613 0.409463 -0.612788 0
M  V30 7227 H 698.255 0.412895 -1.85459 0
M  V30 7228 H 696.405 2.71579 -2.77808 0
M  V30 7229 H 698.077 0.794352 -4.54409 0
M  V30 7230 H 696.32 0.678533 -4.2846 0
M  V30 7231 H 696.991 2.08874 -5.10956 0
M  V30 7232 H 699.467 2.59715 -3.25096 0
M  V30 7233 H 698.343 3.76179 -3.99725 0
M  V30 7234 H 698.604 3.79933 -2.2606 0
M  V30 7235 N 697.663 1.43903 0.642637 0
M  V30 7236 C 698.94 1.36556 1.40043 0
M  V30 7237 C 699.32 0.0185588 2.11092 0
M  V30 7238 O 698.668 -0.998438 2.05532 0
M  V30 7239 C 698.878 2.55596 2.37638 0
M  V30 7240 C 700.226 2.99153 3.01318 0
M  V30 7241 O 701.25 2.55719 2.47965 0
M  V30 7242 O 700.109 3.74427 3.98078 0
M  V30 7243 H 697.203 0.540189 0.626198 0
M  V30 7244 H 699.749 1.55971 0.668657 0
M  V30 7245 H 698.521 3.45256 1.84158 0
M  V30 7246 H 698.144 2.38334 3.18249 0
M  V30 7247 N 699.141 -0.881989 1.30609 0
M  V30 7248 C 700.051 -2.02076 1.19174 0
M  V30 7249 C 701.067 -1.73645 0.11102 0
M  V30 7250 O 702.243 -1.98735 0.326528 0
M  V30 7251 C 699.308 -3.3515 0.887438 0
M  V30 7252 C 698.369 -3.76983 2.05383 0
M  V30 7253 C 697.602 -5.03707 1.76395 0
M  V30 7254 O 697.825 -5.66171 0.693302 0
M  V30 7255 O 696.759 -5.42019 2.61723 0
M  V30 7256 H 700.585 -2.14652 2.14845 0
M  V30 7257 H 698.17 -1.00843 1.10232 0
M  V30 7258 H 700.052 -4.14975 0.73306 0
M  V30 7259 H 698.727 -3.23676 -0.0393354 0
M  V30 7260 H 697.634 -2.97849 2.26355 0
M  V30 7261 H 698.967 -3.93066 2.96243 0
M  V30 7262 N 700.619 -1.13374 -1.09472 0
M  V30 7263 C 701.866 -0.89519 -1.81639 0
M  V30 7264 C 702.194 0.57868 -1.85692 0
M  V30 7265 O 701.449 1.44426 -1.32059 0
M  V30 7266 C 701.748 -1.42759 -3.2765 0
M  V30 7267 C 701.414 -2.91822 -3.43731 0
M  V30 7268 C 700.076 -3.32521 -3.47827 0
M  V30 7269 C 702.428 -3.87727 -3.48307 0
M  V30 7270 C 699.756 -4.6781 -3.54078 0
M  V30 7271 C 702.108 -5.22859 -3.56091 0
M  V30 7272 C 700.772 -5.63086 -3.58456 0
M  V30 7273 H 700.042 -0.327573 -0.664663 0
M  V30 7274 H 702.689 -1.4156 -1.28969 0
M  V30 7275 H 700.994 -0.827871 -3.82954 0
M  V30 7276 H 702.691 -1.2191 -3.8202 0
M  V30 7277 H 699.281 -2.5935 -3.41226 0
M  V30 7278 H 703.465 -3.57371 -3.44383 0
M  V30 7279 H 698.721 -4.98353 -3.54195 0
M  V30 7280 H 702.895 -5.96989 -3.58577 0
M  V30 7281 H 700.522 -6.67905 -3.63052 0
M  V30 7282 N 702.098 1.27442 -0.927168 0
M  V30 7283 C 703.028 2.29256 -0.443188 0
M  V30 7284 C 704.009 1.62701 0.49624 0
M  V30 7285 O 705.194 1.90013 0.401105 0
M  V30 7286 C 702.324 3.45955 0.305366 0
M  V30 7287 C 701.278 4.24501 -0.546178 0
M  V30 7288 C 700.604 5.33671 0.331512 0
M  V30 7289 C 701.904 4.89921 -1.81037 0
M  V30 7290 H 703.598 2.69988 -1.29409 0
M  V30 7291 H 701.144 1.29792 -0.623705 0
M  V30 7292 H 703.097 4.1628 0.654885 0
M  V30 7293 H 701.821 3.04138 1.19029 0
M  V30 7294 H 700.48 3.55921 -0.878398 0
M  V30 7295 H 700.128 4.88096 1.21537 0
M  V30 7296 H 699.828 5.87131 -0.234746 0
M  V30 7297 H 701.352 6.0684 0.676614 0
M  V30 7298 H 702.766 5.52536 -1.52895 0
M  V30 7299 H 701.163 5.53436 -2.32009 0
M  V30 7300 H 702.233 4.13652 -2.53021 0
M  V30 7301 N 703.576 0.692616 1.41565 0
M  V30 7302 C 704.801 0.229776 2.06123 0
M  V30 7303 C 705.226 -1.11119 1.5177 0
M  V30 7304 O 704.584 -1.69498 0.643444 0
M  V30 7305 C 704.632 0.19469 3.60074 0
M  V30 7306 O 703.736 -0.831366 4.03933 0
M  V30 7307 H 703.077 0.113002 0.654314 0
M  V30 7308 H 705.607 0.946645 1.81383 0
M  V30 7309 H 705.617 0.0245487 4.07993 0
M  V30 7310 H 704.292 1.17339 3.99004 0
M  V30 7311 H 702.869 -0.630819 3.67526 0
M  V30 7312 N 705.054 -1.51416 0.437162 0
M  V30 7313 C 706.301 -2.02086 -0.129364 0
M  V30 7314 C 706.629 -1.32133 -1.42728 0
M  V30 7315 O 705.884 -0.424916 -1.91031 0
M  V30 7316 C 706.183 -3.55203 -0.39564 0
M  V30 7317 C 705.849 -4.43447 0.81644 0
M  V30 7318 C 704.511 -4.67285 1.14884 0
M  V30 7319 C 706.863 -4.95219 1.62503 0
M  V30 7320 C 704.191 -5.40141 2.29052 0
M  V30 7321 C 706.543 -5.69327 2.7577 0
M  V30 7322 C 705.207 -5.91429 3.09464 0
M  V30 7323 H 704.477 -0.739486 -0.0473375 0
M  V30 7324 H 707.124 -1.82368 0.584321 0
M  V30 7325 H 705.429 -3.73252 -1.19121 0
M  V30 7326 H 707.126 -3.91944 -0.847399 0
M  V30 7327 H 703.716 -4.2509 0.547422 0
M  V30 7328 H 707.9 -4.76686 1.38144 0
M  V30 7329 H 703.156 -5.55468 2.55471 0
M  V30 7330 H 707.33 -6.08433 3.38795 0
M  V30 7331 H 704.957 -6.47662 3.98042 0
M  V30 7332 N 706.532 -0.168513 -1.56696 0
M  V30 7333 C 707.778 0.477865 -1.9709 0
M  V30 7334 C 708.111 1.63084 -1.05438 0
M  V30 7335 O 707.386 1.94238 -0.10095 0
M  V30 7336 C 707.669 0.963521 -3.4697 0
M  V30 7337 C 707.522 -0.189443 -4.49401 0
M  V30 7338 C 708.841 1.83813 -3.99876 0
M  V30 7339 H 705.96 0.172229 -0.716593 0
M  V30 7340 H 708.602 -0.254083 -1.88293 0
M  V30 7341 H 706.752 1.58724 -3.54597 0
M  V30 7342 H 708.424 -0.826451 -4.53836 0
M  V30 7343 H 706.667 -0.845366 -4.25483 0
M  V30 7344 H 707.338 0.192446 -5.51664 0
M  V30 7345 H 709.814 1.31235 -3.94863 0
M  V30 7346 H 708.69 2.14697 -5.0517 0
M  V30 7347 H 708.951 2.78289 -3.43523 0
M  V30 7348 N 708.01 1.57248 0.105221 0
M  V30 7349 C 709.421 1.74612 0.660865 0
M  V30 7350 C 709.772 0.789231 1.79626 0
M  V30 7351 O 708.897 -0.0346611 2.16372 0
M  V30 7352 C 709.492 3.16624 1.20559 0
M  V30 7353 C 708.051 3.35447 1.7074 0
M  V30 7354 C 707.198 2.70445 0.612764 0
M  V30 7355 H 710.149 1.5824 -0.12079 0
M  V30 7356 H 710.17 3.18937 2.07508 0
M  V30 7357 H 709.682 3.86245 0.379012 0
M  V30 7358 H 707.783 2.7089 2.5583 0
M  V30 7359 H 707.896 4.43702 1.80736 0
M  V30 7360 H 706.26 2.32061 1.04975 0
M  V30 7361 H 707.043 3.42699 -0.203066 0
M  V30 7362 N 709.488 -0.375779 1.53054 0
M  V30 7363 C 710.451 -1.44254 1.7811 0
M  V30 7364 C 711.451 -1.47018 0.651328 0
M  V30 7365 O 712.641 -1.47957 0.919472 0
M  V30 7366 C 709.773 -2.8345 1.89391 0
M  V30 7367 H 710.966 -1.23316 2.73374 0
M  V30 7368 H 708.519 -0.608312 1.43977 0
M  V30 7369 H 709.254 -3.09716 0.961589 0
M  V30 7370 H 709.039 -2.82844 2.71555 0
M  V30 7371 H 710.529 -3.60722 2.10404 0
M  V30 7372 N 710.966 -1.44241 -0.634997 0
M  V30 7373 C 712.377 -1.41622 -1.21655 0
M  V30 7374 C 712.728 -0.129584 -1.95772 0
M  V30 7375 O 711.853 0.770225 -2.02229 0
M  V30 7376 C 712.448 -2.56557 -2.21278 0
M  V30 7377 C 711.007 -2.57145 -2.7487 0
M  V30 7378 C 710.154 -2.33354 -1.49804 0
M  V30 7379 H 713.105 -1.52878 -0.425905 0
M  V30 7380 H 713.126 -2.29089 -3.03807 0
M  V30 7381 H 712.638 -3.50186 -1.67306 0
M  V30 7382 H 710.739 -1.67447 -3.32855 0
M  V30 7383 H 710.852 -3.55507 -3.21172 0
M  V30 7384 H 709.216 -1.82372 -1.77799 0
M  V30 7385 H 709.999 -3.29092 -0.977402 0
M  V30 7386 N 712.444 0.87505 -1.31075 0
M  V30 7387 C 713.721 1.60976 -1.11113 0
M  V30 7388 C 714.101 2.08409 0.336006 0
M  V30 7389 O 713.449 1.85858 1.32924 0
M  V30 7390 C 713.659 2.77166 -2.12085 0
M  V30 7391 C 715.007 3.47254 -2.44335 0
M  V30 7392 O 716.031 2.87367 -2.10472 0
M  V30 7393 O 714.89 4.55276 -3.02301 0
M  V30 7394 H 711.984 0.707982 -0.427424 0
M  V30 7395 H 714.53 0.920957 -1.42536 0
M  V30 7396 H 713.302 2.39494 -3.09449 0
M  V30 7397 H 712.925 3.53737 -1.81538 0
M  V30 7398 N 713.922 1.13953 1.08869 0
M  V30 7399 C 715.338 0.878924 1.33218 0
M  V30 7400 C 715.538 -0.482478 1.95638 0
M  V30 7401 O 714.594 -1.22778 2.2064 0
M  V30 7402 C 715.907 2.00798 2.23832 0
M  V30 7403 C 717.455 2.04073 2.37325 0
M  V30 7404 C 717.93 3.16258 3.31278 0
M  V30 7405 N 719.421 3.15805 3.38853 0
M  V30 7406 C 720.156 3.99249 4.11567 0
M  V30 7407 N 719.652 4.92721 4.87029 0
M  V30 7408 N 721.445 3.87327 4.0735 0
M  V30 7409 H 713.596 2.01645 0.66731 0
M  V30 7410 H 715.859 0.878395 0.356547 0
M  V30 7411 H 715.565 2.98986 1.85203 0
M  V30 7412 H 715.439 1.92704 3.24261 0
M  V30 7413 H 717.826 1.06495 2.75214 0
M  V30 7414 H 717.907 2.16239 1.36654 0
M  V30 7415 H 717.551 4.14079 2.9411 0
M  V30 7416 H 717.481 3.0133 4.31866 0
M  V30 7417 H 719.972 2.48102 2.8505 0
M  V30 7418 H 720.285 5.52867 5.39961 0
M  V30 7419 H 718.63 4.96723 4.86098 0
M  V30 7420 H 721.821 3.13627 3.475 0
M  V30 7421 H 721.994 4.52585 4.63757 0
M  V30 7422 N 715.4 -1.26948 0.933913 0
M  V30 7423 C 716.347 -2.26635 0.436484 0
M  V30 7424 C 717.317 -1.58397 -0.499953 0
M  V30 7425 O 718.502 -1.86171 -0.417753 0
M  V30 7426 C 715.642 -3.43803 -0.298951 0
M  V30 7427 C 714.755 -4.26736 0.672316 0
M  V30 7428 C 713.89 -5.31134 -0.0835872 0
M  V30 7429 C 712.929 -6.05742 0.879979 0
M  V30 7430 N 712.066 -7.01926 0.156301 0
M  V30 7431 H 716.906 -2.68558 1.29154 0
M  V30 7432 H 714.443 -1.32052 0.648118 0
M  V30 7433 H 716.401 -4.10554 -0.741723 0
M  V30 7434 H 715.031 -3.02814 -1.1182 0
M  V30 7435 H 714.083 -3.59842 1.23361 0
M  V30 7436 H 715.395 -4.78502 1.40846 0
M  V30 7437 H 714.549 -6.03863 -0.585984 0
M  V30 7438 H 713.288 -4.80188 -0.852661 0
M  V30 7439 H 712.293 -5.31846 1.39357 0
M  V30 7440 H 713.518 -6.58777 1.64894 0
M  V30 7441 H 711.464 -6.53301 -0.594413 0
M  V30 7442 H 711.381 -7.51409 0.831906 0
M  V30 7443 H 712.649 -7.78821 -0.325239 0
M  V30 7444 N 716.879 -0.700114 -1.41195 0
M  V30 7445 C 718.127 -0.232546 -2.00758 0
M  V30 7446 C 718.448 1.1734 -1.55745 0
M  V30 7447 O 717.718 1.79262 -0.790058 0
M  V30 7448 H 716.298 -0.0829845 -0.742376 0
M  V30 7449 H 718.96 -0.902289 -1.72756 0
M  V30 7450 H 718.056 -0.253521 -3.11069 0
M  V30 7451 N 718.357 1.51182 -0.445186 0
M  V30 7452 C 719.604 2.02152 0.118645 0
M  V30 7453 C 719.932 1.32888 1.42025 0
M  V30 7454 O 719.187 0.435041 1.90803 0
M  V30 7455 C 719.486 3.55408 0.376797 0
M  V30 7456 C 719.152 4.43008 -0.839945 0
M  V30 7457 C 717.814 4.66669 -1.17361 0
M  V30 7458 C 720.166 4.9435 -1.65127 0
M  V30 7459 C 717.494 5.38919 -2.31913 0
M  V30 7460 C 719.846 5.67857 -2.78786 0
M  V30 7461 C 718.51 5.89779 -3.12597 0
M  V30 7462 H 717.78 0.739727 0.0434152 0
M  V30 7463 H 720.427 1.82055 -0.593984 0
M  V30 7464 H 718.732 3.73879 1.1714 0
M  V30 7465 H 720.429 3.92388 0.826602 0
M  V30 7466 H 717.019 4.24793 -0.569958 0
M  V30 7467 H 721.203 4.75947 -1.4067 0
M  V30 7468 H 716.459 5.54105 -2.58413 0
M  V30 7469 H 720.633 6.06628 -3.42017 0
M  V30 7470 H 718.26 6.45542 -4.01471 0
M  V30 7471 N 719.835 0.176821 1.56605 0
M  V30 7472 C 721.251 -0.179278 1.5859 0
M  V30 7473 C 721.451 -1.62433 1.19238 0
M  V30 7474 O 720.507 -2.35665 0.906552 0
M  V30 7475 C 721.82 0.106524 3.00511 0
M  V30 7476 C 723.368 0.0451731 3.12967 0
M  V30 7477 C 723.843 0.304038 4.5699 0
M  V30 7478 N 725.334 0.252008 4.62514 0
M  V30 7479 C 726.069 0.426404 5.71812 0
M  V30 7480 N 725.565 0.660155 6.89648 0
M  V30 7481 N 727.358 0.361926 5.60934 0
M  V30 7482 H 719.509 1.12001 1.8047 0
M  V30 7483 H 721.772 0.445679 0.836704 0
M  V30 7484 H 721.478 1.10778 3.33798 0
M  V30 7485 H 721.352 -0.599337 3.72408 0
M  V30 7486 H 723.739 -0.946662 2.79504 0
M  V30 7487 H 723.82 0.78383 2.43495 0
M  V30 7488 H 723.464 1.29311 4.91163 0
M  V30 7489 H 723.394 -0.455294 5.24628 0
M  V30 7490 H 725.885 0.0772102 3.77821 0
M  V30 7491 H 726.198 0.782529 7.68828 0
M  V30 7492 H 724.543 0.696835 6.91498 0
M  V30 7493 H 727.734 0.17986 4.67754 0
M  V30 7494 H 727.907 0.501263 6.46058 0
M  V30 7495 N 721.313 -1.57302 -0.09688 0
M  V30 7496 C 722.243 -2.0497 -1.11846 0
M  V30 7497 C 723.224 -0.938278 -1.41882 0
M  V30 7498 O 724.409 -1.20943 -1.51942 0
M  V30 7499 C 721.539 -2.47264 -2.43881 0
M  V30 7500 C 720.493 -3.62053 -2.28257 0
M  V30 7501 C 719.819 -3.90318 -3.65453 0
M  V30 7502 C 721.119 -4.93005 -1.72461 0
M  V30 7503 H 722.813 -2.90567 -0.721888 0
M  V30 7504 H 720.359 -1.39786 -0.345803 0
M  V30 7505 H 722.312 -2.7922 -3.15617 0
M  V30 7506 H 721.036 -1.58664 -2.8547 0
M  V30 7507 H 719.695 -3.30341 -1.58967 0
M  V30 7508 H 719.343 -2.98889 -4.04567 0
M  V30 7509 H 719.043 -4.67597 -3.55846 0
M  V30 7510 H 720.567 -4.24747 -4.3866 0
M  V30 7511 H 721.981 -5.23354 -2.34036 0
M  V30 7512 H 720.378 -5.74436 -1.73618 0
M  V30 7513 H 721.448 -4.80053 -0.683898 0
M  V30 7514 N 722.791 0.367657 -1.53252 0
M  V30 7515 C 723.721 1.45632 -1.8252 0
M  V30 7516 C 724.702 1.55979 -0.678568 0
M  V30 7517 O 725.887 1.70581 -0.928217 0
M  V30 7518 C 723.017 2.82994 -2.01325 0
M  V30 7519 C 721.971 2.87473 -3.17086 0
M  V30 7520 C 721.297 4.2749 -3.21179 0
M  V30 7521 C 722.597 2.55182 -4.55719 0
M  V30 7522 H 724.291 1.21387 -2.73689 0
M  V30 7523 H 721.837 0.58251 -1.31692 0
M  V30 7524 H 723.79 3.59179 -2.20383 0
M  V30 7525 H 722.514 3.08622 -1.06864 0
M  V30 7526 H 721.173 2.13739 -2.97844 0
M  V30 7527 H 720.821 4.5019 -2.24361 0
M  V30 7528 H 720.521 4.31403 -3.98955 0
M  V30 7529 H 722.045 5.0555 -3.42419 0
M  V30 7530 H 723.459 3.21081 -4.74953 0
M  V30 7531 H 721.856 2.70414 -5.3572 0
M  V30 7532 H 722.926 1.5044 -4.60973 0
M  V30 7533 N 724.269 1.44576 0.627338 0
M  V30 7534 C 725.199 1.54562 1.75022 0
M  V30 7535 C 726.18 0.398378 1.65369 0
M  V30 7536 O 727.365 0.61899 1.84071 0
M  V30 7537 C 724.495 1.49309 3.13567 0
M  V30 7538 C 723.449 2.62549 3.38012 0
M  V30 7539 C 722.775 2.42348 4.76625 0
M  V30 7540 C 724.075 4.04678 3.30202 0
M  V30 7541 H 725.769 2.4855 1.66922 0
M  V30 7542 H 723.315 1.19624 0.801636 0
M  V30 7543 H 725.268 1.54895 3.919 0
M  V30 7544 H 723.992 0.518392 3.2246 0
M  V30 7545 H 722.651 2.56358 2.62061 0
M  V30 7546 H 722.299 1.43062 4.82226 0
M  V30 7547 H 721.999 3.18273 4.93939 0
M  V30 7548 H 723.523 2.49758 5.57183 0
M  V30 7549 H 724.937 4.12217 3.98435 0
M  V30 7550 H 723.334 4.80836 3.5905 0
M  V30 7551 H 724.404 4.2798 2.27949 0
M  V30 7552 N 725.747 -0.868086 1.31537 0
M  V30 7553 C 726.71 -1.95703 1.19302 0
M  V30 7554 C 727.71 -1.60355 0.119612 0
M  V30 7555 O 728.9 -1.70247 0.36902 0
M  V30 7556 C 726.032 -3.30599 0.831684 0
M  V30 7557 H 727.225 -2.07982 2.16064 0
M  V30 7558 H 724.778 -1.05661 1.15176 0
M  V30 7559 H 725.513 -3.2402 -0.134694 0
M  V30 7560 H 725.298 -3.57629 1.60761 0
M  V30 7561 H 726.788 -4.10439 0.770026 0
M  V30 7562 N 727.225 -1.14528 -1.08264 0
M  V30 7563 C 728.45 -0.938381 -1.84957 0
M  V30 7564 C 728.875 0.508044 -1.81109 0
M  V30 7565 O 728.233 1.36146 -1.19724 0
M  V30 7566 C 728.281 -1.44568 -3.30352 0
M  V30 7567 O 727.385 -0.638745 -4.07423 0
M  V30 7568 H 726.726 -0.335394 -0.573068 0
M  V30 7569 H 729.256 -1.52287 -1.36637 0
M  V30 7570 H 729.266 -1.45449 -3.81194 0
M  V30 7571 H 727.941 -2.49876 -3.32468 0
M  V30 7572 H 726.518 -0.698801 -3.66294 0
M  V30 7573 N 728.703 1.26451 -0.940633 0
M  V30 7574 C 730.114 1.75726 -0.630653 0
M  V30 7575 C 730.465 1.76631 0.854167 0
M  V30 7576 O 729.59 1.37807 1.66848 0
M  V30 7577 C 730.185 3.19114 -1.13805 0
M  V30 7578 C 728.744 3.66005 -0.878497 0
M  V30 7579 C 727.891 2.45505 -1.28928 0
M  V30 7580 H 730.842 1.12535 -1.119 0
M  V30 7581 H 730.863 3.77311 -0.491625 0
M  V30 7582 H 730.375 3.18424 -2.21874 0
M  V30 7583 H 728.476 3.72126 0.187833 0
M  V30 7584 H 728.589 4.54844 -1.50512 0
M  V30 7585 H 726.953 2.4467 -0.707713 0
M  V30 7586 H 727.736 2.47516 -2.37888 0
M  V30 7587 N 730.181 0.707592 1.40822 0
M  V30 7588 C 731.597 0.38034 1.55002 0
M  V30 7589 C 731.797 -1.11163 1.68062 0
M  V30 7590 O 730.853 -1.89761 1.66574 0
M  V30 7591 C 732.166 1.1394 2.78277 0
M  V30 7592 C 733.714 1.12492 2.92087 0
M  V30 7593 C 734.189 1.86597 4.18265 0
M  V30 7594 N 735.68 1.83626 4.25248 0
M  V30 7595 C 736.415 2.37794 5.21768 0
M  V30 7596 N 735.911 3.00485 6.24244 0
M  V30 7597 N 737.704 2.27982 5.13791 0
M  V30 7598 H 729.855 1.67511 1.3059 0
M  V30 7599 H 732.118 0.707579 0.630901 0
M  V30 7600 H 731.824 2.19398 2.74877 0
M  V30 7601 H 731.698 0.725793 3.70151 0
M  V30 7602 H 734.085 0.0785564 2.94995 0
M  V30 7603 H 734.166 1.57768 2.01353 0
M  V30 7604 H 733.81 2.91219 4.16118 0
M  V30 7605 H 733.74 1.38746 5.07993 0
M  V30 7606 H 736.231 1.3793 3.51829 0
M  V30 7607 H 736.544 3.39355 6.94304 0
M  V30 7608 H 734.889 3.04567 6.24711 0
M  V30 7609 H 738.08 1.78669 4.3266 0
M  V30 7610 H 738.253 2.70499 5.88841 0
M  V30 7611 N 731.66 -1.50943 0.453197 0
M  V30 7612 C 732.885 -2.07116 -0.108463 0
M  V30 7613 C 733.31 -1.31681 -1.3432 0
M  V30 7614 O 732.668 -0.359256 -1.77705 0
M  V30 7615 C 732.716 -3.58447 -0.393424 0
M  V30 7616 O 731.82 -3.85038 -1.47714 0
M  V30 7617 H 731.161 -0.66398 0.0050993 0
M  V30 7618 H 733.691 -1.94362 0.639095 0
M  V30 7619 H 733.701 -4.02961 -0.639222 0
M  V30 7620 H 732.376 -4.12774 0.508946 0
M  V30 7621 H 730.953 -3.52376 -1.22006 0
M  V30 7622 N 733.138 -0.185124 -1.56509 0
M  V30 7623 C 734.378 0.458547 -1.9919 0
M  V30 7624 C 734.742 1.59484 -1.06906 0
M  V30 7625 O 735.943 2.30201 -1.38783 0
M  V30 7626 C 734.214 0.916263 -3.45455 0
M  V30 7627 S 735.773 1.55918 -4.10165 0
M  V30 7628 H 732.591 0.147008 -0.695636 0
M  V30 7629 H 735.193 -0.285841 -1.93399 0
M  V30 7630 H 733.897 0.0790543 -4.10324 0
M  V30 7631 H 733.428 1.69436 -3.55042 0
M  V30 7632 H 735.443 2.84771 -4.0635 0
M  V30 7633 N 734.616 1.57351 0.0885366 0
M  V30 7634 C 735.846 1.90355 0.80303 0
M  V30 7635 C 736.254 0.777678 1.72478 0
M  V30 7636 O 735.597 -0.258908 1.81866 0
M  V30 7637 C 735.659 3.18674 1.66395 0
M  V30 7638 C 735.323 4.4778 0.913327 0
M  V30 7639 C 736.32 5.19345 0.240148 0
M  V30 7640 C 734.005 4.94434 0.885462 0
M  V30 7641 C 735.999 6.35803 -0.450854 0
M  V30 7642 C 733.686 6.10802 0.190679 0
M  V30 7643 C 734.684 6.81337 -0.476295 0
M  V30 7644 O 734.372 7.95488 -1.15992 0
M  V30 7645 H 734.104 0.634035 0.234469 0
M  V30 7646 H 736.658 2.05287 0.0681959 0
M  V30 7647 H 734.888 2.99906 2.44117 0
M  V30 7648 H 736.577 3.37458 2.2556 0
M  V30 7649 H 737.343 4.84339 0.253092 0
M  V30 7650 H 733.222 4.39417 1.39406 0
M  V30 7651 H 736.766 6.90795 -0.972019 0
M  V30 7652 H 732.663 6.45261 0.175603 0
M  V30 7653 H 733.431 8.11509 -1.06749 0
M  V30 7654 N 736.094 -0.359525 1.53444 0
M  V30 7655 C 737.041 -1.44073 1.8031 0
M  V30 7656 C 738.011 -1.52946 0.647811 0
M  V30 7657 O 739.196 -1.68739 0.890614 0
M  V30 7658 C 736.336 -2.80941 2.00416 0
M  V30 7659 C 735.449 -2.80986 3.28132 0
M  V30 7660 C 734.584 -4.09468 3.38393 0
M  V30 7661 C 733.623 -4.03679 4.60119 0
M  V30 7662 N 732.76 -5.23821 4.675 0
M  V30 7663 H 737.6 -1.20464 2.72566 0
M  V30 7664 H 735.137 -0.583859 1.35017 0
M  V30 7665 H 737.095 -3.60459 2.1006 0
M  V30 7666 H 735.725 -3.02936 1.11489 0
M  V30 7667 H 734.777 -1.93666 3.27411 0
M  V30 7668 H 736.089 -2.72583 4.17732 0
M  V30 7669 H 735.243 -4.97404 3.47382 0
M  V30 7670 H 733.982 -4.20632 2.4682 0
M  V30 7671 H 732.987 -3.14129 4.51224 0
M  V30 7672 H 734.212 -3.94112 5.5304 0
M  V30 7673 H 732.158 -5.35559 3.7883 0
M  V30 7674 H 732.075 -5.17611 5.51013 0
M  V30 7675 H 733.343 -6.13572 4.8078 0
M  V30 7676 N 737.572 -1.44907 -0.619662 0
M  V30 7677 C 738.502 -1.55488 -1.742 0
M  V30 7678 C 739.483 -0.407143 -1.65156 0
M  V30 7679 O 740.668 -0.628743 -1.8374 0
M  V30 7680 C 737.798 -1.5097 -3.1277 0
M  V30 7681 C 736.752 -2.64337 -3.36615 0
M  V30 7682 C 736.078 -2.44872 -4.75333 0
M  V30 7683 C 737.378 -4.06423 -3.28051 0
M  V30 7684 H 739.072 -2.49432 -1.65602 0
M  V30 7685 H 736.618 -1.20047 -0.795281 0
M  V30 7686 H 738.571 -1.56971 -3.91073 0
M  V30 7687 H 737.295 -0.535486 -3.2218 0
M  V30 7688 H 735.954 -2.57744 -2.60698 0
M  V30 7689 H 735.602 -1.45617 -4.81461 0
M  V30 7690 H 735.302 -3.20888 -4.92244 0
M  V30 7691 H 736.826 -2.52709 -5.55851 0
M  V30 7692 H 738.24 -4.14324 -3.96243 0
M  V30 7693 H 736.637 -4.82733 -3.56495 0
M  V30 7694 H 737.707 -4.29183 -2.25676 0
M  V30 7695 N 739.05 0.861098 -1.31996 0
M  V30 7696 C 740.297 1.61481 -1.22188 0
M  V30 7697 C 740.625 1.93276 0.217853 0
M  V30 7698 O 739.88 1.56942 1.16909 0
M  V30 7699 C 740.179 2.94822 -2.02027 0
M  V30 7700 C 739.845 2.82483 -3.51446 0
M  V30 7701 C 738.507 2.78825 -3.92186 0
M  V30 7702 C 740.859 2.68878 -4.46491 0
M  V30 7703 C 738.187 2.59433 -5.26224 0
M  V30 7704 C 740.539 2.51022 -5.80664 0
M  V30 7705 C 739.203 2.45753 -6.20614 0
M  V30 7706 H 738.473 0.590902 -0.447119 0
M  V30 7707 H 741.12 0.999376 -1.63355 0
M  V30 7708 H 739.425 3.6045 -1.53569 0
M  V30 7709 H 741.122 3.52149 -1.91812 0
M  V30 7710 H 737.712 2.86152 -3.19085 0
M  V30 7711 H 741.896 2.70754 -4.1594 0
M  V30 7712 H 737.152 2.53784 -5.5624 0
M  V30 7713 H 741.326 2.39473 -6.53931 0
M  V30 7714 H 738.953 2.30485 -7.24417 0
M  V30 7715 N 740.528 1.15101 1.07655 0
M  V30 7716 C 741.46 0.802722 2.14684 0
M  V30 7717 C 742.473 -0.183874 1.61758 0
M  V30 7718 O 743.662 0.0389349 1.78458 0
M  V30 7719 C 740.762 0.172135 3.38463 0
M  V30 7720 C 739.935 1.19538 4.20749 0
M  V30 7721 C 738.994 0.58714 5.22914 0
M  V30 7722 O 738.02 1.25224 5.55255 0
M  V30 7723 N 739.222 -0.632566 5.77043 0
M  V30 7724 H 741.987 1.72379 2.45164 0
M  V30 7725 H 739.548 1.04647 1.23534 0
M  V30 7726 H 741.54 -0.247465 4.03943 0
M  V30 7727 H 740.11 -0.652214 3.0572 0
M  V30 7728 H 739.33 1.79165 3.51132 0
M  V30 7729 H 740.618 1.88636 4.7254 0
M  V30 7730 H 740.016 -1.19135 5.53013 0
M  V30 7731 H 738.573 -0.994566 6.44167 0
M  V30 7732 N 742.006 -1.2595 0.947325 0
M  V30 7733 C 742.916 -2.29883 0.468079 0
M  V30 7734 C 743.932 -1.67783 -0.460975 0
M  V30 7735 O 745.108 -1.98526 -0.339006 0
M  V30 7736 C 742.173 -3.45773 -0.253315 0
M  V30 7737 C 741.234 -4.23337 0.713054 0
M  V30 7738 C 740.467 -5.33694 0.025993 0
M  V30 7739 O 740.69 -5.57853 -1.18978 0
M  V30 7740 O 739.624 -5.97724 0.70782 0
M  V30 7741 H 743.45 -2.72952 1.33156 0
M  V30 7742 H 741.035 -1.31263 0.713468 0
M  V30 7743 H 742.917 -4.16209 -0.659423 0
M  V30 7744 H 741.592 -3.04721 -1.09209 0
M  V30 7745 H 740.499 -3.55359 1.16923 0
M  V30 7746 H 741.832 -4.68154 1.51963 0
M  V30 7747 N 743.484 -0.715051 -1.40445 0
M  V30 7748 C 744.416 -0.0227516 -2.29189 0
M  V30 7749 C 745.429 0.724313 -1.458 0
M  V30 7750 O 746.618 0.571781 -1.69094 0
M  V30 7751 C 743.718 0.992038 -3.24055 0
M  V30 7752 C 742.891 0.310613 -4.36296 0
M  V30 7753 C 741.95 1.23071 -5.11605 0
M  V30 7754 O 740.976 0.71571 -5.64682 0
M  V30 7755 N 742.178 2.56188 -5.2091 0
M  V30 7756 H 744.943 -0.78473 -2.89244 0
M  V30 7757 H 742.504 -0.562637 -1.51809 0
M  V30 7758 H 744.496 1.60973 -3.71308 0
M  V30 7759 H 743.066 1.65538 -2.65171 0
M  V30 7760 H 742.286 -0.487269 -3.91177 0
M  V30 7761 H 743.574 -0.162415 -5.08541 0
M  V30 7762 H 742.972 3.00527 -4.7927 0
M  V30 7763 H 741.529 3.13103 -5.71673 0
M  V30 7764 N 744.962 1.50701 -0.461195 0
M  V30 7765 C 745.894 2.26124 0.374244 0
M  V30 7766 C 746.907 1.31064 0.965715 0
M  V30 7767 O 748.096 1.56647 0.855801 0
M  V30 7768 C 745.196 3.01996 1.5379 0
M  V30 7769 C 744.369 4.24336 1.06101 0
M  V30 7770 C 743.428 4.82585 2.09756 0
M  V30 7771 O 742.454 5.43775 1.68219 0
M  V30 7772 N 743.656 4.68712 3.42475 0
M  V30 7773 H 746.421 2.9846 -0.2723 0
M  V30 7774 H 743.982 1.59256 -0.291415 0
M  V30 7775 H 745.974 3.37846 2.22806 0
M  V30 7776 H 744.544 2.32521 2.08933 0
M  V30 7777 H 743.764 3.93707 0.197085 0
M  V30 7778 H 745.052 5.03678 0.720156 0
M  V30 7779 H 744.45 4.20026 3.78938 0
M  V30 7780 H 743.007 5.08858 4.07317 0
M  V30 7781 N 746.441 0.193421 1.56409 0
M  V30 7782 C 747.389 -0.744829 2.20352 0
M  V30 7783 C 748.383 -1.22104 1.17418 0
M  V30 7784 O 749.589 -1.18413 1.35567 0
M  V30 7785 H 745.964 -0.258538 0.70616 0
M  V30 7786 H 747.935 -0.181794 2.97846 0
M  V30 7787 C 746.684 -1.95453 2.87565 0
M  V30 7788 H 746.007 -1.59716 3.66512 0
M  V30 7789 H 747.447 -2.58942 3.35745 0
M  V30 7790 C 745.906 -2.79223 1.8851 0
M  V30 7791 O 746.436 -3.77093 1.38434 0
M  V30 7792 N 744.642 -2.44682 1.56777 0
M  V30 7793 H 744.189 -1.65153 1.97692 0
M  V30 7794 H 744.147 -3.01016 0.907573 0
M  V30 7795 N 747.919 -1.57396 -0.0801906 0
M  V30 7796 C 748.829 -2.06451 -1.11423 0
M  V30 7797 C 749.845 -0.992352 -1.42928 0
M  V30 7798 O 751.021 -1.30651 -1.53272 0
M  V30 7799 C 748.086 -2.49164 -2.41077 0
M  V30 7800 C 747.147 -3.70641 -2.16619 0
M  V30 7801 C 746.38 -4.11307 -3.40092 0
M  V30 7802 O 746.603 -3.51922 -4.48895 0
M  V30 7803 O 745.537 -5.04157 -3.288 0
M  V30 7804 H 749.363 -2.94857 -0.727519 0
M  V30 7805 H 746.948 -1.46484 -0.293743 0
M  V30 7806 H 748.83 -2.77196 -3.17396 0
M  V30 7807 H 747.505 -1.6389 -2.79145 0
M  V30 7808 H 746.412 -3.47703 -1.38033 0
M  V30 7809 H 747.745 -4.5674 -1.83437 0
M  V30 7810 N 749.397 0.351382 -1.53633 0
M  V30 7811 C 750.645 1.09034 -1.70165 0
M  V30 7812 C 750.966 1.89413 -0.463422 0
M  V30 7813 O 750.236 1.888 0.522624 0
M  V30 7814 H 748.816 0.405522 -0.627344 0
M  V30 7815 H 751.478 0.394554 -1.90865 0
M  V30 7816 H 750.574 1.77215 -2.56907 0
M  V30 7817 N 750.875 1.45233 0.611969 0
M  V30 7818 C 751.825 1.49997 1.71711 0
M  V30 7819 C 752.809 0.363689 1.56736 0
M  V30 7820 O 754.001 0.610261 1.66147 0
M  V30 7821 C 751.13 1.46537 3.10454 0
M  V30 7822 C 750.216 2.65351 3.30831 0
M  V30 7823 N 750.607 3.90485 3.21489 0
M  V30 7824 C 748.905 2.60955 3.61688 0
M  V30 7825 C 749.606 4.69758 3.43078 0
M  V30 7826 N 748.582 4.01141 3.66861 0
M  V30 7827 H 752.384 2.44574 1.62975 0
M  V30 7828 H 749.898 1.40464 0.815082 0
M  V30 7829 H 751.895 1.48035 3.89732 0
M  V30 7830 H 750.555 0.530139 3.20343 0
M  V30 7831 H 751.566 4.22171 2.99987 0
M  V30 7832 H 748.243 1.76319 3.78441 0
M  V30 7833 H 749.633 5.7877 3.41285 0
M  V30 7834 N 752.353 -0.854086 1.3245 0
M  V30 7835 C 753.601 -1.60513 1.228 0
M  V30 7836 C 753.922 -1.93865 -0.210073 0
M  V30 7837 O 753.192 -1.59673 -1.13496 0
M  V30 7838 H 751.772 -0.595099 0.451516 0
M  V30 7839 H 754.434 -1.0216 1.6598 0
M  V30 7840 H 753.53 -2.54182 1.81102 0
M  V30 7841 N 753.831 -1.1567 -1.07043 0
M  V30 7842 C 754.741 -0.870435 -2.17855 0
M  V30 7843 C 755.757 0.154452 -1.73313 0
M  V30 7844 O 756.933 -0.0203759 -2.0139 0
M  V30 7845 C 753.998 -0.367219 -3.4475 0
M  V30 7846 C 753.059 -1.45639 -4.03841 0
M  V30 7847 C 752.292 -0.977092 -5.2468 0
M  V30 7848 O 752.515 0.176127 -5.70128 0
M  V30 7849 O 751.449 -1.76215 -5.75527 0
M  V30 7850 H 755.275 -1.79687 -2.44839 0
M  V30 7851 H 752.86 -0.936064 -1.1644 0
M  V30 7852 H 754.742 -0.0931947 -4.21297 0
M  V30 7853 H 753.417 0.53131 -3.1931 0
M  V30 7854 H 752.324 -1.78406 -3.28819 0
M  V30 7855 H 753.657 -2.32995 -4.3356 0
M  V30 7856 N 755.309 1.25446 -0.953992 0
M  V30 7857 C 756.272 2.24156 -0.478179 0
M  V30 7858 C 757.272 1.55278 0.417776 0
M  V30 7859 O 758.462 1.72866 0.215155 0
M  V30 7860 C 755.594 3.39495 0.309202 0
M  V30 7861 H 756.787 2.67764 -1.35064 0
M  V30 7862 H 754.34 1.37822 -0.737206 0
M  V30 7863 H 755.075 3.01307 1.19936 0
M  V30 7864 H 754.86 3.90679 -0.333562 0
M  V30 7865 H 756.35 4.12796 0.631594 0
M  V30 7866 N 756.787 0.722489 1.40064 0
M  V30 7867 C 757.717 0.0892452 2.33329 0
M  V30 7868 C 758.698 -0.737992 1.53257 0
M  V30 7869 O 759.883 -0.685516 1.81698 0
M  V30 7870 C 757.013 -0.828139 3.37282 0
M  V30 7871 C 755.967 -0.106005 4.27869 0
M  V30 7872 C 755.293 -1.13957 5.22415 0
M  V30 7873 C 756.593 1.04395 5.11761 0
M  V30 7874 H 758.287 0.868269 2.86534 0
M  V30 7875 H 755.833 0.418982 1.3777 0
M  V30 7876 H 757.786 -1.28058 4.01471 0
M  V30 7877 H 756.51 -1.63914 2.82489 0
M  V30 7878 H 755.169 0.326683 3.65142 0
M  V30 7879 H 754.817 -1.9438 4.63924 0
M  V30 7880 H 754.517 -0.661233 5.83868 0
M  V30 7881 H 756.041 -1.59197 5.89482 0
M  V30 7882 H 757.455 0.670541 5.69365 0
M  V30 7883 H 755.852 1.4511 5.82291 0
M  V30 7884 H 756.922 1.87144 4.47331 0
M  V30 7885 N 758.265 -1.50454 0.469181 0
M  V30 7886 C 759.195 -2.31353 -0.31592 0
M  V30 7887 C 760.176 -1.38172 -0.992094 0
M  V30 7888 O 761.361 -1.67093 -0.989633 0
M  V30 7889 C 758.491 -3.1786 -1.39937 0
M  V30 7890 C 757.445 -4.19578 -0.844909 0
M  V30 7891 C 756.771 -4.9481 -2.0265 0
M  V30 7892 C 758.071 -5.22106 0.142499 0
M  V30 7893 H 759.765 -2.97237 0.359269 0
M  V30 7894 H 757.311 -1.42942 0.174224 0
M  V30 7895 H 759.264 -3.7325 -1.95607 0
M  V30 7896 H 757.988 -2.49858 -2.1033 0
M  V30 7897 H 756.647 -3.65285 -0.310189 0
M  V30 7898 H 756.295 -4.23282 -2.71737 0
M  V30 7899 H 755.995 -5.63613 -1.66174 0
M  V30 7900 H 757.519 -5.53035 -2.58815 0
M  V30 7901 H 758.933 -5.72378 -0.324966 0
M  V30 7902 H 757.33 -5.98618 0.421441 0
M  V30 7903 H 758.4 -4.7297 1.06901 0
M  V30 7904 N 759.743 -0.201713 -1.56304 0
M  V30 7905 C 760.99 0.435307 -1.97766 0
M  V30 7906 C 761.318 1.61169 -1.0888 0
M  V30 7907 O 760.573 1.95272 -0.12934 0
M  V30 7908 C 760.872 0.931432 -3.45049 0
M  V30 7909 C 760.538 -0.132287 -4.50706 0
M  V30 7910 C 759.2 -0.424552 -4.79323 0
M  V30 7911 C 761.552 -0.852703 -5.14177 0
M  V30 7912 C 758.88 -1.4421 -5.68701 0
M  V30 7913 C 761.232 -1.85944 -6.04655 0
M  V30 7914 C 759.896 -2.15884 -6.31625 0
M  V30 7915 H 759.166 0.15929 -0.723676 0
M  V30 7916 H 761.813 -0.300069 -1.89134 0
M  V30 7917 H 760.118 1.7452 -3.50785 0
M  V30 7918 H 761.815 1.43383 -3.74489 0
M  V30 7919 H 758.405 0.105671 -4.2847 0
M  V30 7920 H 762.589 -0.640139 -4.92154 0
M  V30 7921 H 757.845 -1.6799 -5.87869 0
M  V30 7922 H 762.019 -2.42286 -6.52894 0
M  V30 7923 H 759.646 -2.94875 -7.0068 0
M  V30 7924 N 761.222 1.57436 0.0718424 0
M  V30 7925 C 762.132 2.07039 1.10326 0
M  V30 7926 C 763.148 0.999918 1.424 0
M  V30 7927 O 764.324 1.31462 1.52577 0
M  V30 7928 C 761.389 2.50439 2.39752 0
M  V30 7929 C 760.45 3.71784 2.14651 0
M  V30 7930 C 759.683 4.13104 3.37906 0
M  V30 7931 O 759.906 3.54298 4.47023 0
M  V30 7932 O 758.84 5.05894 3.26121 0
M  V30 7933 H 762.666 2.95239 0.711872 0
M  V30 7934 H 760.251 1.46638 0.28597 0
M  V30 7935 H 762.133 2.78876 3.15921 0
M  V30 7936 H 760.808 1.65368 2.78271 0
M  V30 7937 H 759.715 3.48431 1.36187 0
M  V30 7938 H 761.048 4.57707 1.81012 0
M  V30 7939 N 762.7 -0.34323 1.53817 0
M  V30 7940 C 763.948 -1.0813 1.70741 0
M  V30 7941 C 764.269 -1.89165 0.473461 0
M  V30 7942 O 763.539 -1.89075 -0.512605 0
M  V30 7943 H 762.119 -0.40219 0.629486 0
M  V30 7944 H 764.781 -0.384426 1.91071 0
M  V30 7945 H 763.877 -1.7585 2.57843 0
M  V30 7946 N 764.178 -1.45556 -0.604258 0
M  V30 7947 C 765.427 -1.49019 -1.35928 0
M  V30 7948 C 765.74 -0.137409 -1.95117 0
M  V30 7949 O 766.946 -0.0497032 -2.71455 0
M  V30 7950 C 765.402 -2.62477 -2.46239 0
M  V30 7951 C 765.01 -4.04082 -1.93447 0
M  V30 7952 C 766.754 -2.7519 -3.23219 0
M  V30 7953 C 764.661 -5.08917 -3.0126 0
M  V30 7954 H 763.591 -0.554518 -0.510907 0
M  V30 7955 H 766.242 -1.71705 -0.647262 0
M  V30 7956 H 764.624 -2.3308 -3.2014 0
M  V30 7957 H 765.798 -4.43173 -1.26232 0
M  V30 7958 H 764.113 -3.95849 -1.29201 0
M  V30 7959 H 766.71 -3.50683 -4.0364 0
M  V30 7960 H 767.053 -1.81941 -3.74437 0
M  V30 7961 H 767.586 -3.04129 -2.56418 0
M  V30 7962 H 764.325 -6.03886 -2.54955 0
M  V30 7963 H 763.845 -4.74393 -3.67031 0
M  V30 7964 H 765.524 -5.33814 -3.65584 0
M  V30 7965 N 765.656 0.84705 -1.32902 0
M  V30 7966 C 766.603 1.95624 -1.22473 0
M  V30 7967 C 767.573 1.65767 -0.105178 0
M  V30 7968 O 768.758 1.88704 -0.282042 0
M  V30 7969 C 765.898 3.31434 -0.961542 0
M  V30 7970 C 765.011 3.73741 -2.1666 0
M  V30 7971 C 764.146 4.98379 -1.83825 0
M  V30 7972 C 763.185 5.33199 -3.00609 0
M  V30 7973 N 762.322 6.49014 -2.67816 0
M  V30 7974 H 767.162 2.03875 -2.17345 0
M  V30 7975 H 764.699 0.997764 -1.08088 0
M  V30 7976 H 766.657 4.09663 -0.789411 0
M  V30 7977 H 765.287 3.22762 -0.0495938 0
M  V30 7978 H 764.339 2.91102 -2.44875 0
M  V30 7979 H 765.651 3.95462 -3.03993 0
M  V30 7980 H 764.805 5.84336 -1.63208 0
M  V30 7981 H 763.544 4.78611 -0.937172 0
M  V30 7982 H 762.549 4.4575 -3.21849 0
M  V30 7983 H 763.774 5.5492 -3.9146 0
M  V30 7984 H 761.72 6.30748 -1.80258 0
M  V30 7985 H 761.637 6.7079 -3.48679 0
M  V30 7986 H 762.905 7.38103 -2.50647 0
M  V30 7987 N 767.134 1.16236 1.06428 0
M  V30 7988 C 768.081 0.86769 2.13869 0
M  V30 7989 C 769.051 -0.183298 1.65086 0
M  V30 7990 O 770.236 -0.0488002 1.90738 0
M  V30 7991 C 767.376 0.373427 3.43074 0
M  V30 7992 C 766.489 1.48708 4.05598 0
M  V30 7993 C 765.624 0.947977 5.22673 0
M  V30 7994 C 764.663 2.03793 5.77178 0
M  V30 7995 N 763.8 1.51451 6.85571 0
M  V30 7996 H 768.64 1.78781 2.38414 0
M  V30 7997 H 766.177 0.891892 1.16977 0
M  V30 7998 H 768.135 0.0685035 4.17144 0
M  V30 7999 H 766.765 -0.509752 3.1875 0
M  V30 8000 H 765.817 1.908 3.29089 0
M  V30 8001 H 767.129 2.30964 4.42105 0
M  V30 8002 H 766.283 0.596154 6.03764 0
M  V30 8003 H 765.022 0.0947081 4.87608 0
M  V30 8004 H 764.027 2.39847 4.94726 0
M  V30 8005 H 765.252 2.89514 6.14295 0
M  V30 8006 H 763.198 0.683755 6.52427 0
M  V30 8007 H 763.115 2.27325 7.21013 0
M  V30 8008 H 764.383 1.19123 7.70344 0
M  V30 8009 N 768.612 -1.24939 0.960631 0
M  V30 8010 C 769.559 -2.25658 0.484459 0
M  V30 8011 C 770.529 -1.59422 -0.466242 0
M  V30 8012 O 771.714 -1.87015 -0.378169 0
M  V30 8013 C 768.854 -3.44359 -0.225958 0
M  V30 8014 C 767.967 -4.25214 0.762682 0
M  V30 8015 C 767.102 -5.31192 0.0290931 0
M  V30 8016 C 766.141 -6.03739 1.00827 0
M  V30 8017 N 765.278 -7.01437 0.305155 0
M  V30 8018 H 770.118 -2.65758 1.34821 0
M  V30 8019 H 767.655 -1.30648 0.675983 0
M  V30 8020 H 769.613 -4.12035 -0.654472 0
M  V30 8021 H 768.243 -3.05118 -1.05371 0
M  V30 8022 H 767.295 -3.57144 1.30966 0
M  V30 8023 H 768.607 -4.75406 1.50964 0
M  V30 8024 H 767.761 -6.04971 -0.457763 0
M  V30 8025 H 766.5 -4.81889 -0.750614 0
M  V30 8026 H 765.505 -5.2877 1.50607 0
M  V30 8027 H 766.73 -6.55131 1.7883 0
M  V30 8028 H 764.676 -6.54415 -0.455704 0
M  V30 8029 H 764.593 -7.49475 0.991104 0
M  V30 8030 H 765.861 -7.79336 -0.159966 0
M  V30 8031 N 770.09 -0.729906 -1.39679 0
M  V30 8032 C 771.037 -0.0866063 -2.30637 0
M  V30 8033 C 772.007 0.735115 -1.48947 0
M  V30 8034 O 773.192 0.696125 -1.77648 0
M  V30 8035 C 770.332 0.818524 -3.35252 0
M  V30 8036 C 769.445 -0.0152635 -4.31997 0
M  V30 8037 C 768.58 0.890669 -5.2368 0
M  V30 8038 C 767.619 0.0518246 -6.12078 0
M  V30 8039 N 766.756 0.913411 -6.96133 0
M  V30 8040 H 771.596 -0.867925 -2.85081 0
M  V30 8041 H 769.133 -0.439673 -1.40376 0
M  V30 8042 H 771.091 1.3577 -3.9449 0
M  V30 8043 H 769.721 1.56587 -2.82277 0
M  V30 8044 H 768.773 -0.671794 -3.74421 0
M  V30 8045 H 770.085 -0.664086 -4.9436 0
M  V30 8046 H 769.239 1.49787 -5.87919 0
M  V30 8047 H 767.978 1.57328 -4.61627 0
M  V30 8048 H 766.983 -0.568209 -5.46856 0
M  V30 8049 H 768.208 -0.627497 -6.76195 0
M  V30 8050 H 766.154 1.58141 -6.36653 0
M  V30 8051 H 766.071 0.320952 -7.55318 0
M  V30 8052 H 767.339 1.50633 -7.64807 0
M  V30 8053 N 771.568 1.50203 -0.477153 0
M  V30 8054 C 772.5 2.26508 0.350239 0
M  V30 8055 C 773.513 1.32081 0.95176 0
M  V30 8056 O 774.702 1.57546 0.839139 0
M  V30 8057 C 771.802 3.0361 1.50579 0
M  V30 8058 C 770.975 4.25438 1.01595 0
M  V30 8059 C 770.034 4.84783 2.04626 0
M  V30 8060 O 769.06 5.45528 1.62442 0
M  V30 8061 N 770.262 4.72318 3.37485 0
M  V30 8062 H 773.027 2.98155 -0.30394 0
M  V30 8063 H 770.588 1.58938 -0.308289 0
M  V30 8064 H 772.58 3.4019 2.1921 0
M  V30 8065 H 771.15 2.34724 2.06455 0
M  V30 8066 H 770.37 3.93894 0.155316 0
M  V30 8067 H 771.658 5.04413 0.666694 0
M  V30 8068 H 771.056 4.24022 3.74462 0
M  V30 8069 H 769.613 5.13149 4.01897 0
M  V30 8070 N 773.046 0.209999 1.56195 0
M  V30 8071 C 773.978 -0.736967 2.17029 0
M  V30 8072 C 774.991 -1.16599 1.13616 0
M  V30 8073 O 776.18 -1.09914 1.40646 0
M  V30 8074 C 773.28 -2.00852 2.72969 0
M  V30 8075 C 772.453 -1.73691 4.01435 0
M  V30 8076 C 771.512 -2.85439 4.42053 0
M  V30 8077 O 770.538 -2.54405 5.09183 0
M  V30 8078 N 771.74 -4.14135 4.06783 0
M  V30 8079 H 774.505 -0.216656 2.98916 0
M  V30 8080 H 772.066 0.0285672 1.61875 0
M  V30 8081 H 774.058 -2.74778 2.97118 0
M  V30 8082 H 772.628 -2.43963 1.95451 0
M  V30 8083 H 771.848 -0.834676 3.85262 0
M  V30 8084 H 773.136 -1.52961 4.85263 0
M  V30 8085 H 772.534 -4.42196 3.52816 0
M  V30 8086 H 771.091 -4.84642 4.35851 0
M  V30 8087 N 774.524 -1.57472 -0.0634922 0
M  V30 8088 C 775.471 -2.04258 -1.07457 0
M  V30 8089 C 776.441 -0.924804 -1.37973 0
M  V30 8090 O 777.626 -1.19305 -1.48899 0
M  V30 8091 C 774.766 -2.49832 -2.38071 0
M  V30 8092 C 773.879 -3.75263 -2.14014 0
M  V30 8093 C 773.014 -4.09585 -3.38251 0
M  V30 8094 C 772.053 -5.28032 -3.09594 0
M  V30 8095 N 771.19 -5.57953 -4.26185 0
M  V30 8096 H 776.03 -2.90402 -0.668626 0
M  V30 8097 H 773.567 -1.43609 -0.318572 0
M  V30 8098 H 775.525 -2.7431 -3.14341 0
M  V30 8099 H 774.155 -1.66654 -2.76453 0
M  V30 8100 H 773.207 -3.58075 -1.28399 0
M  V30 8101 H 774.519 -4.61667 -1.88852 0
M  V30 8102 H 773.673 -4.35008 -4.2291 0
M  V30 8103 H 772.412 -3.21765 -3.66495 0
M  V30 8104 H 771.417 -5.02397 -2.23332 0
M  V30 8105 H 772.642 -6.17477 -2.82663 0
M  V30 8106 H 770.588 -4.73092 -4.54445 0
M  V30 8107 H 770.505 -6.38793 -4.04326 0
M  V30 8108 H 771.773 -5.87931 -5.11817 0
M  V30 8109 N 776.003 0.335068 -1.53997 0
M  V30 8110 C 777.252 1.07182 -1.70865 0
M  V30 8111 C 777.565 1.89541 -0.483078 0
M  V30 8112 O 778.771 2.66219 -0.532879 0
M  V30 8113 C 777.227 1.95497 -3.02174 0
M  V30 8114 C 776.835 1.18304 -4.32097 0
M  V30 8115 C 778.579 2.68978 -3.28407 0
M  V30 8116 C 776.486 2.05699 -5.54474 0
M  V30 8117 H 775.416 0.403857 -0.636722 0
M  V30 8118 H 778.067 0.33076 -1.80494 0
M  V30 8119 H 776.449 2.73456 -2.86423 0
M  V30 8120 H 777.623 0.451969 -4.58578 0
M  V30 8121 H 775.938 0.565556 -4.12541 0
M  V30 8122 H 778.535 3.34651 -4.17029 0
M  V30 8123 H 778.878 3.36 -2.45784 0
M  V30 8124 H 779.411 1.98087 -3.44973 0
M  V30 8125 H 776.15 1.43204 -6.39666 0
M  V30 8126 H 775.67 2.76572 -5.32229 0
M  V30 8127 H 777.349 2.64554 -5.90441 0
M  V30 8128 N 777.481 1.45874 0.596531 0
M  V30 8129 C 778.428 1.55389 1.70655 0
M  V30 8130 C 779.398 0.399036 1.61236 0
M  V30 8131 O 780.583 0.61396 1.80652 0
M  V30 8132 C 777.723 1.53705 3.0898 0
M  V30 8133 C 776.836 2.79823 3.29125 0
M  V30 8134 C 775.971 2.69735 4.5762 0
M  V30 8135 C 775.01 3.90856 4.71061 0
M  V30 8136 N 774.147 3.79237 5.90867 0
M  V30 8137 H 778.987 2.50211 1.61859 0
M  V30 8138 H 776.524 1.24146 0.789069 0
M  V30 8139 H 778.482 1.50715 3.89026 0
M  V30 8140 H 777.112 0.624247 3.16706 0
M  V30 8141 H 776.164 2.92852 2.42779 0
M  V30 8142 H 777.476 3.69628 3.34927 0
M  V30 8143 H 776.63 2.64773 5.45875 0
M  V30 8144 H 775.369 1.77547 4.54234 0
M  V30 8145 H 774.374 3.96164 3.81227 0
M  V30 8146 H 775.599 4.84124 4.76236 0
M  V30 8147 H 773.545 2.89825 5.88504 0
M  V30 8148 H 773.462 4.62686 5.97877 0
M  V30 8149 H 774.73 3.78227 6.8159 0
M  V30 8150 N 778.959 -0.83999 1.33349 0
M  V30 8151 C 779.907 -1.97113 1.23488 0
M  V30 8152 C 780.901 -1.68849 0.136503 0
M  V30 8153 O 782.107 -1.77476 0.300389 0
M  V30 8154 H 778.482 -0.647049 0.383185 0
M  V30 8155 H 780.453 -2.02554 2.19122 0
M  V30 8156 C 779.202 -3.33314 0.989815 0
M  V30 8157 H 778.525 -3.556 1.82726 0
M  V30 8158 H 779.965 -4.12963 0.961123 0
M  V30 8159 C 778.424 -3.35496 -0.307272 0
M  V30 8160 O 778.954 -3.79589 -1.31434 0
M  V30 8161 N 777.16 -2.88669 -0.334414 0
M  V30 8162 H 776.707 -2.5298 0.485659 0
M  V30 8163 H 776.665 -2.90512 -1.20209 0
M  V30 8164 N 780.437 -1.16799 -1.0581 0
M  V30 8165 C 781.686 -0.94698 -1.78088 0
M  V30 8166 C 781.999 0.526016 -1.88394 0
M  V30 8167 O 783.205 0.865061 -2.5735 0
M  V30 8168 C 781.661 -1.64508 -3.20102 0
M  V30 8169 C 781.269 -3.15618 -3.17946 0
M  V30 8170 C 783.013 -1.50622 -3.96879 0
M  V30 8171 C 780.92 -3.78144 -4.5471 0
M  V30 8172 H 779.85 -0.35067 -0.667493 0
M  V30 8173 H 782.501 -1.39985 -1.18645 0
M  V30 8174 H 780.883 -1.11993 -3.79834 0
M  V30 8175 H 782.057 -3.75016 -2.67768 0
M  V30 8176 H 780.372 -3.29444 -2.54667 0
M  V30 8177 H 782.969 -1.94713 -4.97987 0
M  V30 8178 H 783.312 -0.455864 -4.13797 0
M  V30 8179 H 783.845 -2.00319 -3.43682 0
M  V30 8180 H 780.584 -4.83149 -4.42998 0
M  V30 8181 H 780.104 -3.23532 -5.05062 0
M  V30 8182 H 781.783 -3.79986 -5.2366 0
M  V30 8183 N 781.915 1.24427 -0.967243 0
M  V30 8184 C 782.845 2.2773 -0.515899 0
M  V30 8185 C 783.826 1.64197 0.444227 0
M  V30 8186 O 785.011 1.91193 0.340451 0
M  V30 8187 C 782.141 3.46751 0.195149 0
M  V30 8188 C 781.095 4.22548 -0.680953 0
M  V30 8189 C 780.421 5.34456 0.161561 0
M  V30 8190 C 781.721 4.83914 -1.96532 0
M  V30 8191 H 783.415 2.65735 -1.37933 0
M  V30 8192 H 780.961 1.27742 -0.664681 0
M  V30 8193 H 782.914 4.18153 0.522117 0
M  V30 8194 H 781.638 3.07771 1.09292 0
M  V30 8195 H 780.297 3.52946 -0.991186 0
M  V30 8196 H 779.945 4.91716 1.05947 0
M  V30 8197 H 779.645 5.86087 -0.421418 0
M  V30 8198 H 781.169 6.08685 0.483211 0
M  V30 8199 H 782.583 5.47392 -1.70396 0
M  V30 8200 H 780.98 5.45775 -2.49499 0
M  V30 8201 H 782.05 4.05393 -2.66053 0
M  V30 8202 N 783.393 0.737304 1.3929 0
M  V30 8203 C 784.618 0.295237 2.05288 0
M  V30 8204 C 785.043 -1.06235 1.55228 0
M  V30 8205 O 784.401 -1.67365 0.697043 0
M  V30 8206 C 784.449 0.309146 3.59272 0
M  V30 8207 O 783.553 -0.702437 4.06374 0
M  V30 8208 H 782.894 0.133762 0.650387 0
M  V30 8209 H 785.424 1.00387 1.78279 0
M  V30 8210 H 785.434 0.154336 4.07708 0
M  V30 8211 H 784.109 1.29974 3.95069 0
M  V30 8212 H 782.686 -0.513574 3.69346 0
M  V30 8213 N 784.871 -1.49948 0.485112 0
M  V30 8214 C 785.819 -2.30449 -0.315609 0
M  V30 8215 C 786.813 -1.38351 -0.977516 0
M  V30 8216 O 788.019 -1.55477 -0.907019 0
M  V30 8217 H 784.394 -0.742262 -0.120629 0
M  V30 8218 H 786.365 -2.95925 0.383552 0
M  V30 8219 C 785.114 -3.19283 -1.37673 0
M  V30 8220 H 784.437 -3.90067 -0.876801 0
M  V30 8221 H 785.877 -3.78579 -1.90929 0
M  V30 8222 C 784.336 -2.37817 -2.38631 0
M  V30 8223 O 784.866 -2.0711 -3.44192 0
M  V30 8224 N 783.072 -2.00135 -2.107 0
M  V30 8225 H 782.619 -2.25307 -1.24878 0
M  V30 8226 H 782.577 -1.45933 -2.7848 0
M  V30 8227 N 786.349 -0.21828 -1.56081 0
M  V30 8228 C 787.296 0.693189 -2.20144 0
M  V30 8229 C 788.266 1.19274 -1.15598 0
M  V30 8230 O 789.451 1.25243 -1.4394 0
M  V30 8231 C 786.591 1.89715 -2.88275 0
M  V30 8232 C 785.704 1.4368 -4.07407 0
M  V30 8233 C 784.839 2.59807 -4.63329 0
M  V30 8234 C 783.878 2.10492 -5.74769 0
M  V30 8235 N 783.015 3.1988 -6.24997 0
M  V30 8236 H 787.855 0.14016 -2.9767 0
M  V30 8237 H 785.392 0.0574292 -1.46988 0
M  V30 8238 H 787.35 2.60398 -3.25958 0
M  V30 8239 H 785.98 2.42311 -2.13273 0
M  V30 8240 H 785.032 0.625007 -3.7523 0
M  V30 8241 H 786.344 1.03517 -4.8794 0
M  V30 8242 H 785.498 3.38577 -5.03438 0
M  V30 8243 H 784.237 3.03256 -3.81951 0
M  V30 8244 H 783.242 1.30182 -5.34165 0
M  V30 8245 H 784.467 1.68045 -6.5798 0
M  V30 8246 H 782.413 3.62817 -5.46534 0
M  V30 8247 H 782.33 2.83958 -7.00645 0
M  V30 8248 H 783.598 3.98796 -6.69763 0
M  V30 8249 N 787.827 1.57504 0.0551401 0
M  V30 8250 C 789.055 1.92294 0.76358 0
M  V30 8251 C 789.47 0.815774 1.70266 0
M  V30 8252 O 788.827 -0.209772 1.8129 0
M  V30 8253 C 788.878 3.26914 1.54302 0
M  V30 8254 O 788.599 4.33375 0.641666 0
M  V30 8255 C 790.1 3.75825 2.35097 0
M  V30 8256 H 787.32 0.635229 0.216159 0
M  V30 8257 H 789.864 2.0449 0.0204385 0
M  V30 8258 H 788.019 3.16196 2.23828 0
M  V30 8259 H 788.433 5.10927 1.1855 0
M  V30 8260 H 789.907 4.72603 2.8522 0
M  V30 8261 H 790.384 3.0568 3.15367 0
M  V30 8262 H 790.99 3.89542 1.70696 0
M  V30 8263 N 789.305 -0.326896 1.54172 0
M  V30 8264 C 790.235 -1.40741 1.86317 0
M  V30 8265 C 791.216 -1.54125 0.719684 0
M  V30 8266 O 792.401 -1.6806 0.973117 0
M  V30 8267 C 789.531 -2.77557 2.08757 0
M  V30 8268 C 788.485 -2.78965 3.24596 0
M  V30 8269 C 787.811 -4.18824 3.32401 0
M  V30 8270 C 789.111 -2.4301 4.62324 0
M  V30 8271 H 790.805 -1.14088 2.76811 0
M  V30 8272 H 788.351 -0.547389 1.3319 0
M  V30 8273 H 790.304 -3.53209 2.29829 0
M  V30 8274 H 789.028 -3.0568 1.15009 0
M  V30 8275 H 787.687 -2.05767 3.03406 0
M  V30 8276 H 787.335 -4.44083 2.36218 0
M  V30 8277 H 787.035 -4.20673 4.10253 0
M  V30 8278 H 788.559 -4.96294 3.55703 0
M  V30 8279 H 789.973 -3.08375 4.83299 0
M  V30 8280 H 788.37 -2.56116 5.42701 0
M  V30 8281 H 789.44 -1.38165 4.64799 0
M  V30 8282 N 790.784 -1.46188 -0.588786 0
M  V30 8283 C 792.2 -1.31009 -0.911524 0
M  V30 8284 C 792.4 -0.277017 -1.99587 0
M  V30 8285 O 791.456 0.322532 -2.50432 0
M  V30 8286 C 792.769 -2.69459 -1.33463 0
M  V30 8287 C 794.317 -2.77502 -1.44782 0
M  V30 8288 C 794.792 -4.1652 -1.90461 0
M  V30 8289 N 796.283 -4.18907 -1.97665 0
M  V30 8290 C 797.018 -5.23359 -2.34271 0
M  V30 8291 N 796.514 -6.38143 -2.69714 0
M  V30 8292 N 798.307 -5.10723 -2.34774 0
M  V30 8293 H 790.458 -2.12016 0.127614 0
M  V30 8294 H 792.721 -0.947984 -0.00557599 0
M  V30 8295 H 792.427 -3.46336 -0.611929 0
M  V30 8296 H 792.301 -2.99165 -2.2974 0
M  V30 8297 H 794.688 -2.00917 -2.1614 0
M  V30 8298 H 794.769 -2.51488 -0.467724 0
M  V30 8299 H 794.413 -4.93597 -1.19684 0
M  V30 8300 H 794.343 -4.39937 -2.89418 0
M  V30 8301 H 796.834 -3.36084 -1.72789 0
M  V30 8302 H 797.147 -7.13624 -2.96582 0
M  V30 8303 H 795.492 -6.41514 -2.67366 0
M  V30 8304 H 798.683 -4.20088 -2.06503 0
M  V30 8305 H 798.856 -5.9224 -2.62975 0
M  V30 8306 N 792.262 0.832906 -1.33792 0
M  V30 8307 C 793.172 1.97514 -1.26592 0
M  V30 8308 C 794.188 1.73114 -0.175391 0
M  V30 8309 O 795.364 1.97387 -0.400062 0
M  V30 8310 C 792.429 3.31625 -1.01121 0
M  V30 8311 C 791.49 3.69101 -2.19233 0
M  V30 8312 C 790.723 4.96813 -1.94968 0
M  V30 8313 O 790.946 5.63208 -0.902955 0
M  V30 8314 O 789.88 5.31932 -2.8166 0
M  V30 8315 H 793.706 2.0653 -2.22664 0
M  V30 8316 H 791.291 0.966826 -1.13898 0
M  V30 8317 H 793.173 4.11968 -0.886571 0
M  V30 8318 H 791.848 3.23599 -0.080822 0
M  V30 8319 H 790.755 2.89243 -2.37253 0
M  V30 8320 H 792.088 3.818 -3.10628 0
M  V30 8321 N 793.74 1.17359 1.05189 0
M  V30 8322 C 794.69 0.858445 2.11222 0
M  V30 8323 C 795.674 -0.166991 1.60031 0
M  V30 8324 O 796.866 0.0354456 1.76965 0
M  V30 8325 C 793.995 0.373549 3.41262 0
M  V30 8326 C 793.081 1.43041 3.99249 0
M  V30 8327 N 793.472 2.64387 4.312 0
M  V30 8328 C 791.77 1.28828 4.26989 0
M  V30 8329 C 792.471 3.32296 4.77446 0
M  V30 8330 N 791.447 2.59674 4.77567 0
M  V30 8331 H 795.249 1.78104 2.33786 0
M  V30 8332 H 792.763 1.0623 1.22837 0
M  V30 8333 H 794.76 0.129331 4.16699 0
M  V30 8334 H 793.42 -0.542847 3.2013 0
M  V30 8335 H 794.431 3.01351 4.21198 0
M  V30 8336 H 791.108 0.43353 4.15243 0
M  V30 8337 H 792.498 4.35939 5.11279 0
M  V30 8338 N 795.218 -1.23913 0.973828 0
M  V30 8339 C 796.166 -2.27141 0.50098 0
M  V30 8340 C 797.16 -1.63623 -0.438631 0
M  V30 8341 O 798.366 -1.77253 -0.313247 0
M  V30 8342 H 794.741 -0.73817 0.14356 0
M  V30 8343 H 796.712 -2.64392 1.38346 0
M  V30 8344 C 795.461 -3.47195 -0.187377 0
M  V30 8345 H 794.784 -3.96318 0.526535 0
M  V30 8346 H 796.224 -4.21252 -0.481962 0
M  V30 8347 C 794.683 -3.05678 -1.41642 0
M  V30 8348 O 795.213 -3.1338 -2.51309 0
M  V30 8349 N 793.419 -2.60661 -1.28469 0
M  V30 8350 H 792.966 -2.54594 -0.39238 0
M  V30 8351 H 792.924 -2.33249 -2.10813 0
M  V30 8352 N 796.696 -0.74468 -1.38897 0
M  V30 8353 C 797.921 -0.306119 -2.05128 0
M  V30 8354 C 798.346 1.0541 -1.55789 0
M  V30 8355 O 797.704 1.66993 -0.705909 0
M  V30 8356 C 797.752 -0.328195 -3.59103 0
M  V30 8357 O 796.856 0.680876 -4.06741 0
M  V30 8358 H 796.197 -0.137209 -0.649669 0
M  V30 8359 H 798.727 -1.01331 -1.77745 0
M  V30 8360 H 798.737 -0.175956 -4.0762 0
M  V30 8361 H 797.412 -1.32067 -3.94374 0
M  V30 8362 H 795.989 0.49398 -3.69614 0
M  V30 8363 N 798.174 1.49689 -0.493057 0
M  V30 8364 C 799.421 2.02427 0.0542714 0
M  V30 8365 C 799.749 1.37339 1.37725 0
M  V30 8366 O 799.004 0.495523 1.89323 0
M  V30 8367 C 799.303 3.56427 0.263536 0
M  V30 8368 C 798.969 4.40111 -0.98046 0
M  V30 8369 C 797.631 4.62699 -1.32148 0
M  V30 8370 C 799.983 4.88847 -1.80771 0
M  V30 8371 C 797.311 5.31268 -2.48941 0
M  V30 8372 C 799.663 5.587 -2.96711 0
M  V30 8373 C 798.327 5.79536 -3.31202 0
M  V30 8374 H 797.597 0.740734 0.0198593 0
M  V30 8375 H 800.244 1.80073 -0.651603 0
M  V30 8376 H 798.549 3.77416 1.05186 0
M  V30 8377 H 800.246 3.94819 0.701348 0
M  V30 8378 H 796.836 4.22765 -0.704814 0
M  V30 8379 H 801.02 4.71231 -1.55741 0
M  V30 8380 H 796.276 5.45603 -2.75911 0
M  V30 8381 H 800.45 5.9544 -3.61143 0
M  V30 8382 H 798.077 6.32443 -4.21805 0
M  V30 8383 N 799.652 0.226554 1.55963 0
M  V30 8384 C 800.898 -0.404387 1.98727 0
M  V30 8385 C 801.231 -1.59059 1.11418 0
M  V30 8386 O 800.506 -1.93729 0.172971 0
M  V30 8387 C 800.789 -0.834081 3.50307 0
M  V30 8388 C 800.642 0.356104 4.48388 0
M  V30 8389 C 801.961 -1.68845 4.06423 0
M  V30 8390 H 799.08 -0.145515 0.722492 0
M  V30 8391 H 801.722 0.323791 1.87221 0
M  V30 8392 H 799.872 -1.45454 3.60244 0
M  V30 8393 H 801.544 0.99432 4.50456 0
M  V30 8394 H 799.787 1.0027 4.22053 0
M  V30 8395 H 800.458 0.0124333 5.51999 0
M  V30 8396 H 802.934 -1.16489 3.99461 0
M  V30 8397 H 801.81 -1.958 5.1279 0
M  V30 8398 H 802.071 -2.65347 3.53615 0
M  V30 8399 N 801.13 -1.57531 -0.0467866 0
M  V30 8400 C 802.04 -2.08768 -1.07018 0
M  V30 8401 C 803.056 -1.02245 -1.40791 0
M  V30 8402 O 804.232 -1.33873 -1.50466 0
M  V30 8403 C 801.297 -2.54221 -2.35738 0
M  V30 8404 C 800.358 -3.75152 -2.08709 0
M  V30 8405 C 799.591 -4.18428 -3.31291 0
M  V30 8406 O 799.814 -3.61365 -4.4133 0
M  V30 8407 O 798.748 -5.11018 -3.18032 0
M  V30 8408 H 802.574 -2.96334 -0.664812 0
M  V30 8409 H 800.159 -1.47074 -0.262605 0
M  V30 8410 H 802.041 -2.83866 -3.11445 0
M  V30 8411 H 800.716 -1.69774 -2.75605 0
M  V30 8412 H 799.623 -3.50553 -1.30627 0
M  V30 8413 H 800.956 -4.60528 -1.73708 0
M  V30 8414 N 802.608 0.318715 -1.54344 0
M  V30 8415 C 804.024 0.663345 -1.45162 0
M  V30 8416 C 804.224 1.9145 -0.62842 0
M  V30 8417 O 803.28 2.5217 -0.129126 0
M  V30 8418 C 804.593 0.832836 -2.88937 0
M  V30 8419 C 806.141 0.929866 -2.98869 0
M  V30 8420 C 806.616 1.13149 -4.43803 0
M  V30 8421 N 808.107 1.19811 -4.47437 0
M  V30 8422 C 808.842 1.37209 -5.56742 0
M  V30 8423 N 808.338 1.51619 -6.76006 0
M  V30 8424 N 810.131 1.39956 -5.44398 0
M  V30 8425 H 802.282 -0.50357 -2.06344 0
M  V30 8426 H 804.545 -0.163528 -0.933789 0
M  V30 8427 H 804.251 -0.0153519 -3.51697 0
M  V30 8428 H 804.125 1.72721 -3.35332 0
M  V30 8429 H 806.512 1.76855 -2.36233 0
M  V30 8430 H 806.593 0.0118561 -2.55797 0
M  V30 8431 H 806.237 0.297636 -5.07027 0
M  V30 8432 H 806.167 2.06345 -4.84489 0
M  V30 8433 H 808.658 1.101 -3.61506 0
M  V30 8434 H 808.971 1.64599 -7.55067 0
M  V30 8435 H 807.316 1.48708 -6.78904 0
M  V30 8436 H 810.507 1.28298 -4.50175 0
M  V30 8437 H 810.68 1.53172 -6.29637 0
M  V30 8438 N 804.086 1.46499 0.581025 0
M  V30 8439 C 805.326 1.53456 1.35021 0
M  V30 8440 C 805.69 0.182542 1.9113 0
M  V30 8441 O 806.891 0.126874 2.685 0
M  V30 8442 C 805.162 2.60387 2.44812 0
M  V30 8443 S 806.721 2.86762 3.32134 0
M  V30 8444 H 803.539 0.54216 0.459982 0
M  V30 8445 H 806.141 1.83742 0.667754 0
M  V30 8446 H 804.845 3.57253 2.01986 0
M  V30 8447 H 804.376 2.31839 3.17828 0
M  V30 8448 H 806.391 2.2216 4.43688 0
M  V30 8449 N 805.565 -0.825799 1.34232 0
M  V30 8450 C 806.814 -1.57686 1.2577 0
M  V30 8451 C 807.127 -1.94848 -0.171372 0
M  V30 8452 O 808.333 -2.68854 -0.378123 0
M  V30 8453 C 806.789 -2.84478 2.20454 0
M  V30 8454 C 806.397 -2.54629 3.68603 0
M  V30 8455 C 808.141 -3.625 2.20893 0
M  V30 8456 C 806.048 -3.77597 4.55164 0
M  V30 8457 H 804.978 -0.591809 0.467203 0
M  V30 8458 H 807.629 -0.909421 1.59379 0
M  V30 8459 H 806.011 -3.52832 1.79793 0
M  V30 8460 H 807.185 -1.94404 4.17784 0
M  V30 8461 H 805.5 -1.89888 3.70582 0
M  V30 8462 H 808.097 -4.538 2.82789 0
M  V30 8463 H 808.44 -3.98404 1.20746 0
M  V30 8464 H 808.973 -3.01086 2.59985 0
M  V30 8465 H 805.712 -3.46815 5.56237 0
M  V30 8466 H 805.232 -4.37116 4.10719 0
M  V30 8467 H 806.911 -4.45039 4.69627 0
M  V30 8468 N 807.043 -1.17915 -1.04565 0
M  V30 8469 C 808.32 -0.881187 -1.74627 0
M  V30 8470 C 808.7 0.617123 -2.01878 0
M  V30 8471 O 808.048 1.57032 -1.65991 0
M  V30 8472 C 808.258 -1.72299 -3.03503 0
M  V30 8473 C 809.606 -1.94688 -3.77335 0
M  V30 8474 O 810.63 -1.6931 -3.13389 0
M  V30 8475 O 809.489 -2.37379 -4.92253 0
M  V30 8476 H 806.583 -0.326864 -0.759664 0
M  V30 8477 H 809.129 -1.28642 -1.10676 0
M  V30 8478 H 807.901 -2.73891 -2.79462 0
M  V30 8479 H 807.524 -1.31593 -3.75192 0
M  V30 8480 N 808.521 1.23394 -0.980386 0
M  V30 8481 C 809.767 1.924 -0.659848 0
M  V30 8482 C 810.122 1.75076 0.797883 0
M  V30 8483 O 809.415 1.10104 1.56805 0
M  V30 8484 C 809.609 3.43542 -0.985588 0
M  V30 8485 C 809.438 3.75568 -2.47343 0
M  V30 8486 C 808.208 3.96257 -3.13541 0
M  V30 8487 C 810.406 3.81045 -3.45412 0
M  V30 8488 N 808.388 4.15489 -4.51932 0
M  V30 8489 C 809.759 4.05269 -4.69209 0
M  V30 8490 C 811.814 3.63837 -3.39893 0
M  V30 8491 C 810.517 4.14071 -5.88164 0
M  V30 8492 C 812.543 3.73892 -4.58212 0
M  V30 8493 C 811.905 3.98553 -5.80805 0
M  V30 8494 H 808.004 0.725229 -0.292518 0
M  V30 8495 H 810.588 1.48615 -1.25784 0
M  V30 8496 H 808.759 3.86163 -0.416289 0
M  V30 8497 H 810.491 3.99887 -0.622324 0
M  V30 8498 H 807.246 3.93168 -2.64038 0
M  V30 8499 H 807.67 4.29058 -5.23677 0
M  V30 8500 H 812.312 3.43767 -2.46139 0
M  V30 8501 H 810.03 4.32949 -6.82335 0
M  V30 8502 H 813.616 3.61932 -4.55518 0
M  V30 8503 H 812.496 4.06148 -6.70831 0
M  V30 8504 N 809.999 0.752036 1.385 0
M  V30 8505 C 810.947 0.112634 2.32327 0
M  V30 8506 C 811.941 -0.707037 1.53939 0
M  V30 8507 O 813.147 -0.606309 1.69481 0
M  V30 8508 H 809.522 0.0176275 0.751793 0
M  V30 8509 H 811.493 0.920074 2.83861 0
M  V30 8510 C 810.242 -0.767458 3.39124 0
M  V30 8511 H 809.565 -0.146122 3.99533 0
M  V30 8512 H 811.005 -1.18216 4.07187 0
M  V30 8513 C 809.464 -1.90938 2.77568 0
M  V30 8514 O 809.994 -3.00342 2.66754 0
M  V30 8515 N 808.2 -1.70396 2.35401 0
M  V30 8516 H 807.747 -0.81413 2.44397 0
M  V30 8517 H 807.705 -2.46972 1.94557 0
M  V30 8518 N 811.477 -1.49425 0.500989 0
M  V30 8519 C 812.893 -1.58826 0.156951 0
M  V30 8520 C 813.093 -1.50622 -1.33848 0
M  V30 8521 O 812.149 -1.38016 -2.11442 0
M  V30 8522 C 813.462 -2.91611 0.73374 0
M  V30 8523 C 815.01 -3.05076 0.699846 0
M  V30 8524 C 815.485 -4.40479 1.2547 0
M  V30 8525 N 816.976 -4.4697 1.2154 0
M  V30 8526 C 817.711 -5.50189 1.6149 0
M  V30 8527 N 817.207 -6.60512 2.09034 0
M  V30 8528 N 819 -5.40903 1.52907 0
M  V30 8529 H 811.151 -1.53001 1.47324 0
M  V30 8530 H 813.414 -0.724765 0.61108 0
M  V30 8531 H 813.12 -3.03182 1.78251 0
M  V30 8532 H 812.994 -3.767 0.19417 0
M  V30 8533 H 815.381 -2.93134 -0.340085 0
M  V30 8534 H 815.462 -2.2167 1.27656 0
M  V30 8535 H 815.106 -4.53172 2.29341 0
M  V30 8536 H 815.036 -5.22524 0.653921 0
M  V30 8537 H 817.527 -3.67819 0.867043 0
M  V30 8538 H 817.84 -7.35372 2.37588 0
M  V30 8539 H 816.185 -6.61553 2.13008 0
M  V30 8540 H 819.376 -4.53606 1.15583 0
M  V30 8541 H 819.549 -6.21219 1.84365 0
M  V30 8542 N 812.955 -0.234822 -1.55841 0
M  V30 8543 C 813.865 0.680828 -2.24504 0
M  V30 8544 C 814.881 1.20306 -1.25708 0
M  V30 8545 O 816.057 1.24188 -1.58554 0
M  V30 8546 C 813.122 1.86636 -2.92178 0
M  V30 8547 C 812.183 1.3848 -4.06352 0
M  V30 8548 C 811.416 2.51382 -4.70789 0
M  V30 8549 O 811.639 3.69831 -4.34259 0
M  V30 8550 O 810.573 2.21828 -5.59532 0
M  V30 8551 H 814.399 0.12583 -3.03439 0
M  V30 8552 H 811.984 -0.00381817 -1.494 0
M  V30 8553 H 813.866 2.55845 -3.34845 0
M  V30 8554 H 812.541 2.40921 -2.16192 0
M  V30 8555 H 811.448 0.660341 -3.68226 0
M  V30 8556 H 812.781 0.888177 -4.8412 0
M  V30 8557 N 814.433 1.57553 0.0384317 0
M  V30 8558 C 815.363 2.0898 1.04161 0
M  V30 8559 C 816.344 0.99029 1.38301 0
M  V30 8560 O 817.529 1.26499 1.47349 0
M  V30 8561 C 814.659 2.56145 2.34536 0
M  V30 8562 C 813.613 3.70275 2.14663 0
M  V30 8563 C 812.939 4.03612 3.50715 0
M  V30 8564 C 814.239 4.99067 1.54045 0
M  V30 8565 H 815.933 2.93046 0.613548 0
M  V30 8566 H 813.479 1.40973 0.293684 0
M  V30 8567 H 815.432 2.90741 3.05037 0
M  V30 8568 H 814.156 1.6915 2.79385 0
M  V30 8569 H 812.815 3.36013 1.46597 0
M  V30 8570 H 812.463 3.13698 3.93195 0
M  V30 8571 H 812.163 4.80482 3.38247 0
M  V30 8572 H 813.687 4.40735 4.22593 0
M  V30 8573 H 815.101 5.3168 2.14451 0
M  V30 8574 H 813.498 5.80484 1.52178 0
M  V30 8575 H 814.568 4.8226 0.505259 0
M  V30 8576 N 815.911 -0.310526 1.54511 0
M  V30 8577 C 816.841 -1.38757 1.878 0
M  V30 8578 C 817.822 -1.53353 0.735991 0
M  V30 8579 O 819.007 -1.67018 0.990887 0
M  V30 8580 C 816.137 -2.75327 2.11689 0
M  V30 8581 C 815.091 -2.75506 3.27537 0
M  V30 8582 C 814.417 -4.15275 3.36824 0
M  V30 8583 C 815.717 -2.38093 4.64875 0
M  V30 8584 H 817.411 -1.11146 2.78005 0
M  V30 8585 H 814.957 -0.533232 1.33763 0
M  V30 8586 H 816.91 -3.50752 2.33562 0
M  V30 8587 H 815.634 -3.04443 1.18245 0
M  V30 8588 H 814.293 -2.02538 3.05572 0
M  V30 8589 H 813.941 -4.41553 2.40915 0
M  V30 8590 H 813.641 -4.16299 4.14692 0
M  V30 8591 H 815.165 -4.92493 3.60947 0
M  V30 8592 H 816.579 -3.03232 4.86542 0
M  V30 8593 H 814.976 -2.50345 5.45387 0
M  V30 8594 H 816.046 -1.33227 4.66239 0
M  V30 8595 N 817.389 -1.46805 -0.573248 0
M  V30 8596 C 818.336 -1.58084 -1.68161 0
M  V30 8597 C 819.306 -0.424636 -1.6058 0
M  V30 8598 O 820.491 -0.642623 -1.79652 0
M  V30 8599 C 817.631 -1.58601 -3.06496 0
M  V30 8600 C 816.744 -2.85023 -3.24632 0
M  V30 8601 C 815.879 -2.76981 -4.53271 0
M  V30 8602 C 814.918 -3.983 -4.64783 0
M  V30 8603 N 814.055 -3.88589 -5.84759 0
M  V30 8604 H 818.895 -2.52755 -1.57858 0
M  V30 8605 H 816.432 -1.25385 -0.769218 0
M  V30 8606 H 818.39 -1.56885 -3.86579 0
M  V30 8607 H 817.02 -0.674553 -3.15673 0
M  V30 8608 H 816.072 -2.96678 -2.38089 0
M  V30 8609 H 817.384 -3.7491 -3.29004 0
M  V30 8610 H 816.538 -2.73424 -5.41594 0
M  V30 8611 H 815.277 -1.84751 -4.51352 0
M  V30 8612 H 814.282 -4.02179 -3.74876 0
M  V30 8613 H 815.507 -4.91639 -4.68474 0
M  V30 8614 H 813.453 -2.99151 -5.83819 0
M  V30 8615 H 813.37 -4.7214 -5.90441 0
M  V30 8616 H 814.638 -3.89022 -6.75486 0
M  V30 8617 N 818.867 0.818669 -1.34668 0
M  V30 8618 C 820.283 1.11243 -1.14443 0
M  V30 8619 C 820.483 2.01435 0.0512212 0
M  V30 8620 O 819.539 2.41854 0.725471 0
M  V30 8621 C 820.852 1.75504 -2.4417 0
M  V30 8622 C 822.4 1.8798 -2.50265 0
M  V30 8623 C 822.875 2.55657 -3.80004 0
M  V30 8624 N 824.366 2.63153 -3.81189 0
M  V30 8625 C 825.101 3.16258 -4.78298 0
M  V30 8626 N 824.597 3.69893 -5.85791 0
M  V30 8627 N 826.39 3.14698 -4.65748 0
M  V30 8628 H 818.541 0.218848 -2.1127 0
M  V30 8629 H 820.804 0.159655 -0.934459 0
M  V30 8630 H 820.51 1.16697 -3.31775 0
M  V30 8631 H 820.384 2.75329 -2.57825 0
M  V30 8632 H 822.771 2.45934 -1.63096 0
M  V30 8633 H 822.852 0.870447 -2.40535 0
M  V30 8634 H 822.496 1.98356 -4.67565 0
M  V30 8635 H 822.426 3.57105 -3.87019 0
M  V30 8636 H 824.917 2.2514 -3.03513 0
M  V30 8637 H 825.23 4.08678 -6.55898 0
M  V30 8638 H 823.575 3.68125 -5.89499 0
M  V30 8639 H 826.766 2.72066 -3.80917 0
M  V30 8640 H 826.939 3.5578 -5.41594 0
M  V30 8641 N 820.346 1.18468 1.03938 0
M  V30 8642 C 821.256 0.927889 2.1547 0
M  V30 8643 C 822.272 -0.108447 1.73662 0
M  V30 8644 O 823.448 0.0737636 2.01265 0
M  V30 8645 C 820.513 0.458494 3.43655 0
M  V30 8646 C 819.574 1.56295 3.99838 0
M  V30 8647 C 818.807 1.11586 5.21904 0
M  V30 8648 O 819.03 -0.0249057 5.70395 0
M  V30 8649 O 817.964 1.91412 5.70653 0
M  V30 8650 H 821.79 1.86116 2.39989 0
M  V30 8651 H 819.375 0.966607 1.13917 0
M  V30 8652 H 821.257 0.204861 4.20902 0
M  V30 8653 H 819.932 -0.446464 3.20606 0
M  V30 8654 H 818.839 1.87061 3.23974 0
M  V30 8655 H 820.172 2.44408 4.2723 0
M  V30 8656 N 821.824 -1.22873 0.986916 0
M  V30 8657 C 822.754 -2.2688 0.552064 0
M  V30 8658 C 823.735 -1.64883 -0.418048 0
M  V30 8659 O 824.92 -1.9171 -0.30999 0
M  V30 8660 C 822.05 -3.47018 -0.139959 0
M  V30 8661 C 821.004 -4.21411 0.748091 0
M  V30 8662 C 820.33 -5.34645 -0.0765132 0
M  V30 8663 C 821.63 -4.80726 2.04206 0
M  V30 8664 H 823.324 -2.63507 1.42143 0
M  V30 8665 H 820.87 -1.26668 0.68492 0
M  V30 8666 H 822.823 -4.18931 -0.455527 0
M  V30 8667 H 821.547 -3.0947 -1.04382 0
M  V30 8668 H 820.206 -3.51325 1.04721 0
M  V30 8669 H 819.854 -4.93339 -0.981109 0
M  V30 8670 H 819.554 -5.85342 0.514606 0
M  V30 8671 H 821.078 -6.09377 -0.386313 0
M  V30 8672 H 822.492 -5.44612 1.79083 0
M  V30 8673 H 820.889 -5.41737 2.5815 0
M  V30 8674 H 821.959 -4.01109 2.72469 0
M  V30 8675 N 823.302 -0.75937 -1.38099 0
M  V30 8676 C 824.55 -0.317485 -1.99591 0
M  V30 8677 C 824.871 1.10628 -1.60581 0
M  V30 8678 O 824.141 1.7575 -0.865378 0
M  V30 8679 H 822.721 -0.114397 -0.738189 0
M  V30 8680 H 825.383 -0.974749 -1.68774 0
M  V30 8681 H 824.479 -0.385227 -3.09713 0
M  V30 8682 N 824.78 1.49157 -0.508906 0
M  V30 8683 C 825.71 2.32109 0.254469 0
M  V30 8684 C 826.691 1.40754 0.955111 0
M  V30 8685 O 827.876 1.69658 0.944983 0
M  V30 8686 C 825.006 3.21458 1.3146 0
M  V30 8687 C 823.96 4.2167 0.733368 0
M  V30 8688 C 823.286 5.00009 1.8946 0
M  V30 8689 C 824.586 5.21544 -0.280875 0
M  V30 8690 H 826.28 2.9618 -0.43795 0
M  V30 8691 H 823.826 1.4243 -0.212062 0
M  V30 8692 H 825.779 3.78305 1.85643 0
M  V30 8693 H 824.503 2.55346 2.03632 0
M  V30 8694 H 823.162 3.65979 0.213231 0
M  V30 8695 H 822.81 4.30338 2.60419 0
M  V30 8696 H 822.51 5.67821 1.51173 0
M  V30 8697 H 824.034 5.59702 2.44061 0
M  V30 8698 H 825.448 5.73039 0.173095 0
M  V30 8699 H 823.845 5.97291 -0.580006 0
M  V30 8700 H 824.915 4.69969 -1.19404 0
M  V30 8701 N 826.258 0.243083 1.55714 0
M  V30 8702 C 827.221 -0.644723 2.19945 0
M  V30 8703 C 828.221 -1.10562 1.16759 0
M  V30 8704 O 829.411 -1.01095 1.41865 0
M  V30 8705 C 826.543 -1.88569 2.83997 0
M  V30 8706 H 827.736 -0.0843839 2.99781 0
M  V30 8707 H 825.289 -0.00647246 1.56299 0
M  V30 8708 H 826.024 -2.48736 2.08089 0
M  V30 8709 H 825.809 -1.56345 3.59581 0
M  V30 8710 H 827.299 -2.51774 3.33166 0
M  V30 8711 N 827.736 -1.57571 -0.0300757 0
M  V30 8712 C 828.646 -2.09892 -1.04798 0
M  V30 8713 C 829.662 -1.03732 -1.39698 0
M  V30 8714 O 830.838 -1.35461 -1.49038 0
M  V30 8715 C 827.903 -2.56707 -2.33028 0
M  V30 8716 C 826.964 -3.77345 -2.04718 0
M  V30 8717 C 826.197 -4.21918 -3.26834 0
M  V30 8718 O 826.42 -3.66025 -4.37472 0
M  V30 8719 O 825.354 -5.14362 -3.12594 0
M  V30 8720 H 829.18 -2.97023 -0.633344 0
M  V30 8721 H 826.765 -1.47344 -0.246991 0
M  V30 8722 H 828.647 -2.87154 -3.08417 0
M  V30 8723 H 827.322 -1.72688 -2.73789 0
M  V30 8724 H 826.229 -3.51919 -1.26901 0
M  V30 8725 H 827.562 -4.62345 -1.68813 0
M  V30 8726 N 829.214 0.302327 -1.54673 0
M  V30 8727 C 830.439 1.06103 -1.78205 0
M  V30 8728 C 830.864 1.80204 -0.53926 0
M  V30 8729 O 830.222 1.73975 0.510142 0
M  V30 8730 C 830.27 2.01829 -2.98827 0
M  V30 8731 O 829.374 3.10108 -2.71858 0
M  V30 8732 H 828.715 0.30487 -0.589873 0
M  V30 8733 H 831.245 0.340153 -2.01753 0
M  V30 8734 H 831.255 2.44319 -3.2676 0
M  V30 8735 H 829.93 1.473 -3.88942 0
M  V30 8736 H 828.507 2.72142 -2.54937 0
M  V30 8737 N 830.692 1.47107 0.565454 0
M  V30 8738 C 831.969 1.43787 1.32607 0
M  V30 8739 C 832.349 0.130428 2.10697 0
M  V30 8740 O 831.697 -0.888086 2.10536 0
M  V30 8741 C 831.907 2.67833 2.23755 0
M  V30 8742 C 833.255 3.14704 2.85037 0
M  V30 8743 O 834.279 2.68503 2.34061 0
M  V30 8744 O 833.138 3.95002 3.77671 0
M  V30 8745 H 830.232 0.572623 0.596684 0
M  V30 8746 H 832.778 1.59296 0.58504 0
M  V30 8747 H 831.55 3.54532 1.65597 0
M  V30 8748 H 831.173 2.54869 3.05168 0
M  V30 8749 N 832.17 -0.811516 1.35101 0
M  V30 8750 C 833.419 -1.56343 1.27435 0
M  V30 8751 C 833.732 -1.95019 -0.150696 0
M  V30 8752 O 834.938 -2.6924 -0.349586 0
M  V30 8753 C 833.394 -2.82124 2.23459 0
M  V30 8754 C 833.002 -2.50706 3.71283 0
M  V30 8755 C 834.746 -3.60137 2.24726 0
M  V30 8756 C 832.653 -3.72748 4.59143 0
M  V30 8757 H 831.583 -0.58682 0.473453 0
M  V30 8758 H 834.234 -0.892465 1.60335 0
M  V30 8759 H 832.616 -3.50905 1.83525 0
M  V30 8760 H 833.79 -1.89962 4.19823 0
M  V30 8761 H 832.105 -1.85947 3.72576 0
M  V30 8762 H 834.702 -4.50775 2.87587 0
M  V30 8763 H 835.045 -3.97101 1.24965 0
M  V30 8764 H 835.578 -2.98311 2.63164 0
M  V30 8765 H 832.317 -3.40896 5.59884 0
M  V30 8766 H 831.837 -4.32735 4.15332 0
M  V30 8767 H 833.516 -4.40033 4.74321 0
M  V30 8768 N 833.648 -1.19017 -1.03309 0
M  V30 8769 C 834.897 -0.984542 -1.76039 0
M  V30 8770 C 835.21 0.485937 -1.89468 0
M  V30 8771 O 836.416 0.810278 -2.59127 0
M  V30 8772 C 834.872 -1.71261 -3.1654 0
M  V30 8773 C 834.48 -3.22291 -3.11179 0
M  V30 8774 C 836.224 -1.59007 -3.93595 0
M  V30 8775 C 834.131 -3.87704 -4.46587 0
M  V30 8776 H 833.061 -0.364749 -0.659905 0
M  V30 8777 H 835.712 -1.4247 -1.15649 0
M  V30 8778 H 834.094 -1.20025 -3.77373 0
M  V30 8779 H 835.268 -3.80611 -2.59753 0
M  V30 8780 H 833.583 -3.34772 -2.47622 0
M  V30 8781 H 836.18 -2.05232 -4.93745 0
M  V30 8782 H 836.523 -0.543534 -4.12736 0
M  V30 8783 H 837.056 -2.07564 -3.39355 0
M  V30 8784 H 833.795 -4.92437 -4.3265 0
M  V30 8785 H 833.315 -3.34172 -4.98085 0
M  V30 8786 H 834.994 -3.91008 -5.15482 0
M  V30 8787 N 835.127 1.22348 -0.993418 0
M  V30 8788 C 836.404 1.86632 -0.585495 0
M  V30 8789 C 836.784 1.89156 0.937187 0
M  V30 8790 O 836.132 1.38247 1.81934 0
M  V30 8791 C 836.342 3.27481 -1.20652 0
M  V30 8792 C 837.69 4.03971 -1.30738 0
M  V30 8793 O 838.714 3.3675 -1.16096 0
M  V30 8794 O 837.573 5.24302 -1.54173 0
M  V30 8795 H 834.667 0.802704 -0.198984 0
M  V30 8796 H 837.213 1.30122 -1.08933 0
M  V30 8797 H 835.985 3.20281 -2.24802 0
M  V30 8798 H 835.608 3.91597 -0.688312 0
M  V30 8799 N 836.605 0.766683 1.37694 0
M  V30 8800 C 837.854 0.325425 1.99057 0
M  V30 8801 C 838.167 -1.10275 1.61551 0
M  V30 8802 O 839.373 -1.64513 2.1598 0
M  V30 8803 C 837.829 0.530886 3.55963 0
M  V30 8804 C 837.437 1.96899 4.02411 0
M  V30 8805 C 839.181 0.152997 4.24224 0
M  V30 8806 C 837.088 2.12232 5.52007 0
M  V30 8807 H 836.018 0.117929 0.744721 0
M  V30 8808 H 838.669 0.945091 1.5729 0
M  V30 8809 H 837.051 -0.158162 3.95684 0
M  V30 8810 H 838.225 2.69258 3.73948 0
M  V30 8811 H 836.54 2.303 3.46916 0
M  V30 8812 H 839.137 0.24614 5.34133 0
M  V30 8813 H 839.48 -0.896096 4.06541 0
M  V30 8814 H 840.013 0.794398 3.89787 0
M  V30 8815 H 836.752 3.15442 5.7461 0
M  V30 8816 H 836.272 1.4435 5.82171 0
M  V30 8817 H 837.951 1.9185 6.17902 0
M  V30 8818 N 838.083 -1.48885 0.516809 0
M  V30 8819 C 839.494 -1.86557 0.0729921 0
M  V30 8820 C 839.845 -1.42767 -1.34581 0
M  V30 8821 O 838.97 -0.812514 -2.00567 0
M  V30 8822 C 839.565 -3.38567 0.125686 0
M  V30 8823 C 838.124 -3.75481 -0.262867 0
M  V30 8824 C 837.271 -2.72913 0.491281 0
M  V30 8825 H 840.222 -1.40978 0.728767 0
M  V30 8826 H 840.243 -3.74629 -0.665831 0
M  V30 8827 H 839.755 -3.70408 1.15842 0
M  V30 8828 H 837.856 -3.49251 -1.29824 0
M  V30 8829 H 837.969 -4.79052 0.067579 0
M  V30 8830 H 836.333 -2.54627 -0.0608525 0
M  V30 8831 H 837.116 -3.07599 1.5244 0
M  V30 8832 N 839.561 -0.251338 -1.55583 0
M  V30 8833 C 840.493 0.679167 -2.18906 0
M  V30 8834 C 841.506 1.13545 -1.16667 0
M  V30 8835 O 842.695 1.06146 -1.4351 0
M  V30 8836 C 839.795 1.93544 -2.78198 0
M  V30 8837 C 838.968 1.62987 -4.05899 0
M  V30 8838 C 838.027 2.73618 -4.49466 0
M  V30 8839 O 837.053 2.40815 -5.15749 0
M  V30 8840 N 838.255 4.03204 -4.1762 0
M  V30 8841 H 841.02 0.137328 -2.99385 0
M  V30 8842 H 838.581 -0.0714754 -1.61742 0
M  V30 8843 H 840.573 2.66804 -3.04299 0
M  V30 8844 H 839.143 2.38695 -2.0185 0
M  V30 8845 H 838.363 0.732237 -3.8734 0
M  V30 8846 H 839.651 1.40041 -4.89148 0
M  V30 8847 H 839.049 4.32686 -3.64416 0
M  V30 8848 H 837.606 4.72916 -4.48547 0
M  V30 8849 N 841.039 1.57585 0.0217189 0
M  V30 8850 C 841.969 2.10073 1.01939 0
M  V30 8851 C 842.95 1.0049 1.37243 0
M  V30 8852 O 844.135 1.28055 1.45999 0
M  V30 8853 C 841.265 2.58618 2.31806 0
M  V30 8854 C 840.219 3.72531 2.10724 0
M  V30 8855 C 839.545 4.07309 3.46415 0
M  V30 8856 C 840.845 5.00672 1.48743 0
M  V30 8857 H 842.539 2.9368 0.582432 0
M  V30 8858 H 840.085 1.41277 0.278715 0
M  V30 8859 H 842.038 2.9396 3.01936 0
M  V30 8860 H 840.762 1.72104 2.77575 0
M  V30 8861 H 839.421 3.37549 1.43025 0
M  V30 8862 H 839.069 3.17851 3.89846 0
M  V30 8863 H 838.769 4.84042 3.33132 0
M  V30 8864 H 840.293 4.45192 4.17895 0
M  V30 8865 H 841.707 5.33925 2.088 0
M  V30 8866 H 840.104 5.82065 1.46013 0
M  V30 8867 H 841.174 4.82769 0.45408 0
M  V30 8868 N 842.517 -0.29412 1.54831 0
M  V30 8869 C 843.764 -1.02846 1.74439 0
M  V30 8870 C 844.092 -1.87029 0.533905 0
M  V30 8871 O 843.347 -1.8962 -0.484035 0
M  V30 8872 C 843.646 -1.95782 2.99006 0
M  V30 8873 C 843.312 -1.2752 4.32492 0
M  V30 8874 C 841.974 -1.08637 4.68777 0
M  V30 8875 C 844.326 -0.787761 5.15212 0
M  V30 8876 C 841.654 -0.39704 5.85355 0
M  V30 8877 C 844.006 -0.112123 6.32501 0
M  V30 8878 C 842.67 0.0886071 6.67441 0
M  V30 8879 H 841.94 -0.376341 0.638317 0
M  V30 8880 H 844.587 -0.302684 1.89093 0
M  V30 8881 H 842.892 -2.74911 2.79162 0
M  V30 8882 H 844.589 -2.52684 3.11371 0
M  V30 8883 H 841.179 -1.43226 4.03961 0
M  V30 8884 H 845.363 -0.921341 4.87673 0
M  V30 8885 H 840.619 -0.230597 6.10965 0
M  V30 8886 H 844.793 0.27344 6.95863 0
M  V30 8887 H 842.42 0.624748 7.57628 0
M  V30 8888 N 843.995 -1.47404 -0.557645 0
M  V30 8889 C 844.942 -1.59859 -1.66475 0
M  V30 8890 C 845.912 -0.441644 -1.60121 0
M  V30 8891 O 847.097 -0.661641 -1.78961 0
M  V30 8892 C 844.237 -1.61843 -3.04797 0
M  V30 8893 C 843.35 -2.8845 -3.2159 0
M  V30 8894 C 842.485 -2.81773 -4.50308 0
M  V30 8895 C 841.524 -4.03208 -4.60532 0
M  V30 8896 N 840.661 -3.94769 -5.80604 0
M  V30 8897 H 845.501 -2.54415 -1.55168 0
M  V30 8898 H 843.038 -1.26194 -0.755876 0
M  V30 8899 H 844.996 -1.60976 -3.84893 0
M  V30 8900 H 843.626 -0.707997 -3.1494 0
M  V30 8901 H 842.678 -2.99186 -2.34929 0
M  V30 8902 H 843.99 -3.78379 -3.25009 0
M  V30 8903 H 843.144 -2.79153 -5.38663 0
M  V30 8904 H 841.883 -1.89527 -4.49367 0
M  V30 8905 H 840.888 -4.06133 -3.70589 0
M  V30 8906 H 842.113 -4.9658 -4.63233 0
M  V30 8907 H 840.059 -3.05326 -5.80613 0
M  V30 8908 H 839.976 -4.78375 -5.854 0
M  V30 8909 H 841.244 -3.96165 -6.71322 0
M  V30 8910 N 845.473 0.80434 -1.35529 0
M  V30 8911 C 846.403 1.93086 -1.31301 0
M  V30 8912 C 847.384 1.69068 -0.187044 0
M  V30 8913 O 848.569 1.90399 -0.382359 0
M  V30 8914 C 845.699 3.29867 -1.0865 0
M  V30 8915 C 844.653 3.68373 -2.17911 0
M  V30 8916 C 843.979 5.0334 -1.80423 0
M  V30 8917 C 845.279 3.78516 -3.59893 0
M  V30 8918 H 846.973 1.96882 -2.25561 0
M  V30 8919 H 844.519 0.945841 -1.08581 0
M  V30 8920 H 846.472 4.08281 -1.04331 0
M  V30 8921 H 845.196 3.2642 -0.108359 0
M  V30 8922 H 843.855 2.92247 -2.21331 0
M  V30 8923 H 843.503 4.96399 -0.812213 0
M  V30 8924 H 843.203 5.30074 -2.53565 0
M  V30 8925 H 844.727 5.84191 -1.77633 0
M  V30 8926 H 846.141 4.47155 -3.58783 0
M  V30 8927 H 844.538 4.16721 -4.31814 0
M  V30 8928 H 845.608 2.8001 -3.95882 0
M  V30 8929 N 846.951 1.19563 1.02676 0
M  V30 8930 C 847.898 0.935291 2.11 0
M  V30 8931 C 848.868 -0.130685 1.65585 0
M  V30 8932 O 850.053 0.0119062 1.90796 0
M  V30 8933 C 847.193 0.482384 3.41712 0
M  V30 8934 C 846.306 1.61537 4.00662 0
M  V30 8935 C 845.441 1.11378 5.19392 0
M  V30 8936 C 844.48 2.22052 5.70403 0
M  V30 8937 N 843.617 1.73185 6.80405 0
M  V30 8938 H 848.457 1.86275 2.32606 0
M  V30 8939 H 845.994 0.928656 1.14081 0
M  V30 8940 H 847.952 0.20118 4.16715 0
M  V30 8941 H 846.582 -0.408086 3.2021 0
M  V30 8942 H 845.634 2.01173 3.22852 0
M  V30 8943 H 846.946 2.44912 4.34534 0
M  V30 8944 H 846.1 0.787935 6.01562 0
M  V30 8945 H 844.839 0.249789 4.8706 0
M  V30 8946 H 843.844 2.55465 4.86845 0
M  V30 8947 H 845.069 3.08911 6.04774 0
M  V30 8948 H 843.015 0.890973 6.49921 0
M  V30 8949 H 842.932 2.50148 7.13416 0
M  V30 8950 H 844.2 1.4357 7.66164 0
M  V30 8951 N 848.429 -1.21819 0.999893 0
M  V30 8952 C 849.339 -2.27691 0.565159 0
M  V30 8953 C 850.355 -1.69587 -0.389398 0
M  V30 8954 O 851.531 -1.99786 -0.254499 0
M  V30 8955 C 848.596 -3.46537 -0.106432 0
M  V30 8956 C 847.657 -4.19932 0.891964 0
M  V30 8957 C 846.89 -5.33103 0.252327 0
M  V30 8958 O 847.113 -5.62398 -0.952103 0
M  V30 8959 O 846.047 -5.94184 0.960698 0
M  V30 8960 H 849.873 -2.67059 1.44613 0
M  V30 8961 H 847.458 -1.28119 0.768499 0
M  V30 8962 H 849.34 -4.18631 -0.482301 0
M  V30 8963 H 848.015 -3.09079 -0.961865 0
M  V30 8964 H 846.922 -3.5008 1.3189 0
M  V30 8965 H 848.255 -4.61287 1.71682 0
M  V30 8966 N 849.908 -0.773975 -1.37286 0
M  V30 8967 C 851.155 -0.339306 -1.99637 0
M  V30 8968 C 851.483 1.08478 -1.61439 0
M  V30 8969 O 850.738 1.7612 -0.853252 0
M  V30 8970 C 851.037 -0.432651 -3.54772 0
M  V30 8971 C 850.703 -1.81531 -4.12744 0
M  V30 8972 C 849.365 -2.19366 -4.2829 0
M  V30 8973 C 851.717 -2.72137 -4.44512 0
M  V30 8974 C 849.045 -3.47239 -4.72908 0
M  V30 8975 C 851.397 -3.99421 -4.90556 0
M  V30 8976 C 850.061 -4.37298 -5.04308 0
M  V30 8977 H 849.331 -0.124161 -0.730524 0
M  V30 8978 H 851.978 -0.988432 -1.64019 0
M  V30 8979 H 850.283 0.30001 -3.9065 0
M  V30 8980 H 851.98 -0.0776 -4.00925 0
M  V30 8981 H 848.57 -1.51126 -4.01072 0
M  V30 8982 H 852.754 -2.44165 -4.32084 0
M  V30 8983 H 848.01 -3.76477 -4.81742 0
M  V30 8984 H 852.184 -4.69756 -5.14104 0
M  V30 8985 H 849.811 -5.36442 -5.38641 0
M  V30 8986 N 851.386 1.48609 -0.524698 0
M  V30 8987 C 852.611 2.07398 0.00952139 0
M  V30 8988 C 853.036 1.37939 1.27884 0
M  V30 8989 O 852.394 0.443633 1.75788 0
M  V30 8990 C 852.442 3.59916 0.221956 0
M  V30 8991 O 851.546 3.91647 1.29175 0
M  V30 8992 H 850.887 0.662981 -0.0367729 0
M  V30 8993 H 853.417 1.91092 -0.7311 0
M  V30 8994 H 853.427 4.05552 0.446236 0
M  V30 8995 H 852.102 4.09876 -0.705306 0
M  V30 8996 H 850.679 3.57796 1.05055 0
M  V30 8997 N 852.864 0.259585 1.55447 0
M  V30 8998 C 853.811 -0.634578 2.21905 0
M  V30 8999 C 854.781 -1.16168 1.18719 0
M  V30 9000 O 855.966 -1.21383 1.4721 0
M  V30 9001 C 853.106 -1.82005 2.93203 0
M  V30 9002 C 852.219 -1.32828 4.11073 0
M  V30 9003 C 851.354 -2.47431 4.70055 0
M  V30 9004 C 850.393 -1.95179 5.80148 0
M  V30 9005 N 849.53 -3.03197 6.33258 0
M  V30 9006 H 854.37 -0.0611886 2.97937 0
M  V30 9007 H 851.907 -0.0184378 1.47088 0
M  V30 9008 H 853.865 -2.51664 3.32748 0
M  V30 9009 H 852.495 -2.36571 2.19622 0
M  V30 9010 H 851.547 -0.525301 3.76756 0
M  V30 9011 H 852.859 -0.905435 4.90513 0
M  V30 9012 H 852.013 -3.25111 5.12238 0
M  V30 9013 H 850.752 -2.93023 3.89857 0
M  V30 9014 H 849.757 -1.15974 5.37429 0
M  V30 9015 H 850.982 -1.50541 6.62204 0
M  V30 9016 H 848.928 -3.48199 5.55961 0
M  V30 9017 H 848.845 -2.65282 7.07928 0
M  V30 9018 H 850.113 -3.80898 6.80101 0
M  V30 9019 N 854.342 -1.57594 -0.0133615 0
M  V30 9020 C 855.305 -2.06534 -0.993799 0
M  V30 9021 C 856.305 -0.972267 -1.28077 0
M  V30 9022 O 857.495 -1.23537 -1.22818 0
M  V30 9023 C 854.627 -2.49554 -2.3224 0
M  V30 9024 H 855.82 -2.94419 -0.570741 0
M  V30 9025 H 853.373 -1.54113 -0.260546 0
M  V30 9026 H 854.108 -1.64872 -2.79263 0
M  V30 9027 H 853.893 -3.29371 -2.12737 0
M  V30 9028 H 855.383 -2.8779 -3.026 0
M  V30 9029 N 855.82 0.285905 -1.54985 0
M  V30 9030 C 856.73 1.37534 -1.90057 0
M  V30 9031 C 857.746 1.54707 -0.796348 0
M  V30 9032 O 858.922 1.69082 -1.09423 0
M  V30 9033 C 855.987 2.7167 -2.15398 0
M  V30 9034 C 855.048 2.63354 -3.39033 0
M  V30 9035 C 854.281 3.91093 -3.63155 0
M  V30 9036 O 854.504 4.91169 -2.90015 0
M  V30 9037 O 853.438 3.92075 -4.56685 0
M  V30 9038 H 857.264 1.10791 -2.8277 0
M  V30 9039 H 854.849 0.483303 -1.41367 0
M  V30 9040 H 856.731 3.51006 -2.33179 0
M  V30 9041 H 855.406 2.98226 -1.25868 0
M  V30 9042 H 854.313 1.82438 -3.26599 0
M  V30 9043 H 855.646 2.41749 -4.2874 0
M  V30 9044 N 857.298 1.47698 0.54982 0
M  V30 9045 C 858.261 1.60282 1.63837 0
M  V30 9046 C 859.261 0.477394 1.5355 0
M  V30 9047 O 860.451 0.742665 1.57576 0
M  V30 9048 C 857.583 1.55431 3.03404 0
M  V30 9049 H 858.776 2.57325 1.54026 0
M  V30 9050 H 856.329 1.35999 0.770329 0
M  V30 9051 H 857.064 0.597912 3.1874 0
M  V30 9052 H 856.849 2.37116 3.12279 0
M  V30 9053 H 858.339 1.6739 3.82584 0
M  V30 9054 N 858.776 -0.797141 1.35954 0
M  V30 9055 C 860.023 -1.55468 1.29754 0
M  V30 9056 C 860.351 -1.94095 -0.125391 0
M  V30 9057 O 859.606 -1.62341 -1.09288 0
M  V30 9058 C 859.905 -2.84847 2.15863 0
M  V30 9059 C 859.571 -2.65394 3.64523 0
M  V30 9060 C 858.233 -2.59796 4.05042 0
M  V30 9061 C 860.585 -2.4727 4.58811 0
M  V30 9062 C 857.913 -2.3403 5.38002 0
M  V30 9063 C 860.265 -2.23032 5.91979 0
M  V30 9064 C 858.929 -2.15862 6.31633 0
M  V30 9065 H 858.199 -0.568897 0.474803 0
M  V30 9066 H 860.846 -0.920299 1.67937 0
M  V30 9067 H 859.151 -3.52712 1.70591 0
M  V30 9068 H 860.848 -3.42597 2.08395 0
M  V30 9069 H 857.438 -2.70602 3.32374 0
M  V30 9070 H 861.622 -2.506 4.28384 0
M  V30 9071 H 856.878 -2.26956 5.67715 0
M  V30 9072 H 861.052 -2.08001 6.64612 0
M  V30 9073 H 858.679 -1.9566 7.34589 0
M  V30 9074 N 860.254 -1.20106 -1.0204 0
M  V30 9075 C 861.501 -1.00889 -1.75578 0
M  V30 9076 C 861.829 0.459415 -1.88996 0
M  V30 9077 O 861.084 1.35735 -1.40977 0
M  V30 9078 C 861.383 -1.63308 -3.17908 0
M  V30 9079 C 861.049 -3.13091 -3.24476 0
M  V30 9080 C 859.711 -3.53968 -3.25976 0
M  V30 9081 C 862.063 -4.09093 -3.22944 0
M  V30 9082 C 859.391 -4.89381 -3.2361 0
M  V30 9083 C 861.743 -5.44447 -3.22119 0
M  V30 9084 C 860.407 -5.84742 -3.2192 0
M  V30 9085 H 859.677 -0.36918 -0.642485 0
M  V30 9086 H 862.324 -1.49475 -1.19706 0
M  V30 9087 H 860.629 -1.06974 -3.76914 0
M  V30 9088 H 862.326 -1.45958 -3.73493 0
M  V30 9089 H 858.916 -2.80526 -3.24042 0
M  V30 9090 H 863.1 -3.78549 -3.20958 0
M  V30 9091 H 858.356 -5.1987 -3.21785 0
M  V30 9092 H 862.53 -6.18584 -3.19885 0
M  V30 9093 H 860.157 -6.89642 -3.19841 0
M  V30 9094 N 861.732 1.21287 -1.00634 0
M  V30 9095 C 863.143 1.72136 -0.722914 0
M  V30 9096 C 863.494 1.8091 0.759338 0
M  V30 9097 O 862.619 1.46458 1.59308 0
M  V30 9098 C 863.214 3.12633 -1.30561 0
M  V30 9099 C 861.773 3.60833 -1.07127 0
M  V30 9100 C 860.92 2.38326 -1.4176 0
M  V30 9101 H 863.871 1.06445 -1.17708 0
M  V30 9102 H 863.892 3.74174 -0.690937 0
M  V30 9103 H 863.404 3.06215 -2.38441 0
M  V30 9104 H 861.505 3.72599 -0.00968671 0
M  V30 9105 H 861.618 4.46226 -1.74411 0
M  V30 9106 H 859.982 2.40575 -0.836412 0
M  V30 9107 H 860.765 2.34558 -2.50674 0
M  V30 9108 N 863.21 0.781244 1.36873 0
M  V30 9109 C 864.158 0.161889 2.32036 0
M  V30 9110 C 865.152 -0.674225 1.55405 0
M  V30 9111 O 866.358 -0.570223 1.70729 0
M  V30 9112 H 862.733 0.0335702 0.75125 0
M  V30 9113 H 864.704 0.980078 2.81846 0
M  V30 9114 C 863.453 -0.695352 3.40676 0
M  V30 9115 H 862.776 -0.0613425 3.99753 0
M  V30 9116 H 864.216 -1.09553 4.09602 0
M  V30 9117 C 862.675 -1.85008 2.81556 0
M  V30 9118 O 863.205 -2.94616 2.73065 0
M  V30 9119 N 861.411 -1.65364 2.38962 0
M  V30 9120 H 860.958 -0.762106 2.46068 0
M  V30 9121 H 860.916 -2.42789 1.99752 0
M  V30 9122 N 864.689 -1.48329 0.532571 0
M  V30 9123 C 865.622 -2.26524 -0.2761 0
M  V30 9124 C 866.6 -1.32498 -0.942496 0
M  V30 9125 O 867.784 -1.61844 -0.966376 0
M  V30 9126 C 864.911 -3.08808 -1.39124 0
M  V30 9127 C 863.957 -4.18227 -0.835984 0
M  V30 9128 S 864.79 -5.34669 0.298186 0
M  V30 9129 C 865.946 -6.20514 -0.81937 0
M  V30 9130 H 866.179 -2.94764 0.387502 0
M  V30 9131 H 863.712 -1.51081 0.318407 0
M  V30 9132 H 865.67 -3.56792 -2.03002 0
M  V30 9133 H 864.331 -2.39976 -2.02658 0
M  V30 9134 H 863.524 -4.75435 -1.67264 0
M  V30 9135 H 863.126 -3.72996 -0.27385 0
M  V30 9136 H 865.418 -6.55371 -1.7174 0
M  V30 9137 H 866.361 -7.07525 -0.285199 0
M  V30 9138 H 866.769 -5.5366 -1.10094 0
M  V30 9139 N 866.167 -0.267825 -1.55308 0
M  V30 9140 C 867.413 0.351556 -1.9973 0
M  V30 9141 C 867.746 1.56049 -1.15596 0
M  V30 9142 O 867.021 1.93203 -0.224274 0
M  V30 9143 C 867.304 0.74091 -3.52395 0
M  V30 9144 C 867.157 -0.474861 -4.47286 0
M  V30 9145 C 868.476 1.5801 -4.10756 0
M  V30 9146 H 865.595 0.126308 -0.726096 0
M  V30 9147 H 868.237 -0.373316 -1.86296 0
M  V30 9148 H 866.387 1.35851 -3.63973 0
M  V30 9149 H 868.059 -1.1134 -4.47662 0
M  V30 9150 H 866.302 -1.11425 -4.19246 0
M  V30 9151 H 866.973 -0.158782 -5.51772 0
M  V30 9152 H 869.449 1.05857 -4.0241 0
M  V30 9153 H 868.325 1.82135 -5.17801 0
M  V30 9154 H 868.586 2.55878 -3.60526 0
M  V30 9155 N 867.645 1.57599 0.00500368 0
M  V30 9156 C 868.593 2.09223 1.01628 0
M  V30 9157 C 869.587 1.01113 1.35913 0
M  V30 9158 O 870.793 1.19583 1.34536 0
M  V30 9159 H 867.168 0.667999 0.345372 0
M  V30 9160 H 869.139 2.93188 0.555274 0
M  V30 9161 C 867.888 2.60674 2.30097 0
M  V30 9162 H 867.211 3.43491 2.04582 0
M  V30 9163 H 868.651 3.00479 2.99146 0
M  V30 9164 C 867.11 1.51862 3.00731 0
M  V30 9165 O 867.64 0.898651 3.91519 0
M  V30 9166 N 865.846 1.24729 2.62471 0
M  V30 9167 H 865.393 1.7533 1.88725 0
M  V30 9168 H 865.351 0.521437 3.10046 0
M  V30 9169 N 869.123 -0.277682 1.55134 0
M  V30 9170 C 870.056 -1.3685 1.82612 0
M  V30 9171 C 871.034 -1.47752 0.678833 0
M  V30 9172 O 872.218 -1.6445 0.921329 0
M  V30 9173 C 869.345 -2.74539 1.98359 0
M  V30 9174 C 868.391 -2.80945 3.20893 0
M  V30 9175 S 869.224 -2.40666 4.78373 0
M  V30 9176 C 870.38 -3.80338 4.97085 0
M  V30 9177 H 870.613 -1.13338 2.74849 0
M  V30 9178 H 868.146 -0.477063 1.46845 0
M  V30 9179 H 870.104 -3.53834 2.08115 0
M  V30 9180 H 868.765 -2.95306 1.07019 0
M  V30 9181 H 867.958 -3.81992 3.28783 0
M  V30 9182 H 867.56 -2.09667 3.09703 0
M  V30 9183 H 869.852 -4.75565 4.8254 0
M  V30 9184 H 870.795 -3.77403 5.99143 0
M  V30 9185 H 871.203 -3.71424 4.25094 0
M  V30 9186 N 870.601 -1.47988 -0.541979 0
M  V30 9187 C 871.531 -1.64503 -1.65713 0
M  V30 9188 C 872.512 -0.494116 -1.62765 0
M  V30 9189 O 873.697 -0.725256 -1.80149 0
M  V30 9190 C 870.827 -1.67337 -3.04328 0
M  V30 9191 C 869.781 -2.81809 -3.2213 0
M  V30 9192 C 869.107 -2.69724 -4.61685 0
M  V30 9193 C 870.407 -4.23241 -3.06046 0
M  V30 9194 H 872.101 -2.5786 -1.52147 0
M  V30 9195 H 869.647 -1.24094 -0.730529 0
M  V30 9196 H 871.6 -1.77481 -3.82202 0
M  V30 9197 H 870.324 -0.705514 -3.18889 0
M  V30 9198 H 868.983 -2.71201 -2.46669 0
M  V30 9199 H 868.631 -1.70934 -4.73065 0
M  V30 9200 H 868.331 -3.4653 -4.74543 0
M  V30 9201 H 869.855 -2.81818 -5.41674 0
M  V30 9202 H 871.269 -4.34746 -3.73723 0
M  V30 9203 H 869.666 -5.00952 -3.30405 0
M  V30 9204 H 870.736 -4.40543 -2.02609 0
M  V30 9205 N 872.079 0.78992 -1.36375 0
M  V30 9206 C 873.325 1.55007 -1.3077 0
M  V30 9207 C 873.658 1.93871 0.112979 0
M  V30 9208 O 872.933 1.6267 1.06625 0
M  V30 9209 C 873.216 2.82748 -2.22993 0
M  V30 9210 C 873.069 2.50253 -3.73756 0
M  V30 9211 C 874.388 3.84569 -2.13998 0
M  V30 9212 H 871.507 0.562362 -0.476359 0
M  V30 9213 H 874.149 0.907582 -1.66922 0
M  V30 9214 H 872.299 3.37573 -1.92292 0
M  V30 9215 H 873.971 2.01482 -4.14973 0
M  V30 9216 H 872.214 1.83203 -3.93216 0
M  V30 9217 H 872.885 3.41487 -4.33694 0
M  V30 9218 H 875.361 3.39188 -2.4102 0
M  V30 9219 H 874.237 4.717 -2.80697 0
M  V30 9220 H 874.498 4.27491 -1.12711 0
M  V30 9221 N 873.557 1.20646 1.01402 0
M  V30 9222 C 874.487 0.98155 2.11867 0
M  V30 9223 C 875.468 -0.0903712 1.6986 0
M  V30 9224 O 876.653 0.0676586 1.94082 0
M  V30 9225 C 873.783 0.535636 3.43145 0
M  V30 9226 C 872.737 1.55109 3.98905 0
M  V30 9227 C 872.063 0.961725 5.2598 0
M  V30 9228 C 873.363 2.93552 4.32001 0
M  V30 9229 H 875.057 1.90544 2.3094 0
M  V30 9230 H 872.603 0.917554 1.10982 0
M  V30 9231 H 874.556 0.365512 4.19812 0
M  V30 9232 H 873.28 -0.423882 3.23838 0
M  V30 9233 H 871.939 1.70862 3.24348 0
M  V30 9234 H 871.587 -0.00580108 5.03 0
M  V30 9235 H 871.287 1.63993 5.64252 0
M  V30 9236 H 872.811 0.802726 6.053 0
M  V30 9237 H 874.225 2.81295 4.99546 0
M  V30 9238 H 872.622 3.58303 4.81393 0
M  V30 9239 H 873.692 3.4508 3.40658 0
M  V30 9240 N 875.035 -1.20752 1.01276 0
M  V30 9241 C 876.283 -1.89645 0.698505 0
M  V30 9242 C 876.604 -1.78986 -0.773883 0
M  V30 9243 O 875.874 -1.18977 -1.55632 0
M  V30 9244 H 874.454 -0.701992 0.255375 0
M  V30 9245 H 877.116 -1.46668 1.28353 0
M  V30 9246 H 876.212 -2.96364 0.978512 0
M  V30 9247 N 876.513 -0.788492 -1.36457 0
M  V30 9248 C 877.46 -0.18435 -2.30063 0
M  V30 9249 C 878.43 0.67128 -1.51931 0
M  V30 9250 O 879.615 0.620152 -1.8044 0
M  V30 9251 C 876.755 0.675596 -3.38422 0
M  V30 9252 C 875.868 -0.198475 -4.31544 0
M  V30 9253 C 875.003 0.667757 -5.26986 0
M  V30 9254 C 874.042 -0.207825 -6.11747 0
M  V30 9255 N 873.179 0.617335 -6.99381 0
M  V30 9256 H 878.019 -0.988056 -2.81143 0
M  V30 9257 H 875.556 -0.498815 -1.38384 0
M  V30 9258 H 877.514 1.18916 -3.99894 0
M  V30 9259 H 876.144 1.44474 -2.88664 0
M  V30 9260 H 875.196 -0.829995 -3.71235 0
M  V30 9261 H 876.508 -0.873163 -4.91098 0
M  V30 9262 H 875.662 1.24716 -5.93743 0
M  V30 9263 H 874.401 1.37607 -4.67884 0
M  V30 9264 H 873.406 -0.799638 -5.43954 0
M  V30 9265 H 874.631 -0.913729 -6.72925 0
M  V30 9266 H 872.577 1.30996 -6.42788 0
M  V30 9267 H 872.494 0.000307255 -7.56 0
M  V30 9268 H 873.762 1.1806 -7.70508 0
M  V30 9269 N 877.991 1.48044 -0.54043 0
M  V30 9270 C 878.941 2.26768 0.236657 0
M  V30 9271 C 879.925 1.33341 0.900505 0
M  V30 9272 O 881.117 1.57809 0.801584 0
M  V30 9273 C 878.246 3.18685 1.27651 0
M  V30 9274 C 877.332 4.19589 0.616923 0
M  V30 9275 N 877.723 5.04889 -0.303377 0
M  V30 9276 C 876.021 4.37375 0.872879 0
M  V30 9277 C 876.722 5.77654 -0.684905 0
M  V30 9278 N 875.698 5.43583 -0.0435728 0
M  V30 9279 H 879.5 2.90098 -0.471183 0
M  V30 9280 H 877.014 1.58378 -0.359183 0
M  V30 9281 H 879.011 3.73752 1.84702 0
M  V30 9282 H 877.671 2.56911 1.98562 0
M  V30 9283 H 878.682 5.13461 -0.676591 0
M  V30 9284 H 875.359 3.86784 1.57177 0
M  V30 9285 H 876.749 6.56285 -1.44015 0
M  V30 9286 N 879.47 0.276058 1.55163 0
M  V30 9287 C 880.4 -0.604633 2.25536 0
M  V30 9288 C 881.381 -1.15813 1.24585 0
M  V30 9289 O 882.566 -1.1921 1.53306 0
M  V30 9290 C 879.696 -1.78836 2.97716 0
M  V30 9291 C 878.65 -1.36635 4.05604 0
M  V30 9292 C 877.976 -2.63325 4.65364 0
M  V30 9293 C 879.276 -0.515858 5.19746 0
M  V30 9294 H 880.97 -0.0177483 2.99395 0
M  V30 9295 H 878.516 -0.00709627 1.43998 0
M  V30 9296 H 880.469 -2.41036 3.45658 0
M  V30 9297 H 879.193 -2.40109 2.21394 0
M  V30 9298 H 877.852 -0.767541 3.58475 0
M  V30 9299 H 877.5 -3.22858 3.85709 0
M  V30 9300 H 877.2 -2.358 5.38212 0
M  V30 9301 H 878.724 -3.26372 5.16056 0
M  V30 9302 H 880.138 -1.04289 5.63735 0
M  V30 9303 H 878.535 -0.335449 5.99162 0
M  V30 9304 H 879.605 0.465137 4.82664 0
M  V30 9305 N 880.948 -1.576 0.00335426 0
M  V30 9306 C 882.196 -1.90336 -0.679446 0
M  V30 9307 C 882.517 -0.877777 -1.74127 0
M  V30 9308 O 881.787 0.0843585 -1.95718 0
M  V30 9309 H 880.367 -0.702509 -0.253948 0
M  V30 9310 H 883.029 -1.94848 0.0450731 0
M  V30 9311 H 882.125 -2.90197 -1.14857 0
M  V30 9312 N 882.426 0.269451 -1.5528 0
M  V30 9313 C 883.675 0.998381 -1.75258 0
M  V30 9314 C 883.988 1.87321 -0.563034 0
M  V30 9315 O 885.194 2.63719 -0.645313 0
M  V30 9316 C 883.65 1.82505 -3.10193 0
M  V30 9317 C 883.258 0.99871 -4.36726 0
M  V30 9318 C 885.002 2.54807 -3.3952 0
M  V30 9319 C 882.909 1.81997 -5.627 0
M  V30 9320 H 881.839 0.376488 -0.653278 0
M  V30 9321 H 884.49 0.253909 -1.81735 0
M  V30 9322 H 882.872 2.61061 -2.97763 0
M  V30 9323 H 884.046 0.257064 -4.60082 0
M  V30 9324 H 882.361 0.390074 -4.14569 0
M  V30 9325 H 884.958 3.16662 -4.30847 0
M  V30 9326 H 885.301 3.25273 -2.59813 0
M  V30 9327 H 885.834 1.83278 -3.53064 0
M  V30 9328 H 882.573 1.15945 -6.45164 0
M  V30 9329 H 882.093 2.53749 -5.43481 0
M  V30 9330 H 883.772 2.39274 -6.0113 0
M  V30 9331 N 883.904 1.48273 0.534124 0
M  V30 9332 C 885.315 1.49667 1.1161 0
M  V30 9333 C 885.666 0.264139 1.94414 0
M  V30 9334 O 884.791 -0.629084 2.07054 0
M  V30 9335 C 885.386 2.71191 2.03079 0
M  V30 9336 C 883.945 2.7547 2.56502 0
M  V30 9337 C 883.092 2.43119 1.33373 0
M  V30 9338 H 886.043 1.55449 0.319578 0
M  V30 9339 H 886.064 2.49473 2.87304 0
M  V30 9340 H 885.576 3.60879 1.42785 0
M  V30 9341 H 883.677 1.89979 3.20529 0
M  V30 9342 H 883.79 3.76787 2.95919 0
M  V30 9343 H 882.154 1.94187 1.64813 0
M  V30 9344 H 882.937 3.35044 0.748375 0
M  V30 9345 N 885.382 -0.782676 1.36792 0
M  V30 9346 C 886.329 -1.89558 1.31667 0
M  V30 9347 C 887.299 -1.65076 0.184147 0
M  V30 9348 O 888.484 -1.87143 0.371753 0
M  V30 9349 C 885.624 -3.26469 1.11858 0
M  V30 9350 C 884.737 -3.62978 2.34245 0
M  V30 9351 C 883.872 -4.89041 2.07394 0
M  V30 9352 C 882.911 -5.18249 3.25706 0
M  V30 9353 N 882.048 -6.35497 2.98476 0
M  V30 9354 H 886.888 -1.93274 2.26824 0
M  V30 9355 H 884.425 -0.945057 1.12726 0
M  V30 9356 H 886.383 -4.05431 0.983968 0
M  V30 9357 H 885.013 -3.22158 0.203531 0
M  V30 9358 H 884.065 -2.79087 2.58485 0
M  V30 9359 H 885.377 -3.80507 3.22514 0
M  V30 9360 H 884.531 -5.75883 1.90901 0
M  V30 9361 H 883.27 -4.73594 1.16446 0
M  V30 9362 H 882.275 -4.29887 3.4275 0
M  V30 9363 H 883.5 -5.35611 4.1749 0
M  V30 9364 H 881.446 -6.21429 2.10146 0
M  V30 9365 H 881.363 -6.5339 3.80286 0
M  V30 9366 H 882.631 -7.25304 2.85577 0
M  V30 9367 N 886.86 -1.21182 -1.00761 0
M  V30 9368 C 888.271 -1.02652 -1.55947 0
M  V30 9369 C 888.622 0.414466 -1.91772 0
M  V30 9370 O 887.747 1.29727 -1.73204 0
M  V30 9371 C 888.342 -1.85713 -2.83366 0
M  V30 9372 C 886.901 -1.71523 -3.35048 0
M  V30 9373 C 886.048 -1.83087 -2.08265 0
M  V30 9374 H 888.999 -1.35242 -0.830379 0
M  V30 9375 H 889.02 -1.36583 -3.55141 0
M  V30 9376 H 888.532 -2.90584 -2.5726 0
M  V30 9377 H 886.633 -0.693257 -3.66094 0
M  V30 9378 H 886.746 -2.53333 -4.06644 0
M  V30 9379 H 885.11 -1.26367 -2.21141 0
M  V30 9380 H 885.893 -2.8946 -1.84575 0
M  V30 9381 N 888.338 1.20213 -1.01915 0
M  V30 9382 C 889.585 1.89647 -0.709955 0
M  V30 9383 C 889.913 1.7901 0.760631 0
M  V30 9384 O 889.168 1.17028 1.56853 0
M  V30 9385 C 889.467 3.40232 -1.09438 0
M  V30 9386 C 889.133 3.7107 -2.5616 0
M  V30 9387 C 887.795 3.79196 -2.96249 0
M  V30 9388 C 890.147 3.85169 -3.51133 0
M  V30 9389 C 887.475 3.98882 -4.30244 0
M  V30 9390 C 889.827 4.06365 -4.8482 0
M  V30 9391 C 888.491 4.12722 -5.24611 0
M  V30 9392 H 887.761 0.693967 -0.259791 0
M  V30 9393 H 890.408 1.42419 -1.2802 0
M  V30 9394 H 888.713 3.89292 -0.442596 0
M  V30 9395 H 890.41 3.92257 -0.832811 0
M  V30 9396 H 887 3.65346 -2.24099 0
M  V30 9397 H 891.184 3.78243 -3.21319 0
M  V30 9398 H 886.44 4.02039 -4.60624 0
M  V30 9399 H 890.614 4.16216 -5.58334 0
M  V30 9400 H 888.241 4.27728 -6.28453 0
M  V30 9401 N 889.816 0.795718 1.36037 0
M  V30 9402 C 891.064 0.370291 1.98679 0
M  V30 9403 C 891.385 -1.06332 1.63458 0
M  V30 9404 O 890.655 -1.73394 0.911671 0
M  V30 9405 H 889.235 0.133928 0.734896 0
M  V30 9406 H 891.897 1.01915 1.6613 0
M  V30 9407 H 890.993 0.467207 3.08583 0
M  V30 9408 N 891.294 -1.47756 0.548274 0
M  V30 9409 C 892.705 -1.8636 0.112547 0
M  V30 9410 C 893.056 -1.45589 -1.31523 0
M  V30 9411 O 892.181 -0.854874 -1.98799 0
M  V30 9412 C 892.776 -3.38224 0.197473 0
M  V30 9413 C 891.335 -3.75954 -0.183163 0
M  V30 9414 C 890.482 -2.7181 0.549059 0
M  V30 9415 H 893.433 -1.394 0.758506 0
M  V30 9416 H 893.454 -3.75957 -0.586217 0
M  V30 9417 H 892.966 -3.67868 1.23673 0
M  V30 9418 H 891.067 -3.51926 -1.22387 0
M  V30 9419 H 891.18 -4.78801 0.169178 0
M  V30 9420 H 889.544 -2.54699 -0.00682862 0
M  V30 9421 H 890.327 -3.04296 1.5893 0
M  V30 9422 N 892.772 -0.284283 -1.55015 0
M  V30 9423 C 894.018 0.330352 -2.00091 0
M  V30 9424 C 894.351 1.54814 -1.17244 0
M  V30 9425 O 893.626 1.92954 -0.244753 0
M  V30 9426 C 893.909 0.703492 -3.53161 0
M  V30 9427 C 893.762 -0.522275 -4.46758 0
M  V30 9428 C 895.081 1.53645 -4.12409 0
M  V30 9429 H 892.2 0.118599 -0.727395 0
M  V30 9430 H 894.842 -0.393054 -1.8589 0
M  V30 9431 H 892.992 1.31983 -3.65394 0
M  V30 9432 H 894.664 -1.16082 -4.46456 0
M  V30 9433 H 892.907 -1.15865 -4.1804 0
M  V30 9434 H 893.578 -0.217295 -5.51572 0
M  V30 9435 H 896.054 1.01583 -4.0351 0
M  V30 9436 H 894.93 1.76633 -5.19704 0
M  V30 9437 H 895.191 2.5204 -3.63219 0
M  V30 9438 N 894.251 1.57596 -0.0117121 0
M  V30 9439 C 895.5 1.9025 0.669921 0
M  V30 9440 C 895.813 0.887986 1.74282 0
M  V30 9441 O 897.019 1.10516 2.47989 0
M  V30 9442 C 895.475 3.37762 1.24277 0
M  V30 9443 C 895.083 4.47535 0.204076 0
M  V30 9444 C 896.827 3.79509 1.90192 0
M  V30 9445 C 894.734 5.86132 0.787577 0
M  V30 9446 H 893.664 0.709935 0.253984 0
M  V30 9447 H 896.315 1.8335 -0.0741718 0
M  V30 9448 H 894.697 3.39537 2.03791 0
M  V30 9449 H 895.871 4.57294 -0.56733 0
M  V30 9450 H 894.186 4.14881 -0.355305 0
M  V30 9451 H 896.783 4.80402 2.34773 0
M  V30 9452 H 897.126 3.13643 2.7374 0
M  V30 9453 H 897.659 3.80084 1.17394 0
M  V30 9454 H 894.398 6.55499 -0.00938418 0
M  V30 9455 H 893.918 5.80014 1.52787 0
M  V30 9456 H 895.597 6.34158 1.28265 0
M  V30 9457 N 895.729 -0.261212 1.5542 0
M  V30 9458 C 896.677 -1.34298 1.89913 0
M  V30 9459 C 897.671 -1.50547 0.776665 0
M  V30 9460 O 898.877 -1.52191 0.961139 0
M  V30 9461 H 895.252 -0.4494 0.602946 0
M  V30 9462 H 897.223 -1.02464 2.80256 0
M  V30 9463 C 895.972 -2.69423 2.19788 0
M  V30 9464 H 895.295 -2.57715 3.05652 0
M  V30 9465 H 896.735 -3.44026 2.47835 0
M  V30 9466 C 895.194 -3.21423 1.00939 0
M  V30 9467 O 895.724 -4.00921 0.250034 0
M  V30 9468 N 893.93 -2.7926 0.803883 0
M  V30 9469 H 893.477 -2.14724 1.42308 0
M  V30 9470 H 893.435 -3.14398 0.0103257 0
M  V30 9471 N 897.207 -1.48554 -0.526253 0
M  V30 9472 C 898.455 -1.56452 -1.27935 0
M  V30 9473 C 898.776 -0.24184 -1.93495 0
M  V30 9474 O 898.046 0.736917 -1.81511 0
M  V30 9475 H 896.626 -0.576379 -0.47518 0
M  V30 9476 H 899.288 -1.85039 -0.612083 0
M  V30 9477 H 898.384 -2.34751 -2.05666 0
M  V30 9478 N 898.685 0.775411 -1.37205 0
M  V30 9479 C 900.101 1.07546 -1.17924 0
M  V30 9480 C 900.301 2.01496 -0.0128897 0
M  V30 9481 O 899.357 2.44039 0.64816 0
M  V30 9482 C 900.67 1.67647 -2.49629 0
M  V30 9483 C 902.218 1.79923 -2.56119 0
M  V30 9484 C 902.693 2.43438 -3.87946 0
M  V30 9485 N 904.184 2.50893 -3.89368 0
M  V30 9486 C 904.919 3.00881 -4.88117 0
M  V30 9487 N 904.415 3.5107 -5.97262 0
M  V30 9488 N 906.208 2.99722 -4.75524 0
M  V30 9489 H 898.359 0.151524 -2.11859 0
M  V30 9490 H 900.622 0.129845 -0.939066 0
M  V30 9491 H 900.328 1.06082 -3.3532 0
M  V30 9492 H 900.202 2.66988 -2.66453 0
M  V30 9493 H 902.589 2.40621 -1.70838 0
M  V30 9494 H 902.67 0.793482 -2.43182 0
M  V30 9495 H 902.314 1.8338 -4.73639 0
M  V30 9496 H 902.244 3.44611 -3.98184 0
M  V30 9497 H 904.735 2.1537 -3.10522 0
M  V30 9498 H 905.048 3.87604 -6.68568 0
M  V30 9499 H 903.393 3.49184 -6.00912 0
M  V30 9500 H 906.584 2.5981 -3.8938 0
M  V30 9501 H 906.757 3.38369 -5.52639 0
M  V30 9502 N 900.163 1.21714 1.00117 0
M  V30 9503 C 901.403 1.04818 1.75478 0
M  V30 9504 C 901.767 -0.410653 1.87557 0
M  V30 9505 O 902.968 -0.700241 2.59519 0
M  V30 9506 C 901.239 1.73055 3.12709 0
M  V30 9507 S 902.798 1.71464 4.03913 0
M  V30 9508 H 899.616 0.375534 0.603734 0
M  V30 9509 H 902.218 1.54522 1.19763 0
M  V30 9510 H 900.922 2.78376 3.01554 0
M  V30 9511 H 900.453 1.23546 3.73497 0
M  V30 9512 H 902.468 0.75845 4.90369 0
M  V30 9513 N 901.641 -1.19671 1.02551 0
M  V30 9514 C 902.881 -1.90971 0.728668 0
M  V30 9515 C 903.245 -1.7762 -0.729057 0
M  V30 9516 O 904.446 -2.43484 -1.13882 0
M  V30 9517 C 902.717 -3.3794 1.16323 0
M  V30 9518 S 904.276 -4.27493 0.989722 0
M  V30 9519 H 901.094 -0.659617 0.265381 0
M  V30 9520 H 903.696 -1.44698 1.31463 0
M  V30 9521 H 902.4 -3.45181 2.21986 0
M  V30 9522 H 901.931 -3.89243 0.570417 0
M  V30 9523 H 903.946 -4.96096 -0.101666 0
M  V30 9524 N 903.119 -0.802921 -1.35613 0
M  V30 9525 C 904.049 -0.225131 -2.32412 0
M  V30 9526 C 905.03 0.647383 -1.57299 0
M  V30 9527 O 906.215 0.578414 -1.85386 0
M  V30 9528 C 903.345 0.630085 -3.41537 0
M  V30 9529 C 902.299 -0.143635 -4.27759 0
M  V30 9530 C 901.625 0.833046 -5.28171 0
M  V30 9531 C 902.925 -1.34054 -5.04804 0
M  V30 9532 H 904.619 -1.03385 -2.80984 0
M  V30 9533 H 902.165 -0.498593 -1.35093 0
M  V30 9534 H 904.118 1.04433 -4.08254 0
M  V30 9535 H 902.842 1.47165 -2.91565 0
M  V30 9536 H 901.501 -0.539015 -3.62616 0
M  V30 9537 H 901.149 1.67001 -4.74468 0
M  V30 9538 H 900.849 0.319697 -5.8673 0
M  V30 9539 H 902.373 1.24558 -5.97761 0
M  V30 9540 H 903.787 -1.00136 -5.64487 0
M  V30 9541 H 902.184 -1.78812 -5.72841 0
M  V30 9542 H 903.254 -2.12906 -4.35659 0
M  V30 9543 N 904.597 1.47463 -0.556102 0
M  V30 9544 C 905.507 2.33785 0.195378 0
M  V30 9545 C 906.523 1.48123 0.913 0
M  V30 9546 O 907.699 1.81053 0.882141 0
M  V30 9547 C 904.764 3.24795 1.21282 0
M  V30 9548 C 903.825 4.26346 0.502747 0
M  V30 9549 C 903.058 5.13007 1.47172 0
M  V30 9550 O 903.281 5.02103 2.70646 0
M  V30 9551 O 902.215 5.93588 0.996814 0
M  V30 9552 H 906.041 2.99341 -0.512676 0
M  V30 9553 H 903.626 1.46004 -0.31673 0
M  V30 9554 H 905.508 3.81015 1.80016 0
M  V30 9555 H 904.183 2.61868 1.90282 0
M  V30 9556 H 903.09 3.73889 -0.125757 0
M  V30 9557 H 904.423 4.91984 -0.145779 0
M  V30 9558 N 906.075 0.2925 1.54862 0
M  V30 9559 C 906.985 -0.597036 2.26876 0
M  V30 9560 C 908.001 -1.15558 1.30086 0
M  V30 9561 O 909.177 -1.18217 1.63054 0
M  V30 9562 C 906.242 -1.75664 2.98903 0
M  V30 9563 C 905.303 -1.23303 4.11212 0
M  V30 9564 C 904.536 -2.33736 4.79795 0
M  V30 9565 O 904.759 -3.53459 4.47686 0
M  V30 9566 O 903.693 -2.00908 5.67379 0
M  V30 9567 H 907.519 -0.0131242 3.03697 0
M  V30 9568 H 905.104 0.0592642 1.49282 0
M  V30 9569 H 906.986 -2.43241 3.4411 0
M  V30 9570 H 905.661 -2.32731 2.24984 0
M  V30 9571 H 904.568 -0.523222 3.70423 0
M  V30 9572 H 905.901 -0.707887 4.87083 0
M  V30 9573 N 907.553 -1.57587 0.0200696 0
M  V30 9574 C 908.5 -2.09667 -0.964791 0
M  V30 9575 C 909.47 -0.99664 -1.32877 0
M  V30 9576 O 910.655 -1.2703 -1.42366 0
M  V30 9577 C 907.795 -2.62101 -2.24493 0
M  V30 9578 C 906.908 -3.8608 -1.93821 0
M  V30 9579 C 906.043 -4.26939 -3.16064 0
M  V30 9580 C 905.082 -5.43701 -2.81169 0
M  V30 9581 N 904.219 -5.79759 -3.9601 0
M  V30 9582 H 909.059 -2.93538 -0.513751 0
M  V30 9583 H 906.596 -1.45096 -0.242 0
M  V30 9584 H 908.554 -2.90587 -2.99358 0
M  V30 9585 H 907.184 -1.81074 -2.6723 0
M  V30 9586 H 906.236 -3.64378 -1.09237 0
M  V30 9587 H 907.548 -4.71028 -1.64115 0
M  V30 9588 H 906.702 -4.56814 -3.99257 0
M  V30 9589 H 905.441 -3.40739 -3.48924 0
M  V30 9590 H 904.446 -5.13529 -1.96387 0
M  V30 9591 H 905.671 -6.31593 -2.49535 0
M  V30 9592 H 903.617 -4.96516 -4.28729 0
M  V30 9593 H 903.534 -6.59327 -3.69896 0
M  V30 9594 H 904.802 -6.14235 -4.79933 0
M  V30 9595 N 909.032 0.252966 -1.55557 0
M  V30 9596 C 910.278 0.983306 -1.77367 0
M  V30 9597 C 910.611 1.85203 -0.584258 0
M  V30 9598 O 909.886 1.89963 0.417644 0
M  V30 9599 C 910.169 1.84896 -3.09007 0
M  V30 9600 C 910.022 1.00883 -4.38341 0
M  V30 9601 C 911.341 2.83254 -3.36831 0
M  V30 9602 H 908.46 0.356056 -0.645286 0
M  V30 9603 H 911.102 0.254232 -1.88291 0
M  V30 9604 H 909.252 2.47058 -2.99825 0
M  V30 9605 H 910.924 0.40638 -4.59507 0
M  V30 9606 H 909.167 0.31297 -4.3267 0
M  V30 9607 H 909.838 1.64818 -5.2682 0
M  V30 9608 H 912.314 2.31228 -3.45937 0
M  V30 9609 H 911.19 3.40949 -4.30169 0
M  V30 9610 H 911.451 3.59407 -2.57447 0
M  V30 9611 N 910.51 1.48831 0.518367 0
M  V30 9612 C 911.75 1.59045 1.28391 0
M  V30 9613 C 912.114 0.263443 1.90184 0
M  V30 9614 O 913.315 0.24064 2.67721 0
M  V30 9615 C 911.586 2.70536 2.33548 0
M  V30 9616 S 913.145 3.00591 3.19673 0
M  V30 9617 H 909.963 0.561182 0.436573 0
M  V30 9618 H 912.565 1.86409 0.589222 0
M  V30 9619 H 911.269 3.65499 1.86652 0
M  V30 9620 H 910.8 2.4511 3.07708 0
M  V30 9621 H 912.815 2.40779 4.33866 0
M  V30 9622 N 911.988 -0.768124 1.37614 0
M  V30 9623 C 913.213 -1.56239 1.36397 0
M  V30 9624 C 913.638 -1.8804 -0.0475839 0
M  V30 9625 O 912.996 -1.495 -1.02564 0
M  V30 9626 C 913.044 -2.84716 2.21289 0
M  V30 9627 O 912.148 -3.79249 1.62001 0
M  V30 9628 H 911.489 -0.473119 0.465891 0
M  V30 9629 H 914.019 -0.950415 1.81186 0
M  V30 9630 H 914.029 -3.33784 2.34632 0
M  V30 9631 H 912.704 -2.60899 3.2389 0
M  V30 9632 H 911.281 -3.37904 1.57719 0
M  V30 9633 N 913.466 -1.22244 -0.994698 0
M  V30 9634 C 914.396 -1.01513 -2.10279 0
M  V30 9635 C 915.377 0.0633365 -1.69982 0
M  V30 9636 O 916.562 -0.0985268 -1.9395 0
M  V30 9637 C 913.692 -0.59016 -3.42249 0
M  V30 9638 C 912.646 -1.61436 -3.96387 0
M  V30 9639 C 911.972 -1.04528 -5.24383 0
M  V30 9640 C 913.272 -3.00388 -4.27276 0
M  V30 9641 H 914.966 -1.94194 -2.2788 0
M  V30 9642 H 912.512 -0.935094 -1.09508 0
M  V30 9643 H 914.465 -0.432254 -4.19177 0
M  V30 9644 H 913.189 0.372308 -3.24471 0
M  V30 9645 H 911.848 -1.76001 -3.21589 0
M  V30 9646 H 911.496 -0.0742225 -5.02945 0
M  V30 9647 H 911.196 -1.72949 -5.61571 0
M  V30 9648 H 912.72 -0.898922 -6.03947 0
M  V30 9649 H 914.134 -2.89207 -4.95007 0
M  V30 9650 H 912.531 -3.65916 -4.75631 0
M  V30 9651 H 913.601 -3.50456 -3.35125 0
M  V30 9652 N 914.944 1.19125 -1.03184 0
M  V30 9653 C 915.874 2.24675 -0.635889 0
M  V30 9654 C 916.855 1.66321 0.356565 0
M  V30 9655 O 918.04 1.92728 0.238625 0
M  V30 9656 C 915.17 3.47298 0.011069 0
M  V30 9657 C 914.124 4.18345 -0.903979 0
M  V30 9658 C 913.45 5.34561 -0.12197 0
M  V30 9659 C 914.75 4.72816 -2.21907 0
M  V30 9660 H 916.444 2.5805 -1.51825 0
M  V30 9661 H 913.99 1.24039 -0.73146 0
M  V30 9662 H 915.943 4.20333 0.299729 0
M  V30 9663 H 914.667 3.13131 0.928245 0
M  V30 9664 H 913.326 3.47196 -1.17688 0
M  V30 9665 H 912.974 4.9664 0.797334 0
M  V30 9666 H 912.674 5.83029 -0.731498 0
M  V30 9667 H 914.198 6.10391 0.159881 0
M  V30 9668 H 915.612 5.3759 -1.99173 0
M  V30 9669 H 914.009 5.31782 -2.78078 0
M  V30 9670 H 915.079 3.9072 -2.87168 0
M  V30 9671 N 916.422 0.810101 1.35185 0
M  V30 9672 C 917.332 0.224565 2.33523 0
M  V30 9673 C 918.348 -0.634287 1.62027 0
M  V30 9674 O 919.524 -0.545211 1.9388 0
M  V30 9675 C 916.589 -0.614319 3.41214 0
M  V30 9676 C 915.65 0.265435 4.28479 0
M  V30 9677 C 914.883 -0.533506 5.31027 0
M  V30 9678 O 915.106 -1.7679 5.42311 0
M  V30 9679 O 914.04 0.0774573 6.0185 0
M  V30 9680 H 917.866 1.03815 2.85405 0
M  V30 9681 H 915.451 0.571964 1.38018 0
M  V30 9682 H 917.333 -1.09201 4.07005 0
M  V30 9683 H 916.008 -1.40545 2.91597 0
M  V30 9684 H 914.915 0.790343 3.65656 0
M  V30 9685 H 916.248 1.0206 4.81503 0
M  V30 9686 N 917.9 -1.47166 0.563914 0
M  V30 9687 C 919.311 -1.86231 0.132307 0
M  V30 9688 C 919.662 -1.46976 -1.29971 0
M  V30 9689 O 918.787 -0.875911 -1.97881 0
M  V30 9690 C 919.382 -3.37996 0.233335 0
M  V30 9691 C 917.941 -3.76127 -0.143278 0
M  V30 9692 C 917.088 -2.71212 0.577857 0
M  V30 9693 H 920.039 -1.38588 0.773249 0
M  V30 9694 H 920.06 -3.76558 -0.546309 0
M  V30 9695 H 919.572 -3.66535 1.27568 0
M  V30 9696 H 917.673 -3.53205 -1.18648 0
M  V30 9697 H 917.786 -4.78595 0.219952 0
M  V30 9698 H 916.15 -2.54692 0.020186 0
M  V30 9699 H 916.933 -3.02593 1.62149 0
M  V30 9700 N 919.378 -0.300708 -1.54705 0
M  V30 9701 C 920.308 0.568675 -2.26469 0
M  V30 9702 C 921.289 1.13817 -1.26411 0
M  V30 9703 O 922.474 1.16756 -1.55183 0
M  V30 9704 C 919.604 1.74077 -3.00524 0
M  V30 9705 C 918.558 1.30165 -4.07727 0
M  V30 9706 C 917.884 2.55888 -4.69495 0
M  V30 9707 C 919.184 0.433106 -5.20501 0
M  V30 9708 H 920.878 -0.0298851 -2.99385 0
M  V30 9709 H 918.424 -0.0158135 -1.43991 0
M  V30 9710 H 920.377 2.35506 -3.49449 0
M  V30 9711 H 919.101 2.36556 -2.25186 0
M  V30 9712 H 917.76 0.710414 -3.59651 0
M  V30 9713 H 917.408 3.16681 -3.90797 0
M  V30 9714 H 917.108 2.27207 -5.41895 0
M  V30 9715 H 918.632 3.18121 -5.21183 0
M  V30 9716 H 920.046 0.95307 -5.65322 0
M  V30 9717 H 918.443 0.240085 -5.9962 0
M  V30 9718 H 919.513 -0.541866 -4.81863 0
M  V30 9719 N 920.856 1.57574 -0.0284266 0
M  V30 9720 C 922.104 1.91393 0.649079 0
M  V30 9721 C 922.425 0.905368 1.72708 0
M  V30 9722 O 921.695 -0.0532107 1.95828 0
M  V30 9723 H 920.275 0.70646 0.24274 0
M  V30 9724 H 922.937 1.94752 -0.076066 0
M  V30 9725 H 922.033 2.91988 1.10226 0
M  V30 9726 N 922.334 -0.244713 1.55689 0
M  V30 9727 C 923.264 -1.30667 1.93516 0
M  V30 9728 C 924.245 -1.50094 0.800371 0
M  V30 9729 O 925.43 -1.62665 1.06083 0
M  V30 9730 C 922.56 -2.66101 2.23176 0
M  V30 9731 C 921.514 -2.61366 3.38927 0
M  V30 9732 C 920.84 -4.00616 3.54134 0
M  V30 9733 C 922.14 -2.18161 4.74555 0
M  V30 9734 H 923.834 -0.992546 2.82469 0
M  V30 9735 H 921.38 -0.476018 1.35905 0
M  V30 9736 H 923.333 -3.4053 2.48228 0
M  V30 9737 H 922.057 -2.99154 1.31051 0
M  V30 9738 H 920.716 -1.89395 3.13887 0
M  V30 9739 H 920.364 -4.30938 2.59426 0
M  V30 9740 H 920.064 -3.98335 4.31975 0
M  V30 9741 H 921.588 -4.76741 3.8151 0
M  V30 9742 H 923.002 -2.82323 4.98965 0
M  V30 9743 H 921.399 -2.26988 5.55515 0
M  V30 9744 H 922.469 -1.13333 4.7147 0
M  V30 9745 N 923.813 -1.49104 -0.510467 0
M  V30 9746 C 924.745 -1.61183 -1.6295 0
M  V30 9747 C 925.758 -0.495003 -1.55092 0
M  V30 9748 O 926.947 -0.766671 -1.61197 0
M  V30 9749 C 924.047 -1.54373 -3.01699 0
M  V30 9750 C 923.22 -2.81428 -3.34838 0
M  V30 9751 C 922.279 -2.67802 -4.52956 0
M  V30 9752 O 921.305 -3.41723 -4.55208 0
M  V30 9753 N 922.507 -1.78715 -5.52305 0
M  V30 9754 H 925.272 -2.57693 -1.53018 0
M  V30 9755 H 922.833 -1.46073 -0.698152 0
M  V30 9756 H 924.825 -1.42924 -3.78622 0
M  V30 9757 H 923.395 -0.657597 -3.05605 0
M  V30 9758 H 922.615 -3.07299 -2.46903 0
M  V30 9759 H 923.903 -3.6568 -3.53773 0
M  V30 9760 H 923.301 -1.17897 -5.53278 0
M  V30 9761 H 921.858 -1.73194 -6.28369 0
M  V30 9762 N 925.291 0.760815 -1.38019 0
M  V30 9763 C 926.531 1.53264 -1.35239 0
M  V30 9764 C 926.895 1.91908 0.0595038 0
M  V30 9765 O 928.096 2.67962 0.212122 0
M  V30 9766 C 926.367 2.75643 -2.27499 0
M  V30 9767 S 927.926 3.6559 -2.42672 0
M  V30 9768 H 924.744 0.52457 -0.479945 0
M  V30 9769 H 927.346 0.893737 -1.73875 0
M  V30 9770 H 926.05 2.4535 -3.28986 0
M  V30 9771 H 925.581 3.44483 -1.89987 0
M  V30 9772 H 927.596 4.68124 -1.64542 0
M  V30 9773 N 926.769 1.22769 0.988202 0
M  V30 9774 C 927.997 1.08155 1.76381 0
M  V30 9775 C 928.412 -0.367573 1.85187 0
M  V30 9776 O 927.769 -1.25455 1.32541 0
M  V30 9777 C 927.82 1.69193 3.19462 0
M  V30 9778 O 927.541 3.08437 3.11125 0
M  V30 9779 C 929.042 1.59915 4.13451 0
M  V30 9780 H 926.262 0.378908 0.553778 0
M  V30 9781 H 928.806 1.6246 1.24206 0
M  V30 9782 H 926.961 1.18939 3.6869 0
M  V30 9783 H 927.375 3.37916 4.0114 0
M  V30 9784 H 928.849 2.07339 5.1158 0
M  V30 9785 H 929.326 0.556546 4.3566 0
M  V30 9786 H 929.932 2.09497 3.70123 0
M  V30 9787 N 928.247 -1.18576 1.03814 0
M  V30 9788 C 929.494 -1.88493 0.740036 0
M  V30 9789 C 929.822 -1.80198 -0.732056 0
M  V30 9790 O 929.077 -1.19509 -1.54971 0
M  V30 9791 C 929.376 -3.38448 1.14837 0
M  V30 9792 C 929.042 -3.66947 2.62031 0
M  V30 9793 C 927.704 -3.74435 3.02244 0
M  V30 9794 C 930.056 -3.79534 3.57217 0
M  V30 9795 C 927.384 -3.91986 4.36536 0
M  V30 9796 C 929.736 -3.986 4.91223 0
M  V30 9797 C 928.4 -4.04323 5.31111 0
M  V30 9798 H 927.67 -0.689746 0.270798 0
M  V30 9799 H 930.317 -1.40364 1.3027 0
M  V30 9800 H 928.622 -3.88539 0.504472 0
M  V30 9801 H 930.319 -3.90882 0.89511 0
M  V30 9802 H 926.909 -3.61734 2.29883 0
M  V30 9803 H 931.093 -3.73083 3.27296 0
M  V30 9804 H 926.349 -3.9466 4.66962 0
M  V30 9805 H 930.523 -4.07281 5.64885 0
M  V30 9806 H 928.15 -4.17676 6.35178 0
M  V30 9807 N 929.725 -0.817259 -1.34754 0
M  V30 9808 C 930.974 -0.39908 -1.97713 0
M  V30 9809 C 931.287 1.04203 -1.65533 0
M  V30 9810 O 932.493 1.56384 -2.21937 0
M  V30 9811 C 930.949 -0.662634 -3.53747 0
M  V30 9812 C 930.557 -2.11699 -3.94826 0
M  V30 9813 C 932.301 -0.31034 -4.23364 0
M  V30 9814 C 930.208 -2.32573 -5.4375 0
M  V30 9815 H 929.138 -0.145488 -0.739831 0
M  V30 9816 H 931.789 -1.00282 -1.53674 0
M  V30 9817 H 930.171 0.0111972 -3.95998 0
M  V30 9818 H 931.345 -2.82951 -3.63697 0
M  V30 9819 H 929.66 -2.43017 -3.3813 0
M  V30 9820 H 932.257 -0.44421 -5.32852 0
M  V30 9821 H 932.6 0.744594 -4.09587 0
M  V30 9822 H 933.133 -0.938518 -3.8657 0
M  V30 9823 H 929.872 -3.36551 -5.62507 0
M  V30 9824 H 929.392 -1.65858 -5.76412 0
M  V30 9825 H 931.071 -2.14651 -6.10356 0
M  V30 9826 N 931.203 1.46865 -0.571711 0
M  V30 9827 C 932.151 2.31897 0.180714 0
M  V30 9828 C 933.145 1.43815 0.895191 0
M  V30 9829 O 934.351 1.60501 0.814828 0
M  V30 9830 H 930.726 0.748032 0.077148 0
M  V30 9831 H 932.697 2.93185 -0.555432 0
M  V30 9832 C 931.446 3.26766 1.18824 0
M  V30 9833 H 930.769 3.94515 0.64789 0
M  V30 9834 H 932.209 3.89067 1.68532 0
M  V30 9835 C 930.668 2.51325 2.2436 0
M  V30 9836 O 931.198 2.26825 3.31532 0
M  V30 9837 N 929.404 2.12079 1.98673 0
M  V30 9838 H 928.951 2.32204 1.1153 0
M  V30 9839 H 928.909 1.61921 2.69498 0
M  V30 9840 N 932.681 0.308908 1.54543 0
M  V30 9841 C 933.958 -0.351558 1.92415 0
M  V30 9842 C 934.338 -1.71061 1.23699 0
M  V30 9843 O 933.686 -2.25394 0.3755 0
M  V30 9844 C 933.896 -0.458357 3.45977 0
M  V30 9845 C 935.244 -0.725524 4.18355 0
M  V30 9846 O 936.268 -0.541859 3.52054 0
M  V30 9847 O 935.127 -1.07884 5.35745 0
M  V30 9848 H 932.221 -0.197957 0.802958 0
M  V30 9849 H 934.767 0.357548 1.65891 0
M  V30 9850 H 933.539 0.496723 3.88134 0
M  V30 9851 H 933.162 -1.21562 3.78561 0
M  V30 9852 N 934.159 -1.57557 0.0367827 0
M  V30 9853 C 935.406 -1.92114 -0.640185 0
M  V30 9854 C 935.734 -0.913887 -1.71693 0
M  V30 9855 O 934.989 0.0760343 -1.95552 0
M  V30 9856 C 935.288 -3.33387 -1.28794 0
M  V30 9857 C 934.954 -4.4961 -0.340819 0
M  V30 9858 C 933.616 -4.81133 -0.0801574 0
M  V30 9859 C 935.968 -5.20283 0.309106 0
M  V30 9860 C 933.296 -5.80683 0.838107 0
M  V30 9861 C 935.648 -6.20813 1.21547 0
M  V30 9862 C 934.312 -6.50773 1.48495 0
M  V30 9863 H 933.582 -0.702996 -0.23426 0
M  V30 9864 H 936.229 -1.91238 0.100188 0
M  V30 9865 H 934.534 -3.30561 -2.10324 0
M  V30 9866 H 936.231 -3.57399 -1.81843 0
M  V30 9867 H 932.821 -4.25002 -0.554161 0
M  V30 9868 H 937.005 -4.96153 0.120794 0
M  V30 9869 H 932.261 -6.02238 1.05451 0
M  V30 9870 H 936.435 -6.74692 1.72522 0
M  V30 9871 H 934.062 -7.27727 2.19814 0
M  V30 9872 N 935.637 0.236453 -1.55816 0
M  V30 9873 C 936.884 0.963012 -1.78136 0
M  V30 9874 C 937.212 1.84918 -0.602952 0
M  V30 9875 O 936.467 1.91285 0.413325 0
M  V30 9876 C 936.766 1.84549 -3.06066 0
M  V30 9877 C 936.432 1.11381 -4.36927 0
M  V30 9878 C 935.094 0.911635 -4.72486 0
M  V30 9879 C 937.446 0.596 -5.17781 0
M  V30 9880 C 934.774 0.179515 -5.86425 0
M  V30 9881 C 937.126 -0.122702 -6.32481 0
M  V30 9882 C 935.79 -0.336263 -6.66652 0
M  V30 9883 H 935.06 0.352391 -0.651845 0
M  V30 9884 H 937.707 0.232295 -1.90086 0
M  V30 9885 H 936.012 2.6436 -2.89173 0
M  V30 9886 H 937.709 2.40953 -3.20535 0
M  V30 9887 H 934.299 1.28134 -4.08998 0
M  V30 9888 H 938.483 0.73971 -4.90757 0
M  V30 9889 H 933.739 0.00368224 -6.114 0
M  V30 9890 H 937.913 -0.531516 -6.94369 0
M  V30 9891 H 935.54 -0.905507 -7.54788 0
M  V30 9892 N 937.115 1.49373 0.502552 0
M  V30 9893 C 938.343 1.62488 1.28084 0
M  V30 9894 C 938.758 0.295667 1.86471 0
M  V30 9895 O 938.115 -0.718664 1.67754 0
M  V30 9896 C 938.166 2.69249 2.4122 0
M  V30 9897 O 937.887 3.97014 1.85234 0
M  V30 9898 C 939.388 2.93054 3.32617 0
M  V30 9899 H 936.608 0.547068 0.388533 0
M  V30 9900 H 939.152 1.95394 0.603452 0
M  V30 9901 H 937.307 2.39125 3.04792 0
M  V30 9902 H 937.721 4.55809 2.59496 0
M  V30 9903 H 939.195 3.71493 4.08285 0
M  V30 9904 H 939.672 2.02911 3.89517 0
M  V30 9905 H 940.278 3.24589 2.74813 0
M  V30 9906 N 938.594 -0.753485 1.38421 0
M  V30 9907 C 939.824 -1.54049 1.37669 0
M  V30 9908 C 940.232 -1.89167 -0.0353656 0
M  V30 9909 O 939.575 -1.53285 -1.01239 0
M  V30 9910 C 939.637 -2.86777 2.16793 0
M  V30 9911 C 939.301 -2.74196 3.65603 0
M  V30 9912 C 940.298 -2.43985 4.59094 0
M  V30 9913 C 937.983 -2.91645 4.0896 0
M  V30 9914 C 939.977 -2.31379 5.93921 0
M  V30 9915 C 937.664 -2.78658 5.43868 0
M  V30 9916 C 938.662 -2.48568 6.36163 0
M  V30 9917 O 938.35 -2.3564 7.68589 0
M  V30 9918 H 938.082 -0.483276 0.472673 0
M  V30 9919 H 940.636 -0.940267 1.82615 0
M  V30 9920 H 938.866 -3.48988 1.66565 0
M  V30 9921 H 940.555 -3.48289 2.08446 0
M  V30 9922 H 941.321 -2.30172 4.26902 0
M  V30 9923 H 937.2 -3.14063 3.37469 0
M  V30 9924 H 940.744 -2.07813 6.65927 0
M  V30 9925 H 936.641 -2.92044 5.75656 0
M  V30 9926 H 937.409 -2.50851 7.79112 0
M  V30 9927 N 940.072 -1.23292 -0.981677 0
M  V30 9928 C 941.022 -0.980133 -2.05858 0
M  V30 9929 C 942.006 0.0734044 -1.60732 0
M  V30 9930 O 943.198 -0.138561 -1.76457 0
M  V30 9931 C 940.327 -0.571879 -3.38503 0
M  V30 9932 C 939.413 -1.66075 -3.90231 0
M  V30 9933 N 939.804 -2.89077 -4.15052 0
M  V30 9934 C 938.102 -1.53503 -4.18751 0
M  V30 9935 C 938.803 -3.59567 -4.5726 0
M  V30 9936 N 937.779 -2.87076 -4.61615 0
M  V30 9937 H 941.581 -1.91432 -2.23005 0
M  V30 9938 H 939.095 -1.13211 -1.16434 0
M  V30 9939 H 941.092 -0.372059 -4.15236 0
M  V30 9940 H 939.752 0.355278 -3.2275 0
M  V30 9941 H 940.763 -3.25395 -4.02912 0
M  V30 9942 H 937.44 -0.674891 -4.12009 0
M  V30 9943 H 938.83 -4.65007 -4.84993 0
M  V30 9944 N 941.55 1.18024 -1.04442 0
M  V30 9945 C 942.799 1.8743 -0.745185 0
M  V30 9946 C 943.112 1.81459 0.730206 0
M  V30 9947 O 944.318 2.46263 1.1431 0
M  V30 9948 C 942.774 3.36266 -1.28271 0
M  V30 9949 C 942.382 3.50757 -2.787 0
M  V30 9950 C 944.126 4.11048 -1.06018 0
M  V30 9951 C 942.033 4.93573 -3.25791 0
M  V30 9952 H 940.963 0.702038 -0.27506 0
M  V30 9953 H 943.614 1.33333 -1.26073 0
M  V30 9954 H 941.996 3.89853 -0.695002 0
M  V30 9955 H 943.17 3.07423 -3.43261 0
M  V30 9956 H 941.485 2.89385 -2.99408 0
M  V30 9957 H 944.082 5.16395 -1.38711 0
M  V30 9958 H 944.425 4.163 0.00241716 0
M  V30 9959 H 944.958 3.63644 -1.61269 0
M  V30 9960 H 941.697 4.93491 -4.31447 0
M  V30 9961 H 941.217 5.37607 -2.65968 0
M  V30 9962 H 942.896 5.62307 -3.20031 0
M  V30 9963 N 943.028 0.824394 1.34319 0
M  V30 9964 C 944.444 0.510336 1.51221 0
M  V30 9965 C 944.644 -0.965201 1.76879 0
M  V30 9966 O 943.7 -1.74961 1.82057 0
M  V30 9967 C 945.013 1.37114 2.6762 0
M  V30 9968 C 946.561 1.36842 2.81502 0
M  V30 9969 C 947.036 2.21374 4.00946 0
M  V30 9970 N 948.527 2.19005 4.08156 0
M  V30 9971 C 949.262 2.81159 4.99737 0
M  V30 9972 N 948.758 3.52309 5.96532 0
M  V30 9973 N 950.551 2.70706 4.9262 0
M  V30 9974 H 942.702 1.77976 1.15924 0
M  V30 9975 H 944.965 0.758503 0.568663 0
M  V30 9976 H 944.671 2.41905 2.55294 0
M  V30 9977 H 944.545 1.03689 3.62669 0
M  V30 9978 H 946.932 0.328284 2.93268 0
M  V30 9979 H 947.013 1.74265 1.87257 0
M  V30 9980 H 946.657 3.25437 3.8994 0
M  V30 9981 H 946.587 1.813 4.94407 0
M  V30 9982 H 949.078 1.67252 3.38874 0
M  V30 9983 H 949.391 3.96977 6.63045 0
M  V30 9984 H 947.736 3.56415 5.96652 0
M  V30 9985 H 950.927 2.14694 4.15962 0
M  V30 9986 H 951.1 3.19431 5.63798 0
M  V30 9987 N 944.506 -1.46559 0.579492 0
M  V30 9988 C 945.456 -2.27316 -0.17645 0
M  V30 9989 C 946.44 -1.35681 -0.864835 0
M  V30 9990 O 947.632 -1.59879 -0.759462 0
M  V30 9991 C 944.761 -3.21957 -1.19157 0
M  V30 9992 C 943.847 -4.21077 -0.505459 0
M  V30 9993 N 944.238 -5.03908 0.437133 0
M  V30 9994 C 942.536 -4.39535 -0.75661 0
M  V30 9995 C 943.237 -5.75635 0.837819 0
M  V30 9996 N 942.213 -5.43276 0.187679 0
M  V30 9997 H 946.015 -2.88747 0.547932 0
M  V30 9998 H 943.529 -1.5737 0.401048 0
M  V30 9999 H 945.526 -3.78518 -1.74728 0
M  V30 10000 H 944.186 -2.62085 -1.9168 0
M  V30 10001 H 945.197 -5.11487 0.812488 0
M  V30 10002 H 941.874 -3.90815 -1.46867 0
M  V30 10003 H 943.264 -6.52235 1.61364 0
M  V30 10004 N 945.984 -0.3171 -1.54377 0
M  V30 10005 C 947.232 0.286842 -2.00054 0
M  V30 10006 C 947.553 1.53161 -1.20692 0
M  V30 10007 O 946.823 1.93479 -0.307045 0
M  V30 10008 H 945.403 0.108979 -0.739008 0
M  V30 10009 H 948.065 -0.432152 -1.90049 0
M  V30 10010 H 947.161 0.547729 -3.07256 0
M  V30 10011 N 947.462 1.57535 -0.0451378 0
M  V30 10012 C 948.372 2.14653 0.946646 0
M  V30 10013 C 949.388 1.10279 1.3459 0
M  V30 10014 O 950.564 1.42417 1.42405 0
M  V30 10015 C 947.629 2.67533 2.20515 0
M  V30 10016 C 946.69 3.86682 1.86481 0
M  V30 10017 C 945.923 4.37031 3.06332 0
M  V30 10018 O 946.146 3.86481 4.1951 0
M  V30 10019 O 945.08 5.28691 2.87697 0
M  V30 10020 H 948.906 2.99706 0.49091 0
M  V30 10021 H 946.491 1.48355 0.17641 0
M  V30 10022 H 948.373 3.01542 2.94365 0
M  V30 10023 H 947.048 1.85554 2.65238 0
M  V30 10024 H 945.955 3.57573 1.09966 0
M  V30 10025 H 947.288 4.69873 1.46562 0
M  V30 10026 N 948.94 -0.228186 1.55939 0
M  V30 10027 C 950.186 -0.954964 1.78909 0
M  V30 10028 C 950.519 -1.8425 0.613648 0
M  V30 10029 O 949.794 -1.90604 -0.38737 0
M  V30 10030 C 950.077 -1.79957 3.1191 0
M  V30 10031 C 949.93 -0.938968 4.3989 0
M  V30 10032 C 951.249 -2.77859 3.41295 0
M  V30 10033 H 948.368 -0.345745 0.650868 0
M  V30 10034 H 951.01 -0.224244 1.88672 0
M  V30 10035 H 949.16 -2.42256 3.03717 0
M  V30 10036 H 950.832 -0.333225 4.60095 0
M  V30 10037 H 949.075 -0.244096 4.33113 0
M  V30 10038 H 949.746 -1.56416 5.29375 0
M  V30 10039 H 952.222 -2.25695 3.49572 0
M  V30 10040 H 951.098 -3.34062 4.35538 0
M  V30 10041 H 951.359 -3.55266 2.63132 0
M  V30 10042 N 950.418 -1.49637 -0.494624 0
M  V30 10043 C 951.368 -1.63168 -1.59249 0
M  V30 10044 C 952.352 -0.487089 -1.5335 0
M  V30 10045 O 953.544 -0.74036 -1.60772 0
M  V30 10046 C 950.673 -1.70744 -2.97828 0
M  V30 10047 C 949.759 -2.90802 -3.08699 0
M  V30 10048 N 950.15 -4.14797 -2.89442 0
M  V30 10049 C 948.448 -2.88871 -3.39808 0
M  V30 10050 C 949.149 -4.95535 -3.04663 0
M  V30 10051 N 948.125 -4.29025 -3.33824 0
M  V30 10052 H 951.927 -2.56751 -1.43024 0
M  V30 10053 H 949.441 -1.46497 -0.700885 0
M  V30 10054 H 951.438 -1.78537 -3.76736 0
M  V30 10055 H 950.098 -0.783024 -3.15117 0
M  V30 10056 H 951.109 -4.44675 -2.6549 0
M  V30 10057 H 947.786 -2.05834 -3.63233 0
M  V30 10058 H 949.176 -6.0406 -2.94214 0
M  V30 10059 N 951.896 0.746133 -1.38819 0
M  V30 10060 C 953.136 1.51821 -1.36857 0
M  V30 10061 C 953.5 1.9196 0.0391461 0
M  V30 10062 O 954.701 2.68172 0.183689 0
M  V30 10063 C 952.972 2.73214 -2.3041 0
M  V30 10064 S 954.531 3.62995 -2.46536 0
M  V30 10065 H 951.349 0.51945 -0.485482 0
M  V30 10066 H 953.951 0.875244 -1.74813 0
M  V30 10067 H 952.655 2.41847 -3.31569 0
M  V30 10068 H 952.186 3.42449 -1.9363 0
M  V30 10069 H 954.201 4.66353 -1.69498 0
M  V30 10070 N 953.375 1.23811 0.975125 0
M  V30 10071 C 954.623 1.07124 1.71373 0
M  V30 10072 C 954.944 -0.391864 1.91022 0
M  V30 10073 O 954.214 -1.28041 1.48265 0
M  V30 10074 H 952.794 0.393415 0.635007 0
M  V30 10075 H 955.456 1.55612 1.17349 0
M  V30 10076 H 954.552 1.56338 2.7012 0
M  V30 10077 N 954.853 -1.17469 1.05066 0
M  V30 10078 C 956.081 -1.9162 0.780334 0
M  V30 10079 C 956.496 -1.76745 -0.663817 0
M  V30 10080 O 955.853 -1.10377 -1.45338 0
M  V30 10081 C 955.904 -3.42723 1.14992 0
M  V30 10082 O 955.625 -3.57139 2.53739 0
M  V30 10083 C 957.126 -4.33952 0.905549 0
M  V30 10084 H 954.346 -0.608022 0.283814 0
M  V30 10085 H 956.89 -1.4897 1.401 0
M  V30 10086 H 955.045 -3.83124 0.57403 0
M  V30 10087 H 955.459 -4.5075 2.68189 0
M  V30 10088 H 956.933 -5.38487 1.21391 0
M  V30 10089 H 957.41 -4.38911 -0.159295 0
M  V30 10090 H 958.016 -3.99263 1.46522 0
M  V30 10091 N 956.331 -0.831506 -1.3388 0
M  V30 10092 C 957.279 -0.247896 -2.31275 0
M  V30 10093 C 958.273 0.616083 -1.578 0
M  V30 10094 O 959.479 0.506465 -1.72728 0
M  V30 10095 H 955.854 -0.0614293 -0.749487 0
M  V30 10096 H 957.825 -1.08401 -2.78014 0
M  V30 10097 C 956.574 0.568434 -3.43022 0
M  V30 10098 H 955.897 -0.0870654 -3.99705 0
M  V30 10099 H 957.337 0.942751 -4.13386 0
M  V30 10100 C 955.796 1.74431 -2.88228 0
M  V30 10101 O 956.326 2.84278 -2.83811 0
M  V30 10102 N 954.532 1.56382 -2.44935 0
M  V30 10103 H 954.079 0.670255 -2.48727 0
M  V30 10104 H 954.037 2.35208 -2.08625 0
M  V30 10105 N 957.809 1.4625 -0.587256 0
M  V30 10106 C 959.055 2.02662 -0.0746851 0
M  V30 10107 C 959.388 1.45723 1.28368 0
M  V30 10108 O 958.663 0.624062 1.84216 0
M  V30 10109 C 958.946 3.60097 -0.0138109 0
M  V30 10110 C 958.799 4.27412 -1.4014 0
M  V30 10111 C 960.118 4.34744 0.684491 0
M  V30 10112 H 957.237 0.736444 -0.0286144 0
M  V30 10113 H 959.879 1.74341 -0.755328 0
M  V30 10114 H 958.029 3.84357 0.56583 0
M  V30 10115 H 959.701 4.14401 -2.02656 0
M  V30 10116 H 957.944 3.86598 -1.96785 0
M  V30 10117 H 958.615 5.362 -1.31124 0
M  V30 10118 H 961.091 4.15657 0.192023 0
M  V30 10119 H 959.967 5.44468 0.696127 0
M  V30 10120 H 960.228 4.06132 1.74669 0
M  V30 10121 N 959.287 0.325282 1.54207 0
M  V30 10122 C 960.703 -0.0273036 1.59577 0
M  V30 10123 C 960.903 -1.50329 1.34177 0
M  V30 10124 O 959.959 -2.25951 1.12705 0
M  V30 10125 C 961.272 0.392468 2.98128 0
M  V30 10126 C 962.82 0.343269 3.11112 0
M  V30 10127 C 963.295 0.738229 4.52011 0
M  V30 10128 N 964.786 0.691701 4.58006 0
M  V30 10129 C 965.521 0.969479 5.65145 0
M  V30 10130 N 965.017 1.31448 6.80216 0
M  V30 10131 N 966.81 0.894926 5.5493 0
M  V30 10132 H 958.961 1.28692 1.68974 0
M  V30 10133 H 961.224 0.523399 0.790416 0
M  V30 10134 H 960.93 1.42089 3.2172 0
M  V30 10135 H 960.804 -0.241651 3.76425 0
M  V30 10136 H 963.191 -0.675946 2.87254 0
M  V30 10137 H 963.272 1.01235 2.34915 0
M  V30 10138 H 962.916 1.75537 4.76602 0
M  V30 10139 H 962.846 0.0468226 5.26579 0
M  V30 10140 H 965.337 0.436975 3.75365 0
M  V30 10141 H 965.65 1.51177 7.57869 0
M  V30 10142 H 963.995 1.35276 6.81708 0
M  V30 10143 H 967.186 0.624876 4.6391 0
M  V30 10144 H 967.359 1.11476 6.38339 0
M  V30 10145 N 960.765 -1.57509 0.0534917 0
M  V30 10146 C 962.181 -1.56696 -0.303067 0
M  V30 10147 C 962.381 -1.06135 -1.71282 0
M  V30 10148 O 961.437 -0.71899 -2.42047 0
M  V30 10149 C 962.75 -3.00421 -0.129418 0
M  V30 10150 C 964.298 -3.12358 -0.200346 0
M  V30 10151 C 964.773 -4.57967 -0.0551971 0
M  V30 10152 N 966.264 -4.63066 -0.111398 0
M  V30 10153 C 966.999 -5.73395 -0.0232344 0
M  V30 10154 N 966.495 -6.92701 0.11741 0
M  V30 10155 N 968.288 -5.62045 -0.078984 0
M  V30 10156 H 960.439 -1.88696 0.975064 0
M  V30 10157 H 962.702 -0.869072 0.378706 0
M  V30 10158 H 962.408 -3.41456 0.842653 0
M  V30 10159 H 962.282 -3.66563 -0.889476 0
M  V30 10160 H 964.669 -2.71221 -1.16289 0
M  V30 10161 H 964.75 -2.48891 0.590506 0
M  V30 10162 H 964.394 -4.9979 0.904034 0
M  V30 10163 H 964.324 -5.19443 -0.865223 0
M  V30 10164 H 966.815 -3.77263 -0.219256 0
M  V30 10165 H 967.128 -7.72597 0.177326 0
M  V30 10166 H 965.473 -6.94833 0.152526 0
M  V30 10167 H 968.664 -4.67725 -0.187434 0
M  V30 10168 H 968.837 -6.48 -0.00681731 0
M  V30 10169 N 962.243 0.219913 -1.56058 0
M  V30 10170 C 963.19 1.27254 -1.92549 0
M  V30 10171 C 964.16 1.46493 -0.782883 0
M  V30 10172 O 965.345 1.60035 -1.03892 0
M  V30 10173 C 962.485 2.61756 -2.24896 0
M  V30 10174 C 961.598 2.50302 -3.52098 0
M  V30 10175 C 960.733 3.77338 -3.73884 0
M  V30 10176 C 959.772 3.60613 -4.94595 0
M  V30 10177 N 958.909 4.79603 -5.12763 0
M  V30 10178 H 963.749 0.954352 -2.82305 0
M  V30 10179 H 961.286 0.459928 -1.39725 0
M  V30 10180 H 963.244 3.40082 -2.4166 0
M  V30 10181 H 961.874 2.91668 -1.38311 0
M  V30 10182 H 960.926 1.63401 -3.43517 0
M  V30 10183 H 962.238 2.33866 -4.40577 0
M  V30 10184 H 961.392 4.64108 -3.90754 0
M  V30 10185 H 960.131 3.96702 -2.83689 0
M  V30 10186 H 959.136 2.72228 -4.77674 0
M  V30 10187 H 960.361 3.42719 -5.86277 0
M  V30 10188 H 958.307 4.99277 -4.2551 0
M  V30 10189 H 958.224 4.65899 -5.95377 0
M  V30 10190 H 959.492 5.67794 -5.34069 0
M  V30 10191 N 963.721 1.49897 0.486681 0
M  V30 10192 C 965.132 1.53142 1.06792 0
M  V30 10193 C 965.483 0.325856 1.93475 0
M  V30 10194 O 964.608 -0.562893 2.08951 0
M  V30 10195 C 965.203 2.77514 1.94348 0
M  V30 10196 C 963.762 2.83491 2.47609 0
M  V30 10197 C 962.909 2.47239 1.2557 0
M  V30 10198 H 965.86 1.56387 0.269962 0
M  V30 10199 H 965.881 2.58487 2.79221 0
M  V30 10200 H 965.393 3.65239 1.31232 0
M  V30 10201 H 963.494 2.0008 3.14323 0
M  V30 10202 H 963.607 3.86011 2.83782 0
M  V30 10203 H 961.971 1.99332 1.58552 0
M  V30 10204 H 962.754 3.37255 0.641404 0
M  V30 10205 N 965.199 -0.738761 1.39212 0
M  V30 10206 C 966.446 -1.49824 1.36231 0
M  V30 10207 C 966.774 -1.94453 -0.0429552 0
M  V30 10208 O 966.029 -1.6683 -1.02304 0
M  V30 10209 C 966.328 -2.75435 2.2775 0
M  V30 10210 C 965.994 -2.49694 3.75451 0
M  V30 10211 C 964.656 -2.42383 4.15697 0
M  V30 10212 C 967.008 -2.27587 4.68885 0
M  V30 10213 C 964.336 -2.11001 5.47444 0
M  V30 10214 C 966.688 -1.97723 6.00906 0
M  V30 10215 C 965.352 -1.88879 6.4022 0
M  V30 10216 H 964.622 -0.548247 0.498504 0
M  V30 10217 H 967.269 -0.848244 1.71689 0
M  V30 10218 H 965.574 -3.45159 1.85398 0
M  V30 10219 H 967.271 -3.33449 2.22739 0
M  V30 10220 H 963.861 -2.56261 3.43552 0
M  V30 10221 H 968.045 -2.32206 4.38628 0
M  V30 10222 H 963.301 -2.02673 5.76831 0
M  V30 10223 H 967.475 -1.79625 6.72836 0
M  V30 10224 H 965.102 -1.64327 7.42227 0
M  V30 10225 N 966.677 -1.24326 -0.968545 0
M  V30 10226 C 967.902 -1.1104 -1.75171 0
M  V30 10227 C 968.327 0.333109 -1.85127 0
M  V30 10228 O 967.685 1.24115 -1.32156 0
M  V30 10229 C 967.733 -1.75397 -3.15068 0
M  V30 10230 O 966.837 -1.02417 -3.9948 0
M  V30 10231 H 966.178 -0.388488 -0.538491 0
M  V30 10232 H 968.708 -1.64617 -1.215 0
M  V30 10233 H 968.718 -1.8112 -3.65595 0
M  V30 10234 H 967.393 -2.80427 -3.07138 0
M  V30 10235 H 965.97 -1.04475 -3.57966 0
M  V30 10236 N 968.156 1.1691 -1.05688 0
M  V30 10237 C 969.403 1.87292 -0.76993 0
M  V30 10238 C 969.731 1.81339 0.703295 0
M  V30 10239 O 968.986 1.21959 1.5305 0
M  V30 10240 C 969.285 3.36578 -1.20207 0
M  V30 10241 C 968.951 3.62732 -2.67836 0
M  V30 10242 C 967.613 3.69579 -3.08163 0
M  V30 10243 C 969.965 3.73803 -3.63209 0
M  V30 10244 C 967.293 3.84992 -4.42717 0
M  V30 10245 C 969.645 3.90735 -4.97503 0
M  V30 10246 C 968.309 3.95823 -5.37476 0
M  V30 10247 H 967.579 0.68535 -0.281737 0
M  V30 10248 H 970.226 1.38274 -1.32486 0
M  V30 10249 H 968.531 3.87687 -0.566222 0
M  V30 10250 H 970.228 3.89409 -0.957183 0
M  V30 10251 H 966.818 3.58031 -2.35609 0
M  V30 10252 H 971.002 3.67829 -3.3319 0
M  V30 10253 H 966.258 3.87181 -4.73182 0
M  V30 10254 H 970.432 3.98243 -5.71293 0
M  V30 10255 H 968.059 4.07518 -6.41742 0
M  V30 10256 N 969.634 0.838594 1.33437 0
M  V30 10257 C 970.581 0.269609 2.2922 0
M  V30 10258 C 971.551 -0.614429 1.54318 0
M  V30 10259 O 972.736 -0.552756 1.82618 0
M  V30 10260 C 969.876 -0.549527 3.40697 0
M  V30 10261 C 968.989 0.358502 4.3051 0
M  V30 10262 C 968.124 -0.471709 5.29101 0
M  V30 10263 C 967.163 0.434728 6.10554 0
M  V30 10264 N 966.3 -0.357339 7.0119 0
M  V30 10265 H 971.14 1.09172 2.77282 0
M  V30 10266 H 968.677 0.549832 1.36438 0
M  V30 10267 H 970.635 -1.03992 4.04032 0
M  V30 10268 H 969.265 -1.33661 2.93828 0
M  V30 10269 H 968.317 0.967204 3.67899 0
M  V30 10270 H 969.629 1.05483 4.87519 0
M  V30 10271 H 968.783 -1.02594 5.97963 0
M  V30 10272 H 967.522 -1.20147 4.72669 0
M  V30 10273 H 966.527 1.00097 5.40611 0
M  V30 10274 H 967.752 1.16285 6.6907 0
M  V30 10275 H 965.698 -1.07049 6.47207 0
M  V30 10276 H 965.615 0.280277 7.5548 0
M  V30 10277 H 966.883 -0.893814 7.74359 0
M  V30 10278 N 971.112 -1.45937 0.595003 0
M  V30 10279 C 972.358 -2.03184 0.0938125 0
M  V30 10280 C 972.713 -1.45675 -1.25684 0
M  V30 10281 O 972.006 -0.617122 -1.8139 0
M  V30 10282 C 972.2 -3.57396 -0.0173747 0
M  V30 10283 C 972.029 -4.29861 1.32096 0
M  V30 10284 C 970.799 -4.68285 1.89835 0
M  V30 10285 C 972.997 -4.6262 2.24693 0
M  V30 10286 N 970.979 -5.25554 3.17279 0
M  V30 10287 C 972.35 -5.20589 3.36729 0
M  V30 10288 C 974.405 -4.44555 2.24221 0
M  V30 10289 C 973.108 -5.62398 4.48443 0
M  V30 10290 C 975.134 -4.87388 3.34973 0
M  V30 10291 C 974.496 -5.45439 4.4573 0
M  V30 10292 H 970.595 -0.77816 0.0773994 0
M  V30 10293 H 973.179 -1.77926 0.790599 0
M  V30 10294 H 971.35 -3.82341 -0.683354 0
M  V30 10295 H 973.082 -4.01292 -0.524073 0
M  V30 10296 H 969.837 -4.51437 1.43185 0
M  V30 10297 H 970.261 -5.58699 3.8234 0
M  V30 10298 H 974.903 -3.98998 1.39857 0
M  V30 10299 H 972.621 -6.06927 5.3354 0
M  V30 10300 H 976.207 -4.75152 3.3574 0
M  V30 10301 H 975.087 -5.77975 5.30014 0
M  V30 10302 N 972.59 -0.333456 -1.54032 0
M  V30 10303 C 973.836 0.259248 -2.01741 0
M  V30 10304 C 974.191 1.48999 -1.21725 0
M  V30 10305 O 973.484 1.89333 -0.293882 0
M  V30 10306 C 973.678 0.63565 -3.51702 0
M  V30 10307 C 973.507 -0.55707 -4.46236 0
M  V30 10308 C 972.277 -1.05925 -4.94073 0
M  V30 10309 C 974.475 -1.41237 -4.94527 0
M  V30 10310 N 972.457 -2.21535 -5.72534 0
M  V30 10311 C 973.828 -2.41551 -5.71011 0
M  V30 10312 C 975.883 -1.43899 -4.76652 0
M  V30 10313 C 974.586 -3.44342 -6.31523 0
M  V30 10314 C 976.612 -2.45567 -5.38006 0
M  V30 10315 C 975.974 -3.44606 -6.1435 0
M  V30 10316 H 972.073 0.0584431 -0.779813 0
M  V30 10317 H 974.657 -0.470736 -1.88924 0
M  V30 10318 H 972.828 1.33475 -3.64745 0
M  V30 10319 H 974.56 1.21067 -3.86167 0
M  V30 10320 H 971.315 -0.628947 -4.69405 0
M  V30 10321 H 971.739 -2.79878 -6.16439 0
M  V30 10322 H 976.381 -0.686929 -4.17182 0
M  V30 10323 H 974.099 -4.20449 -6.90107 0
M  V30 10324 H 977.685 -2.4844 -5.26088 0
M  V30 10325 H 976.565 -4.21987 -6.60982 0
M  V30 10326 N 974.068 1.57479 -0.061844 0
M  V30 10327 C 975.016 2.13346 0.926629 0
M  V30 10328 C 976.01 1.06787 1.31502 0
M  V30 10329 O 977.216 1.25181 1.29343 0
M  V30 10330 H 973.591 0.682046 0.316729 0
M  V30 10331 H 975.562 2.95279 0.430424 0
M  V30 10332 C 974.311 2.70198 2.18834 0
M  V30 10333 H 973.634 3.51859 1.89829 0
M  V30 10334 H 975.074 3.12897 2.86132 0
M  V30 10335 C 973.533 1.64481 2.9402 0
M  V30 10336 O 974.063 1.0639 3.87355 0
M  V30 10337 N 972.269 1.35749 2.56944 0
M  V30 10338 H 971.816 1.83177 1.81119 0
M  V30 10339 H 971.774 0.652469 3.07555 0
M  V30 10340 N 975.546 -0.211634 1.56173 0
M  V30 10341 C 976.479 -1.28982 1.88252 0
M  V30 10342 C 977.457 -1.4474 0.740889 0
M  V30 10343 O 978.641 -1.60394 0.990249 0
M  V30 10344 C 975.768 -2.65879 2.09824 0
M  V30 10345 C 974.814 -2.67082 3.3252 0
M  V30 10346 S 975.647 -2.2016 4.8815 0
M  V30 10347 C 976.803 -3.58913 5.12769 0
M  V30 10348 H 977.036 -1.01578 2.79409 0
M  V30 10349 H 974.569 -0.414351 1.48736 0
M  V30 10350 H 976.527 -3.44688 2.22935 0
M  V30 10351 H 975.188 -2.90502 1.19447 0
M  V30 10352 H 974.381 -3.67703 3.44689 0
M  V30 10353 H 973.983 -1.96343 3.18317 0
M  V30 10354 H 976.275 -4.54671 5.02276 0
M  V30 10355 H 977.218 -3.51652 6.14611 0
M  V30 10356 H 977.626 -3.5306 4.40465 0
M  V30 10357 N 977.024 -1.50153 -0.478725 0
M  V30 10358 C 978.27 -1.60998 -1.23318 0
M  V30 10359 C 978.603 -0.305868 -1.91776 0
M  V30 10360 O 977.878 0.692158 -1.81767 0
M  V30 10361 C 978.161 -2.78495 -2.28282 0
M  V30 10362 C 978.014 -4.18767 -1.64178 0
M  V30 10363 C 979.333 -2.91569 -3.2966 0
M  V30 10364 H 976.452 -0.585983 -0.446982 0
M  V30 10365 H 979.094 -1.82514 -0.528063 0
M  V30 10366 H 977.244 -2.60281 -2.8842 0
M  V30 10367 H 978.916 -4.48552 -1.07696 0
M  V30 10368 H 977.159 -4.23379 -0.94514 0
M  V30 10369 H 977.83 -4.96894 -2.40417 0
M  V30 10370 H 980.306 -3.08219 -2.79536 0
M  V30 10371 H 979.182 -3.75419 -4.0044 0
M  V30 10372 H 979.443 -2.01859 -3.93326 0
M  V30 10373 N 978.502 0.731368 -1.39602 0
M  V30 10374 C 979.913 1.30981 -1.33045 0
M  V30 10375 C 980.264 1.962 0.00349918 0
M  V30 10376 O 979.389 1.96539 0.905615 0
M  V30 10377 C 979.984 2.3817 -2.40958 0
M  V30 10378 C 978.543 2.91678 -2.3791 0
M  V30 10379 C 977.69 1.65286 -2.22656 0
M  V30 10380 H 980.641 0.528615 -1.49637 0
M  V30 10381 H 980.662 3.18645 -2.07955 0
M  V30 10382 H 980.174 1.90673 -3.38032 0
M  V30 10383 H 978.275 3.43446 -1.44485 0
M  V30 10384 H 978.388 3.44545 -3.32904 0
M  V30 10385 H 976.752 1.89759 -1.69893 0
M  V30 10386 H 977.535 1.19836 -3.21705 0
M  V30 10387 O 980.019 1.35899 0.872571 0
M  V30 10388 H 980.71 1.21196 1.511 0
M  V30 END ATOM
M  V30 BEGIN BOND
M  V30 END BOND
M  V30 END CTAB
M  END
$$$$
