drugbank_target|Q9WXV1 tRNA-dihydrouridine synthase (DB03247)
 OpenBabel12092120273D

  0  0  0     0  0            999 V3000
M  V30 BEGIN CTAB
M  V30 COUNTS 6767 7219 0 0 0
M  V30 BEGIN ATOM
M  V30 1 H -2.588 8.49073 -0.0679273 0
M  V30 2 O -1.492 9.37262 0.0843559 0
M  V30 3 P 0 8.791 0 0
M  V30 4 O 1.422 9.31096 0.027933 0
M  V30 5 O -0.36 7.77869 -1.04071 0
M  V30 6 O -0.323 8.09533 1.41463 0
M  V30 7 C -0.483 9.0349 2.53943 0
M  V30 8 C 0.057 8.35226 3.79016 0
M  V30 9 O -0.999 7.57992 4.15078 0
M  V30 10 C 1.275 7.45087 3.67298 0
M  V30 11 O 2.013 7.27796 4.85194 0
M  V30 12 C 0.606 6.17323 3.12027 0
M  V30 13 O 1.405 5.04231 3.47188 0
M  V30 14 C -0.731 6.19961 3.81809 0
M  V30 15 H -0.699 5.58218 4.73051 0
M  V30 16 H 0.484 6.21726 2.02589 0
M  V30 17 H 1.968 7.86112 2.9231 0
M  V30 18 H 0.274 9.11627 4.55076 0
M  V30 19 H 0.084 9.9573 2.34194 0
M  V30 20 H -1.546 9.2792 2.67832 0
M  V30 21 H 1.093 4.67702 4.28772 0
M  V30 22 P 2.95057 7.39546 4.75277 0
M  V30 23 O 4.37257 7.81777 5.05738 0
M  V30 24 O 2.59057 7.1065 3.32998 0
M  V30 25 O 2.62757 6.04542 5.56673 0
M  V30 26 C 2.46757 6.22772 7.02095 0
M  V30 27 C 3.00757 4.97725 7.70406 0
M  V30 28 O 1.95157 4.13256 7.58987 0
M  V30 29 C 4.22557 4.28231 7.11815 0
M  V30 30 O 4.96357 3.49945 8.01648 0
M  V30 31 C 3.55657 3.5063 5.96244 0
M  V30 32 O 4.35557 2.36482 5.64681 0
M  V30 33 C 2.21957 3.15122 6.56374 0
M  V30 34 H 2.25157 2.13853 6.99751 0
M  V30 35 H 3.43457 4.13501 5.06559 0
M  V30 36 H 4.91857 5.03285 6.70911 0
M  V30 37 H 3.22457 5.20877 8.75697 0
M  V30 38 H 3.03457 7.11046 7.35349 0
M  V30 39 H 1.40457 6.35815 7.26986 0
M  V30 40 H 4.04357 1.61644 6.13565 0
M  V30 41 P 5.90114 3.65191 7.99657 0
M  V30 42 O 7.32314 3.8425 8.48115 0
M  V30 43 O 5.54114 4.17805 6.64342 0
M  V30 44 O 5.57814 2.07613 7.95143 0
M  V30 45 C 5.41814 1.44328 9.27336 0
M  V30 46 C 5.95814 0.0220036 9.17197 0
M  V30 47 O 4.90214 -0.626867 8.61923 0
M  V30 48 C 7.17614 -0.24586 8.30336 0
M  V30 49 O 7.91414 -1.39011 8.63583 0
M  V30 50 C 6.50714 -0.273849 6.91158 0
M  V30 51 O 7.30614 -1.06348 6.02892 0
M  V30 52 C 5.17014 -0.897649 7.22545 0
M  V30 53 H 5.20214 -1.9841 7.04286 0
M  V30 54 H 6.38514 0.739928 6.497 0
M  V30 55 H 7.86914 0.60668 8.36503 0
M  V30 56 H 6.17514 -0.352479 10.1829 0
M  V30 57 H 5.98514 2.00611 10.0304 0
M  V30 58 H 4.35514 1.41843 9.55327 0
M  V30 59 H 6.99414 -1.95734 6.03555 0
M  V30 60 P 8.85171 -1.25109 8.70152 0
M  V30 61 O 10.2737 -1.35274 9.21221 0
M  V30 62 O 8.49171 -0.0769065 7.84762 0
M  V30 63 O 8.52871 -2.55232 7.81161 0
M  V30 64 C 8.36871 -3.79939 8.58154 0
M  V30 65 C 8.90871 -4.94023 7.72785 0
M  V30 66 O 7.85271 -5.18726 6.91205 0
M  V30 67 C 10.1267 -4.69597 6.85231 0
M  V30 68 O 10.8647 -5.83832 6.51337 0
M  V30 69 C 9.45771 -3.96706 5.66633 0
M  V30 70 O 10.2567 -4.15414 4.49689 0
M  V30 71 C 8.12071 -4.66153 5.59313 0
M  V30 72 H 8.15271 -5.47679 4.85214 0
M  V30 73 H 9.33571 -2.89008 5.86566 0
M  V30 74 H 10.8197 -4.0121 7.36511 0
M  V30 75 H 9.12571 -5.80182 8.37584 0
M  V30 76 H 8.93571 -3.73517 9.52265 0
M  V30 77 H 7.30571 -3.97163 8.80359 0
M  V30 78 H 9.94471 -4.90969 4.01921 0
M  V30 79 P 11.8023 -5.75688 6.64379 0
M  V30 80 O 13.2243 -6.11849 7.01846 0
M  V30 81 O 11.4423 -4.30744 6.56026 0
M  V30 82 O 11.4793 -6.37042 5.19165 0
M  V30 83 C 11.3193 -7.83578 5.16515 0
M  V30 84 C 11.8593 -8.33398 3.83019 0
M  V30 85 O 10.8033 -8.10074 3.01034 0
M  V30 86 C 13.0773 -7.65514 3.2257 0
M  V30 87 O 13.8153 -8.4329 2.32297 0
M  V30 88 C 12.4083 -6.40075 2.62207 0
M  V30 89 O 13.2073 -5.92589 1.53712 0
M  V30 90 C 11.0713 -6.9454 2.18503 0
M  V30 91 H 11.1033 -7.23063 1.12091 0
M  V30 92 H 12.2863 -5.6025 3.37201 0
M  V30 93 H 13.7703 -7.35707 4.02681 0
M  V30 94 H 12.0763 -9.40912 3.9095 0
M  V30 95 H 11.8863 -8.29056 5.99158 0
M  V30 96 H 10.2563 -8.10073 5.25882 0
M  V30 97 H 12.8953 -6.30324 0.726794 0
M  V30 98 P 14.7528 -8.4349 2.47671 0
M  V30 99 O 16.1748 -8.94359 2.59696 0
M  V30 100 O 14.3928 -7.1704 3.19006 0
M  V30 101 O 14.4298 -8.16596 0.923387 0
M  V30 102 C 14.2698 -9.38437 0.108857 0
M  V30 103 C 14.8098 -9.08076 -1.28339 0
M  V30 104 O 13.7548 -8.44229 -1.84713 0
M  V30 105 C 16.0278 -8.18386 -1.42505 0
M  V30 106 O 16.7659 -8.3501 -2.60497 0
M  V30 107 C 15.3598 -6.80225 -1.25468 0
M  V30 108 O 16.1578 -5.81526 -1.91035 0
M  V30 109 C 14.0218 -7.02416 -1.9168 0
M  V30 110 N 12.9788 -6.31033 -1.20314 0
M  V30 111 C 13.0408 -6.18781 0.121293 0
M  V30 112 N 11.9958 -5.49762 0.588272 0
M  V30 113 C 11.2618 -5.22015 -0.488988 0
M  V30 114 C 9.95585 -4.61966 -0.596448 0
M  V30 115 O 9.22285 -4.19162 0.309059 0
M  V30 116 N 9.52585 -4.53773 -1.878 0
M  V30 117 C 10.2748 -4.99623 -2.99082 0
M  V30 118 N 9.67785 -4.78912 -4.21227 0
M  V30 119 N 11.4278 -5.59957 -2.91093 0
M  V30 120 C 11.8848 -5.70225 -1.64218 0
M  V30 121 H 14.0538 -6.6888 -2.96621 0
M  V30 122 H 15.2368 -6.53517 -0.192194 0
M  V30 123 H 16.7218 -8.36563 -0.598329 0
M  V30 124 H 15.0268 -10.0291 -1.79807 0
M  V30 125 H 14.8368 -10.2138 0.558219 0
M  V30 126 H 13.2058 -9.6579 0.0444202 0
M  V30 127 H 8.62985 -4.12883 -2.05283 0
M  V30 128 H 13.8368 -6.59596 0.745856 0
M  V30 129 H 8.76685 -4.31425 -4.2628 0
M  V30 130 H 10.1428 -5.11219 -5.07148 0
M  V30 131 H 15.8468 -5.69466 -2.79593 0
M  V30 132 P 17.7034 -8.4349 -2.47671 0
M  V30 133 O 19.1254 -8.92593 -2.65 0
M  V30 134 O 17.3434 -7.7568 -1.19296 0
M  V30 135 O 17.3804 -7.36886 -3.63805 0
M  V30 136 C 17.2204 -7.95349 -4.982 0
M  V30 137 C 17.7604 -6.94612 -5.98974 0
M  V30 138 O 16.7044 -6.10347 -6.11815 0
M  V30 139 C 18.9784 -6.11426 -5.62335 0
M  V30 140 O 19.7164 -5.6162 -6.70584 0
M  V30 141 C 18.3094 -5.04409 -4.73308 0
M  V30 142 O 19.1084 -3.85992 -4.75183 0
M  V30 143 C 16.9724 -4.8728 -5.41006 0
M  V30 144 H 17.0044 -4.02333 -6.11157 0
M  V30 145 H 18.1874 -5.39466 -3.69543 0
M  V30 146 H 19.6714 -6.71916 -5.01943 0
M  V30 147 H 17.9774 -7.4649 -6.93477 0
M  V30 148 H 17.7874 -8.89416 -5.05237 0
M  V30 149 H 16.1574 -8.14876 -5.18409 0
M  V30 150 H 18.7964 -3.27957 -5.4317 0
M  V30 151 P 20.654 -5.75688 -6.64379 0
M  V30 152 O 22.075 -6.07692 -7.0558 0
M  V30 153 O 20.294 -5.88047 -5.19722 0
M  V30 154 O 20.331 -4.2322 -7.04443 0
M  V30 155 C 20.17 -3.99785 -8.49201 0
M  V30 156 C 20.711 -2.60516 -8.79425 0
M  V30 157 O 19.656 -1.82663 -8.44573 0
M  V30 158 C 21.929 -2.10343 -8.03628 0
M  V30 159 O 22.667 -1.09919 -8.67766 0
M  V30 160 C 21.261 -1.68446 -6.70876 0
M  V30 161 O 22.059 -0.684109 -6.08265 0
M  V30 162 C 19.923 -1.17436 -7.18567 0
M  V30 163 N 18.88 -1.52699 -6.23988 0
M  V30 164 C 19.049 -2.578 -5.40574 0
M  V30 165 N 18.022 -2.78966 -4.61193 0
M  V30 166 C 17.137 -1.78725 -4.95769 0
M  V30 167 C 15.87 -1.45727 -4.44207 0
M  V30 168 N 15.271 -2.13994 -3.43613 0
M  V30 169 N 15.305 -0.374977 -5.05812 0
M  V30 170 C 15.907 0.345585 -6.05615 0
M  V30 171 N 17.084 0.0787651 -6.56253 0
M  V30 172 C 17.659 -1.00499 -5.96189 0
M  V30 173 H 19.955 -0.0804622 -7.31556 0
M  V30 174 H 21.138 -2.53396 -6.02698 0
M  V30 175 H 22.621 -2.93881 -7.85526 0
M  V30 176 H 20.927 -2.52078 -9.87225 0
M  V30 177 H 20.737 -4.75072 -9.05887 0
M  V30 178 H 19.107 -4.05244 -8.76668 0
M  V30 179 H 15.371 1.20098 -6.4532 0
M  V30 180 H 19.949 -3.18977 -5.3945 0
M  V30 181 H 14.341 -1.84983 -3.10004 0
M  V30 182 H 15.745 -2.9465 -3.00843 0
M  V30 183 H 21.747 0.177619 -6.34151 0
M  V30 184 P 23.6046 -1.25109 -8.70152 0
M  V30 185 O 25.0266 -1.29744 -9.22016 0
M  V30 186 O 23.2446 -2.13714 -7.55141 0
M  V30 187 O 23.2816 0.248149 -8.21425 0
M  V30 188 C 23.1216 1.22779 -9.30434 0
M  V30 189 C 23.6616 2.56293 -8.80664 0
M  V30 190 O 22.6056 3.02979 -8.09349 0
M  V30 191 C 24.8796 2.57523 -7.89775 0
M  V30 192 O 25.6176 3.7668 -7.89438 0
M  V30 193 C 24.2106 2.20997 -6.55446 0
M  V30 194 O 25.0096 2.71895 -5.48509 0
M  V30 195 C 22.8736 2.89693 -6.67988 0
M  V30 196 H 22.9056 3.88793 -6.19859 0
M  V30 197 H 24.0886 1.12046 -6.44229 0
M  V30 198 H 25.5726 1.7746 -8.19711 0
M  V30 199 H 23.8786 3.20706 -9.67112 0
M  V30 200 H 23.6886 0.901032 -10.1892 0
M  V30 201 H 22.0586 1.33049 -9.56592 0
M  V30 202 H 24.6976 3.57847 -5.23962 0
M  V30 203 P 26.5551 3.65191 -7.99657 0
M  V30 204 O 27.9771 3.89332 -8.45794 0
M  V30 205 O 26.1951 2.28472 -7.50807 0
M  V30 206 O 26.2321 4.64972 -6.77611 0
M  V30 207 C 26.0721 6.06319 -7.16352 0
M  V30 208 C 26.6121 6.91731 -6.02299 0
M  V30 209 O 25.5561 6.92449 -5.17064 0
M  V30 210 C 27.8301 6.43627 -5.25174 0
M  V30 211 O 28.5681 7.43686 -4.60469 0
M  V30 212 C 27.1611 5.40275 -4.31916 0
M  V30 213 O 27.9601 5.25279 -3.14438 0
M  V30 214 C 25.8241 6.04847 -4.05327 0
M  V30 215 H 25.8561 6.62195 -3.11261 0
M  V30 216 H 27.0391 4.42556 -4.81383 0
M  V30 217 H 28.5231 5.92458 -5.93643 0
M  V30 218 H 26.8291 7.92655 -6.402 0
M  V30 219 H 26.6391 6.26671 -8.0846 0
M  V30 220 H 25.0091 6.29101 -7.32804 0
M  V30 221 H 27.6481 5.84315 -2.47318 0
M  V30 222 P 29.5057 7.39546 -4.75277 0
M  V30 223 O 30.9267 7.84882 -5.01092 0
M  V30 224 O 29.1457 5.9812 -5.08098 0
M  V30 225 O 29.1827 7.57503 -3.1866 0
M  V30 226 C 29.0217 8.97452 -2.74862 0
M  V30 227 C 29.5627 9.07548 -1.32709 0
M  V30 228 O 28.5077 8.61972 -0.606089 0
M  V30 229 C 30.7807 8.25383 -0.938334 0
M  V30 230 O 31.5187 8.74577 0.146954 0
M  V30 231 C 30.1127 6.8802 -0.712559 0
M  V30 232 O 30.9107 6.1181 0.188505 0
M  V30 233 C 28.7747 7.27966 -0.139777 0
M  V30 234 N 27.7317 6.39368 -0.623421 0
M  V30 235 C 27.9007 5.71761 -1.78245 0
M  V30 236 N 26.8737 4.962 -2.10491 0
M  V30 237 C 25.9887 5.16158 -1.0635 0
M  V30 238 C 24.7217 4.60425 -0.810266 0
M  V30 239 N 24.1227 3.7057 -1.62914 0
M  V30 240 N 24.1567 5.06 0.348685 0
M  V30 241 C 24.7587 5.94532 1.20395 0
M  V30 242 N 25.9357 6.48452 1.01191 0
M  V30 243 C 26.5107 6.04423 -0.146291 0
M  V30 244 H 28.8067 7.25255 0.961469 0
M  V30 245 H 29.9897 6.32625 -1.65044 0
M  V30 246 H 31.4727 8.19355 -1.79097 0
M  V30 247 H 29.7787 10.1305 -1.09016 0
M  V30 248 H 29.5887 9.64276 -3.41316 0
M  V30 249 H 27.9587 9.25417 -2.76357 0
M  V30 250 H 24.2227 6.21659 2.10714 0
M  V30 251 H 28.8007 5.79354 -2.38959 0
M  V30 252 H 23.1927 3.33174 -1.38982 0
M  V30 253 H 24.5967 3.39714 -2.48836 0
M  V30 254 H 30.5987 6.25169 1.0783 0
M  V30 255 P 32.4563 8.791 -9.96115e-15 0
M  V30 256 O 33.8783 9.31296 0.027939 0
M  V30 257 O 32.0963 7.77869 -1.04071 0
M  V30 258 O 32.1333 8.09533 1.41463 0
M  V30 259 C 31.9733 9.0349 2.53943 0
M  V30 260 C 32.5133 8.35135 3.78975 0
M  V30 261 O 31.4583 7.57992 4.15078 0
M  V30 262 C 33.7313 7.45087 3.67298 0
M  V30 263 O 34.4693 7.27796 4.85194 0
M  V30 264 C 33.0633 6.17323 3.12027 0
M  V30 265 O 33.8613 5.04149 3.47132 0
M  V30 266 C 31.7253 6.19961 3.81809 0
M  V30 267 N 30.6823 5.71575 2.93223 0
M  V30 268 C 30.7443 5.97133 1.62693 0
M  V30 269 N 29.6993 5.44066 0.984414 0
M  V30 270 C 28.9653 4.87093 1.93987 0
M  V30 271 C 27.6593 4.26449 1.8738 0
M  V30 272 O 26.9263 4.1089 0.884377 0
M  V30 273 N 27.2293 3.82483 3.08036 0
M  V30 274 C 27.9783 3.95124 4.27727 0
M  V30 275 N 27.3813 3.4084 5.39089 0
M  V30 276 N 29.1313 4.55264 4.3706 0
M  V30 277 C 29.5883 5.00861 3.18217 0
M  V30 278 H 31.7573 5.58218 4.73051 0
M  V30 279 H 32.9403 6.21631 2.02558 0
M  V30 280 H 34.4253 7.85819 2.93096 0
M  V30 281 H 32.7303 9.11627 4.55076 0
M  V30 282 H 32.5403 9.9573 2.34194 0
M  V30 283 H 30.9093 9.2792 2.67832 0
M  V30 284 H 26.3333 3.38323 3.1329 0
M  V30 285 H 31.5403 6.53891 1.14265 0
M  V30 286 H 26.4703 2.93852 5.30559 0
M  V30 287 H 27.8463 3.47631 6.30632 0
M  V30 288 H 33.5503 4.67628 4.28704 0
M  V30 289 P 35.4068 7.39546 4.75277 0
M  V30 290 O 36.8078 7.89013 5.04841 0
M  V30 291 O 35.0288 7.16603 3.32298 0
M  V30 292 O 35.0838 6.04468 5.56605 0
M  V30 293 C 34.9238 6.22772 7.02095 0
M  V30 294 C 35.4638 4.97671 7.70322 0
M  V30 295 O 34.4078 4.13208 7.58899 0
M  V30 296 C 36.6808 4.28231 7.11815 0
M  V30 297 O 37.4198 3.49945 8.01648 0
M  V30 298 C 36.0138 3.5063 5.96244 0
M  V30 299 O 36.8118 2.36443 5.64589 0
M  V30 300 C 34.6758 3.15122 6.56374 0
M  V30 301 N 33.6328 3.22311 5.55692 0
M  V30 302 C 32.5978 2.32244 5.62437 0
M  V30 303 O 32.6368 1.43107 6.50341 0
M  V30 304 N 31.5858 2.40811 4.73368 0
M  V30 305 C 31.6338 3.344 3.77753 0
M  V30 306 C 32.7298 4.24712 3.66679 0
M  V30 307 C 33.6958 4.15625 4.58307 0
M  V30 308 H 34.7078 2.13823 6.99656 0
M  V30 309 H 35.8908 4.12931 5.06895 0
M  V30 310 H 37.3748 5.02674 6.71494 0
M  V30 311 H 35.6808 5.20001 8.76217 0
M  V30 312 H 35.4898 7.11046 7.35349 0
M  V30 313 H 33.8598 6.35749 7.26911 0
M  V30 314 H 32.7778 4.9828 2.86753 0
M  V30 315 H 34.5418 4.84464 4.54228 0
M  V30 316 H 36.5958 1.65592 6.23485 0
M  V30 317 P 38.3574 3.65191 7.99657 0
M  V30 318 O 39.7794 3.8425 8.48115 0
M  V30 319 O 37.9974 4.17805 6.64342 0
M  V30 320 O 38.0344 2.07613 7.95143 0
M  V30 321 C 37.8744 1.44328 9.27336 0
M  V30 322 C 38.4144 0.0220036 9.17197 0
M  V30 323 O 37.3584 -0.626867 8.61923 0
M  V30 324 C 39.6324 -0.24586 8.30336 0
M  V30 325 O 40.3704 -1.39011 8.63583 0
M  V30 326 C 38.9634 -0.273849 6.91158 0
M  V30 327 O 39.7624 -1.06348 6.02892 0
M  V30 328 C 37.6264 -0.897649 7.22545 0
M  V30 329 H 37.6584 -1.9841 7.04286 0
M  V30 330 H 38.8414 0.739928 6.497 0
M  V30 331 H 40.3254 0.60668 8.36503 0
M  V30 332 H 38.6314 -0.352479 10.1829 0
M  V30 333 H 38.4414 2.00611 10.0304 0
M  V30 334 H 36.8114 1.41843 9.55327 0
M  V30 335 H 39.4504 -1.95734 6.03555 0
M  V30 336 P 41.308 -1.25109 8.70152 0
M  V30 337 O 42.73 -1.35274 9.21221 0
M  V30 338 O 40.948 -0.0769065 7.84762 0
M  V30 339 O 40.985 -2.55232 7.81161 0
M  V30 340 C 40.825 -3.79939 8.58154 0
M  V30 341 C 41.365 -4.94023 7.72785 0
M  V30 342 O 40.309 -5.18726 6.91205 0
M  V30 343 C 42.583 -4.69597 6.85231 0
M  V30 344 O 43.321 -5.83832 6.51337 0
M  V30 345 C 41.914 -3.96706 5.66633 0
M  V30 346 O 42.713 -4.15414 4.49689 0
M  V30 347 C 40.577 -4.66153 5.59313 0
M  V30 348 H 40.609 -5.47679 4.85214 0
M  V30 349 H 41.792 -2.89008 5.86566 0
M  V30 350 H 43.276 -4.0121 7.36511 0
M  V30 351 H 41.582 -5.80182 8.37584 0
M  V30 352 H 41.392 -3.73517 9.52265 0
M  V30 353 H 39.762 -3.97163 8.80359 0
M  V30 354 H 42.401 -4.90969 4.01921 0
M  V30 355 P 44.2585 -5.75688 6.64379 0
M  V30 356 O 45.6805 -6.11849 7.01846 0
M  V30 357 O 43.8985 -4.30744 6.56026 0
M  V30 358 O 43.9355 -6.37042 5.19165 0
M  V30 359 C 43.7755 -7.83578 5.16515 0
M  V30 360 C 44.3155 -8.33398 3.83019 0
M  V30 361 O 43.2595 -8.10074 3.01034 0
M  V30 362 C 45.5335 -7.65514 3.2257 0
M  V30 363 O 46.2715 -8.4329 2.32297 0
M  V30 364 C 44.8645 -6.40075 2.62207 0
M  V30 365 O 45.6635 -5.92589 1.53712 0
M  V30 366 C 43.5275 -6.9454 2.18503 0
M  V30 367 H 43.5595 -7.23063 1.12091 0
M  V30 368 H 44.7425 -5.6025 3.37201 0
M  V30 369 H 46.2265 -7.35707 4.02681 0
M  V30 370 H 44.5325 -9.40912 3.9095 0
M  V30 371 H 44.3425 -8.29056 5.99158 0
M  V30 372 H 42.7125 -8.10073 5.25882 0
M  V30 373 H 45.3515 -6.30324 0.726794 0
M  V30 374 P 47.2091 -8.4349 2.47671 0
M  V30 375 O 48.6301 -8.94263 2.59668 0
M  V30 376 O 46.8491 -7.1704 3.19006 0
M  V30 377 O 46.8861 -8.16596 0.923387 0
M  V30 378 C 46.7251 -9.38537 0.108869 0
M  V30 379 C 47.2661 -9.08175 -1.28353 0
M  V30 380 O 46.2111 -8.44131 -1.84692 0
M  V30 381 C 48.4841 -8.18386 -1.42505 0
M  V30 382 O 49.2221 -8.3501 -2.60497 0
M  V30 383 C 47.8161 -6.80225 -1.25468 0
M  V30 384 O 48.6141 -5.81716 -1.90454 0
M  V30 385 C 46.4781 -7.02416 -1.9168 0
M  V30 386 N 45.4351 -6.31033 -1.20314 0
M  V30 387 C 45.6041 -5.98817 0.0994088 0
M  V30 388 N 44.5771 -5.35403 0.621694 0
M  V30 389 C 43.6921 -5.25212 -0.43376 0
M  V30 390 C 42.4251 -4.64602 -0.519722 0
M  V30 391 N 41.8261 -4.01457 0.519136 0
M  V30 392 N 41.8601 -4.7568 -1.76013 0
M  V30 393 C 42.4621 -5.3653 -2.83017 0
M  V30 394 N 43.6391 -5.93676 -2.79782 0
M  V30 395 C 44.2141 -5.84061 -1.56249 0
M  V30 396 H 46.5101 -6.68789 -2.9658 0
M  V30 397 H 47.6931 -6.53498 -0.198729 0
M  V30 398 H 49.1761 -8.36622 -0.589963 0
M  V30 399 H 47.4821 -10.0273 -1.8081 0
M  V30 400 H 47.2921 -10.2138 0.558219 0
M  V30 401 H 45.6621 -9.6579 0.0444202 0
M  V30 402 H 41.9261 -5.37113 -3.77321 0
M  V30 403 H 46.5041 -6.23209 0.660562 0
M  V30 404 H 40.8961 -3.58834 0.394862 0
M  V30 405 H 42.3001 -3.96059 1.43048 0
M  V30 406 H 48.3021 -5.69466 -2.79593 0
M  V30 407 P 50.1597 -8.4349 -2.47671 0
M  V30 408 O 51.5817 -8.92593 -2.65 0
M  V30 409 O 49.7997 -7.7568 -1.19296 0
M  V30 410 O 49.8367 -7.36886 -3.63805 0
M  V30 411 C 49.6767 -7.95349 -4.982 0
M  V30 412 C 50.2167 -6.94612 -5.98974 0
M  V30 413 O 49.1607 -6.10347 -6.11815 0
M  V30 414 C 51.4347 -6.11426 -5.62335 0
M  V30 415 O 52.1727 -5.6162 -6.70584 0
M  V30 416 C 50.7657 -5.04409 -4.73308 0
M  V30 417 O 51.5647 -3.85992 -4.75183 0
M  V30 418 C 49.4287 -4.8728 -5.41006 0
M  V30 419 H 49.4607 -4.02333 -6.11157 0
M  V30 420 H 50.6437 -5.39466 -3.69543 0
M  V30 421 H 52.1277 -6.71916 -5.01943 0
M  V30 422 H 50.4337 -7.4649 -6.93477 0
M  V30 423 H 50.2437 -8.89416 -5.05237 0
M  V30 424 H 48.6137 -8.14876 -5.18409 0
M  V30 425 H 51.2527 -3.27957 -5.4317 0
M  V30 426 P 53.1103 -5.75688 -6.64379 0
M  V30 427 O 54.5313 -6.07692 -7.0558 0
M  V30 428 O 52.7503 -5.88047 -5.19722 0
M  V30 429 O 52.7873 -4.2322 -7.04443 0
M  V30 430 C 52.6263 -3.99785 -8.49201 0
M  V30 431 C 53.1673 -2.60516 -8.79425 0
M  V30 432 O 52.1123 -1.82663 -8.44573 0
M  V30 433 C 54.3853 -2.10343 -8.03628 0
M  V30 434 O 55.1233 -1.09919 -8.67766 0
M  V30 435 C 53.7173 -1.68446 -6.70876 0
M  V30 436 O 54.5153 -0.684109 -6.08265 0
M  V30 437 C 52.3793 -1.17436 -7.18567 0
M  V30 438 N 51.3363 -1.52699 -6.23988 0
M  V30 439 C 51.5053 -2.578 -5.40574 0
M  V30 440 N 50.4783 -2.78966 -4.61193 0
M  V30 441 C 49.5933 -1.78725 -4.95769 0
M  V30 442 C 48.3263 -1.45727 -4.44207 0
M  V30 443 N 47.7613 -0.374977 -5.05812 0
M  V30 444 C 48.3633 0.345585 -6.05615 0
M  V30 445 N 49.5403 0.0787651 -6.56253 0
M  V30 446 C 50.1153 -1.00499 -5.96189 0
M  V30 447 H 53.5943 -2.53396 -6.02698 0
M  V30 448 H 55.0773 -2.93881 -7.85526 0
M  V30 449 H 53.3833 -2.52078 -9.87225 0
M  V30 450 H 53.1933 -4.75072 -9.05887 0
M  V30 451 H 51.5633 -4.05244 -8.76668 0
M  V30 452 H 52.4053 -3.18977 -5.3945 0
M  V30 453 H 54.2033 0.177619 -6.34151 0
M  V30 454 P 56.0608 -1.25109 -8.70152 0
M  V30 455 O 57.4828 -1.29744 -9.22016 0
M  V30 456 O 55.7008 -2.13714 -7.55141 0
M  V30 457 O 55.7378 0.248149 -8.21425 0
M  V30 458 C 55.5778 1.22779 -9.30434 0
M  V30 459 C 56.1178 2.56293 -8.80664 0
M  V30 460 O 55.0618 3.02979 -8.09349 0
M  V30 461 C 57.3358 2.57523 -7.89775 0
M  V30 462 O 58.0738 3.7668 -7.89438 0
M  V30 463 C 56.6668 2.20997 -6.55446 0
M  V30 464 O 57.4658 2.71895 -5.48509 0
M  V30 465 C 55.3298 2.89693 -6.67988 0
M  V30 466 H 55.3618 3.88793 -6.19859 0
M  V30 467 H 56.5448 1.12046 -6.44229 0
M  V30 468 H 58.0288 1.7746 -8.19711 0
M  V30 469 H 56.3348 3.20706 -9.67112 0
M  V30 470 H 56.1448 0.901032 -10.1892 0
M  V30 471 H 54.5148 1.33049 -9.56592 0
M  V30 472 H 57.1538 3.57847 -5.23962 0
M  V30 473 P 59.0114 3.65191 -7.99657 0
M  V30 474 O 60.4334 3.89332 -8.45794 0
M  V30 475 O 58.6514 2.28472 -7.50807 0
M  V30 476 O 58.6884 4.64972 -6.77611 0
M  V30 477 C 58.5284 6.06319 -7.16352 0
M  V30 478 C 59.0684 6.91731 -6.02299 0
M  V30 479 O 58.0124 6.92449 -5.17064 0
M  V30 480 C 60.2864 6.43627 -5.25174 0
M  V30 481 O 61.0244 7.43686 -4.60469 0
M  V30 482 C 59.6174 5.40275 -4.31916 0
M  V30 483 O 60.4164 5.25279 -3.14438 0
M  V30 484 C 58.2804 6.04847 -4.05327 0
M  V30 485 H 58.3124 6.62195 -3.11261 0
M  V30 486 H 59.4954 4.42556 -4.81383 0
M  V30 487 H 60.9794 5.92458 -5.93643 0
M  V30 488 H 59.2854 7.92655 -6.402 0
M  V30 489 H 59.0954 6.26671 -8.0846 0
M  V30 490 H 57.4654 6.29101 -7.32804 0
M  V30 491 H 60.1044 5.84315 -2.47318 0
M  V30 492 P 61.962 7.39546 -4.75277 0
M  V30 493 O 63.383 7.84882 -5.01092 0
M  V30 494 O 61.602 5.9812 -5.08098 0
M  V30 495 O 61.639 7.57503 -3.1866 0
M  V30 496 C 61.478 8.97452 -2.74862 0
M  V30 497 C 62.019 9.07548 -1.32709 0
M  V30 498 O 60.964 8.61972 -0.606089 0
M  V30 499 C 63.237 8.25383 -0.938334 0
M  V30 500 O 63.975 8.74577 0.146954 0
M  V30 501 C 62.569 6.8802 -0.712559 0
M  V30 502 O 63.367 6.1181 0.188505 0
M  V30 503 C 61.231 7.27966 -0.139777 0
M  V30 504 N 60.188 6.39368 -0.623421 0
M  V30 505 C 60.357 5.71761 -1.78245 0
M  V30 506 N 59.33 4.962 -2.10491 0
M  V30 507 C 58.445 5.16158 -1.0635 0
M  V30 508 C 57.178 4.60425 -0.810266 0
M  V30 509 N 56.579 3.7057 -1.62914 0
M  V30 510 N 56.613 5.06 0.348685 0
M  V30 511 C 57.215 5.94532 1.20395 0
M  V30 512 N 58.392 6.48452 1.01191 0
M  V30 513 C 58.967 6.04423 -0.146291 0
M  V30 514 H 61.263 7.25255 0.961469 0
M  V30 515 H 62.446 6.32625 -1.65044 0
M  V30 516 H 63.929 8.19355 -1.79097 0
M  V30 517 H 62.235 10.1305 -1.09016 0
M  V30 518 H 62.045 9.64276 -3.41316 0
M  V30 519 H 60.415 9.25417 -2.76357 0
M  V30 520 H 56.679 6.21659 2.10714 0
M  V30 521 H 61.257 5.79354 -2.38959 0
M  V30 522 H 55.649 3.33174 -1.38982 0
M  V30 523 H 57.053 3.39714 -2.48836 0
M  V30 524 H 63.055 6.25169 1.0783 0
M  V30 525 P 64.9125 8.791 -3.55383e-14 0
M  V30 526 O 66.3345 9.31096 0.027933 0
M  V30 527 O 64.5525 7.77869 -1.04071 0
M  V30 528 O 64.5895 8.09533 1.41463 0
M  V30 529 C 64.4295 9.0349 2.53943 0
M  V30 530 C 64.9695 8.35226 3.79016 0
M  V30 531 O 63.9135 7.57992 4.15078 0
M  V30 532 C 66.1875 7.45087 3.67298 0
M  V30 533 O 66.9255 7.27796 4.85194 0
M  V30 534 C 65.5185 6.17323 3.12027 0
M  V30 535 O 66.3175 5.04231 3.47188 0
M  V30 536 C 64.1815 6.19961 3.81809 0
M  V30 537 H 64.2135 5.58218 4.73051 0
M  V30 538 H 65.3965 6.21726 2.02589 0
M  V30 539 H 66.8805 7.86112 2.9231 0
M  V30 540 H 65.1865 9.11627 4.55076 0
M  V30 541 H 64.9965 9.9573 2.34194 0
M  V30 542 H 63.3665 9.2792 2.67832 0
M  V30 543 H 66.0055 4.67702 4.28772 0
M  V30 544 P 67.8631 7.39546 4.75277 0
M  V30 545 O 69.2851 7.81777 5.05738 0
M  V30 546 O 67.5031 7.1065 3.32998 0
M  V30 547 O 67.5401 6.04542 5.56673 0
M  V30 548 C 67.3801 6.22772 7.02095 0
M  V30 549 C 67.9201 4.97725 7.70406 0
M  V30 550 O 66.8641 4.13256 7.58987 0
M  V30 551 C 69.1381 4.28231 7.11815 0
M  V30 552 O 69.8761 3.49945 8.01648 0
M  V30 553 C 68.4691 3.5063 5.96244 0
M  V30 554 O 69.2681 2.36482 5.64681 0
M  V30 555 C 67.1321 3.15122 6.56374 0
M  V30 556 H 67.1641 2.13853 6.99751 0
M  V30 557 H 68.3471 4.13501 5.06559 0
M  V30 558 H 69.8311 5.03285 6.70911 0
M  V30 559 H 68.1371 5.20877 8.75697 0
M  V30 560 H 67.9471 7.11046 7.35349 0
M  V30 561 H 66.3171 6.35815 7.26986 0
M  V30 562 H 68.9561 1.61644 6.13565 0
M  V30 563 P 70.8137 3.65191 7.99657 0
M  V30 564 O 72.2357 3.8425 8.48115 0
M  V30 565 O 70.4537 4.17805 6.64342 0
M  V30 566 O 70.4907 2.07613 7.95143 0
M  V30 567 C 70.3307 1.44328 9.27336 0
M  V30 568 C 70.8707 0.0220036 9.17197 0
M  V30 569 O 69.8147 -0.626867 8.61923 0
M  V30 570 C 72.0887 -0.24586 8.30336 0
M  V30 571 O 72.8267 -1.39011 8.63583 0
M  V30 572 C 71.4197 -0.273849 6.91158 0
M  V30 573 O 72.2187 -1.06348 6.02892 0
M  V30 574 C 70.0827 -0.897649 7.22545 0
M  V30 575 H 70.1147 -1.9841 7.04286 0
M  V30 576 H 71.2977 0.739928 6.497 0
M  V30 577 H 72.7817 0.60668 8.36503 0
M  V30 578 H 71.0877 -0.352479 10.1829 0
M  V30 579 H 70.8977 2.00611 10.0304 0
M  V30 580 H 69.2677 1.41843 9.55327 0
M  V30 581 H 71.9067 -1.95734 6.03555 0
M  V30 582 P 73.7642 -1.25109 8.70152 0
M  V30 583 O 75.1862 -1.35303 9.21419 0
M  V30 584 O 73.4042 -0.0769065 7.84762 0
M  V30 585 O 73.4412 -2.55232 7.81161 0
M  V30 586 C 73.2812 -3.79939 8.58154 0
M  V30 587 C 73.8212 -4.93969 7.72701 0
M  V30 588 O 72.7662 -5.18726 6.91205 0
M  V30 589 C 75.0392 -4.69597 6.85231 0
M  V30 590 O 75.7772 -5.83832 6.51337 0
M  V30 591 C 74.3712 -3.96706 5.66633 0
M  V30 592 O 75.1692 -4.15346 4.49615 0
M  V30 593 C 73.0332 -4.66153 5.59313 0
M  V30 594 N 71.9902 -3.71582 5.24027 0
M  V30 595 C 72.0522 -2.46018 5.67902 0
M  V30 596 N 71.0072 -1.74868 5.24518 0
M  V30 597 C 70.2732 -2.61333 4.54528 0
M  V30 598 C 68.9672 -2.46162 3.95441 0
M  V30 599 O 68.2342 -1.46013 3.94122 0
M  V30 600 N 68.5372 -3.59334 3.34752 0
M  V30 601 C 69.2862 -4.79605 3.3023 0
M  V30 602 N 68.6892 -5.82109 2.6065 0
M  V30 603 N 70.4392 -4.97402 3.8843 0
M  V30 604 C 70.8962 -3.86258 4.50476 0
M  V30 605 H 73.0652 -5.47679 4.85214 0
M  V30 606 H 74.2482 -2.88964 5.86476 0
M  V30 607 H 75.7332 -4.01947 7.36109 0
M  V30 608 H 74.0382 -5.80182 8.37584 0
M  V30 609 H 73.8482 -3.73517 9.52265 0
M  V30 610 H 72.2172 -3.97163 8.80359 0
M  V30 611 H 67.6412 -3.5825 2.90294 0
M  V30 612 H 72.8482 -2.06161 6.30974 0
M  V30 613 H 67.7782 -5.66979 2.15354 0
M  V30 614 H 69.1542 -6.73686 2.54344 0
M  V30 615 H 74.8582 -4.90891 4.01857 0
M  V30 616 P 76.7148 -5.75688 6.64379 0
M  V30 617 O 78.1358 -6.11915 7.01921 0
M  V30 618 O 76.3548 -4.30744 6.56026 0
M  V30 619 O 76.3918 -6.37042 5.19165 0
M  V30 620 C 76.2308 -7.83662 5.1657 0
M  V30 621 C 76.7718 -8.33398 3.83019 0
M  V30 622 O 75.7168 -8.0998 3.00999 0
M  V30 623 C 77.9898 -7.65514 3.2257 0
M  V30 624 O 78.7278 -8.4329 2.32297 0
M  V30 625 C 77.3218 -6.40075 2.62207 0
M  V30 626 O 78.1198 -5.92338 1.5428 0
M  V30 627 C 75.9838 -6.9454 2.18503 0
M  V30 628 N 74.9408 -5.95905 2.39948 0
M  V30 629 C 75.1098 -4.98383 3.32108 0
M  V30 630 N 74.0828 -4.16798 3.41761 0
M  V30 631 C 73.1978 -4.65287 2.47461 0
M  V30 632 C 71.9308 -4.18946 2.07461 0
M  V30 633 N 71.3318 -3.09661 2.60717 0
M  V30 634 N 71.3658 -4.95327 1.09101 0
M  V30 635 C 71.9678 -6.04369 0.519812 0
M  V30 636 N 73.1448 -6.50694 0.855982 0
M  V30 637 C 73.7198 -5.75818 1.84322 0
M  V30 638 H 76.0158 -7.22964 1.12076 0
M  V30 639 H 77.1988 -5.60502 3.36589 0
M  V30 640 H 78.6818 -7.35707 4.02681 0
M  V30 641 H 76.9878 -9.41302 3.90009 0
M  V30 642 H 76.7978 -8.29056 5.99158 0
M  V30 643 H 75.1678 -8.10073 5.25882 0
M  V30 644 H 71.4318 -6.55843 -0.270373 0
M  V30 645 H 76.0098 -4.88564 3.92502 0
M  V30 646 H 70.4018 -2.80523 2.27218 0
M  V30 647 H 71.8058 -2.55848 3.34465 0
M  V30 648 H 77.8078 -6.30224 0.72668 0
M  V30 649 P 79.6654 -8.4349 2.47671 0
M  V30 650 O 81.0874 -8.94167 2.5964 0
M  V30 651 O 79.3054 -7.1704 3.19006 0
M  V30 652 O 79.3424 -8.16596 0.923387 0
M  V30 653 C 79.1824 -9.38437 0.108857 0
M  V30 654 C 79.7224 -9.08175 -1.28353 0
M  V30 655 O 78.6664 -8.44229 -1.84713 0
M  V30 656 C 80.9404 -8.18386 -1.42505 0
M  V30 657 O 81.6784 -8.3501 -2.60497 0
M  V30 658 C 80.2714 -6.80225 -1.25468 0
M  V30 659 O 81.0704 -5.81621 -1.91066 0
M  V30 660 C 78.9344 -7.02416 -1.9168 0
M  V30 661 H 78.9664 -6.6888 -2.96621 0
M  V30 662 H 80.1494 -6.53617 -0.192223 0
M  V30 663 H 81.6334 -8.36622 -0.589963 0
M  V30 664 H 79.9394 -10.0291 -1.79807 0
M  V30 665 H 79.7494 -10.2138 0.558219 0
M  V30 666 H 78.1194 -9.6579 0.0444202 0
M  V30 667 H 80.7584 -5.69556 -2.79637 0
M  V30 668 P 82.616 -8.4349 -2.47671 0
M  V30 669 O 84.038 -8.92593 -2.65 0
M  V30 670 O 82.256 -7.7568 -1.19296 0
M  V30 671 O 82.293 -7.36886 -3.63805 0
M  V30 672 C 82.133 -7.95349 -4.982 0
M  V30 673 C 82.673 -6.94612 -5.98974 0
M  V30 674 O 81.617 -6.10347 -6.11815 0
M  V30 675 C 83.891 -6.11426 -5.62335 0
M  V30 676 O 84.629 -5.6162 -6.70584 0
M  V30 677 C 83.222 -5.04409 -4.73308 0
M  V30 678 O 84.021 -3.85992 -4.75183 0
M  V30 679 C 81.885 -4.8728 -5.41006 0
M  V30 680 H 81.917 -4.02333 -6.11157 0
M  V30 681 H 83.1 -5.39466 -3.69543 0
M  V30 682 H 84.584 -6.71916 -5.01943 0
M  V30 683 H 82.89 -7.4649 -6.93477 0
M  V30 684 H 82.7 -8.89416 -5.05237 0
M  V30 685 H 81.07 -8.14876 -5.18409 0
M  V30 686 H 83.709 -3.27957 -5.4317 0
M  V30 687 P 85.5665 -5.75688 -6.64379 0
M  V30 688 O 86.9875 -6.07692 -7.0558 0
M  V30 689 O 85.2065 -5.88047 -5.19722 0
M  V30 690 O 85.2435 -4.2322 -7.04443 0
M  V30 691 C 85.0825 -3.99785 -8.49201 0
M  V30 692 C 85.6235 -2.60516 -8.79425 0
M  V30 693 O 84.5685 -1.82663 -8.44573 0
M  V30 694 C 86.8415 -2.10343 -8.03628 0
M  V30 695 O 87.5795 -1.09919 -8.67766 0
M  V30 696 C 86.1735 -1.68446 -6.70876 0
M  V30 697 O 86.9715 -0.684109 -6.08265 0
M  V30 698 C 84.8355 -1.17436 -7.18567 0
M  V30 699 N 83.7925 -1.52699 -6.23988 0
M  V30 700 C 83.9615 -2.578 -5.40574 0
M  V30 701 N 82.9345 -2.78966 -4.61193 0
M  V30 702 C 82.0495 -1.78725 -4.95769 0
M  V30 703 C 80.7825 -1.45727 -4.44207 0
M  V30 704 N 80.1835 -2.13994 -3.43613 0
M  V30 705 N 80.2175 -0.374977 -5.05812 0
M  V30 706 C 80.8195 0.345585 -6.05615 0
M  V30 707 N 81.9965 0.0787651 -6.56253 0
M  V30 708 C 82.5715 -1.00499 -5.96189 0
M  V30 709 H 84.8675 -0.0804622 -7.31556 0
M  V30 710 H 86.0505 -2.53396 -6.02698 0
M  V30 711 H 87.5335 -2.93881 -7.85526 0
M  V30 712 H 85.8395 -2.52078 -9.87225 0
M  V30 713 H 85.6495 -4.75072 -9.05887 0
M  V30 714 H 84.0195 -4.05244 -8.76668 0
M  V30 715 H 80.2835 1.20098 -6.4532 0
M  V30 716 H 84.8615 -3.18977 -5.3945 0
M  V30 717 H 79.2535 -1.84983 -3.10004 0
M  V30 718 H 80.6575 -2.9465 -3.00843 0
M  V30 719 H 86.6595 0.177619 -6.34151 0
M  V30 720 P 88.5171 -1.25109 -8.70152 0
M  V30 721 O 89.9391 -1.29744 -9.22016 0
M  V30 722 O 88.1571 -2.13714 -7.55141 0
M  V30 723 O 88.1941 0.248149 -8.21425 0
M  V30 724 C 88.0341 1.22779 -9.30434 0
M  V30 725 C 88.5741 2.56293 -8.80664 0
M  V30 726 O 87.5181 3.02979 -8.09349 0
M  V30 727 C 89.7921 2.57523 -7.89775 0
M  V30 728 O 90.5301 3.7668 -7.89438 0
M  V30 729 C 89.1231 2.20997 -6.55446 0
M  V30 730 O 89.9221 2.71895 -5.48509 0
M  V30 731 C 87.7861 2.89693 -6.67988 0
M  V30 732 H 87.8181 3.88793 -6.19859 0
M  V30 733 H 89.0011 1.12046 -6.44229 0
M  V30 734 H 90.4851 1.7746 -8.19711 0
M  V30 735 H 88.7911 3.20706 -9.67112 0
M  V30 736 H 88.6011 0.901032 -10.1892 0
M  V30 737 H 86.9711 1.33049 -9.56592 0
M  V30 738 H 89.6101 3.57847 -5.23962 0
M  V30 739 P 91.4677 3.65191 -7.99657 0
M  V30 740 O 92.8897 3.89332 -8.45794 0
M  V30 741 O 91.1077 2.28472 -7.50807 0
M  V30 742 O 91.1447 4.64972 -6.77611 0
M  V30 743 C 90.9847 6.06319 -7.16352 0
M  V30 744 C 91.5247 6.91731 -6.02299 0
M  V30 745 O 90.4687 6.92449 -5.17064 0
M  V30 746 C 92.7427 6.43627 -5.25174 0
M  V30 747 O 93.4807 7.43686 -4.60469 0
M  V30 748 C 92.0737 5.40275 -4.31916 0
M  V30 749 O 92.8727 5.25279 -3.14438 0
M  V30 750 C 90.7367 6.04847 -4.05327 0
M  V30 751 H 90.7687 6.62195 -3.11261 0
M  V30 752 H 91.9517 4.42556 -4.81383 0
M  V30 753 H 93.4357 5.92458 -5.93643 0
M  V30 754 H 91.7417 7.92655 -6.402 0
M  V30 755 H 91.5517 6.26671 -8.0846 0
M  V30 756 H 89.9217 6.29101 -7.32804 0
M  V30 757 H 92.5607 5.84315 -2.47318 0
M  V30 758 P 94.4182 7.39546 -4.75277 0
M  V30 759 O 95.8402 7.84798 -5.01039 0
M  V30 760 O 94.0582 5.9812 -5.08098 0
M  V30 761 O 94.0952 7.57503 -3.1866 0
M  V30 762 C 93.9352 8.97357 -2.74833 0
M  V30 763 C 94.4752 9.07548 -1.32709 0
M  V30 764 O 93.4192 8.62072 -0.606159 0
M  V30 765 C 95.6932 8.25383 -0.938334 0
M  V30 766 O 96.4312 8.74577 0.146954 0
M  V30 767 C 95.0242 6.8802 -0.712559 0
M  V30 768 O 95.8232 6.1189 0.194655 0
M  V30 769 C 93.6872 7.27966 -0.139777 0
M  V30 770 H 93.7192 7.25354 0.961601 0
M  V30 771 H 94.9022 6.32557 -1.65702 0
M  V30 772 H 96.3862 8.19355 -1.79097 0
M  V30 773 H 94.6922 10.1294 -1.10029 0
M  V30 774 H 94.5022 9.64276 -3.41316 0
M  V30 775 H 92.8722 9.25417 -2.76357 0
M  V30 776 H 95.5112 6.25267 1.07847 0
M  V30 777 P 97.3688 8.791 -6.89233e-14 0
M  V30 778 O 98.7908 9.31096 0.027933 0
M  V30 779 O 97.0088 7.77869 -1.04071 0
M  V30 780 O 97.0458 8.09533 1.41463 0
M  V30 781 C 96.8858 9.0349 2.53943 0
M  V30 782 C 97.4258 8.35226 3.79016 0
M  V30 783 O 96.3698 7.57992 4.15078 0
M  V30 784 C 98.6438 7.45087 3.67298 0
M  V30 785 O 99.3818 7.27796 4.85194 0
M  V30 786 C 97.9748 6.17323 3.12027 0
M  V30 787 O 98.7738 5.04231 3.47188 0
M  V30 788 C 96.6378 6.19961 3.81809 0
M  V30 789 H 96.6698 5.58218 4.73051 0
M  V30 790 H 97.8528 6.21726 2.02589 0
M  V30 791 H 99.3368 7.86112 2.9231 0
M  V30 792 H 97.6428 9.11627 4.55076 0
M  V30 793 H 97.4528 9.9573 2.34194 0
M  V30 794 H 95.8228 9.2792 2.67832 0
M  V30 795 H 98.4618 4.67702 4.28772 0
M  V30 796 P 100.319 7.39546 4.75277 0
M  V30 797 O 101.741 7.81777 5.05738 0
M  V30 798 O 99.9594 7.1065 3.32998 0
M  V30 799 O 99.9964 6.04542 5.56673 0
M  V30 800 C 99.8364 6.22772 7.02095 0
M  V30 801 C 100.376 4.97725 7.70406 0
M  V30 802 O 99.3204 4.13256 7.58987 0
M  V30 803 C 101.594 4.28231 7.11815 0
M  V30 804 O 102.332 3.49945 8.01648 0
M  V30 805 C 100.925 3.5063 5.96244 0
M  V30 806 O 101.724 2.36482 5.64681 0
M  V30 807 C 99.5884 3.15122 6.56374 0
M  V30 808 H 99.6204 2.13853 6.99751 0
M  V30 809 H 100.803 4.13501 5.06559 0
M  V30 810 H 102.287 5.03285 6.70911 0
M  V30 811 H 100.593 5.20877 8.75697 0
M  V30 812 H 100.403 7.11046 7.35349 0
M  V30 813 H 98.7734 6.35815 7.26986 0
M  V30 814 H 101.412 1.61644 6.13565 0
M  V30 815 P 103.27 3.65191 7.99657 0
M  V30 816 O 104.692 3.8425 8.48115 0
M  V30 817 O 102.91 4.17805 6.64342 0
M  V30 818 O 102.947 2.07613 7.95143 0
M  V30 819 C 102.787 1.44328 9.27336 0
M  V30 820 C 103.327 0.0220036 9.17197 0
M  V30 821 O 102.271 -0.626867 8.61923 0
M  V30 822 C 104.545 -0.24586 8.30336 0
M  V30 823 O 105.283 -1.39011 8.63583 0
M  V30 824 C 103.876 -0.273849 6.91158 0
M  V30 825 O 104.675 -1.06348 6.02892 0
M  V30 826 C 102.539 -0.897649 7.22545 0
M  V30 827 H 102.571 -1.9841 7.04286 0
M  V30 828 H 103.754 0.739928 6.497 0
M  V30 829 H 105.238 0.60668 8.36503 0
M  V30 830 H 103.544 -0.352479 10.1829 0
M  V30 831 H 103.354 2.00611 10.0304 0
M  V30 832 H 101.724 1.41843 9.55327 0
M  V30 833 H 104.363 -1.95734 6.03555 0
M  V30 834 P 106.221 -1.25109 8.70152 0
M  V30 835 O 107.642 -1.35288 9.2132 0
M  V30 836 O 105.861 -0.0769065 7.84762 0
M  V30 837 O 105.898 -2.55232 7.81161 0
M  V30 838 C 105.737 -3.79979 8.58246 0
M  V30 839 C 106.278 -4.94023 7.72785 0
M  V30 840 O 105.223 -5.18666 6.91125 0
M  V30 841 C 107.496 -4.69597 6.85231 0
M  V30 842 O 108.234 -5.83832 6.51337 0
M  V30 843 C 106.828 -3.96706 5.66633 0
M  V30 844 O 107.626 -4.14896 4.5003 0
M  V30 845 C 105.49 -4.66153 5.59313 0
M  V30 846 N 104.447 -3.71582 5.24027 0
M  V30 847 C 104.616 -2.39715 5.48833 0
M  V30 848 N 103.589 -1.65863 5.12845 0
M  V30 849 C 102.704 -2.57637 4.5973 0
M  V30 850 C 101.437 -2.40278 4.01027 0
M  V30 851 N 100.838 -1.19549 3.86744 0
M  V30 852 N 100.872 -3.57711 3.59575 0
M  V30 853 C 101.474 -4.80324 3.70476 0
M  V30 854 N 102.651 -5.01121 4.23801 0
M  V30 855 C 103.226 -3.84757 4.66372 0
M  V30 856 H 105.522 -5.47604 4.85148 0
M  V30 857 H 106.705 -2.8955 5.86187 0
M  V30 858 H 108.188 -4.0121 7.36511 0
M  V30 859 H 106.494 -5.81019 8.37003 0
M  V30 860 H 106.304 -3.73517 9.52265 0
M  V30 861 H 104.674 -3.97163 8.80359 0
M  V30 862 H 100.938 -5.66348 3.3183 0
M  V30 863 H 105.516 -1.98804 5.94332 0
M  V30 864 H 99.9075 -1.13147 3.4281 0
M  V30 865 H 101.312 -0.344074 4.19692 0
M  V30 866 H 107.314 -4.90891 4.01857 0
M  V30 867 P 109.171 -5.75688 6.64379 0
M  V30 868 O 110.593 -6.11849 7.01846 0
M  V30 869 O 108.811 -4.30744 6.56026 0
M  V30 870 O 108.848 -6.37042 5.19165 0
M  V30 871 C 108.688 -7.83578 5.16515 0
M  V30 872 C 109.228 -8.33398 3.83019 0
M  V30 873 O 108.172 -8.10074 3.01034 0
M  V30 874 C 110.446 -7.65514 3.2257 0
M  V30 875 O 111.184 -8.4329 2.32297 0
M  V30 876 C 109.777 -6.40075 2.62207 0
M  V30 877 O 110.576 -5.92589 1.53712 0
M  V30 878 C 108.44 -6.9454 2.18503 0
M  V30 879 H 108.472 -7.23063 1.12091 0
M  V30 880 H 109.655 -5.6025 3.37201 0
M  V30 881 H 111.139 -7.35707 4.02681 0
M  V30 882 H 109.445 -9.40912 3.9095 0
M  V30 883 H 109.255 -8.29056 5.99158 0
M  V30 884 H 107.625 -8.10073 5.25882 0
M  V30 885 H 110.264 -6.30324 0.726794 0
M  V30 886 P 112.122 -8.4349 2.47671 0
M  V30 887 O 113.544 -8.94359 2.59696 0
M  V30 888 O 111.762 -7.1704 3.19006 0
M  V30 889 O 111.799 -8.16596 0.923387 0
M  V30 890 C 111.639 -9.38437 0.108857 0
M  V30 891 C 112.179 -9.08076 -1.28339 0
M  V30 892 O 111.124 -8.44229 -1.84713 0
M  V30 893 C 113.397 -8.18386 -1.42505 0
M  V30 894 O 114.135 -8.3501 -2.60497 0
M  V30 895 C 112.729 -6.80225 -1.25468 0
M  V30 896 O 113.527 -5.81526 -1.91035 0
M  V30 897 C 111.391 -7.02416 -1.9168 0
M  V30 898 N 110.348 -6.31033 -1.20314 0
M  V30 899 C 110.41 -6.18781 0.121293 0
M  V30 900 N 109.365 -5.49762 0.588272 0
M  V30 901 C 108.631 -5.22015 -0.488988 0
M  V30 902 C 107.325 -4.61966 -0.596448 0
M  V30 903 O 106.592 -4.19162 0.309059 0
M  V30 904 N 106.895 -4.53773 -1.878 0
M  V30 905 C 107.644 -4.99623 -2.99082 0
M  V30 906 N 107.047 -4.78912 -4.21227 0
M  V30 907 N 108.797 -5.59957 -2.91093 0
M  V30 908 C 109.254 -5.70225 -1.64218 0
M  V30 909 H 111.423 -6.6888 -2.96621 0
M  V30 910 H 112.606 -6.53517 -0.192194 0
M  V30 911 H 114.091 -8.36563 -0.598329 0
M  V30 912 H 112.396 -10.0291 -1.79807 0
M  V30 913 H 112.206 -10.2138 0.558219 0
M  V30 914 H 110.575 -9.6579 0.0444202 0
M  V30 915 H 105.999 -4.12883 -2.05283 0
M  V30 916 H 111.206 -6.59596 0.745856 0
M  V30 917 H 106.136 -4.31425 -4.2628 0
M  V30 918 H 107.512 -5.11219 -5.07148 0
M  V30 919 H 113.216 -5.69466 -2.79593 0
M  V30 920 P 115.072 -8.4349 -2.47671 0
M  V30 921 O 116.494 -8.92593 -2.65 0
M  V30 922 O 114.712 -7.7568 -1.19296 0
M  V30 923 O 114.749 -7.36886 -3.63805 0
M  V30 924 C 114.589 -7.95349 -4.982 0
M  V30 925 C 115.129 -6.94612 -5.98974 0
M  V30 926 O 114.073 -6.10347 -6.11815 0
M  V30 927 C 116.347 -6.11426 -5.62335 0
M  V30 928 O 117.085 -5.6162 -6.70584 0
M  V30 929 C 115.678 -5.04409 -4.73308 0
M  V30 930 O 116.477 -3.85992 -4.75183 0
M  V30 931 C 114.341 -4.8728 -5.41006 0
M  V30 932 H 114.373 -4.02333 -6.11157 0
M  V30 933 H 115.556 -5.39466 -3.69543 0
M  V30 934 H 117.04 -6.71916 -5.01943 0
M  V30 935 H 115.346 -7.4649 -6.93477 0
M  V30 936 H 115.156 -8.89416 -5.05237 0
M  V30 937 H 113.526 -8.14876 -5.18409 0
M  V30 938 H 116.165 -3.27957 -5.4317 0
M  V30 939 P 118.023 -5.75688 -6.64379 0
M  V30 940 O 119.445 -6.07627 -7.05504 0
M  V30 941 O 117.663 -5.88047 -5.19722 0
M  V30 942 O 117.7 -4.2322 -7.04443 0
M  V30 943 C 117.54 -3.99743 -8.4911 0
M  V30 944 C 118.08 -2.60516 -8.79425 0
M  V30 945 O 117.024 -1.82684 -8.4467 0
M  V30 946 C 119.298 -2.10343 -8.03628 0
M  V30 947 O 120.036 -1.09919 -8.67766 0
M  V30 948 C 118.629 -1.68446 -6.70876 0
M  V30 949 O 119.428 -0.678137 -6.08433 0
M  V30 950 C 117.292 -1.17436 -7.18567 0
M  V30 951 H 117.324 -0.0804732 -7.31656 0
M  V30 952 H 118.507 -2.54037 -6.02537 0
M  V30 953 H 119.991 -2.93881 -7.85526 0
M  V30 954 H 118.297 -2.53065 -9.86973 0
M  V30 955 H 118.107 -4.75072 -9.05887 0
M  V30 956 H 116.477 -4.05244 -8.76668 0
M  V30 957 H 119.116 0.177647 -6.34251 0
M  V30 958 P 120.973 -1.25109 -8.70152 0
M  V30 959 O 122.395 -1.29744 -9.22016 0
M  V30 960 O 120.613 -2.13714 -7.55141 0
M  V30 961 O 120.65 0.248149 -8.21425 0
M  V30 962 C 120.49 1.22779 -9.30434 0
M  V30 963 C 121.03 2.56293 -8.80664 0
M  V30 964 O 119.974 3.02979 -8.09349 0
M  V30 965 C 122.248 2.57523 -7.89775 0
M  V30 966 O 122.986 3.7668 -7.89438 0
M  V30 967 C 121.579 2.20997 -6.55446 0
M  V30 968 O 122.378 2.71895 -5.48509 0
M  V30 969 C 120.242 2.89693 -6.67988 0
M  V30 970 H 120.274 3.88793 -6.19859 0
M  V30 971 H 121.457 1.12046 -6.44229 0
M  V30 972 H 122.941 1.7746 -8.19711 0
M  V30 973 H 121.247 3.20706 -9.67112 0
M  V30 974 H 121.057 0.901032 -10.1892 0
M  V30 975 H 119.427 1.33049 -9.56592 0
M  V30 976 H 122.066 3.57847 -5.23962 0
M  V30 977 P 123.924 3.65191 -7.99657 0
M  V30 978 O 125.346 3.89332 -8.45794 0
M  V30 979 O 123.564 2.28472 -7.50807 0
M  V30 980 O 123.601 4.64972 -6.77611 0
M  V30 981 C 123.441 6.06319 -7.16352 0
M  V30 982 C 123.981 6.91731 -6.02299 0
M  V30 983 O 122.925 6.92449 -5.17064 0
M  V30 984 C 125.199 6.43627 -5.25174 0
M  V30 985 O 125.937 7.43686 -4.60469 0
M  V30 986 C 124.53 5.40275 -4.31916 0
M  V30 987 O 125.329 5.25279 -3.14438 0
M  V30 988 C 123.193 6.04847 -4.05327 0
M  V30 989 H 123.225 6.62195 -3.11261 0
M  V30 990 H 124.408 4.42556 -4.81383 0
M  V30 991 H 125.892 5.92458 -5.93643 0
M  V30 992 H 124.198 7.92655 -6.402 0
M  V30 993 H 124.008 6.26671 -8.0846 0
M  V30 994 H 122.378 6.29101 -7.32804 0
M  V30 995 H 125.017 5.84315 -2.47318 0
M  V30 996 P 126.875 7.39546 -4.75277 0
M  V30 997 O 128.297 7.84798 -5.01039 0
M  V30 998 O 126.515 5.9812 -5.08098 0
M  V30 999 O 126.552 7.57503 -3.1866 0
M  V30 1000 C 126.392 8.97357 -2.74833 0
M  V30 1001 C 126.932 9.07548 -1.32709 0
M  V30 1002 O 125.876 8.62072 -0.606159 0
M  V30 1003 C 128.15 8.25383 -0.938334 0
M  V30 1004 O 128.888 8.74577 0.146954 0
M  V30 1005 C 127.481 6.8802 -0.712559 0
M  V30 1006 O 128.28 6.1189 0.194655 0
M  V30 1007 C 126.144 7.27966 -0.139777 0
M  V30 1008 H 126.176 7.25354 0.961601 0
M  V30 1009 H 127.359 6.32557 -1.65702 0
M  V30 1010 H 128.843 8.19355 -1.79097 0
M  V30 1011 H 127.149 10.1294 -1.10029 0
M  V30 1012 H 126.959 9.64276 -3.41316 0
M  V30 1013 H 125.329 9.25417 -2.76357 0
M  V30 1014 H 127.968 6.25267 1.07847 0
M  V30 1015 P 129.825 8.791 -1.02308e-13 0
M  V30 1016 O 131.247 9.31096 0.027933 0
M  V30 1017 O 129.465 7.77869 -1.04071 0
M  V30 1018 O 129.502 8.09533 1.41463 0
M  V30 1019 C 129.342 9.0349 2.53943 0
M  V30 1020 C 129.882 8.35226 3.79016 0
M  V30 1021 O 128.826 7.57992 4.15078 0
M  V30 1022 C 131.1 7.45087 3.67298 0
M  V30 1023 O 131.838 7.27796 4.85194 0
M  V30 1024 C 130.431 6.17323 3.12027 0
M  V30 1025 O 131.23 5.04231 3.47188 0
M  V30 1026 C 129.094 6.19961 3.81809 0
M  V30 1027 H 129.126 5.58218 4.73051 0
M  V30 1028 H 130.309 6.21726 2.02589 0
M  V30 1029 H 131.793 7.86112 2.9231 0
M  V30 1030 H 130.099 9.11627 4.55076 0
M  V30 1031 H 129.909 9.9573 2.34194 0
M  V30 1032 H 128.279 9.2792 2.67832 0
M  V30 1033 H 130.918 4.67702 4.28772 0
M  V30 1034 P 132.776 7.39546 4.75277 0
M  V30 1035 O 134.198 7.81777 5.05738 0
M  V30 1036 O 132.416 7.1065 3.32998 0
M  V30 1037 O 132.453 6.04542 5.56673 0
M  V30 1038 C 132.293 6.22772 7.02095 0
M  V30 1039 C 132.833 4.97725 7.70406 0
M  V30 1040 O 131.777 4.13256 7.58987 0
M  V30 1041 C 134.051 4.28231 7.11815 0
M  V30 1042 O 134.789 3.49945 8.01648 0
M  V30 1043 C 133.382 3.5063 5.96244 0
M  V30 1044 O 134.181 2.36482 5.64681 0
M  V30 1045 C 132.045 3.15122 6.56374 0
M  V30 1046 H 132.077 2.13853 6.99751 0
M  V30 1047 H 133.26 4.13501 5.06559 0
M  V30 1048 H 134.744 5.03285 6.70911 0
M  V30 1049 H 133.05 5.20877 8.75697 0
M  V30 1050 H 132.86 7.11046 7.35349 0
M  V30 1051 H 131.23 6.35815 7.26986 0
M  V30 1052 H 133.869 1.61644 6.13565 0
M  V30 1053 P 135.726 3.65191 7.99657 0
M  V30 1054 O 137.148 3.8425 8.48115 0
M  V30 1055 O 135.366 4.17805 6.64342 0
M  V30 1056 O 135.403 2.07613 7.95143 0
M  V30 1057 C 135.243 1.44328 9.27336 0
M  V30 1058 C 135.783 0.0220036 9.17197 0
M  V30 1059 O 134.727 -0.626867 8.61923 0
M  V30 1060 C 137.001 -0.24586 8.30336 0
M  V30 1061 O 137.739 -1.39011 8.63583 0
M  V30 1062 C 136.332 -0.273849 6.91158 0
M  V30 1063 O 137.131 -1.06348 6.02892 0
M  V30 1064 C 134.995 -0.897649 7.22545 0
M  V30 1065 H 135.027 -1.9841 7.04286 0
M  V30 1066 H 136.21 0.739928 6.497 0
M  V30 1067 H 137.694 0.60668 8.36503 0
M  V30 1068 H 136 -0.352479 10.1829 0
M  V30 1069 H 135.81 2.00611 10.0304 0
M  V30 1070 H 134.18 1.41843 9.55327 0
M  V30 1071 H 136.819 -1.95734 6.03555 0
M  V30 1072 P 138.677 -1.25109 8.70152 0
M  V30 1073 O 140.099 -1.35274 9.21221 0
M  V30 1074 O 138.317 -0.0769065 7.84762 0
M  V30 1075 O 138.354 -2.55232 7.81161 0
M  V30 1076 C 138.194 -3.79939 8.58154 0
M  V30 1077 C 138.734 -4.94023 7.72785 0
M  V30 1078 O 137.678 -5.18726 6.91205 0
M  V30 1079 C 139.952 -4.69597 6.85231 0
M  V30 1080 O 140.69 -5.83832 6.51337 0
M  V30 1081 C 139.283 -3.96706 5.66633 0
M  V30 1082 O 140.082 -4.15414 4.49689 0
M  V30 1083 C 137.946 -4.66153 5.59313 0
M  V30 1084 H 137.978 -5.47679 4.85214 0
M  V30 1085 H 139.161 -2.89008 5.86566 0
M  V30 1086 H 140.645 -4.0121 7.36511 0
M  V30 1087 H 138.951 -5.80182 8.37584 0
M  V30 1088 H 138.761 -3.73517 9.52265 0
M  V30 1089 H 137.131 -3.97163 8.80359 0
M  V30 1090 H 139.77 -4.90969 4.01921 0
M  V30 1091 P 141.627 -5.75688 6.64379 0
M  V30 1092 O 143.049 -6.11849 7.01846 0
M  V30 1093 O 141.267 -4.30744 6.56026 0
M  V30 1094 O 141.304 -6.37042 5.19165 0
M  V30 1095 C 141.144 -7.83578 5.16515 0
M  V30 1096 C 141.684 -8.33398 3.83019 0
M  V30 1097 O 140.628 -8.10074 3.01034 0
M  V30 1098 C 142.902 -7.65514 3.2257 0
M  V30 1099 O 143.64 -8.4329 2.32297 0
M  V30 1100 C 142.233 -6.40075 2.62207 0
M  V30 1101 O 143.032 -5.92589 1.53712 0
M  V30 1102 C 140.896 -6.9454 2.18503 0
M  V30 1103 H 140.928 -7.23063 1.12091 0
M  V30 1104 H 142.111 -5.6025 3.37201 0
M  V30 1105 H 143.595 -7.35707 4.02681 0
M  V30 1106 H 141.901 -9.40912 3.9095 0
M  V30 1107 H 141.711 -8.29056 5.99158 0
M  V30 1108 H 140.081 -8.10073 5.25882 0
M  V30 1109 H 142.72 -6.30324 0.726794 0
M  V30 1110 P 144.578 -8.4349 2.47671 0
M  V30 1111 O 146 -8.94167 2.5964 0
M  V30 1112 O 144.218 -7.1704 3.19006 0
M  V30 1113 O 144.255 -8.16596 0.923387 0
M  V30 1114 C 144.095 -9.38437 0.108857 0
M  V30 1115 C 144.635 -9.08175 -1.28353 0
M  V30 1116 O 143.579 -8.44229 -1.84713 0
M  V30 1117 C 145.853 -8.18386 -1.42505 0
M  V30 1118 O 146.591 -8.3501 -2.60497 0
M  V30 1119 C 145.184 -6.80225 -1.25468 0
M  V30 1120 O 145.983 -5.81621 -1.91066 0
M  V30 1121 C 143.847 -7.02416 -1.9168 0
M  V30 1122 H 143.879 -6.6888 -2.96621 0
M  V30 1123 H 145.062 -6.53617 -0.192223 0
M  V30 1124 H 146.546 -8.36622 -0.589963 0
M  V30 1125 H 144.852 -10.0291 -1.79807 0
M  V30 1126 H 144.662 -10.2138 0.558219 0
M  V30 1127 H 143.032 -9.6579 0.0444202 0
M  V30 1128 H 145.671 -5.69556 -2.79637 0
M  V30 1129 P 147.528 -8.4349 -2.47671 0
M  V30 1130 O 148.95 -8.92593 -2.65 0
M  V30 1131 O 147.168 -7.7568 -1.19296 0
M  V30 1132 O 147.205 -7.36886 -3.63805 0
M  V30 1133 C 147.045 -7.95349 -4.982 0
M  V30 1134 C 147.585 -6.94612 -5.98974 0
M  V30 1135 O 146.529 -6.10347 -6.11815 0
M  V30 1136 C 148.803 -6.11426 -5.62335 0
M  V30 1137 O 149.541 -5.6162 -6.70584 0
M  V30 1138 C 148.134 -5.04409 -4.73308 0
M  V30 1139 O 148.933 -3.85992 -4.75183 0
M  V30 1140 C 146.797 -4.8728 -5.41006 0
M  V30 1141 H 146.829 -4.02333 -6.11157 0
M  V30 1142 H 148.012 -5.39466 -3.69543 0
M  V30 1143 H 149.496 -6.71916 -5.01943 0
M  V30 1144 H 147.802 -7.4649 -6.93477 0
M  V30 1145 H 147.612 -8.89416 -5.05237 0
M  V30 1146 H 145.982 -8.14876 -5.18409 0
M  V30 1147 H 148.621 -3.27957 -5.4317 0
M  V30 1148 P 150.479 -5.75688 -6.64379 0
M  V30 1149 O 151.901 -6.07627 -7.05504 0
M  V30 1150 O 150.119 -5.88047 -5.19722 0
M  V30 1151 O 150.156 -4.2322 -7.04443 0
M  V30 1152 C 149.996 -3.99743 -8.4911 0
M  V30 1153 C 150.536 -2.60516 -8.79425 0
M  V30 1154 O 149.48 -1.82684 -8.4467 0
M  V30 1155 C 151.754 -2.10343 -8.03628 0
M  V30 1156 O 152.492 -1.09919 -8.67766 0
M  V30 1157 C 151.085 -1.68446 -6.70876 0
M  V30 1158 O 151.884 -0.678137 -6.08433 0
M  V30 1159 C 149.748 -1.17436 -7.18567 0
M  V30 1160 H 149.78 -0.0804732 -7.31656 0
M  V30 1161 H 150.963 -2.54037 -6.02537 0
M  V30 1162 H 152.447 -2.93881 -7.85526 0
M  V30 1163 H 150.753 -2.53065 -9.86973 0
M  V30 1164 H 150.563 -4.75072 -9.05887 0
M  V30 1165 H 148.933 -4.05244 -8.76668 0
M  V30 1166 H 151.572 0.177647 -6.34251 0
M  V30 1167 P 153.43 -1.25109 -8.70152 0
M  V30 1168 O 154.852 -1.29744 -9.22016 0
M  V30 1169 O 153.07 -2.13714 -7.55141 0
M  V30 1170 O 153.107 0.248149 -8.21425 0
M  V30 1171 C 152.947 1.22779 -9.30434 0
M  V30 1172 C 153.487 2.56293 -8.80664 0
M  V30 1173 O 152.431 3.02979 -8.09349 0
M  V30 1174 C 154.705 2.57523 -7.89775 0
M  V30 1175 O 155.443 3.7668 -7.89438 0
M  V30 1176 C 154.036 2.20997 -6.55446 0
M  V30 1177 O 154.835 2.71895 -5.48509 0
M  V30 1178 C 152.699 2.89693 -6.67988 0
M  V30 1179 H 152.731 3.88793 -6.19859 0
M  V30 1180 H 153.914 1.12046 -6.44229 0
M  V30 1181 H 155.398 1.7746 -8.19711 0
M  V30 1182 H 153.704 3.20706 -9.67112 0
M  V30 1183 H 153.514 0.901032 -10.1892 0
M  V30 1184 H 151.884 1.33049 -9.56592 0
M  V30 1185 H 154.523 3.57847 -5.23962 0
M  V30 1186 P 156.38 3.65191 -7.99657 0
M  V30 1187 O 157.802 3.89332 -8.45794 0
M  V30 1188 O 156.02 2.28472 -7.50807 0
M  V30 1189 O 156.057 4.64972 -6.77611 0
M  V30 1190 C 155.897 6.06319 -7.16352 0
M  V30 1191 C 156.437 6.91731 -6.02299 0
M  V30 1192 O 155.381 6.92449 -5.17064 0
M  V30 1193 C 157.655 6.43627 -5.25174 0
M  V30 1194 O 158.393 7.43686 -4.60469 0
M  V30 1195 C 156.986 5.40275 -4.31916 0
M  V30 1196 O 157.785 5.25279 -3.14438 0
M  V30 1197 C 155.649 6.04847 -4.05327 0
M  V30 1198 H 155.681 6.62195 -3.11261 0
M  V30 1199 H 156.864 4.42556 -4.81383 0
M  V30 1200 H 158.348 5.92458 -5.93643 0
M  V30 1201 H 156.654 7.92655 -6.402 0
M  V30 1202 H 156.464 6.26671 -8.0846 0
M  V30 1203 H 154.834 6.29101 -7.32804 0
M  V30 1204 H 157.473 5.84315 -2.47318 0
M  V30 1205 P 159.331 7.39546 -4.75277 0
M  V30 1206 O 160.753 7.84798 -5.01039 0
M  V30 1207 O 158.971 5.9812 -5.08098 0
M  V30 1208 O 159.008 7.57503 -3.1866 0
M  V30 1209 C 158.848 8.97357 -2.74833 0
M  V30 1210 C 159.388 9.07548 -1.32709 0
M  V30 1211 O 158.332 8.62072 -0.606159 0
M  V30 1212 C 160.606 8.25383 -0.938334 0
M  V30 1213 O 161.344 8.74577 0.146954 0
M  V30 1214 C 159.937 6.8802 -0.712559 0
M  V30 1215 O 160.736 6.1189 0.194655 0
M  V30 1216 C 158.6 7.27966 -0.139777 0
M  V30 1217 H 158.632 7.25354 0.961601 0
M  V30 1218 H 159.815 6.32557 -1.65702 0
M  V30 1219 H 161.299 8.19355 -1.79097 0
M  V30 1220 H 159.605 10.1294 -1.10029 0
M  V30 1221 H 159.415 9.64276 -3.41316 0
M  V30 1222 H 157.785 9.25417 -2.76357 0
M  V30 1223 H 160.424 6.25267 1.07847 0
M  V30 1224 P 162.281 8.791 -1.35693e-13 0
M  V30 1225 O 163.703 9.31096 0.027933 0
M  V30 1226 O 161.921 7.77869 -1.04071 0
M  V30 1227 O 161.958 8.09533 1.41463 0
M  V30 1228 C 161.798 9.0349 2.53943 0
M  V30 1229 C 162.338 8.35226 3.79016 0
M  V30 1230 O 161.282 7.57992 4.15078 0
M  V30 1231 C 163.556 7.45087 3.67298 0
M  V30 1232 O 164.294 7.27796 4.85194 0
M  V30 1233 C 162.887 6.17323 3.12027 0
M  V30 1234 O 163.686 5.04231 3.47188 0
M  V30 1235 C 161.55 6.19961 3.81809 0
M  V30 1236 H 161.582 5.58218 4.73051 0
M  V30 1237 H 162.765 6.21726 2.02589 0
M  V30 1238 H 164.249 7.86112 2.9231 0
M  V30 1239 H 162.555 9.11627 4.55076 0
M  V30 1240 H 162.365 9.9573 2.34194 0
M  V30 1241 H 160.735 9.2792 2.67832 0
M  V30 1242 H 163.374 4.67702 4.28772 0
M  V30 1243 P 165.232 7.39546 4.75277 0
M  V30 1244 O 166.653 7.81861 5.05793 0
M  V30 1245 O 164.872 7.1065 3.32998 0
M  V30 1246 O 164.909 6.04542 5.56673 0
M  V30 1247 C 164.748 6.22839 7.02169 0
M  V30 1248 C 165.289 4.97725 7.70406 0
M  V30 1249 O 164.234 4.13208 7.58899 0
M  V30 1250 C 166.507 4.28231 7.11815 0
M  V30 1251 O 167.245 3.49945 8.01648 0
M  V30 1252 C 165.839 3.5063 5.96244 0
M  V30 1253 O 166.637 2.37008 5.64352 0
M  V30 1254 C 164.501 3.15122 6.56374 0
M  V30 1255 N 163.458 3.22311 5.55692 0
M  V30 1256 C 163.627 3.99655 4.46046 0
M  V30 1257 N 162.6 3.97599 3.63918 0
M  V30 1258 C 161.715 3.11159 4.25334 0
M  V30 1259 C 160.448 2.64972 3.85157 0
M  V30 1260 N 159.883 1.78482 4.74759 0
M  V30 1261 C 160.485 1.37463 5.90819 0
M  V30 1262 N 161.662 1.7733 6.31889 0
M  V30 1263 C 162.237 2.64393 5.43725 0
M  V30 1264 H 165.716 4.12931 5.06895 0
M  V30 1265 H 167.199 5.03285 6.70911 0
M  V30 1266 H 165.505 5.20001 8.76217 0
M  V30 1267 H 165.315 7.11046 7.35349 0
M  V30 1268 H 163.685 6.35815 7.26986 0
M  V30 1269 H 164.527 4.58037 4.27732 0
M  V30 1270 H 166.325 1.61619 6.13468 0
M  V30 1271 P 168.182 3.65191 7.99657 0
M  V30 1272 O 169.604 3.8425 8.48115 0
M  V30 1273 O 167.822 4.17805 6.64342 0
M  V30 1274 O 167.859 2.07613 7.95143 0
M  V30 1275 C 167.699 1.44328 9.27336 0
M  V30 1276 C 168.239 0.0220036 9.17197 0
M  V30 1277 O 167.183 -0.626867 8.61923 0
M  V30 1278 C 169.457 -0.24586 8.30336 0
M  V30 1279 O 170.195 -1.39011 8.63583 0
M  V30 1280 C 168.788 -0.273849 6.91158 0
M  V30 1281 O 169.587 -1.06348 6.02892 0
M  V30 1282 C 167.451 -0.897649 7.22545 0
M  V30 1283 H 167.483 -1.9841 7.04286 0
M  V30 1284 H 168.666 0.739928 6.497 0
M  V30 1285 H 170.15 0.60668 8.36503 0
M  V30 1286 H 168.456 -0.352479 10.1829 0
M  V30 1287 H 168.266 2.00611 10.0304 0
M  V30 1288 H 166.636 1.41843 9.55327 0
M  V30 1289 H 169.275 -1.95734 6.03555 0
M  V30 1290 P 171.133 -1.25109 8.70152 0
M  V30 1291 O 172.555 -1.35274 9.21221 0
M  V30 1292 O 170.773 -0.0769065 7.84762 0
M  V30 1293 O 170.81 -2.55232 7.81161 0
M  V30 1294 C 170.65 -3.79939 8.58154 0
M  V30 1295 C 171.19 -4.94023 7.72785 0
M  V30 1296 O 170.134 -5.18726 6.91205 0
M  V30 1297 C 172.408 -4.69597 6.85231 0
M  V30 1298 O 173.146 -5.83832 6.51337 0
M  V30 1299 C 171.739 -3.96706 5.66633 0
M  V30 1300 O 172.538 -4.15414 4.49689 0
M  V30 1301 C 170.402 -4.66153 5.59313 0
M  V30 1302 H 170.434 -5.47679 4.85214 0
M  V30 1303 H 171.617 -2.89008 5.86566 0
M  V30 1304 H 173.101 -4.0121 7.36511 0
M  V30 1305 H 171.407 -5.80182 8.37584 0
M  V30 1306 H 171.217 -3.73517 9.52265 0
M  V30 1307 H 169.587 -3.97163 8.80359 0
M  V30 1308 H 172.226 -4.90969 4.01921 0
M  V30 1309 P 174.084 -5.75688 6.64379 0
M  V30 1310 O 175.505 -6.11915 7.01921 0
M  V30 1311 O 173.724 -4.30744 6.56026 0
M  V30 1312 O 173.761 -6.37042 5.19165 0
M  V30 1313 C 173.6 -7.83662 5.1657 0
M  V30 1314 C 174.141 -8.33398 3.83019 0
M  V30 1315 O 173.086 -8.0998 3.00999 0
M  V30 1316 C 175.359 -7.65514 3.2257 0
M  V30 1317 O 176.097 -8.4329 2.32297 0
M  V30 1318 C 174.691 -6.40075 2.62207 0
M  V30 1319 O 175.489 -5.92338 1.5428 0
M  V30 1320 C 173.353 -6.9454 2.18503 0
M  V30 1321 N 172.31 -5.95905 2.39948 0
M  V30 1322 C 172.479 -4.98383 3.32108 0
M  V30 1323 N 171.452 -4.16798 3.41761 0
M  V30 1324 C 170.567 -4.65287 2.47461 0
M  V30 1325 C 169.3 -4.18946 2.07461 0
M  V30 1326 N 168.701 -3.09661 2.60717 0
M  V30 1327 N 168.735 -4.95327 1.09101 0
M  V30 1328 C 169.337 -6.04369 0.519812 0
M  V30 1329 N 170.514 -6.50694 0.855982 0
M  V30 1330 C 171.089 -5.75818 1.84322 0
M  V30 1331 H 173.385 -7.22964 1.12076 0
M  V30 1332 H 174.568 -5.60502 3.36589 0
M  V30 1333 H 176.051 -7.35707 4.02681 0
M  V30 1334 H 174.357 -9.41302 3.90009 0
M  V30 1335 H 174.167 -8.29056 5.99158 0
M  V30 1336 H 172.537 -8.10073 5.25882 0
M  V30 1337 H 168.801 -6.55843 -0.270373 0
M  V30 1338 H 173.379 -4.88564 3.92502 0
M  V30 1339 H 167.771 -2.80523 2.27218 0
M  V30 1340 H 169.175 -2.55848 3.34465 0
M  V30 1341 H 175.177 -6.30224 0.72668 0
M  V30 1342 P 177.034 -8.4349 2.47671 0
M  V30 1343 O 178.456 -8.94167 2.5964 0
M  V30 1344 O 176.674 -7.1704 3.19006 0
M  V30 1345 O 176.711 -8.16596 0.923387 0
M  V30 1346 C 176.551 -9.38437 0.108857 0
M  V30 1347 C 177.091 -9.08175 -1.28353 0
M  V30 1348 O 176.035 -8.44229 -1.84713 0
M  V30 1349 C 178.309 -8.18386 -1.42505 0
M  V30 1350 O 179.047 -8.3501 -2.60497 0
M  V30 1351 C 177.64 -6.80225 -1.25468 0
M  V30 1352 O 178.439 -5.81621 -1.91066 0
M  V30 1353 C 176.303 -7.02416 -1.9168 0
M  V30 1354 H 176.335 -6.6888 -2.96621 0
M  V30 1355 H 177.518 -6.53617 -0.192223 0
M  V30 1356 H 179.002 -8.36622 -0.589963 0
M  V30 1357 H 177.308 -10.0291 -1.79807 0
M  V30 1358 H 177.118 -10.2138 0.558219 0
M  V30 1359 H 175.488 -9.6579 0.0444202 0
M  V30 1360 H 178.127 -5.69556 -2.79637 0
M  V30 1361 P 179.985 -8.4349 -2.47671 0
M  V30 1362 O 181.407 -8.92593 -2.65 0
M  V30 1363 O 179.625 -7.7568 -1.19296 0
M  V30 1364 O 179.662 -7.36886 -3.63805 0
M  V30 1365 C 179.502 -7.95349 -4.982 0
M  V30 1366 C 180.042 -6.94612 -5.98974 0
M  V30 1367 O 178.986 -6.10347 -6.11815 0
M  V30 1368 C 181.26 -6.11426 -5.62335 0
M  V30 1369 O 181.998 -5.6162 -6.70584 0
M  V30 1370 C 180.591 -5.04409 -4.73308 0
M  V30 1371 O 181.39 -3.85992 -4.75183 0
M  V30 1372 C 179.254 -4.8728 -5.41006 0
M  V30 1373 H 179.286 -4.02333 -6.11157 0
M  V30 1374 H 180.469 -5.39466 -3.69543 0
M  V30 1375 H 181.953 -6.71916 -5.01943 0
M  V30 1376 H 180.259 -7.4649 -6.93477 0
M  V30 1377 H 180.069 -8.89416 -5.05237 0
M  V30 1378 H 178.439 -8.14876 -5.18409 0
M  V30 1379 H 181.078 -3.27957 -5.4317 0
M  V30 1380 P 182.935 -5.75688 -6.64379 0
M  V30 1381 O 184.357 -6.07627 -7.05504 0
M  V30 1382 O 182.575 -5.88047 -5.19722 0
M  V30 1383 O 182.612 -4.2322 -7.04443 0
M  V30 1384 C 182.452 -3.99743 -8.4911 0
M  V30 1385 C 182.992 -2.60516 -8.79425 0
M  V30 1386 O 181.936 -1.82684 -8.4467 0
M  V30 1387 C 184.21 -2.10343 -8.03628 0
M  V30 1388 O 184.948 -1.09919 -8.67766 0
M  V30 1389 C 183.541 -1.68446 -6.70876 0
M  V30 1390 O 184.34 -0.678137 -6.08433 0
M  V30 1391 C 182.204 -1.17436 -7.18567 0
M  V30 1392 H 182.236 -0.0804732 -7.31656 0
M  V30 1393 H 183.419 -2.54037 -6.02537 0
M  V30 1394 H 184.903 -2.93881 -7.85526 0
M  V30 1395 H 183.209 -2.53065 -9.86973 0
M  V30 1396 H 183.019 -4.75072 -9.05887 0
M  V30 1397 H 181.389 -4.05244 -8.76668 0
M  V30 1398 H 184.028 0.177647 -6.34251 0
M  V30 1399 P 185.886 -1.25109 -8.70152 0
M  V30 1400 O 187.308 -1.29744 -9.22016 0
M  V30 1401 O 185.526 -2.13714 -7.55141 0
M  V30 1402 O 185.563 0.248149 -8.21425 0
M  V30 1403 C 185.403 1.22779 -9.30434 0
M  V30 1404 C 185.943 2.56293 -8.80664 0
M  V30 1405 O 184.887 3.02979 -8.09349 0
M  V30 1406 C 187.161 2.57523 -7.89775 0
M  V30 1407 O 187.899 3.7668 -7.89438 0
M  V30 1408 C 186.492 2.20997 -6.55446 0
M  V30 1409 O 187.291 2.71895 -5.48509 0
M  V30 1410 C 185.155 2.89693 -6.67988 0
M  V30 1411 H 185.187 3.88793 -6.19859 0
M  V30 1412 H 186.37 1.12046 -6.44229 0
M  V30 1413 H 187.854 1.7746 -8.19711 0
M  V30 1414 H 186.16 3.20706 -9.67112 0
M  V30 1415 H 185.97 0.901032 -10.1892 0
M  V30 1416 H 184.34 1.33049 -9.56592 0
M  V30 1417 H 186.979 3.57847 -5.23962 0
M  V30 1418 P 188.836 3.65191 -7.99657 0
M  V30 1419 O 190.258 3.89416 -8.45976 0
M  V30 1420 O 188.476 2.28472 -7.50807 0
M  V30 1421 O 188.513 4.64972 -6.77611 0
M  V30 1422 C 188.353 6.06319 -7.16352 0
M  V30 1423 C 188.893 6.91655 -6.02234 0
M  V30 1424 O 187.838 6.92449 -5.17064 0
M  V30 1425 C 190.111 6.43627 -5.25174 0
M  V30 1426 O 190.849 7.43686 -4.60469 0
M  V30 1427 C 189.443 5.40275 -4.31916 0
M  V30 1428 O 190.241 5.25193 -3.14386 0
M  V30 1429 C 188.105 6.04847 -4.05327 0
M  V30 1430 N 187.062 5.04166 -3.98114 0
M  V30 1431 C 187.124 3.96049 -4.75587 0
M  V30 1432 N 186.079 3.15559 -4.54006 0
M  V30 1433 C 185.345 3.78802 -3.62491 0
M  V30 1434 C 184.039 3.476 -3.10071 0
M  V30 1435 O 183.306 2.51136 -3.37021 0
M  V30 1436 N 183.609 4.39088 -2.19956 0
M  V30 1437 C 184.358 5.53215 -1.81733 0
M  V30 1438 N 183.761 6.31963 -0.860928 0
M  V30 1439 N 185.511 5.86688 -2.32562 0
M  V30 1440 C 185.968 4.97525 -3.23407 0
M  V30 1441 H 188.137 6.62195 -3.11261 0
M  V30 1442 H 189.32 4.42488 -4.8131 0
M  V30 1443 H 190.805 5.93051 -5.9305 0
M  V30 1444 H 189.11 7.92655 -6.402 0
M  V30 1445 H 188.92 6.26671 -8.0846 0
M  V30 1446 H 187.289 6.29101 -7.32804 0
M  V30 1447 H 182.713 4.25523 -1.77604 0
M  V30 1448 H 187.92 3.75576 -5.47333 0
M  V30 1449 H 182.85 6.04684 -0.468946 0
M  V30 1450 H 184.226 7.18054 -0.542422 0
M  V30 1451 H 189.93 5.84223 -2.47279 0
M  V30 1452 P 191.787 7.39546 -4.75277 0
M  V30 1453 O 193.209 7.84798 -5.01039 0
M  V30 1454 O 191.427 5.9812 -5.08098 0
M  V30 1455 O 191.464 7.57503 -3.1866 0
M  V30 1456 C 191.304 8.97357 -2.74833 0
M  V30 1457 C 191.844 9.07548 -1.32709 0
M  V30 1458 O 190.788 8.62072 -0.606159 0
M  V30 1459 C 193.062 8.25383 -0.938334 0
M  V30 1460 O 193.8 8.74577 0.146954 0
M  V30 1461 C 192.393 6.8802 -0.712559 0
M  V30 1462 O 193.192 6.1189 0.194655 0
M  V30 1463 C 191.056 7.27966 -0.139777 0
M  V30 1464 H 191.088 7.25354 0.961601 0
M  V30 1465 H 192.271 6.32557 -1.65702 0
M  V30 1466 H 193.755 8.19355 -1.79097 0
M  V30 1467 H 192.061 10.1294 -1.10029 0
M  V30 1468 H 191.871 9.64276 -3.41316 0
M  V30 1469 H 190.241 9.25417 -2.76357 0
M  V30 1470 H 192.88 6.25267 1.07847 0
M  V30 1471 P 194.738 8.791 1.12009e-13 0
M  V30 1472 O 196.16 9.31096 0.027933 0
M  V30 1473 O 194.378 7.77869 -1.04071 0
M  V30 1474 O 194.415 8.09533 1.41463 0
M  V30 1475 C 194.255 9.0349 2.53943 0
M  V30 1476 C 194.795 8.35226 3.79016 0
M  V30 1477 O 193.739 7.57992 4.15078 0
M  V30 1478 C 196.013 7.45087 3.67298 0
M  V30 1479 O 196.751 7.27796 4.85194 0
M  V30 1480 C 195.344 6.17323 3.12027 0
M  V30 1481 O 196.143 5.04231 3.47188 0
M  V30 1482 C 194.007 6.19961 3.81809 0
M  V30 1483 H 194.039 5.58218 4.73051 0
M  V30 1484 H 195.222 6.21726 2.02589 0
M  V30 1485 H 196.706 7.86112 2.9231 0
M  V30 1486 H 195.012 9.11627 4.55076 0
M  V30 1487 H 194.822 9.9573 2.34194 0
M  V30 1488 H 193.192 9.2792 2.67832 0
M  V30 1489 H 195.831 4.67702 4.28772 0
M  V30 1490 P 197.688 7.39546 4.75277 0
M  V30 1491 O 199.11 7.81777 5.05738 0
M  V30 1492 O 197.328 7.1065 3.32998 0
M  V30 1493 O 197.365 6.04542 5.56673 0
M  V30 1494 C 197.205 6.22772 7.02095 0
M  V30 1495 C 197.745 4.97725 7.70406 0
M  V30 1496 O 196.689 4.13256 7.58987 0
M  V30 1497 C 198.963 4.28231 7.11815 0
M  V30 1498 O 199.701 3.49945 8.01648 0
M  V30 1499 C 198.294 3.5063 5.96244 0
M  V30 1500 O 199.093 2.36482 5.64681 0
M  V30 1501 C 196.957 3.15122 6.56374 0
M  V30 1502 H 196.989 2.13853 6.99751 0
M  V30 1503 H 198.172 4.13501 5.06559 0
M  V30 1504 H 199.656 5.03285 6.70911 0
M  V30 1505 H 197.962 5.20877 8.75697 0
M  V30 1506 H 197.772 7.11046 7.35349 0
M  V30 1507 H 196.142 6.35815 7.26986 0
M  V30 1508 H 198.781 1.61644 6.13565 0
M  V30 1509 P 200.639 3.65191 7.99657 0
M  V30 1510 O 202.061 3.8425 8.48115 0
M  V30 1511 O 200.279 4.17805 6.64342 0
M  V30 1512 O 200.316 2.07613 7.95143 0
M  V30 1513 C 200.156 1.44328 9.27336 0
M  V30 1514 C 200.696 0.0220036 9.17197 0
M  V30 1515 O 199.64 -0.626867 8.61923 0
M  V30 1516 C 201.914 -0.24586 8.30336 0
M  V30 1517 O 202.652 -1.39011 8.63583 0
M  V30 1518 C 201.245 -0.273849 6.91158 0
M  V30 1519 O 202.044 -1.06348 6.02892 0
M  V30 1520 C 199.908 -0.897649 7.22545 0
M  V30 1521 H 199.94 -1.9841 7.04286 0
M  V30 1522 H 201.123 0.739928 6.497 0
M  V30 1523 H 202.607 0.60668 8.36503 0
M  V30 1524 H 200.913 -0.352479 10.1829 0
M  V30 1525 H 200.723 2.00611 10.0304 0
M  V30 1526 H 199.093 1.41843 9.55327 0
M  V30 1527 H 201.732 -1.95734 6.03555 0
M  V30 1528 P 203.589 -1.25109 8.70152 0
M  V30 1529 O 205.011 -1.35274 9.21221 0
M  V30 1530 O 203.229 -0.0769065 7.84762 0
M  V30 1531 O 203.266 -2.55232 7.81161 0
M  V30 1532 C 203.106 -3.79939 8.58154 0
M  V30 1533 C 203.646 -4.94023 7.72785 0
M  V30 1534 O 202.59 -5.18726 6.91205 0
M  V30 1535 C 204.864 -4.69597 6.85231 0
M  V30 1536 O 205.602 -5.83832 6.51337 0
M  V30 1537 C 204.195 -3.96706 5.66633 0
M  V30 1538 O 204.994 -4.15414 4.49689 0
M  V30 1539 C 202.858 -4.66153 5.59313 0
M  V30 1540 H 202.89 -5.47679 4.85214 0
M  V30 1541 H 204.073 -2.89008 5.86566 0
M  V30 1542 H 205.557 -4.0121 7.36511 0
M  V30 1543 H 203.863 -5.80182 8.37584 0
M  V30 1544 H 203.673 -3.73517 9.52265 0
M  V30 1545 H 202.043 -3.97163 8.80359 0
M  V30 1546 H 204.682 -4.90969 4.01921 0
M  V30 1547 P 206.54 -5.75688 6.64379 0
M  V30 1548 O 207.962 -6.11849 7.01846 0
M  V30 1549 O 206.18 -4.30744 6.56026 0
M  V30 1550 O 206.217 -6.37042 5.19165 0
M  V30 1551 C 206.057 -7.83578 5.16515 0
M  V30 1552 C 206.597 -8.33398 3.83019 0
M  V30 1553 O 205.541 -8.10074 3.01034 0
M  V30 1554 C 207.815 -7.65514 3.2257 0
M  V30 1555 O 208.553 -8.4329 2.32297 0
M  V30 1556 C 207.146 -6.40075 2.62207 0
M  V30 1557 O 207.945 -5.92589 1.53712 0
M  V30 1558 C 205.809 -6.9454 2.18503 0
M  V30 1559 H 205.841 -7.23063 1.12091 0
M  V30 1560 H 207.024 -5.6025 3.37201 0
M  V30 1561 H 208.508 -7.35707 4.02681 0
M  V30 1562 H 206.814 -9.40912 3.9095 0
M  V30 1563 H 206.624 -8.29056 5.99158 0
M  V30 1564 H 204.994 -8.10073 5.25882 0
M  V30 1565 H 207.633 -6.30324 0.726794 0
M  V30 1566 P 209.49 -8.4349 2.47671 0
M  V30 1567 O 210.912 -8.94167 2.5964 0
M  V30 1568 O 209.13 -7.1704 3.19006 0
M  V30 1569 O 209.167 -8.16596 0.923387 0
M  V30 1570 C 209.007 -9.38437 0.108857 0
M  V30 1571 C 209.547 -9.08175 -1.28353 0
M  V30 1572 O 208.491 -8.44229 -1.84713 0
M  V30 1573 C 210.765 -8.18386 -1.42505 0
M  V30 1574 O 211.503 -8.3501 -2.60497 0
M  V30 1575 C 210.096 -6.80225 -1.25468 0
M  V30 1576 O 210.895 -5.81621 -1.91066 0
M  V30 1577 C 208.759 -7.02416 -1.9168 0
M  V30 1578 H 208.791 -6.6888 -2.96621 0
M  V30 1579 H 209.974 -6.53617 -0.192223 0
M  V30 1580 H 211.458 -8.36622 -0.589963 0
M  V30 1581 H 209.764 -10.0291 -1.79807 0
M  V30 1582 H 209.574 -10.2138 0.558219 0
M  V30 1583 H 207.944 -9.6579 0.0444202 0
M  V30 1584 H 210.583 -5.69556 -2.79637 0
M  V30 1585 P 212.441 -8.4349 -2.47671 0
M  V30 1586 O 213.863 -8.92593 -2.65 0
M  V30 1587 O 212.081 -7.7568 -1.19296 0
M  V30 1588 O 212.118 -7.36886 -3.63805 0
M  V30 1589 C 211.958 -7.95349 -4.982 0
M  V30 1590 C 212.498 -6.94612 -5.98974 0
M  V30 1591 O 211.442 -6.10347 -6.11815 0
M  V30 1592 C 213.716 -6.11426 -5.62335 0
M  V30 1593 O 214.454 -5.6162 -6.70584 0
M  V30 1594 C 213.047 -5.04409 -4.73308 0
M  V30 1595 O 213.846 -3.85992 -4.75183 0
M  V30 1596 C 211.71 -4.8728 -5.41006 0
M  V30 1597 H 211.742 -4.02333 -6.11157 0
M  V30 1598 H 212.925 -5.39466 -3.69543 0
M  V30 1599 H 214.409 -6.71916 -5.01943 0
M  V30 1600 H 212.715 -7.4649 -6.93477 0
M  V30 1601 H 212.525 -8.89416 -5.05237 0
M  V30 1602 H 210.895 -8.14876 -5.18409 0
M  V30 1603 H 213.534 -3.27957 -5.4317 0
M  V30 1604 P 215.392 -5.75688 -6.64379 0
M  V30 1605 O 216.813 -6.07692 -7.0558 0
M  V30 1606 O 215.032 -5.88047 -5.19722 0
M  V30 1607 O 215.069 -4.2322 -7.04443 0
M  V30 1608 C 214.908 -3.99785 -8.49201 0
M  V30 1609 C 215.449 -2.60516 -8.79425 0
M  V30 1610 O 214.394 -1.82663 -8.44573 0
M  V30 1611 C 216.667 -2.10343 -8.03628 0
M  V30 1612 O 217.405 -1.09919 -8.67766 0
M  V30 1613 C 215.999 -1.68446 -6.70876 0
M  V30 1614 O 216.797 -0.684109 -6.08265 0
M  V30 1615 C 214.661 -1.17436 -7.18567 0
M  V30 1616 N 213.618 -1.52699 -6.23988 0
M  V30 1617 C 213.787 -2.578 -5.40574 0
M  V30 1618 N 212.76 -2.78966 -4.61193 0
M  V30 1619 C 211.875 -1.78725 -4.95769 0
M  V30 1620 C 210.608 -1.45727 -4.44207 0
M  V30 1621 N 210.009 -2.13994 -3.43613 0
M  V30 1622 N 210.043 -0.374977 -5.05812 0
M  V30 1623 C 210.645 0.345585 -6.05615 0
M  V30 1624 N 211.822 0.0787651 -6.56253 0
M  V30 1625 C 212.397 -1.00499 -5.96189 0
M  V30 1626 H 214.693 -0.0804622 -7.31556 0
M  V30 1627 H 215.876 -2.53396 -6.02698 0
M  V30 1628 H 217.359 -2.93881 -7.85526 0
M  V30 1629 H 215.665 -2.52078 -9.87225 0
M  V30 1630 H 215.475 -4.75072 -9.05887 0
M  V30 1631 H 213.845 -4.05244 -8.76668 0
M  V30 1632 H 210.109 1.20098 -6.4532 0
M  V30 1633 H 214.687 -3.18977 -5.3945 0
M  V30 1634 H 209.079 -1.84983 -3.10004 0
M  V30 1635 H 210.483 -2.9465 -3.00843 0
M  V30 1636 H 216.485 0.177619 -6.34151 0
M  V30 1637 P 218.342 -1.25109 -8.70152 0
M  V30 1638 O 219.763 -1.29758 -9.22115 0
M  V30 1639 O 217.982 -2.13714 -7.55141 0
M  V30 1640 O 218.019 0.248149 -8.21425 0
M  V30 1641 C 217.858 1.22792 -9.30533 0
M  V30 1642 C 218.399 2.56293 -8.80664 0
M  V30 1643 O 217.344 3.02944 -8.09255 0
M  V30 1644 C 219.617 2.57523 -7.89775 0
M  V30 1645 O 220.355 3.7668 -7.89438 0
M  V30 1646 C 218.949 2.20997 -6.55446 0
M  V30 1647 O 219.747 2.71302 -5.48691 0
M  V30 1648 C 217.611 2.89693 -6.67988 0
M  V30 1649 N 216.568 2.08895 -6.07487 0
M  V30 1650 C 216.737 0.753809 -5.94137 0
M  V30 1651 N 215.71 0.146592 -5.38801 0
M  V30 1652 C 214.825 1.1768 -5.13693 0
M  V30 1653 C 213.558 1.17563 -4.52477 0
M  V30 1654 N 212.959 0.057481 -4.04759 0
M  V30 1655 N 212.993 2.41918 -4.45789 0
M  V30 1656 C 213.595 3.56493 -4.90792 0
M  V30 1657 N 214.772 3.61423 -5.47817 0
M  V30 1658 C 215.347 2.37779 -5.5588 0
M  V30 1659 H 217.643 3.8874 -6.19774 0
M  V30 1660 H 218.826 1.12673 -6.44018 0
M  V30 1661 H 220.309 1.7746 -8.19711 0
M  V30 1662 H 218.615 3.21673 -9.66791 0
M  V30 1663 H 218.425 0.901032 -10.1892 0
M  V30 1664 H 216.795 1.33049 -9.56592 0
M  V30 1665 H 213.059 4.49919 -4.77947 0
M  V30 1666 H 217.637 0.233081 -6.26266 0
M  V30 1667 H 212.029 0.119831 -3.60801 0
M  V30 1668 H 213.433 -0.852272 -4.12385 0
M  V30 1669 H 219.435 3.5779 -5.23879 0
M  V30 1670 P 221.293 3.65191 -7.99657 0
M  V30 1671 O 222.714 3.89374 -8.45885 0
M  V30 1672 O 220.933 2.28472 -7.50807 0
M  V30 1673 O 220.97 4.64972 -6.77611 0
M  V30 1674 C 220.809 6.06383 -7.16428 0
M  V30 1675 C 221.35 6.91731 -6.02299 0
M  V30 1676 O 220.295 6.92369 -5.17005 0
M  V30 1677 C 222.568 6.43627 -5.25174 0
M  V30 1678 O 223.306 7.43686 -4.60469 0
M  V30 1679 C 221.9 5.40275 -4.31916 0
M  V30 1680 O 222.698 5.24878 -3.14911 0
M  V30 1681 C 220.562 6.04847 -4.05327 0
M  V30 1682 N 219.519 5.04166 -3.98114 0
M  V30 1683 C 219.688 3.84629 -4.59066 0
M  V30 1684 N 218.661 3.0363 -4.45343 0
M  V30 1685 C 217.776 3.76722 -3.68523 0
M  V30 1686 C 216.509 3.43528 -3.17088 0
M  V30 1687 N 215.944 4.44526 -2.44231 0
M  V30 1688 C 216.546 5.65243 -2.20146 0
M  V30 1689 N 217.723 6.00221 -2.65453 0
M  V30 1690 C 218.298 5.00564 -3.39083 0
M  V30 1691 H 221.777 4.42969 -4.80867 0
M  V30 1692 H 223.26 5.92458 -5.93643 0
M  V30 1693 H 221.566 7.93295 -6.39407 0
M  V30 1694 H 221.376 6.26671 -8.0846 0
M  V30 1695 H 219.746 6.29101 -7.32804 0
M  V30 1696 H 220.588 3.58193 -5.14248 0
M  V30 1697 H 222.386 5.84223 -2.47279 0
M  V30 1698 P 224.243 7.39546 -4.75277 0
M  V30 1699 O 225.665 7.84798 -5.01039 0
M  V30 1700 O 223.883 5.9812 -5.08098 0
M  V30 1701 O 223.92 7.57503 -3.1866 0
M  V30 1702 C 223.76 8.97357 -2.74833 0
M  V30 1703 C 224.3 9.07548 -1.32709 0
M  V30 1704 O 223.244 8.62072 -0.606159 0
M  V30 1705 C 225.518 8.25383 -0.938334 0
M  V30 1706 O 226.256 8.74577 0.146954 0
M  V30 1707 C 224.849 6.8802 -0.712559 0
M  V30 1708 O 225.648 6.1189 0.194655 0
M  V30 1709 C 223.512 7.27966 -0.139777 0
M  V30 1710 H 223.544 7.25354 0.961601 0
M  V30 1711 H 224.727 6.32557 -1.65702 0
M  V30 1712 H 226.211 8.19355 -1.79097 0
M  V30 1713 H 224.517 10.1294 -1.10029 0
M  V30 1714 H 224.327 9.64276 -3.41316 0
M  V30 1715 H 222.697 9.25417 -2.76357 0
M  V30 1716 H 225.336 6.25267 1.07847 0
M  V30 1717 P 227.194 8.791 4.22174e-13 0
M  V30 1718 O 228.616 9.31096 0.027933 0
M  V30 1719 O 226.834 7.77869 -1.04071 0
M  V30 1720 O 226.871 8.09533 1.41463 0
M  V30 1721 C 226.711 9.0349 2.53943 0
M  V30 1722 C 227.251 8.35226 3.79016 0
M  V30 1723 O 226.195 7.57992 4.15078 0
M  V30 1724 C 228.469 7.45087 3.67298 0
M  V30 1725 O 229.207 7.27796 4.85194 0
M  V30 1726 C 227.8 6.17323 3.12027 0
M  V30 1727 O 228.599 5.04231 3.47188 0
M  V30 1728 C 226.463 6.19961 3.81809 0
M  V30 1729 H 226.495 5.58218 4.73051 0
M  V30 1730 H 227.678 6.21726 2.02589 0
M  V30 1731 H 229.162 7.86112 2.9231 0
M  V30 1732 H 227.468 9.11627 4.55076 0
M  V30 1733 H 227.278 9.9573 2.34194 0
M  V30 1734 H 225.648 9.2792 2.67832 0
M  V30 1735 H 228.287 4.67702 4.28772 0
M  V30 1736 P 230.144 7.39546 4.75277 0
M  V30 1737 O 231.566 7.81777 5.05738 0
M  V30 1738 O 229.784 7.1065 3.32998 0
M  V30 1739 O 229.821 6.04542 5.56673 0
M  V30 1740 C 229.661 6.22772 7.02095 0
M  V30 1741 C 230.201 4.97725 7.70406 0
M  V30 1742 O 229.145 4.13256 7.58987 0
M  V30 1743 C 231.419 4.28231 7.11815 0
M  V30 1744 O 232.157 3.49945 8.01648 0
M  V30 1745 C 230.75 3.5063 5.96244 0
M  V30 1746 O 231.549 2.36482 5.64681 0
M  V30 1747 C 229.413 3.15122 6.56374 0
M  V30 1748 H 229.445 2.13853 6.99751 0
M  V30 1749 H 230.628 4.13501 5.06559 0
M  V30 1750 H 232.112 5.03285 6.70911 0
M  V30 1751 H 230.418 5.20877 8.75697 0
M  V30 1752 H 230.228 7.11046 7.35349 0
M  V30 1753 H 228.598 6.35815 7.26986 0
M  V30 1754 H 231.237 1.61644 6.13565 0
M  V30 1755 P 233.095 3.65191 7.99657 0
M  V30 1756 O 234.517 3.8425 8.48115 0
M  V30 1757 O 232.735 4.17805 6.64342 0
M  V30 1758 O 232.772 2.07613 7.95143 0
M  V30 1759 C 232.612 1.44328 9.27336 0
M  V30 1760 C 233.152 0.0220036 9.17197 0
M  V30 1761 O 232.096 -0.626867 8.61923 0
M  V30 1762 C 234.37 -0.24586 8.30336 0
M  V30 1763 O 235.108 -1.39011 8.63583 0
M  V30 1764 C 233.701 -0.273849 6.91158 0
M  V30 1765 O 234.5 -1.06348 6.02892 0
M  V30 1766 C 232.364 -0.897649 7.22545 0
M  V30 1767 H 232.396 -1.9841 7.04286 0
M  V30 1768 H 233.579 0.739928 6.497 0
M  V30 1769 H 235.063 0.60668 8.36503 0
M  V30 1770 H 233.369 -0.352479 10.1829 0
M  V30 1771 H 233.179 2.00611 10.0304 0
M  V30 1772 H 231.549 1.41843 9.55327 0
M  V30 1773 H 234.188 -1.95734 6.03555 0
M  V30 1774 P 236.046 -1.25109 8.70152 0
M  V30 1775 O 237.468 -1.35274 9.21221 0
M  V30 1776 O 235.686 -0.0769065 7.84762 0
M  V30 1777 O 235.723 -2.55232 7.81161 0
M  V30 1778 C 235.563 -3.79939 8.58154 0
M  V30 1779 C 236.103 -4.94023 7.72785 0
M  V30 1780 O 235.047 -5.18726 6.91205 0
M  V30 1781 C 237.321 -4.69597 6.85231 0
M  V30 1782 O 238.059 -5.83832 6.51337 0
M  V30 1783 C 236.652 -3.96706 5.66633 0
M  V30 1784 O 237.451 -4.15414 4.49689 0
M  V30 1785 C 235.315 -4.66153 5.59313 0
M  V30 1786 H 235.347 -5.47679 4.85214 0
M  V30 1787 H 236.53 -2.89008 5.86566 0
M  V30 1788 H 238.014 -4.0121 7.36511 0
M  V30 1789 H 236.32 -5.80182 8.37584 0
M  V30 1790 H 236.13 -3.73517 9.52265 0
M  V30 1791 H 234.5 -3.97163 8.80359 0
M  V30 1792 H 237.139 -4.90969 4.01921 0
M  V30 1793 P 238.996 -5.75688 6.64379 0
M  V30 1794 O 240.397 -6.11991 7.09136 0
M  V30 1795 O 238.618 -4.30899 6.62018 0
M  V30 1796 O 238.673 -6.36965 5.19102 0
M  V30 1797 C 238.513 -7.83578 5.16515 0
M  V30 1798 C 239.053 -8.33307 3.82977 0
M  V30 1799 O 237.997 -8.0998 3.00999 0
M  V30 1800 C 240.27 -7.65514 3.2257 0
M  V30 1801 O 241.009 -8.4329 2.32297 0
M  V30 1802 C 239.603 -6.40075 2.62207 0
M  V30 1803 O 240.401 -5.92492 1.53687 0
M  V30 1804 C 238.265 -6.9454 2.18503 0
M  V30 1805 N 237.222 -5.95905 2.39948 0
M  V30 1806 C 236.187 -5.89764 1.49837 0
M  V30 1807 O 236.226 -6.64088 0.490975 0
M  V30 1808 N 235.175 -5.02821 1.70992 0
M  V30 1809 C 235.223 -4.21498 2.77236 0
M  V30 1810 C 236.319 -4.23389 3.68205 0
M  V30 1811 C 237.285 -5.12792 3.46171 0
M  V30 1812 H 238.297 -7.22964 1.12076 0
M  V30 1813 H 239.48 -5.60502 3.36589 0
M  V30 1814 H 240.964 -7.36197 4.01993 0
M  V30 1815 H 239.27 -9.41302 3.90009 0
M  V30 1816 H 239.079 -8.29056 5.99158 0
M  V30 1817 H 237.449 -8.09989 5.25828 0
M  V30 1818 H 236.367 -3.54747 4.52399 0
M  V30 1819 H 238.131 -5.18551 4.1489 0
M  V30 1820 H 240.185 -6.40705 0.751752 0
M  V30 1821 P 241.947 -8.4349 2.47671 0
M  V30 1822 O 243.369 -8.94167 2.5964 0
M  V30 1823 O 241.587 -7.1704 3.19006 0
M  V30 1824 O 241.624 -8.16596 0.923387 0
M  V30 1825 C 241.464 -9.38437 0.108857 0
M  V30 1826 C 242.004 -9.08175 -1.28353 0
M  V30 1827 O 240.948 -8.44229 -1.84713 0
M  V30 1828 C 243.222 -8.18386 -1.42505 0
M  V30 1829 O 243.96 -8.3501 -2.60497 0
M  V30 1830 C 242.553 -6.80225 -1.25468 0
M  V30 1831 O 243.352 -5.81621 -1.91066 0
M  V30 1832 C 241.216 -7.02416 -1.9168 0
M  V30 1833 H 241.248 -6.6888 -2.96621 0
M  V30 1834 H 242.431 -6.53617 -0.192223 0
M  V30 1835 H 243.915 -8.36622 -0.589963 0
M  V30 1836 H 242.221 -10.0291 -1.79807 0
M  V30 1837 H 242.031 -10.2138 0.558219 0
M  V30 1838 H 240.401 -9.6579 0.0444202 0
M  V30 1839 H 243.04 -5.69556 -2.79637 0
M  V30 1840 P 244.897 -8.4349 -2.47671 0
M  V30 1841 O 246.319 -8.92593 -2.65 0
M  V30 1842 O 244.537 -7.7568 -1.19296 0
M  V30 1843 O 244.574 -7.36886 -3.63805 0
M  V30 1844 C 244.414 -7.95349 -4.982 0
M  V30 1845 C 244.954 -6.94612 -5.98974 0
M  V30 1846 O 243.898 -6.10347 -6.11815 0
M  V30 1847 C 246.172 -6.11426 -5.62335 0
M  V30 1848 O 246.91 -5.6162 -6.70584 0
M  V30 1849 C 245.503 -5.04409 -4.73308 0
M  V30 1850 O 246.302 -3.85992 -4.75183 0
M  V30 1851 C 244.166 -4.8728 -5.41006 0
M  V30 1852 H 244.198 -4.02333 -6.11157 0
M  V30 1853 H 245.381 -5.39466 -3.69543 0
M  V30 1854 H 246.865 -6.71916 -5.01943 0
M  V30 1855 H 245.171 -7.4649 -6.93477 0
M  V30 1856 H 244.981 -8.89416 -5.05237 0
M  V30 1857 H 243.351 -8.14876 -5.18409 0
M  V30 1858 H 245.99 -3.27957 -5.4317 0
M  V30 1859 P 247.848 -5.75688 -6.64379 0
M  V30 1860 O 249.27 -6.07627 -7.05504 0
M  V30 1861 O 247.488 -5.88047 -5.19722 0
M  V30 1862 O 247.525 -4.2322 -7.04443 0
M  V30 1863 C 247.365 -3.99743 -8.4911 0
M  V30 1864 C 247.905 -2.60516 -8.79425 0
M  V30 1865 O 246.849 -1.82684 -8.4467 0
M  V30 1866 C 249.123 -2.10343 -8.03628 0
M  V30 1867 O 249.861 -1.09919 -8.67766 0
M  V30 1868 C 248.454 -1.68446 -6.70876 0
M  V30 1869 O 249.253 -0.678137 -6.08433 0
M  V30 1870 C 247.117 -1.17436 -7.18567 0
M  V30 1871 H 247.149 -0.0804732 -7.31656 0
M  V30 1872 H 248.332 -2.54037 -6.02537 0
M  V30 1873 H 249.816 -2.93881 -7.85526 0
M  V30 1874 H 248.122 -2.53065 -9.86973 0
M  V30 1875 H 247.932 -4.75072 -9.05887 0
M  V30 1876 H 246.302 -4.05244 -8.76668 0
M  V30 1877 H 248.941 0.177647 -6.34251 0
M  V30 1878 P 250.798 -1.25109 -8.70152 0
M  V30 1879 O 252.22 -1.29744 -9.22016 0
M  V30 1880 O 250.438 -2.13714 -7.55141 0
M  V30 1881 O 250.475 0.248149 -8.21425 0
M  V30 1882 C 250.315 1.22779 -9.30434 0
M  V30 1883 C 250.855 2.56293 -8.80664 0
M  V30 1884 O 249.799 3.02979 -8.09349 0
M  V30 1885 C 252.073 2.57523 -7.89775 0
M  V30 1886 O 252.811 3.7668 -7.89438 0
M  V30 1887 C 251.404 2.20997 -6.55446 0
M  V30 1888 O 252.203 2.71895 -5.48509 0
M  V30 1889 C 250.067 2.89693 -6.67988 0
M  V30 1890 H 250.099 3.88793 -6.19859 0
M  V30 1891 H 251.282 1.12046 -6.44229 0
M  V30 1892 H 252.766 1.7746 -8.19711 0
M  V30 1893 H 251.072 3.20706 -9.67112 0
M  V30 1894 H 250.882 0.901032 -10.1892 0
M  V30 1895 H 249.252 1.33049 -9.56592 0
M  V30 1896 H 251.891 3.57847 -5.23962 0
M  V30 1897 P 253.749 3.65191 -7.99657 0
M  V30 1898 O 255.171 3.89332 -8.45794 0
M  V30 1899 O 253.389 2.28472 -7.50807 0
M  V30 1900 O 253.426 4.64972 -6.77611 0
M  V30 1901 C 253.266 6.06319 -7.16352 0
M  V30 1902 C 253.806 6.91731 -6.02299 0
M  V30 1903 O 252.75 6.92449 -5.17064 0
M  V30 1904 C 255.024 6.43627 -5.25174 0
M  V30 1905 O 255.762 7.43686 -4.60469 0
M  V30 1906 C 254.355 5.40275 -4.31916 0
M  V30 1907 O 255.154 5.25279 -3.14438 0
M  V30 1908 C 253.018 6.04847 -4.05327 0
M  V30 1909 H 253.05 6.62195 -3.11261 0
M  V30 1910 H 254.233 4.42556 -4.81383 0
M  V30 1911 H 255.717 5.92458 -5.93643 0
M  V30 1912 H 254.023 7.92655 -6.402 0
M  V30 1913 H 253.833 6.26671 -8.0846 0
M  V30 1914 H 252.203 6.29101 -7.32804 0
M  V30 1915 H 254.842 5.84315 -2.47318 0
M  V30 1916 P 256.7 7.39546 -4.75277 0
M  V30 1917 O 258.122 7.84798 -5.01039 0
M  V30 1918 O 256.34 5.9812 -5.08098 0
M  V30 1919 O 256.377 7.57503 -3.1866 0
M  V30 1920 C 256.217 8.97357 -2.74833 0
M  V30 1921 C 256.757 9.07548 -1.32709 0
M  V30 1922 O 255.701 8.62072 -0.606159 0
M  V30 1923 C 257.975 8.25383 -0.938334 0
M  V30 1924 O 258.713 8.74577 0.146954 0
M  V30 1925 C 257.306 6.8802 -0.712559 0
M  V30 1926 O 258.105 6.1189 0.194655 0
M  V30 1927 C 255.969 7.27966 -0.139777 0
M  V30 1928 H 256.001 7.25354 0.961601 0
M  V30 1929 H 257.184 6.32557 -1.65702 0
M  V30 1930 H 258.668 8.19355 -1.79097 0
M  V30 1931 H 256.974 10.1294 -1.10029 0
M  V30 1932 H 256.784 9.64276 -3.41316 0
M  V30 1933 H 255.154 9.25417 -2.76357 0
M  V30 1934 H 257.793 6.25267 1.07847 0
M  V30 1935 P 259.65 8.791 7.3234e-13 0
M  V30 1936 O 261.071 9.31196 0.027936 0
M  V30 1937 O 259.29 7.77869 -1.04071 0
M  V30 1938 O 259.327 8.09533 1.41463 0
M  V30 1939 C 259.166 9.03587 2.5397 0
M  V30 1940 C 259.707 8.35226 3.79016 0
M  V30 1941 O 258.652 7.57904 4.1503 0
M  V30 1942 C 260.925 7.45087 3.67298 0
M  V30 1943 O 261.663 7.27796 4.85194 0
M  V30 1944 C 260.257 6.17323 3.12027 0
M  V30 1945 O 261.055 5.04496 3.46627 0
M  V30 1946 C 258.919 6.19961 3.81809 0
M  V30 1947 N 257.876 5.71575 2.93223 0
M  V30 1948 C 258.045 5.77362 1.59168 0
M  V30 1949 N 257.018 5.3123 0.911893 0
M  V30 1950 C 256.133 4.91717 1.89588 0
M  V30 1951 C 254.866 4.3114 1.8076 0
M  V30 1952 N 254.267 3.99821 0.632928 0
M  V30 1953 N 254.301 4.06823 3.02898 0
M  V30 1954 C 254.903 4.35062 4.22711 0
M  V30 1955 N 256.08 4.90805 4.35707 0
M  V30 1956 C 256.655 5.16382 3.14469 0
M  V30 1957 H 258.951 5.58142 4.72986 0
M  V30 1958 H 260.134 6.21428 2.0318 0
M  V30 1959 H 261.617 7.86112 2.9231 0
M  V30 1960 H 259.923 9.11171 4.55987 0
M  V30 1961 H 259.733 9.9573 2.34194 0
M  V30 1962 H 258.103 9.2792 2.67832 0
M  V30 1963 H 254.367 4.09052 5.13359 0
M  V30 1964 H 258.945 6.16575 1.12198 0
M  V30 1965 H 253.337 3.55423 0.632085 0
M  V30 1966 H 254.741 4.20317 -0.256712 0
M  V30 1967 H 260.743 4.67628 4.28704 0
M  V30 1968 P 262.601 7.39546 4.75277 0
M  V30 1969 O 264.023 7.81945 5.05847 0
M  V30 1970 O 262.241 7.1065 3.32998 0
M  V30 1971 O 262.278 6.04542 5.56673 0
M  V30 1972 C 262.118 6.22772 7.02095 0
M  V30 1973 C 262.658 4.97671 7.70322 0
M  V30 1974 O 261.603 4.13256 7.58987 0
M  V30 1975 C 263.876 4.28231 7.11815 0
M  V30 1976 O 264.614 3.49945 8.01648 0
M  V30 1977 C 263.208 3.5063 5.96244 0
M  V30 1978 O 264.006 2.36443 5.64589 0
M  V30 1979 C 261.87 3.15122 6.56374 0
M  V30 1980 N 260.827 3.22311 5.55692 0
M  V30 1981 C 260.889 4.14382 4.59701 0
M  V30 1982 N 259.844 4.04476 3.76958 0
M  V30 1983 C 259.11 3.04892 4.26534 0
M  V30 1984 C 257.804 2.57447 3.88189 0
M  V30 1985 O 257.071 2.9785 2.96543 0
M  V30 1986 N 257.374 1.55228 4.65922 0
M  V30 1987 C 258.123 1.01152 5.73447 0
M  V30 1988 N 257.526 -0.0472117 6.37783 0
M  V30 1989 N 259.276 1.467 6.13813 0
M  V30 1990 C 259.733 2.4931 5.38487 0
M  V30 1991 H 261.902 2.13853 6.99751 0
M  V30 1992 H 263.085 4.13438 5.06482 0
M  V30 1993 H 264.57 5.02614 6.71414 0
M  V30 1994 H 262.875 5.20877 8.75697 0
M  V30 1995 H 262.685 7.11046 7.35349 0
M  V30 1996 H 261.054 6.35815 7.26986 0
M  V30 1997 H 256.478 1.15238 4.46468 0
M  V30 1998 H 261.685 4.88312 4.49647 0
M  V30 1999 H 256.615 -0.396382 6.05203 0
M  V30 2000 H 257.991 -0.484997 7.18465 0
M  V30 2001 H 263.695 1.61619 6.13468 0
M  V30 2002 P 265.551 3.65191 7.99657 0
M  V30 2003 O 266.952 3.90823 8.51272 0
M  V30 2004 O 265.173 4.23191 6.66972 0
M  V30 2005 O 265.228 2.07587 7.95046 0
M  V30 2006 C 265.068 1.44328 9.27336 0
M  V30 2007 C 265.608 0.0220012 9.17097 0
M  V30 2008 O 264.552 -0.626794 8.61824 0
M  V30 2009 C 266.825 -0.24586 8.30336 0
M  V30 2010 O 267.564 -1.39011 8.63583 0
M  V30 2011 C 266.158 -0.273849 6.91158 0
M  V30 2012 O 266.956 -1.06331 6.02794 0
M  V30 2013 C 264.82 -0.897649 7.22545 0
M  V30 2014 N 263.777 -0.292839 6.41732 0
M  V30 2015 C 262.742 -1.08701 5.98712 0
M  V30 2016 O 262.781 -2.31211 6.24471 0
M  V30 2017 N 261.73 -0.533391 5.28415 0
M  V30 2018 C 261.778 0.770866 4.98576 0
M  V30 2019 N 260.768 1.29482 4.30134 0
M  V30 2020 C 262.874 1.59049 5.38086 0
M  V30 2021 C 263.84 1.01866 6.10256 0
M  V30 2022 H 264.852 -1.98383 7.04189 0
M  V30 2023 H 266.035 0.733318 6.49674 0
M  V30 2024 H 267.519 0.598386 8.36663 0
M  V30 2025 H 265.825 -0.362662 10.1825 0
M  V30 2026 H 265.634 2.00611 10.0304 0
M  V30 2027 H 264.004 1.41828 9.55228 0
M  V30 2028 H 262.922 2.6415 5.10622 0
M  V30 2029 H 264.686 1.61983 6.44042 0
M  V30 2030 H 259.978 0.69888 4.01361 0
M  V30 2031 H 260.773 2.29327 4.05781 0
M  V30 2032 H 266.74 -1.97777 6.14035 0
M  V30 2033 P 268.502 -1.25109 8.70152 0
M  V30 2034 O 269.924 -1.35274 9.21221 0
M  V30 2035 O 268.142 -0.0769065 7.84762 0
M  V30 2036 O 268.179 -2.55232 7.81161 0
M  V30 2037 C 268.019 -3.79939 8.58154 0
M  V30 2038 C 268.559 -4.94023 7.72785 0
M  V30 2039 O 267.503 -5.18726 6.91205 0
M  V30 2040 C 269.777 -4.69597 6.85231 0
M  V30 2041 O 270.515 -5.83832 6.51337 0
M  V30 2042 C 269.108 -3.96706 5.66633 0
M  V30 2043 O 269.907 -4.15414 4.49689 0
M  V30 2044 C 267.771 -4.66153 5.59313 0
M  V30 2045 H 267.803 -5.47679 4.85214 0
M  V30 2046 H 268.986 -2.89008 5.86566 0
M  V30 2047 H 270.47 -4.0121 7.36511 0
M  V30 2048 H 268.776 -5.80182 8.37584 0
M  V30 2049 H 268.586 -3.73517 9.52265 0
M  V30 2050 H 266.956 -3.97163 8.80359 0
M  V30 2051 H 269.595 -4.90969 4.01921 0
M  V30 2052 P 271.452 -5.75688 6.64379 0
M  V30 2053 O 272.874 -6.11849 7.01846 0
M  V30 2054 O 271.092 -4.30744 6.56026 0
M  V30 2055 O 271.129 -6.37042 5.19165 0
M  V30 2056 C 270.969 -7.83578 5.16515 0
M  V30 2057 C 271.509 -8.33398 3.83019 0
M  V30 2058 O 270.453 -8.10074 3.01034 0
M  V30 2059 C 272.727 -7.65514 3.2257 0
M  V30 2060 O 273.465 -8.4329 2.32297 0
M  V30 2061 C 272.058 -6.40075 2.62207 0
M  V30 2062 O 272.857 -5.92589 1.53712 0
M  V30 2063 C 270.721 -6.9454 2.18503 0
M  V30 2064 H 270.753 -7.23063 1.12091 0
M  V30 2065 H 271.936 -5.6025 3.37201 0
M  V30 2066 H 273.42 -7.35707 4.02681 0
M  V30 2067 H 271.726 -9.40912 3.9095 0
M  V30 2068 H 271.536 -8.29056 5.99158 0
M  V30 2069 H 269.906 -8.10073 5.25882 0
M  V30 2070 H 272.545 -6.30324 0.726794 0
M  V30 2071 P 274.403 -8.4349 2.47671 0
M  V30 2072 O 275.824 -8.94263 2.59668 0
M  V30 2073 O 274.043 -7.1704 3.19006 0
M  V30 2074 O 274.08 -8.16596 0.923387 0
M  V30 2075 C 273.919 -9.38537 0.108869 0
M  V30 2076 C 274.46 -9.08175 -1.28353 0
M  V30 2077 O 273.405 -8.44131 -1.84692 0
M  V30 2078 C 275.678 -8.18386 -1.42505 0
M  V30 2079 O 276.416 -8.3501 -2.60497 0
M  V30 2080 C 275.01 -6.80225 -1.25468 0
M  V30 2081 O 275.808 -5.81716 -1.90454 0
M  V30 2082 C 273.672 -7.02416 -1.9168 0
M  V30 2083 N 272.629 -6.31033 -1.20314 0
M  V30 2084 C 272.798 -5.98817 0.0994088 0
M  V30 2085 N 271.771 -5.35403 0.621694 0
M  V30 2086 C 270.886 -5.25212 -0.43376 0
M  V30 2087 C 269.619 -4.64602 -0.519722 0
M  V30 2088 N 269.054 -4.7568 -1.76013 0
M  V30 2089 C 269.656 -5.3653 -2.83017 0
M  V30 2090 N 270.833 -5.93676 -2.79782 0
M  V30 2091 C 271.408 -5.84061 -1.56249 0
M  V30 2092 H 274.887 -6.53498 -0.198729 0
M  V30 2093 H 276.37 -8.36622 -0.589963 0
M  V30 2094 H 274.676 -10.0273 -1.8081 0
M  V30 2095 H 274.486 -10.2138 0.558219 0
M  V30 2096 H 272.856 -9.6579 0.0444202 0
M  V30 2097 H 273.698 -6.23209 0.660562 0
M  V30 2098 H 275.496 -5.69466 -2.79593 0
M  V30 2099 P 277.354 -8.4349 -2.47671 0
M  V30 2100 O 278.776 -8.92593 -2.65 0
M  V30 2101 O 276.994 -7.7568 -1.19296 0
M  V30 2102 O 277.031 -7.36886 -3.63805 0
M  V30 2103 C 276.871 -7.95349 -4.982 0
M  V30 2104 C 277.411 -6.94612 -5.98974 0
M  V30 2105 O 276.355 -6.10347 -6.11815 0
M  V30 2106 C 278.629 -6.11426 -5.62335 0
M  V30 2107 O 279.367 -5.6162 -6.70584 0
M  V30 2108 C 277.96 -5.04409 -4.73308 0
M  V30 2109 O 278.759 -3.85992 -4.75183 0
M  V30 2110 C 276.623 -4.8728 -5.41006 0
M  V30 2111 H 276.655 -4.02333 -6.11157 0
M  V30 2112 H 277.838 -5.39466 -3.69543 0
M  V30 2113 H 279.322 -6.71916 -5.01943 0
M  V30 2114 H 277.628 -7.4649 -6.93477 0
M  V30 2115 H 277.438 -8.89416 -5.05237 0
M  V30 2116 H 275.808 -8.14876 -5.18409 0
M  V30 2117 H 278.447 -3.27957 -5.4317 0
M  V30 2118 P 280.304 -5.75688 -6.64379 0
M  V30 2119 O 281.726 -6.07627 -7.05504 0
M  V30 2120 O 279.944 -5.88047 -5.19722 0
M  V30 2121 O 279.981 -4.2322 -7.04443 0
M  V30 2122 C 279.821 -3.99743 -8.4911 0
M  V30 2123 C 280.361 -2.60516 -8.79425 0
M  V30 2124 O 279.305 -1.82684 -8.4467 0
M  V30 2125 C 281.579 -2.10343 -8.03628 0
M  V30 2126 O 282.317 -1.09919 -8.67766 0
M  V30 2127 C 280.91 -1.68446 -6.70876 0
M  V30 2128 O 281.709 -0.678137 -6.08433 0
M  V30 2129 C 279.573 -1.17436 -7.18567 0
M  V30 2130 H 279.605 -0.0804732 -7.31656 0
M  V30 2131 H 280.788 -2.54037 -6.02537 0
M  V30 2132 H 282.272 -2.93881 -7.85526 0
M  V30 2133 H 280.578 -2.53065 -9.86973 0
M  V30 2134 H 280.388 -4.75072 -9.05887 0
M  V30 2135 H 278.758 -4.05244 -8.76668 0
M  V30 2136 H 281.397 0.177647 -6.34251 0
M  V30 2137 P 283.255 -1.25109 -8.70152 0
M  V30 2138 O 284.677 -1.29744 -9.22016 0
M  V30 2139 O 282.895 -2.13714 -7.55141 0
M  V30 2140 O 282.932 0.248149 -8.21425 0
M  V30 2141 C 282.772 1.22779 -9.30434 0
M  V30 2142 C 283.312 2.56293 -8.80664 0
M  V30 2143 O 282.256 3.02979 -8.09349 0
M  V30 2144 C 284.53 2.57523 -7.89775 0
M  V30 2145 O 285.268 3.7668 -7.89438 0
M  V30 2146 C 283.861 2.20997 -6.55446 0
M  V30 2147 O 284.66 2.71895 -5.48509 0
M  V30 2148 C 282.524 2.89693 -6.67988 0
M  V30 2149 H 282.556 3.88793 -6.19859 0
M  V30 2150 H 283.739 1.12046 -6.44229 0
M  V30 2151 H 285.223 1.7746 -8.19711 0
M  V30 2152 H 283.529 3.20706 -9.67112 0
M  V30 2153 H 283.339 0.901032 -10.1892 0
M  V30 2154 H 281.709 1.33049 -9.56592 0
M  V30 2155 H 284.348 3.57847 -5.23962 0
M  V30 2156 P 286.205 3.65191 -7.99657 0
M  V30 2157 O 287.627 3.89332 -8.45794 0
M  V30 2158 O 285.845 2.28472 -7.50807 0
M  V30 2159 O 285.882 4.64972 -6.77611 0
M  V30 2160 C 285.722 6.06319 -7.16352 0
M  V30 2161 C 286.262 6.91731 -6.02299 0
M  V30 2162 O 285.206 6.92449 -5.17064 0
M  V30 2163 C 287.48 6.43627 -5.25174 0
M  V30 2164 O 288.218 7.43686 -4.60469 0
M  V30 2165 C 286.811 5.40275 -4.31916 0
M  V30 2166 O 287.61 5.25279 -3.14438 0
M  V30 2167 C 285.474 6.04847 -4.05327 0
M  V30 2168 H 285.506 6.62195 -3.11261 0
M  V30 2169 H 286.689 4.42556 -4.81383 0
M  V30 2170 H 288.173 5.92458 -5.93643 0
M  V30 2171 H 286.479 7.92655 -6.402 0
M  V30 2172 H 286.289 6.26671 -8.0846 0
M  V30 2173 H 284.659 6.29101 -7.32804 0
M  V30 2174 H 287.298 5.84315 -2.47318 0
M  V30 2175 P 289.156 7.39546 -4.75277 0
M  V30 2176 O 290.578 7.84798 -5.01039 0
M  V30 2177 O 288.796 5.9812 -5.08098 0
M  V30 2178 O 288.833 7.57503 -3.1866 0
M  V30 2179 C 288.673 8.97357 -2.74833 0
M  V30 2180 C 289.213 9.07548 -1.32709 0
M  V30 2181 O 288.157 8.62072 -0.606159 0
M  V30 2182 C 290.431 8.25383 -0.938334 0
M  V30 2183 O 291.169 8.74577 0.146954 0
M  V30 2184 C 289.762 6.8802 -0.712559 0
M  V30 2185 O 290.561 6.1189 0.194655 0
M  V30 2186 C 288.425 7.27966 -0.139777 0
M  V30 2187 H 288.457 7.25354 0.961601 0
M  V30 2188 H 289.64 6.32557 -1.65702 0
M  V30 2189 H 291.124 8.19355 -1.79097 0
M  V30 2190 H 289.43 10.1294 -1.10029 0
M  V30 2191 H 289.24 9.64276 -3.41316 0
M  V30 2192 H 287.61 9.25417 -2.76357 0
M  V30 2193 H 290.249 6.25267 1.07847 0
M  V30 2194 P 292.106 8.791 1.04251e-12 0
M  V30 2195 O 293.528 9.31296 0.027939 0
M  V30 2196 O 291.746 7.77869 -1.04071 0
M  V30 2197 O 291.783 8.09533 1.41463 0
M  V30 2198 C 291.623 9.0349 2.53943 0
M  V30 2199 C 292.163 8.35135 3.78975 0
M  V30 2200 O 291.108 7.57992 4.15078 0
M  V30 2201 C 293.381 7.45087 3.67298 0
M  V30 2202 O 294.119 7.27796 4.85194 0
M  V30 2203 C 292.713 6.17323 3.12027 0
M  V30 2204 O 293.511 5.04149 3.47132 0
M  V30 2205 C 291.375 6.19961 3.81809 0
M  V30 2206 N 290.332 5.71575 2.93223 0
M  V30 2207 C 290.394 5.97133 1.62693 0
M  V30 2208 N 289.349 5.44066 0.984414 0
M  V30 2209 C 288.615 4.87093 1.93987 0
M  V30 2210 C 287.309 4.26449 1.8738 0
M  V30 2211 O 286.576 4.1089 0.884377 0
M  V30 2212 N 286.879 3.82483 3.08036 0
M  V30 2213 C 287.628 3.95124 4.27727 0
M  V30 2214 N 287.031 3.4084 5.39089 0
M  V30 2215 N 288.781 4.55264 4.3706 0
M  V30 2216 C 289.238 5.00861 3.18217 0
M  V30 2217 H 291.407 5.58218 4.73051 0
M  V30 2218 H 292.59 6.21631 2.02558 0
M  V30 2219 H 294.075 7.85819 2.93096 0
M  V30 2220 H 292.38 9.11627 4.55076 0
M  V30 2221 H 292.19 9.9573 2.34194 0
M  V30 2222 H 290.559 9.2792 2.67832 0
M  V30 2223 H 285.983 3.38323 3.1329 0
M  V30 2224 H 291.19 6.53891 1.14265 0
M  V30 2225 H 286.12 2.93852 5.30559 0
M  V30 2226 H 287.496 3.47631 6.30632 0
M  V30 2227 H 293.2 4.67628 4.28704 0
M  V30 2228 P 295.057 7.39546 4.75277 0
M  V30 2229 O 296.478 7.81861 5.05793 0
M  V30 2230 O 294.697 7.1065 3.32998 0
M  V30 2231 O 294.734 6.04542 5.56673 0
M  V30 2232 C 294.573 6.22839 7.02169 0
M  V30 2233 C 295.114 4.97725 7.70406 0
M  V30 2234 O 294.059 4.13208 7.58899 0
M  V30 2235 C 296.332 4.28231 7.11815 0
M  V30 2236 O 297.07 3.49945 8.01648 0
M  V30 2237 C 295.664 3.5063 5.96244 0
M  V30 2238 O 296.462 2.37008 5.64352 0
M  V30 2239 C 294.326 3.15122 6.56374 0
M  V30 2240 N 293.283 3.22311 5.55692 0
M  V30 2241 C 293.452 3.99655 4.46046 0
M  V30 2242 N 292.425 3.97599 3.63918 0
M  V30 2243 C 291.54 3.11159 4.25334 0
M  V30 2244 C 290.273 2.64972 3.85157 0
M  V30 2245 N 289.674 3.02132 2.69405 0
M  V30 2246 N 289.708 1.78482 4.74759 0
M  V30 2247 C 290.31 1.37463 5.90819 0
M  V30 2248 N 291.487 1.7733 6.31889 0
M  V30 2249 C 292.062 2.64393 5.43725 0
M  V30 2250 H 294.358 2.13823 6.99656 0
M  V30 2251 H 295.541 4.12931 5.06895 0
M  V30 2252 H 297.024 5.03285 6.70911 0
M  V30 2253 H 295.33 5.20001 8.76217 0
M  V30 2254 H 295.14 7.11046 7.35349 0
M  V30 2255 H 293.51 6.35815 7.26986 0
M  V30 2256 H 289.774 0.66574 6.53015 0
M  V30 2257 H 294.352 4.58037 4.27732 0
M  V30 2258 H 288.744 2.64828 2.45331 0
M  V30 2259 H 290.148 3.67472 2.05644 0
M  V30 2260 H 296.15 1.61619 6.13468 0
M  V30 2261 P 298.008 3.65191 7.99657 0
M  V30 2262 O 299.43 3.84333 8.48297 0
M  V30 2263 O 297.648 4.17805 6.64342 0
M  V30 2264 O 297.685 2.07613 7.95143 0
M  V30 2265 C 297.525 1.44328 9.27336 0
M  V30 2266 C 298.065 0.0220012 9.17097 0
M  V30 2267 O 297.01 -0.626867 8.61923 0
M  V30 2268 C 299.283 -0.24586 8.30336 0
M  V30 2269 O 300.021 -1.39011 8.63583 0
M  V30 2270 C 298.615 -0.273849 6.91158 0
M  V30 2271 O 299.413 -1.06331 6.02794 0
M  V30 2272 C 297.277 -0.897649 7.22545 0
M  V30 2273 N 296.234 -0.292839 6.41732 0
M  V30 2274 C 296.296 1.00068 6.10757 0
M  V30 2275 N 295.251 1.36468 5.35794 0
M  V30 2276 C 294.517 0.258894 5.2366 0
M  V30 2277 C 293.211 0.0670682 4.65752 0
M  V30 2278 O 292.478 0.902443 4.10497 0
M  V30 2279 N 292.781 -1.2131 4.75881 0
M  V30 2280 C 293.53 -2.24934 5.37101 0
M  V30 2281 N 292.933 -3.48783 5.33984 0
M  V30 2282 N 294.683 -2.0844 5.95684 0
M  V30 2283 C 295.14 -0.81395 5.87791 0
M  V30 2284 H 297.309 -1.9841 7.04286 0
M  V30 2285 H 298.492 0.739815 6.49601 0
M  V30 2286 H 299.977 0.598315 8.36563 0
M  V30 2287 H 298.282 -0.352479 10.1829 0
M  V30 2288 H 298.092 2.00611 10.0304 0
M  V30 2289 H 296.461 1.41843 9.55327 0
M  V30 2290 H 291.885 -1.44434 4.37895 0
M  V30 2291 H 297.092 1.67697 6.42268 0
M  V30 2292 H 292.022 -3.60543 4.87699 0
M  V30 2293 H 293.398 -4.29232 5.7819 0
M  V30 2294 H 299.102 -1.95704 6.0346 0
M  V30 2295 P 300.958 -1.25109 8.70152 0
M  V30 2296 O 302.38 -1.35303 9.21419 0
M  V30 2297 O 300.598 -0.0769065 7.84762 0
M  V30 2298 O 300.635 -2.55232 7.81161 0
M  V30 2299 C 300.475 -3.79939 8.58154 0
M  V30 2300 C 301.015 -4.93969 7.72701 0
M  V30 2301 O 299.96 -5.18726 6.91205 0
M  V30 2302 C 302.233 -4.69597 6.85231 0
M  V30 2303 O 302.971 -5.83832 6.51337 0
M  V30 2304 C 301.565 -3.96706 5.66633 0
M  V30 2305 O 302.363 -4.15346 4.49615 0
M  V30 2306 C 300.227 -4.66153 5.59313 0
M  V30 2307 N 299.184 -3.71582 5.24027 0
M  V30 2308 C 299.246 -2.46018 5.67902 0
M  V30 2309 N 298.201 -1.74868 5.24518 0
M  V30 2310 C 297.467 -2.61333 4.54528 0
M  V30 2311 C 296.161 -2.46162 3.95441 0
M  V30 2312 O 295.428 -1.46013 3.94122 0
M  V30 2313 N 295.731 -3.59334 3.34752 0
M  V30 2314 C 296.48 -4.79605 3.3023 0
M  V30 2315 N 295.883 -5.82109 2.6065 0
M  V30 2316 N 297.633 -4.97402 3.8843 0
M  V30 2317 C 298.09 -3.86258 4.50476 0
M  V30 2318 H 300.259 -5.47679 4.85214 0
M  V30 2319 H 301.442 -2.88964 5.86476 0
M  V30 2320 H 302.927 -4.01947 7.36109 0
M  V30 2321 H 301.232 -5.80182 8.37584 0
M  V30 2322 H 301.042 -3.73517 9.52265 0
M  V30 2323 H 299.411 -3.97163 8.80359 0
M  V30 2324 H 294.835 -3.5825 2.90294 0
M  V30 2325 H 300.042 -2.06161 6.30974 0
M  V30 2326 H 294.972 -5.66979 2.15354 0
M  V30 2327 H 296.348 -6.73686 2.54344 0
M  V30 2328 H 302.052 -4.90891 4.01857 0
M  V30 2329 P 303.909 -5.75688 6.64379 0
M  V30 2330 O 305.33 -6.11915 7.01921 0
M  V30 2331 O 303.549 -4.30744 6.56026 0
M  V30 2332 O 303.586 -6.37042 5.19165 0
M  V30 2333 C 303.425 -7.83662 5.1657 0
M  V30 2334 C 303.966 -8.33398 3.83019 0
M  V30 2335 O 302.911 -8.0998 3.00999 0
M  V30 2336 C 305.184 -7.65514 3.2257 0
M  V30 2337 O 305.922 -8.4329 2.32297 0
M  V30 2338 C 304.516 -6.40075 2.62207 0
M  V30 2339 O 305.314 -5.92338 1.5428 0
M  V30 2340 C 303.178 -6.9454 2.18503 0
M  V30 2341 N 302.135 -5.95905 2.39948 0
M  V30 2342 C 302.304 -4.98383 3.32108 0
M  V30 2343 N 301.277 -4.16798 3.41761 0
M  V30 2344 C 300.392 -4.65287 2.47461 0
M  V30 2345 C 299.125 -4.18946 2.07461 0
M  V30 2346 N 298.526 -3.09661 2.60717 0
M  V30 2347 N 298.56 -4.95327 1.09101 0
M  V30 2348 C 299.162 -6.04369 0.519812 0
M  V30 2349 N 300.339 -6.50694 0.855982 0
M  V30 2350 C 300.914 -5.75818 1.84322 0
M  V30 2351 H 303.21 -7.22964 1.12076 0
M  V30 2352 H 304.393 -5.60502 3.36589 0
M  V30 2353 H 305.876 -7.35707 4.02681 0
M  V30 2354 H 304.182 -9.41302 3.90009 0
M  V30 2355 H 303.992 -8.29056 5.99158 0
M  V30 2356 H 302.362 -8.10073 5.25882 0
M  V30 2357 H 298.626 -6.55843 -0.270373 0
M  V30 2358 H 303.204 -4.88564 3.92502 0
M  V30 2359 H 297.596 -2.80523 2.27218 0
M  V30 2360 H 299 -2.55848 3.34465 0
M  V30 2361 H 305.002 -6.30224 0.72668 0
M  V30 2362 P 306.859 -8.4349 2.47671 0
M  V30 2363 O 308.281 -8.94167 2.5964 0
M  V30 2364 O 306.499 -7.1704 3.19006 0
M  V30 2365 O 306.536 -8.16596 0.923387 0
M  V30 2366 C 306.376 -9.38437 0.108857 0
M  V30 2367 C 306.916 -9.08175 -1.28353 0
M  V30 2368 O 305.86 -8.44229 -1.84713 0
M  V30 2369 C 308.134 -8.18386 -1.42505 0
M  V30 2370 O 308.872 -8.3501 -2.60497 0
M  V30 2371 C 307.465 -6.80225 -1.25468 0
M  V30 2372 O 308.264 -5.81621 -1.91066 0
M  V30 2373 C 306.128 -7.02416 -1.9168 0
M  V30 2374 H 306.16 -6.6888 -2.96621 0
M  V30 2375 H 307.343 -6.53617 -0.192223 0
M  V30 2376 H 308.827 -8.36622 -0.589963 0
M  V30 2377 H 307.133 -10.0291 -1.79807 0
M  V30 2378 H 306.943 -10.2138 0.558219 0
M  V30 2379 H 305.313 -9.6579 0.0444202 0
M  V30 2380 H 307.952 -5.69556 -2.79637 0
M  V30 2381 P 309.81 -8.4349 -2.47671 0
M  V30 2382 O 311.232 -8.92593 -2.65 0
M  V30 2383 O 309.45 -7.7568 -1.19296 0
M  V30 2384 O 309.487 -7.36886 -3.63805 0
M  V30 2385 C 309.327 -7.95349 -4.982 0
M  V30 2386 C 309.867 -6.94612 -5.98974 0
M  V30 2387 O 308.811 -6.10347 -6.11815 0
M  V30 2388 C 311.085 -6.11426 -5.62335 0
M  V30 2389 O 311.823 -5.6162 -6.70584 0
M  V30 2390 C 310.416 -5.04409 -4.73308 0
M  V30 2391 O 311.215 -3.85992 -4.75183 0
M  V30 2392 C 309.079 -4.8728 -5.41006 0
M  V30 2393 H 309.111 -4.02333 -6.11157 0
M  V30 2394 H 310.294 -5.39466 -3.69543 0
M  V30 2395 H 311.778 -6.71916 -5.01943 0
M  V30 2396 H 310.084 -7.4649 -6.93477 0
M  V30 2397 H 309.894 -8.89416 -5.05237 0
M  V30 2398 H 308.264 -8.14876 -5.18409 0
M  V30 2399 H 310.903 -3.27957 -5.4317 0
M  V30 2400 P 312.76 -5.75688 -6.64379 0
M  V30 2401 O 314.182 -6.07627 -7.05504 0
M  V30 2402 O 312.4 -5.88047 -5.19722 0
M  V30 2403 O 312.437 -4.2322 -7.04443 0
M  V30 2404 C 312.277 -3.99743 -8.4911 0
M  V30 2405 C 312.817 -2.60516 -8.79425 0
M  V30 2406 O 311.761 -1.82684 -8.4467 0
M  V30 2407 C 314.035 -2.10343 -8.03628 0
M  V30 2408 O 314.773 -1.09919 -8.67766 0
M  V30 2409 C 313.366 -1.68446 -6.70876 0
M  V30 2410 O 314.165 -0.678137 -6.08433 0
M  V30 2411 C 312.029 -1.17436 -7.18567 0
M  V30 2412 H 312.061 -0.0804732 -7.31656 0
M  V30 2413 H 313.244 -2.54037 -6.02537 0
M  V30 2414 H 314.728 -2.93881 -7.85526 0
M  V30 2415 H 313.034 -2.53065 -9.86973 0
M  V30 2416 H 312.844 -4.75072 -9.05887 0
M  V30 2417 H 311.214 -4.05244 -8.76668 0
M  V30 2418 H 313.853 0.177647 -6.34251 0
M  V30 2419 P 315.711 -1.25109 -8.70152 0
M  V30 2420 O 317.133 -1.29744 -9.22016 0
M  V30 2421 O 315.351 -2.13714 -7.55141 0
M  V30 2422 O 315.388 0.248149 -8.21425 0
M  V30 2423 C 315.228 1.22779 -9.30434 0
M  V30 2424 C 315.768 2.56293 -8.80664 0
M  V30 2425 O 314.712 3.02979 -8.09349 0
M  V30 2426 C 316.986 2.57523 -7.89775 0
M  V30 2427 O 317.724 3.7668 -7.89438 0
M  V30 2428 C 316.317 2.20997 -6.55446 0
M  V30 2429 O 317.116 2.71895 -5.48509 0
M  V30 2430 C 314.98 2.89693 -6.67988 0
M  V30 2431 H 315.012 3.88793 -6.19859 0
M  V30 2432 H 316.195 1.12046 -6.44229 0
M  V30 2433 H 317.679 1.7746 -8.19711 0
M  V30 2434 H 315.985 3.20706 -9.67112 0
M  V30 2435 H 315.795 0.901032 -10.1892 0
M  V30 2436 H 314.165 1.33049 -9.56592 0
M  V30 2437 H 316.804 3.57847 -5.23962 0
M  V30 2438 P 318.662 3.65191 -7.99657 0
M  V30 2439 O 320.084 3.89332 -8.45794 0
M  V30 2440 O 318.302 2.28472 -7.50807 0
M  V30 2441 O 318.339 4.64972 -6.77611 0
M  V30 2442 C 318.179 6.06319 -7.16352 0
M  V30 2443 C 318.719 6.91731 -6.02299 0
M  V30 2444 O 317.663 6.92449 -5.17064 0
M  V30 2445 C 319.937 6.43627 -5.25174 0
M  V30 2446 O 320.675 7.43686 -4.60469 0
M  V30 2447 C 319.268 5.40275 -4.31916 0
M  V30 2448 O 320.067 5.25279 -3.14438 0
M  V30 2449 C 317.931 6.04847 -4.05327 0
M  V30 2450 H 317.963 6.62195 -3.11261 0
M  V30 2451 H 319.146 4.42556 -4.81383 0
M  V30 2452 H 320.63 5.92458 -5.93643 0
M  V30 2453 H 318.936 7.92655 -6.402 0
M  V30 2454 H 318.746 6.26671 -8.0846 0
M  V30 2455 H 317.116 6.29101 -7.32804 0
M  V30 2456 H 319.755 5.84315 -2.47318 0
M  V30 2457 P 321.612 7.39546 -4.75277 0
M  V30 2458 O 323.033 7.84882 -5.01092 0
M  V30 2459 O 321.252 5.9812 -5.08098 0
M  V30 2460 O 321.289 7.57503 -3.1866 0
M  V30 2461 C 321.128 8.97452 -2.74862 0
M  V30 2462 C 321.669 9.07548 -1.32709 0
M  V30 2463 O 320.614 8.61972 -0.606089 0
M  V30 2464 C 322.887 8.25383 -0.938334 0
M  V30 2465 O 323.625 8.74577 0.146954 0
M  V30 2466 C 322.219 6.8802 -0.712559 0
M  V30 2467 O 323.017 6.1181 0.188505 0
M  V30 2468 C 320.881 7.27966 -0.139777 0
M  V30 2469 N 319.838 6.39368 -0.623421 0
M  V30 2470 C 320.007 5.71761 -1.78245 0
M  V30 2471 N 318.98 4.962 -2.10491 0
M  V30 2472 C 318.095 5.16158 -1.0635 0
M  V30 2473 C 316.828 4.60425 -0.810266 0
M  V30 2474 N 316.263 5.06 0.348685 0
M  V30 2475 C 316.865 5.94532 1.20395 0
M  V30 2476 N 318.042 6.48452 1.01191 0
M  V30 2477 C 318.617 6.04423 -0.146291 0
M  V30 2478 H 322.096 6.32625 -1.65044 0
M  V30 2479 H 323.579 8.19355 -1.79097 0
M  V30 2480 H 321.885 10.1305 -1.09016 0
M  V30 2481 H 321.695 9.64276 -3.41316 0
M  V30 2482 H 320.065 9.25417 -2.76357 0
M  V30 2483 H 320.907 5.79354 -2.38959 0
M  V30 2484 H 322.705 6.25169 1.0783 0
M  V30 2485 P 324.563 8.791 1.35267e-12 0
M  V30 2486 O 325.985 9.31096 0.027933 0
M  V30 2487 O 324.203 7.77869 -1.04071 0
M  V30 2488 O 324.24 8.09533 1.41463 0
M  V30 2489 C 324.08 9.0349 2.53943 0
M  V30 2490 C 324.62 8.35226 3.79016 0
M  V30 2491 O 323.564 7.57992 4.15078 0
M  V30 2492 C 325.838 7.45087 3.67298 0
M  V30 2493 O 326.576 7.27796 4.85194 0
M  V30 2494 C 325.169 6.17323 3.12027 0
M  V30 2495 O 325.968 5.04231 3.47188 0
M  V30 2496 C 323.832 6.19961 3.81809 0
M  V30 2497 H 323.864 5.58218 4.73051 0
M  V30 2498 H 325.047 6.21726 2.02589 0
M  V30 2499 H 326.531 7.86112 2.9231 0
M  V30 2500 H 324.837 9.11627 4.55076 0
M  V30 2501 H 324.647 9.9573 2.34194 0
M  V30 2502 H 323.017 9.2792 2.67832 0
M  V30 2503 H 325.656 4.67702 4.28772 0
M  V30 2504 P 327.513 7.39546 4.75277 0
M  V30 2505 O 328.935 7.81777 5.05738 0
M  V30 2506 O 327.153 7.1065 3.32998 0
M  V30 2507 O 327.19 6.04542 5.56673 0
M  V30 2508 C 327.03 6.22772 7.02095 0
M  V30 2509 C 327.57 4.97725 7.70406 0
M  V30 2510 O 326.514 4.13256 7.58987 0
M  V30 2511 C 328.788 4.28231 7.11815 0
M  V30 2512 O 329.526 3.49945 8.01648 0
M  V30 2513 C 328.119 3.5063 5.96244 0
M  V30 2514 O 328.918 2.36482 5.64681 0
M  V30 2515 C 326.782 3.15122 6.56374 0
M  V30 2516 H 326.814 2.13853 6.99751 0
M  V30 2517 H 327.997 4.13501 5.06559 0
M  V30 2518 H 329.481 5.03285 6.70911 0
M  V30 2519 H 327.787 5.20877 8.75697 0
M  V30 2520 H 327.597 7.11046 7.35349 0
M  V30 2521 H 325.967 6.35815 7.26986 0
M  V30 2522 H 328.606 1.61644 6.13565 0
M  V30 2523 P 330.464 3.65191 7.99657 0
M  V30 2524 O 331.885 3.84292 8.48206 0
M  V30 2525 O 330.104 4.17805 6.64342 0
M  V30 2526 O 330.141 2.07613 7.95143 0
M  V30 2527 C 329.98 1.44344 9.27435 0
M  V30 2528 C 330.521 0.0220036 9.17197 0
M  V30 2529 O 329.466 -0.626794 8.61824 0
M  V30 2530 C 331.739 -0.24586 8.30336 0
M  V30 2531 O 332.477 -1.39011 8.63583 0
M  V30 2532 C 331.071 -0.273849 6.91158 0
M  V30 2533 O 331.869 -1.05728 6.029 0
M  V30 2534 C 329.733 -0.897649 7.22545 0
M  V30 2535 N 328.69 -0.292839 6.41732 0
M  V30 2536 C 328.859 0.950603 5.91308 0
M  V30 2537 N 327.832 1.37732 5.21105 0
M  V30 2538 C 326.947 0.318109 5.26039 0
M  V30 2539 C 325.68 0.146766 4.6727 0
M  V30 2540 N 325.115 -1.06525 4.95887 0
M  V30 2541 C 325.717 -2.0378 5.71347 0
M  V30 2542 N 326.894 -1.92445 6.27451 0
M  V30 2543 C 327.469 -0.715382 6.00353 0
M  V30 2544 H 330.948 0.733318 6.49674 0
M  V30 2545 H 332.431 0.60668 8.36503 0
M  V30 2546 H 330.737 -0.362662 10.1825 0
M  V30 2547 H 330.547 2.00611 10.0304 0
M  V30 2548 H 328.917 1.41843 9.55327 0
M  V30 2549 H 329.759 1.54076 6.07465 0
M  V30 2550 H 331.557 -1.95704 6.0346 0
M  V30 2551 P 333.414 -1.25109 8.70152 0
M  V30 2552 O 334.815 -1.31452 9.27431 0
M  V30 2553 O 333.036 -0.0458113 7.89887 0
M  V30 2554 O 333.091 -2.55201 7.81066 0
M  V30 2555 C 332.931 -3.79939 8.58154 0
M  V30 2556 C 333.471 -4.93969 7.72701 0
M  V30 2557 O 332.415 -5.18666 6.91125 0
M  V30 2558 C 334.688 -4.69597 6.85231 0
M  V30 2559 O 335.427 -5.83832 6.51337 0
M  V30 2560 C 334.021 -3.96706 5.66633 0
M  V30 2561 O 334.819 -4.15346 4.49615 0
M  V30 2562 C 332.683 -4.66153 5.59313 0
M  V30 2563 N 331.64 -3.71582 5.24027 0
M  V30 2564 C 330.605 -4.15133 4.44901 0
M  V30 2565 O 330.644 -5.32122 4.00336 0
M  V30 2566 N 329.593 -3.30554 4.15693 0
M  V30 2567 C 329.641 -2.04701 4.61105 0
M  V30 2568 C 330.737 -1.57111 5.38655 0
M  V30 2569 C 331.703 -2.44234 5.68454 0
M  V30 2570 H 332.715 -5.47604 4.85148 0
M  V30 2571 H 333.898 -2.8955 5.86187 0
M  V30 2572 H 335.382 -4.01995 7.36197 0
M  V30 2573 H 333.688 -5.81019 8.37003 0
M  V30 2574 H 333.497 -3.73517 9.52265 0
M  V30 2575 H 331.867 -3.97122 8.80267 0
M  V30 2576 H 330.785 -0.538464 5.72373 0
M  V30 2577 H 332.549 -2.11927 6.29377 0
M  V30 2578 H 334.603 -4.98352 4.09633 0
M  V30 2579 P 336.365 -5.75688 6.64379 0
M  V30 2580 O 337.787 -6.11849 7.01846 0
M  V30 2581 O 336.005 -4.30744 6.56026 0
M  V30 2582 O 336.042 -6.37042 5.19165 0
M  V30 2583 C 335.882 -7.83578 5.16515 0
M  V30 2584 C 336.422 -8.33398 3.83019 0
M  V30 2585 O 335.366 -8.10074 3.01034 0
M  V30 2586 C 337.64 -7.65514 3.2257 0
M  V30 2587 O 338.378 -8.4329 2.32297 0
M  V30 2588 C 336.971 -6.40075 2.62207 0
M  V30 2589 O 337.77 -5.92589 1.53712 0
M  V30 2590 C 335.634 -6.9454 2.18503 0
M  V30 2591 H 335.666 -7.23063 1.12091 0
M  V30 2592 H 336.849 -5.6025 3.37201 0
M  V30 2593 H 338.333 -7.35707 4.02681 0
M  V30 2594 H 336.639 -9.40912 3.9095 0
M  V30 2595 H 336.449 -8.29056 5.99158 0
M  V30 2596 H 334.819 -8.10073 5.25882 0
M  V30 2597 H 337.458 -6.30324 0.726794 0
M  V30 2598 P 339.316 -8.4349 2.47671 0
M  V30 2599 O 340.738 -8.94167 2.5964 0
M  V30 2600 O 338.956 -7.1704 3.19006 0
M  V30 2601 O 338.993 -8.16596 0.923387 0
M  V30 2602 C 338.833 -9.38437 0.108857 0
M  V30 2603 C 339.373 -9.08175 -1.28353 0
M  V30 2604 O 338.317 -8.44229 -1.84713 0
M  V30 2605 C 340.591 -8.18386 -1.42505 0
M  V30 2606 O 341.329 -8.3501 -2.60497 0
M  V30 2607 C 339.922 -6.80225 -1.25468 0
M  V30 2608 O 340.721 -5.81621 -1.91066 0
M  V30 2609 C 338.585 -7.02416 -1.9168 0
M  V30 2610 H 338.617 -6.6888 -2.96621 0
M  V30 2611 H 339.8 -6.53617 -0.192223 0
M  V30 2612 H 341.284 -8.36622 -0.589963 0
M  V30 2613 H 339.59 -10.0291 -1.79807 0
M  V30 2614 H 339.4 -10.2138 0.558219 0
M  V30 2615 H 337.77 -9.6579 0.0444202 0
M  V30 2616 H 340.409 -5.69556 -2.79637 0
M  V30 2617 P 342.266 -8.4349 -2.47671 0
M  V30 2618 O 343.687 -8.92689 -2.65029 0
M  V30 2619 O 341.906 -7.7568 -1.19296 0
M  V30 2620 O 341.943 -7.36886 -3.63805 0
M  V30 2621 C 341.782 -7.95433 -4.98253 0
M  V30 2622 C 342.323 -6.94612 -5.98974 0
M  V30 2623 O 341.268 -6.10277 -6.11744 0
M  V30 2624 C 343.541 -6.11426 -5.62335 0
M  V30 2625 O 344.279 -5.6162 -6.70584 0
M  V30 2626 C 342.873 -5.04409 -4.73308 0
M  V30 2627 O 343.671 -3.86404 -4.74719 0
M  V30 2628 C 341.535 -4.8728 -5.41006 0
M  V30 2629 N 340.492 -4.65812 -4.42377 0
M  V30 2630 C 340.661 -5.09132 -3.15382 0
M  V30 2631 N 339.634 -4.84021 -2.3716 0
M  V30 2632 C 338.749 -4.18386 -3.20441 0
M  V30 2633 C 337.482 -3.6275 -2.94905 0
M  V30 2634 N 336.917 -3.05008 -4.05243 0
M  V30 2635 C 337.519 -2.98348 -5.28159 0
M  V30 2636 N 338.696 -3.48171 -5.56333 0
M  V30 2637 C 339.271 -4.06869 -4.47212 0
M  V30 2638 H 342.75 -5.39013 -3.70026 0
M  V30 2639 H 344.233 -6.71916 -5.01943 0
M  V30 2640 H 342.539 -7.45796 -6.94223 0
M  V30 2641 H 342.349 -8.89416 -5.05237 0
M  V30 2642 H 340.719 -8.14876 -5.18409 0
M  V30 2643 H 341.561 -5.59989 -2.81362 0
M  V30 2644 H 343.359 -3.27906 -5.43085 0
M  V30 2645 P 345.217 -5.75688 -6.64379 0
M  V30 2646 O 346.639 -6.07627 -7.05504 0
M  V30 2647 O 344.857 -5.88047 -5.19722 0
M  V30 2648 O 344.894 -4.2322 -7.04443 0
M  V30 2649 C 344.734 -3.99743 -8.4911 0
M  V30 2650 C 345.274 -2.60516 -8.79425 0
M  V30 2651 O 344.218 -1.82684 -8.4467 0
M  V30 2652 C 346.492 -2.10343 -8.03628 0
M  V30 2653 O 347.23 -1.09919 -8.67766 0
M  V30 2654 C 345.823 -1.68446 -6.70876 0
M  V30 2655 O 346.622 -0.678137 -6.08433 0
M  V30 2656 C 344.486 -1.17436 -7.18567 0
M  V30 2657 H 344.518 -0.0804732 -7.31656 0
M  V30 2658 H 345.701 -2.54037 -6.02537 0
M  V30 2659 H 347.185 -2.93881 -7.85526 0
M  V30 2660 H 345.491 -2.53065 -9.86973 0
M  V30 2661 H 345.301 -4.75072 -9.05887 0
M  V30 2662 H 343.671 -4.05244 -8.76668 0
M  V30 2663 H 346.31 0.177647 -6.34251 0
M  V30 2664 P 348.167 -1.25109 -8.70152 0
M  V30 2665 O 349.589 -1.29744 -9.22016 0
M  V30 2666 O 347.807 -2.13714 -7.55141 0
M  V30 2667 O 347.844 0.248149 -8.21425 0
M  V30 2668 C 347.684 1.22779 -9.30434 0
M  V30 2669 C 348.224 2.56293 -8.80664 0
M  V30 2670 O 347.168 3.02979 -8.09349 0
M  V30 2671 C 349.442 2.57523 -7.89775 0
M  V30 2672 O 350.18 3.7668 -7.89438 0
M  V30 2673 C 348.773 2.20997 -6.55446 0
M  V30 2674 O 349.572 2.71895 -5.48509 0
M  V30 2675 C 347.436 2.89693 -6.67988 0
M  V30 2676 H 347.468 3.88793 -6.19859 0
M  V30 2677 H 348.651 1.12046 -6.44229 0
M  V30 2678 H 350.135 1.7746 -8.19711 0
M  V30 2679 H 348.441 3.20706 -9.67112 0
M  V30 2680 H 348.251 0.901032 -10.1892 0
M  V30 2681 H 346.621 1.33049 -9.56592 0
M  V30 2682 H 349.26 3.57847 -5.23962 0
M  V30 2683 P 351.118 3.65191 -7.99657 0
M  V30 2684 O 352.539 3.89374 -8.45885 0
M  V30 2685 O 350.758 2.28472 -7.50807 0
M  V30 2686 O 350.795 4.64972 -6.77611 0
M  V30 2687 C 350.634 6.06383 -7.16428 0
M  V30 2688 C 351.175 6.91731 -6.02299 0
M  V30 2689 O 350.12 6.92369 -5.17005 0
M  V30 2690 C 352.393 6.43627 -5.25174 0
M  V30 2691 O 353.131 7.43686 -4.60469 0
M  V30 2692 C 351.725 5.40275 -4.31916 0
M  V30 2693 O 352.523 5.24878 -3.14911 0
M  V30 2694 C 350.387 6.04847 -4.05327 0
M  V30 2695 N 349.344 5.04166 -3.98114 0
M  V30 2696 C 349.513 3.84629 -4.59066 0
M  V30 2697 N 348.486 3.0363 -4.45343 0
M  V30 2698 C 347.601 3.76722 -3.68523 0
M  V30 2699 C 346.334 3.43528 -3.17088 0
M  V30 2700 N 345.769 4.44526 -2.44231 0
M  V30 2701 C 346.371 5.65243 -2.20146 0
M  V30 2702 N 347.548 6.00221 -2.65453 0
M  V30 2703 C 348.123 5.00564 -3.39083 0
M  V30 2704 H 351.602 4.42969 -4.80867 0
M  V30 2705 H 353.085 5.92458 -5.93643 0
M  V30 2706 H 351.391 7.93295 -6.39407 0
M  V30 2707 H 351.201 6.26671 -8.0846 0
M  V30 2708 H 349.571 6.29101 -7.32804 0
M  V30 2709 H 350.413 3.58193 -5.14248 0
M  V30 2710 H 352.211 5.84223 -2.47279 0
M  V30 2711 P 354.068 7.39546 -4.75277 0
M  V30 2712 O 355.49 7.84798 -5.01039 0
M  V30 2713 O 353.708 5.9812 -5.08098 0
M  V30 2714 O 353.745 7.57503 -3.1866 0
M  V30 2715 C 353.585 8.97357 -2.74833 0
M  V30 2716 C 354.125 9.07548 -1.32709 0
M  V30 2717 O 353.069 8.62072 -0.606159 0
M  V30 2718 C 355.343 8.25383 -0.938334 0
M  V30 2719 O 356.081 8.74577 0.146954 0
M  V30 2720 C 354.674 6.8802 -0.712559 0
M  V30 2721 O 355.473 6.1189 0.194655 0
M  V30 2722 C 353.337 7.27966 -0.139777 0
M  V30 2723 H 353.369 7.25354 0.961601 0
M  V30 2724 H 354.552 6.32557 -1.65702 0
M  V30 2725 H 356.036 8.19355 -1.79097 0
M  V30 2726 H 354.342 10.1294 -1.10029 0
M  V30 2727 H 354.152 9.64276 -3.41316 0
M  V30 2728 H 352.522 9.25417 -2.76357 0
M  V30 2729 H 355.161 6.25267 1.07847 0
M  V30 2730 P 357.019 8.791 1.66284e-12 0
M  V30 2731 O 358.441 9.31096 0.027933 0
M  V30 2732 O 356.659 7.77869 -1.04071 0
M  V30 2733 O 356.696 8.09533 1.41463 0
M  V30 2734 C 356.536 9.0349 2.53943 0
M  V30 2735 C 357.076 8.35226 3.79016 0
M  V30 2736 O 356.02 7.57992 4.15078 0
M  V30 2737 C 358.294 7.45087 3.67298 0
M  V30 2738 O 359.032 7.27796 4.85194 0
M  V30 2739 C 357.625 6.17323 3.12027 0
M  V30 2740 O 358.424 5.04231 3.47188 0
M  V30 2741 C 356.288 6.19961 3.81809 0
M  V30 2742 H 356.32 5.58218 4.73051 0
M  V30 2743 H 357.503 6.21726 2.02589 0
M  V30 2744 H 358.987 7.86112 2.9231 0
M  V30 2745 H 357.293 9.11627 4.55076 0
M  V30 2746 H 357.103 9.9573 2.34194 0
M  V30 2747 H 355.473 9.2792 2.67832 0
M  V30 2748 H 358.112 4.67702 4.28772 0
M  V30 2749 P 359.97 7.39546 4.75277 0
M  V30 2750 O 361.392 7.81777 5.05738 0
M  V30 2751 O 359.61 7.1065 3.32998 0
M  V30 2752 O 359.647 6.04542 5.56673 0
M  V30 2753 C 359.487 6.22772 7.02095 0
M  V30 2754 C 360.027 4.97725 7.70406 0
M  V30 2755 O 358.971 4.13256 7.58987 0
M  V30 2756 C 361.245 4.28231 7.11815 0
M  V30 2757 O 361.983 3.49945 8.01648 0
M  V30 2758 C 360.576 3.5063 5.96244 0
M  V30 2759 O 361.375 2.36482 5.64681 0
M  V30 2760 C 359.239 3.15122 6.56374 0
M  V30 2761 H 359.271 2.13853 6.99751 0
M  V30 2762 H 360.454 4.13501 5.06559 0
M  V30 2763 H 361.938 5.03285 6.70911 0
M  V30 2764 H 360.244 5.20877 8.75697 0
M  V30 2765 H 360.054 7.11046 7.35349 0
M  V30 2766 H 358.424 6.35815 7.26986 0
M  V30 2767 H 361.063 1.61644 6.13565 0
M  V30 2768 P 362.92 3.65191 7.99657 0
M  V30 2769 O 364.342 3.8425 8.48115 0
M  V30 2770 O 362.56 4.17805 6.64342 0
M  V30 2771 O 362.597 2.07613 7.95143 0
M  V30 2772 C 362.437 1.44328 9.27336 0
M  V30 2773 C 362.977 0.0220036 9.17197 0
M  V30 2774 O 361.921 -0.626867 8.61923 0
M  V30 2775 C 364.195 -0.24586 8.30336 0
M  V30 2776 O 364.933 -1.39011 8.63583 0
M  V30 2777 C 363.526 -0.273849 6.91158 0
M  V30 2778 O 364.325 -1.06348 6.02892 0
M  V30 2779 C 362.189 -0.897649 7.22545 0
M  V30 2780 H 362.221 -1.9841 7.04286 0
M  V30 2781 H 363.404 0.739928 6.497 0
M  V30 2782 H 364.888 0.60668 8.36503 0
M  V30 2783 H 363.194 -0.352479 10.1829 0
M  V30 2784 H 363.004 2.00611 10.0304 0
M  V30 2785 H 361.374 1.41843 9.55327 0
M  V30 2786 H 364.013 -1.95734 6.03555 0
M  V30 2787 P 365.871 -1.25109 8.70152 0
M  V30 2788 O 367.293 -1.35303 9.21419 0
M  V30 2789 O 365.511 -0.0769065 7.84762 0
M  V30 2790 O 365.548 -2.55232 7.81161 0
M  V30 2791 C 365.388 -3.79939 8.58154 0
M  V30 2792 C 365.928 -4.93969 7.72701 0
M  V30 2793 O 364.873 -5.18726 6.91205 0
M  V30 2794 C 367.146 -4.69597 6.85231 0
M  V30 2795 O 367.884 -5.83832 6.51337 0
M  V30 2796 C 366.478 -3.96706 5.66633 0
M  V30 2797 O 367.276 -4.15346 4.49615 0
M  V30 2798 C 365.14 -4.66153 5.59313 0
M  V30 2799 N 364.097 -3.71582 5.24027 0
M  V30 2800 C 364.159 -2.46018 5.67902 0
M  V30 2801 N 363.114 -1.74868 5.24518 0
M  V30 2802 C 362.38 -2.61333 4.54528 0
M  V30 2803 C 361.074 -2.46162 3.95441 0
M  V30 2804 O 360.341 -1.46013 3.94122 0
M  V30 2805 N 360.644 -3.59334 3.34752 0
M  V30 2806 C 361.393 -4.79605 3.3023 0
M  V30 2807 N 360.796 -5.82109 2.6065 0
M  V30 2808 N 362.546 -4.97402 3.8843 0
M  V30 2809 C 363.003 -3.86258 4.50476 0
M  V30 2810 H 365.172 -5.47679 4.85214 0
M  V30 2811 H 366.355 -2.88964 5.86476 0
M  V30 2812 H 367.84 -4.01947 7.36109 0
M  V30 2813 H 366.145 -5.80182 8.37584 0
M  V30 2814 H 365.955 -3.73517 9.52265 0
M  V30 2815 H 364.324 -3.97163 8.80359 0
M  V30 2816 H 359.748 -3.5825 2.90294 0
M  V30 2817 H 364.955 -2.06161 6.30974 0
M  V30 2818 H 359.885 -5.66979 2.15354 0
M  V30 2819 H 361.261 -6.73686 2.54344 0
M  V30 2820 H 366.965 -4.90891 4.01857 0
M  V30 2821 P 368.821 -5.75688 6.64379 0
M  V30 2822 O 370.243 -6.11849 7.01846 0
M  V30 2823 O 368.461 -4.30744 6.56026 0
M  V30 2824 O 368.498 -6.37042 5.19165 0
M  V30 2825 C 368.338 -7.83578 5.16515 0
M  V30 2826 C 368.878 -8.33398 3.83019 0
M  V30 2827 O 367.822 -8.10074 3.01034 0
M  V30 2828 C 370.096 -7.65514 3.2257 0
M  V30 2829 O 370.834 -8.4329 2.32297 0
M  V30 2830 C 369.427 -6.40075 2.62207 0
M  V30 2831 O 370.226 -5.92589 1.53712 0
M  V30 2832 C 368.09 -6.9454 2.18503 0
M  V30 2833 H 368.122 -7.23063 1.12091 0
M  V30 2834 H 369.305 -5.6025 3.37201 0
M  V30 2835 H 370.789 -7.35707 4.02681 0
M  V30 2836 H 369.095 -9.40912 3.9095 0
M  V30 2837 H 368.905 -8.29056 5.99158 0
M  V30 2838 H 367.275 -8.10073 5.25882 0
M  V30 2839 H 369.914 -6.30324 0.726794 0
M  V30 2840 P 371.772 -8.4349 2.47671 0
M  V30 2841 O 373.194 -8.94167 2.5964 0
M  V30 2842 O 371.412 -7.1704 3.19006 0
M  V30 2843 O 371.449 -8.16596 0.923387 0
M  V30 2844 C 371.289 -9.38437 0.108857 0
M  V30 2845 C 371.829 -9.08175 -1.28353 0
M  V30 2846 O 370.773 -8.44229 -1.84713 0
M  V30 2847 C 373.047 -8.18386 -1.42505 0
M  V30 2848 O 373.785 -8.3501 -2.60497 0
M  V30 2849 C 372.378 -6.80225 -1.25468 0
M  V30 2850 O 373.177 -5.81621 -1.91066 0
M  V30 2851 C 371.041 -7.02416 -1.9168 0
M  V30 2852 H 371.073 -6.6888 -2.96621 0
M  V30 2853 H 372.256 -6.53617 -0.192223 0
M  V30 2854 H 373.74 -8.36622 -0.589963 0
M  V30 2855 H 372.046 -10.0291 -1.79807 0
M  V30 2856 H 371.856 -10.2138 0.558219 0
M  V30 2857 H 370.226 -9.6579 0.0444202 0
M  V30 2858 H 372.865 -5.69556 -2.79637 0
M  V30 2859 P 374.722 -8.4349 -2.47671 0
M  V30 2860 O 376.144 -8.92593 -2.65 0
M  V30 2861 O 374.362 -7.7568 -1.19296 0
M  V30 2862 O 374.399 -7.36886 -3.63805 0
M  V30 2863 C 374.239 -7.95349 -4.982 0
M  V30 2864 C 374.779 -6.94612 -5.98974 0
M  V30 2865 O 373.723 -6.10347 -6.11815 0
M  V30 2866 C 375.997 -6.11426 -5.62335 0
M  V30 2867 O 376.735 -5.6162 -6.70584 0
M  V30 2868 C 375.328 -5.04409 -4.73308 0
M  V30 2869 O 376.127 -3.85992 -4.75183 0
M  V30 2870 C 373.991 -4.8728 -5.41006 0
M  V30 2871 H 374.023 -4.02333 -6.11157 0
M  V30 2872 H 375.206 -5.39466 -3.69543 0
M  V30 2873 H 376.69 -6.71916 -5.01943 0
M  V30 2874 H 374.996 -7.4649 -6.93477 0
M  V30 2875 H 374.806 -8.89416 -5.05237 0
M  V30 2876 H 373.176 -8.14876 -5.18409 0
M  V30 2877 H 375.815 -3.27957 -5.4317 0
M  V30 2878 P 377.673 -5.75688 -6.64379 0
M  V30 2879 O 379.095 -6.07627 -7.05504 0
M  V30 2880 O 377.313 -5.88047 -5.19722 0
M  V30 2881 O 377.35 -4.2322 -7.04443 0
M  V30 2882 C 377.19 -3.99743 -8.4911 0
M  V30 2883 C 377.73 -2.60516 -8.79425 0
M  V30 2884 O 376.674 -1.82684 -8.4467 0
M  V30 2885 C 378.948 -2.10343 -8.03628 0
M  V30 2886 O 379.686 -1.09919 -8.67766 0
M  V30 2887 C 378.279 -1.68446 -6.70876 0
M  V30 2888 O 379.078 -0.678137 -6.08433 0
M  V30 2889 C 376.942 -1.17436 -7.18567 0
M  V30 2890 H 376.974 -0.0804732 -7.31656 0
M  V30 2891 H 378.157 -2.54037 -6.02537 0
M  V30 2892 H 379.641 -2.93881 -7.85526 0
M  V30 2893 H 377.947 -2.53065 -9.86973 0
M  V30 2894 H 377.757 -4.75072 -9.05887 0
M  V30 2895 H 376.127 -4.05244 -8.76668 0
M  V30 2896 H 378.766 0.177647 -6.34251 0
M  V30 2897 P 380.624 -1.25109 -8.70152 0
M  V30 2898 O 382.046 -1.29744 -9.22016 0
M  V30 2899 O 380.264 -2.13714 -7.55141 0
M  V30 2900 O 380.301 0.248149 -8.21425 0
M  V30 2901 C 380.141 1.22779 -9.30434 0
M  V30 2902 C 380.681 2.56293 -8.80664 0
M  V30 2903 O 379.625 3.02979 -8.09349 0
M  V30 2904 C 381.899 2.57523 -7.89775 0
M  V30 2905 O 382.637 3.7668 -7.89438 0
M  V30 2906 C 381.23 2.20997 -6.55446 0
M  V30 2907 O 382.029 2.71895 -5.48509 0
M  V30 2908 C 379.893 2.89693 -6.67988 0
M  V30 2909 H 379.925 3.88793 -6.19859 0
M  V30 2910 H 381.108 1.12046 -6.44229 0
M  V30 2911 H 382.592 1.7746 -8.19711 0
M  V30 2912 H 380.898 3.20706 -9.67112 0
M  V30 2913 H 380.708 0.901032 -10.1892 0
M  V30 2914 H 379.078 1.33049 -9.56592 0
M  V30 2915 H 381.717 3.57847 -5.23962 0
M  V30 2916 P 383.574 3.65191 -7.99657 0
M  V30 2917 O 384.996 3.89332 -8.45794 0
M  V30 2918 O 383.214 2.28472 -7.50807 0
M  V30 2919 O 383.251 4.64972 -6.77611 0
M  V30 2920 C 383.091 6.06319 -7.16352 0
M  V30 2921 C 383.631 6.91731 -6.02299 0
M  V30 2922 O 382.575 6.92449 -5.17064 0
M  V30 2923 C 384.849 6.43627 -5.25174 0
M  V30 2924 O 385.587 7.43686 -4.60469 0
M  V30 2925 C 384.18 5.40275 -4.31916 0
M  V30 2926 O 384.979 5.25279 -3.14438 0
M  V30 2927 C 382.843 6.04847 -4.05327 0
M  V30 2928 H 382.875 6.62195 -3.11261 0
M  V30 2929 H 384.058 4.42556 -4.81383 0
M  V30 2930 H 385.542 5.92458 -5.93643 0
M  V30 2931 H 383.848 7.92655 -6.402 0
M  V30 2932 H 383.658 6.26671 -8.0846 0
M  V30 2933 H 382.028 6.29101 -7.32804 0
M  V30 2934 H 384.667 5.84315 -2.47318 0
M  V30 2935 P 386.525 7.39546 -4.75277 0
M  V30 2936 O 387.946 7.84882 -5.01092 0
M  V30 2937 O 386.165 5.9812 -5.08098 0
M  V30 2938 O 386.202 7.57503 -3.1866 0
M  V30 2939 C 386.041 8.97452 -2.74862 0
M  V30 2940 C 386.582 9.07548 -1.32709 0
M  V30 2941 O 385.527 8.61972 -0.606089 0
M  V30 2942 C 387.8 8.25383 -0.938334 0
M  V30 2943 O 388.538 8.74577 0.146954 0
M  V30 2944 C 387.132 6.8802 -0.712559 0
M  V30 2945 O 387.93 6.1181 0.188505 0
M  V30 2946 C 385.794 7.27966 -0.139777 0
M  V30 2947 N 384.751 6.39368 -0.623421 0
M  V30 2948 C 384.92 5.71761 -1.78245 0
M  V30 2949 N 383.893 4.962 -2.10491 0
M  V30 2950 C 383.008 5.16158 -1.0635 0
M  V30 2951 C 381.741 4.60425 -0.810266 0
M  V30 2952 N 381.176 5.06 0.348685 0
M  V30 2953 C 381.778 5.94532 1.20395 0
M  V30 2954 N 382.955 6.48452 1.01191 0
M  V30 2955 C 383.53 6.04423 -0.146291 0
M  V30 2956 H 387.009 6.32625 -1.65044 0
M  V30 2957 H 388.492 8.19355 -1.79097 0
M  V30 2958 H 386.798 10.1305 -1.09016 0
M  V30 2959 H 386.608 9.64276 -3.41316 0
M  V30 2960 H 384.978 9.25417 -2.76357 0
M  V30 2961 H 385.82 5.79354 -2.38959 0
M  V30 2962 H 387.618 6.25169 1.0783 0
M  V30 2963 P 389.475 8.791 1.973e-12 0
M  V30 2964 O 390.897 9.31096 0.027933 0
M  V30 2965 O 389.115 7.77869 -1.04071 0
M  V30 2966 O 389.152 8.09533 1.41463 0
M  V30 2967 C 388.992 9.0349 2.53943 0
M  V30 2968 C 389.532 8.35226 3.79016 0
M  V30 2969 O 388.476 7.57992 4.15078 0
M  V30 2970 C 390.75 7.45087 3.67298 0
M  V30 2971 O 391.488 7.27796 4.85194 0
M  V30 2972 C 390.081 6.17323 3.12027 0
M  V30 2973 O 390.88 5.04231 3.47188 0
M  V30 2974 C 388.744 6.19961 3.81809 0
M  V30 2975 H 388.776 5.58218 4.73051 0
M  V30 2976 H 389.959 6.21726 2.02589 0
M  V30 2977 H 391.443 7.86112 2.9231 0
M  V30 2978 H 389.749 9.11627 4.55076 0
M  V30 2979 H 389.559 9.9573 2.34194 0
M  V30 2980 H 387.929 9.2792 2.67832 0
M  V30 2981 H 390.568 4.67702 4.28772 0
M  V30 2982 P 392.426 7.39546 4.75277 0
M  V30 2983 O 393.848 7.81945 5.05847 0
M  V30 2984 O 392.066 7.1065 3.32998 0
M  V30 2985 O 392.103 6.04542 5.56673 0
M  V30 2986 C 391.943 6.22772 7.02095 0
M  V30 2987 C 392.483 4.97671 7.70322 0
M  V30 2988 O 391.428 4.13256 7.58987 0
M  V30 2989 C 393.701 4.28231 7.11815 0
M  V30 2990 O 394.439 3.49945 8.01648 0
M  V30 2991 C 393.033 3.5063 5.96244 0
M  V30 2992 O 393.831 2.36443 5.64589 0
M  V30 2993 C 391.695 3.15122 6.56374 0
M  V30 2994 N 390.652 3.22311 5.55692 0
M  V30 2995 C 390.714 4.14382 4.59701 0
M  V30 2996 N 389.669 4.04476 3.76958 0
M  V30 2997 C 388.935 3.04892 4.26534 0
M  V30 2998 C 387.629 2.57447 3.88189 0
M  V30 2999 O 386.896 2.9785 2.96543 0
M  V30 3000 N 387.199 1.55228 4.65922 0
M  V30 3001 C 387.948 1.01152 5.73447 0
M  V30 3002 N 387.351 -0.0472117 6.37783 0
M  V30 3003 N 389.101 1.467 6.13813 0
M  V30 3004 C 389.558 2.4931 5.38487 0
M  V30 3005 H 391.727 2.13853 6.99751 0
M  V30 3006 H 392.91 4.13438 5.06482 0
M  V30 3007 H 394.395 5.02614 6.71414 0
M  V30 3008 H 392.7 5.20877 8.75697 0
M  V30 3009 H 392.51 7.11046 7.35349 0
M  V30 3010 H 390.879 6.35815 7.26986 0
M  V30 3011 H 386.303 1.15238 4.46468 0
M  V30 3012 H 391.51 4.88312 4.49647 0
M  V30 3013 H 386.44 -0.396382 6.05203 0
M  V30 3014 H 387.816 -0.484997 7.18465 0
M  V30 3015 H 393.52 1.61619 6.13468 0
M  V30 3016 P 395.376 3.65191 7.99657 0
M  V30 3017 O 396.798 3.8425 8.48115 0
M  V30 3018 O 395.016 4.17805 6.64342 0
M  V30 3019 O 395.053 2.07613 7.95143 0
M  V30 3020 C 394.893 1.44328 9.27336 0
M  V30 3021 C 395.433 0.0220036 9.17197 0
M  V30 3022 O 394.377 -0.626867 8.61923 0
M  V30 3023 C 396.651 -0.24586 8.30336 0
M  V30 3024 O 397.389 -1.39011 8.63583 0
M  V30 3025 C 395.982 -0.273849 6.91158 0
M  V30 3026 O 396.781 -1.06348 6.02892 0
M  V30 3027 C 394.645 -0.897649 7.22545 0
M  V30 3028 H 394.677 -1.9841 7.04286 0
M  V30 3029 H 395.86 0.739928 6.497 0
M  V30 3030 H 397.344 0.60668 8.36503 0
M  V30 3031 H 395.65 -0.352479 10.1829 0
M  V30 3032 H 395.46 2.00611 10.0304 0
M  V30 3033 H 393.83 1.41843 9.55327 0
M  V30 3034 H 396.469 -1.95734 6.03555 0
M  V30 3035 P 398.327 -1.25109 8.70152 0
M  V30 3036 O 399.749 -1.35274 9.21221 0
M  V30 3037 O 397.967 -0.0769065 7.84762 0
M  V30 3038 O 398.004 -2.55232 7.81161 0
M  V30 3039 C 397.844 -3.79939 8.58154 0
M  V30 3040 C 398.384 -4.94023 7.72785 0
M  V30 3041 O 397.328 -5.18726 6.91205 0
M  V30 3042 C 399.602 -4.69597 6.85231 0
M  V30 3043 O 400.34 -5.83832 6.51337 0
M  V30 3044 C 398.933 -3.96706 5.66633 0
M  V30 3045 O 399.732 -4.15414 4.49689 0
M  V30 3046 C 397.596 -4.66153 5.59313 0
M  V30 3047 H 397.628 -5.47679 4.85214 0
M  V30 3048 H 398.811 -2.89008 5.86566 0
M  V30 3049 H 400.295 -4.0121 7.36511 0
M  V30 3050 H 398.601 -5.80182 8.37584 0
M  V30 3051 H 398.411 -3.73517 9.52265 0
M  V30 3052 H 396.781 -3.97163 8.80359 0
M  V30 3053 H 399.42 -4.90969 4.01921 0
M  V30 3054 P 401.278 -5.75688 6.64379 0
M  V30 3055 O 402.7 -6.11849 7.01846 0
M  V30 3056 O 400.918 -4.30744 6.56026 0
M  V30 3057 O 400.955 -6.37042 5.19165 0
M  V30 3058 C 400.795 -7.83578 5.16515 0
M  V30 3059 C 401.335 -8.33398 3.83019 0
M  V30 3060 O 400.279 -8.10074 3.01034 0
M  V30 3061 C 402.553 -7.65514 3.2257 0
M  V30 3062 O 403.291 -8.4329 2.32297 0
M  V30 3063 C 401.884 -6.40075 2.62207 0
M  V30 3064 O 402.683 -5.92589 1.53712 0
M  V30 3065 C 400.547 -6.9454 2.18503 0
M  V30 3066 H 400.579 -7.23063 1.12091 0
M  V30 3067 H 401.762 -5.6025 3.37201 0
M  V30 3068 H 403.246 -7.35707 4.02681 0
M  V30 3069 H 401.552 -9.40912 3.9095 0
M  V30 3070 H 401.362 -8.29056 5.99158 0
M  V30 3071 H 399.732 -8.10073 5.25882 0
M  V30 3072 H 402.371 -6.30324 0.726794 0
M  V30 3073 P 404.228 -8.4349 2.47671 0
M  V30 3074 O 405.65 -8.94167 2.5964 0
M  V30 3075 O 403.868 -7.1704 3.19006 0
M  V30 3076 O 403.905 -8.16596 0.923387 0
M  V30 3077 C 403.745 -9.38437 0.108857 0
M  V30 3078 C 404.285 -9.08175 -1.28353 0
M  V30 3079 O 403.229 -8.44229 -1.84713 0
M  V30 3080 C 405.503 -8.18386 -1.42505 0
M  V30 3081 O 406.241 -8.3501 -2.60497 0
M  V30 3082 C 404.834 -6.80225 -1.25468 0
M  V30 3083 O 405.633 -5.81621 -1.91066 0
M  V30 3084 C 403.497 -7.02416 -1.9168 0
M  V30 3085 H 403.529 -6.6888 -2.96621 0
M  V30 3086 H 404.712 -6.53617 -0.192223 0
M  V30 3087 H 406.196 -8.36622 -0.589963 0
M  V30 3088 H 404.502 -10.0291 -1.79807 0
M  V30 3089 H 404.312 -10.2138 0.558219 0
M  V30 3090 H 402.682 -9.6579 0.0444202 0
M  V30 3091 H 405.321 -5.69556 -2.79637 0
M  V30 3092 P 407.179 -8.4349 -2.47671 0
M  V30 3093 O 408.601 -8.92593 -2.65 0
M  V30 3094 O 406.819 -7.7568 -1.19296 0
M  V30 3095 O 406.856 -7.36886 -3.63805 0
M  V30 3096 C 406.696 -7.95349 -4.982 0
M  V30 3097 C 407.236 -6.94612 -5.98974 0
M  V30 3098 O 406.18 -6.10347 -6.11815 0
M  V30 3099 C 408.454 -6.11426 -5.62335 0
M  V30 3100 O 409.192 -5.6162 -6.70584 0
M  V30 3101 C 407.785 -5.04409 -4.73308 0
M  V30 3102 O 408.584 -3.85992 -4.75183 0
M  V30 3103 C 406.448 -4.8728 -5.41006 0
M  V30 3104 H 406.48 -4.02333 -6.11157 0
M  V30 3105 H 407.663 -5.39466 -3.69543 0
M  V30 3106 H 409.147 -6.71916 -5.01943 0
M  V30 3107 H 407.453 -7.4649 -6.93477 0
M  V30 3108 H 407.263 -8.89416 -5.05237 0
M  V30 3109 H 405.633 -8.14876 -5.18409 0
M  V30 3110 H 408.272 -3.27957 -5.4317 0
M  V30 3111 P 410.129 -5.75688 -6.64379 0
M  V30 3112 O 411.551 -6.07627 -7.05504 0
M  V30 3113 O 409.769 -5.88047 -5.19722 0
M  V30 3114 O 409.806 -4.2322 -7.04443 0
M  V30 3115 C 409.646 -3.99743 -8.4911 0
M  V30 3116 C 410.186 -2.60516 -8.79425 0
M  V30 3117 O 409.13 -1.82684 -8.4467 0
M  V30 3118 C 411.404 -2.10343 -8.03628 0
M  V30 3119 O 412.142 -1.09919 -8.67766 0
M  V30 3120 C 410.735 -1.68446 -6.70876 0
M  V30 3121 O 411.534 -0.678137 -6.08433 0
M  V30 3122 C 409.398 -1.17436 -7.18567 0
M  V30 3123 H 409.43 -0.0804732 -7.31656 0
M  V30 3124 H 410.613 -2.54037 -6.02537 0
M  V30 3125 H 412.097 -2.93881 -7.85526 0
M  V30 3126 H 410.403 -2.53065 -9.86973 0
M  V30 3127 H 410.213 -4.75072 -9.05887 0
M  V30 3128 H 408.583 -4.05244 -8.76668 0
M  V30 3129 H 411.222 0.177647 -6.34251 0
M  V30 3130 P 413.08 -1.25109 -8.70152 0
M  V30 3131 O 414.502 -1.29744 -9.22016 0
M  V30 3132 O 412.72 -2.13714 -7.55141 0
M  V30 3133 O 412.757 0.248149 -8.21425 0
M  V30 3134 C 412.597 1.22779 -9.30434 0
M  V30 3135 C 413.137 2.56293 -8.80664 0
M  V30 3136 O 412.081 3.02979 -8.09349 0
M  V30 3137 C 414.355 2.57523 -7.89775 0
M  V30 3138 O 415.093 3.7668 -7.89438 0
M  V30 3139 C 413.686 2.20997 -6.55446 0
M  V30 3140 O 414.485 2.71895 -5.48509 0
M  V30 3141 C 412.349 2.89693 -6.67988 0
M  V30 3142 H 412.381 3.88793 -6.19859 0
M  V30 3143 H 413.564 1.12046 -6.44229 0
M  V30 3144 H 415.048 1.7746 -8.19711 0
M  V30 3145 H 413.354 3.20706 -9.67112 0
M  V30 3146 H 413.164 0.901032 -10.1892 0
M  V30 3147 H 411.534 1.33049 -9.56592 0
M  V30 3148 H 414.173 3.57847 -5.23962 0
M  V30 3149 P 416.03 3.65191 -7.99657 0
M  V30 3150 O 417.452 3.89332 -8.45794 0
M  V30 3151 O 415.67 2.28472 -7.50807 0
M  V30 3152 O 415.707 4.64972 -6.77611 0
M  V30 3153 C 415.547 6.06319 -7.16352 0
M  V30 3154 C 416.087 6.91731 -6.02299 0
M  V30 3155 O 415.031 6.92449 -5.17064 0
M  V30 3156 C 417.305 6.43627 -5.25174 0
M  V30 3157 O 418.043 7.43686 -4.60469 0
M  V30 3158 C 416.636 5.40275 -4.31916 0
M  V30 3159 O 417.435 5.25279 -3.14438 0
M  V30 3160 C 415.299 6.04847 -4.05327 0
M  V30 3161 H 415.331 6.62195 -3.11261 0
M  V30 3162 H 416.514 4.42556 -4.81383 0
M  V30 3163 H 417.998 5.92458 -5.93643 0
M  V30 3164 H 416.304 7.92655 -6.402 0
M  V30 3165 H 416.114 6.26671 -8.0846 0
M  V30 3166 H 414.484 6.29101 -7.32804 0
M  V30 3167 H 417.123 5.84315 -2.47318 0
M  V30 3168 P 418.981 7.39546 -4.75277 0
M  V30 3169 O 420.403 7.84798 -5.01039 0
M  V30 3170 O 418.621 5.9812 -5.08098 0
M  V30 3171 O 418.658 7.57503 -3.1866 0
M  V30 3172 C 418.498 8.97357 -2.74833 0
M  V30 3173 C 419.038 9.07548 -1.32709 0
M  V30 3174 O 417.982 8.62072 -0.606159 0
M  V30 3175 C 420.256 8.25383 -0.938334 0
M  V30 3176 O 420.994 8.74577 0.146954 0
M  V30 3177 C 419.587 6.8802 -0.712559 0
M  V30 3178 O 420.386 6.1189 0.194655 0
M  V30 3179 C 418.25 7.27966 -0.139777 0
M  V30 3180 H 418.282 7.25354 0.961601 0
M  V30 3181 H 419.465 6.32557 -1.65702 0
M  V30 3182 H 420.949 8.19355 -1.79097 0
M  V30 3183 H 419.255 10.1294 -1.10029 0
M  V30 3184 H 419.065 9.64276 -3.41316 0
M  V30 3185 H 417.435 9.25417 -2.76357 0
M  V30 3186 H 420.074 6.25267 1.07847 0
M  V30 3187 P 421.932 8.791 2.28317e-12 0
M  V30 3188 O 423.333 9.36698 -0.018734 0
M  V30 3189 O 421.554 7.82499 -1.07878 0
M  V30 3190 O 421.609 8.09434 1.41446 0
M  V30 3191 C 421.449 9.0349 2.53943 0
M  V30 3192 C 421.989 8.35135 3.78975 0
M  V30 3193 O 420.933 7.57904 4.1503 0
M  V30 3194 C 423.206 7.45087 3.67298 0
M  V30 3195 O 423.945 7.27796 4.85194 0
M  V30 3196 C 422.539 6.17323 3.12027 0
M  V30 3197 O 423.337 5.04149 3.47132 0
M  V30 3198 C 421.201 6.19961 3.81809 0
M  V30 3199 N 420.158 5.71575 2.93223 0
M  V30 3200 C 419.123 4.99452 3.47592 0
M  V30 3201 O 419.162 4.7199 4.69732 0
M  V30 3202 N 418.111 4.58505 2.6803 0
M  V30 3203 C 418.159 4.85544 1.36995 0
M  V30 3204 C 419.255 5.55532 0.788532 0
M  V30 3205 C 420.221 5.97426 1.60849 0
M  V30 3206 H 421.233 5.58142 4.72986 0
M  V30 3207 H 422.416 6.21428 2.0318 0
M  V30 3208 H 423.9 7.85913 2.93131 0
M  V30 3209 H 422.206 9.11171 4.55987 0
M  V30 3210 H 422.015 9.9573 2.34194 0
M  V30 3211 H 420.385 9.27824 2.67805 0
M  V30 3212 H 419.303 5.7421 -0.281588 0
M  V30 3213 H 421.067 6.53132 1.202 0
M  V30 3214 H 423.121 4.76386 4.34983 0
M  V30 3215 P 424.882 7.39546 4.75277 0
M  V30 3216 O 426.303 7.81861 5.05793 0
M  V30 3217 O 424.522 7.1065 3.32998 0
M  V30 3218 O 424.559 6.04542 5.56673 0
M  V30 3219 C 424.398 6.22839 7.02169 0
M  V30 3220 C 424.939 4.97725 7.70406 0
M  V30 3221 O 423.884 4.13208 7.58899 0
M  V30 3222 C 426.157 4.28231 7.11815 0
M  V30 3223 O 426.895 3.49945 8.01648 0
M  V30 3224 C 425.489 3.5063 5.96244 0
M  V30 3225 O 426.287 2.37008 5.64352 0
M  V30 3226 C 424.151 3.15122 6.56374 0
M  V30 3227 N 423.108 3.22311 5.55692 0
M  V30 3228 C 423.277 3.99655 4.46046 0
M  V30 3229 N 422.25 3.97599 3.63918 0
M  V30 3230 C 421.365 3.11159 4.25334 0
M  V30 3231 C 420.098 2.64972 3.85157 0
M  V30 3232 N 419.533 1.78482 4.74759 0
M  V30 3233 C 420.135 1.37463 5.90819 0
M  V30 3234 N 421.312 1.7733 6.31889 0
M  V30 3235 C 421.887 2.64393 5.43725 0
M  V30 3236 H 425.366 4.12931 5.06895 0
M  V30 3237 H 426.849 5.03285 6.70911 0
M  V30 3238 H 425.155 5.20001 8.76217 0
M  V30 3239 H 424.965 7.11046 7.35349 0
M  V30 3240 H 423.335 6.35815 7.26986 0
M  V30 3241 H 424.177 4.58037 4.27732 0
M  V30 3242 H 425.975 1.61619 6.13468 0
M  V30 3243 P 427.833 3.65191 7.99657 0
M  V30 3244 O 429.255 3.8425 8.48115 0
M  V30 3245 O 427.473 4.17805 6.64342 0
M  V30 3246 O 427.51 2.07613 7.95143 0
M  V30 3247 C 427.35 1.44328 9.27336 0
M  V30 3248 C 427.89 0.0220036 9.17197 0
M  V30 3249 O 426.834 -0.626867 8.61923 0
M  V30 3250 C 429.108 -0.24586 8.30336 0
M  V30 3251 O 429.846 -1.39011 8.63583 0
M  V30 3252 C 428.439 -0.273849 6.91158 0
M  V30 3253 O 429.238 -1.06348 6.02892 0
M  V30 3254 C 427.102 -0.897649 7.22545 0
M  V30 3255 H 427.134 -1.9841 7.04286 0
M  V30 3256 H 428.317 0.739928 6.497 0
M  V30 3257 H 429.801 0.60668 8.36503 0
M  V30 3258 H 428.107 -0.352479 10.1829 0
M  V30 3259 H 427.917 2.00611 10.0304 0
M  V30 3260 H 426.287 1.41843 9.55327 0
M  V30 3261 H 428.926 -1.95734 6.03555 0
M  V30 3262 P 430.783 -1.25109 8.70152 0
M  V30 3263 O 432.205 -1.35274 9.21221 0
M  V30 3264 O 430.423 -0.0769065 7.84762 0
M  V30 3265 O 430.46 -2.55232 7.81161 0
M  V30 3266 C 430.3 -3.79939 8.58154 0
M  V30 3267 C 430.84 -4.94023 7.72785 0
M  V30 3268 O 429.784 -5.18726 6.91205 0
M  V30 3269 C 432.058 -4.69597 6.85231 0
M  V30 3270 O 432.796 -5.83832 6.51337 0
M  V30 3271 C 431.389 -3.96706 5.66633 0
M  V30 3272 O 432.188 -4.15414 4.49689 0
M  V30 3273 C 430.052 -4.66153 5.59313 0
M  V30 3274 H 430.084 -5.47679 4.85214 0
M  V30 3275 H 431.267 -2.89008 5.86566 0
M  V30 3276 H 432.751 -4.0121 7.36511 0
M  V30 3277 H 431.057 -5.80182 8.37584 0
M  V30 3278 H 430.867 -3.73517 9.52265 0
M  V30 3279 H 429.237 -3.97163 8.80359 0
M  V30 3280 H 431.876 -4.90969 4.01921 0
M  V30 3281 P 433.734 -5.75688 6.64379 0
M  V30 3282 O 435.156 -6.11849 7.01846 0
M  V30 3283 O 433.374 -4.30744 6.56026 0
M  V30 3284 O 433.411 -6.37042 5.19165 0
M  V30 3285 C 433.251 -7.83578 5.16515 0
M  V30 3286 C 433.791 -8.33398 3.83019 0
M  V30 3287 O 432.735 -8.10074 3.01034 0
M  V30 3288 C 435.009 -7.65514 3.2257 0
M  V30 3289 O 435.747 -8.4329 2.32297 0
M  V30 3290 C 434.34 -6.40075 2.62207 0
M  V30 3291 O 435.139 -5.92589 1.53712 0
M  V30 3292 C 433.003 -6.9454 2.18503 0
M  V30 3293 H 433.035 -7.23063 1.12091 0
M  V30 3294 H 434.218 -5.6025 3.37201 0
M  V30 3295 H 435.702 -7.35707 4.02681 0
M  V30 3296 H 434.008 -9.40912 3.9095 0
M  V30 3297 H 433.818 -8.29056 5.99158 0
M  V30 3298 H 432.188 -8.10073 5.25882 0
M  V30 3299 H 434.827 -6.30324 0.726794 0
M  V30 3300 P 436.684 -8.4349 2.47671 0
M  V30 3301 O 438.106 -8.94167 2.5964 0
M  V30 3302 O 436.324 -7.1704 3.19006 0
M  V30 3303 O 436.361 -8.16596 0.923387 0
M  V30 3304 C 436.201 -9.38437 0.108857 0
M  V30 3305 C 436.741 -9.08175 -1.28353 0
M  V30 3306 O 435.685 -8.44229 -1.84713 0
M  V30 3307 C 437.959 -8.18386 -1.42505 0
M  V30 3308 O 438.697 -8.3501 -2.60497 0
M  V30 3309 C 437.29 -6.80225 -1.25468 0
M  V30 3310 O 438.089 -5.81621 -1.91066 0
M  V30 3311 C 435.953 -7.02416 -1.9168 0
M  V30 3312 H 435.985 -6.6888 -2.96621 0
M  V30 3313 H 437.168 -6.53617 -0.192223 0
M  V30 3314 H 438.652 -8.36622 -0.589963 0
M  V30 3315 H 436.958 -10.0291 -1.79807 0
M  V30 3316 H 436.768 -10.2138 0.558219 0
M  V30 3317 H 435.138 -9.6579 0.0444202 0
M  V30 3318 H 437.777 -5.69556 -2.79637 0
M  V30 3319 P 439.635 -8.4349 -2.47671 0
M  V30 3320 O 441.057 -8.92593 -2.65 0
M  V30 3321 O 439.275 -7.7568 -1.19296 0
M  V30 3322 O 439.312 -7.36886 -3.63805 0
M  V30 3323 C 439.152 -7.95349 -4.982 0
M  V30 3324 C 439.692 -6.94612 -5.98974 0
M  V30 3325 O 438.636 -6.10347 -6.11815 0
M  V30 3326 C 440.91 -6.11426 -5.62335 0
M  V30 3327 O 441.648 -5.6162 -6.70584 0
M  V30 3328 C 440.241 -5.04409 -4.73308 0
M  V30 3329 O 441.04 -3.85992 -4.75183 0
M  V30 3330 C 438.904 -4.8728 -5.41006 0
M  V30 3331 H 438.936 -4.02333 -6.11157 0
M  V30 3332 H 440.119 -5.39466 -3.69543 0
M  V30 3333 H 441.603 -6.71916 -5.01943 0
M  V30 3334 H 439.909 -7.4649 -6.93477 0
M  V30 3335 H 439.719 -8.89416 -5.05237 0
M  V30 3336 H 438.089 -8.14876 -5.18409 0
M  V30 3337 H 440.728 -3.27957 -5.4317 0
M  V30 3338 P 442.586 -5.75688 -6.64379 0
M  V30 3339 O 444.008 -6.07758 -7.05656 0
M  V30 3340 O 442.226 -5.88047 -5.19722 0
M  V30 3341 O 442.263 -4.2322 -7.04443 0
M  V30 3342 C 442.103 -3.99743 -8.4911 0
M  V30 3343 C 442.643 -2.60487 -8.79329 0
M  V30 3344 O 441.588 -1.82684 -8.4467 0
M  V30 3345 C 443.861 -2.10343 -8.03628 0
M  V30 3346 O 444.599 -1.09919 -8.67766 0
M  V30 3347 C 443.193 -1.68446 -6.70876 0
M  V30 3348 O 443.991 -0.678026 -6.08333 0
M  V30 3349 C 441.855 -1.17436 -7.18567 0
M  V30 3350 N 440.812 -1.52699 -6.23988 0
M  V30 3351 C 440.874 -2.68084 -5.57824 0
M  V30 3352 N 439.829 -2.8189 -4.75643 0
M  V30 3353 C 439.095 -1.72373 -4.95155 0
M  V30 3354 C 437.789 -1.37653 -4.44996 0
M  V30 3355 O 437.056 -2.02239 -3.68445 0
M  V30 3356 N 437.359 -0.17675 -4.90782 0
M  V30 3357 C 438.108 0.645036 -5.78716 0
M  V30 3358 N 437.511 1.84214 -6.10618 0
M  V30 3359 N 439.261 0.321732 -6.30279 0
M  V30 3360 C 439.718 -0.87502 -5.86913 0
M  V30 3361 H 441.887 -0.0804732 -7.31656 0
M  V30 3362 H 443.07 -2.53998 -6.02444 0
M  V30 3363 H 444.555 -2.93095 -7.8582 0
M  V30 3364 H 442.86 -2.53065 -9.86973 0
M  V30 3365 H 442.67 -4.75072 -9.05887 0
M  V30 3366 H 441.039 -4.05244 -8.76668 0
M  V30 3367 H 436.463 0.152143 -4.60849 0
M  V30 3368 H 441.67 -3.41852 -5.69006 0
M  V30 3369 H 436.6 2.08538 -5.69521 0
M  V30 3370 H 437.976 2.4895 -6.75698 0
M  V30 3371 H 443.68 0.177619 -6.34151 0
M  V30 3372 P 445.536 -1.25109 -8.70152 0
M  V30 3373 O 446.958 -1.29744 -9.22016 0
M  V30 3374 O 445.176 -2.13714 -7.55141 0
M  V30 3375 O 445.213 0.248149 -8.21425 0
M  V30 3376 C 445.053 1.22779 -9.30434 0
M  V30 3377 C 445.593 2.56293 -8.80664 0
M  V30 3378 O 444.537 3.02979 -8.09349 0
M  V30 3379 C 446.811 2.57523 -7.89775 0
M  V30 3380 O 447.549 3.7668 -7.89438 0
M  V30 3381 C 446.142 2.20997 -6.55446 0
M  V30 3382 O 446.941 2.71895 -5.48509 0
M  V30 3383 C 444.805 2.89693 -6.67988 0
M  V30 3384 H 444.837 3.88793 -6.19859 0
M  V30 3385 H 446.02 1.12046 -6.44229 0
M  V30 3386 H 447.504 1.7746 -8.19711 0
M  V30 3387 H 445.81 3.20706 -9.67112 0
M  V30 3388 H 445.62 0.901032 -10.1892 0
M  V30 3389 H 443.99 1.33049 -9.56592 0
M  V30 3390 H 446.629 3.57847 -5.23962 0
M  V30 3391 P 448.487 3.65191 -7.99657 0
M  V30 3392 O 449.909 3.89332 -8.45794 0
M  V30 3393 O 448.127 2.28472 -7.50807 0
M  V30 3394 O 448.164 4.64972 -6.77611 0
M  V30 3395 C 448.004 6.06319 -7.16352 0
M  V30 3396 C 448.544 6.91731 -6.02299 0
M  V30 3397 O 447.488 6.92449 -5.17064 0
M  V30 3398 C 449.762 6.43627 -5.25174 0
M  V30 3399 O 450.5 7.43686 -4.60469 0
M  V30 3400 C 449.093 5.40275 -4.31916 0
M  V30 3401 O 449.892 5.25279 -3.14438 0
M  V30 3402 C 447.756 6.04847 -4.05327 0
M  V30 3403 H 447.788 6.62195 -3.11261 0
M  V30 3404 H 448.971 4.42556 -4.81383 0
M  V30 3405 H 450.455 5.92458 -5.93643 0
M  V30 3406 H 448.761 7.92655 -6.402 0
M  V30 3407 H 448.571 6.26671 -8.0846 0
M  V30 3408 H 446.941 6.29101 -7.32804 0
M  V30 3409 H 449.58 5.84315 -2.47318 0
M  V30 3410 P 451.437 7.39546 -4.75277 0
M  V30 3411 O 452.859 7.84798 -5.01039 0
M  V30 3412 O 451.077 5.9812 -5.08098 0
M  V30 3413 O 451.114 7.57503 -3.1866 0
M  V30 3414 C 450.954 8.97357 -2.74833 0
M  V30 3415 C 451.494 9.07548 -1.32709 0
M  V30 3416 O 450.438 8.62072 -0.606159 0
M  V30 3417 C 452.712 8.25383 -0.938334 0
M  V30 3418 O 453.45 8.74577 0.146954 0
M  V30 3419 C 452.043 6.8802 -0.712559 0
M  V30 3420 O 452.842 6.1189 0.194655 0
M  V30 3421 C 450.706 7.27966 -0.139777 0
M  V30 3422 H 450.738 7.25354 0.961601 0
M  V30 3423 H 451.921 6.32557 -1.65702 0
M  V30 3424 H 453.405 8.19355 -1.79097 0
M  V30 3425 H 451.711 10.1294 -1.10029 0
M  V30 3426 H 451.521 9.64276 -3.41316 0
M  V30 3427 H 449.891 9.25417 -2.76357 0
M  V30 3428 H 452.53 6.25267 1.07847 0
M  V30 3429 P 454.388 8.791 2.59334e-12 0
M  V30 3430 O 455.81 9.31096 0.027933 0
M  V30 3431 O 454.028 7.77869 -1.04071 0
M  V30 3432 O 454.065 8.09533 1.41463 0
M  V30 3433 C 453.905 9.0349 2.53943 0
M  V30 3434 C 454.445 8.35226 3.79016 0
M  V30 3435 O 453.389 7.57992 4.15078 0
M  V30 3436 C 455.663 7.45087 3.67298 0
M  V30 3437 O 456.401 7.27796 4.85194 0
M  V30 3438 C 454.994 6.17323 3.12027 0
M  V30 3439 O 455.793 5.04231 3.47188 0
M  V30 3440 C 453.657 6.19961 3.81809 0
M  V30 3441 H 453.689 5.58218 4.73051 0
M  V30 3442 H 454.872 6.21726 2.02589 0
M  V30 3443 H 456.356 7.86112 2.9231 0
M  V30 3444 H 454.662 9.11627 4.55076 0
M  V30 3445 H 454.472 9.9573 2.34194 0
M  V30 3446 H 452.842 9.2792 2.67832 0
M  V30 3447 H 455.481 4.67702 4.28772 0
M  V30 3448 P 457.338 7.39546 4.75277 0
M  V30 3449 O 458.76 7.81777 5.05738 0
M  V30 3450 O 456.978 7.1065 3.32998 0
M  V30 3451 O 457.015 6.04542 5.56673 0
M  V30 3452 C 456.855 6.22772 7.02095 0
M  V30 3453 C 457.395 4.97725 7.70406 0
M  V30 3454 O 456.339 4.13256 7.58987 0
M  V30 3455 C 458.613 4.28231 7.11815 0
M  V30 3456 O 459.351 3.49945 8.01648 0
M  V30 3457 C 457.944 3.5063 5.96244 0
M  V30 3458 O 458.743 2.36482 5.64681 0
M  V30 3459 C 456.607 3.15122 6.56374 0
M  V30 3460 H 456.639 2.13853 6.99751 0
M  V30 3461 H 457.822 4.13501 5.06559 0
M  V30 3462 H 459.306 5.03285 6.70911 0
M  V30 3463 H 457.612 5.20877 8.75697 0
M  V30 3464 H 457.422 7.11046 7.35349 0
M  V30 3465 H 455.792 6.35815 7.26986 0
M  V30 3466 H 458.431 1.61644 6.13565 0
M  V30 3467 P 460.289 3.65191 7.99657 0
M  V30 3468 O 461.711 3.8425 8.48115 0
M  V30 3469 O 459.929 4.17805 6.64342 0
M  V30 3470 O 459.966 2.07613 7.95143 0
M  V30 3471 C 459.806 1.44328 9.27336 0
M  V30 3472 C 460.346 0.0220036 9.17197 0
M  V30 3473 O 459.29 -0.626867 8.61923 0
M  V30 3474 C 461.564 -0.24586 8.30336 0
M  V30 3475 O 462.302 -1.39011 8.63583 0
M  V30 3476 C 460.895 -0.273849 6.91158 0
M  V30 3477 O 461.694 -1.06348 6.02892 0
M  V30 3478 C 459.558 -0.897649 7.22545 0
M  V30 3479 H 459.59 -1.9841 7.04286 0
M  V30 3480 H 460.773 0.739928 6.497 0
M  V30 3481 H 462.257 0.60668 8.36503 0
M  V30 3482 H 460.563 -0.352479 10.1829 0
M  V30 3483 H 460.373 2.00611 10.0304 0
M  V30 3484 H 458.743 1.41843 9.55327 0
M  V30 3485 H 461.382 -1.95734 6.03555 0
M  V30 3486 P 463.239 -1.25109 8.70152 0
M  V30 3487 O 464.661 -1.35274 9.21221 0
M  V30 3488 O 462.879 -0.0769065 7.84762 0
M  V30 3489 O 462.916 -2.55232 7.81161 0
M  V30 3490 C 462.756 -3.79939 8.58154 0
M  V30 3491 C 463.296 -4.94023 7.72785 0
M  V30 3492 O 462.24 -5.18726 6.91205 0
M  V30 3493 C 464.514 -4.69597 6.85231 0
M  V30 3494 O 465.252 -5.83832 6.51337 0
M  V30 3495 C 463.845 -3.96706 5.66633 0
M  V30 3496 O 464.644 -4.15414 4.49689 0
M  V30 3497 C 462.508 -4.66153 5.59313 0
M  V30 3498 H 462.54 -5.47679 4.85214 0
M  V30 3499 H 463.723 -2.89008 5.86566 0
M  V30 3500 H 465.207 -4.0121 7.36511 0
M  V30 3501 H 463.513 -5.80182 8.37584 0
M  V30 3502 H 463.323 -3.73517 9.52265 0
M  V30 3503 H 461.693 -3.97163 8.80359 0
M  V30 3504 H 464.332 -4.90969 4.01921 0
M  V30 3505 P 466.19 -5.75688 6.64379 0
M  V30 3506 O 467.612 -6.11849 7.01846 0
M  V30 3507 O 465.83 -4.30744 6.56026 0
M  V30 3508 O 465.867 -6.37042 5.19165 0
M  V30 3509 C 465.707 -7.83578 5.16515 0
M  V30 3510 C 466.247 -8.33398 3.83019 0
M  V30 3511 O 465.191 -8.10074 3.01034 0
M  V30 3512 C 467.465 -7.65514 3.2257 0
M  V30 3513 O 468.203 -8.4329 2.32297 0
M  V30 3514 C 466.796 -6.40075 2.62207 0
M  V30 3515 O 467.595 -5.92589 1.53712 0
M  V30 3516 C 465.459 -6.9454 2.18503 0
M  V30 3517 H 465.491 -7.23063 1.12091 0
M  V30 3518 H 466.674 -5.6025 3.37201 0
M  V30 3519 H 468.158 -7.35707 4.02681 0
M  V30 3520 H 466.464 -9.40912 3.9095 0
M  V30 3521 H 466.274 -8.29056 5.99158 0
M  V30 3522 H 464.644 -8.10073 5.25882 0
M  V30 3523 H 467.283 -6.30324 0.726794 0
M  V30 3524 P 469.141 -8.4349 2.47671 0
M  V30 3525 O 470.562 -8.94263 2.59668 0
M  V30 3526 O 468.781 -7.1704 3.19006 0
M  V30 3527 O 468.818 -8.16596 0.923387 0
M  V30 3528 C 468.657 -9.38537 0.108869 0
M  V30 3529 C 469.198 -9.08175 -1.28353 0
M  V30 3530 O 468.143 -8.44131 -1.84692 0
M  V30 3531 C 470.416 -8.18386 -1.42505 0
M  V30 3532 O 471.154 -8.3501 -2.60497 0
M  V30 3533 C 469.748 -6.80225 -1.25468 0
M  V30 3534 O 470.546 -5.81716 -1.90454 0
M  V30 3535 C 468.41 -7.02416 -1.9168 0
M  V30 3536 N 467.367 -6.31033 -1.20314 0
M  V30 3537 C 467.536 -5.98817 0.0994088 0
M  V30 3538 N 466.509 -5.35403 0.621694 0
M  V30 3539 C 465.624 -5.25212 -0.43376 0
M  V30 3540 C 464.357 -4.64602 -0.519722 0
M  V30 3541 N 463.792 -4.7568 -1.76013 0
M  V30 3542 C 464.394 -5.3653 -2.83017 0
M  V30 3543 N 465.571 -5.93676 -2.79782 0
M  V30 3544 C 466.146 -5.84061 -1.56249 0
M  V30 3545 H 469.625 -6.53498 -0.198729 0
M  V30 3546 H 471.108 -8.36622 -0.589963 0
M  V30 3547 H 469.414 -10.0273 -1.8081 0
M  V30 3548 H 469.224 -10.2138 0.558219 0
M  V30 3549 H 467.594 -9.6579 0.0444202 0
M  V30 3550 H 468.436 -6.23209 0.660562 0
M  V30 3551 H 470.234 -5.69466 -2.79593 0
M  V30 3552 P 472.091 -8.4349 -2.47671 0
M  V30 3553 O 473.513 -8.92593 -2.65 0
M  V30 3554 O 471.731 -7.7568 -1.19296 0
M  V30 3555 O 471.768 -7.36886 -3.63805 0
M  V30 3556 C 471.608 -7.95349 -4.982 0
M  V30 3557 C 472.148 -6.94612 -5.98974 0
M  V30 3558 O 471.092 -6.10347 -6.11815 0
M  V30 3559 C 473.366 -6.11426 -5.62335 0
M  V30 3560 O 474.104 -5.6162 -6.70584 0
M  V30 3561 C 472.697 -5.04409 -4.73308 0
M  V30 3562 O 473.496 -3.85992 -4.75183 0
M  V30 3563 C 471.36 -4.8728 -5.41006 0
M  V30 3564 H 471.392 -4.02333 -6.11157 0
M  V30 3565 H 472.575 -5.39466 -3.69543 0
M  V30 3566 H 474.059 -6.71916 -5.01943 0
M  V30 3567 H 472.365 -7.4649 -6.93477 0
M  V30 3568 H 472.175 -8.89416 -5.05237 0
M  V30 3569 H 470.545 -8.14876 -5.18409 0
M  V30 3570 H 473.184 -3.27957 -5.4317 0
M  V30 3571 P 475.042 -5.75688 -6.64379 0
M  V30 3572 O 476.464 -6.07627 -7.05504 0
M  V30 3573 O 474.682 -5.88047 -5.19722 0
M  V30 3574 O 474.719 -4.2322 -7.04443 0
M  V30 3575 C 474.559 -3.99743 -8.4911 0
M  V30 3576 C 475.099 -2.60516 -8.79425 0
M  V30 3577 O 474.043 -1.82684 -8.4467 0
M  V30 3578 C 476.317 -2.10343 -8.03628 0
M  V30 3579 O 477.055 -1.09919 -8.67766 0
M  V30 3580 C 475.648 -1.68446 -6.70876 0
M  V30 3581 O 476.447 -0.678137 -6.08433 0
M  V30 3582 C 474.311 -1.17436 -7.18567 0
M  V30 3583 H 474.343 -0.0804732 -7.31656 0
M  V30 3584 H 475.526 -2.54037 -6.02537 0
M  V30 3585 H 477.01 -2.93881 -7.85526 0
M  V30 3586 H 475.316 -2.53065 -9.86973 0
M  V30 3587 H 475.126 -4.75072 -9.05887 0
M  V30 3588 H 473.496 -4.05244 -8.76668 0
M  V30 3589 H 476.135 0.177647 -6.34251 0
M  V30 3590 P 477.992 -1.25109 -8.70152 0
M  V30 3591 O 479.414 -1.29744 -9.22016 0
M  V30 3592 O 477.632 -2.13714 -7.55141 0
M  V30 3593 O 477.669 0.248149 -8.21425 0
M  V30 3594 C 477.509 1.22779 -9.30434 0
M  V30 3595 C 478.049 2.56293 -8.80664 0
M  V30 3596 O 476.993 3.02979 -8.09349 0
M  V30 3597 C 479.267 2.57523 -7.89775 0
M  V30 3598 O 480.005 3.7668 -7.89438 0
M  V30 3599 C 478.598 2.20997 -6.55446 0
M  V30 3600 O 479.397 2.71895 -5.48509 0
M  V30 3601 C 477.261 2.89693 -6.67988 0
M  V30 3602 H 477.293 3.88793 -6.19859 0
M  V30 3603 H 478.476 1.12046 -6.44229 0
M  V30 3604 H 479.96 1.7746 -8.19711 0
M  V30 3605 H 478.266 3.20706 -9.67112 0
M  V30 3606 H 478.076 0.901032 -10.1892 0
M  V30 3607 H 476.446 1.33049 -9.56592 0
M  V30 3608 H 479.085 3.57847 -5.23962 0
M  V30 3609 P 480.943 3.65191 -7.99657 0
M  V30 3610 O 482.365 3.89332 -8.45794 0
M  V30 3611 O 480.583 2.28472 -7.50807 0
M  V30 3612 O 480.62 4.64972 -6.77611 0
M  V30 3613 C 480.46 6.06319 -7.16352 0
M  V30 3614 C 481 6.91731 -6.02299 0
M  V30 3615 O 479.944 6.92449 -5.17064 0
M  V30 3616 C 482.218 6.43627 -5.25174 0
M  V30 3617 O 482.956 7.43686 -4.60469 0
M  V30 3618 C 481.549 5.40275 -4.31916 0
M  V30 3619 O 482.348 5.25279 -3.14438 0
M  V30 3620 C 480.212 6.04847 -4.05327 0
M  V30 3621 H 480.244 6.62195 -3.11261 0
M  V30 3622 H 481.427 4.42556 -4.81383 0
M  V30 3623 H 482.911 5.92458 -5.93643 0
M  V30 3624 H 481.217 7.92655 -6.402 0
M  V30 3625 H 481.027 6.26671 -8.0846 0
M  V30 3626 H 479.397 6.29101 -7.32804 0
M  V30 3627 H 482.036 5.84315 -2.47318 0
M  V30 3628 P 483.893 7.39546 -4.75277 0
M  V30 3629 O 485.315 7.84798 -5.01039 0
M  V30 3630 O 483.533 5.9812 -5.08098 0
M  V30 3631 O 483.57 7.57503 -3.1866 0
M  V30 3632 C 483.41 8.97357 -2.74833 0
M  V30 3633 C 483.95 9.07548 -1.32709 0
M  V30 3634 O 482.894 8.62072 -0.606159 0
M  V30 3635 C 485.168 8.25383 -0.938334 0
M  V30 3636 O 485.906 8.74577 0.146954 0
M  V30 3637 C 484.499 6.8802 -0.712559 0
M  V30 3638 O 485.298 6.1189 0.194655 0
M  V30 3639 C 483.162 7.27966 -0.139777 0
M  V30 3640 H 483.194 7.25354 0.961601 0
M  V30 3641 H 484.377 6.32557 -1.65702 0
M  V30 3642 H 485.861 8.19355 -1.79097 0
M  V30 3643 H 484.167 10.1294 -1.10029 0
M  V30 3644 H 483.977 9.64276 -3.41316 0
M  V30 3645 H 482.347 9.25417 -2.76357 0
M  V30 3646 H 484.986 6.25267 1.07847 0
M  V30 3647 P 486.844 8.791 2.9035e-12 0
M  V30 3648 O 488.266 9.31096 0.027933 0
M  V30 3649 O 486.484 7.77869 -1.04071 0
M  V30 3650 O 486.521 8.09533 1.41463 0
M  V30 3651 C 486.361 9.0349 2.53943 0
M  V30 3652 C 486.901 8.35226 3.79016 0
M  V30 3653 O 485.845 7.57992 4.15078 0
M  V30 3654 C 488.119 7.45087 3.67298 0
M  V30 3655 O 488.857 7.27796 4.85194 0
M  V30 3656 C 487.45 6.17323 3.12027 0
M  V30 3657 O 488.249 5.04231 3.47188 0
M  V30 3658 C 486.113 6.19961 3.81809 0
M  V30 3659 H 486.145 5.58218 4.73051 0
M  V30 3660 H 487.328 6.21726 2.02589 0
M  V30 3661 H 488.812 7.86112 2.9231 0
M  V30 3662 H 487.118 9.11627 4.55076 0
M  V30 3663 H 486.928 9.9573 2.34194 0
M  V30 3664 H 485.298 9.2792 2.67832 0
M  V30 3665 H 487.937 4.67702 4.28772 0
M  V30 3666 P 489.795 7.39546 4.75277 0
M  V30 3667 O 491.217 7.81777 5.05738 0
M  V30 3668 O 489.435 7.1065 3.32998 0
M  V30 3669 O 489.472 6.04542 5.56673 0
M  V30 3670 C 489.312 6.22772 7.02095 0
M  V30 3671 C 489.852 4.97725 7.70406 0
M  V30 3672 O 488.796 4.13256 7.58987 0
M  V30 3673 C 491.07 4.28231 7.11815 0
M  V30 3674 O 491.808 3.49945 8.01648 0
M  V30 3675 C 490.401 3.5063 5.96244 0
M  V30 3676 O 491.2 2.36482 5.64681 0
M  V30 3677 C 489.064 3.15122 6.56374 0
M  V30 3678 H 489.096 2.13853 6.99751 0
M  V30 3679 H 490.279 4.13501 5.06559 0
M  V30 3680 H 491.763 5.03285 6.70911 0
M  V30 3681 H 490.069 5.20877 8.75697 0
M  V30 3682 H 489.879 7.11046 7.35349 0
M  V30 3683 H 488.249 6.35815 7.26986 0
M  V30 3684 H 490.888 1.61644 6.13565 0
M  V30 3685 P 492.745 3.65191 7.99657 0
M  V30 3686 O 494.167 3.84333 8.48297 0
M  V30 3687 O 492.385 4.17805 6.64342 0
M  V30 3688 O 492.422 2.07613 7.95143 0
M  V30 3689 C 492.262 1.44328 9.27336 0
M  V30 3690 C 492.802 0.0220012 9.17097 0
M  V30 3691 O 491.747 -0.626867 8.61923 0
M  V30 3692 C 494.02 -0.24586 8.30336 0
M  V30 3693 O 494.758 -1.39011 8.63583 0
M  V30 3694 C 493.352 -0.273849 6.91158 0
M  V30 3695 O 494.15 -1.06331 6.02794 0
M  V30 3696 C 492.014 -0.897649 7.22545 0
M  V30 3697 N 490.971 -0.292839 6.41732 0
M  V30 3698 C 491.033 1.00068 6.10757 0
M  V30 3699 N 489.988 1.36468 5.35794 0
M  V30 3700 C 489.254 0.258894 5.2366 0
M  V30 3701 C 487.948 0.0670682 4.65752 0
M  V30 3702 O 487.215 0.902443 4.10497 0
M  V30 3703 N 487.518 -1.2131 4.75881 0
M  V30 3704 C 488.267 -2.24934 5.37101 0
M  V30 3705 N 487.67 -3.48783 5.33984 0
M  V30 3706 N 489.42 -2.0844 5.95684 0
M  V30 3707 C 489.877 -0.81395 5.87791 0
M  V30 3708 H 492.046 -1.9841 7.04286 0
M  V30 3709 H 493.229 0.739815 6.49601 0
M  V30 3710 H 494.714 0.598315 8.36563 0
M  V30 3711 H 493.019 -0.352479 10.1829 0
M  V30 3712 H 492.829 2.00611 10.0304 0
M  V30 3713 H 491.198 1.41843 9.55327 0
M  V30 3714 H 486.622 -1.44434 4.37895 0
M  V30 3715 H 491.829 1.67697 6.42268 0
M  V30 3716 H 486.759 -3.60543 4.87699 0
M  V30 3717 H 488.135 -4.29232 5.7819 0
M  V30 3718 H 493.839 -1.95704 6.0346 0
M  V30 3719 P 495.696 -1.25109 8.70152 0
M  V30 3720 O 497.117 -1.35288 9.2132 0
M  V30 3721 O 495.336 -0.0769065 7.84762 0
M  V30 3722 O 495.373 -2.55232 7.81161 0
M  V30 3723 C 495.212 -3.79979 8.58246 0
M  V30 3724 C 495.753 -4.94023 7.72785 0
M  V30 3725 O 494.698 -5.18666 6.91125 0
M  V30 3726 C 496.971 -4.69597 6.85231 0
M  V30 3727 O 497.709 -5.83832 6.51337 0
M  V30 3728 C 496.303 -3.96706 5.66633 0
M  V30 3729 O 497.101 -4.14896 4.5003 0
M  V30 3730 C 494.965 -4.66153 5.59313 0
M  V30 3731 N 493.922 -3.71582 5.24027 0
M  V30 3732 C 494.091 -2.39715 5.48833 0
M  V30 3733 N 493.064 -1.65863 5.12845 0
M  V30 3734 C 492.179 -2.57637 4.5973 0
M  V30 3735 C 490.912 -2.40278 4.01027 0
M  V30 3736 N 490.347 -3.57711 3.59575 0
M  V30 3737 C 490.949 -4.80324 3.70476 0
M  V30 3738 N 492.126 -5.01121 4.23801 0
M  V30 3739 C 492.701 -3.84757 4.66372 0
M  V30 3740 H 496.18 -2.8955 5.86187 0
M  V30 3741 H 497.663 -4.0121 7.36511 0
M  V30 3742 H 495.969 -5.81019 8.37003 0
M  V30 3743 H 495.779 -3.73517 9.52265 0
M  V30 3744 H 494.149 -3.97163 8.80359 0
M  V30 3745 H 494.991 -1.98804 5.94332 0
M  V30 3746 H 496.789 -4.90891 4.01857 0
M  V30 3747 P 498.646 -5.75688 6.64379 0
M  V30 3748 O 500.067 -6.11915 7.01921 0
M  V30 3749 O 498.286 -4.30744 6.56026 0
M  V30 3750 O 498.323 -6.37042 5.19165 0
M  V30 3751 C 498.162 -7.83662 5.1657 0
M  V30 3752 C 498.703 -8.33398 3.83019 0
M  V30 3753 O 497.648 -8.0998 3.00999 0
M  V30 3754 C 499.921 -7.65514 3.2257 0
M  V30 3755 O 500.659 -8.4329 2.32297 0
M  V30 3756 C 499.253 -6.40075 2.62207 0
M  V30 3757 O 500.051 -5.92338 1.5428 0
M  V30 3758 C 497.915 -6.9454 2.18503 0
M  V30 3759 N 496.872 -5.95905 2.39948 0
M  V30 3760 C 497.041 -4.98383 3.32108 0
M  V30 3761 N 496.014 -4.16798 3.41761 0
M  V30 3762 C 495.129 -4.65287 2.47461 0
M  V30 3763 C 493.862 -4.18946 2.07461 0
M  V30 3764 N 493.263 -3.09661 2.60717 0
M  V30 3765 N 493.297 -4.95327 1.09101 0
M  V30 3766 C 493.899 -6.04369 0.519812 0
M  V30 3767 N 495.076 -6.50694 0.855982 0
M  V30 3768 C 495.651 -5.75818 1.84322 0
M  V30 3769 H 497.947 -7.22964 1.12076 0
M  V30 3770 H 499.13 -5.60502 3.36589 0
M  V30 3771 H 500.613 -7.35707 4.02681 0
M  V30 3772 H 498.919 -9.41302 3.90009 0
M  V30 3773 H 498.729 -8.29056 5.99158 0
M  V30 3774 H 497.099 -8.10073 5.25882 0
M  V30 3775 H 493.363 -6.55843 -0.270373 0
M  V30 3776 H 497.941 -4.88564 3.92502 0
M  V30 3777 H 492.333 -2.80523 2.27218 0
M  V30 3778 H 493.737 -2.55848 3.34465 0
M  V30 3779 H 499.739 -6.30224 0.72668 0
M  V30 3780 P 501.597 -8.4349 2.47671 0
M  V30 3781 O 503.019 -8.94167 2.5964 0
M  V30 3782 O 501.237 -7.1704 3.19006 0
M  V30 3783 O 501.274 -8.16596 0.923387 0
M  V30 3784 C 501.114 -9.38437 0.108857 0
M  V30 3785 C 501.654 -9.08175 -1.28353 0
M  V30 3786 O 500.598 -8.44229 -1.84713 0
M  V30 3787 C 502.872 -8.18386 -1.42505 0
M  V30 3788 O 503.61 -8.3501 -2.60497 0
M  V30 3789 C 502.203 -6.80225 -1.25468 0
M  V30 3790 O 503.002 -5.81621 -1.91066 0
M  V30 3791 C 500.866 -7.02416 -1.9168 0
M  V30 3792 H 500.898 -6.6888 -2.96621 0
M  V30 3793 H 502.081 -6.53617 -0.192223 0
M  V30 3794 H 503.565 -8.36622 -0.589963 0
M  V30 3795 H 501.871 -10.0291 -1.79807 0
M  V30 3796 H 501.681 -10.2138 0.558219 0
M  V30 3797 H 500.051 -9.6579 0.0444202 0
M  V30 3798 H 502.69 -5.69556 -2.79637 0
M  V30 3799 P 504.547 -8.4349 -2.47671 0
M  V30 3800 O 505.969 -8.92593 -2.65 0
M  V30 3801 O 504.187 -7.7568 -1.19296 0
M  V30 3802 O 504.224 -7.36886 -3.63805 0
M  V30 3803 C 504.064 -7.95349 -4.982 0
M  V30 3804 C 504.604 -6.94612 -5.98974 0
M  V30 3805 O 503.548 -6.10347 -6.11815 0
M  V30 3806 C 505.822 -6.11426 -5.62335 0
M  V30 3807 O 506.56 -5.6162 -6.70584 0
M  V30 3808 C 505.153 -5.04409 -4.73308 0
M  V30 3809 O 505.952 -3.85992 -4.75183 0
M  V30 3810 C 503.816 -4.8728 -5.41006 0
M  V30 3811 H 503.848 -4.02333 -6.11157 0
M  V30 3812 H 505.031 -5.39466 -3.69543 0
M  V30 3813 H 506.515 -6.71916 -5.01943 0
M  V30 3814 H 504.821 -7.4649 -6.93477 0
M  V30 3815 H 504.631 -8.89416 -5.05237 0
M  V30 3816 H 503.001 -8.14876 -5.18409 0
M  V30 3817 H 505.64 -3.27957 -5.4317 0
M  V30 3818 P 507.498 -5.75688 -6.64379 0
M  V30 3819 O 508.92 -6.07627 -7.05504 0
M  V30 3820 O 507.138 -5.88047 -5.19722 0
M  V30 3821 O 507.175 -4.2322 -7.04443 0
M  V30 3822 C 507.015 -3.99743 -8.4911 0
M  V30 3823 C 507.555 -2.60516 -8.79425 0
M  V30 3824 O 506.499 -1.82684 -8.4467 0
M  V30 3825 C 508.773 -2.10343 -8.03628 0
M  V30 3826 O 509.511 -1.09919 -8.67766 0
M  V30 3827 C 508.104 -1.68446 -6.70876 0
M  V30 3828 O 508.903 -0.678137 -6.08433 0
M  V30 3829 C 506.767 -1.17436 -7.18567 0
M  V30 3830 H 506.799 -0.0804732 -7.31656 0
M  V30 3831 H 507.982 -2.54037 -6.02537 0
M  V30 3832 H 509.466 -2.93881 -7.85526 0
M  V30 3833 H 507.772 -2.53065 -9.86973 0
M  V30 3834 H 507.582 -4.75072 -9.05887 0
M  V30 3835 H 505.952 -4.05244 -8.76668 0
M  V30 3836 H 508.591 0.177647 -6.34251 0
M  V30 3837 P 510.449 -1.25109 -8.70152 0
M  V30 3838 O 511.87 -1.29758 -9.22115 0
M  V30 3839 O 510.089 -2.13714 -7.55141 0
M  V30 3840 O 510.126 0.248149 -8.21425 0
M  V30 3841 C 509.965 1.22792 -9.30533 0
M  V30 3842 C 510.506 2.56293 -8.80664 0
M  V30 3843 O 509.451 3.02944 -8.09255 0
M  V30 3844 C 511.724 2.57523 -7.89775 0
M  V30 3845 O 512.462 3.7668 -7.89438 0
M  V30 3846 C 511.056 2.20997 -6.55446 0
M  V30 3847 O 511.854 2.71302 -5.48691 0
M  V30 3848 C 509.718 2.89693 -6.67988 0
M  V30 3849 N 508.675 2.08895 -6.07487 0
M  V30 3850 C 508.844 0.753809 -5.94137 0
M  V30 3851 N 507.817 0.146592 -5.38801 0
M  V30 3852 C 506.932 1.1768 -5.13693 0
M  V30 3853 C 505.665 1.17563 -4.52477 0
M  V30 3854 N 505.066 0.057481 -4.04759 0
M  V30 3855 N 505.1 2.41918 -4.45789 0
M  V30 3856 C 505.702 3.56493 -4.90792 0
M  V30 3857 N 506.879 3.61423 -5.47817 0
M  V30 3858 C 507.454 2.37779 -5.5588 0
M  V30 3859 H 509.75 3.8874 -6.19774 0
M  V30 3860 H 510.933 1.12673 -6.44018 0
M  V30 3861 H 512.416 1.7746 -8.19711 0
M  V30 3862 H 510.722 3.21673 -9.66791 0
M  V30 3863 H 510.532 0.901032 -10.1892 0
M  V30 3864 H 508.902 1.33049 -9.56592 0
M  V30 3865 H 505.166 4.49919 -4.77947 0
M  V30 3866 H 509.744 0.233081 -6.26266 0
M  V30 3867 H 504.136 0.119831 -3.60801 0
M  V30 3868 H 505.54 -0.852272 -4.12385 0
M  V30 3869 H 511.542 3.5779 -5.23879 0
M  V30 3870 P 513.399 3.65191 -7.99657 0
M  V30 3871 O 514.821 3.89332 -8.45794 0
M  V30 3872 O 513.039 2.28472 -7.50807 0
M  V30 3873 O 513.076 4.64972 -6.77611 0
M  V30 3874 C 512.916 6.06319 -7.16352 0
M  V30 3875 C 513.456 6.91731 -6.02299 0
M  V30 3876 O 512.4 6.92449 -5.17064 0
M  V30 3877 C 514.674 6.43627 -5.25174 0
M  V30 3878 O 515.412 7.43686 -4.60469 0
M  V30 3879 C 514.005 5.40275 -4.31916 0
M  V30 3880 O 514.804 5.25279 -3.14438 0
M  V30 3881 C 512.668 6.04847 -4.05327 0
M  V30 3882 H 512.7 6.62195 -3.11261 0
M  V30 3883 H 513.883 4.42556 -4.81383 0
M  V30 3884 H 515.367 5.92458 -5.93643 0
M  V30 3885 H 513.673 7.92655 -6.402 0
M  V30 3886 H 513.483 6.26671 -8.0846 0
M  V30 3887 H 511.853 6.29101 -7.32804 0
M  V30 3888 H 514.492 5.84315 -2.47318 0
M  V30 3889 P 516.35 7.39546 -4.75277 0
M  V30 3890 O 517.772 7.84798 -5.01039 0
M  V30 3891 O 515.99 5.9812 -5.08098 0
M  V30 3892 O 516.027 7.57503 -3.1866 0
M  V30 3893 C 515.867 8.97357 -2.74833 0
M  V30 3894 C 516.407 9.07548 -1.32709 0
M  V30 3895 O 515.351 8.62072 -0.606159 0
M  V30 3896 C 517.625 8.25383 -0.938334 0
M  V30 3897 O 518.363 8.74577 0.146954 0
M  V30 3898 C 516.956 6.8802 -0.712559 0
M  V30 3899 O 517.755 6.1189 0.194655 0
M  V30 3900 C 515.619 7.27966 -0.139777 0
M  V30 3901 H 515.651 7.25354 0.961601 0
M  V30 3902 H 516.834 6.32557 -1.65702 0
M  V30 3903 H 518.318 8.19355 -1.79097 0
M  V30 3904 H 516.624 10.1294 -1.10029 0
M  V30 3905 H 516.434 9.64276 -3.41316 0
M  V30 3906 H 514.804 9.25417 -2.76357 0
M  V30 3907 H 517.443 6.25267 1.07847 0
M  V30 3908 P 519.3 8.791 3.21367e-12 0
M  V30 3909 O 520.722 9.31096 0.027933 0
M  V30 3910 O 518.94 7.77869 -1.04071 0
M  V30 3911 O 518.977 8.09533 1.41463 0
M  V30 3912 C 518.817 9.0349 2.53943 0
M  V30 3913 C 519.357 8.35226 3.79016 0
M  V30 3914 O 518.301 7.57992 4.15078 0
M  V30 3915 C 520.575 7.45087 3.67298 0
M  V30 3916 O 521.313 7.27796 4.85194 0
M  V30 3917 C 519.906 6.17323 3.12027 0
M  V30 3918 O 520.705 5.04231 3.47188 0
M  V30 3919 C 518.569 6.19961 3.81809 0
M  V30 3920 H 518.601 5.58218 4.73051 0
M  V30 3921 H 519.784 6.21726 2.02589 0
M  V30 3922 H 521.268 7.86112 2.9231 0
M  V30 3923 H 519.574 9.11627 4.55076 0
M  V30 3924 H 519.384 9.9573 2.34194 0
M  V30 3925 H 517.754 9.2792 2.67832 0
M  V30 3926 H 520.393 4.67702 4.28772 0
M  V30 3927 P 522.251 7.39546 4.75277 0
M  V30 3928 O 523.673 7.81777 5.05738 0
M  V30 3929 O 521.891 7.1065 3.32998 0
M  V30 3930 O 521.928 6.04542 5.56673 0
M  V30 3931 C 521.768 6.22772 7.02095 0
M  V30 3932 C 522.308 4.97725 7.70406 0
M  V30 3933 O 521.252 4.13256 7.58987 0
M  V30 3934 C 523.526 4.28231 7.11815 0
M  V30 3935 O 524.264 3.49945 8.01648 0
M  V30 3936 C 522.857 3.5063 5.96244 0
M  V30 3937 O 523.656 2.36482 5.64681 0
M  V30 3938 C 521.52 3.15122 6.56374 0
M  V30 3939 H 521.552 2.13853 6.99751 0
M  V30 3940 H 522.735 4.13501 5.06559 0
M  V30 3941 H 524.219 5.03285 6.70911 0
M  V30 3942 H 522.525 5.20877 8.75697 0
M  V30 3943 H 522.335 7.11046 7.35349 0
M  V30 3944 H 520.705 6.35815 7.26986 0
M  V30 3945 H 523.344 1.61644 6.13565 0
M  V30 3946 P 525.201 3.65191 7.99657 0
M  V30 3947 O 526.623 3.8425 8.48115 0
M  V30 3948 O 524.841 4.17805 6.64342 0
M  V30 3949 O 524.878 2.07613 7.95143 0
M  V30 3950 C 524.718 1.44328 9.27336 0
M  V30 3951 C 525.258 0.0220036 9.17197 0
M  V30 3952 O 524.202 -0.626867 8.61923 0
M  V30 3953 C 526.476 -0.24586 8.30336 0
M  V30 3954 O 527.214 -1.39011 8.63583 0
M  V30 3955 C 525.807 -0.273849 6.91158 0
M  V30 3956 O 526.606 -1.06348 6.02892 0
M  V30 3957 C 524.47 -0.897649 7.22545 0
M  V30 3958 H 524.502 -1.9841 7.04286 0
M  V30 3959 H 525.685 0.739928 6.497 0
M  V30 3960 H 527.169 0.60668 8.36503 0
M  V30 3961 H 525.475 -0.352479 10.1829 0
M  V30 3962 H 525.285 2.00611 10.0304 0
M  V30 3963 H 523.655 1.41843 9.55327 0
M  V30 3964 H 526.294 -1.95734 6.03555 0
M  V30 3965 P 528.152 -1.25109 8.70152 0
M  V30 3966 O 529.574 -1.35274 9.21221 0
M  V30 3967 O 527.792 -0.0769065 7.84762 0
M  V30 3968 O 527.829 -2.55232 7.81161 0
M  V30 3969 C 527.669 -3.79939 8.58154 0
M  V30 3970 C 528.209 -4.94023 7.72785 0
M  V30 3971 O 527.153 -5.18726 6.91205 0
M  V30 3972 C 529.427 -4.69597 6.85231 0
M  V30 3973 O 530.165 -5.83832 6.51337 0
M  V30 3974 C 528.758 -3.96706 5.66633 0
M  V30 3975 O 529.557 -4.15414 4.49689 0
M  V30 3976 C 527.421 -4.66153 5.59313 0
M  V30 3977 H 527.453 -5.47679 4.85214 0
M  V30 3978 H 528.636 -2.89008 5.86566 0
M  V30 3979 H 530.12 -4.0121 7.36511 0
M  V30 3980 H 528.426 -5.80182 8.37584 0
M  V30 3981 H 528.236 -3.73517 9.52265 0
M  V30 3982 H 526.606 -3.97163 8.80359 0
M  V30 3983 H 529.245 -4.90969 4.01921 0
M  V30 3984 P 531.103 -5.75688 6.64379 0
M  V30 3985 O 532.524 -6.11915 7.01921 0
M  V30 3986 O 530.743 -4.30744 6.56026 0
M  V30 3987 O 530.78 -6.37042 5.19165 0
M  V30 3988 C 530.619 -7.83662 5.1657 0
M  V30 3989 C 531.16 -8.33398 3.83019 0
M  V30 3990 O 530.105 -8.0998 3.00999 0
M  V30 3991 C 532.378 -7.65514 3.2257 0
M  V30 3992 O 533.116 -8.4329 2.32297 0
M  V30 3993 C 531.71 -6.40075 2.62207 0
M  V30 3994 O 532.508 -5.92338 1.5428 0
M  V30 3995 C 530.372 -6.9454 2.18503 0
M  V30 3996 N 529.329 -5.95905 2.39948 0
M  V30 3997 C 529.498 -4.98383 3.32108 0
M  V30 3998 N 528.471 -4.16798 3.41761 0
M  V30 3999 C 527.586 -4.65287 2.47461 0
M  V30 4000 C 526.319 -4.18946 2.07461 0
M  V30 4001 N 525.754 -4.95327 1.09101 0
M  V30 4002 C 526.356 -6.04369 0.519812 0
M  V30 4003 N 527.533 -6.50694 0.855982 0
M  V30 4004 C 528.108 -5.75818 1.84322 0
M  V30 4005 H 531.587 -5.60502 3.36589 0
M  V30 4006 H 533.07 -7.35707 4.02681 0
M  V30 4007 H 531.376 -9.41302 3.90009 0
M  V30 4008 H 531.186 -8.29056 5.99158 0
M  V30 4009 H 529.556 -8.10073 5.25882 0
M  V30 4010 H 530.398 -4.88564 3.92502 0
M  V30 4011 H 532.196 -6.30224 0.72668 0
M  V30 4012 P 534.053 -8.4349 2.47671 0
M  V30 4013 O 535.475 -8.94167 2.5964 0
M  V30 4014 O 533.693 -7.1704 3.19006 0
M  V30 4015 O 533.73 -8.16596 0.923387 0
M  V30 4016 C 533.57 -9.38437 0.108857 0
M  V30 4017 C 534.11 -9.08175 -1.28353 0
M  V30 4018 O 533.054 -8.44229 -1.84713 0
M  V30 4019 C 535.328 -8.18386 -1.42505 0
M  V30 4020 O 536.066 -8.3501 -2.60497 0
M  V30 4021 C 534.659 -6.80225 -1.25468 0
M  V30 4022 O 535.458 -5.81621 -1.91066 0
M  V30 4023 C 533.322 -7.02416 -1.9168 0
M  V30 4024 H 533.354 -6.6888 -2.96621 0
M  V30 4025 H 534.537 -6.53617 -0.192223 0
M  V30 4026 H 536.021 -8.36622 -0.589963 0
M  V30 4027 H 534.327 -10.0291 -1.79807 0
M  V30 4028 H 534.137 -10.2138 0.558219 0
M  V30 4029 H 532.507 -9.6579 0.0444202 0
M  V30 4030 H 535.146 -5.69556 -2.79637 0
M  V30 4031 P 537.004 -8.4349 -2.47671 0
M  V30 4032 O 538.426 -8.92593 -2.65 0
M  V30 4033 O 536.644 -7.7568 -1.19296 0
M  V30 4034 O 536.681 -7.36886 -3.63805 0
M  V30 4035 C 536.521 -7.95349 -4.982 0
M  V30 4036 C 537.061 -6.94612 -5.98974 0
M  V30 4037 O 536.005 -6.10347 -6.11815 0
M  V30 4038 C 538.279 -6.11426 -5.62335 0
M  V30 4039 O 539.017 -5.6162 -6.70584 0
M  V30 4040 C 537.61 -5.04409 -4.73308 0
M  V30 4041 O 538.409 -3.85992 -4.75183 0
M  V30 4042 C 536.273 -4.8728 -5.41006 0
M  V30 4043 H 536.305 -4.02333 -6.11157 0
M  V30 4044 H 537.488 -5.39466 -3.69543 0
M  V30 4045 H 538.972 -6.71916 -5.01943 0
M  V30 4046 H 537.278 -7.4649 -6.93477 0
M  V30 4047 H 537.088 -8.89416 -5.05237 0
M  V30 4048 H 535.458 -8.14876 -5.18409 0
M  V30 4049 H 538.097 -3.27957 -5.4317 0
M  V30 4050 P 539.954 -5.75688 -6.64379 0
M  V30 4051 O 541.376 -6.07627 -7.05504 0
M  V30 4052 O 539.594 -5.88047 -5.19722 0
M  V30 4053 O 539.631 -4.2322 -7.04443 0
M  V30 4054 C 539.471 -3.99743 -8.4911 0
M  V30 4055 C 540.011 -2.60516 -8.79425 0
M  V30 4056 O 538.955 -1.82684 -8.4467 0
M  V30 4057 C 541.229 -2.10343 -8.03628 0
M  V30 4058 O 541.967 -1.09919 -8.67766 0
M  V30 4059 C 540.56 -1.68446 -6.70876 0
M  V30 4060 O 541.359 -0.678137 -6.08433 0
M  V30 4061 C 539.223 -1.17436 -7.18567 0
M  V30 4062 H 539.255 -0.0804732 -7.31656 0
M  V30 4063 H 540.438 -2.54037 -6.02537 0
M  V30 4064 H 541.922 -2.93881 -7.85526 0
M  V30 4065 H 540.228 -2.53065 -9.86973 0
M  V30 4066 H 540.038 -4.75072 -9.05887 0
M  V30 4067 H 538.408 -4.05244 -8.76668 0
M  V30 4068 H 541.047 0.177647 -6.34251 0
M  V30 4069 P 542.905 -1.25109 -8.70152 0
M  V30 4070 O 544.327 -1.29744 -9.22016 0
M  V30 4071 O 542.545 -2.13714 -7.55141 0
M  V30 4072 O 542.582 0.248149 -8.21425 0
M  V30 4073 C 542.422 1.22779 -9.30434 0
M  V30 4074 C 542.962 2.56293 -8.80664 0
M  V30 4075 O 541.906 3.02979 -8.09349 0
M  V30 4076 C 544.18 2.57523 -7.89775 0
M  V30 4077 O 544.918 3.7668 -7.89438 0
M  V30 4078 C 543.511 2.20997 -6.55446 0
M  V30 4079 O 544.31 2.71895 -5.48509 0
M  V30 4080 C 542.174 2.89693 -6.67988 0
M  V30 4081 H 542.206 3.88793 -6.19859 0
M  V30 4082 H 543.389 1.12046 -6.44229 0
M  V30 4083 H 544.873 1.7746 -8.19711 0
M  V30 4084 H 543.179 3.20706 -9.67112 0
M  V30 4085 H 542.989 0.901032 -10.1892 0
M  V30 4086 H 541.359 1.33049 -9.56592 0
M  V30 4087 H 543.998 3.57847 -5.23962 0
M  V30 4088 P 545.855 3.65191 -7.99657 0
M  V30 4089 O 547.277 3.89332 -8.45794 0
M  V30 4090 O 545.495 2.28472 -7.50807 0
M  V30 4091 O 545.532 4.64972 -6.77611 0
M  V30 4092 C 545.372 6.06319 -7.16352 0
M  V30 4093 C 545.912 6.91731 -6.02299 0
M  V30 4094 O 544.856 6.92449 -5.17064 0
M  V30 4095 C 547.13 6.43627 -5.25174 0
M  V30 4096 O 547.868 7.43686 -4.60469 0
M  V30 4097 C 546.461 5.40275 -4.31916 0
M  V30 4098 O 547.26 5.25279 -3.14438 0
M  V30 4099 C 545.124 6.04847 -4.05327 0
M  V30 4100 H 545.156 6.62195 -3.11261 0
M  V30 4101 H 546.339 4.42556 -4.81383 0
M  V30 4102 H 547.823 5.92458 -5.93643 0
M  V30 4103 H 546.129 7.92655 -6.402 0
M  V30 4104 H 545.939 6.26671 -8.0846 0
M  V30 4105 H 544.309 6.29101 -7.32804 0
M  V30 4106 H 546.948 5.84315 -2.47318 0
M  V30 4107 P 548.806 7.39546 -4.75277 0
M  V30 4108 O 550.228 7.84798 -5.01039 0
M  V30 4109 O 548.446 5.9812 -5.08098 0
M  V30 4110 O 548.483 7.57503 -3.1866 0
M  V30 4111 C 548.323 8.97357 -2.74833 0
M  V30 4112 C 548.863 9.07548 -1.32709 0
M  V30 4113 O 547.807 8.62072 -0.606159 0
M  V30 4114 C 550.081 8.25383 -0.938334 0
M  V30 4115 O 550.819 8.74577 0.146954 0
M  V30 4116 C 549.412 6.8802 -0.712559 0
M  V30 4117 O 550.211 6.1189 0.194655 0
M  V30 4118 C 548.075 7.27966 -0.139777 0
M  V30 4119 H 548.107 7.25354 0.961601 0
M  V30 4120 H 549.29 6.32557 -1.65702 0
M  V30 4121 H 550.774 8.19355 -1.79097 0
M  V30 4122 H 549.08 10.1294 -1.10029 0
M  V30 4123 H 548.89 9.64276 -3.41316 0
M  V30 4124 H 547.26 9.25417 -2.76357 0
M  V30 4125 H 549.899 6.25267 1.07847 0
M  V30 4126 P 551.757 8.791 3.52383e-12 0
M  V30 4127 O 553.179 9.31296 0.027939 0
M  V30 4128 O 551.397 7.77869 -1.04071 0
M  V30 4129 O 551.434 8.09533 1.41463 0
M  V30 4130 C 551.274 9.0349 2.53943 0
M  V30 4131 C 551.814 8.35135 3.78975 0
M  V30 4132 O 550.759 7.57992 4.15078 0
M  V30 4133 C 553.032 7.45087 3.67298 0
M  V30 4134 O 553.77 7.27796 4.85194 0
M  V30 4135 C 552.364 6.17323 3.12027 0
M  V30 4136 O 553.162 5.04149 3.47132 0
M  V30 4137 C 551.026 6.19961 3.81809 0
M  V30 4138 N 549.983 5.71575 2.93223 0
M  V30 4139 C 550.045 5.97133 1.62693 0
M  V30 4140 N 549 5.44066 0.984414 0
M  V30 4141 C 548.266 4.87093 1.93987 0
M  V30 4142 C 546.96 4.26449 1.8738 0
M  V30 4143 O 546.227 4.1089 0.884377 0
M  V30 4144 N 546.53 3.82483 3.08036 0
M  V30 4145 C 547.279 3.95124 4.27727 0
M  V30 4146 N 546.682 3.4084 5.39089 0
M  V30 4147 N 548.432 4.55264 4.3706 0
M  V30 4148 C 548.889 5.00861 3.18217 0
M  V30 4149 H 551.058 5.58218 4.73051 0
M  V30 4150 H 552.241 6.21631 2.02558 0
M  V30 4151 H 553.726 7.85819 2.93096 0
M  V30 4152 H 552.031 9.11627 4.55076 0
M  V30 4153 H 551.841 9.9573 2.34194 0
M  V30 4154 H 550.21 9.2792 2.67832 0
M  V30 4155 H 545.634 3.38323 3.1329 0
M  V30 4156 H 550.841 6.53891 1.14265 0
M  V30 4157 H 545.771 2.93852 5.30559 0
M  V30 4158 H 547.147 3.47631 6.30632 0
M  V30 4159 H 552.851 4.67628 4.28704 0
M  V30 4160 P 554.707 7.39546 4.75277 0
M  V30 4161 O 556.129 7.81777 5.05738 0
M  V30 4162 O 554.347 7.1065 3.32998 0
M  V30 4163 O 554.384 6.04542 5.56673 0
M  V30 4164 C 554.224 6.22772 7.02095 0
M  V30 4165 C 554.764 4.97725 7.70406 0
M  V30 4166 O 553.708 4.13256 7.58987 0
M  V30 4167 C 555.982 4.28231 7.11815 0
M  V30 4168 O 556.72 3.49945 8.01648 0
M  V30 4169 C 555.313 3.5063 5.96244 0
M  V30 4170 O 556.112 2.36482 5.64681 0
M  V30 4171 C 553.976 3.15122 6.56374 0
M  V30 4172 H 554.008 2.13853 6.99751 0
M  V30 4173 H 555.191 4.13501 5.06559 0
M  V30 4174 H 556.675 5.03285 6.70911 0
M  V30 4175 H 554.981 5.20877 8.75697 0
M  V30 4176 H 554.791 7.11046 7.35349 0
M  V30 4177 H 553.161 6.35815 7.26986 0
M  V30 4178 H 555.8 1.61644 6.13565 0
M  V30 4179 P 557.658 3.65191 7.99657 0
M  V30 4180 O 559.08 3.8425 8.48115 0
M  V30 4181 O 557.298 4.17805 6.64342 0
M  V30 4182 O 557.335 2.07613 7.95143 0
M  V30 4183 C 557.175 1.44328 9.27336 0
M  V30 4184 C 557.715 0.0220036 9.17197 0
M  V30 4185 O 556.659 -0.626867 8.61923 0
M  V30 4186 C 558.933 -0.24586 8.30336 0
M  V30 4187 O 559.671 -1.39011 8.63583 0
M  V30 4188 C 558.264 -0.273849 6.91158 0
M  V30 4189 O 559.063 -1.06348 6.02892 0
M  V30 4190 C 556.927 -0.897649 7.22545 0
M  V30 4191 H 556.959 -1.9841 7.04286 0
M  V30 4192 H 558.142 0.739928 6.497 0
M  V30 4193 H 559.626 0.60668 8.36503 0
M  V30 4194 H 557.932 -0.352479 10.1829 0
M  V30 4195 H 557.742 2.00611 10.0304 0
M  V30 4196 H 556.112 1.41843 9.55327 0
M  V30 4197 H 558.751 -1.95734 6.03555 0
M  V30 4198 P 560.608 -1.25109 8.70152 0
M  V30 4199 O 562.03 -1.35274 9.21221 0
M  V30 4200 O 560.248 -0.0769065 7.84762 0
M  V30 4201 O 560.285 -2.55232 7.81161 0
M  V30 4202 C 560.125 -3.79939 8.58154 0
M  V30 4203 C 560.665 -4.94023 7.72785 0
M  V30 4204 O 559.609 -5.18726 6.91205 0
M  V30 4205 C 561.883 -4.69597 6.85231 0
M  V30 4206 O 562.621 -5.83832 6.51337 0
M  V30 4207 C 561.214 -3.96706 5.66633 0
M  V30 4208 O 562.013 -4.15414 4.49689 0
M  V30 4209 C 559.877 -4.66153 5.59313 0
M  V30 4210 H 559.909 -5.47679 4.85214 0
M  V30 4211 H 561.092 -2.89008 5.86566 0
M  V30 4212 H 562.576 -4.0121 7.36511 0
M  V30 4213 H 560.882 -5.80182 8.37584 0
M  V30 4214 H 560.692 -3.73517 9.52265 0
M  V30 4215 H 559.062 -3.97163 8.80359 0
M  V30 4216 H 561.701 -4.90969 4.01921 0
M  V30 4217 P 563.559 -5.75688 6.64379 0
M  V30 4218 O 564.981 -6.11849 7.01846 0
M  V30 4219 O 563.199 -4.30744 6.56026 0
M  V30 4220 O 563.236 -6.37042 5.19165 0
M  V30 4221 C 563.076 -7.83578 5.16515 0
M  V30 4222 C 563.616 -8.33398 3.83019 0
M  V30 4223 O 562.56 -8.10074 3.01034 0
M  V30 4224 C 564.834 -7.65514 3.2257 0
M  V30 4225 O 565.572 -8.4329 2.32297 0
M  V30 4226 C 564.165 -6.40075 2.62207 0
M  V30 4227 O 564.964 -5.92589 1.53712 0
M  V30 4228 C 562.828 -6.9454 2.18503 0
M  V30 4229 H 562.86 -7.23063 1.12091 0
M  V30 4230 H 564.043 -5.6025 3.37201 0
M  V30 4231 H 565.527 -7.35707 4.02681 0
M  V30 4232 H 563.833 -9.40912 3.9095 0
M  V30 4233 H 563.643 -8.29056 5.99158 0
M  V30 4234 H 562.013 -8.10073 5.25882 0
M  V30 4235 H 564.652 -6.30324 0.726794 0
M  V30 4236 P 566.509 -8.4349 2.47671 0
M  V30 4237 O 567.931 -8.94167 2.5964 0
M  V30 4238 O 566.149 -7.1704 3.19006 0
M  V30 4239 O 566.186 -8.16596 0.923387 0
M  V30 4240 C 566.026 -9.38437 0.108857 0
M  V30 4241 C 566.566 -9.08175 -1.28353 0
M  V30 4242 O 565.51 -8.44229 -1.84713 0
M  V30 4243 C 567.784 -8.18386 -1.42505 0
M  V30 4244 O 568.522 -8.3501 -2.60497 0
M  V30 4245 C 567.115 -6.80225 -1.25468 0
M  V30 4246 O 567.914 -5.81621 -1.91066 0
M  V30 4247 C 565.778 -7.02416 -1.9168 0
M  V30 4248 H 565.81 -6.6888 -2.96621 0
M  V30 4249 H 566.993 -6.53617 -0.192223 0
M  V30 4250 H 568.477 -8.36622 -0.589963 0
M  V30 4251 H 566.783 -10.0291 -1.79807 0
M  V30 4252 H 566.593 -10.2138 0.558219 0
M  V30 4253 H 564.963 -9.6579 0.0444202 0
M  V30 4254 H 567.602 -5.69556 -2.79637 0
M  V30 4255 P 569.46 -8.4349 -2.47671 0
M  V30 4256 O 570.882 -8.92593 -2.65 0
M  V30 4257 O 569.1 -7.7568 -1.19296 0
M  V30 4258 O 569.137 -7.36886 -3.63805 0
M  V30 4259 C 568.977 -7.95349 -4.982 0
M  V30 4260 C 569.517 -6.94612 -5.98974 0
M  V30 4261 O 568.461 -6.10347 -6.11815 0
M  V30 4262 C 570.735 -6.11426 -5.62335 0
M  V30 4263 O 571.473 -5.6162 -6.70584 0
M  V30 4264 C 570.066 -5.04409 -4.73308 0
M  V30 4265 O 570.865 -3.85992 -4.75183 0
M  V30 4266 C 568.729 -4.8728 -5.41006 0
M  V30 4267 H 568.761 -4.02333 -6.11157 0
M  V30 4268 H 569.944 -5.39466 -3.69543 0
M  V30 4269 H 571.428 -6.71916 -5.01943 0
M  V30 4270 H 569.734 -7.4649 -6.93477 0
M  V30 4271 H 569.544 -8.89416 -5.05237 0
M  V30 4272 H 567.914 -8.14876 -5.18409 0
M  V30 4273 H 570.553 -3.27957 -5.4317 0
M  V30 4274 P 572.411 -5.75688 -6.64379 0
M  V30 4275 O 573.833 -6.07627 -7.05504 0
M  V30 4276 O 572.051 -5.88047 -5.19722 0
M  V30 4277 O 572.088 -4.2322 -7.04443 0
M  V30 4278 C 571.928 -3.99743 -8.4911 0
M  V30 4279 C 572.468 -2.60516 -8.79425 0
M  V30 4280 O 571.412 -1.82684 -8.4467 0
M  V30 4281 C 573.686 -2.10343 -8.03628 0
M  V30 4282 O 574.424 -1.09919 -8.67766 0
M  V30 4283 C 573.017 -1.68446 -6.70876 0
M  V30 4284 O 573.816 -0.678137 -6.08433 0
M  V30 4285 C 571.68 -1.17436 -7.18567 0
M  V30 4286 H 571.712 -0.0804732 -7.31656 0
M  V30 4287 H 572.895 -2.54037 -6.02537 0
M  V30 4288 H 574.379 -2.93881 -7.85526 0
M  V30 4289 H 572.685 -2.53065 -9.86973 0
M  V30 4290 H 572.495 -4.75072 -9.05887 0
M  V30 4291 H 570.865 -4.05244 -8.76668 0
M  V30 4292 H 573.504 0.177647 -6.34251 0
M  V30 4293 P 575.361 -1.25109 -8.70152 0
M  V30 4294 O 576.782 -1.29758 -9.22115 0
M  V30 4295 O 575.001 -2.13714 -7.55141 0
M  V30 4296 O 575.038 0.248149 -8.21425 0
M  V30 4297 C 574.877 1.22792 -9.30533 0
M  V30 4298 C 575.418 2.56293 -8.80664 0
M  V30 4299 O 574.363 3.02944 -8.09255 0
M  V30 4300 C 576.636 2.57523 -7.89775 0
M  V30 4301 O 577.374 3.7668 -7.89438 0
M  V30 4302 C 575.968 2.20997 -6.55446 0
M  V30 4303 O 576.766 2.71302 -5.48691 0
M  V30 4304 C 574.63 2.89693 -6.67988 0
M  V30 4305 N 573.587 2.08895 -6.07487 0
M  V30 4306 C 573.756 0.753809 -5.94137 0
M  V30 4307 N 572.729 0.146592 -5.38801 0
M  V30 4308 C 571.844 1.1768 -5.13693 0
M  V30 4309 C 570.577 1.17563 -4.52477 0
M  V30 4310 N 569.978 0.057481 -4.04759 0
M  V30 4311 N 570.012 2.41918 -4.45789 0
M  V30 4312 C 570.614 3.56493 -4.90792 0
M  V30 4313 N 571.791 3.61423 -5.47817 0
M  V30 4314 C 572.366 2.37779 -5.5588 0
M  V30 4315 H 574.662 3.8874 -6.19774 0
M  V30 4316 H 575.845 1.12673 -6.44018 0
M  V30 4317 H 577.328 1.7746 -8.19711 0
M  V30 4318 H 575.634 3.21673 -9.66791 0
M  V30 4319 H 575.444 0.901032 -10.1892 0
M  V30 4320 H 573.814 1.33049 -9.56592 0
M  V30 4321 H 570.078 4.49919 -4.77947 0
M  V30 4322 H 574.656 0.233081 -6.26266 0
M  V30 4323 H 569.048 0.119831 -3.60801 0
M  V30 4324 H 570.452 -0.852272 -4.12385 0
M  V30 4325 H 576.454 3.5779 -5.23879 0
M  V30 4326 P 578.312 3.65191 -7.99657 0
M  V30 4327 O 579.734 3.89332 -8.45794 0
M  V30 4328 O 577.952 2.28472 -7.50807 0
M  V30 4329 O 577.989 4.64972 -6.77611 0
M  V30 4330 C 577.829 6.06319 -7.16352 0
M  V30 4331 C 578.369 6.91731 -6.02299 0
M  V30 4332 O 577.313 6.92449 -5.17064 0
M  V30 4333 C 579.587 6.43627 -5.25174 0
M  V30 4334 O 580.325 7.43686 -4.60469 0
M  V30 4335 C 578.918 5.40275 -4.31916 0
M  V30 4336 O 579.717 5.25279 -3.14438 0
M  V30 4337 C 577.581 6.04847 -4.05327 0
M  V30 4338 H 577.613 6.62195 -3.11261 0
M  V30 4339 H 578.796 4.42556 -4.81383 0
M  V30 4340 H 580.28 5.92458 -5.93643 0
M  V30 4341 H 578.586 7.92655 -6.402 0
M  V30 4342 H 578.396 6.26671 -8.0846 0
M  V30 4343 H 576.766 6.29101 -7.32804 0
M  V30 4344 H 579.405 5.84315 -2.47318 0
M  V30 4345 P 581.262 7.39546 -4.75277 0
M  V30 4346 O 582.683 7.84882 -5.01092 0
M  V30 4347 O 580.902 5.9812 -5.08098 0
M  V30 4348 O 580.939 7.57503 -3.1866 0
M  V30 4349 C 580.778 8.97452 -2.74862 0
M  V30 4350 C 581.319 9.07548 -1.32709 0
M  V30 4351 O 580.264 8.61972 -0.606089 0
M  V30 4352 C 582.537 8.25383 -0.938334 0
M  V30 4353 O 583.275 8.74577 0.146954 0
M  V30 4354 C 581.869 6.8802 -0.712559 0
M  V30 4355 O 582.667 6.1181 0.188505 0
M  V30 4356 C 580.531 7.27966 -0.139777 0
M  V30 4357 N 579.488 6.39368 -0.623421 0
M  V30 4358 C 579.657 5.71761 -1.78245 0
M  V30 4359 N 578.63 4.962 -2.10491 0
M  V30 4360 C 577.745 5.16158 -1.0635 0
M  V30 4361 C 576.478 4.60425 -0.810266 0
M  V30 4362 N 575.913 5.06 0.348685 0
M  V30 4363 C 576.515 5.94532 1.20395 0
M  V30 4364 N 577.692 6.48452 1.01191 0
M  V30 4365 C 578.267 6.04423 -0.146291 0
M  V30 4366 H 581.746 6.32625 -1.65044 0
M  V30 4367 H 583.229 8.19355 -1.79097 0
M  V30 4368 H 581.535 10.1305 -1.09016 0
M  V30 4369 H 581.345 9.64276 -3.41316 0
M  V30 4370 H 579.715 9.25417 -2.76357 0
M  V30 4371 H 580.557 5.79354 -2.38959 0
M  V30 4372 H 582.355 6.25169 1.0783 0
M  V30 4373 P 584.213 8.791 3.834e-12 0
M  V30 4374 O 585.634 9.31196 0.027936 0
M  V30 4375 O 583.853 7.77869 -1.04071 0
M  V30 4376 O 583.89 8.09533 1.41463 0
M  V30 4377 C 583.729 9.03587 2.5397 0
M  V30 4378 C 584.27 8.35226 3.79016 0
M  V30 4379 O 583.215 7.57904 4.1503 0
M  V30 4380 C 585.488 7.45087 3.67298 0
M  V30 4381 O 586.226 7.27796 4.85194 0
M  V30 4382 C 584.82 6.17323 3.12027 0
M  V30 4383 O 585.618 5.04496 3.46627 0
M  V30 4384 C 583.482 6.19961 3.81809 0
M  V30 4385 N 582.439 5.71575 2.93223 0
M  V30 4386 C 582.608 5.77362 1.59168 0
M  V30 4387 N 581.581 5.3123 0.911893 0
M  V30 4388 C 580.696 4.91717 1.89588 0
M  V30 4389 C 579.429 4.3114 1.8076 0
M  V30 4390 N 578.83 3.99821 0.632928 0
M  V30 4391 N 578.864 4.06823 3.02898 0
M  V30 4392 C 579.466 4.35062 4.22711 0
M  V30 4393 N 580.643 4.90805 4.35707 0
M  V30 4394 C 581.218 5.16382 3.14469 0
M  V30 4395 H 583.514 5.58142 4.72986 0
M  V30 4396 H 584.697 6.21428 2.0318 0
M  V30 4397 H 586.18 7.86112 2.9231 0
M  V30 4398 H 584.486 9.11171 4.55987 0
M  V30 4399 H 584.296 9.9573 2.34194 0
M  V30 4400 H 582.666 9.2792 2.67832 0
M  V30 4401 H 578.93 4.09052 5.13359 0
M  V30 4402 H 583.508 6.16575 1.12198 0
M  V30 4403 H 577.9 3.55423 0.632085 0
M  V30 4404 H 579.304 4.20317 -0.256712 0
M  V30 4405 H 585.306 4.67628 4.28704 0
M  V30 4406 P 587.163 7.39546 4.75277 0
M  V30 4407 O 588.585 7.81777 5.05738 0
M  V30 4408 O 586.803 7.1065 3.32998 0
M  V30 4409 O 586.84 6.04542 5.56673 0
M  V30 4410 C 586.68 6.22772 7.02095 0
M  V30 4411 C 587.22 4.97725 7.70406 0
M  V30 4412 O 586.164 4.13256 7.58987 0
M  V30 4413 C 588.438 4.28231 7.11815 0
M  V30 4414 O 589.176 3.49945 8.01648 0
M  V30 4415 C 587.769 3.5063 5.96244 0
M  V30 4416 O 588.568 2.36482 5.64681 0
M  V30 4417 C 586.432 3.15122 6.56374 0
M  V30 4418 H 586.464 2.13853 6.99751 0
M  V30 4419 H 587.647 4.13501 5.06559 0
M  V30 4420 H 589.131 5.03285 6.70911 0
M  V30 4421 H 587.437 5.20877 8.75697 0
M  V30 4422 H 587.247 7.11046 7.35349 0
M  V30 4423 H 585.617 6.35815 7.26986 0
M  V30 4424 H 588.256 1.61644 6.13565 0
M  V30 4425 P 590.114 3.65191 7.99657 0
M  V30 4426 O 591.536 3.8425 8.48115 0
M  V30 4427 O 589.754 4.17805 6.64342 0
M  V30 4428 O 589.791 2.07613 7.95143 0
M  V30 4429 C 589.631 1.44328 9.27336 0
M  V30 4430 C 590.171 0.0220036 9.17197 0
M  V30 4431 O 589.115 -0.626867 8.61923 0
M  V30 4432 C 591.389 -0.24586 8.30336 0
M  V30 4433 O 592.127 -1.39011 8.63583 0
M  V30 4434 C 590.72 -0.273849 6.91158 0
M  V30 4435 O 591.519 -1.06348 6.02892 0
M  V30 4436 C 589.383 -0.897649 7.22545 0
M  V30 4437 H 589.415 -1.9841 7.04286 0
M  V30 4438 H 590.598 0.739928 6.497 0
M  V30 4439 H 592.082 0.60668 8.36503 0
M  V30 4440 H 590.388 -0.352479 10.1829 0
M  V30 4441 H 590.198 2.00611 10.0304 0
M  V30 4442 H 588.568 1.41843 9.55327 0
M  V30 4443 H 591.207 -1.95734 6.03555 0
M  V30 4444 P 593.065 -1.25109 8.70152 0
M  V30 4445 O 594.487 -1.35274 9.21221 0
M  V30 4446 O 592.705 -0.0769065 7.84762 0
M  V30 4447 O 592.742 -2.55232 7.81161 0
M  V30 4448 C 592.582 -3.79939 8.58154 0
M  V30 4449 C 593.122 -4.94023 7.72785 0
M  V30 4450 O 592.066 -5.18726 6.91205 0
M  V30 4451 C 594.34 -4.69597 6.85231 0
M  V30 4452 O 595.078 -5.83832 6.51337 0
M  V30 4453 C 593.671 -3.96706 5.66633 0
M  V30 4454 O 594.47 -4.15414 4.49689 0
M  V30 4455 C 592.334 -4.66153 5.59313 0
M  V30 4456 H 592.366 -5.47679 4.85214 0
M  V30 4457 H 593.549 -2.89008 5.86566 0
M  V30 4458 H 595.033 -4.0121 7.36511 0
M  V30 4459 H 593.339 -5.80182 8.37584 0
M  V30 4460 H 593.149 -3.73517 9.52265 0
M  V30 4461 H 591.519 -3.97163 8.80359 0
M  V30 4462 H 594.158 -4.90969 4.01921 0
M  V30 4463 P 596.015 -5.75688 6.64379 0
M  V30 4464 O 597.437 -6.11849 7.01846 0
M  V30 4465 O 595.655 -4.30744 6.56026 0
M  V30 4466 O 595.692 -6.37042 5.19165 0
M  V30 4467 C 595.532 -7.83578 5.16515 0
M  V30 4468 C 596.072 -8.33398 3.83019 0
M  V30 4469 O 595.016 -8.10074 3.01034 0
M  V30 4470 C 597.29 -7.65514 3.2257 0
M  V30 4471 O 598.028 -8.4329 2.32297 0
M  V30 4472 C 596.621 -6.40075 2.62207 0
M  V30 4473 O 597.42 -5.92589 1.53712 0
M  V30 4474 C 595.284 -6.9454 2.18503 0
M  V30 4475 H 595.316 -7.23063 1.12091 0
M  V30 4476 H 596.499 -5.6025 3.37201 0
M  V30 4477 H 597.983 -7.35707 4.02681 0
M  V30 4478 H 596.289 -9.40912 3.9095 0
M  V30 4479 H 596.099 -8.29056 5.99158 0
M  V30 4480 H 594.469 -8.10073 5.25882 0
M  V30 4481 H 597.108 -6.30324 0.726794 0
M  V30 4482 P 598.966 -8.4349 2.47671 0
M  V30 4483 O 600.388 -8.94359 2.59696 0
M  V30 4484 O 598.606 -7.1704 3.19006 0
M  V30 4485 O 598.643 -8.16596 0.923387 0
M  V30 4486 C 598.483 -9.38437 0.108857 0
M  V30 4487 C 599.023 -9.08076 -1.28339 0
M  V30 4488 O 597.968 -8.44229 -1.84713 0
M  V30 4489 C 600.241 -8.18386 -1.42505 0
M  V30 4490 O 600.979 -8.3501 -2.60497 0
M  V30 4491 C 599.573 -6.80225 -1.25468 0
M  V30 4492 O 600.371 -5.81526 -1.91035 0
M  V30 4493 C 598.235 -7.02416 -1.9168 0
M  V30 4494 N 597.192 -6.31033 -1.20314 0
M  V30 4495 C 597.254 -6.18781 0.121293 0
M  V30 4496 N 596.209 -5.49762 0.588272 0
M  V30 4497 C 595.475 -5.22015 -0.488988 0
M  V30 4498 C 594.169 -4.61966 -0.596448 0
M  V30 4499 O 593.436 -4.19162 0.309059 0
M  V30 4500 N 593.739 -4.53773 -1.878 0
M  V30 4501 C 594.488 -4.99623 -2.99082 0
M  V30 4502 N 593.891 -4.78912 -4.21227 0
M  V30 4503 N 595.641 -5.59957 -2.91093 0
M  V30 4504 C 596.098 -5.70225 -1.64218 0
M  V30 4505 H 598.267 -6.6888 -2.96621 0
M  V30 4506 H 599.45 -6.53517 -0.192194 0
M  V30 4507 H 600.935 -8.36563 -0.598329 0
M  V30 4508 H 599.24 -10.0291 -1.79807 0
M  V30 4509 H 599.05 -10.2138 0.558219 0
M  V30 4510 H 597.419 -9.6579 0.0444202 0
M  V30 4511 H 592.843 -4.12883 -2.05283 0
M  V30 4512 H 598.05 -6.59596 0.745856 0
M  V30 4513 H 592.98 -4.31425 -4.2628 0
M  V30 4514 H 594.356 -5.11219 -5.07148 0
M  V30 4515 H 600.06 -5.69466 -2.79593 0
M  V30 4516 P 601.916 -8.4349 -2.47671 0
M  V30 4517 O 603.317 -8.99283 -2.62101 0
M  V30 4518 O 601.538 -7.81195 -1.16947 0
M  V30 4519 O 601.593 -7.36797 -3.63761 0
M  V30 4520 C 601.433 -7.95349 -4.982 0
M  V30 4521 C 601.973 -6.94537 -5.98908 0
M  V30 4522 O 600.917 -6.10277 -6.11744 0
M  V30 4523 C 603.19 -6.11426 -5.62335 0
M  V30 4524 O 603.929 -5.6162 -6.70584 0
M  V30 4525 C 602.523 -5.04409 -4.73308 0
M  V30 4526 O 603.321 -3.85929 -4.75106 0
M  V30 4527 C 601.185 -4.8728 -5.41006 0
M  V30 4528 N 600.142 -4.65812 -4.42377 0
M  V30 4529 C 599.107 -3.81293 -4.74224 0
M  V30 4530 O 599.146 -3.20533 -5.83679 0
M  V30 4531 N 598.095 -3.6442 -3.86349 0
M  V30 4532 C 598.143 -4.2728 -2.6824 0
M  V30 4533 N 597.133 -4.09866 -1.83822 0
M  V30 4534 C 599.239 -5.10813 -2.3217 0
M  V30 4535 C 600.205 -5.27909 -3.22647 0
M  V30 4536 H 601.217 -4.02278 -6.11074 0
M  V30 4537 H 602.4 -5.39013 -3.70026 0
M  V30 4538 H 603.884 -6.71494 -5.02675 0
M  V30 4539 H 602.19 -7.45796 -6.94223 0
M  V30 4540 H 601.999 -8.89416 -5.05237 0
M  V30 4541 H 600.369 -8.14791 -5.18355 0
M  V30 4542 H 599.287 -5.58884 -1.34755 0
M  V30 4543 H 601.051 -5.92811 -2.9934 0
M  V30 4544 H 596.343 -3.49095 -2.10018 0
M  V30 4545 H 597.138 -4.56846 -0.924167 0
M  V30 4546 H 603.105 -3.3454 -5.51577 0
M  V30 4547 P 604.867 -5.75688 -6.64379 0
M  V30 4548 O 606.289 -6.07627 -7.05504 0
M  V30 4549 O 604.507 -5.88047 -5.19722 0
M  V30 4550 O 604.544 -4.2322 -7.04443 0
M  V30 4551 C 604.384 -3.99743 -8.4911 0
M  V30 4552 C 604.924 -2.60516 -8.79425 0
M  V30 4553 O 603.868 -1.82684 -8.4467 0
M  V30 4554 C 606.142 -2.10343 -8.03628 0
M  V30 4555 O 606.88 -1.09919 -8.67766 0
M  V30 4556 C 605.473 -1.68446 -6.70876 0
M  V30 4557 O 606.272 -0.678137 -6.08433 0
M  V30 4558 C 604.136 -1.17436 -7.18567 0
M  V30 4559 H 604.168 -0.0804732 -7.31656 0
M  V30 4560 H 605.351 -2.54037 -6.02537 0
M  V30 4561 H 606.835 -2.93881 -7.85526 0
M  V30 4562 H 605.141 -2.53065 -9.86973 0
M  V30 4563 H 604.951 -4.75072 -9.05887 0
M  V30 4564 H 603.321 -4.05244 -8.76668 0
M  V30 4565 H 605.96 0.177647 -6.34251 0
M  V30 4566 P 607.817 -1.25109 -8.70152 0
M  V30 4567 O 609.239 -1.29772 -9.22214 0
M  V30 4568 O 607.457 -2.13714 -7.55141 0
M  V30 4569 O 607.494 0.248149 -8.21425 0
M  V30 4570 C 607.334 1.22779 -9.30434 0
M  V30 4571 C 607.874 2.56265 -8.80568 0
M  V30 4572 O 606.819 3.02979 -8.09349 0
M  V30 4573 C 609.092 2.57523 -7.89775 0
M  V30 4574 O 609.83 3.7668 -7.89438 0
M  V30 4575 C 608.424 2.20997 -6.55446 0
M  V30 4576 O 609.222 2.71851 -5.48419 0
M  V30 4577 C 607.086 2.89693 -6.67988 0
M  V30 4578 N 606.043 2.08895 -6.07487 0
M  V30 4579 C 606.105 0.760559 -6.14209 0
M  V30 4580 N 605.06 0.200108 -5.52538 0
M  V30 4581 C 604.326 1.22692 -5.09742 0
M  V30 4582 C 603.02 1.24782 -4.48775 0
M  V30 4583 O 602.287 0.290617 -4.19294 0
M  V30 4584 N 602.59 2.50468 -4.22428 0
M  V30 4585 C 603.339 3.67142 -4.51974 0
M  V30 4586 N 602.742 4.85096 -4.14091 0
M  V30 4587 N 604.492 3.67821 -5.12831 0
M  V30 4588 C 604.949 2.43698 -5.4105 0
M  V30 4589 H 607.118 3.88793 -6.19859 0
M  V30 4590 H 608.301 1.12029 -6.4413 0
M  V30 4591 H 609.786 1.78279 -8.19533 0
M  V30 4592 H 608.091 3.20706 -9.67112 0
M  V30 4593 H 607.901 0.901032 -10.1892 0
M  V30 4594 H 606.27 1.33049 -9.56592 0
M  V30 4595 H 601.694 2.61953 -3.79465 0
M  V30 4596 H 606.901 0.200439 -6.63497 0
M  V30 4597 H 601.831 4.8334 -3.66367 0
M  V30 4598 H 603.207 5.7474 -4.33841 0
M  V30 4599 H 608.911 3.5779 -5.23879 0
M  V30 4600 P 610.768 3.65191 -7.99657 0
M  V30 4601 O 612.19 3.89332 -8.45794 0
M  V30 4602 O 610.408 2.28472 -7.50807 0
M  V30 4603 O 610.445 4.64972 -6.77611 0
M  V30 4604 C 610.285 6.06319 -7.16352 0
M  V30 4605 C 610.825 6.91731 -6.02299 0
M  V30 4606 O 609.769 6.92449 -5.17064 0
M  V30 4607 C 612.043 6.43627 -5.25174 0
M  V30 4608 O 612.781 7.43686 -4.60469 0
M  V30 4609 C 611.374 5.40275 -4.31916 0
M  V30 4610 O 612.173 5.25279 -3.14438 0
M  V30 4611 C 610.037 6.04847 -4.05327 0
M  V30 4612 H 610.069 6.62195 -3.11261 0
M  V30 4613 H 611.252 4.42556 -4.81383 0
M  V30 4614 H 612.736 5.92458 -5.93643 0
M  V30 4615 H 611.042 7.92655 -6.402 0
M  V30 4616 H 610.852 6.26671 -8.0846 0
M  V30 4617 H 609.222 6.29101 -7.32804 0
M  V30 4618 H 611.861 5.84315 -2.47318 0
M  V30 4619 P 613.719 7.39546 -4.75277 0
M  V30 4620 O 615.141 7.84798 -5.01039 0
M  V30 4621 O 613.359 5.9812 -5.08098 0
M  V30 4622 O 613.396 7.57503 -3.1866 0
M  V30 4623 C 613.236 8.97357 -2.74833 0
M  V30 4624 C 613.776 9.07548 -1.32709 0
M  V30 4625 O 612.72 8.62072 -0.606159 0
M  V30 4626 C 614.994 8.25383 -0.938334 0
M  V30 4627 O 615.732 8.74577 0.146954 0
M  V30 4628 C 614.325 6.8802 -0.712559 0
M  V30 4629 O 615.124 6.1189 0.194655 0
M  V30 4630 C 612.988 7.27966 -0.139777 0
M  V30 4631 H 613.02 7.25354 0.961601 0
M  V30 4632 H 614.203 6.32557 -1.65702 0
M  V30 4633 H 615.687 8.19355 -1.79097 0
M  V30 4634 H 613.993 10.1294 -1.10029 0
M  V30 4635 H 613.803 9.64276 -3.41316 0
M  V30 4636 H 612.173 9.25417 -2.76357 0
M  V30 4637 H 614.812 6.25267 1.07847 0
M  V30 4638 P 616.669 8.791 4.14417e-12 0
M  V30 4639 O 618.091 9.31096 0.027933 0
M  V30 4640 O 616.309 7.77869 -1.04071 0
M  V30 4641 O 616.346 8.09533 1.41463 0
M  V30 4642 C 616.186 9.0349 2.53943 0
M  V30 4643 C 616.726 8.35226 3.79016 0
M  V30 4644 O 615.67 7.57992 4.15078 0
M  V30 4645 C 617.944 7.45087 3.67298 0
M  V30 4646 O 618.682 7.27796 4.85194 0
M  V30 4647 C 617.275 6.17323 3.12027 0
M  V30 4648 O 618.074 5.04231 3.47188 0
M  V30 4649 C 615.938 6.19961 3.81809 0
M  V30 4650 H 615.97 5.58218 4.73051 0
M  V30 4651 H 617.153 6.21726 2.02589 0
M  V30 4652 H 618.637 7.86112 2.9231 0
M  V30 4653 H 616.943 9.11627 4.55076 0
M  V30 4654 H 616.753 9.9573 2.34194 0
M  V30 4655 H 615.123 9.2792 2.67832 0
M  V30 4656 H 617.762 4.67702 4.28772 0
M  V30 4657 P 619.62 7.39546 4.75277 0
M  V30 4658 O 621.041 7.81861 5.05793 0
M  V30 4659 O 619.26 7.1065 3.32998 0
M  V30 4660 O 619.297 6.04542 5.56673 0
M  V30 4661 C 619.136 6.22839 7.02169 0
M  V30 4662 C 619.677 4.97725 7.70406 0
M  V30 4663 O 618.622 4.13208 7.58899 0
M  V30 4664 C 620.895 4.28231 7.11815 0
M  V30 4665 O 621.633 3.49945 8.01648 0
M  V30 4666 C 620.227 3.5063 5.96244 0
M  V30 4667 O 621.025 2.37008 5.64352 0
M  V30 4668 C 618.889 3.15122 6.56374 0
M  V30 4669 N 617.846 3.22311 5.55692 0
M  V30 4670 C 618.015 3.99655 4.46046 0
M  V30 4671 N 616.988 3.97599 3.63918 0
M  V30 4672 C 616.103 3.11159 4.25334 0
M  V30 4673 C 614.836 2.64972 3.85157 0
M  V30 4674 N 614.237 3.02132 2.69405 0
M  V30 4675 N 614.271 1.78482 4.74759 0
M  V30 4676 C 614.873 1.37463 5.90819 0
M  V30 4677 N 616.05 1.7733 6.31889 0
M  V30 4678 C 616.625 2.64393 5.43725 0
M  V30 4679 H 618.921 2.13823 6.99656 0
M  V30 4680 H 620.104 4.12931 5.06895 0
M  V30 4681 H 621.587 5.03285 6.70911 0
M  V30 4682 H 619.893 5.20001 8.76217 0
M  V30 4683 H 619.703 7.11046 7.35349 0
M  V30 4684 H 618.073 6.35815 7.26986 0
M  V30 4685 H 614.337 0.66574 6.53015 0
M  V30 4686 H 618.915 4.58037 4.27732 0
M  V30 4687 H 613.307 2.64828 2.45331 0
M  V30 4688 H 614.711 3.67472 2.05644 0
M  V30 4689 H 620.713 1.61619 6.13468 0
M  V30 4690 P 622.57 3.65191 7.99657 0
M  V30 4691 O 623.991 3.84292 8.48206 0
M  V30 4692 O 622.21 4.17805 6.64342 0
M  V30 4693 O 622.247 2.07613 7.95143 0
M  V30 4694 C 622.086 1.44344 9.27435 0
M  V30 4695 C 622.627 0.0220036 9.17197 0
M  V30 4696 O 621.572 -0.626794 8.61824 0
M  V30 4697 C 623.845 -0.24586 8.30336 0
M  V30 4698 O 624.583 -1.39011 8.63583 0
M  V30 4699 C 623.177 -0.273849 6.91158 0
M  V30 4700 O 623.975 -1.05728 6.029 0
M  V30 4701 C 621.839 -0.897649 7.22545 0
M  V30 4702 N 620.796 -0.292839 6.41732 0
M  V30 4703 C 620.965 0.950603 5.91308 0
M  V30 4704 N 619.938 1.37732 5.21105 0
M  V30 4705 C 619.053 0.318109 5.26039 0
M  V30 4706 C 617.786 0.146766 4.6727 0
M  V30 4707 N 617.221 -1.06525 4.95887 0
M  V30 4708 C 617.823 -2.0378 5.71347 0
M  V30 4709 N 619 -1.92445 6.27451 0
M  V30 4710 C 619.575 -0.715382 6.00353 0
M  V30 4711 H 623.054 0.733318 6.49674 0
M  V30 4712 H 624.537 0.60668 8.36503 0
M  V30 4713 H 622.843 -0.362662 10.1825 0
M  V30 4714 H 622.653 2.00611 10.0304 0
M  V30 4715 H 621.023 1.41843 9.55327 0
M  V30 4716 H 621.865 1.54076 6.07465 0
M  V30 4717 H 623.663 -1.95704 6.0346 0
M  V30 4718 P 625.521 -1.25109 8.70152 0
M  V30 4719 O 626.943 -1.35303 9.21419 0
M  V30 4720 O 625.161 -0.0769065 7.84762 0
M  V30 4721 O 625.198 -2.55232 7.81161 0
M  V30 4722 C 625.038 -3.79939 8.58154 0
M  V30 4723 C 625.578 -4.93969 7.72701 0
M  V30 4724 O 624.523 -5.18726 6.91205 0
M  V30 4725 C 626.796 -4.69597 6.85231 0
M  V30 4726 O 627.534 -5.83832 6.51337 0
M  V30 4727 C 626.128 -3.96706 5.66633 0
M  V30 4728 O 626.926 -4.15346 4.49615 0
M  V30 4729 C 624.79 -4.66153 5.59313 0
M  V30 4730 N 623.747 -3.71582 5.24027 0
M  V30 4731 C 623.809 -2.46018 5.67902 0
M  V30 4732 N 622.764 -1.74868 5.24518 0
M  V30 4733 C 622.03 -2.61333 4.54528 0
M  V30 4734 C 620.724 -2.46162 3.95441 0
M  V30 4735 O 619.991 -1.46013 3.94122 0
M  V30 4736 N 620.294 -3.59334 3.34752 0
M  V30 4737 C 621.043 -4.79605 3.3023 0
M  V30 4738 N 620.446 -5.82109 2.6065 0
M  V30 4739 N 622.196 -4.97402 3.8843 0
M  V30 4740 C 622.653 -3.86258 4.50476 0
M  V30 4741 H 624.822 -5.47679 4.85214 0
M  V30 4742 H 626.005 -2.88964 5.86476 0
M  V30 4743 H 627.49 -4.01947 7.36109 0
M  V30 4744 H 625.795 -5.80182 8.37584 0
M  V30 4745 H 625.605 -3.73517 9.52265 0
M  V30 4746 H 623.974 -3.97163 8.80359 0
M  V30 4747 H 619.398 -3.5825 2.90294 0
M  V30 4748 H 624.605 -2.06161 6.30974 0
M  V30 4749 H 619.535 -5.66979 2.15354 0
M  V30 4750 H 620.911 -6.73686 2.54344 0
M  V30 4751 H 626.615 -4.90891 4.01857 0
M  V30 4752 P 628.471 -5.75688 6.64379 0
M  V30 4753 O 629.892 -6.11915 7.01921 0
M  V30 4754 O 628.111 -4.30744 6.56026 0
M  V30 4755 O 628.148 -6.37042 5.19165 0
M  V30 4756 C 627.987 -7.83662 5.1657 0
M  V30 4757 C 628.528 -8.33398 3.83019 0
M  V30 4758 O 627.473 -8.0998 3.00999 0
M  V30 4759 C 629.746 -7.65514 3.2257 0
M  V30 4760 O 630.484 -8.4329 2.32297 0
M  V30 4761 C 629.078 -6.40075 2.62207 0
M  V30 4762 O 629.876 -5.92338 1.5428 0
M  V30 4763 C 627.74 -6.9454 2.18503 0
M  V30 4764 N 626.697 -5.95905 2.39948 0
M  V30 4765 C 626.866 -4.98383 3.32108 0
M  V30 4766 N 625.839 -4.16798 3.41761 0
M  V30 4767 C 624.954 -4.65287 2.47461 0
M  V30 4768 C 623.687 -4.18946 2.07461 0
M  V30 4769 N 623.088 -3.09661 2.60717 0
M  V30 4770 N 623.122 -4.95327 1.09101 0
M  V30 4771 C 623.724 -6.04369 0.519812 0
M  V30 4772 N 624.901 -6.50694 0.855982 0
M  V30 4773 C 625.476 -5.75818 1.84322 0
M  V30 4774 H 627.772 -7.22964 1.12076 0
M  V30 4775 H 628.955 -5.60502 3.36589 0
M  V30 4776 H 630.438 -7.35707 4.02681 0
M  V30 4777 H 628.744 -9.41302 3.90009 0
M  V30 4778 H 628.554 -8.29056 5.99158 0
M  V30 4779 H 626.924 -8.10073 5.25882 0
M  V30 4780 H 623.188 -6.55843 -0.270373 0
M  V30 4781 H 627.766 -4.88564 3.92502 0
M  V30 4782 H 622.158 -2.80523 2.27218 0
M  V30 4783 H 623.562 -2.55848 3.34465 0
M  V30 4784 H 629.564 -6.30224 0.72668 0
M  V30 4785 P 631.422 -8.4349 2.47671 0
M  V30 4786 O 632.844 -8.94167 2.5964 0
M  V30 4787 O 631.062 -7.1704 3.19006 0
M  V30 4788 O 631.099 -8.16596 0.923387 0
M  V30 4789 C 630.939 -9.38437 0.108857 0
M  V30 4790 C 631.479 -9.08175 -1.28353 0
M  V30 4791 O 630.423 -8.44229 -1.84713 0
M  V30 4792 C 632.697 -8.18386 -1.42505 0
M  V30 4793 O 633.435 -8.3501 -2.60497 0
M  V30 4794 C 632.028 -6.80225 -1.25468 0
M  V30 4795 O 632.827 -5.81621 -1.91066 0
M  V30 4796 C 630.691 -7.02416 -1.9168 0
M  V30 4797 H 630.723 -6.6888 -2.96621 0
M  V30 4798 H 631.906 -6.53617 -0.192223 0
M  V30 4799 H 633.39 -8.36622 -0.589963 0
M  V30 4800 H 631.696 -10.0291 -1.79807 0
M  V30 4801 H 631.506 -10.2138 0.558219 0
M  V30 4802 H 629.876 -9.6579 0.0444202 0
M  V30 4803 H 632.515 -5.69556 -2.79637 0
M  V30 4804 P 634.373 -8.4349 -2.47671 0
M  V30 4805 O 635.795 -8.92785 -2.65057 0
M  V30 4806 O 634.013 -7.7568 -1.19296 0
M  V30 4807 O 634.05 -7.36886 -3.63805 0
M  V30 4808 C 633.89 -7.95349 -4.982 0
M  V30 4809 C 634.43 -6.94537 -5.98908 0
M  V30 4810 O 633.375 -6.10347 -6.11815 0
M  V30 4811 C 635.648 -6.11426 -5.62335 0
M  V30 4812 O 636.386 -5.6162 -6.70584 0
M  V30 4813 C 634.98 -5.04409 -4.73308 0
M  V30 4814 O 635.778 -3.85929 -4.75106 0
M  V30 4815 C 633.642 -4.8728 -5.41006 0
M  V30 4816 N 632.599 -4.65812 -4.42377 0
M  V30 4817 C 632.661 -5.27109 -3.24335 0
M  V30 4818 N 631.616 -4.94293 -2.47735 0
M  V30 4819 C 630.882 -4.1271 -3.23359 0
M  V30 4820 C 629.576 -3.56384 -2.99934 0
M  V30 4821 O 628.843 -3.69331 -2.00616 0
M  V30 4822 N 629.146 -2.80206 -4.03316 0
M  V30 4823 C 629.895 -2.58614 -5.2172 0
M  V30 4824 N 629.298 -1.75154 -6.13278 0
M  V30 4825 N 631.048 -3.13689 -5.47619 0
M  V30 4826 C 631.505 -3.90921 -4.46436 0
M  V30 4827 H 633.674 -4.02333 -6.11157 0
M  V30 4828 H 634.857 -5.39383 -3.69487 0
M  V30 4829 H 636.342 -6.71414 -5.02615 0
M  V30 4830 H 634.647 -7.4649 -6.93477 0
M  V30 4831 H 634.457 -8.89416 -5.05237 0
M  V30 4832 H 632.826 -8.14876 -5.18409 0
M  V30 4833 H 628.25 -2.36355 -3.95916 0
M  V30 4834 H 633.457 -5.95212 -2.93859 0
M  V30 4835 H 628.387 -1.32473 -5.91856 0
M  V30 4836 H 629.763 -1.5588 -7.03026 0
M  V30 4837 H 635.467 -3.27906 -5.43085 0
M  V30 4838 P 637.323 -5.75688 -6.64379 0
M  V30 4839 O 638.744 -6.07692 -7.0558 0
M  V30 4840 O 636.963 -5.88047 -5.19722 0
M  V30 4841 O 637 -4.2322 -7.04443 0
M  V30 4842 C 636.839 -3.99785 -8.49201 0
M  V30 4843 C 637.38 -2.60516 -8.79425 0
M  V30 4844 O 636.325 -1.82663 -8.44573 0
M  V30 4845 C 638.598 -2.10343 -8.03628 0
M  V30 4846 O 639.336 -1.09919 -8.67766 0
M  V30 4847 C 637.93 -1.68446 -6.70876 0
M  V30 4848 O 638.728 -0.684109 -6.08265 0
M  V30 4849 C 636.592 -1.17436 -7.18567 0
M  V30 4850 N 635.549 -1.52699 -6.23988 0
M  V30 4851 C 635.718 -2.578 -5.40574 0
M  V30 4852 N 634.691 -2.78966 -4.61193 0
M  V30 4853 C 633.806 -1.78725 -4.95769 0
M  V30 4854 C 632.539 -1.45727 -4.44207 0
M  V30 4855 N 631.974 -0.374977 -5.05812 0
M  V30 4856 C 632.576 0.345585 -6.05615 0
M  V30 4857 N 633.753 0.0787651 -6.56253 0
M  V30 4858 C 634.328 -1.00499 -5.96189 0
M  V30 4859 H 637.807 -2.53396 -6.02698 0
M  V30 4860 H 639.29 -2.93881 -7.85526 0
M  V30 4861 H 637.596 -2.52078 -9.87225 0
M  V30 4862 H 637.406 -4.75072 -9.05887 0
M  V30 4863 H 635.776 -4.05244 -8.76668 0
M  V30 4864 H 636.618 -3.18977 -5.3945 0
M  V30 4865 H 638.416 0.177619 -6.34151 0
M  V30 4866 P 640.274 -1.25109 -8.70152 0
M  V30 4867 O 641.696 -1.29744 -9.22016 0
M  V30 4868 O 639.914 -2.13714 -7.55141 0
M  V30 4869 O 639.951 0.248149 -8.21425 0
M  V30 4870 C 639.791 1.22779 -9.30434 0
M  V30 4871 C 640.331 2.56293 -8.80664 0
M  V30 4872 O 639.275 3.02979 -8.09349 0
M  V30 4873 C 641.549 2.57523 -7.89775 0
M  V30 4874 O 642.287 3.7668 -7.89438 0
M  V30 4875 C 640.88 2.20997 -6.55446 0
M  V30 4876 O 641.679 2.71895 -5.48509 0
M  V30 4877 C 639.543 2.89693 -6.67988 0
M  V30 4878 H 639.575 3.88793 -6.19859 0
M  V30 4879 H 640.758 1.12046 -6.44229 0
M  V30 4880 H 642.242 1.7746 -8.19711 0
M  V30 4881 H 640.548 3.20706 -9.67112 0
M  V30 4882 H 640.358 0.901032 -10.1892 0
M  V30 4883 H 638.728 1.33049 -9.56592 0
M  V30 4884 H 641.367 3.57847 -5.23962 0
M  V30 4885 P 643.224 3.65191 -7.99657 0
M  V30 4886 O 644.646 3.89332 -8.45794 0
M  V30 4887 O 642.864 2.28472 -7.50807 0
M  V30 4888 O 642.901 4.64972 -6.77611 0
M  V30 4889 C 642.741 6.06319 -7.16352 0
M  V30 4890 C 643.281 6.91731 -6.02299 0
M  V30 4891 O 642.225 6.92449 -5.17064 0
M  V30 4892 C 644.499 6.43627 -5.25174 0
M  V30 4893 O 645.237 7.43686 -4.60469 0
M  V30 4894 C 643.83 5.40275 -4.31916 0
M  V30 4895 O 644.629 5.25279 -3.14438 0
M  V30 4896 C 642.493 6.04847 -4.05327 0
M  V30 4897 H 642.525 6.62195 -3.11261 0
M  V30 4898 H 643.708 4.42556 -4.81383 0
M  V30 4899 H 645.192 5.92458 -5.93643 0
M  V30 4900 H 643.498 7.92655 -6.402 0
M  V30 4901 H 643.308 6.26671 -8.0846 0
M  V30 4902 H 641.678 6.29101 -7.32804 0
M  V30 4903 H 644.317 5.84315 -2.47318 0
M  V30 4904 P 646.175 7.39546 -4.75277 0
M  V30 4905 O 647.597 7.84798 -5.01039 0
M  V30 4906 O 645.815 5.9812 -5.08098 0
M  V30 4907 O 645.852 7.57503 -3.1866 0
M  V30 4908 C 645.692 8.97357 -2.74833 0
M  V30 4909 C 646.232 9.07548 -1.32709 0
M  V30 4910 O 645.176 8.62072 -0.606159 0
M  V30 4911 C 647.45 8.25383 -0.938334 0
M  V30 4912 O 648.188 8.74577 0.146954 0
M  V30 4913 C 646.781 6.8802 -0.712559 0
M  V30 4914 O 647.58 6.1189 0.194655 0
M  V30 4915 C 645.444 7.27966 -0.139777 0
M  V30 4916 H 645.476 7.25354 0.961601 0
M  V30 4917 H 646.659 6.32557 -1.65702 0
M  V30 4918 H 648.143 8.19355 -1.79097 0
M  V30 4919 H 646.449 10.1294 -1.10029 0
M  V30 4920 H 646.259 9.64276 -3.41316 0
M  V30 4921 H 644.629 9.25417 -2.76357 0
M  V30 4922 H 647.268 6.25267 1.07847 0
M  V30 4923 P 649.125 8.791 4.45433e-12 0
M  V30 4924 O 650.547 9.31096 0.027933 0
M  V30 4925 O 648.765 7.77869 -1.04071 0
M  V30 4926 O 648.802 8.09533 1.41463 0
M  V30 4927 C 648.642 9.0349 2.53943 0
M  V30 4928 C 649.182 8.35226 3.79016 0
M  V30 4929 O 648.126 7.57992 4.15078 0
M  V30 4930 C 650.4 7.45087 3.67298 0
M  V30 4931 O 651.138 7.27796 4.85194 0
M  V30 4932 C 649.731 6.17323 3.12027 0
M  V30 4933 O 650.53 5.04231 3.47188 0
M  V30 4934 C 648.394 6.19961 3.81809 0
M  V30 4935 H 648.426 5.58218 4.73051 0
M  V30 4936 H 649.609 6.21726 2.02589 0
M  V30 4937 H 651.093 7.86112 2.9231 0
M  V30 4938 H 649.399 9.11627 4.55076 0
M  V30 4939 H 649.209 9.9573 2.34194 0
M  V30 4940 H 647.579 9.2792 2.67832 0
M  V30 4941 H 650.218 4.67702 4.28772 0
M  V30 4942 P 652.076 7.39546 4.75277 0
M  V30 4943 O 653.498 7.81777 5.05738 0
M  V30 4944 O 651.716 7.1065 3.32998 0
M  V30 4945 O 651.753 6.04542 5.56673 0
M  V30 4946 C 651.593 6.22772 7.02095 0
M  V30 4947 C 652.133 4.97725 7.70406 0
M  V30 4948 O 651.077 4.13256 7.58987 0
M  V30 4949 C 653.351 4.28231 7.11815 0
M  V30 4950 O 654.089 3.49945 8.01648 0
M  V30 4951 C 652.682 3.5063 5.96244 0
M  V30 4952 O 653.481 2.36482 5.64681 0
M  V30 4953 C 651.345 3.15122 6.56374 0
M  V30 4954 H 651.377 2.13853 6.99751 0
M  V30 4955 H 652.56 4.13501 5.06559 0
M  V30 4956 H 654.044 5.03285 6.70911 0
M  V30 4957 H 652.35 5.20877 8.75697 0
M  V30 4958 H 652.16 7.11046 7.35349 0
M  V30 4959 H 650.53 6.35815 7.26986 0
M  V30 4960 H 653.169 1.61644 6.13565 0
M  V30 4961 P 655.027 3.65191 7.99657 0
M  V30 4962 O 656.449 3.8425 8.48115 0
M  V30 4963 O 654.667 4.17805 6.64342 0
M  V30 4964 O 654.704 2.07613 7.95143 0
M  V30 4965 C 654.544 1.44328 9.27336 0
M  V30 4966 C 655.084 0.0220036 9.17197 0
M  V30 4967 O 654.028 -0.626867 8.61923 0
M  V30 4968 C 656.302 -0.24586 8.30336 0
M  V30 4969 O 657.04 -1.39011 8.63583 0
M  V30 4970 C 655.633 -0.273849 6.91158 0
M  V30 4971 O 656.432 -1.06348 6.02892 0
M  V30 4972 C 654.296 -0.897649 7.22545 0
M  V30 4973 H 654.328 -1.9841 7.04286 0
M  V30 4974 H 655.511 0.739928 6.497 0
M  V30 4975 H 656.995 0.60668 8.36503 0
M  V30 4976 H 655.301 -0.352479 10.1829 0
M  V30 4977 H 655.111 2.00611 10.0304 0
M  V30 4978 H 653.481 1.41843 9.55327 0
M  V30 4979 H 656.12 -1.95734 6.03555 0
M  V30 4980 P 657.977 -1.25109 8.70152 0
M  V30 4981 O 659.399 -1.35274 9.21221 0
M  V30 4982 O 657.617 -0.0769065 7.84762 0
M  V30 4983 O 657.654 -2.55232 7.81161 0
M  V30 4984 C 657.494 -3.79939 8.58154 0
M  V30 4985 C 658.034 -4.94023 7.72785 0
M  V30 4986 O 656.978 -5.18726 6.91205 0
M  V30 4987 C 659.252 -4.69597 6.85231 0
M  V30 4988 O 659.99 -5.83832 6.51337 0
M  V30 4989 C 658.583 -3.96706 5.66633 0
M  V30 4990 O 659.382 -4.15414 4.49689 0
M  V30 4991 C 657.246 -4.66153 5.59313 0
M  V30 4992 H 657.278 -5.47679 4.85214 0
M  V30 4993 H 658.461 -2.89008 5.86566 0
M  V30 4994 H 659.945 -4.0121 7.36511 0
M  V30 4995 H 658.251 -5.80182 8.37584 0
M  V30 4996 H 658.061 -3.73517 9.52265 0
M  V30 4997 H 656.431 -3.97163 8.80359 0
M  V30 4998 H 659.07 -4.90969 4.01921 0
M  V30 4999 P 660.928 -5.75688 6.64379 0
M  V30 5000 O 662.35 -6.11849 7.01846 0
M  V30 5001 O 660.568 -4.30744 6.56026 0
M  V30 5002 O 660.605 -6.37042 5.19165 0
M  V30 5003 C 660.445 -7.83578 5.16515 0
M  V30 5004 C 660.985 -8.33398 3.83019 0
M  V30 5005 O 659.929 -8.10074 3.01034 0
M  V30 5006 C 662.203 -7.65514 3.2257 0
M  V30 5007 O 662.941 -8.4329 2.32297 0
M  V30 5008 C 661.534 -6.40075 2.62207 0
M  V30 5009 O 662.333 -5.92589 1.53712 0
M  V30 5010 C 660.197 -6.9454 2.18503 0
M  V30 5011 H 660.229 -7.23063 1.12091 0
M  V30 5012 H 661.412 -5.6025 3.37201 0
M  V30 5013 H 662.896 -7.35707 4.02681 0
M  V30 5014 H 661.202 -9.40912 3.9095 0
M  V30 5015 H 661.012 -8.29056 5.99158 0
M  V30 5016 H 659.382 -8.10073 5.25882 0
M  V30 5017 H 662.021 -6.30324 0.726794 0
M  V30 5018 P 663.878 -8.4349 2.47671 0
M  V30 5019 O 665.3 -8.94167 2.5964 0
M  V30 5020 O 663.518 -7.1704 3.19006 0
M  V30 5021 O 663.555 -8.16596 0.923387 0
M  V30 5022 C 663.395 -9.38437 0.108857 0
M  V30 5023 C 663.935 -9.08175 -1.28353 0
M  V30 5024 O 662.879 -8.44229 -1.84713 0
M  V30 5025 C 665.153 -8.18386 -1.42505 0
M  V30 5026 O 665.891 -8.3501 -2.60497 0
M  V30 5027 C 664.484 -6.80225 -1.25468 0
M  V30 5028 O 665.283 -5.81621 -1.91066 0
M  V30 5029 C 663.147 -7.02416 -1.9168 0
M  V30 5030 H 663.179 -6.6888 -2.96621 0
M  V30 5031 H 664.362 -6.53617 -0.192223 0
M  V30 5032 H 665.846 -8.36622 -0.589963 0
M  V30 5033 H 664.152 -10.0291 -1.79807 0
M  V30 5034 H 663.962 -10.2138 0.558219 0
M  V30 5035 H 662.332 -9.6579 0.0444202 0
M  V30 5036 H 664.971 -5.69556 -2.79637 0
M  V30 5037 P 666.829 -8.4349 -2.47671 0
M  V30 5038 O 668.251 -8.92593 -2.65 0
M  V30 5039 O 666.469 -7.7568 -1.19296 0
M  V30 5040 O 666.506 -7.36886 -3.63805 0
M  V30 5041 C 666.346 -7.95349 -4.982 0
M  V30 5042 C 666.886 -6.94612 -5.98974 0
M  V30 5043 O 665.83 -6.10347 -6.11815 0
M  V30 5044 C 668.104 -6.11426 -5.62335 0
M  V30 5045 O 668.842 -5.6162 -6.70584 0
M  V30 5046 C 667.435 -5.04409 -4.73308 0
M  V30 5047 O 668.234 -3.85992 -4.75183 0
M  V30 5048 C 666.098 -4.8728 -5.41006 0
M  V30 5049 H 666.13 -4.02333 -6.11157 0
M  V30 5050 H 667.313 -5.39466 -3.69543 0
M  V30 5051 H 668.797 -6.71916 -5.01943 0
M  V30 5052 H 667.103 -7.4649 -6.93477 0
M  V30 5053 H 666.913 -8.89416 -5.05237 0
M  V30 5054 H 665.283 -8.14876 -5.18409 0
M  V30 5055 H 667.922 -3.27957 -5.4317 0
M  V30 5056 P 669.779 -5.75688 -6.64379 0
M  V30 5057 O 671.201 -6.07627 -7.05504 0
M  V30 5058 O 669.419 -5.88047 -5.19722 0
M  V30 5059 O 669.456 -4.2322 -7.04443 0
M  V30 5060 C 669.296 -3.99743 -8.4911 0
M  V30 5061 C 669.836 -2.60516 -8.79425 0
M  V30 5062 O 668.78 -1.82684 -8.4467 0
M  V30 5063 C 671.054 -2.10343 -8.03628 0
M  V30 5064 O 671.792 -1.09919 -8.67766 0
M  V30 5065 C 670.385 -1.68446 -6.70876 0
M  V30 5066 O 671.184 -0.678137 -6.08433 0
M  V30 5067 C 669.048 -1.17436 -7.18567 0
M  V30 5068 H 669.08 -0.0804732 -7.31656 0
M  V30 5069 H 670.263 -2.54037 -6.02537 0
M  V30 5070 H 671.747 -2.93881 -7.85526 0
M  V30 5071 H 670.053 -2.53065 -9.86973 0
M  V30 5072 H 669.863 -4.75072 -9.05887 0
M  V30 5073 H 668.233 -4.05244 -8.76668 0
M  V30 5074 H 670.872 0.177647 -6.34251 0
M  V30 5075 P 672.73 -1.25109 -8.70152 0
M  V30 5076 O 674.151 -1.29758 -9.22115 0
M  V30 5077 O 672.37 -2.13714 -7.55141 0
M  V30 5078 O 672.407 0.248149 -8.21425 0
M  V30 5079 C 672.246 1.22792 -9.30533 0
M  V30 5080 C 672.787 2.56293 -8.80664 0
M  V30 5081 O 671.732 3.02944 -8.09255 0
M  V30 5082 C 674.005 2.57523 -7.89775 0
M  V30 5083 O 674.743 3.7668 -7.89438 0
M  V30 5084 C 673.337 2.20997 -6.55446 0
M  V30 5085 O 674.135 2.71302 -5.48691 0
M  V30 5086 C 671.999 2.89693 -6.67988 0
M  V30 5087 N 670.956 2.08895 -6.07487 0
M  V30 5088 C 671.125 0.753809 -5.94137 0
M  V30 5089 N 670.098 0.146592 -5.38801 0
M  V30 5090 C 669.213 1.1768 -5.13693 0
M  V30 5091 C 667.946 1.17563 -4.52477 0
M  V30 5092 N 667.381 2.41918 -4.45789 0
M  V30 5093 C 667.983 3.56493 -4.90792 0
M  V30 5094 N 669.16 3.61423 -5.47817 0
M  V30 5095 C 669.735 2.37779 -5.5588 0
M  V30 5096 H 673.214 1.12673 -6.44018 0
M  V30 5097 H 674.697 1.7746 -8.19711 0
M  V30 5098 H 673.003 3.21673 -9.66791 0
M  V30 5099 H 672.813 0.901032 -10.1892 0
M  V30 5100 H 671.183 1.33049 -9.56592 0
M  V30 5101 H 672.025 0.233081 -6.26266 0
M  V30 5102 H 673.823 3.5779 -5.23879 0
M  V30 5103 P 675.681 3.65191 -7.99657 0
M  V30 5104 O 677.103 3.89332 -8.45794 0
M  V30 5105 O 675.321 2.28472 -7.50807 0
M  V30 5106 O 675.358 4.64972 -6.77611 0
M  V30 5107 C 675.198 6.06319 -7.16352 0
M  V30 5108 C 675.738 6.91731 -6.02299 0
M  V30 5109 O 674.682 6.92449 -5.17064 0
M  V30 5110 C 676.956 6.43627 -5.25174 0
M  V30 5111 O 677.694 7.43686 -4.60469 0
M  V30 5112 C 676.287 5.40275 -4.31916 0
M  V30 5113 O 677.086 5.25279 -3.14438 0
M  V30 5114 C 674.95 6.04847 -4.05327 0
M  V30 5115 H 674.982 6.62195 -3.11261 0
M  V30 5116 H 676.165 4.42556 -4.81383 0
M  V30 5117 H 677.649 5.92458 -5.93643 0
M  V30 5118 H 675.955 7.92655 -6.402 0
M  V30 5119 H 675.765 6.26671 -8.0846 0
M  V30 5120 H 674.135 6.29101 -7.32804 0
M  V30 5121 H 676.774 5.84315 -2.47318 0
M  V30 5122 P 678.631 7.39546 -4.75277 0
M  V30 5123 O 680.053 7.84966 -5.01146 0
M  V30 5124 O 678.271 5.9812 -5.08098 0
M  V30 5125 O 678.308 7.57503 -3.1866 0
M  V30 5126 C 678.148 8.97357 -2.74833 0
M  V30 5127 C 678.688 9.0745 -1.32694 0
M  V30 5128 O 677.633 8.62072 -0.606159 0
M  V30 5129 C 679.906 8.25383 -0.938334 0
M  V30 5130 O 680.644 8.74577 0.146954 0
M  V30 5131 C 679.238 6.8802 -0.712559 0
M  V30 5132 O 680.036 6.11791 0.194623 0
M  V30 5133 C 677.9 7.27966 -0.139777 0
M  V30 5134 N 676.857 6.39368 -0.623421 0
M  V30 5135 C 676.919 5.90299 -1.85969 0
M  V30 5136 N 675.874 5.10919 -2.1133 0
M  V30 5137 C 675.14 5.14646 -1.0015 0
M  V30 5138 C 673.834 4.60057 -0.729219 0
M  V30 5139 O 673.101 3.93476 -1.47746 0
M  V30 5140 N 673.404 4.88302 0.523505 0
M  V30 5141 C 674.153 5.63646 1.46207 0
M  V30 5142 N 673.556 5.78186 2.69239 0
M  V30 5143 N 675.306 6.19285 1.21544 0
M  V30 5144 C 675.763 5.93392 -0.0308487 0
M  V30 5145 H 677.932 7.25354 0.961601 0
M  V30 5146 H 679.115 6.3246 -1.65676 0
M  V30 5147 H 680.6 8.19533 -1.78278 0
M  V30 5148 H 678.905 10.1294 -1.10029 0
M  V30 5149 H 678.715 9.64276 -3.41316 0
M  V30 5150 H 677.084 9.25417 -2.76357 0
M  V30 5151 H 672.508 4.53993 0.806451 0
M  V30 5152 H 677.715 6.11865 -2.57394 0
M  V30 5153 H 672.645 5.34046 2.87467 0
M  V30 5154 H 674.021 6.33391 3.42578 0
M  V30 5155 H 679.725 6.25169 1.0783 0
M  V30 5156 P 681.582 8.791 4.7645e-12 0
M  V30 5157 O 683.004 9.31096 0.027933 0
M  V30 5158 O 681.222 7.77869 -1.04071 0
M  V30 5159 O 681.259 8.09533 1.41463 0
M  V30 5160 C 681.099 9.0349 2.53943 0
M  V30 5161 C 681.639 8.35226 3.79016 0
M  V30 5162 O 680.583 7.57992 4.15078 0
M  V30 5163 C 682.857 7.45087 3.67298 0
M  V30 5164 O 683.595 7.27796 4.85194 0
M  V30 5165 C 682.188 6.17323 3.12027 0
M  V30 5166 O 682.987 5.04231 3.47188 0
M  V30 5167 C 680.851 6.19961 3.81809 0
M  V30 5168 H 680.883 5.58218 4.73051 0
M  V30 5169 H 682.066 6.21726 2.02589 0
M  V30 5170 H 683.55 7.86112 2.9231 0
M  V30 5171 H 681.856 9.11627 4.55076 0
M  V30 5172 H 681.666 9.9573 2.34194 0
M  V30 5173 H 680.036 9.2792 2.67832 0
M  V30 5174 H 682.675 4.67702 4.28772 0
M  V30 5175 P 684.532 7.39546 4.75277 0
M  V30 5176 O 685.933 7.89013 5.04841 0
M  V30 5177 O 684.154 7.16603 3.32298 0
M  V30 5178 O 684.209 6.04468 5.56605 0
M  V30 5179 C 684.049 6.22772 7.02095 0
M  V30 5180 C 684.589 4.97671 7.70322 0
M  V30 5181 O 683.533 4.13208 7.58899 0
M  V30 5182 C 685.806 4.28231 7.11815 0
M  V30 5183 O 686.545 3.49945 8.01648 0
M  V30 5184 C 685.139 3.5063 5.96244 0
M  V30 5185 O 685.937 2.36443 5.64589 0
M  V30 5186 C 683.801 3.15122 6.56374 0
M  V30 5187 N 682.758 3.22311 5.55692 0
M  V30 5188 C 681.723 2.32244 5.62437 0
M  V30 5189 O 681.762 1.43107 6.50341 0
M  V30 5190 N 680.711 2.40811 4.73368 0
M  V30 5191 C 680.759 3.344 3.77753 0
M  V30 5192 C 681.855 4.24712 3.66679 0
M  V30 5193 C 682.821 4.15625 4.58307 0
M  V30 5194 H 683.833 2.13823 6.99656 0
M  V30 5195 H 685.016 4.12931 5.06895 0
M  V30 5196 H 686.5 5.02674 6.71494 0
M  V30 5197 H 684.806 5.20001 8.76217 0
M  V30 5198 H 684.615 7.11046 7.35349 0
M  V30 5199 H 682.985 6.35749 7.26911 0
M  V30 5200 H 681.903 4.9828 2.86753 0
M  V30 5201 H 683.667 4.84464 4.54228 0
M  V30 5202 H 685.721 1.65592 6.23485 0
M  V30 5203 P 687.483 3.65191 7.99657 0
M  V30 5204 O 688.905 3.8425 8.48115 0
M  V30 5205 O 687.123 4.17805 6.64342 0
M  V30 5206 O 687.16 2.07613 7.95143 0
M  V30 5207 C 687 1.44328 9.27336 0
M  V30 5208 C 687.54 0.0220036 9.17197 0
M  V30 5209 O 686.484 -0.626867 8.61923 0
M  V30 5210 C 688.758 -0.24586 8.30336 0
M  V30 5211 O 689.496 -1.39011 8.63583 0
M  V30 5212 C 688.089 -0.273849 6.91158 0
M  V30 5213 O 688.888 -1.06348 6.02892 0
M  V30 5214 C 686.752 -0.897649 7.22545 0
M  V30 5215 H 686.784 -1.9841 7.04286 0
M  V30 5216 H 687.967 0.739928 6.497 0
M  V30 5217 H 689.451 0.60668 8.36503 0
M  V30 5218 H 687.757 -0.352479 10.1829 0
M  V30 5219 H 687.567 2.00611 10.0304 0
M  V30 5220 H 685.937 1.41843 9.55327 0
M  V30 5221 H 688.576 -1.95734 6.03555 0
M  V30 5222 P 690.433 -1.25109 8.70152 0
M  V30 5223 O 691.855 -1.35274 9.21221 0
M  V30 5224 O 690.073 -0.0769065 7.84762 0
M  V30 5225 O 690.11 -2.55232 7.81161 0
M  V30 5226 C 689.95 -3.79939 8.58154 0
M  V30 5227 C 690.49 -4.94023 7.72785 0
M  V30 5228 O 689.434 -5.18726 6.91205 0
M  V30 5229 C 691.708 -4.69597 6.85231 0
M  V30 5230 O 692.446 -5.83832 6.51337 0
M  V30 5231 C 691.039 -3.96706 5.66633 0
M  V30 5232 O 691.838 -4.15414 4.49689 0
M  V30 5233 C 689.702 -4.66153 5.59313 0
M  V30 5234 H 689.734 -5.47679 4.85214 0
M  V30 5235 H 690.917 -2.89008 5.86566 0
M  V30 5236 H 692.401 -4.0121 7.36511 0
M  V30 5237 H 690.707 -5.80182 8.37584 0
M  V30 5238 H 690.517 -3.73517 9.52265 0
M  V30 5239 H 688.887 -3.97163 8.80359 0
M  V30 5240 H 691.526 -4.90969 4.01921 0
M  V30 5241 P 693.384 -5.75688 6.64379 0
M  V30 5242 O 694.806 -6.11849 7.01846 0
M  V30 5243 O 693.024 -4.30744 6.56026 0
M  V30 5244 O 693.061 -6.37042 5.19165 0
M  V30 5245 C 692.901 -7.83578 5.16515 0
M  V30 5246 C 693.441 -8.33398 3.83019 0
M  V30 5247 O 692.385 -8.10074 3.01034 0
M  V30 5248 C 694.659 -7.65514 3.2257 0
M  V30 5249 O 695.397 -8.4329 2.32297 0
M  V30 5250 C 693.99 -6.40075 2.62207 0
M  V30 5251 O 694.789 -5.92589 1.53712 0
M  V30 5252 C 692.653 -6.9454 2.18503 0
M  V30 5253 H 692.685 -7.23063 1.12091 0
M  V30 5254 H 693.868 -5.6025 3.37201 0
M  V30 5255 H 695.352 -7.35707 4.02681 0
M  V30 5256 H 693.658 -9.40912 3.9095 0
M  V30 5257 H 693.468 -8.29056 5.99158 0
M  V30 5258 H 691.838 -8.10073 5.25882 0
M  V30 5259 H 694.477 -6.30324 0.726794 0
M  V30 5260 P 696.335 -8.4349 2.47671 0
M  V30 5261 O 697.757 -8.94167 2.5964 0
M  V30 5262 O 695.975 -7.1704 3.19006 0
M  V30 5263 O 696.012 -8.16596 0.923387 0
M  V30 5264 C 695.852 -9.38437 0.108857 0
M  V30 5265 C 696.392 -9.08175 -1.28353 0
M  V30 5266 O 695.336 -8.44229 -1.84713 0
M  V30 5267 C 697.61 -8.18386 -1.42505 0
M  V30 5268 O 698.348 -8.3501 -2.60497 0
M  V30 5269 C 696.941 -6.80225 -1.25468 0
M  V30 5270 O 697.74 -5.81621 -1.91066 0
M  V30 5271 C 695.604 -7.02416 -1.9168 0
M  V30 5272 H 695.636 -6.6888 -2.96621 0
M  V30 5273 H 696.819 -6.53617 -0.192223 0
M  V30 5274 H 698.303 -8.36622 -0.589963 0
M  V30 5275 H 696.609 -10.0291 -1.79807 0
M  V30 5276 H 696.419 -10.2138 0.558219 0
M  V30 5277 H 694.789 -9.6579 0.0444202 0
M  V30 5278 H 697.428 -5.69556 -2.79637 0
M  V30 5279 P 699.285 -8.4349 -2.47671 0
M  V30 5280 O 700.706 -8.92689 -2.65029 0
M  V30 5281 O 698.925 -7.7568 -1.19296 0
M  V30 5282 O 698.962 -7.36886 -3.63805 0
M  V30 5283 C 698.801 -7.95433 -4.98253 0
M  V30 5284 C 699.342 -6.94612 -5.98974 0
M  V30 5285 O 698.287 -6.10277 -6.11744 0
M  V30 5286 C 700.56 -6.11426 -5.62335 0
M  V30 5287 O 701.298 -5.6162 -6.70584 0
M  V30 5288 C 699.892 -5.04409 -4.73308 0
M  V30 5289 O 700.69 -3.86404 -4.74719 0
M  V30 5290 C 698.554 -4.8728 -5.41006 0
M  V30 5291 N 697.511 -4.65812 -4.42377 0
M  V30 5292 C 697.68 -5.09132 -3.15382 0
M  V30 5293 N 696.653 -4.84021 -2.3716 0
M  V30 5294 C 695.768 -4.18386 -3.20441 0
M  V30 5295 C 694.501 -3.6275 -2.94905 0
M  V30 5296 N 693.936 -3.05008 -4.05243 0
M  V30 5297 C 694.538 -2.98348 -5.28159 0
M  V30 5298 N 695.715 -3.48171 -5.56333 0
M  V30 5299 C 696.29 -4.06869 -4.47212 0
M  V30 5300 H 699.769 -5.39013 -3.70026 0
M  V30 5301 H 701.252 -6.71916 -5.01943 0
M  V30 5302 H 699.558 -7.45796 -6.94223 0
M  V30 5303 H 699.368 -8.89416 -5.05237 0
M  V30 5304 H 697.738 -8.14876 -5.18409 0
M  V30 5305 H 698.58 -5.59989 -2.81362 0
M  V30 5306 H 700.378 -3.27906 -5.43085 0
M  V30 5307 P 702.236 -5.75688 -6.64379 0
M  V30 5308 O 703.658 -6.07627 -7.05504 0
M  V30 5309 O 701.876 -5.88047 -5.19722 0
M  V30 5310 O 701.913 -4.2322 -7.04443 0
M  V30 5311 C 701.753 -3.99743 -8.4911 0
M  V30 5312 C 702.293 -2.60516 -8.79425 0
M  V30 5313 O 701.237 -1.82684 -8.4467 0
M  V30 5314 C 703.511 -2.10343 -8.03628 0
M  V30 5315 O 704.249 -1.09919 -8.67766 0
M  V30 5316 C 702.842 -1.68446 -6.70876 0
M  V30 5317 O 703.641 -0.678137 -6.08433 0
M  V30 5318 C 701.505 -1.17436 -7.18567 0
M  V30 5319 H 701.537 -0.0804732 -7.31656 0
M  V30 5320 H 702.72 -2.54037 -6.02537 0
M  V30 5321 H 704.204 -2.93881 -7.85526 0
M  V30 5322 H 702.51 -2.53065 -9.86973 0
M  V30 5323 H 702.32 -4.75072 -9.05887 0
M  V30 5324 H 700.69 -4.05244 -8.76668 0
M  V30 5325 H 703.329 0.177647 -6.34251 0
M  V30 5326 P 705.186 -1.25109 -8.70152 0
M  V30 5327 O 706.608 -1.29744 -9.22016 0
M  V30 5328 O 704.826 -2.13714 -7.55141 0
M  V30 5329 O 704.863 0.248149 -8.21425 0
M  V30 5330 C 704.703 1.22779 -9.30434 0
M  V30 5331 C 705.243 2.56293 -8.80664 0
M  V30 5332 O 704.187 3.02979 -8.09349 0
M  V30 5333 C 706.461 2.57523 -7.89775 0
M  V30 5334 O 707.199 3.7668 -7.89438 0
M  V30 5335 C 705.792 2.20997 -6.55446 0
M  V30 5336 O 706.591 2.71895 -5.48509 0
M  V30 5337 C 704.455 2.89693 -6.67988 0
M  V30 5338 H 704.487 3.88793 -6.19859 0
M  V30 5339 H 705.67 1.12046 -6.44229 0
M  V30 5340 H 707.154 1.7746 -8.19711 0
M  V30 5341 H 705.46 3.20706 -9.67112 0
M  V30 5342 H 705.27 0.901032 -10.1892 0
M  V30 5343 H 703.64 1.33049 -9.56592 0
M  V30 5344 H 706.279 3.57847 -5.23962 0
M  V30 5345 P 708.137 3.65191 -7.99657 0
M  V30 5346 O 709.559 3.89332 -8.45794 0
M  V30 5347 O 707.777 2.28472 -7.50807 0
M  V30 5348 O 707.814 4.64972 -6.77611 0
M  V30 5349 C 707.654 6.06319 -7.16352 0
M  V30 5350 C 708.194 6.91731 -6.02299 0
M  V30 5351 O 707.138 6.92449 -5.17064 0
M  V30 5352 C 709.412 6.43627 -5.25174 0
M  V30 5353 O 710.15 7.43686 -4.60469 0
M  V30 5354 C 708.743 5.40275 -4.31916 0
M  V30 5355 O 709.542 5.25279 -3.14438 0
M  V30 5356 C 707.406 6.04847 -4.05327 0
M  V30 5357 H 707.438 6.62195 -3.11261 0
M  V30 5358 H 708.621 4.42556 -4.81383 0
M  V30 5359 H 710.105 5.92458 -5.93643 0
M  V30 5360 H 708.411 7.92655 -6.402 0
M  V30 5361 H 708.221 6.26671 -8.0846 0
M  V30 5362 H 706.591 6.29101 -7.32804 0
M  V30 5363 H 709.23 5.84315 -2.47318 0
M  V30 5364 P 711.087 7.39546 -4.75277 0
M  V30 5365 O 712.509 7.84798 -5.01039 0
M  V30 5366 O 710.727 5.9812 -5.08098 0
M  V30 5367 O 710.764 7.57503 -3.1866 0
M  V30 5368 C 710.604 8.97357 -2.74833 0
M  V30 5369 C 711.144 9.07548 -1.32709 0
M  V30 5370 O 710.088 8.62072 -0.606159 0
M  V30 5371 C 712.362 8.25383 -0.938334 0
M  V30 5372 O 713.1 8.74577 0.146954 0
M  V30 5373 C 711.693 6.8802 -0.712559 0
M  V30 5374 O 712.492 6.1189 0.194655 0
M  V30 5375 C 710.356 7.27966 -0.139777 0
M  V30 5376 H 710.388 7.25354 0.961601 0
M  V30 5377 H 711.571 6.32557 -1.65702 0
M  V30 5378 H 713.055 8.19355 -1.79097 0
M  V30 5379 H 711.361 10.1294 -1.10029 0
M  V30 5380 H 711.171 9.64276 -3.41316 0
M  V30 5381 H 709.541 9.25417 -2.76357 0
M  V30 5382 H 712.18 6.25267 1.07847 0
M  V30 5383 P 714.038 8.791 5.07466e-12 0
M  V30 5384 O 715.459 9.31196 0.027936 0
M  V30 5385 O 713.678 7.77869 -1.04071 0
M  V30 5386 O 713.715 8.09533 1.41463 0
M  V30 5387 C 713.554 9.03587 2.5397 0
M  V30 5388 C 714.095 8.35226 3.79016 0
M  V30 5389 O 713.04 7.57904 4.1503 0
M  V30 5390 C 715.313 7.45087 3.67298 0
M  V30 5391 O 716.051 7.27796 4.85194 0
M  V30 5392 C 714.645 6.17323 3.12027 0
M  V30 5393 O 715.443 5.04496 3.46627 0
M  V30 5394 C 713.307 6.19961 3.81809 0
M  V30 5395 N 712.264 5.71575 2.93223 0
M  V30 5396 C 712.433 5.77362 1.59168 0
M  V30 5397 N 711.406 5.3123 0.911893 0
M  V30 5398 C 710.521 4.91717 1.89588 0
M  V30 5399 C 709.254 4.3114 1.8076 0
M  V30 5400 N 708.689 4.06823 3.02898 0
M  V30 5401 C 709.291 4.35062 4.22711 0
M  V30 5402 N 710.468 4.90805 4.35707 0
M  V30 5403 C 711.043 5.16382 3.14469 0
M  V30 5404 H 714.522 6.21428 2.0318 0
M  V30 5405 H 716.005 7.86112 2.9231 0
M  V30 5406 H 714.311 9.11171 4.55987 0
M  V30 5407 H 714.121 9.9573 2.34194 0
M  V30 5408 H 712.491 9.2792 2.67832 0
M  V30 5409 H 713.333 6.16575 1.12198 0
M  V30 5410 H 715.131 4.67628 4.28704 0
M  V30 5411 P 716.989 7.39546 4.75277 0
M  V30 5412 O 718.411 7.81777 5.05738 0
M  V30 5413 O 716.629 7.1065 3.32998 0
M  V30 5414 O 716.666 6.04542 5.56673 0
M  V30 5415 C 716.506 6.22772 7.02095 0
M  V30 5416 C 717.046 4.97725 7.70406 0
M  V30 5417 O 715.99 4.13256 7.58987 0
M  V30 5418 C 718.264 4.28231 7.11815 0
M  V30 5419 O 719.002 3.49945 8.01648 0
M  V30 5420 C 717.595 3.5063 5.96244 0
M  V30 5421 O 718.394 2.36482 5.64681 0
M  V30 5422 C 716.258 3.15122 6.56374 0
M  V30 5423 H 716.29 2.13853 6.99751 0
M  V30 5424 H 717.473 4.13501 5.06559 0
M  V30 5425 H 718.957 5.03285 6.70911 0
M  V30 5426 H 717.263 5.20877 8.75697 0
M  V30 5427 H 717.073 7.11046 7.35349 0
M  V30 5428 H 715.443 6.35815 7.26986 0
M  V30 5429 H 718.082 1.61644 6.13565 0
M  V30 5430 P 719.939 3.65191 7.99657 0
M  V30 5431 O 721.361 3.8425 8.48115 0
M  V30 5432 O 719.579 4.17805 6.64342 0
M  V30 5433 O 719.616 2.07613 7.95143 0
M  V30 5434 C 719.456 1.44328 9.27336 0
M  V30 5435 C 719.996 0.0220036 9.17197 0
M  V30 5436 O 718.94 -0.626867 8.61923 0
M  V30 5437 C 721.214 -0.24586 8.30336 0
M  V30 5438 O 721.952 -1.39011 8.63583 0
M  V30 5439 C 720.545 -0.273849 6.91158 0
M  V30 5440 O 721.344 -1.06348 6.02892 0
M  V30 5441 C 719.208 -0.897649 7.22545 0
M  V30 5442 H 719.24 -1.9841 7.04286 0
M  V30 5443 H 720.423 0.739928 6.497 0
M  V30 5444 H 721.907 0.60668 8.36503 0
M  V30 5445 H 720.213 -0.352479 10.1829 0
M  V30 5446 H 720.023 2.00611 10.0304 0
M  V30 5447 H 718.393 1.41843 9.55327 0
M  V30 5448 H 721.032 -1.95734 6.03555 0
M  V30 5449 P 722.89 -1.25109 8.70152 0
M  V30 5450 O 724.312 -1.35274 9.21221 0
M  V30 5451 O 722.53 -0.0769065 7.84762 0
M  V30 5452 O 722.567 -2.55232 7.81161 0
M  V30 5453 C 722.407 -3.79939 8.58154 0
M  V30 5454 C 722.947 -4.94023 7.72785 0
M  V30 5455 O 721.891 -5.18726 6.91205 0
M  V30 5456 C 724.165 -4.69597 6.85231 0
M  V30 5457 O 724.903 -5.83832 6.51337 0
M  V30 5458 C 723.496 -3.96706 5.66633 0
M  V30 5459 O 724.295 -4.15414 4.49689 0
M  V30 5460 C 722.159 -4.66153 5.59313 0
M  V30 5461 H 722.191 -5.47679 4.85214 0
M  V30 5462 H 723.374 -2.89008 5.86566 0
M  V30 5463 H 724.858 -4.0121 7.36511 0
M  V30 5464 H 723.164 -5.80182 8.37584 0
M  V30 5465 H 722.974 -3.73517 9.52265 0
M  V30 5466 H 721.344 -3.97163 8.80359 0
M  V30 5467 H 723.983 -4.90969 4.01921 0
M  V30 5468 P 725.84 -5.75688 6.64379 0
M  V30 5469 O 727.261 -6.11915 7.01921 0
M  V30 5470 O 725.48 -4.30744 6.56026 0
M  V30 5471 O 725.517 -6.37042 5.19165 0
M  V30 5472 C 725.356 -7.83662 5.1657 0
M  V30 5473 C 725.897 -8.33398 3.83019 0
M  V30 5474 O 724.842 -8.0998 3.00999 0
M  V30 5475 C 727.115 -7.65514 3.2257 0
M  V30 5476 O 727.853 -8.4329 2.32297 0
M  V30 5477 C 726.447 -6.40075 2.62207 0
M  V30 5478 O 727.245 -5.92338 1.5428 0
M  V30 5479 C 725.109 -6.9454 2.18503 0
M  V30 5480 N 724.066 -5.95905 2.39948 0
M  V30 5481 C 724.235 -4.98383 3.32108 0
M  V30 5482 N 723.208 -4.16798 3.41761 0
M  V30 5483 C 722.323 -4.65287 2.47461 0
M  V30 5484 C 721.056 -4.18946 2.07461 0
M  V30 5485 N 720.491 -4.95327 1.09101 0
M  V30 5486 C 721.093 -6.04369 0.519812 0
M  V30 5487 N 722.27 -6.50694 0.855982 0
M  V30 5488 C 722.845 -5.75818 1.84322 0
M  V30 5489 H 726.324 -5.60502 3.36589 0
M  V30 5490 H 727.807 -7.35707 4.02681 0
M  V30 5491 H 726.113 -9.41302 3.90009 0
M  V30 5492 H 725.923 -8.29056 5.99158 0
M  V30 5493 H 724.293 -8.10073 5.25882 0
M  V30 5494 H 725.135 -4.88564 3.92502 0
M  V30 5495 H 726.933 -6.30224 0.72668 0
M  V30 5496 P 728.791 -8.4349 2.47671 0
M  V30 5497 O 730.213 -8.94167 2.5964 0
M  V30 5498 O 728.431 -7.1704 3.19006 0
M  V30 5499 O 728.468 -8.16596 0.923387 0
M  V30 5500 C 728.308 -9.38437 0.108857 0
M  V30 5501 C 728.848 -9.08175 -1.28353 0
M  V30 5502 O 727.792 -8.44229 -1.84713 0
M  V30 5503 C 730.066 -8.18386 -1.42505 0
M  V30 5504 O 730.804 -8.3501 -2.60497 0
M  V30 5505 C 729.397 -6.80225 -1.25468 0
M  V30 5506 O 730.196 -5.81621 -1.91066 0
M  V30 5507 C 728.06 -7.02416 -1.9168 0
M  V30 5508 H 728.092 -6.6888 -2.96621 0
M  V30 5509 H 729.275 -6.53617 -0.192223 0
M  V30 5510 H 730.759 -8.36622 -0.589963 0
M  V30 5511 H 729.065 -10.0291 -1.79807 0
M  V30 5512 H 728.875 -10.2138 0.558219 0
M  V30 5513 H 727.245 -9.6579 0.0444202 0
M  V30 5514 H 729.884 -5.69556 -2.79637 0
M  V30 5515 P 731.741 -8.4349 -2.47671 0
M  V30 5516 O 733.163 -8.92593 -2.65 0
M  V30 5517 O 731.381 -7.7568 -1.19296 0
M  V30 5518 O 731.418 -7.36886 -3.63805 0
M  V30 5519 C 731.258 -7.95349 -4.982 0
M  V30 5520 C 731.798 -6.94612 -5.98974 0
M  V30 5521 O 730.742 -6.10347 -6.11815 0
M  V30 5522 C 733.016 -6.11426 -5.62335 0
M  V30 5523 O 733.754 -5.6162 -6.70584 0
M  V30 5524 C 732.347 -5.04409 -4.73308 0
M  V30 5525 O 733.146 -3.85992 -4.75183 0
M  V30 5526 C 731.01 -4.8728 -5.41006 0
M  V30 5527 H 731.042 -4.02333 -6.11157 0
M  V30 5528 H 732.225 -5.39466 -3.69543 0
M  V30 5529 H 733.709 -6.71916 -5.01943 0
M  V30 5530 H 732.015 -7.4649 -6.93477 0
M  V30 5531 H 731.825 -8.89416 -5.05237 0
M  V30 5532 H 730.195 -8.14876 -5.18409 0
M  V30 5533 H 732.834 -3.27957 -5.4317 0
M  V30 5534 P 734.692 -5.75688 -6.64379 0
M  V30 5535 O 736.114 -6.07627 -7.05504 0
M  V30 5536 O 734.332 -5.88047 -5.19722 0
M  V30 5537 O 734.369 -4.2322 -7.04443 0
M  V30 5538 C 734.209 -3.99743 -8.4911 0
M  V30 5539 C 734.749 -2.60516 -8.79425 0
M  V30 5540 O 733.693 -1.82684 -8.4467 0
M  V30 5541 C 735.967 -2.10343 -8.03628 0
M  V30 5542 O 736.705 -1.09919 -8.67766 0
M  V30 5543 C 735.298 -1.68446 -6.70876 0
M  V30 5544 O 736.097 -0.678137 -6.08433 0
M  V30 5545 C 733.961 -1.17436 -7.18567 0
M  V30 5546 H 733.993 -0.0804732 -7.31656 0
M  V30 5547 H 735.176 -2.54037 -6.02537 0
M  V30 5548 H 736.66 -2.93881 -7.85526 0
M  V30 5549 H 734.966 -2.53065 -9.86973 0
M  V30 5550 H 734.776 -4.75072 -9.05887 0
M  V30 5551 H 733.146 -4.05244 -8.76668 0
M  V30 5552 H 735.785 0.177647 -6.34251 0
M  V30 5553 P 737.643 -1.25109 -8.70152 0
M  V30 5554 O 739.065 -1.29744 -9.22016 0
M  V30 5555 O 737.283 -2.13714 -7.55141 0
M  V30 5556 O 737.32 0.248149 -8.21425 0
M  V30 5557 C 737.16 1.22779 -9.30434 0
M  V30 5558 C 737.7 2.56293 -8.80664 0
M  V30 5559 O 736.644 3.02979 -8.09349 0
M  V30 5560 C 738.918 2.57523 -7.89775 0
M  V30 5561 O 739.656 3.7668 -7.89438 0
M  V30 5562 C 738.249 2.20997 -6.55446 0
M  V30 5563 O 739.048 2.71895 -5.48509 0
M  V30 5564 C 736.912 2.89693 -6.67988 0
M  V30 5565 H 736.944 3.88793 -6.19859 0
M  V30 5566 H 738.127 1.12046 -6.44229 0
M  V30 5567 H 739.611 1.7746 -8.19711 0
M  V30 5568 H 737.917 3.20706 -9.67112 0
M  V30 5569 H 737.726 0.901032 -10.1892 0
M  V30 5570 H 736.096 1.33049 -9.56592 0
M  V30 5571 H 738.736 3.57847 -5.23962 0
M  V30 5572 P 740.593 3.65191 -7.99657 0
M  V30 5573 O 742.015 3.89332 -8.45794 0
M  V30 5574 O 740.233 2.28472 -7.50807 0
M  V30 5575 O 740.27 4.64972 -6.77611 0
M  V30 5576 C 740.11 6.06319 -7.16352 0
M  V30 5577 C 740.65 6.91731 -6.02299 0
M  V30 5578 O 739.594 6.92449 -5.17064 0
M  V30 5579 C 741.868 6.43627 -5.25174 0
M  V30 5580 O 742.606 7.43686 -4.60469 0
M  V30 5581 C 741.199 5.40275 -4.31916 0
M  V30 5582 O 741.998 5.25279 -3.14438 0
M  V30 5583 C 739.862 6.04847 -4.05327 0
M  V30 5584 H 739.894 6.62195 -3.11261 0
M  V30 5585 H 741.077 4.42556 -4.81383 0
M  V30 5586 H 742.561 5.92458 -5.93643 0
M  V30 5587 H 740.867 7.92655 -6.402 0
M  V30 5588 H 740.677 6.26671 -8.0846 0
M  V30 5589 H 739.047 6.29101 -7.32804 0
M  V30 5590 H 741.686 5.84315 -2.47318 0
M  V30 5591 P 743.544 7.39546 -4.75277 0
M  V30 5592 O 744.966 7.84798 -5.01039 0
M  V30 5593 O 743.184 5.9812 -5.08098 0
M  V30 5594 O 743.221 7.57503 -3.1866 0
M  V30 5595 C 743.061 8.97357 -2.74833 0
M  V30 5596 C 743.601 9.07548 -1.32709 0
M  V30 5597 O 742.545 8.62072 -0.606159 0
M  V30 5598 C 744.819 8.25383 -0.938334 0
M  V30 5599 O 745.557 8.74577 0.146954 0
M  V30 5600 C 744.15 6.8802 -0.712559 0
M  V30 5601 O 744.949 6.1189 0.194655 0
M  V30 5602 C 742.813 7.27966 -0.139777 0
M  V30 5603 H 742.845 7.25354 0.961601 0
M  V30 5604 H 744.028 6.32557 -1.65702 0
M  V30 5605 H 745.512 8.19355 -1.79097 0
M  V30 5606 H 743.818 10.1294 -1.10029 0
M  V30 5607 H 743.628 9.64276 -3.41316 0
M  V30 5608 H 741.998 9.25417 -2.76357 0
M  V30 5609 H 744.637 6.25267 1.07847 0
M  V30 5610 P 746.494 8.791 5.38483e-12 0
M  V30 5611 O 747.916 9.31096 0.027933 0
M  V30 5612 O 746.134 7.77869 -1.04071 0
M  V30 5613 O 746.171 8.09533 1.41463 0
M  V30 5614 C 746.011 9.0349 2.53943 0
M  V30 5615 C 746.551 8.35226 3.79016 0
M  V30 5616 O 745.495 7.57992 4.15078 0
M  V30 5617 C 747.769 7.45087 3.67298 0
M  V30 5618 O 748.507 7.27796 4.85194 0
M  V30 5619 C 747.1 6.17323 3.12027 0
M  V30 5620 O 747.899 5.04231 3.47188 0
M  V30 5621 C 745.763 6.19961 3.81809 0
M  V30 5622 H 745.795 5.58218 4.73051 0
M  V30 5623 H 746.978 6.21726 2.02589 0
M  V30 5624 H 748.462 7.86112 2.9231 0
M  V30 5625 H 746.768 9.11627 4.55076 0
M  V30 5626 H 746.578 9.9573 2.34194 0
M  V30 5627 H 744.948 9.2792 2.67832 0
M  V30 5628 H 747.587 4.67702 4.28772 0
M  V30 5629 P 749.445 7.39546 4.75277 0
M  V30 5630 O 750.867 7.81777 5.05738 0
M  V30 5631 O 749.085 7.1065 3.32998 0
M  V30 5632 O 749.122 6.04542 5.56673 0
M  V30 5633 C 748.962 6.22772 7.02095 0
M  V30 5634 C 749.502 4.97725 7.70406 0
M  V30 5635 O 748.446 4.13256 7.58987 0
M  V30 5636 C 750.72 4.28231 7.11815 0
M  V30 5637 O 751.458 3.49945 8.01648 0
M  V30 5638 C 750.051 3.5063 5.96244 0
M  V30 5639 O 750.85 2.36482 5.64681 0
M  V30 5640 C 748.714 3.15122 6.56374 0
M  V30 5641 H 748.746 2.13853 6.99751 0
M  V30 5642 H 749.929 4.13501 5.06559 0
M  V30 5643 H 751.413 5.03285 6.70911 0
M  V30 5644 H 749.719 5.20877 8.75697 0
M  V30 5645 H 749.529 7.11046 7.35349 0
M  V30 5646 H 747.899 6.35815 7.26986 0
M  V30 5647 H 750.538 1.61644 6.13565 0
M  V30 5648 P 752.395 3.65191 7.99657 0
M  V30 5649 O 753.817 3.8425 8.48115 0
M  V30 5650 O 752.035 4.17805 6.64342 0
M  V30 5651 O 752.072 2.07613 7.95143 0
M  V30 5652 C 751.912 1.44328 9.27336 0
M  V30 5653 C 752.452 0.0220036 9.17197 0
M  V30 5654 O 751.396 -0.626867 8.61923 0
M  V30 5655 C 753.67 -0.24586 8.30336 0
M  V30 5656 O 754.408 -1.39011 8.63583 0
M  V30 5657 C 753.001 -0.273849 6.91158 0
M  V30 5658 O 753.8 -1.06348 6.02892 0
M  V30 5659 C 751.664 -0.897649 7.22545 0
M  V30 5660 H 751.696 -1.9841 7.04286 0
M  V30 5661 H 752.879 0.739928 6.497 0
M  V30 5662 H 754.363 0.60668 8.36503 0
M  V30 5663 H 752.669 -0.352479 10.1829 0
M  V30 5664 H 752.479 2.00611 10.0304 0
M  V30 5665 H 750.849 1.41843 9.55327 0
M  V30 5666 H 753.488 -1.95734 6.03555 0
M  V30 5667 P 755.346 -1.25109 8.70152 0
M  V30 5668 O 756.768 -1.35303 9.21419 0
M  V30 5669 O 754.986 -0.0769065 7.84762 0
M  V30 5670 O 755.023 -2.55232 7.81161 0
M  V30 5671 C 754.863 -3.79939 8.58154 0
M  V30 5672 C 755.403 -4.93969 7.72701 0
M  V30 5673 O 754.348 -5.18726 6.91205 0
M  V30 5674 C 756.621 -4.69597 6.85231 0
M  V30 5675 O 757.359 -5.83832 6.51337 0
M  V30 5676 C 755.953 -3.96706 5.66633 0
M  V30 5677 O 756.751 -4.15346 4.49615 0
M  V30 5678 C 754.615 -4.66153 5.59313 0
M  V30 5679 N 753.572 -3.71582 5.24027 0
M  V30 5680 C 753.634 -2.46018 5.67902 0
M  V30 5681 N 752.589 -1.74868 5.24518 0
M  V30 5682 C 751.855 -2.61333 4.54528 0
M  V30 5683 C 750.549 -2.46162 3.95441 0
M  V30 5684 O 749.816 -1.46013 3.94122 0
M  V30 5685 N 750.119 -3.59334 3.34752 0
M  V30 5686 C 750.868 -4.79605 3.3023 0
M  V30 5687 N 750.271 -5.82109 2.6065 0
M  V30 5688 N 752.021 -4.97402 3.8843 0
M  V30 5689 C 752.478 -3.86258 4.50476 0
M  V30 5690 H 754.647 -5.47679 4.85214 0
M  V30 5691 H 755.83 -2.88964 5.86476 0
M  V30 5692 H 757.315 -4.01947 7.36109 0
M  V30 5693 H 755.62 -5.80182 8.37584 0
M  V30 5694 H 755.43 -3.73517 9.52265 0
M  V30 5695 H 753.799 -3.97163 8.80359 0
M  V30 5696 H 749.223 -3.5825 2.90294 0
M  V30 5697 H 754.43 -2.06161 6.30974 0
M  V30 5698 H 749.36 -5.66979 2.15354 0
M  V30 5699 H 750.736 -6.73686 2.54344 0
M  V30 5700 H 756.44 -4.90891 4.01857 0
M  V30 5701 P 758.296 -5.75688 6.64379 0
M  V30 5702 O 759.718 -6.11849 7.01846 0
M  V30 5703 O 757.936 -4.30744 6.56026 0
M  V30 5704 O 757.973 -6.37042 5.19165 0
M  V30 5705 C 757.813 -7.83578 5.16515 0
M  V30 5706 C 758.353 -8.33398 3.83019 0
M  V30 5707 O 757.297 -8.10074 3.01034 0
M  V30 5708 C 759.571 -7.65514 3.2257 0
M  V30 5709 O 760.309 -8.4329 2.32297 0
M  V30 5710 C 758.902 -6.40075 2.62207 0
M  V30 5711 O 759.701 -5.92589 1.53712 0
M  V30 5712 C 757.565 -6.9454 2.18503 0
M  V30 5713 H 757.597 -7.23063 1.12091 0
M  V30 5714 H 758.78 -5.6025 3.37201 0
M  V30 5715 H 760.264 -7.35707 4.02681 0
M  V30 5716 H 758.57 -9.40912 3.9095 0
M  V30 5717 H 758.38 -8.29056 5.99158 0
M  V30 5718 H 756.75 -8.10073 5.25882 0
M  V30 5719 H 759.389 -6.30324 0.726794 0
M  V30 5720 P 761.247 -8.4349 2.47671 0
M  V30 5721 O 762.668 -8.94263 2.59668 0
M  V30 5722 O 760.887 -7.1704 3.19006 0
M  V30 5723 O 760.924 -8.16596 0.923387 0
M  V30 5724 C 760.763 -9.38537 0.108869 0
M  V30 5725 C 761.304 -9.08175 -1.28353 0
M  V30 5726 O 760.249 -8.44131 -1.84692 0
M  V30 5727 C 762.522 -8.18386 -1.42505 0
M  V30 5728 O 763.26 -8.3501 -2.60497 0
M  V30 5729 C 761.854 -6.80225 -1.25468 0
M  V30 5730 O 762.652 -5.81716 -1.90454 0
M  V30 5731 C 760.516 -7.02416 -1.9168 0
M  V30 5732 N 759.473 -6.31033 -1.20314 0
M  V30 5733 C 759.642 -5.98817 0.0994088 0
M  V30 5734 N 758.615 -5.35403 0.621694 0
M  V30 5735 C 757.73 -5.25212 -0.43376 0
M  V30 5736 C 756.463 -4.64602 -0.519722 0
M  V30 5737 N 755.898 -4.7568 -1.76013 0
M  V30 5738 C 756.5 -5.3653 -2.83017 0
M  V30 5739 N 757.677 -5.93676 -2.79782 0
M  V30 5740 C 758.252 -5.84061 -1.56249 0
M  V30 5741 H 761.731 -6.53498 -0.198729 0
M  V30 5742 H 763.214 -8.36622 -0.589963 0
M  V30 5743 H 761.52 -10.0273 -1.8081 0
M  V30 5744 H 761.33 -10.2138 0.558219 0
M  V30 5745 H 759.7 -9.6579 0.0444202 0
M  V30 5746 H 760.542 -6.23209 0.660562 0
M  V30 5747 H 762.34 -5.69466 -2.79593 0
M  V30 5748 P 764.198 -8.4349 -2.47671 0
M  V30 5749 O 765.62 -8.92593 -2.65 0
M  V30 5750 O 763.838 -7.7568 -1.19296 0
M  V30 5751 O 763.875 -7.36886 -3.63805 0
M  V30 5752 C 763.715 -7.95349 -4.982 0
M  V30 5753 C 764.255 -6.94612 -5.98974 0
M  V30 5754 O 763.199 -6.10347 -6.11815 0
M  V30 5755 C 765.473 -6.11426 -5.62335 0
M  V30 5756 O 766.211 -5.6162 -6.70584 0
M  V30 5757 C 764.804 -5.04409 -4.73308 0
M  V30 5758 O 765.603 -3.85992 -4.75183 0
M  V30 5759 C 763.467 -4.8728 -5.41006 0
M  V30 5760 H 763.499 -4.02333 -6.11157 0
M  V30 5761 H 764.682 -5.39466 -3.69543 0
M  V30 5762 H 766.166 -6.71916 -5.01943 0
M  V30 5763 H 764.472 -7.4649 -6.93477 0
M  V30 5764 H 764.282 -8.89416 -5.05237 0
M  V30 5765 H 762.652 -8.14876 -5.18409 0
M  V30 5766 H 765.291 -3.27957 -5.4317 0
M  V30 5767 P 767.148 -5.75688 -6.64379 0
M  V30 5768 O 768.569 -6.07692 -7.0558 0
M  V30 5769 O 766.788 -5.88047 -5.19722 0
M  V30 5770 O 766.825 -4.2322 -7.04443 0
M  V30 5771 C 766.664 -3.99785 -8.49201 0
M  V30 5772 C 767.205 -2.60516 -8.79425 0
M  V30 5773 O 766.15 -1.82663 -8.44573 0
M  V30 5774 C 768.423 -2.10343 -8.03628 0
M  V30 5775 O 769.161 -1.09919 -8.67766 0
M  V30 5776 C 767.755 -1.68446 -6.70876 0
M  V30 5777 O 768.553 -0.684109 -6.08265 0
M  V30 5778 C 766.417 -1.17436 -7.18567 0
M  V30 5779 N 765.374 -1.52699 -6.23988 0
M  V30 5780 C 765.543 -2.578 -5.40574 0
M  V30 5781 N 764.516 -2.78966 -4.61193 0
M  V30 5782 C 763.631 -1.78725 -4.95769 0
M  V30 5783 C 762.364 -1.45727 -4.44207 0
M  V30 5784 N 761.765 -2.13994 -3.43613 0
M  V30 5785 N 761.799 -0.374977 -5.05812 0
M  V30 5786 C 762.401 0.345585 -6.05615 0
M  V30 5787 N 763.578 0.0787651 -6.56253 0
M  V30 5788 C 764.153 -1.00499 -5.96189 0
M  V30 5789 H 766.449 -0.0804622 -7.31556 0
M  V30 5790 H 767.632 -2.53396 -6.02698 0
M  V30 5791 H 769.115 -2.93881 -7.85526 0
M  V30 5792 H 767.421 -2.52078 -9.87225 0
M  V30 5793 H 767.231 -4.75072 -9.05887 0
M  V30 5794 H 765.601 -4.05244 -8.76668 0
M  V30 5795 H 761.865 1.20098 -6.4532 0
M  V30 5796 H 766.443 -3.18977 -5.3945 0
M  V30 5797 H 760.835 -1.84983 -3.10004 0
M  V30 5798 H 762.239 -2.9465 -3.00843 0
M  V30 5799 H 768.241 0.177619 -6.34151 0
M  V30 5800 P 770.099 -1.25109 -8.70152 0
M  V30 5801 O 771.521 -1.29744 -9.22016 0
M  V30 5802 O 769.739 -2.13714 -7.55141 0
M  V30 5803 O 769.776 0.248149 -8.21425 0
M  V30 5804 C 769.616 1.22779 -9.30434 0
M  V30 5805 C 770.156 2.56293 -8.80664 0
M  V30 5806 O 769.1 3.02979 -8.09349 0
M  V30 5807 C 771.374 2.57523 -7.89775 0
M  V30 5808 O 772.112 3.7668 -7.89438 0
M  V30 5809 C 770.705 2.20997 -6.55446 0
M  V30 5810 O 771.504 2.71895 -5.48509 0
M  V30 5811 C 769.368 2.89693 -6.67988 0
M  V30 5812 H 769.4 3.88793 -6.19859 0
M  V30 5813 H 770.583 1.12046 -6.44229 0
M  V30 5814 H 772.067 1.7746 -8.19711 0
M  V30 5815 H 770.373 3.20706 -9.67112 0
M  V30 5816 H 770.183 0.901032 -10.1892 0
M  V30 5817 H 768.553 1.33049 -9.56592 0
M  V30 5818 H 771.192 3.57847 -5.23962 0
M  V30 5819 P 773.049 3.65191 -7.99657 0
M  V30 5820 O 774.471 3.89332 -8.45794 0
M  V30 5821 O 772.689 2.28472 -7.50807 0
M  V30 5822 O 772.726 4.64972 -6.77611 0
M  V30 5823 C 772.566 6.06319 -7.16352 0
M  V30 5824 C 773.106 6.91731 -6.02299 0
M  V30 5825 O 772.05 6.92449 -5.17064 0
M  V30 5826 C 774.324 6.43627 -5.25174 0
M  V30 5827 O 775.062 7.43686 -4.60469 0
M  V30 5828 C 773.655 5.40275 -4.31916 0
M  V30 5829 O 774.454 5.25279 -3.14438 0
M  V30 5830 C 772.318 6.04847 -4.05327 0
M  V30 5831 H 772.35 6.62195 -3.11261 0
M  V30 5832 H 773.533 4.42556 -4.81383 0
M  V30 5833 H 775.017 5.92458 -5.93643 0
M  V30 5834 H 773.323 7.92655 -6.402 0
M  V30 5835 H 773.133 6.26671 -8.0846 0
M  V30 5836 H 771.503 6.29101 -7.32804 0
M  V30 5837 H 774.142 5.84315 -2.47318 0
M  V30 5838 P 776 7.39546 -4.75277 0
M  V30 5839 O 777.422 7.84798 -5.01039 0
M  V30 5840 O 775.64 5.9812 -5.08098 0
M  V30 5841 O 775.677 7.57503 -3.1866 0
M  V30 5842 C 775.517 8.97357 -2.74833 0
M  V30 5843 C 776.057 9.07548 -1.32709 0
M  V30 5844 O 775.001 8.62072 -0.606159 0
M  V30 5845 C 777.275 8.25383 -0.938334 0
M  V30 5846 O 778.013 8.74577 0.146954 0
M  V30 5847 C 776.606 6.8802 -0.712559 0
M  V30 5848 O 777.405 6.1189 0.194655 0
M  V30 5849 C 775.269 7.27966 -0.139777 0
M  V30 5850 H 775.301 7.25354 0.961601 0
M  V30 5851 H 776.484 6.32557 -1.65702 0
M  V30 5852 H 777.968 8.19355 -1.79097 0
M  V30 5853 H 776.274 10.1294 -1.10029 0
M  V30 5854 H 776.084 9.64276 -3.41316 0
M  V30 5855 H 774.454 9.25417 -2.76357 0
M  V30 5856 H 777.093 6.25267 1.07847 0
M  V30 5857 P 778.95 8.791 5.69499e-12 0
M  V30 5858 O 780.372 9.31096 0.027933 0
M  V30 5859 O 778.59 7.77869 -1.04071 0
M  V30 5860 O 778.627 8.09533 1.41463 0
M  V30 5861 C 778.467 9.0349 2.53943 0
M  V30 5862 C 779.007 8.35226 3.79016 0
M  V30 5863 O 777.951 7.57992 4.15078 0
M  V30 5864 C 780.225 7.45087 3.67298 0
M  V30 5865 O 780.963 7.27796 4.85194 0
M  V30 5866 C 779.556 6.17323 3.12027 0
M  V30 5867 O 780.355 5.04231 3.47188 0
M  V30 5868 C 778.219 6.19961 3.81809 0
M  V30 5869 H 778.251 5.58218 4.73051 0
M  V30 5870 H 779.434 6.21726 2.02589 0
M  V30 5871 H 780.918 7.86112 2.9231 0
M  V30 5872 H 779.224 9.11627 4.55076 0
M  V30 5873 H 779.034 9.9573 2.34194 0
M  V30 5874 H 777.404 9.2792 2.67832 0
M  V30 5875 H 780.043 4.67702 4.28772 0
M  V30 5876 P 781.901 7.39546 4.75277 0
M  V30 5877 O 783.322 7.81861 5.05793 0
M  V30 5878 O 781.541 7.1065 3.32998 0
M  V30 5879 O 781.578 6.04542 5.56673 0
M  V30 5880 C 781.417 6.22839 7.02169 0
M  V30 5881 C 781.958 4.97725 7.70406 0
M  V30 5882 O 780.903 4.13208 7.58899 0
M  V30 5883 C 783.176 4.28231 7.11815 0
M  V30 5884 O 783.914 3.49945 8.01648 0
M  V30 5885 C 782.508 3.5063 5.96244 0
M  V30 5886 O 783.306 2.37008 5.64352 0
M  V30 5887 C 781.17 3.15122 6.56374 0
M  V30 5888 N 780.127 3.22311 5.55692 0
M  V30 5889 C 780.296 3.99655 4.46046 0
M  V30 5890 N 779.269 3.97599 3.63918 0
M  V30 5891 C 778.384 3.11159 4.25334 0
M  V30 5892 C 777.117 2.64972 3.85157 0
M  V30 5893 N 776.552 1.78482 4.74759 0
M  V30 5894 C 777.154 1.37463 5.90819 0
M  V30 5895 N 778.331 1.7733 6.31889 0
M  V30 5896 C 778.906 2.64393 5.43725 0
M  V30 5897 H 782.385 4.12931 5.06895 0
M  V30 5898 H 783.868 5.03285 6.70911 0
M  V30 5899 H 782.174 5.20001 8.76217 0
M  V30 5900 H 781.984 7.11046 7.35349 0
M  V30 5901 H 780.354 6.35815 7.26986 0
M  V30 5902 H 781.196 4.58037 4.27732 0
M  V30 5903 H 782.994 1.61619 6.13468 0
M  V30 5904 P 784.852 3.65191 7.99657 0
M  V30 5905 O 786.274 3.8425 8.48115 0
M  V30 5906 O 784.492 4.17805 6.64342 0
M  V30 5907 O 784.529 2.07613 7.95143 0
M  V30 5908 C 784.369 1.44328 9.27336 0
M  V30 5909 C 784.909 0.0220036 9.17197 0
M  V30 5910 O 783.853 -0.626867 8.61923 0
M  V30 5911 C 786.127 -0.24586 8.30336 0
M  V30 5912 O 786.865 -1.39011 8.63583 0
M  V30 5913 C 785.458 -0.273849 6.91158 0
M  V30 5914 O 786.257 -1.06348 6.02892 0
M  V30 5915 C 784.121 -0.897649 7.22545 0
M  V30 5916 H 784.153 -1.9841 7.04286 0
M  V30 5917 H 785.336 0.739928 6.497 0
M  V30 5918 H 786.82 0.60668 8.36503 0
M  V30 5919 H 785.126 -0.352479 10.1829 0
M  V30 5920 H 784.936 2.00611 10.0304 0
M  V30 5921 H 783.306 1.41843 9.55327 0
M  V30 5922 H 785.945 -1.95734 6.03555 0
M  V30 5923 P 787.802 -1.25109 8.70152 0
M  V30 5924 O 789.224 -1.35274 9.21221 0
M  V30 5925 O 787.442 -0.0769065 7.84762 0
M  V30 5926 O 787.479 -2.55232 7.81161 0
M  V30 5927 C 787.319 -3.79939 8.58154 0
M  V30 5928 C 787.859 -4.94023 7.72785 0
M  V30 5929 O 786.803 -5.18726 6.91205 0
M  V30 5930 C 789.077 -4.69597 6.85231 0
M  V30 5931 O 789.815 -5.83832 6.51337 0
M  V30 5932 C 788.408 -3.96706 5.66633 0
M  V30 5933 O 789.207 -4.15414 4.49689 0
M  V30 5934 C 787.071 -4.66153 5.59313 0
M  V30 5935 H 787.103 -5.47679 4.85214 0
M  V30 5936 H 788.286 -2.89008 5.86566 0
M  V30 5937 H 789.77 -4.0121 7.36511 0
M  V30 5938 H 788.076 -5.80182 8.37584 0
M  V30 5939 H 787.886 -3.73517 9.52265 0
M  V30 5940 H 786.256 -3.97163 8.80359 0
M  V30 5941 H 788.895 -4.90969 4.01921 0
M  V30 5942 P 790.753 -5.75688 6.64379 0
M  V30 5943 O 792.175 -6.11849 7.01846 0
M  V30 5944 O 790.393 -4.30744 6.56026 0
M  V30 5945 O 790.43 -6.37042 5.19165 0
M  V30 5946 C 790.27 -7.83578 5.16515 0
M  V30 5947 C 790.81 -8.33398 3.83019 0
M  V30 5948 O 789.754 -8.10074 3.01034 0
M  V30 5949 C 792.028 -7.65514 3.2257 0
M  V30 5950 O 792.766 -8.4329 2.32297 0
M  V30 5951 C 791.359 -6.40075 2.62207 0
M  V30 5952 O 792.158 -5.92589 1.53712 0
M  V30 5953 C 790.022 -6.9454 2.18503 0
M  V30 5954 H 790.054 -7.23063 1.12091 0
M  V30 5955 H 791.237 -5.6025 3.37201 0
M  V30 5956 H 792.721 -7.35707 4.02681 0
M  V30 5957 H 791.027 -9.40912 3.9095 0
M  V30 5958 H 790.837 -8.29056 5.99158 0
M  V30 5959 H 789.207 -8.10073 5.25882 0
M  V30 5960 H 791.846 -6.30324 0.726794 0
M  V30 5961 P 793.703 -8.4349 2.47671 0
M  V30 5962 O 795.124 -8.94263 2.59668 0
M  V30 5963 O 793.343 -7.1704 3.19006 0
M  V30 5964 O 793.38 -8.16596 0.923387 0
M  V30 5965 C 793.219 -9.38537 0.108869 0
M  V30 5966 C 793.76 -9.08175 -1.28353 0
M  V30 5967 O 792.705 -8.44131 -1.84692 0
M  V30 5968 C 794.978 -8.18386 -1.42505 0
M  V30 5969 O 795.716 -8.3501 -2.60497 0
M  V30 5970 C 794.31 -6.80225 -1.25468 0
M  V30 5971 O 795.108 -5.81716 -1.90454 0
M  V30 5972 C 792.972 -7.02416 -1.9168 0
M  V30 5973 N 791.929 -6.31033 -1.20314 0
M  V30 5974 C 792.098 -5.98817 0.0994088 0
M  V30 5975 N 791.071 -5.35403 0.621694 0
M  V30 5976 C 790.186 -5.25212 -0.43376 0
M  V30 5977 C 788.919 -4.64602 -0.519722 0
M  V30 5978 N 788.32 -4.01457 0.519136 0
M  V30 5979 N 788.354 -4.7568 -1.76013 0
M  V30 5980 C 788.956 -5.3653 -2.83017 0
M  V30 5981 N 790.133 -5.93676 -2.79782 0
M  V30 5982 C 790.708 -5.84061 -1.56249 0
M  V30 5983 H 793.004 -6.68789 -2.9658 0
M  V30 5984 H 794.187 -6.53498 -0.198729 0
M  V30 5985 H 795.67 -8.36622 -0.589963 0
M  V30 5986 H 793.976 -10.0273 -1.8081 0
M  V30 5987 H 793.786 -10.2138 0.558219 0
M  V30 5988 H 792.156 -9.6579 0.0444202 0
M  V30 5989 H 788.42 -5.37113 -3.77321 0
M  V30 5990 H 792.998 -6.23209 0.660562 0
M  V30 5991 H 787.39 -3.58834 0.394862 0
M  V30 5992 H 788.794 -3.96059 1.43048 0
M  V30 5993 H 794.796 -5.69466 -2.79593 0
M  V30 5994 P 796.654 -8.4349 -2.47671 0
M  V30 5995 O 798.076 -8.92785 -2.65057 0
M  V30 5996 O 796.294 -7.7568 -1.19296 0
M  V30 5997 O 796.331 -7.36886 -3.63805 0
M  V30 5998 C 796.171 -7.95349 -4.982 0
M  V30 5999 C 796.711 -6.94537 -5.98908 0
M  V30 6000 O 795.656 -6.10347 -6.11815 0
M  V30 6001 C 797.929 -6.11426 -5.62335 0
M  V30 6002 O 798.667 -5.6162 -6.70584 0
M  V30 6003 C 797.261 -5.04409 -4.73308 0
M  V30 6004 O 798.059 -3.85929 -4.75106 0
M  V30 6005 C 795.923 -4.8728 -5.41006 0
M  V30 6006 N 794.88 -4.65812 -4.42377 0
M  V30 6007 C 794.942 -5.27109 -3.24335 0
M  V30 6008 N 793.897 -4.94293 -2.47735 0
M  V30 6009 C 793.163 -4.1271 -3.23359 0
M  V30 6010 C 791.857 -3.56384 -2.99934 0
M  V30 6011 O 791.124 -3.69331 -2.00616 0
M  V30 6012 N 791.427 -2.80206 -4.03316 0
M  V30 6013 C 792.176 -2.58614 -5.2172 0
M  V30 6014 N 791.579 -1.75154 -6.13278 0
M  V30 6015 N 793.329 -3.13689 -5.47619 0
M  V30 6016 C 793.786 -3.90921 -4.46436 0
M  V30 6017 H 795.955 -4.02333 -6.11157 0
M  V30 6018 H 797.138 -5.39383 -3.69487 0
M  V30 6019 H 798.623 -6.71414 -5.02615 0
M  V30 6020 H 796.928 -7.4649 -6.93477 0
M  V30 6021 H 796.738 -8.89416 -5.05237 0
M  V30 6022 H 795.107 -8.14876 -5.18409 0
M  V30 6023 H 790.531 -2.36355 -3.95916 0
M  V30 6024 H 795.738 -5.95212 -2.93859 0
M  V30 6025 H 790.668 -1.32473 -5.91856 0
M  V30 6026 H 792.044 -1.5588 -7.03026 0
M  V30 6027 H 797.748 -3.27906 -5.43085 0
M  V30 6028 P 799.604 -5.75688 -6.64379 0
M  V30 6029 O 801.005 -6.14823 -7.06682 0
M  V30 6030 O 799.226 -5.93957 -5.20728 0
M  V30 6031 O 799.281 -4.23169 -7.04357 0
M  V30 6032 C 799.121 -3.99743 -8.4911 0
M  V30 6033 C 799.661 -2.60487 -8.79329 0
M  V30 6034 O 798.605 -1.82663 -8.44573 0
M  V30 6035 C 800.878 -2.10343 -8.03628 0
M  V30 6036 O 801.617 -1.09919 -8.67766 0
M  V30 6037 C 800.211 -1.68446 -6.70876 0
M  V30 6038 O 801.009 -0.678026 -6.08333 0
M  V30 6039 C 798.873 -1.17436 -7.18567 0
M  V30 6040 N 797.83 -1.52699 -6.23988 0
M  V30 6041 C 796.795 -0.643793 -6.05085 0
M  V30 6042 O 796.834 0.459118 -6.64315 0
M  V30 6043 N 795.783 -0.976931 -5.22038 0
M  V30 6044 C 795.831 -2.14429 -4.56662 0
M  V30 6045 C 796.927 -3.04203 -4.71481 0
M  V30 6046 C 797.893 -2.69669 -5.56838 0
M  V30 6047 H 798.905 -0.0804622 -7.31556 0
M  V30 6048 H 800.088 -2.53396 -6.02698 0
M  V30 6049 H 801.572 -2.9313 -7.85914 0
M  V30 6050 H 799.878 -2.52078 -9.87225 0
M  V30 6051 H 799.687 -4.75072 -9.05887 0
M  V30 6052 H 798.057 -4.05202 -8.76577 0
M  V30 6053 H 796.975 -3.97309 -4.15519 0
M  V30 6054 H 798.739 -3.36869 -5.72318 0
M  V30 6055 H 800.793 0.167718 -6.44882 0
M  V30 6056 P 802.555 -1.25109 -8.70152 0
M  V30 6057 O 803.977 -1.29744 -9.22016 0
M  V30 6058 O 802.195 -2.13714 -7.55141 0
M  V30 6059 O 802.232 0.248149 -8.21425 0
M  V30 6060 C 802.072 1.22779 -9.30434 0
M  V30 6061 C 802.612 2.56293 -8.80664 0
M  V30 6062 O 801.556 3.02979 -8.09349 0
M  V30 6063 C 803.83 2.57523 -7.89775 0
M  V30 6064 O 804.568 3.7668 -7.89438 0
M  V30 6065 C 803.161 2.20997 -6.55446 0
M  V30 6066 O 803.96 2.71895 -5.48509 0
M  V30 6067 C 801.824 2.89693 -6.67988 0
M  V30 6068 H 801.856 3.88793 -6.19859 0
M  V30 6069 H 803.039 1.12046 -6.44229 0
M  V30 6070 H 804.523 1.7746 -8.19711 0
M  V30 6071 H 802.829 3.20706 -9.67112 0
M  V30 6072 H 802.639 0.901032 -10.1892 0
M  V30 6073 H 801.009 1.33049 -9.56592 0
M  V30 6074 H 803.648 3.57847 -5.23962 0
M  V30 6075 P 805.506 3.65191 -7.99657 0
M  V30 6076 O 806.928 3.89332 -8.45794 0
M  V30 6077 O 805.146 2.28472 -7.50807 0
M  V30 6078 O 805.183 4.64972 -6.77611 0
M  V30 6079 C 805.023 6.06319 -7.16352 0
M  V30 6080 C 805.563 6.91731 -6.02299 0
M  V30 6081 O 804.507 6.92449 -5.17064 0
M  V30 6082 C 806.781 6.43627 -5.25174 0
M  V30 6083 O 807.519 7.43686 -4.60469 0
M  V30 6084 C 806.112 5.40275 -4.31916 0
M  V30 6085 O 806.911 5.25279 -3.14438 0
M  V30 6086 C 804.775 6.04847 -4.05327 0
M  V30 6087 H 804.807 6.62195 -3.11261 0
M  V30 6088 H 805.99 4.42556 -4.81383 0
M  V30 6089 H 807.474 5.92458 -5.93643 0
M  V30 6090 H 805.78 7.92655 -6.402 0
M  V30 6091 H 805.59 6.26671 -8.0846 0
M  V30 6092 H 803.96 6.29101 -7.32804 0
M  V30 6093 H 806.599 5.84315 -2.47318 0
M  V30 6094 P 808.456 7.39546 -4.75277 0
M  V30 6095 O 809.878 7.84798 -5.01039 0
M  V30 6096 O 808.096 5.9812 -5.08098 0
M  V30 6097 O 808.133 7.57503 -3.1866 0
M  V30 6098 C 807.973 8.97357 -2.74833 0
M  V30 6099 C 808.513 9.07548 -1.32709 0
M  V30 6100 O 807.457 8.62072 -0.606159 0
M  V30 6101 C 809.731 8.25383 -0.938334 0
M  V30 6102 O 810.469 8.74577 0.146954 0
M  V30 6103 C 809.062 6.8802 -0.712559 0
M  V30 6104 O 809.861 6.1189 0.194655 0
M  V30 6105 C 807.725 7.27966 -0.139777 0
M  V30 6106 H 807.757 7.25354 0.961601 0
M  V30 6107 H 808.94 6.32557 -1.65702 0
M  V30 6108 H 810.424 8.19355 -1.79097 0
M  V30 6109 H 808.73 10.1294 -1.10029 0
M  V30 6110 H 808.54 9.64276 -3.41316 0
M  V30 6111 H 806.91 9.25417 -2.76357 0
M  V30 6112 H 809.549 6.25267 1.07847 0
M  V30 6113 P 811.407 8.791 6.00516e-12 0
M  V30 6114 O 812.829 9.31096 0.027933 0
M  V30 6115 O 811.047 7.77869 -1.04071 0
M  V30 6116 O 811.084 8.09533 1.41463 0
M  V30 6117 C 810.924 9.0349 2.53943 0
M  V30 6118 C 811.464 8.35226 3.79016 0
M  V30 6119 O 810.408 7.57992 4.15078 0
M  V30 6120 C 812.682 7.45087 3.67298 0
M  V30 6121 O 813.42 7.27796 4.85194 0
M  V30 6122 C 812.013 6.17323 3.12027 0
M  V30 6123 O 812.812 5.04231 3.47188 0
M  V30 6124 C 810.676 6.19961 3.81809 0
M  V30 6125 H 810.708 5.58218 4.73051 0
M  V30 6126 H 811.891 6.21726 2.02589 0
M  V30 6127 H 813.375 7.86112 2.9231 0
M  V30 6128 H 811.681 9.11627 4.55076 0
M  V30 6129 H 811.491 9.9573 2.34194 0
M  V30 6130 H 809.861 9.2792 2.67832 0
M  V30 6131 H 812.5 4.67702 4.28772 0
M  V30 6132 P 814.357 7.39546 4.75277 0
M  V30 6133 O 815.779 7.81777 5.05738 0
M  V30 6134 O 813.997 7.1065 3.32998 0
M  V30 6135 O 814.034 6.04542 5.56673 0
M  V30 6136 C 813.874 6.22772 7.02095 0
M  V30 6137 C 814.414 4.97725 7.70406 0
M  V30 6138 O 813.358 4.13256 7.58987 0
M  V30 6139 C 815.632 4.28231 7.11815 0
M  V30 6140 O 816.37 3.49945 8.01648 0
M  V30 6141 C 814.963 3.5063 5.96244 0
M  V30 6142 O 815.762 2.36482 5.64681 0
M  V30 6143 C 813.626 3.15122 6.56374 0
M  V30 6144 H 813.658 2.13853 6.99751 0
M  V30 6145 H 814.841 4.13501 5.06559 0
M  V30 6146 H 816.325 5.03285 6.70911 0
M  V30 6147 H 814.631 5.20877 8.75697 0
M  V30 6148 H 814.441 7.11046 7.35349 0
M  V30 6149 H 812.811 6.35815 7.26986 0
M  V30 6150 H 815.45 1.61644 6.13565 0
M  V30 6151 P 817.308 3.65191 7.99657 0
M  V30 6152 O 818.73 3.84333 8.48297 0
M  V30 6153 O 816.948 4.17805 6.64342 0
M  V30 6154 O 816.985 2.07613 7.95143 0
M  V30 6155 C 816.825 1.44328 9.27336 0
M  V30 6156 C 817.365 0.0220012 9.17097 0
M  V30 6157 O 816.31 -0.626867 8.61923 0
M  V30 6158 C 818.583 -0.24586 8.30336 0
M  V30 6159 O 819.321 -1.39011 8.63583 0
M  V30 6160 C 817.915 -0.273849 6.91158 0
M  V30 6161 O 818.713 -1.06331 6.02794 0
M  V30 6162 C 816.577 -0.897649 7.22545 0
M  V30 6163 N 815.534 -0.292839 6.41732 0
M  V30 6164 C 815.596 1.00068 6.10757 0
M  V30 6165 N 814.551 1.36468 5.35794 0
M  V30 6166 C 813.817 0.258894 5.2366 0
M  V30 6167 C 812.511 0.0670682 4.65752 0
M  V30 6168 O 811.778 0.902443 4.10497 0
M  V30 6169 N 812.081 -1.2131 4.75881 0
M  V30 6170 C 812.83 -2.24934 5.37101 0
M  V30 6171 N 812.233 -3.48783 5.33984 0
M  V30 6172 N 813.983 -2.0844 5.95684 0
M  V30 6173 C 814.44 -0.81395 5.87791 0
M  V30 6174 H 816.609 -1.9841 7.04286 0
M  V30 6175 H 817.792 0.739815 6.49601 0
M  V30 6176 H 819.277 0.598315 8.36563 0
M  V30 6177 H 817.582 -0.352479 10.1829 0
M  V30 6178 H 817.392 2.00611 10.0304 0
M  V30 6179 H 815.761 1.41843 9.55327 0
M  V30 6180 H 811.185 -1.44434 4.37895 0
M  V30 6181 H 816.392 1.67697 6.42268 0
M  V30 6182 H 811.322 -3.60543 4.87699 0
M  V30 6183 H 812.698 -4.29232 5.7819 0
M  V30 6184 H 818.402 -1.95704 6.0346 0
M  V30 6185 P 820.258 -1.25109 8.70152 0
M  V30 6186 O 821.679 -1.35288 9.2132 0
M  V30 6187 O 819.898 -0.0769065 7.84762 0
M  V30 6188 O 819.935 -2.55232 7.81161 0
M  V30 6189 C 819.774 -3.79979 8.58246 0
M  V30 6190 C 820.315 -4.94023 7.72785 0
M  V30 6191 O 819.26 -5.18666 6.91125 0
M  V30 6192 C 821.533 -4.69597 6.85231 0
M  V30 6193 O 822.271 -5.83832 6.51337 0
M  V30 6194 C 820.865 -3.96706 5.66633 0
M  V30 6195 O 821.663 -4.14896 4.5003 0
M  V30 6196 C 819.527 -4.66153 5.59313 0
M  V30 6197 N 818.484 -3.71582 5.24027 0
M  V30 6198 C 818.653 -2.39715 5.48833 0
M  V30 6199 N 817.626 -1.65863 5.12845 0
M  V30 6200 C 816.741 -2.57637 4.5973 0
M  V30 6201 C 815.474 -2.40278 4.01027 0
M  V30 6202 N 814.875 -1.19549 3.86744 0
M  V30 6203 N 814.909 -3.57711 3.59575 0
M  V30 6204 C 815.511 -4.80324 3.70476 0
M  V30 6205 N 816.688 -5.01121 4.23801 0
M  V30 6206 C 817.263 -3.84757 4.66372 0
M  V30 6207 H 819.559 -5.47604 4.85148 0
M  V30 6208 H 820.742 -2.8955 5.86187 0
M  V30 6209 H 822.225 -4.0121 7.36511 0
M  V30 6210 H 820.531 -5.81019 8.37003 0
M  V30 6211 H 820.341 -3.73517 9.52265 0
M  V30 6212 H 818.711 -3.97163 8.80359 0
M  V30 6213 H 814.975 -5.66348 3.3183 0
M  V30 6214 H 819.553 -1.98804 5.94332 0
M  V30 6215 H 813.945 -1.13147 3.4281 0
M  V30 6216 H 815.349 -0.344074 4.19692 0
M  V30 6217 H 821.351 -4.90891 4.01857 0
M  V30 6218 P 823.209 -5.75688 6.64379 0
M  V30 6219 O 824.63 -6.11915 7.01921 0
M  V30 6220 O 822.849 -4.30744 6.56026 0
M  V30 6221 O 822.886 -6.37042 5.19165 0
M  V30 6222 C 822.725 -7.83662 5.1657 0
M  V30 6223 C 823.266 -8.33398 3.83019 0
M  V30 6224 O 822.211 -8.0998 3.00999 0
M  V30 6225 C 824.484 -7.65514 3.2257 0
M  V30 6226 O 825.222 -8.4329 2.32297 0
M  V30 6227 C 823.816 -6.40075 2.62207 0
M  V30 6228 O 824.614 -5.92338 1.5428 0
M  V30 6229 C 822.478 -6.9454 2.18503 0
M  V30 6230 N 821.435 -5.95905 2.39948 0
M  V30 6231 C 821.604 -4.98383 3.32108 0
M  V30 6232 N 820.577 -4.16798 3.41761 0
M  V30 6233 C 819.692 -4.65287 2.47461 0
M  V30 6234 C 818.425 -4.18946 2.07461 0
M  V30 6235 N 817.86 -4.95327 1.09101 0
M  V30 6236 C 818.462 -6.04369 0.519812 0
M  V30 6237 N 819.639 -6.50694 0.855982 0
M  V30 6238 C 820.214 -5.75818 1.84322 0
M  V30 6239 H 823.693 -5.60502 3.36589 0
M  V30 6240 H 825.176 -7.35707 4.02681 0
M  V30 6241 H 823.482 -9.41302 3.90009 0
M  V30 6242 H 823.292 -8.29056 5.99158 0
M  V30 6243 H 821.662 -8.10073 5.25882 0
M  V30 6244 H 822.504 -4.88564 3.92502 0
M  V30 6245 H 824.302 -6.30224 0.72668 0
M  V30 6246 P 826.16 -8.4349 2.47671 0
M  V30 6247 O 827.581 -8.94263 2.59668 0
M  V30 6248 O 825.8 -7.1704 3.19006 0
M  V30 6249 O 825.837 -8.16596 0.923387 0
M  V30 6250 C 825.676 -9.38537 0.108869 0
M  V30 6251 C 826.217 -9.08175 -1.28353 0
M  V30 6252 O 825.162 -8.44131 -1.84692 0
M  V30 6253 C 827.435 -8.18386 -1.42505 0
M  V30 6254 O 828.173 -8.3501 -2.60497 0
M  V30 6255 C 826.767 -6.80225 -1.25468 0
M  V30 6256 O 827.565 -5.81716 -1.90454 0
M  V30 6257 C 825.429 -7.02416 -1.9168 0
M  V30 6258 N 824.386 -6.31033 -1.20314 0
M  V30 6259 C 824.555 -5.98817 0.0994088 0
M  V30 6260 N 823.528 -5.35403 0.621694 0
M  V30 6261 C 822.643 -5.25212 -0.43376 0
M  V30 6262 C 821.376 -4.64602 -0.519722 0
M  V30 6263 N 820.811 -4.7568 -1.76013 0
M  V30 6264 C 821.413 -5.3653 -2.83017 0
M  V30 6265 N 822.59 -5.93676 -2.79782 0
M  V30 6266 C 823.165 -5.84061 -1.56249 0
M  V30 6267 H 826.644 -6.53498 -0.198729 0
M  V30 6268 H 828.127 -8.36622 -0.589963 0
M  V30 6269 H 826.433 -10.0273 -1.8081 0
M  V30 6270 H 826.243 -10.2138 0.558219 0
M  V30 6271 H 824.613 -9.6579 0.0444202 0
M  V30 6272 H 825.455 -6.23209 0.660562 0
M  V30 6273 H 827.253 -5.69466 -2.79593 0
M  V30 6274 P 829.11 -8.4349 -2.47671 0
M  V30 6275 O 830.532 -8.92593 -2.65 0
M  V30 6276 O 828.75 -7.7568 -1.19296 0
M  V30 6277 O 828.787 -7.36886 -3.63805 0
M  V30 6278 C 828.627 -7.95349 -4.982 0
M  V30 6279 C 829.167 -6.94612 -5.98974 0
M  V30 6280 O 828.111 -6.10347 -6.11815 0
M  V30 6281 C 830.385 -6.11426 -5.62335 0
M  V30 6282 O 831.123 -5.6162 -6.70584 0
M  V30 6283 C 829.716 -5.04409 -4.73308 0
M  V30 6284 O 830.515 -3.85992 -4.75183 0
M  V30 6285 C 828.379 -4.8728 -5.41006 0
M  V30 6286 H 828.411 -4.02333 -6.11157 0
M  V30 6287 H 829.594 -5.39466 -3.69543 0
M  V30 6288 H 831.078 -6.71916 -5.01943 0
M  V30 6289 H 829.384 -7.4649 -6.93477 0
M  V30 6290 H 829.194 -8.89416 -5.05237 0
M  V30 6291 H 827.564 -8.14876 -5.18409 0
M  V30 6292 H 830.203 -3.27957 -5.4317 0
M  V30 6293 P 832.061 -5.75688 -6.64379 0
M  V30 6294 O 833.482 -6.07692 -7.0558 0
M  V30 6295 O 831.701 -5.88047 -5.19722 0
M  V30 6296 O 831.738 -4.2322 -7.04443 0
M  V30 6297 C 831.577 -3.99785 -8.49201 0
M  V30 6298 C 832.118 -2.60516 -8.79425 0
M  V30 6299 O 831.063 -1.82663 -8.44573 0
M  V30 6300 C 833.336 -2.10343 -8.03628 0
M  V30 6301 O 834.074 -1.09919 -8.67766 0
M  V30 6302 C 832.668 -1.68446 -6.70876 0
M  V30 6303 O 833.466 -0.684109 -6.08265 0
M  V30 6304 C 831.33 -1.17436 -7.18567 0
M  V30 6305 N 830.287 -1.52699 -6.23988 0
M  V30 6306 C 830.456 -2.578 -5.40574 0
M  V30 6307 N 829.429 -2.78966 -4.61193 0
M  V30 6308 C 828.544 -1.78725 -4.95769 0
M  V30 6309 C 827.277 -1.45727 -4.44207 0
M  V30 6310 N 826.712 -0.374977 -5.05812 0
M  V30 6311 C 827.314 0.345585 -6.05615 0
M  V30 6312 N 828.491 0.0787651 -6.56253 0
M  V30 6313 C 829.066 -1.00499 -5.96189 0
M  V30 6314 H 832.545 -2.53396 -6.02698 0
M  V30 6315 H 834.028 -2.93881 -7.85526 0
M  V30 6316 H 832.334 -2.52078 -9.87225 0
M  V30 6317 H 832.144 -4.75072 -9.05887 0
M  V30 6318 H 830.514 -4.05244 -8.76668 0
M  V30 6319 H 831.356 -3.18977 -5.3945 0
M  V30 6320 H 833.154 0.177619 -6.34151 0
M  V30 6321 P 835.011 -1.25109 -8.70152 0
M  V30 6322 O 836.433 -1.29744 -9.22016 0
M  V30 6323 O 834.651 -2.13714 -7.55141 0
M  V30 6324 O 834.688 0.248149 -8.21425 0
M  V30 6325 C 834.528 1.22779 -9.30434 0
M  V30 6326 C 835.068 2.56293 -8.80664 0
M  V30 6327 O 834.012 3.02979 -8.09349 0
M  V30 6328 C 836.286 2.57523 -7.89775 0
M  V30 6329 O 837.024 3.7668 -7.89438 0
M  V30 6330 C 835.617 2.20997 -6.55446 0
M  V30 6331 O 836.416 2.71895 -5.48509 0
M  V30 6332 C 834.28 2.89693 -6.67988 0
M  V30 6333 H 834.312 3.88793 -6.19859 0
M  V30 6334 H 835.495 1.12046 -6.44229 0
M  V30 6335 H 836.979 1.7746 -8.19711 0
M  V30 6336 H 835.285 3.20706 -9.67112 0
M  V30 6337 H 835.095 0.901032 -10.1892 0
M  V30 6338 H 833.465 1.33049 -9.56592 0
M  V30 6339 H 836.104 3.57847 -5.23962 0
M  V30 6340 P 837.962 3.65191 -7.99657 0
M  V30 6341 O 839.384 3.89332 -8.45794 0
M  V30 6342 O 837.602 2.28472 -7.50807 0
M  V30 6343 O 837.639 4.64972 -6.77611 0
M  V30 6344 C 837.479 6.06319 -7.16352 0
M  V30 6345 C 838.019 6.91731 -6.02299 0
M  V30 6346 O 836.963 6.92449 -5.17064 0
M  V30 6347 C 839.237 6.43627 -5.25174 0
M  V30 6348 O 839.975 7.43686 -4.60469 0
M  V30 6349 C 838.568 5.40275 -4.31916 0
M  V30 6350 O 839.367 5.25279 -3.14438 0
M  V30 6351 C 837.231 6.04847 -4.05327 0
M  V30 6352 H 837.263 6.62195 -3.11261 0
M  V30 6353 H 838.446 4.42556 -4.81383 0
M  V30 6354 H 839.93 5.92458 -5.93643 0
M  V30 6355 H 838.236 7.92655 -6.402 0
M  V30 6356 H 838.046 6.26671 -8.0846 0
M  V30 6357 H 836.416 6.29101 -7.32804 0
M  V30 6358 H 839.055 5.84315 -2.47318 0
M  V30 6359 P 840.912 7.39546 -4.75277 0
M  V30 6360 O 842.334 7.84798 -5.01039 0
M  V30 6361 O 840.552 5.9812 -5.08098 0
M  V30 6362 O 840.589 7.57503 -3.1866 0
M  V30 6363 C 840.429 8.97357 -2.74833 0
M  V30 6364 C 840.969 9.07548 -1.32709 0
M  V30 6365 O 839.913 8.62072 -0.606159 0
M  V30 6366 C 842.187 8.25383 -0.938334 0
M  V30 6367 O 842.925 8.74577 0.146954 0
M  V30 6368 C 841.518 6.8802 -0.712559 0
M  V30 6369 O 842.317 6.1189 0.194655 0
M  V30 6370 C 840.181 7.27966 -0.139777 0
M  V30 6371 H 840.213 7.25354 0.961601 0
M  V30 6372 H 841.396 6.32557 -1.65702 0
M  V30 6373 H 842.88 8.19355 -1.79097 0
M  V30 6374 H 841.186 10.1294 -1.10029 0
M  V30 6375 H 840.996 9.64276 -3.41316 0
M  V30 6376 H 839.366 9.25417 -2.76357 0
M  V30 6377 H 842.005 6.25267 1.07847 0
M  V30 6378 P 843.863 8.791 6.31533e-12 0
M  V30 6379 O 845.285 9.31096 0.027933 0
M  V30 6380 O 843.503 7.77869 -1.04071 0
M  V30 6381 O 843.54 8.09533 1.41463 0
M  V30 6382 C 843.38 9.0349 2.53943 0
M  V30 6383 C 843.92 8.35226 3.79016 0
M  V30 6384 O 842.864 7.57992 4.15078 0
M  V30 6385 C 845.138 7.45087 3.67298 0
M  V30 6386 O 845.876 7.27796 4.85194 0
M  V30 6387 C 844.469 6.17323 3.12027 0
M  V30 6388 O 845.268 5.04231 3.47188 0
M  V30 6389 C 843.132 6.19961 3.81809 0
M  V30 6390 H 843.164 5.58218 4.73051 0
M  V30 6391 H 844.347 6.21726 2.02589 0
M  V30 6392 H 845.831 7.86112 2.9231 0
M  V30 6393 H 844.137 9.11627 4.55076 0
M  V30 6394 H 843.947 9.9573 2.34194 0
M  V30 6395 H 842.317 9.2792 2.67832 0
M  V30 6396 H 844.956 4.67702 4.28772 0
M  V30 6397 P 846.814 7.39546 4.75277 0
M  V30 6398 O 848.236 7.81777 5.05738 0
M  V30 6399 O 846.454 7.1065 3.32998 0
M  V30 6400 O 846.491 6.04542 5.56673 0
M  V30 6401 C 846.331 6.22772 7.02095 0
M  V30 6402 C 846.871 4.97725 7.70406 0
M  V30 6403 O 845.815 4.13256 7.58987 0
M  V30 6404 C 848.089 4.28231 7.11815 0
M  V30 6405 O 848.827 3.49945 8.01648 0
M  V30 6406 C 847.42 3.5063 5.96244 0
M  V30 6407 O 848.219 2.36482 5.64681 0
M  V30 6408 C 846.083 3.15122 6.56374 0
M  V30 6409 H 846.115 2.13853 6.99751 0
M  V30 6410 H 847.298 4.13501 5.06559 0
M  V30 6411 H 848.782 5.03285 6.70911 0
M  V30 6412 H 847.088 5.20877 8.75697 0
M  V30 6413 H 846.898 7.11046 7.35349 0
M  V30 6414 H 845.268 6.35815 7.26986 0
M  V30 6415 H 847.907 1.61644 6.13565 0
M  V30 6416 P 849.764 3.65191 7.99657 0
M  V30 6417 O 851.186 3.8425 8.48115 0
M  V30 6418 O 849.404 4.17805 6.64342 0
M  V30 6419 O 849.441 2.07613 7.95143 0
M  V30 6420 C 849.281 1.44328 9.27336 0
M  V30 6421 C 849.821 0.0220036 9.17197 0
M  V30 6422 O 848.765 -0.626867 8.61923 0
M  V30 6423 C 851.039 -0.24586 8.30336 0
M  V30 6424 O 851.777 -1.39011 8.63583 0
M  V30 6425 C 850.37 -0.273849 6.91158 0
M  V30 6426 O 851.169 -1.06348 6.02892 0
M  V30 6427 C 849.033 -0.897649 7.22545 0
M  V30 6428 H 849.065 -1.9841 7.04286 0
M  V30 6429 H 850.248 0.739928 6.497 0
M  V30 6430 H 851.732 0.60668 8.36503 0
M  V30 6431 H 850.038 -0.352479 10.1829 0
M  V30 6432 H 849.848 2.00611 10.0304 0
M  V30 6433 H 848.218 1.41843 9.55327 0
M  V30 6434 H 850.857 -1.95734 6.03555 0
M  V30 6435 P 852.715 -1.25109 8.70152 0
M  V30 6436 O 854.137 -1.35274 9.21221 0
M  V30 6437 O 852.355 -0.0769065 7.84762 0
M  V30 6438 O 852.392 -2.55232 7.81161 0
M  V30 6439 C 852.232 -3.79939 8.58154 0
M  V30 6440 C 852.772 -4.94023 7.72785 0
M  V30 6441 O 851.716 -5.18726 6.91205 0
M  V30 6442 C 853.99 -4.69597 6.85231 0
M  V30 6443 O 854.728 -5.83832 6.51337 0
M  V30 6444 C 853.321 -3.96706 5.66633 0
M  V30 6445 O 854.12 -4.15414 4.49689 0
M  V30 6446 C 851.984 -4.66153 5.59313 0
M  V30 6447 H 852.016 -5.47679 4.85214 0
M  V30 6448 H 853.199 -2.89008 5.86566 0
M  V30 6449 H 854.683 -4.0121 7.36511 0
M  V30 6450 H 852.989 -5.80182 8.37584 0
M  V30 6451 H 852.799 -3.73517 9.52265 0
M  V30 6452 H 851.169 -3.97163 8.80359 0
M  V30 6453 H 853.808 -4.90969 4.01921 0
M  V30 6454 P 855.665 -5.75688 6.64379 0
M  V30 6455 O 857.087 -6.11849 7.01846 0
M  V30 6456 O 855.305 -4.30744 6.56026 0
M  V30 6457 O 855.342 -6.37042 5.19165 0
M  V30 6458 C 855.182 -7.83578 5.16515 0
M  V30 6459 C 855.722 -8.33398 3.83019 0
M  V30 6460 O 854.666 -8.10074 3.01034 0
M  V30 6461 C 856.94 -7.65514 3.2257 0
M  V30 6462 O 857.678 -8.4329 2.32297 0
M  V30 6463 C 856.271 -6.40075 2.62207 0
M  V30 6464 O 857.07 -5.92589 1.53712 0
M  V30 6465 C 854.934 -6.9454 2.18503 0
M  V30 6466 H 854.966 -7.23063 1.12091 0
M  V30 6467 H 856.149 -5.6025 3.37201 0
M  V30 6468 H 857.633 -7.35707 4.02681 0
M  V30 6469 H 855.939 -9.40912 3.9095 0
M  V30 6470 H 855.749 -8.29056 5.99158 0
M  V30 6471 H 854.119 -8.10073 5.25882 0
M  V30 6472 H 856.758 -6.30324 0.726794 0
M  V30 6473 P 858.616 -8.4349 2.47671 0
M  V30 6474 O 860.038 -8.94167 2.5964 0
M  V30 6475 O 858.256 -7.1704 3.19006 0
M  V30 6476 O 858.293 -8.16596 0.923387 0
M  V30 6477 C 858.133 -9.38437 0.108857 0
M  V30 6478 C 858.673 -9.08175 -1.28353 0
M  V30 6479 O 857.617 -8.44229 -1.84713 0
M  V30 6480 C 859.891 -8.18386 -1.42505 0
M  V30 6481 O 860.629 -8.3501 -2.60497 0
M  V30 6482 C 859.222 -6.80225 -1.25468 0
M  V30 6483 O 860.021 -5.81621 -1.91066 0
M  V30 6484 C 857.885 -7.02416 -1.9168 0
M  V30 6485 H 857.917 -6.6888 -2.96621 0
M  V30 6486 H 859.1 -6.53617 -0.192223 0
M  V30 6487 H 860.584 -8.36622 -0.589963 0
M  V30 6488 H 858.89 -10.0291 -1.79807 0
M  V30 6489 H 858.7 -10.2138 0.558219 0
M  V30 6490 H 857.07 -9.6579 0.0444202 0
M  V30 6491 H 859.709 -5.69556 -2.79637 0
M  V30 6492 P 861.566 -8.4349 -2.47671 0
M  V30 6493 O 862.988 -8.92593 -2.65 0
M  V30 6494 O 861.206 -7.7568 -1.19296 0
M  V30 6495 O 861.243 -7.36886 -3.63805 0
M  V30 6496 C 861.083 -7.95349 -4.982 0
M  V30 6497 C 861.623 -6.94612 -5.98974 0
M  V30 6498 O 860.567 -6.10347 -6.11815 0
M  V30 6499 C 862.841 -6.11426 -5.62335 0
M  V30 6500 O 863.579 -5.6162 -6.70584 0
M  V30 6501 C 862.172 -5.04409 -4.73308 0
M  V30 6502 O 862.971 -3.85992 -4.75183 0
M  V30 6503 C 860.835 -4.8728 -5.41006 0
M  V30 6504 H 860.867 -4.02333 -6.11157 0
M  V30 6505 H 862.05 -5.39466 -3.69543 0
M  V30 6506 H 863.534 -6.71916 -5.01943 0
M  V30 6507 H 861.84 -7.4649 -6.93477 0
M  V30 6508 H 861.65 -8.89416 -5.05237 0
M  V30 6509 H 860.02 -8.14876 -5.18409 0
M  V30 6510 H 862.659 -3.27957 -5.4317 0
M  V30 6511 P 864.517 -5.75688 -6.64379 0
M  V30 6512 O 865.939 -6.07627 -7.05504 0
M  V30 6513 O 864.157 -5.88047 -5.19722 0
M  V30 6514 O 864.194 -4.2322 -7.04443 0
M  V30 6515 C 864.034 -3.99743 -8.4911 0
M  V30 6516 C 864.574 -2.60516 -8.79425 0
M  V30 6517 O 863.518 -1.82684 -8.4467 0
M  V30 6518 C 865.792 -2.10343 -8.03628 0
M  V30 6519 O 866.53 -1.09919 -8.67766 0
M  V30 6520 C 865.123 -1.68446 -6.70876 0
M  V30 6521 O 865.922 -0.678137 -6.08433 0
M  V30 6522 C 863.786 -1.17436 -7.18567 0
M  V30 6523 H 863.818 -0.0804732 -7.31656 0
M  V30 6524 H 865.001 -2.54037 -6.02537 0
M  V30 6525 H 866.485 -2.93881 -7.85526 0
M  V30 6526 H 864.791 -2.53065 -9.86973 0
M  V30 6527 H 864.601 -4.75072 -9.05887 0
M  V30 6528 H 862.971 -4.05244 -8.76668 0
M  V30 6529 H 865.61 0.177647 -6.34251 0
M  V30 6530 P 867.468 -1.25109 -8.70152 0
M  V30 6531 O 868.89 -1.29744 -9.22016 0
M  V30 6532 O 867.108 -2.13714 -7.55141 0
M  V30 6533 O 867.145 0.248149 -8.21425 0
M  V30 6534 C 866.985 1.22779 -9.30434 0
M  V30 6535 C 867.525 2.56293 -8.80664 0
M  V30 6536 O 866.469 3.02979 -8.09349 0
M  V30 6537 C 868.743 2.57523 -7.89775 0
M  V30 6538 O 869.481 3.7668 -7.89438 0
M  V30 6539 C 868.074 2.20997 -6.55446 0
M  V30 6540 O 868.873 2.71895 -5.48509 0
M  V30 6541 C 866.737 2.89693 -6.67988 0
M  V30 6542 H 866.769 3.88793 -6.19859 0
M  V30 6543 H 867.952 1.12046 -6.44229 0
M  V30 6544 H 869.436 1.7746 -8.19711 0
M  V30 6545 H 867.742 3.20706 -9.67112 0
M  V30 6546 H 867.552 0.901032 -10.1892 0
M  V30 6547 H 865.922 1.33049 -9.56592 0
M  V30 6548 H 868.561 3.57847 -5.23962 0
M  V30 6549 P 870.418 3.65191 -7.99657 0
M  V30 6550 O 871.84 3.89332 -8.45794 0
M  V30 6551 O 870.058 2.28472 -7.50807 0
M  V30 6552 O 870.095 4.64972 -6.77611 0
M  V30 6553 C 869.935 6.06319 -7.16352 0
M  V30 6554 C 870.475 6.91731 -6.02299 0
M  V30 6555 O 869.419 6.92449 -5.17064 0
M  V30 6556 C 871.693 6.43627 -5.25174 0
M  V30 6557 O 872.431 7.43686 -4.60469 0
M  V30 6558 C 871.024 5.40275 -4.31916 0
M  V30 6559 O 871.823 5.25279 -3.14438 0
M  V30 6560 C 869.687 6.04847 -4.05327 0
M  V30 6561 H 869.719 6.62195 -3.11261 0
M  V30 6562 H 870.902 4.42556 -4.81383 0
M  V30 6563 H 872.386 5.92458 -5.93643 0
M  V30 6564 H 870.692 7.92655 -6.402 0
M  V30 6565 H 870.502 6.26671 -8.0846 0
M  V30 6566 H 868.872 6.29101 -7.32804 0
M  V30 6567 H 871.511 5.84315 -2.47318 0
M  V30 6568 P 873.369 7.39546 -4.75277 0
M  V30 6569 O 874.791 7.84798 -5.01039 0
M  V30 6570 O 873.009 5.9812 -5.08098 0
M  V30 6571 O 873.046 7.57503 -3.1866 0
M  V30 6572 C 872.886 8.97357 -2.74833 0
M  V30 6573 C 873.426 9.07548 -1.32709 0
M  V30 6574 O 872.37 8.62072 -0.606159 0
M  V30 6575 C 874.644 8.25383 -0.938334 0
M  V30 6576 O 875.382 8.74577 0.146954 0
M  V30 6577 C 873.975 6.8802 -0.712559 0
M  V30 6578 O 874.774 6.1189 0.194655 0
M  V30 6579 C 872.638 7.27966 -0.139777 0
M  V30 6580 H 872.67 7.25354 0.961601 0
M  V30 6581 H 873.853 6.32557 -1.65702 0
M  V30 6582 H 875.337 8.19355 -1.79097 0
M  V30 6583 H 873.643 10.1294 -1.10029 0
M  V30 6584 H 873.453 9.64276 -3.41316 0
M  V30 6585 H 871.823 9.25417 -2.76357 0
M  V30 6586 H 874.462 6.25267 1.07847 0
M  V30 6587 P 876.319 8.791 6.62549e-12 0
M  V30 6588 O 877.741 9.31096 0.027933 0
M  V30 6589 O 875.959 7.77869 -1.04071 0
M  V30 6590 O 875.996 8.09533 1.41463 0
M  V30 6591 C 875.836 9.0349 2.53943 0
M  V30 6592 C 876.376 8.35226 3.79016 0
M  V30 6593 O 875.32 7.57992 4.15078 0
M  V30 6594 C 877.594 7.45087 3.67298 0
M  V30 6595 O 878.332 7.27796 4.85194 0
M  V30 6596 C 876.925 6.17323 3.12027 0
M  V30 6597 O 877.724 5.04231 3.47188 0
M  V30 6598 C 875.588 6.19961 3.81809 0
M  V30 6599 H 875.62 5.58218 4.73051 0
M  V30 6600 H 876.803 6.21726 2.02589 0
M  V30 6601 H 878.287 7.86112 2.9231 0
M  V30 6602 H 876.593 9.11627 4.55076 0
M  V30 6603 H 876.403 9.9573 2.34194 0
M  V30 6604 H 874.773 9.2792 2.67832 0
M  V30 6605 H 877.412 4.67702 4.28772 0
M  V30 6606 P 879.27 7.39546 4.75277 0
M  V30 6607 O 880.692 7.81777 5.05738 0
M  V30 6608 O 878.91 7.1065 3.32998 0
M  V30 6609 O 878.947 6.04542 5.56673 0
M  V30 6610 C 878.787 6.22772 7.02095 0
M  V30 6611 C 879.327 4.97725 7.70406 0
M  V30 6612 O 878.271 4.13256 7.58987 0
M  V30 6613 C 880.545 4.28231 7.11815 0
M  V30 6614 O 881.283 3.49945 8.01648 0
M  V30 6615 C 879.876 3.5063 5.96244 0
M  V30 6616 O 880.675 2.36482 5.64681 0
M  V30 6617 C 878.539 3.15122 6.56374 0
M  V30 6618 H 878.571 2.13853 6.99751 0
M  V30 6619 H 879.754 4.13501 5.06559 0
M  V30 6620 H 881.238 5.03285 6.70911 0
M  V30 6621 H 879.544 5.20877 8.75697 0
M  V30 6622 H 879.354 7.11046 7.35349 0
M  V30 6623 H 877.724 6.35815 7.26986 0
M  V30 6624 H 880.363 1.61644 6.13565 0
M  V30 6625 P 882.22 3.65191 7.99657 0
M  V30 6626 O 883.621 3.90823 8.51272 0
M  V30 6627 O 881.842 4.23191 6.66972 0
M  V30 6628 O 881.897 2.07587 7.95046 0
M  V30 6629 C 881.737 1.44328 9.27336 0
M  V30 6630 C 882.277 0.0220012 9.17097 0
M  V30 6631 O 881.221 -0.626794 8.61824 0
M  V30 6632 C 883.494 -0.24586 8.30336 0
M  V30 6633 O 884.233 -1.39011 8.63583 0
M  V30 6634 C 882.827 -0.273849 6.91158 0
M  V30 6635 O 883.625 -1.06331 6.02794 0
M  V30 6636 C 881.489 -0.897649 7.22545 0
M  V30 6637 N 880.446 -0.292839 6.41732 0
M  V30 6638 C 879.411 -1.08701 5.98712 0
M  V30 6639 O 879.45 -2.31211 6.24471 0
M  V30 6640 N 878.399 -0.533391 5.28415 0
M  V30 6641 C 878.447 0.770866 4.98576 0
M  V30 6642 C 879.543 1.59049 5.38086 0
M  V30 6643 C 880.509 1.01866 6.10256 0
M  V30 6644 H 881.521 -1.98383 7.04189 0
M  V30 6645 H 882.704 0.733318 6.49674 0
M  V30 6646 H 884.188 0.598386 8.36663 0
M  V30 6647 H 882.494 -0.362662 10.1825 0
M  V30 6648 H 882.303 2.00611 10.0304 0
M  V30 6649 H 880.673 1.41828 9.55228 0
M  V30 6650 H 879.591 2.6415 5.10622 0
M  V30 6651 H 881.355 1.61983 6.44042 0
M  V30 6652 H 883.409 -1.97777 6.14035 0
M  V30 6653 P 885.171 -1.25109 8.70152 0
M  V30 6654 O 886.593 -1.35274 9.21221 0
M  V30 6655 O 884.811 -0.0769065 7.84762 0
M  V30 6656 O 884.848 -2.55232 7.81161 0
M  V30 6657 C 884.688 -3.79939 8.58154 0
M  V30 6658 C 885.228 -4.94023 7.72785 0
M  V30 6659 O 884.172 -5.18726 6.91205 0
M  V30 6660 C 886.446 -4.69597 6.85231 0
M  V30 6661 O 887.184 -5.83832 6.51337 0
M  V30 6662 C 885.777 -3.96706 5.66633 0
M  V30 6663 O 886.576 -4.15414 4.49689 0
M  V30 6664 C 884.44 -4.66153 5.59313 0
M  V30 6665 H 884.472 -5.47679 4.85214 0
M  V30 6666 H 885.655 -2.89008 5.86566 0
M  V30 6667 H 887.139 -4.0121 7.36511 0
M  V30 6668 H 885.445 -5.80182 8.37584 0
M  V30 6669 H 885.255 -3.73517 9.52265 0
M  V30 6670 H 883.625 -3.97163 8.80359 0
M  V30 6671 H 886.264 -4.90969 4.01921 0
M  V30 6672 P 888.122 -5.75688 6.64379 0
M  V30 6673 O 889.544 -6.11849 7.01846 0
M  V30 6674 O 887.762 -4.30744 6.56026 0
M  V30 6675 O 887.799 -6.37042 5.19165 0
M  V30 6676 C 887.639 -7.83578 5.16515 0
M  V30 6677 C 888.179 -8.33398 3.83019 0
M  V30 6678 O 887.123 -8.10074 3.01034 0
M  V30 6679 C 889.397 -7.65514 3.2257 0
M  V30 6680 O 890.135 -8.4329 2.32297 0
M  V30 6681 C 888.728 -6.40075 2.62207 0
M  V30 6682 O 889.527 -5.92589 1.53712 0
M  V30 6683 C 887.391 -6.9454 2.18503 0
M  V30 6684 H 887.423 -7.23063 1.12091 0
M  V30 6685 H 888.606 -5.6025 3.37201 0
M  V30 6686 H 890.09 -7.35707 4.02681 0
M  V30 6687 H 888.396 -9.40912 3.9095 0
M  V30 6688 H 888.206 -8.29056 5.99158 0
M  V30 6689 H 886.576 -8.10073 5.25882 0
M  V30 6690 H 889.215 -6.30324 0.726794 0
M  V30 6691 P 891.072 -8.4349 2.47671 0
M  V30 6692 O 892.494 -8.94167 2.5964 0
M  V30 6693 O 890.712 -7.1704 3.19006 0
M  V30 6694 O 890.749 -8.16596 0.923387 0
M  V30 6695 C 890.589 -9.38437 0.108857 0
M  V30 6696 C 891.129 -9.08175 -1.28353 0
M  V30 6697 O 890.073 -8.44229 -1.84713 0
M  V30 6698 C 892.347 -8.18386 -1.42505 0
M  V30 6699 O 893.085 -8.3501 -2.60497 0
M  V30 6700 C 891.678 -6.80225 -1.25468 0
M  V30 6701 O 892.477 -5.81621 -1.91066 0
M  V30 6702 C 890.341 -7.02416 -1.9168 0
M  V30 6703 H 890.373 -6.6888 -2.96621 0
M  V30 6704 H 891.556 -6.53617 -0.192223 0
M  V30 6705 H 893.04 -8.36622 -0.589963 0
M  V30 6706 H 891.346 -10.0291 -1.79807 0
M  V30 6707 H 891.156 -10.2138 0.558219 0
M  V30 6708 H 889.526 -9.6579 0.0444202 0
M  V30 6709 H 892.165 -5.69556 -2.79637 0
M  V30 6710 P 894.023 -8.4349 -2.47671 0
M  V30 6711 O 895.445 -8.92593 -2.65 0
M  V30 6712 O 893.663 -7.7568 -1.19296 0
M  V30 6713 O 893.7 -7.36886 -3.63805 0
M  V30 6714 C 893.54 -7.95349 -4.982 0
M  V30 6715 C 894.08 -6.94612 -5.98974 0
M  V30 6716 O 893.024 -6.10347 -6.11815 0
M  V30 6717 C 895.298 -6.11426 -5.62335 0
M  V30 6718 O 896.036 -5.6162 -6.70584 0
M  V30 6719 C 894.629 -5.04409 -4.73308 0
M  V30 6720 O 895.428 -3.85992 -4.75183 0
M  V30 6721 C 893.292 -4.8728 -5.41006 0
M  V30 6722 H 893.324 -4.02333 -6.11157 0
M  V30 6723 H 894.507 -5.39466 -3.69543 0
M  V30 6724 H 895.991 -6.71916 -5.01943 0
M  V30 6725 H 894.297 -7.4649 -6.93477 0
M  V30 6726 H 894.107 -8.89416 -5.05237 0
M  V30 6727 H 892.477 -8.14876 -5.18409 0
M  V30 6728 H 895.116 -3.27957 -5.4317 0
M  V30 6729 P 896.973 -5.75688 -6.64379 0
M  V30 6730 O 898.395 -6.07627 -7.05504 0
M  V30 6731 O 896.613 -5.88047 -5.19722 0
M  V30 6732 O 896.65 -4.2322 -7.04443 0
M  V30 6733 C 896.49 -3.99743 -8.4911 0
M  V30 6734 C 897.03 -2.60516 -8.79425 0
M  V30 6735 O 895.974 -1.82684 -8.4467 0
M  V30 6736 C 898.248 -2.10343 -8.03628 0
M  V30 6737 O 898.986 -1.09919 -8.67766 0
M  V30 6738 C 897.579 -1.68446 -6.70876 0
M  V30 6739 O 898.378 -0.678137 -6.08433 0
M  V30 6740 C 896.242 -1.17436 -7.18567 0
M  V30 6741 H 896.274 -0.0804732 -7.31656 0
M  V30 6742 H 897.457 -2.54037 -6.02537 0
M  V30 6743 H 898.941 -2.93881 -7.85526 0
M  V30 6744 H 897.247 -2.53065 -9.86973 0
M  V30 6745 H 897.057 -4.75072 -9.05887 0
M  V30 6746 H 895.427 -4.05244 -8.76668 0
M  V30 6747 H 898.066 0.177647 -6.34251 0
M  V30 6748 P 899.924 -1.25109 -8.70152 0
M  V30 6749 O 901.346 -1.29744 -9.22016 0
M  V30 6750 O 899.564 -2.13714 -7.55141 0
M  V30 6751 O 899.601 0.248149 -8.21425 0
M  V30 6752 C 899.441 1.22779 -9.30434 0
M  V30 6753 C 899.981 2.56293 -8.80664 0
M  V30 6754 O 898.925 3.02979 -8.09349 0
M  V30 6755 C 901.199 2.57523 -7.89775 0
M  V30 6756 O 901.937 3.7668 -7.89438 0
M  V30 6757 C 900.53 2.20997 -6.55446 0
M  V30 6758 O 901.329 2.71895 -5.48509 0
M  V30 6759 C 899.193 2.89693 -6.67988 0
M  V30 6760 H 899.225 3.88793 -6.19859 0
M  V30 6761 H 900.408 1.12046 -6.44229 0
M  V30 6762 H 901.892 1.7746 -8.19711 0
M  V30 6763 H 900.198 3.20706 -9.67112 0
M  V30 6764 H 900.008 0.901032 -10.1892 0
M  V30 6765 H 898.378 1.33049 -9.56592 0
M  V30 6766 H 901.017 3.57847 -5.23962 0
M  V30 6767 H 903.57 3.39234 -7.5115 0
M  V30 END ATOM
M  V30 BEGIN BOND
M  V30 END BOND
M  V30 END CTAB
M  END
$$$$
