drugbank_target|C6KSR5 Coatomer alpha subunit, putative (DB11638)
 OpenBabel12092121113D

  0  0  0     0  0            999 V3000
M  V30 BEGIN CTAB
M  V30 COUNTS 24712 24981 0 0 0
M  V30 BEGIN ATOM
M  V30 1 H -0.908 1.98254 -0.117106 0
M  V30 2 N 0 1.576 0 0
M  V30 3 C 0.933 2.03868 1.02534 0
M  V30 4 C 1.911 0.928543 1.3348 0
M  V30 5 O 3.095 1.19667 1.45644 0
M  V30 6 C 0.222 2.43627 2.35294 0
M  V30 7 C -0.732 3.65373 2.2001 0
M  V30 8 S 0.101 5.13292 1.52614 0
M  V30 9 C 1.257 5.56322 2.86805 0
M  V30 10 H 1.49 2.90518 0.631377 0
M  V30 11 H -0.977 1.52953 0.210867 0
M  V30 12 H 0.981 2.67203 3.11629 0
M  V30 13 H -0.358 1.57376 2.7183 0
M  V30 14 H -1.165 3.90944 3.18086 0
M  V30 15 H -1.563 3.418 1.51819 0
M  V30 16 H 0.729 5.58782 3.83104 0
M  V30 17 H 1.672 6.56266 2.65933 0
M  V30 18 H 2.08 4.83886 2.90714 0
M  V30 19 N 1.4781 -0.272755 1.55222 0
M  V30 20 C 2.4081 -1.34136 1.91127 0
M  V30 21 C 3.3891 -1.51513 0.773168 0
M  V30 22 O 4.5741 -1.64552 1.03132 0
M  V30 23 C 1.7041 -2.70083 2.1834 0
M  V30 24 C 0.6581 -2.67437 3.34158 0
M  V30 25 C -0.0159 -4.06938 3.46851 0
M  V30 26 C 1.2841 -2.26686 4.70543 0
M  V30 27 H 2.9781 -1.04333 2.80633 0
M  V30 28 H 0.5241 -0.500454 1.35024 0
M  V30 29 H 2.4771 -3.44952 2.42046 0
M  V30 30 H 1.2011 -3.01469 1.25634 0
M  V30 31 H -0.1399 -1.95026 3.1042 0
M  V30 32 H -0.4919 -4.35547 2.51611 0
M  V30 33 H -0.7919 -4.06062 4.2472 0
M  V30 34 H 0.7321 -4.83545 3.72849 0
M  V30 35 H 2.1461 -2.91277 4.93792 0
M  V30 36 H 0.5431 -2.36971 5.5133 0
M  V30 37 H 1.6131 -1.21818 4.69349 0
M  V30 38 N 2.9562 -1.48159 -0.537278 0
M  V30 39 C 4.2022 -1.56035 -1.29541 0
M  V30 40 C 4.5352 -0.230377 -1.92829 0
M  V30 41 O 3.8102 0.762952 -1.78911 0
M  V30 42 C 4.0932 -2.69323 -2.39034 0
M  V30 43 C 3.9462 -4.12002 -1.80485 0
M  V30 44 C 5.2652 -2.78408 -3.40847 0
M  V30 45 H 2.3842 -0.567992 -0.469632 0
M  V30 46 H 5.0262 -1.80302 -0.599277 0
M  V30 47 H 3.1762 -2.48763 -2.98412 0
M  V30 48 H 4.8482 -4.43981 -1.25215 0
M  V30 49 H 3.0912 -4.19344 -1.11055 0
M  V30 50 H 3.7622 -4.87077 -2.59731 0
M  V30 51 H 6.2382 -2.97012 -2.91416 0
M  V30 52 H 5.1142 -3.59416 -4.14863 0
M  V30 53 H 5.3752 -1.86269 -4.00944 0
M  V30 54 N 4.4343 0.785586 -1.36625 0
M  V30 55 C 5.3813 1.89838 -1.31264 0
M  V30 56 C 6.3513 1.65115 -0.180633 0
M  V30 57 O 7.5363 1.87222 -0.36777 0
M  V30 58 C 4.6763 3.26706 -1.11163 0
M  V30 59 C 3.7893 3.63476 -2.33472 0
M  V30 60 C 2.9243 4.89481 -2.06353 0
M  V30 61 C 1.9633 5.18941 -3.24602 0
M  V30 62 N 1.1003 6.36131 -2.97123 0
M  V30 63 H 5.9403 1.93756 -2.26413 0
M  V30 64 H 3.4773 0.947454 -1.12524 0
M  V30 65 H 5.4353 4.05639 -0.975337 0
M  V30 66 H 4.0653 3.222 -0.196674 0
M  V30 67 H 3.1173 2.79636 -2.57891 0
M  V30 68 H 4.4293 3.81193 -3.21704 0
M  V30 69 H 3.5833 5.76288 -1.89675 0
M  V30 70 H 2.3223 4.73841 -1.15437 0
M  V30 71 H 1.3273 4.30615 -3.41834 0
M  V30 72 H 2.5523 5.36498 -4.16349 0
M  V30 73 H 0.4983 6.21875 -2.08823 0
M  V30 74 H 0.4153 6.54198 -3.78894 0
M  V30 75 H 1.6833 7.2591 -2.84033 0
M  V30 76 N 5.9124 1.20967 1.01018 0
M  V30 77 C 7.1524 1.03511 1.76252 0
M  V30 78 C 7.5164 -0.42458 1.87247 0
M  V30 79 O 8.7174 -0.719508 2.58991 0
M  V30 80 C 6.9884 1.70726 3.13986 0
M  V30 81 S 8.5474 1.68458 4.05176 0
M  V30 82 H 5.3654 0.371037 0.606508 0
M  V30 83 H 7.9674 1.53628 1.20908 0
M  V30 84 H 6.6714 2.76128 3.03614 0
M  V30 85 H 6.2024 1.20767 3.74405 0
M  V30 86 H 8.2174 0.721987 4.90919 0
M  V30 87 N 7.3905 -1.2043 1.01659 0
M  V30 88 C 8.3005 -2.2689 0.596484 0
M  V30 89 C 9.3165 -1.70107 -0.36599 0
M  V30 90 O 10.4925 -2.00117 -0.226942 0
M  V30 91 C 7.5575 -3.4665 -0.0586659 0
M  V30 92 C 6.6185 -4.18662 0.949751 0
M  V30 93 C 5.8515 -5.32705 0.32577 0
M  V30 94 O 6.0745 -5.63656 -0.874509 0
M  V30 95 O 5.0085 -5.92803 1.04249 0
M  V30 96 H 8.8345 -2.65041 1.4828 0
M  V30 97 H 6.4195 -1.27048 0.786082 0
M  V30 98 H 8.3015 -4.19256 -0.424564 0
M  V30 99 H 6.9765 -3.10375 -0.91918 0
M  V30 100 H 5.8835 -3.48229 1.36702 0
M  V30 101 H 7.2165 -4.58878 1.78023 0
M  V30 102 N 8.8686 -0.792821 -1.36206 0
M  V30 103 C 10.0966 -0.378825 -2.03402 0
M  V30 104 C 10.5116 1.00586 -1.59774 0
M  V30 105 O 9.8686 1.64574 -0.788764 0
M  V30 106 C 9.9196 -0.43683 -3.58851 0
M  V30 107 O 9.6406 -1.76691 -4.00889 0
M  V30 108 C 11.1416 -0.0138943 -4.43298 0
M  V30 109 H 8.3616 -0.155673 -0.652692 0
M  V30 110 H 10.9056 -1.07261 -1.74113 0
M  V30 111 H 9.0606 0.208575 -3.86838 0
M  V30 112 H 9.4746 -1.72011 -4.95492 0
M  V30 113 H 10.9486 -0.105615 -5.51899 0
M  V30 114 H 11.4256 1.03915 -4.2673 0
M  V30 115 H 12.0316 -0.63192 -4.20579 0
M  V30 116 N 10.3467 1.47872 -0.545128 0
M  V30 117 C 11.2937 2.29849 0.2093 0
M  V30 118 C 12.2637 1.38313 0.919707 0
M  V30 119 O 13.4487 1.67277 0.917772 0
M  V30 120 C 10.5887 3.22019 1.24088 0
M  V30 121 C 9.7017 4.2864 0.537778 0
M  V30 122 C 8.8367 5.07973 1.5536 0
M  V30 123 C 7.8757 6.06381 0.8348 0
M  V30 124 N 7.0127 6.78717 1.79688 0
M  V30 125 H 11.8527 2.93845 -0.49591 0
M  V30 126 H 9.3897 1.44848 -0.256389 0
M  V30 127 H 11.3477 3.73868 1.85144 0
M  V30 128 H 9.9777 2.59914 1.91428 0
M  V30 129 H 9.0297 3.7994 -0.187046 0
M  V30 130 H 10.3417 4.98793 -0.0258907 0
M  V30 131 H 9.4957 5.63912 2.23803 0
M  V30 132 H 8.2347 4.37693 2.15118 0
M  V30 133 H 7.2397 5.49631 0.136388 0
M  V30 134 H 8.4647 6.78665 0.24313 0
M  V30 135 H 6.4107 6.11177 2.38326 0
M  V30 136 H 6.3277 7.44998 1.28505 0
M  V30 137 H 7.5957 7.39237 2.47282 0
M  V30 138 N 11.8248 0.280983 1.55075 0
M  V30 139 C 13.0498 -0.340154 2.04592 0
M  V30 140 C 13.4748 -1.48246 1.15779 0
M  V30 141 O 12.8328 -1.80614 0.15761 0
M  V30 142 C 12.8808 -0.793104 3.5177 0
M  V30 143 O 11.9848 -1.89981 3.66034 0
M  V30 144 H 11.3258 -0.0694289 0.66036 0
M  V30 145 H 13.8558 0.416993 2.00306 0
M  V30 146 H 13.8658 -1.08729 3.93245 0
M  V30 147 H 12.5408 0.0426163 4.15878 0
M  V30 148 H 11.1178 -1.60771 3.36463 0
M  V30 149 N 13.3029 -1.57598 0.00835791 0
M  V30 150 C 14.2349 -2.05811 -1.00868 0
M  V30 151 C 15.2479 -0.977579 -1.30182 0
M  V30 152 O 16.4369 -1.25421 -1.27011 0
M  V30 153 C 13.5369 -2.45016 -2.34137 0
M  V30 154 C 12.7099 -3.75903 -2.23643 0
M  V30 155 C 11.7689 -4.01884 -3.3967 0
M  V30 156 O 10.7949 -4.72433 -3.17483 0
M  V30 157 N 11.9969 -3.50432 -4.62793 0
M  V30 158 H 14.7619 -2.93684 -0.597458 0
M  V30 159 H 12.3229 -1.60909 -0.178852 0
M  V30 160 H 14.3149 -2.59506 -3.10546 0
M  V30 161 H 12.8849 -1.62618 -2.66972 0
M  V30 162 H 12.1049 -3.7141 -1.32091 0
M  V30 163 H 13.3929 -4.61695 -2.13812 0
M  V30 164 H 12.7909 -2.93317 -4.83716 0
M  V30 165 H 11.3479 -3.70236 -5.3644 0
M  V30 166 N 14.781 0.264519 -1.55364 0
M  V30 167 C 16.197 0.61215 -1.47394 0
M  V30 168 C 16.397 1.89134 -0.695018 0
M  V30 169 O 15.453 2.51563 -0.217275 0
M  V30 170 C 16.766 0.731235 -2.91674 0
M  V30 171 C 18.314 0.82473 -3.01939 0
M  V30 172 C 18.789 0.975522 -4.4749 0
M  V30 173 N 20.28 1.04083 -4.51354 0
M  V30 174 C 21.015 1.17646 -5.61201 0
M  V30 175 N 20.511 1.27874 -6.80896 0
M  V30 176 N 22.304 1.20823 -5.48961 0
M  V30 177 H 14.455 -0.575456 -2.04456 0
M  V30 178 H 16.718 -0.196099 -0.927496 0
M  V30 179 H 16.424 -0.138392 -3.51428 0
M  V30 180 H 16.298 1.60883 -3.41169 0
M  V30 181 H 18.685 1.68482 -2.42276 0
M  V30 182 H 18.766 -0.0776479 -2.55682 0
M  V30 183 H 18.41 0.120058 -5.07758 0
M  V30 184 H 18.34 1.89268 -4.91412 0
M  V30 185 H 20.831 0.973846 -3.65136 0
M  V30 186 H 21.144 1.38081 -7.60364 0
M  V30 187 H 19.489 1.24863 -6.83692 0
M  V30 188 H 22.68 1.12469 -4.54388 0
M  V30 189 H 22.853 1.31049 -6.3461 0
M  V30 190 N 16.2591 1.48442 0.529413 0
M  V30 191 C 17.5051 1.5672 1.28711 0
M  V30 192 C 17.8381 0.2406 1.92704 0
M  V30 193 O 17.1131 -0.753454 1.79313 0
M  V30 194 C 17.3961 2.70587 2.37603 0
M  V30 195 C 17.2491 4.12953 1.78297 0
M  V30 196 C 18.5681 2.80212 3.39366 0
M  V30 197 H 15.6871 0.570474 0.466613 0
M  V30 198 H 18.3291 1.80617 0.589706 0
M  V30 199 H 16.4791 2.50342 2.97088 0
M  V30 200 H 18.1511 4.44639 1.22858 0
M  V30 201 H 16.3941 4.19927 1.0883 0
M  V30 202 H 17.0651 4.88448 2.57144 0
M  V30 203 H 19.5411 2.98553 2.89836 0
M  V30 204 H 18.4171 3.61611 4.12951 0
M  V30 205 H 18.6781 1.88393 3.99951 0
M  V30 206 N 17.7372 -0.778329 1.37039 0
M  V30 207 C 18.6842 -1.89139 1.32269 0
M  V30 208 C 19.6542 -1.65017 0.189387 0
M  V30 209 O 20.8392 -1.87024 0.377693 0
M  V30 210 C 17.9792 -3.26112 1.12894 0
M  V30 211 C 17.0922 -3.62233 2.35396 0
M  V30 212 C 16.2272 -4.8838 2.08946 0
M  V30 213 C 15.2662 -5.17212 3.2735 0
M  V30 214 N 14.4032 -6.34546 3.00492 0
M  V30 215 H 19.2432 -1.92552 2.27437 0
M  V30 216 H 16.7802 -0.941473 1.13025 0
M  V30 217 H 18.7382 -4.05116 0.996835 0
M  V30 218 H 17.3682 -3.22091 0.213758 0
M  V30 219 H 16.4202 -2.78265 2.5937 0
M  V30 220 H 17.7322 -3.79481 3.23721 0
M  V30 221 H 16.8862 -5.75274 1.92729 0
M  V30 222 H 15.6252 -4.73222 1.17949 0
M  V30 223 H 14.6302 -4.28796 3.44113 0
M  V30 224 H 15.8552 -5.34283 4.19188 0
M  V30 225 H 13.8012 -6.20759 2.12118 0
M  V30 226 H 13.7182 -6.52179 3.82358 0
M  V30 227 H 14.9862 -7.24394 2.87879 0
M  V30 228 N 19.2153 -1.21501 -1.00376 0
M  V30 229 C 20.4403 -1.05977 -1.78279 0
M  V30 230 C 20.8653 0.385994 -1.84097 0
M  V30 231 O 20.2233 1.27849 -1.28547 0
M  V30 232 C 20.2713 -1.66302 -3.19963 0
M  V30 233 O 19.3753 -0.909333 -4.0225 0
M  V30 234 H 18.7163 -0.372906 -0.549397 0
M  V30 235 H 21.2463 -1.6107 -1.26165 0
M  V30 236 H 21.2563 -1.70574 -3.70632 0
M  V30 237 H 19.9313 -2.71515 -3.15043 0
M  V30 238 H 18.5083 -0.941795 -3.60811 0
M  V30 239 N 20.6934 1.19889 -1.02296 0
M  V30 240 C 21.9424 1.88743 -0.711257 0
M  V30 241 C 22.2554 1.80112 0.762817 0
M  V30 242 O 23.4614 2.44161 1.18733 0
M  V30 243 C 21.9174 3.38525 -1.22185 0
M  V30 244 C 21.5254 3.55727 -2.72328 0
M  V30 245 C 23.2694 4.12893 -0.985864 0
M  V30 246 C 21.1764 4.99369 -3.16835 0
M  V30 247 H 20.1064 0.706885 -0.262353 0
M  V30 248 H 22.7574 1.35586 -1.23648 0
M  V30 249 H 21.1394 3.91044 -0.624571 0
M  V30 250 H 22.3134 3.13564 -3.3766 0
M  V30 251 H 20.6284 2.94739 -2.9414 0
M  V30 252 H 23.2254 5.18813 -1.29374 0
M  V30 253 H 23.5684 4.16228 0.0775055 0
M  V30 254 H 24.1014 3.66494 -1.54684 0
M  V30 255 H 20.8404 5.01193 -4.22476 0
M  V30 256 H 20.3604 5.42317 -2.56228 0
M  V30 257 H 22.0394 5.67988 -3.09837 0
M  V30 258 N 22.1715 0.800033 1.35784 0
M  V30 259 C 23.3965 0.388511 2.03729 0
M  V30 260 C 23.8215 -0.990481 1.5991 0
M  V30 261 O 23.1795 -1.64013 0.772612 0
M  V30 262 C 23.2275 0.4726 3.5749 0
M  V30 263 O 22.3315 -0.51646 4.09153 0
M  V30 264 H 21.6725 0.163271 0.643614 0
M  V30 265 H 24.2025 1.0841 1.73518 0
M  V30 266 H 24.2125 0.34003 4.06581 0
M  V30 267 H 22.8875 1.47848 3.88734 0
M  V30 268 H 21.4645 -0.344673 3.71304 0
M  V30 269 N 23.6496 -1.47581 0.552962 0
M  V30 270 C 24.8966 -2.02482 0.0273243 0
M  V30 271 C 25.2246 -1.42776 -1.32081 0
M  V30 272 O 24.4796 -0.571393 -1.87173 0
M  V30 273 C 24.7786 -3.57199 -0.119728 0
M  V30 274 C 24.4446 -4.35804 1.15697 0
M  V30 275 C 23.1066 -4.57 1.50681 0
M  V30 276 C 25.4586 -4.81167 2.00319 0
M  V30 277 C 22.7866 -5.20807 2.70142 0
M  V30 278 C 25.1386 -5.46293 3.18978 0
M  V30 279 C 23.8026 -5.65722 3.54281 0
M  V30 280 H 23.0726 -0.740933 0.00999866 0
M  V30 281 H 25.7196 -1.77302 0.72362 0
M  V30 282 H 24.0246 -3.81348 -0.89896 0
M  V30 283 H 25.7216 -3.97324 -0.541718 0
M  V30 284 H 22.3116 -4.19582 0.874561 0
M  V30 285 H 26.4956 -4.64574 1.74599 0
M  V30 286 H 21.7516 -5.34045 2.97668 0
M  V30 287 H 25.9256 -5.80407 3.84838 0
M  V30 288 H 23.5526 -6.14936 4.46942 0
M  V30 289 N 25.1277 -0.289203 -1.54924 0
M  V30 290 C 26.0777 0.606939 -2.19773 0
M  V30 291 C 27.0617 1.10783 -1.16687 0
M  V30 292 O 28.2537 1.05057 -1.4245 0
M  V30 293 C 25.3827 1.78398 -2.93307 0
M  V30 294 C 24.4687 1.29961 -4.03697 0
M  V30 295 N 24.8597 0.532377 -5.0299 0
M  V30 296 C 23.1577 1.58136 -4.17024 0
M  V30 297 C 23.8587 0.275912 -5.81045 0
M  V30 298 N 22.8347 0.852365 -5.36876 0
M  V30 299 H 26.6367 0.0130779 -2.93897 0
M  V30 300 H 24.1507 -0.09341 -1.62131 0
M  V30 301 H 26.1477 2.43741 -3.38225 0
M  V30 302 H 24.8077 2.38166 -2.20697 0
M  V30 303 H 25.8187 0.17838 -5.17593 0
M  V30 304 H 22.4957 2.18738 -3.55612 0
M  V30 305 H 23.8857 -0.339502 -6.71042 0
M  V30 306 N 26.6058 1.57591 -0.0167156 0
M  V30 307 C 28.0168 1.79201 0.523834 0
M  V30 308 C 28.3678 0.925796 1.72984 0
M  V30 309 O 27.4928 0.132792 2.15992 0
M  V30 310 C 28.0878 3.25 0.957091 0
M  V30 311 C 26.6468 3.47648 1.44283 0
M  V30 312 C 25.7938 2.74374 0.401757 0
M  V30 313 H 28.7448 1.56831 -0.242816 0
M  V30 314 H 28.7658 3.34031 1.82219 0
M  V30 315 H 28.2778 3.88019 0.0791415 0
M  V30 316 H 26.3788 2.89866 2.34113 0
M  V30 317 H 26.4918 4.56352 1.45877 0
M  V30 318 H 24.8558 2.39485 0.867121 0
M  V30 319 H 25.6388 3.40102 -0.467513 0
M  V30 320 N 28.0839 -0.256276 1.55502 0
M  V30 321 C 29.0309 -1.31714 1.89526 0
M  V30 322 C 30.0009 -1.4828 0.748479 0
M  V30 323 O 31.1859 -1.62416 1.00128 0
M  V30 324 C 28.3259 -2.66933 2.18725 0
M  V30 325 C 27.4389 -2.58452 3.4616 0
M  V30 326 C 26.5739 -3.85961 3.64976 0
M  V30 327 C 25.6129 -3.72059 4.86044 0
M  V30 328 N 24.7499 -4.9144 5.01429 0
M  V30 329 H 29.5899 -1.01998 2.80001 0
M  V30 330 H 27.1269 -0.492413 1.38613 0
M  V30 331 H 29.0849 -3.4563 2.33657 0
M  V30 332 H 27.7149 -2.94816 1.31466 0
M  V30 333 H 26.7669 -1.71374 3.3961 0
M  V30 334 H 28.0789 -2.44085 4.34999 0
M  V30 335 H 27.2329 -4.73101 3.79816 0
M  V30 336 H 25.9719 -4.03215 2.74353 0
M  V30 337 H 24.9769 -2.83302 4.7119 0
M  V30 338 H 26.2019 -3.56309 5.78118 0
M  V30 339 H 24.1479 -5.09072 4.13741 0
M  V30 340 H 24.0649 -4.79668 5.84341 0
M  V30 341 H 25.3329 -5.80104 5.20672 0
M  V30 342 N 29.562 -1.4872 -0.521534 0
M  V30 343 C 30.811 -1.56419 -1.27341 0
M  V30 344 C 31.124 -0.246805 -1.94037 0
M  V30 345 O 32.33 -0.202122 -2.70747 0
M  V30 346 C 30.786 -2.75896 -2.31105 0
M  V30 347 C 30.394 -4.14311 -1.70441 0
M  V30 348 C 32.138 -2.92913 -3.07249 0
M  V30 349 C 30.045 -5.25038 -2.72194 0
M  V30 350 H 28.975 -0.582344 -0.478949 0
M  V30 351 H 31.626 -1.75071 -0.549779 0
M  V30 352 H 30.008 -2.50697 -3.06541 0
M  V30 353 H 31.182 -4.49564 -1.01136 0
M  V30 354 H 29.497 -4.02482 -1.06759 0
M  V30 355 H 32.094 -3.72805 -3.83302 0
M  V30 356 H 32.437 -2.02689 -3.63625 0
M  V30 357 H 32.97 -3.18054 -2.38928 0
M  V30 358 H 29.709 -6.17255 -2.20627 0
M  V30 359 H 29.229 -4.94263 -3.39801 0
M  V30 360 H 30.908 -5.53508 -3.35019 0
M  V30 361 N 31.0401 0.771051 -1.3745 0
M  V30 362 C 31.9881 1.90574 -1.33358 0
M  V30 363 C 32.9821 1.67936 -0.22224 0
M  V30 364 O 34.1881 1.75717 -0.390304 0
M  V30 365 H 30.5631 0.626714 -0.415612 0
M  V30 366 H 32.5341 1.91142 -2.29144 0
M  V30 367 C 31.2831 3.27845 -1.15813 0
M  V30 368 H 30.6061 3.45842 -2.00583 0
M  V30 369 H 32.0461 4.07538 -1.17 0
M  V30 370 C 30.5051 3.36625 0.136165 0
M  V30 371 O 31.0351 3.85785 1.11949 0
M  V30 372 N 29.2411 2.89997 0.187099 0
M  V30 373 H 28.7881 2.50182 -0.613753 0
M  V30 374 H 28.7461 2.96252 1.05272 0
M  V30 375 N 32.5182 1.22032 0.997298 0
M  V30 376 C 33.4512 0.929735 2.08401 0
M  V30 377 C 34.4292 -0.125681 1.62114 0
M  V30 378 O 35.6132 0.00495409 1.88499 0
M  V30 379 C 32.7402 0.397488 3.3636 0
M  V30 380 C 31.7862 1.4369 4.01566 0
M  V30 381 S 32.6192 3.00874 4.42984 0
M  V30 382 C 33.7752 2.49276 5.74119 0
M  V30 383 H 34.0082 1.84998 2.32729 0
M  V30 384 H 31.5412 1.0509 1.13117 0
M  V30 385 H 33.4992 0.0969846 4.10385 0
M  V30 386 H 32.1602 -0.501571 3.10069 0
M  V30 387 H 31.3532 1.01427 4.93689 0
M  V30 388 H 30.9552 1.68588 3.33847 0
M  V30 389 H 33.2472 1.90242 6.50242 0
M  V30 390 H 34.1902 3.39872 6.21203 0
M  V30 391 H 34.5982 1.90714 5.31308 0
M  V30 392 N 33.9963 -1.19345 1.0293 0
M  V30 393 C 35.2453 -1.88363 0.721256 0
M  V30 394 C 35.5583 -1.80514 -0.753254 0
M  V30 395 O 36.7643 -2.44788 -1.17436 0
M  V30 396 C 35.2203 -3.37872 1.23978 0
M  V30 397 C 34.8283 -3.54278 2.74211 0
M  V30 398 C 36.5723 -4.12365 1.00775 0
M  V30 399 C 34.4793 -4.97682 3.19479 0
M  V30 400 H 33.4093 -0.705484 0.266098 0
M  V30 401 H 36.0603 -1.34928 1.24365 0
M  V30 402 H 34.4423 -3.90707 0.6453 0
M  V30 403 H 35.6163 -3.11769 3.39318 0
M  V30 404 H 33.9313 -2.93174 2.95699 0
M  V30 405 H 36.5283 -5.18119 1.32123 0
M  V30 406 H 36.8713 -4.16263 -0.0554308 0
M  V30 407 H 37.4043 -3.65668 1.56625 0
M  V30 408 H 34.1433 -4.98945 4.25128 0
M  V30 409 H 33.6633 -5.4095 2.591 0
M  V30 410 H 35.3423 -5.66337 3.12845 0
M  V30 411 N 35.4744 -0.807222 -1.35358 0
M  V30 412 C 36.4044 -0.232509 -2.3234 0
M  V30 413 C 37.3854 0.642386 -1.57504 0
M  V30 414 O 38.5704 0.572526 -1.85569 0
M  V30 415 C 35.7004 0.619238 -3.41735 0
M  V30 416 C 34.6544 -0.157215 -4.27711 0
M  V30 417 C 33.9804 0.816273 -5.28433 0
M  V30 418 C 35.2804 -1.35656 -5.04376 0
M  V30 419 H 36.9744 -1.04276 -2.80654 0
M  V30 420 H 34.5204 -0.50288 -1.34934 0
M  V30 421 H 36.4734 1.03137 -4.08584 0
M  V30 422 H 35.1974 1.46239 -2.92031 0
M  V30 423 H 33.8564 -0.550525 -3.62443 0
M  V30 424 H 33.5044 1.65494 -4.74996 0
M  V30 425 H 33.2044 0.301067 -5.86828 0
M  V30 426 H 34.7284 1.22659 -5.98153 0
M  V30 427 H 36.1424 -1.01927 -5.64166 0
M  V30 428 H 34.5394 -1.8063 -5.7227 0
M  V30 429 H 35.6094 -2.14288 -4.34981 0
M  V30 430 N 36.9525 1.47285 -0.560781 0
M  V30 431 C 37.9155 2.28535 0.174488 0
M  V30 432 C 38.9155 1.37153 0.839388 0
M  V30 433 O 40.1055 1.59748 0.694702 0
M  V30 434 C 37.2375 3.16934 1.25561 0
M  V30 435 H 38.4305 2.95012 -0.539262 0
M  V30 436 H 35.9835 1.53034 -0.317865 0
M  V30 437 H 36.7185 2.55157 2.00164 0
M  V30 438 H 36.5035 3.8419 0.783604 0
M  V30 439 H 37.9935 3.78143 1.77193 0
M  V30 440 N 38.4306 0.297415 1.54768 0
M  V30 441 C 39.6786 -0.312295 1.99673 0
M  V30 442 C 39.9996 -1.54686 1.18732 0
M  V30 443 O 39.2696 -1.93854 0.282382 0
M  V30 444 H 37.8496 -0.118381 0.73756 0
M  V30 445 H 40.5116 0.407915 1.90583 0
M  V30 446 H 39.6076 -0.586813 3.06534 0
M  V30 447 N 39.9087 -1.5758 0.0250728 0
M  V30 448 C 40.8387 -2.13007 -0.956575 0
M  V30 449 C 41.8197 -1.0452 -1.342 0
M  V30 450 O 43.0047 -1.32332 -1.42133 0
M  V30 451 C 40.1347 -2.65386 -2.24026 0
M  V30 452 C 39.0887 -3.78623 -1.99571 0
M  V30 453 C 38.4147 -4.17414 -3.3417 0
M  V30 454 C 39.7147 -5.04867 -1.33814 0
M  V30 455 H 41.4087 -2.9528 -0.494991 0
M  V30 456 H 38.9547 -1.42042 -0.236651 0
M  V30 457 H 40.9077 -3.02794 -2.93076 0
M  V30 458 H 39.6317 -1.80268 -2.72343 0
M  V30 459 H 38.2907 -3.41646 -1.32941 0
M  V30 460 H 37.9387 -3.29284 -3.80238 0
M  V30 461 H 37.6387 -4.93719 -3.18615 0
M  V30 462 H 39.1627 -4.57402 -4.04495 0
M  V30 463 H 40.5767 -5.39888 -1.92857 0
M  V30 464 H 38.9737 -5.86144 -1.28669 0
M  V30 465 H 40.0437 -4.83904 -0.310561 0
M  V30 466 N 41.3868 0.248026 -1.55636 0
M  V30 467 C 42.3368 1.30994 -1.86614 0
M  V30 468 C 43.3208 1.43543 -0.726918 0
M  V30 469 O 44.5128 1.46804 -0.988818 0
M  V30 470 C 41.6418 2.6656 -2.16335 0
M  V30 471 C 40.7278 2.58019 -3.36581 0
M  V30 472 N 41.1188 2.1911 -4.55878 0
M  V30 473 C 39.4168 2.89035 -3.39669 0
M  V30 474 C 40.1178 2.21174 -5.38012 0
M  V30 475 N 39.0938 2.60632 -4.77045 0
M  V30 476 H 42.8958 0.999583 -2.76379 0
M  V30 477 H 40.4098 0.456652 -1.55848 0
M  V30 478 H 42.4068 3.43194 -2.36692 0
M  V30 479 H 41.0668 2.98463 -1.27867 0
M  V30 480 H 42.0778 1.90672 -4.81523 0
M  V30 481 H 38.7548 3.25485 -2.61469 0
M  V30 482 H 40.1448 1.9344 -6.43452 0
M  V30 483 N 42.8649 1.48995 0.513639 0
M  V30 484 C 43.8129 1.65199 1.63744 0
M  V30 485 C 44.8069 0.51809 1.61283 0
M  V30 486 O 46.0129 0.697335 1.65943 0
M  V30 487 H 42.3879 0.52069 0.542574 0
M  V30 488 H 44.3589 2.59552 1.47226 0
M  V30 489 C 43.1079 1.72409 3.01945 0
M  V30 490 H 42.4309 2.59029 3.04539 0
M  V30 491 H 43.8709 1.87785 3.80148 0
M  V30 492 C 42.3299 0.46618 3.33659 0
M  V30 493 O 42.8599 -0.413744 3.99564 0
M  V30 494 N 41.0659 0.332931 2.88687 0
M  V30 495 H 40.6129 1.04996 2.35231 0
M  V30 496 H 40.5709 -0.507665 3.10274 0
M  V30 497 N 44.343 -0.763751 1.37857 0
M  V30 498 C 45.591 -1.51957 1.33243 0
M  V30 499 C 45.912 -1.94835 -0.0801709 0
M  V30 500 O 45.182 -1.66894 -1.02582 0
M  V30 501 H 43.762 -0.563626 0.49024 0
M  V30 502 H 46.424 -0.908504 1.7243 0
M  V30 503 H 45.52 -2.41523 1.97669 0
M  V30 504 N 45.8211 -1.22559 -0.990812 0
M  V30 505 C 47.0671 -1.05297 -1.73322 0
M  V30 506 C 47.4001 0.410655 -1.89808 0
M  V30 507 O 46.6751 1.30439 -1.44277 0
M  V30 508 C 46.9581 -1.76713 -3.13759 0
M  V30 509 C 46.8111 -3.30684 -3.04907 0
M  V30 510 C 48.1301 -1.52121 -4.12974 0
M  V30 511 H 45.2491 -0.38392 -0.629106 0
M  V30 512 H 47.8911 -1.50926 -1.15418 0
M  V30 513 H 46.0411 -1.37924 -3.63193 0
M  V30 514 H 47.7131 -3.7893 -2.63077 0
M  V30 515 H 45.9561 -3.60253 -2.41661 0
M  V30 516 H 46.6271 -3.75833 -4.04294 0
M  V30 517 H 49.1031 -1.85819 -3.72304 0
M  V30 518 H 47.9791 -2.04582 -5.0935 0
M  V30 519 H 48.2401 -0.454257 -4.3976 0
M  V30 520 N 47.2992 1.18797 -1.03562 0
M  V30 521 C 48.5482 1.87978 -0.731235 0
M  V30 522 C 48.8612 1.80911 0.743671 0
M  V30 523 O 50.0672 2.45407 1.16137 0
M  V30 524 C 48.5232 3.3721 -1.25768 0
M  V30 525 C 48.1312 3.52818 -2.76085 0
M  V30 526 C 49.8752 4.11825 -1.0296 0
M  V30 527 C 47.7822 4.9598 -3.22114 0
M  V30 528 H 46.7122 0.704063 -0.269835 0
M  V30 529 H 49.3632 1.34266 -1.25079 0
M  V30 530 H 47.7452 3.90359 -0.666011 0
M  V30 531 H 48.9192 3.09965 -3.40966 0
M  V30 532 H 47.2342 2.91602 -2.97249 0
M  V30 533 H 49.8312 5.17411 -1.34869 0
M  V30 534 H 50.1742 4.16287 0.0333546 0
M  V30 535 H 50.7072 3.64833 -1.58562 0
M  V30 536 H 47.4462 4.96684 -4.27768 0
M  V30 537 H 46.9662 5.39569 -2.61965 0
M  V30 538 H 48.6452 5.6467 -3.15844 0
M  V30 539 N 48.7773 0.814389 1.34928 0
M  V30 540 C 49.7093 0.187834 2.28429 0
M  V30 541 C 50.7223 -0.617374 1.5064 0
M  V30 542 O 51.9113 -0.448454 1.72775 0
M  V30 543 C 49.0113 -0.755962 3.30361 0
M  V30 544 C 48.1843 0.00456686 4.374 0
M  V30 545 C 47.2433 -0.858876 5.19143 0
M  V30 546 O 46.2693 -0.306968 5.68372 0
M  V30 547 N 47.4713 -2.17988 5.38016 0
M  V30 548 H 50.2363 0.991105 2.82838 0
M  V30 549 H 47.7973 0.670561 1.4736 0
M  V30 550 H 49.7893 -1.338 3.81942 0
M  V30 551 H 48.3593 -1.46001 2.7641 0
M  V30 552 H 47.5793 0.767865 3.86649 0
M  V30 553 H 48.8673 0.528422 5.06049 0
M  V30 554 H 48.2653 -2.65212 4.99679 0
M  V30 555 H 46.8223 -2.71098 5.92747 0
M  V30 556 N 50.2554 -1.46986 0.568584 0
M  V30 557 C 51.1854 -2.32946 -0.160753 0
M  V30 558 C 52.1664 -1.44487 -0.897631 0
M  V30 559 O 53.3514 -1.73327 -0.875867 0
M  V30 560 C 50.4814 -3.26494 -1.18403 0
M  V30 561 C 49.4354 -4.24282 -0.562895 0
M  V30 562 C 48.7614 -5.07236 -1.69163 0
M  V30 563 C 50.0614 -5.19989 0.490761 0
M  V30 564 H 51.7554 -2.94175 0.556916 0
M  V30 565 H 49.3014 -1.4146 0.26927 0
M  V30 566 H 51.2544 -3.85477 -1.70251 0
M  V30 567 H 49.9784 -2.63343 -1.93179 0
M  V30 568 H 48.6374 -3.66541 -0.0656164 0
M  V30 569 H 48.2854 -4.4048 -2.42871 0
M  V30 570 H 47.9854 -5.7345 -1.28174 0
M  V30 571 H 49.5094 -5.6908 -2.21314 0
M  V30 572 H 50.9234 -5.73271 0.0579047 0
M  V30 573 H 49.3204 -5.94469 0.820165 0
M  V30 574 H 50.3904 -4.64777 1.3824 0
M  V30 575 N 51.7335 -0.305618 -1.54608 0
M  V30 576 C 52.9795 0.295595 -2.01241 0
M  V30 577 C 53.3345 1.51171 -1.19018 0
M  V30 578 O 52.6275 1.89832 -0.259684 0
M  V30 579 C 52.8215 0.698983 -3.50498 0
M  V30 580 C 52.6505 -0.476491 -4.47168 0
M  V30 581 C 51.4205 -0.969963 -4.95903 0
M  V30 582 C 53.6185 -1.32294 -4.96994 0
M  V30 583 N 51.6005 -2.11172 -5.76437 0
M  V30 584 C 52.9715 -2.31212 -5.75275 0
M  V30 585 C 55.0265 -1.35278 -4.7917 0
M  V30 586 C 53.7295 -3.32896 -6.37631 0
M  V30 587 C 55.7555 -2.35823 -5.42348 0
M  V30 588 C 55.1175 -3.33469 -6.20466 0
M  V30 589 H 51.2165 0.0724992 -0.778632 0
M  V30 590 H 53.8005 -0.436583 -1.89742 0
M  V30 591 H 51.9715 1.40032 -3.62278 0
M  V30 592 H 53.7035 1.28013 -3.8392 0
M  V30 593 H 50.4585 -0.544178 -4.70463 0
M  V30 594 H 50.8825 -2.68714 -6.21387 0
M  V30 595 H 55.5245 -0.61157 -4.18354 0
M  V30 596 H 53.2425 -4.07933 -6.97579 0
M  V30 597 H 56.8285 -2.38911 -5.30484 0
M  V30 598 H 55.7085 -4.09996 -6.68485 0
M  V30 599 N 53.2116 1.57565 -0.0334293 0
M  V30 600 C 54.4886 1.83282 0.683163 0
M  V30 601 C 54.8686 0.91823 1.90084 0
M  V30 602 O 54.2166 -0.025113 2.28486 0
M  V30 603 C 54.4266 3.32599 1.0573 0
M  V30 604 C 55.7746 3.99179 1.44711 0
M  V30 605 O 56.7986 3.3712 1.15015 0
M  V30 606 O 55.6576 5.08565 2.0006 0
M  V30 607 H 52.7516 0.755869 0.335546 0
M  V30 608 H 55.2976 1.69589 -0.0614402 0
M  V30 609 H 54.0696 3.90834 0.190828 0
M  V30 610 H 53.6926 3.51415 1.85993 0
M  V30 611 N 54.6897 -0.239769 1.55765 0
M  V30 612 C 55.9197 -0.982743 1.8173 0
M  V30 613 C 56.3277 -1.7917 0.607835 0
M  V30 614 O 55.6707 -1.78525 -0.432973 0
M  V30 615 C 55.7327 -1.96332 3.01155 0
M  V30 616 C 55.3967 -1.34062 4.36894 0
M  V30 617 C 56.3937 -0.739539 5.14613 0
M  V30 618 C 54.0787 -1.35784 4.83599 0
M  V30 619 C 56.0727 -0.163989 6.37189 0
M  V30 620 C 53.7597 -0.778441 6.06122 0
M  V30 621 C 54.7577 -0.182548 6.82756 0
M  V30 622 O 54.4457 0.387887 8.02964 0
M  V30 623 H 54.1777 -0.294481 0.608487 0
M  V30 624 H 56.7317 -0.26572 2.03674 0
M  V30 625 H 54.9617 -2.71884 2.74984 0
M  V30 626 H 56.6507 -2.57032 3.14149 0
M  V30 627 H 57.4167 -0.718687 4.79646 0
M  V30 628 H 53.2957 -1.81105 4.23936 0
M  V30 629 H 56.8397 0.301753 6.96947 0
M  V30 630 H 52.7367 -0.796645 6.40565 0
M  V30 631 H 53.5047 0.28044 8.18019 0
M  V30 632 N 56.1678 -1.49265 -0.50573 0
M  V30 633 C 57.5838 -1.35923 -0.836486 0
M  V30 634 C 57.7838 -0.388704 -1.97715 0
M  V30 635 O 56.8398 0.181336 -2.51848 0
M  V30 636 C 58.1528 -2.76531 -1.18115 0
M  V30 637 C 59.7008 -2.85197 -1.28964 0
M  V30 638 C 60.1758 -4.26561 -1.66761 0
M  V30 639 N 61.6668 -4.2935 -1.73819 0
M  V30 640 C 62.4018 -5.35693 -2.045 0
M  V30 641 N 61.8978 -6.52287 -2.33438 0
M  V30 642 N 63.6908 -5.23105 -2.05711 0
M  V30 643 H 55.8418 -2.10965 0.246519 0
M  V30 644 H 58.1048 -0.9468 0.0476887 0
M  V30 645 H 57.8108 -3.49226 -0.416398 0
M  V30 646 H 57.6848 -3.11599 -2.1257 0
M  V30 647 H 60.0718 -2.12742 -2.04511 0
M  V30 648 H 60.1528 -2.53718 -0.325704 0
M  V30 649 H 59.7968 -4.99541 -0.917656 0
M  V30 650 H 59.7268 -4.55502 -2.64246 0
M  V30 651 H 62.2178 -3.4526 -1.53635 0
M  V30 652 H 62.5308 -7.29158 -2.56024 0
M  V30 653 H 60.8758 -6.55521 -2.30905 0
M  V30 654 H 64.0668 -4.31026 -1.82577 0
M  V30 655 H 64.2398 -6.06078 -2.29289 0
M  V30 656 N 57.6459 0.756429 -1.3826 0
M  V30 657 C 58.8949 1.51082 -1.3363 0
M  V30 658 C 59.2079 1.95467 0.0720068 0
M  V30 659 O 60.4139 2.7043 0.240834 0
M  V30 660 C 58.8699 2.72893 -2.34644 0
M  V30 661 C 58.4779 2.35544 -3.81081 0
M  V30 662 C 60.2219 3.50791 -2.39052 0
M  V30 663 C 58.1289 3.53948 -4.73787 0
M  V30 664 H 57.0589 0.56727 -0.49671 0
M  V30 665 H 59.7099 0.827147 -1.638 0
M  V30 666 H 58.0919 3.43227 -1.97513 0
M  V30 667 H 59.2659 1.72894 -4.27135 0
M  V30 668 H 57.5809 1.70786 -3.79764 0
M  V30 669 H 60.1779 4.38823 -3.05513 0
M  V30 670 H 60.5209 3.91745 -1.40861 0
M  V30 671 H 61.0539 2.87467 -2.74968 0
M  V30 672 H 57.7929 3.18064 -5.73163 0
M  V30 673 H 57.3129 4.15651 -4.32428 0
M  V30 674 H 58.9919 4.20566 -4.91663 0
M  V30 675 N 59.124 1.23083 0.984299 0
M  V30 676 C 60.372 1.05848 1.72165 0
M  V30 677 C 60.693 -0.406049 1.90726 0
M  V30 678 O 59.963 -1.29139 1.47309 0
M  V30 679 H 58.543 0.388685 0.637913 0
M  V30 680 H 61.205 1.54736 1.18503 0
M  V30 681 H 60.301 1.54327 2.71274 0
M  V30 682 N 60.6021 -1.18246 1.0419 0
M  V30 683 C 61.8511 -1.87588 0.741194 0
M  V30 684 C 62.1641 -1.81303 -0.734066 0
M  V30 685 O 63.3701 -2.46019 -1.14834 0
M  V30 686 C 61.8261 -3.36538 1.27555 0
M  V30 687 C 61.4341 -3.51349 2.77953 0
M  V30 688 C 63.1781 -4.11273 1.05143 0
M  V30 689 C 61.0851 -4.94265 3.2474 0
M  V30 690 H 60.0151 -0.702622 0.273565 0
M  V30 691 H 62.6661 -1.33601 1.25789 0
M  V30 692 H 61.0481 -3.9 0.686703 0
M  V30 693 H 62.2221 -3.08153 3.42605 0
M  V30 694 H 60.5371 -2.90022 2.98791 0
M  V30 695 H 63.1341 -5.16689 1.37611 0
M  V30 696 H 63.4771 -4.16298 -0.0112774 0
M  V30 697 H 64.0101 -3.63987 1.60495 0
M  V30 698 H 60.7491 -4.94408 4.30396 0
M  V30 699 H 60.2691 -5.38172 2.64823 0
M  V30 700 H 61.9481 -5.62987 3.18834 0
M  V30 701 N 62.0802 -0.821533 -1.34494 0
M  V30 702 C 63.0102 -0.257138 -2.3208 0
M  V30 703 C 63.9912 0.625645 -1.58176 0
M  V30 704 O 65.1762 0.552811 -1.86166 0
M  V30 705 C 62.3062 0.582958 -3.42372 0
M  V30 706 C 61.2602 -0.202571 -4.2752 0
M  V30 707 C 60.5862 0.760179 -5.29269 0
M  V30 708 C 61.8862 -1.40998 -5.02908 0
M  V30 709 H 63.5802 -1.07247 -2.79532 0
M  V30 710 H 61.1262 -0.517163 -1.34393 0
M  V30 711 H 63.0792 0.987972 -4.09655 0
M  V30 712 H 61.8032 1.43133 -2.93565 0
M  V30 713 H 60.4622 -0.588936 -3.61838 0
M  V30 714 H 60.1102 1.60447 -4.76724 0
M  V30 715 H 59.8102 0.238809 -5.87115 0
M  V30 716 H 61.3342 1.16308 -5.9942 0
M  V30 717 H 62.7482 -1.07905 -5.63054 0
M  V30 718 H 61.1452 -1.86689 -5.70322 0
M  V30 719 H 62.2152 -2.1889 -4.32684 0
M  V30 720 N 63.5583 1.46682 -0.576371 0
M  V30 721 C 64.8073 2.01619 -0.0572825 0
M  V30 722 C 65.1203 1.45417 1.30818 0
M  V30 723 O 66.3263 1.92133 1.91825 0
M  V30 724 C 64.7823 3.59863 -0.0518371 0
M  V30 725 C 64.3903 4.25059 -1.41523 0
M  V30 726 C 66.1343 4.2248 0.413639 0
M  V30 727 C 64.0413 5.75364 -1.36785 0
M  V30 728 H 62.9713 0.753794 -0.0176448 0
M  V30 729 H 65.6223 1.68481 -0.727076 0
M  V30 730 H 64.0043 3.90048 0.683994 0
M  V30 731 H 65.1783 4.06491 -2.17029 0
M  V30 732 H 63.4933 3.7451 -1.8202 0
M  V30 733 H 66.0903 5.3265 0.467779 0
M  V30 734 H 66.4333 3.90976 1.42982 0
M  V30 735 H 66.9663 3.96897 -0.267929 0
M  V30 736 H 63.7053 6.11518 -2.36063 0
M  V30 737 H 63.2253 5.96214 -0.654895 0
M  V30 738 H 64.9043 6.37955 -1.07805 0
M  V30 739 N 65.0364 0.313813 1.54444 0
M  V30 740 C 66.3134 -0.345447 1.92525 0
M  V30 741 C 66.6934 -1.70667 1.24242 0
M  V30 742 O 66.0414 -2.25273 0.382654 0
M  V30 743 C 66.2514 -0.44737 3.46121 0
M  V30 744 C 67.5994 -0.712238 4.18584 0
M  V30 745 O 68.6234 -0.530678 3.52225 0
M  V30 746 O 67.4824 -1.06183 5.36085 0
M  V30 747 H 64.5764 -0.195407 0.803583 0
M  V30 748 H 67.1224 0.362813 1.65776 0
M  V30 749 H 65.8944 0.509043 3.87975 0
M  V30 750 H 65.5174 -1.20359 3.78945 0
M  V30 751 N 66.5145 -1.57545 0.0417849 0
M  V30 752 C 67.4615 -2.10977 -0.935805 0
M  V30 753 C 68.4315 -1.01486 -1.31491 0
M  V30 754 O 69.6165 -1.2898 -1.40602 0
M  V30 755 C 66.7565 -2.65169 -2.2086 0
M  V30 756 C 65.8695 -3.88714 -1.88482 0
M  V30 757 C 65.0045 -4.31254 -3.1015 0
M  V30 758 C 64.0435 -5.47524 -2.7365 0
M  V30 759 N 63.1805 -5.85162 -3.87982 0
M  V30 760 H 68.0205 -2.94218 -0.473249 0
M  V30 761 H 65.5575 -1.45415 -0.221981 0
M  V30 762 H 67.5155 -2.94685 -2.95325 0
M  V30 763 H 66.1455 -1.8474 -2.64709 0
M  V30 764 H 65.1975 -3.65849 -1.04205 0
M  V30 765 H 66.5095 -4.73245 -1.57608 0
M  V30 766 H 65.6635 -4.62273 -3.92923 0
M  V30 767 H 64.4025 -3.45516 -3.44195 0
M  V30 768 H 63.4075 -5.16187 -1.89291 0
M  V30 769 H 64.6325 -6.34971 -2.40807 0
M  V30 770 H 62.5785 -5.02377 -4.21846 0
M  V30 771 H 62.4955 -6.64362 -3.60775 0
M  V30 772 H 63.7635 -6.20791 -4.71422 0
M  V30 773 N 67.9926 0.231505 -1.5589 0
M  V30 774 C 69.2396 0.957352 -1.78441 0
M  V30 775 C 69.5676 1.84726 -0.60882 0
M  V30 776 O 68.8226 1.91416 0.40725 0
M  V30 777 C 69.1216 1.83577 -3.0665 0
M  V30 778 C 68.7876 1.09993 -4.37278 0
M  V30 779 C 67.4496 0.896629 -4.72773 0
M  V30 780 C 69.8016 0.579558 -5.17968 0
M  V30 781 C 67.1296 0.160896 -5.86479 0
M  V30 782 C 69.4816 -0.142783 -6.32439 0
M  V30 783 C 68.1456 -0.357427 -6.66542 0
M  V30 784 H 67.4156 0.35032 -0.65296 0
M  V30 785 H 70.0626 0.226259 -1.90159 0
M  V30 786 H 68.3676 2.63441 -2.90011 0
M  V30 787 H 70.0646 2.39934 -3.21298 0
M  V30 788 H 66.6546 1.26835 -4.09403 0
M  V30 789 H 70.8386 0.724125 -4.90989 0
M  V30 790 H 66.0946 -0.0157293 -6.11398 0
M  V30 791 H 70.2686 -0.553559 -6.94196 0
M  V30 792 H 67.8956 -0.929466 -7.54497 0
M  V30 793 N 69.4707 1.49531 0.497807 0
M  V30 794 C 70.3807 1.69176 1.62532 0
M  V30 795 C 71.3967 0.5744 1.64246 0
M  V30 796 O 72.5727 0.849497 1.82608 0
M  V30 797 C 69.6377 1.75695 2.98885 0
M  V30 798 C 68.6987 2.9929 3.07773 0
M  V30 799 C 67.9317 3.05488 4.37622 0
M  V30 800 O 68.1547 2.19192 5.26603 0
M  V30 801 O 67.0887 3.9798 4.51548 0
M  V30 802 H 70.9147 2.647 1.48887 0
M  V30 803 H 68.4997 1.3331 0.674441 0
M  V30 804 H 70.3817 1.82317 3.79919 0
M  V30 805 H 69.0567 0.8335 3.12785 0
M  V30 806 H 67.9637 2.98183 2.25915 0
M  V30 807 H 69.2967 3.91125 2.98801 0
M  V30 808 N 70.9488 -0.749086 1.3866 0
M  V30 809 C 71.8588 -1.89358 1.38494 0
M  V30 810 C 72.8748 -1.71708 0.281476 0
M  V30 811 O 74.0508 -1.94554 0.520643 0
M  V30 812 C 71.1158 -3.24782 1.21316 0
M  V30 813 C 70.1768 -3.54926 2.41508 0
M  V30 814 C 69.4098 -4.83888 2.2514 0
M  V30 815 O 69.6328 -5.56592 1.24746 0
M  V30 816 O 68.5668 -5.13612 3.13826 0
M  V30 817 H 72.3928 -1.92452 2.34938 0
M  V30 818 H 69.9778 -0.894981 1.19626 0
M  V30 819 H 71.8598 -4.05739 1.13814 0
M  V30 820 H 70.5348 -3.2249 0.279592 0
M  V30 821 H 69.4418 -2.74112 2.54585 0
M  V30 822 H 70.7748 -3.61983 3.3351 0
M  V30 823 N 72.4269 -1.23603 -0.977757 0
M  V30 824 C 73.3769 -0.986664 -2.05545 0
M  V30 825 C 74.3609 0.0683009 -1.60755 0
M  V30 826 O 75.5529 -0.144162 -1.76412 0
M  V30 827 C 72.6819 -0.582623 -3.3832 0
M  V30 828 C 71.7679 -1.67313 -3.89701 0
M  V30 829 N 72.1589 -2.90394 -4.14132 0
M  V30 830 C 70.4569 -1.54832 -4.18262 0
M  V30 831 C 71.1579 -3.61017 -4.56116 0
M  V30 832 N 70.1339 -2.8854 -4.60701 0
M  V30 833 H 73.9359 -1.92139 -2.22396 0
M  V30 834 H 71.4499 -1.1358 -1.16074 0
M  V30 835 H 73.4469 -0.38524 -4.15116 0
M  V30 836 H 72.1069 0.34503 -3.22862 0
M  V30 837 H 73.1179 -3.26673 -4.01877 0
M  V30 838 H 69.7949 -0.687969 -4.11793 0
M  V30 839 H 71.1849 -4.66544 -4.83514 0
M  V30 840 N 73.905 1.17692 -1.04816 0
M  V30 841 C 74.815 2.25229 -0.65643 0
M  V30 842 C 75.831 1.71018 0.320761 0
M  V30 843 O 77.007 2.00649 0.173805 0
M  V30 844 C 74.072 3.46684 -0.0332629 0
M  V30 845 C 73.133 4.15997 -1.06042 0
M  V30 846 C 72.366 5.31654 -0.466893 0
M  V30 847 O 72.589 5.65777 0.724758 0
M  V30 848 O 71.523 5.89831 -1.1993 0
M  V30 849 H 75.349 2.61016 -1.55255 0
M  V30 850 H 72.934 1.24919 -0.81949 0
M  V30 851 H 74.816 4.20234 0.313256 0
M  V30 852 H 73.491 3.12703 0.836566 0
M  V30 853 H 72.398 3.44482 -1.45886 0
M  V30 854 H 73.731 4.53996 -1.90127 0
M  V30 855 N 75.3831 0.828654 1.34056 0
M  V30 856 C 76.6311 0.41863 1.97717 0
M  V30 857 C 76.9521 -1.02314 1.66002 0
M  V30 858 O 76.2221 -1.71119 0.953683 0
M  V30 859 H 74.8021 0.151809 0.731412 0
M  V30 860 H 77.4641 1.05936 1.63596 0
M  V30 861 H 76.5601 0.542318 3.07352 0
M  V30 862 N 76.8612 -1.46375 0.584142 0
M  V30 863 C 78.2722 -1.86031 0.157959 0
M  V30 864 C 78.6232 -1.48753 -1.27933 0
M  V30 865 O 77.7482 -0.903098 -1.96655 0
M  V30 866 C 78.3432 -3.37642 0.279892 0
M  V30 867 C 76.9022 -3.76289 -0.09143 0
M  V30 868 C 76.0492 -2.7039 0.615178 0
M  V30 869 H 79.0002 -1.37509 0.792274 0
M  V30 870 H 79.0212 -3.77275 -0.494364 0
M  V30 871 H 78.5332 -3.64742 1.32607 0
M  V30 872 H 76.6342 -3.54806 -1.13769 0
M  V30 873 H 76.7472 -4.78246 0.285886 0
M  V30 874 H 75.1112 -2.5464 0.0552833 0
M  V30 875 H 75.8942 -3.0033 1.66303 0
M  V30 876 N 78.3393 -0.321999 -1.54275 0
M  V30 877 C 79.5853 0.281461 -2.00837 0
M  V30 878 C 79.9183 1.51909 -1.20985 0
M  V30 879 O 79.1933 1.923 -0.291733 0
M  V30 880 C 79.4763 0.617162 -3.54772 0
M  V30 881 C 79.3293 -0.631064 -4.45351 0
M  V30 882 C 80.6483 1.43542 -4.16033 0
M  V30 883 H 77.7673 0.100826 -0.730071 0
M  V30 884 H 80.4093 -0.438268 -1.84876 0
M  V30 885 H 78.5593 1.23034 -3.68504 0
M  V30 886 H 80.2313 -1.26934 -4.43492 0
M  V30 887 H 78.4743 -1.26025 -4.15091 0
M  V30 888 H 79.1453 -0.351735 -5.50878 0
M  V30 889 H 81.6213 0.917134 -4.05867 0
M  V30 890 H 80.4973 1.63907 -5.23856 0
M  V30 891 H 80.7583 2.43108 -3.69257 0
M  V30 892 N 79.8174 1.5752 -0.0501392 0
M  V30 893 C 81.2334 1.56631 0.306402 0
M  V30 894 C 81.4334 1.0577 1.71508 0
M  V30 895 O 80.4894 0.713837 2.422 0
M  V30 896 C 81.8024 3.00393 0.135811 0
M  V30 897 C 83.3504 3.12315 0.206993 0
M  V30 898 C 83.8254 4.57954 0.064944 0
M  V30 899 N 85.3164 4.63041 0.121254 0
M  V30 900 C 86.0514 5.73389 0.0354381 0
M  V30 901 N 85.5474 6.92724 -0.102666 0
M  V30 902 N 87.3404 5.62026 0.090946 0
M  V30 903 H 79.4914 1.88903 -0.971046 0
M  V30 904 H 81.7544 0.869876 -0.376855 0
M  V30 905 H 81.4604 3.41635 -0.835384 0
M  V30 906 H 81.3344 3.66373 0.897275 0
M  V30 907 H 83.7214 2.70973 1.16866 0
M  V30 908 H 83.8024 2.49016 -0.585208 0
M  V30 909 H 83.4464 4.99981 -0.893394 0
M  V30 910 H 83.3764 5.19258 0.876277 0
M  V30 911 H 85.8674 3.77216 0.227284 0
M  V30 912 H 86.1804 7.72633 -0.160882 0
M  V30 913 H 84.5254 6.94864 -0.137737 0
M  V30 914 H 87.7164 4.67684 0.197388 0
M  V30 915 H 87.8894 6.47997 0.0206089 0
M  V30 916 N 81.2955 -0.223234 1.56011 0
M  V30 917 C 82.5435 -0.946003 1.78592 0
M  V30 918 C 82.8645 -1.84936 0.618349 0
M  V30 919 O 82.1345 -1.92473 -0.364833 0
M  V30 920 H 80.7145 -0.352298 0.658707 0
M  V30 921 H 83.3765 -0.235494 1.93472 0
M  V30 922 H 82.4725 -1.55381 2.70672 0
M  V30 923 N 82.7736 -1.49793 -0.48987 0
M  V30 924 C 84.0226 -1.59085 -1.23995 0
M  V30 925 C 84.3356 -0.287907 -1.9347 0
M  V30 926 O 85.5416 -0.259506 -2.70257 0
M  V30 927 C 83.9976 -2.80736 -2.252 0
M  V30 928 C 83.6056 -4.17833 -1.61614 0
M  V30 929 C 85.3496 -2.99364 -3.00967 0
M  V30 930 C 83.2566 -5.30693 -2.60996 0
M  V30 931 H 82.1866 -0.592372 -0.466488 0
M  V30 932 H 84.8376 -1.76197 -0.51252 0
M  V30 933 H 83.2196 -2.57142 -3.01154 0
M  V30 934 H 84.3936 -4.51608 -0.915774 0
M  V30 935 H 82.7086 -4.04656 -0.981977 0
M  V30 936 H 85.3056 -3.80851 -3.75308 0
M  V30 937 H 85.6486 -2.10356 -3.59244 0
M  V30 938 H 86.1816 -3.2305 -2.32128 0
M  V30 939 H 82.9206 -6.21796 -2.07485 0
M  V30 940 H 82.4406 -5.01359 -3.2924 0
M  V30 941 H 84.1196 -5.6049 -3.23202 0
M  V30 942 N 84.2517 0.741722 -1.39055 0
M  V30 943 C 85.5287 1.49252 -1.26425 0
M  V30 944 C 85.9087 2.10705 0.129144 0
M  V30 945 O 85.2567 1.98045 1.13976 0
M  V30 946 C 85.4667 2.54934 -2.38347 0
M  V30 947 C 86.8147 3.21506 -2.77343 0
M  V30 948 O 87.8387 2.65245 -2.37747 0
M  V30 949 O 86.6977 4.23294 -3.45665 0
M  V30 950 H 83.7917 0.662451 -0.495064 0
M  V30 951 H 86.3377 0.776121 -1.50912 0
M  V30 952 H 85.1097 2.07857 -3.31529 0
M  V30 953 H 84.7327 3.34141 -2.15489 0
M  V30 954 N 85.7298 1.2412 0.971189 0
M  V30 955 C 86.9768 1.07881 1.71371 0
M  V30 956 C 87.3048 -0.382901 1.90694 0
M  V30 957 O 86.5598 -1.29945 1.46331 0
M  V30 958 C 86.8588 1.75983 3.11071 0
M  V30 959 C 86.5248 3.25909 3.11599 0
M  V30 960 C 85.1868 3.66813 3.11451 0
M  V30 961 C 87.5388 4.21771 3.062 0
M  V30 962 C 84.8668 5.02021 3.03631 0
M  V30 963 C 87.2188 5.56982 2.99923 0
M  V30 964 C 85.8828 5.97237 2.98102 0
M  V30 965 H 85.1528 0.394764 0.62709 0
M  V30 966 H 87.7998 1.54176 1.13587 0
M  V30 967 H 86.1048 1.22072 3.72298 0
M  V30 968 H 87.8018 1.60887 3.6731 0
M  V30 969 H 84.3918 2.93353 3.12477 0
M  V30 970 H 88.5758 3.91172 3.05447 0
M  V30 971 H 83.8318 5.32411 3.0058 0
M  V30 972 H 88.0058 6.30969 2.94704 0
M  V30 973 H 85.6328 7.01967 2.91798 0
M  V30 974 N 87.2079 -1.17134 1.05439 0
M  V30 975 C 88.1579 -2.1919 0.627675 0
M  V30 976 C 89.1419 -1.57328 -0.337147 0
M  V30 977 O 90.3339 -1.76329 -0.153976 0
M  V30 978 C 87.4629 -3.43299 0.00651435 0
M  V30 979 C 86.5489 -4.12255 0.995312 0
M  V30 980 N 86.9399 -4.56997 2.16765 0
M  V30 981 C 85.2379 -4.38316 0.824336 0
M  V30 982 C 85.9389 -5.10239 2.7934 0
M  V30 983 N 84.9149 -5.02595 2.07122 0
M  V30 984 H 88.7169 -2.5149 1.52086 0
M  V30 985 H 86.2309 -1.33491 0.924868 0
M  V30 986 H 88.2279 -4.15693 -0.316965 0
M  V30 987 H 86.8879 -3.1249 -0.882033 0
M  V30 988 H 87.8989 -4.51006 2.54587 0
M  V30 989 H 84.5759 -4.17498 -0.0129526 0
M  V30 990 H 85.9659 -5.54961 3.78772 0
M  V30 991 N 88.686 -0.835752 -1.33615 0
M  V30 992 C 89.634 -0.255238 -2.31195 0
M  V30 993 C 90.628 0.61107 -1.57995 0
M  V30 994 O 91.834 0.500979 -1.72888 0
M  V30 995 H 88.209 -0.0638085 -0.749288 0
M  V30 996 H 90.18 -1.09283 -2.77669 0
M  V30 997 C 88.929 0.55754 -3.43201 0
M  V30 998 H 88.252 -0.0997553 -3.99676 0
M  V30 999 H 89.692 0.929622 -4.13683 0
M  V30 1000 C 88.151 1.73515 -2.88781 0
M  V30 1001 O 88.681 2.83376 -2.84712 0
M  V30 1002 N 86.887 1.55603 -2.4543 0
M  V30 1003 H 86.434 0.662354 -2.48939 0
M  V30 1004 H 86.392 2.34545 -2.09371 0
M  V30 1005 N 90.1641 1.46063 -0.591896 0
M  V30 1006 C 91.4101 2.02638 -0.0811191 0
M  V30 1007 C 91.7431 1.4613 1.27905 0
M  V30 1008 O 91.0181 0.629908 1.84017 0
M  V30 1009 C 91.3011 3.60091 -0.0252436 0
M  V30 1010 C 91.1541 4.26965 -1.41496 0
M  V30 1011 C 92.4731 4.3496 0.670685 0
M  V30 1012 H 89.5921 0.73635 -0.0309524 0
M  V30 1013 H 92.2341 1.741 -0.760859 0
M  V30 1014 H 90.3841 3.84535 0.553624 0
M  V30 1015 H 92.0561 4.13756 -2.0397 0
M  V30 1016 H 90.2991 3.85971 -1.98011 0
M  V30 1017 H 90.9701 5.35781 -1.32825 0
M  V30 1018 H 93.4461 4.15716 0.178825 0
M  V30 1019 H 92.3221 5.44686 0.678837 0
M  V30 1020 H 92.5831 4.06685 1.73379 0
M  V30 1021 N 91.6422 0.330177 1.54103 0
M  V30 1022 C 92.5742 -0.566902 2.22079 0
M  V30 1023 C 93.5872 -1.07462 1.22294 0
M  V30 1024 O 94.7762 -0.987065 1.48726 0
M  V30 1025 C 91.8762 -1.79138 2.87685 0
M  V30 1026 C 91.0492 -1.42123 4.13666 0
M  V30 1027 C 90.1082 -2.50394 4.62806 0
M  V30 1028 O 89.1342 -2.14261 5.27334 0
M  V30 1029 N 90.3362 -3.81433 4.37595 0
M  V30 1030 H 93.1012 0.0151844 2.99696 0
M  V30 1031 H 90.6622 0.153681 1.61169 0
M  V30 1032 H 92.6542 -2.50975 3.1748 0
M  V30 1033 H 91.2242 -2.28115 2.13734 0
M  V30 1034 H 90.4442 -0.534201 3.90564 0
M  V30 1035 H 91.7322 -1.14971 4.9564 0
M  V30 1036 H 91.1302 -4.13584 3.8596 0
M  V30 1037 H 89.6872 -4.4948 4.72029 0
M  V30 1038 N 93.1203 -1.57491 0.0584922 0
M  V30 1039 C 94.5313 -1.80526 -0.476138 0
M  V30 1040 C 94.8823 -0.971334 -1.70469 0
M  V30 1041 O 94.0073 -0.190012 -2.15564 0
M  V30 1042 C 94.6023 -3.27424 -0.870587 0
M  V30 1043 C 93.1613 -3.51351 -1.35015 0
M  V30 1044 C 92.3083 -2.75343 -0.32887 0
M  V30 1045 H 95.2593 -1.56133 0.284312 0
M  V30 1046 H 95.2803 -3.38745 -1.73299 0
M  V30 1047 H 94.7923 -3.88093 0.0237627 0
M  V30 1048 H 92.8933 -2.95971 -2.26345 0
M  V30 1049 H 93.0063 -4.60059 -1.33726 0
M  V30 1050 H 91.3703 -2.417 -0.803321 0
M  V30 1051 H 92.1533 -3.38743 0.557521 0
M  V30 1052 N 94.5984 0.214957 -1.56127 0
M  V30 1053 C 95.5284 1.2695 -1.95974 0
M  V30 1054 C 96.5094 1.48539 -0.828868 0
M  V30 1055 O 97.6944 1.60611 -1.09168 0
M  V30 1056 C 94.8244 2.61794 -2.28214 0
M  V30 1057 C 93.7784 2.54851 -3.43853 0
M  V30 1058 C 93.1044 3.93785 -3.61715 0
M  V30 1059 C 94.4044 2.09065 -4.78632 0
M  V30 1060 H 96.0984 0.93846 -2.84312 0
M  V30 1061 H 93.6444 0.449996 -1.36788 0
M  V30 1062 H 95.5974 3.35731 -2.54682 0
M  V30 1063 H 94.3214 2.96599 -1.36736 0
M  V30 1064 H 92.9804 1.8337 -3.17444 0
M  V30 1065 H 92.6284 4.25908 -2.67602 0
M  V30 1066 H 92.3284 3.90019 -4.39498 0
M  V30 1067 H 93.8524 4.69374 -3.90539 0
M  V30 1068 H 95.2664 2.7275 -5.04262 0
M  V30 1069 H 93.6634 2.16346 -5.59745 0
M  V30 1070 H 94.7334 1.04315 -4.73547 0
M  V30 1071 N 96.0765 1.50051 0.48192 0
M  V30 1072 C 97.3235 1.60498 1.23477 0
M  V30 1073 C 97.6515 0.300331 1.92167 0
M  V30 1074 O 96.9065 -0.713094 1.82246 0
M  V30 1075 C 97.2055 2.72717 2.30998 0
M  V30 1076 C 96.8715 4.13572 1.79636 0
M  V30 1077 C 95.5335 4.519 1.65348 0
M  V30 1078 C 97.8855 5.01649 1.41412 0
M  V30 1079 C 95.2135 5.76057 1.11244 0
M  V30 1080 C 97.5655 6.26343 0.887538 0
M  V30 1081 C 96.2295 6.63483 0.731207 0
M  V30 1082 H 95.4995 0.587303 0.451836 0
M  V30 1083 H 98.1465 1.83948 0.532468 0
M  V30 1084 H 96.4515 2.43312 3.07094 0
M  V30 1085 H 98.1485 2.78006 2.88988 0
M  V30 1086 H 94.7385 3.83329 1.91721 0
M  V30 1087 H 98.9225 4.72679 1.51289 0
M  V30 1088 H 94.1785 6.03516 0.978686 0
M  V30 1089 H 98.3525 6.93958 0.582654 0
M  V30 1090 H 95.9795 7.59568 0.309806 0
M  V30 1091 N 97.5546 -0.734337 1.39446 0
M  V30 1092 C 98.8006 -1.49613 1.36908 0
M  V30 1093 C 99.1336 -1.94169 -0.0347829 0
M  V30 1094 O 98.4086 -1.66833 -0.999847 0
M  V30 1095 C 98.6916 -2.73534 2.34203 0
M  V30 1096 C 98.5446 -2.34993 3.83534 0
M  V30 1097 C 99.8636 -3.75635 2.29317 0
M  V30 1098 H 96.9826 -0.542714 0.498629 0
M  V30 1099 H 99.6246 -0.839597 1.70443 0
M  V30 1100 H 97.7746 -3.29553 2.05736 0
M  V30 1101 H 99.4466 -1.84601 4.22753 0
M  V30 1102 H 97.6896 -1.67213 4.00278 0
M  V30 1103 H 98.3606 -3.23738 4.47099 0
M  V30 1104 H 100.837 -3.29203 2.54489 0
M  V30 1105 H 99.7126 -4.60008 2.99472 0
M  V30 1106 H 99.9736 -4.22603 1.29842 0
M  V30 1107 N 99.0327 -1.24633 -0.964593 0
M  V30 1108 C 100.258 -1.11596 -1.74818 0
M  V30 1109 C 100.683 0.32723 -1.85232 0
M  V30 1110 O 100.041 1.23695 -1.32549 0
M  V30 1111 C 100.089 -1.76397 -3.1451 0
M  V30 1112 O 99.1927 -1.03685 -3.99153 0
M  V30 1113 H 98.5337 -0.390196 -0.537255 0
M  V30 1114 H 101.064 -1.65002 -1.20977 0
M  V30 1115 H 101.074 -1.8228 -3.65018 0
M  V30 1116 H 99.7487 -2.81401 -3.06246 0
M  V30 1117 H 98.3257 -1.05611 -3.57632 0
M  V30 1118 N 100.511 1.16574 -1.06058 0
M  V30 1119 C 101.759 1.86677 -0.77434 0
M  V30 1120 C 102.08 1.81959 0.701147 0
M  V30 1121 O 101.35 1.2515 1.50713 0
M  V30 1122 H 99.9298 0.691134 -0.283449 0
M  V30 1123 H 102.592 1.41378 -1.34158 0
M  V30 1124 H 101.688 2.92181 -1.09711 0
M  V30 1125 N 101.989 0.842826 1.3317 0
M  V30 1126 C 102.952 0.284065 2.27433 0
M  V30 1127 C 103.952 -0.54948 1.5112 0
M  V30 1128 O 105.142 -0.362699 1.70382 0
M  V30 1129 C 102.274 -0.599384 3.35589 0
M  V30 1130 H 103.467 1.11589 2.78366 0
M  V30 1131 H 101.02 0.616221 1.4364 0
M  V30 1132 H 101.755 -1.45349 2.89904 0
M  V30 1133 H 101.54 -0.00291266 3.921 0
M  V30 1134 H 103.03 -0.983488 4.05854 0
M  V30 1135 N 103.467 -1.45747 0.599634 0
M  V30 1136 C 104.744 -1.95585 0.0240846 0
M  V30 1137 C 105.124 -1.54217 -1.44154 0
M  V30 1138 O 104.472 -0.800903 -2.14004 0
M  V30 1139 C 104.682 -3.48344 0.21385 0
M  V30 1140 C 106.03 -4.24504 0.0904902 0
M  V30 1141 O 107.054 -3.55911 0.143558 0
M  V30 1142 O 105.913 -5.46491 -0.0310766 0
M  V30 1143 H 103.007 -0.82602 -0.0402478 0
M  V30 1144 H 105.553 -1.55951 0.669139 0
M  V30 1145 H 104.325 -3.71397 1.23206 0
M  V30 1146 H 103.948 -3.9485 -0.466842 0
M  V30 1147 N 104.945 -0.338344 -1.53925 0
M  V30 1148 C 106.222 0.314774 -1.93051 0
M  V30 1149 C 106.602 1.68669 -1.26941 0
M  V30 1150 O 105.95 2.24636 -0.418445 0
M  V30 1151 C 106.16 0.392249 -3.46789 0
M  V30 1152 C 107.508 0.645554 -4.19664 0
M  V30 1153 O 108.532 0.474575 -3.53024 0
M  V30 1154 O 107.391 0.976408 -5.37707 0
M  V30 1155 H 104.485 0.182598 -0.80659 0
M  V30 1156 H 107.031 -0.389141 -1.65178 0
M  V30 1157 H 105.803 -0.570702 -3.87116 0
M  V30 1158 H 105.426 1.14316 -3.80812 0
M  V30 1159 N 106.423 1.57458 -0.0668435 0
M  V30 1160 C 107.653 1.97337 0.611677 0
M  V30 1161 C 108.061 0.943744 1.63982 0
M  V30 1162 O 107.404 -0.0785584 1.83532 0
M  V30 1163 C 107.466 3.33511 1.34205 0
M  V30 1164 C 107.13 4.54598 0.467941 0
M  V30 1165 C 108.127 5.19186 -0.272439 0
M  V30 1166 C 105.812 5.0075 0.39427 0
M  V30 1167 C 107.806 6.28274 -1.07476 0
M  V30 1168 C 105.493 6.09711 -0.411729 0
M  V30 1169 C 106.491 6.73335 -1.14492 0
M  V30 1170 O 106.179 7.80199 -1.93763 0
M  V30 1171 H 105.911 0.654042 0.170893 0
M  V30 1172 H 108.465 2.04961 -0.134289 0
M  V30 1173 H 106.695 3.22487 2.13398 0
M  V30 1174 H 108.384 3.58029 1.91233 0
M  V30 1175 H 109.15 4.84477 -0.225086 0
M  V30 1176 H 105.029 4.51009 0.954569 0
M  V30 1177 H 108.573 6.77866 -1.64755 0
M  V30 1178 H 104.47 6.43854 -0.460664 0
M  V30 1179 H 105.238 7.97053 -1.86142 0
M  V30 1180 N 107.901 -0.206675 1.56239 0
M  V30 1181 C 108.831 -1.25909 1.96645 0
M  V30 1182 C 109.812 -1.48097 0.836734 0
M  V30 1183 O 110.997 -1.6003 1.10019 0
M  V30 1184 C 108.127 -2.6058 2.29599 0
M  V30 1185 C 107.081 -2.53024 3.452 0
M  V30 1186 C 106.407 -3.91861 3.63798 0
M  V30 1187 C 107.707 -2.06524 4.79734 0
M  V30 1188 H 109.401 -0.923369 2.84806 0
M  V30 1189 H 106.947 -0.442735 1.37025 0
M  V30 1190 H 108.9 -3.34375 2.56459 0
M  V30 1191 H 107.624 -2.95869 1.38307 0
M  V30 1192 H 106.283 -1.81684 3.18412 0
M  V30 1193 H 105.931 -4.24483 2.69857 0
M  V30 1194 H 105.631 -3.87683 4.4156 0
M  V30 1195 H 107.155 -4.67296 3.93022 0
M  V30 1196 H 108.569 -2.70072 5.05702 0
M  V30 1197 H 106.966 -2.13374 5.60885 0
M  V30 1198 H 108.036 -1.01802 4.74093 0
M  V30 1199 N 109.379 -1.50304 -0.473955 0
M  V30 1200 C 110.628 -1.60392 -1.22301 0
M  V30 1201 C 110.941 -0.308411 -1.93153 0
M  V30 1202 O 112.147 -0.288156 -2.69966 0
M  V30 1203 C 110.603 -2.83109 -2.2221 0
M  V30 1204 C 110.211 -4.19524 -1.57173 0
M  V30 1205 C 111.955 -3.0254 -2.97775 0
M  V30 1206 C 109.862 -5.33431 -2.55353 0
M  V30 1207 H 108.792 -0.597286 -0.460179 0
M  V30 1208 H 111.443 -1.76731 -0.493803 0
M  V30 1209 H 109.825 -2.60322 -2.9841 0
M  V30 1210 H 110.999 -4.52554 -0.867824 0
M  V30 1211 H 109.314 -4.05674 -0.939002 0
M  V30 1212 H 111.911 -3.84811 -3.71248 0
M  V30 1213 H 112.254 -2.14154 -3.56992 0
M  V30 1214 H 112.787 -3.25494 -2.28688 0
M  V30 1215 H 109.526 -6.23962 -2.00878 0
M  V30 1216 H 109.046 -5.04823 -3.23904 0
M  V30 1217 H 110.725 -5.63887 -3.17239 0
M  V30 1218 N 110.857 0.726932 -1.39834 0
M  V30 1219 C 111.804 1.841 -1.39197 0
M  V30 1220 C 112.774 1.642 -0.250502 0
M  V30 1221 O 113.959 1.85494 -0.446846 0
M  V30 1222 C 111.099 3.21697 -1.24919 0
M  V30 1223 C 110.212 3.53247 -2.48678 0
M  V30 1224 C 109.347 4.80289 -2.26928 0
M  V30 1225 C 108.386 5.04707 -3.4632 0
M  V30 1226 N 107.523 6.22956 -3.23836 0
M  V30 1227 H 112.363 1.83979 -2.34427 0
M  V30 1228 H 109.9 0.898876 -1.16442 0
M  V30 1229 H 111.858 4.01137 -1.1465 0
M  V30 1230 H 110.488 3.21076 -0.333153 0
M  V30 1231 H 109.54 2.68447 -2.69519 0
M  V30 1232 H 110.852 3.67205 -3.37582 0
M  V30 1233 H 110.006 5.67725 -2.13947 0
M  V30 1234 H 108.745 4.68519 -1.35431 0
M  V30 1235 H 107.75 4.1573 -3.5979 0
M  V30 1236 H 108.975 5.18357 -4.38729 0
M  V30 1237 H 106.921 6.12459 -2.35011 0
M  V30 1238 H 106.838 6.37539 -4.063 0
M  V30 1239 H 108.106 7.1321 -3.14566 0
M  V30 1240 N 112.336 1.25143 0.95797 0
M  V30 1241 C 113.582 1.09855 1.70469 0
M  V30 1242 C 113.915 -0.360187 1.90831 0
M  V30 1243 O 113.19 -1.26568 1.47685 0
M  V30 1244 C 113.473 1.8497 3.08963 0
M  V30 1245 C 113.326 3.38652 2.96032 0
M  V30 1246 C 114.645 1.63016 4.08795 0
M  V30 1247 H 111.764 0.400465 0.618706 0
M  V30 1248 H 114.406 1.53933 1.11376 0
M  V30 1249 H 112.556 1.47505 3.59409 0
M  V30 1250 H 114.228 3.85772 2.52938 0
M  V30 1251 H 112.471 3.66534 2.32025 0
M  V30 1252 H 113.142 3.8642 3.94187 0
M  V30 1253 H 115.618 1.95625 3.67247 0
M  V30 1254 H 114.494 2.18015 5.03747 0
M  V30 1255 H 114.755 0.570692 4.38401 0
M  V30 1256 N 113.814 -1.1601 1.06675 0
M  V30 1257 C 115.06 -1.87145 0.796766 0
M  V30 1258 C 115.415 -1.8037 -0.669658 0
M  V30 1259 O 114.708 -1.21116 -1.48463 0
M  V30 1260 C 114.902 -3.35547 1.23057 0
M  V30 1261 C 114.731 -3.56769 2.73762 0
M  V30 1262 C 113.501 -3.72635 3.41279 0
M  V30 1263 C 115.699 -3.55166 3.7197 0
M  V30 1264 N 113.681 -3.81845 4.80695 0
M  V30 1265 C 115.052 -3.70406 4.97191 0
M  V30 1266 C 117.107 -3.384 3.65226 0
M  V30 1267 C 115.81 -3.70615 6.16471 0
M  V30 1268 C 117.836 -3.39904 4.83962 0
M  V30 1269 C 117.198 -3.55667 6.08013 0
M  V30 1270 H 113.297 -0.702267 0.344014 0
M  V30 1271 H 115.881 -1.39165 1.36166 0
M  V30 1272 H 114.052 -3.82159 0.693456 0
M  V30 1273 H 115.784 -3.94363 0.908844 0
M  V30 1274 H 112.539 -3.73121 2.91681 0
M  V30 1275 H 112.963 -3.90209 5.53232 0
M  V30 1276 H 117.605 -3.25138 2.70269 0
M  V30 1277 H 115.323 -3.82658 7.11757 0
M  V30 1278 H 118.909 -3.28169 4.80413 0
M  V30 1279 H 117.789 -3.56755 6.98352 0
M  V30 1280 N 115.292 -0.849877 -1.32721 0
M  V30 1281 C 116.24 -0.279745 -2.30912 0
M  V30 1282 C 117.234 0.594278 -1.58634 0
M  V30 1283 O 118.44 0.482613 -1.73409 0
M  V30 1284 H 114.815 -0.0717521 -0.748569 0
M  V30 1285 H 116.786 -1.12222 -2.76494 0
M  V30 1286 C 115.535 0.521108 -3.43773 0
M  V30 1287 H 114.858 -0.142141 -3.99547 0
M  V30 1288 H 116.298 0.885693 -4.14646 0
M  V30 1289 C 114.757 1.70442 -2.90605 0
M  V30 1290 O 115.287 2.8034 -2.87702 0
M  V30 1291 N 113.493 1.52991 -2.47067 0
M  V30 1292 H 113.04 0.635914 -2.49628 0
M  V30 1293 H 112.998 2.32311 -2.11847 0
M  V30 1294 N 116.77 1.45427 -0.607355 0
M  V30 1295 C 118.019 2.01452 -0.100036 0
M  V30 1296 C 118.332 1.48159 1.27704 0
M  V30 1297 O 119.538 1.96159 1.87707 0
M  V30 1298 C 117.994 3.59672 -0.128158 0
M  V30 1299 C 117.602 4.21962 -1.50507 0
M  V30 1300 C 119.346 4.23262 0.323932 0
M  V30 1301 C 117.253 5.72333 -1.48959 0
M  V30 1302 H 116.183 0.75325 -0.0336299 0
M  V30 1303 H 118.834 1.66901 -0.76265 0
M  V30 1304 H 117.216 3.91411 0.601105 0
M  V30 1305 H 118.39 4.01796 -2.25602 0
M  V30 1306 H 116.705 3.70565 -1.89923 0
M  V30 1307 H 119.302 5.33522 0.354691 0
M  V30 1308 H 119.645 3.93921 1.34656 0
M  V30 1309 H 120.178 3.96239 -0.352056 0
M  V30 1310 H 116.917 6.06373 -2.48981 0
M  V30 1311 H 116.437 5.94691 -0.781214 0
M  V30 1312 H 118.116 6.35525 -1.21313 0
M  V30 1313 N 118.248 0.346503 1.53744 0
M  V30 1314 C 119.198 -0.524953 2.21874 0
M  V30 1315 C 120.182 -1.06376 1.20718 0
M  V30 1316 O 121.374 -0.996972 1.46251 0
M  V30 1317 C 118.503 -1.6739 2.99726 0
M  V30 1318 C 117.589 -1.14888 4.08242 0
M  V30 1319 N 117.98 -0.345329 5.0462 0
M  V30 1320 C 116.278 -1.4255 4.22606 0
M  V30 1321 C 116.979 -0.0600706 5.81669 0
M  V30 1322 N 115.955 -0.65252 5.39669 0
M  V30 1323 H 119.757 0.0960091 2.93743 0
M  V30 1324 H 117.271 0.15352 1.61673 0
M  V30 1325 H 119.268 -2.3102 3.47038 0
M  V30 1326 H 117.928 -2.29811 2.29384 0
M  V30 1327 H 118.939 0.0138439 5.17898 0
M  V30 1328 H 115.616 -2.05389 3.63486 0
M  V30 1329 H 117.006 0.588321 6.69319 0
M  V30 1330 N 119.726 -1.57421 0.075193 0
M  V30 1331 C 120.656 -2.15942 -0.888324 0
M  V30 1332 C 121.637 -1.08737 -1.30806 0
M  V30 1333 O 122.822 -1.36787 -1.37851 0
M  V30 1334 C 119.952 -2.72379 -2.1547 0
M  V30 1335 C 118.906 -3.8478 -1.87425 0
M  V30 1336 C 118.232 -4.27834 -3.20721 0
M  V30 1337 C 119.532 -5.08869 -1.17684 0
M  V30 1338 H 121.226 -2.96705 -0.400799 0
M  V30 1339 H 118.772 -1.42723 -0.191342 0
M  V30 1340 H 120.725 -3.11965 -2.83295 0
M  V30 1341 H 119.449 -1.88841 -2.6647 0
M  V30 1342 H 118.108 -3.45703 -1.22004 0
M  V30 1343 H 117.756 -3.41214 -3.6957 0
M  V30 1344 H 117.456 -5.03605 -3.02746 0
M  V30 1345 H 118.98 -4.70039 -3.89738 0
M  V30 1346 H 120.394 -5.4575 -1.75584 0
M  V30 1347 H 118.791 -5.8994 -1.09956 0
M  V30 1348 H 119.861 -4.84648 -0.156453 0
M  V30 1349 N 121.204 0.198386 -1.56346 0
M  V30 1350 C 122.151 1.24589 -1.94284 0
M  V30 1351 C 123.121 1.454 -0.802997 0
M  V30 1352 O 124.306 1.58588 -1.06087 0
M  V30 1353 C 121.446 2.58631 -2.28482 0
M  V30 1354 C 120.559 2.45426 -3.55514 0
M  V30 1355 C 119.694 3.7215 -3.79049 0
M  V30 1356 C 118.733 3.53763 -4.99518 0
M  V30 1357 N 117.87 4.72491 -5.19323 0
M  V30 1358 H 122.71 0.915356 -2.83593 0
M  V30 1359 H 120.247 0.440629 -1.40346 0
M  V30 1360 H 122.205 3.3672 -2.46324 0
M  V30 1361 H 120.835 2.89734 -1.42317 0
M  V30 1362 H 119.887 1.58652 -3.45737 0
M  V30 1363 H 121.199 2.27772 -4.43758 0
M  V30 1364 H 120.353 4.58679 -3.97113 0
M  V30 1365 H 119.092 3.92754 -2.89129 0
M  V30 1366 H 118.097 2.65619 -4.8138 0
M  V30 1367 H 119.322 3.34607 -5.90944 0
M  V30 1368 H 117.268 4.93365 -4.3235 0
M  V30 1369 H 117.185 4.5765 -6.01741 0
M  V30 1370 H 118.453 5.6038 -5.41843 0
M  V30 1371 N 122.682 1.50554 0.465978 0
M  V30 1372 C 123.629 1.6979 1.56333 0
M  V30 1373 C 124.599 0.539239 1.57103 0
M  V30 1374 O 125.784 0.770401 1.74555 0
M  V30 1375 C 122.924 1.80273 2.94271 0
M  V30 1376 C 122.037 3.07674 3.0325 0
M  V30 1377 C 121.172 3.08922 4.32135 0
M  V30 1378 C 120.211 4.30755 4.34875 0
M  V30 1379 N 119.348 4.29714 5.55239 0
M  V30 1380 H 124.188 2.63472 1.39235 0
M  V30 1381 H 121.725 1.30602 0.676873 0
M  V30 1382 H 123.683 1.84332 3.74269 0
M  V30 1383 H 122.313 0.900258 3.09992 0
M  V30 1384 H 121.365 3.13062 2.16094 0
M  V30 1385 H 122.677 3.97642 3.01135 0
M  V30 1386 H 121.831 3.11738 5.20485 0
M  V30 1387 H 120.57 2.16792 4.36866 0
M  V30 1388 H 119.575 4.28146 3.44922 0
M  V30 1389 H 120.8 5.24117 4.31831 0
M  V30 1390 H 118.746 3.4044 5.60746 0
M  V30 1391 H 118.663 5.13456 5.54886 0
M  V30 1392 H 119.931 4.36683 6.457 0
M  V30 1393 N 124.16 -0.719506 1.40217 0
M  V30 1394 C 125.4 -1.49181 1.39729 0
M  V30 1395 C 125.764 -1.92 -0.00250614 0
M  V30 1396 O 126.965 -2.68473 -0.132479 0
M  V30 1397 C 125.236 -2.68767 2.35582 0
M  V30 1398 S 126.795 -3.58224 2.53418 0
M  V30 1399 H 123.613 -0.510091 0.495307 0
M  V30 1400 H 126.215 -0.841724 1.76452 0
M  V30 1401 H 124.919 -2.35475 3.36124 0
M  V30 1402 H 124.45 -3.38691 2.0013 0
M  V30 1403 H 126.465 -4.63033 1.78367 0
M  V30 1404 N 125.638 -1.25649 -0.95132 0
M  V30 1405 C 126.884 -1.10757 -1.69884 0
M  V30 1406 C 127.217 0.350061 -1.91019 0
M  V30 1407 O 126.492 1.25783 -1.48354 0
M  V30 1408 C 126.775 -1.86606 -3.07978 0
M  V30 1409 C 126.628 -3.40217 -2.94232 0
M  V30 1410 C 127.947 -1.65182 -4.07925 0
M  V30 1411 H 125.066 -0.40374 -0.616574 0
M  V30 1412 H 127.708 -1.54521 -1.10558 0
M  V30 1413 H 125.858 -1.49409 -3.58621 0
M  V30 1414 H 127.53 -3.87108 -2.50889 0
M  V30 1415 H 125.773 -3.67759 -2.30078 0
M  V30 1416 H 126.444 -3.88505 -3.92133 0
M  V30 1417 H 128.92 -1.9757 -3.66204 0
M  V30 1418 H 127.796 -2.20683 -5.02583 0
M  V30 1419 H 128.057 -0.593933 -4.38092 0
M  V30 1420 N 127.117 1.15442 -1.07289 0
M  V30 1421 C 128.364 1.86213 -0.795668 0
M  V30 1422 C 128.692 1.82291 0.678238 0
M  V30 1423 O 127.947 1.24057 1.51355 0
M  V30 1424 C 128.246 3.3489 -1.24834 0
M  V30 1425 C 127.912 3.59007 -2.72809 0
M  V30 1426 C 126.574 3.65298 -3.13227 0
M  V30 1427 C 128.926 3.68762 -3.68326 0
M  V30 1428 C 126.254 3.78854 -4.4798 0
M  V30 1429 C 128.606 3.83842 -5.0284 0
M  V30 1430 C 127.27 3.88378 -5.4288 0
M  V30 1431 H 126.54 0.681403 -0.291155 0
M  V30 1432 H 129.187 1.36435 -1.34379 0
M  V30 1433 H 127.492 3.8687 -0.619595 0
M  V30 1434 H 129.189 3.88052 -1.01076 0
M  V30 1435 H 125.779 3.5475 -2.40521 0
M  V30 1436 H 129.963 3.63202 -3.38227 0
M  V30 1437 H 125.219 3.80623 -4.78472 0
M  V30 1438 H 129.393 3.90332 -5.76727 0
M  V30 1439 H 127.02 3.98635 -6.47298 0
M  V30 1440 N 128.595 0.856903 1.32268 0
M  V30 1441 C 129.543 0.291987 2.3076 0
M  V30 1442 C 130.537 -0.585857 1.58947 0
M  V30 1443 O 131.743 -0.47341 1.73663 0
M  V30 1444 H 128.118 0.075721 0.748178 0
M  V30 1445 H 130.089 1.13687 2.75895 0
M  V30 1446 C 128.838 -0.502869 3.44044 0
M  V30 1447 H 128.161 0.163328 3.99466 0
M  V30 1448 H 129.601 -0.863691 4.1511 0
M  V30 1449 C 128.06 -1.68898 2.91505 0
M  V30 1450 O 128.59 -2.78811 2.89184 0
M  V30 1451 N 126.796 -1.51679 2.47875 0
M  V30 1452 H 126.343 -0.622666 2.49961 0
M  V30 1453 H 126.301 -2.31184 2.13076 0
M  V30 1454 N 130.073 -1.45103 0.615059 0
M  V30 1455 C 131.003 -2.33339 -0.0865619 0
M  V30 1456 C 131.984 -1.4727 -0.851209 0
M  V30 1457 O 133.169 -1.76026 -0.820281 0
M  V30 1458 C 130.299 -3.30095 -1.07956 0
M  V30 1459 C 129.253 -4.25858 -0.427628 0
M  V30 1460 C 128.579 -5.12361 -1.5294 0
M  V30 1461 C 129.879 -5.18165 0.655944 0
M  V30 1462 H 131.573 -2.92254 0.650224 0
M  V30 1463 H 129.119 -1.40532 0.314138 0
M  V30 1464 H 131.072 -3.90698 -1.57901 0
M  V30 1465 H 129.796 -2.69355 -1.84703 0
M  V30 1466 H 128.455 -3.66564 0.0510292 0
M  V30 1467 H 128.103 -4.47984 -2.28734 0
M  V30 1468 H 127.803 -5.77238 -1.09865 0
M  V30 1469 H 129.327 -5.75833 -2.03098 0
M  V30 1470 H 130.741 -5.72796 0.240257 0
M  V30 1471 H 129.138 -5.91559 1.00888 0
M  V30 1472 H 130.208 -4.60144 1.52957 0
M  V30 1473 N 131.551 -0.354651 -1.53558 0
M  V30 1474 C 132.797 0.238797 -2.01389 0
M  V30 1475 C 133.13 1.49309 -1.2418 0
M  V30 1476 O 132.405 1.91638 -0.332457 0
M  V30 1477 C 132.688 0.541771 -3.56001 0
M  V30 1478 C 132.541 -0.725388 -4.43912 0
M  V30 1479 C 133.86 1.34685 -4.18984 0
M  V30 1480 H 130.979 0.0853177 -0.732045 0
M  V30 1481 H 133.621 -0.477384 -1.83905 0
M  V30 1482 H 131.771 1.15189 -3.71031 0
M  V30 1483 H 133.443 -1.36313 -4.407 0
M  V30 1484 H 131.686 -1.34801 -4.12324 0
M  V30 1485 H 132.357 -0.468505 -5.50008 0
M  V30 1486 H 134.833 0.830837 -4.07721 0
M  V30 1487 H 133.709 1.52759 -5.27215 0
M  V30 1488 H 133.97 2.35221 -3.74331 0
M  V30 1489 N 133.029 1.57378 -0.0835403 0
M  V30 1490 C 134.277 1.93547 0.581718 0
M  V30 1491 C 134.598 0.96524 1.69435 0
M  V30 1492 O 133.868 0.0153369 1.95894 0
M  V30 1493 H 132.448 0.714521 0.217874 0
M  V30 1494 H 135.11 1.94366 -0.144158 0
M  V30 1495 H 134.206 2.95665 0.999423 0
M  V30 1496 N 134.507 -0.190092 1.56449 0
M  V30 1497 C 135.457 -1.23977 1.91347 0
M  V30 1498 C 136.441 -1.40747 0.779693 0
M  V30 1499 O 137.633 -1.43033 1.04262 0
M  V30 1500 C 134.762 -2.58347 2.26079 0
M  V30 1501 C 133.848 -2.4535 3.45925 0
M  V30 1502 N 134.239 -2.02039 4.63696 0
M  V30 1503 C 132.537 -2.76229 3.50162 0
M  V30 1504 C 133.238 -2.01053 5.4585 0
M  V30 1505 N 132.214 -2.42747 4.8639 0
M  V30 1506 H 136.016 -0.896318 2.79899 0
M  V30 1507 H 133.53 -0.398496 1.57435 0
M  V30 1508 H 135.527 -3.34173 2.49267 0
M  V30 1509 H 134.187 -2.93512 1.38856 0
M  V30 1510 H 135.198 -1.7267 4.88268 0
M  V30 1511 H 131.875 -3.15556 2.73369 0
M  V30 1512 H 133.265 -1.69426 6.50188 0
M  V30 1513 N 135.985 -1.50799 -0.457987 0
M  V30 1514 C 136.915 -1.73553 -1.5621 0
M  V30 1515 C 137.896 -0.584774 -1.59732 0
M  V30 1516 O 139.081 -0.825314 -1.7579 0
M  V30 1517 C 136.211 -1.84169 -2.94447 0
M  V30 1518 C 135.165 -2.99461 -3.0579 0
M  V30 1519 C 134.491 -2.95235 -4.45803 0
M  V30 1520 C 135.791 -4.39766 -2.81786 0
M  V30 1521 H 137.485 -2.66 -1.37421 0
M  V30 1522 H 135.031 -1.28002 -0.659662 0
M  V30 1523 H 136.984 -1.98672 -3.71628 0
M  V30 1524 H 135.708 -0.883545 -3.14422 0
M  V30 1525 H 134.367 -2.8463 -2.31044 0
M  V30 1526 H 134.015 -1.97239 -4.62715 0
M  V30 1527 H 133.715 -3.72642 -4.54326 0
M  V30 1528 H 135.239 -3.11803 -5.24987 0
M  V30 1529 H 136.653 -4.55054 -3.4871 0
M  V30 1530 H 135.05 -5.18722 -3.0174 0
M  V30 1531 H 136.12 -4.51229 -1.7754 0
M  V30 1532 N 137.463 0.71206 -1.40597 0
M  V30 1533 C 138.74 1.46536 -1.29563 0
M  V30 1534 C 139.12 2.10931 0.0844217 0
M  V30 1535 O 138.468 2.00418 1.0975 0
M  V30 1536 C 138.678 2.49821 -2.43701 0
M  V30 1537 C 140.026 3.15551 -2.841 0
M  V30 1538 O 141.05 2.60142 -2.4332 0
M  V30 1539 O 139.909 4.15867 -3.54566 0
M  V30 1540 H 137.003 0.651801 -0.509004 0
M  V30 1541 H 139.549 0.743935 -1.52524 0
M  V30 1542 H 138.321 2.00778 -3.35863 0
M  V30 1543 H 137.944 3.29495 -2.22528 0
M  V30 1544 N 138.941 1.26152 0.944643 0
M  V30 1545 C 140.171 1.14094 1.72239 0
M  V30 1546 C 140.579 -0.306931 1.86694 0
M  V30 1547 O 139.922 -1.22222 1.3714 0
M  V30 1548 C 139.984 1.73316 3.14963 0
M  V30 1549 C 139.648 3.2239 3.23904 0
M  V30 1550 C 140.645 4.19252 3.07447 0
M  V30 1551 C 138.33 3.62788 3.47405 0
M  V30 1552 C 140.324 5.54491 3.14353 0
M  V30 1553 C 138.011 4.98162 3.53947 0
M  V30 1554 C 139.009 5.93823 3.37436 0
M  V30 1555 O 138.697 7.26732 3.43679 0
M  V30 1556 H 138.429 0.398292 0.546205 0
M  V30 1557 H 140.983 1.67201 1.19301 0
M  V30 1558 H 139.213 1.14667 3.69308 0
M  V30 1559 H 140.902 1.56214 3.74636 0
M  V30 1560 H 141.668 3.8938 2.8915 0
M  V30 1561 H 137.547 2.88816 3.59313 0
M  V30 1562 H 141.091 6.29137 3.01384 0
M  V30 1563 H 136.988 5.27695 3.71763 0
M  V30 1564 H 137.756 7.3496 3.60245 0
M  V30 1565 N 140.419 -1.14872 1.07899 0
M  V30 1566 C 141.668 -1.85135 0.800499 0
M  V30 1567 C 141.981 -1.83547 -0.676014 0
M  V30 1568 O 143.187 -2.49548 -1.06948 0
M  V30 1569 C 141.643 -3.3231 1.38197 0
M  V30 1570 C 141.251 -3.42329 2.8899 0
M  V30 1571 C 142.995 -4.0772 1.18174 0
M  V30 1572 C 140.902 -4.83684 3.403 0
M  V30 1573 H 139.832 -0.693563 0.29578 0
M  V30 1574 H 142.483 -1.29532 1.29976 0
M  V30 1575 H 140.865 -3.87618 0.810431 0
M  V30 1576 H 142.039 -2.97097 3.52236 0
M  V30 1577 H 140.354 -2.80369 3.07867 0
M  V30 1578 H 142.951 -5.12049 1.5398 0
M  V30 1579 H 143.294 -4.16124 0.12117 0
M  V30 1580 H 143.827 -3.58696 1.71994 0
M  V30 1581 H 140.566 -4.80465 4.45907 0
M  V30 1582 H 140.086 -5.29474 2.81811 0
M  V30 1583 H 141.765 -5.52558 3.36584 0
M  V30 1584 N 141.898 -0.863906 -1.31812 0
M  V30 1585 C 143.314 -0.555004 -1.49639 0
M  V30 1586 C 143.514 0.912266 -1.79666 0
M  V30 1587 O 142.57 1.69479 -1.87171 0
M  V30 1588 C 143.883 -1.44998 -2.63431 0
M  V30 1589 C 145.431 -1.45138 -2.77316 0
M  V30 1590 C 145.906 -2.33179 -3.94197 0
M  V30 1591 N 147.397 -2.31025 -4.01474 0
M  V30 1592 C 148.132 -2.95871 -4.9117 0
M  V30 1593 N 147.628 -3.69863 -5.8581 0
M  V30 1594 N 149.421 -2.85211 -4.84367 0
M  V30 1595 H 141.572 -1.81339 -1.10589 0
M  V30 1596 H 143.835 -0.77505 -0.545895 0
M  V30 1597 H 143.541 -2.49377 -2.48 0
M  V30 1598 H 143.415 -1.14409 -3.59431 0
M  V30 1599 H 145.802 -0.415201 -2.92164 0
M  V30 1600 H 145.883 -1.79747 -1.82001 0
M  V30 1601 H 145.527 -3.3687 -3.80107 0
M  V30 1602 H 145.457 -1.95897 -4.88807 0
M  V30 1603 H 147.948 -1.77238 -3.33759 0
M  V30 1604 H 148.261 -4.16486 -6.50968 0
M  V30 1605 H 146.606 -3.73971 -5.85808 0
M  V30 1606 H 149.797 -2.26948 -4.09405 0
M  V30 1607 H 149.97 -3.36027 -5.54066 0
M  V30 1608 N 143.376 1.44774 -0.622745 0
M  V30 1609 C 144.323 2.30635 0.0871679 0
M  V30 1610 C 145.293 1.42994 0.845097 0
M  V30 1611 O 146.478 1.71907 0.827812 0
M  V30 1612 C 143.618 3.28144 1.06844 0
M  V30 1613 C 142.731 4.30888 0.309809 0
M  V30 1614 C 141.866 5.15494 1.28215 0
M  V30 1615 C 140.905 6.09953 0.512198 0
M  V30 1616 N 140.042 6.87287 1.43458 0
M  V30 1617 H 144.882 2.90803 -0.650974 0
M  V30 1618 H 142.419 1.43286 -0.33281 0
M  V30 1619 H 144.377 3.83157 1.65066 0
M  V30 1620 H 143.007 2.69695 1.77382 0
M  V30 1621 H 142.059 3.78414 -0.388181 0
M  V30 1622 H 143.371 4.97955 -0.290254 0
M  V30 1623 H 142.525 5.74983 1.93596 0
M  V30 1624 H 141.264 4.48481 1.91614 0
M  V30 1625 H 140.269 5.49581 -0.155151 0
M  V30 1626 H 141.494 6.78999 -0.116958 0
M  V30 1627 H 139.44 6.2295 2.05594 0
M  V30 1628 H 139.357 7.50763 0.888335 0
M  V30 1629 H 140.625 7.51306 2.07749 0
M  V30 1630 N 144.854 0.36279 1.53368 0
M  V30 1631 C 146.1 -0.228113 2.01513 0
M  V30 1632 C 146.433 -1.48648 1.2497 0
M  V30 1633 O 145.708 -1.91459 0.342616 0
M  V30 1634 C 145.991 -0.522884 3.56284 0
M  V30 1635 C 145.844 0.74892 4.43521 0
M  V30 1636 C 147.163 -1.32461 4.19693 0
M  V30 1637 H 144.282 -0.0814343 0.732487 0
M  V30 1638 H 146.924 0.48713 1.83649 0
M  V30 1639 H 145.074 -1.1322 3.71636 0
M  V30 1640 H 146.746 1.38648 4.39971 0
M  V30 1641 H 144.989 1.36986 4.11603 0
M  V30 1642 H 145.66 0.497667 5.49752 0
M  V30 1643 H 148.136 -0.809203 4.08156 0
M  V30 1644 H 147.012 -1.49961 5.28018 0
M  V30 1645 H 147.273 -2.33232 3.75573 0
M  V30 1646 N 146.332 -1.57332 0.0918853 0
M  V30 1647 C 147.264 -2.10869 -0.898168 0
M  V30 1648 C 148.277 -1.04521 -1.24817 0
M  V30 1649 O 149.466 -1.31977 -1.20184 0
M  V30 1650 C 146.566 -2.57083 -2.2082 0
M  V30 1651 C 145.739 -3.87229 -2.03402 0
M  V30 1652 C 144.798 -4.19324 -3.17889 0
M  V30 1653 O 143.824 -4.88598 -2.91994 0
M  V30 1654 N 145.026 -3.74471 -4.43567 0
M  V30 1655 H 147.791 -2.96439 -0.440943 0
M  V30 1656 H 145.352 -1.61631 -0.0933064 0
M  V30 1657 H 147.344 -2.75602 -2.96354 0
M  V30 1658 H 145.914 -1.76541 -2.57977 0
M  V30 1659 H 145.134 -3.7789 -1.12218 0
M  V30 1660 H 146.422 -4.72379 -1.89038 0
M  V30 1661 H 145.82 -3.18546 -4.67488 0
M  V30 1662 H 144.377 -3.98151 -5.16061 0
M  V30 1663 N 147.81 0.181792 -1.56548 0
M  V30 1664 C 149.057 0.900097 -1.81396 0
M  V30 1665 C 149.385 1.82695 -0.667281 0
M  V30 1666 O 148.64 1.92614 0.346146 0
M  V30 1667 C 148.939 1.73728 -3.12335 0
M  V30 1668 C 148.605 0.960255 -4.40556 0
M  V30 1669 C 147.267 0.745766 -4.75386 0
M  V30 1670 C 149.619 0.414477 -5.19549 0
M  V30 1671 C 146.947 -0.0257694 -5.86694 0
M  V30 1672 C 149.299 -0.343916 -6.31664 0
M  V30 1673 C 147.963 -0.569301 -6.65068 0
M  V30 1674 H 147.233 0.329369 -0.663775 0
M  V30 1675 H 149.88 0.165647 -1.90782 0
M  V30 1676 H 148.185 2.54081 -2.98245 0
M  V30 1677 H 149.882 2.29591 -3.28769 0
M  V30 1678 H 146.472 1.13746 -4.13231 0
M  V30 1679 H 150.656 0.567554 -4.93044 0
M  V30 1680 H 145.912 -0.210233 -6.11038 0
M  V30 1681 H 150.086 -0.774133 -6.92084 0
M  V30 1682 H 147.713 -1.16903 -7.51158 0
M  V30 1683 N 149.288 1.51039 0.449983 0
M  V30 1684 C 150.238 1.67824 1.54335 0
M  V30 1685 C 151.222 0.5324 1.51836 0
M  V30 1686 O 152.414 0.787762 1.58503 0
M  V30 1687 C 149.543 1.7951 2.92628 0
M  V30 1688 C 148.629 2.99838 2.9993 0
M  V30 1689 N 149.02 4.23207 2.77001 0
M  V30 1690 C 147.318 2.98832 3.31082 0
M  V30 1691 C 148.019 5.04361 2.89818 0
M  V30 1692 N 146.995 4.38746 3.2094 0
M  V30 1693 H 150.797 2.60884 1.35339 0
M  V30 1694 H 148.311 1.48513 0.657085 0
M  V30 1695 H 150.308 1.89642 3.7127 0
M  V30 1696 H 148.968 0.876227 3.12654 0
M  V30 1697 H 149.979 4.5236 2.52172 0
M  V30 1698 H 146.656 2.16527 3.56963 0
M  V30 1699 H 148.046 6.12528 2.76151 0
M  V30 1700 N 150.766 -0.704594 1.40972 0
M  V30 1701 C 151.676 -1.84856 1.44448 0
M  V30 1702 C 152.692 -1.70726 0.335961 0
M  V30 1703 O 153.868 -1.92799 0.582276 0
M  V30 1704 C 150.933 -3.20758 1.31587 0
M  V30 1705 C 149.994 -3.47063 2.52677 0
M  V30 1706 C 149.227 -4.76481 2.4042 0
M  V30 1707 O 149.45 -5.52341 1.42391 0
M  V30 1708 O 148.384 -5.03367 3.30007 0
M  V30 1709 H 152.21 -1.8488 2.40942 0
M  V30 1710 H 149.795 -0.85647 1.22413 0
M  V30 1711 H 151.677 -4.01913 1.26665 0
M  V30 1712 H 150.352 -3.21438 0.382049 0
M  V30 1713 H 149.259 -2.65873 2.63177 0
M  V30 1714 H 150.592 -3.5119 3.44858 0
M  V30 1715 N 152.244 -1.26651 -0.937939 0
M  V30 1716 C 153.154 -1.10276 -2.07066 0
M  V30 1717 C 154.17 -0.0354197 -1.73964 0
M  V30 1718 O 155.346 -0.239816 -1.99967 0
M  V30 1719 C 152.411 -0.740887 -3.38691 0
M  V30 1720 C 151.472 -1.88799 -3.85556 0
M  V30 1721 C 150.705 -1.54329 -5.10899 0
M  V30 1722 O 150.928 -0.446494 -5.6865 0
M  V30 1723 O 149.862 -2.37911 -5.52885 0
M  V30 1724 H 153.688 -2.05309 -2.23789 0
M  V30 1725 H 151.273 -1.05743 -1.0554 0
M  V30 1726 H 153.155 -0.55195 -4.1777 0
M  V30 1727 H 151.83 0.180022 -3.23199 0
M  V30 1728 H 150.737 -2.13191 -3.07409 0
M  V30 1729 H 152.07 -2.78874 -4.05574 0
M  V30 1730 N 153.722 1.14298 -1.08507 0
M  V30 1731 C 154.952 1.88945 -0.835663 0
M  V30 1732 C 155.36 1.78894 0.615928 0
M  V30 1733 O 154.703 1.1468 1.43506 0
M  V30 1734 C 154.765 3.39585 -1.17994 0
M  V30 1735 C 154.429 3.7342 -2.63451 0
M  V30 1736 C 155.426 3.73454 -3.61702 0
M  V30 1737 C 153.111 4.03368 -2.99332 0
M  V30 1738 C 155.105 4.02961 -4.93864 0
M  V30 1739 C 152.792 4.32538 -4.31687 0
M  V30 1740 C 153.79 4.32318 -5.28763 0
M  V30 1741 O 153.478 4.6078 -6.58739 0
M  V30 1742 H 153.21 0.605307 -0.300965 0
M  V30 1743 H 155.764 1.45673 -1.44806 0
M  V30 1744 H 153.994 3.83315 -0.51055 0
M  V30 1745 H 155.683 3.9554 -0.911182 0
M  V30 1746 H 156.449 3.50403 -3.35325 0
M  V30 1747 H 152.328 4.02692 -2.24411 0
M  V30 1748 H 155.872 4.02704 -5.69627 0
M  V30 1749 H 151.769 4.55059 -4.57812 0
M  V30 1750 H 152.537 4.78492 -6.64069 0
M  V30 1751 N 155.201 0.870884 1.31352 0
M  V30 1752 C 156.612 0.534714 1.78879 0
M  V30 1753 C 156.963 -0.948423 1.71754 0
M  V30 1754 O 156.088 -1.74055 1.28584 0
M  V30 1755 C 156.683 0.963839 3.24801 0
M  V30 1756 C 155.242 0.679311 3.70219 0
M  V30 1757 C 154.389 1.15465 2.52117 0
M  V30 1758 H 157.34 1.05651 1.18421 0
M  V30 1759 H 157.361 0.286892 3.79417 0
M  V30 1760 H 156.873 2.04332 3.29955 0
M  V30 1761 H 154.974 -0.388769 3.70566 0
M  V30 1762 H 155.087 1.25698 4.62317 0
M  V30 1763 H 153.451 0.574383 2.48139 0
M  V30 1764 H 154.234 2.24157 2.60016 0
M  V30 1765 N 156.679 -1.44442 0.630414 0
M  V30 1766 C 157.925 -2.02894 0.143332 0
M  V30 1767 C 158.28 -1.48697 -1.22094 0
M  V30 1768 O 157.573 -0.661171 -1.79831 0
M  V30 1769 C 157.767 -3.57332 0.0697835 0
M  V30 1770 C 157.596 -4.26512 1.42539 0
M  V30 1771 C 156.366 -4.63516 2.01198 0
M  V30 1772 C 158.564 -4.57004 2.35907 0
M  V30 1773 N 156.546 -5.17661 3.30001 0
M  V30 1774 C 157.917 -5.12223 3.49324 0
M  V30 1775 C 159.972 -4.38955 2.34995 0
M  V30 1776 C 158.675 -5.51295 4.62024 0
M  V30 1777 C 160.701 -4.79075 3.46758 0
M  V30 1778 C 160.063 -5.34407 4.58899 0
M  V30 1779 H 156.162 -0.776041 0.0963523 0
M  V30 1780 H 158.746 -1.75945 0.833752 0
M  V30 1781 H 156.917 -3.83894 -0.589915 0
M  V30 1782 H 158.649 -4.02451 -0.42606 0
M  V30 1783 H 155.404 -4.47811 1.54151 0
M  V30 1784 H 155.828 -5.4921 3.95851 0
M  V30 1785 H 160.47 -3.95469 1.49545 0
M  V30 1786 H 158.188 -5.93736 5.48182 0
M  V30 1787 H 161.774 -4.66824 3.47227 0
M  V30 1788 H 160.654 -5.64878 5.4395 0
M  V30 1789 N 158.157 -0.370918 -1.53173 0
M  V30 1790 C 159.406 0.218249 -2.00516 0
M  V30 1791 C 159.719 1.49429 -1.26215 0
M  V30 1792 O 160.925 2.16239 -1.64174 0
M  V30 1793 C 159.381 0.43948 -3.57207 0
M  V30 1794 C 158.989 -0.822244 -4.4039 0
M  V30 1795 C 160.733 0.986012 -4.1289 0
M  V30 1796 C 158.64 -0.570304 -5.88644 0
M  V30 1797 H 157.57 0.0853333 -0.749156 0
M  V30 1798 H 160.221 -0.490483 -1.76823 0
M  V30 1799 H 158.603 1.20961 -3.77074 0
M  V30 1800 H 159.777 -1.59557 -4.32294 0
M  V30 1801 H 158.092 -1.29238 -3.95836 0
M  V30 1802 H 160.689 1.18991 -5.21292 0
M  V30 1803 H 161.032 1.94972 -3.6782 0
M  V30 1804 H 161.565 0.27592 -3.96842 0
M  V30 1805 H 158.304 -1.50449 -6.38001 0
M  V30 1806 H 157.824 0.164427 -5.99575 0
M  V30 1807 H 159.503 -0.19784 -6.46697 0
M  V30 1808 N 159.635 1.57281 -0.100228 0
M  V30 1809 C 160.565 2.17328 0.853857 0
M  V30 1810 C 161.546 1.10804 1.2906 0
M  V30 1811 O 162.731 1.38963 1.35657 0
M  V30 1812 C 159.861 2.75772 2.11109 0
M  V30 1813 C 158.815 3.87713 1.81279 0
M  V30 1814 C 158.141 4.32882 3.13874 0
M  V30 1815 C 159.441 5.10677 1.09574 0
M  V30 1816 H 161.135 2.97305 0.353545 0
M  V30 1817 H 158.681 1.43009 0.168612 0
M  V30 1818 H 160.634 3.16433 2.78296 0
M  V30 1819 H 159.358 1.93057 2.63432 0
M  V30 1820 H 158.017 3.476 1.16489 0
M  V30 1821 H 157.665 3.47051 3.64095 0
M  V30 1822 H 157.365 5.08358 2.94696 0
M  V30 1823 H 158.889 4.7618 3.82211 0
M  V30 1824 H 160.303 5.48474 1.66879 0
M  V30 1825 H 158.7 5.91615 1.00557 0
M  V30 1826 H 159.77 4.84835 0.0793299 0
M  V30 1827 N 161.113 -0.173488 1.56642 0
M  V30 1828 C 162.338 -0.910149 1.86363 0
M  V30 1829 C 162.763 -1.75132 0.686318 0
M  V30 1830 O 162.121 -1.77595 -0.364643 0
M  V30 1831 C 162.169 -1.76447 3.14482 0
M  V30 1832 O 161.273 -2.86584 2.96553 0
M  V30 1833 H 160.614 -0.255086 0.613047 0
M  V30 1834 H 163.144 -0.172283 2.03873 0
M  V30 1835 H 163.154 -2.16483 3.45831 0
M  V30 1836 H 161.829 -1.14658 3.99783 0
M  V30 1837 H 160.406 -2.50146 2.76553 0
M  V30 1838 N 162.591 -1.51276 -0.441967 0
M  V30 1839 C 163.554 -1.7167 -1.51862 0
M  V30 1840 C 164.554 -0.586793 -1.49711 0
M  V30 1841 O 165.744 -0.854276 -1.51815 0
M  V30 1842 C 162.876 -1.76889 -2.91416 0
M  V30 1843 H 164.069 -2.67754 -1.35084 0
M  V30 1844 H 161.622 -1.41196 -0.670333 0
M  V30 1845 H 162.357 -0.826026 -3.13604 0
M  V30 1846 H 162.142 -2.59001 -2.94382 0
M  V30 1847 H 163.632 -1.94522 -3.69528 0
M  V30 1848 N 164.069 0.697108 -1.41344 0
M  V30 1849 C 165.294 1.49096 -1.44171 0
M  V30 1850 C 165.719 1.88038 -0.0481568 0
M  V30 1851 O 165.077 1.54525 0.948243 0
M  V30 1852 C 165.125 2.73088 -2.3549 0
M  V30 1853 O 164.229 3.70514 -1.81088 0
M  V30 1854 H 163.57 0.448801 -0.489361 0
M  V30 1855 H 166.1 0.856992 -1.85787 0
M  V30 1856 H 166.11 3.21413 -2.51312 0
M  V30 1857 H 164.785 2.44081 -3.36745 0
M  V30 1858 H 163.362 3.29441 -1.74708 0
M  V30 1859 N 165.547 1.27147 0.931209 0
M  V30 1860 C 166.824 1.0401 1.65654 0
M  V30 1861 C 167.204 -0.426297 2.06751 0
M  V30 1862 O 166.552 -1.40879 1.79904 0
M  V30 1863 C 166.762 1.99834 2.86125 0
M  V30 1864 C 168.11 2.29007 3.57549 0
M  V30 1865 O 169.134 1.97779 2.96246 0
M  V30 1866 O 167.993 2.82222 4.67989 0
M  V30 1867 H 165.087 0.396239 0.725895 0
M  V30 1868 H 167.633 1.38397 0.982056 0
M  V30 1869 H 166.405 2.98744 2.52721 0
M  V30 1870 H 166.028 1.65987 3.61295 0
M  V30 1871 N 167.025 -1.13721 1.09112 0
M  V30 1872 C 168.302 -1.81155 0.737706 0
M  V30 1873 C 168.682 -1.96253 -0.777683 0
M  V30 1874 O 168.03 -1.52807 -1.69889 0
M  V30 1875 C 168.24 -3.16392 1.47299 0
M  V30 1876 C 169.588 -3.91787 1.63671 0
M  V30 1877 O 170.612 -3.26005 1.43524 0
M  V30 1878 O 169.471 -5.0977 1.96969 0
M  V30 1879 H 166.565 -0.783518 0.26463 0
M  V30 1880 H 169.111 -1.20676 1.19312 0
M  V30 1881 H 167.883 -3.0061 2.50498 0
M  V30 1882 H 167.506 -3.8457 1.00953 0
M  V30 1883 N 168.503 -0.877838 -1.30888 0
M  V30 1884 C 169.435 -0.296607 -2.27273 0
M  V30 1885 C 170.448 0.544799 -1.53414 0
M  V30 1886 O 171.637 0.365511 -1.74718 0
M  V30 1887 C 168.737 0.597481 -3.33592 0
M  V30 1888 C 167.91 -0.213251 -4.3688 0
M  V30 1889 C 166.969 0.610208 -5.2265 0
M  V30 1890 O 165.995 0.035441 -5.69189 0
M  V30 1891 N 167.197 1.92071 -5.47804 0
M  V30 1892 H 169.962 -1.12492 -2.77787 0
M  V30 1893 H 167.523 -0.740105 -1.43993 0
M  V30 1894 H 169.515 1.15425 -3.87891 0
M  V30 1895 H 168.085 1.32647 -2.83061 0
M  V30 1896 H 167.305 -0.951466 -3.82545 0
M  V30 1897 H 168.593 -0.769262 -5.02951 0
M  V30 1898 H 167.991 2.4107 -5.11763 0
M  V30 1899 H 166.548 2.42508 -6.05007 0
M  V30 1900 N 169.982 1.44106 -0.638065 0
M  V30 1901 C 171.21 2.06336 -0.152615 0
M  V30 1902 C 171.625 1.47731 1.17563 0
M  V30 1903 O 170.982 0.602806 1.72257 0
M  V30 1904 C 171.033 3.61479 -0.0391491 0
M  V30 1905 O 170.754 4.17903 -1.31487 0
M  V30 1906 C 172.255 4.40757 0.474176 0
M  V30 1907 H 169.475 0.665862 -0.0828776 0
M  V30 1908 H 172.019 1.84862 -0.87443 0
M  V30 1909 H 170.174 3.82191 0.633142 0
M  V30 1910 H 170.588 5.11416 -1.16421 0
M  V30 1911 H 172.062 5.49707 0.502562 0
M  V30 1912 H 172.539 4.12697 1.50258 0
M  V30 1913 H 173.145 4.24979 -0.165102 0
M  V30 1914 N 171.46 0.379036 1.52974 0
M  V30 1915 C 172.709 -0.207612 2.00629 0
M  V30 1916 C 173.022 -1.48758 1.27006 0
M  V30 1917 O 174.228 -2.15365 1.65318 0
M  V30 1918 C 172.684 -0.42053 3.57435 0
M  V30 1919 C 172.292 0.845587 4.39948 0
M  V30 1920 C 174.036 -0.964102 4.13407 0
M  V30 1921 C 171.943 0.601513 5.88333 0
M  V30 1922 H 170.873 -0.0813591 0.749598 0
M  V30 1923 H 173.524 0.499853 1.76561 0
M  V30 1924 H 171.906 -1.18959 3.7771 0
M  V30 1925 H 173.08 1.61848 4.31442 0
M  V30 1926 H 171.395 1.31336 3.95145 0
M  V30 1927 H 173.992 -1.16225 5.21916 0
M  V30 1928 H 174.335 -1.93019 3.68849 0
M  V30 1929 H 174.868 -0.25487 3.96983 0
M  V30 1930 H 171.607 1.53831 6.37194 0
M  V30 1931 H 171.127 -0.132628 5.99653 0
M  V30 1932 H 172.806 0.232134 6.46583 0
M  V30 1933 N 172.938 -1.57226 0.108567 0
M  V30 1934 C 174.354 -1.5766 -0.248058 0
M  V30 1935 C 174.554 -1.12063 -1.67464 0
M  V30 1936 O 173.61 -0.803236 -2.39383 0
M  V30 1937 C 174.923 -3.0069 -0.0242287 0
M  V30 1938 C 176.471 -3.12868 -0.0909372 0
M  V30 1939 C 176.946 -4.57879 0.105067 0
M  V30 1940 N 178.437 -4.63172 0.0506846 0
M  V30 1941 C 179.172 -5.73126 0.177396 0
M  V30 1942 N 178.668 -6.91866 0.359696 0
M  V30 1943 N 180.461 -5.61977 0.117709 0
M  V30 1944 H 172.612 -1.85169 1.04049 0
M  V30 1945 H 174.875 -0.85529 0.40888 0
M  V30 1946 H 174.581 -3.38299 0.961604 0
M  V30 1947 H 174.455 -3.6945 -0.76068 0
M  V30 1948 H 176.842 -2.75124 -1.06729 0
M  V30 1949 H 176.923 -2.46672 0.677225 0
M  V30 1950 H 176.567 -4.96321 1.07834 0
M  V30 1951 H 176.497 -5.22153 -0.682954 0
M  V30 1952 H 178.988 -3.778 -0.0871266 0
M  V30 1953 H 179.301 -7.71503 0.447529 0
M  V30 1954 H 177.646 -6.93874 0.395536 0
M  V30 1955 H 180.837 -4.68094 -0.0236741 0
M  V30 1956 H 181.01 -6.47627 0.219905 0
M  V30 1957 N 174.416 0.165178 -1.56732 0
M  V30 1958 C 175.665 0.879143 -1.81532 0
M  V30 1959 C 175.978 1.83144 -0.686842 0
M  V30 1960 O 177.184 2.58823 -0.819944 0
M  V30 1961 C 175.64 1.61388 -3.21686 0
M  V30 1962 C 175.248 0.704904 -4.4242 0
M  V30 1963 C 176.992 2.3157 -3.55774 0
M  V30 1964 C 174.899 1.44022 -5.73595 0
M  V30 1965 H 173.829 0.332033 -0.676957 0
M  V30 1966 H 176.48 0.132008 -1.83025 0
M  V30 1967 H 174.862 2.40599 -3.14529 0
M  V30 1968 H 176.036 -0.0506815 -4.60772 0
M  V30 1969 H 174.351 0.112419 -4.16248 0
M  V30 1970 H 176.948 2.8719 -4.51028 0
M  V30 1971 H 177.291 3.07201 -2.8095 0
M  V30 1972 H 177.824 1.59297 -3.64513 0
M  V30 1973 H 174.563 0.72612 -6.51466 0
M  V30 1974 H 174.083 2.16898 -5.5921 0
M  V30 1975 H 175.762 1.98606 -6.15764 0
M  V30 1976 N 175.894 1.51508 0.433938 0
M  V30 1977 C 177.14 1.65549 1.18173 0
M  V30 1978 C 177.495 0.368751 1.88833 0
M  V30 1979 O 176.788 -0.635616 1.8075 0
M  V30 1980 C 176.982 2.79928 2.22205 0
M  V30 1981 C 176.811 4.19601 1.61756 0
M  V30 1982 C 175.581 4.85489 1.40101 0
M  V30 1983 C 177.779 5.02574 1.09194 0
M  V30 1984 N 175.761 6.09266 0.752859 0
M  V30 1985 C 177.132 6.17381 0.569255 0
M  V30 1986 C 179.187 4.88079 0.984025 0
M  V30 1987 C 177.89 7.19282 -0.0507472 0
M  V30 1988 C 179.916 5.90191 0.377912 0
M  V30 1989 C 179.278 7.04272 -0.134216 0
M  V30 1990 H 175.377 0.659653 0.419979 0
M  V30 1991 H 177.961 1.88746 0.477818 0
M  V30 1992 H 176.132 2.5839 2.89982 0
M  V30 1993 H 177.864 2.83132 2.89168 0
M  V30 1994 H 174.619 4.43417 1.66369 0
M  V30 1995 H 175.043 6.75528 0.446123 0
M  V30 1996 H 179.685 4.00131 1.36583 0
M  V30 1997 H 177.403 8.06876 -0.444676 0
M  V30 1998 H 180.989 5.81045 0.296269 0
M  V30 1999 H 179.869 7.81933 -0.59585 0
M  V30 2000 N 177.372 -0.689602 1.41712 0
M  V30 2001 C 178.32 -1.82475 1.44242 0
M  V30 2002 C 179.314 -1.66354 0.319774 0
M  V30 2003 O 180.52 -1.73143 0.492089 0
M  V30 2004 H 176.895 -0.601416 0.451445 0
M  V30 2005 H 178.866 -1.77458 2.39899 0
M  V30 2006 C 177.615 -3.20535 1.3473 0
M  V30 2007 H 176.938 -3.33559 2.20405 0
M  V30 2008 H 178.378 -4.00023 1.40562 0
M  V30 2009 C 176.837 -3.36846 0.0603281 0
M  V30 2010 O 177.367 -3.91656 -0.892663 0
M  V30 2011 N 175.573 -2.90595 -0.0177039 0
M  V30 2012 H 175.12 -2.46178 0.758572 0
M  V30 2013 H 175.078 -3.01886 -0.878201 0
M  V30 2014 N 178.85 -1.27639 -0.924453 0
M  V30 2015 C 180.096 -1.15345 -1.67532 0
M  V30 2016 C 180.451 0.297096 -1.90092 0
M  V30 2017 O 179.744 1.21374 -1.48253 0
M  V30 2018 C 179.938 -1.87407 -3.04325 0
M  V30 2019 C 179.767 -3.3932 -2.95114 0
M  V30 2020 C 178.537 -4.08644 -2.97218 0
M  V30 2021 C 180.735 -4.35242 -2.73987 0
M  V30 2022 N 178.717 -5.47102 -2.78482 0
M  V30 2023 C 180.088 -5.6099 -2.63988 0
M  V30 2024 C 182.143 -4.25294 -2.589 0
M  V30 2025 C 180.846 -6.77924 -2.40442 0
M  V30 2026 C 182.872 -5.41952 -2.36731 0
M  V30 2027 C 182.234 -6.66658 -2.27478 0
M  V30 2028 H 178.333 -0.47696 -0.619704 0
M  V30 2029 H 180.917 -1.6115 -1.09265 0
M  V30 2030 H 179.088 -1.44053 -3.60699 0
M  V30 2031 H 180.82 -1.6759 -3.68369 0
M  V30 2032 H 177.575 -3.60136 -3.07569 0
M  V30 2033 H 177.999 -6.19852 -2.72236 0
M  V30 2034 H 182.641 -3.29598 -2.64811 0
M  V30 2035 H 180.359 -7.73699 -2.3327 0
M  V30 2036 H 183.945 -5.36137 -2.25938 0
M  V30 2037 H 182.825 -7.55405 -2.10555 0
M  V30 2038 N 180.328 1.1314 -1.09713 0
M  V30 2039 C 181.26 2.18343 -0.697056 0
M  V30 2040 C 182.273 1.60669 0.262551 0
M  V30 2041 O 183.462 1.78435 0.0481527 0
M  V30 2042 C 180.562 3.38899 -0.00684728 0
M  V30 2043 C 179.735 4.26078 -0.988741 0
M  V30 2044 C 178.794 5.25155 -0.331394 0
M  V30 2045 O 177.82 5.60701 -0.979926 0
M  V30 2046 N 179.022 5.73271 0.913261 0
M  V30 2047 H 181.787 2.5328 -1.60216 0
M  V30 2048 H 179.348 1.28491 -0.984971 0
M  V30 2049 H 181.34 4.02255 0.444191 0
M  V30 2050 H 179.91 3.02175 0.800551 0
M  V30 2051 H 179.13 3.59453 -1.61826 0
M  V30 2052 H 180.418 4.81178 -1.65364 0
M  V30 2053 H 179.816 5.46544 1.45966 0
M  V30 2054 H 178.373 6.3855 1.30757 0
M  V30 2055 N 181.806 0.884767 1.30421 0
M  V30 2056 C 183.031 0.517288 2.00845 0
M  V30 2057 C 183.456 -0.886779 1.65885 0
M  V30 2058 O 182.814 -1.58768 0.875354 0
M  V30 2059 C 182.862 0.698994 3.5376 0
M  V30 2060 O 181.966 -0.255208 4.1161 0
M  V30 2061 H 181.307 0.203872 0.631927 0
M  V30 2062 H 183.837 1.19225 1.66272 0
M  V30 2063 H 183.847 0.597912 4.03595 0
M  V30 2064 H 182.522 1.72271 3.78544 0
M  V30 2065 H 181.099 -0.10784 3.72744 0
M  V30 2066 N 183.284 -1.43765 0.645699 0
M  V30 2067 C 184.7 -1.56509 0.312591 0
M  V30 2068 C 184.9 -1.6307 -1.18365 0
M  V30 2069 O 183.956 -1.58167 -1.96824 0
M  V30 2070 C 185.269 -2.82968 1.01733 0
M  V30 2071 C 186.817 -2.96701 0.996865 0
M  V30 2072 C 187.292 -4.25982 1.68236 0
M  V30 2073 N 188.783 -4.32829 1.64964 0
M  V30 2074 C 189.518 -5.31613 2.14885 0
M  V30 2075 N 189.014 -6.36718 2.73061 0
M  V30 2076 N 190.807 -5.23217 2.05428 0
M  V30 2077 H 182.958 -1.3775 1.61675 0
M  V30 2078 H 185.221 -0.661067 0.679481 0
M  V30 2079 H 184.927 -2.84156 2.0724 0
M  V30 2080 H 184.801 -3.72957 0.564177 0
M  V30 2081 H 187.188 -2.95058 -0.0497719 0
M  V30 2082 H 187.269 -2.08022 1.48865 0
M  V30 2083 H 186.913 -4.28386 2.72852 0
M  V30 2084 H 186.843 -5.13545 1.16529 0
M  V30 2085 H 189.334 -3.57493 1.22503 0
M  V30 2086 H 189.647 -7.08401 3.08848 0
M  V30 2087 H 187.992 -6.37362 2.77118 0
M  V30 2088 H 191.183 -4.40019 1.59689 0
M  V30 2089 H 191.356 -6.00045 2.44643 0
M  V30 2090 N 184.763 -0.387143 -1.52771 0
M  V30 2091 C 186.009 0.196025 -2.0185 0
M  V30 2092 C 186.342 1.46641 -1.27319 0
M  V30 2093 O 185.617 1.90889 -0.373032 0
M  V30 2094 C 185.9 0.466136 -3.5707 0
M  V30 2095 C 185.753 -0.819385 -4.42274 0
M  V30 2096 C 187.072 1.25768 -4.21747 0
M  V30 2097 H 184.191 0.0697708 -0.73369 0
M  V30 2098 H 186.833 -0.516286 -1.82851 0
M  V30 2099 H 184.983 1.07293 -3.7339 0
M  V30 2100 H 186.655 -1.4563 -4.37709 0
M  V30 2101 H 184.898 -1.43517 -4.09372 0
M  V30 2102 H 185.569 -0.585065 -5.48891 0
M  V30 2103 H 188.045 0.744167 -4.09391 0
M  V30 2104 H 186.921 1.41541 -5.30337 0
M  V30 2105 H 187.182 2.27228 -3.79236 0
M  V30 2106 N 186.241 1.57166 -0.116904 0
M  V30 2107 C 187.481 1.97008 0.544715 0
M  V30 2108 C 187.845 0.998713 1.63981 0
M  V30 2109 O 189.046 1.28644 2.36018 0
M  V30 2110 C 187.317 3.41145 1.06559 0
M  V30 2111 S 188.876 4.02998 1.73603 0
M  V30 2112 H 185.694 0.688587 0.177112 0
M  V30 2113 H 188.296 1.94459 -0.201487 0
M  V30 2114 H 187 4.09592 0.257374 0
M  V30 2115 H 186.531 3.4734 1.84712 0
M  V30 2116 H 188.546 3.93585 3.02168 0
M  V30 2117 N 187.719 -0.156864 1.56817 0
M  V30 2118 C 188.968 -0.869504 1.81996 0
M  V30 2119 C 189.281 -1.82777 0.696545 0
M  V30 2120 O 190.487 -2.58384 0.833658 0
M  V30 2121 C 188.943 -1.59679 3.22538 0
M  V30 2122 C 188.551 -0.681431 4.42787 0
M  V30 2123 C 190.295 -2.2968 3.56997 0
M  V30 2124 C 188.202 -1.40978 5.74351 0
M  V30 2125 H 187.132 -0.328438 0.678708 0
M  V30 2126 H 189.783 -0.1223 1.83092 0
M  V30 2127 H 188.165 -2.38927 3.158 0
M  V30 2128 H 189.339 0.0751166 4.60739 0
M  V30 2129 H 187.654 -0.0903431 4.16302 0
M  V30 2130 H 190.251 -2.84794 4.52544 0
M  V30 2131 H 190.594 -3.05707 2.82576 0
M  V30 2132 H 191.127 -1.57361 3.65352 0
M  V30 2133 H 187.866 -0.691561 6.51842 0
M  V30 2134 H 187.386 -2.13929 5.60352 0
M  V30 2135 H 189.065 -1.95337 6.16808 0
M  V30 2136 N 189.197 -1.51736 -0.425897 0
M  V30 2137 C 190.16 -1.73271 -1.50032 0
M  V30 2138 C 191.16 -0.602639 -1.4908 0
M  V30 2139 O 192.35 -0.87033 -1.509 0
M  V30 2140 C 189.482 -1.79969 -2.89523 0
M  V30 2141 H 190.675 -2.69172 -1.32237 0
M  V30 2142 H 188.228 -1.41899 -0.65532 0
M  V30 2143 H 188.963 -0.859241 -3.1271 0
M  V30 2144 H 188.748 -2.62109 -2.91619 0
M  V30 2145 H 190.238 -1.9843 -3.67444 0
M  V30 2146 N 190.675 0.682077 -1.42076 0
M  V30 2147 C 191.924 1.43786 -1.41451 0
M  V30 2148 C 192.237 1.95574 -0.0317074 0
M  V30 2149 O 193.443 2.71326 0.0971462 0
M  V30 2150 C 191.899 2.60071 -2.48779 0
M  V30 2151 C 191.507 2.15013 -3.93031 0
M  V30 2152 C 193.251 3.37626 -2.57311 0
M  V30 2153 C 191.158 3.28336 -4.91883 0
M  V30 2154 H 190.088 0.540143 -0.526082 0
M  V30 2155 H 192.739 0.739157 -1.67955 0
M  V30 2156 H 191.121 3.32275 -2.15429 0
M  V30 2157 H 192.295 1.5001 -4.35699 0
M  V30 2158 H 190.61 1.50416 -3.88284 0
M  V30 2159 H 193.207 4.22012 -3.28345 0
M  V30 2160 H 193.55 3.83727 -1.61429 0
M  V30 2161 H 194.083 2.72488 -2.89819 0
M  V30 2162 H 190.822 2.87234 -5.89217 0
M  V30 2163 H 190.342 3.92145 -4.53853 0
M  V30 2164 H 192.021 3.93913 -5.13265 0
M  V30 2165 N 192.153 1.28127 0.917671 0
M  V30 2166 C 193.083 1.14248 2.03641 0
M  V30 2167 C 194.064 0.0412748 1.7005 0
M  V30 2168 O 195.249 0.217566 1.92977 0
M  V30 2169 C 192.379 0.799431 3.37974 0
M  V30 2170 C 191.333 1.85497 3.85713 0
M  V30 2171 C 190.659 1.36565 5.16966 0
M  V30 2172 C 191.959 3.26085 4.08002 0
M  V30 2173 H 193.653 2.07835 2.15511 0
M  V30 2174 H 191.199 1.00064 1.03553 0
M  V30 2175 H 193.152 0.689114 4.15727 0
M  V30 2176 H 191.876 -0.172145 3.26146 0
M  V30 2177 H 190.535 1.95437 3.10161 0
M  V30 2178 H 190.183 0.383253 5.01538 0
M  V30 2179 H 189.883 2.07143 5.49878 0
M  V30 2180 H 191.407 1.26848 5.97279 0
M  V30 2181 H 192.821 3.19089 4.76293 0
M  V30 2182 H 191.218 3.94462 4.52238 0
M  V30 2183 H 192.288 3.70394 3.12948 0
M  V30 2184 N 193.631 -1.12557 1.10312 0
M  V30 2185 C 194.859 -1.87864 0.866873 0
M  V30 2186 C 195.274 -1.79588 -0.582557 0
M  V30 2187 O 194.631 -1.16887 -1.40156 0
M  V30 2188 C 194.682 -3.37125 1.30496 0
M  V30 2189 O 194.403 -3.45201 2.69755 0
M  V30 2190 C 195.904 -4.29373 1.10243 0
M  V30 2191 H 193.124 -0.594452 0.311236 0
M  V30 2192 H 195.668 -1.42429 1.46745 0
M  V30 2193 H 193.823 -3.80109 0.748081 0
M  V30 2194 H 194.237 -4.38056 2.88457 0
M  V30 2195 H 195.711 -5.32394 1.45811 0
M  V30 2196 H 196.188 -4.39181 0.0409492 0
M  V30 2197 H 196.794 -3.92169 1.64571 0
M  V30 2198 N 195.109 -0.891671 -1.2995 0
M  V30 2199 C 196.357 -0.512486 -1.95494 0
M  V30 2200 C 196.678 0.942776 -1.70695 0
M  V30 2201 O 195.948 1.66374 -1.03424 0
M  V30 2202 H 194.528 -0.186533 -0.723336 0
M  V30 2203 H 197.19 -1.13621 -1.58355 0
M  V30 2204 H 196.286 -0.688342 -3.04415 0
M  V30 2205 N 196.587 1.43421 -0.653314 0
M  V30 2206 C 197.537 2.2792 0.060558 0
M  V30 2207 C 198.521 1.39906 0.794677 0
M  V30 2208 O 199.713 1.63536 0.677128 0
M  V30 2209 C 196.842 3.27603 1.0262 0
M  V30 2210 C 195.928 4.23104 0.290551 0
M  V30 2211 N 196.319 5.01031 -0.692967 0
M  V30 2212 C 194.617 4.42816 0.531984 0
M  V30 2213 C 195.318 5.70626 -1.12963 0
M  V30 2214 N 194.294 5.41617 -0.463867 0
M  V30 2215 H 198.096 2.85585 -0.694143 0
M  V30 2216 H 195.61 1.55126 -0.480602 0
M  V30 2217 H 197.607 3.86918 1.55242 0
M  V30 2218 H 196.267 2.71499 1.78096 0
M  V30 2219 H 197.278 5.0669 -1.07169 0
M  V30 2220 H 193.955 3.97782 1.26791 0
M  V30 2221 H 195.345 6.4318 -1.94343 0
M  V30 2222 N 198.065 0.39524 1.52563 0
M  V30 2223 C 199.013 -0.451859 2.28169 0
M  V30 2224 C 200.007 -1.05792 1.32304 0
M  V30 2225 O 201.213 -0.997718 1.49818 0
M  V30 2226 H 197.588 -0.164481 0.733792 0
M  V30 2227 H 199.559 0.207199 2.9768 0
M  V30 2228 C 198.308 -1.56385 3.10546 0
M  V30 2229 H 197.631 -1.10682 3.84174 0
M  V30 2230 H 199.071 -2.13067 3.66577 0
M  V30 2231 C 197.53 -2.52328 2.23231 0
M  V30 2232 O 198.06 -3.5588 1.86312 0
M  V30 2233 N 196.266 -2.22209 1.87274 0
M  V30 2234 H 195.813 -1.38033 2.17496 0
M  V30 2235 H 195.771 -2.86652 1.29143 0
M  V30 2236 N 199.544 -1.57102 0.125237 0
M  V30 2237 C 200.494 -2.12202 -0.833936 0
M  V30 2238 C 201.478 -1.04433 -1.22403 0
M  V30 2239 O 202.67 -1.30655 -1.19408 0
M  V30 2240 C 199.799 -2.72994 -2.08157 0
M  V30 2241 C 198.885 -3.87852 -1.71556 0
M  V30 2242 N 199.276 -4.9464 -1.05662 0
M  V30 2243 C 197.574 -3.98153 -2.00973 0
M  V30 2244 C 198.275 -5.74953 -0.883376 0
M  V30 2245 N 197.251 -5.24985 -1.41036 0
M  V30 2246 H 201.053 -2.92141 -0.321035 0
M  V30 2247 H 198.567 -1.62217 -0.0770315 0
M  V30 2248 H 200.564 -3.10816 -2.77847 0
M  V30 2249 H 199.224 -1.9452 -2.59985 0
M  V30 2250 H 200.235 -5.12872 -0.719878 0
M  V30 2251 H 196.912 -3.30728 -2.54804 0
M  V30 2252 H 198.302 -6.70904 -0.365675 0
M  V30 2253 N 201.022 0.148545 -1.56898 0
M  V30 2254 C 202.252 0.875118 -1.8715 0
M  V30 2255 C 202.66 1.75322 -0.711262 0
M  V30 2256 O 202.003 1.80745 0.328151 0
M  V30 2257 C 202.065 1.7844 -3.12089 0
M  V30 2258 C 201.729 1.08361 -4.43967 0
M  V30 2259 C 202.726 0.438247 -5.1805 0
M  V30 2260 C 200.411 1.07358 -4.90693 0
M  V30 2261 C 202.405 -0.20779 -6.37061 0
M  V30 2262 C 200.092 0.42373 -6.09629 0
M  V30 2263 C 201.09 -0.215829 -6.82659 0
M  V30 2264 O 200.778 -0.855378 -7.99336 0
M  V30 2265 H 200.51 0.258504 -0.624621 0
M  V30 2266 H 203.064 0.14652 -2.04877 0
M  V30 2267 H 201.294 2.55389 -2.90367 0
M  V30 2268 H 202.983 2.38279 -3.286 0
M  V30 2269 H 203.749 0.437817 -4.8302 0
M  V30 2270 H 199.628 1.5608 -4.33774 0
M  V30 2271 H 203.172 -0.70758 -6.94002 0
M  V30 2272 H 199.069 0.421822 -6.4412 0
M  V30 2273 H 199.837 -0.756892 -8.14993 0
M  V30 2274 N 202.5 1.5196 0.417844 0
M  V30 2275 C 203.746 1.65836 1.16732 0
M  V30 2276 C 204.079 0.382881 1.90388 0
M  V30 2277 O 203.354 -0.618368 1.84408 0
M  V30 2278 C 203.637 2.87466 2.16876 0
M  V30 2279 C 203.49 4.25041 1.47174 0
M  V30 2280 C 204.809 3.04613 3.17646 0
M  V30 2281 H 201.928 0.603515 0.423011 0
M  V30 2282 H 204.57 1.84494 0.454105 0
M  V30 2283 H 202.72 2.71689 2.777 0
M  V30 2284 H 204.392 4.52527 0.895376 0
M  V30 2285 H 202.635 4.26843 0.773806 0
M  V30 2286 H 203.306 5.06176 2.20204 0
M  V30 2287 H 205.782 3.1923 2.66892 0
M  V30 2288 H 204.658 3.91247 3.8499 0
M  V30 2289 H 204.919 2.17541 3.84874 0
M  V30 2290 N 203.978 -0.674533 1.42435 0
M  V30 2291 C 204.911 -1.79924 1.40366 0
M  V30 2292 C 205.889 -1.60378 0.267899 0
M  V30 2293 O 207.073 -1.82847 0.458159 0
M  V30 2294 C 204.2 -3.16927 1.19478 0
M  V30 2295 C 203.246 -3.55221 2.36051 0
M  V30 2296 S 204.079 -3.5762 3.98583 0
M  V30 2297 C 205.235 -4.97315 3.80038 0
M  V30 2298 H 205.468 -1.81405 2.35541 0
M  V30 2299 H 203.001 -0.845221 1.29211 0
M  V30 2300 H 204.959 -3.96007 1.08114 0
M  V30 2301 H 203.62 -3.13031 0.258883 0
M  V30 2302 H 202.813 -4.54804 2.17185 0
M  V30 2303 H 202.415 -2.83502 2.43932 0
M  V30 2304 H 204.707 -5.85401 3.41045 0
M  V30 2305 H 205.65 -5.21228 4.79298 0
M  V30 2306 H 206.058 -4.69845 3.12899 0
M  V30 2307 N 205.456 -1.28612 -0.910864 0
M  V30 2308 C 206.696 -1.1719 -1.67469 0
M  V30 2309 C 207.06 0.274441 -1.90028 0
M  V30 2310 O 208.261 0.511425 -2.6389 0
M  V30 2311 C 206.532 -1.95137 -2.99427 0
M  V30 2312 S 208.091 -2.00122 -3.90508 0
M  V30 2313 H 204.909 -0.41806 -0.575106 0
M  V30 2314 H 207.511 -1.6275 -1.08317 0
M  V30 2315 H 206.215 -2.99381 -2.80712 0
M  V30 2316 H 205.746 -1.50137 -3.63624 0
M  V30 2317 H 207.761 -1.10981 -4.8363 0
M  V30 2318 N 206.934 1.1197 -1.10907 0
M  V30 2319 C 207.897 2.16031 -0.765707 0
M  V30 2320 C 208.897 1.59393 0.212235 0
M  V30 2321 O 210.087 1.74196 -0.0115441 0
M  V30 2322 C 207.219 3.40632 -0.135053 0
M  V30 2323 H 208.412 2.47919 -1.68748 0
M  V30 2324 H 205.965 1.27061 -0.910226 0
M  V30 2325 H 206.7 3.14348 0.797218 0
M  V30 2326 H 206.485 3.8302 -0.838937 0
M  V30 2327 H 207.975 4.17505 0.0892469 0
M  V30 2328 N 208.412 0.89855 1.29475 0
M  V30 2329 C 209.322 0.379974 2.31502 0
M  V30 2330 C 210.338 -0.524695 1.659 0
M  V30 2331 O 211.514 -0.414551 1.97087 0
M  V30 2332 C 208.579 -0.385138 3.44554 0
M  V30 2333 C 207.64 0.550914 4.2575 0
M  V30 2334 C 206.873 -0.177778 5.33404 0
M  V30 2335 O 207.096 -1.40189 5.52904 0
M  V30 2336 O 206.03 0.479106 5.9999 0
M  V30 2337 H 209.856 1.22639 2.77837 0
M  V30 2338 H 207.441 0.662834 1.33891 0
M  V30 2339 H 209.323 -0.817841 4.13388 0
M  V30 2340 H 207.998 -1.20763 3.0033 0
M  V30 2341 H 206.905 1.03271 3.59564 0
M  V30 2342 H 208.238 1.33979 4.73614 0
M  V30 2343 N 209.89 -1.43072 0.660911 0
M  V30 2344 C 211.137 -2.01721 0.177445 0
M  V30 2345 C 211.465 -1.5218 -1.21126 0
M  V30 2346 O 210.72 -0.708659 -1.82419 0
M  V30 2347 C 211.019 -3.57103 0.145563 0
M  V30 2348 C 210.685 -4.26021 1.47705 0
M  V30 2349 C 209.347 -4.44563 1.84165 0
M  V30 2350 C 211.699 -4.64983 2.35458 0
M  V30 2351 C 209.027 -4.99334 3.0803 0
M  V30 2352 C 211.379 -5.21127 3.58622 0
M  V30 2353 C 210.043 -5.37884 3.95268 0
M  V30 2354 H 209.313 -0.73815 0.0649317 0
M  V30 2355 H 211.96 -1.71446 0.853144 0
M  V30 2356 H 210.265 -3.86965 -0.61361 0
M  V30 2357 H 211.962 -4.00248 -0.2455 0
M  V30 2358 H 208.552 -4.11939 1.18339 0
M  V30 2359 H 212.736 -4.50343 2.08579 0
M  V30 2360 H 207.992 -5.10493 3.36462 0
M  V30 2361 H 212.166 -5.50262 4.26831 0
M  V30 2362 H 209.793 -5.80089 4.91325 0
M  V30 2363 N 211.368 -0.403325 -1.52352 0
M  V30 2364 C 212.318 0.442244 -2.2367 0
M  V30 2365 C 213.302 1.01823 -1.24583 0
M  V30 2366 O 214.494 0.942005 -1.49851 0
M  V30 2367 C 211.623 1.5615 -3.05732 0
M  V30 2368 C 210.709 0.996575 -4.12225 0
M  V30 2369 N 211.1 0.157804 -5.05554 0
M  V30 2370 C 209.398 1.26767 -4.27605 0
M  V30 2371 C 210.099 -0.155853 -5.81491 0
M  V30 2372 N 209.075 0.451775 -5.41719 0
M  V30 2373 H 212.877 -0.204964 -2.93184 0
M  V30 2374 H 210.391 -0.213418 -1.60992 0
M  V30 2375 H 212.388 2.17981 -3.55373 0
M  V30 2376 H 211.048 2.21139 -2.37755 0
M  V30 2377 H 212.059 -0.206049 -5.1749 0
M  V30 2378 H 208.736 1.91757 -3.70858 0
M  V30 2379 H 210.126 -0.836329 -6.66675 0
M  V30 2380 N 212.846 1.57033 -0.133567 0
M  V30 2381 C 214.257 1.82593 0.389464 0
M  V30 2382 C 214.608 1.05156 1.6564 0
M  V30 2383 O 213.733 0.292644 2.14412 0
M  V30 2384 C 214.328 3.31204 0.713377 0
M  V30 2385 C 212.887 3.57393 1.18098 0
M  V30 2386 C 212.034 2.76598 0.197126 0
M  V30 2387 H 214.985 1.54598 -0.358481 0
M  V30 2388 H 215.006 3.46627 1.56939 0
M  V30 2389 H 214.518 3.87537 -0.2089 0
M  V30 2390 H 212.619 3.06433 2.11966 0
M  V30 2391 H 212.732 4.65915 1.11624 0
M  V30 2392 H 211.096 2.45257 0.687088 0
M  V30 2393 H 211.879 3.35697 -0.718504 0
M  V30 2394 N 214.325 -0.140222 1.56975 0
M  V30 2395 C 215.273 -1.19207 1.99731 0
M  V30 2396 C 216.267 -1.44089 0.890777 0
M  V30 2397 O 217.473 -1.44301 1.07597 0
M  V30 2398 H 213.848 -0.40142 0.635898 0
M  V30 2399 H 215.819 -0.804813 2.87342 0
M  V30 2400 C 214.568 -2.51617 2.39967 0
M  V30 2401 H 213.891 -2.33303 3.24669 0
M  V30 2402 H 215.331 -3.23827 2.73701 0
M  V30 2403 C 213.79 -3.12654 1.25496 0
M  V30 2404 O 214.32 -3.97786 0.559371 0
M  V30 2405 N 212.526 -2.72206 1.01746 0
M  V30 2406 H 212.073 -2.03074 1.58489 0
M  V30 2407 H 212.031 -3.13377 0.253461 0
M  V30 2408 N 215.803 -1.52179 -0.40978 0
M  V30 2409 C 216.733 -1.78435 -1.5061 0
M  V30 2410 C 217.714 -0.635295 -1.57791 0
M  V30 2411 O 218.899 -0.880823 -1.73076 0
M  V30 2412 C 216.029 -1.93444 -2.88439 0
M  V30 2413 C 214.983 -3.09038 -2.96108 0
M  V30 2414 C 214.309 -3.09268 -4.36185 0
M  V30 2415 C 215.609 -4.48508 -2.67652 0
M  V30 2416 H 217.303 -2.70237 -1.28889 0
M  V30 2417 H 214.849 -1.30036 -0.618605 0
M  V30 2418 H 216.802 -2.10394 -3.65119 0
M  V30 2419 H 215.526 -0.983129 -3.11452 0
M  V30 2420 H 214.185 -2.91837 -2.21872 0
M  V30 2421 H 213.833 -2.11861 -4.56206 0
M  V30 2422 H 213.533 -3.86907 -4.42241 0
M  V30 2423 H 215.057 -3.28348 -5.14801 0
M  V30 2424 H 216.471 -4.65918 -3.34056 0
M  V30 2425 H 214.868 -5.28059 -2.85085 0
M  V30 2426 H 215.938 -4.56649 -1.63095 0
M  V30 2427 N 217.281 0.66697 -1.42791 0
M  V30 2428 C 218.558 1.4234 -1.34159 0
M  V30 2429 C 218.938 2.11093 0.0172729 0
M  V30 2430 O 218.286 2.03808 1.03318 0
M  V30 2431 C 218.496 2.41942 -2.51526 0
M  V30 2432 C 219.844 3.06353 -2.93995 0
M  V30 2433 O 220.868 2.52269 -2.51473 0
M  V30 2434 O 219.727 4.04376 -3.67617 0
M  V30 2435 H 216.821 0.635277 -0.529483 0
M  V30 2436 H 219.367 0.695034 -1.54814 0
M  V30 2437 H 218.139 1.89991 -3.42081 0
M  V30 2438 H 217.762 3.22249 -2.32898 0
M  V30 2439 N 218.759 1.29093 0.90403 0
M  V30 2440 C 219.989 1.19516 1.68522 0
M  V30 2441 C 220.397 -0.24738 1.87576 0
M  V30 2442 O 219.74 -1.17798 1.40959 0
M  V30 2443 C 219.802 1.83249 3.0929 0
M  V30 2444 C 219.466 3.32531 3.13484 0
M  V30 2445 C 220.463 4.28821 2.93953 0
M  V30 2446 C 218.148 3.73656 3.35688 0
M  V30 2447 C 220.142 5.64212 2.96553 0
M  V30 2448 C 217.829 5.0917 3.37919 0
M  V30 2449 C 218.827 6.04258 3.18373 0
M  V30 2450 O 218.515 7.37298 3.20385 0
M  V30 2451 H 218.247 0.415467 0.533257 0
M  V30 2452 H 220.801 1.70912 1.13922 0
M  V30 2453 H 219.031 1.26358 3.65473 0
M  V30 2454 H 220.72 1.68054 3.69476 0
M  V30 2455 H 221.486 3.98382 2.76616 0
M  V30 2456 H 217.365 3.00101 3.49943 0
M  V30 2457 H 220.909 6.38407 2.81216 0
M  V30 2458 H 216.806 5.39256 3.54787 0
M  V30 2459 H 217.574 7.46048 3.36681 0
M  V30 2460 N 220.237 -1.11381 1.11499 0
M  V30 2461 C 221.486 -1.82494 0.858993 0
M  V30 2462 C 221.799 -1.85605 -0.617278 0
M  V30 2463 O 223.005 -2.52824 -0.989552 0
M  V30 2464 C 221.461 -3.27745 1.48699 0
M  V30 2465 C 221.069 -3.32961 2.99735 0
M  V30 2466 C 222.813 -4.03754 1.31085 0
M  V30 2467 C 220.72 -4.72612 3.55516 0
M  V30 2468 H 219.65 -0.683802 0.317696 0
M  V30 2469 H 222.301 -1.25331 1.34031 0
M  V30 2470 H 220.683 -3.84844 0.933339 0
M  V30 2471 H 221.857 -2.85741 3.61509 0
M  V30 2472 H 220.172 -2.70433 3.16631 0
M  V30 2473 H 222.769 -5.06891 1.70192 0
M  V30 2474 H 223.112 -4.15527 0.253496 0
M  V30 2475 H 223.645 -3.53043 1.83318 0
M  V30 2476 H 220.384 -4.66036 4.60967 0
M  V30 2477 H 219.904 -5.2024 2.98513 0
M  V30 2478 H 221.583 -5.4157 3.53992 0
M  V30 2479 N 221.715 -0.905404 -1.28997 0
M  V30 2480 C 222.964 -0.530191 -1.94607 0
M  V30 2481 C 223.277 0.929185 -1.72121 0
M  V30 2482 O 224.483 1.41218 -2.31883 0
M  V30 2483 C 222.939 -0.897333 -3.48534 0
M  V30 2484 C 222.547 -2.37587 -3.79811 0
M  V30 2485 C 224.291 -0.592304 -4.20347 0
M  V30 2486 C 222.198 -2.68357 -5.27009 0
M  V30 2487 H 221.128 -0.194558 -0.728466 0
M  V30 2488 H 223.779 -1.10318 -1.46636 0
M  V30 2489 H 222.161 -0.253214 -3.9519 0
M  V30 2490 H 223.335 -3.06602 -3.43994 0
M  V30 2491 H 221.65 -2.6505 -3.2115 0
M  V30 2492 H 224.247 -0.798975 -5.28697 0
M  V30 2493 H 224.59 0.469474 -4.13644 0
M  V30 2494 H 225.123 -1.19452 -3.79442 0
M  V30 2495 H 221.862 -3.73355 -5.38782 0
M  V30 2496 H 221.382 -2.03971 -5.64053 0
M  V30 2497 H 223.061 -2.54922 -5.94663 0
M  V30 2498 N 223.193 1.4272 -0.668489 0
M  V30 2499 C 224.418 2.06484 -0.194758 0
M  V30 2500 C 224.843 1.49862 1.13679 0
M  V30 2501 O 224.201 0.614582 1.70565 0
M  V30 2502 C 224.249 3.60353 -0.133546 0
M  V30 2503 O 223.353 4.02464 0.899806 0
M  V30 2504 H 222.694 0.656137 -0.10188 0
M  V30 2505 H 225.224 1.82964 -0.915722 0
M  V30 2506 H 225.234 4.07976 0.0447041 0
M  V30 2507 H 223.909 4.00938 -1.1055 0
M  V30 2508 H 222.486 3.66402 0.693109 0
M  V30 2509 N 224.671 0.411399 1.52136 0
M  V30 2510 C 225.911 -0.163143 2.03748 0
M  V30 2511 C 226.275 -1.42187 1.29022 0
M  V30 2512 O 227.476 -2.075 1.70872 0
M  V30 2513 C 225.747 -0.402651 3.55125 0
M  V30 2514 S 227.306 -0.944315 4.28519 0
M  V30 2515 H 224.124 -0.0439833 0.709638 0
M  V30 2516 H 226.726 0.56484 1.87163 0
M  V30 2517 H 225.43 0.520212 4.0709 0
M  V30 2518 H 224.961 -1.15844 3.75957 0
M  V30 2519 H 226.976 -2.22463 4.43536 0
M  V30 2520 N 226.149 -1.5696 0.141893 0
M  V30 2521 C 227.374 -2.00754 -0.520838 0
M  V30 2522 C 227.799 -1.0213 -1.57959 0
M  V30 2523 O 227.157 0.00371324 -1.813 0
M  V30 2524 C 227.205 -3.43318 -1.10294 0
M  V30 2525 O 226.309 -3.47679 -2.21795 0
M  V30 2526 H 225.65 -0.651564 -0.127908 0
M  V30 2527 H 228.18 -2.03221 0.23712 0
M  V30 2528 H 228.19 -3.82012 -1.43287 0
M  V30 2529 H 226.865 -4.14608 -0.327574 0
M  V30 2530 H 225.442 -3.20824 -1.9007 0
M  V30 2531 N 227.627 0.131896 -1.57047 0
M  V30 2532 C 228.557 1.16384 -2.02428 0
M  V30 2533 C 229.538 1.43936 -0.90644 0
M  V30 2534 O 230.723 1.54599 -1.17528 0
M  V30 2535 C 227.853 2.49328 -2.4177 0
M  V30 2536 C 226.807 2.36266 -3.56879 0
M  V30 2537 C 226.133 3.74057 -3.8208 0
M  V30 2538 C 227.433 1.834 -4.89042 0
M  V30 2539 H 229.127 0.786433 -2.88887 0
M  V30 2540 H 226.673 0.376855 -1.38981 0
M  V30 2541 H 228.626 3.21759 -2.7212 0
M  V30 2542 H 227.35 2.88934 -1.52266 0
M  V30 2543 H 226.009 1.66286 -3.26718 0
M  V30 2544 H 225.657 4.11125 -2.89803 0
M  V30 2545 H 225.357 3.66174 -4.59554 0
M  V30 2546 H 226.881 4.48012 -4.1487 0
M  V30 2547 H 228.295 2.45636 -5.18011 0
M  V30 2548 H 226.692 1.8637 -5.70426 0
M  V30 2549 H 227.762 0.790662 -4.7841 0
M  V30 2550 N 229.106 1.52395 0.401703 0
M  V30 2551 C 230.383 1.57387 1.16141 0
M  V30 2552 C 230.763 0.359359 2.08019 0
M  V30 2553 O 230.111 -0.65326 2.18963 0
M  V30 2554 C 230.321 2.90631 1.93221 0
M  V30 2555 C 231.669 3.43904 2.49028 0
M  V30 2556 O 232.693 2.92421 2.03393 0
M  V30 2557 O 231.552 4.33823 3.32356 0
M  V30 2558 H 228.646 0.634262 0.530698 0
M  V30 2559 H 231.192 1.64725 0.407883 0
M  V30 2560 H 229.964 3.70473 1.25958 0
M  V30 2561 H 229.587 2.8662 2.75563 0
M  V30 2562 N 230.584 -0.659388 1.43143 0
M  V30 2563 C 231.531 -1.77249 1.47822 0
M  V30 2564 C 232.501 -1.62818 0.328558 0
M  V30 2565 O 233.686 -1.83151 0.534838 0
M  V30 2566 C 230.826 -3.15371 1.40126 0
M  V30 2567 C 229.939 -3.4098 2.65249 0
M  V30 2568 C 229.074 -4.68915 2.49584 0
M  V30 2569 C 228.113 -4.87608 3.70006 0
M  V30 2570 N 227.25 -6.06796 3.53189 0
M  V30 2571 H 232.09 -1.72584 2.42938 0
M  V30 2572 H 229.627 -0.842297 1.20598 0
M  V30 2573 H 231.585 -3.9521 1.33659 0
M  V30 2574 H 230.215 -3.19121 0.485964 0
M  V30 2575 H 229.267 -2.55282 2.8202 0
M  V30 2576 H 230.579 -3.50681 3.54717 0
M  V30 2577 H 229.733 -5.56871 2.4079 0
M  V30 2578 H 228.472 -4.61524 1.5763 0
M  V30 2579 H 227.477 -3.9809 3.79215 0
M  V30 2580 H 228.702 -4.96834 4.62961 0
M  V30 2581 H 226.648 -6.00549 2.63965 0
M  V30 2582 H 226.565 -6.17428 4.36255 0
M  V30 2583 H 227.833 -6.9739 3.48236 0
M  V30 2584 N 232.062 -1.29571 -0.897171 0
M  V30 2585 C 233.29 -1.20583 -1.68129 0
M  V30 2586 C 233.705 0.233181 -1.87354 0
M  V30 2587 O 233.062 1.15579 -1.41236 0
M  V30 2588 C 233.113 -1.91772 -3.06441 0
M  V30 2589 O 232.834 -3.30053 -2.88091 0
M  V30 2590 C 234.335 -1.89291 -4.00854 0
M  V30 2591 H 231.555 -0.417826 -0.525036 0
M  V30 2592 H 234.099 -1.70987 -1.12177 0
M  V30 2593 H 232.254 -1.45196 -3.59161 0
M  V30 2594 H 232.668 -3.65942 -3.75748 0
M  V30 2595 H 234.142 -2.43662 -4.95311 0
M  V30 2596 H 234.619 -0.869014 -4.30517 0
M  V30 2597 H 235.225 -2.35622 -3.54066 0
M  V30 2598 N 233.54 1.10788 -1.12088 0
M  V30 2599 C 234.47 2.19083 -0.807755 0
M  V30 2600 C 235.451 1.6858 0.226859 0
M  V30 2601 O 236.636 1.93997 0.0888475 0
M  V30 2602 C 233.766 3.46344 -0.257576 0
M  V30 2603 C 232.72 4.101 -1.22483 0
M  V30 2604 C 232.046 5.32016 -0.535052 0
M  V30 2605 C 233.346 4.54236 -2.57811 0
M  V30 2606 H 235.04 2.45534 -1.71328 0
M  V30 2607 H 232.586 1.1801 -0.825205 0
M  V30 2608 H 234.539 4.21392 -0.0262679 0
M  V30 2609 H 233.263 3.19373 0.683278 0
M  V30 2610 H 231.922 3.37054 -1.44189 0
M  V30 2611 H 231.57 5.01319 0.410827 0
M  V30 2612 H 231.27 5.75625 -1.18024 0
M  V30 2613 H 232.794 6.09799 -0.312695 0
M  V30 2614 H 234.208 5.20575 -2.40155 0
M  V30 2615 H 232.605 5.08682 -3.18375 0
M  V30 2616 H 233.675 3.6734 -3.16528 0
M  V30 2617 N 235.018 0.912232 1.28515 0
M  V30 2618 C 236.434 0.610159 1.47476 0
M  V30 2619 C 236.634 -0.844955 1.82928 0
M  V30 2620 O 235.69 -1.62416 1.93332 0
M  V30 2621 C 237.003 1.54675 2.57868 0
M  V30 2622 C 238.551 1.55331 2.71738 0
M  V30 2623 C 239.026 2.47649 3.85272 0
M  V30 2624 N 240.517 2.45767 3.92623 0
M  V30 2625 C 241.252 3.13896 4.79851 0
M  V30 2626 N 240.748 3.9135 5.71679 0
M  V30 2627 N 242.541 3.02991 4.73448 0
M  V30 2628 H 234.692 1.85318 1.03783 0
M  V30 2629 H 236.955 0.794777 0.516753 0
M  V30 2630 H 236.661 2.5841 2.38574 0
M  V30 2631 H 236.535 1.27671 3.54937 0
M  V30 2632 H 238.922 0.52335 2.90422 0
M  V30 2633 H 239.003 1.86378 1.75205 0
M  V30 2634 H 238.647 3.50745 3.67342 0
M  V30 2635 H 238.577 2.13904 4.81199 0
M  V30 2636 H 241.068 1.89503 3.26951 0
M  V30 2637 H 241.381 4.40359 6.35062 0
M  V30 2638 H 239.726 3.95455 5.71524 0
M  V30 2639 H 242.917 2.41987 4.007 0
M  V30 2640 H 243.09 3.5636 5.41213 0
M  V30 2641 N 236.496 -1.42363 0.676048 0
M  V30 2642 C 237.742 -2.0182 0.199125 0
M  V30 2643 C 238.075 -1.53339 -1.19168 0
M  V30 2644 O 237.35 -0.736124 -1.80032 0
M  V30 2645 C 237.633 -3.59331 0.235144 0
M  V30 2646 C 237.486 -4.17989 1.66149 0
M  V30 2647 C 238.805 -4.3813 -0.41595 0
M  V30 2648 H 235.924 -0.733293 0.0738311 0
M  V30 2649 H 238.566 -1.69368 0.86107 0
M  V30 2650 H 236.716 -3.87109 -0.328487 0
M  V30 2651 H 238.388 -4.0116 2.27747 0
M  V30 2652 H 236.631 -3.7377 2.20178 0
M  V30 2653 H 237.302 -5.27126 1.63837 0
M  V30 2654 H 239.778 -4.16051 0.0638529 0
M  V30 2655 H 238.654 -5.47717 -0.360115 0
M  V30 2656 H 238.915 -4.16101 -1.49373 0
M  V30 2657 N 237.974 -0.419461 -1.51915 0
M  V30 2658 C 239.22 0.145505 -2.02879 0
M  V30 2659 C 239.575 1.41926 -1.29903 0
M  V30 2660 O 238.868 1.87383 -0.399782 0
M  V30 2661 C 239.062 0.437067 -3.54717 0
M  V30 2662 C 238.891 -0.806877 -4.42402 0
M  V30 2663 C 237.661 -1.33514 -4.87342 0
M  V30 2664 C 239.859 -1.68796 -4.85811 0
M  V30 2665 N 237.841 -2.53349 -5.59185 0
M  V30 2666 C 239.212 -2.73247 -5.56539 0
M  V30 2667 C 241.267 -1.70449 -4.67816 0
M  V30 2668 C 239.97 -3.79276 -6.11181 0
M  V30 2669 C 241.996 -2.75403 -5.23361 0
M  V30 2670 C 241.358 -3.78575 -5.9402 0
M  V30 2671 H 237.457 0.0145424 -0.781865 0
M  V30 2672 H 240.041 -0.576126 -1.85981 0
M  V30 2673 H 238.212 1.12774 -3.71667 0
M  V30 2674 H 239.944 0.99182 -3.92358 0
M  V30 2675 H 236.699 -0.891657 -4.65131 0
M  V30 2676 H 237.123 -3.14066 -5.99743 0
M  V30 2677 H 241.765 -0.920209 -4.12664 0
M  V30 2678 H 239.483 -4.58554 -6.65397 0
M  V30 2679 H 243.069 -2.77603 -5.113 0
M  V30 2680 H 241.949 -4.58453 -6.36231 0
M  V30 2681 N 239.452 1.56882 -0.150215 0
M  V30 2682 C 240.729 1.87844 0.545327 0
M  V30 2683 C 241.109 1.0567 1.82749 0
M  V30 2684 O 240.457 0.144442 2.28043 0
M  V30 2685 C 240.667 3.39526 0.80767 0
M  V30 2686 C 242.015 4.08814 1.14703 0
M  V30 2687 O 243.039 3.44723 0.896917 0
M  V30 2688 O 241.898 5.22004 1.61784 0
M  V30 2689 H 238.992 0.778677 0.278553 0
M  V30 2690 H 241.538 1.68666 -0.187068 0
M  V30 2691 H 240.31 3.91173 -0.0996096 0
M  V30 2692 H 239.933 3.64243 1.59413 0
M  V30 2693 N 240.93 -0.123565 1.57115 0
M  V30 2694 C 242.179 -0.830704 1.83799 0
M  V30 2695 C 242.492 -1.81259 0.735158 0
M  V30 2696 O 243.698 -2.56558 0.888278 0
M  V30 2697 C 242.154 -1.52802 3.25852 0
M  V30 2698 C 241.762 -0.587356 4.44133 0
M  V30 2699 C 243.506 -2.22056 3.61789 0
M  V30 2700 C 241.413 -1.28764 5.77212 0
M  V30 2701 H 240.343 -0.313967 0.685522 0
M  V30 2702 H 242.994 -0.0834359 1.8331 0
M  V30 2703 H 241.376 -2.32175 3.20797 0
M  V30 2704 H 242.55 0.172829 4.60476 0
M  V30 2705 H 240.865 -0.00201892 4.164 0
M  V30 2706 H 243.462 -2.75131 4.58483 0
M  V30 2707 H 243.805 -2.99644 2.88997 0
M  V30 2708 H 244.338 -1.49576 3.68608 0
M  V30 2709 H 241.077 -0.55314 6.53162 0
M  V30 2710 H 240.597 -2.01995 5.64764 0
M  V30 2711 H 242.276 -1.8221 6.20813 0
M  V30 2712 N 242.408 -1.52605 -0.393616 0
M  V30 2713 C 243.355 -1.77055 -1.48054 0
M  V30 2714 C 244.325 -0.61358 -1.54352 0
M  V30 2715 O 245.51 -0.852806 -1.70681 0
M  V30 2716 C 242.65 -1.94108 -2.85335 0
M  V30 2717 C 241.763 -3.21792 -2.88226 0
M  V30 2718 C 240.898 -3.29188 -4.16904 0
M  V30 2719 C 239.937 -4.51013 -4.13828 0
M  V30 2720 N 239.074 -4.55716 -5.34105 0
M  V30 2721 H 243.914 -2.69815 -1.26506 0
M  V30 2722 H 241.451 -1.33683 -0.61379 0
M  V30 2723 H 243.409 -2.01979 -3.65049 0
M  V30 2724 H 242.039 -1.04713 -3.05344 0
M  V30 2725 H 241.091 -3.23015 -2.00911 0
M  V30 2726 H 242.403 -4.11557 -2.8182 0
M  V30 2727 H 241.557 -3.36216 -5.05018 0
M  V30 2728 H 240.296 -2.37389 -4.26026 0
M  V30 2729 H 239.301 -4.44115 -3.24102 0
M  V30 2730 H 240.526 -5.44123 -4.06333 0
M  V30 2731 H 238.472 -3.66807 -5.43865 0
M  V30 2732 H 238.389 -5.39346 -5.29756 0
M  V30 2733 H 239.657 -4.66993 -6.2413 0
M  V30 2734 N 243.887 0.651787 -1.4349 0
M  V30 2735 C 244.817 1.77621 -1.51569 0
M  V30 2736 C 245.798 1.66022 -0.370253 0
M  V30 2737 O 246.983 1.85095 -0.587658 0
M  V30 2738 C 244.113 3.16056 -1.43966 0
M  V30 2739 C 243.067 3.4242 -2.56774 0
M  V30 2740 C 242.393 4.8067 -2.34223 0
M  V30 2741 C 243.693 3.37023 -3.99015 0
M  V30 2742 H 245.387 1.71117 -2.45681 0
M  V30 2743 H 242.933 0.821825 -1.18246 0
M  V30 2744 H 244.886 3.94472 -1.48221 0
M  V30 2745 H 243.61 3.23293 -0.463586 0
M  V30 2746 H 242.269 2.66375 -2.51873 0
M  V30 2747 H 241.917 4.84585 -1.34856 0
M  V30 2748 H 241.617 4.9927 -3.09844 0
M  V30 2749 H 243.141 5.61342 -2.40265 0
M  V30 2750 H 244.555 4.05374 -4.05395 0
M  V30 2751 H 242.952 3.67159 -4.74673 0
M  V30 2752 H 244.022 2.3518 -4.2405 0
M  V30 2753 N 245.365 1.30045 0.890287 0
M  V30 2754 C 246.295 1.18541 2.01172 0
M  V30 2755 C 247.276 0.0773356 1.69924 0
M  V30 2756 O 248.461 0.25845 1.92473 0
M  V30 2757 C 245.591 0.870941 3.36202 0
M  V30 2758 C 244.545 1.93637 3.81692 0
M  V30 2759 C 243.871 1.475 5.13953 0
M  V30 2760 C 245.171 3.34666 4.00994 0
M  V30 2761 H 246.865 2.12359 2.11054 0
M  V30 2762 H 244.411 1.02238 1.01407 0
M  V30 2763 H 246.364 0.777141 4.14172 0
M  V30 2764 H 245.088 -0.102926 3.26438 0
M  V30 2765 H 243.747 2.01972 3.05946 0
M  V30 2766 H 243.395 0.489551 5.00612 0
M  V30 2767 H 243.095 2.1876 5.4536 0
M  V30 2768 H 244.619 1.39489 5.94454 0
M  V30 2769 H 246.033 3.2912 4.69417 0
M  V30 2770 H 244.43 4.03966 4.43769 0
M  V30 2771 H 245.5 3.76949 3.05021 0
M  V30 2772 N 246.843 -1.10192 1.12674 0
M  V30 2773 C 248.259 -1.34235 0.863317 0
M  V30 2774 C 248.459 -1.95062 -0.505277 0
M  V30 2775 O 247.515 -2.19192 -1.25345 0
M  V30 2776 C 248.828 -2.2616 1.98172 0
M  V30 2777 C 250.376 -2.3969 2.0129 0
M  V30 2778 C 250.851 -3.34946 3.1237 0
M  V30 2779 N 252.342 -3.42515 3.11829 0
M  V30 2780 C 253.077 -4.16199 3.94419 0
M  V30 2781 N 252.573 -4.92747 4.87004 0
M  V30 2782 N 254.366 -4.11843 3.82547 0
M  V30 2783 H 246.517 -0.690798 2.00853 0
M  V30 2784 H 248.78 -0.366774 0.874174 0
M  V30 2785 H 248.486 -1.8868 2.96804 0
M  V30 2786 H 248.36 -3.26488 1.88906 0
M  V30 2787 H 250.747 -2.76438 1.03276 0
M  V30 2788 H 250.828 -1.39169 2.14629 0
M  V30 2789 H 250.472 -2.98923 4.10619 0
M  V30 2790 H 250.402 -4.35353 2.96269 0
M  V30 2791 H 252.893 -2.87926 2.44759 0
M  V30 2792 H 253.206 -5.46376 5.46528 0
M  V30 2793 H 251.551 -4.91862 4.91016 0
M  V30 2794 H 254.742 -3.51136 3.0955 0
M  V30 2795 H 254.915 -4.69007 4.47142 0
M  V30 2796 N 248.321 -0.919034 -1.28029 0
M  V30 2797 C 249.231 -0.416756 -2.30869 0
M  V30 2798 C 250.247 0.498235 -1.66714 0
M  V30 2799 O 251.423 0.383144 -1.97722 0
M  V30 2800 C 248.488 0.330274 -3.45123 0
M  V30 2801 C 247.549 -0.618578 -4.2482 0
M  V30 2802 C 246.782 0.0928959 -5.33619 0
M  V30 2803 O 247.005 1.31375 -5.55065 0
M  V30 2804 O 245.939 -0.574499 -5.99152 0
M  V30 2805 H 249.765 -1.27043 -2.75851 0
M  V30 2806 H 247.35 -0.684052 -1.3282 0
M  V30 2807 H 249.232 0.751972 -4.14636 0
M  V30 2808 H 247.907 1.1597 -3.02213 0
M  V30 2809 H 246.814 -1.08978 -3.57875 0
M  V30 2810 H 248.147 -1.41497 -4.71423 0
M  V30 2811 N 249.799 1.42003 -0.683588 0
M  V30 2812 C 250.746 2.30798 -0.0107309 0
M  V30 2813 C 251.716 1.4645 0.783688 0
M  V30 2814 O 252.901 1.75263 0.754156 0
M  V30 2815 C 250.041 3.3238 0.928306 0
M  V30 2816 C 249.154 4.31814 0.126776 0
M  V30 2817 C 248.289 5.20468 1.06236 0
M  V30 2818 C 247.328 6.11577 0.253035 0
M  V30 2819 N 246.465 6.92754 1.14179 0
M  V30 2820 H 251.305 2.8778 -0.773727 0
M  V30 2821 H 248.842 1.41745 -0.393283 0
M  V30 2822 H 250.8 3.89813 1.48666 0
M  V30 2823 H 249.43 2.76976 1.65783 0
M  V30 2824 H 248.482 3.76427 -0.54833 0
M  V30 2825 H 249.794 4.96276 -0.501192 0
M  V30 2826 H 248.948 5.82677 1.69035 0
M  V30 2827 H 247.687 4.56204 1.7242 0
M  V30 2828 H 246.692 5.48428 -0.388108 0
M  V30 2829 H 247.917 6.77892 -0.404839 0
M  V30 2830 H 245.863 6.3111 1.78987 0
M  V30 2831 H 245.78 7.53855 0.569111 0
M  V30 2832 H 247.048 7.59441 1.75697 0
M  V30 2833 N 251.277 0.427512 1.51691 0
M  V30 2834 C 252.225 -0.403359 2.29076 0
M  V30 2835 C 253.219 -1.02962 1.34518 0
M  V30 2836 O 254.425 -0.965715 1.51901 0
M  V30 2837 H 250.8 -0.148879 0.737115 0
M  V30 2838 H 252.771 0.270295 2.97173 0
M  V30 2839 C 251.52 -1.49763 3.13794 0
M  V30 2840 H 250.843 -1.02508 3.86435 0
M  V30 2841 H 252.283 -2.05244 3.71014 0
M  V30 2842 C 250.742 -2.47536 2.28533 0
M  V30 2843 O 251.272 -3.51848 1.93819 0
M  V30 2844 N 249.478 -2.18187 1.91945 0
M  V30 2845 H 249.025 -1.33389 2.20375 0
M  V30 2846 H 248.983 -2.83848 1.35195 0
M  V30 2847 N 252.755 -1.56801 0.158532 0
M  V30 2848 C 254.001 -1.96781 -0.490405 0
M  V30 2849 C 254.334 -1.04397 -1.63753 0
M  V30 2850 O 253.609 -0.0885805 -1.94298 0
M  V30 2851 C 253.892 -3.4635 -0.985594 0
M  V30 2852 C 253.745 -4.49512 0.160824 0
M  V30 2853 C 255.064 -3.98697 -1.86355 0
M  V30 2854 H 252.183 -0.715482 -0.176788 0
M  V30 2855 H 254.825 -1.88451 0.242088 0
M  V30 2856 H 252.975 -3.53579 -1.60978 0
M  V30 2857 H 254.647 -4.54353 0.797537 0
M  V30 2858 H 252.89 -4.26013 0.818256 0
M  V30 2859 H 253.561 -5.51531 -0.227569 0
M  V30 2860 H 256.037 -3.94019 -1.33746 0
M  V30 2861 H 254.913 -5.03792 -2.17909 0
M  V30 2862 H 255.174 -3.41744 -2.8047 0
M  V30 2863 N 254.233 0.115231 -1.57178 0
M  V30 2864 C 255.482 0.820945 -1.84237 0
M  V30 2865 C 255.795 1.80866 -0.744761 0
M  V30 2866 O 257.001 2.56083 -0.901871 0
M  V30 2867 C 255.457 1.51072 -3.26658 0
M  V30 2868 C 255.065 0.563795 -4.44438 0
M  V30 2869 C 256.809 2.20134 -3.62962 0
M  V30 2870 C 254.716 1.25701 -5.77887 0
M  V30 2871 H 253.646 0.310328 -0.687177 0
M  V30 2872 H 256.297 0.0737134 -1.83352 0
M  V30 2873 H 254.679 2.30471 -3.22024 0
M  V30 2874 H 255.853 -0.197247 -4.60378 0
M  V30 2875 H 254.168 -0.0200638 -4.16395 0
M  V30 2876 H 256.765 2.72696 -4.59936 0
M  V30 2877 H 257.108 2.98107 -2.90582 0
M  V30 2878 H 257.641 1.47619 -3.69396 0
M  V30 2879 H 254.38 0.518493 -6.53446 0
M  V30 2880 H 253.9 1.98997 -5.65827 0
M  V30 2881 H 255.579 1.78915 -6.2177 0
M  V30 2882 N 255.711 1.52812 0.385517 0
M  V30 2883 C 256.936 1.72207 1.15583 0
M  V30 2884 C 257.361 0.441034 1.82857 0
M  V30 2885 O 256.719 -0.603465 1.70962 0
M  V30 2886 C 256.767 2.87476 2.17692 0
M  V30 2887 O 255.871 2.54693 3.24354 0
M  V30 2888 H 255.212 0.572526 0.336319 0
M  V30 2889 H 257.742 1.99618 0.448744 0
M  V30 2890 H 257.752 3.13072 2.6163 0
M  V30 2891 H 256.427 3.80408 1.68115 0
M  V30 2892 H 255.004 2.3985 2.85529 0
M  V30 2893 N 257.189 -0.644168 1.43834 0
M  V30 2894 C 258.136 -1.75671 1.49694 0
M  V30 2895 C 259.106 -1.6246 0.345809 0
M  V30 2896 O 260.291 -1.82573 0.554234 0
M  V30 2897 C 257.431 -3.13867 1.43463 0
M  V30 2898 C 256.544 -3.38147 2.6885 0
M  V30 2899 C 255.679 -4.66241 2.54544 0
M  V30 2900 C 254.718 -4.83657 3.75157 0
M  V30 2901 N 253.855 -6.03016 3.59605 0
M  V30 2902 H 258.695 -1.69998 2.44754 0
M  V30 2903 H 256.232 -0.829458 1.21484 0
M  V30 2904 H 258.19 -3.9377 1.37843 0
M  V30 2905 H 256.82 -3.18588 0.519783 0
M  V30 2906 H 255.872 -2.52276 2.84712 0
M  V30 2907 H 257.184 -3.46899 3.58417 0
M  V30 2908 H 256.338 -5.54285 2.46683 0
M  V30 2909 H 255.077 -4.59826 1.62516 0
M  V30 2910 H 254.082 -3.94046 3.83416 0
M  V30 2911 H 255.307 -4.91896 4.68204 0
M  V30 2912 H 253.253 -5.97715 2.7032 0
M  V30 2913 H 253.17 -6.12766 4.42779 0
M  V30 2914 H 254.438 -6.93657 3.55613 0
M  V30 2915 N 258.668 -1.30515 -0.883378 0
M  V30 2916 C 259.916 -1.19194 -1.63209 0
M  V30 2917 C 260.237 0.253205 -1.93349 0
M  V30 2918 O 259.507 1.17025 -1.57105 0
M  V30 2919 H 258.087 -0.438148 -0.605009 0
M  V30 2920 H 260.749 -1.63663 -1.05832 0
M  V30 2921 H 259.845 -1.75396 -2.58153 0
M  V30 2922 N 260.146 1.09593 -1.13257 0
M  V30 2923 C 261.423 1.78293 -0.804432 0
M  V30 2924 C 261.803 1.99004 0.70431 0
M  V30 2925 O 261.151 1.59007 1.641 0
M  V30 2926 C 261.361 3.10707 -1.5894 0
M  V30 2927 C 262.709 3.85443 -1.78099 0
M  V30 2928 O 263.733 3.20454 -1.55525 0
M  V30 2929 O 262.592 5.02108 -2.15753 0
M  V30 2930 H 259.686 0.773156 -0.293528 0
M  V30 2931 H 262.232 1.16164 -1.23709 0
M  V30 2932 H 261.004 2.91106 -2.61482 0
M  V30 2933 H 260.627 3.80558 -1.15157 0
M  V30 2934 N 261.624 0.925811 1.2754 0
M  V30 2935 C 262.574 0.394488 2.24561 0
M  V30 2936 C 263.558 -0.500183 1.52928 0
M  V30 2937 O 264.75 -0.337936 1.73744 0
M  V30 2938 C 261.879 -0.353328 3.41477 0
M  V30 2939 C 260.965 0.557752 4.20416 0
M  V30 2940 N 261.356 1.67674 4.77199 0
M  V30 2941 C 259.654 0.360404 4.44541 0
M  V30 2942 C 260.355 2.24324 5.36706 0
M  V30 2943 N 259.331 1.53305 5.21535 0
M  V30 2944 H 263.133 1.2489 2.66045 0
M  V30 2945 H 260.647 0.779864 1.4245 0
M  V30 2946 H 262.644 -0.7509 4.10082 0
M  V30 2947 H 261.304 -1.20469 3.01525 0
M  V30 2948 H 262.315 2.05915 4.75204 0
M  V30 2949 H 258.992 -0.450454 4.15063 0
M  V30 2950 H 260.382 3.18521 5.91603 0
M  V30 2951 N 263.102 -1.41638 0.69111 0
M  V30 2952 C 264.032 -2.3347 0.037248 0
M  V30 2953 C 265.013 -1.51575 -0.771947 0
M  V30 2954 O 266.198 -1.80126 -0.72582 0
M  V30 2955 C 263.328 -3.35354 -0.903064 0
M  V30 2956 C 262.282 -4.27526 -0.201288 0
M  V30 2957 C 261.608 -5.19747 -1.25565 0
M  V30 2958 C 262.908 -5.13959 0.929689 0
M  V30 2959 H 264.602 -2.88397 0.804227 0
M  V30 2960 H 262.148 -1.38669 0.388189 0
M  V30 2961 H 264.101 -3.98519 -1.36969 0
M  V30 2962 H 262.825 -2.78767 -1.70166 0
M  V30 2963 H 261.484 -3.65779 0.245265 0
M  V30 2964 H 261.132 -4.59479 -2.04666 0
M  V30 2965 H 260.832 -5.8225 -0.791128 0
M  V30 2966 H 262.356 -5.85789 -1.72288 0
M  V30 2967 H 263.77 -5.70718 0.543546 0
M  V30 2968 H 262.167 -5.85379 1.32103 0
M  V30 2969 H 263.237 -4.51389 1.77133 0
M  V30 2970 N 264.58 -0.43555 -1.51462 0
M  V30 2971 C 265.857 0.191364 -1.94662 0
M  V30 2972 C 266.237 1.60254 -1.37411 0
M  V30 2973 O 265.585 2.2152 -0.560458 0
M  V30 2974 C 265.795 0.17091 -3.48581 0
M  V30 2975 C 267.143 0.377357 -4.2292 0
M  V30 2976 O 268.167 0.249104 -3.55328 0
M  V30 2977 O 267.026 0.63247 -5.42828 0
M  V30 2978 H 264.12 0.130932 -0.816569 0
M  V30 2979 H 266.666 -0.4934 -1.62369 0
M  V30 2980 H 265.438 -0.815738 -3.82703 0
M  V30 2981 H 265.061 0.898659 -3.87311 0
M  V30 2982 N 266.058 1.56714 -0.166846 0
M  V30 2983 C 267.283 2.01557 0.488833 0
M  V30 2984 C 267.708 1.0463 1.56314 0
M  V30 2985 O 267.066 0.0251304 1.81283 0
M  V30 2986 C 267.114 3.4503 1.04818 0
M  V30 2987 O 266.218 3.51163 2.16236 0
M  V30 2988 H 265.559 0.653516 0.117526 0
M  V30 2989 H 268.089 2.02818 -0.269421 0
M  V30 2990 H 268.099 3.84243 1.37191 0
M  V30 2991 H 266.774 4.15077 0.261572 0
M  V30 2992 H 265.351 3.23807 1.84942 0
M  V30 2993 N 267.536 -0.106894 1.57237 0
M  V30 2994 C 268.761 -0.830287 1.90055 0
M  V30 2995 C 269.186 -1.72064 0.75998 0
M  V30 2996 O 268.544 -1.78982 -0.288991 0
M  V30 2997 C 268.592 -1.6295 3.21683 0
M  V30 2998 O 267.696 -2.73748 3.08441 0
M  V30 2999 H 267.037 -0.228855 0.623315 0
M  V30 3000 H 269.567 -0.085658 2.04421 0
M  V30 3001 H 269.577 -2.01621 3.54701 0
M  V30 3002 H 268.252 -0.975989 4.04286 0
M  V30 3003 H 266.829 -2.38192 2.86913 0
M  V30 3004 N 269.014 -1.53014 -0.377408 0
M  V30 3005 C 270.263 -1.67845 -1.11853 0
M  V30 3006 C 270.576 -0.430625 -1.90801 0
M  V30 3007 O 271.782 -0.459261 -2.67587 0
M  V30 3008 C 270.238 -2.96668 -2.03756 0
M  V30 3009 C 269.846 -4.28671 -1.30175 0
M  V30 3010 C 271.59 -3.20865 -2.77932 0
M  V30 3011 C 269.497 -5.48591 -2.20911 0
M  V30 3012 H 268.427 -0.625343 -0.421263 0
M  V30 3013 H 271.078 -1.79514 -0.380409 0
M  V30 3014 H 269.46 -2.78773 -2.8125 0
M  V30 3015 H 270.634 -4.57157 -0.578259 0
M  V30 3016 H 268.949 -4.10825 -0.679108 0
M  V30 3017 H 271.546 -4.07642 -3.46024 0
M  V30 3018 H 271.889 -2.36424 -3.4265 0
M  V30 3019 H 272.422 -3.39379 -2.07525 0
M  V30 3020 H 269.161 -6.35474 -1.6079 0
M  V30 3021 H 268.681 -5.244 -2.91144 0
M  V30 3022 H 270.36 -5.8292 -2.80736 0
M  V30 3023 N 270.492 0.636531 -1.44174 0
M  V30 3024 C 271.44 1.76995 -1.50915 0
M  V30 3025 C 272.434 1.65053 -0.381295 0
M  V30 3026 O 273.64 1.71197 -0.55601 0
M  V30 3027 H 270.015 0.584247 -0.473455 0
M  V30 3028 H 271.986 1.68432 -2.4632 0
M  V30 3029 C 270.735 3.15314 -1.46534 0
M  V30 3030 H 270.058 3.25149 -2.32633 0
M  V30 3031 H 271.498 3.9453 -1.55312 0
M  V30 3032 C 269.957 3.3639 -0.185305 0
M  V30 3033 O 270.487 3.94699 0.746688 0
M  V30 3034 N 268.693 2.9046 -0.0901606 0
M  V30 3035 H 268.24 2.43193 -0.849416 0
M  V30 3036 H 268.198 3.04937 0.765553 0
M  V30 3037 N 271.97 1.30982 0.876444 0
M  V30 3038 C 272.918 1.18006 2.00443 0
M  V30 3039 C 273.912 0.0898871 1.69161 0
M  V30 3040 O 275.118 0.251333 1.78237 0
M  V30 3041 H 271.493 0.365196 0.65737 0
M  V30 3042 H 273.464 2.13453 2.0852 0
M  V30 3043 C 272.213 0.897521 3.35916 0
M  V30 3044 H 271.536 1.7285 3.60504 0
M  V30 3045 H 272.976 0.846874 4.15456 0
M  V30 3046 C 271.435 -0.399674 3.34521 0
M  V30 3047 O 271.965 -1.41852 3.7582 0
M  V30 3048 N 270.171 -0.413893 2.87637 0
M  V30 3049 H 269.718 0.41571 2.54224 0
M  V30 3050 H 269.676 -1.28175 2.87086 0
M  V30 3051 N 273.449 -1.08991 1.13837 0
M  V30 3052 C 274.397 -2.17841 0.815347 0
M  V30 3053 C 275.391 -1.68164 -0.204233 0
M  V30 3054 O 276.597 -1.79897 -0.0609304 0
M  V30 3055 H 272.972 -0.710654 0.245915 0
M  V30 3056 H 274.943 -2.42315 1.74143 0
M  V30 3057 C 273.692 -3.46381 0.302614 0
M  V30 3058 H 273.015 -3.84979 1.0785 0
M  V30 3059 H 274.455 -4.23844 0.115074 0
M  V30 3060 C 272.914 -3.22556 -0.972591 0
M  V30 3061 O 273.444 -3.45599 -2.04754 0
M  V30 3062 N 271.65 -2.76134 -0.905455 0
M  V30 3063 H 271.197 -2.57582 -0.0305421 0
M  V30 3064 H 271.155 -2.60571 -1.75926 0
M  V30 3065 N 274.927 -0.932562 -1.27047 0
M  V30 3066 C 275.875 -0.42603 -2.28665 0
M  V30 3067 C 276.869 0.49219 -1.62092 0
M  V30 3068 O 278.075 0.371355 -1.76128 0
M  V30 3069 H 274.45 -0.119213 -0.742491 0
M  V30 3070 H 276.421 -1.29579 -2.68797 0
M  V30 3071 C 275.17 0.301426 -3.46391 0
M  V30 3072 H 274.493 -0.39595 -3.97834 0
M  V30 3073 H 275.933 0.6202 -4.1944 0
M  V30 3074 C 274.392 1.51616 -3.00856 0
M  V30 3075 O 274.922 2.61476 -3.04948 0
M  V30 3076 N 273.128 1.36969 -2.56296 0
M  V30 3077 H 272.675 0.475873 -2.53166 0
M  V30 3078 H 272.633 2.18368 -2.26192 0
M  V30 3079 N 276.405 1.4127 -0.698611 0
M  V30 3080 C 277.353 2.32588 -0.023855 0
M  V30 3081 C 278.347 1.51128 0.765292 0
M  V30 3082 O 279.553 1.67043 0.670571 0
M  V30 3083 H 275.928 0.751918 0.0110871 0
M  V30 3084 H 277.899 2.87167 -0.811031 0
M  V30 3085 C 276.648 3.35947 0.896369 0
M  V30 3086 H 275.971 3.98684 0.298548 0
M  V30 3087 H 277.411 4.02376 1.33676 0
M  V30 3088 C 275.87 2.70076 2.01396 0
M  V30 3089 O 276.4 2.55093 3.10307 0
M  V30 3090 N 274.606 2.28724 1.79259 0
M  V30 3091 H 274.153 2.4111 0.906841 0
M  V30 3092 H 274.111 1.84986 2.54219 0
M  V30 3093 N 277.883 0.443576 1.51229 0
M  V30 3094 C 278.831 -0.37904 2.29491 0
M  V30 3095 C 279.825 -1.0153 1.35603 0
M  V30 3096 O 281.031 -0.94955 1.52917 0
M  V30 3097 H 277.406 -0.141053 0.738653 0
M  V30 3098 H 279.377 0.301799 2.9687 0
M  V30 3099 C 278.126 -1.46426 3.15364 0
M  V30 3100 H 277.449 -0.984037 3.87501 0
M  V30 3101 H 278.889 -2.01297 3.7317 0
M  V30 3102 C 277.348 -2.45099 2.31146 0
M  V30 3103 O 277.878 -3.49773 1.9754 0
M  V30 3104 N 276.084 -2.16139 1.94249 0
M  V30 3105 H 275.631 -1.31044 2.21777 0
M  V30 3106 H 275.589 -2.82398 1.38198 0
M  V30 3107 N 279.361 -1.56624 0.175154 0
M  V30 3108 C 280.309 -2.19468 -0.770495 0
M  V30 3109 C 281.303 -1.15985 -1.23466 0
M  V30 3110 O 282.509 -1.34176 -1.19987 0
M  V30 3111 H 278.884 -0.703095 -0.266761 0
M  V30 3112 H 280.855 -2.97613 -0.216542 0
M  V30 3113 C 279.604 -2.85264 -1.98796 0
M  V30 3114 H 278.927 -3.64623 -1.63983 0
M  V30 3115 H 280.367 -3.327 -2.62843 0
M  V30 3116 C 278.826 -1.85239 -2.81404 0
M  V30 3117 O 279.356 -1.34024 -3.78682 0
M  V30 3118 N 277.562 -1.53911 -2.46495 0
M  V30 3119 H 277.109 -1.95751 -1.67449 0
M  V30 3120 H 277.067 -0.872382 -3.02054 0
M  V30 3121 N 280.839 0.0985539 -1.57292 0
M  V30 3122 C 282.088 0.801358 -1.85098 0
M  V30 3123 C 282.401 1.80066 -0.763902 0
M  V30 3124 O 283.607 2.55112 -0.928981 0
M  V30 3125 C 282.063 1.47599 -3.28242 0
M  V30 3126 C 281.671 0.516624 -4.45011 0
M  V30 3127 C 283.415 2.16272 -3.65276 0
M  V30 3128 C 281.322 1.19564 -5.79188 0
M  V30 3129 H 280.252 0.303022 -0.69043 0
M  V30 3130 H 282.903 0.0542623 -1.8342 0
M  V30 3131 H 281.285 2.27042 -3.2445 0
M  V30 3132 H 282.459 -0.246065 -4.60143 0
M  V30 3133 H 280.774 -0.064227 -4.1635 0
M  V30 3134 H 283.371 2.67802 -4.62803 0
M  V30 3135 H 283.714 2.95009 -2.93727 0
M  V30 3136 H 284.247 1.43693 -3.70941 0
M  V30 3137 H 280.986 0.449157 -6.53959 0
M  V30 3138 H 280.506 1.92984 -5.67906 0
M  V30 3139 H 282.185 1.7231 -6.23633 0
M  V30 3140 N 282.317 1.53212 0.369288 0
M  V30 3141 C 283.565 1.68881 1.11012 0
M  V30 3142 C 283.886 0.441285 1.89941 0
M  V30 3143 O 283.156 -0.544623 1.88177 0
M  V30 3144 H 281.736 0.622569 0.412816 0
M  V30 3145 H 284.398 1.90391 0.416802 0
M  V30 3146 H 283.494 2.54822 1.80201 0
M  V30 3147 N 283.795 -0.628877 1.44509 0
M  V30 3148 C 285.211 -0.947305 1.28446 0
M  V30 3149 C 285.411 -2.00275 0.221872 0
M  V30 3150 O 284.467 -2.49447 -0.391471 0
M  V30 3151 C 285.78 -1.40843 2.65676 0
M  V30 3152 C 287.328 -1.52379 2.73404 0
M  V30 3153 C 287.803 -2.01875 4.11109 0
M  V30 3154 N 289.294 -2.09142 4.13296 0
M  V30 3155 C 290.029 -2.48615 5.16699 0
M  V30 3156 N 289.525 -2.87209 6.30462 0
M  V30 3157 N 291.318 -2.48768 5.04054 0
M  V30 3158 H 283.469 0.0690977 2.12288 0
M  V30 3159 H 285.732 -0.0317164 0.947469 0
M  V30 3160 H 285.438 -0.707206 3.44516 0
M  V30 3161 H 285.312 -2.37902 2.92716 0
M  V30 3162 H 287.699 -2.21598 1.9488 0
M  V30 3163 H 287.78 -0.536898 2.50102 0
M  V30 3164 H 287.424 -1.3325 4.90109 0
M  V30 3165 H 287.354 -3.0144 4.31789 0
M  V30 3166 H 289.845 -1.81991 3.31191 0
M  V30 3167 H 290.158 -3.16149 7.05174 0
M  V30 3168 H 288.503 -2.84955 6.33897 0
M  V30 3169 H 291.694 -2.18009 4.14234 0
M  V30 3170 H 291.867 -2.79207 5.84763 0
M  V30 3171 N 285.273 -1.31445 -0.869486 0
M  V30 3172 C 286.521 -1.20918 -1.61936 0
M  V30 3173 C 286.842 0.232683 -1.93607 0
M  V30 3174 O 286.112 1.15352 -1.58338 0
M  V30 3175 H 284.692 -0.44454 -0.600328 0
M  V30 3176 H 287.354 -1.64776 -1.0409 0
M  V30 3177 H 286.45 -1.78124 -2.56278 0
M  V30 3178 N 286.751 1.08385 -1.14413 0
M  V30 3179 C 287.997 1.81044 -0.913834 0
M  V30 3180 C 288.33 1.86004 0.558209 0
M  V30 3181 O 287.605 1.33606 1.4135 0
M  V30 3182 C 287.888 3.26648 -1.51569 0
M  V30 3183 C 287.741 3.29895 -3.0576 0
M  V30 3184 C 289.06 4.23629 -1.19273 0
M  V30 3185 H 286.179 0.65727 -0.333414 0
M  V30 3186 H 288.821 1.26896 -1.41412 0
M  V30 3187 H 286.971 3.72889 -1.09023 0
M  V30 3188 H 288.643 2.91977 -3.57137 0
M  V30 3189 H 286.886 2.69163 -3.40197 0
M  V30 3190 H 287.557 4.32516 -3.42977 0
M  V30 3191 H 290.033 3.85727 -1.56057 0
M  V30 3192 H 288.909 5.23822 -1.64017 0
M  V30 3193 H 289.17 4.41968 -0.108068 0
M  V30 3194 N 288.23 0.939286 1.26551 0
M  V30 3195 C 289.16 0.465044 2.28822 0
M  V30 3196 C 290.141 -0.480692 1.63167 0
M  V30 3197 O 291.326 -0.382955 1.90387 0
M  V30 3198 C 288.456 -0.27234 3.46231 0
M  V30 3199 C 287.41 0.58666 4.2396 0
M  V30 3200 C 286.736 -0.280573 5.33963 0
M  V30 3201 C 288.036 1.85704 4.88171 0
M  V30 3202 H 289.73 1.31979 2.68741 0
M  V30 3203 H 287.276 0.636061 1.29191 0
M  V30 3204 H 289.229 -0.615133 4.16886 0
M  V30 3205 H 287.953 -1.16121 3.0526 0
M  V30 3206 H 286.612 0.91232 3.55067 0
M  V30 3207 H 286.26 -1.16874 4.89234 0
M  V30 3208 H 285.96 0.29076 5.8688 0
M  V30 3209 H 287.484 -0.618678 6.07458 0
M  V30 3210 H 288.898 1.58161 5.51052 0
M  V30 3211 H 287.295 2.37279 5.51197 0
M  V30 3212 H 288.365 2.56957 4.11219 0
M  V30 3213 N 289.708 -1.40897 0.706093 0
M  V30 3214 C 290.656 -2.32572 0.0361893 0
M  V30 3215 C 291.65 -1.51532 -0.757266 0
M  V30 3216 O 292.856 -1.67396 -0.661703 0
M  V30 3217 H 289.231 -0.751966 -0.00709935 0
M  V30 3218 H 291.202 -2.86733 0.826249 0
M  V30 3219 C 289.951 -3.36418 -0.87854 0
M  V30 3220 H 289.274 -3.98836 -0.277401 0
M  V30 3221 H 290.714 -4.0308 -1.3154 0
M  V30 3222 C 289.173 -2.71141 -1.99961 0
M  V30 3223 O 289.703 -2.56735 -3.0895 0
M  V30 3224 N 287.909 -2.29671 -1.78043 0
M  V30 3225 H 287.456 -2.41588 -0.894042 0
M  V30 3226 H 287.414 -1.86332 -2.53235 0
M  V30 3227 N 291.186 -0.45159 -1.50991 0
M  V30 3228 C 292.134 0.366864 -2.29689 0
M  V30 3229 C 293.128 1.00809 -1.36139 0
M  V30 3230 O 294.334 0.941427 -1.53418 0
M  V30 3231 H 290.709 0.137133 -0.739391 0
M  V30 3232 H 292.68 -0.317538 -2.96706 0
M  V30 3233 C 291.429 1.44751 -3.16137 0
M  V30 3234 H 290.752 0.963473 -3.88017 0
M  V30 3235 H 292.192 1.99315 -3.74232 0
M  V30 3236 C 290.651 2.43869 -2.32442 0
M  V30 3237 O 291.181 3.4872 -1.99392 0
M  V30 3238 N 289.387 2.15105 -1.95392 0
M  V30 3239 H 288.934 1.29866 -2.22469 0
M  V30 3240 H 288.892 2.81661 -1.39693 0
M  V30 3241 N 292.664 1.56529 -0.183458 0
M  V30 3242 C 293.612 2.19873 0.758845 0
M  V30 3243 C 294.606 1.16638 1.22849 0
M  V30 3244 O 295.812 1.3481 1.19274 0
M  V30 3245 H 292.187 0.7045 0.263029 0
M  V30 3246 H 294.158 2.97724 0.200755 0
M  V30 3247 C 292.907 2.86314 1.9728 0
M  V30 3248 H 292.23 3.65487 1.62047 0
M  V30 3249 H 293.67 3.3409 2.61075 0
M  V30 3250 C 292.129 1.86729 2.80418 0
M  V30 3251 O 292.659 1.36031 3.77966 0
M  V30 3252 N 290.865 1.55216 2.45675 0
M  V30 3253 H 290.412 1.96636 1.66409 0
M  V30 3254 H 290.37 0.888388 3.01588 0
M  V30 3255 N 294.142 -0.090211 1.57342 0
M  V30 3256 C 295.37 -0.806224 1.90546 0
M  V30 3257 C 295.785 -1.72041 0.777644 0
M  V30 3258 O 295.142 -1.80778 -0.250103 0
M  V30 3259 C 295.193 -1.61546 3.23396 0
M  V30 3260 O 294.914 -0.738043 4.31839 0
M  V30 3261 C 296.415 -2.4341 3.70495 0
M  V30 3262 H 293.635 -0.230256 0.630257 0
M  V30 3263 H 296.179 -0.0659843 2.04394 0
M  V30 3264 H 294.334 -2.30816 3.11131 0
M  V30 3265 H 294.748 -1.29901 5.08159 0
M  V30 3266 H 296.222 -2.95676 4.66133 0
M  V30 3267 H 296.699 -3.22098 2.98579 0
M  V30 3268 H 297.305 -1.79331 3.85643 0
M  V30 3269 N 295.62 -1.53406 -0.361157 0
M  V30 3270 C 296.85 -1.73465 -1.1222 0
M  V30 3271 C 297.258 -0.465486 -1.83384 0
M  V30 3272 O 296.601 0.571611 -1.7458 0
M  V30 3273 C 296.663 -2.84834 -2.19339 0
M  V30 3274 C 296.327 -4.25038 -1.67903 0
M  V30 3275 C 297.324 -5.07231 -1.14074 0
M  V30 3276 C 295.009 -4.71464 -1.73282 0
M  V30 3277 C 297.003 -6.33942 -0.663068 0
M  V30 3278 C 294.69 -5.98153 -1.25127 0
M  V30 3279 C 295.688 -6.79223 -0.717296 0
M  V30 3280 O 295.376 -8.03533 -0.242865 0
M  V30 3281 H 295.108 -0.583526 -0.341283 0
M  V30 3282 H 297.662 -2.00964 -0.424591 0
M  V30 3283 H 295.892 -2.5282 -2.92607 0
M  V30 3284 H 297.581 -2.9303 -2.80871 0
M  V30 3285 H 298.347 -4.72534 -1.09254 0
M  V30 3286 H 294.226 -4.08432 -2.13786 0
M  V30 3287 H 297.77 -6.97167 -0.245612 0
M  V30 3288 H 293.667 -6.32347 -1.29642 0
M  V30 3289 H 294.435 -8.177 -0.361786 0
M  V30 3290 N 297.098 0.621204 -1.44841 0
M  V30 3291 C 298.328 1.40548 -1.51426 0
M  V30 3292 C 298.736 1.88673 -0.141083 0
M  V30 3293 O 298.079 1.62053 0.865128 0
M  V30 3294 C 298.141 2.65325 -2.42576 0
M  V30 3295 C 297.805 2.3893 -3.89566 0
M  V30 3296 C 298.802 2.00138 -4.79834 0
M  V30 3297 C 296.487 2.52263 -4.3436 0
M  V30 3298 C 298.481 1.75021 -6.129 0
M  V30 3299 C 296.168 2.2676 -5.67471 0
M  V30 3300 C 297.166 1.88199 -6.56559 0
M  V30 3301 O 296.854 1.62986 -7.87204 0
M  V30 3302 H 296.586 0.437122 -0.515655 0
M  V30 3303 H 299.14 0.765987 -1.90583 0
M  V30 3304 H 297.37 3.31947 -1.98364 0
M  V30 3305 H 299.059 3.27347 -2.39998 0
M  V30 3306 H 299.825 1.89386 -4.46495 0
M  V30 3307 H 295.704 2.81246 -3.65269 0
M  V30 3308 H 299.248 1.44848 -6.82396 0
M  V30 3309 H 295.145 2.37125 -6.00368 0
M  V30 3310 H 295.913 1.7715 -7.991 0
M  V30 3311 N 298.576 1.31904 0.862503 0
M  V30 3312 C 299.801 1.25135 1.65397 0
M  V30 3313 C 300.226 -0.179 1.87246 0
M  V30 3314 O 299.584 -1.1277 1.4196 0
M  V30 3315 C 299.632 2.00832 2.99498 0
M  V30 3316 O 298.736 1.35075 3.89652 0
M  V30 3317 H 298.077 0.431655 0.504549 0
M  V30 3318 H 300.607 1.74094 1.07483 0
M  V30 3319 H 300.617 2.10709 3.49379 0
M  V30 3320 H 299.292 3.04847 2.82916 0
M  V30 3321 H 297.869 1.33696 3.48109 0
M  V30 3322 N 300.054 -1.07777 1.14986 0
M  V30 3323 C 301.002 -2.16964 0.838406 0
M  V30 3324 C 301.996 -1.68372 -0.186386 0
M  V30 3325 O 303.202 -1.79951 -0.0418465 0
M  V30 3326 H 299.577 -0.708006 0.253439 0
M  V30 3327 H 301.548 -2.40454 1.76704 0
M  V30 3328 C 300.297 -3.4604 0.339335 0
M  V30 3329 H 299.62 -3.83813 1.11927 0
M  V30 3330 H 301.06 -4.23698 0.160021 0
M  V30 3331 C 299.519 -3.23569 -0.938325 0
M  V30 3332 O 300.049 -3.47752 -2.01077 0
M  V30 3333 N 298.255 -2.77079 -0.876117 0
M  V30 3334 H 297.802 -2.576 -0.00322037 0
M  V30 3335 H 297.76 -2.62422 -1.73153 0
M  V30 3336 N 301.532 -0.945985 -1.26051 0
M  V30 3337 C 302.48 -0.450259 -2.282 0
M  V30 3338 C 303.474 0.47497 -1.62605 0
M  V30 3339 O 304.68 0.352653 -1.76512 0
M  V30 3340 H 301.055 -0.127081 -0.741184 0
M  V30 3341 H 303.026 -1.32422 -2.67408 0
M  V30 3342 C 301.775 0.26467 -3.46691 0
M  V30 3343 H 301.098 -0.438123 -3.97392 0
M  V30 3344 H 302.538 0.575678 -4.20074 0
M  V30 3345 C 300.997 1.48416 -3.02447 0
M  V30 3346 O 301.527 2.58227 -3.07704 0
M  V30 3347 N 299.733 1.34243 -2.57735 0
M  V30 3348 H 299.28 0.448994 -2.53657 0
M  V30 3349 H 299.238 2.15957 -2.28495 0
M  V30 3350 N 303.011 1.40521 -0.713556 0
M  V30 3351 C 304.241 2.0494 -0.261395 0
M  V30 3352 C 304.649 1.53861 1.10107 0
M  V30 3353 O 303.992 0.689321 1.70276 0
M  V30 3354 C 304.054 3.59138 -0.161227 0
M  V30 3355 C 303.718 4.33096 -1.45865 0
M  V30 3356 C 304.715 4.61182 -2.40016 0
M  V30 3357 C 302.4 4.72043 -1.71701 0
M  V30 3358 C 304.394 5.27196 -3.58251 0
M  V30 3359 C 302.081 5.37789 -2.90218 0
M  V30 3360 C 303.079 5.65295 -3.83315 0
M  V30 3361 O 302.767 6.29683 -4.99754 0
M  V30 3362 H 302.499 0.666041 -0.115608 0
M  V30 3363 H 305.053 1.80954 -0.971849 0
M  V30 3364 H 303.283 3.81936 0.605153 0
M  V30 3365 H 304.972 4.05091 0.256105 0
M  V30 3366 H 305.738 4.31559 -2.21318 0
M  V30 3367 H 301.617 4.50003 -1.00092 0
M  V30 3368 H 305.161 5.48582 -4.30934 0
M  V30 3369 H 301.058 5.66831 -3.08825 0
M  V30 3370 H 301.826 6.4818 -4.99805 0
M  V30 3371 N 304.489 0.459591 1.5075 0
M  V30 3372 C 305.419 -0.330644 2.31147 0
M  V30 3373 C 306.4 -1.00087 1.37538 0
M  V30 3374 O 307.585 -1.00025 1.66459 0
M  V30 3375 C 304.715 -1.41958 3.16962 0
M  V30 3376 C 303.669 -0.871608 4.19031 0
M  V30 3377 C 302.995 -2.05797 4.9351 0
M  V30 3378 C 304.295 0.109251 5.22186 0
M  V30 3379 H 305.989 0.340336 2.97459 0
M  V30 3380 H 303.535 0.165119 1.4305 0
M  V30 3381 H 305.488 -1.9798 3.71997 0
M  V30 3382 H 304.212 -2.11917 2.48513 0
M  V30 3383 H 302.871 -0.333442 3.6508 0
M  V30 3384 H 302.519 -2.74427 4.21544 0
M  V30 3385 H 302.219 -1.6976 5.62544 0
M  V30 3386 H 303.743 -2.62331 5.51375 0
M  V30 3387 H 305.157 -0.361405 5.7216 0
M  V30 3388 H 303.554 0.383316 5.98875 0
M  V30 3389 H 304.624 1.03887 4.73641 0
M  V30 3390 N 305.967 -1.56429 0.191757 0
M  V30 3391 C 306.917 -2.15548 -0.743184 0
M  V30 3392 C 307.901 -1.09531 -1.17863 0
M  V30 3393 O 309.093 -1.35602 -1.13759 0
M  V30 3394 C 306.222 -2.81577 -1.96391 0
M  V30 3395 C 305.308 -3.9478 -1.54951 0
M  V30 3396 N 305.699 -4.98677 -0.845876 0
M  V30 3397 C 303.997 -4.06319 -1.83905 0
M  V30 3398 C 304.698 -5.78183 -0.638724 0
M  V30 3399 N 303.674 -5.30495 -1.18643 0
M  V30 3400 H 307.476 -2.9324 -0.196839 0
M  V30 3401 H 304.99 -1.62398 -0.0081603 0
M  V30 3402 H 306.987 -3.22321 -2.64415 0
M  V30 3403 H 305.647 -2.05371 -2.51501 0
M  V30 3404 H 306.658 -5.15464 -0.501704 0
M  V30 3405 H 303.335 -3.41238 -2.40548 0
M  V30 3406 H 304.725 -6.71851 -0.0807929 0
M  V30 3407 N 307.445 0.0818655 -1.57387 0
M  V30 3408 C 308.856 0.634871 -1.75574 0
M  V30 3409 C 309.207 1.78435 -0.815809 0
M  V30 3410 O 308.332 2.164 0.0025366 0
M  V30 3411 C 308.927 1.15845 -3.18379 0
M  V30 3412 C 307.486 1.65741 -3.37945 0
M  V30 3413 C 306.633 0.572549 -2.71325 0
M  V30 3414 H 309.584 -0.144268 -1.58043 0
M  V30 3415 H 309.605 2.02751 -3.21982 0
M  V30 3416 H 309.117 0.321631 -3.86765 0
M  V30 3417 H 307.218 2.51781 -2.74658 0
M  V30 3418 H 307.331 1.74129 -4.46336 0
M  V30 3419 H 305.695 1.01518 -2.33594 0
M  V30 3420 H 306.478 -0.253918 -3.4236 0
M  V30 3421 N 308.923 1.53595 0.353017 0
M  V30 3422 C 309.853 1.83902 1.43883 0
M  V30 3423 C 310.834 0.693421 1.55324 0
M  V30 3424 O 312.019 0.944452 1.69687 0
M  V30 3425 C 309.149 2.04016 2.8106 0
M  V30 3426 C 308.103 3.19814 2.84434 0
M  V30 3427 C 307.429 3.25244 4.24406 0
M  V30 3428 C 308.729 4.58133 2.50822 0
M  V30 3429 H 310.423 2.74835 1.1877 0
M  V30 3430 H 307.969 1.32242 0.569917 0
M  V30 3431 H 309.922 2.238 3.57059 0
M  V30 3432 H 308.646 1.09804 3.07588 0
M  V30 3433 H 307.305 2.9987 2.10887 0
M  V30 3434 H 306.953 2.28646 4.48029 0
M  V30 3435 H 306.653 4.03054 4.27576 0
M  V30 3436 H 308.177 3.47228 5.0226 0
M  V30 3437 H 309.591 4.77995 3.16534 0
M  V30 3438 H 307.988 5.38276 2.6529 0
M  V30 3439 H 309.058 4.62387 1.46034 0
M  V30 3440 N 310.401 -0.613514 1.45168 0
M  V30 3441 C 311.349 -1.74572 1.53712 0
M  V30 3442 C 312.343 -1.64426 0.407505 0
M  V30 3443 O 313.549 -1.70291 0.583176 0
M  V30 3444 H 309.924 -0.576641 0.48269 0
M  V30 3445 H 311.895 -1.64492 2.48968 0
M  V30 3446 C 310.644 -3.12943 1.51532 0
M  V30 3447 H 309.967 -3.21407 2.37776 0
M  V30 3448 H 311.407 -3.9201 1.61569 0
M  V30 3449 C 309.866 -3.36053 0.238798 0
M  V30 3450 O 310.396 -3.95837 -0.6838 0
M  V30 3451 N 308.602 -2.9028 0.136359 0
M  V30 3452 H 308.149 -2.41811 0.887999 0
M  V30 3453 H 308.107 -3.06116 -0.716944 0
M  V30 3454 N 311.879 -1.3236 -0.855495 0
M  V30 3455 C 313.156 -1.13491 -1.59309 0
M  V30 3456 C 313.536 0.30503 -2.08885 0
M  V30 3457 O 312.884 1.30151 -1.87811 0
M  V30 3458 C 313.094 -2.16176 -2.73987 0
M  V30 3459 C 314.442 -2.49463 -3.43589 0
M  V30 3460 O 315.466 -2.14715 -2.84211 0
M  V30 3461 O 314.325 -3.09027 -4.50738 0
M  V30 3462 H 311.419 -0.437887 -0.701559 0
M  V30 3463 H 313.965 -1.43887 -0.899696 0
M  V30 3464 H 312.737 -3.1297 -2.34873 0
M  V30 3465 H 312.36 -1.86769 -3.51003 0
M  V30 3466 N 313.357 1.07166 -1.15556 0
M  V30 3467 C 314.304 2.14417 -0.854055 0
M  V30 3468 C 315.274 1.64965 0.193806 0
M  V30 3469 O 316.459 1.90703 0.0609443 0
M  V30 3470 C 313.599 3.43304 -0.351574 0
M  V30 3471 C 312.712 4.06537 -1.46123 0
M  V30 3472 C 311.847 5.23266 -0.914677 0
M  V30 3473 C 310.886 5.78464 -2.00114 0
M  V30 3474 N 310.023 6.86521 -1.47083 0
M  V30 3475 H 314.863 2.39548 -1.77259 0
M  V30 3476 H 312.4 1.17543 -0.884425 0
M  V30 3477 H 314.358 4.17179 -0.0419409 0
M  V30 3478 H 312.988 3.18419 0.530037 0
M  V30 3479 H 312.04 3.30297 -1.88701 0
M  V30 3480 H 313.352 4.43567 -2.28144 0
M  V30 3481 H 312.506 6.04131 -0.557698 0
M  V30 3482 H 311.245 4.87658 -0.0636583 0
M  V30 3483 H 310.25 4.96243 -2.36692 0
M  V30 3484 H 311.475 6.16126 -2.85597 0
M  V30 3485 H 309.421 6.52849 -0.642198 0
M  V30 3486 H 309.338 7.22446 -2.22729 0
M  V30 3487 H 310.606 7.71087 -1.14215 0
M  V30 3488 N 314.835 0.952656 1.25548 0
M  V30 3489 C 316.06 0.623025 1.97821 0
M  V30 3490 C 316.485 -0.7976 1.70352 0
M  V30 3491 O 315.843 -1.53905 0.958283 0
M  V30 3492 C 315.891 0.885532 3.49558 0
M  V30 3493 O 314.995 -0.0366641 4.12384 0
M  V30 3494 H 314.336 0.237082 0.620232 0
M  V30 3495 H 316.866 1.27871 1.59719 0
M  V30 3496 H 316.876 0.811009 3.99858 0
M  V30 3497 H 315.551 1.92094 3.6888 0
M  V30 3498 H 314.128 0.0898954 3.72792 0
M  V30 3499 N 316.313 -1.40141 0.720998 0
M  V30 3500 C 317.543 -2.04798 0.27226 0
M  V30 3501 C 317.951 -1.54442 -1.09289 0
M  V30 3502 O 317.294 -0.698342 -1.69908 0
M  V30 3503 C 317.356 -3.59048 0.18027 0
M  V30 3504 C 317.02 -4.32317 1.48159 0
M  V30 3505 C 318.017 -4.59902 2.42458 0
M  V30 3506 C 315.702 -4.71125 1.74202 0
M  V30 3507 C 317.696 -5.25288 3.61042 0
M  V30 3508 C 315.383 -5.36242 2.93066 0
M  V30 3509 C 316.381 -5.63254 3.86308 0
M  V30 3510 O 316.069 -6.27024 5.03086 0
M  V30 3511 H 315.801 -0.665419 0.119139 0
M  V30 3512 H 318.355 -1.80436 0.981432 0
M  V30 3513 H 316.585 -3.82251 -0.58489 0
M  V30 3514 H 318.274 -4.05221 -0.234618 0
M  V30 3515 H 319.04 -4.30379 2.23604 0
M  V30 3516 H 314.919 -4.49466 1.02477 0
M  V30 3517 H 318.463 -5.46289 4.33837 0
M  V30 3518 H 314.36 -5.65185 3.11826 0
M  V30 3519 H 315.128 -6.4552 5.03235 0
M  V30 3520 N 317.792 -0.46758 -1.50504 0
M  V30 3521 C 319.04 0.0884469 -2.01906 0
M  V30 3522 C 319.361 1.40532 -1.35188 0
M  V30 3523 O 318.631 1.89515 -0.496079 0
M  V30 3524 H 317.211 0.0356765 -0.746148 0
M  V30 3525 H 319.873 -0.6172 -1.84869 0
M  V30 3526 H 318.969 0.2425 -3.11156 0
M  V30 3527 N 319.27 1.56325 -0.20005 0
M  V30 3528 C 320.2 2.22318 0.713916 0
M  V30 3529 C 321.181 1.18788 1.21752 0
M  V30 3530 O 322.366 1.47309 1.26545 0
M  V30 3531 C 319.496 2.88639 1.93144 0
M  V30 3532 C 318.45 3.98457 1.56255 0
M  V30 3533 C 317.776 4.51967 2.85709 0
M  V30 3534 C 319.076 5.16612 0.768747 0
M  V30 3535 H 320.77 2.98952 0.163755 0
M  V30 3536 H 318.316 1.43792 0.0773219 0
M  V30 3537 H 320.269 3.33491 2.57608 0
M  V30 3538 H 318.993 2.09419 2.50621 0
M  V30 3539 H 317.652 3.54305 0.941471 0
M  V30 3540 H 317.3 3.69503 3.41287 0
M  V30 3541 H 317 5.26071 2.6177 0
M  V30 3542 H 318.524 4.99523 3.51154 0
M  V30 3543 H 319.938 5.57977 1.3166 0
M  V30 3544 H 318.335 5.96812 0.627286 0
M  V30 3545 H 319.405 4.84358 -0.229168 0
M  V30 3546 N 320.748 -0.0735177 1.57428 0
M  V30 3547 C 321.973 -0.789787 1.91774 0
M  V30 3548 C 322.398 -1.70413 0.796306 0
M  V30 3549 O 321.756 -1.79555 -0.250961 0
M  V30 3550 C 321.804 -1.5609 3.25067 0
M  V30 3551 O 320.908 -2.67144 3.14178 0
M  V30 3552 H 320.249 -0.215582 0.628029 0
M  V30 3553 H 322.779 -0.0422781 2.04556 0
M  V30 3554 H 322.789 -1.94052 3.58898 0
M  V30 3555 H 321.464 -0.890015 4.06265 0
M  V30 3556 H 320.041 -2.32052 2.91901 0
M  V30 3557 N 322.226 -1.5378 -0.344866 0
M  V30 3558 C 323.173 -1.81676 -1.42346 0
M  V30 3559 C 324.143 -0.662376 -1.52321 0
M  V30 3560 O 325.328 -0.906675 -1.67881 0
M  V30 3561 C 322.468 -2.03087 -2.79015 0
M  V30 3562 C 321.581 -3.30799 -2.77842 0
M  V30 3563 C 320.716 -3.42285 -4.0622 0
M  V30 3564 C 319.755 -4.6395 -3.9927 0
M  V30 3565 N 318.892 -4.72477 -5.19336 0
M  V30 3566 H 323.732 -2.73703 -1.17858 0
M  V30 3567 H 321.269 -1.35568 -0.570949 0
M  V30 3568 H 323.227 -2.1349 -3.58438 0
M  V30 3569 H 321.857 -1.14375 -3.01858 0
M  V30 3570 H 320.909 -3.29244 -1.90533 0
M  V30 3571 H 322.221 -4.20314 -2.68584 0
M  V30 3572 H 321.375 -3.52113 -4.94066 0
M  V30 3573 H 320.114 -2.50823 -4.18258 0
M  V30 3574 H 319.119 -4.54201 -3.09809 0
M  V30 3575 H 320.344 -5.56775 -3.88817 0
M  V30 3576 H 318.29 -3.83924 -5.3192 0
M  V30 3577 H 318.207 -5.55927 -5.12329 0
M  V30 3578 H 319.475 -4.86613 -6.08957 0
M  V30 3579 N 323.704 0.605807 -1.45491 0
M  V30 3580 C 324.652 1.73754 -1.54636 0
M  V30 3581 C 325.646 1.64207 -0.416219 0
M  V30 3582 O 326.852 1.69979 -0.592199 0
M  V30 3583 H 323.227 0.574073 -0.485741 0
M  V30 3584 H 325.198 1.63169 -2.49837 0
M  V30 3585 C 323.947 3.12135 -1.53189 0
M  V30 3586 H 323.27 3.20141 -2.39478 0
M  V30 3587 H 324.71 3.91147 -1.63645 0
M  V30 3588 C 323.169 3.35921 -0.256616 0
M  V30 3589 O 323.699 3.96194 0.662798 0
M  V30 3590 N 321.905 2.90204 -0.151751 0
M  V30 3591 H 321.452 2.41336 -0.90081 0
M  V30 3592 H 321.41 3.06492 0.700699 0
M  V30 3593 N 325.182 1.32811 0.848464 0
M  V30 3594 C 326.428 1.23907 1.60546 0
M  V30 3595 C 326.761 -0.197161 1.93197 0
M  V30 3596 O 326.036 -1.13596 1.5788 0
M  V30 3597 C 326.319 2.10489 2.92175 0
M  V30 3598 C 326.172 3.62522 2.66266 0
M  V30 3599 C 327.491 1.97075 3.93509 0
M  V30 3600 H 324.61 0.451459 0.58254 0
M  V30 3601 H 327.252 1.62818 0.979296 0
M  V30 3602 H 325.402 1.77434 3.45614 0
M  V30 3603 H 327.074 4.05821 2.19334 0
M  V30 3604 H 325.317 3.84879 2.00126 0
M  V30 3605 H 325.988 4.18437 3.6002 0
M  V30 3606 H 328.464 2.26045 3.49346 0
M  V30 3607 H 327.34 2.59923 4.83457 0
M  V30 3608 H 327.601 0.940186 4.31987 0
M  V30 3609 N 326.66 -1.06551 1.16123 0
M  V30 3610 C 327.885 -1.83544 0.965735 0
M  V30 3611 C 328.31 -1.81843 -0.481102 0
M  V30 3612 O 327.668 -1.21732 -1.34354 0
M  V30 3613 C 327.716 -3.28169 1.49457 0
M  V30 3614 O 326.82 -4.0643 0.699157 0
M  V30 3615 H 326.161 -0.568026 0.343864 0
M  V30 3616 H 328.691 -1.34362 1.54299 0
M  V30 3617 H 328.701 -3.78992 1.51092 0
M  V30 3618 H 327.376 -3.28722 2.54784 0
M  V30 3619 H 325.953 -3.65216 0.7531 0
M  V30 3620 N 328.138 -0.959301 -1.25041 0
M  V30 3621 C 329.086 -0.474437 -2.2771 0
M  V30 3622 C 330.08 0.457697 -1.631 0
M  V30 3623 O 331.286 0.333912 -1.76876 0
M  V30 3624 H 327.661 -0.134936 -0.739795 0
M  V30 3625 H 329.632 -1.35251 -2.65988 0
M  V30 3626 C 328.381 0.227884 -3.46952 0
M  V30 3627 H 327.704 -0.480248 -3.96905 0
M  V30 3628 H 329.144 0.531091 -4.20661 0
M  V30 3629 C 327.603 1.452 -3.04004 0
M  V30 3630 O 328.133 2.54949 -3.10426 0
M  V30 3631 N 326.339 1.31502 -2.59144 0
M  V30 3632 H 325.886 0.422065 -2.54119 0
M  V30 3633 H 325.844 2.13521 -2.30773 0
M  V30 3634 N 329.616 1.39756 -0.72842 0
M  V30 3635 C 330.841 2.05472 -0.282159 0
M  V30 3636 C 331.266 1.54549 1.07221 0
M  V30 3637 O 330.624 0.686372 1.67805 0
M  V30 3638 C 330.672 3.59462 -0.286264 0
M  V30 3639 O 329.776 4.05918 0.728298 0
M  V30 3640 H 329.117 0.651226 -0.129618 0
M  V30 3641 H 331.647 1.78915 -0.992499 0
M  V30 3642 H 331.657 4.07798 -0.128373 0
M  V30 3643 H 330.332 3.95889 -1.27456 0
M  V30 3644 H 328.909 3.69012 0.537081 0
M  V30 3645 N 331.094 0.475555 1.50254 0
M  V30 3646 C 332.371 -0.139685 1.95101 0
M  V30 3647 C 332.751 -1.56555 1.41611 0
M  V30 3648 O 332.099 -2.19956 0.618993 0
M  V30 3649 C 332.309 -0.0784298 3.48912 0
M  V30 3650 C 333.657 -0.265095 4.23772 0
M  V30 3651 O 334.681 -0.154808 3.55863 0
M  V30 3652 O 333.54 -0.488327 5.44314 0
M  V30 3653 H 330.634 -0.109236 0.819754 0
M  V30 3654 H 333.18 0.536276 1.61004 0
M  V30 3655 H 331.952 0.916918 3.80405 0
M  V30 3656 H 331.575 -0.795655 3.89558 0
M  V30 3657 N 332.573 -1.56217 0.208337 0
M  V30 3658 C 333.82 -1.97949 -0.42692 0
M  V30 3659 C 334.148 -1.09562 -1.60706 0
M  V30 3660 O 333.403 -0.137616 -1.95216 0
M  V30 3661 C 333.702 -3.45441 -0.916797 0
M  V30 3662 C 333.368 -4.50646 0.151391 0
M  V30 3663 C 332.03 -4.79139 0.444867 0
M  V30 3664 C 334.382 -5.13811 0.874492 0
M  V30 3665 C 331.71 -5.68084 1.46619 0
M  V30 3666 C 334.062 -6.03861 1.88506 0
M  V30 3667 C 332.726 -6.30704 2.18559 0
M  V30 3668 H 331.996 -0.724345 -0.156221 0
M  V30 3669 H 334.643 -1.89006 0.308084 0
M  V30 3670 H 332.948 -3.51521 -1.73032 0
M  V30 3671 H 334.645 -3.75094 -1.41794 0
M  V30 3672 H 331.235 -4.28511 -0.0875068 0
M  V30 3673 H 335.419 -4.91879 0.660996 0
M  V30 3674 H 330.675 -5.87151 1.7048 0
M  V30 3675 H 334.849 -6.51861 2.45051 0
M  V30 3676 H 332.476 -6.99424 2.97843 0
M  V30 3677 N 334.051 0.0651679 -1.57465 0
M  V30 3678 C 334.981 1.07693 -2.07182 0
M  V30 3679 C 335.962 1.39962 -0.966673 0
M  V30 3680 O 337.147 1.49475 -1.2398 0
M  V30 3681 C 334.277 2.3885 -2.52127 0
M  V30 3682 C 333.231 2.20917 -3.66579 0
M  V30 3683 C 332.557 3.57515 -3.97601 0
M  V30 3684 C 333.857 1.62493 -4.9638 0
M  V30 3685 H 335.551 0.663199 -2.91962 0
M  V30 3686 H 333.097 0.317569 -1.40455 0
M  V30 3687 H 335.05 3.09928 -2.85522 0
M  V30 3688 H 333.774 2.82215 -1.64384 0
M  V30 3689 H 332.433 1.52279 -3.33477 0
M  V30 3690 H 332.081 3.98463 -3.06979 0
M  V30 3691 H 331.781 3.46353 -4.74672 0
M  V30 3692 H 333.305 4.30013 -4.33499 0
M  V30 3693 H 334.719 2.23445 -5.27963 0
M  V30 3694 H 333.116 1.62009 -5.77818 0
M  V30 3695 H 334.186 0.587041 -4.81333 0
M  V30 3696 N 335.529 1.53961 0.336706 0
M  V30 3697 C 336.754 1.75797 1.10046 0
M  V30 3698 C 337.179 0.498985 1.81361 0
M  V30 3699 O 336.537 -0.548769 1.72795 0
M  V30 3700 C 336.585 2.94257 2.08436 0
M  V30 3701 O 335.689 2.64883 3.16087 0
M  V30 3702 H 335.03 0.582936 0.317934 0
M  V30 3703 H 337.56 2.00945 0.38501 0
M  V30 3704 H 337.57 3.21237 2.51537 0
M  V30 3705 H 336.245 3.85564 1.55927 0
M  V30 3706 H 334.822 2.48812 2.77753 0
M  V30 3707 N 337.007 -0.598083 1.45811 0
M  V30 3708 C 337.955 -1.72932 1.55555 0
M  V30 3709 C 338.949 -1.63984 0.424921 0
M  V30 3710 O 340.155 -1.69663 0.601205 0
M  V30 3711 H 336.53 -0.571489 0.488779 0
M  V30 3712 H 338.501 -1.61842 2.50699 0
M  V30 3713 C 337.25 -3.11318 1.54843 0
M  V30 3714 H 336.573 -3.18867 2.41172 0
M  V30 3715 H 338.013 -3.90274 1.65717 0
M  V30 3716 C 336.472 -3.3578 0.274427 0
M  V30 3717 O 337.002 -3.9654 -0.641778 0
M  V30 3718 N 335.208 -2.90119 0.167139 0
M  V30 3719 H 334.755 -2.40855 0.913596 0
M  V30 3720 H 334.713 -3.0686 -0.684435 0
M  V30 3721 N 338.485 -1.33259 -0.841409 0
M  V30 3722 C 339.433 -1.23279 -1.97244 0
M  V30 3723 C 340.427 -0.134706 -1.68864 0
M  V30 3724 O 341.633 -0.298501 -1.77508 0
M  V30 3725 H 338.008 -0.382497 -0.647457 0
M  V30 3726 H 339.979 -2.18906 -2.02787 0
M  V30 3727 C 338.728 -0.986268 -3.33419 0
M  V30 3728 H 338.051 -1.82347 -3.55794 0
M  V30 3729 H 339.491 -0.956728 -4.13065 0
M  V30 3730 C 337.95 0.310842 -3.35463 0
M  V30 3731 O 338.48 1.31838 -3.79449 0
M  V30 3732 N 336.686 0.337485 -2.88634 0
M  V30 3733 H 336.233 -0.482967 -2.53032 0
M  V30 3734 H 336.191 1.20518 -2.90384 0
M  V30 3735 N 339.963 1.05934 -1.16686 0
M  V30 3736 C 340.895 2.13468 -0.834503 0
M  V30 3737 C 341.908 1.62013 0.15984 0
M  V30 3738 O 343.097 1.7838 -0.0654228 0
M  V30 3739 C 340.197 3.3817 -0.222361 0
M  V30 3740 C 339.37 4.18928 -1.25771 0
M  V30 3741 C 338.429 5.21985 -0.664703 0
M  V30 3742 O 337.455 5.53334 -1.33453 0
M  V30 3743 N 338.657 5.77919 0.546834 0
M  V30 3744 H 341.422 2.42578 -1.75999 0
M  V30 3745 H 338.983 1.21967 -1.06469 0
M  V30 3746 H 340.975 4.04266 0.187472 0
M  V30 3747 H 339.545 3.06655 0.606758 0
M  V30 3748 H 338.765 3.48433 -1.84358 0
M  V30 3749 H 340.053 4.69687 -1.95631 0
M  V30 3750 H 339.451 5.54721 1.10912 0
M  V30 3751 H 338.008 6.45573 0.898829 0
M  V30 3752 N 341.441 0.965919 1.2453 0
M  V30 3753 C 342.391 0.465731 2.23193 0
M  V30 3754 C 343.375 -0.451277 1.54442 0
M  V30 3755 O 344.567 -0.282489 1.74731 0
M  V30 3756 C 341.696 -0.244511 3.42428 0
M  V30 3757 C 340.782 0.691222 4.18429 0
M  V30 3758 N 341.173 1.82771 4.71623 0
M  V30 3759 C 339.471 0.501649 4.4317 0
M  V30 3760 C 340.172 2.41285 5.29298 0
M  V30 3761 N 339.148 1.69819 5.16394 0
M  V30 3762 H 342.95 1.33291 2.61937 0
M  V30 3763 H 340.464 0.824789 1.39896 0
M  V30 3764 H 342.461 -0.620056 4.12263 0
M  V30 3765 H 341.121 -1.10815 3.05205 0
M  V30 3766 H 342.132 2.20929 4.68413 0
M  V30 3767 H 338.809 -0.318177 4.16286 0
M  V30 3768 H 340.199 3.37181 5.8117 0
M  V30 3769 N 342.919 -1.39368 0.735821 0
M  V30 3770 C 343.867 -2.32443 0.0855131 0
M  V30 3771 C 344.861 -1.53104 -0.724954 0
M  V30 3772 O 346.067 -1.68762 -0.626047 0
M  V30 3773 H 342.442 -0.751948 0.00885257 0
M  V30 3774 H 344.413 -2.84916 0.886883 0
M  V30 3775 C 343.162 -3.38206 -0.806983 0
M  V30 3776 H 342.485 -3.99335 -0.19274 0
M  V30 3777 H 343.925 -4.05779 -1.2296 0
M  V30 3778 C 342.384 -2.75321 -1.94165 0
M  V30 3779 O 342.914 -2.63231 -3.03435 0
M  V30 3780 N 341.12 -2.33396 -1.73132 0
M  V30 3781 H 340.667 -2.4343 -0.842596 0
M  V30 3782 H 340.625 -1.91661 -2.49225 0
M  V30 3783 N 344.397 -0.483516 -1.5 0
M  V30 3784 C 345.345 0.318061 -2.30415 0
M  V30 3785 C 346.339 0.978988 -1.38247 0
M  V30 3786 O 347.545 0.908673 -1.55381 0
M  V30 3787 H 343.92 0.121419 -0.742133 0
M  V30 3788 H 345.891 -0.380403 -2.95965 0
M  V30 3789 C 344.64 1.38013 -3.19136 0
M  V30 3790 H 343.963 0.880952 -3.89973 0
M  V30 3791 H 345.403 1.91332 -3.78375 0
M  V30 3792 C 343.862 2.38884 -2.37563 0
M  V30 3793 O 344.392 3.44412 -2.06744 0
M  V30 3794 N 342.598 2.10912 -1.99911 0
M  V30 3795 H 342.145 1.25118 -2.25174 0
M  V30 3796 H 342.103 2.78635 -1.45636 0
M  V30 3797 N 345.875 1.56104 -0.216619 0
M  V30 3798 C 346.823 2.21434 0.712036 0
M  V30 3799 C 347.817 1.19218 1.20348 0
M  V30 3800 O 349.023 1.3731 1.16387 0
M  V30 3801 H 345.398 0.70992 0.248026 0
M  V30 3802 H 347.369 2.98083 0.137558 0
M  V30 3803 C 346.118 2.90434 1.91163 0
M  V30 3804 H 345.441 3.68842 1.54258 0
M  V30 3805 H 346.881 3.39552 2.5393 0
M  V30 3806 C 345.34 1.92635 2.76394 0
M  V30 3807 O 345.87 1.44017 3.74996 0
M  V30 3808 N 344.076 1.60392 2.42328 0
M  V30 3809 H 343.623 2.00122 1.622 0
M  V30 3810 H 343.581 0.952159 2.99635 0
M  V30 3811 N 347.353 -0.0568162 1.57498 0
M  V30 3812 C 348.578 -0.769402 1.92601 0
M  V30 3813 C 349.003 -1.69559 0.814336 0
M  V30 3814 O 348.361 -1.79811 -0.231903 0
M  V30 3815 C 348.409 -1.52634 3.26704 0
M  V30 3816 O 347.513 -2.63797 3.16994 0
M  V30 3817 H 346.854 -0.208909 0.63028 0
M  V30 3818 H 349.384 -0.0205798 2.0459 0
M  V30 3819 H 349.394 -1.90234 3.60936 0
M  V30 3820 H 348.069 -0.846875 4.07186 0
M  V30 3821 H 346.646 -2.28943 2.94346 0
M  V30 3822 N 348.832 -1.54138 -0.328536 0
M  V30 3823 C 350.057 -1.76378 -1.09112 0
M  V30 3824 C 350.482 -0.508596 -1.81094 0
M  V30 3825 O 349.84 0.539598 -1.73084 0
M  V30 3826 C 349.888 -2.95358 -2.06872 0
M  V30 3827 O 348.992 -2.66556 -3.14677 0
M  V30 3828 H 348.333 -0.584614 -0.314838 0
M  V30 3829 H 350.863 -2.01146 -0.374348 0
M  V30 3830 H 350.873 -3.22566 -2.4983 0
M  V30 3831 H 349.548 -3.86385 -1.5388 0
M  V30 3832 H 348.125 -2.50282 -2.7643 0
M  V30 3833 N 350.31 0.590341 -1.46126 0
M  V30 3834 C 351.558 1.34616 -1.50742 0
M  V30 3835 C 351.879 1.94363 -0.157486 0
M  V30 3836 O 351.149 1.78136 0.815136 0
M  V30 3837 H 349.729 0.499789 -0.555175 0
M  V30 3838 H 352.391 0.691953 -1.82203 0
M  V30 3839 H 351.487 2.15678 -2.25587 0
M  V30 3840 N 351.788 1.33704 0.83433 0
M  V30 3841 C 353.034 1.25603 1.59222 0
M  V30 3842 C 353.367 -0.176659 1.93395 0
M  V30 3843 O 352.642 -1.11915 1.59076 0
M  V30 3844 C 352.925 2.13576 2.89926 0
M  V30 3845 C 352.778 3.65326 2.62406 0
M  V30 3846 C 354.097 2.01238 3.91397 0
M  V30 3847 H 351.216 0.457613 0.577719 0
M  V30 3848 H 353.858 1.63848 0.961972 0
M  V30 3849 H 352.008 1.8109 3.43713 0
M  V30 3850 H 353.68 4.08124 2.15017 0
M  V30 3851 H 351.923 3.8698 1.96033 0
M  V30 3852 H 352.594 4.22232 3.55562 0
M  V30 3853 H 355.07 2.29738 3.46929 0
M  V30 3854 H 353.946 2.65036 4.80673 0
M  V30 3855 H 354.207 0.985951 4.30966 0
M  V30 3856 N 353.266 -1.05314 1.17247 0
M  V30 3857 C 354.514 -1.77941 0.958194 0
M  V30 3858 C 354.835 -1.88089 -0.514556 0
M  V30 3859 O 354.105 -1.39676 -1.37359 0
M  V30 3860 H 352.685 -0.659116 0.351533 0
M  V30 3861 H 355.347 -1.27166 1.47699 0
M  V30 3862 H 354.443 -2.79663 1.38546 0
M  V30 3863 N 354.744 -0.972509 -1.24016 0
M  V30 3864 C 355.692 -0.498562 -2.27194 0
M  V30 3865 C 356.686 0.440372 -1.63576 0
M  V30 3866 O 357.892 0.315133 -1.7722 0
M  V30 3867 H 354.267 -0.142775 -0.738322 0
M  V30 3868 H 356.238 -1.38065 -2.64539 0
M  V30 3869 C 354.987 0.191072 -3.47175 0
M  V30 3870 H 354.31 -0.522318 -3.96373 0
M  V30 3871 H 355.75 0.486445 -4.212 0
M  V30 3872 C 354.209 1.41967 -3.05527 0
M  V30 3873 O 354.739 2.51642 -3.13112 0
M  V30 3874 N 352.945 1.28746 -2.60524 0
M  V30 3875 H 352.492 0.395089 -2.54552 0
M  V30 3876 H 352.45 2.11061 -2.33025 0
M  V30 3877 N 356.222 1.38976 -0.743202 0
M  V30 3878 C 357.447 2.05161 -0.303936 0
M  V30 3879 C 357.872 1.55677 1.05576 0
M  V30 3880 O 357.23 0.704131 1.67068 0
M  V30 3881 C 357.278 3.59138 -0.324373 0
M  V30 3882 O 356.382 4.06668 0.685204 0
M  V30 3883 H 355.723 0.649815 -0.136518 0
M  V30 3884 H 358.253 1.77852 -1.01142 0
M  V30 3885 H 358.263 4.07639 -0.171618 0
M  V30 3886 H 356.938 3.94515 -1.31647 0
M  V30 3887 H 355.515 3.69561 0.497913 0
M  V30 3888 N 357.7 0.491464 1.49741 0
M  V30 3889 C 358.93 -0.0534375 2.06531 0
M  V30 3890 C 359.338 -1.32233 1.35318 0
M  V30 3891 O 358.681 -1.78781 0.422243 0
M  V30 3892 C 358.743 -0.387034 3.57411 0
M  V30 3893 C 358.407 0.782764 4.50246 0
M  V30 3894 C 359.404 1.67059 4.92329 0
M  V30 3895 C 357.089 0.978866 4.9267 0
M  V30 3896 C 359.083 2.73874 5.75562 0
M  V30 3897 C 356.77 2.05022 5.75682 0
M  V30 3898 C 357.768 2.92851 6.17031 0
M  V30 3899 O 357.456 3.98138 6.98385 0
M  V30 3900 H 357.188 0.0129324 0.675876 0
M  V30 3901 H 359.742 0.685238 1.93633 0
M  V30 3902 H 357.972 -1.17918 3.68283 0
M  V30 3903 H 359.661 -0.869419 3.96479 0
M  V30 3904 H 360.427 1.53086 4.60206 0
M  V30 3905 H 356.306 0.304646 4.59992 0
M  V30 3906 H 359.85 3.42458 6.07757 0
M  V30 3907 H 355.747 2.18993 6.07217 0
M  V30 3908 H 356.515 3.95374 7.16674 0
M  V30 3909 N 359.178 -1.55987 0.224894 0
M  V30 3910 C 360.403 -2.03232 -0.41369 0
M  V30 3911 C 360.828 -1.10359 -1.52323 0
M  V30 3912 O 360.186 -0.092395 -1.81064 0
M  V30 3913 C 360.234 -3.48682 -0.919405 0
M  V30 3914 O 359.338 -3.58947 -2.03054 0
M  V30 3915 H 358.679 -0.657428 -0.0931903 0
M  V30 3916 H 361.209 -2.01679 0.34451 0
M  V30 3917 H 361.219 -3.8907 -1.22835 0
M  V30 3918 H 359.894 -4.15761 -0.107339 0
M  V30 3919 H 358.471 -3.30448 -1.72796 0
M  V30 3920 N 360.656 0.0484629 -1.57525 0
M  V30 3921 C 361.903 0.743125 -1.88372 0
M  V30 3922 C 362.231 1.76383 -0.819715 0
M  V30 3923 O 361.486 1.94855 0.181659 0
M  V30 3924 C 361.785 1.46632 -3.25935 0
M  V30 3925 C 361.451 0.583427 -4.4711 0
M  V30 3926 C 360.113 0.340191 -4.79996 0
M  V30 3927 C 362.465 -0.0273345 -5.21193 0
M  V30 3928 C 359.793 -0.522903 -5.84365 0
M  V30 3929 C 362.145 -0.878017 -6.26477 0
M  V30 3930 C 360.809 -1.1309 -6.5785 0
M  V30 3931 H 360.079 0.271929 -0.689301 0
M  V30 3932 H 362.726 0.00336166 -1.915 0
M  V30 3933 H 361.031 2.2789 -3.18706 0
M  V30 3934 H 362.728 2.00902 -3.47044 0
M  V30 3935 H 359.318 0.783151 -4.21384 0
M  V30 3936 H 363.502 0.147654 -4.9608 0
M  V30 3937 H 358.758 -0.727335 -6.07058 0
M  V30 3938 H 362.932 -1.35789 -6.83033 0
M  V30 3939 H 360.559 -1.80144 -7.38547 0
M  V30 3940 N 362.134 1.5431 0.320358 0
M  V30 3941 C 363.383 1.7188 1.05546 0
M  V30 3942 C 363.696 0.501143 1.89071 0
M  V30 3943 O 364.902 0.558258 2.65699 0
M  V30 3944 C 363.358 3.04025 1.92605 0
M  V30 3945 C 362.966 4.33207 1.14176 0
M  V30 3946 C 364.71 3.30959 2.65832 0
M  V30 3947 C 362.617 5.56412 2.00399 0
M  V30 3948 H 361.547 0.640547 0.397763 0
M  V30 3949 H 364.198 1.80802 0.313522 0
M  V30 3950 H 362.58 2.89019 2.7071 0
M  V30 3951 H 363.754 4.58989 0.40819 0
M  V30 3952 H 362.069 4.13062 0.526165 0
M  V30 3953 H 364.666 4.20203 3.30656 0
M  V30 3954 H 365.009 2.48979 3.33639 0
M  V30 3955 H 365.542 3.46847 1.94787 0
M  V30 3956 H 362.281 6.41004 1.37094 0
M  V30 3957 H 361.801 5.34844 2.7148 0
M  V30 3958 H 363.48 5.92938 2.58908 0
M  V30 3959 N 363.613 -0.582584 1.46437 0
M  V30 3960 C 364.838 -1.37168 1.55563 0
M  V30 3961 C 365.263 -1.87061 0.19743 0
M  V30 3962 O 364.621 -1.61572 -0.822451 0
M  V30 3963 C 364.669 -2.53511 2.56446 0
M  V30 3964 O 363.773 -3.54953 2.09958 0
M  V30 3965 H 363.114 -0.408494 0.523477 0
M  V30 3966 H 365.644 -0.706646 1.9201 0
M  V30 3967 H 365.654 -3.00426 2.76058 0
M  V30 3968 H 364.329 -2.16549 3.55076 0
M  V30 3969 H 362.906 -3.14516 2.00334 0
M  V30 3970 N 365.091 -1.34144 -0.827227 0
M  V30 3971 C 366.039 -1.25364 -1.95925 0
M  V30 3972 C 367.033 -0.152608 -1.68711 0
M  V30 3973 O 368.239 -0.317311 -1.77181 0
M  V30 3974 H 364.614 -0.389342 -0.643364 0
M  V30 3975 H 366.585 -2.21045 -2.00454 0
M  V30 3976 C 365.334 -1.02158 -3.32354 0
M  V30 3977 H 364.657 -1.86111 -3.5384 0
M  V30 3978 H 366.097 -1.00048 -4.12027 0
M  V30 3979 C 364.556 0.275244 -3.35774 0
M  V30 3980 O 365.086 1.27806 -3.80826 0
M  V30 3981 N 363.292 0.306853 -2.88975 0
M  V30 3982 H 362.839 -0.509777 -2.52506 0
M  V30 3983 H 362.797 1.17432 -2.91646 0
M  V30 3984 N 366.569 1.04691 -1.17803 0
M  V30 3985 C 367.501 2.12571 -0.857097 0
M  V30 3986 C 368.514 1.62174 0.142647 0
M  V30 3987 O 369.703 1.78301 -0.0843387 0
M  V30 3988 C 366.803 3.37915 -0.258216 0
M  V30 3989 C 365.976 4.1757 -1.30207 0
M  V30 3990 C 365.035 5.2125 -0.720029 0
M  V30 3991 O 364.061 5.51888 -1.39314 0
M  V30 3992 N 365.263 5.78466 0.485507 0
M  V30 3993 H 368.028 2.40698 -1.78562 0
M  V30 3994 H 365.589 1.20831 -1.07757 0
M  V30 3995 H 367.581 4.04442 0.144584 0
M  V30 3996 H 366.151 3.07281 0.574199 0
M  V30 3997 H 365.371 3.46458 -1.88043 0
M  V30 3998 H 366.659 4.67586 -2.00601 0
M  V30 3999 H 366.057 5.55866 1.05022 0
M  V30 4000 H 364.614 6.4649 0.830307 0
M  V30 4001 N 368.047 0.979072 1.23499 0
M  V30 4002 C 368.979 0.476271 2.24197 0
M  V30 4003 C 369.992 -0.421166 1.57258 0
M  V30 4004 O 371.181 -0.225515 1.7707 0
M  V30 4005 C 368.281 -0.330503 3.37285 0
M  V30 4006 C 367.454 0.559744 4.33804 0
M  V30 4007 C 366.513 -0.192954 5.25846 0
M  V30 4008 O 365.539 0.416978 5.67671 0
M  V30 4009 N 366.741 -1.47932 5.61334 0
M  V30 4010 H 369.506 1.34211 2.67969 0
M  V30 4011 H 367.067 0.852189 1.37657 0
M  V30 4012 H 369.059 -0.842361 3.95836 0
M  V30 4013 H 367.629 -1.09734 2.92707 0
M  V30 4014 H 366.849 1.25245 3.73775 0
M  V30 4015 H 368.137 1.1665 4.95248 0
M  V30 4016 H 367.535 -1.9964 5.29302 0
M  V30 4017 H 366.092 -1.93664 6.22364 0
M  V30 4018 N 369.525 -1.3858 0.750561 0
M  V30 4019 C 370.75 -2.04997 0.314812 0
M  V30 4020 C 371.175 -1.56235 -1.04749 0
M  V30 4021 O 370.533 -0.712981 -1.66692 0
M  V30 4022 C 370.581 -3.58961 0.343415 0
M  V30 4023 O 369.685 -4.07025 -0.663628 0
M  V30 4024 H 369.026 -0.649081 0.139962 0
M  V30 4025 H 371.556 -1.77313 1.02084 0
M  V30 4026 H 371.566 -4.07542 0.193233 0
M  V30 4027 H 370.241 -3.93811 1.33738 0
M  V30 4028 H 368.818 -3.6982 -0.478307 0
M  V30 4029 N 371.003 -0.499398 -1.49478 0
M  V30 4030 C 372.252 0.0475259 -2.01644 0
M  V30 4031 C 372.565 1.38195 -1.38425 0
M  V30 4032 O 373.771 2.01547 -1.8191 0
M  V30 4033 C 372.227 0.135164 -3.59646 0
M  V30 4034 C 371.835 -1.19252 -4.31837 0
M  V30 4035 C 373.579 0.632538 -4.19761 0
M  V30 4036 C 371.486 -1.06713 -5.81693 0
M  V30 4037 H 370.416 0.0215349 -0.753692 0
M  V30 4038 H 373.067 -0.638577 -1.7203 0
M  V30 4039 H 371.449 0.885681 -3.85969 0
M  V30 4040 H 372.623 -1.9562 -4.17216 0
M  V30 4041 H 370.938 -1.62321 -3.83459 0
M  V30 4042 H 373.535 0.743833 -5.29501 0
M  V30 4043 H 373.878 1.63098 -3.83021 0
M  V30 4044 H 374.411 -0.0613987 -3.97753 0
M  V30 4045 H 371.15 -2.03979 -6.22955 0
M  V30 4046 H 370.67 -0.344307 -5.98811 0
M  V30 4047 H 372.349 -0.745208 -6.42694 0
M  V30 4048 N 372.481 1.55866 -0.233164 0
M  V30 4049 C 373.429 2.22176 0.68851 0
M  V30 4050 C 374.423 1.20487 1.19076 0
M  V30 4051 O 375.629 1.38536 1.14925 0
M  V30 4052 H 372.004 0.712511 0.240483 0
M  V30 4053 H 373.975 2.98212 0.105935 0
M  V30 4054 C 372.724 2.92446 1.88071 0
M  V30 4055 H 372.047 3.70458 1.50337 0
M  V30 4056 H 373.487 3.42226 2.50314 0
M  V30 4057 C 371.946 1.95555 2.74335 0
M  V30 4058 O 372.476 1.47986 3.73447 0
M  V30 4059 N 370.682 1.62953 2.40613 0
M  V30 4060 H 370.229 2.01831 1.60069 0
M  V30 4061 H 370.187 0.983886 2.98609 0
M  V30 4062 N 373.959 -0.0401083 1.57549 0
M  V30 4063 C 374.892 -1.07689 2.01192 0
M  V30 4064 C 375.87 -1.358 0.894273 0
M  V30 4065 O 377.054 -1.48642 1.15921 0
M  V30 4066 C 374.181 -2.41418 2.3756 0
M  V30 4067 C 373.227 -2.29237 3.59656 0
M  V30 4068 S 374.06 -1.65628 5.09242 0
M  V30 4069 C 375.216 -3.0087 5.48843 0
M  V30 4070 H 375.449 -0.705108 2.88817 0
M  V30 4071 H 372.982 -0.249724 1.52367 0
M  V30 4072 H 374.94 -3.18329 2.59186 0
M  V30 4073 H 373.601 -2.75747 1.50407 0
M  V30 4074 H 372.794 -3.27932 3.82722 0
M  V30 4075 H 372.396 -1.60469 3.37825 0
M  V30 4076 H 374.688 -3.97201 5.48851 0
M  V30 4077 H 375.631 -2.82549 6.49286 0
M  V30 4078 H 376.039 -3.02934 4.76331 0
M  V30 4079 N 375.437 -1.54477 -0.31217 0
M  V30 4080 C 376.684 -1.73227 -1.04875 0
M  V30 4081 C 377.012 -0.512042 -1.87639 0
M  V30 4082 O 376.267 0.506131 -1.89042 0
M  V30 4083 C 376.566 -2.967 -1.99258 0
M  V30 4084 C 376.232 -4.30974 -1.32559 0
M  V30 4085 C 374.894 -4.67477 -1.141 0
M  V30 4086 C 377.246 -5.14258 -0.847835 0
M  V30 4087 C 374.574 -5.84852 -0.465326 0
M  V30 4088 C 376.926 -6.32327 -0.185931 0
M  V30 4089 C 375.59 -6.67499 0.0107077 0
M  V30 4090 H 374.86 -0.633881 -0.383765 0
M  V30 4091 H 377.507 -1.88727 -0.324731 0
M  V30 4092 H 375.812 -2.75935 -2.7815 0
M  V30 4093 H 377.509 -3.08401 -2.563 0
M  V30 4094 H 374.099 -4.02262 -1.4793 0
M  V30 4095 H 378.283 -4.86565 -0.978192 0
M  V30 4096 H 373.539 -6.10654 -0.301883 0
M  V30 4097 H 377.713 -6.96135 0.192211 0
M  V30 4098 H 375.34 -7.58306 0.536287 0
M  V30 4099 N 376.915 0.57481 -1.46744 0
M  V30 4100 C 378.163 1.33009 -1.52161 0
M  V30 4101 C 378.484 1.94185 -0.178092 0
M  V30 4102 O 377.754 1.7899 0.796196 0
M  V30 4103 H 376.334 0.493873 -0.560445 0
M  V30 4104 H 378.996 0.672589 -1.82927 0
M  V30 4105 H 378.092 2.13273 -2.27862 0
M  V30 4106 N 378.394 1.34581 0.820102 0
M  V30 4107 C 379.357 1.2628 1.91275 0
M  V30 4108 C 380.357 0.177344 1.59819 0
M  V30 4109 O 381.547 0.430156 1.68806 0
M  V30 4110 C 378.679 0.950327 3.27386 0
M  V30 4111 H 379.872 2.23421 2.00057 0
M  V30 4112 H 377.425 1.1891 1.0144 0
M  V30 4113 H 378.16 -0.0177938 3.24295 0
M  V30 4114 H 377.945 1.73549 3.51601 0
M  V30 4115 H 379.435 0.917492 4.07396 0
M  V30 4116 N 379.872 -1.04064 1.18357 0
M  V30 4117 C 381.097 -1.81454 1.00445 0
M  V30 4118 C 381.522 -1.82823 -0.442423 0
M  V30 4119 O 380.88 -1.24555 -1.31741 0
M  V30 4120 C 380.928 -3.24925 1.56384 0
M  V30 4121 O 380.032 -4.04856 0.785209 0
M  V30 4122 H 379.373 -0.560604 0.355835 0
M  V30 4123 H 381.903 -1.31059 1.57114 0
M  V30 4124 H 381.913 -3.75702 1.59097 0
M  V30 4125 H 380.588 -3.23244 2.61699 0
M  V30 4126 H 379.165 -3.63537 0.830399 0
M  V30 4127 N 381.35 -0.985608 -1.22978 0
M  V30 4128 C 382.627 -0.573599 -1.87001 0
M  V30 4129 C 383.007 0.949213 -1.88555 0
M  V30 4130 O 382.355 1.82811 -1.37086 0
M  V30 4131 C 382.565 -1.18564 -3.28243 0
M  V30 4132 C 383.913 -1.28163 -4.04796 0
M  V30 4133 O 384.937 -1.13949 -3.37482 0
M  V30 4134 O 383.796 -1.50832 -5.25273 0
M  V30 4135 H 380.89 -0.193868 -0.803955 0
M  V30 4136 H 383.436 -1.08102 -1.30813 0
M  V30 4137 H 382.208 -2.22758 -3.21706 0
M  V30 4138 H 381.831 -0.663363 -3.92027 0
M  V30 4139 N 382.828 1.3818 -0.7579 0
M  V30 4140 C 383.791 2.28764 -0.141286 0
M  V30 4141 C 384.791 1.47388 0.642907 0
M  V30 4142 O 385.981 1.67781 0.468536 0
M  V30 4143 C 383.113 3.31184 0.808069 0
M  V30 4144 H 384.306 2.848 -0.939633 0
M  V30 4145 H 381.859 1.47212 -0.525191 0
M  V30 4146 H 382.594 2.80247 1.63193 0
M  V30 4147 H 382.379 3.91314 0.248104 0
M  V30 4148 H 383.869 3.98909 1.23536 0
M  V30 4149 N 384.306 0.507319 1.49211 0
M  V30 4150 C 385.552 -0.0350047 2.0277 0
M  V30 4151 C 385.885 -1.3606 1.38569 0
M  V30 4152 O 385.16 -1.87321 0.523542 0
M  V30 4153 C 385.443 -0.180916 3.59645 0
M  V30 4154 C 385.296 1.16825 4.34364 0
M  V30 4155 C 386.615 -0.918558 4.30407 0
M  V30 4156 H 383.734 -0.0112473 0.736914 0
M  V30 4157 H 386.376 0.659956 1.7817 0
M  V30 4158 H 384.526 -0.772826 3.80736 0
M  V30 4159 H 386.198 1.79952 4.24753 0
M  V30 4160 H 384.441 1.75594 3.96673 0
M  V30 4161 H 385.112 1.01939 5.42506 0
M  V30 4162 H 387.588 -0.41649 4.1401 0
M  V30 4163 H 386.464 -0.989505 5.39907 0
M  V30 4164 H 386.725 -1.96373 3.96093 0
M  V30 4165 N 385.784 -1.5574 0.241426 0
M  V30 4166 C 387.024 -2.00714 -0.38644 0
M  V30 4167 C 387.388 -1.12586 -1.55526 0
M  V30 4168 O 388.589 -1.46992 -2.25048 0
M  V30 4169 C 386.86 -3.48534 -0.791128 0
M  V30 4170 S 388.419 -4.15519 -1.41029 0
M  V30 4171 H 385.237 -0.700484 -0.121834 0
M  V30 4172 H 387.839 -1.92243 0.355377 0
M  V30 4173 H 386.543 -4.10342 0.0689225 0
M  V30 4174 H 386.074 -3.6092 -1.56526 0
M  V30 4175 H 388.089 -4.16352 -2.69936 0
M  V30 4176 N 387.262 0.0317525 -1.57568 0
M  V30 4177 C 388.209 1.0332 -2.06382 0
M  V30 4178 C 389.179 1.36082 -0.952414 0
M  V30 4179 O 390.364 1.46466 -1.2228 0
M  V30 4180 C 387.504 2.32989 -2.54578 0
M  V30 4181 C 386.617 2.0641 -3.79498 0
M  V30 4182 C 385.752 3.2993 -4.16317 0
M  V30 4183 C 384.791 2.98893 -5.34162 0
M  V30 4184 N 383.928 4.14857 -5.66426 0
M  V30 4185 H 388.768 0.609982 -2.9169 0
M  V30 4186 H 386.305 0.289573 -1.44222 0
M  V30 4187 H 388.263 3.0875 -2.80587 0
M  V30 4188 H 386.893 2.73039 -1.7219 0
M  V30 4189 H 385.945 1.21158 -3.6059 0
M  V30 4190 H 387.257 1.79513 -4.65378 0
M  V30 4191 H 386.411 4.1406 -4.4344 0
M  V30 4192 H 385.15 3.59938 -3.29083 0
M  V30 4193 H 384.155 2.13164 -5.06795 0
M  V30 4194 H 385.38 2.70165 -6.23047 0
M  V30 4195 H 383.326 4.44821 -4.82151 0
M  V30 4196 H 383.243 3.91374 -6.4681 0
M  V30 4197 H 384.511 4.99868 -5.98124 0
M  V30 4198 N 388.74 1.54641 0.303973 0
M  V30 4199 C 389.987 1.7378 1.03955 0
M  V30 4200 C 390.315 0.521986 1.87365 0
M  V30 4201 O 389.57 -0.496099 1.89308 0
M  V30 4202 C 389.869 2.97753 1.97681 0
M  V30 4203 C 389.535 4.31671 1.30271 0
M  V30 4204 C 388.197 4.68075 1.11619 0
M  V30 4205 C 390.549 5.147 0.82055 0
M  V30 4206 C 387.877 5.8509 0.434304 0
M  V30 4207 C 390.229 6.32416 0.152395 0
M  V30 4208 C 388.893 6.67484 -0.0461067 0
M  V30 4209 H 388.163 0.635908 0.380398 0
M  V30 4210 H 390.81 1.88896 0.314718 0
M  V30 4211 H 389.115 2.77406 2.76682 0
M  V30 4212 H 390.812 3.09756 2.54661 0
M  V30 4213 H 387.402 4.03041 1.45795 0
M  V30 4214 H 391.586 4.87077 0.952374 0
M  V30 4215 H 386.842 6.10806 0.269495 0
M  V30 4216 H 391.016 6.96023 -0.229126 0
M  V30 4217 H 388.643 7.58011 -0.576494 0
M  V30 4218 N 390.218 -0.567019 1.47046 0
M  V30 4219 C 391.467 -1.32091 1.5243 0
M  V30 4220 C 391.78 -1.94704 0.187021 0
M  V30 4221 O 392.986 -2.7124 0.118771 0
M  V30 4222 C 391.442 -2.39479 2.68659 0
M  V30 4223 C 391.05 -1.831 4.08874 0
M  V30 4224 C 392.794 -3.16111 2.83327 0
M  V30 4225 C 390.701 -2.8821 5.16419 0
M  V30 4226 H 389.631 -0.496629 0.56734 0
M  V30 4227 H 392.282 -0.603354 1.73297 0
M  V30 4228 H 390.664 -3.14105 2.41152 0
M  V30 4229 H 391.838 -1.14913 4.46242 0
M  V30 4230 H 390.153 -1.19085 3.99008 0
M  V30 4231 H 392.75 -3.94585 3.60842 0
M  V30 4232 H 393.093 -3.69686 1.91411 0
M  V30 4233 H 393.626 -2.48595 3.10556 0
M  V30 4234 H 390.365 -2.39504 6.10179 0
M  V30 4235 H 389.885 -3.54839 4.8358 0
M  V30 4236 H 391.564 -3.51881 5.42945 0
M  V30 4237 N 391.696 -1.35014 -0.812953 0
M  V30 4238 C 392.626 -1.30069 -1.93919 0
M  V30 4239 C 393.607 -0.176275 -1.69184 0
M  V30 4240 O 394.792 -0.370227 -1.90638 0
M  V30 4241 C 391.922 -1.06547 -3.30552 0
M  V30 4242 C 390.876 -2.15561 -3.69753 0
M  V30 4243 C 390.202 -1.77214 -5.04479 0
M  V30 4244 C 391.502 -3.57476 -3.808 0
M  V30 4245 H 393.196 -2.24303 -1.98314 0
M  V30 4246 H 390.742 -1.07977 -0.952736 0
M  V30 4247 H 392.695 -1.01729 -4.08937 0
M  V30 4248 H 391.419 -0.0875719 -3.26483 0
M  V30 4249 H 390.078 -2.19466 -2.9365 0
M  V30 4250 H 389.726 -0.780589 -4.96906 0
M  V30 4251 H 389.426 -2.50184 -5.31678 0
M  V30 4252 H 390.95 -1.7391 -5.8531 0
M  V30 4253 H 392.364 -3.55929 -4.4943 0
M  V30 4254 H 390.761 -4.29152 -4.19462 0
M  V30 4255 H 391.831 -3.94091 -2.82525 0
M  V30 4256 N 393.175 1.03435 -1.18907 0
M  V30 4257 C 394.085 2.15075 -0.937015 0
M  V30 4258 C 395.101 1.73706 0.101085 0
M  V30 4259 O 396.277 2.01232 -0.0822948 0
M  V30 4260 C 393.342 3.43458 -0.473057 0
M  V30 4261 C 392.403 3.99172 -1.57989 0
M  V30 4262 C 391.636 5.21427 -1.13797 0
M  V30 4263 O 391.859 5.704 0.000725941 0
M  V30 4264 O 390.793 5.69837 -1.9383 0
M  V30 4265 H 394.619 2.39198 -1.87131 0
M  V30 4266 H 392.204 1.13506 -0.971427 0
M  V30 4267 H 394.086 4.20811 -0.222702 0
M  V30 4268 H 392.761 3.20793 0.432869 0
M  V30 4269 H 391.668 3.23178 -1.88433 0
M  V30 4270 H 393.001 4.2619 -2.46217 0
M  V30 4271 N 394.653 0.992116 1.22453 0
M  V30 4272 C 395.901 0.666215 1.90804 0
M  V30 4273 C 396.222 -0.804152 1.77647 0
M  V30 4274 O 395.492 -1.57629 1.16318 0
M  V30 4275 H 394.072 0.243423 0.706225 0
M  V30 4276 H 396.734 1.25845 1.48825 0
M  V30 4277 H 395.83 0.928069 2.97982 0
M  V30 4278 N 396.131 -1.37776 0.765217 0
M  V30 4279 C 397.081 -2.2768 0.12075 0
M  V30 4280 C 398.065 -1.45778 -0.680988 0
M  V30 4281 O 399.257 -1.684 -0.545033 0
M  V30 4282 C 396.386 -3.34722 -0.762626 0
M  V30 4283 C 395.472 -4.24074 0.0465881 0
M  V30 4284 N 395.863 -4.93939 1.08892 0
M  V30 4285 C 394.161 -4.45643 -0.178418 0
M  V30 4286 C 394.862 -5.59845 1.57951 0
M  V30 4287 N 393.838 -5.36218 0.892797 0
M  V30 4288 H 397.64 -2.79166 0.918889 0
M  V30 4289 H 395.154 -1.50816 0.602353 0
M  V30 4290 H 397.151 -3.98031 -1.24005 0
M  V30 4291 H 395.811 -2.84793 -1.55959 0
M  V30 4292 H 396.822 -4.96572 1.47095 0
M  V30 4293 H 393.499 -4.06599 -0.9478 0
M  V30 4294 H 394.889 -6.25703 2.44838 0
M  V30 4295 N 397.609 -0.515225 -1.4894 0
M  V30 4296 C 398.519 0.259774 -2.33157 0
M  V30 4297 C 399.535 0.953501 -1.45548 0
M  V30 4298 O 400.711 0.931735 -1.78552 0
M  V30 4299 C 397.776 1.30193 -3.21326 0
M  V30 4300 C 396.837 0.620129 -4.24797 0
M  V30 4301 C 396.07 1.61263 -5.08753 0
M  V30 4302 O 396.293 2.84389 -4.94448 0
M  V30 4303 O 395.227 1.16013 -5.90614 0
M  V30 4304 H 399.053 -0.429932 -3.00641 0
M  V30 4305 H 396.638 -0.276346 -1.46822 0
M  V30 4306 H 398.52 1.90455 -3.75905 0
M  V30 4307 H 397.195 1.97431 -2.56521 0
M  V30 4308 H 396.102 -0.0226019 -3.74093 0
M  V30 4309 H 397.435 -0.0100493 -4.92199 0
M  V30 4310 N 399.087 1.5561 -0.249682 0
M  V30 4311 C 400.034 2.21496 0.648694 0
M  V30 4312 C 401.004 1.17977 1.16921 0
M  V30 4313 O 402.189 1.46434 1.22318 0
M  V30 4314 C 399.329 2.92039 1.83868 0
M  V30 4315 C 398.442 4.10219 1.35442 0
M  V30 4316 C 397.577 4.6847 2.50419 0
M  V30 4317 C 396.616 5.78893 1.98869 0
M  V30 4318 N 395.753 6.31315 3.07223 0
M  V30 4319 H 400.593 2.97892 0.0801582 0
M  V30 4320 H 398.13 1.47074 0.0278031 0
M  V30 4321 H 400.088 3.31138 2.53778 0
M  V30 4322 H 398.718 2.18111 2.37965 0
M  V30 4323 H 397.77 3.76413 0.54928 0
M  V30 4324 H 399.082 4.89927 0.936649 0
M  V30 4325 H 398.236 5.10158 3.28366 0
M  V30 4326 H 396.975 3.87984 2.95499 0
M  V30 4327 H 395.98 5.3668 1.19393 0
M  V30 4328 H 397.205 6.61232 1.54755 0
M  V30 4329 H 395.151 5.53733 3.51732 0
M  V30 4330 H 395.068 7.06224 2.69784 0
M  V30 4331 H 396.336 6.77662 3.8522 0
M  V30 4332 N 400.565 -0.0233959 1.57583 0
M  V30 4333 C 401.813 -0.711654 1.89156 0
M  V30 4334 C 402.134 -1.75591 0.848096 0
M  V30 4335 O 401.404 -1.95547 -0.117566 0
M  V30 4336 H 399.984 -0.265835 0.698098 0
M  V30 4337 H 402.646 0.0119948 1.94896 0
M  V30 4338 H 401.742 -1.19766 2.88206 0
M  V30 4339 N 402.043 -1.548 -0.295768 0
M  V30 4340 C 403.289 -1.74588 -1.03184 0
M  V30 4341 C 403.622 -0.532962 -1.86744 0
M  V30 4342 O 402.897 0.469872 -1.88739 0
M  V30 4343 C 403.18 -3.03791 -1.93347 0
M  V30 4344 C 403.033 -4.35392 -1.12933 0
M  V30 4345 C 404.352 -3.28892 -2.92435 0
M  V30 4346 H 401.471 -0.635221 -0.373715 0
M  V30 4347 H 404.113 -1.87519 -0.30606 0
M  V30 4348 H 402.263 -2.92898 -2.55232 0
M  V30 4349 H 403.935 -4.58211 -0.532943 0
M  V30 4350 H 402.178 -4.31642 -0.432168 0
M  V30 4351 H 402.849 -5.22074 -1.79284 0
M  V30 4352 H 405.325 -3.39429 -2.4068 0
M  V30 4353 H 404.201 -4.20603 -3.52682 0
M  V30 4354 H 404.462 -2.47437 -3.6637 0
M  V30 4355 N 403.521 0.559213 -1.47345 0
M  V30 4356 C 404.469 1.68747 -1.60085 0
M  V30 4357 C 405.463 1.628 -0.46825 0
M  V30 4358 O 406.669 1.68009 -0.645977 0
M  V30 4359 H 403.044 0.558329 -0.503759 0
M  V30 4360 H 405.015 1.55138 -2.54902 0
M  V30 4361 C 403.764 3.07103 -1.63042 0
M  V30 4362 H 403.087 3.12361 -2.49541 0
M  V30 4363 H 404.527 3.85743 -1.76006 0
M  V30 4364 C 402.986 3.34935 -0.363357 0
M  V30 4365 O 403.516 3.98102 0.536416 0
M  V30 4366 N 401.722 2.89574 -0.244 0
M  V30 4367 H 401.269 2.38348 -0.977133 0
M  V30 4368 H 401.227 3.08566 0.602836 0
M  V30 4369 N 404.999 1.35443 0.805782 0
M  V30 4370 C 406.239 1.30127 1.57627 0
M  V30 4371 C 406.603 -0.122567 1.91608 0
M  V30 4372 O 407.804 -0.300107 2.67119 0
M  V30 4373 C 406.075 2.18314 2.82973 0
M  V30 4374 S 407.634 2.30521 3.7337 0
M  V30 4375 H 404.452 0.462439 0.540066 0
M  V30 4376 H 407.054 1.70843 0.95042 0
M  V30 4377 H 405.758 3.20741 2.56034 0
M  V30 4378 H 405.289 1.78558 3.50543 0
M  V30 4379 H 407.304 1.49062 4.73281 0
M  V30 4380 N 406.477 -1.02803 1.19454 0
M  V30 4381 C 407.717 -1.77769 1.00883 0
M  V30 4382 C 408.081 -1.86596 -0.45233 0
M  V30 4383 O 409.282 -2.57895 -0.757877 0
M  V30 4384 C 407.553 -3.16486 1.66046 0
M  V30 4385 S 409.112 -4.07632 1.62424 0
M  V30 4386 H 405.93 -0.611949 0.361993 0
M  V30 4387 H 408.532 -1.23175 1.51816 0
M  V30 4388 H 407.236 -3.0768 2.7159 0
M  V30 4389 H 406.767 -3.76156 1.15196 0
M  V30 4390 H 408.782 -4.91937 0.64903 0
M  V30 4391 N 407.956 -0.998596 -1.21925 0
M  V30 4392 C 409.184 -0.696286 -1.94832 0
M  V30 4393 C 409.599 0.740032 -1.73692 0
M  V30 4394 O 408.956 1.5 -1.03953 0
M  V30 4395 C 409.007 -0.999833 -3.47398 0
M  V30 4396 O 408.728 -2.37972 -3.67833 0
M  V30 4397 C 410.229 -0.716025 -4.37479 0
M  V30 4398 H 407.449 -0.257111 -0.619786 0
M  V30 4399 H 409.993 -1.33491 -1.54921 0
M  V30 4400 H 408.148 -0.406918 -3.85257 0
M  V30 4401 H 408.562 -2.48338 -4.61983 0
M  V30 4402 H 410.036 -0.978642 -5.43256 0
M  V30 4403 H 410.513 0.349968 -4.37803 0
M  V30 4404 H 411.119 -1.29025 -4.05256 0
M  V30 4405 N 409.434 1.37368 -0.772513 0
M  V30 4406 C 410.681 1.99673 -0.337182 0
M  V30 4407 C 411.009 1.61324 1.0865 0
M  V30 4408 O 410.264 0.851377 1.7621 0
M  V30 4409 C 410.563 3.54817 -0.428876 0
M  V30 4410 C 410.229 4.12936 -1.81092 0
M  V30 4411 C 408.891 4.28523 -2.1891 0
M  V30 4412 C 411.243 4.44801 -2.71664 0
M  V30 4413 C 408.571 4.73277 -3.46735 0
M  V30 4414 C 410.923 4.90981 -3.98899 0
M  V30 4415 C 409.587 5.04773 -4.36761 0
M  V30 4416 H 408.857 0.730656 -0.123384 0
M  V30 4417 H 411.504 1.64124 -0.986686 0
M  V30 4418 H 409.809 3.90618 0.304167 0
M  V30 4419 H 411.506 4.00933 -0.0733334 0
M  V30 4420 H 408.096 4.01233 -1.50699 0
M  V30 4421 H 412.28 4.32344 -2.43706 0
M  V30 4422 H 407.536 4.82142 -3.75964 0
M  V30 4423 H 411.71 5.14603 -4.69208 0
M  V30 4424 H 409.337 5.39211 -5.35868 0
M  V30 4425 N 410.912 0.523116 1.48665 0
M  V30 4426 C 411.862 -0.263106 2.26477 0
M  V30 4427 C 412.846 -0.916005 1.32281 0
M  V30 4428 O 414.038 -0.819946 1.56863 0
M  V30 4429 C 411.167 -1.31361 3.17174 0
M  V30 4430 C 410.253 -0.665849 4.1884 0
M  V30 4431 N 410.644 0.244434 5.05209 0
M  V30 4432 C 408.942 -0.923863 4.36326 0
M  V30 4433 C 409.643 0.617443 5.78414 0
M  V30 4434 N 408.619 -0.0198686 5.43596 0
M  V30 4435 H 412.421 0.437295 2.90629 0
M  V30 4436 H 409.935 0.340675 1.58787 0
M  V30 4437 H 411.932 -1.89052 3.71571 0
M  V30 4438 H 410.592 -2.01546 2.54576 0
M  V30 4439 H 411.603 0.616621 5.14216 0
M  V30 4440 H 408.28 -1.6168 3.84923 0
M  V30 4441 H 409.67 1.36346 6.57921 0
M  V30 4442 N 412.39 -1.55475 0.257931 0
M  V30 4443 C 413.34 -2.18506 -0.651094 0
M  V30 4444 C 414.324 -1.14431 -1.13112 0
M  V30 4445 O 415.516 -1.40305 -1.07905 0
M  V30 4446 C 412.645 -2.89653 -1.84272 0
M  V30 4447 C 411.731 -4.00996 -1.38068 0
M  V30 4448 N 412.122 -5.01816 -0.633609 0
M  V30 4449 C 410.42 -4.13753 -1.66506 0
M  V30 4450 C 411.121 -5.80371 -0.392922 0
M  V30 4451 N 410.097 -5.3505 -0.960359 0
M  V30 4452 H 413.899 -2.93811 -0.0722883 0
M  V30 4453 H 411.413 -1.62286 0.0607256 0
M  V30 4454 H 413.41 -3.33245 -2.50506 0
M  V30 4455 H 412.07 -2.15854 -2.42564 0
M  V30 4456 H 413.081 -5.17128 -0.282626 0
M  V30 4457 H 409.758 -3.51133 -2.25858 0
M  V30 4458 H 411.148 -6.7159 0.204235 0
M  V30 4459 N 413.868 0.0150385 -1.57593 0
M  V30 4460 C 414.816 1.02958 -2.08572 0
M  V30 4461 C 415.81 1.36554 -1.00246 0
M  V30 4462 O 417.016 1.35295 -1.18724 0
M  V30 4463 H 413.391 0.349619 -0.665786 0
M  V30 4464 H 415.362 0.573932 -2.92829 0
M  V30 4465 C 414.111 2.31752 -2.59203 0
M  V30 4466 H 413.434 2.06765 -3.42182 0
M  V30 4467 H 414.874 3.01053 -2.98568 0
M  V30 4468 C 413.333 3.01692 -1.49945 0
M  V30 4469 O 413.863 3.92083 -0.873704 0
M  V30 4470 N 412.069 2.6326 -1.23056 0
M  V30 4471 H 411.616 1.89838 -1.74125 0
M  V30 4472 H 411.574 3.10372 -0.501685 0
M  V30 4473 N 415.346 1.54954 0.287554 0
M  V30 4474 C 416.276 1.89839 1.35954 0
M  V30 4475 C 417.257 0.758675 1.52244 0
M  V30 4476 O 418.442 1.01557 1.65529 0
M  V30 4477 C 415.572 2.15753 2.72154 0
M  V30 4478 C 414.526 3.3159 2.70614 0
M  V30 4479 C 413.852 3.42952 4.10229 0
M  V30 4480 C 415.152 4.68359 2.31165 0
M  V30 4481 H 416.846 2.79625 1.07007 0
M  V30 4482 H 414.392 1.3454 0.513316 0
M  V30 4483 H 416.345 2.38743 3.47246 0
M  V30 4484 H 415.069 1.22752 3.02654 0
M  V30 4485 H 413.728 3.08545 1.97979 0
M  V30 4486 H 413.376 2.47443 4.37928 0
M  V30 4487 H 413.076 4.20826 4.10097 0
M  V30 4488 H 414.6 3.68218 4.87081 0
M  V30 4489 H 416.014 4.9099 2.95976 0
M  V30 4490 H 414.411 5.49044 2.42221 0
M  V30 4491 H 415.481 4.68165 1.26291 0
M  V30 4492 N 416.824 -0.551391 1.4764 0
M  V30 4493 C 418.235 -1.13349 1.48354 0
M  V30 4494 C 418.586 -1.94709 0.241432 0
M  V30 4495 O 417.711 -2.06306 -0.653205 0
M  V30 4496 C 418.306 -2.0623 2.68802 0
M  V30 4497 C 416.865 -2.597 2.72457 0
M  V30 4498 C 416.012 -1.36201 2.41546 0
M  V30 4499 H 418.963 -0.337698 1.55065 0
M  V30 4500 H 418.984 -2.90196 2.46103 0
M  V30 4501 H 418.496 -1.46987 3.59188 0
M  V30 4502 H 416.597 -3.22724 1.86225 0
M  V30 4503 H 416.71 -3.00296 3.73308 0
M  V30 4504 H 415.074 -1.67068 1.9225 0
M  V30 4505 H 415.857 -0.787425 3.34147 0
M  V30 4506 N 418.302 -1.35869 -0.798587 0
M  V30 4507 C 419.232 -1.32118 -1.92528 0
M  V30 4508 C 420.213 -0.194209 -1.68988 0
M  V30 4509 O 421.398 -0.390426 -1.90235 0
M  V30 4510 C 418.528 -1.10047 -3.29404 0
M  V30 4511 C 417.482 -2.19471 -3.67446 0
M  V30 4512 C 416.808 -1.82555 -5.02571 0
M  V30 4513 C 418.108 -3.61495 -3.76987 0
M  V30 4514 H 419.802 -2.26394 -1.95924 0
M  V30 4515 H 417.348 -1.08981 -0.94123 0
M  V30 4516 H 419.301 -1.06061 -4.07835 0
M  V30 4517 H 418.025 -0.122195 -3.26371 0
M  V30 4518 H 416.684 -2.22568 -2.91306 0
M  V30 4519 H 416.332 -0.833249 -4.9605 0
M  V30 4520 H 416.032 -2.5581 -5.28995 0
M  V30 4521 H 417.556 -1.80108 -5.83432 0
M  V30 4522 H 418.97 -3.60676 -4.4563 0
M  V30 4523 H 417.367 -4.33577 -4.14887 0
M  V30 4524 H 418.437 -3.97065 -2.78329 0
M  V30 4525 N 419.78 1.02168 -1.19998 0
M  V30 4526 C 421.029 1.75091 -1.0013 0
M  V30 4527 C 421.342 1.89923 0.467835 0
M  V30 4528 O 422.548 2.59888 0.785515 0
M  V30 4529 C 421.004 3.14892 -1.74273 0
M  V30 4530 C 420.612 3.0809 -3.25245 0
M  V30 4531 C 422.356 3.9206 -1.62755 0
M  V30 4532 C 420.263 4.42867 -3.91948 0
M  V30 4533 H 419.193 0.656394 -0.37103 0
M  V30 4534 H 421.844 1.14284 -1.43567 0
M  V30 4535 H 420.226 3.7621 -1.2362 0
M  V30 4536 H 421.4 2.5611 -3.83072 0
M  V30 4537 H 419.715 2.44416 -3.3712 0
M  V30 4538 H 422.312 4.91764 -2.09934 0
M  V30 4539 H 422.655 4.12199 -0.582894 0
M  V30 4540 H 423.188 3.37359 -2.10793 0
M  V30 4541 H 419.927 4.27931 -4.96543 0
M  V30 4542 H 419.447 4.94874 -3.3891 0
M  V30 4543 H 421.126 5.11728 -3.95909 0
M  V30 4544 N 421.258 1.00505 1.21394 0
M  V30 4545 C 422.221 0.570459 2.21987 0
M  V30 4546 C 423.221 -0.353211 1.56873 0
M  V30 4547 O 424.411 -0.14349 1.73608 0
M  V30 4548 C 421.543 -0.168555 3.40483 0
M  V30 4549 H 422.736 1.46021 2.6195 0
M  V30 4550 H 420.289 0.793565 1.34656 0
M  V30 4551 H 421.024 -1.07374 3.06009 0
M  V30 4552 H 420.809 0.494823 3.88965 0
M  V30 4553 H 422.299 -0.460362 4.15055 0
M  V30 4554 N 422.737 -1.36956 0.779787 0
M  V30 4555 C 423.962 -2.04283 0.358224 0
M  V30 4556 C 424.387 -1.58422 -1.01411 0
M  V30 4557 O 423.745 -0.748179 -1.65142 0
M  V30 4558 C 423.793 -3.58152 0.419479 0
M  V30 4559 O 422.897 -4.08342 -0.577142 0
M  V30 4560 H 422.238 -0.645967 0.153698 0
M  V30 4561 H 424.768 -1.75108 1.05822 0
M  V30 4562 H 424.778 -4.07041 0.279636 0
M  V30 4563 H 423.453 -3.90886 1.42061 0
M  V30 4564 H 422.03 -3.70751 -0.399755 0
M  V30 4565 N 424.215 -0.530993 -1.48385 0
M  V30 4566 C 425.463 0.00273189 -2.021 0
M  V30 4567 C 425.784 1.34672 -1.41027 0
M  V30 4568 O 425.054 1.8724 -0.576012 0
M  V30 4569 H 423.634 0.00399774 -0.746989 0
M  V30 4570 H 426.296 -0.695054 -1.82085 0
M  V30 4571 H 425.392 0.11031 -3.11905 0
M  V30 4572 N 425.693 1.55336 -0.266172 0
M  V30 4573 C 426.918 2.04258 0.359661 0
M  V30 4574 C 427.343 1.14359 1.49344 0
M  V30 4575 O 426.701 0.140369 1.80756 0
M  V30 4576 C 426.749 3.50997 0.826635 0
M  V30 4577 O 425.853 3.64204 1.93466 0
M  V30 4578 H 425.194 0.659668 0.075727 0
M  V30 4579 H 427.724 2.00694 -0.39786 0
M  V30 4580 H 427.734 3.9219 1.12477 0
M  V30 4581 H 426.409 4.159 -0.00293032 0
M  V30 4582 H 424.986 3.34913 1.63974 0
M  V30 4583 N 427.171 -0.0066808 1.57599 0
M  V30 4584 C 428.448 -0.729586 1.81484 0
M  V30 4585 C 428.828 -1.92359 0.869558 0
M  V30 4586 O 428.176 -2.28348 -0.0832533 0
M  V30 4587 C 428.386 -1.1416 3.29801 0
M  V30 4588 C 429.734 -1.54823 3.95367 0
M  V30 4589 O 430.758 -1.23558 3.34084 0
M  V30 4590 O 429.617 -2.12937 5.03309 0
M  V30 4591 H 426.711 -0.354674 0.747085 0
M  V30 4592 H 429.257 0.0182609 1.6969 0
M  V30 4593 H 428.029 -0.290231 3.90222 0
M  V30 4594 H 427.652 -1.94876 3.46568 0
M  V30 4595 N 428.649 -1.55105 -0.279332 0
M  V30 4596 C 429.926 -1.66119 -1.03267 0
M  V30 4597 C 430.306 -0.523525 -2.04505 0
M  V30 4598 O 429.654 0.477194 -2.23462 0
M  V30 4599 C 429.864 -3.05067 -1.69515 0
M  V30 4600 C 431.212 -3.62606 -2.20912 0
M  V30 4601 O 432.236 -3.07659 -1.79512 0
M  V30 4602 O 431.095 -4.58861 -2.96831 0
M  V30 4603 H 428.189 -0.674429 -0.478618 0
M  V30 4604 H 430.735 -1.67446 -0.275694 0
M  V30 4605 H 429.507 -3.79311 -0.9612 0
M  V30 4606 H 429.13 -3.07611 -2.51915 0
M  V30 4607 N 430.127 0.543554 -1.4793 0
M  V30 4608 C 431.074 1.64942 -1.6144 0
M  V30 4609 C 432.044 1.59692 -0.456903 0
M  V30 4610 O 433.229 1.78321 -0.678688 0
M  V30 4611 C 430.369 3.03238 -1.64744 0
M  V30 4612 C 429.482 3.18823 -2.91506 0
M  V30 4613 C 428.617 4.47599 -2.86057 0
M  V30 4614 C 427.656 4.56664 -4.07584 0
M  V30 4615 N 426.793 5.76811 -4.00292 0
M  V30 4616 H 431.633 1.52733 -2.55884 0
M  V30 4617 H 429.17 0.7438 -1.2691 0
M  V30 4618 H 431.128 3.83339 -1.64641 0
M  V30 4619 H 429.758 3.1425 -0.738017 0
M  V30 4620 H 428.81 2.32064 -3.01414 0
M  V30 4621 H 430.122 3.21384 -3.81463 0
M  V30 4622 H 429.276 5.35975 -2.84281 0
M  V30 4623 H 428.015 4.47538 -1.93807 0
M  V30 4624 H 427.02 3.66697 -4.09651 0
M  V30 4625 H 428.245 4.58474 -5.00978 0
M  V30 4626 H 426.191 5.77673 -3.10853 0
M  V30 4627 H 426.108 5.80808 -4.8394 0
M  V30 4628 H 427.376 6.67512 -4.02553 0
M  V30 4629 N 431.605 1.3629 0.791371 0
M  V30 4630 C 432.535 1.33137 1.91825 0
M  V30 4631 C 433.516 0.203168 1.68882 0
M  V30 4632 O 434.701 0.400509 1.90025 0
M  V30 4633 C 431.831 1.11793 3.28816 0
M  V30 4634 C 430.785 2.21417 3.66277 0
M  V30 4635 C 430.111 1.85218 5.01596 0
M  V30 4636 C 431.411 3.63489 3.75064 0
M  V30 4637 H 433.105 2.2743 1.9472 0
M  V30 4638 H 430.651 1.09479 0.935437 0
M  V30 4639 H 432.604 1.08222 4.07266 0
M  V30 4640 H 431.328 0.139501 3.26302 0
M  V30 4641 H 429.987 2.2411 2.90121 0
M  V30 4642 H 429.635 0.859544 4.95602 0
M  V30 4643 H 429.335 2.58611 5.27631 0
M  V30 4644 H 430.859 1.832 5.82469 0
M  V30 4645 H 432.273 3.63034 4.43711 0
M  V30 4646 H 430.67 4.35771 4.12582 0
M  V30 4647 H 431.74 3.98536 2.76219 0
M  V30 4648 N 433.083 -1.0153 1.20538 0
M  V30 4649 C 434.332 -1.74558 1.01057 0
M  V30 4650 C 434.645 -1.90168 -0.457756 0
M  V30 4651 O 435.851 -2.60301 -0.771722 0
M  V30 4652 C 434.307 -3.13963 1.75941 0
M  V30 4653 C 433.915 -3.06361 3.26875 0
M  V30 4654 C 435.659 -3.91191 1.64832 0
M  V30 4655 C 433.566 -4.40782 3.94291 0
M  V30 4656 H 432.496 -0.654417 0.374505 0
M  V30 4657 H 435.147 -1.13521 1.44171 0
M  V30 4658 H 433.529 -3.75549 1.25614 0
M  V30 4659 H 434.703 -2.54074 3.84425 0
M  V30 4660 H 433.018 -2.42625 3.38411 0
M  V30 4661 H 435.615 -4.90644 2.12539 0
M  V30 4662 H 435.958 -4.11884 0.604745 0
M  V30 4663 H 436.491 -3.36236 2.12579 0
M  V30 4664 H 433.23 -4.25292 4.98805 0
M  V30 4665 H 432.75 -4.9307 3.41529 0
M  V30 4666 H 434.429 -5.09621 3.98617 0
M  V30 4667 N 434.561 -1.01147 -1.20859 0
M  V30 4668 C 435.508 -0.577354 -2.23462 0
M  V30 4669 C 436.478 0.399922 -1.61214 0
M  V30 4670 O 437.663 0.300515 -1.88419 0
M  V30 4671 C 434.803 0.083372 -3.44999 0
M  V30 4672 C 433.916 -0.937856 -4.21697 0
M  V30 4673 C 433.051 -0.248717 -5.30617 0
M  V30 4674 C 432.09 -1.25705 -5.99053 0
M  V30 4675 N 431.227 -0.594939 -6.99575 0
M  V30 4676 H 436.067 -1.45695 -2.59956 0
M  V30 4677 H 433.604 -0.729428 -1.27741 0
M  V30 4678 H 435.562 0.483535 -4.14388 0
M  V30 4679 H 434.192 0.926645 -3.09214 0
M  V30 4680 H 433.244 -1.45622 -3.51423 0
M  V30 4681 H 434.556 -1.70493 -4.68757 0
M  V30 4682 H 433.71 0.207215 -6.06346 0
M  V30 4683 H 432.449 0.55071 -4.84581 0
M  V30 4684 H 431.454 -1.72343 -5.2209 0
M  V30 4685 H 432.679 -2.05767 -6.47176 0
M  V30 4686 H 430.625 0.184713 -6.5574 0
M  V30 4687 H 430.542 -1.30017 -7.44736 0
M  V30 4688 H 431.81 -0.162427 -7.79331 0
M  V30 4689 N 436.039 1.36541 -0.78704 0
M  V30 4690 C 437.288 1.98552 -0.35494 0
M  V30 4691 C 437.601 1.63171 1.07864 0
M  V30 4692 O 438.807 2.18399 1.61289 0
M  V30 4693 C 437.263 3.55136 -0.583671 0
M  V30 4694 C 436.871 3.99444 -2.02851 0
M  V30 4695 C 438.615 4.2395 -0.215957 0
M  V30 4696 C 436.522 5.48796 -2.20403 0
M  V30 4697 H 435.452 0.742888 -0.128972 0
M  V30 4698 H 438.103 1.5587 -0.968337 0
M  V30 4699 H 436.485 3.95875 0.0994046 0
M  V30 4700 H 437.659 3.6991 -2.74779 0
M  V30 4701 H 435.974 3.43459 -2.35425 0
M  V30 4702 H 438.571 5.33709 -0.325405 0
M  V30 4703 H 438.914 4.07827 0.835646 0
M  V30 4704 H 439.447 3.88565 -0.852175 0
M  V30 4705 H 436.186 5.69864 -3.23937 0
M  V30 4706 H 435.706 5.79964 -1.52977 0
M  V30 4707 H 437.385 6.14986 -2.01002 0
M  V30 4708 N 437.518 0.538854 1.48102 0
M  V30 4709 C 438.764 0.0161732 2.03394 0
M  V30 4710 C 439.119 -1.31154 1.40771 0
M  V30 4711 O 438.412 -1.83613 0.547421 0
M  V30 4712 C 438.606 -0.153808 3.57069 0
M  V30 4713 C 438.435 1.15588 4.34591 0
M  V30 4714 C 437.205 1.71818 4.75191 0
M  V30 4715 C 439.403 2.06867 4.70861 0
M  V30 4716 N 437.385 2.96983 5.37284 0
M  V30 4717 C 438.756 3.16609 5.33066 0
M  V30 4718 C 440.811 2.07085 4.52791 0
M  V30 4719 C 439.514 4.26645 5.79109 0
M  V30 4720 C 441.54 3.16121 4.99821 0
M  V30 4721 C 440.902 4.24582 5.62058 0
M  V30 4722 H 437.001 0.0476346 0.780548 0
M  V30 4723 H 439.585 0.722094 1.80815 0
M  V30 4724 H 437.756 -0.828825 3.79454 0
M  V30 4725 H 439.488 -0.676896 3.98999 0
M  V30 4726 H 436.243 1.25845 4.56574 0
M  V30 4727 H 436.667 3.60732 5.72889 0
M  V30 4728 H 441.309 1.24522 4.04047 0
M  V30 4729 H 439.027 5.0998 6.26854 0
M  V30 4730 H 442.613 3.17355 4.87624 0
M  V30 4731 H 441.493 5.07562 5.97788 0
M  V30 4732 N 438.996 -1.55193 0.274407 0
M  V30 4733 C 440.412 -1.59401 -0.0797543 0
M  V30 4734 C 440.612 -1.29162 -1.54659 0
M  V30 4735 O 439.668 -1.05215 -2.29534 0
M  V30 4736 C 440.981 -2.99257 0.294238 0
M  V30 4737 C 442.529 -3.12072 0.240796 0
M  V30 4738 C 443.004 -4.54194 0.589218 0
M  V30 4739 N 444.495 -4.60033 0.540744 0
M  V30 4740 C 445.23 -5.68027 0.783147 0
M  V30 4741 N 444.726 -6.8417 1.09013 0
M  V30 4742 N 446.519 -5.57572 0.711993 0
M  V30 4743 H 438.67 -1.73113 1.23067 0
M  V30 4744 H 440.933 -0.807197 0.497129 0
M  V30 4745 H 440.639 -3.26217 1.31435 0
M  V30 4746 H 440.513 -3.75427 -0.365281 0
M  V30 4747 H 442.9 -2.84877 -0.770024 0
M  V30 4748 H 442.981 -2.38117 0.934563 0
M  V30 4749 H 442.625 -4.82115 1.59772 0
M  V30 4750 H 442.555 -5.26448 -0.126331 0
M  V30 4751 H 445.046 -3.76599 0.313327 0
M  V30 4752 H 445.359 -7.6243 1.26178 0
M  V30 4753 H 443.704 -6.85787 1.12789 0
M  V30 4754 H 446.895 -4.65714 0.472014 0
M  V30 4755 H 447.068 -6.41659 0.90429 0
M  V30 4756 N 440.474 -0.00167713 -1.576 0
M  V30 4757 C 441.721 0.68282 -1.90641 0
M  V30 4758 C 442.049 1.73686 -0.875415 0
M  V30 4759 O 441.304 1.95334 0.119575 0
M  V30 4760 C 441.603 1.36189 -3.30435 0
M  V30 4761 C 441.269 0.440887 -4.48739 0
M  V30 4762 C 439.931 0.187312 -4.80835 0
M  V30 4763 C 442.283 -0.193134 -5.20842 0
M  V30 4764 C 439.611 -0.70855 -5.82406 0
M  V30 4765 C 441.963 -1.07688 -6.23367 0
M  V30 4766 C 440.627 -1.33962 -6.53919 0
M  V30 4767 H 439.897 0.249862 -0.697603 0
M  V30 4768 H 442.544 -0.0575642 -1.91413 0
M  V30 4769 H 440.849 2.17636 -3.25794 0
M  V30 4770 H 442.546 1.89759 -3.5326 0
M  V30 4771 H 439.136 0.648694 -4.23663 0
M  V30 4772 H 443.32 -0.0102445 -4.96299 0
M  V30 4773 H 438.576 -0.920097 -6.04437 0
M  V30 4774 H 442.75 -1.57451 -6.78367 0
M  V30 4775 H 440.377 -2.03549 -7.32442 0
M  V30 4776 N 441.952 1.55251 0.271103 0
M  V30 4777 C 442.9 1.89054 1.35504 0
M  V30 4778 C 443.894 0.767064 1.51038 0
M  V30 4779 O 445.1 0.951429 1.528 0
M  V30 4780 H 441.475 0.600072 0.45323 0
M  V30 4781 H 443.446 2.79598 1.04247 0
M  V30 4782 C 442.195 2.18068 2.70817 0
M  V30 4783 H 441.518 3.04005 2.59656 0
M  V30 4784 H 442.958 2.4564 3.45597 0
M  V30 4785 C 441.417 0.988901 3.2206 0
M  V30 4786 O 441.947 0.224501 4.01072 0
M  V30 4787 N 440.153 0.786085 2.79766 0
M  V30 4788 H 439.7 1.40937 2.15626 0
M  V30 4789 H 439.658 -0.00969349 3.14399 0
M  V30 4790 N 443.43 -0.535701 1.48216 0
M  V30 4791 C 444.707 -1.29683 1.46429 0
M  V30 4792 C 445.087 -2.10391 0.172852 0
M  V30 4793 O 444.435 -2.12282 -0.845488 0
M  V30 4794 C 444.645 -2.18313 2.72287 0
M  V30 4795 C 445.993 -2.78639 3.20383 0
M  V30 4796 O 447.017 -2.28604 2.73164 0
M  V30 4797 O 445.876 -3.69636 4.02531 0
M  V30 4798 H 442.97 -0.585026 0.584529 0
M  V30 4799 H 445.516 -0.552827 1.60443 0
M  V30 4800 H 444.288 -1.58421 3.57797 0
M  V30 4801 H 443.911 -2.99971 2.60966 0
M  V30 4802 N 444.908 -1.36708 -0.784132 0
M  V30 4803 C 446.133 -1.34565 -1.5782 0
M  V30 4804 C 446.558 0.0695257 -1.87971 0
M  V30 4805 O 445.916 1.04302 -1.48293 0
M  V30 4806 C 445.964 -2.17952 -2.87279 0
M  V30 4807 O 445.068 -1.57563 -3.81114 0
M  V30 4808 H 444.409 -0.460337 -0.478524 0
M  V30 4809 H 446.939 -1.80064 -0.971495 0
M  V30 4810 H 446.949 -2.30721 -3.365 0
M  V30 4811 H 445.624 -3.20823 -2.64661 0
M  V30 4812 H 444.201 -1.53764 -3.39722 0
M  V30 4813 N 446.386 1.0089 -1.21074 0
M  V30 4814 C 447.333 2.09588 -0.966512 0
M  V30 4815 C 448.303 1.65761 0.106089 0
M  V30 4816 O 449.488 1.90758 -0.0402287 0
M  V30 4817 C 446.628 3.40958 -0.533058 0
M  V30 4818 C 445.741 3.9822 -1.67467 0
M  V30 4819 C 444.876 5.17682 -1.19076 0
M  V30 4820 C 443.915 5.67043 -2.30496 0
M  V30 4821 N 443.052 6.77759 -1.83267 0
M  V30 4822 H 447.892 2.29815 -1.89708 0
M  V30 4823 H 445.429 1.12689 -0.945489 0
M  V30 4824 H 447.387 4.1637 -0.263019 0
M  V30 4825 H 446.017 3.20781 0.360505 0
M  V30 4826 H 445.069 3.1983 -2.05944 0
M  V30 4827 H 446.381 4.3085 -2.51336 0
M  V30 4828 H 445.535 6.00326 -0.877151 0
M  V30 4829 H 444.274 4.86635 -0.322066 0
M  V30 4830 H 443.279 4.82999 -2.62664 0
M  V30 4831 H 444.504 6.00121 -3.17855 0
M  V30 4832 H 442.45 6.48527 -0.987356 0
M  V30 4833 H 442.367 7.09624 -2.60711 0
M  V30 4834 H 443.635 7.63949 -1.54928 0
M  V30 4835 N 447.864 1.01787 1.20321 0
M  V30 4836 C 449.104 0.716493 1.91431 0
M  V30 4837 C 449.468 -0.740352 1.77152 0
M  V30 4838 O 450.669 -1.1543 2.42754 0
M  V30 4839 C 448.94 1.14169 3.38674 0
M  V30 4840 S 450.499 0.962482 4.28114 0
M  V30 4841 H 447.317 0.261175 0.661293 0
M  V30 4842 H 449.919 1.30539 1.45533 0
M  V30 4843 H 448.623 2.19784 3.46588 0
M  V30 4844 H 448.154 0.545621 3.89598 0
M  V30 4845 H 450.169 -0.133253 4.96021 0
M  V30 4846 N 449.342 -1.36122 0.79427 0
M  V30 4847 C 450.588 -1.99846 0.378542 0
M  V30 4848 C 450.943 -1.61898 -1.03955 0
M  V30 4849 O 450.236 -0.866013 -1.70912 0
M  V30 4850 C 450.43 -3.5409 0.48527 0
M  V30 4851 C 450.259 -4.0702 1.91219 0
M  V30 4852 C 449.029 -4.36944 2.53787 0
M  V30 4853 C 451.227 -4.26435 2.87502 0
M  V30 4854 N 449.209 -4.75727 3.88017 0
M  V30 4855 C 450.58 -4.68077 4.06576 0
M  V30 4856 C 452.635 -4.08616 2.84495 0
M  V30 4857 C 451.338 -4.93765 5.23057 0
M  V30 4858 C 453.364 -4.35453 4.00169 0
M  V30 4859 C 452.726 -4.77355 5.17988 0
M  V30 4860 H 448.825 -0.759549 0.186034 0
M  V30 4861 H 451.409 -1.65043 1.0329 0
M  V30 4862 H 449.58 -3.88151 -0.139023 0
M  V30 4863 H 451.312 -4.04675 0.0453192 0
M  V30 4864 H 448.067 -4.26822 2.05231 0
M  V30 4865 H 448.491 -4.99396 4.57092 0
M  V30 4866 H 453.133 -3.75373 1.94564 0
M  V30 4867 H 450.851 -5.25887 6.1357 0
M  V30 4868 H 454.437 -4.2323 3.99208 0
M  V30 4869 H 453.317 -4.97718 6.06008 0
M  V30 4870 N 450.82 -0.546701 -1.47814 0
M  V30 4871 C 451.73 0.21026 -2.33656 0
M  V30 4872 C 452.746 0.922413 -1.47538 0
M  V30 4873 O 453.922 0.893652 -1.80488 0
M  V30 4874 C 450.987 1.23348 -3.24016 0
M  V30 4875 C 450.048 0.529883 -4.26017 0
M  V30 4876 C 449.281 1.50435 -5.12059 0
M  V30 4877 O 449.504 2.73837 -5.00369 0
M  V30 4878 O 448.438 1.03459 -5.92942 0
M  V30 4879 H 452.264 -0.493605 -2.99662 0
M  V30 4880 H 449.849 -0.307427 -1.46203 0
M  V30 4881 H 451.731 1.82438 -3.79861 0
M  V30 4882 H 450.406 1.91945 -2.60651 0
M  V30 4883 H 449.313 -0.101948 -3.73961 0
M  V30 4884 H 450.646 -0.11445 -4.92067 0
M  V30 4885 N 452.299 1.55045 -0.282633 0
M  V30 4886 C 453.229 2.2579 0.595066 0
M  V30 4887 C 454.21 1.25074 1.15284 0
M  V30 4888 O 455.395 1.5381 1.18559 0
M  V30 4889 C 452.525 2.98472 1.77572 0
M  V30 4890 C 451.479 4.0618 1.34914 0
M  V30 4891 C 450.805 4.66477 2.6135 0
M  V30 4892 C 452.105 5.1996 0.493821 0
M  V30 4893 H 453.799 2.994 0.00505653 0
M  V30 4894 H 451.345 1.44 0.000992001 0
M  V30 4895 H 453.298 3.46677 2.39568 0
M  V30 4896 H 452.022 2.2241 2.39168 0
M  V30 4897 H 450.681 3.58797 0.752338 0
M  V30 4898 H 450.329 3.87074 3.2122 0
M  V30 4899 H 450.029 5.39207 2.33516 0
M  V30 4900 H 451.553 5.17435 3.24181 0
M  V30 4901 H 452.967 5.64172 1.01898 0
M  V30 4902 H 451.364 5.99299 0.310047 0
M  V30 4903 H 452.434 4.82462 -0.485593 0
M  V30 4904 N 453.777 0.010035 1.57597 0
M  V30 4905 C 455.054 -0.710296 1.82248 0
M  V30 4906 C 455.434 -1.91426 0.889911 0
M  V30 4907 O 454.782 -2.28424 -0.0590292 0
M  V30 4908 C 454.992 -1.10655 3.30993 0
M  V30 4909 C 456.34 -1.50621 3.96987 0
M  V30 4910 O 457.364 -1.20007 3.35375 0
M  V30 4911 O 456.223 -2.07587 5.05539 0
M  V30 4912 H 453.317 -0.34673 0.750804 0
M  V30 4913 H 455.863 0.0362578 1.69661 0
M  V30 4914 H 454.635 -0.248826 3.90508 0
M  V30 4915 H 454.258 -1.91189 3.48615 0
M  V30 4916 N 455.255 -1.55392 -0.262866 0
M  V30 4917 C 456.483 -1.80513 -1.01108 0
M  V30 4918 C 456.898 -0.583533 -1.79556 0
M  V30 4919 O 456.255 0.447585 -1.76926 0
M  V30 4920 C 456.306 -3.03648 -1.96164 0
M  V30 4921 O 456.027 -4.2109 -1.20893 0
M  V30 4922 C 457.528 -3.41448 -2.82715 0
M  V30 4923 H 454.748 -0.601079 -0.298236 0
M  V30 4924 H 457.292 -2.02425 -0.290582 0
M  V30 4925 H 455.447 -2.83832 -2.63663 0
M  V30 4926 H 455.861 -4.90771 -1.85051 0
M  V30 4927 H 457.335 -4.30751 -3.45192 0
M  V30 4928 H 457.812 -2.61308 -3.53008 0
M  V30 4929 H 458.418 -3.63559 -2.20693 0
M  V30 4930 N 456.733 0.527833 -1.48498 0
M  V30 4931 C 457.663 1.64136 -1.66077 0
M  V30 4932 C 458.644 1.62286 -0.509625 0
M  V30 4933 O 459.829 1.79449 -0.742413 0
M  V30 4934 C 456.959 3.02717 -1.70234 0
M  V30 4935 C 455.913 3.19426 -2.8487 0
M  V30 4936 C 455.239 4.5909 -2.74118 0
M  V30 4937 C 456.539 3.01993 -4.26142 0
M  V30 4938 H 458.233 1.4968 -2.593 0
M  V30 4939 H 455.779 0.718654 -1.24785 0
M  V30 4940 H 457.732 3.80491 -1.8112 0
M  V30 4941 H 456.456 3.18201 -0.735911 0
M  V30 4942 H 455.115 2.4407 -2.73542 0
M  V30 4943 H 454.763 4.71413 -1.7544 0
M  V30 4944 H 454.463 4.71214 -3.51042 0
M  V30 4945 H 455.987 5.3896 -2.86974 0
M  V30 4946 H 457.401 3.69558 -4.38292 0
M  V30 4947 H 455.798 3.2561 -5.04082 0
M  V30 4948 H 456.868 1.98396 -4.42456 0
M  V30 4949 N 458.211 1.37122 0.776871 0
M  V30 4950 C 459.627 1.1781 1.07671 0
M  V30 4951 C 459.827 0.0107454 2.01497 0
M  V30 4952 O 458.883 -0.650756 2.4397 0
M  V30 4953 C 460.196 2.49451 1.67913 0
M  V30 4954 C 461.744 2.55927 1.80195 0
M  V30 4955 C 462.219 3.87686 2.43851 0
M  V30 4956 N 463.71 3.891 2.51307 0
M  V30 4957 C 464.445 4.87797 3.014 0
M  V30 4958 N 463.941 5.96888 3.51705 0
M  V30 4959 N 465.734 4.75205 3.00227 0
M  V30 4960 H 457.885 2.11843 0.153778 0
M  V30 4961 H 460.148 0.938927 0.130844 0
M  V30 4962 H 459.854 3.35207 1.06439 0
M  V30 4963 H 459.728 2.66169 2.67271 0
M  V30 4964 H 462.115 1.70582 2.40803 0
M  V30 4965 H 462.196 2.43097 0.796069 0
M  V30 4966 H 461.84 4.73444 1.83884 0
M  V30 4967 H 461.77 3.97817 3.45035 0
M  V30 4968 H 464.261 3.10293 2.157 0
M  V30 4969 H 464.574 6.68155 3.88316 0
M  V30 4970 H 462.919 6.0054 3.49824 0
M  V30 4971 H 466.11 3.89103 2.60224 0
M  V30 4972 H 466.283 5.52279 3.38957 0
M  V30 4973 N 459.689 -1.00246 1.21608 0
M  V30 4974 C 460.937 -1.73717 1.0328 0
M  V30 4975 C 461.258 -1.90102 -0.434318 0
M  V30 4976 O 460.528 -1.45376 -1.31311 0
M  V30 4977 H 459.108 -0.643613 0.379172 0
M  V30 4978 H 461.77 -1.20787 1.52959 0
M  V30 4979 H 460.866 -2.73535 1.50283 0
M  V30 4980 N 461.167 -1.02423 -1.1978 0
M  V30 4981 C 462.117 -0.571689 -2.20716 0
M  V30 4982 C 463.101 0.377077 -1.56419 0
M  V30 4983 O 464.293 0.198801 -1.7588 0
M  V30 4984 C 461.422 0.0808555 -3.43205 0
M  V30 4985 C 460.508 -0.890073 -4.14655 0
M  V30 4986 N 460.899 -2.05065 -4.62366 0
M  V30 4987 C 459.197 -0.71252 -4.40272 0
M  V30 4988 C 459.898 -2.66264 -5.17183 0
M  V30 4989 N 458.874 -1.94264 -5.07703 0
M  V30 4990 H 462.676 -1.45636 -2.55279 0
M  V30 4991 H 460.19 -0.890596 -1.35802 0
M  V30 4992 H 462.187 0.422654 -4.14752 0
M  V30 4993 H 460.847 0.961274 -3.10144 0
M  V30 4994 H 461.858 -2.43026 -4.57339 0
M  V30 4995 H 458.535 0.119199 -4.1733 0
M  V30 4996 H 459.925 -3.64526 -5.64421 0
M  V30 4997 N 462.645 1.35699 -0.801477 0
M  V30 4998 C 463.892 1.98913 -0.379459 0
M  V30 4999 C 464.22 1.63592 1.05204 0
M  V30 5000 O 463.475 0.888563 1.74365 0
M  V30 5001 C 463.774 3.53828 -0.504041 0
M  V30 5002 C 463.44 4.09002 -1.8981 0
M  V30 5003 C 462.102 4.23783 -2.27951 0
M  V30 5004 C 464.454 4.38939 -2.81038 0
M  V30 5005 C 461.782 4.65816 -3.56696 0
M  V30 5006 C 464.134 4.82409 -4.09224 0
M  V30 5007 C 462.798 4.95395 -4.4737 0
M  V30 5008 H 462.068 0.727874 -0.138854 0
M  V30 5009 H 464.715 1.61994 -1.02128 0
M  V30 5010 H 463.02 3.91175 0.221242 0
M  V30 5011 H 464.717 4.00687 -0.158361 0
M  V30 5012 H 461.307 3.97946 -1.59176 0
M  V30 5013 H 465.491 4.27077 -2.52821 0
M  V30 5014 H 460.747 4.74059 -3.86106 0
M  V30 5015 H 464.921 5.04535 -4.80018 0
M  V30 5016 H 462.548 5.27724 -5.47185 0
M  V30 5017 N 464.123 0.554532 1.47522 0
M  V30 5018 C 465.071 -0.207765 2.3167 0
M  V30 5019 C 466.065 -0.911914 1.4276 0
M  V30 5020 O 467.271 -0.833504 1.59539 0
M  V30 5021 H 463.646 -0.0858726 0.747081 0
M  V30 5022 H 465.617 0.521178 2.93813 0
M  V30 5023 C 464.366 -1.2263 3.25357 0
M  V30 5024 H 463.689 -0.693887 3.93732 0
M  V30 5025 H 465.129 -1.73062 3.87073 0
M  V30 5026 C 463.588 -2.27278 2.4869 0
M  V30 5027 O 464.118 -3.34156 2.22941 0
M  V30 5028 N 462.324 -2.01134 2.09746 0
M  V30 5029 H 461.871 -1.14232 2.30887 0
M  V30 5030 H 461.829 -2.71369 1.58765 0
M  V30 5031 N 465.601 -1.54893 0.290851 0
M  V30 5032 C 466.549 -2.24579 -0.605576 0
M  V30 5033 C 467.543 -1.24824 -1.14522 0
M  V30 5034 O 468.749 -1.42706 -1.09704 0
M  V30 5035 H 465.124 -0.720946 -0.213872 0
M  V30 5036 H 467.095 -2.984 0.0048173 0
M  V30 5037 C 465.844 -2.99224 -1.77088 0
M  V30 5038 H 465.167 -3.75782 -1.36484 0
M  V30 5039 H 466.607 -3.51281 -2.3744 0
M  V30 5040 C 465.066 -2.05602 -2.66888 0
M  V30 5041 O 465.596 -1.61745 -3.67698 0
M  V30 5042 N 463.802 -1.71771 -2.34399 0
M  V30 5043 H 463.349 -2.07633 -1.52468 0
M  V30 5044 H 463.307 -1.09403 -2.94751 0
M  V30 5045 N 467.08 -0.0183926 -1.57589 0
M  V30 5046 C 468.326 0.663543 -1.91638 0
M  V30 5047 C 468.659 1.72392 -0.894134 0
M  V30 5048 O 467.934 1.94316 0.0846449 0
M  V30 5049 C 468.217 1.28984 -3.36207 0
M  V30 5050 C 468.07 0.239761 -4.49161 0
M  V30 5051 C 469.389 2.2109 -3.80536 0
M  V30 5052 H 466.508 0.239746 -0.696915 0
M  V30 5053 H 469.15 -0.073456 -1.89858 0
M  V30 5054 H 467.3 1.91799 -3.37854 0
M  V30 5055 H 468.972 -0.390119 -4.59647 0
M  V30 5056 H 467.215 -0.435972 -4.31604 0
M  V30 5057 H 467.886 0.717383 -5.47319 0
M  V30 5058 H 470.362 1.68273 -3.80557 0
M  V30 5059 H 469.238 2.61869 -4.82406 0
M  V30 5060 H 469.499 3.09764 -3.15434 0
M  V30 5061 N 468.558 1.5553 0.254621 0
M  V30 5062 C 469.783 1.81383 1.00573 0
M  V30 5063 C 470.208 0.594419 1.78461 0
M  V30 5064 O 469.566 -0.456403 1.75461 0
M  V30 5065 C 469.614 3.04892 1.92545 0
M  V30 5066 O 468.718 2.81266 3.01601 0
M  V30 5067 H 468.059 0.598969 0.286587 0
M  V30 5068 H 470.589 2.02703 0.277952 0
M  V30 5069 H 470.599 3.34119 2.34155 0
M  V30 5070 H 469.274 3.93287 1.3527 0
M  V30 5071 H 467.851 2.63185 2.64174 0
M  V30 5072 N 470.036 -0.519951 1.48776 0
M  V30 5073 C 471.261 -1.30447 1.6124 0
M  V30 5074 C 471.686 -1.86055 0.276591 0
M  V30 5075 O 471.044 -1.64915 -0.753183 0
M  V30 5076 C 471.092 -2.42406 2.66967 0
M  V30 5077 O 470.196 -3.45728 2.24824 0
M  V30 5078 H 469.537 -0.385924 0.540332 0
M  V30 5079 H 472.067 -0.624572 1.94834 0
M  V30 5080 H 472.077 -2.88447 2.88552 0
M  V30 5081 H 470.752 -2.01294 3.63941 0
M  V30 5082 H 469.329 -3.05737 2.13494 0
M  V30 5083 N 471.514 -1.37532 -0.769588 0
M  V30 5084 C 472.444 -1.36172 -1.89682 0
M  V30 5085 C 473.425 -0.23001 -1.68538 0
M  V30 5086 O 474.61 -0.43069 -1.89364 0
M  V30 5087 C 471.74 -1.1701 -3.26995 0
M  V30 5088 C 470.694 -2.27216 -3.62708 0
M  V30 5089 C 470.02 -1.93174 -4.98586 0
M  V30 5090 C 471.32 -3.6941 -3.69234 0
M  V30 5091 H 473.014 -2.30499 -1.91078 0
M  V30 5092 H 470.56 -1.10953 -0.917902 0
M  V30 5093 H 472.513 -1.14688 -4.05493 0
M  V30 5094 H 471.237 -0.191395 -3.26039 0
M  V30 5095 H 469.896 -2.28697 -2.86519 0
M  V30 5096 H 469.544 -0.938281 -4.94171 0
M  V30 5097 H 469.244 -2.66973 -5.23449 0
M  V30 5098 H 470.768 -1.92443 -5.79481 0
M  V30 5099 H 472.182 -3.70047 -4.37879 0
M  V30 5100 H 470.579 -4.4228 -4.05597 0
M  V30 5101 H 471.649 -4.0288 -2.69844 0
M  V30 5102 N 472.992 0.995999 -1.22138 0
M  V30 5103 C 474.238 1.73767 -1.04561 0
M  V30 5104 C 474.571 1.89633 0.418698 0
M  V30 5105 O 473.846 1.43723 1.3105 0
M  V30 5106 C 474.129 3.14505 -1.75382 0
M  V30 5107 C 473.982 3.06306 -3.29388 0
M  V30 5108 C 475.301 4.13615 -1.50369 0
M  V30 5109 H 472.42 0.630728 -0.38125 0
M  V30 5110 H 475.062 1.16057 -1.50435 0
M  V30 5111 H 473.212 3.63775 -1.36383 0
M  V30 5112 H 474.884 2.64681 -3.77812 0
M  V30 5113 H 473.127 2.43186 -3.59226 0
M  V30 5114 H 473.798 4.05884 -3.74116 0
M  V30 5115 H 476.274 3.73089 -1.84239 0
M  V30 5116 H 475.15 5.10212 -2.02421 0
M  V30 5117 H 475.411 4.39949 -0.435611 0
M  V30 5118 N 474.47 1.03057 1.19235 0
M  V30 5119 C 475.717 0.728019 1.88961 0
M  V30 5120 C 476.045 -0.743515 1.79728 0
M  V30 5121 O 475.3 -1.55729 1.1852 0
M  V30 5122 C 475.599 1.1268 3.39172 0
M  V30 5123 C 475.265 2.5969 3.68608 0
M  V30 5124 C 473.927 2.99854 3.76352 0
M  V30 5125 C 476.279 3.54793 3.81801 0
M  V30 5126 C 473.607 4.34031 3.94758 0
M  V30 5127 C 475.959 4.88675 4.0172 0
M  V30 5128 C 474.623 5.28526 4.07697 0
M  V30 5129 H 473.893 0.266401 0.691456 0
M  V30 5130 H 476.54 1.29373 1.41191 0
M  V30 5131 H 474.845 0.479722 3.88852 0
M  V30 5132 H 476.542 0.870203 3.91444 0
M  V30 5133 H 473.132 2.27575 3.63191 0
M  V30 5134 H 477.316 3.24914 3.7516 0
M  V30 5135 H 472.572 4.6444 3.97625 0
M  V30 5136 H 476.746 5.6228 4.1087 0
M  V30 5137 H 474.373 6.32506 4.21712 0
M  V30 5138 N 475.948 -1.35272 0.808662 0
M  V30 5139 C 476.898 -2.27181 0.193124 0
M  V30 5140 C 477.882 -1.47871 -0.634265 0
M  V30 5141 O 479.074 -1.70048 -0.491182 0
M  V30 5142 C 476.203 -3.36979 -0.655751 0
M  V30 5143 C 475.289 -4.23712 0.181481 0
M  V30 5144 N 475.68 -4.90225 1.24551 0
M  V30 5145 C 473.978 -4.45985 -0.0365493 0
M  V30 5146 C 474.679 -5.54537 1.75682 0
M  V30 5147 N 473.655 -5.33107 1.06294 0
M  V30 5148 H 477.457 -2.76101 1.00724 0
M  V30 5149 H 474.971 -1.48823 0.650029 0
M  V30 5150 H 476.968 -4.01774 -1.11279 0
M  V30 5151 H 475.628 -2.89611 -1.46819 0
M  V30 5152 H 476.639 -4.91641 1.62818 0
M  V30 5153 H 473.316 -4.09409 -0.817964 0
M  V30 5154 H 474.706 -6.17597 2.64621 0
M  V30 5155 N 477.426 -0.562348 -1.47226 0
M  V30 5156 C 478.842 -0.222492 -1.58042 0
M  V30 5157 C 479.042 1.27505 -1.56028 0
M  V30 5158 O 478.098 2.05555 -1.46641 0
M  V30 5159 C 479.411 -0.853694 -2.88327 0
M  V30 5160 C 480.959 -0.825397 -3.01921 0
M  V30 5161 C 481.434 -1.43576 -4.34914 0
M  V30 5162 N 482.925 -1.39918 -4.41562 0
M  V30 5163 C 483.66 -1.84103 -5.43041 0
M  V30 5164 N 483.156 -2.36167 -6.51304 0
M  V30 5165 N 484.949 -1.75142 -5.34118 0
M  V30 5166 H 477.1 -1.53525 -1.46778 0
M  V30 5167 H 479.363 -0.640527 -0.698877 0
M  V30 5168 H 479.069 -1.90635 -2.95552 0
M  V30 5169 H 478.943 -0.34977 -3.75575 0
M  V30 5170 H 481.33 0.218583 -2.94289 0
M  V30 5171 H 481.411 -1.36713 -2.16202 0
M  V30 5172 H 481.055 -2.47884 -4.43301 0
M  V30 5173 H 480.985 -0.869427 -5.19373 0
M  V30 5174 H 483.476 -1.0184 -3.63919 0
M  V30 5175 H 483.789 -2.67793 -7.24919 0
M  V30 5176 H 482.134 -2.40181 -6.52179 0
M  V30 5177 H 485.325 -1.34241 -4.48439 0
M  V30 5178 H 485.498 -2.09895 -6.13065 0
M  V30 5179 N 478.904 1.54736 -0.299062 0
M  V30 5180 C 480.132 2.04512 0.313447 0
M  V30 5181 C 480.547 1.17643 1.47667 0
M  V30 5182 O 479.904 0.20164 1.81383 0
M  V30 5183 C 479.955 3.53171 0.771542 0
M  V30 5184 O 479.676 4.36736 -0.345379 0
M  V30 5185 C 481.177 4.18936 1.4494 0
M  V30 5186 H 478.397 0.667507 0.0683784 0
M  V30 5187 H 480.941 1.99752 -0.438129 0
M  V30 5188 H 479.096 3.58298 1.47314 0
M  V30 5189 H 479.51 5.24499 0.0109219 0
M  V30 5190 H 480.984 5.24482 1.72111 0
M  V30 5191 H 481.461 3.68554 2.38883 0
M  V30 5192 H 482.067 4.17879 0.791028 0
M  V30 5193 N 480.382 0.0267497 1.57577 0
M  V30 5194 C 481.33 -0.973923 2.11229 0
M  V30 5195 C 482.324 -1.33849 1.03831 0
M  V30 5196 O 483.53 -1.321 1.22269 0
M  V30 5197 H 479.905 -0.331844 0.674821 0
M  V30 5198 H 481.876 -0.496092 2.94247 0
M  V30 5199 C 480.625 -2.24798 2.65257 0
M  V30 5200 H 479.948 -1.9762 3.47543 0
M  V30 5201 H 481.388 -2.93031 3.06445 0
M  V30 5202 C 479.847 -2.97611 1.57891 0
M  V30 5203 O 480.377 -3.89629 0.97735 0
M  V30 5204 N 478.583 -2.59905 1.29992 0
M  V30 5205 H 478.13 -1.85154 1.79097 0
M  V30 5206 H 478.088 -3.08932 0.583798 0
M  V30 5207 N 481.861 -1.55662 -0.24637 0
M  V30 5208 C 483.138 -1.68272 -0.997198 0
M  V30 5209 C 483.518 -0.566785 -2.03349 0
M  V30 5210 O 482.866 0.429688 -2.24424 0
M  V30 5211 C 483.076 -3.08594 -1.63006 0
M  V30 5212 C 484.424 -3.6721 -2.13171 0
M  V30 5213 O 485.448 -3.11397 -1.72946 0
M  V30 5214 O 484.307 -4.65054 -2.87031 0
M  V30 5215 H 481.401 -0.684429 -0.464205 0
M  V30 5216 H 483.947 -1.67993 -0.240114 0
M  V30 5217 H 482.719 -3.81264 -0.880527 0
M  V30 5218 H 482.342 -3.12886 -2.45333 0
M  V30 5219 N 483.339 0.512053 -1.4905 0
M  V30 5220 C 484.616 1.27337 -1.48474 0
M  V30 5221 C 484.996 2.1009 -0.206301 0
M  V30 5222 O 484.344 2.136 0.811609 0
M  V30 5223 C 484.554 2.13954 -2.75726 0
M  V30 5224 C 485.902 2.73507 -3.24776 0
M  V30 5225 O 486.926 2.24229 -2.76767 0
M  V30 5226 O 485.785 3.63186 -4.08361 0
M  V30 5227 H 482.879 0.575652 -0.593762 0
M  V30 5228 H 485.425 0.527232 -1.61302 0
M  V30 5229 H 484.197 1.52709 -3.60272 0
M  V30 5230 H 483.82 2.95782 -2.65705 0
M  V30 5231 N 484.817 1.37938 0.762283 0
M  V30 5232 C 485.747 1.37176 1.88958 0
M  V30 5233 C 486.728 0.238945 1.68413 0
M  V30 5234 O 487.913 0.440726 1.89133 0
M  V30 5235 C 485.043 1.18742 3.2637 0
M  V30 5236 C 483.997 2.29136 3.61498 0
M  V30 5237 C 483.323 1.95816 4.97554 0
M  V30 5238 C 484.623 3.71363 3.6727 0
M  V30 5239 H 486.317 2.31509 1.89853 0
M  V30 5240 H 483.863 1.11438 0.912005 0
M  V30 5241 H 485.816 1.16837 4.04879 0
M  V30 5242 H 484.54 0.208683 3.25933 0
M  V30 5243 H 483.199 2.30213 2.85303 0
M  V30 5244 H 482.847 0.964475 4.93667 0
M  V30 5245 H 482.547 2.69745 5.22026 0
M  V30 5246 H 484.071 1.95513 5.78452 0
M  V30 5247 H 485.485 3.72364 4.35911 0
M  V30 5248 H 483.882 4.44425 4.03245 0
M  V30 5249 H 484.952 4.04305 2.67704 0
M  V30 5250 N 486.295 -0.989507 1.22664 0
M  V30 5251 C 487.225 -2.09847 1.02404 0
M  V30 5252 C 488.206 -1.70007 -0.0561303 0
M  V30 5253 O 489.391 -1.93906 0.106748 0
M  V30 5254 C 486.521 -3.41996 0.604663 0
M  V30 5255 C 485.475 -3.95699 1.63115 0
M  V30 5256 C 484.801 -5.23936 1.0675 0
M  V30 5257 C 486.101 -4.25999 3.02196 0
M  V30 5258 H 487.795 -2.27054 1.95158 0
M  V30 5259 H 485.341 -1.09111 0.939727 0
M  V30 5260 H 487.294 -4.1899 0.45002 0
M  V30 5261 H 486.018 -3.24626 -0.35855 0
M  V30 5262 H 484.677 -3.2084 1.77362 0
M  V30 5263 H 484.325 -5.02909 0.0955422 0
M  V30 5264 H 484.025 -5.60833 1.75328 0
M  V30 5265 H 485.549 -6.0356 0.924516 0
M  V30 5266 H 486.963 -4.93777 2.91303 0
M  V30 5267 H 485.36 -4.74076 3.67929 0
M  V30 5268 H 486.43 -3.33636 3.51873 0
M  V30 5269 N 487.773 -1.03688 -1.18687 0
M  V30 5270 C 488.703 -0.645407 -2.24403 0
M  V30 5271 C 489.684 0.349511 -1.66471 0
M  V30 5272 O 490.869 0.230453 -1.92828 0
M  V30 5273 C 487.999 -0.00365337 -3.473 0
M  V30 5274 C 486.953 -0.921705 -4.17958 0
M  V30 5275 C 486.279 -0.144629 -5.34504 0
M  V30 5276 C 487.579 -2.23909 -4.71871 0
M  V30 5277 H 489.273 -1.52917 -2.57404 0
M  V30 5278 H 486.819 -0.736711 -1.23728 0
M  V30 5279 H 488.772 0.281908 -4.20456 0
M  V30 5280 H 487.496 0.914963 -3.13522 0
M  V30 5281 H 486.155 -1.19159 -3.46694 0
M  V30 5282 H 485.803 0.776274 -4.96974 0
M  V30 5283 H 485.503 -0.756206 -5.82714 0
M  V30 5284 H 487.027 0.134004 -6.10453 0
M  V30 5285 H 488.441 -2.0145 -5.36741 0
M  V30 5286 H 486.838 -2.8033 -5.30599 0
M  V30 5287 H 487.908 -2.88822 -3.895 0
M  V30 5288 N 489.251 1.34841 -0.815825 0
M  V30 5289 C 490.476 2.03261 -0.41226 0
M  V30 5290 C 490.901 1.61055 0.971751 0
M  V30 5291 O 490.259 0.7917 1.63101 0
M  V30 5292 C 490.307 3.56914 -0.514289 0
M  V30 5293 O 489.411 4.09728 0.468675 0
M  V30 5294 H 488.752 0.641664 -0.170771 0
M  V30 5295 H 491.282 1.72241 -1.10427 0
M  V30 5296 H 491.292 4.06156 -0.387457 0
M  V30 5297 H 489.967 3.86982 -1.52375 0
M  V30 5298 H 488.544 3.71681 0.301316 0
M  V30 5299 N 490.729 0.570148 1.46925 0
M  V30 5300 C 491.677 -0.183181 2.31878 0
M  V30 5301 C 492.671 -0.896721 1.43719 0
M  V30 5302 O 493.877 -0.816536 1.60414 0
M  V30 5303 H 490.252 -0.077944 0.74795 0
M  V30 5304 H 492.223 0.552312 2.93244 0
M  V30 5305 C 490.972 -1.19172 3.2664 0
M  V30 5306 H 490.295 -0.652088 3.94446 0
M  V30 5307 H 491.735 -1.68946 3.88887 0
M  V30 5308 C 490.194 -2.24627 2.51086 0
M  V30 5309 O 490.724 -3.31773 2.26472 0
M  V30 5310 N 488.93 -1.98898 2.11867 0
M  V30 5311 H 488.477 -1.11777 2.32086 0
M  V30 5312 H 488.435 -2.6967 1.61634 0
M  V30 5313 N 492.207 -1.54576 0.307264 0
M  V30 5314 C 493.432 -2.05139 -0.305379 0
M  V30 5315 C 493.857 -1.18278 -1.46259 0
M  V30 5316 O 493.215 -0.188243 -1.8032 0
M  V30 5317 C 493.263 -3.53066 -0.733283 0
M  V30 5318 O 492.367 -3.69206 -1.83741 0
M  V30 5319 H 491.708 -0.661444 -0.0582105 0
M  V30 5320 H 494.238 -1.99569 0.450931 0
M  V30 5321 H 494.248 -3.95034 -1.02039 0
M  V30 5322 H 492.923 -4.15746 0.113198 0
M  V30 5323 H 491.5 -3.39143 -1.55037 0
M  V30 5324 N 493.685 -0.035106 -1.57561 0
M  V30 5325 C 494.595 0.960295 -2.14046 0
M  V30 5326 C 495.611 1.3529 -1.0942 0
M  V30 5327 O 496.787 1.43309 -1.41508 0
M  V30 5328 C 493.852 2.22214 -2.66124 0
M  V30 5329 C 492.913 1.8894 -3.85487 0
M  V30 5330 C 492.146 3.09109 -4.35072 0
M  V30 5331 O 492.369 4.21963 -3.83802 0
M  V30 5332 O 491.303 2.91058 -5.26848 0
M  V30 5333 H 495.129 0.509983 -2.99387 0
M  V30 5334 H 492.714 0.185853 -1.48239 0
M  V30 5335 H 494.596 2.96279 -2.99661 0
M  V30 5336 H 493.271 2.66414 -1.83862 0
M  V30 5337 H 492.178 1.12241 -3.56865 0
M  V30 5338 H 493.511 1.49551 -4.6893 0
M  V30 5339 N 495.163 1.55791 0.238111 0
M  V30 5340 C 496.44 1.68798 0.98826 0
M  V30 5341 C 496.82 0.577562 2.03045 0
M  V30 5342 O 496.168 -0.41778 2.24648 0
M  V30 5343 C 496.378 3.09454 1.61367 0
M  V30 5344 C 497.726 3.68335 2.11221 0
M  V30 5345 O 498.75 3.1231 1.71292 0
M  V30 5346 O 497.609 4.6657 2.84561 0
M  V30 5347 H 494.703 0.686881 0.460568 0
M  V30 5348 H 497.249 1.68118 0.231202 0
M  V30 5349 H 496.021 3.81726 0.860295 0
M  V30 5350 H 495.644 3.14182 2.4367 0
M  V30 5351 N 496.642 -0.504142 1.49319 0
M  V30 5352 C 497.592 -1.60284 1.62151 0
M  V30 5353 C 498.576 -1.53657 0.477315 0
M  V30 5354 O 499.768 -1.6124 0.730108 0
M  V30 5355 C 496.897 -2.98909 1.68844 0
M  V30 5356 C 495.983 -3.10544 2.8883 0
M  V30 5357 N 496.374 -2.92078 4.12946 0
M  V30 5358 C 494.672 -3.4164 2.86702 0
M  V30 5359 C 495.373 -3.07812 4.93585 0
M  V30 5360 N 494.349 -3.36549 4.26891 0
M  V30 5361 H 498.151 -1.44656 2.55835 0
M  V30 5362 H 495.665 -0.710198 1.46048 0
M  V30 5363 H 497.662 -3.77865 1.76134 0
M  V30 5364 H 496.322 -3.15609 0.762943 0
M  V30 5365 H 497.333 -2.68316 4.42975 0
M  V30 5366 H 494.01 -3.64537 2.03517 0
M  V30 5367 H 495.4 -2.98054 6.02174 0
M  V30 5368 N 498.12 -1.38341 -0.754957 0
M  V30 5369 C 499.348 -1.37704 -1.54419 0
M  V30 5370 C 499.763 0.0335243 -1.8877 0
M  V30 5371 O 499.12 0.999773 -1.52679 0
M  V30 5372 C 499.171 -2.23136 -2.84416 0
M  V30 5373 O 498.892 -3.58697 -2.51531 0
M  V30 5374 C 500.393 -2.30664 -3.78562 0
M  V30 5375 H 497.613 -0.471061 -0.477852 0
M  V30 5376 H 500.157 -1.81902 -0.934446 0
M  V30 5377 H 498.312 -1.82403 -3.41772 0
M  V30 5378 H 498.726 -4.03665 -3.34896 0
M  V30 5379 H 500.2 -2.9473 -4.66732 0
M  V30 5380 H 500.677 -1.3199 -4.18898 0
M  V30 5381 H 501.283 -2.71781 -3.27131 0
M  V30 5382 N 499.598 0.982988 -1.23187 0
M  V30 5383 C 500.847 1.71817 -1.05649 0
M  V30 5384 C 501.16 1.91315 0.407176 0
M  V30 5385 O 502.366 2.62256 0.702436 0
M  V30 5386 C 500.822 3.09188 -1.84203 0
M  V30 5387 C 500.43 2.97586 -3.34882 0
M  V30 5388 C 502.174 3.86684 -1.75146 0
M  V30 5389 C 500.081 4.30173 -4.05839 0
M  V30 5390 H 499.011 0.644258 -0.391724 0
M  V30 5391 H 501.662 1.09659 -1.4713 0
M  V30 5392 H 500.044 3.72087 -1.35527 0
M  V30 5393 H 501.218 2.43793 -3.91026 0
M  V30 5394 H 499.533 2.33567 -3.44725 0
M  V30 5395 H 502.13 4.84836 -2.25473 0
M  V30 5396 H 502.473 4.10136 -0.713737 0
M  V30 5397 H 503.006 3.30482 -2.21419 0
M  V30 5398 H 499.745 4.11918 -5.09906 0
M  V30 5399 H 499.265 4.83841 -3.54482 0
M  V30 5400 H 500.944 4.98873 -4.11989 0
M  V30 5401 N 501.076 1.04316 1.18135 0
M  V30 5402 C 502.492 0.762858 1.40188 0
M  V30 5403 C 502.692 -0.646547 1.90846 0
M  V30 5404 O 501.748 -1.41036 2.0944 0
M  V30 5405 C 503.061 1.81106 2.40044 0
M  V30 5406 C 504.609 1.83226 2.53766 0
M  V30 5407 C 505.084 2.87044 3.56889 0
M  V30 5408 N 506.575 2.85951 3.64398 0
M  V30 5409 C 507.31 3.62932 4.43923 0
M  V30 5410 N 506.806 4.49672 5.27036 0
M  V30 5411 N 508.599 3.51411 4.38711 0
M  V30 5412 H 500.75 1.95264 0.835805 0
M  V30 5413 H 503.013 0.845017 0.429709 0
M  V30 5414 H 502.719 2.82214 2.09876 0
M  V30 5415 H 502.593 1.64529 3.39426 0
M  V30 5416 H 504.98 0.827869 2.8325 0
M  V30 5417 H 505.061 2.03879 1.54489 0
M  V30 5418 H 504.705 3.87663 3.28145 0
M  V30 5419 H 504.635 2.63645 4.5585 0
M  V30 5420 H 507.126 2.23051 3.05052 0
M  V30 5421 H 507.439 5.05116 5.84874 0
M  V30 5422 H 505.784 4.53738 5.26447 0
M  V30 5423 H 508.975 2.83047 3.72829 0
M  V30 5424 H 509.148 4.11654 5.00445 0
M  V30 5425 N 502.554 -1.34406 0.822964 0
M  V30 5426 C 503.803 -1.97542 0.407458 0
M  V30 5427 C 504.116 -1.65973 -1.035 0
M  V30 5428 O 505.322 -2.22598 -1.55442 0
M  V30 5429 C 503.778 -3.53463 0.677623 0
M  V30 5430 C 503.386 -3.93925 2.1337 0
M  V30 5431 C 505.13 -4.23229 0.328284 0
M  V30 5432 C 503.037 -5.42759 2.34876 0
M  V30 5433 H 501.967 -0.739207 0.148623 0
M  V30 5434 H 504.618 -1.53248 1.00932 0
M  V30 5435 H 503 -3.96 0.00558965 0
M  V30 5436 H 504.174 -3.62494 2.8449 0
M  V30 5437 H 502.489 -3.37097 2.44448 0
M  V30 5438 H 505.086 -5.32659 0.466794 0
M  V30 5439 H 505.429 -4.09899 -0.727224 0
M  V30 5440 H 505.962 -3.86169 0.954896 0
M  V30 5441 H 502.701 -5.61075 3.38932 0
M  V30 5442 H 502.221 -5.75704 1.68299 0
M  V30 5443 H 503.9 -6.0944 2.17236 0
M  V30 5444 N 504.032 -0.577932 -1.46621 0
M  V30 5445 C 505.278 -0.0700937 -2.03279 0
M  V30 5446 C 505.633 1.27376 -1.44198 0
M  V30 5447 O 504.926 1.82097 -0.595911 0
M  V30 5448 C 505.12 0.0590832 -3.57351 0
M  V30 5449 C 504.949 -1.2707 -4.31374 0
M  V30 5450 C 503.719 -1.84357 -4.70469 0
M  V30 5451 C 505.917 -2.19278 -4.65211 0
M  V30 5452 N 503.899 -3.11124 -5.29221 0
M  V30 5453 C 505.27 -3.30631 -5.24484 0
M  V30 5454 C 507.325 -2.19018 -4.47142 0
M  V30 5455 C 506.028 -4.41849 -5.67593 0
M  V30 5456 C 508.054 -3.29262 -4.91264 0
M  V30 5457 C 507.416 -4.39335 -5.50604 0
M  V30 5458 H 503.515 -0.0683127 -0.779011 0
M  V30 5459 H 506.099 -0.76978 -1.78836 0
M  V30 5460 H 504.27 0.727929 -3.81518 0
M  V30 5461 H 506.002 0.57087 -4.00653 0
M  V30 5462 H 502.757 -1.37906 -4.53077 0
M  V30 5463 H 503.181 -3.75794 -5.63123 0
M  V30 5464 H 507.823 -1.35191 -4.00604 0
M  V30 5465 H 505.541 -5.26421 -6.13112 0
M  V30 5466 H 509.127 -3.30172 -4.79038 0
M  V30 5467 H 508.007 -5.23233 -5.84121 0
M  V30 5468 N 505.51 1.54411 -0.315457 0
M  V30 5469 C 506.787 1.92562 0.343398 0
M  V30 5470 C 507.167 1.24423 1.70535 0
M  V30 5471 O 506.515 0.385051 2.25232 0
M  V30 5472 C 506.725 3.46168 0.443687 0
M  V30 5473 C 508.073 4.18659 0.707783 0
M  V30 5474 O 509.097 3.52281 0.52693 0
M  V30 5475 O 507.956 5.36198 1.05612 0
M  V30 5476 H 505.05 0.80379 0.194552 0
M  V30 5477 H 507.596 1.65738 -0.364577 0
M  V30 5478 H 506.368 3.8792 -0.513172 0
M  V30 5479 H 505.991 3.79073 1.19956 0
M  V30 5480 N 506.988 0.0434614 1.5754 0
M  V30 5481 C 508.237 -0.631454 1.91561 0
M  V30 5482 C 508.55 -1.72457 0.92292 0
M  V30 5483 O 509.756 -2.45712 1.15489 0
M  V30 5484 C 508.212 -1.17447 3.40197 0
M  V30 5485 C 507.82 -0.113867 4.47855 0
M  V30 5486 C 509.564 -1.82507 3.83264 0
M  V30 5487 C 507.471 -0.669326 5.876 0
M  V30 5488 H 506.401 -0.239629 0.714908 0
M  V30 5489 H 509.052 0.111097 1.83163 0
M  V30 5490 H 507.434 -1.96909 3.43574 0
M  V30 5491 H 508.608 0.659348 4.56058 0
M  V30 5492 H 506.923 0.438821 4.14081 0
M  V30 5493 H 509.52 -2.25047 4.85034 0
M  V30 5494 H 509.863 -2.67365 3.19095 0
M  V30 5495 H 510.396 -1.09712 3.82372 0
M  V30 5496 H 507.135 0.141449 6.55347 0
M  V30 5497 H 506.655 -1.4107 5.82974 0
M  V30 5498 H 508.334 -1.15463 6.36614 0
M  V30 5499 N 508.466 -1.55915 -0.229846 0
M  V30 5500 C 509.414 -1.9258 -1.30444 0
M  V30 5501 C 510.408 -0.806839 -1.48951 0
M  V30 5502 O 511.614 -0.991606 -1.50224 0
M  V30 5503 H 507.989 -0.611878 -0.437161 0
M  V30 5504 H 509.96 -2.82264 -0.96797 0
M  V30 5505 C 508.709 -2.25171 -2.6494 0
M  V30 5506 H 508.032 -3.10782 -2.51504 0
M  V30 5507 H 509.472 -2.54716 -3.38963 0
M  V30 5508 C 507.931 -1.07394 -3.19324 0
M  V30 5509 O 508.461 -0.330759 -4.00336 0
M  V30 5510 N 506.667 -0.859984 -2.77584 0
M  V30 5511 H 506.214 -1.46605 -2.11813 0
M  V30 5512 H 506.172 -0.0736671 -3.14314 0
M  V30 5513 N 509.944 0.496216 -1.49584 0
M  V30 5514 C 510.891 1.59722 -1.66606 0
M  V30 5515 C 511.861 1.58158 -0.507477 0
M  V30 5516 O 513.046 1.76072 -0.735076 0
M  V30 5517 C 510.186 2.97844 -1.74308 0
M  V30 5518 C 509.299 3.09388 -3.01502 0
M  V30 5519 C 508.434 4.38271 -3.00153 0
M  V30 5520 C 507.473 4.43466 -4.21906 0
M  V30 5521 N 506.61 5.63784 -4.1844 0
M  V30 5522 H 511.45 1.44515 -2.60613 0
M  V30 5523 H 508.987 0.703048 -1.29212 0
M  V30 5524 H 510.945 3.77907 -1.76754 0
M  V30 5525 H 509.575 3.11743 -0.837619 0
M  V30 5526 H 508.627 2.22357 -3.08645 0
M  V30 5527 H 509.939 3.09085 -3.91494 0
M  V30 5528 H 509.093 5.2666 -3.01188 0
M  V30 5529 H 507.832 4.41146 -2.07947 0
M  V30 5530 H 506.837 3.53478 -4.21109 0
M  V30 5531 H 508.062 4.42303 -5.1531 0
M  V30 5532 H 506.008 5.67491 -3.29074 0
M  V30 5533 H 505.925 5.65118 -5.02173 0
M  V30 5534 H 507.193 6.54367 -4.23585 0
M  V30 5535 N 511.423 1.38739 0.74761 0
M  V30 5536 C 512.839 1.20067 1.05148 0
M  V30 5537 C 513.039 0.0534835 2.01429 0
M  V30 5538 O 512.095 -0.59886 2.45296 0
M  V30 5539 C 513.408 2.52957 1.62584 0
M  V30 5540 C 514.956 2.59692 1.74726 0
M  V30 5541 C 515.431 3.92772 2.35573 0
M  V30 5542 N 516.922 3.94343 2.42997 0
M  V30 5543 C 517.657 4.9408 2.90985 0
M  V30 5544 N 517.153 6.04214 3.38965 0
M  V30 5545 N 518.946 4.81466 2.9008 0
M  V30 5546 H 511.097 2.12121 0.108808 0
M  V30 5547 H 513.36 0.941491 0.110899 0
M  V30 5548 H 513.066 3.37389 0.993051 0
M  V30 5549 H 512.94 2.71779 2.61565 0
M  V30 5550 H 515.327 1.75651 2.3713 0
M  V30 5551 H 515.408 2.44731 0.744326 0
M  V30 5552 H 515.052 4.77238 1.738 0
M  V30 5553 H 514.982 4.05046 3.36519 0
M  V30 5554 H 517.473 3.14799 2.0907 0
M  V30 5555 H 517.786 6.76241 3.74056 0
M  V30 5556 H 516.131 6.07825 3.37007 0
M  V30 5557 H 519.322 3.94535 2.51912 0
M  V30 5558 H 519.495 5.59344 3.27166 0
M  V30 5559 N 512.901 -0.976442 1.23707 0
M  V30 5560 C 514.126 -1.75875 1.09922 0
M  V30 5561 C 514.551 -1.84911 -0.34489 0
M  V30 5562 O 513.909 -1.31363 -1.24954 0
M  V30 5563 C 513.957 -3.16179 1.73388 0
M  V30 5564 O 513.061 -4.00124 0.99871 0
M  V30 5565 H 512.402 -0.540954 0.385052 0
M  V30 5566 H 514.932 -1.22546 1.6384 0
M  V30 5567 H 514.942 -3.66741 1.78788 0
M  V30 5568 H 513.617 -3.08917 2.78466 0
M  V30 5569 H 512.194 -3.58624 1.02193 0
M  V30 5570 N 514.379 -1.04941 -1.1758 0
M  V30 5571 C 515.619 -0.766996 -1.89464 0
M  V30 5572 C 515.983 0.693123 -1.79053 0
M  V30 5573 O 517.184 1.08953 -2.45729 0
M  V30 5574 C 515.455 -1.23108 -3.35528 0
M  V30 5575 S 517.014 -1.07565 -4.25412 0
M  V30 5576 H 513.832 -0.278616 -0.654136 0
M  V30 5577 H 516.434 -1.34352 -1.4202 0
M  V30 5578 H 515.138 -2.28896 -3.40639 0
M  V30 5579 H 514.669 -0.648724 -3.88014 0
M  V30 5580 H 516.684 0.00169467 -4.962 0
M  V30 5581 N 515.857 1.33968 -0.830081 0
M  V30 5582 C 517.106 1.97323 -0.417928 0
M  V30 5583 C 517.419 1.6652 1.02618 0
M  V30 5584 O 518.625 2.2342 1.54259 0
M  V30 5585 C 517.081 3.53099 -0.696359 0
M  V30 5586 C 516.689 3.92788 -2.15457 0
M  V30 5587 C 518.433 4.23049 -0.350724 0
M  V30 5588 C 516.34 5.41506 -2.37751 0
M  V30 5589 H 515.27 0.738409 -0.152541 0
M  V30 5590 H 517.921 1.52711 -1.01744 0
M  V30 5591 H 516.303 3.95991 -0.0265904 0
M  V30 5592 H 517.477 3.6098 -2.86408 0
M  V30 5593 H 515.792 3.35795 -2.46232 0
M  V30 5594 H 518.389 5.32403 -0.495036 0
M  V30 5595 H 518.732 4.10279 0.705476 0
M  V30 5596 H 519.265 3.85657 -0.975362 0
M  V30 5597 H 516.004 5.5927 -3.41903 0
M  V30 5598 H 515.524 5.74804 -1.7135 0
M  V30 5599 H 517.203 6.0828 -2.20465 0
M  V30 5600 N 517.335 0.585699 1.46312 0
M  V30 5601 C 518.285 -0.166813 2.27389 0
M  V30 5602 C 519.269 -0.859076 1.36047 0
M  V30 5603 O 520.461 -0.752678 1.60199 0
M  V30 5604 C 517.59 -1.17791 3.2246 0
M  V30 5605 C 516.676 -0.487605 4.21288 0
M  V30 5606 N 517.067 0.45849 5.03718 0
M  V30 5607 C 515.365 -0.737971 4.39852 0
M  V30 5608 C 516.066 0.862213 5.75275 0
M  V30 5609 N 515.042 0.210707 5.43191 0
M  V30 5610 H 518.844 0.560167 2.88512 0
M  V30 5611 H 516.358 0.407715 1.57199 0
M  V30 5612 H 518.355 -1.73122 3.79255 0
M  V30 5613 H 517.015 -1.90568 2.62896 0
M  V30 5614 H 518.026 0.834163 5.11138 0
M  V30 5615 H 514.703 -1.45209 3.91434 0
M  V30 5616 H 516.093 1.64128 6.51546 0
M  V30 5617 N 518.813 -1.54241 0.323641 0
M  V30 5618 C 520.041 -2.04985 -0.280871 0
M  V30 5619 C 520.456 -1.19978 -1.45777 0
M  V30 5620 O 519.813 -0.230471 -1.81039 0
M  V30 5621 C 519.864 -3.54353 -0.715258 0
M  V30 5622 O 519.585 -4.36132 0.414817 0
M  V30 5623 C 521.086 -4.21189 -1.38257 0
M  V30 5624 H 518.306 -0.66851 -0.0577502 0
M  V30 5625 H 520.85 -1.99029 0.469852 0
M  V30 5626 H 519.005 -3.60596 -1.41596 0
M  V30 5627 H 519.419 -5.2445 0.0725227 0
M  V30 5628 H 520.893 -5.27154 -1.63745 0
M  V30 5629 H 521.37 -3.72307 -2.32989 0
M  V30 5630 H 521.976 -4.19085 -0.724447 0
M  V30 5631 N 520.291 -0.0518155 -1.57515 0
M  V30 5632 C 521.538 0.621823 -1.92716 0
M  V30 5633 C 521.866 1.70813 -0.930229 0
M  V30 5634 O 521.121 1.95616 0.0573708 0
M  V30 5635 C 521.42 1.25607 -3.34601 0
M  V30 5636 C 521.086 0.297901 -4.49915 0
M  V30 5637 C 519.748 0.034243 -4.81188 0
M  V30 5638 C 522.1 -0.358738 -5.19964 0
M  V30 5639 C 519.428 -0.893479 -5.79857 0
M  V30 5640 C 521.78 -1.27466 -6.19625 0
M  V30 5641 C 520.444 -1.54698 -6.49326 0
M  V30 5642 H 519.714 0.227541 -0.705199 0
M  V30 5643 H 522.361 -0.118432 -1.91133 0
M  V30 5644 H 520.666 2.07161 -3.32553 0
M  V30 5645 H 522.363 1.78424 -3.59118 0
M  V30 5646 H 518.953 0.513581 -4.25512 0
M  V30 5647 H 523.137 -0.168133 -4.96015 0
M  V30 5648 H 518.393 -1.11193 -6.01204 0
M  V30 5649 H 522.567 -1.78953 -6.73015 0
M  V30 5650 H 520.194 -2.26748 -7.25596 0
M  V30 5651 N 521.769 1.56035 0.221574 0
M  V30 5652 C 523.185 1.49026 0.571271 0
M  V30 5653 C 523.385 0.746912 1.87146 0
M  V30 5654 O 522.441 0.286566 2.50869 0
M  V30 5655 C 523.754 2.93579 0.650522 0
M  V30 5656 C 525.302 3.04099 0.741151 0
M  V30 5657 C 525.777 4.5001 0.851747 0
M  V30 5658 N 527.268 4.54053 0.915968 0
M  V30 5659 C 528.003 5.64232 1.02125 0
M  V30 5660 N 527.499 6.84164 1.09049 0
M  V30 5661 N 529.292 5.52084 1.05639 0
M  V30 5662 H 521.443 2.02791 -0.63162 0
M  V30 5663 H 523.706 0.921736 -0.221602 0
M  V30 5664 H 523.412 3.50912 -0.235253 0
M  V30 5665 H 523.286 3.45476 1.51413 0
M  V30 5666 H 525.673 2.4683 1.61737 0
M  V30 5667 H 525.754 2.55371 -0.148128 0
M  V30 5668 H 525.398 5.07896 -0.0200117 0
M  V30 5669 H 525.328 4.96444 1.75644 0
M  V30 5670 H 527.819 3.67683 0.872782 0
M  V30 5671 H 528.132 7.63883 1.1706 0
M  V30 5672 H 526.477 6.86875 1.05962 0
M  V30 5673 H 529.668 4.57317 0.998953 0
M  V30 5674 H 529.841 6.37983 1.13498 0
M  V30 5675 N 523.247 -0.488276 1.49845 0
M  V30 5676 C 524.663 -0.820566 1.3689 0
M  V30 5677 C 524.863 -1.97248 0.411752 0
M  V30 5678 O 523.919 -2.52042 -0.151931 0
M  V30 5679 C 525.232 -1.1488 2.77891 0
M  V30 5680 C 526.78 -1.25626 2.86683 0
M  V30 5681 C 527.255 -1.61772 4.28479 0
M  V30 5682 N 528.746 -1.68797 4.31349 0
M  V30 5683 C 529.481 -1.98235 5.38043 0
M  V30 5684 N 528.977 -2.2581 6.54967 0
M  V30 5685 N 530.77 -1.99593 5.2547 0
M  V30 5686 H 522.921 0.271123 2.10662 0
M  V30 5687 H 525.184 0.058735 0.946179 0
M  V30 5688 H 524.89 -0.375614 3.49688 0
M  V30 5689 H 524.764 -2.08919 3.14058 0
M  V30 5690 H 527.151 -2.02014 2.15114 0
M  V30 5691 H 527.232 -0.296072 2.54081 0
M  V30 5692 H 526.876 -0.859295 5.00578 0
M  V30 5693 H 526.806 -2.58912 4.58554 0
M  V30 5694 H 529.297 -1.49595 3.4703 0
M  V30 5695 H 529.61 -2.47497 7.32096 0
M  V30 5696 H 527.955 -2.23239 6.58171 0
M  V30 5697 H 531.146 -1.77535 4.33127 0
M  V30 5698 H 531.319 -2.222 6.08713 0
M  V30 5699 N 524.725 -1.39134 -0.740242 0
M  V30 5700 C 525.635 -1.39697 -1.88473 0
M  V30 5701 C 526.651 -0.292403 -1.71526 0
M  V30 5702 O 527.827 -0.533021 -1.94219 0
M  V30 5703 C 524.892 -1.23382 -3.24003 0
M  V30 5704 C 523.953 -2.43763 -3.53381 0
M  V30 5705 C 523.186 -2.28216 -4.82445 0
M  V30 5706 O 523.409 -1.28288 -5.55786 0
M  V30 5707 O 522.343 -3.1709 -5.11603 0
M  V30 5708 H 526.169 -2.36159 -1.90952 0
M  V30 5709 H 523.754 -1.20194 -0.887346 0
M  V30 5710 H 525.636 -1.16395 -4.05006 0
M  V30 5711 H 524.311 -0.300121 -3.22306 0
M  V30 5712 H 523.218 -2.56325 -2.72485 0
M  V30 5713 H 524.551 -3.35808 -3.59852 0
M  V30 5714 N 526.204 0.969867 -1.24223 0
M  V30 5715 C 527.152 2.08535 -1.03034 0
M  V30 5716 C 528.146 1.69366 0.0340379 0
M  V30 5717 O 529.352 1.79597 -0.12034 0
M  V30 5718 H 525.727 0.682313 -0.316154 0
M  V30 5719 H 527.698 2.23569 -1.97635 0
M  V30 5720 C 526.447 3.4158 -0.649509 0
M  V30 5721 H 525.77 3.72177 -1.46028 0
M  V30 5722 H 527.21 4.20536 -0.540841 0
M  V30 5723 C 525.669 3.30703 0.643194 0
M  V30 5724 O 526.199 3.64443 1.68951 0
M  V30 5725 N 524.405 2.83841 0.623095 0
M  V30 5726 H 523.952 2.56583 -0.228719 0
M  V30 5727 H 523.91 2.76946 1.48823 0
M  V30 5728 N 527.682 1.05563 1.17022 0
M  V30 5729 C 528.959 0.68165 1.83338 0
M  V30 5730 C 529.339 -0.837665 1.93769 0
M  V30 5731 O 528.687 -1.74507 1.47511 0
M  V30 5732 C 528.897 1.375 3.20772 0
M  V30 5733 C 530.245 1.51545 3.96635 0
M  V30 5734 O 531.269 1.33431 3.30264 0
M  V30 5735 O 530.128 1.812 5.15586 0
M  V30 5736 H 527.222 0.240412 0.791285 0
M  V30 5737 H 529.768 1.15545 1.24288 0
M  V30 5738 H 528.54 2.41135 3.08171 0
M  V30 5739 H 528.163 0.890798 3.87493 0
M  V30 5740 N 529.16 -1.33526 0.837174 0
M  V30 5741 C 530.576 -1.50727 0.524743 0
M  V30 5742 C 530.776 -1.77792 -0.948279 0
M  V30 5743 O 529.832 -1.83719 -1.73216 0
M  V30 5744 C 531.145 -2.66299 1.39661 0
M  V30 5745 C 532.693 -2.80183 1.39521 0
M  V30 5746 C 533.168 -3.98815 2.25189 0
M  V30 5747 N 534.659 -4.06047 2.2289 0
M  V30 5748 C 535.394 -4.97032 2.85915 0
M  V30 5749 N 534.89 -5.93143 3.57985 0
M  V30 5750 N 536.683 -4.90015 2.75394 0
M  V30 5751 H 528.834 -1.1422 1.79074 0
M  V30 5752 H 531.097 -0.561399 0.763894 0
M  V30 5753 H 530.803 -2.52974 2.4433 0
M  V30 5754 H 530.677 -3.61663 1.07145 0
M  V30 5755 H 533.064 -2.92942 0.356253 0
M  V30 5756 H 533.145 -1.85586 1.76044 0
M  V30 5757 H 532.789 -3.86817 3.29143 0
M  V30 5758 H 532.719 -4.92654 1.86009 0
M  V30 5759 H 535.21 -3.37262 1.70478 0
M  V30 5760 H 535.523 -6.59227 4.03286 0
M  V30 5761 H 533.868 -5.93223 3.62093 0
M  V30 5762 H 537.059 -4.13894 2.18654 0
M  V30 5763 H 537.232 -5.60724 3.24796 0
M  V30 5764 N 530.638 -0.59345 -1.46 0
M  V30 5765 C 531.885 -0.0831523 -2.02329 0
M  V30 5766 C 532.213 1.28093 -1.46364 0
M  V30 5767 O 531.468 1.85526 -0.622793 0
M  V30 5768 C 531.767 0.021178 -3.57394 0
M  V30 5769 C 531.433 -1.27671 -4.32448 0
M  V30 5770 C 530.095 -1.63227 -4.5267 0
M  V30 5771 C 532.447 -2.13511 -4.7546 0
M  V30 5772 C 529.775 -2.84401 -5.1316 0
M  V30 5773 C 532.127 -3.33922 -5.37289 0
M  V30 5774 C 530.791 -3.69747 -5.55737 0
M  V30 5775 H 530.061 -0.0304276 -0.740375 0
M  V30 5776 H 532.708 -0.772239 -1.75239 0
M  V30 5777 H 531.013 0.793454 -3.83682 0
M  V30 5778 H 532.71 0.431942 -3.98667 0
M  V30 5779 H 529.3 -0.989937 -4.17011 0
M  V30 5780 H 533.484 -1.87344 -4.59582 0
M  V30 5781 H 528.74 -3.12282 -5.25633 0
M  V30 5782 H 532.914 -4.00698 -5.69574 0
M  V30 5783 H 530.541 -4.6373 -6.02377 0
M  V30 5784 N 532.116 1.54067 -0.331816 0
M  V30 5785 C 533.362 2.01713 0.261395 0
M  V30 5786 C 533.717 1.21566 1.49129 0
M  V30 5787 O 533.01 0.291867 1.89364 0
M  V30 5788 C 533.204 3.51634 0.639392 0
M  V30 5789 C 533.033 4.46295 -0.552321 0
M  V30 5790 C 531.803 4.94185 -1.05399 0
M  V30 5791 C 534.001 4.94677 -1.40711 0
M  V30 5792 N 531.983 5.7277 -2.20925 0
M  V30 5793 C 533.354 5.71267 -2.40943 0
M  V30 5794 C 535.409 4.76805 -1.43392 0
M  V30 5795 C 534.112 6.31889 -3.4367 0
M  V30 5796 C 536.138 5.38268 -2.44994 0
M  V30 5797 C 535.5 6.14716 -3.43952 0
M  V30 5798 H 531.599 0.77975 0.0592729 0
M  V30 5799 H 534.183 1.88974 -0.468726 0
M  V30 5800 H 532.354 3.64603 1.33863 0
M  V30 5801 H 534.086 3.86038 1.21478 0
M  V30 5802 H 530.841 4.69472 -0.623952 0
M  V30 5803 H 531.265 6.16737 -2.79222 0
M  V30 5804 H 535.907 4.17255 -0.682489 0
M  V30 5805 H 533.625 6.90554 -4.19715 0
M  V30 5806 H 537.211 5.26352 -2.4788 0
M  V30 5807 H 536.091 6.6143 -4.21283 0
M  V30 5808 N 533.594 0.0601682 1.57485 0
M  V30 5809 C 534.843 -0.611101 1.9222 0
M  V30 5810 C 535.156 -1.71469 0.941159 0
M  V30 5811 O 536.362 -2.44473 1.18089 0
M  V30 5812 C 534.818 -1.13832 3.41424 0
M  V30 5813 C 534.426 -0.0663596 4.47951 0
M  V30 5814 C 536.17 -1.78432 3.85178 0
M  V30 5815 C 534.077 -0.606965 5.88277 0
M  V30 5816 H 533.007 -0.232033 0.71741 0
M  V30 5817 H 535.658 0.130518 1.83035 0
M  V30 5818 H 534.04 -1.93254 3.45643 0
M  V30 5819 H 535.214 0.707682 4.55333 0
M  V30 5820 H 533.529 0.482715 4.13593 0
M  V30 5821 H 536.126 -2.1989 4.87394 0
M  V30 5822 H 536.469 -2.63966 3.21913 0
M  V30 5823 H 537.002 -1.05651 3.83514 0
M  V30 5824 H 533.741 0.21095 6.5516 0
M  V30 5825 H 533.261 -1.34879 5.84438 0
M  V30 5826 H 534.94 -1.08704 6.37803 0
M  V30 5827 N 535.072 -1.5615 -0.213296 0
M  V30 5828 C 536.002 -1.96109 -1.26742 0
M  V30 5829 C 536.983 -0.830448 -1.48451 0
M  V30 5830 O 538.168 -1.09339 -1.60495 0
M  V30 5831 C 535.298 -2.28492 -2.61551 0
M  V30 5832 C 534.252 -3.44124 -2.54485 0
M  V30 5833 C 533.578 -3.62134 -3.93399 0
M  V30 5834 C 534.878 -4.78855 -2.08556 0
M  V30 5835 H 536.572 -2.84412 -0.935434 0
M  V30 5836 H 534.118 -1.36836 -0.44854 0
M  V30 5837 H 536.071 -2.55039 -3.3546 0
M  V30 5838 H 534.795 -1.37052 -2.96453 0
M  V30 5839 H 533.454 -3.17639 -1.83033 0
M  V30 5840 H 533.102 -2.68055 -4.25623 0
M  V30 5841 H 532.802 -4.39913 -3.89551 0
M  V30 5842 H 534.326 -3.91038 -4.68958 0
M  V30 5843 H 535.74 -5.04552 -2.72213 0
M  V30 5844 H 534.137 -5.59975 -2.1575 0
M  V30 5845 H 535.207 -4.73657 -1.03811 0
M  V30 5846 N 536.55 0.480323 -1.50102 0
M  V30 5847 C 537.775 1.26126 -1.64642 0
M  V30 5848 C 538.2 1.85257 -0.325823 0
M  V30 5849 O 537.558 1.66854 0.709194 0
M  V30 5850 C 537.606 2.35243 -2.73301 0
M  V30 5851 O 536.71 3.39646 -2.33911 0
M  V30 5852 H 536.051 0.371463 -0.550374 0
M  V30 5853 H 538.581 0.572696 -1.96421 0
M  V30 5854 H 538.591 2.80695 -2.96098 0
M  V30 5855 H 537.266 1.91574 -3.6915 0
M  V30 5856 H 535.843 2.99969 -2.21525 0
M  V30 5857 N 538.028 1.39524 0.732853 0
M  V30 5858 C 539.275 1.36865 1.49246 0
M  V30 5859 C 539.603 -0.0347118 1.94469 0
M  V30 5860 O 538.858 -1.01596 1.67262 0
M  V30 5861 C 539.157 2.28916 2.74468 0
M  V30 5862 C 538.823 3.76506 2.481 0
M  V30 5863 C 537.485 4.16721 2.40619 0
M  V30 5864 C 539.837 4.69846 2.25598 0
M  V30 5865 C 537.165 5.48334 2.08679 0
M  V30 5866 C 539.517 6.01739 1.95174 0
M  V30 5867 C 538.181 6.41015 1.86163 0
M  V30 5868 H 537.451 0.500824 0.546129 0
M  V30 5869 H 540.098 1.72047 0.840958 0
M  V30 5870 H 538.403 1.86859 3.4437 0
M  V30 5871 H 540.1 2.2415 3.32502 0
M  V30 5872 H 536.69 3.44635 2.54803 0
M  V30 5873 H 540.874 4.39608 2.30344 0
M  V30 5874 H 536.13 5.77685 2.00226 0
M  V30 5875 H 540.304 6.73591 1.76771 0
M  V30 5876 H 537.931 7.42917 1.61179 0
M  V30 5877 N 539.506 -0.963266 1.24736 0
M  V30 5878 C 540.453 -2.05857 1.04363 0
M  V30 5879 C 541.423 -1.6604 -0.0444951 0
M  V30 5880 O 542.608 -1.90477 0.110999 0
M  V30 5881 C 539.748 -3.38745 0.659235 0
M  V30 5882 C 538.861 -3.9173 1.82131 0
M  V30 5883 C 537.996 -5.12906 1.38208 0
M  V30 5884 C 537.035 -5.58098 2.51382 0
M  V30 5885 N 536.172 -6.7049 2.08295 0
M  V30 5886 H 541.012 -2.22616 1.98107 0
M  V30 5887 H 538.549 -1.09103 0.986661 0
M  V30 5888 H 540.507 -4.15107 0.417371 0
M  V30 5889 H 539.137 -3.21898 -0.241201 0
M  V30 5890 H 538.189 -3.11966 2.17672 0
M  V30 5891 H 539.501 -4.21225 2.67153 0
M  V30 5892 H 538.655 -5.96657 1.09935 0
M  V30 5893 H 537.394 -4.85105 0.502456 0
M  V30 5894 H 536.399 -4.72917 2.80409 0
M  V30 5895 H 537.624 -5.87911 3.39909 0
M  V30 5896 H 535.57 -6.44416 1.22737 0
M  V30 5897 H 535.487 -6.99458 2.86869 0
M  V30 5898 H 536.755 -7.57672 1.83175 0
M  V30 5899 N 540.985 -1.06182 -1.16461 0
M  V30 5900 C 542.231 -0.779015 -1.87241 0
M  V30 5901 C 542.564 0.692715 -1.81425 0
M  V30 5902 O 541.839 1.5074 -1.22913 0
M  V30 5903 C 542.122 -1.2728 -3.36856 0
M  V30 5904 C 541.975 -2.80821 -3.51368 0
M  V30 5905 C 543.294 -0.879799 -4.31216 0
M  V30 5906 H 540.413 -0.284464 -0.679889 0
M  V30 5907 H 543.055 -1.31755 -1.36896 0
M  V30 5908 H 541.205 -0.814673 -3.79862 0
M  V30 5909 H 542.877 -3.34833 -3.17308 0
M  V30 5910 H 541.12 -3.19606 -2.93316 0
M  V30 5911 H 541.791 -3.10435 -4.56436 0
M  V30 5912 H 544.267 -1.27436 -3.96105 0
M  V30 5913 H 543.143 -1.25278 -5.34412 0
M  V30 5914 H 543.404 0.215372 -4.41575 0
M  V30 5915 N 542.463 1.3308 -0.844243 0
M  V30 5916 C 543.411 2.31028 -0.269954 0
M  V30 5917 C 544.405 1.58381 0.600997 0
M  V30 5918 O 545.611 1.73203 0.48996 0
M  V30 5919 H 541.986 0.748866 -0.0685782 0
M  V30 5920 H 543.957 2.76967 -1.11049 0
M  V30 5921 C 542.706 3.43549 0.535676 0
M  V30 5922 H 542.029 3.99604 -0.125202 0
M  V30 5923 H 543.469 4.14267 0.903262 0
M  V30 5924 C 541.928 2.8988 1.71672 0
M  V30 5925 O 542.458 2.86511 2.81557 0
M  V30 5926 N 540.664 2.46416 1.54037 0
M  V30 5927 H 540.211 2.49356 0.64649 0
M  V30 5928 H 540.169 2.1086 2.33207 0
M  V30 5929 N 543.941 0.601185 1.45683 0
M  V30 5930 C 545.166 0.0982245 2.07167 0
M  V30 5931 C 545.591 -1.20546 1.44396 0
M  V30 5932 O 544.949 -1.73247 0.534347 0
M  V30 5933 C 544.997 -0.0346976 3.60583 0
M  V30 5934 O 544.101 -1.08657 3.97828 0
M  V30 5935 H 543.442 0.0711618 0.660176 0
M  V30 5936 H 545.972 0.829376 1.87036 0
M  V30 5937 H 545.982 -0.234969 4.07323 0
M  V30 5938 H 544.657 0.917265 4.05659 0
M  V30 5939 H 543.234 -0.863275 3.6277 0
M  V30 5940 N 545.419 -1.53889 0.339982 0
M  V30 5941 C 546.366 -2.24902 -0.518452 0
M  V30 5942 C 547.336 -1.24593 -1.09844 0
M  V30 5943 O 548.521 -1.53317 -1.13572 0
M  V30 5944 C 545.661 -3.02262 -1.66529 0
M  V30 5945 C 544.774 -4.17418 -1.11295 0
M  V30 5946 C 543.909 -4.82273 -2.2268 0
M  V30 5947 C 542.948 -5.89503 -1.6478 0
M  V30 5948 N 542.085 -6.48153 -2.69893 0
M  V30 5949 H 546.925 -2.97853 0.0936579 0
M  V30 5950 H 544.462 -1.46986 0.0579924 0
M  V30 5951 H 546.42 -3.45371 -2.3404 0
M  V30 5952 H 545.05 -2.31614 -2.24844 0
M  V30 5953 H 544.102 -3.78976 -0.328886 0
M  V30 5954 H 545.414 -4.94554 -0.649414 0
M  V30 5955 H 544.568 -5.28435 -2.98063 0
M  V30 5956 H 543.307 -4.04552 -2.72376 0
M  V30 5957 H 542.312 -5.42728 -0.879004 0
M  V30 5958 H 543.537 -6.6913 -1.1594 0
M  V30 5959 H 541.483 -5.73298 -3.1885 0
M  V30 5960 H 541.4 -7.20752 -2.28151 0
M  V30 5961 H 542.668 -6.98968 -3.45056 0
M  V30 5962 N 546.897 -0.0685191 -1.57451 0
M  V30 5963 C 547.827 0.89747 -2.15564 0
M  V30 5964 C 548.808 1.31266 -1.08181 0
M  V30 5965 O 549.993 1.38429 -1.36202 0
M  V30 5966 C 547.123 2.16623 -2.71463 0
M  V30 5967 C 546.077 1.89054 -3.83982 0
M  V30 5968 C 545.403 3.22532 -4.26471 0
M  V30 5969 C 546.703 1.1984 -5.08366 0
M  V30 5970 H 548.397 0.413373 -2.96533 0
M  V30 5971 H 545.943 0.197391 -1.42641 0
M  V30 5972 H 547.896 2.84614 -3.10761 0
M  V30 5973 H 546.62 2.67269 -1.8771 0
M  V30 5974 H 545.279 1.23469 -3.45183 0
M  V30 5975 H 544.927 3.71013 -3.39644 0
M  V30 5976 H 544.627 3.04879 -5.02317 0
M  V30 5977 H 546.151 3.91727 -4.68383 0
M  V30 5978 H 547.565 1.77896 -5.45001 0
M  V30 5979 H 545.962 1.12456 -5.89469 0
M  V30 5980 H 547.032 0.176996 -4.84577 0
M  V30 5981 N 548.375 1.56261 0.205012 0
M  V30 5982 C 549.624 1.79236 0.925058 0
M  V30 5983 C 549.937 0.640011 1.84833 0
M  V30 5984 O 551.143 0.753809 2.60826 0
M  V30 5985 C 549.599 3.17475 1.69522 0
M  V30 5986 C 549.207 4.40482 0.817269 0
M  V30 5987 C 550.951 3.49766 2.4055 0
M  V30 5988 C 548.858 5.69744 1.58573 0
M  V30 5989 H 547.788 0.668287 0.349153 0
M  V30 5990 H 550.439 1.82629 0.178544 0
M  V30 5991 H 548.821 3.08304 2.48526 0
M  V30 5992 H 549.995 4.60752 0.0665988 0
M  V30 5993 H 548.31 4.15827 0.218316 0
M  V30 5994 H 550.907 4.43573 2.98575 0
M  V30 5995 H 551.25 2.73041 3.14252 0
M  V30 5996 H 551.783 3.60341 1.68522 0
M  V30 5997 H 548.522 6.49407 0.891679 0
M  V30 5998 H 548.042 5.53509 2.31059 0
M  V30 5999 H 549.721 6.1051 2.14212 0
M  V30 6000 N 549.853 -0.472356 1.50355 0
M  V30 6001 C 550.816 -1.5529 1.68576 0
M  V30 6002 C 551.816 -1.50863 0.556511 0
M  V30 6003 O 553.006 -1.53505 0.823516 0
M  V30 6004 C 550.138 -2.94921 1.70981 0
M  V30 6005 H 551.331 -1.40451 2.64978 0
M  V30 6006 H 548.884 -0.698645 1.39816 0
M  V30 6007 H 549.619 -3.15204 0.762675 0
M  V30 6008 H 549.404 -2.99541 2.53017 0
M  V30 6009 H 550.894 -3.73372 1.87037 0
M  V30 6010 N 551.331 -1.39911 -0.725443 0
M  V30 6011 C 552.294 -1.39156 -1.82121 0
M  V30 6012 C 553.294 -0.287018 -1.58218 0
M  V30 6013 O 554.484 -0.545421 -1.65441 0
M  V30 6014 C 551.616 -1.1736 -3.20062 0
M  V30 6015 H 552.809 -2.36672 -1.84191 0
M  V30 6016 H 550.362 -1.25615 -0.930079 0
M  V30 6017 H 551.097 -0.205648 -3.23647 0
M  V30 6018 H 550.882 -1.97358 -3.3881 0
M  V30 6019 H 552.372 -1.19596 -4.00108 0
M  V30 6020 N 552.809 0.956637 -1.25245 0
M  V30 6021 C 554.057 1.69764 -1.09657 0
M  V30 6022 C 554.378 1.91583 0.363464 0
M  V30 6023 O 553.648 1.50149 1.25825 0
M  V30 6024 H 552.228 0.629097 -0.402798 0
M  V30 6025 H 554.89 1.15026 -1.57337 0
M  V30 6026 H 553.986 2.67769 -1.60331 0
M  V30 6027 N 554.287 1.06798 1.15896 0
M  V30 6028 C 555.237 0.653213 2.18443 0
M  V30 6029 C 556.221 -0.318763 1.57711 0
M  V30 6030 O 557.413 -0.133388 1.76497 0
M  V30 6031 C 554.542 0.0465785 3.43268 0
M  V30 6032 C 553.628 1.04336 4.11066 0
M  V30 6033 N 554.019 2.22084 4.54436 0
M  V30 6034 C 552.317 0.875433 4.37324 0
M  V30 6035 C 553.018 2.85276 5.06944 0
M  V30 6036 N 551.994 2.12973 5.00143 0
M  V30 6037 H 555.796 1.55011 2.49698 0
M  V30 6038 H 553.31 0.940384 1.32403 0
M  V30 6039 H 555.307 -0.26843 4.16035 0
M  V30 6040 H 553.967 -0.845504 3.13499 0
M  V30 6041 H 554.978 2.59833 4.48004 0
M  V30 6042 H 551.655 0.0357721 4.17485 0
M  V30 6043 H 553.045 3.85223 5.50503 0
M  V30 6044 N 555.766 -1.3263 0.851289 0
M  V30 6045 C 557.043 -1.91982 0.374448 0
M  V30 6046 C 557.423 -1.77568 -1.14161 0
M  V30 6047 O 556.771 -1.1717 -1.96172 0
M  V30 6048 C 556.981 -3.38862 0.835088 0
M  V30 6049 C 558.329 -4.15999 0.850309 0
M  V30 6050 O 559.353 -3.47566 0.779505 0
M  V30 6051 O 558.212 -5.38189 0.949481 0
M  V30 6052 H 555.306 -0.819846 0.10854 0
M  V30 6053 H 557.852 -1.41422 0.937966 0
M  V30 6054 H 556.624 -3.43281 1.87814 0
M  V30 6055 H 556.247 -3.96821 0.248833 0
M  V30 6056 N 557.244 -0.608902 -1.45362 0
M  V30 6057 C 558.469 -0.10921 -2.07112 0
M  V30 6058 C 558.894 1.19779 -1.45033 0
M  V30 6059 O 558.252 1.72961 -0.543527 0
M  V30 6060 C 558.3 0.0155745 -3.60597 0
M  V30 6061 O 557.404 1.06546 -3.98399 0
M  V30 6062 H 556.745 -0.0746619 -0.659789 0
M  V30 6063 H 559.275 -0.839283 -1.86594 0
M  V30 6064 H 559.285 0.213364 -4.07442 0
M  V30 6065 H 557.96 -0.938765 -4.05167 0
M  V30 6066 H 556.537 0.844024 -3.63223 0
M  V30 6067 N 558.722 1.53707 -0.348139 0
M  V30 6068 C 559.97 2.00591 0.246478 0
M  V30 6069 C 560.291 1.23753 1.50699 0
M  V30 6070 O 559.561 0.345964 1.92821 0
M  V30 6071 H 558.141 0.741053 0.0940679 0
M  V30 6072 H 560.803 1.89139 -0.470354 0
M  V30 6073 H 559.899 3.08297 0.485714 0
M  V30 6074 N 560.2 0.0768682 1.57412 0
M  V30 6075 C 561.133 -0.924685 2.08626 0
M  V30 6076 C 562.111 -1.28792 0.992542 0
M  V30 6077 O 563.295 -1.39634 1.26628 0
M  V30 6078 C 560.422 -2.23131 2.54814 0
M  V30 6079 C 559.468 -2.01928 3.75669 0
M  V30 6080 S 560.301 -1.27397 5.20125 0
M  V30 6081 C 561.457 -2.59329 5.69648 0
M  V30 6082 H 561.69 -0.488928 2.93252 0
M  V30 6083 H 559.223 -0.136014 1.538 0
M  V30 6084 H 561.181 -2.98226 2.82084 0
M  V30 6085 H 559.842 -2.63831 1.70447 0
M  V30 6086 H 559.035 -2.98639 4.05993 0
M  V30 6087 H 558.637 -1.34967 3.48798 0
M  V30 6088 H 560.929 -3.55394 5.76803 0
M  V30 6089 H 561.872 -2.33608 6.68456 0
M  V30 6090 H 562.28 -2.66767 4.9749 0
M  V30 6091 N 561.678 -1.56367 -0.196722 0
M  V30 6092 C 562.924 -1.80796 -0.918725 0
M  V30 6093 C 563.257 -0.650645 -1.82976 0
M  V30 6094 O 562.532 0.348889 -1.91345 0
M  V30 6095 C 562.815 -3.15472 -1.73636 0
M  V30 6096 C 562.668 -4.41693 -0.85015 0
M  V30 6097 C 563.987 -3.46824 -2.70927 0
M  V30 6098 H 561.106 -0.657702 -0.332561 0
M  V30 6099 H 563.748 -1.89086 -0.186186 0
M  V30 6100 H 561.898 -3.08536 -2.36088 0
M  V30 6101 H 563.57 -4.60673 -0.240459 0
M  V30 6102 H 561.813 -4.33517 -0.156785 0
M  V30 6103 H 562.484 -5.32419 -1.45719 0
M  V30 6104 H 564.96 -3.54049 -2.18607 0
M  V30 6105 H 563.836 -4.4218 -3.25219 0
M  V30 6106 H 564.097 -2.70236 -3.49893 0
M  V30 6107 N 563.156 0.464375 -1.50603 0
M  V30 6108 C 564.405 1.21277 -1.61167 0
M  V30 6109 C 564.718 1.92953 -0.320704 0
M  V30 6110 O 565.924 2.69778 -0.30534 0
M  V30 6111 C 564.38 2.20403 -2.84518 0
M  V30 6112 C 563.988 1.54499 -4.20516 0
M  V30 6113 C 565.732 2.95843 -3.0443 0
M  V30 6114 C 563.639 2.51951 -5.35047 0
M  V30 6115 H 562.569 0.456367 -0.600204 0
M  V30 6116 H 565.22 0.48254 -1.77042 0
M  V30 6117 H 563.602 2.96746 -2.62217 0
M  V30 6118 H 564.776 0.83899 -4.53098 0
M  V30 6119 H 563.091 0.913152 -4.06264 0
M  V30 6120 H 565.688 3.6879 -3.87167 0
M  V30 6121 H 566.031 3.55622 -2.16423 0
M  V30 6122 H 566.564 2.26611 -3.26944 0
M  V30 6123 H 563.303 1.96901 -6.25228 0
M  V30 6124 H 562.823 3.20683 -5.06875 0
M  V30 6125 H 564.502 3.13643 -5.65895 0
M  V30 6126 N 564.634 1.40294 0.718013 0
M  V30 6127 C 565.881 1.3844 1.47786 0
M  V30 6128 C 566.209 -0.0140838 1.94495 0
M  V30 6129 O 565.464 -0.998165 1.68331 0
M  V30 6130 C 565.763 2.31814 2.72024 0
M  V30 6131 C 565.429 3.79117 2.44093 0
M  V30 6132 C 564.091 4.19249 2.36185 0
M  V30 6133 C 566.443 4.72212 2.20602 0
M  V30 6134 C 563.771 5.50516 2.02851 0
M  V30 6135 C 566.123 6.03775 1.88781 0
M  V30 6136 C 564.787 6.42953 1.79354 0
M  V30 6137 H 564.057 0.506588 0.540786 0
M  V30 6138 H 566.704 1.72929 0.822663 0
M  V30 6139 H 565.009 1.90501 3.42369 0
M  V30 6140 H 566.706 2.27664 3.30106 0
M  V30 6141 H 563.296 3.47318 2.51133 0
M  V30 6142 H 567.48 4.42026 2.25669 0
M  V30 6143 H 562.736 5.79776 1.94088 0
M  V30 6144 H 566.91 6.75428 1.69617 0
M  V30 6145 H 564.537 7.44584 1.53291 0
M  V30 6146 N 566.112 -0.949982 1.2575 0
M  V30 6147 C 567.059 -2.04738 1.06541 0
M  V30 6148 C 568.029 -1.66078 -0.0268818 0
M  V30 6149 O 569.214 -1.90348 0.131196 0
M  V30 6150 C 566.354 -3.38027 0.695127 0
M  V30 6151 C 565.467 -3.89776 1.86276 0
M  V30 6152 C 564.602 -5.11411 1.4364 0
M  V30 6153 C 563.641 -5.554 2.57287 0
M  V30 6154 N 562.778 -6.68244 2.15395 0
M  V30 6155 H 567.618 -2.20502 2.00457 0
M  V30 6156 H 565.155 -1.0805 0.998178 0
M  V30 6157 H 567.113 -4.14641 0.461375 0
M  V30 6158 H 565.743 -3.22135 -0.207046 0
M  V30 6159 H 564.795 -3.0964 2.20969 0
M  V30 6160 H 566.107 -4.18368 2.71606 0
M  V30 6161 H 565.261 -5.95457 1.16257 0
M  V30 6162 H 564 -4.84545 0.553879 0
M  V30 6163 H 563.005 -4.69916 2.85409 0
M  V30 6164 H 564.23 -5.84272 3.46125 0
M  V30 6165 H 562.176 -6.43078 1.29565 0
M  V30 6166 H 562.093 -6.96377 2.94272 0
M  V30 6167 H 563.361 -7.55687 1.91201 0
M  V30 6168 N 567.59 -1.07411 -1.15328 0
M  V30 6169 C 568.837 -0.797649 -1.86128 0
M  V30 6170 C 569.165 0.676298 -1.82364 0
M  V30 6171 O 568.42 1.51223 -1.24218 0
M  V30 6172 C 568.719 -1.25191 -3.34757 0
M  V30 6173 C 568.385 -2.73191 -3.58716 0
M  V30 6174 C 567.047 -3.13616 -3.64964 0
M  V30 6175 C 569.399 -3.68718 -3.6837 0
M  V30 6176 C 566.727 -4.48383 -3.78377 0
M  V30 6177 C 569.079 -5.03248 -3.83306 0
M  V30 6178 C 567.743 -5.43293 -3.878 0
M  V30 6179 H 567.013 -0.29188 -0.681092 0
M  V30 6180 H 569.66 -1.34524 -1.36292 0
M  V30 6181 H 567.965 -0.623712 -3.86804 0
M  V30 6182 H 569.662 -1.01489 -3.87945 0
M  V30 6183 H 566.252 -2.40898 -3.54494 0
M  V30 6184 H 570.436 -3.38614 -3.62842 0
M  V30 6185 H 565.692 -4.78877 -3.80114 0
M  V30 6186 H 569.866 -5.77142 -3.89718 0
M  V30 6187 H 567.493 -6.47721 -3.97946 0
M  V30 6188 N 569.068 1.32177 -0.85831 0
M  V30 6189 C 570.018 2.26307 -0.277307 0
M  V30 6190 C 571.002 1.50123 0.578946 0
M  V30 6191 O 572.194 1.71754 0.427731 0
M  V30 6192 C 569.323 3.39181 0.530232 0
M  V30 6193 C 568.409 4.22746 -0.338613 0
M  V30 6194 N 568.8 4.85265 -1.4266 0
M  V30 6195 C 567.098 4.45813 -0.129 0
M  V30 6196 C 567.799 5.47634 -1.96142 0
M  V30 6197 N 566.775 5.28794 -1.26007 0
M  V30 6198 H 570.577 2.72173 -1.10902 0
M  V30 6199 H 568.091 1.46308 -0.704816 0
M  V30 6200 H 570.088 4.05628 0.962904 0
M  V30 6201 H 568.748 2.9486 1.35969 0
M  V30 6202 H 569.759 4.85259 -1.80953 0
M  V30 6203 H 566.436 4.12163 0.665451 0
M  V30 6204 H 567.826 6.0735 -2.8736 0
M  V30 6205 N 570.547 0.616602 1.45037 0
M  V30 6206 C 571.494 -0.0969439 2.30596 0
M  V30 6207 C 572.464 -0.851151 1.42635 0
M  V30 6208 O 573.649 -0.835092 1.71554 0
M  V30 6209 C 570.789 -1.08234 3.27688 0
M  V30 6210 C 569.902 -0.328072 4.30752 0
M  V30 6211 C 569.037 -1.30399 5.14946 0
M  V30 6212 C 568.076 -0.538049 6.09731 0
M  V30 6213 N 567.213 -1.46371 6.86673 0
M  V30 6214 H 572.053 0.63864 2.91076 0
M  V30 6215 H 569.59 0.326733 1.43425 0
M  V30 6216 H 571.548 -1.66688 3.82454 0
M  V30 6217 H 570.178 -1.78523 2.68941 0
M  V30 6218 H 569.23 0.372136 3.78575 0
M  V30 6219 H 570.542 0.269142 4.98073 0
M  V30 6220 H 569.696 -1.96032 5.74157 0
M  V30 6221 H 568.435 -1.93514 4.47665 0
M  V30 6222 H 567.44 0.131852 5.49642 0
M  V30 6223 H 568.665 0.0881732 6.79043 0
M  V30 6224 H 566.611 -2.08233 6.22073 0
M  V30 6225 H 566.528 -0.920152 7.50379 0
M  V30 6226 H 567.796 -2.10932 7.50418 0
M  V30 6227 N 572.025 -1.5352 0.356285 0
M  V30 6228 C 572.935 -2.29151 -0.502712 0
M  V30 6229 C 573.951 -1.34753 -1.1008 0
M  V30 6230 O 575.127 -1.67803 -1.11374 0
M  V30 6231 C 572.192 -3.05911 -1.63154 0
M  V30 6232 C 571.253 -4.15958 -1.06194 0
M  V30 6233 C 570.486 -4.8905 -2.13696 0
M  V30 6234 O 570.709 -4.61919 -3.34645 0
M  V30 6235 O 569.643 -5.75202 -1.77275 0
M  V30 6236 H 573.469 -3.03492 0.112466 0
M  V30 6237 H 571.054 -1.4891 0.120942 0
M  V30 6238 H 572.936 -3.53874 -2.28804 0
M  V30 6239 H 571.611 -2.34415 -2.23229 0
M  V30 6240 H 570.518 -3.7227 -0.369603 0
M  V30 6241 H 571.851 -4.89593 -0.505872 0
M  V30 6242 N 573.503 -0.0852151 -1.57369 0
M  V30 6243 C 574.45 0.877268 -2.13478 0
M  V30 6244 C 575.42 1.28642 -1.05073 0
M  V30 6245 O 576.605 1.36992 -1.32808 0
M  V30 6246 C 573.745 2.13464 -2.71159 0
M  V30 6247 C 572.858 1.77691 -3.93764 0
M  V30 6248 C 571.993 2.98139 -4.39643 0
M  V30 6249 C 571.032 2.58447 -5.54862 0
M  V30 6250 N 570.169 3.71698 -5.95639 0
M  V30 6251 H 575.009 0.391933 -2.95411 0
M  V30 6252 H 572.546 0.181796 -1.45972 0
M  V30 6253 H 574.504 2.87086 -3.02717 0
M  V30 6254 H 573.134 2.59514 -1.91969 0
M  V30 6255 H 572.186 0.940768 -3.68583 0
M  V30 6256 H 573.498 1.44497 -4.77412 0
M  V30 6257 H 572.652 3.80026 -4.72933 0
M  V30 6258 H 571.391 3.34536 -3.54876 0
M  V30 6259 H 570.396 1.74984 -5.21211 0
M  V30 6260 H 571.621 2.23205 -6.41371 0
M  V30 6261 H 569.567 4.07831 -5.13819 0
M  V30 6262 H 569.484 3.42317 -6.74059 0
M  V30 6263 H 570.752 4.54123 -6.33555 0
M  V30 6264 N 574.981 1.5647 0.188427 0
M  V30 6265 C 576.221 1.82803 0.914469 0
M  V30 6266 C 576.585 0.663681 1.80165 0
M  V30 6267 O 577.786 0.807059 2.56398 0
M  V30 6268 C 576.057 3.14187 1.70357 0
M  V30 6269 S 577.616 3.61947 2.48072 0
M  V30 6270 H 574.434 0.641497 0.306599 0
M  V30 6271 H 577.036 1.94694 0.177361 0
M  V30 6272 H 575.74 3.96937 1.04255 0
M  V30 6273 H 575.271 3.05192 2.48237 0
M  V30 6274 H 577.286 3.27913 3.72407 0
M  V30 6275 N 576.459 -0.456382 1.50847 0
M  V30 6276 C 577.87 -1.03685 1.55262 0
M  V30 6277 C 578.221 -1.92779 0.364771 0
M  V30 6278 O 577.346 -2.10043 -0.52068 0
M  V30 6279 C 577.941 -1.88718 2.81374 0
M  V30 6280 C 576.5 -2.41847 2.88422 0
M  V30 6281 C 575.647 -1.20564 2.49719 0
M  V30 6282 H 578.598 -0.238399 1.56899 0
M  V30 6283 H 578.619 -2.73957 2.6406 0
M  V30 6284 H 578.131 -1.23847 3.67809 0
M  V30 6285 H 576.232 -3.10228 2.06372 0
M  V30 6286 H 576.345 -2.75947 3.9165 0
M  V30 6287 H 574.709 -1.54504 2.02486 0
M  V30 6288 H 575.492 -0.573326 3.38479 0
M  V30 6289 N 577.937 -1.40673 -0.710563 0
M  V30 6290 C 579.184 -1.39222 -1.47049 0
M  V30 6291 C 579.512 0.0037691 -1.945 0
M  V30 6292 O 578.767 0.989224 -1.68857 0
M  V30 6293 C 579.066 -2.33253 -2.70791 0
M  V30 6294 C 578.732 -3.80406 -2.42079 0
M  V30 6295 C 577.394 -4.20496 -2.33959 0
M  V30 6296 C 579.746 -4.73375 -2.18094 0
M  V30 6297 C 577.074 -5.51584 -1.99929 0
M  V30 6298 C 579.426 -6.04768 -1.85576 0
M  V30 6299 C 578.09 -6.43895 -1.75941 0
M  V30 6300 H 577.36 -0.509449 -0.538092 0
M  V30 6301 H 580.007 -1.73363 -0.81348 0
M  V30 6302 H 578.312 -1.92314 -3.41354 0
M  V30 6303 H 580.009 -2.29412 -3.28894 0
M  V30 6304 H 576.599 -3.48645 -2.49288 0
M  V30 6305 H 580.783 -4.43217 -2.23321 0
M  V30 6306 H 576.039 -5.80797 -1.91011 0
M  V30 6307 H 580.213 -6.76318 -1.66033 0
M  V30 6308 H 577.84 -7.45387 -1.4934 0
M  V30 6309 N 579.415 0.9433 -1.26252 0
M  V30 6310 C 580.692 1.66639 -1.02424 0
M  V30 6311 C 581.072 2.06335 0.446006 0
M  V30 6312 O 580.42 1.78551 1.42589 0
M  V30 6313 C 580.63 2.88019 -1.97094 0
M  V30 6314 C 581.978 3.59718 -2.25584 0
M  V30 6315 O 583.002 2.9812 -1.94943 0
M  V30 6316 O 581.861 4.7066 -2.77743 0
M  V30 6317 H 578.955 0.729643 -0.389294 0
M  V30 6318 H 581.501 0.995218 -1.37454 0
M  V30 6319 H 580.273 2.5556 -2.96319 0
M  V30 6320 H 579.896 3.62863 -1.62532 0
M  V30 6321 N 580.893 1.08022 1.14757 0
M  V30 6322 C 581.84 0.706657 2.19716 0
M  V30 6323 C 582.81 -0.30525 1.63271 0
M  V30 6324 O 583.995 -0.19015 1.8985 0
M  V30 6325 C 581.135 0.117914 3.44898 0
M  V30 6326 C 580.248 1.18212 4.15512 0
M  V30 6327 C 579.383 0.557659 5.28265 0
M  V30 6328 C 578.422 1.60418 5.90705 0
M  V30 6329 N 577.559 1.0018 6.94916 0
M  V30 6330 H 582.399 1.60603 2.51019 0
M  V30 6331 H 579.936 0.802664 1.23271 0
M  V30 6332 H 581.894 -0.241112 4.16503 0
M  V30 6333 H 580.524 -0.744788 3.1409 0
M  V30 6334 H 579.576 1.65863 3.42335 0
M  V30 6335 H 580.888 1.97533 4.5802 0
M  V30 6336 H 580.042 0.146654 6.06523 0
M  V30 6337 H 578.781 -0.267249 4.86967 0
M  V30 6338 H 577.786 2.02489 5.11154 0
M  V30 6339 H 579.011 2.43149 6.34078 0
M  V30 6340 H 576.957 0.197917 6.55701 0
M  V30 6341 H 576.874 1.73216 7.35889 0
M  V30 6342 H 578.142 0.616523 7.77058 0
M  V30 6343 N 582.371 -1.3172 0.865308 0
M  V30 6344 C 583.601 -2.00765 0.487543 0
M  V30 6345 C 584.009 -1.65145 -0.92325 0
M  V30 6346 O 583.352 -0.874294 -1.61561 0
M  V30 6347 C 583.414 -3.55122 0.559369 0
M  V30 6348 C 583.078 -4.14202 1.93095 0
M  V30 6349 C 584.075 -4.3165 2.89784 0
M  V30 6350 C 581.76 -4.50036 2.23099 0
M  V30 6351 C 583.754 -4.84114 4.14623 0
M  V30 6352 C 581.441 -5.02203 3.48189 0
M  V30 6353 C 582.439 -5.19192 4.43767 0
M  V30 6354 O 582.127 -5.70241 5.6664 0
M  V30 6355 H 581.859 -0.649066 0.188915 0
M  V30 6356 H 584.413 -1.69032 1.16694 0
M  V30 6357 H 582.643 -3.86295 -0.176926 0
M  V30 6358 H 584.332 -4.05428 0.195694 0
M  V30 6359 H 585.098 -4.04288 2.6791 0
M  V30 6360 H 580.977 -4.36091 1.49485 0
M  V30 6361 H 584.521 -4.9729 4.89233 0
M  V30 6362 H 580.418 -5.28997 3.69908 0
M  V30 6363 H 581.186 -5.88617 5.68746 0
M  V30 6364 N 583.85 -0.624285 -1.44708 0
M  V30 6365 C 584.76 0.0861083 -2.34442 0
M  V30 6366 C 585.776 0.84291 -1.5222 0
M  V30 6367 O 586.952 0.796723 -1.84971 0
M  V30 6368 C 584.017 1.05999 -3.30099 0
M  V30 6369 C 583.077 0.303316 -4.28227 0
M  V30 6370 C 582.311 1.23081 -5.19314 0
M  V30 6371 O 582.534 2.46929 -5.14181 0
M  V30 6372 O 581.468 0.71883 -5.97592 0
M  V30 6373 H 585.293 -0.651756 -2.96624 0
M  V30 6374 H 582.879 -0.384493 -1.44368 0
M  V30 6375 H 584.76 1.62046 -3.88997 0
M  V30 6376 H 583.436 1.77859 -2.70459 0
M  V30 6377 H 582.343 -0.300033 -3.72895 0
M  V30 6378 H 583.676 -0.375123 -4.90768 0
M  V30 6379 N 585.328 1.53329 -0.364422 0
M  V30 6380 C 586.278 2.22472 0.499024 0
M  V30 6381 C 587.262 1.21952 1.0496 0
M  V30 6382 O 588.454 1.47405 0.979836 0
M  V30 6383 C 585.583 3.01659 1.6388 0
M  V30 6384 C 584.669 4.09555 1.10116 0
M  V30 6385 N 585.06 5.04988 0.286414 0
M  V30 6386 C 583.358 4.2424 1.37608 0
M  V30 6387 C 584.059 5.81699 -0.00781682 0
M  V30 6388 N 583.035 5.40394 0.589494 0
M  V30 6389 H 586.837 2.93611 -0.130284 0
M  V30 6390 H 584.351 1.61483 -0.172377 0
M  V30 6391 H 586.348 3.4971 2.26954 0
M  V30 6392 H 585.008 2.32051 2.27118 0
M  V30 6393 H 586.019 5.17847 -0.0742839 0
M  V30 6394 H 582.696 3.65858 2.01133 0
M  V30 6395 H 584.086 6.68587 -0.666394 0
M  V30 6396 N 586.806 0.0935595 1.57322 0
M  V30 6397 C 588.036 -0.578095 1.98347 0
M  V30 6398 C 588.444 -1.62357 0.971441 0
M  V30 6399 O 587.787 -1.83639 -0.0473959 0
M  V30 6400 C 587.849 -1.28525 3.3574 0
M  V30 6401 C 587.513 -0.390714 4.55327 0
M  V30 6402 C 588.51 0.360522 5.18648 0
M  V30 6403 C 586.195 -0.309221 5.01347 0
M  V30 6404 C 588.189 1.18125 6.26359 0
M  V30 6405 C 585.876 0.515157 6.08925 0
M  V30 6406 C 586.874 1.25904 6.71295 0
M  V30 6407 O 586.562 2.06978 7.76798 0
M  V30 6408 H 586.294 -0.159767 0.656849 0
M  V30 6409 H 588.848 0.169058 2.04703 0
M  V30 6410 H 587.078 -2.07894 3.26063 0
M  V30 6411 H 588.767 -1.85128 3.61223 0
M  V30 6412 H 589.533 0.307285 4.84026 0
M  V30 6413 H 585.412 -0.877881 4.52564 0
M  V30 6414 H 588.956 1.76236 6.74971 0
M  V30 6415 H 584.853 0.56988 6.42979 0
M  V30 6416 H 585.621 1.99644 7.93779 0
M  V30 6417 N 588.284 -1.56567 -0.180126 0
M  V30 6418 C 589.214 -1.98753 -1.22553 0
M  V30 6419 C 590.195 -0.86175 -1.46656 0
M  V30 6420 O 591.38 -1.12719 -1.58139 0
M  V30 6421 C 588.51 -2.33988 -2.56645 0
M  V30 6422 C 587.464 -3.49445 -2.47128 0
M  V30 6423 C 586.79 -3.70397 -3.8563 0
M  V30 6424 C 588.09 -4.83171 -1.98352 0
M  V30 6425 H 589.784 -2.86332 -0.874896 0
M  V30 6426 H 587.33 -1.37757 -0.419414 0
M  V30 6427 H 589.283 -2.62097 -3.29974 0
M  V30 6428 H 588.007 -1.43309 -2.93479 0
M  V30 6429 H 586.666 -3.2145 -1.76254 0
M  V30 6430 H 586.314 -2.77023 -4.19842 0
M  V30 6431 H 586.014 -4.48077 -3.80132 0
M  V30 6432 H 587.538 -4.00897 -4.60558 0
M  V30 6433 H 588.952 -5.10213 -2.61449 0
M  V30 6434 H 587.349 -5.64425 -2.03823 0
M  V30 6435 H 588.419 -4.75753 -0.937402 0
M  V30 6436 N 589.762 0.448376 -1.51087 0
M  V30 6437 C 591.009 1.19872 -1.63209 0
M  V30 6438 C 591.337 1.91451 -0.343062 0
M  V30 6439 O 590.592 1.83789 0.672321 0
M  V30 6440 C 590.891 2.24866 -2.77795 0
M  V30 6441 C 590.557 1.70378 -4.17471 0
M  V30 6442 C 589.219 1.55241 -4.55471 0
M  V30 6443 C 591.571 1.30203 -5.04675 0
M  V30 6444 C 588.899 0.983844 -5.78392 0
M  V30 6445 C 591.251 0.747798 -6.28165 0
M  V30 6446 C 589.915 0.583233 -6.64947 0
M  V30 6447 H 589.185 0.438642 -0.597222 0
M  V30 6448 H 591.832 0.49136 -1.85089 0
M  V30 6449 H 590.137 3.01598 -2.50092 0
M  V30 6450 H 591.834 2.82723 -2.84374 0
M  V30 6451 H 588.424 1.83134 -3.87505 0
M  V30 6452 H 592.608 1.40723 -4.75932 0
M  V30 6453 H 587.864 0.844007 -6.05546 0
M  V30 6454 H 592.038 0.427927 -6.95084 0
M  V30 6455 H 589.665 0.140532 -7.6007 0
M  V30 6456 N 591.24 1.41047 0.703093 0
M  V30 6457 C 592.47 1.43133 1.48985 0
M  V30 6458 C 592.878 0.0328537 1.89171 0
M  V30 6459 O 592.221 -0.956469 1.56835 0
M  V30 6460 C 592.283 2.26991 2.78775 0
M  V30 6461 C 591.947 3.7525 2.60837 0
M  V30 6462 C 592.944 4.67591 2.27276 0
M  V30 6463 C 590.629 4.19208 2.76712 0
M  V30 6464 C 592.623 6.01877 2.09817 0
M  V30 6465 C 590.31 5.53561 2.5887 0
M  V30 6466 C 591.308 6.4471 2.25472 0
M  V30 6467 O 590.996 7.76584 2.07778 0
M  V30 6468 H 590.728 0.489788 0.465922 0
M  V30 6469 H 593.282 1.85886 0.873822 0
M  V30 6470 H 591.512 1.79038 3.42757 0
M  V30 6471 H 593.201 2.20867 3.40547 0
M  V30 6472 H 593.967 4.34923 2.14633 0
M  V30 6473 H 589.846 3.48572 3.01693 0
M  V30 6474 H 593.39 6.72986 1.83671 0
M  V30 6475 H 589.287 5.85811 2.71102 0
M  V30 6476 H 590.055 7.87649 2.22601 0
M  V30 6477 N 592.718 -0.936591 1.26751 0
M  V30 6478 C 593.958 -1.69796 1.13792 0
M  V30 6479 C 594.322 -1.89437 -0.312671 0
M  V30 6480 O 595.523 -2.62806 -0.564489 0
M  V30 6481 C 593.794 -3.03297 1.89065 0
M  V30 6482 S 595.353 -3.94461 1.92214 0
M  V30 6483 H 592.171 -0.583412 0.406389 0
M  V30 6484 H 594.773 -1.11575 1.60535 0
M  V30 6485 H 593.477 -2.86687 2.93665 0
M  V30 6486 H 593.008 -3.66575 1.42781 0
M  V30 6487 H 595.023 -4.85767 1.01215 0
M  V30 6488 N 594.196 -1.08629 -1.14182 0
M  V30 6489 C 595.143 -0.718299 -2.19338 0
M  V30 6490 C 596.113 0.296587 -1.63431 0
M  V30 6491 O 597.298 0.180079 -1.89948 0
M  V30 6492 C 594.438 -0.136203 -3.44831 0
M  V30 6493 C 593.551 -1.20414 -4.14879 0
M  V30 6494 C 592.686 -0.585666 -5.27962 0
M  V30 6495 C 591.725 -1.63548 -5.89846 0
M  V30 6496 N 590.862 -1.03864 -6.94375 0
M  V30 6497 H 595.702 -1.61932 -2.50164 0
M  V30 6498 H 593.239 -0.80919 -1.22844 0
M  V30 6499 H 595.197 0.219021 -4.16625 0
M  V30 6500 H 593.827 0.728121 -3.14481 0
M  V30 6501 H 592.879 -1.67676 -3.41451 0
M  V30 6502 H 594.191 -1.99959 -4.56966 0
M  V30 6503 H 593.345 -0.178818 -6.06436 0
M  V30 6504 H 592.084 0.24142 -4.87102 0
M  V30 6505 H 591.089 -2.05197 -5.10073 0
M  V30 6506 H 592.314 -2.46509 -6.3278 0
M  V30 6507 H 590.26 -0.232687 -6.55587 0
M  V30 6508 H 590.177 -1.77116 -7.3496 0
M  V30 6509 H 591.445 -0.657724 -7.7672 0
M  V30 6510 N 595.674 1.31259 -0.872281 0
M  V30 6511 C 596.951 1.91362 -0.404943 0
M  V30 6512 C 597.331 1.79362 1.11321 0
M  V30 6513 O 596.679 1.20277 1.94283 0
M  V30 6514 C 596.889 3.3749 -0.888893 0
M  V30 6515 C 598.237 4.14593 -0.916384 0
M  V30 6516 O 599.261 3.46282 -0.834701 0
M  V30 6517 O 598.12 5.3661 -1.03498 0
M  V30 6518 H 595.214 0.818016 -0.121569 0
M  V30 6519 H 597.76 1.39912 -0.960346 0
M  V30 6520 H 596.532 3.40249 -1.93251 0
M  V30 6521 H 596.155 3.96375 -0.311932 0
M  V30 6522 N 597.152 0.631951 1.44375 0
M  V30 6523 C 598.099 -0.0724807 2.30686 0
M  V30 6524 C 599.069 -0.835975 1.43529 0
M  V30 6525 O 600.254 -0.816849 1.7243 0
M  V30 6526 C 597.394 -1.04753 3.28817 0
M  V30 6527 C 596.507 -0.282367 4.31076 0
M  V30 6528 C 595.642 -1.2493 5.163 0
M  V30 6529 C 594.681 -0.473349 6.10267 0
M  V30 6530 N 593.818 -1.39079 6.88187 0
M  V30 6531 H 598.658 0.669477 2.90383 0
M  V30 6532 H 596.195 0.341927 1.43071 0
M  V30 6533 H 598.153 -1.62623 3.842 0
M  V30 6534 H 596.783 -1.75661 2.70819 0
M  V30 6535 H 595.835 0.412268 3.78159 0
M  V30 6536 H 597.147 0.321955 4.9776 0
M  V30 6537 H 596.301 -1.89931 5.76204 0
M  V30 6538 H 595.04 -1.88755 4.49692 0
M  V30 6539 H 594.045 0.190142 5.49471 0
M  V30 6540 H 595.27 0.16019 6.78911 0
M  V30 6541 H 593.216 -2.01623 6.24247 0
M  V30 6542 H 593.133 -0.840513 7.51313 0
M  V30 6543 H 594.401 -2.02961 7.52613 0
M  V30 6544 N 598.631 -1.53133 0.372548 0
M  V30 6545 C 599.563 -2.23557 -0.505444 0
M  V30 6546 C 600.576 -1.25211 -1.04049 0
M  V30 6547 O 601.765 -1.51391 -0.945675 0
M  V30 6548 C 598.865 -2.92516 -1.71136 0
M  V30 6549 C 598.038 -4.17428 -1.30661 0
M  V30 6550 C 597.097 -4.69535 -2.37536 0
M  V30 6551 O 596.123 -5.33042 -1.99637 0
M  V30 6552 N 597.325 -4.47947 -3.6922 0
M  V30 6553 H 600.09 -2.9954 0.0978259 0
M  V30 6554 H 597.651 -1.60684 0.198068 0
M  V30 6555 H 599.643 -3.24281 -2.42124 0
M  V30 6556 H 598.213 -2.19944 -2.22134 0
M  V30 6557 H 597.433 -3.91888 -0.426292 0
M  V30 6558 H 598.721 -4.98622 -1.01259 0
M  V30 6559 H 598.119 -3.97219 -4.02783 0
M  V30 6560 H 596.676 -4.84245 -4.36292 0
M  V30 6561 N 600.109 -0.101901 -1.5727 0
M  V30 6562 C 601.358 0.559922 -1.93772 0
M  V30 6563 C 601.671 1.68913 -0.98629 0
M  V30 6564 O 602.877 2.41256 -1.24529 0
M  V30 6565 C 601.333 1.04739 -3.44322 0
M  V30 6566 C 600.941 -0.05243 -4.47969 0
M  V30 6567 C 602.685 1.68157 -3.89774 0
M  V30 6568 C 600.592 0.450781 -5.8968 0
M  V30 6569 H 599.522 0.212931 -0.723309 0
M  V30 6570 H 602.173 -0.179001 -1.82625 0
M  V30 6571 H 600.555 1.84021 -3.50645 0
M  V30 6572 H 601.729 -0.828157 -4.53297 0
M  V30 6573 H 600.044 -0.592202 -4.12167 0
M  V30 6574 H 602.641 2.0689 -4.93052 0
M  V30 6575 H 602.984 2.55338 -3.28798 0
M  V30 6576 H 603.517 0.954453 -3.8618 0
M  V30 6577 H 600.256 -0.38458 -6.54371 0
M  V30 6578 H 599.776 1.19336 -5.87809 0
M  V30 6579 H 601.455 0.917555 -6.40461 0
M  V30 6580 N 601.587 1.56661 0.17182 0
M  V30 6581 C 602.827 1.83762 0.895029 0
M  V30 6582 C 603.191 0.682752 1.79451 0
M  V30 6583 O 604.392 0.834208 2.55528 0
M  V30 6584 C 602.663 3.15976 1.67015 0
M  V30 6585 S 604.222 3.64558 2.44219 0
M  V30 6586 H 601.04 0.644713 0.299778 0
M  V30 6587 H 603.642 1.94871 0.156701 0
M  V30 6588 H 602.346 3.98021 1.00039 0
M  V30 6589 H 601.877 3.07807 2.44986 0
M  V30 6590 H 603.892 3.31845 3.68909 0
M  V30 6591 N 603.065 -0.440357 1.51323 0
M  V30 6592 C 603.995 -1.54174 1.75364 0
M  V30 6593 C 604.976 -1.59039 0.603375 0
M  V30 6594 O 606.161 -1.74815 0.845774 0
M  V30 6595 C 603.291 -2.92277 1.87593 0
M  V30 6596 C 602.245 -3.02274 3.03009 0
M  V30 6597 C 601.571 -4.42327 3.00418 0
M  V30 6598 C 602.871 -2.76634 4.43024 0
M  V30 6599 H 604.565 -1.34307 2.67585 0
M  V30 6600 H 602.111 -0.644678 1.28763 0
M  V30 6601 H 604.064 -3.69284 2.02995 0
M  V30 6602 H 602.788 -3.13369 0.920179 0
M  V30 6603 H 601.447 -2.27706 2.87307 0
M  V30 6604 H 601.095 -4.60382 2.02626 0
M  V30 6605 H 600.795 -4.49946 3.77918 0
M  V30 6606 H 602.319 -5.21312 3.17909 0
M  V30 6607 H 603.733 -3.43376 4.59093 0
M  V30 6608 H 602.13 -2.95666 5.22208 0
M  V30 6609 H 603.2 -1.72262 4.5327 0
M  V30 6610 N 604.543 -1.41418 -0.695603 0
M  V30 6611 C 605.773 -1.43921 -1.48224 0
M  V30 6612 C 606.181 -0.0428855 -1.89151 0
M  V30 6613 O 605.524 0.948138 -1.5734 0
M  V30 6614 C 605.586 -2.28466 -2.77567 0
M  V30 6615 C 605.25 -3.76629 -2.58844 0
M  V30 6616 C 606.247 -4.6879 -2.24793 0
M  V30 6617 C 603.932 -4.2067 -2.74485 0
M  V30 6618 C 605.926 -6.02981 -2.06622 0
M  V30 6619 C 603.613 -5.54926 -2.55931 0
M  V30 6620 C 604.611 -6.45897 -2.2205 0
M  V30 6621 O 604.299 -7.77675 -2.03657 0
M  V30 6622 H 604.031 -0.492252 -0.463318 0
M  V30 6623 H 606.585 -1.86347 -0.863952 0
M  V30 6624 H 604.815 -1.80853 -3.41802 0
M  V30 6625 H 606.504 -2.2267 -3.39371 0
M  V30 6626 H 607.27 -4.36055 -2.12323 0
M  V30 6627 H 603.149 -3.50167 -2.9984 0
M  V30 6628 H 606.693 -6.73951 -1.80099 0
M  V30 6629 H 602.59 -5.8724 -2.67991 0
M  V30 6630 H 603.358 -7.88819 -2.1842 0
M  V30 6631 N 606.021 0.929856 -1.27246 0
M  V30 6632 C 607.298 1.65544 -1.04186 0
M  V30 6633 C 607.678 2.06796 0.424097 0
M  V30 6634 O 607.026 1.80053 1.40688 0
M  V30 6635 C 607.236 2.85912 -2.00138 0
M  V30 6636 C 608.584 3.57305 -2.29387 0
M  V30 6637 O 609.608 2.96036 -1.98094 0
M  V30 6638 O 608.467 4.67688 -2.82719 0
M  V30 6639 H 605.561 0.725473 -0.397011 0
M  V30 6640 H 608.107 0.980583 -1.38501 0
M  V30 6641 H 606.879 2.52403 -2.99013 0
M  V30 6642 H 606.502 3.61118 -1.66371 0
M  V30 6643 N 607.499 1.09233 1.13605 0
M  V30 6644 C 608.748 0.82205 1.84188 0
M  V30 6645 C 609.061 -0.654548 1.84323 0
M  V30 6646 O 610.267 -1.04029 2.50779 0
M  V30 6647 C 608.723 1.42066 3.30674 0
M  V30 6648 C 608.331 2.92965 3.38933 0
M  V30 6649 C 610.075 1.22924 4.06313 0
M  V30 6650 C 607.982 3.45922 4.79679 0
M  V30 6651 H 606.912 0.303854 0.690064 0
M  V30 6652 H 609.563 1.31479 1.28006 0
M  V30 6653 H 607.945 0.855613 3.86646 0
M  V30 6654 H 609.119 3.55679 2.92966 0
M  V30 6655 H 607.434 3.11118 2.76757 0
M  V30 6656 H 610.031 1.59945 5.10217 0
M  V30 6657 H 610.374 0.169726 4.15954 0
M  V30 6658 H 610.907 1.76168 3.56665 0
M  V30 6659 H 607.646 4.51484 4.75229 0
M  V30 6660 H 607.166 2.87971 5.26149 0
M  V30 6661 H 608.845 3.43009 5.48592 0
M  V30 6662 N 608.977 -1.30795 0.87923 0
M  V30 6663 C 610.226 -1.95636 0.490875 0
M  V30 6664 C 610.539 -1.70214 -0.963674 0
M  V30 6665 O 611.745 -2.28991 -1.45861 0
M  V30 6666 C 610.201 -3.50271 0.826929 0
M  V30 6667 C 609.809 -3.84521 2.29886 0
M  V30 6668 C 611.553 -4.21456 0.507494 0
M  V30 6669 C 609.46 -5.32309 2.57685 0
M  V30 6670 H 608.39 -0.732238 0.179841 0
M  V30 6671 H 611.041 -1.48829 1.07341 0
M  V30 6672 H 609.423 -3.9562 0.173542 0
M  V30 6673 H 610.597 -3.50102 2.99609 0
M  V30 6674 H 608.912 -3.26425 2.58526 0
M  V30 6675 H 611.509 -5.30199 0.692293 0
M  V30 6676 H 611.852 -4.12614 -0.552718 0
M  V30 6677 H 612.385 -3.81772 1.11782 0
M  V30 6678 H 609.124 -5.46195 3.62424 0
M  V30 6679 H 608.644 -5.68048 1.92566 0
M  V30 6680 H 610.323 -5.99678 2.42889 0
M  V30 6681 N 610.455 -0.639598 -1.44038 0
M  V30 6682 C 611.402 0.0602458 -2.30721 0
M  V30 6683 C 612.372 0.828352 -1.43971 0
M  V30 6684 O 613.557 0.807693 -1.72861 0
M  V30 6685 C 610.697 1.03008 -3.29368 0
M  V30 6686 C 609.81 0.259502 -4.3122 0
M  V30 6687 C 608.945 1.22191 -5.16955 0
M  V30 6688 C 607.984 0.440978 -6.10509 0
M  V30 6689 N 607.121 1.35428 -6.88915 0
M  V30 6690 H 611.961 -0.684867 -2.90023 0
M  V30 6691 H 609.498 -0.349509 -1.42888 0
M  V30 6692 H 611.456 1.60583 -3.85057 0
M  V30 6693 H 610.086 1.74222 -2.71747 0
M  V30 6694 H 609.138 -0.432317 -3.77935 0
M  V30 6695 H 610.45 -0.348347 -4.97582 0
M  V30 6696 H 609.604 1.86873 -5.77203 0
M  V30 6697 H 608.343 1.86367 -4.50687 0
M  V30 6698 H 607.348 -0.219279 -5.49363 0
M  V30 6699 H 608.573 -0.196192 -6.78817 0
M  V30 6700 H 606.519 1.9831 -6.25307 0
M  V30 6701 H 606.436 0.800657 -7.51748 0
M  V30 6702 H 607.704 1.98967 -7.53679 0
M  V30 6703 N 611.933 1.52934 -0.380664 0
M  V30 6704 C 613.21 1.93845 0.261417 0
M  V30 6705 C 613.59 1.31544 1.65104 0
M  V30 6706 O 612.938 0.480234 2.23397 0
M  V30 6707 C 613.148 3.47739 0.296466 0
M  V30 6708 C 614.496 4.21284 0.529578 0
M  V30 6709 O 615.52 3.54199 0.377041 0
M  V30 6710 O 614.379 5.40195 0.827753 0
M  V30 6711 H 611.473 0.811318 0.160285 0
M  V30 6712 H 614.019 1.64042 -0.434544 0
M  V30 6713 H 612.791 3.85395 -0.67724 0
M  V30 6714 H 612.414 3.8382 1.0377 0
M  V30 6715 N 613.412 0.11024 1.57214 0
M  V30 6716 C 614.64 -0.557834 1.99238 0
M  V30 6717 C 615.055 -1.60778 0.989734 0
M  V30 6718 O 614.412 -1.82491 -0.0186092 0
M  V30 6719 C 614.463 -1.19189 3.41286 0
M  V30 6720 O 614.184 -0.183919 4.37714 0
M  V30 6721 C 615.685 -1.94413 3.98395 0
M  V30 6722 H 612.905 -0.148392 0.654386 0
M  V30 6723 H 615.449 0.193996 2.03578 0
M  V30 6724 H 613.604 -1.89456 3.37913 0
M  V30 6725 H 614.018 -0.643475 5.20538 0
M  V30 6726 H 615.492 -2.34116 4.99894 0
M  V30 6727 H 615.969 -2.81592 3.3705 0
M  V30 6728 H 616.575 -1.28928 4.05287 0
M  V30 6729 N 614.89 -1.56749 -0.16351 0
M  V30 6730 C 615.838 -1.97939 -1.22159 0
M  V30 6731 C 616.832 -0.869288 -1.45395 0
M  V30 6732 O 618.038 -1.05443 -1.45883 0
M  V30 6733 H 614.413 -0.629869 -0.410815 0
M  V30 6734 H 616.384 -2.86115 -0.847381 0
M  V30 6735 C 615.133 -2.36206 -2.55151 0
M  V30 6736 H 614.456 -3.2117 -2.38097 0
M  V30 6737 H 615.896 -2.68863 -3.27854 0
M  V30 6738 C 614.355 -1.20841 -3.14482 0
M  V30 6739 O 614.885 -0.500258 -3.98573 0
M  V30 6740 N 613.091 -0.976943 -2.73686 0
M  V30 6741 H 612.638 -1.55457 -2.05404 0
M  V30 6742 H 612.596 -0.206912 -3.13718 0
M  V30 6743 N 616.368 0.432326 -1.51554 0
M  V30 6744 C 617.596 1.20364 -1.68286 0
M  V30 6745 C 618.011 1.84888 -0.38233 0
M  V30 6746 O 617.368 1.70924 0.639627 0
M  V30 6747 C 617.419 2.28398 -2.80208 0
M  V30 6748 O 617.14 1.66512 -4.05223 0
M  V30 6749 C 618.641 3.18584 -3.08251 0
M  V30 6750 H 615.861 0.36259 -0.564596 0
M  V30 6751 H 618.405 0.511647 -1.97996 0
M  V30 6752 H 616.56 2.93305 -2.53083 0
M  V30 6753 H 616.974 2.37951 -4.67418 0
M  V30 6754 H 618.448 3.90511 -3.90135 0
M  V30 6755 H 618.925 3.79628 -2.2086 0
M  V30 6756 H 619.531 2.59372 -3.37055 0
M  V30 6757 N 617.846 1.41785 0.688094 0
M  V30 6758 C 619.074 1.44915 1.47673 0
M  V30 6759 C 619.489 0.0565786 1.88715 0
M  V30 6760 O 618.846 -0.92579 1.57275 0
M  V30 6761 C 618.897 2.36452 2.73446 0
M  V30 6762 O 618.618 3.7029 2.34131 0
M  V30 6763 C 620.119 2.48463 3.67125 0
M  V30 6764 H 617.339 0.493324 0.454832 0
M  V30 6765 H 619.883 1.86153 0.846594 0
M  V30 6766 H 618.038 1.98502 3.3268 0
M  V30 6767 H 618.452 4.19183 3.15255 0
M  V30 6768 H 619.926 3.16662 4.52138 0
M  V30 6769 H 620.403 1.51826 4.12123 0
M  V30 6770 H 621.009 2.8708 3.13792 0
M  V30 6771 N 619.324 -0.923095 1.27737 0
M  V30 6772 C 620.254 -2.04124 1.13383 0
M  V30 6773 C 621.235 -1.70066 0.0340658 0
M  V30 6774 O 622.42 -1.93068 0.209383 0
M  V30 6775 C 619.55 -3.3831 0.785097 0
M  V30 6776 C 618.504 -3.86496 1.8386 0
M  V30 6777 C 617.83 -5.1754 1.34373 0
M  V30 6778 C 619.13 -4.09381 3.24353 0
M  V30 6779 H 620.824 -2.1639 2.06919 0
M  V30 6780 H 618.37 -1.03976 0.996243 0
M  V30 6781 H 620.323 -4.16016 0.671485 0
M  V30 6782 H 619.047 -3.2607 -0.185969 0
M  V30 6783 H 617.706 -3.10987 1.9412 0
M  V30 6784 H 617.354 -5.01696 0.361989 0
M  V30 6785 H 617.054 -5.50751 2.04811 0
M  V30 6786 H 618.578 -5.97811 1.24315 0
M  V30 6787 H 619.992 -4.77641 3.17067 0
M  V30 6788 H 618.389 -4.53906 3.92542 0
M  V30 6789 H 619.459 -3.14515 3.69064 0
M  V30 6790 N 620.802 -1.09834 -1.13024 0
M  V30 6791 C 622.042 -0.846664 -1.8604 0
M  V30 6792 C 622.406 0.616557 -1.81831 0
M  V30 6793 O 623.607 0.984329 -2.50129 0
M  V30 6794 C 621.878 -1.37228 -3.30005 0
M  V30 6795 S 623.437 -1.25511 -4.20467 0
M  V30 6796 H 620.255 -0.30611 -0.64173 0
M  V30 6797 H 622.857 -1.40255 -1.36194 0
M  V30 6798 H 621.561 -2.43138 -3.30624 0
M  V30 6799 H 621.092 -0.81271 -3.84914 0
M  V30 6800 H 623.107 -0.208762 -4.95761 0
M  V30 6801 N 622.28 1.30327 -0.886154 0
M  V30 6802 C 623.691 1.78243 -0.555554 0
M  V30 6803 C 624.042 1.72849 0.928314 0
M  V30 6804 O 623.167 1.30607 1.72542 0
M  V30 6805 C 623.762 3.23654 -1.00168 0
M  V30 6806 C 622.321 3.69401 -0.722471 0
M  V30 6807 C 621.468 2.50753 -1.18399 0
M  V30 6808 H 624.419 1.1718 -1.07026 0
M  V30 6809 H 624.44 3.79056 -0.331152 0
M  V30 6810 H 623.952 3.27548 -2.08169 0
M  V30 6811 H 622.053 3.70995 0.345496 0
M  V30 6812 H 622.166 4.60818 -1.31085 0
M  V30 6813 H 620.53 2.47452 -0.603303 0
M  V30 6814 H 621.313 2.57383 -2.27176 0
M  V30 6815 N 623.758 0.647228 1.43697 0
M  V30 6816 C 625.004 0.158422 2.0218 0
M  V30 6817 C 625.337 -1.22233 1.50907 0
M  V30 6818 O 624.612 -1.81478 0.699702 0
M  V30 6819 C 624.895 0.1627 3.59732 0
M  V30 6820 C 624.748 1.57694 4.21251 0
M  V30 6821 C 626.067 -0.504138 4.37203 0
M  V30 6822 H 623.186 0.059042 0.734631 0
M  V30 6823 H 625.828 0.826772 1.71069 0
M  V30 6824 H 623.978 -0.406414 3.86368 0
M  V30 6825 H 625.65 2.19618 4.05667 0
M  V30 6826 H 623.893 2.12603 3.7813 0
M  V30 6827 H 624.564 1.53183 5.3032 0
M  V30 6828 H 627.04 -0.0199841 4.16095 0
M  V30 6829 H 625.916 -0.470394 5.46881 0
M  V30 6830 H 626.177 -1.57726 4.13007 0
M  V30 6831 N 625.236 -1.5273 0.388769 0
M  V30 6832 C 626.652 -1.59553 0.0387049 0
M  V30 6833 C 626.852 -1.40278 -1.44652 0
M  V30 6834 O 625.908 -1.21951 -2.21098 0
M  V30 6835 C 627.221 -2.9625 0.515409 0
M  V30 6836 C 628.769 -3.09426 0.471621 0
M  V30 6837 C 629.244 -4.48572 0.924505 0
M  V30 6838 N 630.735 -4.54754 0.880496 0
M  V30 6839 C 631.47 -5.60653 1.20234 0
M  V30 6840 N 630.966 -6.74198 1.59463 0
M  V30 6841 N 632.759 -5.50755 1.12363 0
M  V30 6842 H 624.91 -1.63508 1.35569 0
M  V30 6843 H 627.173 -0.768097 0.555636 0
M  V30 6844 H 626.879 -3.15569 1.5527 0
M  V30 6845 H 626.753 -3.77102 -0.085792 0
M  V30 6846 H 629.14 -2.89804 -0.556588 0
M  V30 6847 H 629.221 -2.30528 1.10862 0
M  V30 6848 H 628.865 -4.68936 1.95094 0
M  V30 6849 H 628.795 -5.25935 0.264524 0
M  V30 6850 H 631.286 -3.73237 0.591815 0
M  V30 6851 H 631.599 -7.5097 1.82385 0
M  V30 6852 H 629.944 -6.75531 1.63349 0
M  V30 6853 H 633.135 -4.6093 0.816169 0
M  V30 6854 H 633.308 -6.33184 1.37777 0
M  V30 6855 N 626.714 -0.118576 -1.57153 0
M  V30 6856 C 627.661 0.831789 -2.1529 0
M  V30 6857 C 628.631 1.26385 -1.07778 0
M  V30 6858 O 629.816 1.34144 -1.35684 0
M  V30 6859 C 626.956 2.07664 -2.75626 0
M  V30 6860 C 626.069 1.69298 -3.97444 0
M  V30 6861 C 625.204 2.88747 -4.45868 0
M  V30 6862 C 624.243 2.46619 -5.60219 0
M  V30 6863 N 623.38 3.5898 -6.03389 0
M  V30 6864 H 628.22 0.329183 -2.96176 0
M  V30 6865 H 625.757 0.150792 -1.46325 0
M  V30 6866 H 627.715 2.80601 -3.08738 0
M  V30 6867 H 626.345 2.55384 -1.97431 0
M  V30 6868 H 625.397 0.862374 -3.70496 0
M  V30 6869 H 626.709 1.34338 -4.80369 0
M  V30 6870 H 625.863 3.69909 -4.80887 0
M  V30 6871 H 624.602 3.26933 -3.61892 0
M  V30 6872 H 623.607 1.63889 -5.24805 0
M  V30 6873 H 624.832 2.0955 -6.45961 0
M  V30 6874 H 622.778 3.9684 -5.22354 0
M  V30 6875 H 622.695 3.27942 -6.81168 0
M  V30 6876 H 623.963 4.40583 -6.43045 0
M  V30 6877 N 628.193 1.56834 0.155195 0
M  V30 6878 C 629.423 1.86778 0.883044 0
M  V30 6879 C 629.831 0.703824 1.75622 0
M  V30 6880 O 629.174 -0.33581 1.80605 0
M  V30 6881 C 629.236 3.1133 1.79761 0
M  V30 6882 C 628.9 4.43504 1.10242 0
M  V30 6883 C 629.897 5.17859 0.460204 0
M  V30 6884 C 627.582 4.90233 1.09437 0
M  V30 6885 C 629.576 6.37144 -0.180782 0
M  V30 6886 C 627.263 6.09444 0.449569 0
M  V30 6887 C 628.261 6.82744 -0.186888 0
M  V30 6888 O 627.949 7.99692 -0.821486 0
M  V30 6889 H 627.681 0.62352 0.261149 0
M  V30 6890 H 630.235 2.04813 0.155204 0
M  V30 6891 H 628.465 2.89282 2.56618 0
M  V30 6892 H 630.154 3.27587 2.39669 0
M  V30 6893 H 630.92 4.8283 0.458289 0
M  V30 6894 H 626.799 4.33109 1.57917 0
M  V30 6895 H 630.343 6.94296 -0.678154 0
M  V30 6896 H 626.24 6.43936 0.449123 0
M  V30 6897 H 627.008 8.15306 -0.722337 0
M  V30 6898 N 629.671 -0.424282 1.51781 0
M  V30 6899 C 630.919 -1.17028 1.64769 0
M  V30 6900 C 631.24 -1.91409 0.372523 0
M  V30 6901 O 630.51 -1.86091 -0.612108 0
M  V30 6902 H 629.09 -0.434992 0.607282 0
M  V30 6903 H 631.752 -0.485169 1.88765 0
M  V30 6904 H 630.848 -1.8927 2.4816 0
M  V30 6905 N 631.149 -1.42148 -0.680565 0
M  V30 6906 C 632.097 -1.45401 -1.81552 0
M  V30 6907 C 633.091 -0.33036 -1.66147 0
M  V30 6908 O 634.297 -0.503103 -1.72826 0
M  V30 6909 H 630.672 -0.455265 -0.59853 0
M  V30 6910 H 632.643 -2.41024 -1.75926 0
M  V30 6911 C 631.392 -1.36769 -3.19671 0
M  V30 6912 H 630.715 -2.22525 -3.32149 0
M  V30 6913 H 632.155 -1.43106 -3.9912 0
M  V30 6914 C 630.614 -0.0817752 -3.36801 0
M  V30 6915 O 631.144 0.867707 -3.92216 0
M  V30 6916 N 629.35 -0.000799811 -2.906 0
M  V30 6917 H 628.897 -0.774231 -2.4569 0
M  V30 6918 H 628.855 0.858961 -3.02439 0
M  V30 6919 N 632.627 0.916307 -1.28225 0
M  V30 6920 C 633.873 1.66765 -1.154 0
M  V30 6921 C 634.206 1.91912 0.297251 0
M  V30 6922 O 633.481 1.51766 1.21644 0
M  V30 6923 C 633.764 3.02715 -1.95028 0
M  V30 6924 C 633.617 2.84738 -3.48201 0
M  V30 6925 C 634.936 4.03215 -1.76369 0
M  V30 6926 H 632.055 0.605205 -0.42059 0
M  V30 6927 H 634.697 1.06255 -1.57512 0
M  V30 6928 H 632.847 3.54365 -1.59242 0
M  V30 6929 H 634.519 2.40118 -3.9388 0
M  V30 6930 H 632.762 2.19848 -3.73964 0
M  V30 6931 H 633.433 3.8127 -3.99171 0
M  V30 6932 H 635.909 3.60617 -2.07593 0
M  V30 6933 H 634.785 4.96306 -2.34459 0
M  V30 6934 H 635.046 4.36288 -0.71452 0
M  V30 6935 N 634.105 1.10431 1.1244 0
M  V30 6936 C 635.038 0.696987 2.17296 0
M  V30 6937 C 636.016 -0.301673 1.59777 0
M  V30 6938 O 637.2 -0.200583 1.8743 0
M  V30 6939 C 634.327 0.0284094 3.38688 0
M  V30 6940 C 633.373 0.990536 4.14838 0
M  V30 6941 S 634.206 2.50785 4.73146 0
M  V30 6942 C 635.362 1.85198 5.97873 0
M  V30 6943 H 635.595 1.58523 2.51511 0
M  V30 6944 H 633.128 0.921312 1.239 0
M  V30 6945 H 635.086 -0.351009 4.08997 0
M  V30 6946 H 633.747 -0.836629 3.02753 0
M  V30 6947 H 632.94 0.469991 5.01804 0
M  V30 6948 H 632.542 1.31186 3.50237 0
M  V30 6949 H 634.834 1.18217 6.67106 0
M  V30 6950 H 635.777 2.7012 6.54554 0
M  V30 6951 H 636.185 1.31653 5.48933 0
M  V30 6952 N 635.583 -1.29855 0.893053 0
M  V30 6953 C 636.808 -2.00512 0.530066 0
M  V30 6954 C 637.233 -1.66446 -0.876199 0
M  V30 6955 O 636.591 -0.885446 -1.58207 0
M  V30 6956 C 636.639 -3.53308 0.721505 0
M  V30 6957 O 635.743 -4.11764 -0.228994 0
M  V30 6958 H 635.084 -0.630617 0.207891 0
M  V30 6959 H 637.614 -1.6551 1.20282 0
M  V30 6960 H 637.624 -4.03206 0.623599 0
M  V30 6961 H 636.299 -3.77439 1.74678 0
M  V30 6962 H 634.876 -3.72805 -0.0841034 0
M  V30 6963 N 637.061 -0.65484 -1.43351 0
M  V30 6964 C 638.009 0.0476784 -2.32551 0
M  V30 6965 C 639.003 0.811403 -1.48703 0
M  V30 6966 O 640.209 0.721621 -1.64902 0
M  V30 6967 H 636.584 0.0342038 -0.751222 0
M  V30 6968 H 638.555 -0.722342 -2.89525 0
M  V30 6969 C 637.304 0.999251 -3.33032 0
M  V30 6970 H 636.627 0.421005 -3.97577 0
M  V30 6971 H 638.067 1.45986 -3.98076 0
M  V30 6972 C 636.526 2.09606 -2.63756 0
M  V30 6973 O 637.056 3.18004 -2.4543 0
M  V30 6974 N 635.262 1.86207 -2.23103 0
M  V30 6975 H 634.809 0.980555 -2.38208 0
M  V30 6976 H 634.767 2.59787 -1.77081 0
M  V30 6977 N 638.539 1.52521 -0.396863 0
M  V30 6978 C 639.787 2.01274 0.182536 0
M  V30 6979 C 640.108 1.28485 1.46685 0
M  V30 6980 O 639.378 0.407134 1.91623 0
M  V30 6981 H 637.958 0.743671 0.0704442 0
M  V30 6982 H 640.62 1.87547 -0.530289 0
M  V30 6983 H 639.716 3.09687 0.387385 0
M  V30 6984 N 640.017 0.126909 1.57088 0
M  V30 6985 C 641.247 -0.535892 1.99529 0
M  V30 6986 C 641.655 -1.60259 1.00566 0
M  V30 6987 O 640.998 -1.83698 -0.00843269 0
M  V30 6988 C 641.06 -1.21374 3.38391 0
M  V30 6989 C 640.724 -0.294044 4.56053 0
M  V30 6990 C 641.721 0.470454 5.17767 0
M  V30 6991 C 639.406 -0.202808 5.0189 0
M  V30 6992 C 641.4 1.31384 6.23712 0
M  V30 6993 C 639.087 0.644203 6.07695 0
M  V30 6994 C 640.085 1.40115 6.68473 0
M  V30 6995 O 639.773 2.23408 7.72233 0
M  V30 6996 H 639.505 -0.145799 0.66009 0
M  V30 6997 H 642.059 0.212441 2.04298 0
M  V30 6998 H 640.289 -2.00931 3.30399 0
M  V30 6999 H 641.978 -1.77424 3.65069 0
M  V30 7000 H 642.744 0.409884 4.83265 0
M  V30 7001 H 638.623 -0.781688 4.54324 0
M  V30 7002 H 642.167 1.90514 6.71081 0
M  V30 7003 H 638.064 0.706137 6.41626 0
M  V30 7004 H 638.832 2.16436 7.89365 0
M  V30 7005 N 641.495 -1.56914 -0.146875 0
M  V30 7006 C 642.445 -1.94693 -1.18653 0
M  V30 7007 C 643.429 -0.81821 -1.38543 0
M  V30 7008 O 644.621 -1.08167 -1.40103 0
M  V30 7009 C 641.75 -2.33117 -2.52014 0
M  V30 7010 C 640.836 -3.5256 -2.35717 0
M  V30 7011 N 641.227 -4.69091 -1.89175 0
M  V30 7012 C 639.525 -3.57647 -2.66467 0
M  V30 7013 C 640.226 -5.51187 -1.85924 0
M  V30 7014 N 639.202 -4.92899 -2.29242 0
M  V30 7015 H 643.004 -2.82264 -0.81879 0
M  V30 7016 H 640.518 -1.58474 -0.354929 0
M  V30 7017 H 642.515 -2.58387 -3.27172 0
M  V30 7018 H 641.175 -1.46898 -2.89571 0
M  V30 7019 H 642.186 -4.92844 -1.59139 0
M  V30 7020 H 638.863 -2.81967 -3.07898 0
M  V30 7021 H 640.253 -6.54613 -1.51431 0
M  V30 7022 N 642.974 0.416227 -1.52004 0
M  V30 7023 C 643.906 1.52552 -1.71058 0
M  V30 7024 C 644.919 1.51693 -0.59102 0
M  V30 7025 O 646.108 1.56087 -0.865973 0
M  V30 7026 C 643.208 2.91455 -1.72937 0
M  V30 7027 C 642.381 3.16584 -3.01816 0
M  V30 7028 C 641.44 4.35322 -2.95603 0
M  V30 7029 O 640.466 4.32947 -3.6952 0
M  V30 7030 N 641.668 5.40049 -2.12903 0
M  V30 7031 H 644.433 1.36604 -2.66757 0
M  V30 7032 H 641.994 0.60544 -1.50153 0
M  V30 7033 H 643.986 3.68944 -1.66321 0
M  V30 7034 H 642.556 3.00895 -0.847418 0
M  V30 7035 H 641.776 2.27203 -3.22137 0
M  V30 7036 H 643.064 3.30213 -3.87088 0
M  V30 7037 H 642.462 5.44823 -1.52265 0
M  V30 7038 H 641.019 6.16308 -2.1215 0
M  V30 7039 N 644.452 1.42507 0.673017 0
M  V30 7040 C 645.382 1.48916 1.79851 0
M  V30 7041 C 646.363 0.345566 1.66553 0
M  V30 7042 O 647.548 0.560116 1.85947 0
M  V30 7043 C 644.678 1.39258 3.18158 0
M  V30 7044 C 643.632 2.51662 3.46194 0
M  V30 7045 C 642.958 2.27062 4.84094 0
M  V30 7046 C 644.258 3.93968 3.42909 0
M  V30 7047 H 645.952 2.43114 1.74745 0
M  V30 7048 H 643.498 1.17013 0.839288 0
M  V30 7049 H 645.451 1.42349 3.96629 0
M  V30 7050 H 644.175 0.415542 3.23946 0
M  V30 7051 H 642.834 2.47891 2.70084 0
M  V30 7052 H 642.482 1.27648 4.86534 0
M  V30 7053 H 642.182 3.02398 5.03815 0
M  V30 7054 H 643.706 2.31905 5.64847 0
M  V30 7055 H 645.12 3.99332 4.11347 0
M  V30 7056 H 643.517 4.6917 3.74165 0
M  V30 7057 H 644.587 4.20512 2.41449 0
M  V30 7058 N 645.93 -0.909495 1.28709 0
M  V30 7059 C 647.179 -1.65365 1.15487 0
M  V30 7060 C 647.492 -1.93364 -0.294941 0
M  V30 7061 O 648.698 -2.65905 -0.548338 0
M  V30 7062 C 647.154 -2.97923 2.01916 0
M  V30 7063 C 646.762 -2.77556 3.51663 0
M  V30 7064 C 648.506 -3.75814 1.97393 0
M  V30 7065 C 646.413 -4.0578 4.30229 0
M  V30 7066 H 645.343 -0.620323 0.42862 0
M  V30 7067 H 647.994 -1.00894 1.53273 0
M  V30 7068 H 646.376 -3.63552 1.5699 0
M  V30 7069 H 647.55 -2.2058 4.04575 0
M  V30 7070 H 645.865 -2.13072 3.57756 0
M  V30 7071 H 648.462 -4.70866 2.53357 0
M  V30 7072 H 648.805 -4.05277 0.951643 0
M  V30 7073 H 649.338 -3.1701 2.40311 0
M  V30 7074 H 646.077 -3.81488 5.33055 0
M  V30 7075 H 645.597 -4.62351 3.82089 0
M  V30 7076 H 647.276 -4.74004 4.40374 0
M  V30 7077 N 647.408 -1.11026 -1.11852 0
M  V30 7078 C 648.638 -0.877544 -1.87037 0
M  V30 7079 C 649.046 0.575925 -1.80221 0
M  V30 7080 O 648.389 1.40916 -1.17849 0
M  V30 7081 C 648.451 -1.25529 -3.36872 0
M  V30 7082 C 648.115 -2.71704 -3.67459 0
M  V30 7083 C 649.112 -3.69931 -3.65304 0
M  V30 7084 C 646.797 -3.08243 -3.966 0
M  V30 7085 C 648.791 -5.02717 -3.9186 0
M  V30 7086 C 646.478 -4.41215 -4.22815 0
M  V30 7087 C 647.476 -5.38262 -4.20432 0
M  V30 7088 O 647.164 -6.68839 -4.45992 0
M  V30 7089 H 646.896 -0.314374 -0.598452 0
M  V30 7090 H 649.45 -1.48015 -1.42411 0
M  V30 7091 H 647.68 -0.595808 -3.82082 0
M  V30 7092 H 649.369 -0.999064 -3.93413 0
M  V30 7093 H 650.135 -3.43047 -3.42846 0
M  V30 7094 H 646.014 -2.33326 -3.97593 0
M  V30 7095 H 649.558 -5.78456 -3.89916 0
M  V30 7096 H 645.455 -4.67835 -4.44748 0
M  V30 7097 H 646.223 -6.74563 -4.63581 0
M  V30 7098 N 648.886 1.2938 -0.899927 0
M  V30 7099 C 649.834 2.29675 -0.367698 0
M  V30 7100 C 650.828 1.60787 0.533282 0
M  V30 7101 O 652.034 1.75126 0.416058 0
M  V30 7102 H 648.409 0.745284 -0.100279 0
M  V30 7103 H 650.38 2.72008 -1.22696 0
M  V30 7104 C 649.129 3.45512 0.389483 0
M  V30 7105 H 648.452 3.98713 -0.294575 0
M  V30 7106 H 649.892 4.17725 0.726744 0
M  V30 7107 C 648.351 2.969 1.59223 0
M  V30 7108 O 648.881 2.98195 2.69152 0
M  V30 7109 N 647.087 2.52728 1.43447 0
M  V30 7110 H 646.634 2.51873 0.540148 0
M  V30 7111 H 646.592 2.20561 2.24054 0
M  V30 7112 N 650.364 0.662433 1.43002 0
M  V30 7113 C 651.296 -0.062326 2.29115 0
M  V30 7114 C 652.309 -0.777926 1.43011 0
M  V30 7115 O 653.498 -0.634146 1.66856 0
M  V30 7116 C 650.598 -1.11163 3.2015 0
M  V30 7117 C 649.771 -0.472327 4.34842 0
M  V30 7118 C 648.83 -1.41974 5.06685 0
M  V30 7119 O 647.856 -0.924795 5.61637 0
M  V30 7120 N 649.058 -2.75345 5.11043 0
M  V30 7121 H 651.823 0.676838 2.91957 0
M  V30 7122 H 649.384 0.505907 1.53793 0
M  V30 7123 H 651.376 -1.74643 3.65078 0
M  V30 7124 H 649.946 -1.75266 2.58845 0
M  V30 7125 H 649.166 0.341751 3.92716 0
M  V30 7126 H 650.454 -0.0264381 5.08793 0
M  V30 7127 H 649.852 -3.18108 4.67786 0
M  V30 7128 H 648.409 -3.34105 5.59658 0
M  V30 7129 N 651.842 -1.52309 0.404946 0
M  V30 7130 C 653.089 -2.01767 -0.1722 0
M  V30 7131 C 653.417 -1.29075 -1.45498 0
M  V30 7132 O 652.672 -0.3843 -1.9189 0
M  V30 7133 C 652.971 -3.54284 -0.470895 0
M  V30 7134 C 652.637 -4.45079 0.722194 0
M  V30 7135 C 651.299 -4.69617 1.04946 0
M  V30 7136 C 653.651 -4.98555 1.51962 0
M  V30 7137 C 650.979 -5.44878 2.17543 0
M  V30 7138 C 653.331 -5.75049 2.63632 0
M  V30 7139 C 651.995 -5.9786 2.9685 0
M  V30 7140 H 651.265 -0.738316 -0.0630125 0
M  V30 7141 H 653.912 -1.83566 0.545506 0
M  V30 7142 H 652.217 -3.70642 -1.27012 0
M  V30 7143 H 653.914 -3.90058 -0.930346 0
M  V30 7144 H 650.504 -4.26155 0.457131 0
M  V30 7145 H 654.688 -4.79509 1.28002 0
M  V30 7146 H 649.944 -5.60762 2.43631 0
M  V30 7147 H 654.118 -6.15483 3.25813 0
M  V30 7148 H 651.745 -6.5596 3.84215 0
M  V30 7149 N 653.32 -0.135238 -1.57019 0
M  V30 7150 C 654.56 0.521686 -1.9763 0
M  V30 7151 C 654.924 1.62804 -1.01778 0
M  V30 7152 O 656.125 2.345 -1.31389 0
M  V30 7153 C 654.396 1.0257 -3.42365 0
M  V30 7154 S 655.955 1.68888 -4.04997 0
M  V30 7155 H 652.773 0.169064 -0.690607 0
M  V30 7156 H 655.375 -0.224168 -1.94211 0
M  V30 7157 H 654.079 0.209556 -4.09865 0
M  V30 7158 H 653.61 1.80645 -3.49472 0
M  V30 7159 H 655.625 2.97554 -3.97084 0
M  V30 7160 N 654.798 1.5699 0.138552 0
M  V30 7161 C 656.026 1.87976 0.864437 0
M  V30 7162 C 656.441 0.724372 1.74351 0
M  V30 7163 O 655.798 -0.305575 1.79924 0
M  V30 7164 C 655.849 3.18276 1.71414 0
M  V30 7165 O 655.57 4.29365 0.870487 0
M  V30 7166 C 657.071 3.62834 2.54688 0
M  V30 7167 H 654.291 0.622878 0.249528 0
M  V30 7168 H 656.835 2.04094 0.128805 0
M  V30 7169 H 654.99 3.03886 2.40274 0
M  V30 7170 H 655.404 5.03924 1.45466 0
M  V30 7171 H 656.878 4.5682 3.0987 0
M  V30 7172 H 657.355 2.88533 3.31127 0
M  V30 7173 H 657.961 3.79946 1.91105 0
M  V30 7174 N 656.276 -0.40816 1.52223 0
M  V30 7175 C 657.504 -1.17672 1.70179 0
M  V30 7176 C 657.919 -1.84257 0.411696 0
M  V30 7177 O 657.276 -1.7192 -0.612354 0
M  V30 7178 C 657.327 -2.23911 2.83806 0
M  V30 7179 O 657.048 -1.60044 4.0782 0
M  V30 7180 C 658.549 -3.1364 3.13281 0
M  V30 7181 H 655.769 -0.353562 0.570293 0
M  V30 7182 H 658.313 -0.480083 1.98785 0
M  V30 7183 H 656.468 -2.89242 2.57717 0
M  V30 7184 H 656.882 -2.30484 4.71145 0
M  V30 7185 H 658.356 -3.84255 3.96298 0
M  V30 7186 H 658.833 -3.76066 2.26872 0
M  V30 7187 H 659.439 -2.53977 3.41139 0
M  V30 7188 N 657.755 -1.42862 -0.66545 0
M  V30 7189 C 658.985 -1.47032 -1.45138 0
M  V30 7190 C 659.393 -0.0829977 -1.89018 0
M  V30 7191 O 658.736 0.914551 -1.59316 0
M  V30 7192 C 658.798 -2.34302 -2.72659 0
M  V30 7193 C 658.462 -3.82034 -2.50796 0
M  V30 7194 C 659.459 -4.73453 -2.14799 0
M  V30 7195 C 657.144 -4.26397 -2.655 0
M  V30 7196 C 659.138 -6.07228 -1.93785 0
M  V30 7197 C 656.825 -5.6023 -2.44103 0
M  V30 7198 C 657.823 -6.50462 -2.08299 0
M  V30 7199 O 657.511 -7.8182 -1.87116 0
M  V30 7200 H 657.243 -0.501969 -0.452772 0
M  V30 7201 H 659.797 -1.88137 -0.82423 0
M  V30 7202 H 658.027 -1.88063 -3.37889 0
M  V30 7203 H 659.716 -2.29818 -3.34572 0
M  V30 7204 H 660.482 -4.4046 -2.03026 0
M  V30 7205 H 656.361 -3.56448 -2.92345 0
M  V30 7206 H 659.905 -6.7762 -1.65763 0
M  V30 7207 H 655.802 -5.92793 -2.55475 0
M  V30 7208 H 656.57 -7.93274 -2.01639 0
M  V30 7209 N 659.233 0.902656 -1.29189 0
M  V30 7210 C 660.482 1.6475 -1.16362 0
M  V30 7211 C 660.795 1.93517 0.284682 0
M  V30 7212 O 662.001 2.66192 0.534229 0
M  V30 7213 C 660.457 2.96848 -2.03493 0
M  V30 7214 C 660.065 2.75687 -3.5313 0
M  V30 7215 C 661.809 3.74762 -1.99383 0
M  V30 7216 C 659.716 4.03492 -4.32375 0
M  V30 7217 H 658.646 0.618041 -0.431904 0
M  V30 7218 H 661.297 1.0008 -1.53806 0
M  V30 7219 H 659.679 3.62715 -1.58916 0
M  V30 7220 H 660.853 2.18431 -4.05739 0
M  V30 7221 H 659.168 2.11171 -3.58881 0
M  V30 7222 H 661.765 4.69515 -2.5585 0
M  V30 7223 H 662.108 4.04767 -0.973123 0
M  V30 7224 H 662.641 3.15732 -2.41988 0
M  V30 7225 H 659.38 3.78656 -5.3507 0
M  V30 7226 H 658.9 4.60318 -3.84535 0
M  V30 7227 H 660.579 4.71662 -4.42881 0
M  V30 7228 N 660.711 1.11618 1.11262 0
M  V30 7229 C 661.674 0.779447 2.15539 0
M  V30 7230 C 662.674 -0.202081 1.59525 0
M  V30 7231 O 663.864 0.0226356 1.74185 0
M  V30 7232 C 660.996 0.15674 3.40539 0
M  V30 7233 H 662.189 1.70324 2.4684 0
M  V30 7234 H 659.742 0.918298 1.26479 0
M  V30 7235 H 660.477 -0.777186 3.1485 0
M  V30 7236 H 660.262 0.863308 3.82478 0
M  V30 7237 H 661.752 -0.062661 4.17553 0
M  V30 7238 N 662.189 -1.289 0.906776 0
M  V30 7239 C 663.438 -1.9455 0.532262 0
M  V30 7240 C 663.751 -1.72219 -0.927353 0
M  V30 7241 O 664.957 -2.32033 -1.40971 0
M  V30 7242 C 663.413 -3.48438 0.901041 0
M  V30 7243 C 663.021 -3.79558 2.37991 0
M  V30 7244 C 664.765 -4.20284 0.596777 0
M  V30 7245 C 662.672 -5.26723 2.68918 0
M  V30 7246 H 661.602 -0.728259 0.195333 0
M  V30 7247 H 664.253 -1.46519 1.10474 0
M  V30 7248 H 662.635 -3.95162 0.257419 0
M  V30 7249 H 663.809 -3.43668 3.06967 0
M  V30 7250 H 662.124 -3.20868 2.65391 0
M  V30 7251 H 664.721 -5.28612 0.8046 0
M  V30 7252 H 665.064 -4.13694 -0.465072 0
M  V30 7253 H 665.597 -3.79315 1.19855 0
M  V30 7254 H 662.336 -5.38384 3.73928 0
M  V30 7255 H 661.856 -5.63836 2.04571 0
M  V30 7256 H 663.535 -5.94391 2.55555 0
M  V30 7257 N 663.667 -0.670007 -1.42649 0
M  V30 7258 C 664.916 -0.187526 -2.00826 0
M  V30 7259 C 665.229 1.21142 -1.53571 0
M  V30 7260 O 666.435 1.79001 -2.04134 0
M  V30 7261 C 664.891 -0.284409 -3.58774 0
M  V30 7262 C 664.499 -1.6871 -4.15019 0
M  V30 7263 C 666.243 0.139605 -4.2427 0
M  V30 7264 C 664.15 -1.73701 -5.65316 0
M  V30 7265 H 663.08 -0.0663468 -0.751075 0
M  V30 7266 H 665.731 -0.834492 -1.63427 0
M  V30 7267 H 664.113 0.430364 -3.93655 0
M  V30 7268 H 665.287 -2.42857 -3.91608 0
M  V30 7269 H 663.602 -2.05855 -3.61957 0
M  V30 7270 H 666.199 0.122398 -5.3456 0
M  V30 7271 H 666.542 1.17403 -3.99402 0
M  V30 7272 H 667.075 -0.523995 -3.94334 0
M  V30 7273 H 663.814 -2.75109 -5.94975 0
M  V30 7274 H 663.334 -1.03903 -5.90732 0
M  V30 7275 H 665.013 -1.48829 -6.2965 0
M  V30 7276 N 665.145 1.52092 -0.413018 0
M  V30 7277 C 666.392 2.01855 0.161497 0
M  V30 7278 C 666.72 1.29845 1.44812 0
M  V30 7279 O 665.975 0.394471 1.91683 0
M  V30 7280 C 666.274 3.54529 0.4521 0
M  V30 7281 C 665.94 4.4469 -0.745788 0
M  V30 7282 C 664.602 4.69053 -1.07435 0
M  V30 7283 C 666.954 4.97742 -1.54604 0
M  V30 7284 C 664.282 5.43717 -2.20429 0
M  V30 7285 C 666.634 5.73642 -2.66678 0
M  V30 7286 C 665.298 5.96277 -3.00016 0
M  V30 7287 H 664.568 0.73864 0.0590961 0
M  V30 7288 H 667.215 1.83274 -0.555234 0
M  V30 7289 H 665.52 3.7131 1.25045 0
M  V30 7290 H 667.217 3.90546 0.909647 0
M  V30 7291 H 663.807 4.25907 -0.479725 0
M  V30 7292 H 667.991 4.78824 -1.30543 0
M  V30 7293 H 663.247 5.59462 -2.46602 0
M  V30 7294 H 667.421 6.13746 -3.29072 0
M  V30 7295 H 665.048 6.53913 -3.87688 0
M  V30 7296 N 666.623 0.143563 1.56945 0
M  V30 7297 C 667.872 -0.50835 1.95189 0
M  V30 7298 C 668.185 -1.66239 1.03073 0
M  V30 7299 O 669.391 -2.3787 1.30882 0
M  V30 7300 C 667.847 -0.955735 3.46978 0
M  V30 7301 C 667.455 0.171183 4.47673 0
M  V30 7302 C 669.199 -1.57763 3.94095 0
M  V30 7303 C 667.106 -0.294279 5.90667 0
M  V30 7304 H 666.036 -0.193679 0.728701 0
M  V30 7305 H 668.687 0.227357 1.82086 0
M  V30 7306 H 667.069 -1.7466 3.55401 0
M  V30 7307 H 668.243 0.948049 4.50942 0
M  V30 7308 H 666.558 0.701273 4.10452 0
M  V30 7309 H 669.155 -1.93745 4.98364 0
M  V30 7310 H 669.498 -2.46531 3.35452 0
M  V30 7311 H 670.031 -0.851728 3.88575 0
M  V30 7312 H 666.77 0.557939 6.53121 0
M  V30 7313 H 666.29 -1.0371 5.90766 0
M  V30 7314 H 667.969 -0.747426 6.42668 0
M  V30 7315 N 668.101 -1.57061 -0.130224 0
M  V30 7316 C 669.331 -1.88159 -0.853217 0
M  V30 7317 C 669.739 -0.731675 -1.7448 0
M  V30 7318 O 669.082 0.307035 -1.81116 0
M  V30 7319 C 669.144 -3.1415 -1.74785 0
M  V30 7320 C 668.808 -4.45202 -1.03173 0
M  V30 7321 C 669.805 -5.18526 -0.377759 0
M  V30 7322 C 667.49 -4.91912 -1.01624 0
M  V30 7323 C 669.484 -6.36775 0.282123 0
M  V30 7324 C 667.171 -6.10082 -0.352555 0
M  V30 7325 C 668.169 -6.82361 0.295483 0
M  V30 7326 O 667.857 -7.98284 0.948606 0
M  V30 7327 H 667.589 -0.627596 -0.251197 0
M  V30 7328 H 670.143 -2.05034 -0.1226 0
M  V30 7329 H 668.373 -2.93328 -2.51983 0
M  V30 7330 H 670.062 -3.31359 -2.34427 0
M  V30 7331 H 670.828 -4.83498 -0.381417 0
M  V30 7332 H 666.707 -4.35566 -1.51007 0
M  V30 7333 H 670.251 -6.93129 0.788525 0
M  V30 7334 H 666.148 -6.44569 -0.346621 0
M  V30 7335 H 666.916 -8.14054 0.851954 0
M  V30 7336 N 669.579 0.400081 -1.52437 0
M  V30 7337 C 670.526 1.48803 -1.76426 0
M  V30 7338 C 671.496 1.5461 -0.607032 0
M  V30 7339 O 672.681 1.71041 -0.845563 0
M  V30 7340 C 669.821 2.86156 -1.92896 0
M  V30 7341 C 668.934 2.89587 -3.20567 0
M  V30 7342 C 668.069 4.18296 -3.27417 0
M  V30 7343 C 667.108 4.15736 -4.49255 0
M  V30 7344 N 666.245 5.36032 -4.53447 0
M  V30 7345 H 671.085 1.27649 -2.69276 0
M  V30 7346 H 668.622 0.619451 -1.33421 0
M  V30 7347 H 670.58 3.65901 -2.00429 0
M  V30 7348 H 669.21 3.05785 -1.03418 0
M  V30 7349 H 668.262 2.02278 -3.22161 0
M  V30 7350 H 669.574 2.83562 -4.10358 0
M  V30 7351 H 668.728 5.06439 -3.34072 0
M  V30 7352 H 667.467 4.27028 -2.35581 0
M  V30 7353 H 666.472 3.25982 -4.42737 0
M  V30 7354 H 667.697 4.08636 -5.42396 0
M  V30 7355 H 665.643 5.45415 -3.64498 0
M  V30 7356 H 665.56 5.32038 -5.37096 0
M  V30 7357 H 666.828 6.26104 -4.64343 0
M  V30 7358 N 671.057 1.43213 0.657864 0
M  V30 7359 C 671.967 1.50448 1.80007 0
M  V30 7360 C 672.983 0.39191 1.69529 0
M  V30 7361 O 674.159 0.645349 1.90781 0
M  V30 7362 C 671.224 1.42062 3.16258 0
M  V30 7363 C 670.285 2.63951 3.38568 0
M  V30 7364 C 669.518 2.55956 4.68318 0
M  V30 7365 O 669.741 1.60473 5.47361 0
M  V30 7366 O 668.675 3.46378 4.92245 0
M  V30 7367 H 672.501 2.4689 1.76858 0
M  V30 7368 H 670.086 1.25163 0.81576 0
M  V30 7369 H 671.968 1.3981 3.97531 0
M  V30 7370 H 670.643 0.487524 3.20008 0
M  V30 7371 H 669.55 2.71776 2.57077 0
M  V30 7372 H 670.883 3.56217 3.39662 0
M  V30 7373 N 672.536 -0.895792 1.29666 0
M  V30 7374 C 673.813 -1.62723 1.08538 0
M  V30 7375 C 674.193 -2.07848 -0.369119 0
M  V30 7376 O 673.541 -1.8372 -1.35864 0
M  V30 7377 C 673.751 -2.80505 2.07648 0
M  V30 7378 C 675.099 -3.51098 2.3878 0
M  V30 7379 O 676.123 -2.90679 2.05874 0
M  V30 7380 O 674.982 -4.60028 2.9502 0
M  V30 7381 H 672.076 -0.714692 0.416106 0
M  V30 7382 H 674.622 -0.943517 1.41053 0
M  V30 7383 H 673.394 -2.44386 3.05599 0
M  V30 7384 H 673.017 -3.5658 1.75887 0
M  V30 7385 N 674.014 -1.12206 -1.10668 0
M  V30 7386 C 675.239 -0.898938 -1.86906 0
M  V30 7387 C 675.664 0.546346 -1.79991 0
M  V30 7388 O 675.022 1.38655 -1.1681 0
M  V30 7389 C 675.07 -1.37529 -3.33344 0
M  V30 7390 O 674.174 -0.55218 -4.08687 0
M  V30 7391 H 673.515 -0.323163 -0.580053 0
M  V30 7392 H 676.045 -1.49355 -1.39837 0
M  V30 7393 H 676.055 -1.3733 -3.84193 0
M  V30 7394 H 674.73 -2.42767 -3.37693 0
M  V30 7395 H 673.307 -0.620947 -3.67694 0
M  V30 7396 N 675.492 1.28418 -0.913599 0
M  V30 7397 C 676.425 2.25557 -0.346328 0
M  V30 7398 C 677.403 1.53038 0.549366 0
M  V30 7399 O 678.587 1.81937 0.493055 0
M  V30 7400 C 675.714 3.34915 0.504961 0
M  V30 7401 C 674.76 4.25257 -0.325334 0
M  V30 7402 S 675.593 5.06718 -1.73198 0
M  V30 7403 C 676.749 6.19569 -0.887988 0
M  V30 7404 H 676.982 2.73325 -1.16965 0
M  V30 7405 H 674.515 1.36855 -0.714841 0
M  V30 7406 H 676.473 3.98376 0.990301 0
M  V30 7407 H 675.134 2.85814 1.30267 0
M  V30 7408 H 674.327 5.02947 0.325589 0
M  V30 7409 H 673.929 3.66519 -0.744321 0
M  V30 7410 H 676.221 6.77398 -0.117568 0
M  V30 7411 H 677.164 6.88908 -1.63742 0
M  V30 7412 H 677.572 5.62812 -0.436228 0
M  V30 7413 N 676.97 0.677563 1.42291 0
M  V30 7414 C 677.92 -0.0218641 2.2799 0
M  V30 7415 C 678.904 -0.770816 1.41235 0
M  V30 7416 O 680.096 -0.649273 1.64662 0
M  V30 7417 C 677.225 -0.970449 3.29298 0
M  V30 7418 C 676.311 -0.218695 4.23536 0
M  V30 7419 N 676.702 0.777908 4.99782 0
M  V30 7420 C 675 -0.456748 4.43655 0
M  V30 7421 C 675.701 1.22632 5.68627 0
M  V30 7422 N 674.677 0.55573 5.40752 0
M  V30 7423 H 678.479 0.742516 2.84366 0
M  V30 7424 H 675.993 0.506862 1.54288 0
M  V30 7425 H 677.99 -1.48652 3.89497 0
M  V30 7426 H 676.65 -1.73463 2.74483 0
M  V30 7427 H 677.661 1.15754 5.04798 0
M  V30 7428 H 674.338 -1.20021 3.99877 0
M  V30 7429 H 675.728 2.05231 6.39789 0
M  V30 7430 N 678.448 -1.51871 0.421078 0
M  V30 7431 C 679.864 -1.59435 0.0725398 0
M  V30 7432 C 680.064 -1.43315 -1.41644 0
M  V30 7433 O 679.12 -1.26614 -2.18461 0
M  V30 7434 C 680.433 -2.9509 0.578132 0
M  V30 7435 C 681.981 -3.08356 0.537149 0
M  V30 7436 C 682.456 -4.4651 1.01945 0
M  V30 7437 N 683.947 -4.52784 0.976758 0
M  V30 7438 C 684.682 -5.57976 1.32099 0
M  V30 7439 N 684.178 -6.70664 1.73727 0
M  V30 7440 N 685.971 -5.48248 1.2402 0
M  V30 7441 H 678.122 -1.60595 1.39007 0
M  V30 7442 H 680.385 -0.756138 0.571803 0
M  V30 7443 H 680.091 -3.12205 1.61929 0
M  V30 7444 H 679.965 -3.772 -0.00578374 0
M  V30 7445 H 682.352 -2.90919 -0.494991 0
M  V30 7446 H 682.433 -2.28125 1.15727 0
M  V30 7447 H 682.077 -4.64692 2.04997 0
M  V30 7448 H 682.007 -5.25256 0.376023 0
M  V30 7449 H 684.498 -3.71898 0.670851 0
M  V30 7450 H 684.811 -7.46932 1.98274 0
M  V30 7451 H 683.156 -6.71914 1.77641 0
M  V30 7452 H 686.347 -4.59095 0.913756 0
M  V30 7453 H 686.52 -6.30119 1.51176 0
M  V30 7454 N 679.926 -0.151884 -1.56866 0
M  V30 7455 C 681.154 0.504813 -2.00647 0
M  V30 7456 C 681.569 1.58098 -1.03201 0
M  V30 7457 O 680.926 1.82476 -0.0297814 0
M  V30 7458 C 680.977 1.10099 -3.44326 0
M  V30 7459 O 680.698 0.0678021 -4.38048 0
M  V30 7460 C 682.199 1.83782 -4.03409 0
M  V30 7461 H 679.419 0.130989 -0.65809 0
M  V30 7462 H 681.963 -0.247903 -2.02992 0
M  V30 7463 H 680.118 1.8043 -3.42817 0
M  V30 7464 H 680.532 0.505237 -5.22061 0
M  V30 7465 H 682.006 2.2078 -5.05925 0
M  V30 7466 H 682.483 2.72557 -3.44397 0
M  V30 7467 H 683.089 1.18138 -4.08563 0
M  V30 7468 N 681.404 1.57128 0.121893 0
M  V30 7469 C 682.352 2.01109 1.16868 0
M  V30 7470 C 683.346 0.907532 1.43039 0
M  V30 7471 O 684.552 1.09274 1.43036 0
M  V30 7472 H 680.927 0.640539 0.393971 0
M  V30 7473 H 682.898 2.88261 0.771224 0
M  V30 7474 C 681.647 2.42887 2.48799 0
M  V30 7475 H 680.97 3.2737 2.29498 0
M  V30 7476 H 682.41 2.77461 3.20611 0
M  V30 7477 C 680.869 1.29137 3.11168 0
M  V30 7478 O 681.399 0.605756 3.97106 0
M  V30 7479 N 679.605 1.04916 2.71 0
M  V30 7480 H 679.152 1.60848 2.01211 0
M  V30 7481 H 679.11 0.290016 3.1306 0
M  V30 7482 N 682.882 -0.391992 1.52647 0
M  V30 7483 C 684.13 -1.13507 1.67214 0
M  V30 7484 C 684.451 -1.90575 0.41304 0
M  V30 7485 O 683.721 -1.87348 -0.572498 0
M  V30 7486 H 682.301 -0.422013 0.616372 0
M  V30 7487 H 684.963 -0.44502 1.89751 0
M  V30 7488 H 684.059 -1.83964 2.52118 0
M  V30 7489 N 684.36 -1.4356 -0.65026 0
M  V30 7490 C 685.585 -1.48995 -1.44275 0
M  V30 7491 C 686.01 -0.109954 -1.87778 0
M  V30 7492 O 685.368 0.896926 -1.57559 0
M  V30 7493 C 685.416 -2.44341 -2.65198 0
M  V30 7494 O 684.52 -1.93172 -3.6436 0
M  V30 7495 H 683.861 -0.503852 -0.432469 0
M  V30 7496 H 686.391 -1.88504 -0.795446 0
M  V30 7497 H 686.401 -2.61743 -3.12977 0
M  V30 7498 H 685.076 -3.44588 -2.32877 0
M  V30 7499 H 683.653 -1.85445 -3.23519 0
M  V30 7500 N 685.838 0.888903 -1.30139 0
M  V30 7501 C 687.063 1.67884 -1.21777 0
M  V30 7502 C 687.488 1.86848 0.216689 0
M  V30 7503 O 686.846 1.39659 1.15608 0
M  V30 7504 C 686.894 3.03483 -1.94757 0
M  V30 7505 O 685.998 3.92294 -1.27198 0
M  V30 7506 H 685.339 0.513144 -0.421402 0
M  V30 7507 H 687.869 1.10968 -1.71893 0
M  V30 7508 H 687.879 3.53553 -2.03627 0
M  V30 7509 H 686.554 2.89 -2.99085 0
M  V30 7510 H 685.131 3.50732 -1.26655 0
M  V30 7511 N 687.317 1.12792 1.10072 0
M  V30 7512 C 688.267 0.768086 2.14673 0
M  V30 7513 C 689.251 -0.234716 1.59179 0
M  V30 7514 O 690.443 -0.039643 1.76956 0
M  V30 7515 C 687.572 0.228472 3.42539 0
M  V30 7516 C 686.658 1.25979 4.04957 0
M  V30 7517 N 687.049 2.4586 4.42025 0
M  V30 7518 C 685.347 1.10602 4.32069 0
M  V30 7519 C 686.048 3.11747 4.9111 0
M  V30 7520 N 685.024 2.39185 4.88151 0
M  V30 7521 H 688.826 1.68029 2.4113 0
M  V30 7522 H 686.34 1.00925 1.27232 0
M  V30 7523 H 688.337 -0.0475216 4.16873 0
M  V30 7524 H 686.997 -0.678136 3.1754 0
M  V30 7525 H 688.008 2.83215 4.33601 0
M  V30 7526 H 684.685 0.257021 4.16708 0
M  V30 7527 H 686.075 4.13862 5.29309 0
M  V30 7528 N 688.795 -1.27931 0.920396 0
M  V30 7529 C 689.727 -2.26175 0.371169 0
M  V30 7530 C 690.74 -1.55122 -0.494065 0
M  V30 7531 O 691.929 -1.75825 -0.30787 0
M  V30 7532 C 689.029 -3.35376 -0.487481 0
M  V30 7533 C 688.202 -4.35943 0.356772 0
M  V30 7534 C 687.261 -5.24374 -0.438042 0
M  V30 7535 O 686.287 -5.68998 0.151715 0
M  V30 7536 N 687.489 -5.53823 -1.73956 0
M  V30 7537 H 690.254 -2.73938 1.21564 0
M  V30 7538 H 687.815 -1.41482 0.787047 0
M  V30 7539 H 689.807 -3.91476 -1.02609 0
M  V30 7540 H 688.377 -2.87269 -1.23269 0
M  V30 7541 H 687.597 -3.7921 1.07672 0
M  V30 7542 H 688.885 -5.0015 0.934206 0
M  V30 7543 H 688.283 -5.19413 -2.24114 0
M  V30 7544 H 686.84 -6.12653 -2.22486 0
M  V30 7545 N 690.273 -0.685099 -1.4193 0
M  V30 7546 C 691.55 -0.140152 -1.95097 0
M  V30 7547 C 691.93 1.34745 -1.62502 0
M  V30 7548 O 691.278 2.08872 -0.926534 0
M  V30 7549 C 691.488 -0.420268 -3.4646 0
M  V30 7550 C 692.836 -0.342338 -4.23218 0
M  V30 7551 O 693.86 -0.354592 -3.54431 0
M  V30 7552 O 692.719 -0.293404 -5.45712 0
M  V30 7553 H 689.813 -0.00885998 -0.826953 0
M  V30 7554 H 692.359 -0.760539 -1.51703 0
M  V30 7555 H 691.131 -1.45037 -3.63428 0
M  V30 7556 H 690.754 0.231616 -3.96925 0
M  V30 7557 N 691.751 1.51645 -0.429126 0
M  V30 7558 C 693.028 1.94579 0.199614 0
M  V30 7559 C 693.408 1.3673 1.60836 0
M  V30 7560 O 692.756 0.551062 2.21756 0
M  V30 7561 C 692.966 3.48506 0.185685 0
M  V30 7562 C 694.314 4.22756 0.395282 0
M  V30 7563 O 695.338 3.55219 0.264165 0
M  V30 7564 O 694.197 5.42555 0.655475 0
M  V30 7565 H 691.291 0.816007 0.134393 0
M  V30 7566 H 693.837 1.62577 -0.486513 0
M  V30 7567 H 692.609 3.83045 -0.799508 0
M  V30 7568 H 692.232 3.86927 0.91507 0
M  V30 7569 N 693.229 0.160201 1.56784 0
M  V30 7570 C 694.139 -0.787167 2.21 0
M  V30 7571 C 695.155 -1.26167 1.19825 0
M  V30 7572 O 696.331 -1.31611 1.52448 0
M  V30 7573 C 693.396 -2.00364 2.8294 0
M  V30 7574 C 692.457 -1.5771 3.99282 0
M  V30 7575 C 691.69 -2.73558 4.58259 0
M  V30 7576 O 691.913 -3.90129 4.16119 0
M  V30 7577 O 690.847 -2.48271 5.48311 0
M  V30 7578 H 694.673 -0.270462 3.02493 0
M  V30 7579 H 692.258 -0.0674666 1.49248 0
M  V30 7580 H 694.14 -2.71529 3.22257 0
M  V30 7581 H 692.815 -2.50961 2.04451 0
M  V30 7582 H 691.722 -0.835274 3.64656 0
M  V30 7583 H 693.055 -1.11815 4.79331 0
M  V30 7584 N 694.707 -1.5719 -0.113559 0
M  V30 7585 C 695.956 -1.84325 -0.818984 0
M  V30 7586 C 696.269 -0.746685 -1.80787 0
M  V30 7587 O 697.475 -0.904596 -2.55987 0
M  V30 7588 C 695.931 -3.26818 -1.50724 0
M  V30 7589 C 695.539 -4.44498 -0.559065 0
M  V30 7590 C 697.283 -3.63196 -2.19748 0
M  V30 7591 C 695.19 -5.7802 -1.25086 0
M  V30 7592 H 694.12 -0.687507 -0.309596 0
M  V30 7593 H 696.771 -1.8336 -0.0717621 0
M  V30 7594 H 695.153 -3.22269 -2.30128 0
M  V30 7595 H 696.327 -4.60356 0.202146 0
M  V30 7596 H 694.642 -4.16393 0.024495 0
M  V30 7597 H 697.239 -4.60226 -2.72206 0
M  V30 7598 H 697.582 -2.90899 -2.97798 0
M  V30 7599 H 698.115 -3.69553 -1.47226 0
M  V30 7600 H 694.854 -6.53501 -0.511539 0
M  V30 7601 H 694.374 -5.66038 -1.98395 0
M  V30 7602 H 696.053 -6.2196 -1.78253 0
M  V30 7603 N 696.185 0.383891 -1.52853 0
M  V30 7604 C 697.462 1.14296 -1.58732 0
M  V30 7605 C 697.842 2.07585 -0.383611 0
M  V30 7606 O 697.19 2.1971 0.627661 0
M  V30 7607 C 697.4 1.89816 -2.92867 0
M  V30 7608 C 698.748 2.44998 -3.46787 0
M  V30 7609 O 699.772 1.99966 -2.94774 0
M  V30 7610 O 698.631 3.2727 -4.37672 0
M  V30 7611 H 695.725 0.52326 -0.640413 0
M  V30 7612 H 698.271 0.388631 -1.6519 0
M  V30 7613 H 697.043 1.21626 -3.71918 0
M  V30 7614 H 696.666 2.72199 -2.89816 0
M  V30 7615 N 697.663 1.43903 0.642637 0
M  V30 7616 C 698.573 1.52349 1.78401 0
M  V30 7617 C 699.589 0.409869 1.69104 0
M  V30 7618 O 700.765 0.665548 1.90085 0
M  V30 7619 C 697.83 1.45408 3.14734 0
M  V30 7620 C 696.891 2.67528 3.35749 0
M  V30 7621 C 696.124 2.60909 4.65577 0
M  V30 7622 O 696.347 1.6627 5.45628 0
M  V30 7623 O 695.281 3.5158 4.88544 0
M  V30 7624 H 699.107 2.48752 1.7423 0
M  V30 7625 H 696.692 1.26021 0.802439 0
M  V30 7626 H 698.574 1.44019 3.96026 0
M  V30 7627 H 697.249 0.521437 3.19473 0
M  V30 7628 H 696.156 2.74487 2.5418 0
M  V30 7629 H 697.489 3.598 3.35864 0
M  V30 7630 N 699.141 -0.881989 1.30609 0
M  V30 7631 C 700.418 -1.61563 1.10258 0
M  V30 7632 C 700.798 -2.08228 -0.347053 0
M  V30 7633 O 700.146 -1.85151 -1.33908 0
M  V30 7634 C 700.356 -2.78287 2.10612 0
M  V30 7635 C 701.704 -3.48545 2.4249 0
M  V30 7636 O 702.728 -2.88479 2.08945 0
M  V30 7637 O 701.587 -4.56873 2.99883 0
M  V30 7638 H 698.681 -0.710238 0.423663 0
M  V30 7639 H 701.227 -0.928503 1.42045 0
M  V30 7640 H 699.999 -2.41131 3.08174 0
M  V30 7641 H 699.622 -3.54695 1.79659 0
M  V30 7642 N 700.619 -1.13374 -1.09472 0
M  V30 7643 C 701.896 -0.806329 -1.78207 0
M  V30 7644 C 702.276 0.702191 -1.99079 0
M  V30 7645 O 701.624 1.63931 -1.59182 0
M  V30 7646 C 701.834 -1.59271 -3.10538 0
M  V30 7647 C 703.182 -1.78509 -3.85253 0
M  V30 7648 O 704.206 -1.55866 -3.20288 0
M  V30 7649 O 703.065 -2.16287 -5.01879 0
M  V30 7650 H 700.159 -0.29435 -0.772843 0
M  V30 7651 H 702.705 -1.23833 -1.16033 0
M  V30 7652 H 701.477 -2.61792 -2.90828 0
M  V30 7653 H 701.1 -1.15562 -3.80436 0
M  V30 7654 N 702.098 1.27442 -0.927168 0
M  V30 7655 C 703.008 2.30599 -0.431448 0
M  V30 7656 C 704.024 1.67028 0.48761 0
M  V30 7657 O 705.2 1.97962 0.370546 0
M  V30 7658 C 702.265 3.45327 0.308292 0
M  V30 7659 C 701.326 4.24418 -0.645615 0
M  V30 7660 C 700.559 5.33667 0.0589164 0
M  V30 7661 O 700.782 5.5589 1.27838 0
M  V30 7662 O 699.716 5.98774 -0.612638 0
M  V30 7663 H 703.542 2.75036 -1.28797 0
M  V30 7664 H 701.127 1.32382 -0.692495 0
M  V30 7665 H 703.009 4.15107 0.725555 0
M  V30 7666 H 701.684 3.02945 1.14043 0
M  V30 7667 H 700.591 3.57174 -1.11255 0
M  V30 7668 H 701.924 4.70512 -1.44496 0
M  V30 7669 N 703.576 0.692616 1.41565 0
M  V30 7670 C 704.801 0.229776 2.06123 0
M  V30 7671 C 705.226 -1.11119 1.5177 0
M  V30 7672 O 704.584 -1.69498 0.643444 0
M  V30 7673 C 704.632 0.19469 3.60074 0
M  V30 7674 O 703.736 -0.831366 4.03933 0
M  V30 7675 H 703.077 0.113002 0.654314 0
M  V30 7676 H 705.607 0.946645 1.81383 0
M  V30 7677 H 705.617 0.0245487 4.07993 0
M  V30 7678 H 704.292 1.17339 3.99004 0
M  V30 7679 H 702.869 -0.630819 3.67526 0
M  V30 7680 N 705.054 -1.51416 0.437162 0
M  V30 7681 C 706.282 -2.06503 -0.128045 0
M  V30 7682 C 706.697 -1.30461 -1.36475 0
M  V30 7683 O 706.054 -0.364127 -1.78831 0
M  V30 7684 C 706.105 -3.58683 -0.450437 0
M  V30 7685 O 705.826 -4.31853 0.737186 0
M  V30 7686 C 707.327 -4.30284 -1.06633 0
M  V30 7687 H 704.547 -0.670952 -0.00800269 0
M  V30 7688 H 707.091 -1.94996 0.616193 0
M  V30 7689 H 705.246 -3.70106 -1.14457 0
M  V30 7690 H 705.66 -5.22467 0.461347 0
M  V30 7691 H 707.134 -5.37848 -1.24191 0
M  V30 7692 H 707.611 -3.88564 -2.0473 0
M  V30 7693 H 708.217 -4.23304 -0.411585 0
M  V30 7694 N 706.532 -0.168513 -1.56696 0
M  V30 7695 C 707.48 0.779791 -2.19139 0
M  V30 7696 C 708.474 1.23957 -1.1546 0
M  V30 7697 O 709.68 1.20555 -1.33666 0
M  V30 7698 H 706.055 0.269739 -0.701958 0
M  V30 7699 H 708.026 0.229156 -2.97519 0
M  V30 7700 C 706.775 2.00003 -2.84419 0
M  V30 7701 H 706.098 1.65527 -3.63924 0
M  V30 7702 H 707.538 2.64251 -3.31583 0
M  V30 7703 C 705.997 2.82187 -1.84044 0
M  V30 7704 O 706.527 3.79247 -1.32418 0
M  V30 7705 N 704.733 2.47145 -1.52864 0
M  V30 7706 H 704.28 1.68277 -1.9504 0
M  V30 7707 H 704.238 3.02422 -0.859569 0
M  V30 7708 N 708.01 1.57248 0.105221 0
M  V30 7709 C 708.96 1.9777 1.1345 0
M  V30 7710 C 709.944 0.854654 1.36325 0
M  V30 7711 O 711.136 1.11844 1.37186 0
M  V30 7712 C 708.265 2.39717 2.45745 0
M  V30 7713 C 707.351 3.58686 2.26286 0
M  V30 7714 N 707.742 4.73942 1.76671 0
M  V30 7715 C 706.04 3.64586 2.56891 0
M  V30 7716 C 706.741 5.55923 1.71245 0
M  V30 7717 N 705.717 4.98803 2.16093 0
M  V30 7718 H 709.519 2.84336 0.743664 0
M  V30 7719 H 707.033 1.59359 0.312787 0
M  V30 7720 H 709.03 2.66971 3.20206 0
M  V30 7721 H 707.69 1.54523 2.85574 0
M  V30 7722 H 708.701 4.9689 1.46016 0
M  V30 7723 H 705.378 2.90031 3.00314 0
M  V30 7724 H 706.768 6.58398 1.34022 0
M  V30 7725 N 709.488 -0.375779 1.53054 0
M  V30 7726 C 710.436 -1.48015 1.79428 0
M  V30 7727 C 711.43 -1.55893 0.662854 0
M  V30 7728 O 712.636 -1.58901 0.845599 0
M  V30 7729 H 709.011 -0.492887 0.56795 0
M  V30 7730 H 710.982 -1.22971 2.71884 0
M  V30 7731 C 709.731 -2.84984 1.99197 0
M  V30 7732 H 709.054 -2.79677 2.85693 0
M  V30 7733 H 710.494 -3.61462 2.21633 0
M  V30 7734 C 708.953 -3.28025 0.768183 0
M  V30 7735 O 709.483 -4.01671 -0.0480482 0
M  V30 7736 N 707.689 -2.84454 0.594521 0
M  V30 7737 H 707.236 -2.24688 1.25988 0
M  V30 7738 H 707.194 -3.13609 -0.222916 0
M  V30 7739 N 710.966 -1.44241 -0.634997 0
M  V30 7740 C 711.896 -1.53632 -1.7584 0
M  V30 7741 C 712.877 -0.389603 -1.65578 0
M  V30 7742 O 714.062 -0.609219 -1.84397 0
M  V30 7743 C 711.192 -1.47644 -3.14354 0
M  V30 7744 C 710.146 -2.60752 -3.394 0
M  V30 7745 C 709.472 -2.39817 -4.77904 0
M  V30 7746 C 710.772 -4.02921 -3.32343 0
M  V30 7747 H 712.466 -2.47662 -1.68238 0
M  V30 7748 H 710.012 -1.19197 -0.807969 0
M  V30 7749 H 711.965 -1.52815 -3.92716 0
M  V30 7750 H 710.689 -0.501284 -3.2273 0
M  V30 7751 H 709.348 -2.54965 -2.63417 0
M  V30 7752 H 708.996 -1.40502 -4.82978 0
M  V30 7753 H 708.696 -3.15649 -4.9562 0
M  V30 7754 H 710.22 -2.46799 -5.585 0
M  V30 7755 H 711.634 -4.10098 -4.00615 0
M  V30 7756 H 710.031 -4.78925 -3.61595 0
M  V30 7757 H 711.101 -4.26766 -2.30215 0
M  V30 7758 N 712.444 0.87505 -1.31075 0
M  V30 7759 C 713.674 1.65818 -1.2324 0
M  V30 7760 C 714.082 1.8808 0.205536 0
M  V30 7761 O 713.425 1.43548 1.14628 0
M  V30 7762 C 713.487 3.05131 -1.90093 0
M  V30 7763 C 713.151 3.05999 -3.39432 0
M  V30 7764 C 714.148 2.84328 -4.35263 0
M  V30 7765 C 711.833 3.27281 -3.81041 0
M  V30 7766 C 713.827 2.83912 -5.70678 0
M  V30 7767 C 711.514 3.26493 -5.16571 0
M  V30 7768 C 712.512 3.04834 -6.112 0
M  V30 7769 O 712.2 3.03882 -7.44252 0
M  V30 7770 H 711.932 0.52387 -0.427242 0
M  V30 7771 H 714.486 1.10086 -1.73408 0
M  V30 7772 H 712.716 3.62568 -1.34468 0
M  V30 7773 H 714.405 3.65641 -1.76242 0
M  V30 7774 H 715.171 2.67673 -4.04445 0
M  V30 7775 H 711.05 3.43171 -3.07822 0
M  V30 7776 H 714.594 2.66925 -6.44513 0
M  V30 7777 H 710.491 3.42687 -5.47025 0
M  V30 7778 H 711.259 3.19979 -7.53363 0
M  V30 7779 N 713.922 1.13953 1.08869 0
M  V30 7780 C 714.87 0.817664 2.17754 0
M  V30 7781 C 715.864 -0.202444 1.68186 0
M  V30 7782 O 717.07 -0.0590159 1.79903 0
M  V30 7783 H 713.445 0.246671 0.710392 0
M  V30 7784 H 715.416 1.74401 2.4213 0
M  V30 7785 C 714.165 0.3063 3.46348 0
M  V30 7786 H 713.488 1.08259 3.84864 0
M  V30 7787 H 714.928 0.119584 4.23831 0
M  V30 7788 C 713.387 -0.969158 3.22659 0
M  V30 7789 O 713.917 -2.04386 3.45817 0
M  V30 7790 N 712.123 -0.902516 2.7623 0
M  V30 7791 H 711.67 -0.027801 2.57585 0
M  V30 7792 H 711.628 -1.75649 2.60758 0
M  V30 7793 N 715.4 -1.26948 0.933913 0
M  V30 7794 C 716.348 -2.2862 0.428463 0
M  V30 7795 C 717.342 -1.62144 -0.490464 0
M  V30 7796 O 718.548 -1.76167 -0.36948 0
M  V30 7797 H 714.923 -0.742363 0.120003 0
M  V30 7798 H 716.894 -2.68659 1.29865 0
M  V30 7799 C 715.643 -3.46423 -0.29774 0
M  V30 7800 H 714.966 -3.97792 0.400183 0
M  V30 7801 H 716.406 -4.19505 -0.615736 0
M  V30 7802 C 714.865 -3.01017 -1.51295 0
M  V30 7803 O 715.395 -3.05226 -2.61151 0
M  V30 7804 N 713.601 -2.56442 -1.36696 0
M  V30 7805 H 713.148 -2.53217 -0.473178 0
M  V30 7806 H 713.106 -2.26424 -2.18127 0
M  V30 7807 N 716.879 -0.700114 -1.41195 0
M  V30 7808 C 717.827 -0.0263301 -2.32585 0
M  V30 7809 C 718.821 0.763683 -1.51209 0
M  V30 7810 O 720.027 0.668793 -1.67114 0
M  V30 7811 H 716.402 0.0102869 -0.75193 0
M  V30 7812 H 718.373 -0.814087 -2.8708 0
M  V30 7813 C 717.122 0.892793 -3.36042 0
M  V30 7814 H 716.445 0.294306 -3.98715 0
M  V30 7815 H 717.885 1.33247 -4.02518 0
M  V30 7816 C 716.344 2.01109 -2.7029 0
M  V30 7817 O 716.874 3.10035 -2.55423 0
M  V30 7818 N 715.08 1.79015 -2.28915 0
M  V30 7819 H 714.627 0.904275 -2.41207 0
M  V30 7820 H 714.585 2.54022 -1.85257 0
M  V30 7821 N 718.357 1.51182 -0.445186 0
M  V30 7822 C 719.305 2.29531 0.376597 0
M  V30 7823 C 720.299 1.35711 1.01385 0
M  V30 7824 O 721.505 1.53018 0.947922 0
M  V30 7825 H 717.88 0.738803 0.140267 0
M  V30 7826 H 719.851 2.96838 -0.304958 0
M  V30 7827 C 718.6 3.1552 1.4609 0
M  V30 7828 H 717.923 3.87605 0.979912 0
M  V30 7829 H 719.363 3.73384 2.009 0
M  V30 7830 C 717.822 2.31406 2.44852 0
M  V30 7831 O 718.352 1.97912 3.49562 0
M  V30 7832 N 716.558 1.94478 2.15932 0
M  V30 7833 H 716.105 2.21917 1.30808 0
M  V30 7834 H 716.063 1.38498 2.82251 0
M  V30 7835 N 719.835 0.176821 1.56605 0
M  V30 7836 C 720.783 -0.768159 2.1955 0
M  V30 7837 C 721.777 -1.23343 1.16116 0
M  V30 7838 O 722.983 -1.19844 1.34303 0
M  V30 7839 H 719.358 -0.266013 0.703378 0
M  V30 7840 H 721.329 -0.213374 2.97636 0
M  V30 7841 C 720.078 -1.98492 2.85475 0
M  V30 7842 H 719.401 -1.63595 3.64797 0
M  V30 7843 H 720.841 -2.62489 3.3298 0
M  V30 7844 C 719.3 -2.81207 1.85538 0
M  V30 7845 O 719.83 -3.7854 1.34427 0
M  V30 7846 N 718.036 -2.46331 1.54173 0
M  V30 7847 H 717.583 -1.67241 1.95929 0
M  V30 7848 H 717.541 -3.01961 0.875595 0
M  V30 7849 N 721.313 -1.57302 -0.09688 0
M  V30 7850 C 722.261 -2.02942 -1.13654 0
M  V30 7851 C 723.255 -0.930173 -1.41577 0
M  V30 7852 O 724.461 -1.11535 -1.41279 0
M  V30 7853 H 720.836 -0.646726 -0.383731 0
M  V30 7854 H 722.807 -2.89452 -0.725267 0
M  V30 7855 C 721.556 -2.46815 -2.44903 0
M  V30 7856 H 720.879 -3.30979 -2.24261 0
M  V30 7857 H 722.319 -2.82527 -3.16156 0
M  V30 7858 C 720.778 -1.34071 -3.09074 0
M  V30 7859 O 721.308 -0.668856 -3.96092 0
M  V30 7860 N 719.514 -1.09214 -2.69296 0
M  V30 7861 H 719.061 -1.64029 -1.98626 0
M  V30 7862 H 719.019 -0.339785 -3.12559 0
M  V30 7863 N 722.791 0.367657 -1.53252 0
M  V30 7864 C 723.739 1.47061 -1.8021 0
M  V30 7865 C 724.733 1.55539 -0.671112 0
M  V30 7866 O 725.939 1.58451 -0.854014 0
M  V30 7867 H 722.314 0.489868 -0.570555 0
M  V30 7868 H 724.285 1.21527 -2.72532 0
M  V30 7869 C 723.034 2.83924 -2.00706 0
M  V30 7870 H 722.357 2.78158 -2.87172 0
M  V30 7871 H 723.797 3.60281 -2.23547 0
M  V30 7872 C 722.256 3.27613 -0.785568 0
M  V30 7873 O 722.786 4.01691 0.0267459 0
M  V30 7874 N 720.992 2.84134 -0.609597 0
M  V30 7875 H 720.539 2.24017 -1.27178 0
M  V30 7876 H 720.497 3.13723 0.206281 0
M  V30 7877 N 724.269 1.44576 0.627338 0
M  V30 7878 C 725.217 1.52039 1.76031 0
M  V30 7879 C 726.211 0.391796 1.64807 0
M  V30 7880 O 727.417 0.5669 1.7084 0
M  V30 7881 H 723.792 0.477165 0.581221 0
M  V30 7882 H 725.763 2.47387 1.6686 0
M  V30 7883 C 724.512 1.48539 3.14375 0
M  V30 7884 H 723.835 2.34699 3.23661 0
M  V30 7885 H 725.275 1.57821 3.93534 0
M  V30 7886 C 723.734 0.20672 3.36265 0
M  V30 7887 O 724.264 -0.72154 3.95167 0
M  V30 7888 N 722.47 0.108654 2.90397 0
M  V30 7889 H 722.017 0.864884 2.42647 0
M  V30 7890 H 721.975 -0.746121 3.05418 0
M  V30 7891 N 725.747 -0.868086 1.31537 0
M  V30 7892 C 726.694 -1.97548 1.19346 0
M  V30 7893 C 727.664 -1.65913 0.0787922 0
M  V30 7894 O 728.849 -1.89129 0.251985 0
M  V30 7895 C 725.989 -3.32922 0.908692 0
M  V30 7896 C 725.102 -3.77141 2.10687 0
M  V30 7897 C 724.237 -5.01241 1.75873 0
M  V30 7898 C 723.276 -5.37914 2.92088 0
M  V30 7899 N 722.413 -6.53192 2.57457 0
M  V30 7900 H 727.253 -2.07307 2.14074 0
M  V30 7901 H 724.79 -1.01483 1.06487 0
M  V30 7902 H 726.748 -4.10867 0.724138 0
M  V30 7903 H 725.378 -3.228 -0.0017611 0
M  V30 7904 H 724.43 -2.94961 2.40213 0
M  V30 7905 H 725.742 -4.00248 2.97663 0
M  V30 7906 H 724.896 -5.86858 1.53891 0
M  V30 7907 H 723.635 -4.80041 0.86091 0
M  V30 7908 H 722.64 -4.50814 3.14717 0
M  V30 7909 H 723.865 -5.61077 3.82582 0
M  V30 7910 H 721.811 -6.33536 1.702 0
M  V30 7911 H 721.728 -6.76252 3.37963 0
M  V30 7912 H 722.996 -7.41997 2.38873 0
M  V30 7913 N 727.225 -1.14528 -1.08264 0
M  V30 7914 C 728.173 -0.829201 -2.17318 0
M  V30 7915 C 729.167 0.193521 -1.68291 0
M  V30 7916 O 730.373 0.0494744 -1.79932 0
M  V30 7917 H 726.748 -0.250435 -0.709074 0
M  V30 7918 H 728.719 -1.75683 -2.41201 0
M  V30 7919 C 727.468 -0.324663 -3.46181 0
M  V30 7920 H 726.791 -1.10299 -3.84284 0
M  V30 7921 H 728.231 -0.142059 -4.23762 0
M  V30 7922 C 726.69 0.952033 -3.23169 0
M  V30 7923 O 727.22 2.02549 -3.46896 0
M  V30 7924 N 725.426 0.887854 -2.76705 0
M  V30 7925 H 724.973 0.0141402 -2.57596 0
M  V30 7926 H 724.931 1.74263 -2.61686 0
M  V30 7927 N 728.703 1.26451 -0.940633 0
M  V30 7928 C 729.651 2.28389 -0.440581 0
M  V30 7929 C 730.645 1.62402 0.481859 0
M  V30 7930 O 731.851 1.76361 0.360132 0
M  V30 7931 H 728.226 0.741716 -0.123938 0
M  V30 7932 H 730.197 2.67967 -1.31288 0
M  V30 7933 C 728.946 3.46576 0.279364 0
M  V30 7934 H 728.269 3.97574 -0.421274 0
M  V30 7935 H 729.709 4.19826 0.59348 0
M  V30 7936 C 728.168 3.01815 1.49697 0
M  V30 7937 O 728.698 3.06607 2.59529 0
M  V30 7938 N 726.904 2.57163 1.35334 0
M  V30 7939 H 726.451 2.53464 0.459743 0
M  V30 7940 H 726.409 2.27578 2.16923 0
M  V30 7941 N 730.181 0.707592 1.40822 0
M  V30 7942 C 731.43 0.240705 2.00259 0
M  V30 7943 C 731.743 -1.17027 1.56729 0
M  V30 7944 O 732.949 -1.73526 2.08809 0
M  V30 7945 C 731.405 0.379432 3.57894 0
M  V30 7946 C 731.013 1.79654 4.104 0
M  V30 7947 C 732.757 -0.0270684 4.24491 0
M  V30 7948 C 730.664 1.88628 5.60512 0
M  V30 7949 H 729.594 0.0862369 0.749052 0
M  V30 7950 H 732.245 0.877528 1.61157 0
M  V30 7951 H 730.627 -0.325842 3.94657 0
M  V30 7952 H 731.801 2.53155 3.85032 0
M  V30 7953 H 730.116 2.15379 3.56372 0
M  V30 7954 H 732.713 0.0193743 5.34696 0
M  V30 7955 H 733.056 -1.06772 4.02375 0
M  V30 7956 H 733.589 0.628361 3.92806 0
M  V30 7957 H 730.328 2.90787 5.87472 0
M  V30 7958 H 729.848 1.19528 5.8777 0
M  V30 7959 H 731.527 1.6547 6.25483 0
M  V30 7960 N 731.66 -1.50943 0.453197 0
M  V30 7961 C 732.888 -2.06628 -0.106135 0
M  V30 7962 C 733.303 -1.31901 -1.35084 0
M  V30 7963 O 732.66 -0.383074 -1.78434 0
M  V30 7964 C 732.711 -3.5914 -0.412368 0
M  V30 7965 O 732.432 -4.31047 0.782948 0
M  V30 7966 C 733.933 -4.31391 -1.02064 0
M  V30 7967 H 731.153 -0.670999 -0.000885896 0
M  V30 7968 H 733.697 -1.94331 0.63684 0
M  V30 7969 H 731.852 -3.71299 -1.10526 0
M  V30 7970 H 732.266 -5.21948 0.516736 0
M  V30 7971 H 733.74 -5.39135 -1.1848 0
M  V30 7972 H 734.217 -3.90714 -2.00598 0
M  V30 7973 H 734.823 -4.23716 -0.366664 0
M  V30 7974 N 733.138 -0.185124 -1.56509 0
M  V30 7975 C 734.088 0.752315 -2.15231 0
M  V30 7976 C 735.072 1.18327 -1.0903 0
M  V30 7977 O 736.264 1.14333 -1.35119 0
M  V30 7978 C 733.393 1.97583 -2.80742 0
M  V30 7979 C 732.479 1.56623 -3.94119 0
M  V30 7980 N 732.87 0.867008 -4.98314 0
M  V30 7981 C 731.168 1.85626 -4.05535 0
M  V30 7982 C 731.869 0.663228 -5.77907 0
M  V30 7983 N 730.845 1.20891 -5.29987 0
M  V30 7984 H 734.647 0.209267 -2.93154 0
M  V30 7985 H 732.161 0.0150444 -1.62393 0
M  V30 7986 H 734.158 2.65779 -3.21197 0
M  V30 7987 H 732.818 2.52369 -2.04303 0
M  V30 7988 H 733.829 0.52355 -5.15247 0
M  V30 7989 H 730.506 2.41992 -3.40215 0
M  V30 7990 H 731.896 0.109273 -6.71811 0
M  V30 7991 N 734.616 1.57351 0.0885366 0
M  V30 7992 C 735.548 1.99221 1.13329 0
M  V30 7993 C 736.561 0.895705 1.35945 0
M  V30 7994 O 737.75 1.17376 1.34481 0
M  V30 7995 C 734.85 2.3016 2.48756 0
M  V30 7996 C 734.023 3.61444 2.46327 0
M  V30 7997 C 733.082 3.80244 3.63732 0
M  V30 7998 O 732.108 4.52024 3.45924 0
M  V30 7999 N 733.31 3.2132 4.8346 0
M  V30 8000 H 736.075 2.89456 0.776862 0
M  V30 8001 H 733.636 1.59505 0.277428 0
M  V30 8002 H 735.628 2.39925 3.25911 0
M  V30 8003 H 734.198 1.459 2.76464 0
M  V30 8004 H 733.418 3.62588 1.54673 0
M  V30 8005 H 734.706 4.47678 2.41789 0
M  V30 8006 H 734.104 2.63028 5.00832 0
M  V30 8007 H 732.661 3.3656 5.58185 0
M  V30 8008 N 736.094 -0.359525 1.53444 0
M  V30 8009 C 737.026 -1.46098 1.76602 0
M  V30 8010 C 738.039 -1.49395 0.646912 0
M  V30 8011 O 739.228 -1.52765 0.923307 0
M  V30 8012 C 736.328 -2.84836 1.83635 0
M  V30 8013 C 735.501 -3.05164 3.13358 0
M  V30 8014 C 734.56 -4.24051 3.11556 0
M  V30 8015 O 733.586 -4.18935 3.85334 0
M  V30 8016 N 734.788 -5.31775 2.328 0
M  V30 8017 H 737.553 -1.2661 2.71643 0
M  V30 8018 H 735.114 -0.549294 1.52297 0
M  V30 8019 H 737.106 -3.62516 1.799 0
M  V30 8020 H 735.676 -2.97542 0.958509 0
M  V30 8021 H 734.896 -2.15091 3.30348 0
M  V30 8022 H 736.184 -3.15619 3.99076 0
M  V30 8023 H 735.582 -5.38796 1.7238 0
M  V30 8024 H 734.139 -6.0801 2.34877 0
M  V30 8025 N 737.572 -1.44907 -0.619662 0
M  V30 8026 C 738.504 -1.48652 -1.74457 0
M  V30 8027 C 739.517 -0.378596 -1.58337 0
M  V30 8028 O 740.706 -0.644987 -1.6644 0
M  V30 8029 C 737.806 -1.31568 -3.12319 0
M  V30 8030 C 736.979 -2.55816 -3.54792 0
M  V30 8031 C 736.038 -2.33465 -4.71573 0
M  V30 8032 O 735.064 -3.07015 -4.79302 0
M  V30 8033 N 736.266 -1.37254 -5.6404 0
M  V30 8034 H 739.031 -2.45632 -1.71712 0
M  V30 8035 H 736.592 -1.40492 -0.804582 0
M  V30 8036 H 738.584 -1.14445 -3.88181 0
M  V30 8037 H 737.154 -0.429095 -3.09641 0
M  V30 8038 H 736.374 -2.88137 -2.69018 0
M  V30 8039 H 737.662 -3.38431 -3.79924 0
M  V30 8040 H 737.06 -0.765309 -5.60499 0
M  V30 8041 H 735.617 -1.26106 -6.39485 0
M  V30 8042 N 739.05 0.861098 -1.31996 0
M  V30 8043 C 740.28 1.64501 -1.24992 0
M  V30 8044 C 740.688 1.88288 0.185576 0
M  V30 8045 O 740.031 1.44756 1.131 0
M  V30 8046 C 740.093 3.03098 -1.93319 0
M  V30 8047 C 739.757 3.02381 -3.42658 0
M  V30 8048 C 740.754 2.79696 -4.38254 0
M  V30 8049 C 738.439 3.23221 -3.84491 0
M  V30 8050 C 740.433 2.77843 -5.73657 0
M  V30 8051 C 738.12 3.20996 -5.20005 0
M  V30 8052 C 739.118 2.98335 -6.14398 0
M  V30 8053 O 738.806 2.95971 -7.47433 0
M  V30 8054 H 738.538 0.519309 -0.432775 0
M  V30 8055 H 741.092 1.08241 -1.74565 0
M  V30 8056 H 739.322 3.61121 -1.38306 0
M  V30 8057 H 741.011 3.63751 -1.8011 0
M  V30 8058 H 741.777 2.63368 -4.07262 0
M  V30 8059 H 737.656 3.39887 -3.11445 0
M  V30 8060 H 741.2 2.60074 -6.47308 0
M  V30 8061 H 737.097 3.36865 -5.50629 0
M  V30 8062 H 737.865 3.1197 -7.56714 0
M  V30 8063 N 740.528 1.15101 1.07655 0
M  V30 8064 C 741.758 0.946357 1.83651 0
M  V30 8065 C 742.166 -0.508641 1.82235 0
M  V30 8066 O 741.509 -1.36445 1.22997 0
M  V30 8067 C 741.571 1.37945 3.31981 0
M  V30 8068 C 741.235 2.85155 3.57122 0
M  V30 8069 C 742.232 3.83234 3.51323 0
M  V30 8070 C 739.917 3.2275 3.84887 0
M  V30 8071 C 741.911 5.16914 3.72932 0
M  V30 8072 C 739.598 4.56604 4.06148 0
M  V30 8073 C 740.596 5.53495 4.00165 0
M  V30 8074 O 740.284 6.84931 4.20861 0
M  V30 8075 H 740.016 0.336368 0.586372 0
M  V30 8076 H 742.57 1.53198 1.36819 0
M  V30 8077 H 740.8 0.737205 3.79608 0
M  V30 8078 H 742.489 1.14439 3.89434 0
M  V30 8079 H 743.255 3.55535 3.29878 0
M  V30 8080 H 739.134 2.47921 3.88659 0
M  V30 8081 H 742.678 5.92529 3.68178 0
M  V30 8082 H 738.575 4.84019 4.27078 0
M  V30 8083 H 739.343 6.91304 4.38226 0
M  V30 8084 N 742.006 -1.2595 0.947325 0
M  V30 8085 C 743.231 -1.98083 0.614633 0
M  V30 8086 C 743.656 -1.70013 -0.804815 0
M  V30 8087 O 743.014 -0.95175 -1.54309 0
M  V30 8088 C 743.062 -3.4993 0.870706 0
M  V30 8089 O 742.166 -4.12364 -0.0541451 0
M  V30 8090 H 741.507 -0.621232 0.234451 0
M  V30 8091 H 744.037 -1.60259 1.27193 0
M  V30 8092 H 744.047 -4.00198 0.794051 0
M  V30 8093 H 742.722 -3.69691 1.90529 0
M  V30 8094 H 741.299 -3.72826 0.0740917 0
M  V30 8095 N 743.484 -0.715051 -1.40445 0
M  V30 8096 C 744.731 -0.254328 -2.00897 0
M  V30 8097 C 745.059 1.15228 -1.56693 0
M  V30 8098 O 744.314 1.7958 -0.777786 0
M  V30 8099 C 744.613 -0.281791 -3.56287 0
M  V30 8100 C 744.279 -1.63862 -4.20071 0
M  V30 8101 C 742.941 -2.01003 -4.37208 0
M  V30 8102 C 745.293 -2.53039 -4.55654 0
M  V30 8103 C 742.621 -3.26869 -4.8721 0
M  V30 8104 C 744.973 -3.78256 -5.07055 0
M  V30 8105 C 743.637 -4.15515 -5.22401 0
M  V30 8106 H 742.907 -0.0930652 -0.735133 0
M  V30 8107 H 745.554 -0.917977 -1.68064 0
M  V30 8108 H 743.859 0.465428 -3.89026 0
M  V30 8109 H 745.556 0.0925158 -4.00893 0
M  V30 8110 H 742.146 -1.33979 -4.07121 0
M  V30 8111 H 746.33 -2.2562 -4.42051 0
M  V30 8112 H 741.586 -3.55706 -4.97276 0
M  V30 8113 H 745.76 -4.47528 -5.33565 0
M  V30 8114 H 743.387 -5.13114 -5.60909 0
M  V30 8115 N 744.962 1.50701 -0.461195 0
M  V30 8116 C 746.239 1.94958 0.158296 0
M  V30 8117 C 746.619 1.40111 1.57899 0
M  V30 8118 O 745.967 0.597976 2.20537 0
M  V30 8119 C 746.177 3.48821 0.11172 0
M  V30 8120 C 747.525 4.23499 0.30552 0
M  V30 8121 O 748.549 3.557 0.188758 0
M  V30 8122 O 747.408 5.43823 0.540244 0
M  V30 8123 H 744.502 0.818674 0.117054 0
M  V30 8124 H 747.048 1.61508 -0.520888 0
M  V30 8125 H 745.82 3.81263 -0.880577 0
M  V30 8126 H 745.443 3.88781 0.832791 0
M  V30 8127 N 746.441 0.193421 1.56409 0
M  V30 8128 C 747.371 -0.723334 2.22014 0
M  V30 8129 C 748.352 -1.22254 1.1827 0
M  V30 8130 O 749.537 -1.27168 1.46771 0
M  V30 8131 C 746.667 -1.94366 2.87818 0
M  V30 8132 C 745.621 -1.57943 3.97791 0
M  V30 8133 C 744.947 -2.87623 4.50752 0
M  V30 8134 C 746.247 -0.790639 5.16281 0
M  V30 8135 H 747.941 -0.176426 2.9888 0
M  V30 8136 H 745.487 -0.0834166 1.43758 0
M  V30 8137 H 747.44 -2.5902 3.32396 0
M  V30 8138 H 746.164 -2.51507 2.08355 0
M  V30 8139 H 744.823 -0.956482 3.53903 0
M  V30 8140 H 744.471 -3.4285 3.68053 0
M  V30 8141 H 744.171 -2.63998 5.24956 0
M  V30 8142 H 745.695 -3.53268 4.9803 0
M  V30 8143 H 747.109 -1.34024 5.57414 0
M  V30 8144 H 745.506 -0.65258 5.96541 0
M  V30 8145 H 746.576 0.208633 4.84451 0
M  V30 8146 N 747.919 -1.57396 -0.0801906 0
M  V30 8147 C 749.168 -1.8602 -0.779702 0
M  V30 8148 C 749.481 -0.784864 -1.79163 0
M  V30 8149 O 750.687 -0.958691 -2.54011 0
M  V30 8150 C 749.143 -3.29942 -1.43758 0
M  V30 8151 C 748.751 -4.45584 -0.464654 0
M  V30 8152 C 750.495 -3.67775 -2.11995 0
M  V30 8153 C 748.402 -5.80544 -1.12797 0
M  V30 8154 H 747.332 -0.69392 -0.294943 0
M  V30 8155 H 749.983 -1.83471 -0.0328527 0
M  V30 8156 H 748.365 -3.27078 -2.2324 0
M  V30 8157 H 749.539 -4.59824 0.299749 0
M  V30 8158 H 747.854 -4.16247 0.112813 0
M  V30 8159 H 750.451 -4.65896 -2.62383 0
M  V30 8160 H 750.794 -2.9715 -2.91561 0
M  V30 8161 H 751.327 -3.72593 -1.39354 0
M  V30 8162 H 748.066 -6.54439 -0.372807 0
M  V30 8163 H 747.586 -5.70119 -1.86344 0
M  V30 8164 H 749.265 -6.25602 -1.6502 0
M  V30 8165 N 749.397 0.351382 -1.53633 0
M  V30 8166 C 750.646 1.08988 -1.69719 0
M  V30 8167 C 750.959 1.90043 -0.462948 0
M  V30 8168 O 752.165 2.66769 -0.504613 0
M  V30 8169 C 750.621 1.98691 -3.00083 0
M  V30 8170 C 750.229 1.22881 -4.30818 0
M  V30 8171 C 751.973 2.72446 -3.25536 0
M  V30 8172 C 749.88 2.11568 -5.52262 0
M  V30 8173 H 748.81 0.410588 -0.632403 0
M  V30 8174 H 751.461 0.349886 -1.80133 0
M  V30 8175 H 749.843 2.76478 -2.83506 0
M  V30 8176 H 751.017 0.500582 -4.58073 0
M  V30 8177 H 749.332 0.60928 -4.11918 0
M  V30 8178 H 751.929 3.39055 -4.13456 0
M  V30 8179 H 752.272 3.38588 -2.42206 0
M  V30 8180 H 752.805 2.01735 -3.42852 0
M  V30 8181 H 749.544 1.4998 -6.38111 0
M  V30 8182 H 749.064 2.82201 -5.29266 0
M  V30 8183 H 750.743 2.70802 -5.87601 0
M  V30 8184 N 750.875 1.45233 0.611969 0
M  V30 8185 C 752.121 1.50233 1.37119 0
M  V30 8186 C 752.476 0.140336 1.91888 0
M  V30 8187 O 751.769 -0.847161 1.71854 0
M  V30 8188 C 751.963 2.51353 2.54079 0
M  V30 8189 C 751.792 3.97251 2.10764 0
M  V30 8190 C 750.562 4.65256 1.97141 0
M  V30 8191 C 752.76 4.85914 1.68499 0
M  V30 8192 N 750.742 5.95895 1.4759 0
M  V30 8193 C 752.113 6.06147 1.30331 0
M  V30 8194 C 754.168 4.72813 1.56051 0
M  V30 8195 C 752.871 7.14729 0.809591 0
M  V30 8196 C 754.897 5.8144 1.08083 0
M  V30 8197 C 754.259 7.00825 0.708775 0
M  V30 8198 H 750.358 0.604708 0.495835 0
M  V30 8199 H 752.942 1.81679 0.700055 0
M  V30 8200 H 751.113 2.21866 3.18795 0
M  V30 8201 H 752.845 2.46528 3.20945 0
M  V30 8202 H 749.6 4.20345 2.18191 0
M  V30 8203 H 750.024 6.65349 1.25059 0
M  V30 8204 H 754.666 3.80931 1.83443 0
M  V30 8205 H 752.384 8.06404 0.523215 0
M  V30 8206 H 755.97 5.73335 0.988842 0
M  V30 8207 H 754.85 7.83448 0.343305 0
M  V30 8208 N 752.353 -0.854086 1.3245 0
M  V30 8209 C 753.263 -1.99503 1.23434 0
M  V30 8210 C 754.279 -1.73371 0.147828 0
M  V30 8211 O 755.455 -1.97998 0.368609 0
M  V30 8212 C 752.52 -3.33192 0.958328 0
M  V30 8213 C 751.581 -3.72542 2.13333 0
M  V30 8214 C 750.814 -4.99852 1.8704 0
M  V30 8215 O 751.037 -5.64573 0.813239 0
M  V30 8216 O 749.971 -5.36345 2.73161 0
M  V30 8217 H 753.797 -2.10046 2.1935 0
M  V30 8218 H 751.382 -0.984823 1.12346 0
M  V30 8219 H 753.264 -4.13327 0.820918 0
M  V30 8220 H 751.939 -3.23687 0.0293299 0
M  V30 8221 H 750.846 -2.92981 2.32622 0
M  V30 8222 H 752.179 -3.86694 3.04514 0
M  V30 8223 N 753.831 -1.1567 -1.07043 0
M  V30 8224 C 754.779 -0.852204 -2.16426 0
M  V30 8225 C 755.773 0.175661 -1.68487 0
M  V30 8226 O 756.979 0.0303874 -1.79974 0
M  V30 8227 H 753.354 -0.257942 -0.706378 0
M  V30 8228 H 755.325 -1.78231 -2.39324 0
M  V30 8229 C 754.074 -0.361362 -3.45817 0
M  V30 8230 H 753.397 -1.14369 -3.83092 0
M  V30 8231 H 754.837 -0.186997 -4.23587 0
M  V30 8232 C 753.296 0.917703 -3.2416 0
M  V30 8233 O 753.826 1.98858 -3.49025 0
M  V30 8234 N 752.032 0.858456 -2.77631 0
M  V30 8235 H 751.579 -0.0131821 -2.57597 0
M  V30 8236 H 751.537 1.71478 -2.6352 0
M  V30 8237 N 755.309 1.25446 -0.953992 0
M  V30 8238 C 756.256 2.25912 -0.472485 0
M  V30 8239 C 757.226 1.59173 0.47469 0
M  V30 8240 O 758.411 1.86812 0.388082 0
M  V30 8241 C 755.551 3.44235 0.244218 0
M  V30 8242 C 754.664 4.25613 -0.740121 0
M  V30 8243 C 753.799 5.312 -0.000922267 0
M  V30 8244 C 752.838 6.04265 -0.976236 0
M  V30 8245 N 751.975 7.01589 -0.267952 0
M  V30 8246 H 756.815 2.66469 -1.3341 0
M  V30 8247 H 754.352 1.31005 -0.669045 0
M  V30 8248 H 756.31 4.11682 0.676314 0
M  V30 8249 H 754.94 3.04554 1.06988 0
M  V30 8250 H 753.992 3.57834 -1.2907 0
M  V30 8251 H 755.304 4.762 -1.48441 0
M  V30 8252 H 754.458 6.04719 0.48984 0
M  V30 8253 H 753.197 4.81484 0.776159 0
M  V30 8254 H 752.202 5.29561 -1.478 0
M  V30 8255 H 753.427 6.5607 -1.75354 0
M  V30 8256 H 751.373 6.54164 0.490403 0
M  V30 8257 H 751.29 7.4999 -0.951344 0
M  V30 8258 H 752.558 7.7924 0.201294 0
M  V30 8259 N 756.787 0.722489 1.40064 0
M  V30 8260 C 758.012 0.273446 2.05589 0
M  V30 8261 C 758.437 -1.07875 1.54093 0
M  V30 8262 O 757.795 -1.68095 0.679252 0
M  V30 8263 C 757.843 0.271023 3.5958 0
M  V30 8264 O 756.947 -0.745499 4.05606 0
M  V30 8265 H 756.288 0.126856 0.65177 0
M  V30 8266 H 758.818 0.984906 1.79334 0
M  V30 8267 H 758.828 0.111084 4.07849 0
M  V30 8268 H 757.503 1.25776 3.96425 0
M  V30 8269 H 756.08 -0.552719 3.68781 0
M  V30 8270 N 758.265 -1.50454 0.469181 0
M  V30 8271 C 759.228 -2.2703 -0.314643 0
M  V30 8272 C 760.228 -1.31734 -0.922111 0
M  V30 8273 O 761.418 -1.55176 -0.791588 0
M  V30 8274 C 758.55 -3.08616 -1.44806 0
M  V30 8275 H 759.743 -2.97769 0.356892 0
M  V30 8276 H 757.296 -1.54698 0.223191 0
M  V30 8277 H 758.031 -2.42369 -2.1547 0
M  V30 8278 H 757.816 -3.78647 -1.01829 0
M  V30 8279 H 759.306 -3.66536 -2.00103 0
M  V30 8280 N 759.743 -0.201713 -1.56304 0
M  V30 8281 C 761.159 0.154025 -1.58855 0
M  V30 8282 C 761.359 1.60516 -1.21807 0
M  V30 8283 O 760.415 2.34193 -0.94393 0
M  V30 8284 C 761.728 -0.154319 -3.00304 0
M  V30 8285 C 763.276 -0.0949578 -3.12856 0
M  V30 8286 C 763.751 -0.376703 -4.56448 0
M  V30 8287 N 765.242 -0.325558 -4.62054 0
M  V30 8288 C 765.977 -0.51732 -5.71062 0
M  V30 8289 N 765.473 -0.769789 -6.8851 0
M  V30 8290 N 767.266 -0.45112 -5.60287 0
M  V30 8291 H 759.417 -1.14858 -1.78666 0
M  V30 8292 H 761.68 -0.458934 -0.829508 0
M  V30 8293 H 761.386 -1.16074 -3.31994 0
M  V30 8294 H 761.26 0.540014 -3.73314 0
M  V30 8295 H 763.647 0.902075 -2.80974 0
M  V30 8296 H 763.728 -0.822468 -2.42217 0
M  V30 8297 H 763.372 -1.37108 -4.89044 0
M  V30 8298 H 763.302 0.371772 -5.25286 0
M  V30 8299 H 765.793 -0.137308 -3.7765 0
M  V30 8300 H 766.106 -0.904744 -7.67486 0
M  V30 8301 H 764.451 -0.806758 -6.90302 0
M  V30 8302 H 767.642 -0.254253 -4.67409 0
M  V30 8303 H 767.815 -0.603982 -6.45179 0
M  V30 8304 N 761.222 1.57436 0.0718424 0
M  V30 8305 C 762.155 1.98982 1.11721 0
M  V30 8306 C 763.133 0.866731 1.37574 0
M  V30 8307 O 764.317 1.12903 1.50948 0
M  V30 8308 C 761.444 2.32648 2.46155 0
M  V30 8309 C 760.49 3.54964 2.36437 0
M  V30 8310 S 761.323 5.05802 1.75854 0
M  V30 8311 C 762.479 5.42669 3.11867 0
M  V30 8312 H 762.712 2.87338 0.763154 0
M  V30 8313 H 760.245 1.51833 0.280372 0
M  V30 8314 H 762.203 2.52719 3.23486 0
M  V30 8315 H 760.864 1.44821 2.78722 0
M  V30 8316 H 760.057 3.76038 3.35577 0
M  V30 8317 H 759.659 3.34524 1.67242 0
M  V30 8318 H 761.951 5.40737 4.08178 0
M  V30 8319 H 762.894 6.43461 2.95573 0
M  V30 8320 H 763.302 4.70131 3.1247 0
M  V30 8321 N 762.7 -0.34323 1.53817 0
M  V30 8322 C 763.648 -1.44176 1.82527 0
M  V30 8323 C 764.642 -1.54452 0.695772 0
M  V30 8324 O 765.848 -1.57072 0.879114 0
M  V30 8325 H 762.223 -0.480729 0.578277 0
M  V30 8326 H 764.194 -1.17176 2.74431 0
M  V30 8327 C 762.943 -2.80695 2.05197 0
M  V30 8328 H 762.266 -2.73554 2.91561 0
M  V30 8329 H 763.706 -3.56679 2.29251 0
M  V30 8330 C 762.165 -3.26322 0.837589 0
M  V30 8331 O 762.695 -4.01683 0.0371631 0
M  V30 8332 N 760.901 -2.83128 0.654724 0
M  V30 8333 H 760.448 -2.21965 1.30725 0
M  V30 8334 H 760.406 -3.14011 -0.156345 0
M  V30 8335 N 764.178 -1.45556 -0.604258 0
M  V30 8336 C 765.126 -1.5482 -1.7359 0
M  V30 8337 C 766.12 -0.417966 -1.64163 0
M  V30 8338 O 767.326 -0.594007 -1.69916 0
M  V30 8339 H 763.701 -0.486352 -0.573556 0
M  V30 8340 H 765.672 -2.5001 -1.62903 0
M  V30 8341 C 764.421 -1.53521 -3.11972 0
M  V30 8342 H 763.744 -2.39818 -3.19886 0
M  V30 8343 H 765.184 -1.64061 -3.90973 0
M  V30 8344 C 763.643 -0.260191 -3.35894 0
M  V30 8345 O 764.173 0.658582 -3.96265 0
M  V30 8346 N 762.379 -0.154839 -2.90187 0
M  V30 8347 H 761.926 -0.903378 -2.4124 0
M  V30 8348 H 761.884 0.697437 -3.06567 0
M  V30 8349 N 765.656 0.84705 -1.32902 0
M  V30 8350 C 766.604 1.97765 -1.22441 0
M  V30 8351 C 767.598 1.68919 -0.127546 0
M  V30 8352 O 768.804 1.77633 -0.290973 0
M  V30 8353 H 765.179 0.649072 -0.379748 0
M  V30 8354 H 767.15 2.03713 -2.18044 0
M  V30 8355 C 765.899 3.33834 -0.972125 0
M  V30 8356 H 765.222 3.56564 -1.80837 0
M  V30 8357 H 766.662 4.13467 -0.939209 0
M  V30 8358 C 765.121 3.35328 0.325059 0
M  V30 8359 O 765.651 3.78887 1.33445 0
M  V30 8360 N 763.857 2.88488 0.349718 0
M  V30 8361 H 763.404 2.53234 -0.472236 0
M  V30 8362 H 763.362 2.8987 1.21748 0
M  V30 8363 N 767.134 1.16236 1.06428 0
M  V30 8364 C 768.082 0.863669 2.15971 0
M  V30 8365 C 769.076 -0.166723 1.68578 0
M  V30 8366 O 770.282 -0.0208425 1.79988 0
M  V30 8367 H 766.657 0.261684 0.705 0
M  V30 8368 H 768.628 1.79498 2.38376 0
M  V30 8369 C 767.377 0.379697 3.45621 0
M  V30 8370 H 766.7 1.16399 3.82481 0
M  V30 8371 H 768.14 0.209458 4.23482 0
M  V30 8372 C 766.599 -0.900499 3.24642 0
M  V30 8373 O 767.129 -1.97004 3.50074 0
M  V30 8374 N 765.335 -0.843721 2.78082 0
M  V30 8375 H 764.882 0.0268429 2.57586 0
M  V30 8376 H 764.84 -1.70078 2.64425 0
M  V30 8377 N 768.612 -1.24939 0.960631 0
M  V30 8378 C 769.56 -2.27659 0.47686 0
M  V30 8379 C 770.554 -1.63148 -0.455961 0
M  V30 8380 O 771.76 -1.76911 -0.332029 0
M  V30 8381 H 768.135 -0.739651 0.135723 0
M  V30 8382 H 770.106 -2.65844 1.35534 0
M  V30 8383 C 768.855 -3.46976 -0.224191 0
M  V30 8384 H 768.178 -3.96854 0.484471 0
M  V30 8385 H 769.618 -4.20717 -0.526615 0
M  V30 8386 C 768.077 -3.04159 -1.44876 0
M  V30 8387 O 768.607 -3.10697 -2.54618 0
M  V30 8388 N 766.813 -2.59284 -1.31226 0
M  V30 8389 H 766.36 -2.54164 -0.419361 0
M  V30 8390 H 766.318 -2.31 -2.13275 0
M  V30 8391 N 770.09 -0.729906 -1.39679 0
M  V30 8392 C 771.038 -0.0756589 -2.32477 0
M  V30 8393 C 772.032 0.731438 -1.52795 0
M  V30 8394 O 773.238 0.633195 -1.68495 0
M  V30 8395 H 769.613 -0.00566492 -0.751979 0
M  V30 8396 H 771.584 -0.874797 -2.85289 0
M  V30 8397 C 770.333 0.821313 -3.37861 0
M  V30 8398 H 769.656 0.209666 -3.9925 0
M  V30 8399 H 771.096 1.24679 -4.05254 0
M  V30 8400 C 769.555 1.9533 -2.74495 0
M  V30 8401 O 770.085 3.04548 -2.61942 0
M  V30 8402 N 768.291 1.74119 -2.3266 0
M  V30 8403 H 767.838 0.852908 -2.4307 0
M  V30 8404 H 767.796 2.50036 -1.90603 0
M  V30 8405 N 771.568 1.50203 -0.477153 0
M  V30 8406 C 772.516 2.30278 0.327826 0
M  V30 8407 C 773.51 1.37831 0.984839 0
M  V30 8408 O 774.716 1.54994 0.915251 0
M  V30 8409 H 771.091 0.741612 0.124564 0
M  V30 8410 H 773.062 2.96124 -0.367853 0
M  V30 8411 C 771.811 3.18548 1.39365 0
M  V30 8412 H 771.134 3.89596 0.897475 0
M  V30 8413 H 772.574 3.77561 1.92934 0
M  V30 8414 C 771.033 2.36548 2.39889 0
M  V30 8415 O 771.563 2.05282 3.45286 0
M  V30 8416 N 769.769 1.99015 2.11758 0
M  V30 8417 H 769.316 2.24641 1.26071 0
M  V30 8418 H 769.274 1.44454 2.7925 0
M  V30 8419 N 773.046 0.209999 1.56195 0
M  V30 8420 C 773.994 -0.721416 2.2113 0
M  V30 8421 C 774.988 -1.20852 1.18706 0
M  V30 8422 O 776.194 -1.16968 1.36815 0
M  V30 8423 H 772.569 -0.251033 0.708863 0
M  V30 8424 H 774.54 -0.150193 2.98022 0
M  V30 8425 C 773.289 -1.92392 2.89621 0
M  V30 8426 H 772.612 -1.5582 3.68185 0
M  V30 8427 H 774.052 -2.55367 3.38473 0
M  V30 8428 C 772.511 -2.77208 1.91461 0
M  V30 8429 O 773.041 -3.75603 1.42426 0
M  V30 8430 N 771.247 -2.43006 1.59363 0
M  V30 8431 H 770.794 -1.63047 1.99433 0
M  V30 8432 H 770.752 -3.00036 0.939449 0
M  V30 8433 N 774.524 -1.57472 -0.0634922 0
M  V30 8434 C 775.457 -1.99571 -1.10664 0
M  V30 8435 C 776.435 -0.874015 -1.37112 0
M  V30 8436 O 777.619 -1.13702 -1.50347 0
M  V30 8437 C 774.746 -2.3395 -2.44918 0
M  V30 8438 C 773.792 -3.56213 -2.34551 0
M  V30 8439 S 774.625 -5.06727 -1.73169 0
M  V30 8440 C 775.781 -5.44316 -3.08984 0
M  V30 8441 H 776.014 -2.87739 -0.747905 0
M  V30 8442 H 773.547 -1.5198 -0.272316 0
M  V30 8443 H 775.505 -2.54431 -3.22141 0
M  V30 8444 H 774.166 -1.46297 -2.7795 0
M  V30 8445 H 773.359 -3.77812 -3.33578 0
M  V30 8446 H 772.961 -3.35406 -1.65466 0
M  V30 8447 H 775.253 -5.42894 -4.05305 0
M  V30 8448 H 776.196 -6.4502 -2.92156 0
M  V30 8449 H 776.604 -4.71781 -3.09972 0
M  V30 8450 N 776.003 0.335068 -1.53997 0
M  V30 8451 C 777.228 1.09859 -1.75914 0
M  V30 8452 C 777.653 1.81308 -0.500915 0
M  V30 8453 O 777.011 1.72854 0.54693 0
M  V30 8454 C 777.059 2.08122 -2.94478 0
M  V30 8455 O 776.163 3.15805 -2.65219 0
M  V30 8456 H 775.504 0.317313 -0.583274 0
M  V30 8457 H 778.034 0.382872 -2.00986 0
M  V30 8458 H 778.044 2.51195 -3.21504 0
M  V30 8459 H 776.719 1.55517 -3.8573 0
M  V30 8460 H 775.296 2.77489 -2.49107 0
M  V30 8461 N 777.481 1.45874 0.596531 0
M  V30 8462 C 778.429 1.55739 1.72766 0
M  V30 8463 C 779.423 0.426666 1.63939 0
M  V30 8464 O 780.629 0.60301 1.69599 0
M  V30 8465 H 777.004 0.489386 0.570968 0
M  V30 8466 H 778.975 2.50871 1.61575 0
M  V30 8467 C 777.724 1.55174 3.11153 0
M  V30 8468 H 777.047 2.41511 3.1861 0
M  V30 8469 H 778.487 1.66133 3.90097 0
M  V30 8470 C 776.946 0.278001 3.35751 0
M  V30 8471 O 777.476 -0.637557 3.96608 0
M  V30 8472 N 775.682 0.170227 2.90101 0
M  V30 8473 H 775.229 0.916159 2.40758 0
M  V30 8474 H 775.187 -0.68117 3.06932 0
M  V30 8475 N 778.959 -0.83999 1.33349 0
M  V30 8476 C 779.907 -1.97113 1.23488 0
M  V30 8477 C 780.901 -1.68849 0.136503 0
M  V30 8478 O 782.107 -1.77476 0.300389 0
M  V30 8479 H 778.482 -0.647049 0.383185 0
M  V30 8480 H 780.453 -2.02554 2.19122 0
M  V30 8481 C 779.202 -3.33314 0.989815 0
M  V30 8482 H 778.525 -3.556 1.82726 0
M  V30 8483 H 779.965 -4.12963 0.961123 0
M  V30 8484 C 778.424 -3.35496 -0.307272 0
M  V30 8485 O 778.954 -3.79589 -1.31434 0
M  V30 8486 N 777.16 -2.88669 -0.334414 0
M  V30 8487 H 776.707 -2.5298 0.485659 0
M  V30 8488 H 776.665 -2.90512 -1.20209 0
M  V30 8489 N 780.437 -1.16799 -1.0581 0
M  V30 8490 C 781.37 -0.822491 -2.12862 0
M  V30 8491 C 782.348 0.208006 -1.61264 0
M  V30 8492 O 783.532 0.0909652 -1.8828 0
M  V30 8493 C 780.659 -0.225826 -3.37946 0
M  V30 8494 C 779.705 -1.23071 -4.08357 0
M  V30 8495 S 780.538 -2.77944 -4.5772 0
M  V30 8496 C 781.694 -2.19741 -5.86059 0
M  V30 8497 H 781.927 -1.72917 -2.41841 0
M  V30 8498 H 779.46 -0.991982 -1.18318 0
M  V30 8499 H 781.418 0.111955 -4.10347 0
M  V30 8500 H 780.079 0.658692 -3.07116 0
M  V30 8501 H 779.272 -0.761758 -4.9821 0
M  V30 8502 H 778.874 -1.51383 -3.41993 0
M  V30 8503 H 781.166 -1.5691 -6.59079 0
M  V30 8504 H 782.109 -3.07823 -6.37692 0
M  V30 8505 H 782.517 -1.63433 -5.40324 0
M  V30 8506 N 781.915 1.24427 -0.967243 0
M  V30 8507 C 783.14 1.9708 -0.646069 0
M  V30 8508 C 783.565 1.71272 0.777665 0
M  V30 8509 O 782.923 0.976179 1.52776 0
M  V30 8510 C 782.971 3.48501 -0.926266 0
M  V30 8511 O 782.075 4.12398 -0.0114653 0
M  V30 8512 H 781.416 0.617423 -0.244304 0
M  V30 8513 H 783.946 1.58215 -1.29727 0
M  V30 8514 H 783.956 3.98885 -0.857619 0
M  V30 8515 H 782.631 3.66613 -1.96386 0
M  V30 8516 H 781.208 3.72661 -0.133396 0
M  V30 8517 N 783.393 0.737304 1.3929 0
M  V30 8518 C 784.341 0.0879867 2.32434 0
M  V30 8519 C 785.335 -0.723324 1.53181 0
M  V30 8520 O 786.541 -0.624251 1.68829 0
M  V30 8521 H 782.916 0.00965277 0.751938 0
M  V30 8522 H 784.887 0.889915 2.84821 0
M  V30 8523 C 783.636 -0.803384 3.38291 0
M  V30 8524 H 782.959 -0.18849 3.99355 0
M  V30 8525 H 784.399 -1.22528 4.0591 0
M  V30 8526 C 782.858 -1.93872 2.75527 0
M  V30 8527 O 783.388 -3.03154 2.63553 0
M  V30 8528 N 781.594 -1.72883 2.3358 0
M  V30 8529 H 781.141 -0.840005 2.43519 0
M  V30 8530 H 781.099 -2.49021 1.91927 0
M  V30 8531 N 784.871 -1.49948 0.485112 0
M  V30 8532 C 785.819 -2.30449 -0.315609 0
M  V30 8533 C 786.813 -1.38351 -0.977516 0
M  V30 8534 O 788.019 -1.55477 -0.907019 0
M  V30 8535 H 784.394 -0.742262 -0.120629 0
M  V30 8536 H 786.365 -2.95925 0.383552 0
M  V30 8537 C 785.114 -3.19283 -1.37673 0
M  V30 8538 H 784.437 -3.90067 -0.876801 0
M  V30 8539 H 785.877 -3.78579 -1.90929 0
M  V30 8540 C 784.336 -2.37817 -2.38631 0
M  V30 8541 O 784.866 -2.0711 -3.44192 0
M  V30 8542 N 783.072 -2.00135 -2.107 0
M  V30 8543 H 782.619 -2.25307 -1.24878 0
M  V30 8544 H 782.577 -1.45933 -2.7848 0
M  V30 8545 N 786.349 -0.21828 -1.56081 0
M  V30 8546 C 787.297 0.709679 -2.21509 0
M  V30 8547 C 788.291 1.20221 -1.19346 0
M  V30 8548 O 789.497 1.16241 -1.37433 0
M  V30 8549 H 785.872 0.247271 -0.710184 0
M  V30 8550 H 787.843 0.134386 -2.98097 0
M  V30 8551 C 786.592 1.90853 -2.90638 0
M  V30 8552 H 785.915 1.53865 -3.69006 0
M  V30 8553 H 787.355 2.53568 -3.39822 0
M  V30 8554 C 785.814 2.76189 -1.92929 0
M  V30 8555 O 786.344 3.74842 -1.44416 0
M  V30 8556 N 784.55 2.42157 -1.6065 0
M  V30 8557 H 784.097 1.61987 -2.00294 0
M  V30 8558 H 784.055 2.99534 -0.955347 0
M  V30 8559 N 787.827 1.57504 0.0551401 0
M  V30 8560 C 788.775 2.05884 1.08233 0
M  V30 8561 C 789.769 0.967383 1.39061 0
M  V30 8562 O 790.975 1.15242 1.38273 0
M  V30 8563 H 787.35 0.656673 0.366449 0
M  V30 8564 H 789.321 2.91273 0.648269 0
M  V30 8565 C 788.07 2.53221 2.38273 0
M  V30 8566 H 787.393 3.36809 2.15406 0
M  V30 8567 H 788.833 2.9081 3.08554 0
M  V30 8568 C 787.292 1.42218 3.05411 0
M  V30 8569 O 787.822 0.773638 3.9418 0
M  V30 8570 N 786.028 1.16316 2.66306 0
M  V30 8571 H 785.575 1.69237 1.94207 0
M  V30 8572 H 785.533 0.422534 3.11548 0
M  V30 8573 N 789.305 -0.326896 1.54172 0
M  V30 8574 C 790.253 -1.42232 1.84046 0
M  V30 8575 C 791.247 -1.53705 0.712115 0
M  V30 8576 O 792.453 -1.56131 0.895724 0
M  V30 8577 H 788.828 -0.474568 0.583343 0
M  V30 8578 H 790.799 -1.14259 2.75658 0
M  V30 8579 C 789.548 -2.78502 2.08163 0
M  V30 8580 H 788.871 -2.70447 2.94446 0
M  V30 8581 H 790.311 -3.54228 2.33021 0
M  V30 8582 C 788.77 -3.25415 0.872152 0
M  V30 8583 O 789.3 -4.01621 0.0797648 0
M  V30 8584 N 787.506 -2.82418 0.684716 0
M  V30 8585 H 787.053 -2.20566 1.33072 0
M  V30 8586 H 787.011 -3.14159 -0.123031 0
M  V30 8587 N 790.784 -1.46188 -0.588786 0
M  V30 8588 C 792.014 -1.54519 -1.3714 0
M  V30 8589 C 792.422 -0.183075 -1.88312 0
M  V30 8590 O 791.765 0.828815 -1.6394 0
M  V30 8591 C 791.827 -2.48426 -2.59856 0
M  V30 8592 C 791.491 -3.94791 -2.30193 0
M  V30 8593 C 792.488 -4.84173 -1.894 0
M  V30 8594 C 790.173 -4.39872 -2.42525 0
M  V30 8595 C 792.167 -6.16647 -1.61325 0
M  V30 8596 C 789.854 -5.72381 -2.14063 0
M  V30 8597 C 790.852 -6.60589 -1.73527 0
M  V30 8598 O 790.54 -7.9064 -1.4541 0
M  V30 8599 H 790.272 -0.525264 -0.425527 0
M  V30 8600 H 792.826 -1.92242 -0.723344 0
M  V30 8601 H 791.056 -2.05709 -3.27446 0
M  V30 8602 H 792.745 -2.4723 -3.21919 0
M  V30 8603 H 793.511 -4.50603 -1.79393 0
M  V30 8604 H 789.39 -3.71444 -2.7304 0
M  V30 8605 H 792.934 -6.85454 -1.29611 0
M  V30 8606 H 788.831 -6.05501 -2.23693 0
M  V30 8607 H 789.599 -8.02847 -1.59306 0
M  V30 8608 N 792.262 0.832906 -1.33792 0
M  V30 8609 C 793.212 1.93178 -1.21105 0
M  V30 8610 C 794.196 1.60506 -0.112491 0
M  V30 8611 O 795.388 1.73681 -0.341179 0
M  V30 8612 C 792.517 3.29647 -0.958526 0
M  V30 8613 C 791.603 3.68469 -2.0998 0
M  V30 8614 N 791.994 3.78936 -3.35024 0
M  V30 8615 C 790.292 3.98249 -2.00782 0
M  V30 8616 C 790.993 4.12731 -4.09912 0
M  V30 8617 N 789.969 4.25419 -3.38407 0
M  V30 8618 H 793.771 1.99434 -2.15878 0
M  V30 8619 H 791.285 1.02598 -1.25886 0
M  V30 8620 H 793.282 4.08173 -0.848552 0
M  V30 8621 H 791.942 3.24694 -0.019387 0
M  V30 8622 H 792.953 3.62688 -3.69699 0
M  V30 8623 H 789.63 4.01474 -1.14564 0
M  V30 8624 H 791.02 4.28117 -5.17847 0
M  V30 8625 N 793.74 1.17359 1.05189 0
M  V30 8626 C 794.688 0.886527 2.15043 0
M  V30 8627 C 795.682 -0.148834 1.68745 0
M  V30 8628 O 796.888 -0.00175123 1.8 0
M  V30 8629 H 793.263 0.269147 0.702185 0
M  V30 8630 H 795.234 1.82016 2.36459 0
M  V30 8631 C 793.983 0.416333 3.45198 0
M  V30 8632 H 793.306 1.20449 3.81225 0
M  V30 8633 H 794.746 0.254362 4.23236 0
M  V30 8634 C 793.205 -0.866016 3.25579 0
M  V30 8635 O 793.735 -1.9328 3.52144 0
M  V30 8636 N 791.941 -0.814179 2.78961 0
M  V30 8637 H 791.488 0.0541618 2.57543 0
M  V30 8638 H 791.446 -1.67264 2.66214 0
M  V30 8639 N 795.218 -1.23913 0.973828 0
M  V30 8640 C 796.629 -1.73992 0.677021 0
M  V30 8641 C 796.98 -1.78833 -0.807036 0
M  V30 8642 O 796.105 -1.42183 -1.63135 0
M  V30 8643 C 796.7 -3.15985 1.22226 0
M  V30 8644 C 795.259 -3.63547 0.975228 0
M  V30 8645 C 794.406 -2.42001 1.35392 0
M  V30 8646 H 797.357 -1.09529 1.14844 0
M  V30 8647 H 797.378 -3.75875 0.591489 0
M  V30 8648 H 796.89 -3.12429 2.30238 0
M  V30 8649 H 794.991 -3.72493 -0.0891047 0
M  V30 8650 H 795.104 -4.50693 1.62518 0
M  V30 8651 H 793.468 -2.42708 0.772334 0
M  V30 8652 H 794.251 -2.41122 2.44367 0
M  V30 8653 N 796.696 -0.74468 -1.38897 0
M  V30 8654 C 797.644 -0.100312 -2.32384 0
M  V30 8655 C 798.638 0.715191 -1.53562 0
M  V30 8656 O 799.844 0.615288 -1.69157 0
M  V30 8657 H 796.219 -0.0136403 -0.751876 0
M  V30 8658 H 798.19 -0.905007 -2.84345 0
M  V30 8659 C 796.939 0.785432 -3.38713 0
M  V30 8660 H 796.262 0.167308 -3.9945 0
M  V30 8661 H 797.702 1.20374 -4.06554 0
M  V30 8662 C 796.161 1.92408 -2.76552 0
M  V30 8663 O 796.691 3.01752 -2.65157 0
M  V30 8664 N 794.897 1.71642 -2.34494 0
M  V30 8665 H 794.444 0.827079 -2.43961 0
M  V30 8666 H 794.402 2.48 -1.93244 0
M  V30 8667 N 798.174 1.49689 -0.493057 0
M  V30 8668 C 799.122 2.30613 0.303383 0
M  V30 8669 C 800.116 1.38867 0.970165 0
M  V30 8670 O 801.322 1.55956 0.898761 0
M  V30 8671 H 797.697 0.742891 0.116691 0
M  V30 8672 H 799.668 2.95717 -0.39924 0
M  V30 8673 C 798.417 3.20008 1.35978 0
M  V30 8674 H 797.74 3.90526 0.856103 0
M  V30 8675 H 799.18 3.79586 1.88919 0
M  V30 8676 C 797.639 2.39079 2.37367 0
M  V30 8677 O 798.169 2.08933 3.43089 0
M  V30 8678 N 796.375 2.0125 2.09635 0
M  V30 8679 H 795.922 2.25966 1.23682 0
M  V30 8680 H 795.88 1.47408 2.77702 0
M  V30 8681 N 799.652 0.226554 1.55963 0
M  V30 8682 C 801.063 -0.280381 1.84583 0
M  V30 8683 C 801.414 -1.59105 1.14804 0
M  V30 8684 O 800.539 -2.12297 0.419414 0
M  V30 8685 C 801.134 -0.515499 3.34855 0
M  V30 8686 C 799.693 -0.966733 3.63774 0
M  V30 8687 C 798.84 -0.0325753 2.77281 0
M  V30 8688 H 801.791 0.449626 1.52197 0
M  V30 8689 H 801.812 -1.36085 3.55332 0
M  V30 8690 H 801.324 0.438594 3.85614 0
M  V30 8691 H 799.425 -1.93401 3.18476 0
M  V30 8692 H 799.538 -0.837679 4.7172 0
M  V30 8693 H 797.902 -0.540279 2.48904 0
M  V30 8694 H 798.685 0.916524 3.30839 0
M  V30 8695 N 801.13 -1.57531 -0.0467866 0
M  V30 8696 C 802.355 -1.93087 -0.757123 0
M  V30 8697 C 802.78 -0.825116 -1.69037 0
M  V30 8698 O 802.138 0.220449 -1.79955 0
M  V30 8699 C 802.186 -3.27669 -1.5055 0
M  V30 8700 O 801.29 -3.18667 -2.61773 0
M  V30 8701 H 800.631 -0.631597 -0.204892 0
M  V30 8702 H 803.161 -2.04599 -0.00755232 0
M  V30 8703 H 803.171 -3.6214 -1.87932 0
M  V30 8704 H 801.846 -4.07717 -0.820931 0
M  V30 8705 H 800.423 -2.95798 -2.27064 0
M  V30 8706 N 802.608 0.318715 -1.54344 0
M  V30 8707 C 803.833 1.07987 -1.77069 0
M  V30 8708 C 804.258 1.80766 -0.520117 0
M  V30 8709 O 803.616 1.73424 0.528566 0
M  V30 8710 C 803.664 2.04987 -2.96669 0
M  V30 8711 O 802.768 3.12974 -2.68554 0
M  V30 8712 H 802.109 0.311109 -0.586606 0
M  V30 8713 H 804.639 0.361533 -2.0138 0
M  V30 8714 H 804.649 2.47771 -3.2415 0
M  V30 8715 H 803.324 1.51417 -3.87357 0
M  V30 8716 H 801.901 2.74831 -2.52037 0
M  V30 8717 N 804.086 1.46499 0.581025 0
M  V30 8718 C 805.311 1.55708 1.37002 0
M  V30 8719 C 805.736 0.19942 1.8704 0
M  V30 8720 O 805.094 -0.820731 1.61659 0
M  V30 8721 C 805.142 2.56716 2.53238 0
M  V30 8722 O 804.246 2.10336 3.54729 0
M  V30 8723 H 803.587 0.523912 0.407937 0
M  V30 8724 H 806.117 1.92085 0.704602 0
M  V30 8725 H 806.127 2.76378 3.00132 0
M  V30 8726 H 804.802 3.55307 2.16171 0
M  V30 8727 H 803.379 2.00669 3.14303 0
M  V30 8728 N 805.565 -0.825799 1.34232 0
M  V30 8729 C 806.79 -1.61883 1.29648 0
M  V30 8730 C 807.215 -1.87669 -0.127295 0
M  V30 8731 O 806.573 -1.45016 -1.08813 0
M  V30 8732 C 806.621 -2.93846 2.09014 0
M  V30 8733 O 805.725 -3.85778 1.4577 0
M  V30 8734 H 805.066 -0.492454 0.445405 0
M  V30 8735 H 807.596 -1.02641 1.76992 0
M  V30 8736 H 807.606 -3.43435 2.20264 0
M  V30 8737 H 806.281 -2.74401 3.12533 0
M  V30 8738 H 804.858 -3.4429 1.43245 0
M  V30 8739 N 807.043 -1.17915 -1.04565 0
M  V30 8740 C 808.29 -0.971424 -1.77678 0
M  V30 8741 C 808.618 0.499401 -1.87979 0
M  V30 8742 O 807.873 1.38695 -1.38066 0
M  V30 8743 C 808.172 -1.56528 -3.213 0
M  V30 8744 C 807.838 -3.06138 -3.31044 0
M  V30 8745 C 806.5 -3.46974 -3.33411 0
M  V30 8746 C 808.852 -4.02151 -3.31548 0
M  V30 8747 C 806.18 -4.82406 -3.33918 0
M  V30 8748 C 808.532 -5.37492 -3.33595 0
M  V30 8749 C 807.196 -5.77782 -3.34251 0
M  V30 8750 H 806.466 -0.355469 -0.650171 0
M  V30 8751 H 809.113 -1.46902 -1.22849 0
M  V30 8752 H 807.418 -0.98955 -3.79098 0
M  V30 8753 H 809.115 -1.38003 -3.76505 0
M  V30 8754 H 805.705 -2.73589 -3.29919 0
M  V30 8755 H 809.889 -3.71656 -3.28916 0
M  V30 8756 H 805.145 -5.12927 -3.3274 0
M  V30 8757 H 809.319 -6.1166 -3.32934 0
M  V30 8758 H 806.946 -6.82702 -3.34397 0
M  V30 8759 N 808.521 1.23394 -0.980386 0
M  V30 8760 C 809.469 2.26872 -0.513018 0
M  V30 8761 C 810.463 1.63853 0.429948 0
M  V30 8762 O 811.669 1.77417 0.303842 0
M  V30 8763 H 808.044 0.737398 -0.147473 0
M  V30 8764 H 810.015 2.63654 -1.39746 0
M  V30 8765 C 808.764 3.47289 0.168962 0
M  V30 8766 H 808.087 3.96033 -0.547546 0
M  V30 8767 H 809.527 4.21502 0.459616 0
M  V30 8768 C 807.986 3.06425 1.40019 0
M  V30 8769 O 808.516 3.14708 2.49643 0
M  V30 8770 N 806.722 2.61339 1.27084 0
M  V30 8771 H 806.269 2.54799 0.378872 0
M  V30 8772 H 806.227 2.34364 2.09573 0
M  V30 8773 N 809.999 0.752036 1.385 0
M  V30 8774 C 811.246 0.307503 2.00152 0
M  V30 8775 C 811.574 -1.11033 1.59693 0
M  V30 8776 O 810.829 -1.77455 0.825125 0
M  V30 8777 C 811.128 0.376155 3.55415 0
M  V30 8778 C 810.794 1.74942 4.15579 0
M  V30 8779 C 809.456 2.12525 4.31725 0
M  V30 8780 C 811.808 2.65031 4.48785 0
M  V30 8781 C 809.136 3.39671 4.78373 0
M  V30 8782 C 811.488 3.91567 4.96848 0
M  V30 8783 C 810.152 4.2922 5.11201 0
M  V30 8784 H 809.422 0.112523 0.732407 0
M  V30 8785 H 812.069 0.962213 1.65571 0
M  V30 8786 H 810.374 -0.362121 3.90123 0
M  V30 8787 H 812.071 0.0138065 4.00998 0
M  V30 8788 H 808.661 1.44726 4.03426 0
M  V30 8789 H 812.845 2.3726 4.35914 0
M  V30 8790 H 808.101 3.68765 4.8767 0
M  V30 8791 H 812.275 4.61517 5.21512 0
M  V30 8792 H 809.902 5.27805 5.47107 0
M  V30 8793 N 811.477 -1.49425 0.500989 0
M  V30 8794 C 812.724 -2.02453 -0.0435355 0
M  V30 8795 C 813.052 -1.38067 -1.36995 0
M  V30 8796 O 812.307 -0.505557 -1.89057 0
M  V30 8797 C 812.606 -3.56562 -0.24463 0
M  V30 8798 C 812.272 -4.39585 1.00379 0
M  V30 8799 C 810.934 -4.61992 1.346 0
M  V30 8800 C 813.286 -4.87881 1.83361 0
M  V30 8801 C 810.614 -5.2994 2.51755 0
M  V30 8802 C 812.966 -5.57119 2.99669 0
M  V30 8803 C 811.63 -5.77771 3.3427 0
M  V30 8804 H 810.9 -0.740829 -0.0159308 0
M  V30 8805 H 813.547 -1.79725 0.661143 0
M  V30 8806 H 811.852 -3.77969 -1.03183 0
M  V30 8807 H 813.549 -3.95185 -0.6804 0
M  V30 8808 H 810.139 -4.22385 0.727225 0
M  V30 8809 H 814.323 -4.70398 1.58237 0
M  V30 8810 H 809.579 -5.44133 2.788 0
M  V30 8811 H 813.753 -5.93516 3.64296 0
M  V30 8812 H 811.38 -6.30197 4.25154 0
M  V30 8813 N 812.955 -0.234822 -1.55841 0
M  V30 8814 C 813.902 0.6698 -2.20867 0
M  V30 8815 C 814.872 1.18042 -1.16856 0
M  V30 8816 O 816.057 1.23709 -1.45261 0
M  V30 8817 C 813.197 1.86646 -2.90271 0
M  V30 8818 C 812.31 1.39351 -4.08908 0
M  V30 8819 C 811.445 2.54878 -4.66059 0
M  V30 8820 C 810.484 2.04384 -5.76969 0
M  V30 8821 N 809.621 3.13233 -6.28355 0
M  V30 8822 H 814.461 0.10858 -2.97802 0
M  V30 8823 H 811.998 0.041836 -1.4704 0
M  V30 8824 H 813.956 2.56926 -3.28702 0
M  V30 8825 H 812.586 2.40035 -2.15831 0
M  V30 8826 H 811.638 0.585173 -3.75872 0
M  V30 8827 H 812.95 0.983356 -4.89011 0
M  V30 8828 H 812.104 3.33219 -5.07001 0
M  V30 8829 H 810.843 2.99188 -3.85146 0
M  V30 8830 H 809.848 1.24509 -5.35516 0
M  V30 8831 H 811.073 1.61057 -6.59725 0
M  V30 8832 H 809.019 3.57 -5.50352 0
M  V30 8833 H 808.936 2.76511 -7.03618 0
M  V30 8834 H 810.204 3.91669 -6.73955 0
M  V30 8835 N 814.433 1.57553 0.0384317 0
M  V30 8836 C 815.844 1.77258 0.586211 0
M  V30 8837 C 816.195 0.864706 1.76117 0
M  V30 8838 O 815.32 0.057141 2.16325 0
M  V30 8839 C 815.915 3.21453 1.07021 0
M  V30 8840 C 814.474 3.42387 1.56358 0
M  V30 8841 C 813.621 2.72801 0.497508 0
M  V30 8842 H 816.572 1.57585 -0.187796 0
M  V30 8843 H 816.593 3.27451 1.93794 0
M  V30 8844 H 816.105 3.87505 0.214851 0
M  V30 8845 H 814.206 2.81497 2.44111 0
M  V30 8846 H 814.319 4.50968 1.61754 0
M  V30 8847 H 812.683 2.36305 0.95038 0
M  V30 8848 H 813.466 3.41529 -0.348234 0
M  V30 8849 N 815.911 -0.310526 1.54511 0
M  V30 8850 C 817.157 -1.04459 1.74528 0
M  V30 8851 C 817.512 -1.85251 0.519613 0
M  V30 8852 O 816.805 -1.85281 -0.488001 0
M  V30 8853 C 816.999 -1.98942 2.96912 0
M  V30 8854 C 816.828 -1.27442 4.31264 0
M  V30 8855 C 815.598 -1.00552 4.95194 0
M  V30 8856 C 817.796 -0.683695 5.09735 0
M  V30 8857 N 815.778 -0.259797 6.1335 0
M  V30 8858 C 817.149 -0.0702549 6.1996 0
M  V30 8859 C 819.204 -0.587799 4.94418 0
M  V30 8860 C 817.907 0.629791 7.16538 0
M  V30 8861 C 819.933 0.0985719 5.91318 0
M  V30 8862 C 819.295 0.700902 7.00904 0
M  V30 8863 H 815.394 -0.365496 0.69133 0
M  V30 8864 H 817.978 -0.324277 1.91981 0
M  V30 8865 H 816.149 -2.68233 2.80902 0
M  V30 8866 H 817.881 -2.6543 3.05498 0
M  V30 8867 H 814.636 -1.30123 4.55374 0
M  V30 8868 H 815.06 0.099301 6.76927 0
M  V30 8869 H 819.702 -1.03919 4.0983 0
M  V30 8870 H 817.42 1.09298 8.00674 0
M  V30 8871 H 821.006 0.172585 5.81544 0
M  V30 8872 H 819.886 1.22357 7.74596 0
M  V30 8873 N 817.389 -1.46805 -0.573248 0
M  V30 8874 C 818.614 -1.56433 -1.36175 0
M  V30 8875 C 819.039 -0.209336 -1.86932 0
M  V30 8876 O 818.397 0.812146 -1.62092 0
M  V30 8877 C 818.445 -2.58055 -2.51873 0
M  V30 8878 O 817.549 -2.12214 -3.53609 0
M  V30 8879 H 816.89 -0.526068 -0.405153 0
M  V30 8880 H 819.42 -1.92456 -0.694405 0
M  V30 8881 H 819.43 -2.77966 -2.98662 0
M  V30 8882 H 818.105 -3.56448 -2.14284 0
M  V30 8883 H 816.682 -2.02333 -3.13234 0
M  V30 8884 N 818.867 0.818669 -1.34668 0
M  V30 8885 C 820.092 1.61193 -1.30505 0
M  V30 8886 C 820.517 1.87734 0.117341 0
M  V30 8887 O 819.875 1.45591 1.08042 0
M  V30 8888 C 819.923 2.92733 -2.1057 0
M  V30 8889 O 819.027 3.85 -1.47813 0
M  V30 8890 H 818.368 0.490085 -0.44801 0
M  V30 8891 H 820.898 1.01701 -1.77534 0
M  V30 8892 H 820.908 3.42262 -2.22082 0
M  V30 8893 H 819.583 2.7274 -3.13984 0
M  V30 8894 H 818.16 3.43525 -1.45069 0
M  V30 8895 N 820.346 1.18468 1.03938 0
M  V30 8896 C 821.762 0.934635 1.29371 0
M  V30 8897 C 821.962 -0.399067 1.97509 0
M  V30 8898 O 821.018 -1.13309 2.25648 0
M  V30 8899 C 822.331 2.10111 2.15114 0
M  V30 8900 C 823.879 2.13955 2.28456 0
M  V30 8901 C 824.354 3.30024 3.17566 0
M  V30 8902 N 825.845 3.29893 3.25153 0
M  V30 8903 C 826.58 4.16346 3.94263 0
M  V30 8904 N 826.076 5.12934 4.65693 0
M  V30 8905 N 827.869 4.04256 3.90556 0
M  V30 8906 H 820.02 2.04294 0.581185 0
M  V30 8907 H 822.283 0.892727 0.318971 0
M  V30 8908 H 821.989 3.06572 1.72355 0
M  V30 8909 H 821.863 2.06283 3.15796 0
M  V30 8910 H 824.25 1.18072 2.7045 0
M  V30 8911 H 824.331 2.2184 1.2736 0
M  V30 8912 H 823.975 4.26181 2.76283 0
M  V30 8913 H 823.905 3.19376 4.18697 0
M  V30 8914 H 826.396 2.59969 2.74271 0
M  V30 8915 H 826.709 5.75271 5.16026 0
M  V30 8916 H 825.054 5.16893 4.64593 0
M  V30 8917 H 828.245 3.28083 3.33885 0
M  V30 8918 H 828.418 4.71848 4.44144 0
M  V30 8919 N 821.824 -1.22873 0.986916 0
M  V30 8920 C 822.771 -2.2458 0.532215 0
M  V30 8921 C 823.741 -1.60375 -0.432322 0
M  V30 8922 O 824.926 -1.87775 -0.338416 0
M  V30 8923 C 822.066 -3.44761 -0.152864 0
M  V30 8924 C 821.179 -4.23501 0.852704 0
M  V30 8925 C 820.314 -5.31011 0.14176 0
M  V30 8926 C 819.353 -6.01464 1.1361 0
M  V30 8927 N 818.49 -7.00631 0.453871 0
M  V30 8928 H 823.33 -2.62838 1.40428 0
M  V30 8929 H 820.867 -1.29185 0.703543 0
M  V30 8930 H 822.825 -4.1333 -0.566926 0
M  V30 8931 H 821.455 -3.07284 -0.988756 0
M  V30 8932 H 820.507 -3.54286 1.38512 0
M  V30 8933 H 821.819 -4.72097 1.61014 0
M  V30 8934 H 820.973 -6.05805 -0.329337 0
M  V30 8935 H 819.712 -4.83373 -0.648229 0
M  V30 8936 H 818.717 -5.25456 1.61789 0
M  V30 8937 H 819.942 -6.5119 1.92686 0
M  V30 8938 H 817.888 -6.55235 -0.316791 0
M  V30 8939 H 817.805 -7.47204 1.14986 0
M  V30 8940 H 819.073 -7.795 0.00537823 0
M  V30 8941 N 823.302 -0.75937 -1.38099 0
M  V30 8942 C 824.579 -0.243371 -1.9408 0
M  V30 8943 C 824.959 1.25942 -1.69416 0
M  V30 8944 O 824.307 2.03667 -1.03595 0
M  V30 8945 C 824.517 -0.603328 -3.43745 0
M  V30 8946 C 825.865 -0.566195 -4.20808 0
M  V30 8947 O 826.889 -0.541969 -3.52053 0
M  V30 8948 O 825.748 -0.582261 -5.43389 0
M  V30 8949 H 822.842 -0.0526825 -0.82532 0
M  V30 8950 H 825.388 -0.839884 -1.47459 0
M  V30 8951 H 824.16 -1.64098 -3.55229 0
M  V30 8952 H 823.783 0.0208887 -3.97595 0
M  V30 8953 N 824.78 1.49157 -0.508906 0
M  V30 8954 C 825.712 2.272 0.302115 0
M  V30 8955 C 826.725 1.3407 0.923529 0
M  V30 8956 O 827.914 1.5929 0.805532 0
M  V30 8957 C 825.014 3.06736 1.44105 0
M  V30 8958 C 824.187 4.27497 0.925477 0
M  V30 8959 C 823.246 4.89014 1.94297 0
M  V30 8960 O 822.272 5.48851 1.50834 0
M  V30 8961 N 823.474 4.7937 3.2739 0
M  V30 8962 H 826.239 2.97443 -0.367115 0
M  V30 8963 H 823.8 1.58248 -0.341933 0
M  V30 8964 H 825.792 3.44763 2.11944 0
M  V30 8965 H 824.362 2.3905 2.0143 0
M  V30 8966 H 823.582 3.94135 0.0717301 0
M  V30 8967 H 824.87 5.05714 0.55955 0
M  V30 8968 H 824.268 4.31869 3.65384 0
M  V30 8969 H 822.825 5.21559 3.90922 0
M  V30 8970 N 826.258 0.243083 1.55714 0
M  V30 8971 C 827.483 -0.389944 2.03701 0
M  V30 8972 C 827.908 -1.51025 1.12129 0
M  V30 8973 O 827.266 -1.80944 0.11352 0
M  V30 8974 C 827.314 -0.878649 3.49731 0
M  V30 8975 O 826.418 -1.98851 3.61292 0
M  V30 8976 H 825.759 -0.0855115 0.658471 0
M  V30 8977 H 828.289 0.368023 2.01263 0
M  V30 8978 H 828.299 -1.18287 3.90477 0
M  V30 8979 H 826.974 -0.0588107 4.15858 0
M  V30 8980 H 825.551 -1.68928 3.32442 0
M  V30 8981 N 827.736 -1.57571 -0.0300757 0
M  V30 8982 C 828.985 -1.88407 -0.720126 0
M  V30 8983 C 829.298 -0.841466 -1.76575 0
M  V30 8984 O 830.504 -1.03902 -2.50832 0
M  V30 8985 C 828.96 -3.34348 -1.33188 0
M  V30 8986 C 828.568 -4.46837 -0.32266 0
M  V30 8987 C 830.312 -3.74333 -2.00187 0
M  V30 8988 C 828.219 -5.83838 -0.942703 0
M  V30 8989 H 827.149 -0.702952 -0.272718 0
M  V30 8990 H 829.8 -1.83482 0.0255337 0
M  V30 8991 H 828.182 -3.34014 -2.12721 0
M  V30 8992 H 829.356 -4.58638 0.445887 0
M  V30 8993 H 827.671 -4.15678 0.245181 0
M  V30 8994 H 830.268 -4.74008 -2.47428 0
M  V30 8995 H 830.611 -3.06275 -2.81959 0
M  V30 8996 H 831.144 -3.76837 -1.2743 0
M  V30 8997 H 827.883 -6.55294 -0.164413 0
M  V30 8998 H 827.403 -5.75759 -1.68111 0
M  V30 8999 H 829.082 -6.30535 -1.45034 0
M  V30 9000 N 829.214 0.302327 -1.54673 0
M  V30 9001 C 830.161 1.37282 -1.85532 0
M  V30 9002 C 831.131 1.50437 -0.704129 0
M  V30 9003 O 832.316 1.65317 -0.952627 0
M  V30 9004 C 829.456 2.73309 -2.10704 0
M  V30 9005 C 828.569 2.68614 -3.38335 0
M  V30 9006 C 827.704 3.96626 -3.53357 0
M  V30 9007 C 826.743 3.86324 -4.74784 0
M  V30 9008 N 825.88 5.06109 -4.86619 0
M  V30 9009 H 830.72 1.10265 -2.76849 0
M  V30 9010 H 828.257 0.533346 -1.37091 0
M  V30 9011 H 830.215 3.52414 -2.23294 0
M  V30 9012 H 828.845 2.98589 -1.22656 0
M  V30 9013 H 827.897 1.81381 -3.34373 0
M  V30 9014 H 829.209 2.56891 -4.27561 0
M  V30 9015 H 828.363 4.84168 -3.65604 0
M  V30 9016 H 827.102 4.11182 -2.62261 0
M  V30 9017 H 826.107 2.97166 -4.62572 0
M  V30 9018 H 827.332 3.73315 -5.67286 0
M  V30 9019 H 825.278 5.2113 -3.98446 0
M  V30 9020 H 825.195 4.96804 -5.69844 0
M  V30 9021 H 826.463 5.95306 -5.03221 0
M  V30 9022 N 830.692 1.47107 0.565454 0
M  V30 9023 C 831.64 1.59368 1.69424 0
M  V30 9024 C 832.634 0.461344 1.62997 0
M  V30 9025 O 833.84 0.638849 1.68282 0
M  V30 9026 H 830.215 0.501387 0.560459 0
M  V30 9027 H 832.186 2.54242 1.56217 0
M  V30 9028 C 830.935 1.61739 3.07792 0
M  V30 9029 H 830.258 2.48215 3.13416 0
M  V30 9030 H 831.698 1.7437 3.86486 0
M  V30 9031 C 830.157 0.349156 3.35086 0
M  V30 9032 O 830.687 -0.553287 3.97871 0
M  V30 9033 N 828.893 0.231723 2.89675 0
M  V30 9034 H 828.44 0.967021 2.3876 0
M  V30 9035 H 828.398 -0.615911 3.08308 0
M  V30 9036 N 832.17 -0.811516 1.35101 0
M  V30 9037 C 833.118 -1.94449 1.27642 0
M  V30 9038 C 834.112 -1.68522 0.172287 0
M  V30 9039 O 835.318 -1.76799 0.337967 0
M  V30 9040 H 831.693 -0.638776 0.396824 0
M  V30 9041 H 833.664 -1.97861 2.23369 0
M  V30 9042 C 832.413 -3.31139 1.06029 0
M  V30 9043 H 831.736 -3.51644 1.90227 0
M  V30 9044 H 833.176 -4.10831 1.0485 0
M  V30 9045 C 831.635 -3.36072 -0.236039 0
M  V30 9046 O 832.165 -3.82292 -1.23353 0
M  V30 9047 N 830.371 -2.89314 -0.273107 0
M  V30 9048 H 829.918 -2.51893 0.539211 0
M  V30 9049 H 829.876 -2.92996 -1.1402 0
M  V30 9050 N 833.648 -1.19017 -1.03309 0
M  V30 9051 C 834.876 -1.01534 -1.80273 0
M  V30 9052 C 835.291 0.43605 -1.83696 0
M  V30 9053 O 834.648 1.30288 -1.27794 0
M  V30 9054 C 834.699 -1.5722 -3.25522 0
M  V30 9055 O 834.42 -2.96677 -3.22358 0
M  V30 9056 C 835.921 -1.4446 -4.19102 0
M  V30 9057 H 833.141 -0.358094 -0.567459 0
M  V30 9058 H 835.685 -1.57738 -1.3015 0
M  V30 9059 H 833.84 -1.05174 -3.7285 0
M  V30 9060 H 834.254 -3.22795 -4.13405 0
M  V30 9061 H 835.728 -1.88209 -5.18923 0
M  V30 9062 H 836.205 -0.394471 -4.37425 0
M  V30 9063 H 836.811 -1.95616 -3.77643 0
M  V30 9064 N 835.127 1.22348 -0.993418 0
M  V30 9065 C 836.075 2.26315 -0.537052 0
M  V30 9066 C 837.069 1.643 0.412545 0
M  V30 9067 O 838.275 1.77729 0.285008 0
M  V30 9068 H 834.65 0.735792 -0.155286 0
M  V30 9069 H 836.621 2.62157 -1.42535 0
M  V30 9070 C 835.37 3.47449 0.132118 0
M  V30 9071 H 834.693 3.9543 -0.589519 0
M  V30 9072 H 836.133 4.21965 0.414884 0
M  V30 9073 C 834.592 3.07893 1.36761 0
M  V30 9074 O 835.122 3.17338 2.46291 0
M  V30 9075 N 833.328 2.62672 1.24305 0
M  V30 9076 H 832.875 2.55186 0.351826 0
M  V30 9077 H 832.833 2.36574 2.07076 0
M  V30 9078 N 836.605 0.766683 1.37694 0
M  V30 9079 C 837.552 0.147725 2.30327 0
M  V30 9080 C 838.522 -0.695366 1.50844 0
M  V30 9081 O 839.707 -0.64878 1.79431 0
M  V30 9082 C 836.847 -0.72935 3.37305 0
M  V30 9083 C 835.96 0.129795 4.31805 0
M  V30 9084 C 835.095 -0.751511 5.25857 0
M  V30 9085 C 834.134 0.110475 6.12 0
M  V30 9086 N 833.271 -0.728522 6.9831 0
M  V30 9087 H 838.111 0.943204 2.82679 0
M  V30 9088 H 835.648 0.476736 1.3916 0
M  V30 9089 H 837.606 -1.25263 3.97951 0
M  V30 9090 H 836.236 -1.49048 2.86329 0
M  V30 9091 H 835.288 0.770829 3.72508 0
M  V30 9092 H 836.6 0.794923 4.92425 0
M  V30 9093 H 835.754 -1.34146 5.91684 0
M  V30 9094 H 834.493 -1.45034 4.65636 0
M  V30 9095 H 833.498 0.712999 5.45157 0
M  V30 9096 H 834.723 0.806557 6.74293 0
M  V30 9097 H 832.669 -1.41206 6.40622 0
M  V30 9098 H 832.586 -0.12058 7.55904 0
M  V30 9099 H 833.854 -1.30303 7.68532 0
M  V30 9100 N 838.083 -1.48885 0.516809 0
M  V30 9101 C 839.031 -2.31066 -0.266656 0
M  V30 9102 C 840.025 -1.40393 -0.94795 0
M  V30 9103 O 841.231 -1.57366 -0.873836 0
M  V30 9104 H 837.606 -0.744654 -0.104858 0
M  V30 9105 H 839.577 -2.95045 0.446236 0
M  V30 9106 C 838.326 -3.22131 -1.3087 0
M  V30 9107 H 837.649 -3.91839 -0.793865 0
M  V30 9108 H 839.089 -3.82544 -1.82856 0
M  V30 9109 C 837.548 -2.42825 -2.33533 0
M  V30 9110 O 838.078 -2.14364 -3.39722 0
M  V30 9111 N 836.284 -2.04559 -2.06407 0
M  V30 9112 H 835.831 -2.27905 -1.20071 0
M  V30 9113 H 835.789 -1.51807 -2.75322 0
M  V30 9114 N 839.561 -0.251338 -1.55583 0
M  V30 9115 C 840.509 0.662534 -2.22965 0
M  V30 9116 C 841.503 1.17662 -1.21869 0
M  V30 9117 O 842.709 1.133 -1.39868 0
M  V30 9118 H 839.084 0.232151 -0.715269 0
M  V30 9119 H 841.055 0.0711252 -2.98315 0
M  V30 9120 C 839.804 1.84646 -2.94621 0
M  V30 9121 H 839.127 1.46003 -3.72187 0
M  V30 9122 H 840.567 2.46303 -3.45124 0
M  V30 9123 C 839.026 2.72034 -1.98744 0
M  V30 9124 O 839.556 3.71695 -1.52335 0
M  V30 9125 N 837.762 2.38695 -1.6575 0
M  V30 9126 H 837.309 1.57702 -2.03685 0
M  V30 9127 H 837.267 2.9744 -1.01867 0
M  V30 9128 N 841.039 1.57585 0.0217189 0
M  V30 9129 C 842.288 1.88786 0.710125 0
M  V30 9130 C 842.601 0.850819 1.76126 0
M  V30 9131 O 843.807 1.0523 2.50277 0
M  V30 9132 C 842.263 3.3505 1.31413 0
M  V30 9133 C 841.871 4.47001 0.298959 0
M  V30 9134 C 843.615 3.7539 1.98199 0
M  V30 9135 C 841.522 5.8433 0.911727 0
M  V30 9136 H 840.452 0.704388 0.268986 0
M  V30 9137 H 843.103 1.83466 -0.0352638 0
M  V30 9138 H 841.485 3.35138 2.10947 0
M  V30 9139 H 842.659 4.58395 -0.470203 0
M  V30 9140 H 840.974 4.15542 -0.267222 0
M  V30 9141 H 843.571 4.75314 2.4491 0
M  V30 9142 H 843.914 3.07766 2.80331 0
M  V30 9143 H 844.447 3.77508 1.2543 0
M  V30 9144 H 841.186 6.55372 0.129659 0
M  V30 9145 H 840.706 5.76643 1.65056 0
M  V30 9146 H 842.385 6.31295 1.41688 0
M  V30 9147 N 842.517 -0.29412 1.54831 0
M  V30 9148 C 843.467 -1.36476 1.82643 0
M  V30 9149 C 844.451 -1.45638 0.683984 0
M  V30 9150 O 845.643 -1.49675 0.944801 0
M  V30 9151 C 842.772 -2.72865 2.08326 0
M  V30 9152 C 841.858 -2.67898 3.28773 0
M  V30 9153 N 842.249 -2.32547 4.49172 0
M  V30 9154 C 840.547 -2.98991 3.30939 0
M  V30 9155 C 841.248 -2.37048 5.31209 0
M  V30 9156 N 840.224 -2.74679 4.69097 0
M  V30 9157 H 844.026 -1.08119 2.7329 0
M  V30 9158 H 841.54 -0.502718 1.54423 0
M  V30 9159 H 843.537 -3.5007 2.264 0
M  V30 9160 H 842.197 -3.02127 1.1895 0
M  V30 9161 H 843.208 -2.04883 4.7565 0
M  V30 9162 H 839.885 -3.33104 2.51691 0
M  V30 9163 H 841.275 -2.12457 6.37426 0
M  V30 9164 N 843.995 -1.47404 -0.557645 0
M  V30 9165 C 844.945 -1.56267 -1.66026 0
M  V30 9166 C 845.929 -0.42161 -1.55278 0
M  V30 9167 O 847.121 -0.671505 -1.63768 0
M  V30 9168 C 844.25 -1.57958 -3.04802 0
M  V30 9169 C 843.336 -2.77447 -3.20755 0
M  V30 9170 N 843.727 -4.02148 -3.06775 0
M  V30 9171 C 842.025 -2.74199 -3.51754 0
M  V30 9172 C 842.726 -4.82168 -3.25406 0
M  V30 9173 N 841.702 -4.14481 -3.5172 0
M  V30 9174 H 845.504 -2.50454 -1.53785 0
M  V30 9175 H 843.018 -1.43392 -0.762388 0
M  V30 9176 H 845.015 -1.62397 -3.8397 0
M  V30 9177 H 843.675 -0.648667 -3.18155 0
M  V30 9178 H 844.686 -4.33014 -2.84111 0
M  V30 9179 H 841.363 -1.90243 -3.71637 0
M  V30 9180 H 842.753 -5.91037 -3.19569 0
M  V30 9181 N 845.473 0.80434 -1.35529 0
M  V30 9182 C 846.698 1.598 -1.32207 0
M  V30 9183 C 847.123 1.87848 0.0974226 0
M  V30 9184 O 846.481 1.46728 1.06492 0
M  V30 9185 C 846.529 2.90483 -2.13663 0
M  V30 9186 O 845.633 3.83411 -1.51888 0
M  V30 9187 H 844.974 0.485305 -0.453183 0
M  V30 9188 H 847.504 0.998119 -1.78602 0
M  V30 9189 H 847.514 3.39888 -2.257 0
M  V30 9190 H 846.189 2.69395 -3.16859 0
M  V30 9191 H 844.766 3.41967 -1.48704 0
M  V30 9192 N 846.951 1.19563 1.02676 0
M  V30 9193 C 847.899 0.931942 2.13114 0
M  V30 9194 C 848.893 -0.113007 1.69023 0
M  V30 9195 O 850.099 0.0364298 1.79963 0
M  V30 9196 H 846.474 0.283981 0.696318 0
M  V30 9197 H 848.445 1.86991 2.32545 0
M  V30 9198 C 847.194 0.489461 3.44238 0
M  V30 9199 H 846.517 1.28508 3.78584 0
M  V30 9200 H 847.957 0.34408 4.22602 0
M  V30 9201 C 846.416 -0.796761 3.27343 0
M  V30 9202 O 846.946 -1.85767 3.56165 0
M  V30 9203 N 845.152 -0.754824 2.80626 0
M  V30 9204 H 844.699 0.108778 2.5737 0
M  V30 9205 H 844.657 -1.6158 2.69702 0
M  V30 9206 N 848.429 -1.21819 0.999893 0
M  V30 9207 C 849.377 -2.26027 0.549047 0
M  V30 9208 C 850.371 -1.64516 -0.403826 0
M  V30 9209 O 851.577 -1.77878 -0.275578 0
M  V30 9210 H 847.952 -0.734958 0.159185 0
M  V30 9211 H 849.923 -2.61398 1.43923 0
M  V30 9212 C 848.672 -3.47514 -0.11369 0
M  V30 9213 H 847.995 -3.95112 0.610482 0
M  V30 9214 H 849.435 -4.22179 -0.3925 0
M  V30 9215 C 847.894 -3.08614 -1.35126 0
M  V30 9216 O 848.424 -3.1864 -2.44605 0
M  V30 9217 N 846.63 -2.63327 -1.22911 0
M  V30 9218 H 846.177 -2.55369 -0.338288 0
M  V30 9219 H 846.135 -2.37668 -2.05818 0
M  V30 9220 N 849.908 -0.773975 -1.37286 0
M  V30 9221 C 851.157 -0.335977 -1.98882 0
M  V30 9222 C 851.47 1.09416 -1.62134 0
M  V30 9223 O 852.676 1.63366 -2.1685 0
M  V30 9224 C 851.132 -0.549756 -3.55676 0
M  V30 9225 C 850.74 -1.9903 -4.01361 0
M  V30 9226 C 852.484 -0.175493 -4.24137 0
M  V30 9227 C 850.391 -2.15156 -5.50874 0
M  V30 9228 H 849.321 -0.121877 -0.744085 0
M  V30 9229 H 851.972 -0.953419 -1.56787 0
M  V30 9230 H 850.354 0.137175 -3.95762 0
M  V30 9231 H 851.528 -2.71237 -3.72515 0
M  V30 9232 H 849.843 -2.32137 -3.4569 0
M  V30 9233 H 852.44 -0.274463 -5.33995 0
M  V30 9234 H 852.783 0.874524 -4.07011 0
M  V30 9235 H 853.316 -0.815058 -3.89361 0
M  V30 9236 H 850.055 -3.18485 -5.72929 0
M  V30 9237 H 849.575 -1.47435 -5.81397 0
M  V30 9238 H 851.254 -1.95124 -6.16876 0
M  V30 9239 N 851.386 1.48609 -0.524698 0
M  V30 9240 C 852.334 2.31205 0.254398 0
M  V30 9241 C 853.328 1.40894 0.940491 0
M  V30 9242 O 854.534 1.57827 0.865478 0
M  V30 9243 H 850.909 0.745199 0.100907 0
M  V30 9244 H 852.88 2.94804 -0.461876 0
M  V30 9245 C 851.629 3.2282 1.2916 0
M  V30 9246 H 850.952 3.92255 0.773074 0
M  V30 9247 H 852.392 3.83508 1.80825 0
M  V30 9248 C 850.851 2.4406 2.32242 0
M  V30 9249 O 851.381 2.16163 3.3858 0
M  V30 9250 N 849.587 2.05651 2.05319 0
M  V30 9251 H 849.134 2.28539 1.18861 0
M  V30 9252 H 849.092 1.53265 2.74513 0
M  V30 9253 N 852.864 0.259585 1.55447 0
M  V30 9254 C 853.812 -0.6507 2.23313 0
M  V30 9255 C 854.806 -1.17014 1.22491 0
M  V30 9256 O 856.012 -1.12557 1.40467 0
M  V30 9257 H 852.387 -0.228354 0.71649 0
M  V30 9258 H 854.358 -0.0553039 2.98349 0
M  V30 9259 C 853.107 -1.83081 2.95596 0
M  V30 9260 H 852.43 -1.44027 3.72956 0
M  V30 9261 H 853.87 -2.44469 3.46426 0
M  V30 9262 C 852.329 -2.70976 2.00184 0
M  V30 9263 O 852.859 -3.70882 1.54304 0
M  V30 9264 N 851.065 -2.37813 1.67014 0
M  V30 9265 H 850.612 -1.5662 2.04519 0
M  V30 9266 H 850.57 -2.96896 1.03443 0
M  V30 9267 N 854.342 -1.57594 -0.0133615 0
M  V30 9268 C 855.588 -1.90262 -0.702019 0
M  V30 9269 C 855.921 -0.859219 -1.74158 0
M  V30 9270 O 855.196 0.123778 -1.94106 0
M  V30 9271 C 855.479 -3.3354 -1.35732 0
M  V30 9272 C 855.332 -4.48586 -0.330208 0
M  V30 9273 C 856.651 -3.76004 -2.28712 0
M  V30 9274 H 853.77 -0.691943 -0.253739 0
M  V30 9275 H 856.412 -1.89967 0.0351894 0
M  V30 9276 H 854.562 -3.33921 -1.98567 0
M  V30 9277 H 856.234 -4.6034 0.297433 0
M  V30 9278 H 854.477 -4.32394 0.348926 0
M  V30 9279 H 855.148 -5.45762 -0.827508 0
M  V30 9280 H 857.624 -3.77089 -1.75906 0
M  V30 9281 H 856.5 -4.77032 -2.71535 0
M  V30 9282 H 856.761 -3.09129 -3.16056 0
M  V30 9283 N 855.82 0.285905 -1.54985 0
M  V30 9284 C 856.768 1.37302 -1.87752 0
M  V30 9285 C 857.762 1.51763 -0.752616 0
M  V30 9286 O 858.968 1.53701 -0.936805 0
M  V30 9287 H 855.343 0.458935 -0.59572 0
M  V30 9288 H 857.314 1.0691 -2.78591 0
M  V30 9289 C 856.063 2.72885 -2.15474 0
M  V30 9290 H 855.386 2.62545 -3.01513 0
M  V30 9291 H 856.826 3.47925 -2.42331 0
M  V30 9292 C 855.285 3.22989 -0.958124 0
M  V30 9293 O 855.815 4.01268 -0.186219 0
M  V30 9294 N 854.021 2.80503 -0.759354 0
M  V30 9295 H 853.568 2.16961 -1.38874 0
M  V30 9296 H 853.526 3.14375 0.0396937 0
M  V30 9297 N 857.298 1.47698 0.54982 0
M  V30 9298 C 858.246 1.61156 1.67724 0
M  V30 9299 C 859.24 0.478606 1.62498 0
M  V30 9300 O 860.446 0.656661 1.67595 0
M  V30 9301 H 856.821 0.507304 0.55511 0
M  V30 9302 H 858.792 2.55884 1.53512 0
M  V30 9303 C 857.541 1.64994 3.06059 0
M  V30 9304 H 856.864 2.51525 3.10765 0
M  V30 9305 H 858.304 1.78459 3.84615 0
M  V30 9306 C 856.763 0.384677 3.34697 0
M  V30 9307 O 857.293 -0.511057 3.98436 0
M  V30 9308 N 855.499 0.262434 2.89413 0
M  V30 9309 H 855.046 0.99229 2.37721 0
M  V30 9310 H 855.004 -0.583177 3.08944 0
M  V30 9311 N 858.776 -0.797141 1.35954 0
M  V30 9312 C 860.022 -1.55698 1.29946 0
M  V30 9313 C 860.355 -1.93808 -0.123259 0
M  V30 9314 O 859.63 -1.62102 -1.07486 0
M  V30 9315 C 859.913 -2.83926 2.2149 0
M  V30 9316 C 859.766 -2.52232 3.72423 0
M  V30 9317 C 861.085 -3.85698 2.11955 0
M  V30 9318 H 858.204 -0.56488 0.47337 0
M  V30 9319 H 860.846 -0.916421 1.66438 0
M  V30 9320 H 858.996 -3.38588 1.905 0
M  V30 9321 H 860.668 -2.0368 4.13899 0
M  V30 9322 H 858.911 -1.85286 3.92239 0
M  V30 9323 H 859.582 -3.43782 4.31877 0
M  V30 9324 H 862.058 -3.40462 2.39218 0
M  V30 9325 H 860.934 -4.73182 2.78191 0
M  V30 9326 H 861.195 -4.28083 1.10442 0
M  V30 9327 N 860.254 -1.20106 -1.0204 0
M  V30 9328 C 861.202 -0.943231 -2.12617 0
M  V30 9329 C 862.196 0.104042 -1.6908 0
M  V30 9330 O 863.402 -0.0459732 -1.79941 0
M  V30 9331 H 859.777 -0.28767 -0.694802 0
M  V30 9332 H 861.748 -1.88221 -2.3155 0
M  V30 9333 C 860.497 -0.50771 -3.43973 0
M  V30 9334 H 859.82 -1.30514 -3.77897 0
M  V30 9335 H 861.26 -0.366486 -4.22413 0
M  V30 9336 C 859.719 0.77939 -3.27761 0
M  V30 9337 O 860.249 1.83876 -3.57145 0
M  V30 9338 N 858.455 0.739931 -2.81022 0
M  V30 9339 H 858.002 -0.122426 -2.57309 0
M  V30 9340 H 857.96 1.60147 -2.70556 0
M  V30 9341 N 861.732 1.21287 -1.00634 0
M  V30 9342 C 862.972 1.92106 -0.698194 0
M  V30 9343 C 863.336 1.76437 0.757222 0
M  V30 9344 O 864.537 2.41641 1.17741 0
M  V30 9345 C 862.808 3.39748 -1.10932 0
M  V30 9346 S 864.367 4.29013 -0.921586 0
M  V30 9347 H 861.185 0.663755 -0.254853 0
M  V30 9348 H 863.787 1.46772 -1.29145 0
M  V30 9349 H 862.491 3.48669 -2.16467 0
M  V30 9350 H 862.022 3.90101 -0.508419 0
M  V30 9351 H 864.037 4.95871 0.180578 0
M  V30 9352 N 863.21 0.781244 1.36873 0
M  V30 9353 C 864.458 0.349198 1.9906 0
M  V30 9354 C 864.779 -1.0806 1.62321 0
M  V30 9355 O 864.049 -1.74351 0.893229 0
M  V30 9356 H 862.629 0.126126 0.736275 0
M  V30 9357 H 865.291 1.00148 1.67202 0
M  V30 9358 H 864.387 0.434451 3.09061 0
M  V30 9359 N 864.689 -1.48329 0.532571 0
M  V30 9360 C 865.966 -1.95492 -0.0650985 0
M  V30 9361 C 866.346 -1.47485 -1.51034 0
M  V30 9362 O 865.694 -0.702516 -2.17433 0
M  V30 9363 C 865.904 -3.48957 0.0548341 0
M  V30 9364 C 867.252 -4.24475 -0.103115 0
M  V30 9365 O 868.276 -3.56195 -0.0188343 0
M  V30 9366 O 867.135 -5.45781 -0.280164 0
M  V30 9367 H 864.229 -0.823327 -0.0778603 0
M  V30 9368 H 866.775 -1.58839 0.597353 0
M  V30 9369 H 865.547 -3.76628 1.06148 0
M  V30 9370 H 865.17 -3.92311 -0.64635 0
M  V30 9371 N 866.167 -0.267825 -1.55308 0
M  V30 9372 C 867.444 0.402449 -1.91415 0
M  V30 9373 C 867.824 1.7428 -1.1912 0
M  V30 9374 O 867.172 2.2631 -0.315609 0
M  V30 9375 C 867.382 0.549926 -3.4464 0
M  V30 9376 C 868.73 0.836188 -4.16285 0
M  V30 9377 O 869.754 0.635009 -3.50494 0
M  V30 9378 O 868.613 1.22051 -5.32697 0
M  V30 9379 H 865.707 0.219177 -0.797427 0
M  V30 9380 H 868.253 -0.313439 -1.6678 0
M  V30 9381 H 867.025 -0.393641 -3.89315 0
M  V30 9382 H 866.648 1.31556 -3.75205 0
M  V30 9383 N 867.645 1.57599 0.00500368 0
M  V30 9384 C 868.891 1.90631 0.691919 0
M  V30 9385 C 869.224 0.868443 1.737 0
M  V30 9386 O 868.499 -0.113482 1.94169 0
M  V30 9387 C 868.782 3.34255 1.33961 0
M  V30 9388 C 868.635 4.48755 0.306413 0
M  V30 9389 C 869.954 3.77211 2.26715 0
M  V30 9390 H 867.073 0.693279 0.250066 0
M  V30 9391 H 869.715 1.89946 -0.0452634 0
M  V30 9392 H 867.865 3.3497 1.96793 0
M  V30 9393 H 869.537 4.60176 -0.321841 0
M  V30 9394 H 867.78 4.32203 -0.371852 0
M  V30 9395 H 868.451 5.46193 0.798554 0
M  V30 9396 H 870.927 3.78017 1.73904 0
M  V30 9397 H 869.803 4.78466 2.69002 0
M  V30 9398 H 870.064 3.10801 3.14413 0
M  V30 9399 N 869.123 -0.277682 1.55134 0
M  V30 9400 C 870.07 -1.34313 1.87693 0
M  V30 9401 C 871.04 -1.49298 0.727973 0
M  V30 9402 O 872.225 -1.6378 0.978807 0
M  V30 9403 C 869.365 -2.69922 2.15026 0
M  V30 9404 C 868.478 -2.63197 3.42565 0
M  V30 9405 C 867.613 -3.90955 3.59622 0
M  V30 9406 C 866.652 -3.78722 4.8087 0
M  V30 9407 N 865.789 -4.98303 4.94609 0
M  V30 9408 H 870.629 -1.05847 2.78569 0
M  V30 9409 H 868.166 -0.511469 1.37922 0
M  V30 9410 H 870.124 -3.48817 2.28872 0
M  V30 9411 H 868.754 -2.966 1.2739 0
M  V30 9412 H 867.806 -1.76038 3.37216 0
M  V30 9413 H 869.118 -2.50056 4.31594 0
M  V30 9414 H 868.272 -4.78291 3.7326 0
M  V30 9415 H 867.011 -4.06957 2.6877 0
M  V30 9416 H 866.016 -2.89769 4.67241 0
M  V30 9417 H 867.241 -3.64242 5.73153 0
M  V30 9418 H 865.187 -5.14725 4.06687 0
M  V30 9419 H 865.104 -4.87675 5.77676 0
M  V30 9420 H 866.372 -5.87225 5.12628 0
M  V30 9421 N 870.601 -1.47988 -0.541979 0
M  V30 9422 C 871.831 -1.58804 -1.32155 0
M  V30 9423 C 872.239 -0.242893 -1.87634 0
M  V30 9424 O 871.582 0.776239 -1.66494 0
M  V30 9425 C 871.644 -2.56567 -2.51821 0
M  V30 9426 C 871.308 -4.01915 -2.17517 0
M  V30 9427 C 872.305 -4.89954 -1.73901 0
M  V30 9428 C 869.99 -4.47365 -2.28408 0
M  V30 9429 C 871.984 -6.21467 -1.41625 0
M  V30 9430 C 869.671 -5.78902 -1.95745 0
M  V30 9431 C 870.669 -6.65775 -1.52423 0
M  V30 9432 O 870.357 -7.94866 -1.20183 0
M  V30 9433 H 870.089 -0.538536 -0.408601 0
M  V30 9434 H 872.643 -1.94446 -0.661818 0
M  V30 9435 H 870.873 -2.16023 -3.20735 0
M  V30 9436 H 872.562 -2.57347 -3.13891 0
M  V30 9437 H 873.328 -4.56082 -1.64966 0
M  V30 9438 H 869.207 -3.79942 -2.61084 0
M  V30 9439 H 872.751 -6.8923 -1.07738 0
M  V30 9440 H 868.648 -6.12311 -2.04316 0
M  V30 9441 H 869.416 -8.07509 -1.33683 0
M  V30 9442 N 872.079 0.78992 -1.36375 0
M  V30 9443 C 873.328 1.54296 -1.29906 0
M  V30 9444 C 873.641 1.95234 0.119651 0
M  V30 9445 O 874.847 2.69762 0.306708 0
M  V30 9446 C 873.303 2.78533 -2.27919 0
M  V30 9447 C 872.911 2.44767 -3.75224 0
M  V30 9448 C 874.655 3.56516 -2.30427 0
M  V30 9449 C 872.562 3.65397 -4.65015 0
M  V30 9450 H 871.492 0.579214 -0.482729 0
M  V30 9451 H 874.143 0.866845 -1.61735 0
M  V30 9452 H 872.525 3.47941 -1.89084 0
M  V30 9453 H 873.699 1.83259 -4.22792 0
M  V30 9454 H 872.014 1.79996 -3.75487 0
M  V30 9455 H 874.611 4.46143 -2.94722 0
M  V30 9456 H 874.954 3.95063 -1.31266 0
M  V30 9457 H 875.487 2.94087 -2.67876 0
M  V30 9458 H 872.226 3.31946 -5.65236 0
M  V30 9459 H 871.746 4.26072 -4.22164 0
M  V30 9460 H 873.425 4.32431 -4.81261 0
M  V30 9461 N 873.557 1.20646 1.01402 0
M  V30 9462 C 874.806 1.01242 1.7445 0
M  V30 9463 C 875.119 -0.455732 1.90217 0
M  V30 9464 O 876.325 -0.768951 2.60383 0
M  V30 9465 C 874.781 1.76275 3.13776 0
M  V30 9466 C 874.389 3.27201 3.06013 0
M  V30 9467 C 876.133 1.65248 3.91016 0
M  V30 9468 C 874.04 3.9476 4.40362 0
M  V30 9469 H 872.97 0.375202 0.654018 0
M  V30 9470 H 875.621 1.44292 1.13367 0
M  V30 9471 H 874.003 1.26013 3.75415 0
M  V30 9472 H 875.177 3.84695 2.53665 0
M  V30 9473 H 873.492 3.38669 2.42265 0
M  V30 9474 H 876.089 2.13061 4.90417 0
M  V30 9475 H 876.432 0.609128 4.1182 0
M  V30 9476 H 876.965 2.12937 3.3601 0
M  V30 9477 H 873.704 4.99258 4.24761 0
M  V30 9478 H 873.224 3.42054 4.92706 0
M  V30 9479 H 874.903 3.99159 5.09196 0
M  V30 9480 N 875.035 -1.20752 1.01276 0
M  V30 9481 C 875.982 -2.234 0.579732 0
M  V30 9482 C 876.952 -1.61256 -0.398206 0
M  V30 9483 O 878.137 -1.8845 -0.29851 0
M  V30 9484 C 875.277 -3.45008 -0.0797006 0
M  V30 9485 C 874.39 -4.21597 0.942343 0
M  V30 9486 C 873.525 -5.30591 0.254364 0
M  V30 9487 C 872.564 -5.98919 1.26343 0
M  V30 9488 N 871.701 -6.99511 0.602384 0
M  V30 9489 H 876.541 -2.59801 1.45971 0
M  V30 9490 H 874.078 -1.27663 0.730787 0
M  V30 9491 H 876.036 -4.1444 -0.479125 0
M  V30 9492 H 874.666 -3.09312 -0.923354 0
M  V30 9493 H 873.718 -3.51268 1.45996 0
M  V30 9494 H 875.03 -4.68576 1.70992 0
M  V30 9495 H 874.184 -6.06368 -0.200763 0
M  V30 9496 H 872.923 -4.84639 -0.545553 0
M  V30 9497 H 871.928 -5.21906 1.72898 0
M  V30 9498 H 873.153 -6.46957 2.06456 0
M  V30 9499 H 871.099 -6.55759 -0.177734 0
M  V30 9500 H 871.016 -7.44597 1.30809 0
M  V30 9501 H 872.284 -7.79313 0.17072 0
M  V30 9502 N 876.513 -0.788492 -1.36457 0
M  V30 9503 C 877.461 -0.174192 -2.31947 0
M  V30 9504 C 878.455 0.665974 -1.5576 0
M  V30 9505 O 879.661 0.561161 -1.71029 0
M  V30 9506 H 876.036 -0.0375538 -0.751062 0
M  V30 9507 H 878.007 -0.995011 -2.81322 0
M  V30 9508 C 876.756 0.677276 -3.4104 0
M  V30 9509 H 876.079 0.0401418 -3.9978 0
M  V30 9510 H 877.519 1.07379 -4.10178 0
M  V30 9511 C 875.978 1.83512 -2.82533 0
M  V30 9512 O 876.508 2.93164 -2.74623 0
M  V30 9513 N 874.714 1.64095 -2.39836 0
M  V30 9514 H 874.261 0.749046 -2.46469 0
M  V30 9515 H 874.219 2.41726 -2.01037 0
M  V30 9516 N 877.991 1.48044 -0.54043 0
M  V30 9517 C 878.938 2.29781 0.216597 0
M  V30 9518 C 879.908 1.38021 0.924094 0
M  V30 9519 O 881.093 1.66985 0.923078 0
M  V30 9520 C 878.233 3.21623 1.2511 0
M  V30 9521 C 877.346 4.28467 0.551384 0
M  V30 9522 C 876.481 5.07477 1.56972 0
M  V30 9523 C 875.52 6.06113 0.854048 0
M  V30 9524 N 874.657 6.78143 1.81842 0
M  V30 9525 H 879.497 2.94001 -0.486578 0
M  V30 9526 H 877.034 1.44929 -0.251789 0
M  V30 9527 H 878.992 3.73279 1.8633 0
M  V30 9528 H 877.622 2.59305 1.92252 0
M  V30 9529 H 876.674 3.79997 -0.174982 0
M  V30 9530 H 877.986 4.98799 -0.0100542 0
M  V30 9531 H 877.14 5.63199 2.25592 0
M  V30 9532 H 875.879 4.37008 2.16507 0
M  V30 9533 H 874.884 5.49585 0.153838 0
M  V30 9534 H 876.109 6.78584 0.264675 0
M  V30 9535 H 874.055 6.10417 2.40265 0
M  V30 9536 H 873.972 7.44587 1.3087 0
M  V30 9537 H 875.24 7.38448 2.49628 0
M  V30 9538 N 879.47 0.276058 1.55163 0
M  V30 9539 C 880.7 -0.343274 2.03728 0
M  V30 9540 C 881.108 -1.49945 1.15383 0
M  V30 9541 O 880.451 -1.82942 0.166696 0
M  V30 9542 C 880.513 -0.885683 3.48419 0
M  V30 9543 C 880.177 0.141976 4.56779 0
M  V30 9544 C 881.174 0.961816 5.10926 0
M  V30 9545 C 878.859 0.276487 5.01538 0
M  V30 9546 C 880.853 1.90234 6.0835 0
M  V30 9547 C 878.54 1.22049 5.98788 0
M  V30 9548 C 879.538 2.03192 6.52075 0
M  V30 9549 O 879.226 2.95996 7.47423 0
M  V30 9550 H 878.958 -0.0822192 0.670981 0
M  V30 9551 H 881.512 0.406199 2.01343 0
M  V30 9552 H 879.742 -1.68524 3.48047 0
M  V30 9553 H 881.431 -1.4182 3.80318 0
M  V30 9554 H 882.197 0.868637 4.77158 0
M  V30 9555 H 878.076 -0.345095 4.59707 0
M  V30 9556 H 881.62 2.5361 6.49867 0
M  V30 9557 H 877.517 1.31448 6.31974 0
M  V30 9558 H 878.285 2.90688 7.65142 0
M  V30 9559 N 880.948 -1.576 0.00335426 0
M  V30 9560 C 882.188 -1.92571 -0.685253 0
M  V30 9561 C 882.552 -0.877961 -1.70751 0
M  V30 9562 O 883.753 -1.11303 -2.44673 0
M  V30 9563 C 882.024 -3.3258 -1.30863 0
M  V30 9564 S 883.583 -3.89442 -2.02189 0
M  V30 9565 H 880.401 -0.674035 -0.226268 0
M  V30 9566 H 883.003 -1.95405 0.0608461 0
M  V30 9567 H 881.707 -4.06673 -0.551837 0
M  V30 9568 H 881.238 -3.33128 -2.09259 0
M  V30 9569 H 883.253 -3.70789 -3.29742 0
M  V30 9570 N 882.426 0.269451 -1.5528 0
M  V30 9571 C 883.666 1.00819 -1.77806 0
M  V30 9572 C 884.03 1.83369 -0.569198 0
M  V30 9573 O 885.231 2.60244 -0.672783 0
M  V30 9574 C 883.502 1.86447 -3.04913 0
M  V30 9575 S 885.061 2.66538 -3.48573 0
M  V30 9576 H 881.879 0.339508 -0.624704 0
M  V30 9577 H 884.481 0.278256 -1.9351 0
M  V30 9578 H 883.185 1.24733 -3.90986 0
M  V30 9579 H 882.716 2.63755 -2.91885 0
M  V30 9580 H 884.731 3.88938 -3.08126 0
M  V30 9581 N 883.904 1.48273 0.534124 0
M  V30 9582 C 885.151 1.56079 1.29017 0
M  V30 9583 C 885.479 0.232912 1.931 0
M  V30 9584 O 884.734 -0.77642 1.79639 0
M  V30 9585 C 885.033 2.64468 2.40398 0
M  V30 9586 C 884.699 4.07034 1.93995 0
M  V30 9587 C 883.361 4.45838 1.81058 0
M  V30 9588 C 885.713 4.96395 1.58877 0
M  V30 9589 C 883.041 5.71812 1.31331 0
M  V30 9590 C 885.393 6.22854 1.10614 0
M  V30 9591 C 884.057 6.60518 0.962895 0
M  V30 9592 H 883.327 0.571135 0.472108 0
M  V30 9593 H 885.974 1.81973 0.5965 0
M  V30 9594 H 884.279 2.32419 3.15418 0
M  V30 9595 H 885.976 2.67725 2.98537 0
M  V30 9596 H 882.566 3.76387 2.05015 0
M  V30 9597 H 886.75 4.67096 1.67734 0
M  V30 9598 H 882.006 5.99722 1.18924 0
M  V30 9599 H 886.18 6.91495 0.825095 0
M  V30 9600 H 883.807 7.58019 0.575369 0
M  V30 9601 N 885.382 -0.782676 1.36792 0
M  V30 9602 C 886.345 -1.8772 1.31507 0
M  V30 9603 C 887.345 -1.59269 0.221349 0
M  V30 9604 O 888.535 -1.67555 0.476544 0
M  V30 9605 C 885.667 -3.24641 1.04025 0
M  V30 9606 H 886.86 -1.9382 2.28853 0
M  V30 9607 H 884.413 -0.981226 1.21662 0
M  V30 9608 H 885.148 -3.24221 0.0716439 0
M  V30 9609 H 884.933 -3.46681 1.8318 0
M  V30 9610 H 886.423 -4.04711 1.02949 0
M  V30 9611 N 886.86 -1.21182 -1.00761 0
M  V30 9612 C 888.088 -1.05335 -1.78079 0
M  V30 9613 C 888.503 0.396988 -1.84579 0
M  V30 9614 O 887.86 1.27548 -1.30529 0
M  V30 9615 C 887.911 -1.64089 -3.22113 0
M  V30 9616 O 887.632 -3.03448 -3.15992 0
M  V30 9617 C 889.133 -1.53318 -4.15943 0
M  V30 9618 H 886.353 -0.37005 -0.559736 0
M  V30 9619 H 888.897 -1.60463 -1.26775 0
M  V30 9620 H 887.052 -1.13059 -3.70535 0
M  V30 9621 H 887.466 -3.31492 -4.06465 0
M  V30 9622 H 888.94 -1.99174 -5.14814 0
M  V30 9623 H 889.417 -0.487166 -4.3649 0
M  V30 9624 H 890.023 -2.03582 -3.73409 0
M  V30 9625 N 888.338 1.20213 -1.01915 0
M  V30 9626 C 889.585 1.89647 -0.709955 0
M  V30 9627 C 889.913 1.7901 0.760631 0
M  V30 9628 O 889.168 1.17028 1.56853 0
M  V30 9629 C 889.467 3.40232 -1.09438 0
M  V30 9630 C 889.133 3.7107 -2.5616 0
M  V30 9631 C 887.795 3.79196 -2.96249 0
M  V30 9632 C 890.147 3.85169 -3.51133 0
M  V30 9633 C 887.475 3.98882 -4.30244 0
M  V30 9634 C 889.827 4.06365 -4.8482 0
M  V30 9635 C 888.491 4.12722 -5.24611 0
M  V30 9636 H 887.761 0.693967 -0.259791 0
M  V30 9637 H 890.408 1.42419 -1.2802 0
M  V30 9638 H 888.713 3.89292 -0.442596 0
M  V30 9639 H 890.41 3.92257 -0.832811 0
M  V30 9640 H 887 3.65346 -2.24099 0
M  V30 9641 H 891.184 3.78243 -3.21319 0
M  V30 9642 H 886.44 4.02039 -4.60624 0
M  V30 9643 H 890.614 4.16216 -5.58334 0
M  V30 9644 H 888.241 4.27728 -6.28453 0
M  V30 9645 N 889.816 0.795718 1.36037 0
M  V30 9646 C 891.065 0.367575 1.98322 0
M  V30 9647 C 891.378 -1.06823 1.63854 0
M  V30 9648 O 892.584 -1.59895 2.19421 0
M  V30 9649 C 891.04 0.606272 3.54757 0
M  V30 9650 C 890.648 2.0539 3.98144 0
M  V30 9651 C 892.392 0.242947 4.23804 0
M  V30 9652 C 890.299 2.23893 5.47381 0
M  V30 9653 H 889.229 0.133699 0.742052 0
M  V30 9654 H 891.88 0.978242 1.5525 0
M  V30 9655 H 890.262 -0.0741957 3.9593 0
M  V30 9656 H 891.436 2.77129 3.68152 0
M  V30 9657 H 889.751 2.37607 3.41953 0
M  V30 9658 H 892.348 0.359382 5.33491 0
M  V30 9659 H 892.691 -0.809661 4.08351 0
M  V30 9660 H 893.224 0.876899 3.88015 0
M  V30 9661 H 889.963 3.27559 5.6779 0
M  V30 9662 H 889.483 1.56666 5.78978 0
M  V30 9663 H 891.162 2.04914 6.13693 0
M  V30 9664 N 891.294 -1.47756 0.548274 0
M  V30 9665 C 892.519 -2.07387 0.023475 0
M  V30 9666 C 892.944 -1.39956 -1.25674 0
M  V30 9667 O 892.302 -0.471543 -1.7506 0
M  V30 9668 C 892.35 -3.60224 -0.164669 0
M  V30 9669 O 891.454 -3.93653 -1.22928 0
M  V30 9670 H 890.795 -0.662312 0.0473156 0
M  V30 9671 H 893.325 -1.89905 0.761409 0
M  V30 9672 H 893.335 -4.06211 -0.38166 0
M  V30 9673 H 892.01 -4.08702 0.770425 0
M  V30 9674 H 890.587 -3.59422 -0.993495 0
M  V30 9675 N 892.772 -0.284283 -1.55015 0
M  V30 9676 C 894.188 0.069603 -1.59448 0
M  V30 9677 C 894.388 1.53833 -1.30144 0
M  V30 9678 O 893.444 2.2886 -1.06674 0
M  V30 9679 C 894.757 -0.313287 -2.99064 0
M  V30 9680 C 896.305 -0.260662 -3.11913 0
M  V30 9681 C 896.78 -0.618127 -4.5381 0
M  V30 9682 N 898.271 -0.570026 -4.59679 0
M  V30 9683 C 899.006 -0.8193 -5.67517 0
M  V30 9684 N 898.502 -1.13367 -6.83462 0
M  V30 9685 N 900.295 -0.747482 -5.57108 0
M  V30 9686 H 892.446 -1.24167 -1.72326 0
M  V30 9687 H 894.709 -0.502259 -0.804015 0
M  V30 9688 H 894.415 -1.33509 -3.25374 0
M  V30 9689 H 894.289 0.341369 -3.75652 0
M  V30 9690 H 896.676 0.751869 -2.85361 0
M  V30 9691 H 896.757 -0.949706 -2.37517 0
M  V30 9692 H 896.401 -1.62839 -4.81088 0
M  V30 9693 H 896.331 0.092807 -5.26518 0
M  V30 9694 H 898.822 -0.3373 -3.76392 0
M  V30 9695 H 899.135 -1.3103 -7.61611 0
M  V30 9696 H 897.48 -1.17154 -6.85055 0
M  V30 9697 H 900.671 -0.501658 -4.65404 0
M  V30 9698 H 900.844 -0.945128 -6.4107 0
M  V30 9699 N 894.251 1.57596 -0.0117121 0
M  V30 9700 C 895.199 2.1029 0.994035 0
M  V30 9701 C 896.193 1.02549 1.34833 0
M  V30 9702 O 897.399 1.21003 1.3326 0
M  V30 9703 H 893.774 0.671624 0.338268 0
M  V30 9704 H 895.745 2.93761 0.524147 0
M  V30 9705 C 894.494 2.63099 2.27319 0
M  V30 9706 H 893.817 3.45642 2.00927 0
M  V30 9707 H 895.257 3.03635 2.95942 0
M  V30 9708 C 893.716 1.55044 2.99104 0
M  V30 9709 O 894.246 0.940127 3.90544 0
M  V30 9710 N 892.452 1.27506 2.61133 0
M  V30 9711 H 891.999 1.77322 1.86855 0
M  V30 9712 H 891.957 0.554292 3.09475 0
M  V30 9713 N 895.729 -0.261212 1.5542 0
M  V30 9714 C 896.676 -1.32315 1.89107 0
M  V30 9715 C 897.646 -1.48517 0.743767 0
M  V30 9716 O 898.831 -1.62733 0.996123 0
M  V30 9717 C 895.971 -2.67626 2.17877 0
M  V30 9718 C 895.084 -2.59549 3.45338 0
M  V30 9719 C 894.219 -3.87118 3.63748 0
M  V30 9720 C 893.258 -3.736 4.8486 0
M  V30 9721 N 892.395 -4.93029 4.99867 0
M  V30 9722 H 897.235 -1.02886 2.79675 0
M  V30 9723 H 894.772 -0.496812 1.38456 0
M  V30 9724 H 896.73 -3.4637 2.32559 0
M  V30 9725 H 895.36 -2.95232 1.30529 0
M  V30 9726 H 894.412 -1.72452 3.39064 0
M  V30 9727 H 895.724 -2.45465 4.34222 0
M  V30 9728 H 894.878 -4.74305 3.78312 0
M  V30 9729 H 893.617 -4.04084 2.73071 0
M  V30 9730 H 892.622 -2.84797 4.70288 0
M  V30 9731 H 893.847 -3.58143 5.76984 0
M  V30 9732 H 891.793 -5.10383 4.12123 0
M  V30 9733 H 891.71 -4.81521 5.82815 0
M  V30 9734 H 892.978 -5.81754 5.18828 0
M  V30 9735 N 897.207 -1.48554 -0.526253 0
M  V30 9736 C 898.437 -1.60197 -1.30463 0
M  V30 9737 C 898.845 -0.26278 -1.87366 0
M  V30 9738 O 898.188 0.758537 -1.67308 0
M  V30 9739 C 898.25 -2.59223 -2.49085 0
M  V30 9740 C 897.914 -4.04199 -2.13241 0
M  V30 9741 C 898.911 -4.91771 -1.68694 0
M  V30 9742 C 896.596 -4.49762 -2.2365 0
M  V30 9743 C 898.59 -6.22934 -1.35026 0
M  V30 9744 C 896.277 -5.80945 -1.89594 0
M  V30 9745 C 897.275 -6.67354 -1.45353 0
M  V30 9746 O 896.963 -7.96096 -1.11745 0
M  V30 9747 H 896.695 -0.54284 -0.402866 0
M  V30 9748 H 899.249 -1.95137 -0.641157 0
M  V30 9749 H 897.479 -2.19412 -3.18426 0
M  V30 9750 H 899.168 -2.60661 -3.11144 0
M  V30 9751 H 899.934 -4.57806 -1.6012 0
M  V30 9752 H 895.813 -3.8269 -2.5704 0
M  V30 9753 H 899.357 -6.90334 -1.00422 0
M  V30 9754 H 895.254 -6.14444 -1.9781 0
M  V30 9755 H 896.022 -8.08882 -1.25111 0
M  V30 9756 N 898.685 0.775411 -1.37205 0
M  V30 9757 C 899.934 1.52909 -1.31536 0
M  V30 9758 C 900.247 1.9535 0.0989374 0
M  V30 9759 O 901.453 2.70072 0.278079 0
M  V30 9760 C 899.909 2.761 -2.30861 0
M  V30 9761 C 899.517 2.40773 -3.77799 0
M  V30 9762 C 901.261 3.54052 -2.34195 0
M  V30 9763 C 899.168 3.60444 -4.68865 0
M  V30 9764 H 898.098 0.574061 -0.488845 0
M  V30 9765 H 900.749 0.849642 -1.62645 0
M  V30 9766 H 899.131 3.45916 -1.92764 0
M  V30 9767 H 900.305 1.78764 -4.24712 0
M  V30 9768 H 898.62 1.76004 -3.77375 0
M  V30 9769 H 901.217 4.42992 -2.99437 0
M  V30 9770 H 901.56 3.93649 -1.35449 0
M  V30 9771 H 902.093 2.91229 -2.7098 0
M  V30 9772 H 898.832 3.25932 -5.68725 0
M  V30 9773 H 898.352 4.21571 -4.26659 0
M  V30 9774 H 900.031 4.27302 -4.85821 0
M  V30 9775 N 900.163 1.21714 1.00117 0
M  V30 9776 C 901.41 1.0367 1.73951 0
M  V30 9777 C 901.738 -0.429289 1.89703 0
M  V30 9778 O 900.993 -1.33475 1.43119 0
M  V30 9779 C 901.292 1.68345 3.15269 0
M  V30 9780 C 900.958 3.18214 3.19454 0
M  V30 9781 C 899.62 3.59109 3.20303 0
M  V30 9782 C 901.972 4.14179 3.16394 0
M  V30 9783 C 899.3 4.94467 3.15783 0
M  V30 9784 C 901.652 5.49502 3.13416 0
M  V30 9785 C 900.316 5.8979 3.12577 0
M  V30 9786 H 899.586 0.379355 0.63653 0
M  V30 9787 H 902.233 1.51361 1.17312 0
M  V30 9788 H 900.538 1.12957 3.75164 0
M  V30 9789 H 902.235 1.51882 3.71124 0
M  V30 9790 H 898.825 2.85646 3.19538 0
M  V30 9791 H 903.009 3.83607 3.14895 0
M  V30 9792 H 898.265 5.24923 3.13473 0
M  V30 9793 H 902.439 6.23595 3.10003 0
M  V30 9794 H 900.066 6.94643 3.08829 0
M  V30 9795 N 901.641 -1.19671 1.02551 0
M  V30 9796 C 902.887 -1.89548 0.721069 0
M  V30 9797 C 903.22 -1.79209 -0.748176 0
M  V30 9798 O 902.495 -1.1822 -1.54448 0
M  V30 9799 C 902.778 -3.4061 1.16861 0
M  V30 9800 C 902.631 -3.59838 2.69883 0
M  V30 9801 C 903.95 -4.33718 0.746782 0
M  V30 9802 H 901.069 -0.688315 0.263422 0
M  V30 9803 H 903.711 -1.40883 1.27483 0
M  V30 9804 H 901.861 -3.82188 0.697477 0
M  V30 9805 H 903.533 -3.27454 3.24917 0
M  V30 9806 H 901.776 -3.03005 3.10435 0
M  V30 9807 H 902.447 -4.65766 2.96253 0
M  V30 9808 H 904.923 -3.99837 1.15195 0
M  V30 9809 H 903.799 -5.38012 1.08786 0
M  V30 9810 H 904.06 -4.40704 -0.351057 0
M  V30 9811 N 903.119 -0.802921 -1.35613 0
M  V30 9812 C 904.029 -0.212177 -2.33639 0
M  V30 9813 C 905.045 0.642871 -1.61689 0
M  V30 9814 O 906.221 0.555485 -1.93588 0
M  V30 9815 C 903.286 0.632406 -3.40883 0
M  V30 9816 C 902.347 -0.242708 -4.28613 0
M  V30 9817 C 901.58 0.56166 -5.30736 0
M  V30 9818 O 901.803 1.79664 -5.41366 0
M  V30 9819 O 900.737 -0.0455387 -6.01883 0
M  V30 9820 H 904.563 -1.023 -2.85952 0
M  V30 9821 H 902.148 -0.564636 -1.38319 0
M  V30 9822 H 904.03 1.11358 -4.0642 0
M  V30 9823 H 902.705 1.42089 -2.90848 0
M  V30 9824 H 901.612 -0.77094 -3.6607 0
M  V30 9825 H 902.945 -0.995046 -4.82037 0
M  V30 9826 N 904.597 1.47463 -0.556102 0
M  V30 9827 C 905.544 2.29998 0.192213 0
M  V30 9828 C 906.514 1.38993 0.909403 0
M  V30 9829 O 907.699 1.67954 0.905316 0
M  V30 9830 C 904.839 3.22932 1.21692 0
M  V30 9831 C 903.952 4.29027 0.505908 0
M  V30 9832 C 903.087 5.09114 1.51581 0
M  V30 9833 C 902.126 6.06984 0.789714 0
M  V30 9834 N 901.263 6.80033 1.74639 0
M  V30 9835 H 906.103 2.93468 -0.517734 0
M  V30 9836 H 903.64 1.44654 -0.267147 0
M  V30 9837 H 905.598 3.75234 1.8236 0
M  V30 9838 H 904.228 2.61329 1.89491 0
M  V30 9839 H 903.28 3.7979 -0.215276 0
M  V30 9840 H 904.592 4.9876 -0.062958 0
M  V30 9841 H 903.746 5.6556 2.19606 0
M  V30 9842 H 902.485 4.3928 2.11859 0
M  V30 9843 H 901.49 5.49717 0.0955382 0
M  V30 9844 H 902.715 6.78827 0.192688 0
M  V30 9845 H 900.661 6.12931 2.33777 0
M  V30 9846 H 900.578 7.45933 1.22965 0
M  V30 9847 H 901.846 7.41054 2.41782 0
M  V30 9848 N 906.075 0.2925 1.54862 0
M  V30 9849 C 907.022 -0.587365 2.23201 0
M  V30 9850 C 907.992 -1.13623 1.21157 0
M  V30 9851 O 909.177 -1.18233 1.49752 0
M  V30 9852 C 906.317 -1.75745 2.96998 0
M  V30 9853 C 905.43 -1.24078 4.13798 0
M  V30 9854 C 904.565 -2.37405 4.75197 0
M  V30 9855 C 903.604 -1.82829 5.84157 0
M  V30 9856 N 902.741 -2.89696 6.39547 0
M  V30 9857 H 907.581 0.00202207 2.98 0
M  V30 9858 H 905.118 0.012766 1.47094 0
M  V30 9859 H 907.076 -2.44549 3.38011 0
M  V30 9860 H 905.706 -2.3186 2.24591 0
M  V30 9861 H 904.758 -0.445268 3.77785 0
M  V30 9862 H 906.07 -0.801186 4.92324 0
M  V30 9863 H 905.224 -3.14172 5.19019 0
M  V30 9864 H 903.963 -2.84688 3.95985 0
M  V30 9865 H 902.968 -1.04548 5.39768 0
M  V30 9866 H 904.193 -1.36461 6.65248 0
M  V30 9867 H 902.139 -3.36328 5.63222 0
M  V30 9868 H 902.056 -2.50206 7.13395 0
M  V30 9869 H 903.324 -3.66386 6.88027 0
M  V30 9870 N 907.553 -1.57587 0.0200696 0
M  V30 9871 C 908.501 -2.10814 -0.982868 0
M  V30 9872 C 909.495 -1.03263 -1.34287 0
M  V30 9873 O 910.701 -1.21708 -1.32617 0
M  V30 9874 H 907.076 -0.673409 -0.334701 0
M  V30 9875 H 909.047 -2.94034 -0.50856 0
M  V30 9876 C 907.796 -2.64301 -2.25921 0
M  V30 9877 H 907.119 -3.46703 -1.99091 0
M  V30 9878 H 908.559 -3.052 -2.94328 0
M  V30 9879 C 907.018 -1.56628 -2.98277 0
M  V30 9880 O 907.548 -0.960825 -3.9004 0
M  V30 9881 N 905.754 -1.28889 -2.60453 0
M  V30 9882 H 905.301 -1.7831 -1.85912 0
M  V30 9883 H 905.259 -0.570697 -3.09177 0
M  V30 9884 N 909.032 0.252966 -1.55557 0
M  V30 9885 C 909.98 1.33289 -1.90622 0
M  V30 9886 C 910.974 1.50133 -0.784638 0
M  V30 9887 O 912.18 1.51679 -0.969196 0
M  V30 9888 H 908.555 0.446196 -0.605321 0
M  V30 9889 H 910.526 1.00977 -2.80796 0
M  V30 9890 C 909.275 2.68254 -2.21213 0
M  V30 9891 H 908.598 2.5609 -3.07014 0
M  V30 9892 H 910.038 3.42707 -2.49656 0
M  V30 9893 C 908.497 3.20884 -1.02642 0
M  V30 9894 O 909.027 4.00783 -0.271292 0
M  V30 9895 N 907.233 2.7883 -0.818682 0
M  V30 9896 H 906.78 2.13966 -1.43444 0
M  V30 9897 H 906.738 3.14388 -0.0269989 0
M  V30 9898 N 910.51 1.48831 0.518367 0
M  V30 9899 C 911.458 1.64678 1.64268 0
M  V30 9900 C 912.452 0.512967 1.61447 0
M  V30 9901 O 913.658 0.692063 1.66164 0
M  V30 9902 H 910.033 0.518964 0.544224 0
M  V30 9903 H 912.004 2.59083 1.4805 0
M  V30 9904 C 910.753 1.71449 3.0249 0
M  V30 9905 H 910.076 2.58061 3.0536 0
M  V30 9906 H 911.516 1.86577 3.80743 0
M  V30 9907 C 909.975 0.455584 3.33805 0
M  V30 9908 O 910.505 -0.426428 3.9943 0
M  V30 9909 N 908.711 0.323763 2.88791 0
M  V30 9910 H 908.258 1.04249 2.35563 0
M  V30 9911 H 908.216 -0.517514 3.10112 0
M  V30 9912 N 911.988 -0.768124 1.37614 0
M  V30 9913 C 912.936 -1.9029 1.33763 0
M  V30 9914 C 913.93 -1.67888 0.225814 0
M  V30 9915 O 915.136 -1.75634 0.394043 0
M  V30 9916 H 911.511 -0.625828 0.416945 0
M  V30 9917 H 913.482 -1.90654 2.29551 0
M  V30 9918 C 912.231 -3.27598 1.16511 0
M  V30 9919 H 911.554 -3.45414 2.01318 0
M  V30 9920 H 912.994 -4.07288 1.17867 0
M  V30 9921 C 911.453 -3.36653 -0.129001 0
M  V30 9922 O 911.983 -3.86023 -1.11128 0
M  V30 9923 N 910.189 -2.90036 -0.180926 0
M  V30 9924 H 909.736 -2.5005 0.619076 0
M  V30 9925 H 909.694 -2.96475 -1.04641 0
M  V30 9926 N 913.466 -1.22244 -0.994698 0
M  V30 9927 C 914.696 -1.07062 -1.76695 0
M  V30 9928 C 915.104 0.381895 -1.85306 0
M  V30 9929 O 914.447 1.27648 -1.32105 0
M  V30 9930 C 914.509 -1.60487 -3.2169 0
M  V30 9931 C 914.173 -3.09079 -3.36629 0
M  V30 9932 C 915.17 -4.06526 -3.24088 0
M  V30 9933 C 912.855 -3.48497 -3.61739 0
M  V30 9934 C 914.849 -5.41377 -3.36437 0
M  V30 9935 C 912.536 -4.83498 -3.73729 0
M  V30 9936 C 913.534 -5.79747 -3.61086 0
M  V30 9937 O 913.222 -7.12297 -3.72678 0
M  V30 9938 H 912.954 -0.375963 -0.561807 0
M  V30 9939 H 915.508 -1.62259 -1.25941 0
M  V30 9940 H 913.738 -0.996957 -3.73628 0
M  V30 9941 H 915.427 -1.40994 -3.80625 0
M  V30 9942 H 916.193 -3.77415 -3.04602 0
M  V30 9943 H 912.072 -2.74106 -3.70657 0
M  V30 9944 H 915.616 -6.16485 -3.26485 0
M  V30 9945 H 911.513 -5.1229 -3.92721 0
M  V30 9946 H 912.281 -7.1985 -3.89562 0
M  V30 9947 N 914.944 1.19125 -1.03184 0
M  V30 9948 C 916.19 1.89163 -0.731111 0
M  V30 9949 C 916.523 1.79604 0.738662 0
M  V30 9950 O 915.798 1.19037 1.53819 0
M  V30 9951 C 916.081 3.39986 -1.18666 0
M  V30 9952 C 915.934 3.58401 -2.71788 0
M  V30 9953 C 917.253 4.33316 -0.769772 0
M  V30 9954 H 914.372 0.686908 -0.267069 0
M  V30 9955 H 917.014 1.40205 -1.28229 0
M  V30 9956 H 915.164 3.81813 -0.717736 0
M  V30 9957 H 916.836 3.25727 -3.26649 0
M  V30 9958 H 915.079 3.01355 -3.12038 0
M  V30 9959 H 915.75 4.64189 -2.98719 0
M  V30 9960 H 918.226 3.9922 -1.17314 0
M  V30 9961 H 917.102 5.37427 -1.11637 0
M  V30 9962 H 917.363 4.40884 0.327681 0
M  V30 9963 N 916.422 0.810101 1.35185 0
M  V30 9964 C 917.352 0.237453 2.32289 0
M  V30 9965 C 918.333 -0.639032 1.5764 0
M  V30 9966 O 919.518 -0.568575 1.8569 0
M  V30 9967 C 916.648 -0.611964 3.41866 0
M  V30 9968 C 915.602 0.166318 4.27677 0
M  V30 9969 C 914.928 -0.805024 5.28605 0
M  V30 9970 C 916.228 1.36729 5.04086 0
M  V30 9971 H 917.922 1.04874 2.80432 0
M  V30 9972 H 915.468 0.505751 1.34826 0
M  V30 9973 H 917.421 -1.02267 4.08802 0
M  V30 9974 H 916.145 -1.45617 2.92341 0
M  V30 9975 H 914.804 0.558238 3.62325 0
M  V30 9976 H 914.452 -1.64483 4.75347 0
M  V30 9977 H 914.152 -0.288577 5.86891 0
M  V30 9978 H 915.676 -1.21386 5.98413 0
M  V30 9979 H 917.09 1.03128 5.63948 0
M  V30 9980 H 915.487 1.81848 5.71884 0
M  V30 9981 H 916.557 2.15214 4.34524 0
M  V30 9982 N 917.9 -1.47166 0.563914 0
M  V30 9983 C 918.848 -2.31798 -0.193009 0
M  V30 9984 C 919.842 -1.43338 -0.902805 0
M  V30 9985 O 921.048 -1.60067 -0.823328 0
M  V30 9986 H 917.423 -0.747613 -0.0811139 0
M  V30 9987 H 919.394 -2.93476 0.539876 0
M  V30 9988 C 918.143 -3.26131 -1.20555 0
M  V30 9989 H 917.466 -3.94166 -0.668803 0
M  V30 9990 H 918.906 -3.88167 -1.70593 0
M  V30 9991 C 917.365 -2.50132 -2.25689 0
M  V30 9992 O 917.895 -2.25064 -3.3273 0
M  V30 9993 N 916.101 -2.11022 -1.99795 0
M  V30 9994 H 915.648 -2.3161 -1.1276 0
M  V30 9995 H 915.606 -1.60489 -2.70353 0
M  V30 9996 N 919.378 -0.300708 -1.54705 0
M  V30 9997 C 920.627 0.309428 -1.99312 0
M  V30 9998 C 920.94 1.55027 -1.19272 0
M  V30 9999 O 922.146 2.23498 -1.54146 0
M  V30 10000 C 920.602 0.601856 -3.54832 0
M  V30 10001 C 920.21 -0.620636 -4.4368 0
M  V30 10002 C 921.954 1.1732 -4.07966 0
M  V30 10003 C 919.861 -0.301376 -5.90632 0
M  V30 10004 H 918.791 0.119395 -0.744487 0
M  V30 10005 H 921.442 -0.409368 -1.78875 0
M  V30 10006 H 919.824 1.38024 -3.71168 0
M  V30 10007 H 920.998 -1.39685 -4.39118 0
M  V30 10008 H 919.313 -1.1106 -4.01316 0
M  V30 10009 H 921.91 1.42631 -5.15326 0
M  V30 10010 H 922.253 2.11537 -3.5855 0
M  V30 10011 H 922.786 0.456534 -3.95172 0
M  V30 10012 H 919.525 -1.21209 -6.44196 0
M  V30 10013 H 919.045 0.437574 -5.98202 0
M  V30 10014 H 920.724 0.097164 -6.46927 0
M  V30 10015 N 920.856 1.57574 -0.0284266 0
M  V30 10016 C 921.806 2.06674 0.962804 0
M  V30 10017 C 922.79 0.967115 1.28591 0
M  V30 10018 O 923.982 1.23068 1.27214 0
M  V30 10019 C 921.111 2.59682 2.24545 0
M  V30 10020 C 920.197 3.76573 1.95073 0
M  V30 10021 N 920.588 4.8721 1.35869 0
M  V30 10022 C 918.886 3.85046 2.25068 0
M  V30 10023 C 919.587 5.68436 1.23514 0
M  V30 10024 N 918.563 5.15323 1.73041 0
M  V30 10025 H 922.365 2.89615 0.500013 0
M  V30 10026 H 919.879 1.61437 0.176604 0
M  V30 10027 H 921.876 2.93148 2.96428 0
M  V30 10028 H 920.536 1.7817 2.71451 0
M  V30 10029 H 921.547 5.07477 1.03379 0
M  V30 10030 H 918.224 3.14439 2.74653 0
M  V30 10031 H 919.614 6.67387 0.777403 0
M  V30 10032 N 922.334 -0.244713 1.55689 0
M  V30 10033 C 923.282 -1.32276 1.91326 0
M  V30 10034 C 924.276 -1.49714 0.792589 0
M  V30 10035 O 925.482 -1.51163 0.977227 0
M  V30 10036 H 921.857 -0.442979 0.607679 0
M  V30 10037 H 923.828 -0.99486 2.81327 0
M  V30 10038 C 922.577 -2.67077 2.22633 0
M  V30 10039 H 921.9 -2.54458 3.08368 0
M  V30 10040 H 923.34 -3.41378 2.5147 0
M  V30 10041 C 921.799 -3.20335 1.04342 0
M  V30 10042 O 922.329 -4.00633 0.292543 0
M  V30 10043 N 920.535 -2.78392 0.833457 0
M  V30 10044 H 920.082 -2.13202 1.44577 0
M  V30 10045 H 920.04 -3.1437 0.0436713 0
M  V30 10046 N 923.813 -1.49104 -0.510467 0
M  V30 10047 C 925.062 -1.57362 -1.26175 0
M  V30 10048 C 925.375 -0.261218 -1.93848 0
M  V30 10049 O 926.581 -0.222238 -2.70589 0
M  V30 10050 C 925.037 -2.77606 -2.29048 0
M  V30 10051 C 924.645 -4.15567 -1.67357 0
M  V30 10052 C 926.389 -2.95188 -3.05064 0
M  V30 10053 C 924.296 -5.27046 -2.68285 0
M  V30 10054 H 923.226 -0.585887 -0.474608 0
M  V30 10055 H 925.877 -1.75474 -0.536753 0
M  V30 10056 H 924.259 -2.52968 -3.04669 0
M  V30 10057 H 925.433 -4.50304 -0.977924 0
M  V30 10058 H 923.748 -4.03264 -1.03765 0
M  V30 10059 H 926.345 -3.75643 -3.80521 0
M  V30 10060 H 926.688 -2.05385 -3.62108 0
M  V30 10061 H 927.221 -3.19821 -2.36558 0
M  V30 10062 H 923.96 -6.18878 -2.16034 0
M  V30 10063 H 923.48 -4.96774 -3.36118 0
M  V30 10064 H 925.159 -5.55983 -3.30896 0
M  V30 10065 N 925.291 0.760815 -1.38019 0
M  V30 10066 C 926.702 1.33773 -1.30237 0
M  V30 10067 C 927.053 1.96148 0.0451153 0
M  V30 10068 O 926.178 1.94574 0.9471 0
M  V30 10069 C 926.773 2.43227 -2.35851 0
M  V30 10070 C 925.332 2.96659 -2.31669 0
M  V30 10071 C 924.479 1.69972 -2.191 0
M  V30 10072 H 927.43 0.560237 -1.48482 0
M  V30 10073 H 927.451 3.22985 -2.01149 0
M  V30 10074 H 926.963 1.978 -3.33911 0
M  V30 10075 H 925.064 3.46433 -1.37167 0
M  V30 10076 H 925.177 3.51529 -3.25521 0
M  V30 10077 H 923.541 1.9332 -1.65829 0
M  V30 10078 H 924.324 1.26633 -3.19091 0
M  V30 10079 N 926.769 1.22769 0.988202 0
M  V30 10080 C 927.679 1.01844 2.11341 0
M  V30 10081 C 928.695 -0.0346937 1.73965 0
M  V30 10082 O 929.871 0.159061 2.00771 0
M  V30 10083 C 926.936 0.603837 3.41401 0
M  V30 10084 C 925.997 1.73113 3.92849 0
M  V30 10085 C 925.23 1.33621 5.16702 0
M  V30 10086 O 925.453 0.217041 5.69987 0
M  V30 10087 O 924.387 2.15444 5.62021 0
M  V30 10088 H 928.213 1.96127 2.31879 0
M  V30 10089 H 925.798 1.01405 1.09715 0
M  V30 10090 H 927.68 0.383196 4.19654 0
M  V30 10091 H 926.355 -0.310082 3.22211 0
M  V30 10092 H 925.262 2.00634 3.15748 0
M  V30 10093 H 926.595 2.62308 4.1648 0
M  V30 10094 N 928.247 -1.18576 1.03814 0
M  V30 10095 C 929.524 -1.8433 0.654358 0
M  V30 10096 C 929.904 -1.92504 -0.866338 0
M  V30 10097 O 929.252 -1.44904 -1.76678 0
M  V30 10098 C 929.462 -3.22778 1.32723 0
M  V30 10099 C 930.81 -3.98841 1.45641 0
M  V30 10100 O 931.834 -3.32209 1.28514 0
M  V30 10101 O 930.693 -5.18219 1.73526 0
M  V30 10102 H 927.787 -0.794766 0.228638 0
M  V30 10103 H 930.333 -1.25989 1.13687 0
M  V30 10104 H 929.105 -3.11717 2.36534 0
M  V30 10105 H 928.728 -3.88772 0.833176 0
M  V30 10106 N 929.725 -0.817259 -1.34754 0
M  V30 10107 C 930.673 -0.223352 -2.31525 0
M  V30 10108 C 931.667 0.632785 -1.57137 0
M  V30 10109 O 932.873 0.524757 -1.72181 0
M  V30 10110 H 929.248 -0.0534765 -0.750096 0
M  V30 10111 H 931.219 -1.05446 -2.79148 0
M  V30 10112 C 929.968 0.604784 -3.424 0
M  V30 10113 H 929.291 -0.0446664 -3.99775 0
M  V30 10114 H 930.731 0.986543 -4.12363 0
M  V30 10115 C 929.19 1.77478 -2.86362 0
M  V30 10116 O 929.72 2.87273 -2.8078 0
M  V30 10117 N 927.926 1.58971 -2.43263 0
M  V30 10118 H 927.473 0.696598 -2.48003 0
M  V30 10119 H 927.431 2.37408 -2.06119 0
M  V30 10120 N 931.203 1.46865 -0.571711 0
M  V30 10121 C 932.133 2.3298 0.155795 0
M  V30 10122 C 933.114 1.44678 0.894553 0
M  V30 10123 O 934.299 1.73513 0.872176 0
M  V30 10124 C 931.429 3.26745 1.17708 0
M  V30 10125 C 930.383 4.24401 0.553863 0
M  V30 10126 C 929.709 5.07595 1.68083 0
M  V30 10127 C 931.009 5.19884 -0.501827 0
M  V30 10128 H 932.703 2.94056 -0.563176 0
M  V30 10129 H 930.249 1.41402 -0.27228 0
M  V30 10130 H 932.202 3.85838 1.6943 0
M  V30 10131 H 930.926 2.63753 1.92618 0
M  V30 10132 H 929.585 3.66554 0.057815 0
M  V30 10133 H 929.233 4.40996 2.41933 0
M  V30 10134 H 928.933 5.73722 1.26953 0
M  V30 10135 H 930.457 5.6955 2.20103 0
M  V30 10136 H 931.871 5.73257 -0.0701057 0
M  V30 10137 H 930.268 5.94293 -0.832815 0
M  V30 10138 H 931.338 4.64482 -1.39229 0
M  V30 10139 N 932.681 0.308908 1.54543 0
M  V30 10140 C 933.911 -0.299983 2.04411 0
M  V30 10141 C 934.319 -1.47463 1.18538 0
M  V30 10142 O 933.662 -1.82547 0.205463 0
M  V30 10143 C 933.724 -0.811579 3.50219 0
M  V30 10144 C 933.388 0.238834 4.56375 0
M  V30 10145 C 934.385 1.06997 5.08771 0
M  V30 10146 C 932.07 0.382808 5.00839 0
M  V30 10147 C 934.064 2.03096 6.04178 0
M  V30 10148 C 931.751 1.34723 5.96065 0
M  V30 10149 C 932.749 2.16978 6.47618 0
M  V30 10150 O 932.437 3.11783 7.40977 0
M  V30 10151 H 932.169 -0.0679682 0.672574 0
M  V30 10152 H 934.723 0.448815 2.00437 0
M  V30 10153 H 932.953 -1.61104 3.51543 0
M  V30 10154 H 934.642 -1.33721 3.83241 0
M  V30 10155 H 935.408 0.969654 4.75208 0
M  V30 10156 H 931.287 -0.247507 4.60335 0
M  V30 10157 H 934.831 2.67338 6.44342 0
M  V30 10158 H 930.728 1.44824 6.29044 0
M  V30 10159 H 931.496 3.06853 7.58804 0
M  V30 10160 N 934.159 -1.57557 0.0367827 0
M  V30 10161 C 935.106 -2.10679 -0.942499 0
M  V30 10162 C 936.076 -1.01068 -1.31812 0
M  V30 10163 O 937.261 -1.28533 -1.41011 0
M  V30 10164 C 934.401 -2.64467 -2.21701 0
M  V30 10165 C 933.514 -3.88114 -1.89715 0
M  V30 10166 C 932.649 -4.30268 -3.11518 0
M  V30 10167 C 931.688 -5.46652 -2.75387 0
M  V30 10168 N 930.825 -5.83927 -3.89838 0
M  V30 10169 H 935.665 -2.94066 -0.482588 0
M  V30 10170 H 933.202 -1.45344 -0.226597 0
M  V30 10171 H 935.16 -2.93745 -2.96259 0
M  V30 10172 H 933.79 -1.83898 -2.65295 0
M  V30 10173 H 932.842 -3.65516 -1.05366 0
M  V30 10174 H 934.154 -4.72743 -1.5911 0
M  V30 10175 H 933.308 -4.61023 -3.94389 0
M  V30 10176 H 932.047 -3.44421 -3.4529 0
M  V30 10177 H 931.052 -5.15583 -1.90929 0
M  V30 10178 H 932.277 -6.34204 -2.42822 0
M  V30 10179 H 930.223 -5.01035 -4.23438 0
M  V30 10180 H 930.14 -6.63214 -3.62883 0
M  V30 10181 H 931.408 -6.19291 -4.73391 0
M  V30 10182 N 935.637 0.236453 -1.55816 0
M  V30 10183 C 936.584 1.29289 -1.91188 0
M  V30 10184 C 937.554 1.47315 -0.767301 0
M  V30 10185 O 938.739 1.61128 -1.02189 0
M  V30 10186 C 935.879 2.64126 -2.22107 0
M  V30 10187 C 934.992 2.54022 -3.49423 0
M  V30 10188 C 934.127 3.81282 -3.69861 0
M  V30 10189 C 933.166 3.65839 -4.90743 0
M  V30 10190 N 932.303 4.85014 -5.07647 0
M  V30 10191 H 937.143 0.98424 -2.81277 0
M  V30 10192 H 934.68 0.474722 -1.39229 0
M  V30 10193 H 936.638 3.42626 -2.3804 0
M  V30 10194 H 935.268 2.93118 -1.35209 0
M  V30 10195 H 934.32 1.67036 -3.41765 0
M  V30 10196 H 935.632 2.38525 -4.38072 0
M  V30 10197 H 934.786 4.68226 -3.8581 0
M  V30 10198 H 933.525 3.99688 -2.79465 0
M  V30 10199 H 932.53 2.77279 -4.74759 0
M  V30 10200 H 933.755 3.48918 -5.82609 0
M  V30 10201 H 931.701 5.03762 -4.20191 0
M  V30 10202 H 931.618 4.72188 -5.90402 0
M  V30 10203 H 932.886 5.73427 -5.28017 0
M  V30 10204 N 937.115 1.49373 0.502552 0
M  V30 10205 C 938.364 1.58028 1.25339 0
M  V30 10206 C 938.677 0.271494 1.93707 0
M  V30 10207 O 939.883 0.236584 2.70467 0
M  V30 10208 C 938.339 2.78817 2.27572 0
M  V30 10209 C 937.947 4.16448 1.65151 0
M  V30 10210 C 939.691 2.96802 3.03494 0
M  V30 10211 C 937.598 5.28461 2.65486 0
M  V30 10212 H 936.528 0.588396 0.471494 0
M  V30 10213 H 939.179 1.75756 0.52744 0
M  V30 10214 H 937.561 2.5458 3.03323 0
M  V30 10215 H 938.735 4.50816 0.954029 0
M  V30 10216 H 937.05 4.03809 1.01625 0
M  V30 10217 H 939.647 3.77656 3.78524 0
M  V30 10218 H 939.99 2.07303 3.61014 0
M  V30 10219 H 940.523 3.21071 2.34858 0
M  V30 10220 H 937.262 6.20015 2.12749 0
M  V30 10221 H 936.782 4.9855 3.33479 0
M  V30 10222 H 938.461 5.5773 3.27943 0
M  V30 10223 N 938.594 -0.753485 1.38421 0
M  V30 10224 C 939.504 -1.89797 1.37892 0
M  V30 10225 C 940.52 -1.71797 0.276023 0
M  V30 10226 O 941.696 -1.94718 0.514464 0
M  V30 10227 C 938.761 -3.25166 1.20284 0
M  V30 10228 C 937.822 -3.55691 2.4038 0
M  V30 10229 C 937.055 -4.84601 2.23602 0
M  V30 10230 O 937.278 -5.56985 1.22979 0
M  V30 10231 O 936.212 -5.14605 3.12194 0
M  V30 10232 H 940.038 -1.93197 2.34326 0
M  V30 10233 H 937.623 -0.898775 1.19342 0
M  V30 10234 H 939.505 -4.06099 1.12525 0
M  V30 10235 H 938.18 -3.22577 0.269352 0
M  V30 10236 H 937.087 -2.74919 2.53714 0
M  V30 10237 H 938.42 -3.6304 3.32359 0
M  V30 10238 N 940.072 -1.23292 -0.981677 0
M  V30 10239 C 941.318 -1.06582 -1.72535 0
M  V30 10240 C 941.651 0.396538 -1.90108 0
M  V30 10241 O 940.926 1.29363 -1.45243 0
M  V30 10242 C 941.209 -1.7904 -3.12437 0
M  V30 10243 C 941.062 -3.32941 -3.02441 0
M  V30 10244 C 942.381 -1.55185 -4.11832 0
M  V30 10245 H 939.5 -0.388585 -0.626236 0
M  V30 10246 H 942.142 -1.51779 -1.14293 0
M  V30 10247 H 940.292 -1.40619 -3.62158 0
M  V30 10248 H 941.964 -3.80875 -2.60254 0
M  V30 10249 H 940.207 -3.62039 -2.38977 0
M  V30 10250 H 940.878 -3.78827 -4.0149 0
M  V30 10251 H 943.354 -1.88581 -3.70913 0
M  V30 10252 H 942.23 -2.08362 -5.07815 0
M  V30 10253 H 942.491 -0.486925 -4.3941 0
M  V30 10254 N 941.55 1.18024 -1.04442 0
M  V30 10255 C 942.961 1.69749 -0.777312 0
M  V30 10256 C 943.312 1.83234 0.701399 0
M  V30 10257 O 942.437 1.51452 1.54568 0
M  V30 10258 C 943.032 3.08321 -1.40441 0
M  V30 10259 C 941.591 3.57243 -1.18553 0
M  V30 10260 C 940.738 2.33695 -1.49271 0
M  V30 10261 H 943.689 1.02647 -1.21035 0
M  V30 10262 H 943.71 3.71787 -0.809628 0
M  V30 10263 H 943.222 2.98474 -2.48062 0
M  V30 10264 H 941.323 3.72379 -0.128221 0
M  V30 10265 H 941.436 4.40451 -1.88519 0
M  V30 10266 H 939.8 2.37792 -0.912526 0
M  V30 10267 H 940.583 2.26464 -2.5801 0
M  V30 10268 N 943.028 0.824394 1.34319 0
M  V30 10269 C 944.275 0.413167 1.9824 0
M  V30 10270 C 944.603 -1.02412 1.65354 0
M  V30 10271 O 943.858 -1.72831 0.91803 0
M  V30 10272 C 944.157 0.564024 3.52921 0
M  V30 10273 C 943.823 1.96725 4.05722 0
M  V30 10274 C 942.485 2.35111 4.19853 0
M  V30 10275 C 944.837 2.88447 4.34106 0
M  V30 10276 C 942.165 3.64551 4.59695 0
M  V30 10277 C 944.517 4.17353 4.75394 0
M  V30 10278 C 943.181 4.55714 4.8773 0
M  V30 10279 H 942.451 0.151188 0.725412 0
M  V30 10280 H 945.098 1.04863 1.60238 0
M  V30 10281 H 943.403 -0.154816 3.91494 0
M  V30 10282 H 945.1 0.226347 4.00361 0
M  V30 10283 H 941.69 1.65908 3.95187 0
M  V30 10284 H 945.874 2.60034 4.22725 0
M  V30 10285 H 941.13 3.94097 4.67437 0
M  V30 10286 H 945.304 4.88512 4.96315 0
M  V30 10287 H 942.931 5.56064 5.1836 0
M  V30 10288 N 944.506 -1.46559 0.579492 0
M  V30 10289 C 945.453 -2.30275 -0.155598 0
M  V30 10290 C 946.423 -1.40422 -0.887175 0
M  V30 10291 O 947.608 -1.69373 -0.878481 0
M  V30 10292 C 944.748 -3.24827 -1.16539 0
M  V30 10293 C 943.861 -4.29778 -0.43759 0
M  V30 10294 C 942.996 -5.11461 -1.43462 0
M  V30 10295 C 942.035 -6.08164 -0.693048 0
M  V30 10296 N 941.172 -6.82726 -1.63799 0
M  V30 10297 H 946.012 -2.92607 0.564356 0
M  V30 10298 H 943.549 -1.44211 0.290126 0
M  V30 10299 H 945.507 -3.78088 -1.76368 0
M  V30 10300 H 944.137 -2.64311 -1.8531 0
M  V30 10301 H 943.189 -3.794 0.27567 0
M  V30 10302 H 944.501 -4.98597 0.142298 0
M  V30 10303 H 943.655 -5.68982 -2.1058 0
M  V30 10304 H 942.394 -4.42595 -2.04844 0
M  V30 10305 H 941.399 -5.49799 -0.00807093 0
M  V30 10306 H 942.624 -6.79047 -0.0846678 0
M  V30 10307 H 940.57 -6.16572 -2.23997 0
M  V30 10308 H 940.487 -7.47795 -1.11082 0
M  V30 10309 H 941.755 -7.44807 -2.29962 0
M  V30 10310 N 945.984 -0.3171 -1.54377 0
M  V30 10311 C 947.23 0.287836 -2.00747 0
M  V30 10312 C 947.563 1.52292 -1.20502 0
M  V30 10313 O 946.838 1.92391 -0.285626 0
M  V30 10314 C 947.121 0.628423 -3.54574 0
M  V30 10315 C 946.974 -0.616922 -4.45549 0
M  V30 10316 C 948.293 1.44862 -4.15575 0
M  V30 10317 H 945.412 0.103144 -0.729747 0
M  V30 10318 H 948.054 -0.432396 -1.85014 0
M  V30 10319 H 946.204 1.24203 -3.68111 0
M  V30 10320 H 947.876 -1.25526 -4.43893 0
M  V30 10321 H 946.119 -1.24706 -4.15489 0
M  V30 10322 H 946.79 -0.334243 -5.50987 0
M  V30 10323 H 949.266 0.930015 -4.05574 0
M  V30 10324 H 948.142 1.6557 -5.23333 0
M  V30 10325 H 948.403 2.44279 -3.68484 0
M  V30 10326 N 947.462 1.57535 -0.0451378 0
M  V30 10327 C 948.739 1.83785 0.669523 0
M  V30 10328 C 949.119 0.932331 1.89396 0
M  V30 10329 O 948.467 -0.00813229 2.28499 0
M  V30 10330 C 948.677 3.33376 1.03255 0
M  V30 10331 C 950.025 4.00243 1.41741 0
M  V30 10332 O 951.049 3.37965 1.12507 0
M  V30 10333 O 949.908 5.10038 1.96275 0
M  V30 10334 H 947.002 0.758342 0.329919 0
M  V30 10335 H 949.548 1.69538 -0.0740415 0
M  V30 10336 H 948.32 3.90965 0.161777 0
M  V30 10337 H 947.943 3.52787 1.83376 0
M  V30 10338 N 948.94 -0.228186 1.55939 0
M  V30 10339 C 950.356 -0.577583 1.48782 0
M  V30 10340 C 950.556 -1.87461 0.738972 0
M  V30 10341 O 949.612 -2.50988 0.275929 0
M  V30 10342 C 950.925 -0.662961 2.93301 0
M  V30 10343 C 952.473 -0.754035 3.03782 0
M  V30 10344 C 952.948 -0.870815 4.49645 0
M  V30 10345 N 954.439 -0.935208 4.53661 0
M  V30 10346 C 955.174 -1.04516 5.63794 0
M  V30 10347 N 954.67 -1.11948 6.83696 0
M  V30 10348 N 956.463 -1.07978 5.51631 0
M  V30 10349 H 948.614 0.623018 2.03057 0
M  V30 10350 H 950.877 0.217692 0.922667 0
M  V30 10351 H 950.583 0.220375 3.51009 0
M  V30 10352 H 950.457 -1.52876 3.44831 0
M  V30 10353 H 952.844 -1.62782 2.46143 0
M  V30 10354 H 952.925 0.137301 2.55431 0
M  V30 10355 H 952.569 -0.0015186 5.079 0
M  V30 10356 H 952.499 -1.77747 4.95695 0
M  V30 10357 H 954.99 -0.88836 3.6731 0
M  V30 10358 H 955.303 -1.20297 7.6338 0
M  V30 10359 H 953.648 -1.08873 6.8642 0
M  V30 10360 H 956.839 -1.01833 4.56889 0
M  V30 10361 H 957.012 -1.16202 6.37496 0
M  V30 10362 N 950.418 -1.49637 -0.494624 0
M  V30 10363 C 951.664 -1.59681 -1.25019 0
M  V30 10364 C 951.997 -0.285511 -1.9209 0
M  V30 10365 O 951.272 0.711398 -1.81023 0
M  V30 10366 C 951.555 -2.76058 -2.31222 0
M  V30 10367 C 951.408 -4.17002 -1.68611 0
M  V30 10368 C 952.727 -2.88056 -3.32734 0
M  V30 10369 H 949.846 -0.581209 -0.453172 0
M  V30 10370 H 952.488 -1.81944 -0.547391 0
M  V30 10371 H 950.638 -2.57207 -2.91164 0
M  V30 10372 H 952.31 -4.47385 -1.12447 0
M  V30 10373 H 950.553 -4.22352 -0.989991 0
M  V30 10374 H 951.224 -4.94316 -2.45674 0
M  V30 10375 H 953.7 -3.05237 -2.82789 0
M  V30 10376 H 952.576 -3.71151 -4.04399 0
M  V30 10377 H 952.837 -1.97676 -3.95445 0
M  V30 10378 N 951.896 0.746133 -1.38819 0
M  V30 10379 C 952.846 1.85085 -1.33145 0
M  V30 10380 C 953.83 1.59466 -0.214339 0
M  V30 10381 O 955.022 1.71159 -0.450943 0
M  V30 10382 C 952.151 3.22884 -1.16623 0
M  V30 10383 C 951.237 3.54369 -2.32988 0
M  V30 10384 N 951.628 3.56863 -3.58445 0
M  V30 10385 C 949.926 3.84674 -2.25703 0
M  V30 10386 C 950.627 3.85827 -4.3533 0
M  V30 10387 N 949.603 4.03037 -3.64777 0
M  V30 10388 H 953.405 1.85301 -2.28124 0
M  V30 10389 H 950.919 0.943847 -1.32156 0
M  V30 10390 H 952.916 4.0195 -1.10642 0
M  V30 10391 H 951.576 3.23914 -0.225841 0
M  V30 10392 H 952.587 3.38443 -3.92017 0
M  V30 10393 H 949.264 3.93375 -1.39864 0
M  V30 10394 H 950.654 3.94317 -5.44025 0
M  V30 10395 N 953.375 1.23811 0.975125 0
M  V30 10396 C 954.6 1.10109 1.75757 0
M  V30 10397 C 955.025 -0.342922 1.84948 0
M  V30 10398 O 954.383 -1.24814 1.31496 0
M  V30 10399 C 954.431 1.73724 3.15994 0
M  V30 10400 O 953.535 1.00297 4.00018 0
M  V30 10401 H 952.876 0.385627 0.540544 0
M  V30 10402 H 955.406 1.63971 1.22372 0
M  V30 10403 H 955.416 1.79178 3.6655 0
M  V30 10404 H 954.091 2.78794 3.0862 0
M  V30 10405 H 952.668 1.02575 3.58515 0
M  V30 10406 N 954.853 -1.17469 1.05066 0
M  V30 10407 C 955.783 -2.23635 0.671552 0
M  V30 10408 C 956.764 -1.66867 -0.33006 0
M  V30 10409 O 957.949 -1.93084 -0.207933 0
M  V30 10410 C 955.079 -3.47272 0.0441845 0
M  V30 10411 C 954.033 -4.16854 0.97042 0
M  V30 10412 C 953.359 -5.34299 0.206998 0
M  V30 10413 C 954.659 -4.69225 2.29401 0
M  V30 10414 H 956.353 -2.55602 1.55911 0
M  V30 10415 H 953.899 -1.2286 0.751101 0
M  V30 10416 H 955.852 -4.20756 -0.23282 0
M  V30 10417 H 954.576 -3.14568 -0.878311 0
M  V30 10418 H 953.235 -3.4528 1.23197 0
M  V30 10419 H 952.883 -4.97846 -0.718222 0
M  V30 10420 H 952.583 -5.81792 0.82416 0
M  V30 10421 H 954.107 -6.10568 -0.0627525 0
M  V30 10422 H 955.521 -5.34353 2.077 0
M  V30 10423 H 953.918 -5.27291 2.86503 0
M  V30 10424 H 954.988 -3.86102 2.93348 0
M  V30 10425 N 956.331 -0.831506 -1.3388 0
M  V30 10426 C 957.279 -0.247896 -2.31275 0
M  V30 10427 C 958.273 0.616083 -1.578 0
M  V30 10428 O 959.479 0.506465 -1.72728 0
M  V30 10429 H 955.854 -0.0614293 -0.749487 0
M  V30 10430 H 957.825 -1.08401 -2.78014 0
M  V30 10431 C 956.574 0.568434 -3.43022 0
M  V30 10432 H 955.897 -0.0870654 -3.99705 0
M  V30 10433 H 957.337 0.942751 -4.13386 0
M  V30 10434 C 955.796 1.74431 -2.88228 0
M  V30 10435 O 956.326 2.84278 -2.83811 0
M  V30 10436 N 954.532 1.56382 -2.44935 0
M  V30 10437 H 954.079 0.670255 -2.48727 0
M  V30 10438 H 954.037 2.35208 -2.08625 0
M  V30 10439 N 957.809 1.4625 -0.587256 0
M  V30 10440 C 958.757 2.32076 0.156108 0
M  V30 10441 C 959.751 1.44756 0.879887 0
M  V30 10442 O 960.957 1.61356 0.797759 0
M  V30 10443 H 957.332 0.748808 0.0692098 0
M  V30 10444 H 959.303 2.9258 -0.586497 0
M  V30 10445 C 958.052 3.28008 1.15352 0
M  V30 10446 H 957.375 3.9518 0.60601 0
M  V30 10447 H 958.815 3.90832 1.64396 0
M  V30 10448 C 957.274 2.53691 2.21681 0
M  V30 10449 O 957.804 2.30329 3.29107 0
M  V30 10450 N 956.01 2.14174 1.96412 0
M  V30 10451 H 955.557 2.33374 1.09061 0
M  V30 10452 H 955.515 1.6477 2.67765 0
M  V30 10453 N 959.287 0.325282 1.54207 0
M  V30 10454 C 960.235 -0.5554 2.25872 0
M  V30 10455 C 961.229 -1.11714 1.27344 0
M  V30 10456 O 962.435 -1.06498 1.45115 0
M  V30 10457 H 958.81 -0.19776 0.725531 0
M  V30 10458 H 960.781 0.0712858 2.98315 0
M  V30 10459 C 959.53 -1.70379 3.03095 0
M  V30 10460 H 958.853 -1.2808 3.78729 0
M  V30 10461 H 960.293 -2.29556 3.56483 0
M  V30 10462 C 958.752 -2.62242 2.11496 0
M  V30 10463 O 959.282 -3.64003 1.69895 0
M  V30 10464 N 957.488 -2.30515 1.7695 0
M  V30 10465 H 957.035 -1.47805 2.10978 0
M  V30 10466 H 956.993 -2.92241 1.15942 0
M  V30 10467 N 960.765 -1.57509 0.0534917 0
M  V30 10468 C 962.181 -1.56696 -0.303067 0
M  V30 10469 C 962.381 -1.06135 -1.71282 0
M  V30 10470 O 961.437 -0.71899 -2.42047 0
M  V30 10471 C 962.75 -3.00421 -0.129418 0
M  V30 10472 C 964.298 -3.12358 -0.200346 0
M  V30 10473 C 964.773 -4.57967 -0.0551971 0
M  V30 10474 N 966.264 -4.63066 -0.111398 0
M  V30 10475 C 966.999 -5.73395 -0.0232344 0
M  V30 10476 N 966.495 -6.92701 0.11741 0
M  V30 10477 N 968.288 -5.62045 -0.078984 0
M  V30 10478 H 960.439 -1.88696 0.975064 0
M  V30 10479 H 962.702 -0.869072 0.378706 0
M  V30 10480 H 962.408 -3.41456 0.842653 0
M  V30 10481 H 962.282 -3.66563 -0.889476 0
M  V30 10482 H 964.669 -2.71221 -1.16289 0
M  V30 10483 H 964.75 -2.48891 0.590506 0
M  V30 10484 H 964.394 -4.9979 0.904034 0
M  V30 10485 H 964.324 -5.19443 -0.865223 0
M  V30 10486 H 966.815 -3.77263 -0.219256 0
M  V30 10487 H 967.128 -7.72597 0.177326 0
M  V30 10488 H 965.473 -6.94833 0.152526 0
M  V30 10489 H 968.664 -4.67725 -0.187434 0
M  V30 10490 H 968.837 -6.48 -0.00681731 0
M  V30 10491 N 962.243 0.219913 -1.56058 0
M  V30 10492 C 963.492 0.942119 -1.78345 0
M  V30 10493 C 963.805 1.85435 -0.622344 0
M  V30 10494 O 965.011 2.61533 -0.728886 0
M  V30 10495 C 963.467 1.72544 -3.15843 0
M  V30 10496 C 963.075 0.859263 -4.39682 0
M  V30 10497 C 964.819 2.43876 -3.47455 0
M  V30 10498 C 962.726 1.64003 -5.68205 0
M  V30 10499 H 961.656 0.355514 -0.664925 0
M  V30 10500 H 964.307 0.195963 -1.82451 0
M  V30 10501 H 962.689 2.51456 -3.05918 0
M  V30 10502 H 963.863 0.110562 -4.60667 0
M  V30 10503 H 962.178 0.257985 -4.156 0
M  V30 10504 H 964.775 3.02794 -4.40704 0
M  V30 10505 H 965.118 3.16843 -2.7003 0
M  V30 10506 H 965.651 1.71952 -3.58716 0
M  V30 10507 H 962.39 0.953606 -6.48526 0
M  V30 10508 H 961.91 2.3633 -5.51279 0
M  V30 10509 H 963.589 2.20028 -6.08438 0
M  V30 10510 N 963.721 1.49897 0.486681 0
M  V30 10511 C 964.97 1.59349 1.23656 0
M  V30 10512 C 965.283 0.292024 1.93408 0
M  V30 10513 O 966.489 0.265258 2.70201 0
M  V30 10514 C 964.945 2.81215 2.24602 0
M  V30 10515 C 964.553 4.18177 1.60725 0
M  V30 10516 C 966.297 3.00004 3.00329 0
M  V30 10517 C 964.204 5.31247 2.59866 0
M  V30 10518 H 963.134 0.593363 0.465227 0
M  V30 10519 H 965.785 1.76306 0.508769 0
M  V30 10520 H 964.167 2.57783 3.00606 0
M  V30 10521 H 965.341 4.51802 0.90616 0
M  V30 10522 H 963.656 4.04864 0.973362 0
M  V30 10523 H 966.253 3.81649 3.74497 0
M  V30 10524 H 966.596 2.1112 3.58795 0
M  V30 10525 H 967.129 3.23544 2.3144 0
M  V30 10526 H 963.868 6.22236 2.06161 0
M  V30 10527 H 963.388 5.02059 3.28172 0
M  V30 10528 H 965.067 5.61177 3.22009 0
M  V30 10529 N 965.199 -0.738761 1.39212 0
M  V30 10530 C 966.448 -1.49368 1.35543 0
M  V30 10531 C 966.761 -1.95543 -0.0471091 0
M  V30 10532 O 967.967 -2.70714 -0.206376 0
M  V30 10533 C 966.423 -2.69882 2.381 0
M  V30 10534 C 966.031 -2.30672 3.8405 0
M  V30 10535 C 967.775 -3.47718 2.435 0
M  V30 10536 C 965.682 -3.47886 4.78256 0
M  V30 10537 H 964.612 -0.560898 0.503894 0
M  V30 10538 H 967.263 -0.806221 1.6484 0
M  V30 10539 H 965.645 -3.40684 2.01867 0
M  V30 10540 H 966.819 -1.67441 4.29302 0
M  V30 10541 H 965.134 -1.65936 3.81909 0
M  V30 10542 H 967.731 -4.34897 3.11077 0
M  V30 10543 H 968.074 -3.89919 1.45838 0
M  V30 10544 H 968.607 -2.83942 2.78606 0
M  V30 10545 H 965.346 -3.10739 5.77167 0
M  V30 10546 H 964.866 -4.10111 4.37686 0
M  V30 10547 H 966.545 -4.14271 4.96979 0
M  V30 10548 N 966.677 -1.24326 -0.968545 0
M  V30 10549 C 967.924 -1.08245 -1.71141 0
M  V30 10550 C 968.252 0.378842 -1.90775 0
M  V30 10551 O 967.507 1.29634 -1.46607 0
M  V30 10552 C 967.806 -1.76644 -3.10695 0
M  V30 10553 C 967.472 -3.26572 -3.10905 0
M  V30 10554 C 966.134 -3.67475 -3.10669 0
M  V30 10555 C 968.486 -4.22422 -3.05302 0
M  V30 10556 C 965.814 -5.02666 -3.02562 0
M  V30 10557 C 968.166 -5.57619 -2.98737 0
M  V30 10558 C 966.83 -5.9787 -2.9683 0
M  V30 10559 H 966.1 -0.396098 -0.626249 0
M  V30 10560 H 968.747 -1.54418 -1.13258 0
M  V30 10561 H 967.052 -1.22864 -3.72037 0
M  V30 10562 H 968.749 -1.61668 -3.66967 0
M  V30 10563 H 965.339 -2.94017 -3.11852 0
M  V30 10564 H 969.523 -3.91821 -3.04614 0
M  V30 10565 H 964.779 -5.3305 -2.99446 0
M  V30 10566 H 968.953 -6.31595 -2.93361 0
M  V30 10567 H 966.58 -7.02587 -2.90303 0
M  V30 10568 N 968.156 1.1691 -1.05688 0
M  V30 10569 C 969.404 1.86922 -0.768409 0
M  V30 10570 C 969.725 1.81735 0.706921 0
M  V30 10571 O 968.995 1.24671 1.51109 0
M  V30 10572 H 967.575 0.69203 -0.281253 0
M  V30 10573 H 970.237 1.41803 -1.33708 0
M  V30 10574 H 969.333 2.92528 -1.08783 0
M  V30 10575 N 969.634 0.838594 1.33437 0
M  V30 10576 C 970.544 0.274048 2.32994 0
M  V30 10577 C 971.56 -0.599776 1.63336 0
M  V30 10578 O 972.736 -0.503963 1.94993 0
M  V30 10579 C 969.801 -0.541804 3.4244 0
M  V30 10580 C 968.862 0.356262 4.27819 0
M  V30 10581 C 968.095 -0.420747 5.32039 0
M  V30 10582 O 968.318 -1.65247 5.45939 0
M  V30 10583 O 967.252 0.205101 6.0155 0
M  V30 10584 H 971.078 1.09846 2.83139 0
M  V30 10585 H 968.663 0.601111 1.36774 0
M  V30 10586 H 970.545 -1.00544 4.0923 0
M  V30 10587 H 969.22 -1.34328 2.94513 0
M  V30 10588 H 968.127 0.867726 3.63897 0
M  V30 10589 H 969.46 1.1225 4.79229 0
M  V30 10590 N 971.112 -1.45937 0.595003 0
M  V30 10591 C 972.062 -2.27491 -0.152331 0
M  V30 10592 C 973.046 -1.36591 -0.850396 0
M  V30 10593 O 974.238 -1.60675 -0.742462 0
M  V30 10594 C 971.367 -3.23203 -1.15735 0
M  V30 10595 C 970.453 -4.2159 -0.46077 0
M  V30 10596 N 970.844 -5.03416 0.490555 0
M  V30 10597 C 969.142 -4.40313 -0.709949 0
M  V30 10598 C 969.843 -5.74714 0.898825 0
M  V30 10599 N 968.819 -5.43046 0.24529 0
M  V30 10600 H 972.621 -2.8815 0.578526 0
M  V30 10601 H 970.135 -1.56936 0.417716 0
M  V30 10602 H 972.132 -3.8035 -1.70704 0
M  V30 10603 H 970.792 -2.64104 -1.8889 0
M  V30 10604 H 971.803 -5.10597 0.866692 0
M  V30 10605 H 968.48 -3.92351 -1.42713 0
M  V30 10606 H 969.87 -6.50487 1.68273 0
M  V30 10607 N 972.59 -0.333456 -1.54032 0
M  V30 10608 C 973.54 0.543745 -2.21421 0
M  V30 10609 C 974.524 1.07396 -1.19812 0
M  V30 10610 O 975.716 1.00934 -1.45401 0
M  V30 10611 C 972.845 1.69925 -2.98296 0
M  V30 10612 C 971.931 1.18345 -4.07253 0
M  V30 10613 N 972.322 0.388098 -5.04309 0
M  V30 10614 C 970.62 1.46128 -4.21382 0
M  V30 10615 C 971.321 0.109383 -5.81597 0
M  V30 10616 N 970.297 0.69825 -5.39097 0
M  V30 10617 H 974.099 -0.0711018 -2.93814 0
M  V30 10618 H 971.613 -0.139807 -1.61797 0
M  V30 10619 H 973.61 2.33954 -3.45067 0
M  V30 10620 H 972.27 2.31747 -2.27428 0
M  V30 10621 H 973.281 0.0300645 -5.17891 0
M  V30 10622 H 969.958 2.08463 -3.61731 0
M  V30 10623 H 971.348 -0.531554 -6.69794 0
M  V30 10624 N 974.068 1.57479 -0.061844 0
M  V30 10625 C 975.317 1.92285 0.609055 0
M  V30 10626 C 975.63 0.942983 1.71369 0
M  V30 10627 O 976.836 1.18349 2.44348 0
M  V30 10628 C 975.292 3.41545 1.13468 0
M  V30 10629 C 974.9 4.47958 0.0615926 0
M  V30 10630 C 976.644 3.85368 1.78022 0
M  V30 10631 C 974.551 5.88341 0.600705 0
M  V30 10632 H 973.481 0.717656 0.23127 0
M  V30 10633 H 976.132 1.83021 -0.132466 0
M  V30 10634 H 974.514 3.45848 1.92886 0
M  V30 10635 H 975.688 4.55258 -0.712527 0
M  V30 10636 H 974.003 4.13541 -0.487116 0
M  V30 10637 H 976.6 4.87627 2.19371 0
M  V30 10638 H 976.943 3.22193 2.63623 0
M  V30 10639 H 977.476 3.83626 1.05242 0
M  V30 10640 H 974.215 6.55138 -0.217922 0
M  V30 10641 H 973.735 5.84581 1.34257 0
M  V30 10642 H 975.414 6.37918 1.08025 0
M  V30 10643 N 975.546 -0.211634 1.56173 0
M  V30 10644 C 976.776 -0.949805 1.83473 0
M  V30 10645 C 977.184 -1.78045 0.640053 0
M  V30 10646 O 976.527 -1.79277 -0.400702 0
M  V30 10647 C 976.589 -1.90868 3.04647 0
M  V30 10648 C 976.253 -1.26159 4.39241 0
M  V30 10649 C 977.25 -0.646597 5.15863 0
M  V30 10650 C 974.935 -1.27039 4.85969 0
M  V30 10651 C 976.929 -0.0490313 6.37381 0
M  V30 10652 C 974.616 -0.668987 6.07427 0
M  V30 10653 C 975.614 -0.0593687 6.82974 0
M  V30 10654 O 975.302 0.532656 8.02133 0
M  V30 10655 H 975.034 -0.283458 0.6137 0
M  V30 10656 H 977.588 -0.22894 2.0412 0
M  V30 10657 H 975.818 -2.6688 2.79843 0
M  V30 10658 H 977.507 -2.51323 3.18734 0
M  V30 10659 H 978.273 -0.632056 4.80864 0
M  V30 10660 H 974.152 -1.73429 4.27134 0
M  V30 10661 H 977.696 0.427414 6.96289 0
M  V30 10662 H 973.593 -0.680975 6.41898 0
M  V30 10663 H 974.361 0.427942 8.17381 0
M  V30 10664 N 977.024 -1.50153 -0.478725 0
M  V30 10665 C 977.954 -1.71384 -1.58587 0
M  V30 10666 C 978.935 -0.562705 -1.60523 0
M  V30 10667 O 980.12 -0.80101 -1.76911 0
M  V30 10668 C 977.25 -1.80094 -2.96957 0
M  V30 10669 C 976.204 -2.95218 -3.09888 0
M  V30 10670 C 975.53 -2.89063 -4.49829 0
M  V30 10671 C 976.83 -4.35841 -2.8782 0
M  V30 10672 H 978.524 -2.64081 -1.41073 0
M  V30 10673 H 976.07 -1.27081 -0.677239 0
M  V30 10674 H 978.023 -1.93531 -3.74331 0
M  V30 10675 H 976.747 -0.840131 -3.1561 0
M  V30 10676 H 975.406 -2.81419 -2.34944 0
M  V30 10677 H 975.054 -1.90844 -4.6539 0
M  V30 10678 H 974.754 -3.66345 -4.59418 0
M  V30 10679 H 976.278 -3.04539 -5.29234 0
M  V30 10680 H 977.692 -4.50205 -3.54948 0
M  V30 10681 H 976.089 -5.14515 -3.0886 0
M  V30 10682 H 977.159 -4.48739 -1.83742 0
M  V30 10683 N 978.502 0.731368 -1.39602 0
M  V30 10684 C 979.732 1.51839 -1.40102 0
M  V30 10685 C 980.14 1.89199 0.00526634 0
M  V30 10686 O 979.483 1.54877 0.987874 0
M  V30 10687 C 979.545 2.83292 -2.21328 0
M  V30 10688 C 979.209 2.68345 -3.69919 0
M  V30 10689 C 980.206 2.36651 -4.62917 0
M  V30 10690 C 977.891 2.85102 -4.13548 0
M  V30 10691 C 979.885 2.21901 -5.97527 0
M  V30 10692 C 977.572 2.69971 -5.48233 0
M  V30 10693 C 978.57 2.38416 -6.40037 0
M  V30 10694 O 978.258 2.23383 -7.72241 0
M  V30 10695 H 977.99 0.475695 -0.480302 0
M  V30 10696 H 980.544 0.911096 -1.84087 0
M  V30 10697 H 978.774 3.46294 -1.72096 0
M  V30 10698 H 980.463 3.44928 -2.13961 0
M  V30 10699 H 981.229 2.23352 -4.3051 0
M  V30 10700 H 977.108 3.08655 -3.42423 0
M  V30 10701 H 980.652 1.97193 -6.69149 0
M  V30 10702 H 976.549 2.82849 -5.8023 0
M  V30 10703 H 977.317 2.38425 -7.83004 0
M  V30 10704 N 979.98 1.24838 0.961938 0
M  V30 10705 C 981.257 0.99939 1.68141 0
M  V30 10706 C 981.637 -0.476588 2.0565 0
M  V30 10707 O 980.985 -1.45224 1.76415 0
M  V30 10708 C 981.195 1.92797 2.90913 0
M  V30 10709 C 982.543 2.20219 3.63027 0
M  V30 10710 O 983.567 1.90496 3.00981 0
M  V30 10711 O 982.426 2.70725 4.74731 0
M  V30 10712 H 979.52 0.37842 0.735342 0
M  V30 10713 H 982.066 1.35961 1.01551 0
M  V30 10714 H 980.838 2.92492 2.59931 0
M  V30 10715 H 980.461 1.57127 3.65235 0
M  V30 10716 N 981.458 -1.16348 1.06306 0
M  V30 10717 C 982.391 -2.19667 0.618197 0
M  V30 10718 C 983.369 -1.58586 -0.359078 0
M  V30 10719 O 984.553 -1.86585 -0.268023 0
M  V30 10720 C 981.68 -3.3857 -0.0937091 0
M  V30 10721 C 980.726 -4.18139 0.840339 0
M  V30 10722 S 981.559 -4.81879 2.33565 0
M  V30 10723 C 982.715 -6.04161 1.63524 0
M  V30 10724 H 982.948 -2.57063 1.49352 0
M  V30 10725 H 980.481 -1.27141 0.876046 0
M  V30 10726 H 982.439 -4.07465 -0.498227 0
M  V30 10727 H 981.1 -2.9954 -0.94523 0
M  V30 10728 H 980.293 -5.03172 0.288781 0
M  V30 10729 H 979.895 -3.54739 1.18474 0
M  V30 10730 H 982.187 -6.70935 0.940904 0
M  V30 10731 H 983.13 -6.63866 2.46347 0
M  V30 10732 H 983.538 -5.53323 1.11778 0
M  V30 10733 N 982.937 -0.845659 -1.3299 0
M  V30 10734 C 983.885 -0.272412 -2.30999 0
M  V30 10735 C 984.879 0.599311 -1.58444 0
M  V30 10736 O 986.085 0.488117 -1.73255 0
M  V30 10737 H 982.46 -0.0693751 -0.748793 0
M  V30 10738 H 984.431 -1.11343 -2.76849 0
M  V30 10739 C 983.18 0.532019 -3.43606 0
M  V30 10740 H 982.503 -0.129455 -3.9959 0
M  V30 10741 H 983.943 0.898853 -4.14363 0
M  V30 10742 C 982.402 1.71364 -2.90062 0
M  V30 10743 O 982.932 2.81252 -2.8681 0
M  V30 10744 N 981.138 1.53775 -2.4658 0
M  V30 10745 H 980.685 0.643836 -2.49424 0
M  V30 10746 H 980.643 2.32982 -2.11108 0
M  V30 10747 N 984.415 1.45619 -0.602734 0
M  V30 10748 C 985.345 2.33258 0.106342 0
M  V30 10749 C 986.326 1.46543 0.863664 0
M  V30 10750 O 987.511 1.75324 0.835175 0
M  V30 10751 C 984.641 3.29168 1.10751 0
M  V30 10752 C 983.595 4.25481 0.463717 0
M  V30 10753 C 982.921 5.11046 1.57278 0
M  V30 10754 C 984.221 5.18702 -0.61199 0
M  V30 10755 H 985.915 2.92795 -0.625423 0
M  V30 10756 H 983.461 1.40793 -0.302213 0
M  V30 10757 H 985.414 3.89346 1.61208 0
M  V30 10758 H 984.138 2.6778 1.8698 0
M  V30 10759 H 982.797 3.66595 -0.0199496 0
M  V30 10760 H 982.445 4.46029 2.32524 0
M  V30 10761 H 982.145 5.76286 1.14755 0
M  V30 10762 H 983.669 5.74091 2.07972 0
M  V30 10763 H 985.083 5.72979 -0.191686 0
M  V30 10764 H 983.48 5.92393 -0.958686 0
M  V30 10765 H 984.55 4.61424 -1.4905 0
M  V30 10766 N 985.893 0.34162 1.53853 0
M  V30 10767 C 986.84 -0.516058 2.24957 0
M  V30 10768 C 987.81 -1.09711 1.2471 0
M  V30 10769 O 988.995 -1.13409 1.53438 0
M  V30 10770 C 986.135 -1.66207 3.02439 0
M  V30 10771 C 985.248 -1.10851 4.17536 0
M  V30 10772 C 984.383 -2.22167 4.82509 0
M  V30 10773 C 983.422 -1.64152 5.89678 0
M  V30 10774 N 982.559 -2.69203 6.4844 0
M  V30 10775 H 987.399 0.0968275 2.97843 0
M  V30 10776 H 984.936 0.0595565 1.46979 0
M  V30 10777 H 986.894 -2.33672 3.4562 0
M  V30 10778 H 985.524 -2.24597 2.31853 0
M  V30 10779 H 984.576 -0.324853 3.7901 0
M  V30 10780 H 985.888 -0.644151 4.94623 0
M  V30 10781 H 985.042 -2.97501 5.28751 0
M  V30 10782 H 983.781 -2.71946 4.04842 0
M  V30 10783 H 982.786 -0.873228 5.42821 0
M  V30 10784 H 984.011 -1.15228 6.69253 0
M  V30 10785 H 981.957 -3.1824 5.73637 0
M  V30 10786 H 981.874 -2.27383 7.20994 0
M  V30 10787 H 983.142 -3.44312 6.99335 0
M  V30 10788 N 987.371 -1.57444 0.0701946 0
M  V30 10789 C 988.318 -2.12631 -0.897599 0
M  V30 10790 C 989.288 -1.03841 -1.29639 0
M  V30 10791 O 990.473 -1.31495 -1.38253 0
M  V30 10792 C 987.613 -2.6911 -2.16041 0
M  V30 10793 C 986.726 -3.9205 -1.8144 0
M  V30 10794 C 985.861 -4.36778 -3.02321 0
M  V30 10795 C 984.9 -5.52371 -2.63729 0
M  V30 10796 N 984.037 -5.92065 -3.77364 0
M  V30 10797 H 988.877 -2.95024 -0.420104 0
M  V30 10798 H 986.414 -1.45792 -0.195716 0
M  V30 10799 H 988.372 -2.99963 -2.89962 0
M  V30 10800 H 987.002 -1.89484 -2.61334 0
M  V30 10801 H 986.054 -3.67669 -0.975896 0
M  V30 10802 H 987.366 -4.76011 -1.49046 0
M  V30 10803 H 986.52 -4.69285 -3.84521 0
M  V30 10804 H 985.259 -3.51668 -3.37907 0
M  V30 10805 H 984.264 -5.19517 -1.7995 0
M  V30 10806 H 985.489 -6.39212 -2.29315 0
M  V30 10807 H 983.435 -5.09904 -4.12715 0
M  V30 10808 H 983.352 -6.70762 -3.48733 0
M  V30 10809 H 984.62 -6.29193 -4.60148 0
M  V30 10810 N 988.849 0.203349 -1.56283 0
M  V30 10811 C 990.098 0.92315 -1.79334 0
M  V30 10812 C 990.411 1.84765 -0.641977 0
M  V30 10813 O 991.617 2.60745 -0.756584 0
M  V30 10814 C 990.073 1.69184 -3.17655 0
M  V30 10815 C 989.681 0.812581 -4.40569 0
M  V30 10816 C 991.425 2.40177 -3.50022 0
M  V30 10817 C 989.332 1.57967 -5.69913 0
M  V30 10818 H 988.262 0.348442 -0.668659 0
M  V30 10819 H 990.913 0.1766 -1.82648 0
M  V30 10820 H 989.295 2.48197 -3.08568 0
M  V30 10821 H 990.469 0.0616956 -4.60759 0
M  V30 10822 H 988.784 0.21389 -4.1585 0
M  V30 10823 H 991.381 2.98103 -4.4389 0
M  V30 10824 H 991.724 3.13961 -2.73376 0
M  V30 10825 H 992.257 1.68138 -3.6052 0
M  V30 10826 H 988.996 0.884767 -6.49501 0
M  V30 10827 H 988.516 2.3047 -5.53754 0
M  V30 10828 H 990.195 2.13562 -6.10737 0
M  V30 10829 N 990.327 1.50405 0.470755 0
M  V30 10830 C 991.257 1.72222 1.57676 0
M  V30 10831 C 992.238 0.57121 1.60222 0
M  V30 10832 O 993.423 0.810381 1.76484 0
M  V30 10833 C 990.553 1.81666 2.95998 0
M  V30 10834 C 989.507 2.96857 3.08318 0
M  V30 10835 C 988.833 2.91445 4.4829 0
M  V30 10836 C 990.133 4.37361 2.85504 0
M  V30 10837 H 991.827 2.64825 1.39671 0
M  V30 10838 H 989.373 1.27438 0.67049 0
M  V30 10839 H 991.326 1.95514 3.73299 0
M  V30 10840 H 990.05 0.856856 3.1516 0
M  V30 10841 H 988.709 2.82661 2.33449 0
M  V30 10842 H 988.357 1.93309 4.64371 0
M  V30 10843 H 988.057 3.68776 4.57469 0
M  V30 10844 H 989.581 3.07341 5.27611 0
M  V30 10845 H 990.995 4.52081 3.52555 0
M  V30 10846 H 989.392 5.16145 3.06127 0
M  V30 10847 H 990.462 4.49708 1.81359 0
M  V30 10848 N 991.805 -0.723954 1.39988 0
M  V30 10849 C 992.753 -1.85938 1.39749 0
M  V30 10850 C 993.747 -1.67085 0.279112 0
M  V30 10851 O 994.953 -1.74291 0.44972 0
M  V30 10852 H 991.328 -0.612246 0.436644 0
M  V30 10853 H 993.299 -1.83255 2.355 0
M  V30 10854 C 992.048 -3.23726 1.26874 0
M  V30 10855 H 991.371 -3.38835 2.12206 0
M  V30 10856 H 992.811 -4.03332 1.30765 0
M  V30 10857 C 991.27 -3.36893 -0.0218317 0
M  V30 10858 O 991.8 -3.89363 -0.987905 0
M  V30 10859 N 990.006 -2.90465 -0.0885618 0
M  V30 10860 H 989.553 -2.47954 0.698314 0
M  V30 10861 H 989.511 -2.99654 -0.951557 0
M  V30 10862 N 993.283 -1.25346 -0.955304 0
M  V30 10863 C 994.193 -1.07412 -2.08566 0
M  V30 10864 C 995.209 -0.0114424 -1.73996 0
M  V30 10865 O 996.385 -0.212236 -2.00279 0
M  V30 10866 C 993.45 -0.694141 -3.3968 0
M  V30 10867 C 992.511 -1.83468 -3.88121 0
M  V30 10868 C 991.744 -1.47274 -5.12978 0
M  V30 10869 O 991.967 -0.368086 -5.69211 0
M  V30 10870 O 990.901 -2.30269 -5.56111 0
M  V30 10871 H 994.727 -2.02206 -2.26598 0
M  V30 10872 H 992.312 -1.04279 -1.06988 0
M  V30 10873 H 994.194 -0.494325 -4.18491 0
M  V30 10874 H 992.869 0.224545 -3.2292 0
M  V30 10875 H 991.776 -2.08935 -3.10318 0
M  V30 10876 H 993.109 -2.73258 -4.09379 0
M  V30 10877 N 994.761 1.15782 -1.06922 0
M  V30 10878 C 996.01 1.85807 -0.784774 0
M  V30 10879 C 996.323 1.82967 0.691551 0
M  V30 10880 O 997.529 2.48632 1.0906 0
M  V30 10881 C 995.985 3.33469 -1.35375 0
M  V30 10882 C 995.593 3.44766 -2.86077 0
M  V30 10883 C 997.337 4.08707 -1.14713 0
M  V30 10884 C 995.244 4.86551 -3.36187 0
M  V30 10885 H 994.174 0.696046 -0.28989 0
M  V30 10886 H 996.825 1.30629 -1.28873 0
M  V30 10887 H 995.207 3.88292 -0.77754 0
M  V30 10888 H 996.381 3.00073 -3.49704 0
M  V30 10889 H 994.696 2.82969 -3.05479 0
M  V30 10890 H 997.293 5.13336 -1.49633 0
M  V30 10891 H 997.636 4.16211 -0.0858868 0
M  V30 10892 H 998.169 3.60142 -1.68946 0
M  V30 10893 H 994.908 4.84229 -4.41818 0
M  V30 10894 H 994.428 5.31844 -2.77312 0
M  V30 10895 H 996.107 5.55392 -3.31887 0
M  V30 10896 N 996.239 0.8527 1.3254 0
M  V30 10897 C 997.189 0.267711 2.26423 0
M  V30 10898 C 998.173 -0.585305 1.49877 0
M  V30 10899 O 999.365 -0.435008 1.71571 0
M  V30 10900 C 996.494 -0.544605 3.38953 0
M  V30 10901 C 995.58 0.32069 4.22886 0
M  V30 10902 N 995.971 1.40601 4.85865 0
M  V30 10903 C 994.269 0.110101 4.45864 0
M  V30 10904 C 994.97 1.93819 5.48461 0
M  V30 10905 N 993.946 1.23764 5.29324 0
M  V30 10906 H 997.748 1.09747 2.7264 0
M  V30 10907 H 995.262 0.698607 1.46606 0
M  V30 10908 H 997.259 -0.98009 4.05216 0
M  V30 10909 H 995.919 -1.37218 2.94281 0
M  V30 10910 H 996.93 1.78894 4.86022 0
M  V30 10911 H 993.607 -0.682917 4.11877 0
M  V30 10912 H 994.997 2.84783 6.08562 0
M  V30 10913 N 997.718 -1.45297 0.610449 0
M  V30 10914 C 998.668 -2.27639 -0.128194 0
M  V30 10915 C 999.652 -1.37485 -0.835861 0
M  V30 10916 O 1000.84 -1.61454 -0.725378 0
M  V30 10917 C 997.973 -3.24413 -1.123 0
M  V30 10918 C 997.059 -4.22055 -0.416029 0
M  V30 10919 N 997.45 -5.02867 0.543921 0
M  V30 10920 C 995.748 -4.41041 -0.663208 0
M  V30 10921 C 996.449 -5.73728 0.959731 0
M  V30 10922 N 995.425 -5.42756 0.302873 0
M  V30 10923 H 999.227 -2.8752 0.609056 0
M  V30 10924 H 996.741 -1.56484 0.434338 0
M  V30 10925 H 998.738 -3.82139 -1.6666 0
M  V30 10926 H 997.398 -2.66092 -1.86078 0
M  V30 10927 H 998.409 -5.09649 0.920799 0
M  V30 10928 H 995.086 -3.93842 -1.38544 0
M  V30 10929 H 996.476 -6.48666 1.75163 0
M  V30 10930 N 999.196 -0.349774 -1.5367 0
M  V30 10931 C 1000.42 0.246038 -2.05432 0
M  V30 10932 C 1000.84 1.43719 -1.22435 0
M  V30 10933 O 1000.2 1.80622 -0.261166 0
M  V30 10934 C 1000.25 0.65501 -3.55516 0
M  V30 10935 O 999.968 -0.488782 -4.35365 0
M  V30 10936 C 1001.47 1.31088 -4.23475 0
M  V30 10937 H 998.689 0.0463952 -0.669394 0
M  V30 10938 H 1001.23 -0.503566 -1.98203 0
M  V30 10939 H 999.388 1.35455 -3.62947 0
M  V30 10940 H 999.802 -0.161528 -5.24251 0
M  V30 10941 H 1001.28 1.54774 -5.29857 0
M  V30 10942 H 1001.75 2.26636 -3.76208 0
M  V30 10943 H 1002.36 0.653211 -4.20254 0
M  V30 10944 N 1000.67 1.57404 -0.0785433 0
M  V30 10945 C 1001.95 1.85163 0.630389 0
M  V30 10946 C 1002.33 0.972295 1.87376 0
M  V30 10947 O 1001.68 0.0403375 2.28464 0
M  V30 10948 C 1001.89 3.35491 0.961604 0
M  V30 10949 C 1003.24 4.0316 1.33219 0
M  V30 10950 O 1004.26 3.40276 1.05313 0
M  V30 10951 O 1003.12 5.14086 1.85412 0
M  V30 10952 H 1000.21 0.765169 0.31376 0
M  V30 10953 H 1002.76 1.69343 -0.109986 0
M  V30 10954 H 1001.53 3.91221 0.0788113 0
M  V30 10955 H 1001.15 3.56598 1.75852 0
M  V30 10956 N 1002.15 -0.195058 1.56388 0
M  V30 10957 C 1003.38 -0.931642 1.84738 0
M  V30 10958 C 1003.79 -1.76849 0.661046 0
M  V30 10959 O 1003.15 -1.78705 -0.370241 0
M  V30 10960 C 1003.2 -1.82777 3.11889 0
M  V30 10961 O 1002.92 -1.02471 4.25948 0
M  V30 10962 C 1004.42 -2.67603 3.53417 0
M  V30 10963 H 1001.64 -0.271821 0.613477 0
M  V30 10964 H 1004.19 -0.202299 2.03497 0
M  V30 10965 H 1002.34 -2.51074 2.95027 0
M  V30 10966 H 1002.76 -1.63539 4.98353 0
M  V30 10967 H 1004.23 -3.26138 4.45352 0
M  V30 10968 H 1004.71 -3.41314 2.76408 0
M  V30 10969 H 1005.31 -2.04678 3.7281 0
M  V30 10970 N 1003.63 -1.50653 -0.462772 0
M  V30 10971 C 1004.88 -1.61296 -1.21105 0
M  V30 10972 C 1005.19 -0.322757 -1.92919 0
M  V30 10973 O 1006.4 -0.308211 -2.69745 0
M  V30 10974 C 1004.85 -2.84752 -2.201 0
M  V30 10975 C 1004.46 -4.20681 -1.54051 0
M  V30 10976 C 1006.21 -3.04744 -2.95518 0
M  V30 10977 C 1004.11 -5.35314 -2.51381 0
M  V30 10978 H 1003.04 -0.60069 -0.455728 0
M  V30 10979 H 1005.69 -1.77093 -0.480656 0
M  V30 10980 H 1004.08 -2.62532 -2.96467 0
M  V30 10981 H 1005.25 -4.53187 -0.834168 0
M  V30 10982 H 1003.56 -4.06361 -0.908828 0
M  V30 10983 H 1006.16 -3.87559 -3.68378 0
M  V30 10984 H 1006.5 -2.16802 -3.55391 0
M  V30 10985 H 1007.04 -3.27185 -2.26263 0
M  V30 10986 H 1003.78 -6.25437 -1.96235 0
M  V30 10987 H 1003.3 -5.07216 -3.20144 0
M  V30 10988 H 1004.98 -5.66229 -3.1304 0
M  V30 10989 N 1005.11 0.71652 -1.4037 0
M  V30 10990 C 1006.36 1.47193 -1.37903 0
M  V30 10991 C 1006.67 1.95593 0.0159939 0
M  V30 10992 O 1007.88 2.71009 0.163282 0
M  V30 10993 C 1006.33 2.6606 -2.42363 0
M  V30 10994 C 1005.94 2.24533 -3.87671 0
M  V30 10995 C 1007.68 3.438 -2.49001 0
M  V30 10996 C 1005.59 3.40234 -4.8373 0
M  V30 10997 H 1004.52 0.552811 -0.512753 0
M  V30 10998 H 1007.17 0.779894 -1.66102 0
M  V30 10999 H 1005.55 3.37429 -2.07262 0
M  V30 11000 H 1006.73 1.6059 -4.31911 0
M  V30 11001 H 1005.04 1.59839 -3.845 0
M  V30 11002 H 1007.64 4.29893 -3.17956 0
M  V30 11003 H 1007.98 3.8755 -1.52023 0
M  V30 11004 H 1008.52 2.79474 -2.83088 0
M  V30 11005 H 1005.26 3.01517 -5.82037 0
M  V30 11006 H 1004.78 4.03095 -4.44156 0
M  V30 11007 H 1006.45 4.06312 -5.03507 0
M  V30 11008 N 1006.59 1.25851 0.948643 0
M  V30 11009 C 1007.81 1.13813 1.73382 0
M  V30 11010 C 1008.24 -0.303615 1.85633 0
M  V30 11011 O 1007.59 -1.21997 1.34114 0
M  V30 11012 C 1007.64 1.80388 3.12238 0
M  V30 11013 O 1006.75 1.08759 3.978 0
M  V30 11014 H 1006.09 0.397006 0.532243 0
M  V30 11015 H 1008.62 1.66529 1.18866 0
M  V30 11016 H 1008.63 1.86913 3.62667 0
M  V30 11017 H 1007.3 2.85278 3.02637 0
M  V30 11018 H 1005.88 1.10157 3.56258 0
M  V30 11019 N 1008.06 -1.15214 1.07534 0
M  V30 11020 C 1009.31 -1.86319 0.800814 0
M  V30 11021 C 1009.64 -1.82221 -0.671494 0
M  V30 11022 O 1008.92 -1.24664 -1.49295 0
M  V30 11023 C 1009.2 -3.35347 1.31203 0
M  V30 11024 C 1009.05 -3.48067 2.84902 0
M  V30 11025 C 1010.37 -4.3016 0.930064 0
M  V30 11026 H 1007.49 -0.676523 0.292379 0
M  V30 11027 H 1010.13 -1.35349 1.33344 0
M  V30 11028 H 1008.28 -3.78886 0.858949 0
M  V30 11029 H 1009.96 -3.13379 3.38514 0
M  V30 11030 H 1008.2 -2.89566 3.23008 0
M  V30 11031 H 1008.87 -4.52782 3.15741 0
M  V30 11032 H 1011.35 -3.94591 1.3205 0
M  V30 11033 H 1010.22 -5.32914 1.31507 0
M  V30 11034 H 1010.48 -4.41796 -0.163824 0
M  V30 11035 N 1009.54 -0.859717 -1.32086 0
M  V30 11036 C 1010.45 -0.31108 -2.32528 0
M  V30 11037 C 1011.47 0.573714 -1.6427 0
M  V30 11038 O 1012.64 0.472878 -1.9577 0
M  V30 11039 C 1009.71 0.487256 -3.43259 0
M  V30 11040 C 1008.77 -0.424279 -4.27198 0
M  V30 11041 C 1008 0.336051 -5.32641 0
M  V30 11042 O 1008.23 1.56541 -5.48499 0
M  V30 11043 O 1007.16 -0.300777 -6.01148 0
M  V30 11044 H 1010.99 -1.14336 -2.81355 0
M  V30 11045 H 1008.57 -0.622794 -1.358 0
M  V30 11046 H 1010.45 0.940203 -4.10777 0
M  V30 11047 H 1009.13 1.29626 -2.96612 0
M  V30 11048 H 1008.04 -0.925509 -3.62471 0
M  V30 11049 H 1009.37 -1.1986 -4.77383 0
M  V30 11050 N 1011.02 1.44971 -0.618145 0
M  V30 11051 C 1012.27 2.02458 -0.117656 0
M  V30 11052 C 1012.6 1.48413 1.25248 0
M  V30 11053 O 1011.87 0.662997 1.82851 0
M  V30 11054 C 1012.16 3.59987 -0.0901897 0
M  V30 11055 C 1012.01 4.24343 -1.49175 0
M  V30 11056 C 1013.33 4.36099 0.592121 0
M  V30 11057 H 1010.45 0.735672 -0.0442291 0
M  V30 11058 H 1013.09 1.727 -0.792138 0
M  V30 11059 H 1011.24 3.85471 0.484175 0
M  V30 11060 H 1012.91 4.10009 -2.114 0
M  V30 11061 H 1011.16 3.82337 -2.04941 0
M  V30 11062 H 1011.83 5.33298 -1.42468 0
M  V30 11063 H 1014.3 4.1597 0.103813 0
M  V30 11064 H 1013.18 5.45822 0.580481 0
M  V30 11065 H 1013.44 4.09746 1.66015 0
M  V30 11066 N 1012.5 0.357919 1.53482 0
M  V30 11067 C 1013.75 -0.235241 2.00324 0
M  V30 11068 C 1014.06 -1.50494 1.24944 0
M  V30 11069 O 1015.27 -2.17623 1.62335 0
M  V30 11070 C 1013.72 -0.469748 3.56821 0
M  V30 11071 C 1013.33 0.784877 4.41071 0
M  V30 11072 C 1015.07 -1.02098 4.12039 0
M  V30 11073 C 1012.98 0.520377 5.89106 0
M  V30 11074 H 1011.91 -0.0916816 0.748405 0
M  V30 11075 H 1014.56 0.475474 1.77233 0
M  V30 11076 H 1012.94 -1.24153 3.76035 0
M  V30 11077 H 1014.12 1.55886 4.33631 0
M  V30 11078 H 1012.43 1.25878 3.96918 0
M  V30 11079 H 1015.03 -1.23406 5.20264 0
M  V30 11080 H 1015.37 -1.98084 3.66154 0
M  V30 11081 H 1015.91 -0.309554 3.96594 0
M  V30 11082 H 1012.65 1.45035 6.39254 0
M  V30 11083 H 1012.17 -0.215254 5.99414 0
M  V30 11084 H 1013.84 0.143006 6.46842 0
M  V30 11085 N 1013.98 -1.5736 0.0868897 0
M  V30 11086 C 1014.92 -2.13571 -0.874996 0
M  V30 11087 C 1015.89 -1.0521 -1.2853 0
M  V30 11088 O 1017.08 -1.32954 -1.3685 0
M  V30 11089 C 1014.22 -2.71386 -2.13175 0
M  V30 11090 C 1013.33 -3.93953 -1.77272 0
M  V30 11091 C 1012.47 -4.3996 -2.97671 0
M  V30 11092 C 1011.51 -5.55137 -2.57856 0
M  V30 11093 N 1010.64 -5.96034 -3.71064 0
M  V30 11094 H 1015.48 -2.95453 -0.388789 0
M  V30 11095 H 1013.02 -1.45992 -0.180242 0
M  V30 11096 H 1014.98 -3.03022 -2.86764 0
M  V30 11097 H 1013.61 -1.92245 -2.5931 0
M  V30 11098 H 1012.66 -3.68683 -0.936845 0
M  V30 11099 H 1013.97 -4.77565 -1.43989 0
M  V30 11100 H 1013.13 -4.73337 -3.79522 0
M  V30 11101 H 1011.86 -3.55232 -3.34158 0
M  V30 11102 H 1010.87 -5.21397 -1.7443 0
M  V30 11103 H 1012.09 -6.41608 -2.22522 0
M  V30 11104 H 1010.04 -5.14253 -4.07284 0
M  V30 11105 H 1009.96 -6.74423 -3.41599 0
M  V30 11106 H 1011.23 -6.34038 -4.53449 0
M  V30 11107 N 1015.45 0.186762 -1.56489 0
M  V30 11108 C 1016.73 0.932229 -1.71956 0
M  V30 11109 C 1017.11 2.01037 -0.644006 0
M  V30 11110 O 1016.46 2.259 0.343694 0
M  V30 11111 C 1016.67 1.51106 -3.14592 0
M  V30 11112 C 1018.02 1.98997 -3.75081 0
M  V30 11113 O 1019.04 1.60931 -3.17773 0
M  V30 11114 O 1017.9 2.69067 -4.75673 0
M  V30 11115 H 1014.99 0.437736 -0.701652 0
M  V30 11116 H 1017.54 0.175803 -1.68787 0
M  V30 11117 H 1016.31 0.734327 -3.84348 0
M  V30 11118 H 1015.94 2.33209 -3.22024 0
M  V30 11119 N 1016.93 1.50896 0.454776 0
M  V30 11120 C 1018.16 1.66239 1.22671 0
M  V30 11121 C 1018.57 0.351876 1.85899 0
M  V30 11122 O 1017.91 -0.677848 1.70736 0
M  V30 11123 C 1017.98 2.70812 2.36434 0
M  V30 11124 C 1017.64 4.13913 1.93714 0
M  V30 11125 C 1018.64 4.99259 1.45039 0
M  V30 11126 C 1016.32 4.59921 2.01937 0
M  V30 11127 C 1018.32 6.28667 1.05151 0
M  V30 11128 C 1016 5.89329 1.6166 0
M  V30 11129 C 1017 6.73529 1.13347 0
M  V30 11130 O 1016.69 8.0052 0.736354 0
M  V30 11131 H 1016.42 0.561443 0.376508 0
M  V30 11132 H 1018.97 1.97974 0.547325 0
M  V30 11133 H 1017.2 2.34355 3.07595 0
M  V30 11134 H 1018.89 2.7521 2.98353 0
M  V30 11135 H 1019.66 4.64925 1.38095 0
M  V30 11136 H 1015.54 3.94518 2.38488 0
M  V30 11137 H 1019.08 6.94339 0.673711 0
M  V30 11138 H 1014.98 6.23182 1.68269 0
M  V30 11139 H 1015.75 8.1393 0.863759 0
M  V30 11140 N 1018.41 -0.709066 1.40748 0
M  V30 11141 C 1019.66 -1.4646 1.38681 0
M  V30 11142 C 1019.97 -1.95599 -0.0056209 0
M  V30 11143 O 1021.18 -2.71091 -0.148907 0
M  V30 11144 C 1019.63 -2.64771 2.43771 0
M  V30 11145 C 1019.24 -2.22474 3.88856 0
M  V30 11146 C 1020.99 -3.42475 2.50821 0
M  V30 11147 C 1018.89 -3.37663 4.85528 0
M  V30 11148 H 1017.82 -0.550084 0.515678 0
M  V30 11149 H 1020.47 -0.771074 1.66513 0
M  V30 11150 H 1018.86 -3.36325 2.09048 0
M  V30 11151 H 1020.03 -1.58297 4.32757 0
M  V30 11152 H 1018.35 -1.57798 3.85342 0
M  V30 11153 H 1020.94 -4.28201 3.20232 0
M  V30 11154 H 1021.29 -3.86738 1.54076 0
M  V30 11155 H 1021.82 -2.77969 2.84567 0
M  V30 11156 H 1018.56 -2.98426 5.83628 0
M  V30 11157 H 1018.08 -4.00734 4.46287 0
M  V30 11158 H 1019.76 -4.03636 5.05655 0
M  V30 11159 N 1019.89 -1.26353 -0.941956 0
M  V30 11160 C 1020.85 -1.07904 -2.02211 0
M  V30 11161 C 1021.85 -0.0276283 -1.60776 0
M  V30 11162 O 1023.04 -0.270965 -1.7208 0
M  V30 11163 C 1020.17 -0.641084 -3.34818 0
M  V30 11164 H 1021.37 -2.03804 -2.20009 0
M  V30 11165 H 1018.92 -1.08939 -1.12081 0
M  V30 11166 H 1019.66 0.319943 -3.22718 0
M  V30 11167 H 1019.44 -1.40027 -3.66244 0
M  V30 11168 H 1020.93 -0.533826 -4.14174 0
M  V30 11169 N 1021.37 1.14642 -1.08144 0
M  V30 11170 C 1022.61 1.85617 -0.809484 0
M  V30 11171 C 1022.94 1.8279 0.664672 0
M  V30 11172 O 1022.2 1.25178 1.50429 0
M  V30 11173 C 1022.5 3.33953 -1.2732 0
M  V30 11174 C 1022.16 3.56969 -2.7547 0
M  V30 11175 C 1020.82 3.6296 -3.15933 0
M  V30 11176 C 1023.18 3.66014 -3.71057 0
M  V30 11177 C 1020.5 3.75515 -4.50783 0
M  V30 11178 C 1022.86 3.80094 -5.05679 0
M  V30 11179 C 1021.52 3.84333 -5.45751 0
M  V30 11180 H 1020.79 0.67922 -0.296211 0
M  V30 11181 H 1023.44 1.35433 -1.35389 0
M  V30 11182 H 1021.74 3.86399 -0.648329 0
M  V30 11183 H 1023.44 3.87291 -1.03957 0
M  V30 11184 H 1020.03 3.52953 -2.4315 0
M  V30 11185 H 1024.21 3.60679 -3.40917 0
M  V30 11186 H 1019.47 3.77057 -4.81288 0
M  V30 11187 H 1023.64 3.86035 -5.79612 0
M  V30 11188 H 1021.27 3.93814 -6.50242 0
M  V30 11189 N 1022.85 0.866709 1.31628 0
M  V30 11190 C 1024.09 0.476731 1.97117 0
M  V30 11191 C 1024.42 -0.967813 1.68366 0
M  V30 11192 O 1023.7 -1.68101 0.978377 0
M  V30 11193 C 1023.98 0.730561 3.52611 0
M  V30 11194 C 1023.84 2.2244 3.90948 0
M  V30 11195 C 1025.15 0.19488 4.39668 0
M  V30 11196 H 1022.27 0.174682 0.715999 0
M  V30 11197 H 1024.92 1.08735 1.5581 0
M  V30 11198 H 1023.07 0.210834 3.87927 0
M  V30 11199 H 1024.74 2.81113 3.6575 0
M  V30 11200 H 1022.98 2.69824 3.39673 0
M  V30 11201 H 1023.65 2.35266 4.99353 0
M  V30 11202 H 1026.13 0.639478 4.11157 0
M  V30 11203 H 1025 0.401958 5.47426 0
M  V30 11204 H 1025.26 -0.90302 4.32779 0
M  V30 11205 N 1024.32 -1.44642 0.625825 0
M  V30 11206 C 1025.57 -2.02094 0.128201 0
M  V30 11207 C 1025.9 -1.49181 -1.24801 0
M  V30 11208 O 1025.15 -0.663965 -1.84092 0
M  V30 11209 C 1025.45 -3.57352 0.0584381 0
M  V30 11210 C 1025.12 -4.29496 1.37272 0
M  V30 11211 C 1023.78 -4.48922 1.7327 0
M  V30 11212 C 1026.13 -4.70586 2.2405 0
M  V30 11213 C 1023.46 -5.06697 2.95762 0
M  V30 11214 C 1025.81 -5.29717 3.45807 0
M  V30 11215 C 1024.48 -5.47363 3.82034 0
M  V30 11216 H 1023.75 -0.739514 0.0469122 0
M  V30 11217 H 1026.39 -1.73475 0.811083 0
M  V30 11218 H 1024.7 -3.85354 -0.707791 0
M  V30 11219 H 1026.4 -3.9953 -0.34303 0
M  V30 11220 H 1022.99 -4.14702 1.08258 0
M  V30 11221 H 1027.17 -4.55295 1.97535 0
M  V30 11222 H 1022.43 -5.18546 3.23913 0
M  V30 11223 H 1026.6 -5.60507 4.13286 0
M  V30 11224 H 1024.23 -5.91898 4.77033 0
M  V30 11225 N 1025.8 -0.366053 -1.5329 0
M  V30 11226 C 1026.75 0.480205 -2.25749 0
M  V30 11227 C 1027.72 1.07713 -1.2644 0
M  V30 11228 O 1028.9 1.10953 -1.55222 0
M  V30 11229 C 1026.04 1.61374 -3.05045 0
M  V30 11230 C 1025.16 1.04194 -4.19246 0
M  V30 11231 C 1024.29 2.14462 -4.85983 0
M  V30 11232 C 1023.33 1.5475 -5.92215 0
M  V30 11233 N 1022.47 2.58852 -6.52641 0
M  V30 11234 H 1027.31 -0.144199 -2.97651 0
M  V30 11235 H 1024.84 -0.0829321 -1.46866 0
M  V30 11236 H 1026.8 2.28144 -3.49294 0
M  V30 11237 H 1025.43 2.2088 -2.35397 0
M  V30 11238 H 1024.48 0.264514 -3.79479 0
M  V30 11239 H 1025.8 0.565379 -4.95585 0
M  V30 11240 H 1024.95 2.89051 -5.33418 0
M  V30 11241 H 1023.69 2.6547 -4.09117 0
M  V30 11242 H 1022.69 0.786759 -5.44142 0
M  V30 11243 H 1023.92 1.04566 -6.71001 0
M  V30 11244 H 1021.87 3.09073 -5.78627 0
M  V30 11245 H 1021.78 2.15884 -7.24521 0
M  V30 11246 H 1023.05 3.33142 -7.04724 0
M  V30 11247 N 1027.28 1.57312 -0.0952337 0
M  V30 11248 C 1028.51 1.98409 0.575984 0
M  V30 11249 C 1028.92 0.973168 1.62253 0
M  V30 11250 O 1028.26 -0.0454416 1.83644 0
M  V30 11251 C 1028.32 3.35877 1.28167 0
M  V30 11252 C 1027.99 4.55368 0.385868 0
M  V30 11253 C 1028.98 5.1861 -0.366041 0
M  V30 11254 C 1026.67 5.0138 0.303885 0
M  V30 11255 C 1028.66 6.26233 -1.18791 0
M  V30 11256 C 1026.35 6.0887 -0.521637 0
M  V30 11257 C 1027.35 6.71161 -1.26618 0
M  V30 11258 O 1027.04 7.76577 -2.07804 0
M  V30 11259 H 1026.77 0.657018 0.159068 0
M  V30 11260 H 1029.32 2.04685 -0.171237 0
M  V30 11261 H 1027.55 3.26284 2.07547 0
M  V30 11262 H 1029.24 3.6142 1.84744 0
M  V30 11263 H 1030.01 4.83993 -0.312435 0
M  V30 11264 H 1025.89 4.52657 0.873065 0
M  V30 11265 H 1029.43 6.74784 -1.76955 0
M  V30 11266 H 1025.33 6.42918 -0.576722 0
M  V30 11267 H 1026.09 7.93566 -2.00489 0
M  V30 11268 N 1028.76 -0.17846 1.56586 0
M  V30 11269 C 1029.71 -1.24042 1.96765 0
M  V30 11270 C 1030.7 -1.46218 0.855375 0
M  V30 11271 O 1031.91 -1.46882 1.04046 0
M  V30 11272 H 1028.28 -0.416807 0.62592 0
M  V30 11273 H 1030.25 -0.874644 2.85294 0
M  V30 11274 C 1029 -2.57394 2.3376 0
M  V30 11275 H 1028.32 -2.41151 3.18883 0
M  V30 11276 H 1029.76 -3.30405 2.65723 0
M  V30 11277 C 1028.22 -3.15621 1.17835 0
M  V30 11278 O 1028.75 -3.99032 0.462202 0
M  V30 11279 N 1026.96 -2.74606 0.950783 0
M  V30 11280 H 1026.51 -2.06878 1.5349 0
M  V30 11281 H 1026.46 -3.13902 0.176967 0
M  V30 11282 N 1030.24 -1.51135 -0.446768 0
M  V30 11283 C 1031.48 -1.62571 -1.19388 0
M  V30 11284 C 1031.8 -0.3432 -1.92566 0
M  V30 11285 O 1033 -0.336804 -2.69403 0
M  V30 11286 C 1031.46 -2.87071 -2.17068 0
M  V30 11287 C 1031.07 -4.22291 -1.49581 0
M  V30 11288 C 1032.81 -3.07862 -2.9227 0
M  V30 11289 C 1030.72 -5.3795 -2.45689 0
M  V30 11290 H 1029.65 -0.60549 -0.449331 0
M  V30 11291 H 1032.3 -1.77593 -0.461846 0
M  V30 11292 H 1030.68 -2.65662 -2.93666 0
M  V30 11293 H 1031.86 -4.54046 -0.786054 0
M  V30 11294 H 1030.17 -4.07302 -0.865677 0
M  V30 11295 H 1032.77 -3.91444 -3.64246 0
M  V30 11296 H 1033.11 -2.20559 -3.53072 0
M  V30 11297 H 1033.64 -3.29566 -2.2278 0
M  V30 11298 H 1030.38 -6.27484 -1.89591 0
M  V30 11299 H 1029.9 -5.10583 -3.14746 0
M  V30 11300 H 1031.58 -5.69517 -3.07017 0
M  V30 11301 N 1031.71 0.701592 -1.41122 0
M  V30 11302 C 1032.96 1.46376 -1.40363 0
M  V30 11303 C 1033.29 1.94197 -0.0105442 0
M  V30 11304 O 1032.57 1.69121 0.960637 0
M  V30 11305 C 1032.85 2.67994 -2.40523 0
M  V30 11306 C 1032.7 2.25977 -3.88914 0
M  V30 11307 C 1034.02 3.70181 -2.38022 0
M  V30 11308 H 1031.14 0.530929 -0.511159 0
M  V30 11309 H 1033.78 0.799588 -1.72356 0
M  V30 11310 H 1031.93 3.24661 -2.13372 0
M  V30 11311 H 1033.61 1.74684 -4.26946 0
M  V30 11312 H 1031.85 1.57826 -4.04071 0
M  V30 11313 H 1032.52 3.13215 -4.54533 0
M  V30 11314 H 1035 3.23174 -2.62103 0
M  V30 11315 H 1033.87 4.52894 -3.10127 0
M  V30 11316 H 1034.13 4.19458 -1.3967 0
M  V30 11317 N 1033.19 1.2685 0.935242 0
M  V30 11318 C 1034.44 1.12132 1.67658 0
M  V30 11319 C 1034.75 -0.333839 1.9273 0
M  V30 11320 O 1035.96 -0.601801 2.64746 0
M  V30 11321 C 1034.42 1.95873 3.0193 0
M  V30 11322 C 1034.02 3.46 2.84584 0
M  V30 11323 C 1035.77 1.89781 3.79715 0
M  V30 11324 C 1033.67 4.21966 4.14365 0
M  V30 11325 H 1032.6 0.416035 0.628833 0
M  V30 11326 H 1035.26 1.51209 1.03962 0
M  V30 11327 H 1033.64 1.49633 3.66641 0
M  V30 11328 H 1034.81 4.00049 2.28687 0
M  V30 11329 H 1033.13 3.53391 2.20236 0
M  V30 11330 H 1035.72 2.43819 4.75875 0
M  V30 11331 H 1036.07 0.869797 4.07112 0
M  V30 11332 H 1036.6 2.33875 3.21788 0
M  V30 11333 H 1033.34 5.2526 3.9215 0
M  V30 11334 H 1032.86 3.72696 4.69955 0
M  V30 11335 H 1034.54 4.30734 4.82781 0
M  V30 11336 N 1034.67 -1.14067 1.0875 0
M  V30 11337 C 1035.9 -1.89041 0.840902 0
M  V30 11338 C 1036.31 -1.78768 -0.60725 0
M  V30 11339 O 1035.67 -1.14945 -1.41753 0
M  V30 11340 C 1035.72 -3.38891 1.25838 0
M  V30 11341 O 1035.44 -3.48886 2.64972 0
M  V30 11342 C 1036.94 -4.30852 1.04315 0
M  V30 11343 H 1034.16 -0.598685 0.303014 0
M  V30 11344 H 1036.71 -1.44438 1.44769 0
M  V30 11345 H 1034.86 -3.81103 0.695627 0
M  V30 11346 H 1035.28 -4.41989 2.82393 0
M  V30 11347 H 1036.75 -5.34353 1.38461 0
M  V30 11348 H 1037.23 -4.39196 -0.0195784 0
M  V30 11349 H 1037.83 -3.944 1.59151 0
M  V30 11350 N 1036.15 -0.873678 -1.31166 0
M  V30 11351 C 1037.38 -0.501043 -2.00742 0
M  V30 11352 C 1037.79 0.907477 -1.65561 0
M  V30 11353 O 1037.15 1.59507 -0.886771 0
M  V30 11354 C 1037.2 -0.652877 -3.55556 0
M  V30 11355 O 1036.92 -2.00593 -3.89479 0
M  V30 11356 C 1038.42 -0.281742 -4.42404 0
M  V30 11357 H 1035.64 -0.194829 -0.642092 0
M  V30 11358 H 1038.19 -1.17587 -1.67313 0
M  V30 11359 H 1036.34 -0.0255627 -3.87392 0
M  V30 11360 H 1036.75 -2.01638 -4.84193 0
M  V30 11361 H 1038.23 -0.43892 -5.50252 0
M  V30 11362 H 1038.71 0.779389 -4.32229 0
M  V30 11363 H 1039.31 -0.88491 -4.15992 0
M  V30 11364 N 1037.63 1.44308 -0.633487 0
M  V30 11365 C 1038.88 2.01239 -0.136356 0
M  V30 11366 C 1039.19 1.50438 1.25011 0
M  V30 11367 O 1040.39 1.99513 1.84138 0
M  V30 11368 C 1038.85 3.59382 -0.193011 0
M  V30 11369 C 1038.46 4.19178 -1.58093 0
M  V30 11370 C 1040.2 4.23778 0.247534 0
M  V30 11371 C 1038.11 5.69553 -1.59258 0
M  V30 11372 H 1037.04 0.752521 -0.0472109 0
M  V30 11373 H 1039.69 1.65498 -0.79263 0
M  V30 11374 H 1038.07 3.92432 0.530408 0
M  V30 11375 H 1039.25 3.97662 -2.32813 0
M  V30 11376 H 1037.56 3.67079 -1.96576 0
M  V30 11377 H 1040.16 5.34075 0.258401 0
M  V30 11378 H 1040.5 3.96285 1.27529 0
M  V30 11379 H 1041.03 3.9554 -0.423469 0
M  V30 11380 H 1037.77 6.01784 -2.59878 0
M  V30 11381 H 1037.29 5.93185 -0.888352 0
M  V30 11382 H 1038.97 6.33234 -1.32756 0
M  V30 11383 N 1039.1 0.374177 1.53094 0
M  V30 11384 C 1040.38 -0.269632 1.93733 0
M  V30 11385 C 1040.76 -1.6566 1.30843 0
M  V30 11386 O 1040.11 -2.23598 0.470759 0
M  V30 11387 C 1040.32 -0.311204 3.4761 0
M  V30 11388 C 1041.67 -0.547432 4.21056 0
M  V30 11389 O 1042.69 -0.392053 3.54036 0
M  V30 11390 O 1041.55 -0.850645 5.39839 0
M  V30 11391 H 1038.64 -0.163723 0.810632 0
M  V30 11392 H 1041.19 0.427586 1.64225 0
M  V30 11393 H 1039.96 0.660897 3.85678 0
M  V30 11394 H 1039.59 -1.05397 3.83376 0
M  V30 11395 N 1040.58 -1.57259 0.103575 0
M  V30 11396 C 1041.51 -2.17509 -0.84923 0
M  V30 11397 C 1042.49 -1.11079 -1.28824 0
M  V30 11398 O 1043.68 -1.39252 -1.35361 0
M  V30 11399 C 1040.81 -2.76221 -2.10522 0
M  V30 11400 C 1039.76 -3.88098 -1.80454 0
M  V30 11401 C 1039.09 -4.33549 -3.12952 0
M  V30 11402 C 1040.39 -5.10909 -1.08486 0
M  V30 11403 H 1042.08 -2.9738 -0.347217 0
M  V30 11404 H 1039.63 -1.43045 -0.165568 0
M  V30 11405 H 1041.58 -3.17024 -2.77621 0
M  V30 11406 H 1040.31 -1.93617 -2.63021 0
M  V30 11407 H 1038.96 -3.47847 -1.15749 0
M  V30 11408 H 1038.61 -3.47825 -3.63355 0
M  V30 11409 H 1038.31 -5.08984 -2.93614 0
M  V30 11410 H 1039.84 -4.76992 -3.81196 0
M  V30 11411 H 1041.25 -5.48828 -1.65711 0
M  V30 11412 H 1039.65 -5.91828 -0.992973 0
M  V30 11413 H 1040.72 -4.84851 -0.0690108 0
M  V30 11414 N 1042.06 0.170153 -1.56679 0
M  V30 11415 C 1042.99 1.23525 -1.93066 0
M  V30 11416 C 1044.01 1.40414 -0.823879 0
M  V30 11417 O 1045.19 1.40396 -1.10232 0
M  V30 11418 C 1042.29 2.60376 -2.16928 0
M  V30 11419 C 1041.47 2.6477 -3.4816 0
M  V30 11420 C 1040.53 3.82993 -3.60837 0
M  V30 11421 O 1039.55 3.68937 -4.33444 0
M  V30 11422 N 1040.75 4.99498 -2.95773 0
M  V30 11423 H 1043.52 0.926172 -2.8503 0
M  V30 11424 H 1041.08 0.359909 -1.57849 0
M  V30 11425 H 1043.07 3.37934 -2.22672 0
M  V30 11426 H 1041.64 2.83669 -1.31342 0
M  V30 11427 H 1040.86 1.73298 -3.54064 0
M  V30 11428 H 1042.15 2.64717 -4.34514 0
M  V30 11429 H 1041.55 5.13819 -2.36657 0
M  V30 11430 H 1040.11 5.74914 -3.07111 0
M  V30 11431 N 1043.54 1.5137 0.438746 0
M  V30 11432 C 1044.49 1.68966 1.53083 0
M  V30 11433 C 1045.47 0.543669 1.51437 0
M  V30 11434 O 1046.66 0.799519 1.57914 0
M  V30 11435 C 1043.79 1.8168 2.91286 0
M  V30 11436 C 1042.88 3.02059 2.97693 0
M  V30 11437 N 1043.27 4.25254 2.73848 0
M  V30 11438 C 1041.57 3.01284 3.28852 0
M  V30 11439 C 1042.27 5.06501 2.86062 0
M  V30 11440 N 1041.25 4.41119 3.17671 0
M  V30 11441 H 1045.05 2.61883 1.33397 0
M  V30 11442 H 1042.56 1.48997 0.64603 0
M  V30 11443 H 1044.56 1.92396 3.6985 0
M  V30 11444 H 1043.22 0.899438 3.11994 0
M  V30 11445 H 1044.23 4.54222 2.48803 0
M  V30 11446 H 1040.91 2.19174 3.55344 0
M  V30 11447 H 1042.3 6.14563 2.71592 0
M  V30 11448 N 1045.02 -0.694098 1.41492 0
M  V30 11449 C 1045.95 -1.82042 1.46229 0
M  V30 11450 C 1046.93 -1.67047 0.320803 0
M  V30 11451 O 1048.11 -1.86758 0.53245 0
M  V30 11452 C 1045.24 -3.2019 1.34519 0
M  V30 11453 C 1044.2 -3.49892 2.46495 0
M  V30 11454 C 1043.52 -4.87411 2.1985 0
M  V30 11455 C 1044.82 -3.4872 3.88834 0
M  V30 11456 H 1046.52 -1.78335 2.40493 0
M  V30 11457 H 1044.06 -0.856566 1.15754 0
M  V30 11458 H 1046.02 -3.98699 1.36445 0
M  V30 11459 H 1044.74 -3.24527 0.367406 0
M  V30 11460 H 1043.4 -2.73734 2.43854 0
M  V30 11461 H 1043.05 -4.88375 1.20411 0
M  V30 11462 H 1042.75 -5.08248 2.94885 0
M  V30 11463 H 1044.27 -5.68228 2.23494 0
M  V30 11464 H 1045.68 -4.1723 3.93182 0
M  V30 11465 H 1044.08 -3.81089 4.63564 0
M  V30 11466 H 1045.15 -2.47665 4.16881 0
M  V30 11467 N 1046.49 -1.27344 -0.928501 0
M  V30 11468 C 1047.73 -1.14871 -1.69068 0
M  V30 11469 C 1048.1 0.300603 -1.89632 0
M  V30 11470 O 1049.3 0.547743 -2.6316 0
M  V30 11471 C 1047.57 -1.90992 -3.02087 0
M  V30 11472 S 1049.13 -1.94722 -3.93229 0
M  V30 11473 H 1045.95 -0.410095 -0.580812 0
M  V30 11474 H 1048.55 -1.61242 -1.1055 0
M  V30 11475 H 1047.25 -2.95484 -2.84811 0
M  V30 11476 H 1046.78 -1.45112 -3.65658 0
M  V30 11477 H 1048.8 -1.04306 -4.85113 0
M  V30 11478 N 1047.97 1.13488 -1.09353 0
M  V30 11479 C 1049.2 1.88592 -0.850915 0
M  V30 11480 C 1049.62 1.79087 0.597761 0
M  V30 11481 O 1048.97 1.15695 1.41142 0
M  V30 11482 C 1049.02 3.38219 -1.27633 0
M  V30 11483 O 1048.74 3.47476 -2.66819 0
M  V30 11484 C 1050.25 4.30293 -1.06598 0
M  V30 11485 H 1047.47 0.597069 -0.306185 0
M  V30 11486 H 1050.01 1.43668 -1.45533 0
M  V30 11487 H 1048.16 3.80729 -0.715828 0
M  V30 11488 H 1048.58 4.40485 -2.84733 0
M  V30 11489 H 1050.05 5.33611 -1.41293 0
M  V30 11490 H 1050.53 4.392 -0.0037135 0
M  V30 11491 H 1051.14 3.9355 -1.6124 0
M  V30 11492 N 1049.45 0.880621 1.30701 0
M  V30 11493 C 1050.68 0.511682 2.00473 0
M  V30 11494 C 1051.09 -0.898684 1.6604 0
M  V30 11495 O 1050.45 -1.59035 0.895218 0
M  V30 11496 C 1050.5 0.671723 3.55204 0
M  V30 11497 O 1050.22 2.02656 3.8841 0
M  V30 11498 C 1051.72 0.3052 4.42248 0
M  V30 11499 H 1048.94 0.198231 0.64105 0
M  V30 11500 H 1051.49 1.18472 1.66687 0
M  V30 11501 H 1049.64 0.0461066 3.87373 0
M  V30 11502 H 1050.06 2.04202 4.83117 0
M  V30 11503 H 1051.53 0.468095 5.50012 0
M  V30 11504 H 1052.01 -0.756456 4.32637 0
M  V30 11505 H 1052.61 0.906959 4.15517 0
M  V30 11506 N 1050.93 -1.4397 0.641131 0
M  V30 11507 C 1051.88 -2.2786 -0.079879 0
M  V30 11508 C 1052.86 -1.39227 -0.80651 0
M  V30 11509 O 1054.06 -1.62956 -0.690969 0
M  V30 11510 C 1051.18 -3.26722 -1.05394 0
M  V30 11511 C 1050.27 -4.22842 -0.326411 0
M  V30 11512 N 1050.66 -5.016 0.650464 0
M  V30 11513 C 1048.96 -4.42349 -0.569507 0
M  V30 11514 C 1049.66 -5.71563 1.08121 0
M  V30 11515 N 1048.64 -5.41991 0.417932 0
M  V30 11516 H 1052.44 -2.86163 0.669906 0
M  V30 11517 H 1049.95 -1.55528 0.467433 0
M  V30 11518 H 1051.95 -3.85588 -1.58517 0
M  V30 11519 H 1050.61 -2.69979 -1.80392 0
M  V30 11520 H 1051.62 -5.07581 1.0287 0
M  V30 11521 H 1048.3 -3.96693 -1.30159 0
M  V30 11522 H 1049.69 -6.44805 1.88883 0
M  V30 11523 N 1052.41 -0.382291 -1.52893 0
M  V30 11524 C 1053.32 0.463745 -2.29971 0
M  V30 11525 C 1054.33 1.07777 -1.36602 0
M  V30 11526 O 1055.51 1.0851 -1.69669 0
M  V30 11527 C 1052.57 1.57938 -3.08637 0
M  V30 11528 C 1051.64 0.991182 -4.17701 0
M  V30 11529 C 1050.87 2.05365 -4.92606 0
M  V30 11530 O 1051.09 3.26757 -4.67532 0
M  V30 11531 O 1050.03 1.67487 -5.78128 0
M  V30 11532 H 1053.85 -0.163962 -3.03257 0
M  V30 11533 H 1051.44 -0.146199 -1.48683 0
M  V30 11534 H 1053.32 2.22765 -3.57706 0
M  V30 11535 H 1051.99 2.19218 -2.3817 0
M  V30 11536 H 1050.9 0.306364 -3.72843 0
M  V30 11537 H 1052.23 0.422699 -4.90382 0
M  V30 11538 N 1053.89 1.57202 -0.111913 0
M  V30 11539 C 1055.12 1.99008 0.554907 0
M  V30 11540 C 1055.52 0.990323 1.61212 0
M  V30 11541 O 1054.87 -0.0259612 1.83682 0
M  V30 11542 C 1054.93 3.37218 1.24598 0
M  V30 11543 C 1054.59 4.55752 0.337549 0
M  V30 11544 C 1055.59 5.18192 -0.421026 0
M  V30 11545 C 1053.27 5.01674 0.25069 0
M  V30 11546 C 1055.27 6.24938 -1.25426 0
M  V30 11547 C 1052.96 6.08282 -0.586186 0
M  V30 11548 C 1053.95 6.6978 -1.3373 0
M  V30 11549 O 1053.64 7.7433 -2.16029 0
M  V30 11550 H 1053.37 0.658669 0.152091 0
M  V30 11551 H 1055.93 2.04492 -0.192937 0
M  V30 11552 H 1054.16 3.28467 2.04074 0
M  V30 11553 H 1055.85 3.63359 1.809 0
M  V30 11554 H 1056.61 4.83634 -0.363752 0
M  V30 11555 H 1052.49 4.53558 0.825005 0
M  V30 11556 H 1056.04 6.72869 -1.84102 0
M  V30 11557 H 1051.93 6.42271 -0.64488 0
M  V30 11558 H 1052.7 7.91395 -2.08894 0
M  V30 11559 N 1055.36 -0.161842 1.56767 0
M  V30 11560 C 1056.61 -0.875278 1.81719 0
M  V30 11561 C 1056.93 -1.82998 0.690739 0
M  V30 11562 O 1058.13 -2.58648 0.82545 0
M  V30 11563 C 1056.59 -1.60703 3.22029 0
M  V30 11564 C 1056.2 -0.695486 4.42569 0
M  V30 11565 C 1057.94 -2.30813 3.56266 0
M  V30 11566 C 1055.85 -1.42801 5.73901 0
M  V30 11567 H 1054.78 -0.330591 0.677662 0
M  V30 11568 H 1057.43 -0.128112 1.83052 0
M  V30 11569 H 1055.81 -2.39929 3.1504 0
M  V30 11570 H 1056.98 0.0604882 4.6076 0
M  V30 11571 H 1055.3 -0.10356 4.16271 0
M  V30 11572 H 1057.9 -2.86229 4.51638 0
M  V30 11573 H 1058.24 -3.06603 2.81604 0
M  V30 11574 H 1058.77 -1.5852 3.64851 0
M  V30 11575 H 1055.51 -0.712253 6.51619 0
M  V30 11576 H 1055.03 -2.15707 5.5967 0
M  V30 11577 H 1056.71 -1.97295 6.16185 0
M  V30 11578 N 1056.84 -1.516 -0.430713 0
M  V30 11579 C 1058.26 -1.39923 -0.767706 0
M  V30 11580 C 1058.46 -0.486756 -1.95532 0
M  V30 11581 O 1057.51 0.0555965 -2.52439 0
M  V30 11582 C 1058.83 -2.82074 -1.04187 0
M  V30 11583 C 1060.37 -2.9127 -1.1459 0
M  V30 11584 C 1060.85 -4.34342 -1.45295 0
M  V30 11585 N 1062.34 -4.37479 -1.52206 0
M  V30 11586 C 1063.08 -5.45219 -1.77549 0
M  V30 11587 N 1062.57 -6.6311 -2.0064 0
M  V30 11588 N 1064.36 -5.32707 -1.79386 0
M  V30 11589 H 1056.52 -2.09474 0.351351 0
M  V30 11590 H 1058.78 -0.943247 0.0948151 0
M  V30 11591 H 1058.48 -3.50868 -0.241837 0
M  V30 11592 H 1058.36 -3.21805 -1.96777 0
M  V30 11593 H 1060.75 -2.2267 -1.93655 0
M  V30 11594 H 1060.83 -2.55026 -0.198854 0
M  V30 11595 H 1060.47 -5.03494 -0.667559 0
M  V30 11596 H 1060.4 -4.68105 -2.41217 0
M  V30 11597 H 1062.89 -3.52488 -1.36237 0
M  V30 11598 H 1063.2 -7.41012 -2.19366 0
M  V30 11599 H 1061.55 -6.66214 -1.97948 0
M  V30 11600 H 1064.74 -4.39589 -1.60869 0
M  V30 11601 H 1064.91 -6.16752 -1.98799 0
M  V30 11602 N 1058.32 0.686584 -1.41858 0
M  V30 11603 C 1059.57 1.44235 -1.40994 0
M  V30 11604 C 1059.88 1.95583 -0.0254979 0
M  V30 11605 O 1061.09 2.71294 0.10576 0
M  V30 11606 C 1059.54 2.6086 -2.47952 0
M  V30 11607 C 1059.15 2.16259 -3.92347 0
M  V30 11608 C 1060.9 3.38441 -2.56237 0
M  V30 11609 C 1058.8 3.29896 -4.90838 0
M  V30 11610 H 1057.73 0.54181 -0.524364 0
M  V30 11611 H 1060.38 0.744486 -1.67719 0
M  V30 11612 H 1058.77 3.32957 -2.14373 0
M  V30 11613 H 1059.94 1.51392 -4.35221 0
M  V30 11614 H 1058.25 1.51648 -3.87804 0
M  V30 11615 H 1060.85 4.23052 -3.27003 0
M  V30 11616 H 1061.19 3.84238 -1.6021 0
M  V30 11617 H 1061.73 2.73406 -2.88953 0
M  V30 11618 H 1058.47 2.89104 -5.88302 0
M  V30 11619 H 1057.99 3.93584 -4.52606 0
M  V30 11620 H 1059.67 3.95541 -5.12012 0
M  V30 11621 N 1059.8 1.27835 0.921735 0
M  V30 11622 C 1060.74 1.11075 2.02314 0
M  V30 11623 C 1061.71 0.0101195 1.66097 0
M  V30 11624 O 1062.9 0.173564 1.90009 0
M  V30 11625 C 1060.04 0.770251 3.36394 0
M  V30 11626 C 1059.15 1.94912 3.8553 0
M  V30 11627 C 1058.29 1.54996 5.08084 0
M  V30 11628 C 1057.33 2.69595 5.49531 0
M  V30 11629 N 1056.46 2.30227 6.6328 0
M  V30 11630 H 1061.3 2.05319 2.15982 0
M  V30 11631 H 1058.84 1.022 1.058 0
M  V30 11632 H 1060.8 0.553624 4.1351 0
M  V30 11633 H 1059.43 -0.135238 3.22517 0
M  V30 11634 H 1058.48 2.27811 3.04641 0
M  V30 11635 H 1059.79 2.80858 4.12214 0
M  V30 11636 H 1058.95 1.29493 5.9272 0
M  V30 11637 H 1057.69 0.661676 4.83191 0
M  V30 11638 H 1056.69 2.95806 4.63442 0
M  V30 11639 H 1057.92 3.59054 5.76417 0
M  V30 11640 H 1055.86 1.43858 6.40032 0
M  V30 11641 H 1055.78 3.09711 6.89649 0
M  V30 11642 H 1057.05 2.07987 7.5124 0
M  V30 11643 N 1061.28 -1.12907 1.09954 0
M  V30 11644 C 1062.5 -1.88679 0.861099 0
M  V30 11645 C 1062.93 -1.78853 -0.582499 0
M  V30 11646 O 1062.28 -1.13992 -1.4098 0
M  V30 11647 C 1062.33 -3.36047 1.30785 0
M  V30 11648 O 1061.44 -4.09716 0.469728 0
M  V30 11649 H 1060.78 -0.586447 0.31141 0
M  V30 11650 H 1063.31 -1.42818 1.46507 0
M  V30 11651 H 1063.32 -3.86882 1.29562 0
M  V30 11652 H 1061.99 -3.42516 2.35914 0
M  V30 11653 H 1060.57 -3.6887 0.54674 0
M  V30 11654 N 1062.75 -0.88754 -1.30232 0
M  V30 11655 C 1064 -0.506277 -1.95656 0
M  V30 11656 C 1064.32 0.948191 -1.70395 0
M  V30 11657 O 1063.59 1.66701 -1.02895 0
M  V30 11658 H 1062.17 -0.184235 -0.723924 0
M  V30 11659 H 1064.83 -1.13118 -1.58715 0
M  V30 11660 H 1063.93 -0.678673 -3.04632 0
M  V30 11661 N 1064.23 1.43628 -0.648757 0
M  V30 11662 C 1065.48 2.01083 -0.157692 0
M  V30 11663 C 1065.79 1.51756 1.23408 0
M  V30 11664 O 1067 2.01455 1.82012 0
M  V30 11665 C 1065.46 3.59157 -0.231118 0
M  V30 11666 C 1065.06 4.17478 -1.6253 0
M  V30 11667 C 1066.81 4.24016 0.202573 0
M  V30 11668 C 1064.72 5.67832 -1.6529 0
M  V30 11669 H 1063.65 0.751977 -0.0551897 0
M  V30 11670 H 1066.3 1.64648 -0.810139 0
M  V30 11671 H 1064.68 3.92972 0.488755 0
M  V30 11672 H 1065.85 3.9517 -2.37017 0
M  V30 11673 H 1064.17 3.64973 -2.00459 0
M  V30 11674 H 1066.76 5.34319 0.20174 0
M  V30 11675 H 1067.11 3.97616 1.23319 0
M  V30 11676 H 1067.64 3.95068 -0.465398 0
M  V30 11677 H 1064.38 5.98994 -2.66246 0
M  V30 11678 H 1063.9 5.92209 -0.951217 0
M  V30 11679 H 1065.58 6.3179 -1.39465 0
M  V30 11680 N 1065.71 0.390394 1.52688 0
M  V30 11681 C 1066.96 -0.184195 2.02564 0
M  V30 11682 C 1067.31 -1.44379 1.27171 0
M  V30 11683 O 1066.6 -1.88112 0.36395 0
M  V30 11684 C 1066.8 -0.50468 3.53819 0
M  V30 11685 C 1066.63 0.722304 4.43861 0
M  V30 11686 C 1065.4 1.24189 4.89801 0
M  V30 11687 C 1067.6 1.59494 4.88944 0
M  V30 11688 N 1065.58 2.42631 5.63918 0
M  V30 11689 C 1066.95 2.62577 5.61652 0
M  V30 11690 C 1069 1.61491 4.70983 0
M  V30 11691 C 1067.71 3.67544 6.18307 0
M  V30 11692 C 1069.73 2.65365 5.28522 0
M  V30 11693 C 1069.09 3.6717 6.01137 0
M  V30 11694 H 1065.19 -0.0294605 0.781445 0
M  V30 11695 H 1067.78 0.54053 1.87046 0
M  V30 11696 H 1065.95 -1.19846 3.69448 0
M  V30 11697 H 1067.68 -1.06652 3.90394 0
M  V30 11698 H 1064.44 0.802731 4.66747 0
M  V30 11699 H 1064.86 3.02564 6.05627 0
M  V30 11700 H 1069.5 0.841291 4.14345 0
M  V30 11701 H 1067.22 4.45773 6.74027 0
M  V30 11702 H 1070.81 2.67795 5.16505 0
M  V30 11703 H 1069.69 4.46228 6.44864 0
M  V30 11704 N 1067.19 -1.57141 0.120249 0
M  V30 11705 C 1068.47 -1.8677 -0.581075 0
M  V30 11706 C 1068.85 -1.02163 -1.84732 0
M  V30 11707 O 1068.19 -0.100897 -2.28277 0
M  V30 11708 C 1068.4 -3.37923 -0.872316 0
M  V30 11709 C 1069.75 -4.0655 -1.22483 0
M  V30 11710 O 1070.78 -3.42948 -0.962539 0
M  V30 11711 O 1069.63 -5.18821 -1.71717 0
M  V30 11712 H 1066.73 -0.773219 -0.293362 0
M  V30 11713 H 1069.27 -1.68992 0.154846 0
M  V30 11714 H 1068.05 -3.91292 0.0249416 0
M  V30 11715 H 1067.67 -3.61135 -1.66335 0
M  V30 11716 N 1068.67 0.153526 -1.5685 0
M  V30 11717 C 1069.58 1.20932 -2.01029 0
M  V30 11718 C 1070.59 1.47401 -0.924598 0
M  V30 11719 O 1071.77 1.592 -1.23359 0
M  V30 11720 C 1068.83 2.52438 -2.37647 0
M  V30 11721 C 1067.89 2.33673 -3.60132 0
M  V30 11722 C 1067.13 3.58909 -3.94994 0
M  V30 11723 O 1067.35 4.64823 -3.30599 0
M  V30 11724 O 1066.28 3.5196 -4.8827 0
M  V30 11725 H 1070.11 0.864273 -2.91143 0
M  V30 11726 H 1067.7 0.361755 -1.44954 0
M  V30 11727 H 1069.58 3.29981 -2.62088 0
M  V30 11728 H 1068.25 2.86486 -1.5069 0
M  V30 11729 H 1067.16 1.54102 -3.40886 0
M  V30 11730 H 1068.49 2.04544 -4.47686 0
M  V30 11731 N 1070.14 1.51827 0.422667 0
M  V30 11732 C 1071.56 1.40328 0.760275 0
M  V30 11733 C 1071.76 0.497119 1.95272 0
M  V30 11734 O 1070.82 -0.0422083 2.52465 0
M  V30 11735 C 1072.13 2.82622 1.02689 0
M  V30 11736 C 1073.68 2.91874 1.13044 0
M  V30 11737 C 1074.15 4.35107 1.4299 0
M  V30 11738 N 1075.64 4.3828 1.49883 0
M  V30 11739 C 1076.38 5.46153 1.74655 0
M  V30 11740 N 1075.87 6.64165 1.9712 0
M  V30 11741 N 1077.67 5.33651 1.76558 0
M  V30 11742 H 1069.82 2.09285 -0.362455 0
M  V30 11743 H 1072.08 0.94273 -0.0998161 0
M  V30 11744 H 1071.79 3.50991 0.223226 0
M  V30 11745 H 1071.66 3.22844 1.95068 0
M  V30 11746 H 1074.05 2.23694 1.92471 0
M  V30 11747 H 1074.13 2.55128 0.185326 0
M  V30 11748 H 1073.77 5.03841 0.640848 0
M  V30 11749 H 1073.7 4.69377 2.38731 0
M  V30 11750 H 1076.19 3.53206 1.34366 0
M  V30 11751 H 1076.51 7.42165 2.15434 0
M  V30 11752 H 1074.85 6.67255 1.94413 0
M  V30 11753 H 1078.04 4.40436 1.58536 0
M  V30 11754 H 1078.22 6.17798 1.95525 0
M  V30 11755 N 1071.62 -0.679052 1.4222 0
M  V30 11756 C 1072.57 -1.79269 1.45366 0
M  V30 11757 C 1073.54 -1.63255 0.306089 0
M  V30 11758 O 1074.72 -1.8387 0.509548 0
M  V30 11759 C 1071.86 -3.17272 1.35766 0
M  V30 11760 C 1070.98 -3.44603 2.60525 0
M  V30 11761 C 1070.11 -4.7231 2.43098 0
M  V30 11762 C 1069.15 -4.92661 3.63251 0
M  V30 11763 N 1068.29 -6.11606 3.44794 0
M  V30 11764 H 1073.13 -1.75916 2.40536 0
M  V30 11765 H 1070.67 -0.858836 1.19425 0
M  V30 11766 H 1072.62 -3.97015 1.282 0
M  V30 11767 H 1071.25 -3.1976 0.441939 0
M  V30 11768 H 1070.31 -2.59144 2.78475 0
M  V30 11769 H 1071.62 -3.55536 3.49851 0
M  V30 11770 H 1070.77 -5.60136 2.33093 0
M  V30 11771 H 1069.51 -4.63652 1.51255 0
M  V30 11772 H 1068.52 -4.03278 3.73693 0
M  V30 11773 H 1069.74 -5.03167 4.5607 0
M  V30 11774 H 1067.69 -6.04129 2.55663 0
M  V30 11775 H 1067.6 -6.23381 4.27705 0
M  V30 11776 H 1068.87 -7.02122 3.38592 0
M  V30 11777 N 1073.1 -1.28322 -0.914942 0
M  V30 11778 C 1074.05 -1.12003 -2.03858 0
M  V30 11779 C 1075.04 -0.0396287 -1.69354 0
M  V30 11780 O 1076.25 -0.198309 -1.78904 0
M  V30 11781 H 1072.62 -0.34552 -0.667922 0
M  V30 11782 H 1074.59 -2.07168 -2.14765 0
M  V30 11783 C 1073.34 -0.797402 -3.38433 0
M  V30 11784 H 1072.67 -1.62071 -3.65476 0
M  V30 11785 H 1074.11 -0.723165 -4.17787 0
M  V30 11786 C 1072.57 0.498807 -3.33187 0
M  V30 11787 O 1073.1 1.52946 -3.71444 0
M  V30 11788 N 1071.3 0.499101 -2.86282 0
M  V30 11789 H 1070.85 -0.340056 -2.55346 0
M  V30 11790 H 1070.81 1.36641 -2.83155 0
M  V30 11791 N 1074.58 1.12322 -1.10551 0
M  V30 11792 C 1075.53 2.20166 -0.750317 0
M  V30 11793 C 1076.52 1.67484 0.254066 0
M  V30 11794 O 1077.73 1.79637 0.114309 0
M  V30 11795 H 1074.1 0.717642 -0.22471 0
M  V30 11796 H 1076.07 2.47378 -1.66873 0
M  V30 11797 C 1074.82 3.47126 -0.199651 0
M  V30 11798 H 1074.14 3.88011 -0.963735 0
M  V30 11799 H 1075.58 4.23999 0.0108033 0
M  V30 11800 C 1074.04 3.19526 1.06792 0
M  V30 11801 O 1074.57 3.39368 2.14923 0
M  V30 11802 N 1072.78 2.73324 0.987032 0
M  V30 11803 H 1072.33 2.57378 0.106997 0
M  V30 11804 H 1072.28 2.55234 1.83584 0
M  V30 11805 N 1076.06 0.894434 1.2976 0
M  V30 11806 C 1077 0.357958 2.29829 0
M  V30 11807 C 1078 -0.540093 1.6056 0
M  V30 11808 O 1079.2 -0.423478 1.74948 0
M  V30 11809 H 1075.58 0.0971183 0.745702 0
M  V30 11810 H 1077.55 1.21542 2.72526 0
M  V30 11811 C 1076.3 -0.404126 3.45343 0
M  V30 11812 H 1075.62 0.277671 3.98835 0
M  V30 11813 H 1077.06 -0.744446 4.17413 0
M  V30 11814 C 1075.52 -1.6048 2.96222 0
M  V30 11815 O 1076.05 -2.70414 2.97051 0
M  V30 11816 N 1074.26 -1.44517 2.52117 0
M  V30 11817 H 1073.8 -0.55082 2.51642 0
M  V30 11818 H 1073.76 -2.24987 2.1961 0
M  V30 11819 N 1077.53 -1.43282 0.656365 0
M  V30 11820 C 1078.76 -2.06641 0.177245 0
M  V30 11821 C 1079.18 -1.48893 -1.14946 0
M  V30 11822 O 1078.54 -0.600099 -1.7108 0
M  V30 11823 C 1078.59 -3.60453 0.10299 0
M  V30 11824 O 1077.69 -4.01687 -0.933895 0
M  V30 11825 H 1077.04 -0.656978 0.096314 0
M  V30 11826 H 1079.57 -1.83733 0.900178 0
M  V30 11827 H 1079.58 -4.07923 -0.079291 0
M  V30 11828 H 1078.25 -4.01861 1.07147 0
M  V30 11829 H 1076.83 -3.65801 -0.724148 0
M  V30 11830 N 1079.01 -0.398486 -1.52479 0
M  V30 11831 C 1079.96 0.447001 -2.28264 0
M  V30 11832 C 1080.96 1.05511 -1.32529 0
M  V30 11833 O 1082.16 0.994528 -1.5003 0
M  V30 11834 H 1078.54 0.162919 -0.73414 0
M  V30 11835 H 1080.51 -0.213534 -2.97635 0
M  V30 11836 C 1079.26 1.55724 -3.10879 0
M  V30 11837 H 1078.58 1.09864 -3.84409 0
M  V30 11838 H 1080.02 2.12286 -3.67029 0
M  V30 11839 C 1078.48 2.51853 -2.23768 0
M  V30 11840 O 1079.01 3.55483 -1.87069 0
M  V30 11841 N 1077.21 2.2181 -1.87746 0
M  V30 11842 H 1076.76 1.3757 -2.17789 0
M  V30 11843 H 1076.72 2.86376 -1.29753 0
M  V30 11844 N 1080.49 1.57075 -0.12858 0
M  V30 11845 C 1081.74 1.9581 0.527868 0
M  V30 11846 C 1082.07 1.01253 1.65715 0
M  V30 11847 O 1081.35 0.0514853 1.94432 0
M  V30 11848 C 1081.63 3.44406 1.05151 0
M  V30 11849 C 1081.48 4.49737 -0.0750113 0
M  V30 11850 C 1082.8 3.95069 1.9393 0
M  V30 11851 H 1079.92 0.711978 0.19041 0
M  V30 11852 H 1082.56 1.88879 -0.206081 0
M  V30 11853 H 1080.71 3.50443 1.67697 0
M  V30 11854 H 1082.38 4.55793 -0.710685 0
M  V30 11855 H 1080.63 4.27497 -0.736809 0
M  V30 11856 H 1081.3 5.50996 0.332779 0
M  V30 11857 H 1083.77 3.91395 1.41241 0
M  V30 11858 H 1082.65 4.99542 2.27484 0
M  V30 11859 H 1082.91 3.36329 2.86941 0
M  V30 11860 N 1081.97 -0.145205 1.5693 0
M  V30 11861 C 1083.22 -0.857516 1.83447 0
M  V30 11862 C 1083.54 -1.81088 0.709739 0
M  V30 11863 O 1082.8 -1.9337 -0.301097 0
M  V30 11864 C 1083.1 -1.66391 3.16305 0
M  V30 11865 C 1082.76 -0.857171 4.42678 0
M  V30 11866 C 1081.43 -0.634611 4.76997 0
M  V30 11867 C 1083.78 -0.293105 5.20375 0
M  V30 11868 C 1081.11 0.162693 5.86474 0
M  V30 11869 C 1083.46 0.491248 6.3069 0
M  V30 11870 C 1082.12 0.724368 6.63558 0
M  V30 11871 H 1081.39 -0.313787 0.671281 0
M  V30 11872 H 1084.04 -0.121074 1.91117 0
M  V30 11873 H 1082.34 -2.47051 3.04094 0
M  V30 11874 H 1084.04 -2.21855 3.34038 0
M  V30 11875 H 1080.63 -1.0407 4.15773 0
M  V30 11876 H 1084.82 -0.452326 4.94234 0
M  V30 11877 H 1080.07 0.352788 6.10381 0
M  V30 11878 H 1084.25 0.935449 6.90089 0
M  V30 11879 H 1081.87 1.34403 7.48224 0
M  V30 11880 N 1083.45 -1.52049 -0.414609 0
M  V30 11881 C 1084.7 -1.65067 -1.15912 0
M  V30 11882 C 1085.01 -0.383969 -1.91794 0
M  V30 11883 O 1086.22 -0.393872 -2.68628 0
M  V30 11884 C 1084.67 -2.91611 -2.1093 0
M  V30 11885 C 1084.28 -4.25369 -1.4059 0
M  V30 11886 C 1086.02 -3.13992 -2.85674 0
M  V30 11887 C 1083.93 -5.43041 -2.34223 0
M  V30 11888 H 1082.86 -0.614884 -0.436387 0
M  V30 11889 H 1085.51 -1.78533 -0.424072 0
M  V30 11890 H 1083.89 -2.71831 -2.87965 0
M  V30 11891 H 1085.07 -4.55611 -0.689568 0
M  V30 11892 H 1083.38 -4.09047 -0.779088 0
M  V30 11893 H 1085.98 -3.99082 -3.55861 0
M  V30 11894 H 1086.32 -2.27998 -3.48314 0
M  V30 11895 H 1086.86 -3.34217 -2.1574 0
M  V30 11896 H 1083.59 -6.31364 -1.76238 0
M  V30 11897 H 1083.11 -5.17144 -3.03845 0
M  V30 11898 H 1084.79 -5.75901 -2.94868 0
M  V30 11899 N 1084.93 0.6715 -1.42579 0
M  V30 11900 C 1086.16 1.4576 -1.46416 0
M  V30 11901 C 1086.56 1.89051 -0.0749843 0
M  V30 11902 O 1085.91 1.58927 0.921296 0
M  V30 11903 C 1085.97 2.7365 -2.33144 0
M  V30 11904 C 1085.63 2.52414 -3.80968 0
M  V30 11905 C 1086.63 2.16804 -4.72538 0
M  V30 11906 C 1084.31 2.67306 -4.25268 0
M  V30 11907 C 1086.31 1.96358 -6.06401 0
M  V30 11908 C 1084 2.46475 -5.5919 0
M  V30 11909 C 1084.99 2.11055 -6.49573 0
M  V30 11910 O 1084.68 1.90428 -7.8102 0
M  V30 11911 H 1084.41 0.454896 -0.500045 0
M  V30 11912 H 1086.97 0.832198 -1.87786 0
M  V30 11913 H 1085.2 3.38684 -1.86629 0
M  V30 11914 H 1086.89 3.35543 -2.28398 0
M  V30 11915 H 1087.65 2.04891 -4.39596 0
M  V30 11916 H 1083.53 2.93854 -3.55206 0
M  V30 11917 H 1087.08 1.68634 -6.76911 0
M  V30 11918 H 1082.97 2.57985 -5.91704 0
M  V30 11919 H 1083.74 2.05 -7.92412 0
M  V30 11920 N 1086.4 1.28806 0.908124 0
M  V30 11921 C 1087.35 1.13083 2.03261 0
M  V30 11922 C 1088.35 0.0486094 1.6933 0
M  V30 11923 O 1089.55 0.207794 1.78797 0
M  V30 11924 H 1085.93 0.349057 0.666081 0
M  V30 11925 H 1087.9 2.08304 2.13663 0
M  V30 11926 C 1086.65 0.815339 3.38005 0
M  V30 11927 H 1085.97 1.64007 3.64612 0
M  V30 11928 H 1087.41 0.745311 4.17398 0
M  V30 11929 C 1085.87 -0.48113 3.33447 0
M  V30 11930 O 1086.4 -1.50974 3.7225 0
M  V30 11931 N 1084.6 -0.483912 2.86543 0
M  V30 11932 H 1084.15 0.353593 2.55162 0
M  V30 11933 H 1084.11 -1.35138 2.83875 0
M  V30 11934 N 1087.88 -1.11734 1.11145 0
M  V30 11935 C 1089.11 -1.87215 0.880811 0
M  V30 11936 C 1089.52 -1.80016 -0.569195 0
M  V30 11937 O 1088.88 -1.17926 -1.39283 0
M  V30 11938 C 1088.93 -3.36146 1.32998 0
M  V30 11939 O 1088.65 -3.43187 2.72313 0
M  V30 11940 C 1090.15 -4.28542 1.1343 0
M  V30 11941 H 1087.37 -0.592123 0.315645 0
M  V30 11942 H 1089.92 -1.41335 1.478 0
M  V30 11943 H 1088.07 -3.79542 0.776308 0
M  V30 11944 H 1088.49 -4.359 2.91705 0
M  V30 11945 H 1089.96 -5.31295 1.49764 0
M  V30 11946 H 1090.44 -4.39138 0.0735859 0
M  V30 11947 H 1091.04 -3.90935 1.67481 0
M  V30 11948 N 1089.36 -0.901303 -1.29284 0
M  V30 11949 C 1090.29 -0.396909 -2.30102 0
M  V30 11950 C 1091.27 0.528919 -1.61668 0
M  V30 11951 O 1092.46 0.439306 -1.89166 0
M  V30 11952 C 1089.59 0.375006 -3.45269 0
M  V30 11953 C 1088.54 -0.46054 -4.25515 0
M  V30 11954 C 1087.87 0.438967 -5.32895 0
M  V30 11955 C 1089.17 -1.7113 -4.93469 0
M  V30 11956 H 1090.86 -1.23943 -2.72541 0
M  V30 11957 H 1088.41 -0.597428 -1.31022 0
M  V30 11958 H 1090.36 0.738622 -4.14876 0
M  V30 11959 H 1089.08 1.25132 -3.01678 0
M  V30 11960 H 1087.74 -0.80651 -3.57618 0
M  V30 11961 H 1087.39 1.31346 -4.85548 0
M  V30 11962 H 1087.09 -0.116406 -5.87485 0
M  V30 11963 H 1088.61 0.79874 -6.05353 0
M  V30 11964 H 1090.03 -1.41732 -5.55504 0
M  V30 11965 H 1088.42 -2.20811 -5.57999 0
M  V30 11966 H 1089.49 -2.44636 -4.18666 0
M  V30 11967 N 1090.84 1.42931 -0.663954 0
M  V30 11968 C 1092.06 2.06544 -0.188201 0
M  V30 11969 C 1092.49 1.495 1.14155 0
M  V30 11970 O 1091.85 0.609164 1.7076 0
M  V30 11971 C 1091.89 3.60393 -0.122105 0
M  V30 11972 O 1091 4.02176 0.91258 0
M  V30 11973 H 1090.34 0.656458 -0.0997967 0
M  V30 11974 H 1092.87 1.83253 -0.909909 0
M  V30 11975 H 1092.88 4.07959 0.0576568 0
M  V30 11976 H 1091.55 4.01287 -1.09276 0
M  V30 11977 H 1090.13 3.6618 0.704738 0
M  V30 11978 N 1092.32 0.406567 1.52266 0
M  V30 11979 C 1093.27 -0.437483 2.23763 0
M  V30 11980 C 1094.25 -1.01557 1.248 0
M  V30 11981 O 1095.44 -0.938813 1.50051 0
M  V30 11982 C 1092.57 -1.55499 3.06064 0
M  V30 11983 C 1091.66 -0.987799 4.12436 0
M  V30 11984 N 1092.05 -0.147044 5.05586 0
M  V30 11985 C 1090.35 -1.25857 4.27874 0
M  V30 11986 C 1091.05 0.168229 5.81457 0
M  V30 11987 N 1090.02 -0.440245 5.41814 0
M  V30 11988 H 1093.82 0.211203 2.9314 0
M  V30 11989 H 1091.34 0.216843 1.60946 0
M  V30 11990 H 1093.34 -2.17224 3.55836 0
M  V30 11991 H 1092 -2.20632 2.38226 0
M  V30 11992 H 1093.01 0.217062 5.17445 0
M  V30 11993 H 1089.68 -1.90967 3.71265 0
M  V30 11994 H 1091.07 0.850516 6.66495 0
M  V30 11995 N 1093.79 -1.57004 0.136909 0
M  V30 11996 C 1094.72 -2.19262 -0.802902 0
M  V30 11997 C 1095.71 -1.13786 -1.26439 0
M  V30 11998 O 1096.89 -1.42091 -1.32377 0
M  V30 11999 C 1094.02 -2.80624 -2.04615 0
M  V30 12000 C 1092.97 -3.91839 -1.72181 0
M  V30 12001 C 1092.3 -4.4009 -3.03686 0
M  V30 12002 C 1093.6 -5.13095 -0.976249 0
M  V30 12003 H 1095.29 -2.98049 -0.28406 0
M  V30 12004 H 1092.84 -1.43364 -0.135189 0
M  V30 12005 H 1094.79 -3.22842 -2.70834 0
M  V30 12006 H 1093.52 -1.99153 -2.58855 0
M  V30 12007 H 1092.18 -3.50224 -1.08344 0
M  V30 12008 H 1091.82 -3.55454 -3.55896 0
M  V30 12009 H 1091.52 -5.15098 -2.82751 0
M  V30 12010 H 1093.05 -4.84971 -3.70993 0
M  V30 12011 H 1094.46 -5.5222 -1.54033 0
M  V30 12012 H 1092.86 -5.93801 -0.867214 0
M  V30 12013 H 1093.93 -4.84888 0.0338488 0
M  V30 12014 N 1095.27 0.136881 -1.57004 0
M  V30 12015 C 1096.22 1.16869 -1.99023 0
M  V30 12016 C 1097.19 1.42137 -0.859435 0
M  V30 12017 O 1098.37 1.54303 -1.12229 0
M  V30 12018 C 1095.51 2.49466 -2.38455 0
M  V30 12019 C 1094.63 2.31286 -3.64871 0
M  V30 12020 C 1093.76 3.56989 -3.9336 0
M  V30 12021 C 1092.8 3.33889 -5.13015 0
M  V30 12022 N 1091.94 4.51748 -5.37464 0
M  V30 12023 H 1096.78 0.803366 -2.86967 0
M  V30 12024 H 1094.32 0.385216 -1.41967 0
M  V30 12025 H 1096.27 3.26794 -2.59348 0
M  V30 12026 H 1094.9 2.83926 -1.53577 0
M  V30 12027 H 1093.96 1.44962 -3.51696 0
M  V30 12028 H 1095.27 2.10183 -4.52355 0
M  V30 12029 H 1094.42 4.42742 -4.14806 0
M  V30 12030 H 1093.16 3.81106 -3.04318 0
M  V30 12031 H 1092.17 2.46525 -4.91432 0
M  V30 12032 H 1093.39 3.1116 -6.03619 0
M  V30 12033 H 1091.34 4.76019 -4.51377 0
M  V30 12034 H 1091.25 4.33684 -6.19237 0
M  V30 12035 H 1092.52 5.38686 -5.63416 0
M  V30 12036 N 1096.75 1.52266 0.40654 0
M  V30 12037 C 1097.98 1.70057 1.1732 0
M  V30 12038 C 1098.39 0.41084 1.84686 0
M  V30 12039 O 1097.73 -0.623187 1.72806 0
M  V30 12040 C 1097.79 2.78197 2.27698 0
M  V30 12041 C 1097.46 4.19866 1.80447 0
M  V30 12042 C 1098.45 5.03621 1.29082 0
M  V30 12043 C 1096.14 4.66112 1.87202 0
M  V30 12044 C 1098.13 6.31694 0.850973 0
M  V30 12045 C 1095.82 5.94174 1.42829 0
M  V30 12046 C 1096.82 6.76794 0.918621 0
M  V30 12047 O 1096.51 8.02458 0.481302 0
M  V30 12048 H 1096.24 0.573137 0.358455 0
M  V30 12049 H 1098.79 1.99615 0.484064 0
M  V30 12050 H 1097.02 2.44022 2.99983 0
M  V30 12051 H 1098.71 2.84562 2.89446 0
M  V30 12052 H 1099.48 4.69083 1.23234 0
M  V30 12053 H 1095.36 4.01905 2.25816 0
M  V30 12054 H 1098.9 6.96131 0.452471 0
M  V30 12055 H 1094.8 6.2822 1.48358 0
M  V30 12056 H 1095.57 8.16266 0.604376 0
M  V30 12057 N 1098.23 -0.663929 1.42933 0
M  V30 12058 C 1099.48 -1.41973 1.43271 0
M  V30 12059 C 1099.79 -1.95518 0.0566103 0
M  V30 12060 O 1101 -2.71428 -0.0625862 0
M  V30 12061 C 1099.45 -2.56882 2.52071 0
M  V30 12062 C 1099.06 -2.0999 3.95737 0
M  V30 12063 C 1100.8 -3.34322 2.61589 0
M  V30 12064 C 1098.71 -3.22046 4.96025 0
M  V30 12065 H 1097.64 -0.5334 0.532917 0
M  V30 12066 H 1100.29 -0.717709 1.68882 0
M  V30 12067 H 1098.67 -3.29504 2.19643 0
M  V30 12068 H 1099.85 -1.44449 4.37574 0
M  V30 12069 H 1098.16 -1.45459 3.90168 0
M  V30 12070 H 1100.76 -4.17796 3.33692 0
M  V30 12071 H 1101.1 -3.8164 1.66302 0
M  V30 12072 H 1101.64 -2.68775 2.93266 0
M  V30 12073 H 1098.38 -2.79708 5.92827 0
M  V30 12074 H 1097.9 -3.86333 4.5881 0
M  V30 12075 H 1099.57 -3.87345 5.1824 0
M  V30 12076 N 1099.71 -1.29285 -0.901281 0
M  V30 12077 C 1100.64 -1.16832 -2.0217 0
M  V30 12078 C 1101.62 -0.0629265 -1.69984 0
M  V30 12079 O 1102.8 -0.242123 -1.92685 0
M  V30 12080 C 1099.93 -0.842406 -3.36929 0
M  V30 12081 C 1098.89 -1.90394 -3.8332 0
M  V30 12082 C 1098.21 -1.43138 -5.15185 0
M  V30 12083 C 1099.51 -3.31254 -4.03817 0
M  V30 12084 H 1101.21 -2.10562 -2.12847 0
M  V30 12085 H 1098.75 -1.01375 -1.0227 0
M  V30 12086 H 1100.71 -0.741999 -4.14816 0
M  V30 12087 H 1099.43 0.130598 -3.26339 0
M  V30 12088 H 1098.09 -1.99371 -3.07647 0
M  V30 12089 H 1097.74 -0.447091 -5.01009 0
M  V30 12090 H 1097.44 -2.14129 -5.47195 0
M  V30 12091 H 1098.96 -1.34444 -5.95615 0
M  V30 12092 H 1100.37 -3.25129 -4.72191 0
M  V30 12093 H 1098.77 -4.00189 -4.47178 0
M  V30 12094 H 1099.84 -3.74349 -3.08206 0
M  V30 12095 N 1101.18 1.11143 -1.11736 0
M  V30 12096 C 1102.43 1.82311 -0.862875 0
M  V30 12097 C 1102.75 1.85735 0.613326 0
M  V30 12098 O 1103.95 2.53034 0.984168 0
M  V30 12099 C 1102.41 3.27427 -1.49396 0
M  V30 12100 C 1102.02 3.32323 -3.00443 0
M  V30 12101 C 1103.76 4.03474 -1.31944 0
M  V30 12102 C 1101.67 4.71855 -3.56521 0
M  V30 12103 H 1100.6 0.683124 -0.31915 0
M  V30 12104 H 1103.25 1.25045 -1.34298 0
M  V30 12105 H 1101.63 3.84644 -0.941528 0
M  V30 12106 H 1102.8 2.84971 -3.62117 0
M  V30 12107 H 1101.12 2.69758 -3.17206 0
M  V30 12108 H 1103.72 5.06528 -1.71271 0
M  V30 12109 H 1104.06 4.15473 -0.262339 0
M  V30 12110 H 1104.59 3.52652 -1.84069 0
M  V30 12111 H 1101.33 4.65054 -4.61958 0
M  V30 12112 H 1100.85 5.19604 -2.99619 0
M  V30 12113 H 1102.53 5.40816 -3.55144 0
M  V30 12114 N 1102.66 0.908147 1.28804 0
M  V30 12115 C 1103.61 0.382315 2.29437 0
M  V30 12116 C 1104.6 -0.523033 1.61123 0
M  V30 12117 O 1105.81 -0.404898 1.75387 0
M  V30 12118 H 1102.19 0.105022 0.74463 0
M  V30 12119 H 1104.16 1.24425 2.71221 0
M  V30 12120 C 1102.91 -0.367475 3.45753 0
M  V30 12121 H 1102.23 0.319957 3.98518 0
M  V30 12122 H 1103.67 -0.700131 4.1818 0
M  V30 12123 C 1102.13 -1.57329 2.97908 0
M  V30 12124 O 1102.66 -2.67248 2.99902 0
M  V30 12125 N 1100.86 -1.41835 2.53636 0
M  V30 12126 H 1100.41 -0.524099 2.52212 0
M  V30 12127 H 1100.37 -2.22645 2.21984 0
M  V30 12128 N 1104.14 -1.42577 0.671525 0
M  V30 12129 C 1105.39 -2.01185 0.192051 0
M  V30 12130 C 1105.71 -1.53349 -1.20454 0
M  V30 12131 O 1104.98 -0.753781 -1.80817 0
M  V30 12132 H 1103.56 -0.743898 0.0680106 0
M  V30 12133 H 1106.22 -1.74539 0.8673 0
M  V30 12134 H 1105.32 -3.11516 0.190796 0
M  V30 12135 N 1105.62 -0.414636 -1.52048 0
M  V30 12136 C 1106.53 0.414861 -2.30903 0
M  V30 12137 C 1107.54 1.04855 -1.38858 0
M  V30 12138 O 1108.72 1.04886 -1.71933 0
M  V30 12139 C 1105.79 1.51356 -3.11917 0
M  V30 12140 C 1104.85 0.902359 -4.19709 0
M  V30 12141 C 1104.08 1.9487 -4.96852 0
M  V30 12142 O 1104.3 3.16766 -4.74358 0
M  V30 12143 O 1103.24 1.55186 -5.8155 0
M  V30 12144 H 1107.06 -0.228251 -3.02841 0
M  V30 12145 H 1104.65 -0.177704 -1.48339 0
M  V30 12146 H 1106.53 2.15127 -3.62351 0
M  V30 12147 H 1105.2 2.14117 -2.42767 0
M  V30 12148 H 1104.11 0.22721 -3.73409 0
M  V30 12149 H 1105.44 0.318587 -4.91168 0
M  V30 12150 N 1107.1 1.56929 -0.145233 0
M  V30 12151 C 1108.04 2.16671 0.795128 0
M  V30 12152 C 1109.01 1.09908 1.24537 0
M  V30 12153 O 1110.2 1.37941 1.31821 0
M  V30 12154 C 1107.34 2.79111 2.02956 0
M  V30 12155 C 1106.45 4.00261 1.62528 0
M  V30 12156 C 1105.59 4.50705 2.81137 0
M  V30 12157 C 1104.63 5.64324 2.37075 0
M  V30 12158 N 1103.76 6.09395 3.48687 0
M  V30 12159 H 1108.6 2.96692 0.278865 0
M  V30 12160 H 1106.14 1.4656 0.125934 0
M  V30 12161 H 1108.1 3.13456 2.7532 0
M  V30 12162 H 1106.73 2.01737 2.51996 0
M  V30 12163 H 1105.78 3.71906 0.799365 0
M  V30 12164 H 1107.09 4.8258 1.26166 0
M  V30 12165 H 1106.25 4.87096 3.61693 0
M  V30 12166 H 1104.98 3.67389 3.20744 0
M  V30 12167 H 1103.99 5.27511 1.54958 0
M  V30 12168 H 1105.21 6.49425 1.98556 0
M  V30 12169 H 1103.16 5.29014 3.87917 0
M  V30 12170 H 1103.08 6.86636 3.16333 0
M  V30 12171 H 1104.35 6.50431 4.29605 0
M  V30 12172 N 1108.58 -0.128553 1.57075 0
M  V30 12173 C 1109.82 -0.836355 1.83982 0
M  V30 12174 C 1110.14 -1.80862 0.728971 0
M  V30 12175 O 1109.41 -1.94326 -0.247859 0
M  V30 12176 H 1107.99 -0.31185 0.678792 0
M  V30 12177 H 1110.66 -0.118153 1.94542 0
M  V30 12178 H 1109.75 -1.38741 2.79567 0
M  V30 12179 N 1110.05 -1.5248 -0.398459 0
M  V30 12180 C 1110.98 -1.79549 -1.49279 0
M  V30 12181 C 1111.96 -0.647004 -1.57315 0
M  V30 12182 O 1113.15 -0.893661 -1.72416 0
M  V30 12183 C 1110.28 -1.95582 -2.86993 0
M  V30 12184 C 1109.23 -3.1123 -2.93803 0
M  V30 12185 C 1108.56 -3.12501 -4.33874 0
M  V30 12186 C 1109.86 -4.50485 -2.64312 0
M  V30 12187 H 1111.55 -2.71187 -1.26877 0
M  V30 12188 H 1109.1 -1.30492 -0.608924 0
M  V30 12189 H 1111.05 -2.13102 -3.63546 0
M  V30 12190 H 1109.78 -1.00625 -3.10712 0
M  V30 12191 H 1108.44 -2.93477 -2.19697 0
M  V30 12192 H 1108.08 -2.15245 -4.54619 0
M  V30 12193 H 1107.78 -3.90183 -4.39353 0
M  V30 12194 H 1109.31 -3.32164 -5.12347 0
M  V30 12195 H 1110.72 -4.68387 -3.30585 0
M  V30 12196 H 1109.12 -5.30163 -2.81153 0
M  V30 12197 H 1110.19 -4.57848 -1.59696 0
M  V30 12198 N 1111.53 0.65634 -1.43283 0
M  V30 12199 C 1112.78 1.41212 -1.44021 0
M  V30 12200 C 1113.09 1.95485 -0.0669783 0
M  V30 12201 O 1114.3 2.71457 0.0481909 0
M  V30 12202 C 1112.76 2.55541 -2.5343 0
M  V30 12203 C 1112.36 2.07889 -3.96845 0
M  V30 12204 C 1114.11 3.3293 -2.63359 0
M  V30 12205 C 1112.01 3.19411 -4.97726 0
M  V30 12206 H 1110.94 0.530566 -0.535739 0
M  V30 12207 H 1113.6 0.708743 -1.6926 0
M  V30 12208 H 1111.98 3.28335 -2.21387 0
M  V30 12209 H 1113.15 1.42127 -4.38334 0
M  V30 12210 H 1111.47 1.43388 -3.90933 0
M  V30 12211 H 1114.06 4.1602 -3.35903 0
M  V30 12212 H 1114.41 3.80753 -1.68324 0
M  V30 12213 H 1114.94 2.67216 -2.94687 0
M  V30 12214 H 1111.68 2.7656 -5.94302 0
M  V30 12215 H 1111.2 3.83895 -4.60853 0
M  V30 12216 H 1112.88 3.84591 -5.20287 0
M  V30 12217 N 1113.01 1.29761 0.894412 0
M  V30 12218 C 1113.96 1.15341 1.99912 0
M  V30 12219 C 1114.93 0.0453488 1.66038 0
M  V30 12220 O 1116.11 0.213829 1.89598 0
M  V30 12221 C 1113.25 0.841432 3.34685 0
M  V30 12222 C 1112.36 2.03046 3.81309 0
M  V30 12223 C 1111.5 1.65739 5.04682 0
M  V30 12224 C 1110.54 2.81191 5.43689 0
M  V30 12225 N 1109.68 2.44244 6.58247 0
M  V30 12226 H 1114.52 2.09854 2.11578 0
M  V30 12227 H 1112.05 1.04421 1.03608 0
M  V30 12228 H 1114.01 0.641211 4.12243 0
M  V30 12229 H 1112.64 -0.066797 3.22731 0
M  V30 12230 H 1111.69 2.34222 2.9974 0
M  V30 12231 H 1113 2.89538 4.06164 0
M  V30 12232 H 1112.16 1.42036 5.8984 0
M  V30 12233 H 1110.9 0.764019 4.81678 0
M  V30 12234 H 1109.9 3.0557 4.57064 0
M  V30 12235 H 1111.13 3.712 5.68672 0
M  V30 12236 H 1109.07 1.57402 6.36837 0
M  V30 12237 H 1108.99 3.24269 6.82924 0
M  V30 12238 H 1110.26 2.23875 7.46659 0
M  V30 12239 N 1114.49 -1.10549 1.12324 0
M  V30 12240 C 1115.72 -1.86 0.899312 0
M  V30 12241 C 1116.13 -1.80881 -0.554854 0
M  V30 12242 O 1115.47 -1.19485 -1.39531 0
M  V30 12243 C 1115.53 -3.35384 1.29452 0
M  V30 12244 C 1115.19 -3.64263 2.75974 0
M  V30 12245 C 1116.19 -3.60962 3.74169 0
M  V30 12246 C 1113.88 -3.92976 3.1285 0
M  V30 12247 C 1115.87 -3.85966 5.07256 0
M  V30 12248 C 1113.56 -4.17637 4.4612 0
M  V30 12249 C 1114.56 -4.14122 5.43132 0
M  V30 12250 O 1114.24 -4.38156 6.73999 0
M  V30 12251 H 1113.98 -0.594743 0.321337 0
M  V30 12252 H 1116.53 -1.40674 1.49667 0
M  V30 12253 H 1114.76 -3.81361 0.640358 0
M  V30 12254 H 1116.45 -3.9222 1.04491 0
M  V30 12255 H 1117.21 -3.38819 3.47025 0
M  V30 12256 H 1113.09 -3.94843 2.3795 0
M  V30 12257 H 1116.64 -3.83138 5.82967 0
M  V30 12258 H 1112.53 -4.39258 4.72993 0
M  V30 12259 H 1113.3 -4.55677 6.79927 0
M  V30 12260 N 1115.97 -0.914965 -1.28321 0
M  V30 12261 C 1116.9 -0.348729 -2.2552 0
M  V30 12262 C 1117.88 0.547737 -1.53097 0
M  V30 12263 O 1119.06 0.491119 -1.8199 0
M  V30 12264 C 1116.19 0.501397 -3.34968 0
M  V30 12265 C 1115.23 -0.329859 -4.25223 0
M  V30 12266 S 1116.07 -1.73737 -5.06533 0
M  V30 12267 C 1117.22 -0.89458 -6.19474 0
M  V30 12268 H 1117.46 -1.17256 -2.732 0
M  V30 12269 H 1114.99 -0.716297 -1.36779 0
M  V30 12270 H 1116.95 0.986061 -3.98481 0
M  V30 12271 H 1115.61 1.29962 -2.85952 0
M  V30 12272 H 1114.8 0.320236 -5.02982 0
M  V30 12273 H 1114.4 -0.748221 -3.66439 0
M  V30 12274 H 1116.69 -0.124776 -6.77385 0
M  V30 12275 H 1117.64 -1.64475 -6.88733 0
M  V30 12276 H 1118.05 -0.442217 -5.62765 0
M  V30 12277 N 1117.44 1.42219 -0.679077 0
M  V30 12278 C 1118.72 1.95155 -0.13188 0
M  V30 12279 C 1119.1 1.6193 1.35433 0
M  V30 12280 O 1118.45 0.917672 2.09263 0
M  V30 12281 C 1118.66 3.46635 -0.405578 0
M  V30 12282 C 1120.01 4.23359 -0.324394 0
M  V30 12283 O 1121.03 3.54578 -0.339564 0
M  V30 12284 O 1119.89 5.45831 -0.270268 0
M  V30 12285 H 1116.98 0.826983 -0.00535438 0
M  V30 12286 H 1119.53 1.52024 -0.754101 0
M  V30 12287 H 1118.3 3.6404 -1.43495 0
M  V30 12288 H 1117.92 3.96823 0.248439 0
M  V30 12289 N 1118.92 0.422693 1.51826 0
M  V30 12290 C 1119.83 -0.40261 2.31119 0
M  V30 12291 C 1120.85 -1.04117 1.39412 0
M  V30 12292 O 1122.02 -1.03973 1.72486 0
M  V30 12293 C 1119.09 -1.49699 3.12716 0
M  V30 12294 C 1118.15 -0.880088 4.20182 0
M  V30 12295 C 1117.38 -1.92232 4.97878 0
M  V30 12296 O 1117.61 -3.14246 4.76031 0
M  V30 12297 O 1116.54 -1.521 5.82365 0
M  V30 12298 H 1120.37 0.244308 3.02716 0
M  V30 12299 H 1117.95 0.185569 1.48243 0
M  V30 12300 H 1119.83 -2.13202 3.63487 0
M  V30 12301 H 1118.51 -2.12826 2.43899 0
M  V30 12302 H 1117.41 -0.207404 3.73525 0
M  V30 12303 H 1118.75 -0.292535 4.9133 0
M  V30 12304 N 1120.4 -1.5685 0.153553 0
M  V30 12305 C 1121.63 -2.00701 -0.502678 0
M  V30 12306 C 1122.04 -1.0337 -1.57988 0
M  V30 12307 O 1121.4 -0.0317233 -1.82472 0
M  V30 12308 C 1121.45 -3.44443 -1.09732 0
M  V30 12309 O 1121.17 -4.38054 -0.0631405 0
M  V30 12310 C 1122.67 -4.03605 -1.83352 0
M  V30 12311 H 1119.89 -0.658229 -0.130289 0
M  V30 12312 H 1122.44 -2.02965 0.250063 0
M  V30 12313 H 1120.59 -3.43009 -1.80065 0
M  V30 12314 H 1121.01 -5.22114 -0.499681 0
M  V30 12315 H 1122.48 -5.0616 -2.20241 0
M  V30 12316 H 1122.96 -3.44687 -2.7219 0
M  V30 12317 H 1123.56 -4.08688 -1.17703 0
M  V30 12318 N 1121.88 0.120221 -1.57141 0
M  V30 12319 C 1123.12 0.829449 -1.85062 0
M  V30 12320 C 1123.46 1.79585 -0.739116 0
M  V30 12321 O 1122.73 1.92819 0.255147 0
M  V30 12322 C 1123.01 1.58042 -3.23566 0
M  V30 12323 C 1122.87 0.633706 -4.45314 0
M  V30 12324 C 1124.19 2.53688 -3.59625 0
M  V30 12325 H 1121.31 0.300086 -0.67314 0
M  V30 12326 H 1123.95 0.0937393 -1.89769 0
M  V30 12327 H 1122.1 2.20758 -3.19684 0
M  V30 12328 H 1123.77 0.0154836 -4.61297 0
M  V30 12329 H 1122.01 -0.054846 -4.33765 0
M  V30 12330 H 1122.68 1.19577 -5.38893 0
M  V30 12331 H 1125.16 2.01078 -3.6429 0
M  V30 12332 H 1124.04 3.03265 -4.57516 0
M  V30 12333 H 1124.3 3.36296 -2.8698 0
M  V30 12334 N 1123.36 1.52689 0.390367 0
M  V30 12335 C 1124.59 1.71292 1.1551 0
M  V30 12336 C 1124.99 0.430405 1.84239 0
M  V30 12337 O 1124.34 -0.604823 1.73458 0
M  V30 12338 C 1124.4 2.80597 2.24735 0
M  V30 12339 C 1124.06 4.21757 1.75984 0
M  V30 12340 C 1125.06 5.04961 1.23733 0
M  V30 12341 C 1122.75 4.68071 1.82248 0
M  V30 12342 C 1124.74 6.32561 0.783926 0
M  V30 12343 C 1122.43 5.95656 1.36519 0
M  V30 12344 C 1123.42 6.7773 0.846786 0
M  V30 12345 O 1123.11 8.02923 0.396164 0
M  V30 12346 H 1122.84 0.576906 0.352356 0
M  V30 12347 H 1125.4 2.00117 0.462865 0
M  V30 12348 H 1123.63 2.4719 2.97378 0
M  V30 12349 H 1125.32 2.87616 2.86412 0
M  V30 12350 H 1126.08 4.70363 1.18251 0
M  V30 12351 H 1121.96 4.04278 2.21541 0
M  V30 12352 H 1125.51 6.96572 0.378612 0
M  V30 12353 H 1121.4 6.29758 1.41686 0
M  V30 12354 H 1122.17 8.16861 0.517766 0
M  V30 12355 N 1124.83 -0.648732 1.43629 0
M  V30 12356 C 1125.76 -1.77298 1.51947 0
M  V30 12357 C 1126.75 -1.65942 0.373785 0
M  V30 12358 O 1127.93 -1.8497 0.591596 0
M  V30 12359 C 1125.06 -3.15749 1.44638 0
M  V30 12360 C 1124.01 -3.41872 2.57502 0
M  V30 12361 C 1123.34 -4.8017 2.35246 0
M  V30 12362 C 1124.64 -3.36173 3.99731 0
M  V30 12363 H 1126.33 -1.70594 2.46045 0
M  V30 12364 H 1123.88 -0.819306 1.1842 0
M  V30 12365 H 1125.83 -3.94156 1.4906 0
M  V30 12366 H 1124.56 -3.23194 0.470466 0
M  V30 12367 H 1123.22 -2.65838 2.5244 0
M  V30 12368 H 1122.86 -4.84297 1.35887 0
M  V30 12369 H 1122.56 -4.9861 3.10906 0
M  V30 12370 H 1124.09 -5.6083 2.41459 0
M  V30 12371 H 1125.5 -4.0451 4.06257 0
M  V30 12372 H 1123.9 -3.66148 4.75453 0
M  V30 12373 H 1124.97 -2.34277 4.24549 0
M  V30 12374 N 1126.31 -1.30234 -0.887518 0
M  V30 12375 C 1127.56 -1.1891 -1.6391 0
M  V30 12376 C 1127.89 0.256749 -1.92798 0
M  V30 12377 O 1127.14 1.20047 -1.54555 0
M  V30 12378 C 1127.44 -1.96046 -2.98832 0
M  V30 12379 C 1127.11 -3.45683 -2.89507 0
M  V30 12380 C 1125.77 -3.86489 -2.8667 0
M  V30 12381 C 1128.12 -4.40983 -2.7782 0
M  V30 12382 C 1125.45 -5.2089 -2.69982 0
M  V30 12383 C 1127.8 -5.75489 -2.6267 0
M  V30 12384 C 1126.47 -6.15537 -2.58207 0
M  V30 12385 H 1125.74 -0.435123 -0.599791 0
M  V30 12386 H 1128.38 -1.61308 -1.03209 0
M  V30 12387 H 1126.69 -1.46275 -3.6347 0
M  V30 12388 H 1128.38 -1.84678 -3.55942 0
M  V30 12389 H 1124.97 -3.13255 -2.92523 0
M  V30 12390 H 1129.16 -4.10401 -2.79079 0
M  V30 12391 H 1124.41 -5.51014 -2.6494 0
M  V30 12392 H 1128.59 -6.48973 -2.526 0
M  V30 12393 H 1126.22 -7.19627 -2.45034 0
M  V30 12394 N 1127.79 1.09952 -1.12909 0
M  V30 12395 C 1128.74 2.16436 -0.801514 0
M  V30 12396 C 1129.71 1.64444 0.233976 0
M  V30 12397 O 1130.89 1.90497 0.10743 0
M  V30 12398 C 1128.03 3.4406 -0.267753 0
M  V30 12399 C 1127.15 4.09979 -1.36165 0
M  V30 12400 C 1126.28 5.25341 -0.786803 0
M  V30 12401 C 1125.32 5.83172 -1.85948 0
M  V30 12402 N 1124.46 6.89904 -1.30298 0
M  V30 12403 H 1129.3 2.43799 -1.71365 0
M  V30 12404 H 1126.83 1.19665 -0.855499 0
M  V30 12405 H 1128.79 4.17157 0.0598031 0
M  V30 12406 H 1127.42 3.17031 0.607528 0
M  V30 12407 H 1126.47 3.34801 -1.8059 0
M  V30 12408 H 1127.79 4.48999 -2.17259 0
M  V30 12409 H 1126.94 6.05312 -0.410211 0
M  V30 12410 H 1125.68 4.87669 0.055279 0
M  V30 12411 H 1124.68 5.01867 -2.24521 0
M  V30 12412 H 1125.91 6.22907 -2.70487 0
M  V30 12413 H 1123.85 6.54221 -0.482806 0
M  V30 12414 H 1123.77 7.27662 -2.05046 0
M  V30 12415 H 1125.04 7.73643 -0.953779 0
M  V30 12416 N 1129.27 0.921757 1.27833 0
M  V30 12417 C 1130.52 0.55493 1.93916 0
M  V30 12418 C 1130.83 -0.907191 1.7329 0
M  V30 12419 O 1132.04 -1.38253 2.33663 0
M  V30 12420 C 1130.49 0.941644 3.47363 0
M  V30 12421 C 1130.1 2.42404 3.76755 0
M  V30 12422 C 1131.84 0.645785 4.19559 0
M  V30 12423 C 1129.75 2.75046 5.23549 0
M  V30 12424 H 1128.68 0.203818 0.72593 0
M  V30 12425 H 1131.33 1.12176 1.4522 0
M  V30 12426 H 1129.71 0.303519 3.94835 0
M  V30 12427 H 1130.89 3.10957 3.40062 0
M  V30 12428 H 1129.2 2.69118 3.17749 0
M  V30 12429 H 1131.8 0.866237 5.27637 0
M  V30 12430 H 1132.14 -0.41676 4.14209 0
M  V30 12431 H 1132.68 1.24274 3.7789 0
M  V30 12432 H 1129.42 3.80186 5.33984 0
M  V30 12433 H 1128.94 2.11138 5.6141 0
M  V30 12434 H 1130.61 2.62474 5.91368 0
M  V30 12435 N 1130.75 -1.41857 0.686609 0
M  V30 12436 C 1131.98 -2.05401 0.222238 0
M  V30 12437 C 1132.38 -1.51731 -1.13023 0
M  V30 12438 O 1131.73 -0.656701 -1.71561 0
M  V30 12439 C 1131.79 -3.59381 0.0926608 0
M  V30 12440 C 1131.45 -4.35801 1.37573 0
M  V30 12441 C 1132.45 -4.65678 2.31171 0
M  V30 12442 C 1130.14 -4.75233 1.62661 0
M  V30 12443 C 1132.13 -5.33936 3.48125 0
M  V30 12444 C 1129.82 -5.43229 2.79902 0
M  V30 12445 C 1130.81 -5.72507 3.72458 0
M  V30 12446 O 1130.5 -6.39106 4.87646 0
M  V30 12447 H 1130.23 -0.668126 0.102876 0
M  V30 12448 H 1132.79 -1.82775 0.93714 0
M  V30 12449 H 1131.02 -3.80711 -0.67793 0
M  V30 12450 H 1132.71 -4.04529 -0.333364 0
M  V30 12451 H 1133.47 -4.35704 2.13042 0
M  V30 12452 H 1129.35 -4.51831 0.914862 0
M  V30 12453 H 1132.9 -5.56706 4.20386 0
M  V30 12454 H 1128.79 -5.72621 2.97951 0
M  V30 12455 H 1129.56 -6.576 4.87344 0
M  V30 12456 N 1132.22 -0.430739 -1.51599 0
M  V30 12457 C 1133.17 0.398482 -2.29161 0
M  V30 12458 C 1134.17 1.02676 -1.34737 0
M  V30 12459 O 1135.37 0.96248 -1.52106 0
M  V30 12460 H 1131.75 0.14731 -0.737431 0
M  V30 12461 H 1133.72 -0.276619 -2.97115 0
M  V30 12462 C 1132.47 1.49094 -3.14112 0
M  V30 12463 H 1131.79 1.01685 -3.86652 0
M  V30 12464 H 1133.23 2.04453 -3.7145 0
M  V30 12465 C 1131.69 2.47049 -2.29059 0
M  V30 12466 O 1132.22 3.51435 -1.94567 0
M  V30 12467 N 1130.43 2.17778 -1.92409 0
M  V30 12468 H 1129.97 1.3292 -2.20658 0
M  V30 12469 H 1129.93 2.8356 -1.35798 0
M  V30 12470 N 1133.7 1.56767 -0.161869 0
M  V30 12471 C 1134.65 2.18807 0.789074 0
M  V30 12472 C 1135.64 1.14934 1.24445 0
M  V30 12473 O 1136.85 1.33154 1.2112 0
M  V30 12474 H 1133.23 0.700808 0.272713 0
M  V30 12475 H 1135.2 2.97419 0.241766 0
M  V30 12476 C 1133.95 2.83568 2.01207 0
M  V30 12477 H 1133.27 3.63219 1.67068 0
M  V30 12478 H 1134.71 3.3046 2.65654 0
M  V30 12479 C 1133.17 1.82846 2.82964 0
M  V30 12480 O 1133.7 1.30809 3.79805 0
M  V30 12481 N 1131.9 1.51815 2.47791 0
M  V30 12482 H 1131.45 1.94325 1.69103 0
M  V30 12483 H 1131.41 0.846742 3.02783 0
M  V30 12484 N 1135.18 -0.111886 1.57202 0
M  V30 12485 C 1136.13 -1.14287 1.97288 0
M  V30 12486 C 1137.11 -1.36686 0.848868 0
M  V30 12487 O 1138.31 -1.37659 1.11261 0
M  V30 12488 C 1135.44 -2.46759 2.38673 0
M  V30 12489 C 1134.52 -2.27805 3.57723 0
M  V30 12490 N 1134.91 -1.78679 4.73189 0
M  V30 12491 C 1133.21 -2.58435 3.63494 0
M  V30 12492 C 1133.91 -1.736 5.55192 0
M  V30 12493 N 1132.89 -2.18205 4.97883 0
M  V30 12494 H 1136.69 -0.755711 2.84018 0
M  V30 12495 H 1134.2 -0.31954 1.59225 0
M  V30 12496 H 1136.2 -3.21335 2.65611 0
M  V30 12497 H 1134.86 -2.86227 1.53311 0
M  V30 12498 H 1135.87 -1.48121 4.96267 0
M  V30 12499 H 1132.55 -3.0154 2.88755 0
M  V30 12500 H 1133.94 -1.36812 6.57824 0
M  V30 12501 N 1136.66 -1.52894 -0.382264 0
M  V30 12502 C 1137.59 -1.81122 -1.47367 0
M  V30 12503 C 1138.57 -0.663653 -1.56619 0
M  V30 12504 O 1139.75 -0.911898 -1.71459 0
M  V30 12505 C 1136.88 -1.98615 -2.84902 0
M  V30 12506 C 1135.84 -3.14328 -2.90485 0
M  V30 12507 C 1135.16 -3.17086 -4.30535 0
M  V30 12508 C 1136.46 -4.53263 -2.59519 0
M  V30 12509 H 1138.16 -2.72518 -1.23993 0
M  V30 12510 H 1135.7 -1.3113 -0.595049 0
M  V30 12511 H 1137.66 -2.16946 -3.61265 0
M  V30 12512 H 1136.38 -1.03915 -3.09628 0
M  V30 12513 H 1135.04 -2.95791 -2.16572 0
M  V30 12514 H 1134.69 -2.20055 -4.52311 0
M  V30 12515 H 1134.39 -3.94821 -4.3519 0
M  V30 12516 H 1135.91 -3.3758 -5.08795 0
M  V30 12517 H 1137.33 -4.71867 -3.25598 0
M  V30 12518 H 1135.72 -5.33115 -2.75514 0
M  V30 12519 H 1136.79 -4.59516 -1.54831 0
M  V30 12520 N 1138.14 0.641106 -1.43971 0
M  V30 12521 C 1139.37 1.42622 -1.49475 0
M  V30 12522 C 1139.78 1.8885 -0.115068 0
M  V30 12523 O 1139.12 1.60846 0.887378 0
M  V30 12524 C 1139.18 2.68643 -2.38896 0
M  V30 12525 C 1138.84 2.44276 -3.86236 0
M  V30 12526 C 1139.84 2.06732 -4.7703 0
M  V30 12527 C 1137.53 2.58225 -4.30842 0
M  V30 12528 C 1139.52 1.83451 -6.1043 0
M  V30 12529 C 1137.21 2.34559 -5.64292 0
M  V30 12530 C 1138.21 1.97229 -6.53903 0
M  V30 12531 O 1137.89 1.73819 -7.84884 0
M  V30 12532 H 1137.63 0.444187 -0.509582 0
M  V30 12533 H 1140.18 0.792179 -1.89509 0
M  V30 12534 H 1138.41 3.34649 -1.93771 0
M  V30 12535 H 1140.1 3.30623 -2.35464 0
M  V30 12536 H 1140.86 1.95521 -4.43843 0
M  V30 12537 H 1136.74 2.86253 -3.61359 0
M  V30 12538 H 1140.29 1.54238 -6.80335 0
M  V30 12539 H 1136.18 2.45376 -5.97043 0
M  V30 12540 H 1136.95 1.88146 -7.96582 0
M  V30 12541 N 1139.62 1.30703 0.880598 0
M  V30 12542 C 1140.85 1.22536 1.66339 0
M  V30 12543 C 1141.25 -0.213507 1.87991 0
M  V30 12544 O 1140.6 -1.15236 1.43061 0
M  V30 12545 C 1140.66 1.88798 3.05934 0
M  V30 12546 C 1140.32 3.38131 3.07435 0
M  V30 12547 C 1141.32 4.34053 2.86171 0
M  V30 12548 C 1139 3.79651 3.28893 0
M  V30 12549 C 1141 5.69469 2.86328 0
M  V30 12550 C 1138.69 5.15182 3.2868 0
M  V30 12551 C 1139.68 6.09902 3.07423 0
M  V30 12552 O 1139.37 7.42957 3.07034 0
M  V30 12553 H 1139.1 0.425018 0.525677 0
M  V30 12554 H 1141.66 1.72939 1.1082 0
M  V30 12555 H 1139.89 1.3293 3.63134 0
M  V30 12556 H 1141.58 1.74691 3.66385 0
M  V30 12557 H 1142.34 4.03307 2.69385 0
M  V30 12558 H 1138.22 3.06365 3.44473 0
M  V30 12559 H 1141.77 6.43375 2.69655 0
M  V30 12560 H 1137.66 5.45567 3.45002 0
M  V30 12561 H 1138.43 7.52 3.23169 0
M  V30 12562 N 1141.09 -1.09351 1.1349 0
M  V30 12563 C 1142.34 -1.80915 0.89177 0
M  V30 12564 C 1142.66 -1.86688 -0.5837 0
M  V30 12565 O 1143.86 -2.54568 -0.943788 0
M  V30 12566 C 1142.32 -3.25009 1.54587 0
M  V30 12567 C 1141.93 -3.27501 3.05691 0
M  V30 12568 C 1143.67 -4.01323 1.38346 0
M  V30 12569 C 1141.58 -4.66123 3.63983 0
M  V30 12570 H 1140.51 -0.677961 0.329978 0
M  V30 12571 H 1143.16 -1.22893 1.3627 0
M  V30 12572 H 1141.54 -3.83098 1.0026 0
M  V30 12573 H 1142.71 -2.79174 3.66604 0
M  V30 12574 H 1141.03 -2.64677 3.21457 0
M  V30 12575 H 1143.63 -5.03739 1.79307 0
M  V30 12576 H 1143.97 -4.15003 0.328404 0
M  V30 12577 H 1144.5 -3.49679 1.89656 0
M  V30 12578 H 1141.24 -4.57646 4.69298 0
M  V30 12579 H 1140.76 -5.14772 3.07848 0
M  V30 12580 H 1142.44 -5.35097 3.63703 0
M  V30 12581 N 1142.57 -0.928524 -1.27343 0
M  V30 12582 C 1143.52 -0.418768 -2.28799 0
M  V30 12583 C 1144.51 0.497334 -1.61935 0
M  V30 12584 O 1145.72 0.376945 -1.76009 0
M  V30 12585 H 1142.09 -0.116855 -0.742865 0
M  V30 12586 H 1144.07 -1.28725 -2.69207 0
M  V30 12587 C 1142.81 0.312422 -3.46294 0
M  V30 12588 H 1142.14 -0.383317 -3.97958 0
M  V30 12589 H 1143.58 0.633514 -4.19241 0
M  V30 12590 C 1142.04 1.5257 -3.00373 0
M  V30 12591 O 1142.57 2.62443 -3.04116 0
M  V30 12592 N 1140.77 1.37782 -2.5586 0
M  V30 12593 H 1140.32 0.483908 -2.53014 0
M  V30 12594 H 1140.28 2.19085 -2.25498 0
M  V30 12595 N 1144.05 1.41491 -0.694123 0
M  V30 12596 C 1145.47 1.55358 -0.365532 0
M  V30 12597 C 1145.67 1.66994 1.12762 0
M  V30 12598 O 1144.72 1.64756 1.91342 0
M  V30 12599 C 1146.03 2.79352 -1.11279 0
M  V30 12600 C 1147.58 2.93147 -1.097 0
M  V30 12601 C 1148.06 4.20027 -1.82597 0
M  V30 12602 N 1149.55 4.26981 -1.7956 0
M  V30 12603 C 1150.28 5.24013 -2.32805 0
M  V30 12604 N 1149.78 6.27083 -2.94515 0
M  V30 12605 N 1151.57 5.15943 -2.23069 0
M  V30 12606 H 1143.72 1.32183 -1.66257 0
M  V30 12607 H 1145.99 0.637624 -0.701527 0
M  V30 12608 H 1145.69 2.76958 -2.16765 0
M  V30 12609 H 1145.57 3.70827 -0.690439 0
M  V30 12610 H 1147.95 2.95057 -0.0504037 0
M  V30 12611 H 1148.03 2.02849 -1.55839 0
M  V30 12612 H 1147.68 4.18878 -2.87235 0
M  V30 12613 H 1147.61 5.09294 -1.33893 0
M  V30 12614 H 1150.1 3.53129 -1.34567 0
M  V30 12615 H 1150.41 6.97511 -3.32714 0
M  V30 12616 H 1148.76 6.27589 -2.98592 0
M  V30 12617 H 1151.95 4.34346 -1.74532 0
M  V30 12618 H 1152.12 5.91396 -2.64868 0
M  V30 12619 N 1145.53 0.438773 1.51369 0
M  V30 12620 C 1146.46 -0.407771 2.25543 0
M  V30 12621 C 1147.47 -0.985065 1.29616 0
M  V30 12622 O 1148.66 -0.878961 1.55359 0
M  V30 12623 C 1145.76 -1.58257 2.9968 0
M  V30 12624 C 1144.93 -1.12389 4.22714 0
M  V30 12625 C 1143.99 -2.16897 4.79418 0
M  V30 12626 O 1143.02 -1.76273 5.41218 0
M  V30 12627 N 1144.22 -3.49396 4.63576 0
M  V30 12628 H 1146.99 0.227963 2.98832 0
M  V30 12629 H 1144.55 0.267741 1.59671 0
M  V30 12630 H 1146.54 -2.27796 3.34501 0
M  V30 12631 H 1145.11 -2.12362 2.29393 0
M  V30 12632 H 1144.33 -0.255509 3.93371 0
M  V30 12633 H 1145.62 -0.794848 5.02553 0
M  V30 12634 H 1145.02 -3.85132 4.14355 0
M  V30 12635 H 1143.57 -4.14826 5.02755 0
M  V30 12636 N 1147.01 -1.56678 0.170181 0
M  V30 12637 C 1147.92 -2.21496 -0.773079 0
M  V30 12638 C 1148.93 -1.20626 -1.25401 0
M  V30 12639 O 1150.11 -1.53283 -1.30638 0
M  V30 12640 C 1147.17 -2.8421 -1.98558 0
M  V30 12641 C 1146.23 -4.00278 -1.55164 0
M  V30 12642 C 1145.47 -4.59992 -2.70634 0
M  V30 12643 O 1145.69 -4.18595 -3.87472 0
M  V30 12644 O 1144.62 -5.49881 -2.44775 0
M  V30 12645 H 1148.45 -3.02659 -0.251195 0
M  V30 12646 H 1146.03 -1.49288 -0.0579621 0
M  V30 12647 H 1147.92 -3.2398 -2.69472 0
M  V30 12648 H 1146.59 -2.06045 -2.49654 0
M  V30 12649 H 1145.5 -3.6518 -0.812038 0
M  V30 12650 H 1146.83 -4.80033 -1.0876 0
M  V30 12651 N 1148.48 0.103547 -1.57259 0
M  V30 12652 C 1149.43 1.14513 -2.02459 0
M  V30 12653 C 1150.43 1.4197 -0.924163 0
M  V30 12654 O 1151.63 1.41751 -1.10936 0
M  V30 12655 H 1148.01 0.386469 -0.645094 0
M  V30 12656 H 1149.98 0.737531 -2.89142 0
M  V30 12657 C 1148.73 2.45948 -2.45775 0
M  V30 12658 H 1148.05 2.25662 -3.30026 0
M  V30 12659 H 1149.49 3.17351 -2.81184 0
M  V30 12660 C 1147.95 3.09639 -1.32759 0
M  V30 12661 O 1148.48 3.96372 -0.652059 0
M  V30 12662 N 1146.68 2.69757 -1.08072 0
M  V30 12663 H 1146.23 1.9932 -1.63185 0
M  V30 12664 H 1146.19 3.127 -0.326532 0
M  V30 12665 N 1149.96 1.53094 0.37415 0
M  V30 12666 C 1151.21 1.69111 1.11934 0
M  V30 12667 C 1151.54 0.437252 1.89213 0
M  V30 12668 O 1150.82 -0.565298 1.86104 0
M  V30 12669 C 1151.1 2.93559 2.08554 0
M  V30 12670 C 1150.95 4.29082 1.3494 0
M  V30 12671 C 1152.27 3.13586 3.08791 0
M  V30 12672 H 1149.39 0.615383 0.405553 0
M  V30 12673 H 1152.03 1.85719 0.401078 0
M  V30 12674 H 1150.18 2.79531 2.69805 0
M  V30 12675 H 1151.85 4.54906 0.765402 0
M  V30 12676 H 1150.1 4.28884 0.651238 0
M  V30 12677 H 1150.77 5.12275 2.05616 0
M  V30 12678 H 1153.24 3.26743 2.57639 0
M  V30 12679 H 1152.12 4.02112 3.73627 0
M  V30 12680 H 1152.38 2.28475 3.78486 0
M  V30 12681 N 1151.44 -0.633461 1.44309 0
M  V30 12682 C 1152.39 -1.74554 1.50995 0
M  V30 12683 C 1153.36 -1.62199 0.357873 0
M  V30 12684 O 1154.54 -1.82156 0.567787 0
M  V30 12685 C 1151.68 -3.12792 1.45791 0
M  V30 12686 C 1150.79 -3.3614 2.71356 0
M  V30 12687 C 1149.93 -4.64337 2.58002 0
M  V30 12688 C 1148.97 -4.80855 3.78741 0
M  V30 12689 N 1148.11 -6.00327 3.64077 0
M  V30 12690 H 1152.95 -1.68174 2.46011 0
M  V30 12691 H 1150.48 -0.820407 1.22097 0
M  V30 12692 H 1152.44 -3.92735 1.40765 0
M  V30 12693 H 1151.07 -3.18193 0.543445 0
M  V30 12694 H 1150.12 -2.50154 2.86579 0
M  V30 12695 H 1151.43 -3.44226 3.60985 0
M  V30 12696 H 1150.59 -5.52437 2.50795 0
M  V30 12697 H 1149.33 -4.58605 1.65929 0
M  V30 12698 H 1148.33 -3.91185 3.86334 0
M  V30 12699 H 1149.56 -4.88403 4.71847 0
M  V30 12700 H 1147.5 -5.9569 2.74754 0
M  V30 12701 H 1147.42 -6.09459 4.47321 0
M  V30 12702 H 1148.69 -6.90995 3.60758 0
M  V30 12703 N 1152.92 -1.31168 -0.873655 0
M  V30 12704 C 1153.87 -1.18432 -2.00191 0
M  V30 12705 C 1154.86 -0.0934873 -1.69142 0
M  V30 12706 O 1156.07 -0.255126 -1.78183 0
M  V30 12707 H 1152.44 -0.366594 -0.656592 0
M  V30 12708 H 1154.41 -2.13896 -2.08065 0
M  V30 12709 C 1153.16 -0.904668 -3.35725 0
M  V30 12710 H 1152.48 -1.73617 -3.60135 0
M  V30 12711 H 1153.92 -0.855715 -4.15275 0
M  V30 12712 C 1152.38 0.392554 -3.34605 0
M  V30 12713 O 1152.91 1.41052 -3.76121 0
M  V30 12714 N 1151.12 0.40777 -2.87725 0
M  V30 12715 H 1150.67 -0.42112 -2.54134 0
M  V30 12716 H 1150.62 1.27564 -2.87358 0
M  V30 12717 N 1154.4 1.08748 -1.14068 0
M  V30 12718 C 1155.65 1.8044 -0.901352 0
M  V30 12719 C 1155.96 1.86995 0.573791 0
M  V30 12720 O 1157.16 2.55065 0.930275 0
M  V30 12721 C 1155.62 3.24185 -1.56308 0
M  V30 12722 C 1155.23 3.25875 -3.07424 0
M  V30 12723 C 1156.97 4.00584 -1.40473 0
M  V30 12724 C 1154.88 4.64186 -3.66449 0
M  V30 12725 H 1153.81 0.676201 -0.333569 0
M  V30 12726 H 1156.46 1.22169 -1.3692 0
M  V30 12727 H 1154.84 3.82561 -1.0229 0
M  V30 12728 H 1156.02 2.77225 -3.6808 0
M  V30 12729 H 1154.33 2.62969 -3.22856 0
M  V30 12730 H 1156.93 5.02781 -1.81976 0
M  V30 12731 H 1157.27 4.14823 -0.350408 0
M  V30 12732 H 1157.8 3.48668 -1.91508 0
M  V30 12733 H 1154.54 4.5515 -4.71719 0
M  V30 12734 H 1154.06 5.13132 -3.10574 0
M  V30 12735 H 1155.74 5.33161 -3.66536 0
M  V30 12736 N 1155.87 0.935264 1.26849 0
M  V30 12737 C 1156.8 0.457776 2.28969 0
M  V30 12738 C 1157.79 -0.48587 1.63013 0
M  V30 12739 O 1158.97 -0.388998 1.90264 0
M  V30 12740 C 1156.1 -0.283332 3.46142 0
M  V30 12741 C 1155.05 0.573196 4.24144 0
M  V30 12742 C 1154.38 -0.297525 5.33872 0
M  V30 12743 C 1155.68 1.84153 4.88759 0
M  V30 12744 H 1157.37 1.31125 2.69159 0
M  V30 12745 H 1154.92 0.631956 1.29392 0
M  V30 12746 H 1156.87 -0.628366 4.16689 0
M  V30 12747 H 1155.6 -1.1709 3.04889 0
M  V30 12748 H 1154.26 0.901043 3.55354 0
M  V30 12749 H 1153.9 -1.18427 4.8886 0
M  V30 12750 H 1153.6 0.272126 5.8697 0
M  V30 12751 H 1155.13 -0.637961 6.07258 0
M  V30 12752 H 1156.54 1.5641 5.51551 0
M  V30 12753 H 1154.94 2.35528 5.51948 0
M  V30 12754 H 1156.01 2.5565 4.12033 0
M  V30 12755 N 1157.35 -1.41121 0.701616 0
M  V30 12756 C 1158.28 -2.33436 0.0545974 0
M  V30 12757 C 1159.26 -1.52144 -0.760662 0
M  V30 12758 O 1160.45 -1.80661 -0.712414 0
M  V30 12759 C 1157.58 -3.36015 -0.878117 0
M  V30 12760 C 1156.53 -4.27664 -0.169511 0
M  V30 12761 C 1155.86 -5.20666 -1.21699 0
M  V30 12762 C 1157.16 -5.13254 0.967859 0
M  V30 12763 H 1158.85 -2.87791 0.825637 0
M  V30 12764 H 1156.4 -1.38377 0.398484 0
M  V30 12765 H 1158.35 -3.99526 -1.34004 0
M  V30 12766 H 1157.08 -2.80024 -1.68089 0
M  V30 12767 H 1155.73 -3.65586 0.272441 0
M  V30 12768 H 1155.38 -4.60987 -2.01246 0
M  V30 12769 H 1155.08 -5.82822 -0.747836 0
M  V30 12770 H 1156.61 -5.87053 -1.6793 0
M  V30 12771 H 1158.02 -5.70298 0.585944 0
M  V30 12772 H 1156.42 -5.84381 1.3645 0
M  V30 12773 H 1157.49 -4.5006 1.80483 0
M  V30 12774 N 1158.83 -0.446794 -1.51134 0
M  V30 12775 C 1159.78 0.374154 -2.29571 0
M  V30 12776 C 1160.77 1.01241 -1.35818 0
M  V30 12777 O 1161.98 0.946293 -1.53119 0
M  V30 12778 H 1158.35 0.13948 -0.738951 0
M  V30 12779 H 1160.32 -0.308117 -2.96805 0
M  V30 12780 C 1159.07 1.45754 -3.15675 0
M  V30 12781 H 1158.4 0.975787 -3.87709 0
M  V30 12782 H 1159.84 2.00502 -3.73597 0
M  V30 12783 C 1158.3 2.44606 -2.31667 0
M  V30 12784 O 1158.83 3.49352 -1.98284 0
M  V30 12785 N 1157.03 2.15725 -1.94708 0
M  V30 12786 H 1156.58 1.30572 -2.22056 0
M  V30 12787 H 1156.54 2.82103 -1.38798 0
M  V30 12788 N 1160.31 1.56586 -0.178487 0
M  V30 12789 C 1161.59 1.88798 0.511356 0
M  V30 12790 C 1161.97 1.08949 1.80813 0
M  V30 12791 O 1161.31 0.185551 2.27745 0
M  V30 12792 C 1161.52 3.40927 0.746298 0
M  V30 12793 C 1162.87 4.10816 1.0731 0
M  V30 12794 O 1163.9 3.46285 0.834592 0
M  V30 12795 O 1162.75 5.24837 1.52343 0
M  V30 12796 H 1159.85 0.783574 0.264463 0
M  V30 12797 H 1162.39 1.68301 -0.21746 0
M  V30 12798 H 1161.17 3.9093 -0.17015 0
M  V30 12799 H 1160.79 3.67059 1.52817 0
M  V30 12800 N 1161.79 -0.095206 1.57312 0
M  V30 12801 C 1163.01 -0.81227 1.90289 0
M  V30 12802 C 1163.43 -1.72287 0.772178 0
M  V30 12803 O 1162.79 -1.80698 -0.255841 0
M  V30 12804 C 1162.84 -1.62572 3.22882 0
M  V30 12805 O 1162.56 -0.75175 4.31602 0
M  V30 12806 C 1164.06 -2.44585 3.6972 0
M  V30 12807 H 1161.28 -0.232256 0.629522 0
M  V30 12808 H 1163.82 -0.0724733 2.04372 0
M  V30 12809 H 1161.98 -2.31803 3.10397 0
M  V30 12810 H 1162.39 -1.31514 5.07744 0
M  V30 12811 H 1163.87 -2.97155 4.65191 0
M  V30 12812 H 1164.34 -3.23044 2.97555 0
M  V30 12813 H 1164.95 -1.80554 3.85072 0
M  V30 12814 N 1163.26 -1.53291 -0.366026 0
M  V30 12815 C 1164.17 -1.82656 -1.47221 0
M  V30 12816 C 1165.19 -0.71491 -1.58635 0
M  V30 12817 O 1166.37 -1.00492 -1.74538 0
M  V30 12818 C 1163.43 -2.00995 -2.82492 0
M  V30 12819 C 1162.49 -3.24895 -2.8061 0
M  V30 12820 C 1161.73 -3.4235 -4.09429 0
M  V30 12821 O 1161.95 -2.6411 -5.05571 0
M  V30 12822 O 1160.88 -4.35702 -4.15268 0
M  V30 12823 H 1164.71 -2.76634 -1.2533 0
M  V30 12824 H 1162.29 -1.38665 -0.556084 0
M  V30 12825 H 1164.18 -2.14632 -3.62645 0
M  V30 12826 H 1162.85 -1.10207 -3.04362 0
M  V30 12827 H 1161.76 -3.16682 -1.99157 0
M  V30 12828 H 1163.09 -4.15604 -2.63694 0
M  V30 12829 N 1164.74 0.6258 -1.44643 0
M  V30 12830 C 1165.97 1.41028 -1.50979 0
M  V30 12831 C 1166.38 1.88717 -0.135092 0
M  V30 12832 O 1165.72 1.61778 0.870268 0
M  V30 12833 C 1165.79 2.66094 -2.41732 0
M  V30 12834 C 1165.45 2.40166 -3.88805 0
M  V30 12835 C 1166.45 2.01661 -4.79196 0
M  V30 12836 C 1164.13 2.53641 -4.33557 0
M  V30 12837 C 1166.13 1.76966 -6.12341 0
M  V30 12838 C 1163.81 2.2856 -5.66748 0
M  V30 12839 C 1164.81 1.90282 -6.55959 0
M  V30 12840 O 1164.5 1.65484 -7.86683 0
M  V30 12841 H 1164.23 0.438757 -0.514265 0
M  V30 12842 H 1166.78 0.772034 -1.90339 0
M  V30 12843 H 1165.01 3.32575 -1.97309 0
M  V30 12844 H 1166.7 3.28107 -2.38957 0
M  V30 12845 H 1167.47 1.90802 -4.45892 0
M  V30 12846 H 1163.35 2.82404 -3.64375 0
M  V30 12847 H 1166.89 1.47014 -6.81933 0
M  V30 12848 H 1162.79 2.3903 -5.99612 0
M  V30 12849 H 1163.56 1.79686 -7.98533 0
M  V30 12850 N 1166.22 1.31629 0.866686 0
M  V30 12851 C 1167.15 1.22151 1.99001 0
M  V30 12852 C 1168.13 0.107972 1.69757 0
M  V30 12853 O 1169.32 0.293125 1.91975 0
M  V30 12854 C 1166.45 0.93144 3.34577 0
M  V30 12855 C 1165.4 2.0049 3.78137 0
M  V30 12856 C 1164.73 1.56747 5.11209 0
M  V30 12857 C 1166.03 3.41844 3.94892 0
M  V30 12858 H 1167.72 2.16132 2.0719 0
M  V30 12859 H 1165.27 1.04051 0.995463 0
M  V30 12860 H 1167.22 0.851719 4.12703 0
M  V30 12861 H 1165.94 -0.0440289 3.2657 0
M  V30 12862 H 1164.6 2.07457 3.02253 0
M  V30 12863 H 1164.25 0.579767 4.99648 0
M  V30 12864 H 1163.95 2.28562 5.41326 0
M  V30 12865 H 1165.47 1.50188 5.91841 0
M  V30 12866 H 1166.89 3.37534 4.63405 0
M  V30 12867 H 1165.29 4.11905 4.36411 0
M  V30 12868 H 1166.36 3.82389 2.98172 0
M  V30 12869 N 1167.7 -1.08142 1.14644 0
M  V30 12870 C 1168.95 -1.80582 0.916327 0
M  V30 12871 C 1169.27 -1.86355 -0.556969 0
M  V30 12872 O 1168.53 -1.33736 -1.42875 0
M  V30 12873 C 1168.83 -3.25962 1.46573 0
M  V30 12874 C 1168.49 -3.40302 2.95814 0
M  V30 12875 C 1167.16 -3.43922 3.36557 0
M  V30 12876 C 1169.51 -3.43758 3.91765 0
M  V30 12877 C 1166.84 -3.48594 4.7191 0
M  V30 12878 C 1169.19 -3.49965 5.26979 0
M  V30 12879 C 1167.85 -3.5186 5.67231 0
M  V30 12880 H 1167.12 -0.660795 0.335308 0
M  V30 12881 H 1169.77 -1.27309 1.43055 0
M  V30 12882 H 1168.07 -3.81961 0.872507 0
M  V30 12883 H 1169.77 -3.80571 1.2636 0
M  V30 12884 H 1166.36 -3.38176 2.63315 0
M  V30 12885 H 1170.55 -3.40189 3.61366 0
M  V30 12886 H 1165.8 -3.48355 5.02453 0
M  V30 12887 H 1169.98 -3.51585 6.01133 0
M  V30 12888 H 1167.6 -3.55233 6.72097 0
M  V30 12889 N 1169.18 -0.941978 -1.26351 0
M  V30 12890 C 1170.12 -0.450906 -2.26353 0
M  V30 12891 C 1171.09 0.489857 -1.58712 0
M  V30 12892 O 1172.28 0.40589 -1.86433 0
M  V30 12893 C 1169.42 0.277054 -3.43986 0
M  V30 12894 C 1168.53 -0.699474 -4.263 0
M  V30 12895 C 1167.67 0.0497661 -5.31177 0
M  V30 12896 C 1166.71 -0.918531 -6.05169 0
M  V30 12897 N 1165.84 -0.200993 -7.01812 0
M  V30 12898 H 1170.68 -1.30861 -2.6773 0
M  V30 12899 H 1168.22 -0.656514 -1.31637 0
M  V30 12900 H 1170.18 0.715567 -4.11018 0
M  V30 12901 H 1168.81 1.09889 -3.0352 0
M  V30 12902 H 1167.86 -1.2565 -3.59049 0
M  V30 12903 H 1169.17 -1.4389 -4.77595 0
M  V30 12904 H 1168.33 0.547521 -6.04224 0
M  V30 12905 H 1167.07 0.822068 -4.80722 0
M  V30 12906 H 1166.07 -1.4274 -5.30947 0
M  V30 12907 H 1167.3 -1.69085 -6.57713 0
M  V30 12908 H 1165.24 0.552803 -6.53667 0
M  V30 12909 H 1165.16 -0.879735 -7.50864 0
M  V30 12910 H 1166.43 0.275642 -7.79012 0
M  V30 12911 N 1170.66 1.40747 -0.709091 0
M  V30 12912 C 1171.59 2.282 -0.00156906 0
M  V30 12913 C 1172.57 1.42981 0.774279 0
M  V30 12914 O 1173.75 1.724 0.762276 0
M  V30 12915 C 1170.88 3.23441 1.00517 0
M  V30 12916 C 1169.92 4.25291 0.320904 0
M  V30 12917 S 1170.76 5.27069 -0.946518 0
M  V30 12918 C 1171.91 6.25873 0.0582856 0
M  V30 12919 H 1172.15 2.87859 -0.743271 0
M  V30 12920 H 1169.68 1.46085 -0.499866 0
M  V30 12921 H 1171.64 3.78841 1.58082 0
M  V30 12922 H 1170.3 2.62851 1.71954 0
M  V30 12923 H 1169.49 4.92255 1.08173 0
M  V30 12924 H 1169.09 3.73557 -0.18202 0
M  V30 12925 H 1171.38 6.71398 0.907233 0
M  V30 12926 H 1172.33 7.05739 -0.577787 0
M  V30 12927 H 1172.74 5.62942 0.419108 0
M  V30 12928 N 1172.13 0.454803 1.50895 0
M  V30 12929 C 1173.37 -0.104722 2.04132 0
M  V30 12930 C 1173.74 -1.38434 1.33042 0
M  V30 12931 O 1174.94 -2.02521 1.76745 0
M  V30 12932 C 1173.21 -0.300775 3.56132 0
M  V30 12933 S 1174.77 -0.821197 4.31047 0
M  V30 12934 H 1171.59 -0.0236407 0.710607 0
M  V30 12935 H 1174.19 0.618213 1.85468 0
M  V30 12936 H 1172.89 0.636592 4.05433 0
M  V30 12937 H 1172.42 -1.05029 3.79121 0
M  V30 12938 H 1174.44 -2.09669 4.49726 0
M  V30 12939 N 1173.61 -1.56489 0.186789 0
M  V30 12940 C 1174.54 -2.21705 -0.732739 0
M  V30 12941 C 1175.52 -1.17751 -1.22755 0
M  V30 12942 O 1176.71 -1.46231 -1.27789 0
M  V30 12943 C 1173.84 -2.86992 -1.95584 0
M  V30 12944 C 1172.79 -3.97118 -1.59628 0
M  V30 12945 C 1172.12 -4.49529 -2.89531 0
M  V30 12946 C 1173.42 -5.15941 -0.812518 0
M  V30 12947 H 1175.11 -2.98802 -0.189094 0
M  V30 12948 H 1172.66 -1.43722 -0.0895099 0
M  V30 12949 H 1174.61 -3.31295 -2.60426 0
M  V30 12950 H 1173.33 -2.07287 -2.52388 0
M  V30 12951 H 1171.99 -3.53494 -0.971475 0
M  V30 12952 H 1171.64 -3.66596 -3.44407 0
M  V30 12953 H 1171.34 -5.23832 -2.66221 0
M  V30 12954 H 1172.87 -4.96528 -3.55376 0
M  V30 12955 H 1174.28 -5.56841 -1.36386 0
M  V30 12956 H 1172.68 -5.96259 -0.677862 0
M  V30 12957 H 1173.75 -4.84535 0.188095 0
M  V30 12958 N 1175.09 0.086862 -1.5736 0
M  V30 12959 C 1176.34 0.787581 -1.85688 0
M  V30 12960 C 1176.65 1.79494 -0.777263 0
M  V30 12961 O 1177.86 2.54415 -0.947914 0
M  V30 12962 C 1176.31 1.45155 -3.2933 0
M  V30 12963 C 1175.92 0.483539 -4.45383 0
M  V30 12964 C 1177.67 2.13552 -3.66873 0
M  V30 12965 C 1175.57 1.15257 -5.8006 0
M  V30 12966 H 1174.5 0.297882 -0.692663 0
M  V30 12967 H 1177.15 0.0406299 -1.83455 0
M  V30 12968 H 1175.54 2.24625 -3.26128 0
M  V30 12969 H 1176.71 -0.280254 -4.59947 0
M  V30 12970 H 1175.02 -0.0951664 -4.16291 0
M  V30 12971 H 1177.62 2.64355 -4.6478 0
M  V30 12972 H 1177.96 2.92818 -2.95911 0
M  V30 12973 H 1178.5 1.40932 -3.71999 0
M  V30 12974 H 1175.24 0.400546 -6.54275 0
M  V30 12975 H 1174.76 1.88759 -5.69324 0
M  V30 12976 H 1176.44 1.67671 -6.24896 0
M  V30 12977 N 1176.57 1.53483 0.357892 0
M  V30 12978 C 1177.52 1.81143 1.45911 0
M  V30 12979 C 1178.51 0.681002 1.55109 0
M  V30 12980 O 1179.72 0.864086 1.57904 0
M  V30 12981 H 1176.09 0.573663 0.486225 0
M  V30 12982 H 1178.06 2.733 1.19789 0
M  V30 12983 C 1176.81 2.02509 2.8264 0
M  V30 12984 H 1176.13 2.88938 2.76324 0
M  V30 12985 H 1177.57 2.25837 3.58851 0
M  V30 12986 C 1176.03 0.806412 3.27106 0
M  V30 12987 O 1176.56 -0.00116809 4.017 0
M  V30 12988 N 1174.77 0.627677 2.8374 0
M  V30 12989 H 1174.32 1.28601 2.23203 0
M  V30 12990 H 1174.27 -0.186301 3.13848 0
M  V30 12991 N 1178.05 -0.61812 1.44973 0
M  V30 12992 C 1178.99 -1.75059 1.53157 0
M  V30 12993 C 1179.99 -1.64554 0.402282 0
M  V30 12994 O 1181.19 -1.70475 0.577767 0
M  V30 12995 H 1177.57 -0.57817 0.480856 0
M  V30 12996 H 1179.54 -1.65281 2.48445 0
M  V30 12997 C 1178.29 -3.13423 1.50538 0
M  V30 12998 H 1177.61 -3.2216 2.36755 0
M  V30 12999 H 1179.05 -3.92521 1.60323 0
M  V30 13000 C 1177.51 -3.36127 0.228127 0
M  V30 13001 O 1178.04 -3.95618 -0.696364 0
M  V30 13002 N 1176.25 -2.90322 0.127142 0
M  V30 13003 H 1175.79 -2.42091 0.880317 0
M  V30 13004 H 1175.75 -3.05887 -0.726659 0
M  V30 13005 N 1179.52 -1.32087 -0.859693 0
M  V30 13006 C 1180.8 -1.12984 -1.59668 0
M  V30 13007 C 1181.18 0.311661 -2.08787 0
M  V30 13008 O 1180.53 1.30746 -1.87397 0
M  V30 13009 C 1180.74 -2.15305 -2.74672 0
M  V30 13010 C 1182.09 -2.48371 -3.44379 0
M  V30 13011 O 1183.11 -2.13811 -2.84891 0
M  V30 13012 O 1181.97 -3.07594 -4.51717 0
M  V30 13013 H 1179.06 -0.435657 -0.702945 0
M  V30 13014 H 1181.61 -1.43601 -0.90426 0
M  V30 13015 H 1180.38 -3.12223 -2.35866 0
M  V30 13016 H 1180 -1.85653 -3.51594 0
M  V30 13017 N 1181 1.07532 -1.15215 0
M  V30 13018 C 1181.91 2.18222 -0.861192 0
M  V30 13019 C 1182.93 1.73246 0.161798 0
M  V30 13020 O 1184.1 2.01397 -0.0118386 0
M  V30 13021 C 1181.17 3.44902 -0.352601 0
M  V30 13022 C 1180.23 4.04455 -1.43926 0
M  V30 13023 C 1179.46 5.25089 -0.954841 0
M  V30 13024 O 1179.69 5.70048 0.200294 0
M  V30 13025 O 1178.62 5.76269 -1.73774 0
M  V30 13026 H 1182.45 2.45599 -1.78648 0
M  V30 13027 H 1180.03 1.16835 -0.93112 0
M  V30 13028 H 1181.91 4.21333 -0.0753347 0
M  V30 13029 H 1180.59 3.19082 0.544841 0
M  V30 13030 H 1179.49 3.29573 -1.7701 0
M  V30 13031 H 1180.83 4.34544 -2.31155 0
M  V30 13032 N 1182.48 0.948665 1.2585 0
M  V30 13033 C 1183.43 0.434929 2.23813 0
M  V30 13034 C 1184.41 -0.472518 1.53805 0
M  V30 13035 O 1185.61 -0.306542 1.74325 0
M  V30 13036 C 1182.74 -0.291678 3.42059 0
M  V30 13037 C 1181.82 0.633493 4.19342 0
M  V30 13038 N 1182.21 1.76254 4.74097 0
M  V30 13039 C 1180.51 0.440528 4.43819 0
M  V30 13040 C 1181.21 2.33968 5.32573 0
M  V30 13041 N 1180.19 1.62687 5.18685 0
M  V30 13042 H 1183.99 1.29668 2.63749 0
M  V30 13043 H 1181.5 0.805431 1.4102 0
M  V30 13044 H 1183.5 -0.676811 4.1137 0
M  V30 13045 H 1182.16 -1.15011 3.03649 0
M  V30 13046 H 1183.17 2.14453 4.71413 0
M  V30 13047 H 1179.85 -0.375515 4.15808 0
M  V30 13048 H 1181.24 3.2914 5.85761 0
M  V30 13049 N 1183.96 -1.40369 0.716545 0
M  V30 13050 C 1184.89 -2.28196 0.013671 0
M  V30 13051 C 1185.87 -1.4339 -0.766685 0
M  V30 13052 O 1187.05 -1.72801 -0.753123 0
M  V30 13053 C 1184.18 -3.23969 -0.988006 0
M  V30 13054 C 1183.23 -4.25455 -0.298345 0
M  V30 13055 S 1184.06 -5.26559 0.974456 0
M  V30 13056 C 1185.22 -6.25895 -0.0250932 0
M  V30 13057 H 1185.45 -2.87461 0.758526 0
M  V30 13058 H 1182.98 -1.45817 0.507606 0
M  V30 13059 H 1184.94 -3.79674 -1.56071 0
M  V30 13060 H 1183.6 -2.63759 -1.70557 0
M  V30 13061 H 1182.79 -4.92821 -1.05561 0
M  V30 13062 H 1182.4 -3.73455 0.201828 0
M  V30 13063 H 1184.69 -6.7187 -0.871615 0
M  V30 13064 H 1185.63 -7.05422 0.615206 0
M  V30 13065 H 1186.04 -5.63156 -0.389248 0
M  V30 13066 N 1185.44 -0.462799 -1.50652 0
M  V30 13067 C 1186.4 0.324264 -2.26895 0
M  V30 13068 C 1187.4 0.927687 -1.31342 0
M  V30 13069 O 1188.59 0.798159 -1.54839 0
M  V30 13070 C 1185.72 1.46113 -3.08 0
M  V30 13071 H 1186.91 -0.344266 -2.97917 0
M  V30 13072 H 1184.47 -0.216631 -1.54791 0
M  V30 13073 H 1185.2 2.16496 -2.41454 0
M  V30 13074 H 1184.99 1.03433 -3.78212 0
M  V30 13075 H 1186.48 2.01655 -3.65684 0
M  V30 13076 N 1186.91 1.56388 -0.195085 0
M  V30 13077 C 1188.14 2.0167 0.448637 0
M  V30 13078 C 1188.55 1.07439 1.55736 0
M  V30 13079 O 1187.9 0.071441 1.83561 0
M  V30 13080 C 1187.96 3.43348 1.06547 0
M  V30 13081 C 1187.62 4.569 0.0954901 0
M  V30 13082 C 1188.62 5.15232 -0.695116 0
M  V30 13083 C 1186.3 5.02298 -0.0155889 0
M  V30 13084 C 1188.3 6.1741 -1.58377 0
M  V30 13085 C 1185.98 6.0432 -0.907799 0
M  V30 13086 C 1186.98 6.6175 -1.69045 0
M  V30 13087 O 1186.67 7.6179 -2.56771 0
M  V30 13088 H 1186.4 0.665805 0.116962 0
M  V30 13089 H 1188.96 2.03182 -0.301062 0
M  V30 13090 H 1187.19 3.38823 1.86376 0
M  V30 13091 H 1188.88 3.72438 1.61385 0
M  V30 13092 H 1189.64 4.81026 -0.619604 0
M  V30 13093 H 1185.52 4.57293 0.583424 0
M  V30 13094 H 1189.06 6.62164 -2.1951 0
M  V30 13095 H 1184.96 6.37949 -0.984427 0
M  V30 13096 H 1185.73 7.79209 -2.50551 0
M  V30 13097 N 1188.39 -0.0785156 1.57404 0
M  V30 13098 C 1189.32 -1.12058 1.99939 0
M  V30 13099 C 1190.34 -1.35372 0.904343 0
M  V30 13100 O 1191.53 -1.33731 1.1823 0
M  V30 13101 C 1188.63 -2.47285 2.31739 0
M  V30 13102 C 1187.8 -2.44021 3.63005 0
M  V30 13103 C 1186.86 -3.61303 3.82552 0
M  V30 13104 O 1185.88 -3.43039 4.54217 0
M  V30 13105 N 1187.09 -4.81404 3.24392 0
M  V30 13106 H 1189.85 -0.758416 2.89945 0
M  V30 13107 H 1187.41 -0.267266 1.59679 0
M  V30 13108 H 1189.4 -3.24377 2.41995 0
M  V30 13109 H 1187.97 -2.75529 1.47657 0
M  V30 13110 H 1187.19 -1.52361 3.63565 0
M  V30 13111 H 1188.48 -2.38934 4.49208 0
M  V30 13112 H 1187.88 -4.99147 2.66211 0
M  V30 13113 H 1186.44 -5.56031 3.40107 0
M  V30 13114 N 1189.87 -1.5367 -0.349747 0
M  V30 13115 C 1191.1 -1.74294 -1.10928 0
M  V30 13116 C 1191.51 -0.479102 -1.83033 0
M  V30 13117 O 1190.85 0.558621 -1.75 0
M  V30 13118 C 1190.91 -2.86457 -2.17216 0
M  V30 13119 C 1190.58 -4.26274 -1.6474 0
M  V30 13120 C 1191.57 -5.08065 -1.10302 0
M  V30 13121 C 1189.26 -4.72739 -1.69774 0
M  V30 13122 C 1191.25 -6.34417 -0.615938 0
M  V30 13123 C 1188.94 -5.99066 -1.20678 0
M  V30 13124 C 1189.94 -6.79737 -0.6668 0
M  V30 13125 O 1189.63 -8.03691 -0.183143 0
M  V30 13126 H 1189.36 -0.586046 -0.336937 0
M  V30 13127 H 1191.91 -2.01274 -0.409645 0
M  V30 13128 H 1190.14 -2.54988 -2.9072 0
M  V30 13129 H 1191.83 -2.95109 -2.78686 0
M  V30 13130 H 1192.6 -4.73333 -1.05739 0
M  V30 13131 H 1188.48 -4.1001 -2.10744 0
M  V30 13132 H 1192.02 -6.97331 -0.193795 0
M  V30 13133 H 1187.92 -6.33293 -1.24939 0
M  V30 13134 H 1188.69 -8.17946 -0.301008 0
M  V30 13135 N 1191.35 0.610423 -1.45298 0
M  V30 13136 C 1192.28 1.73207 -1.56594 0
M  V30 13137 C 1193.26 1.64893 -0.417651 0
M  V30 13138 O 1194.44 1.83336 -0.64043 0
M  V30 13139 C 1191.57 3.11803 -1.52959 0
M  V30 13140 C 1190.53 3.34925 -2.66475 0
M  V30 13141 C 1189.85 4.73764 -2.47894 0
M  V30 13142 C 1191.15 3.25456 -4.08504 0
M  V30 13143 H 1192.85 1.6401 -2.50482 0
M  V30 13144 H 1190.39 0.787621 -1.20551 0
M  V30 13145 H 1192.35 3.90065 -1.59458 0
M  V30 13146 H 1191.07 3.21833 -0.55599 0
M  V30 13147 H 1189.73 2.59051 -2.59399 0
M  V30 13148 H 1189.38 4.80524 -1.4868 0
M  V30 13149 H 1189.08 4.90191 -3.24016 0
M  V30 13150 H 1190.6 5.54231 -2.56243 0
M  V30 13151 H 1192.02 3.93597 -4.16839 0
M  V30 13152 H 1190.41 3.53414 -4.84994 0
M  V30 13153 H 1191.48 2.22939 -4.30612 0
M  V30 13154 N 1192.83 1.32541 0.852676 0
M  V30 13155 C 1193.77 1.21602 1.98282 0
M  V30 13156 C 1194.77 0.120384 1.68972 0
M  V30 13157 O 1195.97 0.283441 1.77754 0
M  V30 13158 H 1192.35 0.376994 0.650676 0
M  V30 13159 H 1194.32 2.17179 2.04636 0
M  V30 13160 C 1193.07 0.957965 3.34243 0
M  V30 13161 H 1192.39 1.79324 3.57327 0
M  V30 13162 H 1193.83 0.921673 4.13861 0
M  V30 13163 C 1192.29 -0.339271 3.35187 0
M  V30 13164 O 1192.82 -1.3505 3.78318 0
M  V30 13165 N 1191.03 -0.361944 2.88337 0
M  V30 13166 H 1190.57 0.461497 2.53432 0
M  V30 13167 H 1190.53 -1.22976 2.89352 0
M  V30 13168 N 1194.3 -1.0692 1.15784 0
M  V30 13169 C 1195.24 -2.13637 0.802141 0
M  V30 13170 C 1196.22 -1.61058 -0.223384 0
M  V30 13171 O 1197.4 -1.88185 -0.108927 0
M  V30 13172 C 1194.53 -3.38146 0.193568 0
M  V30 13173 C 1193.57 -4.09513 1.19169 0
M  V30 13174 S 1194.41 -4.60351 2.73564 0
M  V30 13175 C 1195.56 -5.88129 2.14138 0
M  V30 13176 H 1195.79 -2.4348 1.70601 0
M  V30 13177 H 1193.33 -1.19259 0.980646 0
M  V30 13178 H 1195.29 -4.10222 -0.151106 0
M  V30 13179 H 1193.95 -3.06473 -0.687968 0
M  V30 13180 H 1193.14 -4.98914 0.714183 0
M  V30 13181 H 1192.74 -3.43422 1.48113 0
M  V30 13182 H 1195.03 -6.60547 1.50614 0
M  V30 13183 H 1195.98 -6.406 3.01724 0
M  V30 13184 H 1196.38 -5.41859 1.5827 0
M  V30 13185 N 1195.78 -0.955326 -1.25345 0
M  V30 13186 C 1196.73 -0.467205 -2.2786 0
M  V30 13187 C 1197.72 0.462873 -1.62954 0
M  V30 13188 O 1198.93 0.339526 -1.76769 0
M  V30 13189 H 1195.31 -0.132586 -0.74022 0
M  V30 13190 H 1197.28 -1.34406 -2.66416 0
M  V30 13191 C 1196.03 0.238898 -3.46878 0
M  V30 13192 H 1195.35 -0.467644 -3.97056 0
M  V30 13193 H 1196.79 0.544444 -4.2049 0
M  V30 13194 C 1195.25 1.46164 -3.03542 0
M  V30 13195 O 1195.78 2.55933 -3.09615 0
M  V30 13196 N 1193.98 1.32324 -2.58725 0
M  V30 13197 H 1193.53 0.430131 -2.53984 0
M  V30 13198 H 1193.49 2.14253 -2.30094 0
M  V30 13199 N 1197.26 1.39987 -0.723979 0
M  V30 13200 C 1198.49 2.05037 -0.27702 0
M  V30 13201 C 1198.9 1.54565 1.08421 0
M  V30 13202 O 1198.26 0.705795 1.683 0
M  V30 13203 C 1198.31 3.60582 -0.25751 0
M  V30 13204 O 1198.03 4.09194 -1.565 0
M  V30 13205 C 1199.53 4.42817 0.206972 0
M  V30 13206 H 1196.75 0.659637 -0.122963 0
M  V30 13207 H 1199.3 1.7924 -0.98454 0
M  V30 13208 H 1197.45 3.85319 0.401037 0
M  V30 13209 H 1197.87 5.03447 -1.47112 0
M  V30 13210 H 1199.34 5.5174 0.16947 0
M  V30 13211 H 1199.82 4.21023 1.25045 0
M  V30 13212 H 1200.42 4.23205 -0.421604 0
M  V30 13213 N 1198.74 0.470782 1.50404 0
M  V30 13214 C 1199.96 -0.084284 2.07229 0
M  V30 13215 C 1200.39 -1.32774 1.33239 0
M  V30 13216 O 1199.75 -1.77274 0.379971 0
M  V30 13217 C 1199.8 -0.351565 3.58882 0
M  V30 13218 O 1198.9 -1.43211 3.86736 0
M  V30 13219 H 1198.24 0.0128479 0.663876 0
M  V30 13220 H 1200.77 0.661735 1.93603 0
M  V30 13221 H 1200.78 -0.592151 4.0368 0
M  V30 13222 H 1199.46 0.557084 4.12152 0
M  V30 13223 H 1198.03 -1.17886 3.53776 0
M  V30 13224 N 1200.22 -1.56282 0.203376 0
M  V30 13225 C 1201.17 -2.20822 -0.730784 0
M  V30 13226 C 1202.16 -1.18193 -1.21354 0
M  V30 13227 O 1203.37 -1.36318 -1.17547 0
M  V30 13228 H 1199.74 -0.707792 -0.254036 0
M  V30 13229 H 1201.71 -2.97955 -0.162825 0
M  V30 13230 C 1200.46 -2.88803 -1.93618 0
M  V30 13231 H 1199.78 -3.67521 -1.57379 0
M  V30 13232 H 1201.22 -3.37387 -2.56799 0
M  V30 13233 C 1199.68 -1.90285 -2.78017 0
M  V30 13234 O 1200.21 -1.40833 -3.76203 0
M  V30 13235 N 1198.42 -1.58332 -2.43679 0
M  V30 13236 H 1197.97 -1.9874 -1.63891 0
M  V30 13237 H 1197.92 -0.926722 -3.00432 0
M  V30 13238 N 1201.7 0.070167 -1.57444 0
M  V30 13239 C 1202.64 1.08322 -2.03801 0
M  V30 13240 C 1203.61 1.38364 -0.918946 0
M  V30 13241 O 1204.8 1.49404 -1.18672 0
M  V30 13242 C 1201.94 2.39128 -2.48821 0
M  V30 13243 C 1201.05 2.15603 -3.74352 0
M  V30 13244 C 1200.19 3.39984 -4.08148 0
M  V30 13245 C 1199.22 3.1183 -5.26715 0
M  V30 13246 N 1198.36 4.28546 -5.56141 0
M  V30 13247 H 1203.2 0.680931 -2.90116 0
M  V30 13248 H 1200.74 0.324657 -1.43473 0
M  V30 13249 H 1202.7 3.15501 -2.72975 0
M  V30 13250 H 1201.33 2.77157 -1.65481 0
M  V30 13251 H 1200.38 1.29915 -3.57528 0
M  V30 13252 H 1201.69 1.90808 -4.60862 0
M  V30 13253 H 1200.84 4.2475 -4.33211 0
M  V30 13254 H 1199.58 3.67856 -3.20208 0
M  V30 13255 H 1198.59 2.2546 -5.01446 0
M  V30 13256 H 1199.81 2.85278 -6.16273 0
M  V30 13257 H 1197.76 4.56447 -4.71161 0
M  V30 13258 H 1197.68 4.0703 -6.37073 0
M  V30 13259 H 1198.94 5.14305 -5.85757 0
M  V30 13260 N 1203.17 1.53854 0.341593 0
M  V30 13261 C 1204.12 1.81979 1.41959 0
M  V30 13262 C 1205.09 0.665616 1.5218 0
M  V30 13263 O 1206.28 0.910246 1.67688 0
M  V30 13264 C 1203.42 2.03681 2.78583 0
M  V30 13265 C 1202.53 3.31389 2.77137 0
M  V30 13266 C 1201.66 3.43148 4.05491 0
M  V30 13267 C 1200.7 4.64799 3.98282 0
M  V30 13268 N 1199.84 4.73581 5.18329 0
M  V30 13269 H 1204.68 2.73953 1.17275 0
M  V30 13270 H 1202.22 1.35689 0.568062 0
M  V30 13271 H 1204.17 2.14253 3.57983 0
M  V30 13272 H 1202.8 1.15017 3.01614 0
M  V30 13273 H 1201.86 3.29649 1.89832 0
M  V30 13274 H 1203.17 4.20885 2.67689 0
M  V30 13275 H 1202.32 3.53163 4.93316 0
M  V30 13276 H 1201.06 2.51712 4.17723 0
M  V30 13277 H 1200.07 4.54859 3.08842 0
M  V30 13278 H 1201.29 5.57601 3.87631 0
M  V30 13279 H 1199.24 3.85055 5.31102 0
M  V30 13280 H 1199.15 5.57016 5.11145 0
M  V30 13281 H 1200.42 4.87908 6.0792 0
M  V30 13282 N 1204.65 -0.602709 1.4562 0
M  V30 13283 C 1205.6 -1.71312 1.54664 0
M  V30 13284 C 1206.57 -1.61403 0.392197 0
M  V30 13285 O 1207.75 -1.80911 0.606297 0
M  V30 13286 C 1204.89 -3.09629 1.52393 0
M  V30 13287 C 1204.01 -3.30308 2.78425 0
M  V30 13288 C 1203.14 -4.5876 2.67793 0
M  V30 13289 C 1202.18 -4.72713 3.88855 0
M  V30 13290 N 1201.32 -5.92469 3.76729 0
M  V30 13291 H 1206.16 -1.62918 2.49523 0
M  V30 13292 H 1203.69 -0.794324 1.2381 0
M  V30 13293 H 1205.65 -3.89661 1.49064 0
M  V30 13294 H 1204.28 -3.16968 0.610816 0
M  V30 13295 H 1203.33 -2.44018 2.9182 0
M  V30 13296 H 1204.65 -3.36491 3.68205 0
M  V30 13297 H 1203.8 -5.46993 2.62457 0
M  V30 13298 H 1202.54 -4.54983 1.75619 0
M  V30 13299 H 1201.54 -3.82903 3.94545 0
M  V30 13300 H 1202.77 -4.78284 4.82101 0
M  V30 13301 H 1200.72 -5.89728 2.87328 0
M  V30 13302 H 1200.63 -5.99833 4.60148 0
M  V30 13303 H 1201.9 -6.83187 3.75334 0
M  V30 13304 N 1206.13 -1.32992 -0.845635 0
M  V30 13305 C 1207.08 -1.22682 -1.95494 0
M  V30 13306 C 1208.05 -0.106942 -1.65755 0
M  V30 13307 O 1209.23 -0.28405 -1.88674 0
M  V30 13308 C 1206.37 -0.965068 -3.31331 0
M  V30 13309 C 1205.48 -2.17058 -3.7351 0
M  V30 13310 C 1204.62 -1.84355 -4.98183 0
M  V30 13311 C 1203.66 -3.01176 -5.32878 0
M  V30 13312 N 1202.8 -2.68506 -6.48729 0
M  V30 13313 H 1207.64 -2.17562 -2.03644 0
M  V30 13314 H 1205.17 -1.08194 -0.996613 0
M  V30 13315 H 1207.13 -0.793771 -4.09579 0
M  V30 13316 H 1205.76 -0.0530285 -3.22756 0
M  V30 13317 H 1204.81 -2.45185 -2.90841 0
M  V30 13318 H 1206.12 -3.04413 -3.95138 0
M  V30 13319 H 1205.28 -1.6383 -5.84162 0
M  V30 13320 H 1204.02 -0.942264 -4.78511 0
M  V30 13321 H 1203.02 -3.22323 -4.45408 0
M  V30 13322 H 1204.25 -3.9205 -5.54503 0
M  V30 13323 H 1202.19 -1.80929 -6.30556 0
M  V30 13324 H 1202.11 -3.49392 -6.70419 0
M  V30 13325 H 1203.38 -2.51432 -7.37836 0
M  V30 13326 N 1207.61 1.06304 -1.1635 0
M  V30 13327 C 1208.56 2.15879 -0.865967 0
M  V30 13328 C 1209.55 1.68595 0.164929 0
M  V30 13329 O 1210.76 1.7999 0.0189271 0
M  V30 13330 H 1207.13 0.704721 -0.262435 0
M  V30 13331 H 1209.1 2.38185 -1.79751 0
M  V30 13332 C 1207.85 3.4558 -0.383374 0
M  V30 13333 H 1207.17 3.82356 -1.16806 0
M  V30 13334 H 1208.61 4.2346 -0.213964 0
M  V30 13335 C 1207.07 3.24738 0.897044 0
M  V30 13336 O 1207.6 3.50284 1.96632 0
M  V30 13337 N 1205.81 2.78172 0.840761 0
M  V30 13338 H 1205.36 2.57583 -0.029584 0
M  V30 13339 H 1205.31 2.64606 1.69797 0
M  V30 13340 N 1209.09 0.96196 1.24836 0
M  V30 13341 C 1210.31 0.63814 1.96813 0
M  V30 13342 C 1210.73 -0.79127 1.71419 0
M  V30 13343 O 1210.09 -1.5302 0.994546 0
M  V30 13344 C 1210.14 0.89626 3.50213 0
M  V30 13345 O 1209.86 2.26947 3.74735 0
M  V30 13346 C 1211.36 0.585836 4.39412 0
M  V30 13347 H 1208.58 0.238598 0.627146 0
M  V30 13348 H 1211.12 1.28833 1.58815 0
M  V30 13349 H 1209.28 0.292368 3.86295 0
M  V30 13350 H 1209.69 2.34514 4.69152 0
M  V30 13351 H 1211.17 0.816935 5.45921 0
M  V30 13352 H 1211.64 -0.479784 4.36572 0
M  V30 13353 H 1212.25 1.16938 4.08908 0
M  V30 13354 N 1210.56 -1.39601 0.731392 0
M  V30 13355 C 1211.5 -2.28169 0.0378735 0
M  V30 13356 C 1212.47 -1.44195 -0.751434 0
M  V30 13357 O 1213.66 -1.7359 -0.734753 0
M  V30 13358 C 1210.79 -3.24999 -0.953589 0
M  V30 13359 C 1209.83 -4.25748 -0.253203 0
M  V30 13360 S 1210.66 -5.25496 1.03025 0
M  V30 13361 C 1211.82 -6.25886 0.0412927 0
M  V30 13362 H 1212.05 -2.8664 0.788973 0
M  V30 13363 H 1209.59 -1.45271 0.523044 0
M  V30 13364 H 1211.54 -3.81308 -1.52035 0
M  V30 13365 H 1210.21 -2.65554 -1.6775 0
M  V30 13366 H 1209.4 -4.93913 -1.00328 0
M  V30 13367 H 1209 -3.7322 0.241426 0
M  V30 13368 H 1211.29 -6.72757 -0.800305 0
M  V30 13369 H 1212.24 -7.0473 0.68999 0
M  V30 13370 H 1212.64 -5.63538 -0.329495 0
M  V30 13371 N 1212.04 -0.478751 -1.50152 0
M  V30 13372 C 1212.97 0.301182 -2.31549 0
M  V30 13373 C 1213.95 0.983276 -1.38801 0
M  V30 13374 O 1215.14 0.978973 -1.67719 0
M  V30 13375 C 1212.27 1.3791 -3.18745 0
M  V30 13376 C 1211.22 0.818175 -4.20107 0
M  V30 13377 C 1210.55 1.99496 -4.9609 0
M  V30 13378 C 1211.85 -0.17574 -5.22004 0
M  V30 13379 H 1213.54 -0.378188 -2.97002 0
M  V30 13380 H 1211.09 -0.183323 -1.42828 0
M  V30 13381 H 1213.04 1.93227 -3.74488 0
M  V30 13382 H 1211.77 2.08735 -2.51192 0
M  V30 13383 H 1210.42 0.286924 -3.65475 0
M  V30 13384 H 1210.07 2.69036 -4.25004 0
M  V30 13385 H 1209.77 1.62582 -5.6466 0
M  V30 13386 H 1211.3 2.55288 -5.54671 0
M  V30 13387 H 1212.71 0.288513 -5.72574 0
M  V30 13388 H 1211.11 -0.459549 -5.98338 0
M  V30 13389 H 1212.18 -1.09911 -4.72279 0
M  V30 13390 N 1213.52 1.56172 -0.211661 0
M  V30 13391 C 1214.47 2.21206 0.719063 0
M  V30 13392 C 1215.46 1.18835 1.20725 0
M  V30 13393 O 1216.67 1.36939 1.16823 0
M  V30 13394 H 1213.04 0.709129 0.250279 0
M  V30 13395 H 1215.01 2.98038 0.147022 0
M  V30 13396 C 1213.76 2.89826 1.92084 0
M  V30 13397 H 1213.09 3.68351 1.55428 0
M  V30 13398 H 1214.53 3.38744 2.55006 0
M  V30 13399 C 1212.99 1.91756 2.77004 0
M  V30 13400 O 1213.52 1.42826 3.75451 0
M  V30 13401 N 1211.72 1.59622 2.42836 0
M  V30 13402 H 1211.27 1.99606 1.62835 0
M  V30 13403 H 1211.23 0.942641 2.99936 0
M  V30 13404 N 1215 -0.0618163 1.57479 0
M  V30 13405 C 1215.95 -1.09105 2.05424 0
M  V30 13406 C 1216.94 -1.3947 0.961479 0
M  V30 13407 O 1218.15 -1.3876 1.14655 0
M  V30 13408 H 1214.52 -0.36923 0.655113 0
M  V30 13409 H 1216.49 -0.66061 2.90996 0
M  V30 13410 C 1215.24 -2.39345 2.52209 0
M  V30 13411 H 1214.56 -2.16832 3.35893 0
M  V30 13412 H 1216 -3.09784 2.89499 0
M  V30 13413 C 1214.46 -3.06011 1.40922 0
M  V30 13414 O 1214.99 -3.94504 0.756921 0
M  V30 13415 N 1213.2 -2.66797 1.15186 0
M  V30 13416 H 1212.75 -1.94923 1.68412 0
M  V30 13417 H 1212.7 -3.11724 0.409324 0
M  V30 13418 N 1216.48 -1.54033 -0.333429 0
M  V30 13419 C 1217.42 -1.83441 -1.43011 0
M  V30 13420 C 1218.42 -0.705592 -1.54006 0
M  V30 13421 O 1219.62 -0.889098 -1.56509 0
M  V30 13422 H 1216 -0.581326 -0.477037 0
M  V30 13423 H 1217.97 -2.75172 -1.15426 0
M  V30 13424 C 1216.72 -2.0698 -2.79382 0
M  V30 13425 H 1216.04 -2.93297 -2.71692 0
M  V30 13426 H 1217.48 -2.31517 -3.55212 0
M  V30 13427 C 1215.94 -0.85835 -3.25782 0
M  V30 13428 O 1216.47 -0.062739 -4.01651 0
M  V30 13429 N 1214.68 -0.672738 -2.82706 0
M  V30 13430 H 1214.22 -1.32136 -2.21128 0
M  V30 13431 H 1214.18 0.136347 -3.14104 0
M  V30 13432 N 1217.95 0.594978 -1.45938 0
M  V30 13433 C 1218.9 1.726 -1.55923 0
M  V30 13434 C 1219.9 1.63893 -0.428411 0
M  V30 13435 O 1221.1 1.69535 -0.604815 0
M  V30 13436 H 1217.48 0.570447 -0.489994 0
M  V30 13437 H 1219.45 1.61308 -2.51043 0
M  V30 13438 C 1218.2 3.10988 -1.55505 0
M  V30 13439 H 1217.52 3.18353 -2.4185 0
M  V30 13440 H 1218.96 3.8992 -1.66548 0
M  V30 13441 C 1217.42 3.35721 -0.281573 0
M  V30 13442 O 1217.95 3.96676 0.633336 0
M  V30 13443 N 1216.16 2.90083 -0.173314 0
M  V30 13444 H 1215.7 2.4066 -0.91872 0
M  V30 13445 H 1215.66 3.07005 0.677903 0
M  V30 13446 N 1219.43 1.33438 0.838571 0
M  V30 13447 C 1220.38 1.23698 1.96981 0
M  V30 13448 C 1221.37 0.138299 1.68835 0
M  V30 13449 O 1222.58 0.302278 1.77444 0
M  V30 13450 H 1218.96 0.383874 0.646641 0
M  V30 13451 H 1220.93 2.19337 2.02321 0
M  V30 13452 C 1219.68 0.993362 3.33208 0
M  V30 13453 H 1219 1.83104 3.55405 0
M  V30 13454 H 1220.44 0.965517 4.1286 0
M  V30 13455 C 1218.9 -0.303701 3.35528 0
M  V30 13456 O 1219.43 -1.3103 3.79729 0
M  V30 13457 N 1217.63 -0.331342 2.88705 0
M  V30 13458 H 1217.18 0.488351 2.52929 0
M  V30 13459 H 1217.14 -1.199 2.9064 0
M  V30 13460 N 1220.91 -1.05686 1.16912 0
M  V30 13461 C 1221.86 -2.15417 0.877404 0
M  V30 13462 C 1222.85 -1.6868 -0.155986 0
M  V30 13463 O 1224.06 -1.79998 -0.00938156 0
M  V30 13464 H 1220.43 -0.70332 0.266168 0
M  V30 13465 H 1222.4 -2.37228 1.81012 0
M  V30 13466 C 1221.15 -3.45372 0.401696 0
M  V30 13467 H 1220.48 -3.81732 1.18832 0
M  V30 13468 H 1221.92 -4.2334 0.236418 0
M  V30 13469 C 1220.38 -3.25209 -0.87981 0
M  V30 13470 O 1220.91 -3.51322 -1.94771 0
M  V30 13471 N 1219.11 -2.78614 -0.825997 0
M  V30 13472 H 1218.66 -2.57564 0.0432439 0
M  V30 13473 H 1218.62 -2.65503 -1.68391 0
M  V30 13474 N 1222.39 -0.968567 -1.24324 0
M  V30 13475 C 1223.34 -0.491346 -2.27351 0
M  V30 13476 C 1224.33 0.445563 -1.63435 0
M  V30 13477 O 1225.54 0.320758 -1.77119 0
M  V30 13478 H 1221.91 -0.14043 -0.738772 0
M  V30 13479 H 1223.88 -1.37224 -2.64976 0
M  V30 13480 C 1222.63 0.202093 -3.47112 0
M  V30 13481 H 1221.95 -0.50973 -3.96537 0
M  V30 13482 H 1223.39 0.499815 -4.21044 0
M  V30 13483 C 1221.85 1.42937 -3.05075 0
M  V30 13484 O 1222.38 2.52635 -3.12312 0
M  V30 13485 N 1220.59 1.29572 -2.60114 0
M  V30 13486 H 1220.14 0.403169 -2.54425 0
M  V30 13487 H 1220.09 2.118 -2.32353 0
M  V30 13488 N 1223.87 1.39211 -0.738786 0
M  V30 13489 C 1224.81 2.32424 -0.0904601 0
M  V30 13490 C 1225.81 1.53258 0.721694 0
M  V30 13491 O 1227.01 1.68895 0.622454 0
M  V30 13492 H 1223.39 0.751927 -0.010453 0
M  V30 13493 H 1225.36 2.84726 -0.892945 0
M  V30 13494 C 1224.11 3.38377 0.799783 0
M  V30 13495 H 1223.43 3.99375 0.18424 0
M  V30 13496 H 1224.87 4.0604 1.22096 0
M  V30 13497 C 1223.33 2.75734 1.93578 0
M  V30 13498 O 1223.86 2.63876 3.02874 0
M  V30 13499 N 1222.07 2.33764 1.72634 0
M  V30 13500 H 1221.61 2.43609 0.837413 0
M  V30 13501 H 1221.57 1.92191 2.48817 0
M  V30 13502 N 1225.34 0.486708 1.49896 0
M  V30 13503 C 1226.29 -0.313156 2.30482 0
M  V30 13504 C 1227.29 -0.976043 1.38455 0
M  V30 13505 O 1228.49 -0.905364 1.55574 0
M  V30 13506 H 1224.87 -0.119839 0.74239 0
M  V30 13507 H 1226.84 0.386701 2.95884 0
M  V30 13508 C 1225.59 -1.37334 3.19429 0
M  V30 13509 H 1224.91 -0.87265 3.9016 0
M  V30 13510 H 1226.35 -1.90526 3.78782 0
M  V30 13511 C 1224.81 -2.38378 2.38071 0
M  V30 13512 O 1225.34 -3.43972 2.07476 0
M  V30 13513 N 1223.55 -2.10486 2.00359 0
M  V30 13514 H 1223.09 -1.24638 2.2544 0
M  V30 13515 H 1223.05 -2.78324 1.46229 0
M  V30 13516 N 1226.82 -1.56058 0.219941 0
M  V30 13517 C 1227.77 -2.21585 -0.707321 0
M  V30 13518 C 1228.77 -1.19473 -1.20094 0
M  V30 13519 O 1229.97 -1.37557 -1.16095 0
M  V30 13520 H 1226.35 -0.710447 -0.246515 0
M  V30 13521 H 1228.32 -2.98111 -0.131214 0
M  V30 13522 C 1227.07 -2.90841 -1.90544 0
M  V30 13523 H 1226.39 -3.6917 -1.53472 0
M  V30 13524 H 1227.83 -3.40092 -2.53206 0
M  V30 13525 C 1226.29 -1.93223 -2.75983 0
M  V30 13526 O 1226.82 -1.44815 -3.74689 0
M  V30 13527 N 1225.02 -1.60907 -2.41986 0
M  V30 13528 H 1224.57 -2.00467 -1.61774 0
M  V30 13529 H 1224.53 -0.958534 -2.99432 0
M  V30 13530 N 1228.3 0.053464 -1.57509 0
M  V30 13531 C 1229.25 1.08014 -2.05999 0
M  V30 13532 C 1230.24 1.38958 -0.968862 0
M  V30 13533 O 1231.45 1.3815 -1.15389 0
M  V30 13534 H 1227.82 0.36575 -0.657062 0
M  V30 13535 H 1229.8 0.645169 -2.91342 0
M  V30 13536 C 1228.54 2.38004 -2.53475 0
M  V30 13537 H 1227.87 2.15048 -3.37038 0
M  V30 13538 H 1229.31 3.08244 -2.91138 0
M  V30 13539 C 1227.77 3.05259 -1.42543 0
M  V30 13540 O 1228.3 3.94097 -0.777832 0
M  V30 13541 N 1226.5 2.66182 -1.16599 0
M  V30 13542 H 1226.05 1.94027 -1.69444 0
M  V30 13543 H 1226.01 3.11503 -0.42585 0
M  V30 13544 N 1229.78 1.54207 0.325255 0
M  V30 13545 C 1231.03 1.72587 1.06497 0
M  V30 13546 C 1231.36 0.497228 1.87727 0
M  V30 13547 O 1230.63 -0.505804 1.87808 0
M  V30 13548 C 1230.92 3.00046 1.99109 0
M  V30 13549 C 1230.77 4.33158 1.21221 0
M  V30 13550 C 1232.09 3.23251 2.98658 0
M  V30 13551 H 1229.21 0.627974 0.38577 0
M  V30 13552 H 1231.85 1.869 0.34179 0
M  V30 13553 H 1230 2.87973 2.60775 0
M  V30 13554 H 1231.67 4.57111 0.620289 0
M  V30 13555 H 1229.91 4.30739 0.514462 0
M  V30 13556 H 1230.59 5.18558 1.89214 0
M  V30 13557 H 1233.06 3.34774 2.47114 0
M  V30 13558 H 1231.94 4.13796 3.60645 0
M  V30 13559 H 1232.2 2.40401 3.71026 0
M  V30 13560 N 1231.26 -0.58723 1.46251 0
M  V30 13561 C 1232.5 -1.3476 1.51551 0
M  V30 13562 C 1232.84 -1.93499 0.16483 0
M  V30 13563 O 1232.11 -1.7622 -0.823207 0
M  V30 13564 C 1232.39 -2.48033 2.61059 0
M  V30 13565 C 1232.25 -1.94358 4.05642 0
M  V30 13566 C 1233.57 -3.50096 2.66685 0
M  V30 13567 H 1230.69 -0.48863 0.551733 0
M  V30 13568 H 1233.33 -0.660097 1.78165 0
M  V30 13569 H 1231.48 -3.06679 2.38496 0
M  V30 13570 H 1233.15 -1.40204 4.39478 0
M  V30 13571 H 1231.39 -1.25217 4.15335 0
M  V30 13572 H 1232.06 -2.76105 4.77986 0
M  V30 13573 H 1234.54 -3.01324 2.86955 0
M  V30 13574 H 1233.42 -4.26817 3.45135 0
M  V30 13575 H 1233.68 -4.07032 1.7256 0
M  V30 13576 N 1232.74 -1.33881 -0.831482 0
M  V30 13577 C 1234.15 -1.23112 -1.40358 0
M  V30 13578 C 1234.5 0.146944 -1.95649 0
M  V30 13579 O 1233.62 1.04689 -1.89391 0
M  V30 13580 C 1234.22 -2.22899 -2.5515 0
M  V30 13581 C 1232.78 -2.15946 -3.08292 0
M  V30 13582 C 1231.92 -2.09975 -1.81124 0
M  V30 13583 H 1234.87 -1.45372 -0.63661 0
M  V30 13584 H 1234.9 -1.841 -3.32997 0
M  V30 13585 H 1234.41 -3.23186 -2.14878 0
M  V30 13586 H 1232.51 -1.18987 -3.53091 0
M  V30 13587 H 1232.62 -3.06822 -3.67964 0
M  V30 13588 H 1230.99 -1.55564 -2.01673 0
M  V30 13589 H 1231.77 -3.12082 -1.43037 0
M  V30 13590 N 1234.21 1.05064 -1.1747 0
M  V30 13591 C 1235.14 2.14786 -0.915936 0
M  V30 13592 C 1236.12 1.69502 0.142561 0
M  V30 13593 O 1237.31 1.94198 -0.00794522 0
M  V30 13594 C 1234.44 3.44629 -0.429864 0
M  V30 13595 C 1233.39 4.03486 -1.42769 0
M  V30 13596 C 1232.72 5.28689 -0.799528 0
M  V30 13597 C 1234.02 4.40823 -2.80129 0
M  V30 13598 H 1235.71 2.3669 -1.83352 0
M  V30 13599 H 1233.26 1.13751 -0.882992 0
M  V30 13600 H 1235.21 4.20737 -0.236245 0
M  V30 13601 H 1233.94 3.22381 0.523263 0
M  V30 13602 H 1232.6 3.29449 -1.60808 0
M  V30 13603 H 1232.24 5.02744 0.160474 0
M  V30 13604 H 1231.94 5.69028 -1.46565 0
M  V30 13605 H 1233.47 6.07483 -0.616212 0
M  V30 13606 H 1234.88 5.07959 -2.65801 0
M  V30 13607 H 1233.28 4.92183 -3.43331 0
M  V30 13608 H 1234.35 3.51108 -3.34441 0
M  V30 13609 N 1235.69 0.975146 1.23809 0
M  V30 13610 C 1236.64 0.503396 2.27087 0
M  V30 13611 C 1237.63 -0.43689 1.63669 0
M  V30 13612 O 1238.84 -0.31136 1.77287 0
M  V30 13613 H 1235.21 0.144346 0.738017 0
M  V30 13614 H 1237.19 1.38627 2.64244 0
M  V30 13615 C 1235.93 -0.183682 3.47214 0
M  V30 13616 H 1235.26 0.530753 3.96261 0
M  V30 13617 H 1236.7 -0.477479 4.21303 0
M  V30 13618 C 1235.16 -1.41317 3.05829 0
M  V30 13619 O 1235.69 -2.50975 3.13647 0
M  V30 13620 N 1233.89 -1.28191 2.60798 0
M  V30 13621 H 1233.44 -0.38967 2.54636 0
M  V30 13622 H 1233.4 -2.10565 2.33473 0
M  V30 13623 N 1237.17 -1.38817 0.746158 0
M  V30 13624 C 1238.08 -2.34316 0.115386 0
M  V30 13625 C 1239.1 -1.58892 -0.709179 0
M  V30 13626 O 1240.27 -1.91126 -0.635059 0
M  V30 13627 C 1237.34 -3.37977 -0.772821 0
M  V30 13628 C 1236.4 -4.2925 0.0652679 0
M  V30 13629 C 1235.63 -5.2796 -0.78064 0
M  V30 13630 O 1235.85 -5.33474 -2.01896 0
M  V30 13631 O 1234.79 -6.01556 -0.20338 0
M  V30 13632 H 1238.61 -2.89937 0.903887 0
M  V30 13633 H 1236.2 -1.40536 0.506958 0
M  V30 13634 H 1238.08 -4.01468 -1.28068 0
M  V30 13635 H 1236.76 -2.84723 -1.53994 0
M  V30 13636 H 1235.66 -3.68945 0.61891 0
M  V30 13637 H 1237 -4.85739 0.794871 0
M  V30 13638 N 1238.65 -0.49465 -1.49636 0
M  V30 13639 C 1239.59 0.287153 -2.29007 0
M  V30 13640 C 1240.56 0.966099 -1.35114 0
M  V30 13641 O 1241.75 0.973991 -1.64067 0
M  V30 13642 C 1238.89 1.34941 -3.17624 0
M  V30 13643 C 1238 0.682879 -4.26569 0
M  V30 13644 C 1237.14 1.72503 -5.0241 0
M  V30 13645 C 1236.18 1.04003 -6.032 0
M  V30 13646 N 1235.31 2.0261 -6.7223 0
M  V30 13647 H 1240.15 -0.395941 -2.95358 0
M  V30 13648 H 1237.69 -0.207103 -1.45635 0
M  V30 13649 H 1239.65 1.9772 -3.67372 0
M  V30 13650 H 1238.28 2.00135 -2.5327 0
M  V30 13651 H 1237.33 -0.0580477 -3.80356 0
M  V30 13652 H 1238.64 0.143334 -4.98594 0
M  V30 13653 H 1237.8 2.42804 -5.55996 0
M  V30 13654 H 1236.54 2.29843 -4.30144 0
M  V30 13655 H 1235.54 0.322765 -5.48852 0
M  V30 13656 H 1236.77 0.473219 -6.77449 0
M  V30 13657 H 1234.71 2.58922 -6.0274 0
M  V30 13658 H 1234.63 1.53704 -7.4021 0
M  V30 13659 H 1235.9 2.72218 -7.30423 0
M  V30 13660 N 1240.13 1.55939 -0.228214 0
M  V30 13661 C 1241.07 2.20581 0.679157 0
M  V30 13662 C 1242.04 1.16355 1.18536 0
M  V30 13663 O 1243.23 1.44735 1.24324 0
M  V30 13664 C 1240.37 2.89477 1.87875 0
M  V30 13665 C 1239.48 4.08313 1.41083 0
M  V30 13666 C 1238.62 4.64974 2.56851 0
M  V30 13667 C 1237.65 5.76098 2.06828 0
M  V30 13668 N 1236.79 6.27021 3.15894 0
M  V30 13669 H 1241.63 2.97753 0.121203 0
M  V30 13670 H 1239.17 1.47021 0.0480688 0
M  V30 13671 H 1241.13 3.2761 2.58317 0
M  V30 13672 H 1239.76 2.14811 2.40948 0
M  V30 13673 H 1238.81 3.75621 0.601102 0
M  V30 13674 H 1240.12 4.8859 1.00408 0
M  V30 13675 H 1239.27 5.05584 3.35365 0
M  V30 13676 H 1238.01 3.83875 3.00818 0
M  V30 13677 H 1237.02 5.34984 1.26778 0
M  V30 13678 H 1238.24 6.59037 1.63852 0
M  V30 13679 H 1236.19 5.48833 3.5933 0
M  V30 13680 H 1236.11 7.02439 2.79491 0
M  V30 13681 H 1237.37 6.72289 3.94523 0
M  V30 13682 N 1241.6 -0.0451101 1.57535 0
M  V30 13683 C 1242.55 -1.05066 2.05499 0
M  V30 13684 C 1243.52 -1.36884 0.940843 0
M  V30 13685 O 1244.71 -1.47497 1.21034 0
M  V30 13686 C 1241.85 -2.35139 2.52594 0
M  V30 13687 C 1240.96 -2.0962 3.77735 0
M  V30 13688 C 1240.09 -3.33447 4.13505 0
M  V30 13689 C 1239.13 -3.03411 5.31609 0
M  V30 13690 N 1238.27 -4.19644 5.62888 0
M  V30 13691 H 1243.11 -0.63469 2.91163 0
M  V30 13692 H 1240.65 -0.30179 1.43971 0
M  V30 13693 H 1242.61 -3.11118 2.7796 0
M  V30 13694 H 1241.24 -2.74489 1.69869 0
M  V30 13695 H 1240.29 -1.24211 3.59549 0
M  V30 13696 H 1241.6 -1.83452 4.63839 0
M  V30 13697 H 1240.75 -4.17805 4.39914 0
M  V30 13698 H 1239.49 -3.62715 3.2602 0
M  V30 13699 H 1238.5 -2.17453 5.04969 0
M  V30 13700 H 1239.72 -2.75438 6.20734 0
M  V30 13701 H 1237.67 -4.48893 4.78363 0
M  V30 13702 H 1237.59 -3.96843 6.43468 0
M  V30 13703 H 1238.85 -5.04921 5.93865 0
M  V30 13704 N 1243.08 -1.54377 -0.317073 0
M  V30 13705 C 1244.01 -1.8721 -1.39552 0
M  V30 13706 C 1244.99 -0.729483 -1.53664 0
M  V30 13707 O 1246.18 -0.983799 -1.67437 0
M  V30 13708 C 1243.31 -2.1052 -2.76222 0
M  V30 13709 C 1242.26 -3.26366 -2.76892 0
M  V30 13710 C 1241.59 -3.35061 -4.16699 0
M  V30 13711 C 1242.89 -4.63862 -2.40061 0
M  V30 13712 H 1244.58 -2.77532 -1.12323 0
M  V30 13713 H 1242.13 -1.33536 -0.538897 0
M  V30 13714 H 1244.08 -2.32073 -3.51739 0
M  V30 13715 H 1242.81 -1.16953 -3.04942 0
M  V30 13716 H 1241.46 -3.0471 -2.03831 0
M  V30 13717 H 1241.11 -2.39041 -4.4257 0
M  V30 13718 H 1240.81 -4.12923 -4.18053 0
M  V30 13719 H 1242.34 -3.58856 -4.94019 0
M  V30 13720 H 1243.75 -4.85252 -3.05292 0
M  V30 13721 H 1242.15 -5.44321 -2.52655 0
M  V30 13722 H 1243.22 -4.6567 -1.35202 0
M  V30 13723 N 1244.56 0.579466 -1.4656 0
M  V30 13724 C 1245.79 1.36153 -1.55389 0
M  V30 13725 C 1246.2 1.88192 -0.195062 0
M  V30 13726 O 1245.54 1.64464 0.81836 0
M  V30 13727 C 1245.6 2.58269 -2.50075 0
M  V30 13728 C 1245.27 2.27675 -3.96249 0
M  V30 13729 C 1246.26 1.86313 -4.85369 0
M  V30 13730 C 1243.95 2.39719 -4.41407 0
M  V30 13731 C 1245.94 1.57395 -6.17661 0
M  V30 13732 C 1243.63 2.10414 -5.73733 0
M  V30 13733 C 1244.63 1.69317 -6.6168 0
M  V30 13734 O 1244.32 1.40373 -7.9155 0
M  V30 13735 H 1244.05 0.422174 -0.527963 0
M  V30 13736 H 1246.6 0.711089 -1.92698 0
M  V30 13737 H 1244.83 3.26129 -2.0779 0
M  V30 13738 H 1246.52 3.20339 -2.49275 0
M  V30 13739 H 1247.29 1.7652 -4.51736 0
M  V30 13740 H 1243.17 2.70669 -3.73175 0
M  V30 13741 H 1246.71 1.25244 -6.86265 0
M  V30 13742 H 1242.61 2.19833 -6.06913 0
M  V30 13743 H 1243.38 1.54191 -8.03845 0
M  V30 13744 N 1246.04 1.3432 0.824371 0
M  V30 13745 C 1247.29 1.26595 1.5805 0
M  V30 13746 C 1247.61 -0.164471 1.93803 0
M  V30 13747 O 1246.87 -1.12537 1.60106 0
M  V30 13748 C 1247.17 2.1008 2.89139 0
M  V30 13749 C 1246.83 3.59102 2.72684 0
M  V30 13750 C 1245.5 3.99726 2.67904 0
M  V30 13751 C 1247.85 4.53736 2.56463 0
M  V30 13752 C 1245.18 5.33178 2.44822 0
M  V30 13753 C 1247.53 5.87366 2.34913 0
M  V30 13754 C 1246.19 6.27155 2.28544 0
M  V30 13755 H 1245.46 0.463245 0.578347 0
M  V30 13756 H 1248.11 1.66048 0.953948 0
M  V30 13757 H 1246.41 1.6345 3.56078 0
M  V30 13758 H 1248.11 2.01451 3.46726 0
M  V30 13759 H 1244.7 3.26855 2.77244 0
M  V30 13760 H 1248.88 4.23248 2.5918 0
M  V30 13761 H 1244.14 5.63028 2.38348 0
M  V30 13762 H 1248.31 6.60286 2.21349 0
M  V30 13763 H 1245.94 7.30498 2.1042 0
M  V30 13764 N 1247.52 -1.0444 1.18026 0
M  V30 13765 C 1248.74 -1.81772 0.998684 0
M  V30 13766 C 1249.17 -1.82682 -0.448225 0
M  V30 13767 O 1248.52 -1.24136 -1.32136 0
M  V30 13768 C 1248.57 -3.2542 1.55352 0
M  V30 13769 O 1247.68 -4.05103 0.772351 0
M  V30 13770 H 1247.02 -0.561731 0.354054 0
M  V30 13771 H 1249.55 -1.31557 1.56697 0
M  V30 13772 H 1249.56 -3.76206 1.57903 0
M  V30 13773 H 1248.23 -3.24073 2.60672 0
M  V30 13774 H 1246.81 -3.63798 0.818852 0
M  V30 13775 N 1248.99 -0.981699 -1.2329 0
M  V30 13776 C 1250.22 -0.668399 -1.95489 0
M  V30 13777 C 1250.63 0.768976 -1.72868 0
M  V30 13778 O 1249.98 1.52925 -1.01783 0
M  V30 13779 C 1250.04 -0.880535 -3.4855 0
M  V30 13780 C 1249.7 -2.30023 -3.9489 0
M  V30 13781 C 1250.7 -3.27899 -4.03458 0
M  V30 13782 C 1248.38 -2.63167 -4.27842 0
M  V30 13783 C 1250.38 -4.56999 -4.44332 0
M  V30 13784 C 1248.06 -3.92489 -4.68397 0
M  V30 13785 C 1249.06 -4.89216 -4.76609 0
M  V30 13786 O 1248.75 -6.16229 -5.16253 0
M  V30 13787 H 1248.48 -0.247255 -0.629159 0
M  V30 13788 H 1251.04 -1.31606 -1.57699 0
M  V30 13789 H 1249.27 -0.175698 -3.86301 0
M  V30 13790 H 1250.96 -0.564198 -4.0196 0
M  V30 13791 H 1251.72 -3.03624 -3.78203 0
M  V30 13792 H 1247.6 -1.88588 -4.20661 0
M  V30 13793 H 1251.14 -5.32498 -4.50656 0
M  V30 13794 H 1247.04 -4.16558 -4.93102 0
M  V30 13795 H 1247.81 -6.20001 -5.34361 0
M  V30 13796 N 1250.47 1.3842 -0.753509 0
M  V30 13797 C 1251.42 2.32315 -0.115107 0
M  V30 13798 C 1252.41 1.54015 0.705398 0
M  V30 13799 O 1253.62 1.69546 0.604505 0
M  V30 13800 H 1250 0.751774 -0.0184276 0
M  V30 13801 H 1251.97 2.83763 -0.923094 0
M  V30 13802 C 1250.72 3.39206 0.763849 0
M  V30 13803 H 1250.04 3.99548 0.14187 0
M  V30 13804 H 1251.48 4.07312 1.17783 0
M  V30 13805 C 1249.94 2.77771 1.90643 0
M  V30 13806 O 1250.47 2.67073 3.00058 0
M  V30 13807 N 1248.67 2.35582 1.70145 0
M  V30 13808 H 1248.22 2.44483 0.811528 0
M  V30 13809 H 1248.18 1.9482 2.46764 0
M  V30 13810 N 1251.95 0.502579 1.49372 0
M  V30 13811 C 1252.88 -0.264307 2.31999 0
M  V30 13812 C 1253.86 -0.96107 1.40348 0
M  V30 13813 O 1255.05 -0.952167 1.69255 0
M  V30 13814 C 1252.18 -1.32822 3.20898 0
M  V30 13815 C 1251.13 -0.751236 4.21355 0
M  V30 13816 C 1250.46 -1.91578 4.99201 0
M  V30 13817 C 1251.76 0.258764 5.21659 0
M  V30 13818 H 1253.45 0.425391 2.96363 0
M  V30 13819 H 1251 0.206022 1.42519 0
M  V30 13820 H 1252.95 -1.87245 3.77515 0
M  V30 13821 H 1251.67 -2.04712 2.54481 0
M  V30 13822 H 1250.33 -0.228743 3.65886 0
M  V30 13823 H 1249.98 -2.62241 4.2923 0
M  V30 13824 H 1249.68 -1.53578 5.67175 0
M  V30 13825 H 1251.2 -2.46432 5.58663 0
M  V30 13826 H 1252.62 -0.197385 5.7296 0
M  V30 13827 H 1251.02 0.554681 5.97531 0
M  V30 13828 H 1252.09 1.1741 4.70471 0
M  V30 13829 N 1253.43 -1.55816 0.23648 0
M  V30 13830 C 1254.68 -1.97862 -0.391579 0
M  V30 13831 C 1254.99 -1.1276 -1.59827 0
M  V30 13832 O 1256.2 -1.44772 -2.29681 0
M  V30 13833 C 1254.65 -3.5204 -0.748065 0
M  V30 13834 C 1254.26 -4.45867 0.436643 0
M  V30 13835 C 1256 -4.02766 -1.3409 0
M  V30 13836 C 1253.91 -5.91373 0.0568909 0
M  V30 13837 H 1252.84 -0.738913 -0.150078 0
M  V30 13838 H 1255.49 -1.80415 0.335052 0
M  V30 13839 H 1253.87 -3.65143 -1.53254 0
M  V30 13840 H 1255.05 -4.44519 1.21408 0
M  V30 13841 H 1253.36 -4.05565 0.943702 0
M  V30 13842 H 1255.96 -5.08987 -1.63817 0
M  V30 13843 H 1256.3 -3.49496 -2.26182 0
M  V30 13844 H 1256.84 -3.92946 -0.619548 0
M  V30 13845 H 1253.58 -6.48657 0.944682 0
M  V30 13846 H 1253.1 -5.95881 -0.684557 0
M  V30 13847 H 1254.77 -6.45972 -0.364586 0
M  V30 13848 N 1254.91 0.036755 -1.57557 0
M  V30 13849 C 1256.15 0.727665 -1.88546 0
M  V30 13850 C 1256.48 1.76304 -0.833179 0
M  V30 13851 O 1255.75 1.9544 0.13414 0
M  V30 13852 H 1254.33 0.271744 -0.695819 0
M  V30 13853 H 1256.99 0.00452915 -1.94899 0
M  V30 13854 H 1256.08 1.22205 -2.8718 0
M  V30 13855 N 1256.39 1.54543 0.308881 0
M  V30 13856 C 1257.62 1.77174 1.06268 0
M  V30 13857 C 1258.02 0.527461 1.81699 0
M  V30 13858 O 1257.37 -0.512027 1.7642 0
M  V30 13859 C 1257.43 2.92115 2.09545 0
M  V30 13860 C 1257.09 4.30492 1.5338 0
M  V30 13861 C 1258.09 5.1081 0.967923 0
M  V30 13862 C 1255.77 4.77074 1.5718 0
M  V30 13863 C 1257.77 6.35827 0.447517 0
M  V30 13864 C 1255.46 6.02055 1.04753 0
M  V30 13865 C 1256.45 6.81266 0.486345 0
M  V30 13866 O 1256.14 8.03894 -0.0300055 0
M  V30 13867 H 1255.87 0.594773 0.321281 0
M  V30 13868 H 1258.43 2.02289 0.356136 0
M  V30 13869 H 1256.66 2.62606 2.83857 0
M  V30 13870 H 1258.35 3.02394 2.70763 0
M  V30 13871 H 1259.11 4.7597 0.931523 0
M  V30 13872 H 1254.99 4.15453 1.998 0
M  V30 13873 H 1258.54 6.97599 0.00884212 0
M  V30 13874 H 1254.43 6.36383 1.08105 0
M  V30 13875 H 1255.2 8.18457 0.0840381 0
M  V30 13876 N 1257.86 -0.571685 1.46866 0
M  V30 13877 C 1259.11 -1.32574 1.5201 0
M  V30 13878 C 1259.43 -1.94762 0.180838 0
M  V30 13879 O 1260.63 -2.71276 0.110158 0
M  V30 13880 C 1259.09 -2.40331 2.67897 0
M  V30 13881 C 1258.7 -1.84398 4.08291 0
M  V30 13882 C 1260.44 -3.17009 2.82321 0
M  V30 13883 C 1258.35 -2.89849 5.15501 0
M  V30 13884 H 1257.28 -0.498428 0.565761 0
M  V30 13885 H 1259.93 -0.608853 1.73105 0
M  V30 13886 H 1258.31 -3.14869 2.40153 0
M  V30 13887 H 1259.48 -1.16329 4.45875 0
M  V30 13888 H 1257.8 -1.20351 3.98628 0
M  V30 13889 H 1260.4 -3.95729 3.59587 0
M  V30 13890 H 1260.74 -3.70292 1.90236 0
M  V30 13891 H 1261.27 -2.4958 3.09765 0
M  V30 13892 H 1258.01 -2.4144 6.09415 0
M  V30 13893 H 1257.53 -3.56372 4.82451 0
M  V30 13894 H 1259.21 -3.53603 5.41825 0
M  V30 13895 N 1259.34 -1.34755 -0.817236 0
M  V30 13896 C 1260.29 -1.26801 -1.92848 0
M  V30 13897 C 1261.26 -0.142077 -1.65491 0
M  V30 13898 O 1262.44 -0.324006 -1.88029 0
M  V30 13899 C 1259.58 -1.03513 -3.2921 0
M  V30 13900 C 1258.7 -2.24932 -3.68822 0
M  V30 13901 C 1257.83 -1.94881 -4.94161 0
M  V30 13902 C 1256.87 -3.12411 -5.2637 0
M  V30 13903 N 1256.01 -2.82207 -6.42887 0
M  V30 13904 H 1260.85 -2.21832 -1.98983 0
M  V30 13905 H 1258.38 -1.10284 -0.973439 0
M  V30 13906 H 1260.34 -0.88047 -4.07803 0
M  V30 13907 H 1258.97 -0.121478 -3.22571 0
M  V30 13908 H 1258.02 -2.51299 -2.85575 0
M  V30 13909 H 1259.34 -3.12726 -3.88592 0
M  V30 13910 H 1258.49 -1.76184 -5.80555 0
M  V30 13911 H 1257.23 -1.04355 -4.76405 0
M  V30 13912 H 1256.23 -3.31698 -4.3847 0
M  V30 13913 H 1257.46 -4.03724 -5.46062 0
M  V30 13914 H 1255.41 -1.94263 -6.26576 0
M  V30 13915 H 1255.32 -3.63534 -6.62857 0
M  V30 13916 H 1256.59 -2.67026 -7.32337 0
M  V30 13917 N 1260.82 1.03812 -1.18578 0
M  V30 13918 C 1261.77 2.11883 -0.915115 0
M  V30 13919 C 1262.74 1.65453 0.146479 0
M  V30 13920 O 1263.92 1.90799 0.00630058 0
M  V30 13921 C 1261.06 3.42157 -0.449755 0
M  V30 13922 C 1260.17 4.02185 -1.57706 0
M  V30 13923 C 1259.31 5.20431 -1.06417 0
M  V30 13924 C 1258.35 5.72496 -2.16599 0
M  V30 13925 N 1257.49 6.82027 -1.66685 0
M  V30 13926 H 1262.33 2.34373 -1.84047 0
M  V30 13927 H 1259.86 1.14962 -0.917728 0
M  V30 13928 H 1261.82 4.16888 -0.161407 0
M  V30 13929 H 1260.45 3.19806 0.438622 0
M  V30 13930 H 1259.5 3.24757 -1.98083 0
M  V30 13931 H 1260.81 4.36851 -2.40754 0
M  V30 13932 H 1259.97 6.02286 -0.730497 0
M  V30 13933 H 1258.71 4.87276 -0.203301 0
M  V30 13934 H 1257.71 4.8926 -2.50808 0
M  V30 13935 H 1258.94 6.07694 -3.03126 0
M  V30 13936 H 1256.88 6.50742 -0.828916 0
M  V30 13937 H 1256.8 7.1577 -2.43329 0
M  V30 13938 H 1258.07 7.67499 -1.36253 0
M  V30 13939 N 1262.3 0.988223 1.22768 0
M  V30 13940 C 1263.24 0.534605 2.24523 0
M  V30 13941 C 1264.21 -0.430615 1.60421 0
M  V30 13942 O 1265.4 -0.336417 1.87811 0
M  V30 13943 C 1262.54 -0.149195 3.44777 0
M  V30 13944 C 1261.65 0.85721 4.2341 0
M  V30 13945 C 1260.79 0.147411 5.30995 0
M  V30 13946 C 1259.83 1.1425 6.01343 0
M  V30 13947 N 1258.96 0.461327 7.00583 0
M  V30 13948 H 1263.8 1.40708 2.62689 0
M  V30 13949 H 1261.34 0.704918 1.2911 0
M  V30 13950 H 1263.3 -0.562527 4.1339 0
M  V30 13951 H 1261.93 -0.985485 3.07389 0
M  V30 13952 H 1260.98 1.38889 3.54138 0
M  V30 13953 H 1262.29 1.61517 4.71926 0
M  V30 13954 H 1261.45 -0.32289 6.0584 0
M  V30 13955 H 1260.19 -0.643085 4.83442 0
M  V30 13956 H 1259.19 1.62348 5.25284 0
M  V30 13957 H 1260.42 1.93379 6.50985 0
M  V30 13958 H 1258.36 -0.309818 6.55268 0
M  V30 13959 H 1258.28 1.15781 7.47082 0
M  V30 13960 H 1259.55 0.0136734 7.79499 0
M  V30 13961 N 1263.78 -1.38018 0.760839 0
M  V30 13962 C 1265.02 -1.99557 0.319609 0
M  V30 13963 C 1265.34 -1.60699 -1.10457 0
M  V30 13964 O 1264.61 -0.867248 -1.75658 0
M  V30 13965 H 1263.19 -0.738066 0.115182 0
M  V30 13966 H 1265.86 -1.6867 0.976544 0
M  V30 13967 H 1264.95 -3.09672 0.388523 0
M  V30 13968 N 1265.25 -0.510493 -1.49103 0
M  V30 13969 C 1266.5 0.0306436 -2.02477 0
M  V30 13970 C 1266.83 1.36113 -1.38937 0
M  V30 13971 O 1266.08 1.88731 -0.517584 0
M  V30 13972 C 1266.38 0.221921 -3.5671 0
M  V30 13973 C 1266.05 -1.03176 -4.38937 0
M  V30 13974 C 1264.71 -1.37539 -4.61125 0
M  V30 13975 C 1267.06 -1.86464 -4.86704 0
M  V30 13976 C 1264.39 -2.55124 -5.28326 0
M  V30 13977 C 1266.74 -3.03211 -5.55199 0
M  V30 13978 C 1265.41 -3.37943 -5.75631 0
M  V30 13979 H 1264.68 0.0112133 -0.740915 0
M  V30 13980 H 1267.32 -0.672574 -1.79301 0
M  V30 13981 H 1265.63 1.00775 -3.78618 0
M  V30 13982 H 1267.33 0.655223 -3.95611 0
M  V30 13983 H 1263.92 -0.754105 -4.21914 0
M  V30 13984 H 1268.1 -1.61229 -4.69381 0
M  V30 13985 H 1263.36 -2.8226 -5.42346 0
M  V30 13986 H 1267.53 -3.68068 -5.91185 0
M  V30 13987 H 1265.16 -4.29158 -6.27477 0
M  V30 13988 N 1266.73 1.55688 -0.24474 0
M  V30 13989 C 1267.69 2.20014 0.642382 0
M  V30 13990 C 1268.69 1.16877 1.10437 0
M  V30 13991 O 1269.88 1.41972 1.00943 0
M  V30 13992 C 1267.02 2.84198 1.88267 0
M  V30 13993 H 1268.21 2.9979 0.0811937 0
M  V30 13994 H 1265.76 1.56299 0.00480917 0
M  V30 13995 H 1266.5 2.08354 2.48514 0
M  V30 13996 H 1266.28 3.59747 1.55963 0
M  V30 13997 H 1267.77 3.33434 2.5142 0
M  V30 13998 N 1268.21 -0.0283989 1.57574 0
M  V30 13999 C 1269.16 -1.04723 2.07692 0
M  V30 14000 C 1270.15 -1.37399 0.990847 0
M  V30 14001 O 1271.36 -1.36297 1.17572 0
M  V30 14002 H 1267.73 -0.355251 0.662798 0
M  V30 14003 H 1269.7 -0.598737 2.92331 0
M  V30 14004 C 1268.45 -2.33941 2.57229 0
M  V30 14005 H 1267.78 -2.09659 3.40416 0
M  V30 14006 H 1269.22 -3.03574 2.96005 0
M  V30 14007 C 1267.67 -3.02953 1.47381 0
M  V30 14008 O 1268.2 -3.9281 0.840431 0
M  V30 14009 N 1266.41 -2.64294 1.20819 0
M  V30 14010 H 1265.96 -1.91307 1.72509 0
M  V30 14011 H 1265.92 -3.10786 0.475353 0
M  V30 14012 N 1269.69 -1.54705 -0.300681 0
M  V30 14013 C 1270.62 -1.88679 -1.37559 0
M  V30 14014 C 1271.6 -0.74574 -1.52881 0
M  V30 14015 O 1272.78 -1.0015 -1.66384 0
M  V30 14016 C 1269.91 -2.13438 -2.73974 0
M  V30 14017 C 1268.87 -3.29284 -2.73415 0
M  V30 14018 C 1268.19 -3.39462 -4.13122 0
M  V30 14019 C 1269.49 -4.66382 -2.35128 0
M  V30 14020 H 1271.19 -2.78707 -1.09373 0
M  V30 14021 H 1268.73 -1.341 -0.524704 0
M  V30 14022 H 1270.69 -2.35791 -3.49257 0
M  V30 14023 H 1269.41 -1.20181 -3.03684 0
M  V30 14024 H 1268.07 -3.06855 -2.00588 0
M  V30 14025 H 1267.72 -2.43721 -4.4001 0
M  V30 14026 H 1267.42 -4.17334 -4.1365 0
M  V30 14027 H 1268.94 -3.64075 -4.90185 0
M  V30 14028 H 1270.36 -4.88463 -3.00128 0
M  V30 14029 H 1268.75 -5.4697 -2.46867 0
M  V30 14030 H 1269.82 -4.67078 -1.30256 0
M  V30 14031 N 1271.17 0.563888 -1.47167 0
M  V30 14032 C 1272.13 1.65359 -1.58711 0
M  V30 14033 C 1273.13 1.53999 -0.46272 0
M  V30 14034 O 1274.32 1.58277 -0.727595 0
M  V30 14035 C 1271.45 3.04874 -1.52529 0
M  V30 14036 H 1272.64 1.56475 -2.55843 0
M  V30 14037 H 1270.2 0.783271 -1.35257 0
M  V30 14038 H 1270.93 3.19297 -0.56747 0
M  V30 14039 H 1270.72 3.14528 -2.34125 0
M  V30 14040 H 1272.21 3.84164 -1.63731 0
M  V30 14041 N 1272.64 1.35187 0.810078 0
M  V30 14042 C 1273.89 1.28454 1.56931 0
M  V30 14043 C 1274.22 -0.141747 1.93682 0
M  V30 14044 O 1273.5 -1.09028 1.61069 0
M  V30 14045 C 1273.78 2.18771 2.86027 0
M  V30 14046 C 1273.63 3.69999 2.55774 0
M  V30 14047 C 1274.95 2.08265 3.87703 0
M  V30 14048 H 1272.07 0.467959 0.569371 0
M  V30 14049 H 1274.71 1.65556 0.932262 0
M  V30 14050 H 1272.86 1.8726 3.40391 0
M  V30 14051 H 1274.54 4.11936 2.07621 0
M  V30 14052 H 1272.78 3.90453 1.89021 0
M  V30 14053 H 1273.45 4.28577 3.47888 0
M  V30 14054 H 1275.93 2.35958 3.42729 0
M  V30 14055 H 1274.8 2.73663 4.75815 0
M  V30 14056 H 1275.06 1.06352 4.29117 0
M  V30 14057 N 1274.12 -1.03182 1.19127 0
M  V30 14058 C 1275.05 -2.11462 0.884098 0
M  V30 14059 C 1276.07 -1.62342 -0.121984 0
M  V30 14060 O 1277.26 -1.78179 0.107038 0
M  V30 14061 C 1274.36 -3.37559 0.301227 0
M  V30 14062 C 1273.53 -4.15878 1.35514 0
M  V30 14063 C 1272.59 -5.20291 0.786349 0
M  V30 14064 O 1271.61 -5.50069 1.46331 0
M  V30 14065 N 1272.82 -5.79038 -0.411803 0
M  V30 14066 H 1275.58 -2.38405 1.81613 0
M  V30 14067 H 1273.14 -1.19449 1.09287 0
M  V30 14068 H 1275.13 -4.04593 -0.0930685 0
M  V30 14069 H 1273.7 -3.07987 -0.535022 0
M  V30 14070 H 1272.92 -3.44036 1.9244 0
M  V30 14071 H 1274.21 -4.64993 2.06539 0
M  V30 14072 H 1273.61 -5.57158 -0.979353 0
M  V30 14073 H 1272.17 -6.47495 -0.747912 0
M  V30 14074 N 1275.6 -0.99472 -1.22242 0
M  V30 14075 C 1276.53 -0.491445 -2.22845 0
M  V30 14076 C 1277.51 0.449265 -1.5627 0
M  V30 14077 O 1278.7 0.374386 -1.84745 0
M  V30 14078 C 1275.82 0.287355 -3.37479 0
M  V30 14079 C 1274.87 -0.599617 -4.22264 0
M  V30 14080 S 1275.7 -2.05599 -4.94459 0
M  V30 14081 C 1276.86 -1.28673 -6.12531 0
M  V30 14082 H 1277.09 -1.34393 -2.6519 0
M  V30 14083 H 1274.62 -0.801833 -1.31947 0
M  V30 14084 H 1276.58 0.730646 -4.03945 0
M  V30 14085 H 1275.24 1.11514 -2.93638 0
M  V30 14086 H 1274.44 -0.000289277 -5.04 0
M  V30 14087 H 1274.04 -0.979748 -3.60939 0
M  V30 14088 H 1276.33 -0.555315 -6.7522 0
M  V30 14089 H 1277.27 -2.07943 -6.76879 0
M  V30 14090 H 1277.68 -0.79922 -5.58814 0
M  V30 14091 N 1277.08 1.37613 -0.768148 0
M  V30 14092 C 1278.32 2.00075 -0.331331 0
M  V30 14093 C 1278.66 1.60839 1.08833 0
M  V30 14094 O 1277.93 0.852849 1.74805 0
M  V30 14095 C 1278.22 3.57009 -0.470789 0
M  V30 14096 C 1278.07 4.06166 -1.9326 0
M  V30 14097 C 1279.39 4.39916 0.127111 0
M  V30 14098 H 1276.51 0.726855 -0.121864 0
M  V30 14099 H 1279.15 1.63343 -0.970518 0
M  V30 14100 H 1277.3 3.88431 0.0733688 0
M  V30 14101 H 1278.97 3.85325 -2.53618 0
M  V30 14102 H 1277.21 3.58492 -2.44266 0
M  V30 14103 H 1277.88 5.15219 -1.98125 0
M  V30 14104 H 1280.36 4.14732 -0.337144 0
M  V30 14105 H 1279.24 5.489 -0.000624226 0
M  V30 14106 H 1279.5 4.25018 1.21704 0
M  V30 14107 N 1278.56 0.518393 1.4883 0
M  V30 14108 C 1279.5 -0.264197 2.31095 0
M  V30 14109 C 1280.5 -0.946455 1.40494 0
M  V30 14110 O 1281.7 -0.872161 1.57459 0
M  V30 14111 H 1278.08 -0.104065 0.744765 0
M  V30 14112 H 1280.05 0.449375 2.94997 0
M  V30 14113 C 1278.8 -1.30527 3.2227 0
M  V30 14114 H 1278.12 -0.789695 3.91923 0
M  V30 14115 H 1279.56 -1.82449 3.82738 0
M  V30 14116 C 1278.02 -2.33274 2.43073 0
M  V30 14117 O 1278.55 -3.39493 2.14726 0
M  V30 14118 N 1276.76 -2.06189 2.04779 0
M  V30 14119 H 1276.3 -1.19829 2.28033 0
M  V30 14120 H 1276.26 -2.7516 1.521 0
M  V30 14121 N 1280.03 -1.55556 0.252993 0
M  V30 14122 C 1280.98 -2.23035 -0.660161 0
M  V30 14123 C 1281.98 -1.21994 -1.17532 0
M  V30 14124 O 1283.18 -1.39989 -1.13151 0
M  V30 14125 H 1279.56 -0.715516 -0.23139 0
M  V30 14126 H 1281.53 -2.98323 -0.0679506 0
M  V30 14127 C 1280.28 -2.94817 -1.84332 0
M  V30 14128 H 1279.6 -3.72342 -1.45607 0
M  V30 14129 H 1281.04 -3.45386 -2.45936 0
M  V30 14130 C 1279.5 -1.99033 -2.71822 0
M  V30 14131 O 1280.03 -1.5273 -3.71533 0
M  V30 14132 N 1278.24 -1.66004 -2.38518 0
M  V30 14133 H 1277.78 -2.03853 -1.57485 0
M  V30 14134 H 1277.74 -1.02183 -2.97331 0
M  V30 14135 N 1281.51 0.0200419 -1.57587 0
M  V30 14136 C 1282.46 1.0362 -2.08244 0
M  V30 14137 C 1283.45 1.36872 -0.998119 0
M  V30 14138 O 1284.66 1.35671 -1.18293 0
M  V30 14139 H 1281.04 0.351731 -0.664673 0
M  V30 14140 H 1283.01 0.583226 -2.92645 0
M  V30 14141 C 1281.76 2.32574 -2.58466 0
M  V30 14142 H 1281.08 2.0785 -3.41523 0
M  V30 14143 H 1282.52 3.02 -2.97611 0
M  V30 14144 C 1280.98 3.02167 -1.48986 0
M  V30 14145 O 1281.51 3.92359 -0.861251 0
M  V30 14146 N 1279.71 2.63649 -1.22219 0
M  V30 14147 H 1279.26 1.90389 -1.73521 0
M  V30 14148 H 1279.22 3.10529 -0.491828 0
M  V30 14149 N 1282.99 1.54862 0.292472 0
M  V30 14150 C 1283.94 1.87168 1.38097 0
M  V30 14151 C 1284.93 0.746176 1.52081 0
M  V30 14152 O 1286.14 0.930281 1.54097 0
M  V30 14153 H 1282.51 0.593769 0.461456 0
M  V30 14154 H 1284.48 2.78135 1.0809 0
M  V30 14155 C 1283.23 2.14315 2.73796 0
M  V30 14156 H 1282.56 3.00398 2.63821 0
M  V30 14157 H 1284 2.40853 3.48949 0
M  V30 14158 C 1282.46 0.944424 3.23392 0
M  V30 14159 O 1282.99 0.169208 4.01343 0
M  V30 14160 N 1281.19 0.747456 2.80823 0
M  V30 14161 H 1280.74 1.37953 2.17547 0
M  V30 14162 H 1280.7 -0.0530199 3.14355 0
M  V30 14163 N 1284.47 -0.556076 1.47464 0
M  V30 14164 C 1285.7 -1.33858 1.57764 0
M  V30 14165 C 1286.11 -1.87415 0.22825 0
M  V30 14166 O 1285.47 -1.65054 -0.778674 0
M  V30 14167 C 1285.52 -2.5077 2.60378 0
M  V30 14168 O 1285.24 -1.99426 3.90078 0
M  V30 14169 C 1286.74 -3.42965 2.80873 0
M  V30 14170 H 1283.96 -0.408003 0.532705 0
M  V30 14171 H 1286.51 -0.673501 1.93091 0
M  V30 14172 H 1284.66 -3.13214 2.27982 0
M  V30 14173 H 1285.07 -2.75759 4.46158 0
M  V30 14174 H 1286.55 -4.21412 3.56533 0
M  V30 14175 H 1287.03 -3.96579 1.88737 0
M  V30 14176 H 1287.63 -2.86336 3.14471 0
M  V30 14177 N 1285.95 -1.35615 -0.802897 0
M  V30 14178 C 1286.88 -1.31506 -1.92947 0
M  V30 14179 C 1287.86 -0.188843 -1.69048 0
M  V30 14180 O 1289.04 -0.384384 -1.90358 0
M  V30 14181 C 1286.17 -1.09001 -3.29752 0
M  V30 14182 C 1285.13 -2.18303 -3.68141 0
M  V30 14183 C 1284.45 -1.80959 -5.03148 0
M  V30 14184 C 1285.75 -3.60296 -3.78132 0
M  V30 14185 H 1287.45 -2.25771 -1.96642 0
M  V30 14186 H 1284.99 -1.08682 -0.944685 0
M  V30 14187 H 1286.95 -1.04766 -4.08169 0
M  V30 14188 H 1285.67 -0.111832 -3.26408 0
M  V30 14189 H 1284.33 -2.21642 -2.92011 0
M  V30 14190 H 1283.98 -0.817495 -4.96312 0
M  V30 14191 H 1283.68 -2.54129 -5.29804 0
M  V30 14192 H 1285.2 -1.78255 -5.84001 0
M  V30 14193 H 1286.62 -3.59259 -4.46773 0
M  V30 14194 H 1285.01 -4.32258 -4.16261 0
M  V30 14195 H 1286.08 -3.9618 -2.79588 0
M  V30 14196 N 1287.43 1.02549 -1.19673 0
M  V30 14197 C 1288.67 1.76004 -1.00144 0
M  V30 14198 C 1289 1.888 0.467423 0
M  V30 14199 O 1288.26 1.404 1.36331 0
M  V30 14200 C 1288.55 3.18597 -1.61959 0
M  V30 14201 C 1288.22 3.258 -3.11713 0
M  V30 14202 C 1286.88 3.27473 -3.52583 0
M  V30 14203 C 1289.23 3.24675 -4.0772 0
M  V30 14204 C 1286.56 3.25681 -4.88005 0
M  V30 14205 C 1288.91 3.24424 -5.43076 0
M  V30 14206 C 1287.58 3.24396 -5.83372 0
M  V30 14207 H 1286.85 0.644044 -0.366453 0
M  V30 14208 H 1289.5 1.20338 -1.48966 0
M  V30 14209 H 1287.8 3.77364 -1.05375 0
M  V30 14210 H 1289.5 3.74109 -1.44374 0
M  V30 14211 H 1286.09 3.25228 -2.7915 0
M  V30 14212 H 1290.27 3.2256 -3.77185 0
M  V30 14213 H 1285.53 3.23986 -5.18501 0
M  V30 14214 H 1289.7 3.22504 -6.17223 0
M  V30 14215 H 1287.33 3.22762 -6.8828 0
M  V30 14216 N 1288.9 1.00119 1.21713 0
M  V30 14217 C 1289.85 0.551452 2.25969 0
M  V30 14218 C 1290.85 -0.402075 1.64559 0
M  V30 14219 O 1292.05 -0.273685 1.77907 0
M  V30 14220 H 1288.43 0.159968 0.734789 0
M  V30 14221 H 1290.4 1.44201 2.61244 0
M  V30 14222 C 1289.15 -0.109992 3.47526 0
M  V30 14223 H 1288.47 0.614686 3.95046 0
M  V30 14224 H 1289.91 -0.388007 4.22221 0
M  V30 14225 C 1288.37 -1.34798 3.08757 0
M  V30 14226 O 1288.9 -2.44266 3.189 0
M  V30 14227 N 1287.1 -1.2263 2.63458 0
M  V30 14228 H 1286.65 -0.335571 2.55405 0
M  V30 14229 H 1286.61 -2.05565 2.37887 0
M  V30 14230 N 1290.38 -1.37203 0.775435 0
M  V30 14231 C 1291.31 -2.32819 0.17826 0
M  V30 14232 C 1292.29 -1.55963 -0.678944 0
M  V30 14233 O 1293.48 -1.84183 -0.615648 0
M  V30 14234 C 1290.61 -3.40198 -0.698768 0
M  V30 14235 C 1289.56 -4.27961 0.057423 0
M  V30 14236 C 1288.89 -5.26385 -0.93929 0
M  V30 14237 C 1290.19 -5.07402 1.23856 0
M  V30 14238 H 1291.88 -2.8301 0.977028 0
M  V30 14239 H 1289.43 -1.3607 0.471274 0
M  V30 14240 H 1291.38 -4.06067 -1.12637 0
M  V30 14241 H 1290.1 -2.88541 -1.53009 0
M  V30 14242 H 1288.76 -3.63628 0.465848 0
M  V30 14243 H 1288.41 -4.71007 -1.76527 0
M  V30 14244 H 1288.11 -5.85966 -0.437844 0
M  V30 14245 H 1289.64 -5.9513 -1.36576 0
M  V30 14246 H 1291.05 -5.6639 0.887423 0
M  V30 14247 H 1289.45 -5.76327 1.67234 0
M  V30 14248 H 1290.52 -4.3986 2.04085 0
M  V30 14249 N 1291.86 -0.526279 -1.48553 0
M  V30 14250 C 1293.08 0.00731432 -2.07399 0
M  V30 14251 C 1293.51 1.27737 -1.38075 0
M  V30 14252 O 1292.87 1.75741 -0.445503 0
M  V30 14253 C 1292.92 0.218126 -3.5994 0
M  V30 14254 O 1292.02 1.28759 -3.91784 0
M  V30 14255 H 1291.36 -0.0374784 -0.662941 0
M  V30 14256 H 1293.89 -0.733133 -1.91014 0
M  V30 14257 H 1293.9 0.44192 -4.056 0
M  V30 14258 H 1292.58 -0.709668 -4.09801 0
M  V30 14259 H 1291.15 1.04674 -3.57907 0
M  V30 14260 N 1293.34 1.5542 -0.261239 0
M  V30 14261 C 1294.58 1.99579 0.36002 0
M  V30 14262 C 1294.92 1.14933 1.56538 0
M  V30 14263 O 1294.19 0.216082 1.93296 0
M  V30 14264 C 1294.47 3.52078 0.755842 0
M  V30 14265 C 1294.33 4.47484 -0.455896 0
M  V30 14266 C 1295.65 4.10083 1.5975 0
M  V30 14267 H 1292.77 0.725554 0.129385 0
M  V30 14268 H 1295.41 1.86453 -0.365415 0
M  V30 14269 H 1293.56 3.63394 1.37393 0
M  V30 14270 H 1295.23 4.4813 -1.09441 0
M  V30 14271 H 1293.47 4.19714 -1.09646 0
M  V30 14272 H 1294.14 5.51834 -0.13539 0
M  V30 14273 H 1296.62 4.01957 1.07562 0
M  V30 14274 H 1295.5 5.17024 1.84329 0
M  V30 14275 H 1295.76 3.59438 2.57404 0
M  V30 14276 N 1294.82 -0.0116844 1.57596 0
M  V30 14277 C 1295.75 -1.03477 2.04512 0
M  V30 14278 C 1296.76 -1.31414 0.960945 0
M  V30 14279 O 1297.95 -1.28596 1.23796 0
M  V30 14280 C 1295.05 -2.37234 2.42019 0
M  V30 14281 C 1294.22 -2.28405 3.73028 0
M  V30 14282 C 1293.28 -3.44753 3.97532 0
M  V30 14283 O 1292.31 -3.23465 4.68358 0
M  V30 14284 N 1293.51 -4.67212 3.44518 0
M  V30 14285 H 1296.27 -0.634758 2.92901 0
M  V30 14286 H 1293.84 -0.1993 1.60669 0
M  V30 14287 H 1295.83 -3.13821 2.55535 0
M  V30 14288 H 1294.4 -2.69018 1.5921 0
M  V30 14289 H 1293.62 -1.36804 3.697 0
M  V30 14290 H 1294.91 -2.19666 4.58938 0
M  V30 14291 H 1294.3 -4.87407 2.87142 0
M  V30 14292 H 1292.86 -5.41105 3.63384 0
M  V30 14293 N 1296.29 -1.55015 -0.284256 0
M  V30 14294 C 1297.22 -1.90128 -1.3555 0
M  V30 14295 C 1298.2 -0.761914 -1.52082 0
M  V30 14296 O 1299.39 -1.01909 -1.65312 0
M  V30 14297 C 1296.52 -2.16332 -2.71695 0
M  V30 14298 C 1295.47 -3.32166 -2.69907 0
M  V30 14299 C 1294.8 -3.43824 -4.09498 0
M  V30 14300 C 1296.1 -4.6885 -2.30168 0
M  V30 14301 H 1297.79 -2.79852 -1.06411 0
M  V30 14302 H 1295.34 -1.34649 -0.510451 0
M  V30 14303 H 1297.29 -2.39482 -3.46737 0
M  V30 14304 H 1296.02 -1.23395 -3.02392 0
M  V30 14305 H 1294.68 -3.08965 -1.97322 0
M  V30 14306 H 1294.32 -2.48375 -4.374 0
M  V30 14307 H 1294.02 -4.21698 -4.092 0
M  V30 14308 H 1295.55 -3.69254 -4.86296 0
M  V30 14309 H 1296.96 -4.91619 -2.9493 0
M  V30 14310 H 1295.36 -5.49558 -2.41052 0
M  V30 14311 H 1296.43 -4.68433 -1.25294 0
M  V30 14312 N 1297.77 0.548248 -1.47757 0
M  V30 14313 C 1299.02 1.30243 -1.54535 0
M  V30 14314 C 1299.34 1.93832 -0.213089 0
M  V30 14315 O 1298.61 1.80397 0.763782 0
M  V30 14316 H 1297.19 0.483684 -0.569262 0
M  V30 14317 H 1299.85 0.639485 -1.8411 0
M  V30 14318 H 1298.95 2.09128 -2.31672 0
M  V30 14319 N 1299.25 1.36039 0.795694 0
M  V30 14320 C 1300.2 1.26386 1.89765 0
M  V30 14321 C 1301.18 0.156711 1.60135 0
M  V30 14322 O 1302.38 0.388946 1.72674 0
M  V30 14323 C 1299.5 1.04907 3.26878 0
M  V30 14324 C 1298.59 2.20061 3.62538 0
M  V30 14325 N 1298.98 3.45347 3.69553 0
M  V30 14326 C 1297.28 2.11688 3.92561 0
M  V30 14327 C 1297.98 4.21138 4.0127 0
M  V30 14328 N 1296.96 3.5001 4.15925 0
M  V30 14329 H 1300.76 2.21295 1.93405 0
M  V30 14330 H 1298.27 1.28668 0.990877 0
M  V30 14331 H 1300.27 0.960791 4.05678 0
M  V30 14332 H 1298.93 0.108921 3.24517 0
M  V30 14333 H 1299.94 3.79561 3.52355 0
M  V30 14334 H 1296.62 1.25592 3.98162 0
M  V30 14335 H 1298.01 5.29456 4.13673 0
M  V30 14336 N 1300.73 -1.01913 1.20215 0
M  V30 14337 C 1301.66 -2.12282 0.97256 0
M  V30 14338 C 1302.64 -1.6982 -0.0975709 0
M  V30 14339 O 1303.82 -1.94109 0.0594307 0
M  V30 14340 C 1300.95 -3.43369 0.521085 0
M  V30 14341 C 1299.91 -3.99559 1.53417 0
M  V30 14342 C 1299.23 -5.26383 0.93942 0
M  V30 14343 C 1300.53 -4.33241 2.91718 0
M  V30 14344 H 1302.23 -2.31746 1.89563 0
M  V30 14345 H 1299.77 -1.1137 0.912841 0
M  V30 14346 H 1301.73 -4.19963 0.347713 0
M  V30 14347 H 1300.45 -3.23655 -0.437605 0
M  V30 14348 H 1299.11 -3.25069 1.69486 0
M  V30 14349 H 1298.76 -5.02993 -0.0271236 0
M  V30 14350 H 1298.46 -5.64942 1.616 0
M  V30 14351 H 1299.98 -6.05635 0.777059 0
M  V30 14352 H 1301.4 -5.00734 2.79175 0
M  V30 14353 H 1299.79 -4.82907 3.56259 0
M  V30 14354 H 1300.86 -3.42118 3.43633 0
M  V30 14355 N 1302.21 -1.00763 -1.2118 0
M  V30 14356 C 1303.15 -0.563428 -2.25673 0
M  V30 14357 C 1304.15 0.393342 -1.6477 0
M  V30 14358 O 1305.35 0.264246 -1.7805 0
M  V30 14359 H 1301.73 -0.163862 -0.73393 0
M  V30 14360 H 1303.7 -1.45585 -2.60476 0
M  V30 14361 C 1302.45 0.0915599 -3.47579 0
M  V30 14362 H 1301.77 -0.635628 -3.94715 0
M  V30 14363 H 1303.21 0.36561 -4.22421 0
M  V30 14364 C 1301.67 1.33159 -3.09468 0
M  V30 14365 O 1302.2 2.42571 -3.20191 0
M  V30 14366 N 1300.41 1.21231 -2.64105 0
M  V30 14367 H 1299.95 0.322021 -2.55579 0
M  V30 14368 H 1299.91 2.04301 -2.38974 0
M  V30 14369 N 1303.68 1.3679 -0.7827 0
M  V30 14370 C 1304.63 2.32019 -0.164358 0
M  V30 14371 C 1305.63 1.55476 0.672571 0
M  V30 14372 O 1306.83 1.7079 0.568406 0
M  V30 14373 H 1303.21 0.751214 -0.0343697 0
M  V30 14374 H 1305.18 2.81741 -0.983077 0
M  V30 14375 C 1303.93 3.4075 0.691727 0
M  V30 14376 H 1303.25 3.99759 0.0570885 0
M  V30 14377 H 1304.69 4.09719 1.09117 0
M  V30 14378 C 1303.15 2.81753 1.84708 0
M  V30 14379 O 1303.68 2.73378 2.94325 0
M  V30 14380 N 1301.89 2.39138 1.6511 0
M  V30 14381 H 1301.43 2.46149 0.759487 0
M  V30 14382 H 1301.39 2.0001 2.42576 0
M  V30 14383 N 1305.16 0.53415 1.48272 0
M  V30 14384 C 1306.13 -0.215641 2.28183 0
M  V30 14385 C 1307.13 -0.863966 1.35618 0
M  V30 14386 O 1308.32 -0.723375 1.58471 0
M  V30 14387 C 1305.45 -1.31251 3.1462 0
M  V30 14388 H 1306.64 0.486014 2.95936 0
M  V30 14389 H 1304.19 0.290237 1.53582 0
M  V30 14390 H 1304.93 -2.04729 2.51508 0
M  V30 14391 H 1304.71 -0.852706 3.82716 0
M  V30 14392 H 1306.2 -1.83978 3.74889 0
M  V30 14393 N 1306.64 -1.55279 0.269478 0
M  V30 14394 C 1307.57 -2.25278 -0.614188 0
M  V30 14395 C 1308.55 -1.24092 -1.1634 0
M  V30 14396 O 1309.74 -1.52799 -1.19858 0
M  V30 14397 C 1306.87 -2.96956 -1.80096 0
M  V30 14398 C 1305.82 -4.05021 -1.38353 0
M  V30 14399 C 1305.15 -4.64244 -2.65295 0
M  V30 14400 C 1306.45 -5.19523 -0.537886 0
M  V30 14401 H 1308.14 -2.99385 -0.0304397 0
M  V30 14402 H 1305.69 -1.43994 -0.0132004 0
M  V30 14403 H 1307.64 -3.44633 -2.42499 0
M  V30 14404 H 1306.36 -2.20374 -2.41045 0
M  V30 14405 H 1305.02 -3.58146 -0.78273 0
M  V30 14406 H 1304.67 -3.84337 -3.2449 0
M  V30 14407 H 1304.37 -5.37208 -2.38079 0
M  V30 14408 H 1305.89 -5.14668 -3.28557 0
M  V30 14409 H 1307.31 -5.63287 -1.06677 0
M  V30 14410 H 1305.71 -5.99014 -0.360845 0
M  V30 14411 H 1306.78 -4.82857 0.444672 0
M  V30 14412 N 1308.12 0.00332656 -1.576 0
M  V30 14413 C 1309.07 0.99581 -2.08212 0
M  V30 14414 C 1310.04 1.34342 -0.976804 0
M  V30 14415 O 1311.22 1.44236 -1.24902 0
M  V30 14416 C 1308.36 2.2836 -2.58739 0
M  V30 14417 C 1307.47 1.99531 -3.8316 0
M  V30 14418 C 1306.61 3.22367 -4.222 0
M  V30 14419 C 1305.65 2.89209 -5.39467 0
M  V30 14420 N 1304.78 4.04572 -5.73817 0
M  V30 14421 H 1309.62 0.55727 -2.92743 0
M  V30 14422 H 1307.16 0.263513 -1.4472 0
M  V30 14423 H 1309.12 3.03639 -2.86111 0
M  V30 14424 H 1307.75 2.69889 -1.77087 0
M  V30 14425 H 1306.8 1.14634 -3.62716 0
M  V30 14426 H 1308.11 1.71089 -4.6854 0
M  V30 14427 H 1307.27 4.05994 -4.50837 0
M  V30 14428 H 1306.01 3.53944 -3.35522 0
M  V30 14429 H 1305.01 2.03989 -5.10557 0
M  V30 14430 H 1306.24 2.58883 -6.27819 0
M  V30 14431 H 1304.18 4.36052 -4.90096 0
M  V30 14432 H 1304.1 3.79643 -6.53764 0
M  V30 14433 H 1305.37 4.88998 -6.07043 0
M  V30 14434 N 1309.6 1.55164 0.276031 0
M  V30 14435 C 1310.56 1.87065 1.32436 0
M  V30 14436 C 1311.56 0.745024 1.42499 0
M  V30 14437 O 1312.75 1.01321 1.41702 0
M  V30 14438 C 1309.88 2.07322 2.70611 0
M  V30 14439 H 1311.07 2.80775 1.05382 0
M  V30 14440 H 1308.63 1.47609 0.513947 0
M  V30 14441 H 1309.36 1.15983 3.0285 0
M  V30 14442 H 1309.15 2.89275 2.64693 0
M  V30 14443 H 1310.64 2.33287 3.46362 0
M  V30 14444 N 1311.07 -0.540404 1.48045 0
M  V30 14445 C 1312.04 -1.62813 1.61322 0
M  V30 14446 C 1313.04 -1.53243 0.487161 0
M  V30 14447 O 1314.23 -1.571 0.752684 0
M  V30 14448 C 1311.36 -3.02408 1.5736 0
M  V30 14449 H 1312.55 -1.52385 2.583 0
M  V30 14450 H 1310.11 -0.761654 1.36486 0
M  V30 14451 H 1310.84 -3.18353 0.618195 0
M  V30 14452 H 1310.63 -3.10763 2.39099 0
M  V30 14453 H 1312.12 -3.8151 1.69822 0
M  V30 14454 N 1312.55 -1.36459 -0.788468 0
M  V30 14455 C 1313.5 -1.30863 -1.90115 0
M  V30 14456 C 1314.47 -0.177148 -1.65153 0
M  V30 14457 O 1315.65 -0.363817 -1.87299 0
M  V30 14458 C 1312.79 -1.10473 -3.2694 0
M  V30 14459 C 1311.91 -2.32704 -3.63968 0
M  V30 14460 C 1311.04 -2.05319 -4.89916 0
M  V30 14461 C 1310.08 -3.23506 -5.19625 0
M  V30 14462 N 1309.22 -2.9578 -6.36756 0
M  V30 14463 H 1314.06 -2.26003 -1.94233 0
M  V30 14464 H 1311.6 -1.12324 -0.949827 0
M  V30 14465 H 1313.55 -0.966773 -4.05844 0
M  V30 14466 H 1312.18 -0.189873 -3.22241 0
M  V30 14467 H 1311.24 -2.573 -2.8018 0
M  V30 14468 H 1312.55 -3.20899 -3.81871 0
M  V30 14469 H 1311.7 -1.88459 -5.76687 0
M  V30 14470 H 1310.44 -1.14437 -4.74084 0
M  V30 14471 H 1309.45 -3.40924 -4.31336 0
M  V30 14472 H 1310.67 -4.15216 -5.37376 0
M  V30 14473 H 1308.62 -2.0751 -6.22315 0
M  V30 14474 H 1308.53 -3.77513 -6.54996 0
M  V30 14475 H 1309.8 -2.825 -7.26508 0
M  V30 14476 N 1314.03 1.01274 -1.20754 0
M  V30 14477 C 1314.98 2.09894 -0.959852 0
M  V30 14478 C 1315.95 1.65726 0.111351 0
M  V30 14479 O 1317.13 1.90769 -0.0341721 0
M  V30 14480 C 1314.27 3.41126 -0.52223 0
M  V30 14481 C 1313.39 3.98749 -1.66202 0
M  V30 14482 C 1312.52 5.18057 -1.17432 0
M  V30 14483 C 1311.56 5.67772 -2.28694 0
M  V30 14484 N 1310.7 6.78338 -1.81114 0
M  V30 14485 H 1315.54 2.30416 -1.88977 0
M  V30 14486 H 1313.07 1.12989 -0.941906 0
M  V30 14487 H 1315.03 4.16451 -0.249799 0
M  V30 14488 H 1313.66 3.20665 0.370688 0
M  V30 14489 H 1312.71 3.20483 -2.04927 0
M  V30 14490 H 1314.03 4.31646 -2.49967 0
M  V30 14491 H 1313.18 6.00601 -0.858086 0
M  V30 14492 H 1311.92 4.86735 -0.306614 0
M  V30 14493 H 1310.92 4.8383 -2.61129 0
M  V30 14494 H 1312.15 6.01127 -3.15948 0
M  V30 14495 H 1310.09 6.48837 -0.966761 0
M  V30 14496 H 1310.01 7.10448 -2.58457 0
M  V30 14497 H 1311.28 7.64437 -1.52502 0
M  V30 14498 N 1315.51 1.01404 1.20644 0
M  V30 14499 C 1316.76 0.697244 1.89265 0
M  V30 14500 C 1317.07 -0.776149 1.79542 0
M  V30 14501 O 1318.28 -1.2054 2.43274 0
M  V30 14502 C 1316.73 1.19672 3.39421 0
M  V30 14503 C 1316.34 2.69683 3.57736 0
M  V30 14504 C 1318.09 0.955225 4.13613 0
M  V30 14505 C 1315.99 3.13124 5.01704 0
M  V30 14506 H 1314.92 0.257105 0.708811 0
M  V30 14507 H 1317.57 1.22639 1.36499 0
M  V30 14508 H 1315.96 0.595562 3.91496 0
M  V30 14509 H 1317.13 3.35326 3.16059 0
M  V30 14510 H 1315.44 2.91946 2.96911 0
M  V30 14511 H 1318.04 1.25524 5.19757 0
M  V30 14512 H 1318.38 -0.108362 4.16159 0
M  V30 14513 H 1318.92 1.51962 3.67631 0
M  V30 14514 H 1315.66 4.18748 5.04311 0
M  V30 14515 H 1315.18 2.522 5.44201 0
M  V30 14516 H 1316.86 3.05617 5.70269 0
M  V30 14517 N 1316.99 -1.36373 0.789944 0
M  V30 14518 C 1318.26 -1.9349 0.286543 0
M  V30 14519 C 1318.64 -1.7218 -1.22136 0
M  V30 14520 O 1317.99 -1.08106 -2.01309 0
M  V30 14521 C 1318.2 -3.42316 0.679749 0
M  V30 14522 C 1319.55 -4.19442 0.659791 0
M  V30 14523 O 1320.57 -3.50758 0.620256 0
M  V30 14524 O 1319.43 -5.41957 0.703159 0
M  V30 14525 H 1316.53 -0.823942 0.0710537 0
M  V30 14526 H 1319.07 -1.45551 0.872523 0
M  V30 14527 H 1317.85 -3.51485 1.7197 0
M  V30 14528 H 1317.47 -3.97542 0.0676823 0
M  V30 14529 N 1318.47 -0.542005 -1.47987 0
M  V30 14530 C 1319.41 0.214151 -2.29804 0
M  V30 14531 C 1320.38 0.922625 -1.38119 0
M  V30 14532 O 1321.57 0.921301 -1.67083 0
M  V30 14533 C 1318.71 1.24768 -3.21756 0
M  V30 14534 C 1317.82 0.546824 -4.28525 0
M  V30 14535 C 1316.96 1.56432 -5.07644 0
M  V30 14536 C 1315.99 0.847598 -6.06203 0
M  V30 14537 N 1315.13 1.81121 -6.78336 0
M  V30 14538 H 1319.97 -0.489707 -2.93949 0
M  V30 14539 H 1317.51 -0.253331 -1.44902 0
M  V30 14540 H 1319.47 1.85933 -3.73477 0
M  V30 14541 H 1318.1 1.91976 -2.59509 0
M  V30 14542 H 1317.15 -0.179026 -3.79978 0
M  V30 14543 H 1318.46 -0.0153623 -4.98798 0
M  V30 14544 H 1317.61 2.24992 -5.63439 0
M  V30 14545 H 1316.35 2.16041 -4.37238 0
M  V30 14546 H 1315.36 0.147989 -5.49601 0
M  V30 14547 H 1316.58 0.257454 -6.78612 0
M  V30 14548 H 1314.53 2.39615 -6.10672 0
M  V30 14549 H 1314.45 1.30077 -7.44725 0
M  V30 14550 H 1315.71 2.48842 -7.38714 0
M  V30 14551 N 1319.94 1.55134 -0.277709 0
M  V30 14552 C 1321.17 2.04061 0.341601 0
M  V30 14553 C 1321.59 1.15597 1.49274 0
M  V30 14554 O 1320.94 0.176625 1.81643 0
M  V30 14555 C 1320.99 3.52074 0.820139 0
M  V30 14556 O 1320.72 4.37171 -0.28516 0
M  V30 14557 C 1322.22 4.16899 1.507 0
M  V30 14558 H 1319.44 0.666501 0.0775708 0
M  V30 14559 H 1321.98 2.00336 -0.410559 0
M  V30 14560 H 1320.14 3.56233 1.52238 0
M  V30 14561 H 1320.55 5.24434 0.0832022 0
M  V30 14562 H 1322.02 5.22061 1.79323 0
M  V30 14563 H 1322.5 3.65227 2.43939 0
M  V30 14564 H 1323.11 4.16749 0.848541 0
M  V30 14565 N 1321.42 0.00503138 1.57599 0
M  V30 14566 C 1322.37 -0.993379 2.05222 0
M  V30 14567 C 1323.36 -1.30013 0.947919 0
M  V30 14568 O 1324.55 -1.29027 1.21166 0
M  V30 14569 C 1321.68 -2.28375 2.5632 0
M  V30 14570 C 1320.76 -2.00642 3.73636 0
M  V30 14571 N 1321.15 -1.43087 4.85139 0
M  V30 14572 C 1319.45 -2.30759 3.81662 0
M  V30 14573 C 1320.15 -1.31939 5.66539 0
M  V30 14574 N 1319.13 -1.80672 5.12697 0
M  V30 14575 H 1322.93 -0.542951 2.88841 0
M  V30 14576 H 1320.44 -0.20055 1.61157 0
M  V30 14577 H 1322.44 -3.00748 2.88715 0
M  V30 14578 H 1321.1 -2.74066 1.74121 0
M  V30 14579 H 1322.11 -1.10901 5.05887 0
M  V30 14580 H 1318.79 -2.7929 3.10327 0
M  V30 14581 H 1320.18 -0.876391 6.6616 0
M  V30 14582 N 1322.9 -1.55308 -0.267798 0
M  V30 14583 C 1324.15 -1.75364 -0.996515 0
M  V30 14584 C 1324.46 -0.565028 -1.87261 0
M  V30 14585 O 1325.67 -0.648119 -2.63651 0
M  V30 14586 C 1324.12 -3.10388 -1.82175 0
M  V30 14587 C 1323.73 -4.36832 -0.994062 0
M  V30 14588 C 1325.48 -3.39791 -2.54445 0
M  V30 14589 C 1323.38 -5.62893 -1.81398 0
M  V30 14590 H 1322.31 -0.653679 -0.375793 0
M  V30 14591 H 1324.96 -1.81762 -0.251975 0
M  V30 14592 H 1323.35 -2.98041 -2.60744 0
M  V30 14593 H 1324.52 -4.6011 -0.252167 0
M  V30 14594 H 1322.83 -4.1461 -0.385662 0
M  V30 14595 H 1325.43 -4.31184 -3.16203 0
M  V30 14596 H 1325.77 -2.60159 -3.24997 0
M  V30 14597 H 1326.31 -3.53259 -1.82902 0
M  V30 14598 H 1323.05 -6.45287 -1.15258 0
M  V30 14599 H 1322.57 -5.43751 -2.5317 0
M  V30 14600 H 1324.25 -6.01384 -2.38634 0
M  V30 14601 N 1324.38 0.532545 -1.4833 0
M  V30 14602 C 1325.62 1.28795 -1.57427 0
M  V30 14603 C 1325.98 1.90848 -0.243885 0
M  V30 14604 O 1325.27 1.76183 0.753 0
M  V30 14605 C 1325.47 2.40117 -2.64724 0
M  V30 14606 C 1325.29 1.88976 -4.08066 0
M  V30 14607 C 1324.06 1.71696 -4.75235 0
M  V30 14608 C 1326.26 1.41979 -4.94314 0
M  V30 14609 N 1324.24 1.15154 -6.03003 0
M  V30 14610 C 1325.62 0.973661 -6.12307 0
M  V30 14611 C 1327.67 1.30258 -4.80559 0
M  V30 14612 C 1326.37 0.42195 -7.18061 0
M  V30 14613 C 1328.4 0.764867 -5.86433 0
M  V30 14614 C 1327.76 0.328799 -7.03632 0
M  V30 14615 H 1323.86 0.462412 -0.630634 0
M  V30 14616 H 1326.44 0.600796 -1.85199 0
M  V30 14617 H 1324.62 3.06332 -2.38779 0
M  V30 14618 H 1326.35 3.07146 -2.63521 0
M  V30 14619 H 1323.1 1.95143 -4.31528 0
M  V30 14620 H 1323.53 0.888999 -6.71138 0
M  V30 14621 H 1328.17 1.62578 -3.90293 0
M  V30 14622 H 1325.89 0.0864233 -8.08054 0
M  V30 14623 H 1329.47 0.677391 -5.77843 0
M  V30 14624 H 1328.35 -0.0808116 -7.84158 0
M  V30 14625 N 1325.86 1.36875 0.78122 0
M  V30 14626 C 1326.8 1.31941 1.91557 0
M  V30 14627 C 1327.8 0.209783 1.68096 0
M  V30 14628 O 1329 0.377266 1.76002 0
M  V30 14629 H 1325.38 0.410955 0.629778 0
M  V30 14630 H 1327.35 2.27721 1.92836 0
M  V30 14631 C 1326.1 1.13379 3.28695 0
M  V30 14632 H 1325.42 1.98013 3.47319 0
M  V30 14633 H 1326.86 1.13976 4.08394 0
M  V30 14634 C 1325.32 -0.161119 3.36515 0
M  V30 14635 O 1325.85 -1.14806 3.84945 0
M  V30 14636 N 1324.06 -0.208594 2.8985 0
M  V30 14637 H 1323.6 0.595187 2.5063 0
M  V30 14638 H 1323.56 -1.07465 2.95463 0
M  V30 14639 N 1327.33 -1.00632 1.21289 0
M  V30 14640 C 1328.58 -1.73802 1.02351 0
M  V30 14641 C 1328.9 -1.90503 -0.443611 0
M  V30 14642 O 1330.1 -2.60868 -0.752356 0
M  V30 14643 C 1328.56 -3.12647 1.78269 0
M  V30 14644 C 1328.17 -3.03923 3.29142 0
M  V30 14645 C 1329.91 -3.89956 1.67735 0
M  V30 14646 C 1327.82 -4.3784 3.97556 0
M  V30 14647 H 1326.75 -0.651616 0.379358 0
M  V30 14648 H 1329.4 -1.12446 1.45011 0
M  V30 14649 H 1327.78 -3.74605 1.28401 0
M  V30 14650 H 1328.95 -2.51211 3.86303 0
M  V30 14651 H 1327.27 -2.40103 3.40205 0
M  V30 14652 H 1329.87 -4.89051 2.1618 0
M  V30 14653 H 1330.21 -4.11423 0.635338 0
M  V30 14654 H 1330.74 -3.34647 2.15072 0
M  V30 14655 H 1327.48 -4.21573 5.01952 0
M  V30 14656 H 1327 -4.90518 3.45184 0
M  V30 14657 H 1328.68 -5.06644 4.02393 0
M  V30 14658 N 1328.81 -1.02043 -1.20104 0
M  V30 14659 C 1329.74 -0.614421 -2.25271 0
M  V30 14660 C 1330.72 0.37242 -1.65973 0
M  V30 14661 O 1331.91 0.257005 -1.92492 0
M  V30 14662 C 1329.04 0.0442085 -3.47272 0
M  V30 14663 C 1327.99 -0.864019 -4.19188 0
M  V30 14664 C 1327.32 -0.0709551 -5.34653 0
M  V30 14665 C 1328.62 -2.17385 -4.74912 0
M  V30 14666 H 1330.31 -1.49355 -2.59487 0
M  V30 14667 H 1327.86 -0.719591 -1.24731 0
M  V30 14668 H 1329.81 0.339825 -4.20028 0
M  V30 14669 H 1328.53 0.958082 -3.12231 0
M  V30 14670 H 1327.19 -1.1437 -3.48303 0
M  V30 14671 H 1326.84 0.844688 -4.95857 0
M  V30 14672 H 1326.54 -0.67583 -5.83701 0
M  V30 14673 H 1328.07 0.218118 -6.1021 0
M  V30 14674 H 1329.48 -1.94034 -5.39466 0
M  V30 14675 H 1327.88 -2.72991 -5.34412 0
M  V30 14676 H 1328.95 -2.83427 -3.93443 0
M  V30 14677 N 1330.29 1.35952 -0.797165 0
M  V30 14678 C 1331.52 2.0381 -0.38421 0
M  V30 14679 C 1331.94 1.597 0.993854 0
M  V30 14680 O 1331.3 0.769148 1.64176 0
M  V30 14681 C 1331.35 3.57589 -0.465054 0
M  V30 14682 O 1330.45 4.09043 0.525095 0
M  V30 14683 H 1329.79 0.643957 -0.161912 0
M  V30 14684 H 1332.32 1.73746 -1.08043 0
M  V30 14685 H 1332.33 4.06651 -0.331448 0
M  V30 14686 H 1331.01 3.89045 -1.47027 0
M  V30 14687 H 1329.58 3.7123 0.352509 0
M  V30 14688 N 1331.77 0.549846 1.47697 0
M  V30 14689 C 1333.01 0.0230845 2.02787 0
M  V30 14690 C 1333.35 -1.32035 1.42409 0
M  V30 14691 O 1332.62 -1.85745 0.576978 0
M  V30 14692 C 1332.91 -0.0778363 3.60016 0
M  V30 14693 C 1332.76 1.29217 4.3084 0
M  V30 14694 C 1334.08 -0.794909 4.32862 0
M  V30 14695 H 1331.2 0.00986307 0.736934 0
M  V30 14696 H 1333.84 0.710714 1.76207 0
M  V30 14697 H 1331.99 -0.663464 3.82793 0
M  V30 14698 H 1333.66 1.92044 4.19424 0
M  V30 14699 H 1331.9 1.86883 3.91481 0
M  V30 14700 H 1332.57 1.17435 5.39364 0
M  V30 14701 H 1335.05 -0.297743 4.15033 0
M  V30 14702 H 1333.93 -0.834466 5.4252 0
M  V30 14703 H 1334.19 -1.84948 4.01555 0
M  V30 14704 N 1333.25 -1.54984 0.285932 0
M  V30 14705 C 1334.2 -2.19645 -0.611576 0
M  V30 14706 C 1335.18 -1.16453 -1.11029 0
M  V30 14707 O 1336.37 -1.42228 -1.05357 0
M  V30 14708 C 1333.5 -2.9293 -1.79017 0
M  V30 14709 C 1332.59 -4.03421 -1.30813 0
M  V30 14710 N 1332.98 -5.02877 -0.542993 0
M  V30 14711 C 1331.28 -4.16689 -1.59016 0
M  V30 14712 C 1331.98 -5.80986 -0.288176 0
M  V30 14713 N 1330.95 -5.36695 -0.863695 0
M  V30 14714 H 1334.76 -2.93894 -0.0192813 0
M  V30 14715 H 1332.27 -1.6215 0.0899876 0
M  V30 14716 H 1334.27 -3.37709 -2.44454 0
M  V30 14717 H 1332.93 -2.20194 -2.38631 0
M  V30 14718 H 1333.94 -5.17554 -0.189305 0
M  V30 14719 H 1330.61 -3.5515 -2.19488 0
M  V30 14720 H 1332 -6.71112 0.325337 0
M  V30 14721 N 1334.72 -0.0133892 -1.57594 0
M  V30 14722 C 1335.69 0.958601 -2.08191 0
M  V30 14723 C 1336.69 1.26408 -0.993865 0
M  V30 14724 O 1337.88 1.20703 -1.25604 0
M  V30 14725 C 1335.01 2.27971 -2.5346 0
M  V30 14726 H 1336.2 0.520686 -2.95345 0
M  V30 14727 H 1333.76 0.234351 -1.54533 0
M  V30 14728 H 1334.49 2.76424 -1.69588 0
M  V30 14729 H 1334.28 2.07116 -3.32935 0
M  V30 14730 H 1335.77 2.97672 -2.92884 0
M  V30 14731 N 1336.2 1.55448 0.259558 0
M  V30 14732 C 1337.13 1.9226 1.32508 0
M  V30 14733 C 1338.11 0.786012 1.5085 0
M  V30 14734 O 1339.3 1.04526 1.6367 0
M  V30 14735 C 1336.43 2.20627 2.68218 0
M  V30 14736 C 1335.38 3.36418 2.64589 0
M  V30 14737 C 1334.71 3.50295 4.03977 0
M  V30 14738 C 1336.01 4.72452 2.2268 0
M  V30 14739 H 1337.7 2.81509 1.01945 0
M  V30 14740 H 1335.25 1.35444 0.488965 0
M  V30 14741 H 1337.2 2.44968 3.42883 0
M  V30 14742 H 1335.93 1.28191 3.00391 0
M  V30 14743 H 1334.58 3.12065 1.92382 0
M  V30 14744 H 1334.23 2.55302 4.33394 0
M  V30 14745 H 1333.93 4.28155 4.02439 0
M  V30 14746 H 1335.46 3.76944 4.8036 0
M  V30 14747 H 1336.87 4.96249 2.87071 0
M  V30 14748 H 1335.27 5.53323 2.32279 0
M  V30 14749 H 1336.34 4.70367 1.17826 0
M  V30 14750 N 1337.68 -0.524672 1.4861 0
M  V30 14751 C 1338.61 -1.64555 1.58104 0
M  V30 14752 C 1339.59 -1.56778 0.431205 0
M  V30 14753 O 1340.78 -1.77175 0.643537 0
M  V30 14754 C 1337.9 -3.02979 1.51398 0
M  V30 14755 C 1336.95 -3.29098 2.71287 0
M  V30 14756 S 1337.78 -3.14791 4.33206 0
M  V30 14757 C 1338.94 -4.55652 4.29107 0
M  V30 14758 H 1339.17 -1.56254 2.52927 0
M  V30 14759 H 1336.7 -0.708041 1.37208 0
M  V30 14760 H 1338.66 -3.82809 1.48215 0
M  V30 14761 H 1337.32 -3.08717 0.579026 0
M  V30 14762 H 1336.52 -4.30092 2.62749 0
M  V30 14763 H 1336.12 -2.56949 2.7176 0
M  V30 14764 H 1338.41 -5.47277 3.99367 0
M  V30 14765 H 1339.35 -4.69244 5.30298 0
M  V30 14766 H 1339.76 -4.35223 3.59501 0
M  V30 14767 N 1339.16 -1.37287 -0.77395 0
M  V30 14768 C 1340.09 -1.35569 -1.90114 0
M  V30 14769 C 1341.07 -0.224658 -1.6861 0
M  V30 14770 O 1342.25 -0.424676 -1.895 0
M  V30 14771 C 1339.38 -1.15971 -3.27365 0
M  V30 14772 C 1338.34 -2.26063 -3.63427 0
M  V30 14773 C 1337.66 -1.9159 -4.99197 0
M  V30 14774 C 1338.96 -3.68236 -3.70405 0
M  V30 14775 H 1340.66 -2.29891 -1.91808 0
M  V30 14776 H 1338.2 -1.10661 -0.92142 0
M  V30 14777 H 1340.16 -1.134 -4.05855 0
M  V30 14778 H 1338.88 -0.181043 -3.26098 0
M  V30 14779 H 1337.54 -2.27786 -2.87244 0
M  V30 14780 H 1337.19 -0.922586 -4.94467 0
M  V30 14781 H 1336.89 -2.65309 -5.24294 0
M  V30 14782 H 1338.41 -1.90602 -5.80089 0
M  V30 14783 H 1339.83 -3.68655 -4.39052 0
M  V30 14784 H 1338.22 -4.4099 -4.06999 0
M  V30 14785 H 1339.29 -4.02021 -2.71122 0
M  V30 14786 N 1340.64 0.999871 -1.21821 0
M  V30 14787 C 1341.88 1.73497 -1.0365 0
M  V30 14788 C 1342.21 1.90194 0.430271 0
M  V30 14789 O 1341.48 1.45655 1.31002 0
M  V30 14790 H 1340.06 0.642804 -0.380541 0
M  V30 14791 H 1342.72 1.20461 -1.53216 0
M  V30 14792 H 1341.81 2.73215 -1.50864 0
M  V30 14793 N 1342.11 1.02678 1.19562 0
M  V30 14794 C 1343.06 0.599259 2.24748 0
M  V30 14795 C 1344.06 -0.367079 1.65375 0
M  V30 14796 O 1345.26 -0.235887 1.78448 0
M  V30 14797 H 1341.64 0.175517 0.73123 0
M  V30 14798 H 1343.61 1.4971 2.58127 0
M  V30 14799 C 1342.36 -0.0362515 3.47681 0
M  V30 14800 H 1341.68 0.698343 3.93654 0
M  V30 14801 H 1343.12 -0.298361 4.22949 0
M  V30 14802 C 1341.58 -1.28218 3.11547 0
M  V30 14803 O 1342.11 -2.37446 3.24009 0
M  V30 14804 N 1340.32 -1.17014 2.66 0
M  V30 14805 H 1339.86 -0.28132 2.56059 0
M  V30 14806 H 1339.82 -2.00473 2.42194 0
M  V30 14807 N 1343.59 -1.35528 0.804364 0
M  V30 14808 C 1344.84 -1.98832 0.383692 0
M  V30 14809 C 1345.17 -1.63816 -1.04855 0
M  V30 14810 O 1344.42 -0.892272 -1.74175 0
M  V30 14811 C 1344.72 -3.5372 0.511571 0
M  V30 14812 C 1344.39 -4.08597 1.9068 0
M  V30 14813 C 1343.05 -4.23297 2.28852 0
M  V30 14814 C 1345.4 -4.3834 2.81971 0
M  V30 14815 C 1342.73 -4.65056 3.57687 0
M  V30 14816 C 1345.08 -4.81537 4.1025 0
M  V30 14817 C 1343.75 -4.94442 4.48423 0
M  V30 14818 H 1343.02 -0.727577 0.140403 0
M  V30 14819 H 1345.66 -1.61777 1.02472 0
M  V30 14820 H 1343.97 -3.91221 -0.212916 0
M  V30 14821 H 1345.66 -4.00653 0.166888 0
M  V30 14822 H 1342.25 -3.97606 1.60023 0
M  V30 14823 H 1346.44 -4.26538 2.5373 0
M  V30 14824 H 1341.69 -4.73236 3.87115 0
M  V30 14825 H 1345.87 -5.03512 4.81091 0
M  V30 14826 H 1343.5 -5.26558 5.48307 0
M  V30 14827 N 1345.07 -0.557671 -1.47404 0
M  V30 14828 C 1345.98 0.19289 -2.33806 0
M  V30 14829 C 1347 0.911424 -1.4822 0
M  V30 14830 O 1348.17 0.880214 -1.81147 0
M  V30 14831 C 1345.24 1.20937 -3.24923 0
M  V30 14832 C 1344.3 0.498209 -4.26399 0
M  V30 14833 C 1343.53 1.46626 -5.13163 0
M  V30 14834 O 1343.76 2.70111 -5.0239 0
M  V30 14835 O 1342.69 0.990497 -5.93694 0
M  V30 14836 H 1346.52 -0.515861 -2.99287 0
M  V30 14837 H 1344.1 -0.318283 -1.4597 0
M  V30 14838 H 1345.98 1.7961 -3.81206 0
M  V30 14839 H 1344.66 1.90003 -2.6207 0
M  V30 14840 H 1343.56 -0.129736 -3.73875 0
M  V30 14841 H 1344.9 -0.151015 -4.91968 0
M  V30 14842 N 1346.55 1.54831 -0.294147 0
M  V30 14843 C 1347.8 1.99179 0.317874 0
M  V30 14844 C 1348.11 1.18614 1.55532 0
M  V30 14845 O 1349.32 1.53197 2.24149 0
M  V30 14846 C 1347.77 3.54574 0.616893 0
M  V30 14847 C 1347.38 4.43939 -0.601822 0
M  V30 14848 C 1349.13 4.07465 1.19049 0
M  V30 14849 C 1347.03 5.90754 -0.276336 0
M  V30 14850 H 1345.96 0.743974 0.12255 0
M  V30 14851 H 1348.61 1.79047 -0.401781 0
M  V30 14852 H 1347 3.70579 1.39596 0
M  V30 14853 H 1348.17 4.39706 -1.37822 0
M  V30 14854 H 1346.48 4.01783 -1.09357 0
M  V30 14855 H 1349.08 5.14716 1.44814 0
M  V30 14856 H 1349.42 3.5765 2.13055 0
M  V30 14857 H 1349.96 3.94975 0.473282 0
M  V30 14858 H 1346.7 6.44704 -1.18478 0
M  V30 14859 H 1346.22 5.98011 0.462928 0
M  V30 14860 H 1347.9 6.4688 0.124587 0
M  V30 14861 N 1348.03 0.0217466 1.57585 0
M  V30 14862 C 1348.99 -0.947546 2.08696 0
M  V30 14863 C 1349.99 -1.25879 1.00055 0
M  V30 14864 O 1351.18 -1.20035 1.26242 0
M  V30 14865 C 1348.31 -2.26624 2.54665 0
M  V30 14866 H 1349.51 -0.505016 2.95617 0
M  V30 14867 H 1347.06 -0.226152 1.54655 0
M  V30 14868 H 1347.79 -2.75521 1.71052 0
M  V30 14869 H 1347.58 -2.05347 3.34028 0
M  V30 14870 H 1349.07 -2.96114 2.94459 0
M  V30 14871 N 1349.51 -1.55583 -0.251311 0
M  V30 14872 C 1350.42 -1.93073 -1.33266 0
M  V30 14873 C 1351.43 -0.830612 -1.52895 0
M  V30 14874 O 1352.61 -1.13162 -1.66602 0
M  V30 14875 C 1349.67 -2.21396 -2.66805 0
M  V30 14876 C 1348.73 -3.44815 -2.55737 0
M  V30 14877 C 1347.97 -3.71777 -3.82907 0
M  V30 14878 O 1348.19 -3.00884 -4.84587 0
M  V30 14879 O 1347.12 -4.65305 -3.81805 0
M  V30 14880 H 1350.95 -2.85168 -1.04465 0
M  V30 14881 H 1348.53 -1.42408 -0.451693 0
M  V30 14882 H 1350.42 -2.4094 -3.45725 0
M  V30 14883 H 1349.09 -1.3248 -2.95348 0
M  V30 14884 H 1348 -3.30582 -1.75118 0
M  V30 14885 H 1349.33 -4.34019 -2.32139 0
M  V30 14886 N 1350.98 0.516783 -1.48886 0
M  V30 14887 C 1352.21 1.2944 -1.61024 0
M  V30 14888 C 1352.62 1.87195 -0.274705 0
M  V30 14889 O 1351.96 1.67787 0.747868 0
M  V30 14890 C 1352.03 2.4743 -2.60804 0
M  V30 14891 C 1351.69 2.10663 -4.05549 0
M  V30 14892 C 1352.69 1.65559 -4.92835 0
M  V30 14893 C 1350.37 2.20782 -4.51177 0
M  V30 14894 C 1352.37 1.31057 -6.23781 0
M  V30 14895 C 1350.05 1.85891 -5.82141 0
M  V30 14896 C 1351.05 1.41101 -6.68266 0
M  V30 14897 O 1350.74 1.06674 -7.96791 0
M  V30 14898 H 1350.47 0.399402 -0.545394 0
M  V30 14899 H 1353.03 0.628719 -1.95541 0
M  V30 14900 H 1351.26 3.17023 -2.21435 0
M  V30 14901 H 1352.94 3.09478 -2.62637 0
M  V30 14902 H 1353.71 1.57201 -4.58817 0
M  V30 14903 H 1349.59 2.54598 -3.84319 0
M  V30 14904 H 1353.13 0.960245 -6.9096 0
M  V30 14905 H 1349.03 1.93894 -6.15691 0
M  V30 14906 H 1349.8 1.19958 -8.09662 0
M  V30 14907 N 1352.46 1.37696 0.766659 0
M  V30 14908 C 1353.42 1.33688 1.86172 0
M  V30 14909 C 1354.42 0.239922 1.59 0
M  V30 14910 O 1355.61 0.496066 1.66988 0
M  V30 14911 C 1352.75 1.07807 3.23405 0
M  V30 14912 H 1353.94 2.311 1.91136 0
M  V30 14913 H 1351.49 1.22799 0.966961 0
M  V30 14914 H 1352.23 0.109477 3.24115 0
M  V30 14915 H 1352.01 1.87213 3.4452 0
M  V30 14916 H 1353.5 1.07665 4.03482 0
M  V30 14917 N 1353.94 -0.993397 1.22349 0
M  V30 14918 C 1354.87 -2.10171 1.01737 0
M  V30 14919 C 1355.85 -1.69989 -0.0615276 0
M  V30 14920 O 1357.04 -1.93939 0.100591 0
M  V30 14921 C 1354.17 -3.42186 0.593801 0
M  V30 14922 C 1353.12 -3.96215 1.61858 0
M  V30 14923 C 1352.45 -5.24272 1.05086 0
M  V30 14924 C 1353.75 -4.26956 3.00842 0
M  V30 14925 H 1355.44 -2.27673 1.94436 0
M  V30 14926 H 1352.99 -1.09408 0.936258 0
M  V30 14927 H 1354.94 -4.19131 0.436715 0
M  V30 14928 H 1353.66 -3.2451 -0.368855 0
M  V30 14929 H 1352.32 -3.21401 1.76343 0
M  V30 14930 H 1351.97 -5.02937 0.0795747 0
M  V30 14931 H 1351.67 -5.61387 1.73547 0
M  V30 14932 H 1353.19 -6.03851 0.905349 0
M  V30 14933 H 1354.61 -4.94699 2.89734 0
M  V30 14934 H 1353 -4.75242 3.66422 0
M  V30 14935 H 1354.07 -3.34752 3.50812 0
M  V30 14936 N 1355.42 -1.03311 -1.19015 0
M  V30 14937 C 1356.35 -0.575655 -2.21853 0
M  V30 14938 C 1357.36 0.350705 -1.58978 0
M  V30 14939 O 1358.55 0.146425 -1.77898 0
M  V30 14940 C 1355.65 0.179949 -3.38422 0
M  V30 14941 C 1354.82 -0.752403 -4.3088 0
M  V30 14942 C 1353.88 -0.0414484 -5.26184 0
M  V30 14943 O 1352.91 -0.669403 -5.6525 0
M  V30 14944 N 1354.11 1.22783 -5.67366 0
M  V30 14945 H 1356.88 -1.46013 -2.61726 0
M  V30 14946 H 1354.44 -0.912655 -1.33724 0
M  V30 14947 H 1356.43 0.66522 -3.99195 0
M  V30 14948 H 1355 0.965879 -2.97304 0
M  V30 14949 H 1354.22 -1.41768 -3.67825 0
M  V30 14950 H 1355.51 -1.38592 -4.89561 0
M  V30 14951 H 1354.91 1.75867 -5.37668 0
M  V30 14952 H 1353.46 1.65752 -6.30372 0
M  V30 14953 N 1356.9 1.35099 -0.81154 0
M  V30 14954 C 1358.31 1.51701 -0.495883 0
M  V30 14955 C 1358.51 1.7595 0.982035 0
M  V30 14956 O 1357.57 1.8038 1.7669 0
M  V30 14957 C 1358.88 2.68916 -1.34554 0
M  V30 14958 C 1360.43 2.82795 -1.34149 0
M  V30 14959 C 1360.9 4.0304 -2.17538 0
M  V30 14960 N 1362.39 4.10227 -2.151 0
M  V30 14961 C 1363.13 5.02397 -2.76377 0
M  V30 14962 N 1362.63 5.99866 -3.46601 0
M  V30 14963 N 1364.42 4.95181 -2.65992 0
M  V30 14964 H 1356.57 1.17617 -1.76862 0
M  V30 14965 H 1358.83 0.575875 -0.753042 0
M  V30 14966 H 1358.54 2.57591 -2.39458 0
M  V30 14967 H 1358.41 3.63641 -1.00223 0
M  V30 14968 H 1360.8 2.93568 -0.300285 0
M  V30 14969 H 1360.88 1.88912 -1.7247 0
M  V30 14970 H 1360.52 3.93027 -3.21702 0
M  V30 14971 H 1360.45 4.96114 -1.76574 0
M  V30 14972 H 1362.95 3.40454 -1.6401 0
M  V30 14973 H 1363.26 6.66803 -3.90632 0
M  V30 14974 H 1361.6 6.00025 -3.50706 0
M  V30 14975 H 1364.79 4.17991 -2.10715 0
M  V30 14976 H 1364.97 5.6682 -3.14036 0
M  V30 14977 N 1358.37 0.56548 1.47106 0
M  V30 14978 C 1359.6 0.0496298 2.0684 0
M  V30 14979 C 1360.02 -1.24777 1.4169 0
M  V30 14980 O 1359.37 -1.75046 0.516239 0
M  V30 14981 C 1359.42 -0.140987 3.61225 0
M  V30 14982 O 1359.15 1.10504 4.23934 0
M  V30 14983 C 1360.65 -0.693171 4.37847 0
M  V30 14984 H 1357.87 0.0496018 0.669164 0
M  V30 14985 H 1360.41 0.781247 1.88989 0
M  V30 14986 H 1358.57 -0.822762 3.78562 0
M  V30 14987 H 1358.98 0.907978 5.16581 0
M  V30 14988 H 1360.45 -0.7758 5.46521 0
M  V30 14989 H 1360.93 -1.70632 4.04699 0
M  V30 14990 H 1361.54 -0.046826 4.25274 0
M  V30 14991 N 1359.85 -1.54672 0.302354 0
M  V30 14992 C 1360.8 -2.2357 -0.573141 0
M  V30 14993 C 1361.77 -1.21878 -1.12849 0
M  V30 14994 O 1362.95 -1.50502 -1.17277 0
M  V30 14995 C 1360.09 -2.98111 -1.7385 0
M  V30 14996 C 1359.21 -4.14579 -1.21441 0
M  V30 14997 C 1358.34 -4.76699 -2.34374 0
M  V30 14998 C 1357.38 -5.8531 -1.79106 0
M  V30 14999 N 1356.52 -6.41379 -2.85618 0
M  V30 15000 H 1361.36 -2.97993 0.0209969 0
M  V30 15001 H 1358.9 -1.47083 0.0221318 0
M  V30 15002 H 1360.85 -3.39561 -2.42392 0
M  V30 15003 H 1359.48 -2.26063 -2.30425 0
M  V30 15004 H 1358.54 -3.78061 -0.421204 0
M  V30 15005 H 1359.85 -4.92824 -0.769821 0
M  V30 15006 H 1359 -5.21009 -3.10861 0
M  V30 15007 H 1357.74 -3.9779 -2.8216 0
M  V30 15008 H 1356.75 -5.40423 -1.01109 0
M  V30 15009 H 1357.97 -6.66104 -1.32222 0
M  V30 15010 H 1355.92 -5.65352 -3.32735 0
M  V30 15011 H 1355.83 -7.14974 -2.45659 0
M  V30 15012 H 1357.1 -6.90346 -3.61998 0
M  V30 15013 N 1361.33 -0.0301034 -1.57571 0
M  V30 15014 C 1362.56 0.662045 -1.9655 0
M  V30 15015 C 1362.98 1.64811 -0.906581 0
M  V30 15016 O 1362.34 1.80816 0.132415 0
M  V30 15017 C 1362.39 1.34389 -3.34622 0
M  V30 15018 O 1361.49 2.45919 -3.31056 0
M  V30 15019 H 1360.83 0.173842 -0.640839 0
M  V30 15020 H 1363.36 -0.092248 -2.04392 0
M  V30 15021 H 1363.37 1.70045 -3.70875 0
M  V30 15022 H 1362.05 0.621092 -4.11236 0
M  V30 15023 H 1360.62 2.12367 -3.06521 0
M  V30 15024 N 1362.81 1.55714 0.243056 0
M  V30 15025 C 1364.04 1.81522 0.986577 0
M  V30 15026 C 1364.45 0.604051 1.79298 0
M  V30 15027 O 1363.79 -0.43674 1.78433 0
M  V30 15028 C 1363.85 3.0074 1.96967 0
M  V30 15029 C 1363.52 4.3661 1.34983 0
M  V30 15030 C 1364.51 5.14456 0.7504 0
M  V30 15031 C 1362.2 4.83311 1.36805 0
M  V30 15032 C 1364.19 6.37153 0.177438 0
M  V30 15033 C 1361.88 6.05956 0.791233 0
M  V30 15034 C 1362.88 6.82716 0.196959 0
M  V30 15035 O 1362.56 8.03044 -0.370938 0
M  V30 15036 H 1362.3 0.607864 0.295765 0
M  V30 15037 H 1364.85 2.03617 0.270018 0
M  V30 15038 H 1363.08 2.74409 2.72464 0
M  V30 15039 H 1364.77 3.13606 2.57694 0
M  V30 15040 H 1365.54 4.79493 0.728809 0
M  V30 15041 H 1361.41 4.23553 1.81999 0
M  V30 15042 H 1364.96 6.97009 -0.287042 0
M  V30 15043 H 1360.86 6.40396 0.810164 0
M  V30 15044 H 1361.62 8.18077 -0.263173 0
M  V30 15045 N 1364.29 -0.50888 1.49158 0
M  V30 15046 C 1365.56 -1.27021 1.48745 0
M  V30 15047 C 1365.94 -2.10045 0.210772 0
M  V30 15048 O 1365.29 -2.13773 -0.807061 0
M  V30 15049 C 1365.5 -2.13367 2.76181 0
M  V30 15050 C 1366.85 -2.72815 3.25357 0
M  V30 15051 O 1367.87 -2.23639 2.77243 0
M  V30 15052 O 1366.73 -3.62316 4.09133 0
M  V30 15053 H 1363.83 -0.574387 0.594986 0
M  V30 15054 H 1366.37 -0.523798 1.61414 0
M  V30 15055 H 1365.14 -1.51941 3.60596 0
M  V30 15056 H 1364.77 -2.95215 2.66334 0
M  V30 15057 N 1365.76 -1.381 -0.759346 0
M  V30 15058 C 1366.71 -1.34866 -1.87296 0
M  V30 15059 C 1367.68 -0.212139 -1.6474 0
M  V30 15060 O 1368.87 -0.403464 -1.86485 0
M  V30 15061 C 1366.01 -1.17383 -3.24523 0
M  V30 15062 C 1365.12 -2.40372 -3.5895 0
M  V30 15063 C 1364.25 -2.15665 -4.8545 0
M  V30 15064 C 1363.29 -3.34455 -5.12646 0
M  V30 15065 N 1362.43 -3.0922 -6.30339 0
M  V30 15066 H 1367.27 -2.30072 -1.89396 0
M  V30 15067 H 1364.81 -1.14314 -0.925788 0
M  V30 15068 H 1366.77 -1.05264 -4.03702 0
M  V30 15069 H 1365.4 -0.258182 -3.21766 0
M  V30 15070 H 1364.45 -2.63185 -2.74659 0
M  V30 15071 H 1365.76 -3.28926 -3.74978 0
M  V30 15072 H 1364.91 -2.00649 -5.7256 0
M  V30 15073 H 1363.65 -1.24467 -4.7155 0
M  V30 15074 H 1362.66 -3.49997 -4.24007 0
M  V30 15075 H 1363.88 -4.26521 -5.28448 0
M  V30 15076 H 1361.83 -2.20664 -6.17773 0
M  V30 15077 H 1361.75 -3.91321 -6.46841 0
M  V30 15078 H 1363.01 -2.97847 -7.20352 0
M  V30 15079 N 1367.24 0.986894 -1.22875 0
M  V30 15080 C 1368.17 2.09628 -1.0285 0
M  V30 15081 C 1369.15 1.70019 0.0525118 0
M  V30 15082 O 1370.34 1.93883 -0.110874 0
M  V30 15083 C 1367.47 3.41866 -0.61194 0
M  V30 15084 C 1366.42 3.95351 -1.63956 0
M  V30 15085 C 1365.75 5.23707 -1.07865 0
M  V30 15086 C 1367.05 4.25354 -3.03102 0
M  V30 15087 H 1368.74 2.26639 -1.95641 0
M  V30 15088 H 1366.29 1.0891 -0.942048 0
M  V30 15089 H 1368.24 4.18893 -0.458936 0
M  V30 15090 H 1366.97 3.24701 0.35164 0
M  V30 15091 H 1365.62 3.20462 -1.78045 0
M  V30 15092 H 1365.27 5.02888 -0.106246 0
M  V30 15093 H 1364.97 5.60459 -1.76522 0
M  V30 15094 H 1366.5 6.03362 -0.937359 0
M  V30 15095 H 1367.91 4.93156 -2.92353 0
M  V30 15096 H 1366.31 4.73292 -3.68938 0
M  V30 15097 H 1367.38 3.32887 -3.52583 0
M  V30 15098 N 1368.72 1.0394 1.18466 0
M  V30 15099 C 1369.95 0.761926 1.92897 0
M  V30 15100 C 1370.37 -0.674618 1.75586 0
M  V30 15101 O 1369.73 -1.46711 1.06515 0
M  V30 15102 C 1369.78 1.13152 3.42387 0
M  V30 15103 O 1368.88 0.256266 4.11603 0
M  V30 15104 H 1368.22 0.280527 0.601831 0
M  V30 15105 H 1370.75 1.3889 1.50235 0
M  V30 15106 H 1370.76 1.0929 3.9309 0
M  V30 15107 H 1369.44 2.17804 3.54308 0
M  V30 15108 H 1368.01 0.354392 3.71212 0
M  V30 15109 N 1370.2 -1.34667 0.818693 0
M  V30 15110 C 1371.45 -1.98414 0.404759 0
M  V30 15111 C 1371.77 -1.64919 -1.03112 0
M  V30 15112 O 1371.03 -0.910695 -1.73219 0
M  V30 15113 C 1371.33 -3.53157 0.549059 0
M  V30 15114 C 1370.99 -4.06552 1.95003 0
M  V30 15115 C 1369.66 -4.20846 2.33329 0
M  V30 15116 C 1372.01 -4.35324 2.86604 0
M  V30 15117 C 1369.34 -4.61236 3.62599 0
M  V30 15118 C 1371.69 -4.77159 4.15334 0
M  V30 15119 C 1370.35 -4.89658 4.53642 0
M  V30 15120 H 1369.62 -0.726047 0.148112 0
M  V30 15121 H 1372.27 -1.60681 1.04182 0
M  V30 15122 H 1370.57 -3.91425 -0.17141 0
M  V30 15123 H 1372.27 -4.00453 0.209374 0
M  V30 15124 H 1368.86 -3.95887 1.64231 0
M  V30 15125 H 1373.04 -4.23823 2.58239 0
M  V30 15126 H 1368.3 -4.69104 3.92112 0
M  V30 15127 H 1372.47 -4.98381 4.86404 0
M  V30 15128 H 1370.1 -5.20713 5.53861 0
M  V30 15129 N 1371.68 -0.573274 -1.46804 0
M  V30 15130 C 1372.61 0.153316 -2.32996 0
M  V30 15131 C 1373.59 0.893013 -1.44773 0
M  V30 15132 O 1374.77 0.870329 -1.73606 0
M  V30 15133 C 1371.9 1.1736 -3.2687 0
M  V30 15134 C 1370.86 0.549347 -4.2446 0
M  V30 15135 C 1370.18 1.67542 -5.07773 0
M  V30 15136 C 1371.48 -0.50736 -5.1983 0
M  V30 15137 H 1373.18 -0.566305 -2.93995 0
M  V30 15138 H 1370.72 -0.273785 -1.41373 0
M  V30 15139 H 1372.68 1.6902 -3.86019 0
M  V30 15140 H 1371.4 1.92337 -2.63958 0
M  V30 15141 H 1370.06 0.0539142 -3.6656 0
M  V30 15142 H 1369.71 2.41463 -4.41253 0
M  V30 15143 H 1369.41 1.26343 -5.73856 0
M  V30 15144 H 1370.93 2.19496 -5.69784 0
M  V30 15145 H 1372.34 -0.0762061 -5.73249 0
M  V30 15146 H 1370.74 -0.839139 -5.94204 0
M  V30 15147 H 1371.81 -1.39723 -4.64333 0
M  V30 15148 N 1373.15 1.5451 -0.310553 0
M  V30 15149 C 1374.38 2.04442 0.297807 0
M  V30 15150 C 1374.79 1.18695 1.47337 0
M  V30 15151 O 1374.14 0.207405 1.82525 0
M  V30 15152 C 1374.2 3.50306 0.807851 0
M  V30 15153 C 1373.86 4.5635 -0.24369 0
M  V30 15154 C 1374.86 5.08656 -1.07539 0
M  V30 15155 C 1372.54 5.00798 -0.388138 0
M  V30 15156 C 1374.54 6.03961 -2.03738 0
M  V30 15157 C 1372.22 5.95921 -1.35357 0
M  V30 15158 C 1373.22 6.47387 -2.17667 0
M  V30 15159 O 1372.91 7.40644 -3.12571 0
M  V30 15160 H 1372.64 0.672646 0.0672525 0
M  V30 15161 H 1375.2 2.00389 -0.450948 0
M  V30 15162 H 1373.43 3.51714 1.6073 0
M  V30 15163 H 1375.12 3.83383 1.33314 0
M  V30 15164 H 1375.88 4.75105 -0.97471 0
M  V30 15165 H 1371.76 4.60361 0.242608 0
M  V30 15166 H 1375.3 6.44057 -2.68023 0
M  V30 15167 H 1371.2 6.2889 -1.45493 0
M  V30 15168 H 1371.97 7.58477 -3.0766 0
M  V30 15169 N 1374.63 0.0384594 1.57553 0
M  V30 15170 C 1375.88 -0.63814 1.92182 0
M  V30 15171 C 1376.21 -1.71595 0.915714 0
M  V30 15172 O 1375.46 -1.9556 -0.0739533 0
M  V30 15173 C 1375.76 -1.28439 3.33524 0
M  V30 15174 C 1375.43 -0.336034 4.49646 0
M  V30 15175 C 1374.09 -0.0750373 4.81141 0
M  V30 15176 C 1376.44 0.314642 5.20249 0
M  V30 15177 C 1373.77 0.844286 5.80593 0
M  V30 15178 C 1376.12 1.22208 6.20684 0
M  V30 15179 C 1374.79 1.49187 6.50615 0
M  V30 15180 H 1374.06 -0.233512 0.703245 0
M  V30 15181 H 1376.7 0.102223 1.91227 0
M  V30 15182 H 1375.01 -2.09973 3.30785 0
M  V30 15183 H 1376.71 -1.81462 3.57593 0
M  V30 15184 H 1373.3 -0.549638 4.25061 0
M  V30 15185 H 1377.48 0.126074 4.9614 0
M  V30 15186 H 1372.74 1.06092 6.02125 0
M  V30 15187 H 1376.91 1.7324 6.74508 0
M  V30 15188 H 1374.54 2.20588 7.27492 0
M  V30 15189 N 1376.11 -1.55841 -0.234795 0
M  V30 15190 C 1377.36 -1.78238 -0.961116 0
M  V30 15191 C 1377.69 -0.604919 -1.84854 0
M  V30 15192 O 1376.94 0.411289 -1.91329 0
M  V30 15193 C 1377.24 -3.06262 -1.84223 0
M  V30 15194 C 1376.91 -4.37045 -1.10916 0
M  V30 15195 C 1375.57 -4.72582 -0.906606 0
M  V30 15196 C 1377.92 -5.17844 -0.59049 0
M  V30 15197 C 1375.25 -5.86444 -0.173275 0
M  V30 15198 C 1377.6 -6.32468 0.129433 0
M  V30 15199 C 1376.26 -6.66616 0.343357 0
M  V30 15200 H 1375.53 -0.652219 -0.351697 0
M  V30 15201 H 1378.18 -1.9011 -0.230272 0
M  V30 15202 H 1376.49 -2.89454 -2.64052 0
M  V30 15203 H 1378.18 -3.20791 -2.40612 0
M  V30 15204 H 1374.77 -4.09134 -1.27699 0
M  V30 15205 H 1378.96 -4.90835 -0.734487 0
M  V30 15206 H 1374.21 -6.114 0.00282409 0
M  V30 15207 H 1378.39 -6.94312 0.538905 0
M  V30 15208 H 1376.01 -7.54691 0.913538 0
M  V30 15209 N 1377.59 0.500963 -1.49426 0
M  V30 15210 C 1378.81 1.28383 -1.62888 0
M  V30 15211 C 1379.24 1.85688 -0.300262 0
M  V30 15212 O 1378.6 1.6586 0.73212 0
M  V30 15213 C 1378.65 2.38987 -2.70033 0
M  V30 15214 O 1377.75 3.42837 -2.29208 0
M  V30 15215 H 1377.09 0.379012 -0.545202 0
M  V30 15216 H 1379.62 0.59971 -1.95613 0
M  V30 15217 H 1379.63 2.84749 -2.92202 0
M  V30 15218 H 1378.31 1.96643 -3.66475 0
M  V30 15219 H 1376.88 3.02993 -2.1737 0
M  V30 15220 N 1379.07 1.38501 0.752011 0
M  V30 15221 C 1380.32 1.34529 1.50819 0
M  V30 15222 C 1380.64 -0.0636155 1.94896 0
M  V30 15223 O 1379.91 -1.01161 1.6776 0
M  V30 15224 H 1378.49 0.49501 0.559441 0
M  V30 15225 H 1381.15 1.73196 0.893822 0
M  V30 15226 H 1380.24 1.99713 2.39835 0
M  V30 15227 N 1380.55 -0.980364 1.23396 0
M  V30 15228 C 1381.5 -2.05753 0.982323 0
M  V30 15229 C 1382.48 -1.6074 -0.0716939 0
M  V30 15230 O 1383.67 -1.76442 0.140438 0
M  V30 15231 C 1380.8 -3.38442 0.575481 0
M  V30 15232 C 1379.89 -3.90054 1.6649 0
M  V30 15233 N 1380.28 -4.14744 2.89519 0
M  V30 15234 C 1378.58 -4.18588 1.53949 0
M  V30 15235 C 1379.28 -4.56877 3.60053 0
M  V30 15236 N 1378.25 -4.61309 2.87567 0
M  V30 15237 H 1382.05 -2.22801 1.91669 0
M  V30 15238 H 1379.57 -1.16314 1.13335 0
M  V30 15239 H 1381.57 -4.15197 0.376477 0
M  V30 15240 H 1380.23 -3.22788 -0.351844 0
M  V30 15241 H 1381.24 -4.02566 3.25824 0
M  V30 15242 H 1377.91 -4.11937 0.679275 0
M  V30 15243 H 1379.3 -4.84498 4.65523 0
M  V30 15244 N 1382.02 -1.04567 -1.17913 0
M  V30 15245 C 1383.27 -0.747179 -1.8735 0
M  V30 15246 C 1383.59 0.728274 -1.81537 0
M  V30 15247 O 1384.79 1.14048 -2.46385 0
M  V30 15248 C 1383.25 -1.28629 -3.36129 0
M  V30 15249 C 1382.86 -2.79073 -3.5046 0
M  V30 15250 C 1384.6 -1.06455 -4.10935 0
M  V30 15251 C 1382.51 -3.26316 -4.93226 0
M  V30 15252 H 1381.44 -0.275807 -0.701745 0
M  V30 15253 H 1384.09 -1.26215 -1.33199 0
M  V30 15254 H 1382.47 -0.699151 -3.89779 0
M  V30 15255 H 1383.64 -3.43587 -3.07057 0
M  V30 15256 H 1381.96 -2.99716 -2.89066 0
M  V30 15257 H 1384.56 -1.3926 -5.16247 0
M  V30 15258 H 1384.9 -0.00201298 -4.163 0
M  V30 15259 H 1385.43 -1.61656 -3.63472 0
M  V30 15260 H 1382.17 -4.31972 -4.93032 0
M  V30 15261 H 1381.69 -2.6654 -5.37323 0
M  V30 15262 H 1383.37 -3.2063 -5.61966 0
M  V30 15263 N 1383.5 1.34231 -0.825823 0
M  V30 15264 C 1384.41 2.33245 -0.251803 0
M  V30 15265 C 1385.43 1.62756 0.615334 0
M  V30 15266 O 1386.6 1.94503 0.522547 0
M  V30 15267 C 1383.67 3.41908 0.574456 0
M  V30 15268 C 1382.73 4.2814 -0.315422 0
M  V30 15269 C 1381.96 5.31613 0.471496 0
M  V30 15270 O 1382.19 5.44337 1.70449 0
M  V30 15271 O 1381.12 6.01719 -0.147691 0
M  V30 15272 H 1384.95 2.84174 -1.07139 0
M  V30 15273 H 1382.53 1.37341 -0.588032 0
M  V30 15274 H 1384.41 4.08252 1.04444 0
M  V30 15275 H 1383.09 2.93217 1.37132 0
M  V30 15276 H 1381.99 3.64709 -0.832963 0
M  V30 15277 H 1383.33 4.80279 -1.07672 0
M  V30 15278 N 1384.98 0.581051 1.46498 0
M  V30 15279 C 1385.93 -0.153147 2.30291 0
M  V30 15280 C 1386.9 -0.885681 1.40517 0
M  V30 15281 O 1388.08 -0.876678 1.69467 0
M  V30 15282 C 1385.22 -1.16193 3.24951 0
M  V30 15283 C 1384.33 -0.433016 4.29824 0
M  V30 15284 C 1383.47 -1.42918 5.11613 0
M  V30 15285 C 1382.51 -0.686576 6.08237 0
M  V30 15286 N 1381.65 -1.63072 6.829 0
M  V30 15287 H 1386.49 0.56747 2.92547 0
M  V30 15288 H 1384.02 0.29166 1.4418 0
M  V30 15289 H 1385.98 -1.75965 3.78275 0
M  V30 15290 H 1384.61 -1.85028 2.64508 0
M  V30 15291 H 1383.66 0.279707 3.7937 0
M  V30 15292 H 1384.97 0.147604 4.98582 0
M  V30 15293 H 1384.13 -2.09975 5.69206 0
M  V30 15294 H 1382.87 -2.04373 4.42813 0
M  V30 15295 H 1381.87 -0.00222013 5.498 0
M  V30 15296 H 1383.1 -0.0774416 6.79056 0
M  V30 15297 H 1381.04 -2.2334 6.1681 0
M  V30 15298 H 1380.96 -1.10286 7.47912 0
M  V30 15299 H 1382.23 -2.29169 7.45052 0
M  V30 15300 N 1386.46 -1.54343 0.318742 0
M  V30 15301 C 1387.39 -2.27118 -0.542206 0
M  V30 15302 C 1388.37 -1.27731 -1.12334 0
M  V30 15303 O 1389.55 -1.56535 -1.14937 0
M  V30 15304 C 1386.68 -3.02535 -1.70558 0
M  V30 15305 C 1385.64 -4.09218 -1.25398 0
M  V30 15306 C 1384.96 -4.72449 -2.50391 0
M  V30 15307 C 1386.26 -5.20971 -0.372332 0
M  V30 15308 H 1387.96 -2.9933 0.0648226 0
M  V30 15309 H 1385.5 -1.43963 0.0326168 0
M  V30 15310 H 1387.46 -3.52174 -2.31412 0
M  V30 15311 H 1386.18 -2.27931 -2.33912 0
M  V30 15312 H 1384.84 -3.60455 -0.668392 0
M  V30 15313 H 1384.49 -3.94466 -3.12099 0
M  V30 15314 H 1384.19 -5.4451 -2.20868 0
M  V30 15315 H 1385.71 -5.2486 -3.12016 0
M  V30 15316 H 1387.13 -5.66396 -0.887029 0
M  V30 15317 H 1385.52 -5.99859 -0.17009 0
M  V30 15318 H 1386.59 -4.81198 0.598064 0
M  V30 15319 N 1387.94 -0.0468143 -1.5753 0
M  V30 15320 C 1388.88 0.929065 -2.11275 0
M  V30 15321 C 1389.85 1.31166 -1.01905 0
M  V30 15322 O 1391.04 1.40189 -1.29428 0
M  V30 15323 C 1388.18 2.20012 -2.65873 0
M  V30 15324 C 1387.29 1.8724 -3.89314 0
M  V30 15325 C 1386.43 3.08772 -4.32242 0
M  V30 15326 C 1385.46 2.719 -5.48395 0
M  V30 15327 N 1384.6 3.86112 -5.86397 0
M  V30 15328 H 1389.44 0.463854 -2.94368 0
M  V30 15329 H 1386.98 0.217338 -1.45486 0
M  V30 15330 H 1388.94 2.94383 -2.95626 0
M  V30 15331 H 1387.57 2.64118 -1.85584 0
M  V30 15332 H 1386.62 1.03037 -3.6618 0
M  V30 15333 H 1387.93 1.56096 -4.73746 0
M  V30 15334 H 1387.08 3.91446 -4.63525 0
M  V30 15335 H 1385.82 3.4309 -3.46613 0
M  V30 15336 H 1384.83 1.87642 -5.16789 0
M  V30 15337 H 1386.05 2.38779 -6.35737 0
M  V30 15338 H 1384 4.2024 -5.03721 0
M  V30 15339 H 1383.92 3.58652 -6.65511 0
M  V30 15340 H 1385.18 4.69438 -6.22293 0
M  V30 15341 N 1389.41 1.55964 0.226527 0
M  V30 15342 C 1390.36 1.92007 1.28069 0
M  V30 15343 C 1391.33 0.776666 1.46823 0
M  V30 15344 O 1392.52 1.03213 1.60474 0
M  V30 15345 C 1389.66 2.23784 2.62707 0
M  V30 15346 C 1388.77 3.51034 2.51792 0
M  V30 15347 C 1387.9 3.72281 3.7892 0
M  V30 15348 C 1386.94 4.93062 3.62707 0
M  V30 15349 N 1386.08 5.10725 4.81772 0
M  V30 15350 H 1390.92 2.81898 0.96631 0
M  V30 15351 H 1388.46 1.39529 0.465847 0
M  V30 15352 H 1390.42 2.40217 3.41104 0
M  V30 15353 H 1389.05 1.37073 2.92251 0
M  V30 15354 H 1388.1 3.42822 1.64856 0
M  V30 15355 H 1389.41 4.39582 2.35731 0
M  V30 15356 H 1388.56 3.88783 4.6576 0
M  V30 15357 H 1387.3 2.82004 3.97901 0
M  V30 15358 H 1386.31 4.76515 2.7425 0
M  V30 15359 H 1387.53 5.84819 3.45201 0
M  V30 15360 H 1385.48 4.2339 5.01076 0
M  V30 15361 H 1385.4 5.93397 4.68419 0
M  V30 15362 H 1386.66 5.31658 5.70053 0
M  V30 15363 N 1390.89 -0.493031 1.4969 0
M  V30 15364 C 1391.83 -1.61165 1.61558 0
M  V30 15365 C 1392.8 -1.55828 0.464363 0
M  V30 15366 O 1393.99 -1.7577 0.680973 0
M  V30 15367 C 1391.11 -2.997 1.5779 0
M  V30 15368 C 1390.16 -3.2327 2.78207 0
M  V30 15369 S 1390.99 -3.05531 4.39785 0
M  V30 15370 C 1392.15 -4.46447 4.38675 0
M  V30 15371 H 1392.38 -1.50854 2.56185 0
M  V30 15372 H 1389.92 -0.678777 1.38679 0
M  V30 15373 H 1391.87 -3.79579 1.56302 0
M  V30 15374 H 1390.53 -3.07419 0.644379 0
M  V30 15375 H 1389.73 -4.24422 2.71812 0
M  V30 15376 H 1389.33 -2.51126 2.77149 0
M  V30 15377 H 1391.62 -5.38683 4.10886 0
M  V30 15378 H 1392.56 -4.5789 5.40132 0
M  V30 15379 H 1392.97 -4.27499 3.68652 0
M  V30 15380 N 1392.37 -1.38898 -0.744656 0
M  V30 15381 C 1393.3 -1.39571 -1.87195 0
M  V30 15382 C 1394.28 -0.260372 -1.68095 0
M  V30 15383 O 1395.47 -0.464776 -1.88556 0
M  V30 15384 C 1392.6 -1.22889 -3.24832 0
M  V30 15385 C 1391.55 -2.33721 -3.58551 0
M  V30 15386 C 1390.88 -2.02136 -4.9502 0
M  V30 15387 C 1392.18 -3.7601 -3.62511 0
M  V30 15388 H 1393.87 -2.33908 -1.86889 0
M  V30 15389 H 1391.42 -1.12591 -0.897739 0
M  V30 15390 H 1393.37 -1.21983 -4.03359 0
M  V30 15391 H 1392.09 -0.250172 -3.2564 0
M  V30 15392 H 1390.75 -2.33828 -2.82348 0
M  V30 15393 H 1390.4 -1.02726 -4.92399 0
M  V30 15394 H 1390.1 -2.76371 -5.18549 0
M  V30 15395 H 1391.62 -2.02864 -5.75915 0
M  V30 15396 H 1393.04 -3.77885 -4.31133 0
M  V30 15397 H 1391.44 -4.49524 -3.97553 0
M  V30 15398 H 1392.51 -4.07682 -2.62533 0
M  V30 15399 N 1393.85 0.973806 -1.23914 0
M  V30 15400 C 1395.07 1.7564 -1.10296 0
M  V30 15401 C 1395.5 1.84984 0.340954 0
M  V30 15402 O 1394.86 1.31629 1.24674 0
M  V30 15403 C 1394.9 3.15809 -1.7406 0
M  V30 15404 O 1394.01 3.99911 -1.00722 0
M  V30 15405 H 1393.35 0.540133 -0.386202 0
M  V30 15406 H 1395.88 1.22197 -1.64101 0
M  V30 15407 H 1395.89 3.66359 -1.79568 0
M  V30 15408 H 1394.56 3.08324 -2.79122 0
M  V30 15409 H 1393.14 3.58405 -1.02956 0
M  V30 15410 N 1395.33 1.05191 1.17357 0
M  V30 15411 C 1396.58 0.757104 1.86951 0
M  V30 15412 C 1396.89 -0.718637 1.8192 0
M  V30 15413 O 1398.09 -1.12739 2.46986 0
M  V30 15414 C 1396.55 1.30409 3.35442 0
M  V30 15415 C 1396.16 2.80928 3.48975 0
M  V30 15416 C 1397.9 1.08633 4.10365 0
M  V30 15417 C 1395.81 3.28927 4.91488 0
M  V30 15418 H 1394.74 0.279525 0.700273 0
M  V30 15419 H 1397.39 1.2692 1.32528 0
M  V30 15420 H 1395.77 0.719812 3.89403 0
M  V30 15421 H 1396.95 3.45211 3.05231 0
M  V30 15422 H 1395.26 3.01245 2.87473 0
M  V30 15423 H 1397.86 1.41996 5.15501 0
M  V30 15424 H 1398.2 0.0240903 4.16293 0
M  V30 15425 H 1398.73 1.63581 3.6261 0
M  V30 15426 H 1395.47 4.34581 4.90734 0
M  V30 15427 H 1394.99 2.69386 5.35902 0
M  V30 15428 H 1396.67 3.23605 5.60258 0
M  V30 15429 N 1396.8 -1.33791 0.83293 0
M  V30 15430 C 1398.03 -2.0272 0.438111 0
M  V30 15431 C 1398.45 -1.62279 -0.951163 0
M  V30 15432 O 1397.81 -0.812406 -1.62079 0
M  V30 15433 C 1397.86 -3.5623 0.559698 0
M  V30 15434 O 1396.96 -4.10292 -0.41646 0
M  V30 15435 H 1396.31 -0.639438 0.178928 0
M  V30 15436 H 1398.84 -1.70821 1.12612 0
M  V30 15437 H 1398.85 -4.0563 0.439148 0
M  V30 15438 H 1397.52 -3.8501 1.5729 0
M  V30 15439 H 1396.1 -3.72034 -0.25396 0
M  V30 15440 N 1398.28 -0.588812 -1.46187 0
M  V30 15441 C 1399.22 0.189417 -2.27413 0
M  V30 15442 C 1400.19 0.891224 -1.36 0
M  V30 15443 O 1401.38 0.903883 -1.65415 0
M  V30 15444 C 1398.5 1.27233 -3.13894 0
M  V30 15445 C 1397.55 0.675705 -4.21113 0
M  V30 15446 S 1398.38 -0.502093 -5.33141 0
M  V30 15447 C 1399.54 0.581875 -6.23189 0
M  V30 15448 H 1399.77 -0.499754 -2.9307 0
M  V30 15449 H 1397.31 -0.375854 -1.49755 0
M  V30 15450 H 1399.26 1.89233 -3.64282 0
M  V30 15451 H 1397.92 1.93348 -2.47538 0
M  V30 15452 H 1397.12 1.48991 -4.81475 0
M  V30 15453 H 1396.72 0.131249 -3.7377 0
M  V30 15454 H 1399.01 1.46594 -6.6145 0
M  V30 15455 H 1399.95 0.0148739 -7.08098 0
M  V30 15456 H 1400.36 0.888764 -5.5746 0
M  V30 15457 N 1399.76 1.54172 -0.326923 0
M  V30 15458 C 1401.01 1.99809 0.275554 0
M  V30 15459 C 1401.32 1.21886 1.52981 0
M  V30 15460 O 1402.53 1.57917 2.20849 0
M  V30 15461 C 1400.98 3.55802 0.541543 0
M  V30 15462 C 1400.59 4.42563 -0.695853 0
M  V30 15463 C 1402.34 4.09898 1.10379 0
M  V30 15464 C 1400.24 5.90035 -0.401581 0
M  V30 15465 H 1399.17 0.746406 0.106742 0
M  V30 15466 H 1401.82 1.78155 -0.439669 0
M  V30 15467 H 1400.21 3.73457 1.31704 0
M  V30 15468 H 1401.38 4.36684 -1.47118 0
M  V30 15469 H 1399.7 3.99373 -1.17855 0
M  V30 15470 H 1402.29 5.17672 1.33863 0
M  V30 15471 H 1402.64 3.62089 2.0542 0
M  V30 15472 H 1403.17 3.9589 0.389395 0
M  V30 15473 H 1399.91 6.42046 -1.32126 0
M  V30 15474 H 1399.43 5.98858 0.335977 0
M  V30 15475 H 1401.11 6.46999 -0.0126539 0
M  V30 15476 N 1401.24 0.0551678 1.57503 0
M  V30 15477 C 1402.65 -0.3014 1.56728 0
M  V30 15478 C 1402.85 -1.71169 1.06317 0
M  V30 15479 O 1401.91 -2.4197 0.721566 0
M  V30 15480 C 1403.22 -0.12622 3.00435 0
M  V30 15481 C 1404.77 -0.197022 3.12379 0
M  V30 15482 C 1405.25 -0.0503235 4.57972 0
M  V30 15483 N 1406.74 -0.106471 4.63078 0
M  V30 15484 C 1407.47 -0.0171325 5.73397 0
M  V30 15485 N 1406.97 0.124781 6.92688 0
M  V30 15486 N 1408.76 -0.0730028 5.62053 0
M  V30 15487 H 1400.91 0.977072 1.88592 0
M  V30 15488 H 1403.18 0.37963 0.868668 0
M  V30 15489 H 1402.88 0.846286 3.41366 0
M  V30 15490 H 1402.76 -0.885574 3.66657 0
M  V30 15491 H 1405.14 -1.16 2.71345 0
M  V30 15492 H 1405.22 0.593155 2.48828 0
M  V30 15493 H 1404.87 0.909352 4.99693 0
M  V30 15494 H 1404.8 -0.859695 5.19535 0
M  V30 15495 H 1407.29 -0.215241 3.77287 0
M  V30 15496 H 1407.6 0.185548 7.72577 0
M  V30 15497 H 1405.95 0.15992 6.94816 0
M  V30 15498 H 1409.14 -0.182456 4.67744 0
M  V30 15499 H 1409.31 7.85052e-05 6.48 0
M  V30 15500 N 1402.72 -1.56081 -0.218252 0
M  V30 15501 C 1403.66 -1.93544 -1.2901 0
M  V30 15502 C 1404.66 -0.817886 -1.48348 0
M  V30 15503 O 1405.86 -1.00274 -1.49483 0
M  V30 15504 H 1402.24 -0.61511 -0.432601 0
M  V30 15505 H 1404.21 -2.82975 -0.946966 0
M  V30 15506 C 1402.96 -2.27134 -2.63259 0
M  V30 15507 H 1402.28 -3.12643 -2.49188 0
M  V30 15508 H 1403.72 -2.57228 -3.3706 0
M  V30 15509 C 1402.18 -1.09764 -3.18518 0
M  V30 15510 O 1402.71 -0.360501 -4.00079 0
M  V30 15511 N 1400.92 -0.880589 -2.76937 0
M  V30 15512 H 1400.46 -1.48175 -2.10718 0
M  V30 15513 H 1400.42 -0.0970234 -3.1425 0
M  V30 15514 N 1404.2 0.485086 -1.49949 0
M  V30 15515 C 1405.47 1.24639 -1.50747 0
M  V30 15516 C 1405.85 2.09683 -0.244162 0
M  V30 15517 O 1405.2 2.1503 0.772949 0
M  V30 15518 C 1405.41 2.08946 -2.7954 0
M  V30 15519 C 1406.76 2.67604 -3.29656 0
M  V30 15520 O 1407.78 2.192 -2.80766 0
M  V30 15521 O 1406.64 3.55761 -4.14845 0
M  V30 15522 H 1403.74 0.564849 -0.604049 0
M  V30 15523 H 1406.28 0.498052 -1.62227 0
M  V30 15524 H 1405.05 1.46185 -3.62968 0
M  V30 15525 H 1404.68 2.90941 -2.70997 0
M  V30 15526 N 1405.67 1.39291 0.737279 0
M  V30 15527 C 1406.92 1.3639 1.49679 0
M  V30 15528 C 1407.25 -0.0408859 1.94457 0
M  V30 15529 O 1406.5 -1.02127 1.66939 0
M  V30 15530 C 1406.8 2.28043 2.75193 0
M  V30 15531 C 1406.47 3.75717 2.49294 0
M  V30 15532 C 1405.13 4.15955 2.41941 0
M  V30 15533 C 1407.48 4.69127 2.27088 0
M  V30 15534 C 1404.81 5.47669 2.10419 0
M  V30 15535 C 1407.16 6.01116 1.97084 0
M  V30 15536 C 1405.83 6.4042 1.88197 0
M  V30 15537 H 1405.1 0.499088 0.547716 0
M  V30 15538 H 1407.74 1.71779 0.846416 0
M  V30 15539 H 1406.05 1.85765 3.44962 0
M  V30 15540 H 1407.75 2.23093 3.33212 0
M  V30 15541 H 1404.34 3.43825 2.55896 0
M  V30 15542 H 1408.52 4.38875 2.31739 0
M  V30 15543 H 1403.78 5.77046 2.02059 0
M  V30 15544 H 1407.95 6.73026 1.78909 0
M  V30 15545 H 1405.58 7.42401 1.63537 0
M  V30 15546 N 1407.15 -0.967221 1.24429 0
M  V30 15547 C 1408.4 -1.70458 1.07829 0
M  V30 15548 C 1408.71 -1.91818 -0.38278 0
M  V30 15549 O 1409.92 -2.63129 -0.668982 0
M  V30 15550 C 1408.38 -3.06817 1.88125 0
M  V30 15551 C 1407.98 -2.93298 3.38645 0
M  V30 15552 C 1409.73 -3.84422 1.80056 0
M  V30 15553 C 1407.63 -4.2497 4.11284 0
M  V30 15554 H 1406.56 -0.639217 0.399897 0
M  V30 15555 H 1409.22 -1.07776 1.48515 0
M  V30 15556 H 1407.6 -3.70331 1.40254 0
M  V30 15557 H 1408.77 -2.38793 3.94099 0
M  V30 15558 H 1407.09 -2.29159 3.47671 0
M  V30 15559 H 1409.68 -4.81925 2.31629 0
M  V30 15560 H 1410.03 -4.09194 0.765908 0
M  V30 15561 H 1410.56 -3.27636 2.2561 0
M  V30 15562 H 1407.3 -4.05391 5.1511 0
M  V30 15563 H 1406.82 -4.79288 3.60615 0
M  V30 15564 H 1408.5 -4.93586 4.18308 0
M  V30 15565 N 1408.63 -1.05812 -1.16797 0
M  V30 15566 C 1409.85 -0.792518 -1.91661 0
M  V30 15567 C 1410.28 0.646598 -1.76637 0
M  V30 15568 O 1409.64 1.44998 -1.08836 0
M  V30 15569 C 1409.69 -1.18585 -3.40544 0
M  V30 15570 O 1408.79 -0.321716 -4.11143 0
M  V30 15571 H 1408.13 -0.290066 -0.597292 0
M  V30 15572 H 1410.66 -1.41263 -1.48007 0
M  V30 15573 H 1410.67 -1.1553 -3.91301 0
M  V30 15574 H 1409.35 -2.23413 -3.50798 0
M  V30 15575 H 1407.92 -0.413403 -3.70601 0
M  V30 15576 N 1410.11 1.33347 -0.840014 0
M  V30 15577 C 1411.36 1.97007 -0.432581 0
M  V30 15578 C 1411.67 1.67278 1.01378 0
M  V30 15579 O 1412.88 2.2456 1.52595 0
M  V30 15580 C 1411.33 3.52572 -0.72258 0
M  V30 15581 C 1410.94 3.91176 -2.1837 0
M  V30 15582 C 1412.68 4.22776 -0.382153 0
M  V30 15583 C 1410.59 5.39724 -2.41768 0
M  V30 15584 H 1409.52 0.737255 -0.158024 0
M  V30 15585 H 1412.17 1.5195 -1.02876 0
M  V30 15586 H 1410.55 3.9596 -0.0560179 0
M  V30 15587 H 1411.73 3.58842 -2.89083 0
M  V30 15588 H 1410.04 3.33956 -2.48721 0
M  V30 15589 H 1412.64 5.32021 -0.534588 0
M  V30 15590 H 1412.98 4.10792 0.674967 0
M  V30 15591 H 1413.52 3.84922 -1.004 0
M  V30 15592 H 1410.25 5.56713 -3.4605 0
M  V30 15593 H 1409.77 5.73514 -1.75617 0
M  V30 15594 H 1411.45 6.06624 -2.2498 0
M  V30 15595 N 1411.59 0.596556 1.45873 0
M  V30 15596 C 1412.83 0.0874583 2.02311 0
M  V30 15597 C 1413.16 -1.27781 1.46636 0
M  V30 15598 O 1412.42 -1.85393 0.62674 0
M  V30 15599 C 1412.71 -0.0135714 3.57397 0
M  V30 15600 C 1412.38 1.28591 4.32175 0
M  V30 15601 C 1411.04 1.6419 4.52322 0
M  V30 15602 C 1413.39 2.14523 4.75005 0
M  V30 15603 C 1410.72 2.85493 5.12553 0
M  V30 15604 C 1413.07 3.35065 5.36577 0
M  V30 15605 C 1411.74 3.70929 5.54949 0
M  V30 15606 H 1411.01 0.0320033 0.740309 0
M  V30 15607 H 1413.66 0.775967 1.75074 0
M  V30 15608 H 1411.96 -0.785287 3.8385 0
M  V30 15609 H 1413.66 -0.423456 3.98758 0
M  V30 15610 H 1410.25 0.99881 4.16799 0
M  V30 15611 H 1414.43 1.88321 4.59183 0
M  V30 15612 H 1409.69 3.134 5.24967 0
M  V30 15613 H 1413.86 4.01909 5.6872 0
M  V30 15614 H 1411.49 4.65011 6.01389 0
M  V30 15615 N 1413.06 -1.53996 0.335095 0
M  V30 15616 C 1413.99 -2.2768 -0.518087 0
M  V30 15617 C 1414.97 -1.28915 -1.10972 0
M  V30 15618 O 1416.16 -1.57745 -1.1327 0
M  V30 15619 C 1413.29 -3.04327 -1.67339 0
M  V30 15620 C 1412.24 -4.10525 -1.2105 0
M  V30 15621 C 1411.57 -4.75078 -2.45366 0
M  V30 15622 C 1412.87 -5.21337 -0.317055 0
M  V30 15623 H 1414.56 -2.99244 0.0965669 0
M  V30 15624 H 1412.11 -1.4392 0.0478842 0
M  V30 15625 H 1414.06 -3.54608 -2.27664 0
M  V30 15626 H 1412.79 -2.30399 -2.31481 0
M  V30 15627 H 1411.45 -3.61144 -0.630124 0
M  V30 15628 H 1411.09 -3.97754 -3.07897 0
M  V30 15629 H 1410.79 -5.46822 -2.1508 0
M  V30 15630 H 1412.32 -5.2814 -3.06432 0
M  V30 15631 H 1413.73 -5.67305 -0.826905 0
M  V30 15632 H 1412.13 -6.00006 -0.106458 0
M  V30 15633 H 1413.2 -4.80536 0.649068 0
M  V30 15634 N 1414.54 -0.0635198 -1.57472 0
M  V30 15635 C 1415.49 0.924358 -2.13444 0
M  V30 15636 C 1416.48 1.31389 -1.06927 0
M  V30 15637 O 1417.69 1.2921 -1.25319 0
M  V30 15638 H 1414.06 0.316003 -0.682383 0
M  V30 15639 H 1416.04 0.427281 -2.95325 0
M  V30 15640 C 1414.78 2.18546 -2.70431 0
M  V30 15641 H 1414.11 1.89455 -3.52061 0
M  V30 15642 H 1415.55 2.85799 -3.13201 0
M  V30 15643 C 1414.01 2.93845 -1.64794 0
M  V30 15644 O 1414.54 3.87242 -1.06802 0
M  V30 15645 N 1412.74 2.568 -1.36023 0
M  V30 15646 H 1412.29 1.80924 -1.83369 0
M  V30 15647 H 1412.25 3.07486 -0.655741 0
M  V30 15648 N 1416.02 1.56195 0.209972 0
M  V30 15649 C 1417.24 1.84189 0.953364 0
M  V30 15650 C 1417.67 0.645288 1.76685 0
M  V30 15651 O 1417.03 -0.405962 1.76696 0
M  V30 15652 C 1417.08 3.10281 1.83733 0
M  V30 15653 O 1416.18 2.89788 2.93422 0
M  V30 15654 H 1415.52 0.606931 0.269314 0
M  V30 15655 H 1418.05 2.03416 0.219783 0
M  V30 15656 H 1418.06 3.40688 2.2449 0
M  V30 15657 H 1416.74 3.97 1.23951 0
M  V30 15658 H 1415.31 2.70643 2.56528 0
M  V30 15659 N 1417.5 -0.477127 1.50204 0
M  V30 15660 C 1418.43 -1.58405 1.71552 0
M  V30 15661 C 1419.41 -1.60463 0.564413 0
M  V30 15662 O 1420.59 -1.76826 0.802893 0
M  V30 15663 C 1417.72 -2.96765 1.8041 0
M  V30 15664 C 1416.68 -3.09573 2.95548 0
M  V30 15665 C 1416 -4.49522 2.89542 0
M  V30 15666 C 1417.3 -2.87356 4.36147 0
M  V30 15667 H 1419 -1.40792 2.64231 0
M  V30 15668 H 1416.54 -0.675886 1.27153 0
M  V30 15669 H 1418.5 -3.74125 1.9393 0
M  V30 15670 H 1417.22 -3.1552 0.843489 0
M  V30 15671 H 1415.88 -2.34645 2.81669 0
M  V30 15672 H 1415.53 -4.65186 1.91339 0
M  V30 15673 H 1415.23 -4.59028 3.66834 0
M  V30 15674 H 1416.75 -5.28909 3.05102 0
M  V30 15675 H 1418.17 -3.54469 4.50583 0
M  V30 15676 H 1416.56 -3.08313 5.14843 0
M  V30 15677 H 1417.63 -1.83264 4.48935 0
M  V30 15678 N 1418.98 -1.3968 -0.729882 0
M  V30 15679 C 1420.21 -1.40263 -1.5169 0
M  V30 15680 C 1420.61 0.00325293 -1.892 0
M  V30 15681 O 1419.96 0.986225 -1.54982 0
M  V30 15682 C 1420.02 -2.21629 -2.83056 0
M  V30 15683 C 1419.68 -3.70204 -2.67951 0
M  V30 15684 C 1420.68 -4.63169 -2.36158 0
M  V30 15685 C 1418.37 -4.13851 -2.84662 0
M  V30 15686 C 1420.36 -5.97763 -2.21265 0
M  V30 15687 C 1418.05 -5.4852 -2.69387 0
M  V30 15688 C 1419.04 -6.4029 -2.37734 0
M  V30 15689 O 1418.73 -7.72478 -2.22561 0
M  V30 15690 H 1418.46 -0.480808 -0.475184 0
M  V30 15691 H 1421.02 -1.84184 -0.909136 0
M  V30 15692 H 1419.25 -1.72465 -3.46111 0
M  V30 15693 H 1420.94 -2.14328 -3.447 0
M  V30 15694 H 1421.7 -4.30748 -2.22893 0
M  V30 15695 H 1417.58 -3.42751 -3.0829 0
M  V30 15696 H 1421.13 -6.69359 -1.96481 0
M  V30 15697 H 1417.02 -5.8053 -2.82232 0
M  V30 15698 H 1417.79 -7.83258 -2.37591 0
M  V30 15699 N 1420.45 0.960609 -1.2494 0
M  V30 15700 C 1421.38 2.074 -1.07274 0
M  V30 15701 C 1422.37 1.70092 0.0164365 0
M  V30 15702 O 1423.55 1.93604 -0.151975 0
M  V30 15703 C 1420.68 3.40491 -0.684317 0
M  V30 15704 C 1419.63 3.91784 -1.72306 0
M  V30 15705 C 1418.96 5.21301 -1.18949 0
M  V30 15706 C 1420.26 4.18829 -3.12056 0
M  V30 15707 H 1421.95 2.22438 -2.00404 0
M  V30 15708 H 1419.5 1.06888 -0.964937 0
M  V30 15709 H 1421.45 4.17826 -0.547686 0
M  V30 15710 H 1420.18 3.25374 0.282687 0
M  V30 15711 H 1418.84 3.16613 -1.84802 0
M  V30 15712 H 1418.48 5.02549 -0.212892 0
M  V30 15713 H 1418.18 5.56588 -1.8837 0
M  V30 15714 H 1419.71 6.01238 -1.06513 0
M  V30 15715 H 1421.12 4.86844 -3.02748 0
M  V30 15716 H 1419.52 4.6536 -3.78894 0
M  V30 15717 H 1420.59 3.25333 -3.59564 0
M  V30 15718 N 1421.93 1.0643 1.16234 0
M  V30 15719 C 1423.18 0.780296 1.86429 0
M  V30 15720 C 1423.5 -0.695335 1.82181 0
M  V30 15721 O 1422.77 -1.50312 1.2563 0
M  V30 15722 H 1421.35 0.285654 0.690225 0
M  V30 15723 H 1424.01 1.34609 1.40949 0
M  V30 15724 H 1423.11 1.10644 2.91829 0
M  V30 15725 N 1423.41 -1.329 0.847073 0
M  V30 15726 C 1424.69 -1.921 0.368351 0
M  V30 15727 C 1425.07 -1.77205 -1.14724 0
M  V30 15728 O 1424.42 -1.16547 -1.96543 0
M  V30 15729 C 1424.63 -3.39125 0.824326 0
M  V30 15730 C 1425.97 -4.16267 0.837097 0
M  V30 15731 O 1427 -3.47812 0.768466 0
M  V30 15732 O 1425.86 -5.38487 0.932389 0
M  V30 15733 H 1422.95 -0.820187 0.105936 0
M  V30 15734 H 1425.5 -1.41719 0.933471 0
M  V30 15735 H 1424.27 -3.43875 1.86723 0
M  V30 15736 H 1423.89 -3.96898 0.236233 0
M  V30 15737 N 1424.89 -0.604284 -1.45555 0
M  V30 15738 C 1426.14 -0.0957836 -2.01472 0
M  V30 15739 C 1426.45 1.28016 -1.47889 0
M  V30 15740 O 1427.66 1.88121 -1.95762 0
M  V30 15741 C 1426.11 -0.120566 -3.59698 0
M  V30 15742 C 1425.72 -1.49616 -4.22278 0
M  V30 15743 C 1427.46 0.332865 -4.23193 0
M  V30 15744 C 1425.37 -1.4775 -5.72646 0
M  V30 15745 H 1424.3 -0.0320399 -0.753319 0
M  V30 15746 H 1426.95 -0.759125 -1.67061 0
M  V30 15747 H 1425.33 0.609365 -3.91283 0
M  V30 15748 H 1426.51 -2.24753 -4.02272 0
M  V30 15749 H 1424.82 -1.89141 -3.70965 0
M  V30 15750 H 1427.42 0.365951 -5.33446 0
M  V30 15751 H 1427.76 1.35487 -3.93635 0
M  V30 15752 H 1428.3 -0.343692 -3.96313 0
M  V30 15753 H 1425.04 -2.47701 -6.06898 0
M  V30 15754 H 1424.56 -0.768659 -5.94854 0
M  V30 15755 H 1426.23 -1.19971 -6.3578 0
M  V30 15756 N 1426.37 1.53816 -0.343257 0
M  V30 15757 C 1427.28 2.28716 0.522121 0
M  V30 15758 C 1428.29 1.33815 1.11218 0
M  V30 15759 O 1429.47 1.66853 1.12793 0
M  V30 15760 C 1426.53 3.04517 1.65741 0
M  V30 15761 C 1425.59 4.15043 1.09716 0
M  V30 15762 C 1424.83 4.8722 2.17835 0
M  V30 15763 O 1425.05 4.59065 3.38549 0
M  V30 15764 O 1423.98 5.73678 1.82145 0
M  V30 15765 H 1427.81 3.03576 -0.086732 0
M  V30 15766 H 1425.4 1.49007 -0.108313 0
M  V30 15767 H 1427.28 3.51921 2.31796 0
M  V30 15768 H 1425.95 2.32514 2.25208 0
M  V30 15769 H 1424.86 3.71943 0.401152 0
M  V30 15770 H 1426.19 4.89147 0.547362 0
M  V30 15771 N 1427.84 0.0718701 1.57436 0
M  V30 15772 C 1428.78 -0.924911 2.09709 0
M  V30 15773 C 1429.79 -1.26136 1.02925 0
M  V30 15774 O 1430.98 -1.21853 1.30438 0
M  V30 15775 C 1428.08 -2.24072 2.54254 0
M  V30 15776 C 1427.25 -2.0831 3.84611 0
M  V30 15777 C 1426.31 -3.23196 4.15248 0
M  V30 15778 O 1425.34 -2.98184 4.84846 0
M  V30 15779 N 1426.54 -4.48293 3.688 0
M  V30 15780 H 1429.3 -0.478605 2.95854 0
M  V30 15781 H 1426.86 -0.113853 1.61499 0
M  V30 15782 H 1428.86 -2.99835 2.71811 0
M  V30 15783 H 1427.43 -2.60201 1.73246 0
M  V30 15784 H 1426.65 -1.17014 3.76432 0
M  V30 15785 H 1427.93 -1.9503 4.69937 0
M  V30 15786 H 1427.33 -4.71501 3.12575 0
M  V30 15787 H 1425.89 -5.21082 3.91556 0
M  V30 15788 N 1429.32 -1.56304 -0.201686 0
M  V30 15789 C 1430.74 -1.49741 -0.552247 0
M  V30 15790 C 1430.94 -0.770683 -1.86179 0
M  V30 15791 O 1429.99 -0.318489 -2.50483 0
M  V30 15792 C 1431.31 -2.94384 -0.613083 0
M  V30 15793 C 1432.86 -3.05018 -0.702365 0
M  V30 15794 C 1433.33 -4.51058 -0.794371 0
M  V30 15795 N 1434.82 -4.55183 -0.858072 0
M  V30 15796 C 1435.56 -5.65487 -0.949317 0
M  V30 15797 N 1435.05 -6.85497 -1.00327 0
M  V30 15798 N 1436.85 -5.53385 -0.985995 0
M  V30 15799 H 1429 -2.01971 0.657394 0
M  V30 15800 H 1431.26 -0.918839 0.233322 0
M  V30 15801 H 1430.97 -3.50584 0.279921 0
M  V30 15802 H 1430.84 -3.47376 -1.47002 0
M  V30 15803 H 1433.23 -2.4887 -1.5858 0
M  V30 15804 H 1433.31 -2.55161 0.180636 0
M  V30 15805 H 1432.95 -5.07829 0.0846883 0
M  V30 15806 H 1432.88 -4.98641 -1.69308 0
M  V30 15807 H 1435.37 -3.68765 -0.825888 0
M  V30 15808 H 1435.69 -7.65312 -1.07322 0
M  V30 15809 H 1434.03 -6.88169 -0.972061 0
M  V30 15810 H 1437.22 -4.58552 -0.940635 0
M  V30 15811 H 1437.39 -6.39376 -1.05365 0
M  V30 15812 N 1430.8 0.469154 -1.50455 0
M  V30 15813 C 1432.05 1.21788 -1.60781 0
M  V30 15814 C 1432.36 1.93054 -0.314576 0
M  V30 15815 O 1433.57 2.69873 -0.296773 0
M  V30 15816 C 1432.02 2.21305 -2.83817 0
M  V30 15817 C 1431.63 1.55833 -4.20024 0
M  V30 15818 C 1433.38 2.96808 -3.03489 0
M  V30 15819 C 1431.28 2.53648 -5.34244 0
M  V30 15820 H 1430.21 0.45827 -0.598752 0
M  V30 15821 H 1432.86 0.488159 -1.76888 0
M  V30 15822 H 1431.25 2.97577 -2.61273 0
M  V30 15823 H 1432.42 0.853371 -4.52829 0
M  V30 15824 H 1430.74 0.926046 -4.05972 0
M  V30 15825 H 1433.33 3.70017 -3.85994 0
M  V30 15826 H 1433.68 3.56307 -2.15293 0
M  V30 15827 H 1434.21 2.27648 -3.26223 0
M  V30 15828 H 1430.95 1.98885 -6.246 0
M  V30 15829 H 1430.47 3.22291 -5.05854 0
M  V30 15830 H 1432.15 3.15438 -5.64897 0
M  V30 15831 N 1432.28 1.40065 0.722464 0
M  V30 15832 C 1433.23 1.39947 1.85789 0
M  V30 15833 C 1434.22 0.28089 1.67055 0
M  V30 15834 O 1435.43 0.451575 1.74244 0
M  V30 15835 H 1431.8 0.437296 0.611781 0
M  V30 15836 H 1433.77 2.35695 1.83004 0
M  V30 15837 C 1432.52 1.27218 3.2359 0
M  V30 15838 H 1431.84 2.12566 3.38609 0
M  V30 15839 H 1433.28 1.31194 4.03192 0
M  V30 15840 C 1431.74 -0.0182466 3.36895 0
M  V30 15841 O 1432.27 -0.983761 3.89468 0
M  V30 15842 N 1430.48 -0.0854707 2.90474 0
M  V30 15843 H 1430.03 0.700953 2.4788 0
M  V30 15844 H 1429.98 -0.948367 2.99755 0
M  V30 15845 N 1433.76 -0.95397 1.25448 0
M  V30 15846 C 1435.01 -1.69305 1.09631 0
M  V30 15847 C 1435.32 -1.92213 -0.362413 0
M  V30 15848 O 1436.53 -2.63824 -0.641036 0
M  V30 15849 C 1434.98 -3.04805 1.91369 0
M  V30 15850 C 1434.59 -2.8969 3.41737 0
M  V30 15851 C 1436.33 -3.82491 1.84123 0
M  V30 15852 C 1434.24 -4.20584 4.15768 0
M  V30 15853 H 1433.17 -0.63494 0.406654 0
M  V30 15854 H 1435.82 -1.06195 1.49649 0
M  V30 15855 H 1434.2 -3.68822 1.44174 0
M  V30 15856 H 1435.38 -2.346 3.9661 0
M  V30 15857 H 1433.69 -2.25458 3.50082 0
M  V30 15858 H 1436.29 -4.79442 2.36727 0
M  V30 15859 H 1436.63 -4.08358 0.809265 0
M  V30 15860 H 1437.17 -3.25224 2.29072 0
M  V30 15861 H 1433.9 -3.99905 5.19381 0
M  V30 15862 H 1433.42 -4.75436 3.65678 0
M  V30 15863 H 1435.1 -4.89122 4.2352 0
M  V30 15864 N 1435.24 -1.07045 -1.15668 0
M  V30 15865 C 1436.48 -0.791735 -1.86381 0
M  V30 15866 C 1436.81 0.682084 -1.82148 0
M  V30 15867 O 1436.07 1.51617 -1.23737 0
M  V30 15868 C 1436.36 -1.24127 -3.35153 0
M  V30 15869 C 1436.03 -2.72051 -3.59582 0
M  V30 15870 C 1434.69 -3.12455 -3.65958 0
M  V30 15871 C 1437.04 -3.67547 -3.69538 0
M  V30 15872 C 1434.37 -4.4718 -3.79799 0
M  V30 15873 C 1436.72 -5.02029 -3.84902 0
M  V30 15874 C 1435.39 -5.42059 -3.89523 0
M  V30 15875 H 1434.66 -0.289717 -0.682016 0
M  V30 15876 H 1437.31 -1.34091 -1.36718 0
M  V30 15877 H 1435.61 -0.611428 -3.87 0
M  V30 15878 H 1437.31 -1.00256 -3.88265 0
M  V30 15879 H 1433.9 -2.39771 -3.55257 0
M  V30 15880 H 1438.08 -3.3746 -3.63915 0
M  V30 15881 H 1433.34 -4.77668 -3.81632 0
M  V30 15882 H 1437.51 -5.75902 -3.91548 0
M  V30 15883 H 1435.14 -6.46455 -4 0
M  V30 15884 N 1436.71 1.32449 -0.85411 0
M  V30 15885 C 1437.96 1.96537 -0.453451 0
M  V30 15886 C 1438.28 1.68344 0.995982 0
M  V30 15887 O 1439.48 2.26166 1.50204 0
M  V30 15888 C 1437.94 3.51785 -0.759934 0
M  V30 15889 C 1437.55 3.88838 -2.22506 0
M  V30 15890 C 1439.29 4.22347 -0.426973 0
M  V30 15891 C 1437.2 5.37129 -2.47479 0
M  V30 15892 H 1436.13 0.735537 -0.165835 0
M  V30 15893 H 1438.78 1.50851 -1.04481 0
M  V30 15894 H 1437.16 3.95879 -0.0980116 0
M  V30 15895 H 1438.33 3.55756 -2.92873 0
M  V30 15896 H 1436.65 3.31299 -2.52249 0
M  V30 15897 H 1439.25 5.31424 -0.590986 0
M  V30 15898 H 1439.59 4.11485 0.631359 0
M  V30 15899 H 1440.12 3.83835 -1.04477 0
M  V30 15900 H 1436.86 5.53012 -3.51935 0
M  V30 15901 H 1436.38 5.71619 -1.8169 0
M  V30 15902 H 1438.06 6.04204 -2.31401 0
M  V30 15903 N 1438.19 0.611994 1.45232 0
M  V30 15904 C 1439.12 -0.142449 2.28757 0
M  V30 15905 C 1440.14 -0.827486 1.40202 0
M  V30 15906 O 1441.33 -0.692136 1.64535 0
M  V30 15907 C 1438.43 -1.22296 3.16065 0
M  V30 15908 C 1437.6 -0.624178 4.32924 0
M  V30 15909 C 1436.66 -1.59615 5.01408 0
M  V30 15910 O 1435.68 -1.12073 5.58058 0
M  V30 15911 N 1436.89 -2.93057 5.01097 0
M  V30 15912 H 1439.65 0.574276 2.94147 0
M  V30 15913 H 1437.21 0.451789 1.55469 0
M  V30 15914 H 1439.2 -1.87309 3.58744 0
M  V30 15915 H 1437.77 -1.84215 2.52554 0
M  V30 15916 H 1436.99 0.204141 3.93671 0
M  V30 15917 H 1438.28 -0.204435 5.08389 0
M  V30 15918 H 1437.68 -3.3428 4.5637 0
M  V30 15919 H 1436.24 -3.53481 5.47626 0
M  V30 15920 N 1439.67 -1.53632 0.351409 0
M  V30 15921 C 1440.6 -2.2284 -0.536204 0
M  V30 15922 C 1441.61 -1.23765 -1.05764 0
M  V30 15923 O 1442.8 -1.50073 -0.966449 0
M  V30 15924 C 1439.9 -2.9013 -1.75151 0
M  V30 15925 C 1439.08 -4.15588 -1.36401 0
M  V30 15926 C 1438.14 -4.66217 -2.43984 0
M  V30 15927 O 1437.16 -5.3024 -2.06964 0
M  V30 15928 N 1438.36 -4.42817 -3.75358 0
M  V30 15929 H 1441.13 -2.99647 0.0565368 0
M  V30 15930 H 1438.69 -1.60942 0.175905 0
M  V30 15931 H 1440.68 -3.20913 -2.4657 0
M  V30 15932 H 1439.25 -2.16862 -2.25144 0
M  V30 15933 H 1438.47 -3.91264 -0.480258 0
M  V30 15934 H 1439.76 -4.97179 -1.08121 0
M  V30 15935 H 1439.16 -3.9163 -4.08218 0
M  V30 15936 H 1437.71 -4.78186 -4.42924 0
M  V30 15937 N 1441.15 -0.0802183 -1.57396 0
M  V30 15938 C 1442.1 0.901668 -2.14412 0
M  V30 15939 C 1443.09 1.30247 -1.08314 0
M  V30 15940 O 1444.3 1.27873 -1.26682 0
M  V30 15941 H 1440.67 0.308748 -0.685696 0
M  V30 15942 H 1442.64 0.395934 -2.95762 0
M  V30 15943 C 1441.39 2.15665 -2.72734 0
M  V30 15944 H 1440.71 1.8571 -3.54051 0
M  V30 15945 H 1442.15 2.82461 -3.16214 0
M  V30 15946 C 1440.61 2.9208 -1.67901 0
M  V30 15947 O 1441.14 3.86087 -1.10903 0
M  V30 15948 N 1439.35 2.55343 -1.38739 0
M  V30 15949 H 1438.9 1.78969 -1.85278 0
M  V30 15950 H 1438.85 3.06773 -0.688317 0
M  V30 15951 N 1442.63 1.56409 0.193394 0
M  V30 15952 C 1443.56 1.91211 1.26377 0
M  V30 15953 C 1444.57 0.802944 1.41622 0
M  V30 15954 O 1445.76 1.08136 1.42017 0
M  V30 15955 C 1442.86 2.13039 2.63567 0
M  V30 15956 C 1442.03 3.44192 2.69909 0
M  V30 15957 C 1441.09 3.55111 3.88307 0
M  V30 15958 O 1440.12 4.2792 3.75331 0
M  V30 15959 N 1441.32 2.88325 5.03834 0
M  V30 15960 H 1444.08 2.83624 0.968383 0
M  V30 15961 H 1441.65 1.57297 0.383302 0
M  V30 15962 H 1443.64 2.1763 3.41202 0
M  V30 15963 H 1442.21 1.27116 2.85588 0
M  V30 15964 H 1441.43 3.51452 1.78535 0
M  V30 15965 H 1442.72 4.30536 2.71139 0
M  V30 15966 H 1442.11 2.29003 5.17276 0
M  V30 15967 H 1440.67 2.98542 5.7941 0
M  V30 15968 N 1444.1 -0.461169 1.50702 0
M  V30 15969 C 1445.03 -1.56576 1.73223 0
M  V30 15970 C 1446.01 -1.59855 0.581401 0
M  V30 15971 O 1447.2 -1.75964 0.821602 0
M  V30 15972 C 1444.33 -2.94835 1.83548 0
M  V30 15973 C 1443.28 -3.06421 2.98815 0
M  V30 15974 C 1442.61 -4.46425 2.94293 0
M  V30 15975 C 1443.91 -2.82714 4.3917 0
M  V30 15976 H 1445.6 -1.37982 2.65709 0
M  V30 15977 H 1443.15 -0.662362 1.27862 0
M  V30 15978 H 1445.1 -3.72047 1.97887 0
M  V30 15979 H 1443.83 -3.14608 0.876906 0
M  V30 15980 H 1442.49 -2.31644 2.84142 0
M  V30 15981 H 1442.13 -4.63131 1.96262 0
M  V30 15982 H 1441.83 -4.55111 3.71682 0
M  V30 15983 H 1443.36 -5.25644 3.10695 0
M  V30 15984 H 1444.77 -3.4967 4.54317 0
M  V30 15985 H 1443.17 -3.02835 5.18084 0
M  V30 15986 H 1444.24 -1.78492 4.50853 0
M  V30 15987 N 1445.58 -1.40446 -0.715026 0
M  V30 15988 C 1446.53 -1.40931 -1.85044 0
M  V30 15989 C 1447.52 -0.289745 -1.66904 0
M  V30 15990 O 1448.73 -0.460809 -1.74002 0
M  V30 15991 H 1445.1 -0.440534 -0.609454 0
M  V30 15992 H 1447.08 -2.36662 -1.81752 0
M  V30 15993 C 1445.82 -1.28933 -3.22911 0
M  V30 15994 H 1445.15 -2.14359 -3.37476 0
M  V30 15995 H 1446.59 -1.33331 -4.02491 0
M  V30 15996 C 1445.05 0.000379936 -3.369 0
M  V30 15997 O 1445.58 0.963093 -3.89984 0
M  V30 15998 N 1443.78 0.0700649 -2.90516 0
M  V30 15999 H 1443.33 -0.714088 -2.47505 0
M  V30 16000 H 1443.29 0.932457 -3.00254 0
M  V30 16001 N 1447.06 0.947303 -1.25952 0
M  V30 16002 C 1447.99 2.0625 -1.09467 0
M  V30 16003 C 1448.97 1.701 -0.00160498 0
M  V30 16004 O 1450.16 1.93432 -0.172501 0
M  V30 16005 C 1447.29 3.39746 -0.720392 0
M  V30 16006 C 1446.24 3.89935 -1.76451 0
M  V30 16007 C 1445.57 5.2001 -1.24472 0
M  V30 16008 C 1446.87 4.15496 -3.16481 0
M  V30 16009 H 1448.56 2.203 -2.02752 0
M  V30 16010 H 1446.11 1.05858 -0.97622 0
M  V30 16011 H 1448.06 4.17221 -0.591972 0
M  V30 16012 H 1446.78 3.25656 0.248161 0
M  V30 16013 H 1445.44 3.14635 -1.8815 0
M  V30 16014 H 1445.09 5.02295 -0.266182 0
M  V30 16015 H 1444.79 5.54559 -1.94263 0
M  V30 16016 H 1446.31 6.00075 -1.12884 0
M  V30 16017 H 1447.73 4.83605 -3.07894 0
M  V30 16018 H 1446.12 4.61315 -3.83808 0
M  V30 16019 H 1447.19 3.21501 -3.62995 0
M  V30 16020 N 1448.54 1.07657 1.15099 0
M  V30 16021 C 1449.5 0.703558 2.18135 0
M  V30 16022 C 1450.5 -0.257771 1.5872 0
M  V30 16023 O 1451.69 -0.0383211 1.74158 0
M  V30 16024 C 1448.82 0.0374978 3.40879 0
M  V30 16025 H 1450.02 1.61583 2.52648 0
M  V30 16026 H 1447.57 0.873484 1.29615 0
M  V30 16027 H 1448.3 -0.886868 3.11938 0
M  V30 16028 H 1448.09 0.728961 3.85264 0
M  V30 16029 H 1449.58 -0.208714 4.17078 0
M  V30 16030 N 1450.02 -1.31994 0.861122 0
M  V30 16031 C 1450.95 -2.31214 0.325963 0
M  V30 16032 C 1451.93 -1.59965 -0.578383 0
M  V30 16033 O 1453.11 -1.87726 -0.497268 0
M  V30 16034 C 1450.24 -3.43953 -0.481001 0
M  V30 16035 C 1449.2 -4.2673 0.329474 0
M  V30 16036 C 1448.52 -5.31293 -0.602627 0
M  V30 16037 C 1449.82 -4.98498 1.55874 0
M  V30 16038 H 1451.52 -2.76223 1.15503 0
M  V30 16039 H 1449.06 -1.32797 0.556856 0
M  V30 16040 H 1451.02 -4.12409 -0.86585 0
M  V30 16041 H 1449.74 -2.97687 -1.3435 0
M  V30 16042 H 1448.4 -3.59929 0.696159 0
M  V30 16043 H 1448.05 -4.8128 -1.46215 0
M  V30 16044 H 1447.75 -5.87565 -0.0643044 0
M  V30 16045 H 1449.27 -6.02611 -0.984512 0
M  V30 16046 H 1450.68 -5.596 1.24583 0
M  V30 16047 H 1449.08 -5.64525 2.03548 0
M  V30 16048 H 1450.15 -4.25991 2.31646 0
M  V30 16049 N 1451.49 -0.619688 -1.44906 0
M  V30 16050 C 1452.42 0.0791121 -2.33366 0
M  V30 16051 C 1453.41 0.846503 -1.47541 0
M  V30 16052 O 1454.59 0.814657 -1.76287 0
M  V30 16053 C 1451.72 1.06901 -3.30438 0
M  V30 16054 C 1450.67 0.41403 -4.25993 0
M  V30 16055 C 1450 1.51303 -5.12846 0
M  V30 16056 C 1451.3 -0.672483 -5.17953 0
M  V30 16057 H 1452.99 -0.659551 -2.92045 0
M  V30 16058 H 1450.54 -0.318623 -1.40431 0
M  V30 16059 H 1452.49 1.56653 -3.912 0
M  V30 16060 H 1451.22 1.83842 -2.69944 0
M  V30 16061 H 1449.88 -0.0627315 -3.66546 0
M  V30 16062 H 1449.52 2.27303 -4.48712 0
M  V30 16063 H 1449.22 1.08022 -5.77586 0
M  V30 16064 H 1450.75 2.01258 -5.76479 0
M  V30 16065 H 1452.16 -0.258542 -5.72717 0
M  V30 16066 H 1450.56 -1.02776 -5.91234 0
M  V30 16067 H 1451.63 -1.54425 -4.59653 0
M  V30 16068 N 1452.97 1.53444 -0.359552 0
M  V30 16069 C 1454.21 2.03077 0.232169 0
M  V30 16070 C 1454.58 1.24125 1.46482 0
M  V30 16071 O 1455.78 1.63735 2.13177 0
M  V30 16072 C 1454.05 3.53554 0.522891 0
M  V30 16073 S 1455.61 4.25068 1.08914 0
M  V30 16074 H 1452.43 0.707738 0.0680317 0
M  V30 16075 H 1455.03 1.88971 -0.501022 0
M  V30 16076 H 1453.73 4.0862 -0.381812 0
M  V30 16077 H 1453.26 3.71811 1.28532 0
M  V30 16078 H 1455.28 4.35734 2.37382 0
M  V30 16079 N 1454.45 0.0885642 1.57351 0
M  V30 16080 C 1455.68 -0.588641 1.98871 0
M  V30 16081 C 1456.1 -1.61333 0.967125 0
M  V30 16082 O 1455.46 -1.81183 -0.0652149 0
M  V30 16083 C 1455.51 -1.21877 3.39379 0
M  V30 16084 O 1454.61 -2.33462 3.39955 0
M  V30 16085 H 1453.95 -0.149938 0.64685 0
M  V30 16086 H 1456.48 0.168043 2.03909 0
M  V30 16087 H 1456.49 -1.56163 3.76931 0
M  V30 16088 H 1455.17 -0.468037 4.13258 0
M  V30 16089 H 1453.74 -2.00844 3.14191 0
M  V30 16090 N 1455.93 -1.56509 -0.185096 0
M  V30 16091 C 1456.88 -1.91742 -1.23366 0
M  V30 16092 C 1457.86 -0.784182 -1.40497 0
M  V30 16093 O 1459.05 -1.04718 -1.42699 0
M  V30 16094 C 1456.18 -2.26903 -2.57624 0
M  V30 16095 C 1455.27 -3.46707 -2.44244 0
M  V30 16096 N 1455.66 -4.64338 -2.00558 0
M  V30 16097 C 1453.96 -3.51042 -2.7511 0
M  V30 16098 C 1454.66 -5.46489 -1.9931 0
M  V30 16099 N 1453.64 -4.87162 -2.41193 0
M  V30 16100 H 1457.44 -2.80184 -0.887378 0
M  V30 16101 H 1454.95 -1.57561 -0.393468 0
M  V30 16102 H 1456.95 -2.50332 -3.33376 0
M  V30 16103 H 1455.61 -1.39792 -2.93067 0
M  V30 16104 H 1456.62 -4.88817 -1.7111 0
M  V30 16105 H 1453.3 -2.74375 -3.14682 0
M  V30 16106 H 1454.69 -6.50726 -1.67349 0
M  V30 16107 N 1457.41 0.45317 -1.50944 0
M  V30 16108 C 1458.34 1.55655 -1.74051 0
M  V30 16109 C 1459.32 1.59545 -0.58987 0
M  V30 16110 O 1460.5 1.75526 -0.830922 0
M  V30 16111 C 1457.63 2.93857 -1.85109 0
M  V30 16112 C 1456.59 3.04832 -3.00435 0
M  V30 16113 C 1455.91 4.44858 -2.96657 0
M  V30 16114 C 1457.21 2.80381 -4.40663 0
M  V30 16115 H 1458.91 1.36571 -2.66437 0
M  V30 16116 H 1456.45 0.655572 -1.28212 0
M  V30 16117 H 1458.41 3.70992 -1.99857 0
M  V30 16118 H 1457.13 3.14138 -0.893579 0
M  V30 16119 H 1455.79 2.30134 -2.85366 0
M  V30 16120 H 1455.44 4.62083 -1.98716 0
M  V30 16121 H 1455.14 4.53134 -3.7409 0
M  V30 16122 H 1456.66 5.23989 -3.13478 0
M  V30 16123 H 1458.07 3.47255 -4.56165 0
M  V30 16124 H 1456.47 3.00083 -5.19683 0
M  V30 16125 H 1457.54 1.76099 -4.51793 0
M  V30 16126 N 1458.88 1.40823 0.707568 0
M  V30 16127 C 1460.11 1.42659 1.49439 0
M  V30 16128 C 1460.52 0.0268475 1.89181 0
M  V30 16129 O 1459.87 -0.961444 1.56531 0
M  V30 16130 C 1459.93 2.26104 2.79494 0
M  V30 16131 C 1459.59 3.7442 2.62027 0
M  V30 16132 C 1460.59 4.66867 2.28759 0
M  V30 16133 C 1458.27 4.18328 2.78042 0
M  V30 16134 C 1460.27 6.01208 2.11727 0
M  V30 16135 C 1457.95 5.52736 2.60627 0
M  V30 16136 C 1458.95 6.43991 2.27518 0
M  V30 16137 O 1458.64 7.75921 2.10243 0
M  V30 16138 H 1458.37 0.488307 0.467475 0
M  V30 16139 H 1460.93 1.85607 0.879719 0
M  V30 16140 H 1459.16 1.77949 3.43323 0
M  V30 16141 H 1460.85 2.19785 3.41247 0
M  V30 16142 H 1461.61 4.34239 2.16012 0
M  V30 16143 H 1457.49 3.47612 3.02798 0
M  V30 16144 H 1461.03 6.724 1.85807 0
M  V30 16145 H 1456.93 5.84947 2.7296 0
M  V30 16146 H 1457.7 7.86938 2.251 0
M  V30 16147 N 1460.36 -0.94061 1.26453 0
M  V30 16148 C 1461.31 -2.06073 1.07873 0
M  V30 16149 C 1462.3 -1.69399 0.0055001 0
M  V30 16150 O 1463.51 -1.79267 0.162224 0
M  V30 16151 H 1459.89 -0.674748 0.331993 0
M  V30 16152 H 1461.86 -2.18895 2.02799 0
M  V30 16153 C 1460.61 -3.39971 0.729054 0
M  V30 16154 H 1459.93 -3.68667 1.54675 0
M  V30 16155 H 1461.37 -4.1916 0.638844 0
M  V30 16156 C 1459.83 -3.32114 -0.565835 0
M  V30 16157 O 1460.36 -3.68287 -1.60399 0
M  V30 16158 N 1458.56 -2.85218 -0.556679 0
M  V30 16159 H 1458.11 -2.55979 0.288541 0
M  V30 16160 H 1458.07 -2.80344 -1.42318 0
M  V30 16161 N 1461.84 -1.08266 -1.14527 0
M  V30 16162 C 1463.09 -0.806405 -1.84878 0
M  V30 16163 C 1463.4 0.670151 -1.83762 0
M  V30 16164 O 1464.61 1.06151 -2.49888 0
M  V30 16165 C 1463.06 -1.39257 -3.31867 0
M  V30 16166 C 1462.67 -2.90081 -3.41404 0
M  V30 16167 C 1464.42 -1.19475 -4.0734 0
M  V30 16168 C 1462.32 -3.41842 -4.82595 0
M  V30 16169 H 1461.25 -0.297993 -0.692615 0
M  V30 16170 H 1463.9 -1.30389 -1.29116 0
M  V30 16171 H 1462.29 -0.822802 -3.87358 0
M  V30 16172 H 1463.46 -3.53182 -2.95971 0
M  V30 16173 H 1461.78 -3.08761 -2.79385 0
M  V30 16174 H 1464.37 -1.55614 -5.11555 0
M  V30 16175 H 1464.72 -0.134455 -4.16083 0
M  V30 16176 H 1465.25 -1.73138 -3.58145 0
M  V30 16177 H 1461.99 -4.47439 -4.79039 0
M  V30 16178 H 1461.51 -2.835 -5.28572 0
M  V30 16179 H 1463.19 -3.38346 -5.51481 0
M  V30 16180 N 1463.32 1.31536 -0.86811 0
M  V30 16181 C 1464.73 1.78991 -0.530937 0
M  V30 16182 C 1465.08 1.71553 0.952046 0
M  V30 16183 O 1464.21 1.28216 1.74326 0
M  V30 16184 C 1464.8 3.25004 -0.956981 0
M  V30 16185 C 1463.36 3.70362 -0.671495 0
M  V30 16186 C 1462.51 2.52361 -1.14932 0
M  V30 16187 H 1465.46 1.18644 -1.05401 0
M  V30 16188 H 1465.48 3.79477 -0.278883 0
M  V30 16189 H 1464.99 3.30385 -2.03635 0
M  V30 16190 H 1463.09 3.70483 0.39659 0
M  V30 16191 H 1463.21 4.62581 -1.24722 0
M  V30 16192 H 1461.57 2.4826 -0.569144 0
M  V30 16193 H 1462.35 2.60489 -2.23608 0
M  V30 16194 N 1464.8 0.627364 1.44575 0
M  V30 16195 C 1466.05 0.127824 2.01295 0
M  V30 16196 C 1466.36 -1.25647 1.49907 0
M  V30 16197 O 1467.57 -1.84982 1.9873 0
M  V30 16198 C 1466.02 0.177775 3.59461 0
M  V30 16199 C 1465.63 1.56315 4.19845 0
M  V30 16200 C 1467.37 -0.265497 4.23669 0
M  V30 16201 C 1465.28 1.56842 5.70223 0
M  V30 16202 H 1464.21 0.0440205 0.752714 0
M  V30 16203 H 1466.86 0.785607 1.65833 0
M  V30 16204 H 1465.24 -0.547038 3.92203 0
M  V30 16205 H 1466.42 2.31125 3.98645 0
M  V30 16206 H 1464.73 1.95019 3.67909 0
M  V30 16207 H 1467.33 -0.281038 5.33961 0
M  V30 16208 H 1467.67 -1.29208 3.95741 0
M  V30 16209 H 1468.21 0.406698 3.95716 0
M  V30 16210 H 1464.94 2.57325 6.0288 0
M  V30 16211 H 1464.46 0.863198 5.93556 0
M  V30 16212 H 1466.14 1.30071 6.33791 0
M  V30 16213 N 1466.28 -1.53251 0.367684 0
M  V30 16214 C 1467.22 -2.27318 -0.4929 0
M  V30 16215 C 1468.22 -1.30376 -1.08159 0
M  V30 16216 O 1469.42 -1.47996 -1.02455 0
M  V30 16217 H 1465.8 -0.730709 -0.177677 0
M  V30 16218 H 1467.77 -2.98005 0.153525 0
M  V30 16219 C 1466.52 -3.07678 -1.61955 0
M  V30 16220 H 1465.84 -3.82117 -1.17587 0
M  V30 16221 H 1467.28 -3.62678 -2.19638 0
M  V30 16222 C 1465.74 -2.18648 -2.5631 0
M  V30 16223 O 1466.27 -1.79869 -3.5918 0
M  V30 16224 N 1464.48 -1.83239 -2.25548 0
M  V30 16225 H 1464.02 -2.14973 -1.4193 0
M  V30 16226 H 1463.98 -1.23957 -2.88933 0
M  V30 16227 N 1467.75 -0.0969077 -1.57302 0
M  V30 16228 C 1468.68 0.858443 -2.17147 0
M  V30 16229 C 1469.66 1.29294 -1.10531 0
M  V30 16230 O 1470.85 1.3595 -1.38676 0
M  V30 16231 C 1467.98 2.11691 -2.75326 0
M  V30 16232 C 1466.93 1.82097 -3.8733 0
M  V30 16233 C 1466.26 3.14787 -4.32219 0
M  V30 16234 C 1467.56 1.10651 -5.10444 0
M  V30 16235 H 1469.25 0.35982 -2.9723 0
M  V30 16236 H 1466.8 0.17163 -1.42974 0
M  V30 16237 H 1468.75 2.78963 -3.15844 0
M  V30 16238 H 1467.48 2.63839 -1.925 0
M  V30 16239 H 1466.14 1.17222 -3.47354 0
M  V30 16240 H 1465.78 3.64826 -3.46281 0
M  V30 16241 H 1465.48 2.95769 -5.07735 0
M  V30 16242 H 1467.01 3.83215 -4.75372 0
M  V30 16243 H 1468.42 1.68036 -5.48121 0
M  V30 16244 H 1466.82 1.01805 -5.91401 0
M  V30 16245 H 1467.89 0.0895634 -4.84817 0
M  V30 16246 N 1469.23 1.56605 0.176793 0
M  V30 16247 C 1470.46 1.8617 0.91408 0
M  V30 16248 C 1470.88 0.68262 1.75277 0
M  V30 16249 O 1470.24 -0.368391 1.77518 0
M  V30 16250 C 1470.29 3.14109 1.7711 0
M  V30 16251 O 1469.39 2.95947 2.87209 0
M  V30 16252 H 1468.73 0.612507 0.25638 0
M  V30 16253 H 1471.26 2.03837 0.176586 0
M  V30 16254 H 1471.27 3.45373 2.17213 0
M  V30 16255 H 1469.95 3.9954 1.15502 0
M  V30 16256 H 1468.52 2.76024 2.50729 0
M  V30 16257 N 1470.71 -0.445159 1.51182 0
M  V30 16258 C 1471.99 -1.20598 1.53998 0
M  V30 16259 C 1472.37 -2.08962 0.29967 0
M  V30 16260 O 1471.71 -2.17003 -0.715666 0
M  V30 16261 C 1471.92 -2.01461 2.84982 0
M  V30 16262 C 1473.27 -2.5877 3.36635 0
M  V30 16263 O 1474.3 -2.11679 2.86479 0
M  V30 16264 O 1473.16 -3.44637 4.24132 0
M  V30 16265 H 1470.25 -0.548635 0.618812 0
M  V30 16266 H 1472.8 -0.454865 1.6349 0
M  V30 16267 H 1471.57 -1.36511 3.66716 0
M  V30 16268 H 1471.19 -2.83654 2.78615 0
M  V30 16269 N 1472.19 -1.41197 -0.700089 0
M  V30 16270 C 1473.13 -1.42688 -1.81407 0
M  V30 16271 C 1474.1 -0.28182 -1.63692 0
M  V30 16272 O 1475.29 -0.482196 -1.84606 0
M  V30 16273 C 1472.43 -1.31041 -3.19252 0
M  V30 16274 C 1471.54 -2.5538 -3.48432 0
M  V30 16275 C 1470.68 -2.3606 -4.75867 0
M  V30 16276 C 1469.72 -3.55898 -4.97999 0
M  V30 16277 N 1468.85 -3.35676 -6.16657 0
M  V30 16278 H 1473.69 -2.37898 -1.79467 0
M  V30 16279 H 1471.23 -1.18137 -0.87647 0
M  V30 16280 H 1473.19 -1.22292 -3.98874 0
M  V30 16281 H 1471.82 -0.394422 -3.20381 0
M  V30 16282 H 1470.87 -2.74598 -2.6325 0
M  V30 16283 H 1472.18 -3.44535 -3.6069 0
M  V30 16284 H 1471.34 -2.24752 -5.63535 0
M  V30 16285 H 1470.08 -1.44355 -4.65846 0
M  V30 16286 H 1469.08 -3.67665 -4.08781 0
M  V30 16287 H 1470.31 -4.4855 -5.09882 0
M  V30 16288 H 1468.25 -2.46667 -6.07858 0
M  V30 16289 H 1468.17 -4.18404 -6.29662 0
M  V30 16290 H 1469.44 -3.28132 -7.07071 0
M  V30 16291 N 1473.67 0.933891 -1.2695 0
M  V30 16292 C 1474.6 2.03768 -1.04934 0
M  V30 16293 C 1475.61 1.62798 -0.00740752 0
M  V30 16294 O 1476.8 1.76765 -0.248289 0
M  V30 16295 C 1473.9 3.34097 -0.568515 0
M  V30 16296 C 1473.07 4.03794 -1.68133 0
M  V30 16297 C 1472.13 5.12397 -1.19731 0
M  V30 16298 O 1471.16 5.36701 -1.89579 0
M  V30 16299 N 1472.36 5.80479 -0.0496327 0
M  V30 16300 H 1475.12 2.23219 -1.99984 0
M  V30 16301 H 1472.69 1.10386 -1.18433 0
M  V30 16302 H 1474.68 4.04053 -0.228736 0
M  V30 16303 H 1473.25 3.11265 0.288587 0
M  V30 16304 H 1472.47 3.27655 -2.1917 0
M  V30 16305 H 1473.76 4.4711 -2.42837 0
M  V30 16306 H 1473.15 5.63179 0.533509 0
M  V30 16307 H 1471.71 6.5139 0.231014 0
M  V30 16308 N 1475.14 1.08871 1.13951 0
M  V30 16309 C 1476.38 0.830861 1.86751 0
M  V30 16310 C 1476.75 -0.63195 1.81302 0
M  V30 16311 O 1477.95 -1.0055 2.49285 0
M  V30 16312 C 1476.22 1.34426 3.31156 0
M  V30 16313 S 1477.78 1.21942 4.21516 0
M  V30 16314 H 1474.6 0.300658 0.644302 0
M  V30 16315 H 1477.2 1.39095 1.37378 0
M  V30 16316 H 1475.9 2.40326 3.32674 0
M  V30 16317 H 1475.43 0.780048 3.85589 0
M  V30 16318 H 1477.45 0.166724 4.9592 0
M  V30 16319 N 1476.62 -1.31073 0.875073 0
M  V30 16320 C 1477.53 -2.3215 0.338196 0
M  V30 16321 C 1478.55 -1.64928 -0.554504 0
M  V30 16322 O 1479.72 -1.96308 -0.449998 0
M  V30 16323 C 1476.79 -3.43804 -0.447163 0
M  V30 16324 C 1475.85 -4.26674 0.474106 0
M  V30 16325 C 1475.08 -5.32997 -0.273867 0
M  V30 16326 O 1475.31 -5.50288 -1.50129 0
M  V30 16327 O 1474.24 -6.00756 0.370913 0
M  V30 16328 H 1478.07 -2.80002 1.17612 0
M  V30 16329 H 1475.65 -1.35064 0.6386 0
M  V30 16330 H 1477.53 -4.11847 -0.892199 0
M  V30 16331 H 1476.21 -2.98105 -1.26155 0
M  V30 16332 H 1475.11 -3.61366 0.967748 0
M  V30 16333 H 1476.45 -4.75952 1.25423 0
M  V30 16334 N 1478.1 -0.635022 -1.4424 0
M  V30 16335 C 1479.35 -0.141067 -2.02008 0
M  V30 16336 C 1479.68 1.23849 -1.49973 0
M  V30 16337 O 1478.93 1.83666 -0.675673 0
M  V30 16338 C 1479.23 -0.081191 -3.57308 0
M  V30 16339 C 1478.9 -1.40004 -4.28614 0
M  V30 16340 C 1477.56 -1.76125 -4.4781 0
M  V30 16341 C 1479.91 -2.27041 -4.6915 0
M  V30 16342 C 1477.24 -2.98982 -5.04804 0
M  V30 16343 C 1479.59 -3.49173 -5.27504 0
M  V30 16344 C 1478.25 -3.85512 -5.44919 0
M  V30 16345 H 1477.52 -0.05162 -0.7392 0
M  V30 16346 H 1480.17 -0.822112 -1.72955 0
M  V30 16347 H 1478.48 0.68324 -3.85797 0
M  V30 16348 H 1480.17 0.317584 -3.9974 0
M  V30 16349 H 1476.76 -1.10897 -4.14005 0
M  V30 16350 H 1480.95 -2.0043 -4.54028 0
M  V30 16351 H 1476.2 -3.27208 -5.16473 0
M  V30 16352 H 1480.38 -4.16847 -5.57864 0
M  V30 16353 H 1478 -4.80793 -5.88848 0
M  V30 16354 N 1479.58 1.53054 -0.375806 0
M  V30 16355 C 1480.86 1.93761 0.26757 0
M  V30 16356 C 1481.24 1.31019 1.65521 0
M  V30 16357 O 1480.58 0.473138 2.23548 0
M  V30 16358 C 1480.79 3.47643 0.307505 0
M  V30 16359 C 1482.14 4.21114 0.542951 0
M  V30 16360 O 1483.17 3.54077 0.388285 0
M  V30 16361 O 1482.02 5.39929 0.8449 0
M  V30 16362 H 1479.12 0.810805 0.16286 0
M  V30 16363 H 1481.66 1.64179 -0.429334 0
M  V30 16364 H 1480.44 3.85608 -0.665001 0
M  V30 16365 H 1480.06 3.83488 1.04988 0
M  V30 16366 N 1481.06 0.105248 1.57248 0
M  V30 16367 C 1482.31 -0.555797 1.93891 0
M  V30 16368 C 1482.62 -1.68703 0.989883 0
M  V30 16369 O 1483.82 -2.40991 1.25043 0
M  V30 16370 C 1482.28 -1.04006 3.44544 0
M  V30 16371 C 1481.89 0.0619641 4.47957 0
M  V30 16372 C 1483.63 -1.67327 3.90131 0
M  V30 16373 C 1481.54 -0.438229 5.89774 0
M  V30 16374 H 1480.47 -0.211391 0.723761 0
M  V30 16375 H 1483.12 0.182887 1.82586 0
M  V30 16376 H 1481.5 -1.83275 3.51036 0
M  V30 16377 H 1482.68 0.837803 4.5312 0
M  V30 16378 H 1480.99 0.600973 4.1204 0
M  V30 16379 H 1483.59 -2.0584 4.93492 0
M  V30 16380 H 1483.93 -2.54638 3.29341 0
M  V30 16381 H 1484.46 -0.946231 3.86382 0
M  V30 16382 H 1481.2 0.398506 6.54288 0
M  V30 16383 H 1480.72 -1.18085 5.88061 0
M  V30 16384 H 1482.4 -0.903922 6.40655 0
M  V30 16385 N 1482.53 -1.56697 -0.168486 0
M  V30 16386 C 1483.48 -1.9755 -1.22787 0
M  V30 16387 C 1484.48 -0.864668 -1.4567 0
M  V30 16388 O 1485.68 -1.04979 -1.46217 0
M  V30 16389 H 1482.06 -0.628561 -0.412813 0
M  V30 16390 H 1484.03 -2.85845 -0.85646 0
M  V30 16391 C 1482.78 -2.35394 -2.559 0
M  V30 16392 H 1482.1 -3.20412 -2.39115 0
M  V30 16393 H 1483.54 -2.67821 -3.28706 0
M  V30 16394 C 1482 -1.19842 -3.14864 0
M  V30 16395 O 1482.53 -0.487601 -3.9873 0
M  V30 16396 N 1480.74 -0.968249 -2.73995 0
M  V30 16397 H 1480.28 -1.54804 -2.05897 0
M  V30 16398 H 1480.24 -0.196951 -3.13783 0
M  V30 16399 N 1484.01 0.437135 -1.51416 0
M  V30 16400 C 1484.92 1.55581 -1.75589 0
M  V30 16401 C 1485.94 1.61797 -0.640132 0
M  V30 16402 O 1487.11 1.79035 -0.922406 0
M  V30 16403 C 1484.18 2.91561 -1.87598 0
M  V30 16404 C 1483.24 2.9546 -3.11451 0
M  V30 16405 C 1482.47 4.24954 -3.22878 0
M  V30 16406 O 1482.7 5.17341 -2.40238 0
M  V30 16407 O 1481.63 4.35141 -4.15856 0
M  V30 16408 H 1485.46 1.38098 -2.70486 0
M  V30 16409 H 1483.04 0.620163 -1.3592 0
M  V30 16410 H 1484.92 3.72262 -1.97481 0
M  V30 16411 H 1483.6 3.09171 -0.958889 0
M  V30 16412 H 1482.51 2.13713 -3.07046 0
M  V30 16413 H 1483.84 2.82794 -4.0285 0
M  V30 16414 N 1485.49 1.41566 0.692592 0
M  V30 16415 C 1486.73 1.42554 1.46485 0
M  V30 16416 C 1487.09 0.0341685 1.9197 0
M  V30 16417 O 1488.3 -0.0811732 2.68677 0
M  V30 16418 C 1486.57 2.40673 2.64218 0
M  V30 16419 S 1488.13 2.60215 3.53318 0
M  V30 16420 H 1484.94 0.50496 0.500537 0
M  V30 16421 H 1487.55 1.78027 0.807867 0
M  V30 16422 H 1486.25 3.40561 2.29012 0
M  V30 16423 H 1485.78 2.06562 3.34807 0
M  V30 16424 H 1487.8 1.87179 4.59542 0
M  V30 16425 N 1486.97 -0.927146 1.27443 0
M  V30 16426 C 1487.92 -2.04917 1.10053 0
M  V30 16427 C 1488.91 -1.69384 0.0234668 0
M  V30 16428 O 1490.12 -1.79085 0.181228 0
M  V30 16429 H 1486.49 -0.671189 0.33913 0
M  V30 16430 H 1488.46 -2.16732 2.05109 0
M  V30 16431 C 1487.21 -3.39178 0.765072 0
M  V30 16432 H 1486.53 -3.67006 1.58577 0
M  V30 16433 H 1487.97 -4.18458 0.683266 0
M  V30 16434 C 1486.43 -3.32696 -0.530578 0
M  V30 16435 O 1486.96 -3.69967 -1.56484 0
M  V30 16436 N 1485.17 -2.85793 -0.526396 0
M  V30 16437 H 1484.72 -2.55658 0.315675 0
M  V30 16438 H 1484.67 -2.81838 -1.39337 0
M  V30 16439 N 1488.45 -1.09474 -1.13372 0
M  V30 16440 C 1489.68 -0.851685 -1.88228 0
M  V30 16441 C 1490.08 0.600707 -1.79411 0
M  V30 16442 O 1489.43 1.42527 -1.15895 0
M  V30 16443 C 1489.49 -1.20874 -3.3857 0
M  V30 16444 C 1489.15 -2.66614 -3.71168 0
M  V30 16445 C 1490.15 -3.64862 -3.70367 0
M  V30 16446 C 1487.84 -3.02748 -4.0081 0
M  V30 16447 C 1489.83 -4.97269 -3.98751 0
M  V30 16448 C 1487.52 -4.35347 -4.28855 0
M  V30 16449 C 1488.51 -5.32417 -4.2781 0
M  V30 16450 O 1488.2 -6.6263 -4.55167 0
M  V30 16451 H 1487.93 -0.306097 -0.602728 0
M  V30 16452 H 1490.49 -1.46038 -1.44437 0
M  V30 16453 H 1488.72 -0.543096 -3.82867 0
M  V30 16454 H 1490.41 -0.944753 -3.94752 0
M  V30 16455 H 1491.17 -3.3829 -3.47541 0
M  V30 16456 H 1487.05 -2.27824 -4.00771 0
M  V30 16457 H 1490.6 -5.73028 -3.9785 0
M  V30 16458 H 1486.49 -4.61661 -4.51153 0
M  V30 16459 H 1487.26 -6.6811 -4.72833 0
M  V30 16460 N 1489.92 1.30607 -0.882012 0
M  V30 16461 C 1491.16 1.98047 -0.505626 0
M  V30 16462 C 1491.53 1.68123 0.927287 0
M  V30 16463 O 1492.73 2.28872 1.40964 0
M  V30 16464 C 1491 3.49021 -0.769367 0
M  V30 16465 S 1492.56 4.36003 -0.494641 0
M  V30 16466 H 1489.38 0.685625 -0.188252 0
M  V30 16467 H 1491.98 1.58776 -1.14064 0
M  V30 16468 H 1490.68 3.68291 -1.8108 0
M  V30 16469 H 1490.21 3.93211 -0.121801 0
M  V30 16470 H 1492.23 4.91683 0.668004 0
M  V30 16471 N 1491.4 0.642663 1.43901 0
M  V30 16472 C 1492.81 0.232809 1.85243 0
M  V30 16473 C 1493.16 -1.21834 1.53789 0
M  V30 16474 O 1492.29 -1.92855 0.981625 0
M  V30 16475 C 1492.88 0.415749 3.36239 0
M  V30 16476 C 1491.44 0.0603055 3.76352 0
M  V30 16477 C 1490.59 0.723658 2.67691 0
M  V30 16478 H 1493.54 0.847052 1.34204 0
M  V30 16479 H 1493.56 -0.341903 3.78961 0
M  V30 16480 H 1493.07 1.472 3.59101 0
M  V30 16481 H 1491.18 -0.993761 3.59103 0
M  V30 16482 H 1491.29 0.478408 4.76705 0
M  V30 16483 H 1489.65 0.15787 2.5421 0
M  V30 16484 H 1490.44 1.78273 2.93383 0
M  V30 16485 N 1492.88 -1.52852 0.383918 0
M  V30 16486 C 1493.83 -2.26294 -0.453826 0
M  V30 16487 C 1494.8 -1.27688 -1.0623 0
M  V30 16488 O 1495.98 -1.56507 -1.09134 0
M  V30 16489 C 1493.12 -3.06907 -1.57803 0
M  V30 16490 C 1492.24 -4.20434 -0.992943 0
M  V30 16491 C 1491.37 -4.88453 -2.08776 0
M  V30 16492 C 1490.41 -5.93981 -1.47828 0
M  V30 16493 N 1489.55 -6.55617 -2.51218 0
M  V30 16494 H 1494.39 -2.97462 0.178927 0
M  V30 16495 H 1491.92 -1.46759 0.100066 0
M  V30 16496 H 1493.88 -3.51933 -2.24052 0
M  V30 16497 H 1492.51 -2.37959 -2.18118 0
M  V30 16498 H 1491.56 -3.79762 -0.22021 0
M  V30 16499 H 1492.88 -4.96211 -0.507504 0
M  V30 16500 H 1492.03 -5.36755 -2.82806 0
M  V30 16501 H 1490.77 -4.12187 -2.60678 0
M  V30 16502 H 1489.77 -5.45023 -0.723202 0
M  V30 16503 H 1491 -6.72176 -0.967278 0
M  V30 16504 H 1488.95 -5.82195 -3.02299 0
M  V30 16505 H 1488.86 -7.26991 -2.07414 0
M  V30 16506 H 1490.13 -7.08564 -3.24895 0
M  V30 16507 N 1494.36 -0.113586 -1.5719 0
M  V30 16508 C 1495.31 0.83862 -2.15025 0
M  V30 16509 C 1496.28 1.26726 -1.07376 0
M  V30 16510 O 1497.46 1.34574 -1.35257 0
M  V30 16511 C 1494.6 2.08538 -2.74965 0
M  V30 16512 C 1493.71 1.70559 -3.96905 0
M  V30 16513 C 1492.85 2.90161 -4.44949 0
M  V30 16514 C 1491.89 2.48396 -5.59433 0
M  V30 16515 N 1491.03 3.60894 -6.02246 0
M  V30 16516 H 1495.87 0.338585 -2.9607 0
M  V30 16517 H 1493.4 0.155437 -1.46276 0
M  V30 16518 H 1495.36 2.81579 -3.07846 0
M  V30 16519 H 1493.99 2.56009 -1.96619 0
M  V30 16520 H 1493.04 0.874133 -3.7022 0
M  V30 16521 H 1494.35 1.35863 -4.7994 0
M  V30 16522 H 1493.51 3.71434 -4.7971 0
M  V30 16523 H 1492.25 3.28081 -3.60852 0
M  V30 16524 H 1491.25 1.65555 -5.24282 0
M  V30 16525 H 1492.48 2.116 -6.45292 0
M  V30 16526 H 1490.42 3.98497 -5.21091 0
M  V30 16527 H 1490.34 3.30103 -6.80124 0
M  V30 16528 H 1491.61 4.42622 -6.41643 0
M  V30 16529 N 1495.84 1.56784 0.160173 0
M  V30 16530 C 1497.06 1.87129 0.894283 0
M  V30 16531 C 1497.49 0.701172 1.74543 0
M  V30 16532 O 1496.85 -0.349542 1.77899 0
M  V30 16533 C 1496.89 3.15969 1.73769 0
M  V30 16534 O 1496 2.98977 2.84054 0
M  V30 16535 H 1495.34 0.615192 0.249869 0
M  V30 16536 H 1497.87 2.04012 0.154956 0
M  V30 16537 H 1497.88 3.47657 2.13538 0
M  V30 16538 H 1496.55 4.00742 1.11258 0
M  V30 16539 H 1495.13 2.78668 2.47788 0
M  V30 16540 N 1497.32 -0.429099 1.51646 0
M  V30 16541 C 1498.55 -1.19832 1.68297 0
M  V30 16542 C 1498.95 -1.85275 0.383378 0
M  V30 16543 O 1498.3 -1.71862 -0.648771 0
M  V30 16544 C 1498.36 -2.31803 2.74786 0
M  V30 16545 C 1498.02 -1.8666 4.17141 0
M  V30 16546 C 1499.02 -1.36544 5.01649 0
M  V30 16547 C 1496.7 -1.94101 4.63282 0
M  V30 16548 C 1498.7 -0.944655 6.30361 0
M  V30 16549 C 1496.39 -1.51634 5.91988 0
M  V30 16550 C 1497.38 -1.01899 6.75356 0
M  V30 16551 O 1497.07 -0.600375 8.01655 0
M  V30 16552 H 1496.8 -0.366924 0.567752 0
M  V30 16553 H 1499.36 -0.513643 1.98874 0
M  V30 16554 H 1497.59 -3.03573 2.39542 0
M  V30 16555 H 1499.28 -2.93639 2.80234 0
M  V30 16556 H 1500.04 -1.30184 4.67201 0
M  V30 16557 H 1495.92 -2.31758 3.98509 0
M  V30 16558 H 1499.47 -0.555763 6.95383 0
M  V30 16559 H 1495.36 -1.57667 6.25948 0
M  V30 16560 H 1496.13 -0.725485 8.15278 0
M  V30 16561 N 1498.79 -1.41931 -0.685074 0
M  V30 16562 C 1500.02 -1.45018 -1.4715 0
M  V30 16563 C 1500.43 -0.0569412 -1.89114 0
M  V30 16564 O 1499.77 0.936419 -1.58041 0
M  V30 16565 C 1499.84 -2.30522 -2.75862 0
M  V30 16566 C 1499.5 -3.78542 -2.56037 0
M  V30 16567 C 1500.5 -4.70448 -2.21303 0
M  V30 16568 C 1498.18 -4.22698 -2.71351 0
M  V30 16569 C 1500.18 -6.045 -2.02135 0
M  V30 16570 C 1497.86 -5.56812 -2.518 0
M  V30 16571 C 1498.86 -6.47529 -2.17244 0
M  V30 16572 O 1498.55 -7.79167 -1.97872 0
M  V30 16573 H 1498.28 -0.495682 -0.459647 0
M  V30 16574 H 1500.84 -1.86983 -0.850079 0
M  V30 16575 H 1499.07 -1.83389 -3.40449 0
M  V30 16576 H 1500.75 -2.25186 -3.37707 0
M  V30 16577 H 1501.52 -4.37621 -2.09077 0
M  V30 16578 H 1497.4 -3.52385 -2.9723 0
M  V30 16579 H 1500.94 -6.75271 -1.75086 0
M  V30 16580 H 1496.84 -5.89216 -2.6362 0
M  V30 16581 H 1497.61 -7.9042 -2.12552 0
M  V30 16582 N 1500.27 0.920374 -1.27933 0
M  V30 16583 C 1501.2 2.03882 -1.13817 0
M  V30 16584 C 1502.18 1.70058 -0.0376853 0
M  V30 16585 O 1503.37 1.93023 -0.213492 0
M  V30 16586 C 1500.5 3.38142 -0.792296 0
M  V30 16587 C 1499.45 3.86104 -1.84683 0
M  V30 16588 C 1498.78 5.17253 -1.35474 0
M  V30 16589 C 1500.08 4.0869 -3.25223 0
M  V30 16590 H 1501.77 2.15949 -2.07379 0
M  V30 16591 H 1499.32 1.03764 -0.998454 0
M  V30 16592 H 1501.27 4.15872 -0.680337 0
M  V30 16593 H 1499.99 3.26109 0.179029 0
M  V30 16594 H 1498.65 3.10573 -1.94782 0
M  V30 16595 H 1498.3 5.01618 -0.372666 0
M  V30 16596 H 1498 5.50314 -2.05982 0
M  V30 16597 H 1499.53 5.97545 -1.25587 0
M  V30 16598 H 1500.94 4.76965 -3.18083 0
M  V30 16599 H 1499.34 4.5307 -3.93507 0
M  V30 16600 H 1500.41 3.13729 -3.69733 0
M  V30 16601 N 1501.75 1.10074 1.1279 0
M  V30 16602 C 1502.99 0.850621 1.8586 0
M  V30 16603 C 1503.35 -0.612685 1.81962 0
M  V30 16604 O 1504.55 -0.979003 2.50338 0
M  V30 16605 C 1502.83 1.3793 3.29712 0
M  V30 16606 S 1504.38 1.26406 4.20199 0
M  V30 16607 H 1501.2 0.307475 0.641077 0
M  V30 16608 H 1503.8 1.40544 1.35895 0
M  V30 16609 H 1502.51 2.43841 3.30106 0
M  V30 16610 H 1502.04 0.820901 3.8474 0
M  V30 16611 H 1504.05 0.219313 4.95715 0
M  V30 16612 N 1503.23 -1.30138 0.888926 0
M  V30 16613 C 1504.64 -1.78124 0.559346 0
M  V30 16614 C 1504.99 -1.73046 -0.924633 0
M  V30 16615 O 1504.11 -1.30974 -1.72264 0
M  V30 16616 C 1504.71 -3.2344 1.00856 0
M  V30 16617 C 1503.27 -3.69247 0.730332 0
M  V30 16618 C 1502.42 -2.505 1.18933 0
M  V30 16619 H 1505.37 -1.16952 1.07275 0
M  V30 16620 H 1505.39 -3.78985 0.339219 0
M  V30 16621 H 1504.9 -3.27104 2.08865 0
M  V30 16622 H 1503 -3.71067 -0.337599 0
M  V30 16623 H 1503.11 -4.60538 1.32066 0
M  V30 16624 H 1501.48 -2.47323 0.608568 0
M  V30 16625 H 1502.26 -2.56899 2.27724 0
M  V30 16626 N 1504.71 -0.650285 -1.43559 0
M  V30 16627 C 1506.12 -0.24263 -1.85117 0
M  V30 16628 C 1506.47 1.21017 -1.54432 0
M  V30 16629 O 1505.59 1.92332 -0.991839 0
M  V30 16630 C 1506.19 -0.433575 -3.36014 0
M  V30 16631 C 1504.75 -0.0802635 -3.76314 0
M  V30 16632 C 1503.89 -0.737844 -2.67303 0
M  V30 16633 H 1506.84 -0.854158 -1.33753 0
M  V30 16634 H 1506.87 0.321801 -3.79137 0
M  V30 16635 H 1506.38 -1.49102 -3.58316 0
M  V30 16636 H 1504.48 0.974703 -3.59625 0
M  V30 16637 H 1504.59 -0.503683 -4.76445 0
M  V30 16638 H 1502.96 -0.171349 -2.54123 0
M  V30 16639 H 1503.74 -1.79826 -2.92434 0
M  V30 16640 N 1506.18 1.52647 -0.392018 0
M  V30 16641 C 1507.43 2.00798 0.19056 0
M  V30 16642 C 1507.75 1.28265 1.47673 0
M  V30 16643 O 1508.95 1.67142 2.13953 0
M  V30 16644 C 1507.41 3.57779 0.390148 0
M  V30 16645 C 1507.02 4.39213 -0.882933 0
M  V30 16646 C 1508.76 4.14211 0.928945 0
M  V30 16647 C 1506.67 5.87801 -0.651474 0
M  V30 16648 H 1505.6 0.750262 0.0749879 0
M  V30 16649 H 1508.25 1.7613 -0.514835 0
M  V30 16650 H 1506.63 3.78707 1.15746 0
M  V30 16651 H 1507.8 4.30051 -1.65507 0
M  V30 16652 H 1506.12 3.94015 -1.34688 0
M  V30 16653 H 1508.72 5.22884 1.11787 0
M  V30 16654 H 1509.06 3.70475 1.89878 0
M  V30 16655 H 1509.59 3.97185 0.221135 0
M  V30 16656 H 1506.33 6.35864 -1.59239 0
M  V30 16657 H 1505.85 5.99744 0.0816786 0
M  V30 16658 H 1507.53 6.46363 -0.287057 0
M  V30 16659 N 1507.66 0.121921 1.57128 0
M  V30 16660 C 1509.07 -0.402991 1.82299 0
M  V30 16661 C 1509.42 -1.66415 1.03925 0
M  V30 16662 O 1508.55 -2.14623 0.27674 0
M  V30 16663 C 1509.14 -0.737913 3.30666 0
M  V30 16664 C 1507.7 -1.20745 3.56508 0
M  V30 16665 C 1506.85 -0.217628 2.76445 0
M  V30 16666 H 1509.8 0.347009 1.5486 0
M  V30 16667 H 1509.82 -1.59505 3.45454 0
M  V30 16668 H 1509.33 0.180162 3.87682 0
M  V30 16669 H 1507.44 -2.14232 3.04853 0
M  V30 16670 H 1507.55 -1.15075 4.65075 0
M  V30 16671 H 1505.91 -0.705253 2.44741 0
M  V30 16672 H 1506.7 0.693596 3.3622 0
M  V30 16673 N 1509.14 -1.56867 -0.151857 0
M  V30 16674 C 1510.39 -1.82273 -0.863689 0
M  V30 16675 C 1510.7 -0.702377 -1.82554 0
M  V30 16676 O 1511.91 -0.841903 -2.58117 0
M  V30 16677 C 1510.36 -3.23046 -1.58649 0
M  V30 16678 C 1509.97 -4.43003 -0.667292 0
M  V30 16679 C 1511.72 -3.57729 -2.28539 0
M  V30 16680 C 1509.62 -5.74798 -1.39144 0
M  V30 16681 H 1508.55 -0.679753 -0.326269 0
M  V30 16682 H 1511.2 -1.8313 -0.116454 0
M  V30 16683 H 1509.59 -3.16561 -2.37918 0
M  V30 16684 H 1510.76 -4.60712 0.0898254 0
M  V30 16685 H 1509.08 -4.16329 -0.0770521 0
M  V30 16686 H 1511.67 -4.53451 -2.83348 0
M  V30 16687 H 1512.02 -2.8355 -3.04803 0
M  V30 16688 H 1512.55 -3.65853 -1.56194 0
M  V30 16689 H 1509.29 -6.52059 -0.670747 0
M  V30 16690 H 1508.81 -5.61032 -2.12139 0
M  V30 16691 H 1510.49 -6.17429 -1.93367 0
M  V30 16692 N 1510.62 0.421051 -1.51871 0
M  V30 16693 C 1511.55 1.51928 -1.77313 0
M  V30 16694 C 1512.53 1.58258 -0.623579 0
M  V30 16695 O 1513.71 1.73724 -0.867967 0
M  V30 16696 C 1510.84 2.89865 -1.913 0
M  V30 16697 C 1509.8 2.98391 -3.06834 0
M  V30 16698 C 1509.12 4.38466 -3.06026 0
M  V30 16699 C 1510.42 2.7097 -4.46511 0
M  V30 16700 H 1512.12 1.30889 -2.69274 0
M  V30 16701 H 1509.66 0.628229 -1.29573 0
M  V30 16702 H 1511.62 3.66669 -2.07682 0
M  V30 16703 H 1510.34 3.12172 -0.960011 0
M  V30 16704 H 1509 2.24029 -2.90184 0
M  V30 16705 H 1508.65 4.57764 -2.08472 0
M  V30 16706 H 1508.35 4.45097 -3.83618 0
M  V30 16707 H 1509.87 5.17221 -3.24522 0
M  V30 16708 H 1511.29 3.37501 -4.63428 0
M  V30 16709 H 1509.68 2.88992 -5.25931 0
M  V30 16710 H 1510.75 1.66476 -4.55427 0
M  V30 16711 N 1512.1 1.42293 0.677538 0
M  V30 16712 C 1513.04 1.45556 1.79114 0
M  V30 16713 C 1514.01 0.307826 1.63223 0
M  V30 16714 O 1515.2 0.511504 1.83816 0
M  V30 16715 C 1512.34 1.36104 3.17127 0
M  V30 16716 C 1511.45 2.60891 3.44325 0
M  V30 16717 C 1510.59 2.43601 4.72051 0
M  V30 16718 C 1509.63 3.63775 4.92274 0
M  V30 16719 N 1508.76 3.45444 6.11239 0
M  V30 16720 H 1513.6 2.40723 1.7566 0
M  V30 16721 H 1511.14 1.19517 0.857565 0
M  V30 16722 H 1513.1 1.28622 3.96878 0
M  V30 16723 H 1511.73 0.445342 3.19713 0
M  V30 16724 H 1510.78 2.78751 2.58848 0
M  V30 16725 H 1512.09 3.50229 3.55163 0
M  V30 16726 H 1511.25 2.33689 5.59888 0
M  V30 16727 H 1509.98 1.51748 4.63491 0
M  V30 16728 H 1508.99 3.74122 4.0288 0
M  V30 16729 H 1510.21 4.56605 5.02681 0
M  V30 16730 H 1508.16 2.56306 6.03857 0
M  V30 16731 H 1508.08 4.28368 6.22926 0
M  V30 16732 H 1509.35 3.39339 7.01762 0
M  V30 16733 N 1513.57 -0.913576 1.28419 0
M  V30 16734 C 1514.82 -1.65731 1.14961 0
M  V30 16735 C 1515.14 -1.93269 -0.301079 0
M  V30 16736 O 1516.34 -2.6573 -0.556778 0
M  V30 16737 C 1514.8 -2.98562 2.00969 0
M  V30 16738 C 1514.41 -2.78671 3.5078 0
M  V30 16739 C 1516.15 -3.76439 1.96198 0
M  V30 16740 C 1514.06 -4.07144 4.28938 0
M  V30 16741 H 1512.99 -0.621681 0.426648 0
M  V30 16742 H 1515.64 -1.0138 1.52952 0
M  V30 16743 H 1514.02 -3.64049 1.55835 0
M  V30 16744 H 1515.19 -2.21864 4.03873 0
M  V30 16745 H 1513.51 -2.14206 3.57078 0
M  V30 16746 H 1516.11 -4.71668 2.51861 0
M  V30 16747 H 1516.45 -4.05577 0.938771 0
M  V30 16748 H 1516.98 -3.17772 2.39303 0
M  V30 16749 H 1513.72 -3.83178 5.31841 0
M  V30 16750 H 1513.24 -4.63562 3.80619 0
M  V30 16751 H 1514.92 -4.754 4.38866 0
M  V30 16752 N 1515.05 -1.1067 -1.12204 0
M  V30 16753 C 1516.33 -0.762632 -1.8012 0
M  V30 16754 C 1516.71 0.750529 -1.97308 0
M  V30 16755 O 1516.06 1.67764 -1.55137 0
M  V30 16756 C 1516.27 -1.51651 -3.14329 0
M  V30 16757 C 1517.62 -1.69061 -3.89491 0
M  V30 16758 O 1518.64 -1.48009 -3.23994 0
M  V30 16759 O 1517.5 -2.03984 -5.07004 0
M  V30 16760 H 1514.59 -0.275417 -0.779791 0
M  V30 16761 H 1517.14 -1.20966 -1.19018 0
M  V30 16762 H 1515.91 -2.54622 -2.97125 0
M  V30 16763 H 1515.53 -1.0625 -3.83141 0
M  V30 16764 N 1516.53 1.29665 -0.895815 0
M  V30 16765 C 1517.81 1.90601 -0.439394 0
M  V30 16766 C 1518.19 1.81341 1.08068 0
M  V30 16767 O 1517.54 1.23761 1.92082 0
M  V30 16768 C 1517.75 3.35832 -0.949622 0
M  V30 16769 C 1519.09 4.12873 -0.991015 0
M  V30 16770 O 1520.12 3.4472 -0.897025 0
M  V30 16771 O 1518.98 5.34656 -1.1316 0
M  V30 16772 H 1516.07 0.81569 -0.136304 0
M  V30 16773 H 1518.62 1.38157 -0.985426 0
M  V30 16774 H 1517.39 3.36708 -1.99357 0
M  V30 16775 H 1517.01 3.95747 -0.383376 0
M  V30 16776 N 1518.01 0.657889 1.43212 0
M  V30 16777 C 1519.24 0.181072 2.06106 0
M  V30 16778 C 1519.65 -1.15513 1.49339 0
M  V30 16779 O 1519.01 -1.71409 0.626517 0
M  V30 16780 C 1519.06 0.0890244 3.6139 0
M  V30 16781 O 1518.78 1.37241 4.16049 0
M  V30 16782 C 1520.28 -0.413313 4.41369 0
M  V30 16783 H 1517.5 0.0920577 0.664655 0
M  V30 16784 H 1520.05 0.899855 1.83638 0
M  V30 16785 H 1518.2 -0.580345 3.83028 0
M  V30 16786 H 1518.61 1.23467 5.09761 0
M  V30 16787 H 1520.09 -0.426663 5.50349 0
M  V30 16788 H 1520.57 -1.44549 4.14731 0
M  V30 16789 H 1521.17 0.223727 4.24711 0
M  V30 16790 N 1519.49 -1.52437 0.400108 0
M  V30 16791 C 1520.42 -2.29672 -0.421054 0
M  V30 16792 C 1521.4 -1.33506 -1.05405 0
M  V30 16793 O 1522.58 -1.62408 -1.06477 0
M  V30 16794 C 1519.71 -3.1115 -1.54281 0
M  V30 16795 C 1518.67 -4.1529 -1.0353 0
M  V30 16796 C 1517.99 -4.85058 -2.24996 0
M  V30 16797 C 1519.29 -5.22212 -0.0956529 0
M  V30 16798 H 1520.99 -2.98565 0.2234 0
M  V30 16799 H 1518.53 -1.43588 0.108883 0
M  V30 16800 H 1520.49 -3.63945 -2.12419 0
M  V30 16801 H 1519.21 -2.4001 -2.21501 0
M  V30 16802 H 1517.87 -3.63492 -0.476383 0
M  V30 16803 H 1517.52 -4.10455 -2.9075 0
M  V30 16804 H 1517.22 -5.55452 -1.91694 0
M  V30 16805 H 1518.74 -5.40661 -2.83756 0
M  V30 16806 H 1520.15 -5.70302 -0.585548 0
M  V30 16807 H 1518.55 -5.99917 0.148121 0
M  V30 16808 H 1519.62 -4.77351 0.852296 0
M  V30 16809 N 1520.96 -0.130252 -1.57061 0
M  V30 16810 C 1521.91 0.832998 -2.17173 0
M  V30 16811 C 1522.91 1.26735 -1.12403 0
M  V30 16812 O 1524.11 1.23778 -1.30686 0
M  V30 16813 H 1520.49 0.286777 -0.695171 0
M  V30 16814 H 1522.46 0.301639 -2.96872 0
M  V30 16815 C 1521.21 2.06879 -2.79457 0
M  V30 16816 H 1520.53 1.74352 -3.5978 0
M  V30 16817 H 1521.97 2.72258 -3.25041 0
M  V30 16818 C 1520.43 2.86591 -1.77108 0
M  V30 16819 O 1520.96 3.82363 -1.2313 0
M  V30 16820 N 1519.17 2.508 -1.46792 0
M  V30 16821 H 1518.71 1.72984 -1.90878 0
M  V30 16822 H 1518.67 3.04428 -0.785566 0
M  V30 16823 N 1522.44 1.56945 0.143535 0
M  V30 16824 C 1523.67 1.87701 0.870401 0
M  V30 16825 C 1524.09 0.718833 1.7458 0
M  V30 16826 O 1523.44 -0.311286 1.79826 0
M  V30 16827 C 1523.49 3.1773 1.72424 0
M  V30 16828 O 1523.22 4.29086 0.884115 0
M  V30 16829 C 1524.72 3.62024 2.55839 0
M  V30 16830 H 1521.94 0.622083 0.251504 0
M  V30 16831 H 1524.48 2.04052 0.135285 0
M  V30 16832 H 1522.64 3.03122 2.41238 0
M  V30 16833 H 1523.05 5.0346 1.47065 0
M  V30 16834 H 1524.52 4.55834 3.11319 0
M  V30 16835 H 1525 2.87481 3.32041 0
M  V30 16836 H 1525.61 3.79338 1.9231 0
M  V30 16837 N 1523.92 -0.412991 1.52093 0
M  V30 16838 C 1525.15 -1.18667 1.70096 0
M  V30 16839 C 1525.57 -1.83622 0.408012 0
M  V30 16840 O 1524.93 -1.69847 -0.634174 0
M  V30 16841 C 1524.98 -2.22837 2.83507 0
M  V30 16842 O 1524.08 -3.2889 2.48807 0
M  V30 16843 H 1523.42 -0.346581 0.566373 0
M  V30 16844 H 1525.95 -0.484642 1.98777 0
M  V30 16845 H 1525.96 -2.67229 3.08306 0
M  V30 16846 H 1524.64 -1.74942 3.77317 0
M  V30 16847 H 1523.21 -2.89804 2.34665 0
M  V30 16848 N 1525.4 -1.4265 -0.669982 0
M  V30 16849 C 1526.33 -1.42457 -1.79551 0
M  V30 16850 C 1527.34 -0.322966 -1.59564 0
M  V30 16851 O 1528.53 -0.586359 -1.68594 0
M  V30 16852 C 1525.63 -1.20561 -3.16731 0
M  V30 16853 C 1524.81 -2.43246 -3.63525 0
M  V30 16854 C 1523.87 -2.16823 -4.79452 0
M  V30 16855 O 1522.89 -2.90058 -4.8975 0
M  V30 16856 N 1524.09 -1.17436 -5.68497 0
M  V30 16857 H 1526.86 -2.39474 -1.80201 0
M  V30 16858 H 1524.42 -1.37591 -0.853244 0
M  V30 16859 H 1526.41 -1.00794 -3.91947 0
M  V30 16860 H 1524.98 -0.320497 -3.10953 0
M  V30 16861 H 1524.2 -2.78549 -2.78934 0
M  V30 16862 H 1525.49 -3.24931 -3.91532 0
M  V30 16863 H 1524.89 -0.568736 -5.62834 0
M  V30 16864 H 1523.44 -1.03655 -6.43505 0
M  V30 16865 N 1526.88 0.906753 -1.28902 0
M  V30 16866 C 1527.82 2.01004 -1.13429 0
M  V30 16867 C 1528.79 1.66074 -0.0295031 0
M  V30 16868 O 1529.98 1.89793 -0.195727 0
M  V30 16869 C 1527.12 3.35473 -0.809457 0
M  V30 16870 C 1526.23 3.83229 -1.99398 0
M  V30 16871 C 1525.37 5.06241 -1.60915 0
M  V30 16872 C 1524.41 5.46348 -2.7599 0
M  V30 16873 N 1523.54 6.60548 -2.37952 0
M  V30 16874 H 1528.38 2.13571 -2.07825 0
M  V30 16875 H 1525.92 1.046 -1.03428 0
M  V30 16876 H 1527.88 4.12836 -0.601845 0
M  V30 16877 H 1526.51 3.22652 0.0975896 0
M  V30 16878 H 1525.56 3.01962 -2.31351 0
M  V30 16879 H 1526.87 4.08908 -2.85649 0
M  V30 16880 H 1526.03 5.91168 -1.36401 0
M  V30 16881 H 1524.77 4.82385 -0.718021 0
M  V30 16882 H 1523.77 4.59959 -3.01195 0
M  V30 16883 H 1525 5.72188 -3.65757 0
M  V30 16884 H 1522.94 6.38309 -1.51318 0
M  V30 16885 H 1522.86 6.85987 -3.17738 0
M  V30 16886 H 1524.13 7.48762 -2.1674 0
M  V30 16887 N 1528.36 1.11264 1.11616 0
M  V30 16888 C 1529.3 0.769295 2.17602 0
M  V30 16889 C 1530.27 -0.258362 1.64078 0
M  V30 16890 O 1531.46 -0.135698 1.90317 0
M  V30 16891 C 1528.6 0.216647 3.44419 0
M  V30 16892 C 1527.71 1.30064 4.11955 0
M  V30 16893 C 1526.85 0.708729 5.26451 0
M  V30 16894 C 1525.88 1.7727 5.85868 0
M  V30 16895 N 1525.02 1.20042 6.91762 0
M  V30 16896 H 1529.86 1.67727 2.46316 0
M  V30 16897 H 1527.4 0.83764 1.20921 0
M  V30 16898 H 1529.36 -0.121724 4.17022 0
M  V30 16899 H 1527.99 -0.654525 3.16095 0
M  V30 16900 H 1527.04 1.756 3.37445 0
M  V30 16901 H 1528.35 2.1057 4.52174 0
M  V30 16902 H 1527.5 0.320307 6.05854 0
M  V30 16903 H 1526.24 -0.127668 4.87533 0
M  V30 16904 H 1525.25 2.17046 5.05145 0
M  V30 16905 H 1526.47 2.6121 6.26854 0
M  V30 16906 H 1524.42 0.385633 6.54866 0
M  V30 16907 H 1524.34 1.94221 7.30626 0
M  V30 16908 H 1525.6 0.838825 7.74974 0
M  V30 16909 N 1529.83 -1.29188 0.902679 0
M  V30 16910 C 1530.78 -2.27632 0.381088 0
M  V30 16911 C 1531.75 -1.57131 -0.538431 0
M  V30 16912 O 1532.94 -1.85096 -0.463027 0
M  V30 16913 C 1530.08 -3.42971 -0.382701 0
M  V30 16914 C 1529.19 -4.28249 0.568054 0
M  V30 16915 C 1528.32 -5.30772 -0.213082 0
M  V30 16916 C 1527.36 -6.07707 0.732004 0
M  V30 16917 N 1526.5 -7.02098 -0.0149139 0
M  V30 16918 H 1531.34 -2.71628 1.22566 0
M  V30 16919 H 1528.88 -1.33594 0.615724 0
M  V30 16920 H 1530.83 -4.08623 -0.841619 0
M  V30 16921 H 1529.46 -2.99997 -1.19171 0
M  V30 16922 H 1528.52 -3.62743 1.14549 0
M  V30 16923 H 1529.83 -4.81794 1.29136 0
M  V30 16924 H 1528.98 -6.02255 -0.733065 0
M  V30 16925 H 1527.72 -4.77966 -0.969504 0
M  V30 16926 H 1526.73 -5.35086 1.26346 0
M  V30 16927 H 1527.95 -6.62602 1.4878 0
M  V30 16928 H 1525.9 -6.51658 -0.753548 0
M  V30 16929 H 1525.81 -7.53214 0.648423 0
M  V30 16930 H 1527.08 -7.77796 -0.515062 0
M  V30 16931 N 1531.31 -0.665475 -1.42861 0
M  V30 16932 C 1532.26 0.030395 -2.3258 0
M  V30 16933 C 1533.25 0.800329 -1.49302 0
M  V30 16934 O 1534.46 0.709346 -1.65434 0
M  V30 16935 H 1530.83 0.0286201 -0.751455 0
M  V30 16936 H 1532.81 -0.743838 -2.8898 0
M  V30 16937 C 1531.55 0.974474 -3.33765 0
M  V30 16938 H 1530.88 0.391447 -3.97879 0
M  V30 16939 H 1532.32 1.43023 -3.99149 0
M  V30 16940 C 1530.78 2.0764 -2.65306 0
M  V30 16941 O 1531.31 3.16172 -2.47787 0
M  V30 16942 N 1529.51 1.84544 -2.24481 0
M  V30 16943 H 1529.06 0.962826 -2.3893 0
M  V30 16944 H 1529.02 2.58464 -1.79007 0
M  V30 16945 N 1532.79 1.52222 -0.408187 0
M  V30 16946 C 1533.74 2.28544 0.432458 0
M  V30 16947 C 1534.73 1.33198 1.04665 0
M  V30 16948 O 1535.94 1.50661 0.984954 0
M  V30 16949 H 1532.31 0.735162 0.158241 0
M  V30 16950 H 1534.28 2.97493 -0.232482 0
M  V30 16951 C 1533.03 3.11864 1.53741 0
M  V30 16952 H 1532.36 3.851 1.07414 0
M  V30 16953 H 1533.8 3.68374 2.09945 0
M  V30 16954 C 1532.25 2.25367 2.50423 0
M  V30 16955 O 1532.78 1.89329 3.54285 0
M  V30 16956 N 1530.99 1.89155 2.2061 0
M  V30 16957 H 1530.54 2.18661 1.36181 0
M  V30 16958 H 1530.5 1.31574 2.85544 0
M  V30 16959 N 1534.27 0.138579 1.5699 0
M  V30 16960 C 1535.52 -0.514545 1.95026 0
M  V30 16961 C 1535.83 -1.66565 1.02544 0
M  V30 16962 O 1537.04 -2.38284 1.30126 0
M  V30 16963 C 1535.49 -0.966746 3.46673 0
M  V30 16964 C 1535.1 0.156969 4.47725 0
M  V30 16965 C 1536.84 -1.59014 3.93592 0
M  V30 16966 C 1534.75 -0.313031 5.90571 0
M  V30 16967 H 1533.68 -0.195991 0.728082 0
M  V30 16968 H 1536.33 0.221575 1.82157 0
M  V30 16969 H 1534.71 -1.75788 3.54845 0
M  V30 16970 H 1535.89 0.933728 4.51241 0
M  V30 16971 H 1534.2 0.688238 4.10673 0
M  V30 16972 H 1536.8 -1.95326 4.97747 0
M  V30 16973 H 1537.14 -2.47595 3.34668 0
M  V30 16974 H 1537.68 -0.864061 3.88302 0
M  V30 16975 H 1534.41 0.5372 6.53295 0
M  V30 16976 H 1533.93 -1.05585 5.90434 0
M  V30 16977 H 1535.61 -0.767826 6.42428 0
M  V30 16978 N 1535.75 -1.57019 -0.13521 0
M  V30 16979 C 1537.16 -1.73319 -0.694067 0
M  V30 16980 C 1537.51 -0.754808 -1.811 0
M  V30 16981 O 1536.63 0.0759463 -2.16267 0
M  V30 16982 C 1537.23 -3.14266 -1.26579 0
M  V30 16983 C 1535.79 -3.32128 -1.7711 0
M  V30 16984 C 1534.93 -2.69226 -0.664263 0
M  V30 16985 H 1537.88 -1.58441 0.0905702 0
M  V30 16986 H 1537.91 -3.14919 -2.13557 0
M  V30 16987 H 1537.42 -3.85451 -0.452652 0
M  V30 16988 H 1535.52 -2.65959 -2.60953 0
M  V30 16989 H 1535.63 -4.40172 -1.8917 0
M  V30 16990 H 1534 -2.30016 -1.09384 0
M  V30 16991 H 1534.78 -3.43024 0.13763 0
M  V30 16992 N 1537.22 0.404919 -1.52309 0
M  V30 16993 C 1538.45 1.17764 -1.70723 0
M  V30 16994 C 1538.87 1.83403 -0.417744 0
M  V30 16995 O 1538.23 1.70181 0.625157 0
M  V30 16996 C 1538.28 2.2133 -2.84685 0
M  V30 16997 O 1537.38 3.27566 -2.50548 0
M  V30 16998 H 1536.73 0.343572 -0.568203 0
M  V30 16999 H 1539.26 0.474093 -1.99031 0
M  V30 17000 H 1539.27 2.6559 -3.09719 0
M  V30 17001 H 1537.94 1.72939 -3.78239 0
M  V30 17002 H 1536.52 2.88556 -2.36199 0
M  V30 17003 N 1538.7 1.43003 0.662408 0
M  V30 17004 C 1539.95 1.44133 1.42239 0
M  V30 17005 C 1540.28 0.062249 1.944 0
M  V30 17006 O 1539.53 -0.931341 1.72118 0
M  V30 17007 C 1539.83 2.4231 2.62718 0
M  V30 17008 C 1539.5 3.88403 2.29028 0
M  V30 17009 C 1538.16 4.28194 2.19552 0
M  V30 17010 C 1540.51 4.80505 2.01902 0
M  V30 17011 C 1537.84 5.58052 1.81092 0
M  V30 17012 C 1540.19 6.10718 1.64943 0
M  V30 17013 C 1538.86 6.49496 1.53985 0
M  V30 17014 H 1538.13 0.527419 0.52049 0
M  V30 17015 H 1540.77 1.76024 0.75417 0
M  V30 17016 H 1539.08 2.03789 3.3463 0
M  V30 17017 H 1540.77 2.40442 3.20918 0
M  V30 17018 H 1537.36 3.56906 2.37311 0
M  V30 17019 H 1541.55 4.50542 2.08149 0
M  V30 17020 H 1536.8 5.86945 1.71187 0
M  V30 17021 H 1540.98 6.81564 1.42982 0
M  V30 17022 H 1538.61 7.50026 1.23954 0
M  V30 17023 N 1540.18 -0.899904 1.29381 0
M  V30 17024 C 1541.41 -1.68911 1.20349 0
M  V30 17025 C 1541.83 -1.86657 -0.232523 0
M  V30 17026 O 1541.19 -1.38674 -1.16787 0
M  V30 17027 C 1541.24 -3.05124 1.92177 0
M  V30 17028 O 1540.34 -3.93358 1.23867 0
M  V30 17029 H 1539.68 -0.516698 0.417036 0
M  V30 17030 H 1542.21 -1.12422 1.70946 0
M  V30 17031 H 1542.22 -3.55267 2.00623 0
M  V30 17032 H 1540.9 -2.91525 2.96624 0
M  V30 17033 H 1539.47 -3.51793 1.23677 0
M  V30 17034 N 1541.66 -1.11854 -1.11024 0
M  V30 17035 C 1542.94 -0.781693 -1.79301 0
M  V30 17036 C 1543.32 0.72956 -1.98092 0
M  V30 17037 O 1542.66 1.66109 -1.56908 0
M  V30 17038 C 1542.87 -1.54976 -3.12703 0
M  V30 17039 C 1544.22 -1.73183 -3.87676 0
M  V30 17040 O 1545.25 -1.51437 -3.22406 0
M  V30 17041 O 1544.1 -2.0935 -5.04812 0
M  V30 17042 H 1541.2 -0.283672 -0.776826 0
M  V30 17043 H 1543.74 -1.22222 -1.17728 0
M  V30 17044 H 1542.52 -2.57759 -2.94408 0
M  V30 17045 H 1542.14 -1.10308 -3.81992 0
M  V30 17046 N 1543.14 1.28707 -0.909517 0
M  V30 17047 C 1544.09 2.25045 -0.365899 0
M  V30 17048 C 1545.07 1.5228 0.51959 0
M  V30 17049 O 1546.26 1.733 0.360004 0
M  V30 17050 C 1543.39 3.41 0.396725 0
M  V30 17051 C 1542.48 4.21092 -0.504243 0
M  V30 17052 N 1542.87 4.79293 -1.61592 0
M  V30 17053 C 1541.17 4.44964 -0.303843 0
M  V30 17054 C 1541.87 5.39516 -2.17481 0
M  V30 17055 N 1540.84 5.23442 -1.4666 0
M  V30 17056 H 1544.65 2.67611 -1.21497 0
M  V30 17057 H 1542.16 1.4343 -0.761686 0
M  V30 17058 H 1544.16 4.09094 0.80299 0
M  V30 17059 H 1542.82 2.99969 1.24294 0
M  V30 17060 H 1543.83 4.77785 -1.99856 0
M  V30 17061 H 1540.5 4.14456 0.503201 0
M  V30 17062 H 1541.89 5.95606 -3.10972 0
M  V30 17063 N 1544.61 0.673042 1.42506 0
M  V30 17064 C 1545.86 0.1918 2.00786 0
M  V30 17065 C 1546.18 -1.20814 1.53829 0
M  V30 17066 O 1547.38 -1.78566 2.04515 0
M  V30 17067 C 1545.84 0.292045 3.58713 0
M  V30 17068 C 1545.45 1.69593 4.14659 0
M  V30 17069 C 1547.19 -0.130575 4.24299 0
M  V30 17070 C 1545.1 1.74904 5.64945 0
M  V30 17071 H 1544.03 0.0679452 0.750932 0
M  V30 17072 H 1546.68 0.837968 1.63249 0
M  V30 17073 H 1545.06 -0.421985 3.93745 0
M  V30 17074 H 1546.23 2.4369 3.9109 0
M  V30 17075 H 1544.55 2.06625 3.61518 0
M  V30 17076 H 1547.15 -0.11102 5.34585 0
M  V30 17077 H 1547.49 -1.16552 3.99651 0
M  V30 17078 H 1548.02 0.532386 3.94221 0
M  V30 17079 H 1544.76 2.76374 5.94388 0
M  V30 17080 H 1544.28 1.0516 5.9051 0
M  V30 17081 H 1545.96 1.50168 6.29332 0
M  V30 17082 N 1546.09 -1.52004 0.416254 0
M  V30 17083 C 1547.04 -2.28771 -0.420331 0
M  V30 17084 C 1548.03 -1.33751 -1.03957 0
M  V30 17085 O 1549.24 -1.51181 -0.976951 0
M  V30 17086 H 1545.62 -0.735991 -0.15434 0
M  V30 17087 H 1547.59 -2.97366 0.248255 0
M  V30 17088 C 1546.34 -3.12675 -1.52085 0
M  V30 17089 H 1545.66 -3.85665 -1.0537 0
M  V30 17090 H 1547.1 -3.69482 -2.07989 0
M  V30 17091 C 1545.56 -2.26692 -2.49224 0
M  V30 17092 O 1546.09 -1.91205 -3.53276 0
M  V30 17093 N 1544.29 -1.90322 -2.19604 0
M  V30 17094 H 1543.84 -2.1938 -1.35019 0
M  V30 17095 H 1543.8 -1.33086 -2.84843 0
M  V30 17096 N 1547.57 -0.146903 -1.56914 0
M  V30 17097 C 1548.8 0.511181 -2.00486 0
M  V30 17098 C 1549.21 1.58425 -1.02699 0
M  V30 17099 O 1548.57 1.82484 -0.0239878 0
M  V30 17100 C 1548.62 1.11191 -3.43975 0
M  V30 17101 O 1548.34 0.0817094 -4.38024 0
M  V30 17102 C 1549.84 1.85061 -4.02824 0
M  V30 17103 H 1547.06 0.133078 -0.657671 0
M  V30 17104 H 1549.61 -0.241457 -2.0307 0
M  V30 17105 H 1547.76 1.81517 -3.42243 0
M  V30 17106 H 1548.18 0.52181 -5.21898 0
M  V30 17107 H 1549.65 2.22385 -5.05222 0
M  V30 17108 H 1550.13 2.73649 -3.4353 0
M  V30 17109 H 1550.73 1.19434 -4.08186 0
M  V30 17110 N 1549.05 1.57088 0.126881 0
M  V30 17111 C 1550 2.00736 1.17506 0
M  V30 17112 C 1550.99 0.902986 1.43327 0
M  V30 17113 O 1552.2 1.08819 1.43382 0
M  V30 17114 H 1548.57 0.639285 0.396003 0
M  V30 17115 H 1550.54 2.88015 0.780373 0
M  V30 17116 C 1549.29 2.42096 2.49569 0
M  V30 17117 H 1548.61 3.26639 2.30536 0
M  V30 17118 H 1550.05 2.76442 3.2149 0
M  V30 17119 C 1548.51 1.28148 3.11576 0
M  V30 17120 O 1549.04 0.593145 3.97297 0
M  V30 17121 N 1547.25 1.04055 2.71332 0
M  V30 17122 H 1546.8 1.60208 2.0172 0
M  V30 17123 H 1546.75 0.280075 3.1315 0
M  V30 17124 N 1550.53 -0.396836 1.52522 0
M  V30 17125 C 1551.46 -1.50361 1.72986 0
M  V30 17126 C 1552.47 -1.50928 0.610289 0
M  V30 17127 O 1553.66 -1.54972 0.88578 0
M  V30 17128 C 1550.76 -2.89229 1.76635 0
M  V30 17129 C 1549.93 -3.12715 3.05824 0
M  V30 17130 C 1548.99 -4.31523 3.01122 0
M  V30 17131 O 1548.02 -4.28207 3.75004 0
M  V30 17132 N 1549.22 -5.37294 2.19763 0
M  V30 17133 H 1551.99 -1.33196 2.68475 0
M  V30 17134 H 1549.55 -0.586269 1.50912 0
M  V30 17135 H 1551.54 -3.66796 1.71006 0
M  V30 17136 H 1550.11 -2.99791 0.885667 0
M  V30 17137 H 1549.33 -2.23083 3.25004 0
M  V30 17138 H 1550.62 -3.25257 3.91261 0
M  V30 17139 H 1550.01 -5.4284 1.5919 0
M  V30 17140 H 1548.57 -6.13557 2.19981 0
M  V30 17141 N 1552.01 -1.43353 -0.654814 0
M  V30 17142 C 1553.23 -1.48322 -1.4425 0
M  V30 17143 C 1553.65 -0.100608 -1.88532 0
M  V30 17144 O 1553.01 0.888831 -1.59393 0
M  V30 17145 C 1553.06 -2.42769 -2.67853 0
M  V30 17146 O 1552.78 -3.75653 -2.25424 0
M  V30 17147 C 1554.28 -2.56964 -3.61226 0
M  V30 17148 H 1551.5 -0.503805 -0.443195 0
M  V30 17149 H 1554.04 -1.88078 -0.802916 0
M  V30 17150 H 1552.2 -2.06212 -3.27956 0
M  V30 17151 H 1552.61 -4.26427 -3.05386 0
M  V30 17152 H 1554.09 -3.27129 -4.44624 0
M  V30 17153 H 1554.56 -1.61404 -4.08467 0
M  V30 17154 H 1555.17 -2.94325 -3.07006 0
M  V30 17155 N 1553.48 0.89303 -1.29857 0
M  V30 17156 C 1554.43 1.9979 -1.15554 0
M  V30 17157 C 1555.4 1.66033 -0.0471157 0
M  V30 17158 O 1556.59 1.89575 -0.215846 0
M  V30 17159 C 1553.73 3.34595 -0.844993 0
M  V30 17160 C 1552.84 3.81093 -2.03451 0
M  V30 17161 C 1551.97 5.04506 -1.66275 0
M  V30 17162 C 1551.01 5.4339 -2.8177 0
M  V30 17163 N 1550.15 6.57987 -2.44945 0
M  V30 17164 H 1554.99 2.11355 -2.10079 0
M  V30 17165 H 1552.53 1.03497 -1.04531 0
M  V30 17166 H 1554.48 4.12175 -0.645598 0
M  V30 17167 H 1553.11 3.22738 0.0633626 0
M  V30 17168 H 1552.17 2.99491 -2.34541 0
M  V30 17169 H 1553.48 4.05855 -2.8997 0
M  V30 17170 H 1552.63 5.89688 -1.42664 0
M  V30 17171 H 1551.37 4.81597 -0.769144 0
M  V30 17172 H 1550.38 4.56738 -3.06056 0
M  V30 17173 H 1551.6 5.68276 -3.71805 0
M  V30 17174 H 1549.55 6.36669 -1.58079 0
M  V30 17175 H 1549.46 6.82579 -3.24996 0
M  V30 17176 H 1550.73 7.46421 -2.24669 0
M  V30 17177 N 1554.96 1.12442 1.10429 0
M  V30 17178 C 1555.91 0.792332 2.16773 0
M  V30 17179 C 1556.88 -0.240945 1.64343 0
M  V30 17180 O 1558.06 -0.115504 1.9045 0
M  V30 17181 C 1555.2 0.253166 3.4417 0
M  V30 17182 C 1554.32 1.34426 4.10553 0
M  V30 17183 C 1553.45 0.764527 5.2567 0
M  V30 17184 C 1552.49 1.83474 5.83955 0
M  V30 17185 N 1551.63 1.27372 6.9045 0
M  V30 17186 H 1556.47 1.7033 2.44524 0
M  V30 17187 H 1554 0.850418 1.20026 0
M  V30 17188 H 1555.96 -0.0774862 4.17128 0
M  V30 17189 H 1554.59 -0.620962 3.16771 0
M  V30 17190 H 1553.64 1.79169 3.35563 0
M  V30 17191 H 1554.96 2.15354 4.49916 0
M  V30 17192 H 1554.11 0.384548 6.0548 0
M  V30 17193 H 1552.85 -0.0759512 4.87641 0
M  V30 17194 H 1551.85 2.22391 5.02814 0
M  V30 17195 H 1553.08 2.67844 6.24048 0
M  V30 17196 H 1551.03 0.455069 6.5442 0
M  V30 17197 H 1550.94 2.01959 7.28525 0
M  V30 17198 H 1552.21 0.920975 7.7404 0
M  V30 17199 N 1556.44 -1.28223 0.91633 0
M  V30 17200 C 1557.39 -2.29188 0.396916 0
M  V30 17201 C 1558.38 -1.61453 -0.512763 0
M  V30 17202 O 1559.59 -1.75641 -0.393723 0
M  V30 17203 H 1555.96 -0.743947 0.109761 0
M  V30 17204 H 1557.93 -2.70423 1.2615 0
M  V30 17205 C 1556.68 -3.4598 -0.345452 0
M  V30 17206 H 1556.01 -3.98306 0.345326 0
M  V30 17207 H 1557.45 -4.18617 -0.67349 0
M  V30 17208 C 1555.9 -2.98904 -1.55429 0
M  V30 17209 O 1556.43 -3.01598 -2.65333 0
M  V30 17210 N 1554.64 -2.54534 -1.40217 0
M  V30 17211 H 1554.19 -2.52541 -0.508029 0
M  V30 17212 H 1554.15 -2.23397 -2.21227 0
M  V30 17213 N 1557.92 -0.68059 -1.42147 0
M  V30 17214 C 1559.16 -0.205567 -2.01755 0
M  V30 17215 C 1559.5 1.18677 -1.53718 0
M  V30 17216 O 1558.77 1.79796 -0.741867 0
M  V30 17217 C 1559.05 -0.246615 -3.59255 0
M  V30 17218 C 1558.91 -1.67483 -4.17456 0
M  V30 17219 C 1560.23 0.40196 -4.38261 0
M  V30 17220 H 1557.35 -0.0761717 -0.733053 0
M  V30 17221 H 1559.99 -0.866473 -1.69092 0
M  V30 17222 H 1558.14 0.316127 -3.87212 0
M  V30 17223 H 1559.81 -2.29026 -4.00431 0
M  V30 17224 H 1558.05 -2.2137 -3.73065 0
M  V30 17225 H 1558.72 -1.65519 -5.266 0
M  V30 17226 H 1561.2 -0.077135 -4.16028 0
M  V30 17227 H 1560.08 0.342627 -5.4783 0
M  V30 17228 H 1560.34 1.48044 -4.16576 0
M  V30 17229 N 1559.4 1.51781 -0.424309 0
M  V30 17230 C 1560.33 2.23945 0.438604 0
M  V30 17231 C 1561.31 1.25363 1.03552 0
M  V30 17232 O 1562.49 1.5446 1.08048 0
M  V30 17233 C 1559.62 2.9798 1.61014 0
M  V30 17234 C 1558.66 4.11116 1.13516 0
M  V30 17235 S 1559.5 5.35428 0.0878448 0
M  V30 17236 C 1560.65 6.12997 1.26435 0
M  V30 17237 H 1560.89 2.9679 -0.174103 0
M  V30 17238 H 1558.42 1.52983 -0.208718 0
M  V30 17239 H 1560.38 3.41237 2.28183 0
M  V30 17240 H 1559.04 2.2475 2.19423 0
M  V30 17241 H 1558.23 4.62147 2.01086 0
M  V30 17242 H 1557.83 3.70053 0.5419 0
M  V30 17243 H 1560.12 6.41293 2.18517 0
M  V30 17244 H 1561.07 7.03631 0.794265 0
M  V30 17245 H 1561.48 5.44288 1.49702 0
M  V30 17246 N 1560.87 0.155222 1.56834 0
M  V30 17247 C 1561.82 -0.798342 2.1847 0
M  V30 17248 C 1562.82 -1.24931 1.14405 0
M  V30 17249 O 1564.02 -1.21684 1.32639 0
M  V30 17250 H 1560.4 -0.275681 0.699646 0
M  V30 17251 H 1562.37 -0.254371 2.97314 0
M  V30 17252 C 1561.12 -2.02407 2.82713 0
M  V30 17253 H 1560.44 -1.68606 3.62508 0
M  V30 17254 H 1561.88 -2.67053 3.29331 0
M  V30 17255 C 1560.34 -2.83737 1.81645 0
M  V30 17256 O 1560.87 -3.80356 1.29198 0
M  V30 17257 N 1559.07 -2.48433 1.50764 0
M  V30 17258 H 1558.62 -1.69925 1.93606 0
M  V30 17259 H 1558.58 -3.03139 0.833899 0
M  V30 17260 N 1562.35 -1.57153 -0.118549 0
M  V30 17261 C 1563.3 -2.01357 -1.1644 0
M  V30 17262 C 1564.29 -0.910574 -1.42846 0
M  V30 17263 O 1565.5 -1.09578 -1.42803 0
M  V30 17264 H 1561.87 -0.641376 -0.392607 0
M  V30 17265 H 1563.85 -2.88425 -0.765087 0
M  V30 17266 C 1562.59 -2.43416 -2.48282 0
M  V30 17267 H 1561.92 -3.27857 -2.288 0
M  V30 17268 H 1563.36 -2.78143 -3.20019 0
M  V30 17269 C 1561.82 -1.29799 -3.10892 0
M  V30 17270 O 1562.35 -0.614207 -3.96977 0
M  V30 17271 N 1560.55 -1.05493 -2.70776 0
M  V30 17272 H 1560.1 -1.61276 -2.00868 0
M  V30 17273 H 1560.06 -0.296678 -3.12997 0
M  V30 17274 N 1563.83 0.388742 -1.5273 0
M  V30 17275 C 1564.76 1.48133 -1.80496 0
M  V30 17276 C 1565.74 1.56899 -0.657008 0
M  V30 17277 O 1566.93 1.71844 -0.904621 0
M  V30 17278 C 1564.06 2.85742 -1.97405 0
M  V30 17279 C 1563.01 2.91815 -3.13094 0
M  V30 17280 C 1562.34 4.31876 -3.15258 0
M  V30 17281 C 1563.64 2.61438 -4.52159 0
M  V30 17282 H 1565.33 1.25147 -2.7199 0
M  V30 17283 H 1562.88 0.600603 -1.30877 0
M  V30 17284 H 1564.83 3.62182 -2.15412 0
M  V30 17285 H 1563.55 3.10065 -1.02601 0
M  V30 17286 H 1562.21 2.17824 -2.9487 0
M  V30 17287 H 1561.86 4.53239 -2.18135 0
M  V30 17288 H 1561.56 4.3686 -3.92972 0
M  V30 17289 H 1563.08 5.10221 -3.3542 0
M  V30 17290 H 1564.5 3.27596 -4.70483 0
M  V30 17291 H 1562.89 2.77771 -5.31943 0
M  V30 17292 H 1563.96 1.56778 -4.58856 0
M  V30 17293 N 1565.31 1.43698 0.647203 0
M  V30 17294 C 1566.26 1.49599 1.78109 0
M  V30 17295 C 1567.25 0.369047 1.65331 0
M  V30 17296 O 1568.46 0.543303 1.71605 0
M  V30 17297 H 1564.83 0.46911 0.587741 0
M  V30 17298 H 1566.8 2.45064 1.70253 0
M  V30 17299 C 1565.55 1.44192 3.16392 0
M  V30 17300 H 1564.87 2.30216 3.26865 0
M  V30 17301 H 1566.31 1.52382 3.95671 0
M  V30 17302 C 1564.77 0.16036 3.36518 0
M  V30 17303 O 1565.3 -0.77593 3.94135 0
M  V30 17304 N 1563.51 0.0686236 2.90519 0
M  V30 17305 H 1563.06 0.831363 2.43816 0
M  V30 17306 H 1563.01 -0.78814 3.04361 0
M  V30 17307 N 1566.79 -0.886131 1.30328 0
M  V30 17308 C 1567.73 -2.01312 1.16516 0
M  V30 17309 C 1568.73 -1.69223 0.0773431 0
M  V30 17310 O 1569.93 -1.78418 0.238111 0
M  V30 17311 H 1566.31 -0.66006 0.360312 0
M  V30 17312 H 1568.28 -2.10097 2.11901 0
M  V30 17313 C 1567.03 -3.36573 0.872592 0
M  V30 17314 H 1566.35 -3.61775 1.70172 0
M  V30 17315 H 1567.79 -4.16073 0.816049 0
M  V30 17316 C 1566.25 -3.34215 -0.424465 0
M  V30 17317 O 1566.78 -3.74758 -1.44634 0
M  V30 17318 N 1564.99 -2.87323 -0.435207 0
M  V30 17319 H 1564.53 -2.54525 0.396851 0
M  V30 17320 H 1564.49 -2.86128 -1.303 0
M  V30 17321 N 1568.26 -1.13026 -1.09832 0
M  V30 17322 C 1569.21 -0.799174 -2.1844 0
M  V30 17323 C 1570.21 0.216695 -1.68008 0
M  V30 17324 O 1571.41 0.0742662 -1.79847 0
M  V30 17325 H 1567.79 -0.24064 -0.712458 0
M  V30 17326 H 1569.76 -1.72342 -2.436 0
M  V30 17327 C 1568.51 -0.276925 -3.46595 0
M  V30 17328 H 1567.83 -1.04993 -3.85768 0
M  V30 17329 H 1569.27 -0.0836468 -4.23917 0
M  V30 17330 C 1567.73 0.996479 -3.21826 0
M  V30 17331 O 1568.26 2.0731 -3.44072 0
M  V30 17332 N 1566.47 0.925903 -2.75455 0
M  V30 17333 H 1566.01 0.0496383 -2.57552 0
M  V30 17334 H 1565.97 1.77853 -2.5926 0
M  V30 17335 N 1569.74 1.27735 -0.923117 0
M  V30 17336 C 1570.69 2.28975 -0.409065 0
M  V30 17337 C 1571.68 1.61723 0.504194 0
M  V30 17338 O 1572.89 1.75848 0.384402 0
M  V30 17339 H 1569.27 0.743354 -0.113705 0
M  V30 17340 H 1571.24 2.69751 -1.27582 0
M  V30 17341 C 1569.99 3.46158 0.327099 0
M  V30 17342 H 1569.31 3.98117 -0.366444 0
M  V30 17343 H 1570.75 4.18968 0.65128 0
M  V30 17344 C 1569.21 2.99724 1.53842 0
M  V30 17345 O 1569.74 3.03001 2.6373 0
M  V30 17346 N 1567.94 2.55274 1.38865 0
M  V30 17347 H 1567.49 2.52807 0.494629 0
M  V30 17348 H 1567.45 2.24567 2.20039 0
M  V30 17349 N 1571.22 0.688118 1.41784 0
M  V30 17350 C 1572.45 0.22475 2.05676 0
M  V30 17351 C 1572.86 -1.1232 1.51755 0
M  V30 17352 O 1572.22 -1.70041 0.662735 0
M  V30 17353 C 1572.27 0.165661 3.6112 0
M  V30 17354 O 1571.99 1.46035 4.13044 0
M  V30 17355 C 1573.49 -0.319599 4.42146 0
M  V30 17356 H 1570.71 0.106135 0.662553 0
M  V30 17357 H 1573.26 0.938605 1.81688 0
M  V30 17358 H 1571.41 -0.498968 3.84173 0
M  V30 17359 H 1571.83 1.34252 5.07027 0
M  V30 17360 H 1573.3 -0.30983 5.5113 0
M  V30 17361 H 1573.78 -1.3572 4.17704 0
M  V30 17362 H 1574.38 0.313764 4.24141 0
M  V30 17363 N 1572.7 -1.51554 0.432352 0
M  V30 17364 C 1573.63 -2.25369 -0.417328 0
M  V30 17365 C 1574.64 -1.29197 -0.990551 0
M  V30 17366 O 1575.83 -1.54985 -0.885539 0
M  V30 17367 C 1572.93 -2.99006 -1.59526 0
M  V30 17368 C 1572.11 -4.22234 -1.1418 0
M  V30 17369 C 1571.16 -4.78495 -2.18928 0
M  V30 17370 O 1570.19 -5.40465 -1.78566 0
M  V30 17371 N 1571.39 -4.62091 -3.51358 0
M  V30 17372 H 1574.16 -2.98926 0.215294 0
M  V30 17373 H 1571.72 -1.59783 0.26097 0
M  V30 17374 H 1573.71 -3.33532 -2.29212 0
M  V30 17375 H 1572.28 -2.28491 -2.13332 0
M  V30 17376 H 1571.5 -3.93259 -0.272182 0
M  V30 17377 H 1572.79 -5.02212 -0.816145 0
M  V30 17378 H 1572.19 -4.12718 -3.86885 0
M  V30 17379 H 1570.74 -5.00992 -4.16953 0
M  V30 17380 N 1574.18 -0.163538 -1.56749 0
M  V30 17381 C 1575.11 0.808257 -2.13407 0
M  V30 17382 C 1576.09 1.23124 -1.06204 0
M  V30 17383 O 1577.27 1.3244 -1.34134 0
M  V30 17384 C 1574.4 2.08743 -2.66728 0
M  V30 17385 C 1573.44 1.80909 -3.86231 0
M  V30 17386 S 1574.28 0.985273 -5.26358 0
M  V30 17387 C 1575.43 2.27528 -5.8308 0
M  V30 17388 H 1575.67 0.326505 -2.95502 0
M  V30 17389 H 1573.2 0.0510128 -1.54316 0
M  V30 17390 H 1575.16 2.8222 -2.98097 0
M  V30 17391 H 1573.82 2.54032 -1.84733 0
M  V30 17392 H 1573.01 2.75802 -4.21841 0
M  V30 17393 H 1572.61 1.15532 -3.55708 0
M  V30 17394 H 1574.91 3.23053 -5.95519 0
M  V30 17395 H 1575.85 1.96399 -6.80318 0
M  V30 17396 H 1576.26 2.38933 -5.1144 0
M  V30 17397 N 1575.65 1.57214 0.110213 0
M  V30 17398 C 1576.6 2.01971 1.1537 0
M  V30 17399 C 1577.6 0.918137 1.42361 0
M  V30 17400 O 1578.8 1.10334 1.4222 0
M  V30 17401 H 1575.18 0.64345 0.3892 0
M  V30 17402 H 1577.15 2.88827 0.749781 0
M  V30 17403 C 1575.9 2.4473 2.46987 0
M  V30 17404 H 1575.22 3.29066 2.27059 0
M  V30 17405 H 1576.66 2.79836 3.1854 0
M  V30 17406 C 1575.12 1.31445 3.10199 0
M  V30 17407 O 1575.65 0.635251 3.96645 0
M  V30 17408 N 1573.86 1.06927 2.70213 0
M  V30 17409 H 1573.4 1.62339 2.0001 0
M  V30 17410 H 1573.36 0.313273 3.12835 0
M  V30 17411 N 1577.13 -0.380637 1.52934 0
M  V30 17412 C 1578.38 -1.1265 1.68635 0
M  V30 17413 C 1578.71 -1.89397 0.429227 0
M  V30 17414 O 1577.99 -1.85863 -0.573182 0
M  V30 17415 C 1578.27 -2.09797 2.92673 0
M  V30 17416 C 1578.12 -1.36758 4.28506 0
M  V30 17417 C 1579.44 -3.10117 3.12274 0
M  V30 17418 H 1576.56 -0.408158 0.613658 0
M  V30 17419 H 1579.2 -0.408947 1.85547 0
M  V30 17420 H 1577.35 -2.70987 2.78385 0
M  V30 17421 H 1579.02 -0.784679 4.54577 0
M  V30 17422 H 1577.27 -0.669413 4.28604 0
M  V30 17423 H 1577.94 -2.07786 5.11399 0
M  V30 17424 H 1580.41 -2.59022 3.25648 0
M  V30 17425 H 1579.29 -3.75328 4.00525 0
M  V30 17426 H 1579.55 -3.79451 2.26868 0
M  V30 17427 N 1578.61 -1.44039 -0.639573 0
M  V30 17428 C 1579.84 -1.49844 -1.42669 0
M  V30 17429 C 1580.25 -0.120599 -1.88414 0
M  V30 17430 O 1579.61 0.871875 -1.60327 0
M  V30 17431 C 1579.66 -2.45597 -2.65263 0
M  V30 17432 O 1579.38 -3.78023 -2.21427 0
M  V30 17433 C 1580.88 -2.60781 -3.5848 0
M  V30 17434 H 1578.1 -0.508477 -0.437826 0
M  V30 17435 H 1580.65 -1.88919 -0.782923 0
M  V30 17436 H 1578.8 -2.09679 -3.2575 0
M  V30 17437 H 1579.22 -4.29642 -3.00846 0
M  V30 17438 H 1580.69 -3.31826 -4.4113 0
M  V30 17439 H 1581.17 -1.65727 -4.06732 0
M  V30 17440 H 1581.77 -2.97565 -3.03867 0
M  V30 17441 N 1580.09 0.879207 -1.30796 0
M  V30 17442 C 1581.04 2.00692 -1.17582 0
M  V30 17443 C 1582.03 1.6918 -0.0863163 0
M  V30 17444 O 1583.24 1.78289 -0.24757 0
M  V30 17445 H 1579.61 0.65814 -0.363808 0
M  V30 17446 H 1581.58 2.0897 -2.13012 0
M  V30 17447 C 1580.33 3.36105 -0.890429 0
M  V30 17448 H 1579.65 3.60868 -1.72088 0
M  V30 17449 H 1581.09 4.15634 -0.838103 0
M  V30 17450 C 1579.55 3.34436 0.406734 0
M  V30 17451 O 1580.08 3.7552 1.42645 0
M  V30 17452 N 1578.29 2.87549 0.419963 0
M  V30 17453 H 1577.84 2.54311 -0.410343 0
M  V30 17454 H 1577.79 2.86815 1.28781 0
M  V30 17455 N 1581.57 1.13606 1.09231 0
M  V30 17456 C 1582.52 0.810747 2.18013 0
M  V30 17457 C 1583.51 -0.207782 1.68121 0
M  V30 17458 O 1584.72 -0.0647274 1.79884 0
M  V30 17459 H 1581.09 0.244415 0.711172 0
M  V30 17460 H 1583.06 1.73632 2.42682 0
M  V30 17461 C 1581.81 0.295302 3.46444 0
M  V30 17462 H 1581.13 1.07037 3.85205 0
M  V30 17463 H 1582.57 0.106127 4.23867 0
M  V30 17464 C 1581.03 -0.979398 3.2235 0
M  V30 17465 O 1581.56 -2.05483 3.45166 0
M  V30 17466 N 1579.77 -0.911282 2.75942 0
M  V30 17467 H 1579.32 -0.035979 2.57575 0
M  V30 17468 H 1579.27 -1.76476 2.60199 0
M  V30 17469 N 1583.05 -1.27244 0.929878 0
M  V30 17470 C 1584.29 -1.93559 0.567267 0
M  V30 17471 C 1584.61 -1.73864 -0.896138 0
M  V30 17472 O 1585.81 -2.34538 -1.36763 0
M  V30 17473 C 1584.27 -3.46756 0.963743 0
M  V30 17474 C 1583.88 -3.75204 2.44798 0
M  V30 17475 C 1585.62 -4.19139 0.672487 0
M  V30 17476 C 1583.53 -5.21787 2.78375 0
M  V30 17477 H 1582.46 -0.724617 0.208437 0
M  V30 17478 H 1585.11 -1.44502 1.13099 0
M  V30 17479 H 1583.49 -3.94634 0.328654 0
M  V30 17480 H 1584.67 -3.38075 3.13116 0
M  V30 17481 H 1582.98 -3.16029 2.71136 0
M  V30 17482 H 1585.58 -5.27074 0.899816 0
M  V30 17483 H 1585.92 -4.14466 -0.390378 0
M  V30 17484 H 1586.45 -3.77091 1.26678 0
M  V30 17485 H 1583.19 -5.31552 3.83579 0
M  V30 17486 H 1582.71 -5.60054 2.14708 0
M  V30 17487 H 1584.39 -5.89685 2.66234 0
M  V30 17488 N 1584.52 -0.695628 -1.41417 0
M  V30 17489 C 1585.45 -0.0447013 -2.33457 0
M  V30 17490 C 1586.43 0.767104 -1.51821 0
M  V30 17491 O 1587.62 0.720066 -1.80357 0
M  V30 17492 C 1584.75 0.892353 -3.3564 0
M  V30 17493 C 1583.7 0.187638 -4.27588 0
M  V30 17494 C 1583.03 1.23906 -5.20146 0
M  V30 17495 C 1584.33 -0.946093 -5.1366 0
M  V30 17496 H 1586.02 -0.81343 -2.88138 0
M  V30 17497 H 1583.57 -0.392614 -1.38544 0
M  V30 17498 H 1585.52 1.35696 -3.98954 0
M  V30 17499 H 1584.25 1.69275 -2.79309 0
M  V30 17500 H 1582.91 -0.256942 -3.65698 0
M  V30 17501 H 1582.55 2.03198 -4.6013 0
M  V30 17502 H 1582.25 0.772536 -5.82499 0
M  V30 17503 H 1583.78 1.70417 -5.86336 0
M  V30 17504 H 1585.19 -0.561764 -5.70541 0
M  V30 17505 H 1583.59 -1.33971 -5.84954 0
M  V30 17506 H 1584.66 -1.78573 -4.50821 0
M  V30 17507 N 1586 1.51322 -0.440383 0
M  V30 17508 C 1587.25 2.0306 0.117497 0
M  V30 17509 C 1587.6 1.31849 1.4012 0
M  V30 17510 O 1586.9 0.4256 1.86813 0
M  V30 17511 C 1587.09 3.55287 0.388079 0
M  V30 17512 C 1586.92 4.41247 -0.867845 0
M  V30 17513 C 1585.69 4.85453 -1.40226 0
M  V30 17514 C 1587.89 4.83436 -1.75483 0
M  V30 17515 N 1585.87 5.55636 -2.61041 0
M  V30 17516 C 1587.24 5.52716 -2.80901 0
M  V30 17517 C 1589.29 4.65419 -1.76888 0
M  V30 17518 C 1588 6.05889 -3.87674 0
M  V30 17519 C 1590.02 5.19511 -2.82598 0
M  V30 17520 C 1589.39 5.8874 -3.86736 0
M  V30 17521 H 1585.48 0.781991 0.00375238 0
M  V30 17522 H 1588.07 1.85168 -0.601734 0
M  V30 17523 H 1586.24 3.73188 1.07635 0
M  V30 17524 H 1587.97 3.93689 0.937586 0
M  V30 17525 H 1584.73 4.63856 -0.955753 0
M  V30 17526 H 1585.15 5.95352 -3.22312 0
M  V30 17527 H 1589.79 4.11355 -0.977064 0
M  V30 17528 H 1587.51 6.59007 -4.67692 0
M  V30 17529 H 1591.1 5.07421 -2.84631 0
M  V30 17530 H 1589.98 6.29845 -4.67189 0
M  V30 17531 N 1587.48 0.171848 1.5666 0
M  V30 17532 C 1588.43 -0.775125 2.19305 0
M  V30 17533 C 1589.42 -1.23711 1.15724 0
M  V30 17534 O 1590.63 -1.2027 1.33922 0
M  V30 17535 H 1587 -0.268245 0.70253 0
M  V30 17536 H 1588.97 -0.222823 2.97567 0
M  V30 17537 C 1587.72 -1.99397 2.84844 0
M  V30 17538 H 1587.05 -1.64752 3.64276 0
M  V30 17539 H 1588.49 -2.63545 3.32145 0
M  V30 17540 C 1586.94 -2.81794 1.84645 0
M  V30 17541 O 1587.47 -3.78964 1.33225 0
M  V30 17542 N 1585.68 -2.4682 1.5339 0
M  V30 17543 H 1585.23 -1.67862 1.95397 0
M  V30 17544 H 1585.19 -3.02238 0.866004 0
M  V30 17545 N 1588.96 -1.5727 -0.101874 0
M  V30 17546 C 1589.91 -2.0258 -1.14297 0
M  V30 17547 C 1590.9 -0.925674 -1.41872 0
M  V30 17548 O 1592.11 -1.11086 -1.41633 0
M  V30 17549 H 1588.48 -0.645504 -0.385782 0
M  V30 17550 H 1590.45 -2.8922 -0.734453 0
M  V30 17551 C 1589.2 -2.46036 -2.45686 0
M  V30 17552 H 1588.52 -3.30266 -2.2531 0
M  V30 17553 H 1589.96 -2.81522 -3.17051 0
M  V30 17554 C 1588.42 -1.33089 -3.09498 0
M  V30 17555 O 1588.95 -0.656277 -3.96303 0
M  V30 17556 N 1587.16 -1.08359 -2.69642 0
M  V30 17557 H 1586.71 -1.63397 -1.99146 0
M  V30 17558 H 1586.66 -0.329859 -3.12665 0
M  V30 17559 N 1590.44 0.372521 -1.53134 0
M  V30 17560 C 1591.66 1.14116 -1.73183 0
M  V30 17561 C 1592.09 1.82475 -0.456553 0
M  V30 17562 O 1591.44 1.71468 0.588919 0
M  V30 17563 C 1591.49 2.15241 -2.89316 0
M  V30 17564 O 1590.6 3.22178 -2.57439 0
M  V30 17565 H 1589.94 0.331442 -0.575362 0
M  V30 17566 H 1592.47 0.431769 -1.99992 0
M  V30 17567 H 1592.48 2.58961 -3.15283 0
M  V30 17568 H 1591.15 1.64877 -3.81822 0
M  V30 17569 H 1589.73 2.83481 -2.42267 0
M  V30 17570 N 1591.91 1.44376 0.631925 0
M  V30 17571 C 1593.14 1.5038 1.41667 0
M  V30 17572 C 1593.55 0.12709 1.88773 0
M  V30 17573 O 1592.89 -0.877119 1.61407 0
M  V30 17574 C 1592.96 2.40602 2.67116 0
M  V30 17575 C 1592.62 3.87784 2.41812 0
M  V30 17576 C 1593.62 4.78337 2.0369 0
M  V30 17577 C 1591.3 4.32478 2.55476 0
M  V30 17578 C 1593.3 6.11586 1.7956 0
M  V30 17579 C 1590.98 5.65774 2.30961 0
M  V30 17580 C 1591.98 6.55146 1.93061 0
M  V30 17581 O 1591.67 7.85974 1.68818 0
M  V30 17582 H 1591.4 0.5124 0.440933 0
M  V30 17583 H 1593.96 1.9001 0.780096 0
M  V30 17584 H 1592.19 1.95898 3.33408 0
M  V30 17585 H 1593.87 2.37564 3.29117 0
M  V30 17586 H 1594.64 4.45079 1.92691 0
M  V30 17587 H 1590.52 3.63174 2.83946 0
M  V30 17588 H 1594.06 6.81304 1.49903 0
M  V30 17589 H 1589.96 5.98594 2.4157 0
M  V30 17590 H 1590.73 7.97764 1.8307 0
M  V30 17591 N 1593.39 -0.872258 1.31261 0
M  V30 17592 C 1594.34 -2.00065 1.18645 0
M  V30 17593 C 1595.33 -1.69132 0.0952872 0
M  V30 17594 O 1596.54 -1.78156 0.257022 0
M  V30 17595 H 1592.91 -0.656201 0.367293 0
M  V30 17596 H 1594.89 -2.07837 2.14117 0
M  V30 17597 C 1593.63 -3.35628 0.908241 0
M  V30 17598 H 1592.96 -3.5995 1.74 0
M  V30 17599 H 1594.4 -4.15184 0.860134 0
M  V30 17600 C 1592.86 -3.34647 -0.388993 0
M  V30 17601 O 1593.39 -3.76271 -1.40651 0
M  V30 17602 N 1591.59 -2.87768 -0.404708 0
M  V30 17603 H 1591.14 -2.5409 0.423824 0
M  V30 17604 H 1591.1 -2.87494 -1.27258 0
M  V30 17605 N 1594.87 -1.14184 -1.08627 0
M  V30 17606 C 1596.12 -0.919966 -1.81406 0
M  V30 17607 C 1596.47 0.547709 -1.84439 0
M  V30 17608 O 1595.76 1.40044 -1.30761 0
M  V30 17609 C 1595.96 -1.4519 -3.2658 0
M  V30 17610 C 1595.79 -2.96977 -3.37691 0
M  V30 17611 C 1594.56 -3.65402 -3.49012 0
M  V30 17612 C 1596.75 -3.94858 -3.29532 0
M  V30 17613 N 1594.74 -5.05122 -3.48891 0
M  V30 17614 C 1596.11 -5.20818 -3.36376 0
M  V30 17615 C 1598.16 -3.87009 -3.13254 0
M  V30 17616 C 1596.87 -6.39846 -3.28618 0
M  V30 17617 C 1598.89 -5.05581 -3.06825 0
M  V30 17618 C 1598.25 -6.30408 -3.14269 0
M  V30 17619 H 1594.35 -0.390144 -0.677725 0
M  V30 17620 H 1596.94 -1.45155 -1.29761 0
M  V30 17621 H 1595.11 -0.947121 -3.76675 0
M  V30 17622 H 1596.84 -1.17018 -3.87413 0
M  V30 17623 H 1593.59 -3.15948 -3.52809 0
M  V30 17624 H 1594.02 -5.78056 -3.52392 0
M  V30 17625 H 1598.66 -2.91379 -3.06363 0
M  V30 17626 H 1596.38 -7.35723 -3.34271 0
M  V30 17627 H 1599.96 -5.01256 -2.95354 0
M  V30 17628 H 1598.84 -7.20618 -3.09321 0
M  V30 17629 N 1596.35 1.26749 -0.936613 0
M  V30 17630 C 1597.76 1.75925 -0.62507 0
M  V30 17631 C 1598.11 1.76359 0.859771 0
M  V30 17632 O 1597.24 1.37277 1.67284 0
M  V30 17633 C 1597.83 3.19474 -1.12791 0
M  V30 17634 C 1596.39 3.66282 -0.866872 0
M  V30 17635 C 1595.54 2.45913 -1.28148 0
M  V30 17636 H 1598.49 1.1289 -1.11542 0
M  V30 17637 H 1598.51 3.77465 -0.479643 0
M  V30 17638 H 1598.02 3.19126 -2.20862 0
M  V30 17639 H 1596.12 3.72065 0.199647 0
M  V30 17640 H 1596.23 4.55319 -1.49067 0
M  V30 17641 H 1594.6 2.44894 -0.699941 0
M  V30 17642 H 1595.38 2.4827 -2.37101 0
M  V30 17643 N 1597.83 0.703118 1.41046 0
M  V30 17644 C 1599.07 0.237638 2.01403 0
M  V30 17645 C 1599.41 -1.16217 1.55587 0
M  V30 17646 O 1598.68 -1.78593 0.770377 0
M  V30 17647 C 1598.96 0.303738 3.58817 0
M  V30 17648 C 1598.82 1.74103 4.14739 0
M  V30 17649 C 1600.14 -0.332186 4.38845 0
M  V30 17650 H 1597.25 0.0878243 0.731749 0
M  V30 17651 H 1599.9 0.893264 1.67693 0
M  V30 17652 H 1598.05 -0.254485 3.87666 0
M  V30 17653 H 1599.72 2.35368 3.96736 0
M  V30 17654 H 1597.96 2.27277 3.69496 0
M  V30 17655 H 1598.63 1.73876 5.239 0
M  V30 17656 H 1601.11 0.143312 4.15853 0
M  V30 17657 H 1599.98 -0.255429 5.48305 0
M  V30 17658 H 1600.25 -1.41397 4.18878 0
M  V30 17659 N 1599.3 -1.51086 0.448402 0
M  V30 17660 C 1600.55 -2.01367 -0.115904 0
M  V30 17661 C 1600.87 -1.33658 -1.42811 0
M  V30 17662 O 1602.07 -1.74968 -2.07602 0
M  V30 17663 C 1600.53 -3.58981 -0.257092 0
M  V30 17664 C 1600.14 -4.35634 1.04534 0
M  V30 17665 C 1601.88 -4.17373 -0.774573 0
M  V30 17666 C 1599.79 -5.84978 0.869184 0
M  V30 17667 H 1598.72 -0.752528 -0.0470907 0
M  V30 17668 H 1601.37 -1.74098 0.57985 0
M  V30 17669 H 1599.75 -3.82742 -1.01611 0
M  V30 17670 H 1600.92 -4.23612 1.81354 0
M  V30 17671 H 1599.24 -3.88745 1.49219 0
M  V30 17672 H 1601.84 -5.26673 -0.923032 0
M  V30 17673 H 1602.18 -3.77267 -1.75997 0
M  V30 17674 H 1602.71 -3.97732 -0.0735697 0
M  V30 17675 H 1599.45 -6.29516 1.82729 0
M  V30 17676 H 1598.97 -5.99634 0.140969 0
M  V30 17677 H 1600.65 -6.44852 0.526752 0
M  V30 17678 N 1600.78 -0.180154 -1.56567 0
M  V30 17679 C 1601.73 0.763484 -2.19713 0
M  V30 17680 C 1602.72 1.23095 -1.16378 0
M  V30 17681 O 1603.93 1.19558 -1.34558 0
M  V30 17682 H 1600.31 0.264515 -0.703943 0
M  V30 17683 H 1602.28 0.207039 -2.97681 0
M  V30 17684 C 1601.03 1.97884 -2.85897 0
M  V30 17685 H 1600.35 1.62818 -3.65144 0
M  V30 17686 H 1601.79 2.61779 -3.33538 0
M  V30 17687 C 1600.25 2.80811 -1.86136 0
M  V30 17688 O 1600.78 3.78253 -1.35232 0
M  V30 17689 N 1598.98 2.46003 -1.54697 0
M  V30 17690 H 1598.53 1.66823 -1.96285 0
M  V30 17691 H 1598.49 3.01774 -0.88202 0
M  V30 17692 N 1602.26 1.57322 0.0935319 0
M  V30 17693 C 1603.49 1.90099 0.80907 0
M  V30 17694 C 1603.9 0.772198 1.72724 0
M  V30 17695 O 1603.24 -0.26468 1.81783 0
M  V30 17696 C 1603.3 3.18144 1.67405 0
M  V30 17697 C 1602.97 4.47488 0.927539 0
M  V30 17698 C 1603.96 5.19266 0.256635 0
M  V30 17699 C 1601.65 4.9415 0.901156 0
M  V30 17700 C 1603.64 6.35943 -0.430665 0
M  V30 17701 C 1601.33 6.10739 0.21007 0
M  V30 17702 C 1602.33 6.81485 -0.454661 0
M  V30 17703 O 1602.02 7.95852 -1.13466 0
M  V30 17704 H 1601.75 0.633287 0.236481 0
M  V30 17705 H 1604.3 2.05264 0.0747132 0
M  V30 17706 H 1602.53 2.99129 2.45068 0
M  V30 17707 H 1604.22 3.3674 2.2663 0
M  V30 17708 H 1604.99 4.84256 0.268468 0
M  V30 17709 H 1600.87 4.38972 1.408 0
M  V30 17710 H 1604.41 6.911 -0.950082 0
M  V30 17711 H 1600.31 6.45202 0.196089 0
M  V30 17712 H 1601.08 8.11844 -1.04172 0
M  V30 17713 N 1603.74 -0.364395 1.53329 0
M  V30 17714 C 1604.65 -1.47027 1.82812 0
M  V30 17715 C 1605.66 -1.58559 0.716598 0
M  V30 17716 O 1606.84 -1.7443 1.00678 0
M  V30 17717 C 1603.91 -2.82278 2.01295 0
M  V30 17718 C 1602.97 -2.80264 3.25193 0
M  V30 17719 C 1602.2 -4.09065 3.42785 0
M  V30 17720 O 1602.42 -5.0529 2.64648 0
M  V30 17721 O 1601.36 -4.14804 4.36144 0
M  V30 17722 H 1605.18 -1.25035 2.76767 0
M  V30 17723 H 1602.77 -0.554608 1.38724 0
M  V30 17724 H 1604.65 -3.62416 2.15017 0
M  V30 17725 H 1603.32 -3.04244 1.10531 0
M  V30 17726 H 1602.23 -1.9882 3.16893 0
M  V30 17727 H 1603.56 -2.63252 4.15884 0
M  V30 17728 N 1605.22 -1.44709 -0.62426 0
M  V30 17729 C 1606.15 -1.48097 -1.74928 0
M  V30 17730 C 1607.16 -0.373567 -1.58456 0
M  V30 17731 O 1608.35 -0.639699 -1.66644 0
M  V30 17732 C 1605.45 -1.30576 -3.12735 0
M  V30 17733 C 1604.62 -2.54688 -3.55602 0
M  V30 17734 C 1603.68 -2.31966 -4.72311 0
M  V30 17735 O 1602.71 -3.05492 -4.80274 0
M  V30 17736 N 1603.91 -1.35463 -5.64473 0
M  V30 17737 H 1606.68 -2.45086 -1.72491 0
M  V30 17738 H 1604.24 -1.40236 -0.809039 0
M  V30 17739 H 1606.23 -1.13212 -3.88542 0
M  V30 17740 H 1604.8 -0.419262 -3.09776 0
M  V30 17741 H 1604.02 -2.87282 -2.69931 0
M  V30 17742 H 1605.31 -3.37223 -3.80996 0
M  V30 17743 H 1604.7 -0.747509 -5.60739 0
M  V30 17744 H 1603.26 -1.24075 -6.39882 0
M  V30 17745 N 1606.69 0.865285 -1.31722 0
M  V30 17746 C 1607.92 1.65137 -1.24649 0
M  V30 17747 C 1608.34 1.87868 0.187391 0
M  V30 17748 O 1607.69 1.44015 1.12098 0
M  V30 17749 C 1607.75 3.0167 -1.99193 0
M  V30 17750 O 1607.47 2.79951 -3.36985 0
M  V30 17751 C 1608.97 3.96115 -1.99017 0
M  V30 17752 H 1606.19 0.514683 -0.430514 0
M  V30 17753 H 1608.73 1.07971 -1.73674 0
M  V30 17754 H 1606.89 3.55511 -1.53918 0
M  V30 17755 H 1607.3 3.66706 -3.75002 0
M  V30 17756 H 1608.77 4.89217 -2.55677 0
M  V30 17757 H 1609.25 4.28268 -0.973815 0
M  V30 17758 H 1609.86 3.4821 -2.44192 0
M  V30 17759 N 1608.17 1.14759 1.0802 0
M  V30 17760 C 1609.12 0.833824 2.17141 0
M  V30 17761 C 1610.11 -0.189939 1.68332 0
M  V30 17762 O 1611.32 -0.0456447 1.79942 0
M  V30 17763 H 1607.7 0.251944 0.70854 0
M  V30 17764 H 1609.67 1.76196 2.40827 0
M  V30 17765 C 1608.42 0.33203 3.46111 0
M  V30 17766 H 1607.74 1.11117 3.84048 0
M  V30 17767 H 1609.18 0.151078 4.23731 0
M  V30 17768 C 1607.64 -0.945153 3.2337 0
M  V30 17769 O 1608.17 -2.0181 3.47326 0
M  V30 17770 N 1606.37 -0.881963 2.76893 0
M  V30 17771 H 1605.92 -0.00865768 2.57599 0
M  V30 17772 H 1605.88 -1.73706 2.62056 0
M  V30 17773 N 1609.65 -1.26251 0.943322 0
M  V30 17774 C 1610.88 -1.97452 0.607969 0
M  V30 17775 C 1611.29 -1.70422 -0.82177 0
M  V30 17776 O 1610.63 -0.970323 -1.55982 0
M  V30 17777 C 1610.69 -3.51092 0.772938 0
M  V30 17778 C 1610.36 -4.01777 2.17771 0
M  V30 17779 C 1611.35 -4.1335 3.15338 0
M  V30 17780 C 1609.04 -4.35732 2.49886 0
M  V30 17781 C 1611.03 -4.58175 4.43119 0
M  V30 17782 C 1608.72 -4.80245 3.779 0
M  V30 17783 C 1609.72 -4.91427 4.74329 0
M  V30 17784 O 1609.41 -5.34958 6.00063 0
M  V30 17785 H 1609.14 -0.636465 0.227791 0
M  V30 17786 H 1611.69 -1.61671 1.26695 0
M  V30 17787 H 1609.92 -3.86658 0.0568252 0
M  V30 17788 H 1611.61 -4.03505 0.440326 0
M  V30 17789 H 1612.38 -3.87361 2.91851 0
M  V30 17790 H 1608.26 -4.26261 1.75563 0
M  V30 17791 H 1611.8 -4.66818 5.18389 0
M  V30 17792 H 1607.7 -5.05678 4.01198 0
M  V30 17793 H 1608.47 -5.53173 6.03276 0
M  V30 17794 N 1611.13 -0.710588 -1.40671 0
M  V30 17795 C 1612.08 -0.0548139 -2.30735 0
M  V30 17796 C 1613.05 0.755572 -1.4792 0
M  V30 17797 O 1614.23 0.720541 -1.76672 0
M  V30 17798 C 1611.37 0.864648 -3.34093 0
M  V30 17799 C 1610.48 0.0442717 -4.31977 0
M  V30 17800 C 1609.62 0.962752 -5.22403 0
M  V30 17801 C 1608.66 0.13617 -6.11949 0
M  V30 17802 N 1607.8 1.00926 -6.94808 0
M  V30 17803 H 1612.64 -0.828555 -2.8625 0
M  V30 17804 H 1610.17 -0.420286 -1.40968 0
M  V30 17805 H 1612.13 1.41193 -3.92582 0
M  V30 17806 H 1610.76 1.60462 -2.80092 0
M  V30 17807 H 1609.81 -0.620132 -3.75311 0
M  V30 17808 H 1611.12 -0.595895 -4.95228 0
M  V30 17809 H 1610.28 1.57874 -5.85799 0
M  V30 17810 H 1609.02 1.63675 -4.59415 0
M  V30 17811 H 1608.02 -0.492793 -5.47587 0
M  V30 17812 H 1609.25 -0.534251 -6.76995 0
M  V30 17813 H 1607.19 1.669 -6.34413 0
M  V30 17814 H 1607.11 0.425013 -7.54804 0
M  V30 17815 H 1608.38 1.61159 -7.62659 0
M  V30 17816 N 1612.61 1.50847 -0.456408 0
M  V30 17817 C 1613.86 2.01425 0.105223 0
M  V30 17818 C 1614.17 1.34413 1.421 0
M  V30 17819 O 1615.38 1.76066 2.06671 0
M  V30 17820 C 1613.83 3.59112 0.238051 0
M  V30 17821 C 1613.44 4.35073 -1.06842 0
M  V30 17822 C 1615.18 4.17778 0.752428 0
M  V30 17823 C 1613.09 5.84509 -0.900194 0
M  V30 17824 H 1612.02 0.752767 0.0430992 0
M  V30 17825 H 1614.67 1.73788 -0.589075 0
M  V30 17826 H 1613.05 3.83275 0.995795 0
M  V30 17827 H 1614.23 4.22645 -1.83598 0
M  V30 17828 H 1612.54 3.87948 -1.51278 0
M  V30 17829 H 1615.14 5.27155 0.895088 0
M  V30 17830 H 1615.48 3.78195 1.73994 0
M  V30 17831 H 1616.02 3.97765 0.052476 0
M  V30 17832 H 1612.75 6.28538 -1.86064 0
M  V30 17833 H 1612.27 5.99551 -0.172767 0
M  V30 17834 H 1613.95 6.44564 -0.560943 0
M  V30 17835 N 1614.09 0.188454 1.56469 0
M  V30 17836 C 1615.03 -0.735074 2.18781 0
M  V30 17837 C 1616 -1.21459 1.133 0
M  V30 17838 O 1617.19 -1.27967 1.41524 0
M  V30 17839 C 1614.33 -1.95181 2.84602 0
M  V30 17840 C 1613.44 -1.51428 4.0459 0
M  V30 17841 C 1612.58 -2.68601 4.58287 0
M  V30 17842 C 1611.61 -2.21422 5.70648 0
M  V30 17843 N 1610.75 -3.31749 6.18779 0
M  V30 17844 H 1615.59 -0.19694 2.97349 0
M  V30 17845 H 1613.13 -0.0854693 1.46851 0
M  V30 17846 H 1615.09 -2.66571 3.2093 0
M  V30 17847 H 1613.72 -2.46337 2.0861 0
M  V30 17848 H 1612.77 -0.6965 3.73969 0
M  V30 17849 H 1614.08 -1.1281 4.85876 0
M  V30 17850 H 1613.23 -3.48123 4.96885 0
M  V30 17851 H 1611.97 -3.1049 3.76095 0
M  V30 17852 H 1610.98 -1.40352 5.31584 0
M  V30 17853 H 1612.2 -1.80572 6.54653 0
M  V30 17854 H 1610.15 -3.73181 5.39511 0
M  V30 17855 H 1610.07 -2.97277 6.95099 0
M  V30 17856 H 1611.33 -4.11504 6.62031 0
M  V30 17857 N 1615.56 -1.5737 -0.0851874 0
M  V30 17858 C 1616.79 -1.90802 -0.800137 0
M  V30 17859 C 1617.21 -0.783132 -1.71792 0
M  V30 17860 O 1616.56 0.244331 -1.80857 0
M  V30 17861 C 1616.61 -3.2391 -1.60513 0
M  V30 17862 O 1616.34 -4.32072 -0.724253 0
M  V30 17863 C 1617.84 -3.7127 -2.42226 0
M  V30 17864 H 1615.06 -0.630988 -0.228242 0
M  V30 17865 H 1617.6 -2.04414 -0.0594587 0
M  V30 17866 H 1615.76 -3.11867 -2.29822 0
M  V30 17867 H 1616.17 -5.08571 -1.28279 0
M  V30 17868 H 1617.64 -4.67074 -2.94187 0
M  V30 17869 H 1618.12 -2.99606 -3.21143 0
M  V30 17870 H 1618.73 -3.86214 -1.78099 0
M  V30 17871 N 1617.04 0.356258 -1.53521 0
M  V30 17872 C 1618.45 0.932569 -1.61741 0
M  V30 17873 C 1618.8 1.89965 -0.490677 0
M  V30 17874 O 1617.93 2.1301 0.381514 0
M  V30 17875 C 1618.52 1.69818 -2.93168 0
M  V30 17876 C 1617.08 2.22369 -3.03692 0
M  V30 17877 C 1616.23 1.03891 -2.57103 0
M  V30 17878 H 1619.18 0.134769 -1.58127 0
M  V30 17879 H 1619.2 2.56011 -2.81494 0
M  V30 17880 H 1618.71 0.994065 -3.75153 0
M  V30 17881 H 1616.81 2.95994 -2.26314 0
M  V30 17882 H 1616.93 2.49611 -4.08939 0
M  V30 17883 H 1615.29 1.40862 -2.12202 0
M  V30 17884 H 1616.07 0.349637 -3.41515 0
M  V30 17885 N 1618.52 1.45038 0.616577 0
M  V30 17886 C 1619.75 1.52094 1.40267 0
M  V30 17887 C 1620.16 0.150558 1.88199 0
M  V30 17888 O 1619.52 -0.846258 1.61693 0
M  V30 17889 C 1619.57 2.49786 2.61322 0
M  V30 17890 O 1619.29 3.81498 2.15385 0
M  V30 17891 C 1620.79 2.66451 3.54286 0
M  V30 17892 H 1618.01 0.515378 0.429681 0
M  V30 17893 H 1620.56 1.90141 0.752768 0
M  V30 17894 H 1618.71 2.14835 3.22373 0
M  V30 17895 H 1619.13 4.34374 2.93972 0
M  V30 17896 H 1620.6 3.38802 4.35795 0
M  V30 17897 H 1621.08 1.72177 4.04044 0
M  V30 17898 H 1621.68 3.02362 2.99095 0
M  V30 17899 N 1620 -0.858287 1.32179 0
M  V30 17900 C 1620.91 -1.99894 1.228 0
M  V30 17901 C 1621.92 -1.73417 0.142323 0
M  V30 17902 O 1623.1 -1.98114 0.362321 0
M  V30 17903 C 1620.16 -3.33495 0.947745 0
M  V30 17904 C 1619.23 -3.73217 2.12149 0
M  V30 17905 C 1618.46 -5.00443 1.85452 0
M  V30 17906 O 1618.68 -5.64828 0.79531 0
M  V30 17907 O 1617.62 -5.3721 2.71457 0
M  V30 17908 H 1621.44 -2.10742 2.18682 0
M  V30 17909 H 1619.03 -0.988385 1.12033 0
M  V30 17910 H 1620.91 -4.13585 0.807791 0
M  V30 17911 H 1619.58 -3.23694 0.019053 0
M  V30 17912 H 1618.49 -2.93718 2.3169 0
M  V30 17913 H 1619.82 -3.87659 3.03285 0
M  V30 17914 N 1621.48 -1.1533 -1.07409 0
M  V30 17915 C 1622.41 -0.872476 -2.16587 0
M  V30 17916 C 1623.39 0.176683 -1.6918 0
M  V30 17917 O 1624.57 0.0311826 -1.94175 0
M  V30 17918 C 1621.7 -0.360342 -3.45426 0
M  V30 17919 C 1620.66 -1.34611 -4.06281 0
M  V30 17920 C 1619.98 -0.692848 -5.30192 0
M  V30 17921 C 1621.28 -2.71191 -4.46378 0
M  V30 17922 H 1622.98 -1.78546 -2.40336 0
M  V30 17923 H 1620.52 -0.859895 -1.15507 0
M  V30 17924 H 1622.47 -0.151429 -4.21128 0
M  V30 17925 H 1621.2 0.588109 -3.21261 0
M  V30 17926 H 1619.86 -1.54137 -3.32622 0
M  V30 17927 H 1619.51 0.261732 -5.02319 0
M  V30 17928 H 1619.21 -1.35071 -5.71865 0
M  V30 17929 H 1620.73 -0.493695 -6.08601 0
M  V30 17930 H 1622.14 -2.55513 -5.13212 0
M  V30 17931 H 1620.54 -3.33345 -4.99 0
M  V30 17932 H 1621.61 -3.273 -3.57775 0
M  V30 17933 N 1622.95 1.25748 -0.950004 0
M  V30 17934 C 1623.9 2.28056 -0.457542 0
M  V30 17935 C 1624.9 1.62756 0.469776 0
M  V30 17936 O 1626.1 1.76623 0.347016 0
M  V30 17937 H 1622.48 0.740775 -0.129447 0
M  V30 17938 H 1624.45 2.66984 -1.33275 0
M  V30 17939 C 1623.2 3.46774 0.2536 0
M  V30 17940 H 1622.52 3.9725 -0.450808 0
M  V30 17941 H 1623.96 4.20255 0.562264 0
M  V30 17942 C 1622.42 3.02919 1.4745 0
M  V30 17943 O 1622.95 3.08527 2.57243 0
M  V30 17944 N 1621.15 2.58162 1.33419 0
M  V30 17945 H 1620.7 2.53799 0.440894 0
M  V30 17946 H 1620.66 2.29184 2.15226 0
M  V30 17947 N 1624.43 0.718038 1.40292 0
M  V30 17948 C 1625.34 0.0681535 2.34501 0
M  V30 17949 C 1626.36 -0.741048 1.57431 0
M  V30 17950 O 1627.53 -0.673437 1.89807 0
M  V30 17951 C 1624.6 -0.840758 3.36351 0
M  V30 17952 C 1623.66 -0.0212287 4.29295 0
M  V30 17953 C 1622.89 -0.886852 5.2628 0
M  V30 17954 O 1623.12 -2.12603 5.29298 0
M  V30 17955 O 1622.05 -0.324537 6.01024 0
M  V30 17956 H 1625.88 0.845288 2.91699 0
M  V30 17957 H 1623.46 0.478541 1.41529 0
M  V30 17958 H 1625.34 -1.36131 3.98806 0
M  V30 17959 H 1624.02 -1.597 2.81563 0
M  V30 17960 H 1622.92 0.544451 3.70117 0
M  V30 17961 H 1624.26 0.696846 4.87242 0
M  V30 17962 N 1625.91 -1.50602 0.464402 0
M  V30 17963 C 1626.86 -2.28382 -0.333234 0
M  V30 17964 C 1627.83 -1.3314 -0.993125 0
M  V30 17965 O 1629.01 -1.62072 -1.00685 0
M  V30 17966 C 1626.15 -3.14841 -1.41313 0
M  V30 17967 C 1625.27 -4.25106 -0.768684 0
M  V30 17968 C 1624.4 -4.98833 -1.82591 0
M  V30 17969 C 1623.44 -6.00982 -1.16135 0
M  V30 17970 N 1622.58 -6.68012 -2.16112 0
M  V30 17971 H 1627.42 -2.96096 0.336354 0
M  V30 17972 H 1624.95 -1.46022 0.17772 0
M  V30 17973 H 1626.91 -3.63314 -2.05082 0
M  V30 17974 H 1625.54 -2.49186 -2.05197 0
M  V30 17975 H 1624.59 -3.80395 -0.0185964 0
M  V30 17976 H 1625.91 -4.98204 -0.243759 0
M  V30 17977 H 1625.06 -5.50991 -2.53957 0
M  V30 17978 H 1623.8 -4.25426 -2.38462 0
M  V30 17979 H 1622.8 -5.4809 -0.43328 0
M  V30 17980 H 1624.03 -6.76358 -0.609612 0
M  V30 17981 H 1621.97 -5.97401 -2.71013 0
M  V30 17982 H 1621.89 -7.36963 -1.68586 0
M  V30 17983 H 1623.16 -7.2479 -2.86879 0
M  V30 17984 N 1627.39 -0.19675 -1.56367 0
M  V30 17985 C 1628.32 0.75534 -2.16396 0
M  V30 17986 C 1629.33 1.17558 -1.12623 0
M  V30 17987 O 1630.52 1.11102 -1.39709 0
M  V30 17988 C 1627.62 2.03159 -2.71256 0
M  V30 17989 C 1626.8 1.77088 -3.99948 0
M  V30 17990 C 1625.85 2.89176 -4.39618 0
M  V30 17991 O 1624.88 2.58712 -5.07007 0
M  V30 17992 N 1626.08 4.17569 -4.03257 0
M  V30 17993 H 1628.85 0.241991 -2.98721 0
M  V30 17994 H 1626.41 -0.0148423 -1.61893 0
M  V30 17995 H 1628.4 2.77287 -2.94778 0
M  V30 17996 H 1626.97 2.45611 -1.93375 0
M  V30 17997 H 1626.19 0.867309 -3.84541 0
M  V30 17998 H 1627.48 1.5707 -4.83949 0
M  V30 17999 H 1626.88 4.45171 -3.49054 0
M  V30 18000 H 1625.43 4.88319 -4.31726 0
M  V30 18001 N 1628.87 1.57413 0.0768405 0
M  V30 18002 C 1630.14 1.78056 0.809663 0
M  V30 18003 C 1630.52 0.783053 1.9604 0
M  V30 18004 O 1629.87 -0.184836 2.27751 0
M  V30 18005 C 1630.08 3.24391 1.2873 0
M  V30 18006 C 1631.43 3.88082 1.72272 0
M  V30 18007 O 1632.45 3.28251 1.38309 0
M  V30 18008 O 1631.31 4.93329 2.35135 0
M  V30 18009 H 1628.41 0.730553 0.387584 0
M  V30 18010 H 1630.95 1.69603 0.057307 0
M  V30 18011 H 1629.72 3.88543 0.463678 0
M  V30 18012 H 1629.35 3.37548 2.10112 0
M  V30 18013 N 1630.34 -0.348112 1.53707 0
M  V30 18014 C 1631.31 -1.41018 1.80683 0
M  V30 18015 C 1632.31 -1.4582 0.67774 0
M  V30 18016 O 1633.5 -1.46275 0.94601 0
M  V30 18017 C 1630.63 -2.79988 1.94473 0
M  V30 18018 H 1631.82 -1.18365 2.75554 0
M  V30 18019 H 1629.38 -0.582244 1.4505 0
M  V30 18020 H 1630.11 -3.07931 1.0173 0
M  V30 18021 H 1629.9 -2.77899 2.76612 0
M  V30 18022 H 1631.39 -3.56868 2.16876 0
M  V30 18023 N 1631.82 -1.45363 -0.608876 0
M  V30 18024 C 1633.05 -1.52614 -1.39257 0
M  V30 18025 C 1633.46 -0.157106 -1.88547 0
M  V30 18026 O 1632.8 0.851329 -1.62782 0
M  V30 18027 C 1632.87 -2.44821 -2.63255 0
M  V30 18028 C 1632.53 -3.91582 -2.35612 0
M  V30 18029 C 1633.53 -4.81517 -1.96054 0
M  V30 18030 C 1631.21 -4.36488 -2.48564 0
M  V30 18031 C 1633.21 -6.14365 -1.69808 0
M  V30 18032 C 1630.89 -5.69377 -2.21931 0
M  V30 18033 C 1631.89 -6.58135 -1.82614 0
M  V30 18034 O 1631.58 -7.88561 -1.56292 0
M  V30 18035 H 1631.31 -0.51935 -0.432726 0
M  V30 18036 H 1633.86 -1.91227 -0.749768 0
M  V30 18037 H 1632.09 -2.01177 -3.30249 0
M  V30 18038 H 1633.78 -2.4277 -3.25296 0
M  V30 18039 H 1634.55 -4.48088 -1.85585 0
M  V30 18040 H 1630.43 -3.67646 -2.78133 0
M  V30 18041 H 1633.97 -6.83602 -1.39045 0
M  V30 18042 H 1629.87 -6.02361 -2.32016 0
M  V30 18043 H 1630.64 -8.00576 -1.70355 0
M  V30 18044 N 1633.3 0.851265 -1.32632 0
M  V30 18045 C 1634.23 1.97562 -1.24465 0
M  V30 18046 C 1635.21 1.69619 -0.127777 0
M  V30 18047 O 1636.4 1.9162 -0.315509 0
M  V30 18048 C 1633.53 3.33467 -0.970423 0
M  V30 18049 C 1632.48 3.75772 -2.0489 0
M  V30 18050 C 1631.81 5.09345 -1.62702 0
M  V30 18051 C 1633.11 3.90876 -3.4643 0
M  V30 18052 H 1634.8 2.04653 -2.18535 0
M  V30 18053 H 1632.35 0.983252 -1.05205 0
M  V30 18054 H 1634.3 4.11681 -0.899825 0
M  V30 18055 H 1633.02 3.26599 0.00591373 0
M  V30 18056 H 1631.68 2.99812 -2.1097 0
M  V30 18057 H 1631.33 4.98937 -0.638039 0
M  V30 18058 H 1631.03 5.38621 -2.34864 0
M  V30 18059 H 1632.55 5.90048 -1.57085 0
M  V30 18060 H 1633.97 4.59434 -3.42919 0
M  V30 18061 H 1632.37 4.31574 -4.1697 0
M  V30 18062 H 1633.44 2.93689 -3.85843 0
M  V30 18063 N 1634.78 1.15898 1.06796 0
M  V30 18064 C 1635.73 0.860895 2.14143 0
M  V30 18065 C 1636.7 -0.188539 1.65026 0
M  V30 18066 O 1637.88 -0.0548558 1.90721 0
M  V30 18067 C 1635.02 0.362533 3.4319 0
M  V30 18068 C 1634.13 1.4742 4.06068 0
M  V30 18069 C 1633.27 0.931377 5.22971 0
M  V30 18070 C 1632.31 2.0196 5.77822 0
M  V30 18071 N 1631.44 1.49274 6.86048 0
M  V30 18072 H 1636.28 1.78023 2.38981 0
M  V30 18073 H 1633.82 0.888173 1.1726 0
M  V30 18074 H 1635.78 0.0552592 4.17163 0
M  V30 18075 H 1634.41 -0.519869 3.18586 0
M  V30 18076 H 1633.46 1.89754 3.29693 0
M  V30 18077 H 1634.77 2.29559 4.42836 0
M  V30 18078 H 1633.93 0.576982 6.0395 0
M  V30 18079 H 1632.67 0.0792265 4.87636 0
M  V30 18080 H 1631.67 2.38275 4.95485 0
M  V30 18081 H 1632.9 2.87562 6.15211 0
M  V30 18082 H 1630.84 0.663037 6.52641 0
M  V30 18083 H 1630.76 2.25035 7.21731 0
M  V30 18084 H 1632.03 1.16676 7.70718 0
M  V30 18085 N 1636.26 -1.25243 0.956659 0
M  V30 18086 C 1637.53 -1.88287 0.529832 0
M  V30 18087 C 1637.91 -1.8629 -0.992929 0
M  V30 18088 O 1637.26 -1.32785 -1.85958 0
M  V30 18089 C 1637.47 -3.30919 1.10877 0
M  V30 18090 C 1638.82 -4.07674 1.18687 0
M  V30 18091 O 1639.84 -3.40048 1.06047 0
M  V30 18092 O 1638.7 -5.28648 1.38541 0
M  V30 18093 H 1635.8 -0.808258 0.175066 0
M  V30 18094 H 1638.34 -1.33298 1.05022 0
M  V30 18095 H 1637.11 -3.26813 2.15195 0
M  V30 18096 H 1636.74 -3.93468 0.571755 0
M  V30 18097 N 1637.73 -0.725468 -1.3991 0
M  V30 18098 C 1638.68 -0.0792833 -2.30664 0
M  V30 18099 C 1639.65 0.73984 -1.48713 0
M  V30 18100 O 1640.84 0.701762 -1.77426 0
M  V30 18101 C 1637.98 0.829164 -3.34991 0
M  V30 18102 C 1637.09 -0.00154779 -4.32 0
M  V30 18103 C 1636.22 0.907291 -5.23394 0
M  V30 18104 C 1635.26 0.0712573 -6.12059 0
M  V30 18105 N 1634.4 0.935508 -6.9584 0
M  V30 18106 H 1639.24 -0.858869 -2.85355 0
M  V30 18107 H 1636.78 -0.435214 -1.40514 0
M  V30 18108 H 1638.74 1.37021 -3.94057 0
M  V30 18109 H 1637.37 1.57483 -2.81778 0
M  V30 18110 H 1636.42 -0.659903 -3.74632 0
M  V30 18111 H 1637.73 -0.648387 -4.94568 0
M  V30 18112 H 1636.88 1.51652 -5.87441 0
M  V30 18113 H 1635.62 1.58793 -4.61125 0
M  V30 18114 H 1634.63 -0.550844 -5.47034 0
M  V30 18115 H 1635.85 -0.606025 -6.76391 0
M  V30 18116 H 1633.8 1.60162 -6.36148 0
M  V30 18117 H 1633.72 0.344932 -7.55213 0
M  V30 18118 H 1634.98 1.53061 -7.64325 0
M  V30 18119 N 1639.21 1.50354 -0.472382 0
M  V30 18120 C 1640.16 2.30173 0.335135 0
M  V30 18121 C 1641.15 1.37517 0.98921 0
M  V30 18122 O 1642.36 1.54703 0.920168 0
M  V30 18123 H 1638.74 0.741212 0.126918 0
M  V30 18124 H 1640.71 2.96239 -0.358449 0
M  V30 18125 C 1639.46 3.18104 1.40375 0
M  V30 18126 H 1638.78 3.8931 0.90984 0
M  V30 18127 H 1640.22 3.76947 1.94132 0
M  V30 18128 C 1638.68 2.35785 2.40639 0
M  V30 18129 O 1639.21 2.04185 3.45936 0
M  V30 18130 N 1637.41 1.98342 2.12389 0
M  V30 18131 H 1636.96 2.2424 1.26784 0
M  V30 18132 H 1636.92 1.43567 2.79707 0
M  V30 18133 N 1640.69 0.205039 1.56261 0
M  V30 18134 C 1641.64 -0.728433 2.209 0
M  V30 18135 C 1642.63 -1.21228 1.18322 0
M  V30 18136 O 1643.84 -1.17402 1.36443 0
M  V30 18137 H 1640.21 -0.253283 0.708062 0
M  V30 18138 H 1642.19 -0.159654 2.97973 0
M  V30 18139 C 1640.93 -1.93311 2.89009 0
M  V30 18140 H 1640.26 -1.56988 3.67688 0
M  V30 18141 H 1641.7 -2.5644 3.3766 0
M  V30 18142 C 1640.16 -2.77814 1.9058 0
M  V30 18143 O 1640.69 -3.76053 1.41233 0
M  V30 18144 N 1638.89 -2.4351 1.58591 0
M  V30 18145 H 1638.44 -1.6368 1.98914 0
M  V30 18146 H 1638.4 -3.00333 0.929918 0
M  V30 18147 N 1642.17 -1.57451 -0.0684915 0
M  V30 18148 C 1643.58 -1.76107 -0.619932 0
M  V30 18149 C 1643.93 -0.830939 -1.77735 0
M  V30 18150 O 1643.06 -0.0158481 -2.16394 0
M  V30 18151 C 1643.65 -3.19352 -1.13136 0
M  V30 18152 C 1642.21 -3.39341 -1.62864 0
M  V30 18153 C 1641.36 -2.71801 -0.549477 0
M  V30 18154 H 1644.31 -1.57915 0.157689 0
M  V30 18155 H 1644.33 -3.23693 -2.00008 0
M  V30 18156 H 1643.84 -3.87024 -0.288762 0
M  V30 18157 H 1641.94 -2.76787 -2.49438 0
M  V30 18158 H 1642.06 -4.47799 -1.70331 0
M  V30 18159 H 1640.42 -2.34448 -0.995302 0
M  V30 18160 H 1641.2 -3.42132 0.282995 0
M  V30 18161 N 1643.65 0.339955 -1.5389 0
M  V30 18162 C 1644.9 1.07723 -1.70524 0
M  V30 18163 C 1645.21 1.89693 -0.477058 0
M  V30 18164 O 1646.42 2.66387 -0.524424 0
M  V30 18165 C 1644.87 1.96455 -3.01551 0
M  V30 18166 C 1644.48 1.19675 -4.3172 0
M  V30 18167 C 1646.22 2.70019 -3.27552 0
M  V30 18168 C 1644.13 2.07458 -5.53819 0
M  V30 18169 H 1643.06 0.405877 -0.635437 0
M  V30 18170 H 1645.71 0.336489 -1.80388 0
M  V30 18171 H 1644.09 2.74364 -2.85553 0
M  V30 18172 H 1645.27 0.466526 -4.58432 0
M  V30 18173 H 1643.58 0.578651 -4.1236 0
M  V30 18174 H 1646.18 3.35973 -4.15964 0
M  V30 18175 H 1646.52 3.36779 -2.44716 0
M  V30 18176 H 1647.06 1.99182 -3.44342 0
M  V30 18177 H 1643.79 1.45234 -6.39208 0
M  V30 18178 H 1643.31 2.7826 -5.31349 0
M  V30 18179 H 1644.99 2.66428 -5.89598 0
M  V30 18180 N 1645.13 1.45684 0.601159 0
M  V30 18181 C 1646.36 1.53351 1.38445 0
M  V30 18182 C 1646.76 0.167103 1.88461 0
M  V30 18183 O 1646.11 -0.842684 1.63231 0
M  V30 18184 C 1646.17 2.46214 2.61952 0
M  V30 18185 C 1645.83 3.92826 2.33532 0
M  V30 18186 C 1646.83 4.8255 1.93498 0
M  V30 18187 C 1644.51 4.378 2.46245 0
M  V30 18188 C 1646.51 6.15257 1.66547 0
M  V30 18189 C 1644.2 5.70546 2.18908 0
M  V30 18190 C 1645.19 6.59094 1.79121 0
M  V30 18191 O 1644.88 7.89378 1.52108 0
M  V30 18192 H 1644.61 0.521638 0.429965 0
M  V30 18193 H 1647.17 1.91622 0.739617 0
M  V30 18194 H 1645.4 2.02926 3.29178 0
M  V30 18195 H 1647.09 2.44492 3.24004 0
M  V30 18196 H 1647.85 4.49066 1.83207 0
M  V30 18197 H 1643.73 3.69115 2.76179 0
M  V30 18198 H 1647.28 6.8433 1.35418 0
M  V30 18199 H 1643.17 6.03583 2.28818 0
M  V30 18200 H 1643.94 8.01468 1.66107 0
M  V30 18201 N 1646.6 -0.84422 1.33082 0
M  V30 18202 C 1647.55 -1.97504 1.22862 0
M  V30 18203 C 1648.55 -1.68892 0.131141 0
M  V30 18204 O 1649.75 -1.7757 0.294753 0
M  V30 18205 H 1646.13 -0.648263 0.381129 0
M  V30 18206 H 1648.1 -2.03249 2.18478 0
M  V30 18207 C 1646.85 -3.33626 0.979228 0
M  V30 18208 H 1646.17 -3.56178 1.81596 0
M  V30 18209 H 1647.61 -4.13266 0.948007 0
M  V30 18210 C 1646.07 -3.35397 -0.317922 0
M  V30 18211 O 1646.6 -3.7917 -1.32638 0
M  V30 18212 N 1644.8 -2.88562 -0.343577 0
M  V30 18213 H 1644.35 -2.53133 0.477625 0
M  V30 18214 H 1644.31 -2.90129 -1.21131 0
M  V30 18215 N 1648.08 -1.16463 -1.0618 0
M  V30 18216 C 1649.33 -0.948248 -1.79265 0
M  V30 18217 C 1649.66 0.522578 -1.87037 0
M  V30 18218 O 1648.94 1.38772 -1.36282 0
M  V30 18219 C 1649.22 -1.57781 -3.23693 0
M  V30 18220 C 1649.07 -3.12005 -3.23995 0
M  V30 18221 C 1650.39 -1.27343 -4.21274 0
M  V30 18222 H 1647.51 -0.345907 -0.650782 0
M  V30 18223 H 1650.15 -1.4381 -1.24172 0
M  V30 18224 H 1648.3 -1.16126 -3.70738 0
M  V30 18225 H 1649.97 -3.62649 -2.85102 0
M  V30 18226 H 1648.22 -3.45276 -2.62615 0
M  V30 18227 H 1648.89 -3.51176 -4.25886 0
M  V30 18228 H 1651.36 -1.63396 -3.82676 0
M  V30 18229 H 1650.24 -1.73993 -5.20594 0
M  V30 18230 H 1650.5 -0.192469 -4.41681 0
M  V30 18231 N 1649.56 1.24734 -0.963288 0
M  V30 18232 C 1650.51 2.2329 -0.461019 0
M  V30 18233 C 1651.49 1.54346 0.454536 0
M  V30 18234 O 1652.69 1.74671 0.286177 0
M  V30 18235 C 1649.81 3.42376 0.251738 0
M  V30 18236 C 1648.9 4.18574 -0.682388 0
M  V30 18237 N 1649.29 4.72008 -1.81775 0
M  V30 18238 C 1647.59 4.43275 -0.492294 0
M  V30 18239 C 1648.29 5.29806 -2.40168 0
M  V30 18240 N 1647.27 5.16751 -1.68729 0
M  V30 18241 H 1651.07 2.62217 -1.32738 0
M  V30 18242 H 1648.58 1.4007 -0.821834 0
M  V30 18243 H 1650.58 4.12131 0.628756 0
M  V30 18244 H 1649.24 3.0497 1.11459 0
M  V30 18245 H 1650.25 4.68878 -2.1994 0
M  V30 18246 H 1646.93 4.16218 0.326963 0
M  V30 18247 H 1648.32 5.8188 -3.35954 0
M  V30 18248 N 1651.04 0.732878 1.39523 0
M  V30 18249 C 1652.27 0.29007 2.04857 0
M  V30 18250 C 1652.68 -1.07435 1.55252 0
M  V30 18251 O 1652.04 -1.67847 0.716497 0
M  V30 18252 C 1652.09 0.280464 3.6041 0
M  V30 18253 O 1651.81 1.59102 4.08189 0
M  V30 18254 C 1653.31 -0.178772 4.42939 0
M  V30 18255 H 1650.53 0.12716 0.658841 0
M  V30 18256 H 1653.07 0.995933 1.7861 0
M  V30 18257 H 1651.23 -0.376494 3.85566 0
M  V30 18258 H 1651.64 1.50314 5.025 0
M  V30 18259 H 1653.12 -0.134335 5.51837 0
M  V30 18260 H 1653.59 -1.22362 4.21811 0
M  V30 18261 H 1654.2 0.448543 4.22928 0
M  V30 18262 N 1652.52 -1.50101 0.480349 0
M  V30 18263 C 1653.46 -2.30347 -0.322924 0
M  V30 18264 C 1654.46 -1.3804 -0.981904 0
M  V30 18265 O 1655.66 -1.55188 -0.91195 0
M  V30 18266 H 1652.04 -0.741875 -0.122985 0
M  V30 18267 H 1654.01 -2.96045 0.374155 0
M  V30 18268 C 1652.76 -3.18844 -1.38686 0
M  V30 18269 H 1652.08 -3.89787 -0.889181 0
M  V30 18270 H 1653.52 -3.77971 -1.9213 0
M  V30 18271 C 1651.98 -2.37058 -2.39385 0
M  V30 18272 O 1652.51 -2.06016 -3.44848 0
M  V30 18273 N 1650.72 -1.99465 -2.11334 0
M  V30 18274 H 1650.26 -2.24909 -1.25593 0
M  V30 18275 H 1650.22 -1.45048 -2.78942 0
M  V30 18276 N 1653.99 -0.213323 -1.5615 0
M  V30 18277 C 1655.22 0.425071 -2.0218 0
M  V30 18278 C 1655.63 1.54471 -1.09249 0
M  V30 18279 O 1654.97 1.83465 -0.0928585 0
M  V30 18280 C 1655.04 1.02533 -3.44568 0
M  V30 18281 C 1654.7 0.0421613 -4.56981 0
M  V30 18282 C 1655.7 -0.755199 -5.14386 0
M  V30 18283 C 1653.38 -0.0742081 -5.02245 0
M  V30 18284 C 1655.38 -1.65571 -6.1552 0
M  V30 18285 C 1653.06 -0.978264 -6.03219 0
M  V30 18286 C 1654.06 -1.76757 -6.59732 0
M  V30 18287 O 1653.75 -2.65644 -7.58741 0
M  V30 18288 H 1653.48 0.109184 -0.667124 0
M  V30 18289 H 1656.04 -0.324754 -2.02816 0
M  V30 18290 H 1654.27 1.82409 -3.40975 0
M  V30 18291 H 1655.95 1.57027 -3.74296 0
M  V30 18292 H 1656.72 -0.6757 -4.8027 0
M  V30 18293 H 1652.6 0.530016 -4.57943 0
M  V30 18294 H 1656.14 -2.27223 -6.59557 0
M  V30 18295 H 1652.04 -1.05881 -6.36757 0
M  V30 18296 H 1652.81 -2.59627 -7.76232 0
M  V30 18297 N 1655.47 1.57485 0.0601405 0
M  V30 18298 C 1656.42 2.04487 1.07023 0
M  V30 18299 C 1657.39 0.927738 1.37776 0
M  V30 18300 O 1658.57 1.19621 1.48645 0
M  V30 18301 C 1655.71 2.50338 2.37539 0
M  V30 18302 C 1654.83 3.75717 2.13215 0
M  V30 18303 C 1653.96 4.10304 3.37378 0
M  V30 18304 C 1653 5.2869 3.0847 0
M  V30 18305 N 1652.14 5.58858 4.24996 0
M  V30 18306 H 1656.98 2.90544 0.662444 0
M  V30 18307 H 1654.52 1.43676 0.315515 0
M  V30 18308 H 1656.47 2.74978 3.13756 0
M  V30 18309 H 1655.1 1.67242 2.76098 0
M  V30 18310 H 1654.16 3.58348 1.27636 0
M  V30 18311 H 1655.47 4.62068 1.87869 0
M  V30 18312 H 1654.62 4.35907 4.21983 0
M  V30 18313 H 1653.36 3.22544 3.6581 0
M  V30 18314 H 1652.37 5.02871 2.22262 0
M  V30 18315 H 1653.59 6.18077 2.81349 0
M  V30 18316 H 1651.54 4.74058 4.53437 0
M  V30 18317 H 1651.45 6.39652 4.02965 0
M  V30 18318 H 1652.72 5.89019 5.10565 0
M  V30 18319 N 1656.95 -0.331789 1.54068 0
M  V30 18320 C 1658.23 -1.08843 1.6252 0
M  V30 18321 C 1658.61 -2.06164 0.453847 0
M  V30 18322 O 1657.96 -2.21714 -0.552727 0
M  V30 18323 C 1658.17 -1.79767 2.9914 0
M  V30 18324 C 1659.51 -2.33086 3.54903 0
M  V30 18325 O 1660.54 -1.89846 3.01392 0
M  V30 18326 O 1659.4 -3.12226 4.48528 0
M  V30 18327 H 1656.49 -0.501222 0.657804 0
M  V30 18328 H 1659.04 -0.332339 1.66414 0
M  V30 18329 H 1657.81 -1.08932 3.75832 0
M  V30 18330 H 1657.43 -2.62205 2.98888 0
M  V30 18331 N 1658.43 -1.46001 -0.593424 0
M  V30 18332 C 1659.38 -1.52172 -1.69787 0
M  V30 18333 C 1660.36 -0.383619 -1.5626 0
M  V30 18334 O 1661.55 -0.63137 -1.65356 0
M  V30 18335 C 1658.68 -1.50479 -3.08563 0
M  V30 18336 C 1657.77 -2.69543 -3.27425 0
M  V30 18337 N 1658.16 -3.94547 -3.1649 0
M  V30 18338 C 1656.46 -2.6554 -3.58336 0
M  V30 18339 C 1657.16 -4.74089 -3.37068 0
M  V30 18340 N 1656.14 -4.0578 -3.61723 0
M  V30 18341 H 1659.94 -2.4663 -1.59847 0
M  V30 18342 H 1657.45 -1.41491 -0.797129 0
M  V30 18343 H 1659.45 -1.52986 -3.87816 0
M  V30 18344 H 1658.11 -0.57089 -3.19642 0
M  V30 18345 H 1659.12 -4.25957 -2.94586 0
M  V30 18346 H 1655.8 -1.81124 -3.76165 0
M  V30 18347 H 1657.19 -5.83069 -3.33887 0
M  V30 18348 N 1659.91 0.83715 -1.33527 0
M  V30 18349 C 1660.84 1.96231 -1.26553 0
M  V30 18350 C 1661.82 1.69474 -0.14576 0
M  V30 18351 O 1663 1.91274 -0.335815 0
M  V30 18352 C 1660.13 3.32419 -1.00574 0
M  V30 18353 C 1659.09 3.73577 -2.08864 0
M  V30 18354 C 1658.41 5.07591 -1.68095 0
M  V30 18355 C 1659.71 3.87179 -3.50556 0
M  V30 18356 H 1661.41 2.02324 -2.20693 0
M  V30 18357 H 1658.95 0.972038 -1.06242 0
M  V30 18358 H 1660.91 4.10703 -0.943439 0
M  V30 18359 H 1659.63 3.26587 -0.0287268 0
M  V30 18360 H 1658.29 2.97557 -2.14139 0
M  V30 18361 H 1657.94 4.98232 -0.690922 0
M  V30 18362 H 1657.64 5.361 -2.40563 0
M  V30 18363 H 1659.16 5.88349 -1.63334 0
M  V30 18364 H 1660.57 4.55771 -3.47772 0
M  V30 18365 H 1658.97 4.27127 -4.21524 0
M  V30 18366 H 1660.04 2.8958 -3.88936 0
M  V30 18367 N 1661.38 1.17024 1.05561 0
M  V30 18368 C 1662.61 0.98075 1.82178 0
M  V30 18369 C 1663.03 -0.471027 1.8283 0
M  V30 18370 O 1662.38 -1.32703 1.25284 0
M  V30 18371 C 1662.44 1.50979 3.28463 0
M  V30 18372 O 1662.16 2.90471 3.27961 0
M  V30 18373 C 1663.66 1.36436 4.21782 0
M  V30 18374 H 1660.88 0.3472 0.574189 0
M  V30 18375 H 1663.42 1.55226 1.33136 0
M  V30 18376 H 1661.58 0.980393 3.74789 0
M  V30 18377 H 1661.99 3.14847 4.19489 0
M  V30 18378 H 1663.46 1.78272 5.2242 0
M  V30 18379 H 1663.94 0.310922 4.38098 0
M  V30 18380 H 1664.55 1.88374 3.81308 0
M  V30 18381 N 1662.86 -1.24221 0.969889 0
M  V30 18382 C 1664.28 -1.4454 0.676778 0
M  V30 18383 C 1664.48 -1.86591 -0.760656 0
M  V30 18384 O 1663.53 -2.00538 -1.5343 0
M  V30 18385 C 1664.85 -2.50546 1.66274 0
M  V30 18386 C 1666.4 -2.64372 1.67561 0
M  V30 18387 C 1666.87 -3.73577 2.6496 0
M  V30 18388 N 1668.36 -3.81007 2.63416 0
M  V30 18389 C 1669.1 -4.65037 3.35452 0
M  V30 18390 N 1668.59 -5.53238 4.17013 0
M  V30 18391 N 1670.39 -4.59138 3.24266 0
M  V30 18392 H 1662.54 -0.952237 1.89858 0
M  V30 18393 H 1664.8 -0.479972 0.817515 0
M  V30 18394 H 1664.51 -2.26541 2.6902 0
M  V30 18395 H 1664.38 -3.48745 1.43724 0
M  V30 18396 H 1666.77 -2.87733 0.655247 0
M  V30 18397 H 1666.85 -1.66523 1.94174 0
M  V30 18398 H 1666.49 -3.50965 3.67132 0
M  V30 18399 H 1666.42 -4.70944 2.35626 0
M  V30 18400 H 1668.91 -3.17969 2.04216 0
M  V30 18401 H 1669.23 -6.1432 4.68861 0
M  V30 18402 H 1667.57 -5.52896 4.21107 0
M  V30 18403 H 1670.76 -3.89247 2.60008 0
M  V30 18404 H 1670.93 -5.24399 3.8067 0
M  V30 18405 N 1664.34 -0.740267 -1.39132 0
M  V30 18406 C 1665.59 -0.289949 -2.00009 0
M  V30 18407 C 1665.91 1.12831 -1.59042 0
M  V30 18408 O 1665.18 1.76926 -0.841076 0
M  V30 18409 H 1663.76 -0.104213 -0.739695 0
M  V30 18410 H 1666.42 -0.951398 -1.70101 0
M  V30 18411 H 1665.52 -0.342509 -3.10215 0
M  V30 18412 N 1665.82 1.49844 -0.488302 0
M  V30 18413 C 1667.1 1.95212 0.123105 0
M  V30 18414 C 1667.48 1.42936 1.55346 0
M  V30 18415 O 1666.82 0.637657 2.19422 0
M  V30 18416 C 1667.03 3.48966 0.0487846 0
M  V30 18417 C 1668.38 4.23982 0.229083 0
M  V30 18418 O 1669.41 3.55982 0.124569 0
M  V30 18419 O 1668.26 5.44709 0.442066 0
M  V30 18420 H 1665.36 0.820652 0.102268 0
M  V30 18421 H 1667.9 1.60542 -0.549935 0
M  V30 18422 H 1666.68 3.79613 -0.949203 0
M  V30 18423 H 1666.3 3.90219 0.76253 0
M  V30 18424 N 1667.3 0.221601 1.56034 0
M  V30 18425 C 1668.24 -0.688502 2.20291 0
M  V30 18426 C 1669.21 -1.19028 1.15851 0
M  V30 18427 O 1670.4 -1.24936 1.44206 0
M  V30 18428 C 1667.54 -1.89101 2.88678 0
M  V30 18429 C 1666.65 -1.42812 4.07711 0
M  V30 18430 C 1665.79 -2.5882 4.63881 0
M  V30 18431 C 1664.83 -2.09268 5.75216 0
M  V30 18432 N 1663.96 -3.18549 6.25676 0
M  V30 18433 H 1668.8 -0.133824 2.97699 0
M  V30 18434 H 1666.34 -0.0543007 1.47 0
M  V30 18435 H 1668.3 -2.59704 3.26512 0
M  V30 18436 H 1666.93 -2.41857 2.13788 0
M  V30 18437 H 1665.98 -0.617019 3.75363 0
M  V30 18438 H 1667.29 -1.02478 4.8816 0
M  V30 18439 H 1666.45 -3.37505 5.04158 0
M  V30 18440 H 1665.18 -3.02443 3.82596 0
M  V30 18441 H 1664.19 -1.29045 5.34441 0
M  V30 18442 H 1665.41 -1.66645 6.58336 0
M  V30 18443 H 1663.36 -3.61653 5.47305 0
M  V30 18444 H 1663.28 -2.82466 7.01248 0
M  V30 18445 H 1664.55 -3.97369 6.7061 0
M  V30 18446 N 1668.77 -1.57515 -0.0517878 0
M  V30 18447 C 1670 -1.92456 -0.759485 0
M  V30 18448 C 1670.42 -0.819396 -1.70092 0
M  V30 18449 O 1669.77 0.205913 -1.81335 0
M  V30 18450 C 1669.83 -3.27242 -1.53606 0
M  V30 18451 O 1669.55 -4.33511 -0.632441 0
M  V30 18452 C 1671.05 -3.76324 -2.34297 0
M  V30 18453 H 1668.27 -0.635688 -0.214807 0
M  V30 18454 H 1670.81 -2.04494 -0.0160862 0
M  V30 18455 H 1668.97 -3.16671 -2.23155 0
M  V30 18456 H 1669.38 -5.11178 -1.17462 0
M  V30 18457 H 1670.85 -4.73209 -2.84213 0
M  V30 18458 H 1671.33 -3.06351 -3.14716 0
M  V30 18459 H 1671.94 -3.89904 -1.69866 0
M  V30 18460 N 1670.25 0.323614 -1.54242 0
M  V30 18461 C 1671.2 1.4184 -1.84348 0
M  V30 18462 C 1672.2 1.53553 -0.715384 0
M  V30 18463 O 1673.4 1.5594 -0.899045 0
M  V30 18464 H 1669.78 0.473326 -0.584352 0
M  V30 18465 H 1671.75 1.13672 -2.75901 0
M  V30 18466 C 1670.5 2.78059 -2.08755 0
M  V30 18467 H 1669.82 2.69819 -2.95021 0
M  V30 18468 H 1671.26 3.53731 -2.33774 0
M  V30 18469 C 1669.72 3.25229 -0.879076 0
M  V30 18470 O 1670.25 4.01603 -0.0883125 0
M  V30 18471 N 1668.45 2.82272 -0.690726 0
M  V30 18472 H 1668 2.20283 -1.33542 0
M  V30 18473 H 1667.96 3.14185 0.116344 0
M  V30 18474 N 1671.73 1.46313 0.585673 0
M  V30 18475 C 1672.98 1.50738 1.34019 0
M  V30 18476 C 1673.29 0.162245 1.94926 0
M  V30 18477 O 1674.5 0.0842676 2.71369 0
M  V30 18478 C 1672.96 2.65592 2.42876 0
M  V30 18479 C 1672.56 4.06513 1.88285 0
M  V30 18480 C 1674.31 2.79284 3.19689 0
M  V30 18481 C 1672.21 5.12712 2.94754 0
M  V30 18482 H 1671.14 0.560979 0.503804 0
M  V30 18483 H 1673.8 1.72516 0.625344 0
M  V30 18484 H 1672.18 2.37138 3.17146 0
M  V30 18485 H 1673.35 4.44744 1.20578 0
M  V30 18486 H 1671.67 3.97462 1.2415 0
M  V30 18487 H 1674.26 3.55795 3.99142 0
M  V30 18488 H 1674.61 1.86694 3.7209 0
M  V30 18489 H 1675.14 3.0737 2.52525 0
M  V30 18490 H 1671.88 6.07084 2.47244 0
M  V30 18491 H 1671.4 4.79028 3.6096 0
M  V30 18492 H 1673.08 5.38426 3.58757 0
M  V30 18493 N 1673.21 -0.830057 1.33969 0
M  V30 18494 C 1674.43 -1.62294 1.29133 0
M  V30 18495 C 1674.86 -1.87627 -0.133253 0
M  V30 18496 O 1674.22 -1.44669 -1.09272 0
M  V30 18497 C 1674.27 -2.94508 2.0808 0
M  V30 18498 O 1673.37 -3.86239 1.44544 0
M  V30 18499 H 1672.71 -0.493865 0.443839 0
M  V30 18500 H 1675.24 -1.03202 1.76665 0
M  V30 18501 H 1675.25 -3.44133 2.19173 0
M  V30 18502 H 1673.93 -2.75392 3.1166 0
M  V30 18503 H 1672.5 -3.44743 1.42151 0
M  V30 18504 N 1674.69 -1.17582 -1.04939 0
M  V30 18505 C 1675.62 -0.852608 -2.12752 0
M  V30 18506 C 1676.63 0.14607 -1.62143 0
M  V30 18507 O 1677.82 -0.0805751 -1.78318 0
M  V30 18508 C 1674.92 -0.251083 -3.37969 0
M  V30 18509 C 1674.09 -1.29325 -4.17844 0
M  V30 18510 C 1673.15 -0.709025 -5.21401 0
M  V30 18511 O 1672.18 -1.38149 -5.52181 0
M  V30 18512 N 1673.38 0.497716 -5.78362 0
M  V30 18513 H 1676.15 -1.78054 -2.41074 0
M  V30 18514 H 1673.71 -1.07502 -1.21058 0
M  V30 18515 H 1675.7 0.15312 -4.0441 0
M  V30 18516 H 1674.27 0.580684 -3.07159 0
M  V30 18517 H 1673.49 -1.87311 -3.46855 0
M  V30 18518 H 1674.78 -1.99614 -4.68008 0
M  V30 18519 H 1674.18 1.06196 -5.55643 0
M  V30 18520 H 1672.73 0.843951 -6.46313 0
M  V30 18521 N 1676.17 1.23705 -0.976463 0
M  V30 18522 C 1677.08 2.28728 -0.521605 0
M  V30 18523 C 1678.09 1.68813 0.421691 0
M  V30 18524 O 1679.27 1.99263 0.292579 0
M  V30 18525 C 1676.33 3.4627 0.172545 0
M  V30 18526 C 1675.39 4.21557 -0.811664 0
M  V30 18527 C 1674.63 5.33488 -0.150546 0
M  V30 18528 O 1674.85 5.60478 1.05926 0
M  V30 18529 O 1673.78 5.95909 -0.847132 0
M  V30 18530 H 1677.61 2.6977 -1.39491 0
M  V30 18531 H 1675.19 1.29562 -0.743909 0
M  V30 18532 H 1677.08 4.17634 0.562103 0
M  V30 18533 H 1675.75 3.07187 1.02067 0
M  V30 18534 H 1674.66 3.52533 -1.25185 0
M  V30 18535 H 1675.99 4.6448 -1.62848 0
M  V30 18536 N 1677.64 0.747635 1.38738 0
M  V30 18537 C 1678.59 0.0917864 2.27815 0
M  V30 18538 C 1679.58 -0.699471 1.44901 0
M  V30 18539 O 1680.77 -0.566404 1.67693 0
M  V30 18540 C 1677.9 -0.805131 3.33725 0
M  V30 18541 C 1676.98 -0.00734503 4.24099 0
M  V30 18542 N 1677.38 1.02602 4.95284 0
M  V30 18543 C 1675.67 -0.235075 4.4538 0
M  V30 18544 C 1676.37 1.50818 5.61808 0
M  V30 18545 N 1675.35 0.824534 5.3731 0
M  V30 18546 H 1679.15 0.883313 2.80312 0
M  V30 18547 H 1676.67 0.583125 1.5157 0
M  V30 18548 H 1678.66 -1.29056 3.96422 0
M  V30 18549 H 1677.32 -1.59568 2.82787 0
M  V30 18550 H 1678.33 1.40768 4.98402 0
M  V30 18551 H 1675.01 -0.99943 4.05361 0
M  V30 18552 H 1676.4 2.36862 6.28766 0
M  V30 18553 N 1679.12 -1.49583 0.496242 0
M  V30 18554 C 1680.37 -2.01634 -0.051782 0
M  V30 18555 C 1680.68 -1.38133 -1.38487 0
M  V30 18556 O 1681.89 -1.81484 -2.0193 0
M  V30 18557 C 1680.35 -3.59617 -0.142755 0
M  V30 18558 C 1679.95 -4.32088 1.1834 0
M  V30 18559 C 1681.7 -4.19626 -0.641397 0
M  V30 18560 C 1679.6 -5.81917 1.05485 0
M  V30 18561 H 1678.53 -0.753645 -0.0231258 0
M  V30 18562 H 1681.19 -1.72165 0.634944 0
M  V30 18563 H 1679.57 -3.85781 -0.893826 0
M  V30 18564 H 1680.74 -4.17628 1.94739 0
M  V30 18565 H 1679.06 -3.83801 1.61511 0
M  V30 18566 H 1681.65 -5.29343 -0.755008 0
M  V30 18567 H 1682 -3.82676 -1.63906 0
M  V30 18568 H 1682.53 -3.97765 0.053003 0
M  V30 18569 H 1679.27 -6.23384 2.02664 0
M  V30 18570 H 1678.79 -5.98882 0.331667 0
M  V30 18571 H 1680.47 -6.4285 0.731641 0
M  V30 18572 N 1680.6 -0.229873 -1.55915 0
M  V30 18573 C 1681.83 0.404189 -2.02914 0
M  V30 18574 C 1682.24 1.52758 -1.10952 0
M  V30 18575 O 1681.6 1.82101 -0.120685 0
M  V30 18576 C 1681.65 0.928016 -3.49385 0
M  V30 18577 O 1681.37 -0.150592 -4.37841 0
M  V30 18578 C 1682.87 1.63448 -4.12067 0
M  V30 18579 H 1680.09 0.0980294 -0.663801 0
M  V30 18580 H 1682.64 -0.34876 -2.01504 0
M  V30 18581 H 1680.79 1.63121 -3.51384 0
M  V30 18582 H 1681.21 0.244429 -5.2393 0
M  V30 18583 H 1682.68 1.95292 -5.16299 0
M  V30 18584 H 1683.16 2.55055 -3.57553 0
M  V30 18585 H 1683.76 0.976292 -4.13943 0
M  V30 18586 N 1682.08 1.5754 0.0434337 0
M  V30 18587 C 1683.03 2.06683 1.067 0
M  V30 18588 C 1684.02 0.977691 1.38339 0
M  V30 18589 O 1685.23 1.16266 1.37412 0
M  V30 18590 H 1681.6 0.659378 0.361559 0
M  V30 18591 H 1683.57 2.91747 0.626605 0
M  V30 18592 C 1682.32 2.54985 2.36385 0
M  V30 18593 H 1681.64 3.384 2.12897 0
M  V30 18594 H 1683.08 2.93095 3.06384 0
M  V30 18595 C 1681.54 1.44484 3.04345 0
M  V30 18596 O 1682.07 0.80291 3.93594 0
M  V30 18597 N 1680.28 1.18292 2.65434 0
M  V30 18598 H 1679.83 1.70676 1.92944 0
M  V30 18599 H 1679.78 0.445676 3.11225 0
M  V30 18600 N 1683.56 -0.31543 1.54411 0
M  V30 18601 C 1684.8 -1.04997 1.72217 0
M  V30 18602 C 1685.12 -1.8891 0.507176 0
M  V30 18603 O 1686.32 -2.65519 0.566738 0
M  V30 18604 C 1684.78 -1.91633 3.04639 0
M  V30 18605 C 1684.39 -1.12792 4.33569 0
M  V30 18606 C 1686.13 -2.64774 3.31806 0
M  V30 18607 C 1684.04 -1.98621 5.57049 0
M  V30 18608 H 1682.97 -0.395716 0.641814 0
M  V30 18609 H 1685.62 -0.307748 1.80901 0
M  V30 18610 H 1684 -2.69786 2.89882 0
M  V30 18611 H 1685.18 -0.393534 4.59116 0
M  V30 18612 H 1683.49 -0.512975 4.13228 0
M  V30 18613 H 1686.09 -3.29313 4.21257 0
M  V30 18614 H 1686.43 -3.32843 2.50043 0
M  V30 18615 H 1686.96 -1.93678 3.47467 0
M  V30 18616 H 1683.7 -1.35047 6.41438 0
M  V30 18617 H 1683.22 -2.69771 5.35708 0
M  V30 18618 H 1684.9 -2.57014 5.93762 0
M  V30 18619 N 1685.03 -1.46622 -0.577906 0
M  V30 18620 C 1685.96 -1.60413 -1.69676 0
M  V30 18621 C 1686.95 -0.454277 -1.63922 0
M  V30 18622 O 1688.13 -0.68111 -1.81864 0
M  V30 18623 C 1685.26 -1.59866 -3.08318 0
M  V30 18624 C 1684.21 -2.7387 -3.28906 0
M  V30 18625 C 1683.54 -2.58386 -4.68125 0
M  V30 18626 C 1684.84 -4.15652 -3.16276 0
M  V30 18627 H 1686.53 -2.54073 -1.5839 0
M  V30 18628 H 1684.08 -1.22275 -0.760572 0
M  V30 18629 H 1686.03 -1.68108 -3.86417 0
M  V30 18630 H 1684.76 -0.627541 -3.20514 0
M  V30 18631 H 1683.42 -2.65105 -2.53209 0
M  V30 18632 H 1683.06 -1.59347 -4.77093 0
M  V30 18633 H 1682.76 -3.34855 -4.82852 0
M  V30 18634 H 1684.29 -2.68525 -5.48385 0
M  V30 18635 H 1685.7 -4.25503 -3.84214 0
M  V30 18636 H 1684.1 -4.92746 -3.42523 0
M  V30 18637 H 1685.17 -4.35471 -2.13291 0
M  V30 18638 N 1686.51 0.822941 -1.34408 0
M  V30 18639 C 1687.74 1.61087 -1.2984 0
M  V30 18640 C 1688.16 1.88369 0.127527 0
M  V30 18641 O 1687.51 1.47508 1.0746 0
M  V30 18642 C 1687.56 2.9518 -2.08689 0
M  V30 18643 O 1687.28 2.69089 -3.45721 0
M  V30 18644 C 1688.79 3.89583 -2.11518 0
M  V30 18645 H 1686.01 0.500726 -0.44667 0
M  V30 18646 H 1688.55 1.02391 -1.77021 0
M  V30 18647 H 1686.7 3.50434 -1.6515 0
M  V30 18648 H 1687.12 3.5459 -3.86479 0
M  V30 18649 H 1688.59 4.80835 -2.71111 0
M  V30 18650 H 1689.07 4.24953 -1.10957 0
M  V30 18651 H 1689.68 3.40265 -2.55146 0
M  V30 18652 N 1687.99 1.18137 1.04314 0
M  V30 18653 C 1689.27 0.884901 1.74439 0
M  V30 18654 C 1689.65 -0.612825 2.02009 0
M  V30 18655 O 1689 -1.56679 1.66325 0
M  V30 18656 C 1689.21 1.72944 3.03136 0
M  V30 18657 C 1690.55 1.95491 3.7692 0
M  V30 18658 O 1691.58 1.69976 3.13028 0
M  V30 18659 O 1690.44 2.38426 4.91747 0
M  V30 18660 H 1687.53 0.328481 0.758966 0
M  V30 18661 H 1690.08 1.28878 1.10402 0
M  V30 18662 H 1688.85 2.74485 2.78879 0
M  V30 18663 H 1688.47 1.32392 3.74911 0
M  V30 18664 N 1689.47 -1.23186 0.98301 0
M  V30 18665 C 1690.38 -2.28448 0.533727 0
M  V30 18666 C 1691.39 -1.69034 -0.412732 0
M  V30 18667 O 1692.57 -1.99416 -0.282007 0
M  V30 18668 C 1689.64 -3.46357 -0.154179 0
M  V30 18669 C 1688.7 -4.21121 0.834009 0
M  V30 18670 C 1687.93 -5.334 0.178836 0
M  V30 18671 O 1688.15 -5.61032 -1.02952 0
M  V30 18672 O 1687.09 -5.95451 0.878722 0
M  V30 18673 H 1690.91 -2.69027 1.40919 0
M  V30 18674 H 1688.5 -1.29166 0.75077 0
M  V30 18675 H 1690.38 -4.17926 -0.539947 0
M  V30 18676 H 1689.05 -3.07724 -1.00437 0
M  V30 18677 H 1687.96 -3.51864 1.27053 0
M  V30 18678 H 1689.29 -4.6361 1.65309 0
M  V30 18679 N 1690.95 -0.754982 -1.38339 0
M  V30 18680 C 1691.89 -0.128193 -2.30444 0
M  V30 18681 C 1692.86 0.70813 -1.50249 0
M  V30 18682 O 1694.05 0.663969 -1.78875 0
M  V30 18683 C 1691.19 0.757921 -3.36674 0
M  V30 18684 C 1690.3 -0.093181 -4.31899 0
M  V30 18685 C 1689.44 0.796067 -5.25201 0
M  V30 18686 C 1688.48 -0.0585854 -6.12072 0
M  V30 18687 N 1687.61 0.7877 -6.97667 0
M  V30 18688 H 1692.45 -0.919204 -2.83469 0
M  V30 18689 H 1689.99 -0.464921 -1.3956 0
M  V30 18690 H 1691.95 1.28632 -3.96875 0
M  V30 18691 H 1690.58 1.5147 -2.85055 0
M  V30 18692 H 1689.63 -0.73922 -3.73148 0
M  V30 18693 H 1690.94 -0.753146 -4.93081 0
M  V30 18694 H 1690.1 1.39158 -5.90525 0
M  V30 18695 H 1688.83 1.48976 -4.64389 0
M  V30 18696 H 1687.84 -0.666754 -5.45742 0
M  V30 18697 H 1689.06 -0.749361 -6.74953 0
M  V30 18698 H 1687.01 1.46632 -6.39402 0
M  V30 18699 H 1686.93 0.184662 -7.55774 0
M  V30 18700 H 1688.2 1.36814 -7.674 0
M  V30 18701 N 1692.42 1.49318 -0.504168 0
M  V30 18702 C 1693.37 2.29185 0.272566 0
M  V30 18703 C 1694.34 1.35726 0.957476 0
M  V30 18704 O 1695.53 1.64684 0.963524 0
M  V30 18705 C 1692.67 3.18477 1.32916 0
M  V30 18706 C 1691.78 4.26995 0.655704 0
M  V30 18707 C 1690.91 5.03498 1.69301 0
M  V30 18708 C 1689.95 6.0385 1.0016 0
M  V30 18709 N 1689.09 6.73507 1.98325 0
M  V30 18710 H 1693.93 2.951 -0.41474 0
M  V30 18711 H 1691.47 1.455 -0.216372 0
M  V30 18712 H 1693.43 3.68624 1.95377 0
M  V30 18713 H 1692.06 2.54539 1.98519 0
M  V30 18714 H 1691.11 3.80311 -0.0822653 0
M  V30 18715 H 1692.42 4.98675 0.111584 0
M  V30 18716 H 1691.57 5.5753 2.39259 0
M  V30 18717 H 1690.31 4.31599 2.27099 0
M  V30 18718 H 1689.32 5.49046 0.287811 0
M  V30 18719 H 1690.54 6.77737 0.430073 0
M  V30 18720 H 1688.49 6.04376 2.55079 0
M  V30 18721 H 1688.41 7.41174 1.48988 0
M  V30 18722 H 1689.67 7.32141 2.67561 0
M  V30 18723 N 1693.9 0.238138 1.5579 0
M  V30 18724 C 1694.85 -0.665098 2.21009 0
M  V30 18725 C 1695.82 -1.17793 1.17107 0
M  V30 18726 O 1697 -1.234 1.45523 0
M  V30 18727 C 1694.14 -1.86028 2.90667 0
M  V30 18728 C 1693.26 -1.3848 4.09203 0
M  V30 18729 C 1692.39 -2.53885 4.666 0
M  V30 18730 C 1691.43 -2.03155 5.77403 0
M  V30 18731 N 1690.57 -3.11895 6.2902 0
M  V30 18732 H 1695.41 -0.102242 2.97825 0
M  V30 18733 H 1692.95 -0.0387064 1.47049 0
M  V30 18734 H 1694.9 -2.56226 3.29248 0
M  V30 18735 H 1693.53 -2.39575 2.16341 0
M  V30 18736 H 1692.59 -0.577172 3.75996 0
M  V30 18737 H 1693.9 -0.972946 4.89219 0
M  V30 18738 H 1693.05 -3.32139 5.07709 0
M  V30 18739 H 1691.79 -2.98368 3.85782 0
M  V30 18740 H 1690.8 -1.23369 5.3578 0
M  V30 18741 H 1692.02 -1.59653 6.60067 0
M  V30 18742 H 1689.97 -3.55828 5.5111 0
M  V30 18743 H 1689.88 -2.75013 7.04204 0
M  V30 18744 H 1691.15 -3.90234 6.74787 0
M  V30 18745 N 1695.38 -1.57561 -0.0350783 0
M  V30 18746 C 1696.33 -2.06163 -1.03756 0
M  V30 18747 C 1697.3 -0.94954 -1.36283 0
M  V30 18748 O 1698.48 -1.21971 -1.46723 0
M  V30 18749 C 1695.62 -2.54086 -2.33526 0
M  V30 18750 C 1694.74 -3.79062 -2.0721 0
M  V30 18751 C 1693.87 -4.1562 -3.30808 0
M  V30 18752 C 1692.91 -5.3353 -3.0002 0
M  V30 18753 N 1692.05 -5.65549 -4.16051 0
M  V30 18754 H 1696.89 -2.91561 -0.616137 0
M  V30 18755 H 1694.42 -1.4416 -0.292617 0
M  V30 18756 H 1696.38 -2.79935 -3.09342 0
M  V30 18757 H 1695.01 -1.71614 -2.73402 0
M  V30 18758 H 1694.06 -3.60333 -1.21919 0
M  V30 18759 H 1695.38 -4.64998 -1.80495 0
M  V30 18760 H 1694.53 -4.42565 -4.14995 0
M  V30 18761 H 1693.27 -3.28323 -3.60632 0
M  V30 18762 H 1692.27 -5.06344 -2.14234 0
M  V30 18763 H 1693.5 -6.22475 -2.7148 0
M  V30 18764 H 1691.44 -4.81211 -4.45838 0
M  V30 18765 H 1691.36 -6.45982 -3.92738 0
M  V30 18766 H 1692.63 -5.97068 -5.01129 0
M  V30 18767 N 1696.86 0.307236 -1.54576 0
M  V30 18768 C 1698.14 1.06243 -1.64231 0
M  V30 18769 C 1698.52 2.05415 -0.486589 0
M  V30 18770 O 1697.86 2.22565 0.517384 0
M  V30 18771 C 1698.07 1.74985 -3.01962 0
M  V30 18772 C 1699.42 2.2741 -3.58566 0
M  V30 18773 O 1700.45 1.85027 -3.04374 0
M  V30 18774 O 1699.3 3.05051 -4.53438 0
M  V30 18775 H 1696.4 0.490693 -0.665695 0
M  V30 18776 H 1698.94 0.305822 -1.66922 0
M  V30 18777 H 1697.72 1.02939 -3.77517 0
M  V30 18778 H 1697.34 2.57417 -3.03022 0
M  V30 18779 N 1698.34 1.46926 0.570122 0
M  V30 18780 C 1699.25 1.6105 1.70587 0
M  V30 18781 C 1700.26 0.493636 1.66851 0
M  V30 18782 O 1701.44 0.759454 1.86532 0
M  V30 18783 C 1698.5 1.60913 3.07096 0
M  V30 18784 C 1697.56 2.83928 3.21999 0
M  V30 18785 C 1696.8 2.83788 4.51996 0
M  V30 18786 O 1697.02 1.93256 5.36664 0
M  V30 18787 O 1695.95 3.75491 4.70415 0
M  V30 18788 H 1699.78 2.57126 1.61616 0
M  V30 18789 H 1697.37 1.29863 0.738637 0
M  V30 18790 H 1699.25 1.63576 3.88356 0
M  V30 18791 H 1697.92 0.680005 3.16477 0
M  V30 18792 H 1696.83 2.86814 2.40185 0
M  V30 18793 H 1698.16 3.76091 3.17516 0
M  V30 18794 N 1699.82 -0.815801 1.34842 0
M  V30 18795 C 1700.73 -1.95886 1.29097 0
M  V30 18796 C 1701.74 -1.72876 0.197422 0
M  V30 18797 O 1702.92 -1.96861 0.425166 0
M  V30 18798 C 1699.98 -3.30311 1.05336 0
M  V30 18799 C 1699.04 -3.66279 2.23916 0
M  V30 18800 C 1698.28 -4.9429 2.01279 0
M  V30 18801 O 1698.5 -5.62012 0.974603 0
M  V30 18802 O 1697.43 -5.28302 2.88411 0
M  V30 18803 H 1701.26 -2.03678 2.25276 0
M  V30 18804 H 1698.84 -0.952243 1.1512 0
M  V30 18805 H 1700.73 -4.10806 0.938961 0
M  V30 18806 H 1699.4 -3.2347 0.122024 0
M  V30 18807 H 1698.31 -2.86198 2.40918 0
M  V30 18808 H 1699.64 -3.77814 3.15464 0
M  V30 18809 N 1701.29 -1.18689 -1.03686 0
M  V30 18810 C 1702.52 -1.01024 -1.81132 0
M  V30 18811 C 1702.94 0.436584 -1.82963 0
M  V30 18812 O 1702.3 1.31343 -1.24975 0
M  V30 18813 C 1702.35 -1.5742 -3.24424 0
M  V30 18814 O 1701.45 -0.79813 -4.04603 0
M  V30 18815 H 1700.79 -0.357623 -0.559465 0
M  V30 18816 H 1703.32 -1.57532 -1.30556 0
M  V30 18817 H 1703.33 -1.60295 -3.75193 0
M  V30 18818 H 1702.01 -2.6273 -3.22406 0
M  V30 18819 H 1700.59 -0.842 -3.6327 0
M  V30 18820 N 1702.77 1.22662 -0.989529 0
M  V30 18821 C 1704 1.9506 -0.680833 0
M  V30 18822 C 1704.41 1.73354 0.757953 0
M  V30 18823 O 1703.75 1.02755 1.52273 0
M  V30 18824 C 1703.81 3.47982 -0.902711 0
M  V30 18825 C 1703.48 3.93418 -2.32533 0
M  V30 18826 C 1704.48 4.01362 -3.30462 0
M  V30 18827 C 1702.16 4.26157 -2.65886 0
M  V30 18828 C 1704.15 4.41413 -4.59819 0
M  V30 18829 C 1701.84 4.65888 -3.95463 0
M  V30 18830 C 1702.84 4.73484 -4.92241 0
M  V30 18831 O 1702.53 5.12318 -6.19504 0
M  V30 18832 H 1702.26 0.627572 -0.251256 0
M  V30 18833 H 1704.81 1.56858 -1.32608 0
M  V30 18834 H 1703.04 3.86181 -0.200292 0
M  V30 18835 H 1704.73 4.01592 -0.589781 0
M  V30 18836 H 1705.5 3.76262 -3.06026 0
M  V30 18837 H 1701.38 4.19451 -1.91263 0
M  V30 18838 H 1704.92 4.47257 -5.35357 0
M  V30 18839 H 1700.82 4.90439 -4.1969 0
M  V30 18840 H 1701.59 5.30402 -6.23391 0
M  V30 18841 N 1704.25 0.762308 1.37937 0
M  V30 18842 C 1705.2 0.129897 2.32237 0
M  V30 18843 C 1706.19 -0.695577 1.54461 0
M  V30 18844 O 1707.4 -0.593697 1.69927 0
M  V30 18845 H 1703.77 0.023214 0.751642 0
M  V30 18846 H 1705.74 0.941144 2.8317 0
M  V30 18847 C 1704.49 -0.742235 3.39685 0
M  V30 18848 H 1703.82 -0.116427 3.9963 0
M  V30 18849 H 1705.26 -1.15187 4.08054 0
M  V30 18850 C 1703.71 -1.8887 2.7898 0
M  V30 18851 O 1704.24 -2.98351 2.68979 0
M  V30 18852 N 1702.45 -1.68642 2.36661 0
M  V30 18853 H 1702 -0.795945 2.44995 0
M  V30 18854 H 1701.96 -2.45519 1.96387 0
M  V30 18855 N 1705.73 -1.49049 0.51208 0
M  V30 18856 C 1706.95 -2.07382 -0.0271044 0
M  V30 18857 C 1707.38 -1.3685 -1.29049 0
M  V30 18858 O 1706.74 -0.428713 -1.76158 0
M  V30 18859 C 1706.78 -3.59715 -0.252462 0
M  V30 18860 O 1705.89 -3.90538 -1.32491 0
M  V30 18861 H 1705.23 -0.663269 0.0311507 0
M  V30 18862 H 1707.76 -1.91705 0.714873 0
M  V30 18863 H 1707.77 -4.05159 -0.480603 0
M  V30 18864 H 1706.44 -4.10459 0.670531 0
M  V30 18865 H 1705.02 -3.56892 -1.08085 0
M  V30 18866 N 1707.21 -0.246397 -1.55662 0
M  V30 18867 C 1708.12 0.664125 -2.25003 0
M  V30 18868 C 1709.13 1.19368 -1.26598 0
M  V30 18869 O 1710.31 1.23006 -1.59473 0
M  V30 18870 C 1707.37 1.8446 -2.93557 0
M  V30 18871 C 1706.43 1.35456 -4.0737 0
M  V30 18872 C 1705.67 2.47877 -4.72645 0
M  V30 18873 O 1705.89 3.66594 -4.36995 0
M  V30 18874 O 1704.82 2.17663 -5.61165 0
M  V30 18875 H 1708.65 0.103277 -3.03524 0
M  V30 18876 H 1706.23 -0.0149207 -1.49393 0
M  V30 18877 H 1708.12 2.53349 -3.36737 0
M  V30 18878 H 1706.79 2.39308 -2.17976 0
M  V30 18879 H 1705.7 0.632958 -3.68706 0
M  V30 18880 H 1707.03 0.852175 -4.84767 0
M  V30 18881 N 1708.68 1.57577 0.026722 0
M  V30 18882 C 1709.93 1.8966 0.718124 0
M  V30 18883 C 1710.26 0.844423 1.7488 0
M  V30 18884 O 1709.54 -0.14023 1.93994 0
M  V30 18885 C 1709.82 3.32377 1.38555 0
M  V30 18886 C 1709.67 4.4829 0.368227 0
M  V30 18887 C 1710.99 3.74051 2.31891 0
M  V30 18888 H 1708.11 0.689767 0.259596 0
M  V30 18889 H 1710.75 1.8999 -0.0190825 0
M  V30 18890 H 1708.9 3.32226 2.01391 0
M  V30 18891 H 1710.58 4.60576 -0.258394 0
M  V30 18892 H 1708.82 4.32675 -0.312255 0
M  V30 18893 H 1709.49 5.45041 0.873749 0
M  V30 18894 H 1711.97 3.75584 1.79097 0
M  V30 18895 H 1710.84 4.74713 2.7557 0
M  V30 18896 H 1711.1 3.06438 3.18666 0
M  V30 18897 N 1710.16 -0.299034 1.54737 0
M  V30 18898 C 1711.11 -1.38889 1.86581 0
M  V30 18899 C 1712.1 -1.52396 0.739723 0
M  V30 18900 O 1713.31 -1.5449 0.92374 0
M  V30 18901 H 1709.68 -0.463969 0.591808 0
M  V30 18902 H 1711.66 -1.09268 2.77674 0
M  V30 18903 C 1710.4 -2.74702 2.13152 0
M  V30 18904 H 1709.73 -2.65092 2.99277 0
M  V30 18905 H 1711.17 -3.49967 2.39372 0
M  V30 18906 C 1709.63 -3.23789 0.930706 0
M  V30 18907 O 1710.16 -4.01412 0.152193 0
M  V30 18908 N 1708.36 -2.81137 0.735545 0
M  V30 18909 H 1707.91 -2.1813 1.37029 0
M  V30 18910 H 1707.87 -3.1433 -0.0663452 0
M  V30 18911 N 1711.64 -1.47227 -0.562322 0
M  V30 18912 C 1712.59 -1.59329 -1.66981 0
M  V30 18913 C 1713.56 -0.436558 -1.6026 0
M  V30 18914 O 1714.74 -0.655956 -1.7917 0
M  V30 18915 C 1711.88 -1.60874 -3.05309 0
M  V30 18916 C 1710.99 -2.87428 -3.22505 0
M  V30 18917 C 1710.13 -2.80342 -4.512 0
M  V30 18918 C 1709.17 -4.01744 -4.6181 0
M  V30 18919 N 1708.31 -3.92924 -5.81855 0
M  V30 18920 H 1713.15 -2.53921 -1.55975 0
M  V30 18921 H 1710.68 -1.25953 -0.759879 0
M  V30 18922 H 1712.64 -1.59753 -3.85402 0
M  V30 18923 H 1711.27 -0.697994 -3.15163 0
M  V30 18924 H 1710.32 -2.98439 -2.35878 0
M  V30 18925 H 1711.63 -3.77345 -3.26209 0
M  V30 18926 H 1710.79 -2.77442 -5.39547 0
M  V30 18927 H 1709.53 -1.881 -4.49966 0
M  V30 18928 H 1708.53 -4.04954 -3.71877 0
M  V30 18929 H 1709.76 -4.95107 -4.64807 0
M  V30 18930 H 1707.7 -3.03481 -5.8158 0
M  V30 18931 H 1707.62 -4.76514 -5.86916 0
M  V30 18932 H 1708.89 -3.94031 -6.72577 0
M  V30 18933 N 1713.12 0.808639 -1.35273 0
M  V30 18934 C 1714.36 1.56562 -1.28431 0
M  V30 18935 C 1714.69 1.93982 0.141842 0
M  V30 18936 O 1713.95 1.61409 1.10661 0
M  V30 18937 C 1714.25 2.86667 -2.1344 0
M  V30 18938 C 1713.91 2.68475 -3.6226 0
M  V30 18939 C 1712.57 2.63221 -4.02825 0
M  V30 18940 C 1714.93 2.51151 -4.56698 0
M  V30 18941 C 1712.25 2.38583 -5.35999 0
M  V30 18942 C 1714.61 2.28043 -5.90067 0
M  V30 18943 C 1713.27 2.2121 -6.2978 0
M  V30 18944 H 1712.54 0.572902 -0.469963 0
M  V30 18945 H 1715.19 0.934504 -1.6715 0
M  V30 18946 H 1713.49 3.54146 -1.67595 0
M  V30 18947 H 1715.19 3.44351 -2.05483 0
M  V30 18948 H 1711.78 2.7341 -3.30068 0
M  V30 18949 H 1715.96 2.54223 -4.26244 0
M  V30 18950 H 1711.22 2.31761 -5.65771 0
M  V30 18951 H 1715.39 2.13628 -6.62824 0
M  V30 18952 H 1713.02 2.01881 -7.32904 0
M  V30 18953 N 1714.6 1.19237 1.03055 0
M  V30 18954 C 1715.51 0.943876 2.14775 0
M  V30 18955 C 1716.52 -0.0955384 1.73738 0
M  V30 18956 O 1717.7 0.0887187 2.01204 0
M  V30 18957 C 1714.76 0.48402 3.43305 0
M  V30 18958 C 1713.82 1.59262 3.98665 0
M  V30 18959 C 1713.06 1.15461 5.21061 0
M  V30 18960 O 1713.28 0.0174841 5.70397 0
M  V30 18961 O 1712.21 1.95648 5.69215 0
M  V30 18962 H 1716.04 1.87894 2.38599 0
M  V30 18963 H 1713.63 0.975046 1.13195 0
M  V30 18964 H 1715.51 0.236135 4.20738 0
M  V30 18965 H 1714.18 -0.422626 3.20929 0
M  V30 18966 H 1713.09 1.89464 3.22574 0
M  V30 18967 H 1714.42 2.47576 4.25402 0
M  V30 18968 N 1716.07 -1.22136 0.99602 0
M  V30 18969 C 1717.32 -1.9059 0.672303 0
M  V30 18970 C 1717.64 -1.77903 -0.798476 0
M  V30 18971 O 1716.91 -1.1682 -1.57257 0
M  V30 18972 H 1715.49 -0.705445 0.245676 0
M  V30 18973 H 1718.16 -1.48423 1.2632 0
M  V30 18974 H 1717.25 -2.97684 0.937577 0
M  V30 18975 N 1717.55 -0.769612 -1.37531 0
M  V30 18976 C 1718.5 -0.152627 -2.30295 0
M  V30 18977 C 1719.47 0.692154 -1.50992 0
M  V30 18978 O 1720.65 0.64496 -1.79569 0
M  V30 18979 C 1717.79 0.72217 -3.37459 0
M  V30 18980 C 1716.91 -0.138985 -4.31776 0
M  V30 18981 C 1716.04 0.740317 -5.26016 0
M  V30 18982 C 1715.08 -0.1235 -6.11975 0
M  V30 18983 N 1714.22 0.713658 -6.98464 0
M  V30 18984 H 1719.06 -0.949218 -2.82478 0
M  V30 18985 H 1716.6 -0.479697 -1.39059 0
M  V30 18986 H 1718.55 1.24415 -3.98217 0
M  V30 18987 H 1717.18 1.48438 -2.86646 0
M  V30 18988 H 1716.24 -0.778756 -3.72343 0
M  V30 18989 H 1717.55 -0.805402 -4.92255 0
M  V30 18990 H 1716.7 1.32887 -5.91968 0
M  V30 18991 H 1715.44 1.44042 -4.65943 0
M  V30 18992 H 1714.45 -0.7246 -5.45004 0
M  V30 18993 H 1715.67 -0.820907 -6.7412 0
M  V30 18994 H 1713.62 1.39842 -6.40921 0
M  V30 18995 H 1713.53 0.104492 -7.55928 0
M  V30 18996 H 1714.8 1.28667 -7.68808 0
M  V30 18997 N 1719.03 1.48775 -0.519977 0
M  V30 18998 C 1720.26 2.07394 0.0161061 0
M  V30 18999 C 1720.68 1.37532 1.28322 0
M  V30 19000 O 1720.04 0.438049 1.75928 0
M  V30 19001 C 1720.09 3.59844 0.233382 0
M  V30 19002 O 1719.19 3.91235 1.30418 0
M  V30 19003 H 1718.53 0.663094 -0.0346678 0
M  V30 19004 H 1721.06 1.91323 -0.725029 0
M  V30 19005 H 1721.07 4.05409 0.45911 0
M  V30 19006 H 1719.75 4.10098 -0.69229 0
M  V30 19007 H 1718.32 3.5746 1.0619 0
M  V30 19008 N 1720.51 0.254649 1.55529 0
M  V30 19009 C 1721.79 -0.418663 1.91067 0
M  V30 19010 C 1722.17 -1.75284 1.17638 0
M  V30 19011 O 1721.51 -2.26569 0.296411 0
M  V30 19012 C 1721.72 -0.579125 3.44162 0
M  V30 19013 C 1723.07 -0.871451 4.15561 0
M  V30 19014 O 1724.1 -0.664702 3.49943 0
M  V30 19015 O 1722.95 -1.26563 5.31643 0
M  V30 19016 H 1720.05 -0.22593 0.795541 0
M  V30 19017 H 1722.59 0.299288 1.6704 0
M  V30 19018 H 1721.37 0.36062 3.89635 0
M  V30 19019 H 1720.99 -1.34732 3.74076 0
M  V30 19020 N 1721.99 -1.57589 -0.0183649 0
M  V30 19021 C 1723.23 -1.89757 -0.707008 0
M  V30 19022 C 1723.56 -0.853257 -1.74785 0
M  V30 19023 O 1722.82 0.144406 -1.95166 0
M  V30 19024 C 1723.12 -3.28677 -1.4038 0
M  V30 19025 C 1722.78 -4.48142 -0.497917 0
M  V30 19026 C 1721.44 -4.80558 -0.248444 0
M  V30 19027 C 1723.8 -5.21046 0.126883 0
M  V30 19028 C 1721.12 -5.8326 0.634428 0
M  V30 19029 C 1723.48 -6.24686 0.997521 0
M  V30 19030 C 1722.14 -6.5557 1.25635 0
M  V30 19031 H 1721.41 -0.694369 -0.258713 0
M  V30 19032 H 1724.06 -1.91471 0.0332176 0
M  V30 19033 H 1722.36 -3.23 -2.21761 0
M  V30 19034 H 1724.06 -3.50818 -1.94236 0
M  V30 19035 H 1720.65 -4.22803 -0.702519 0
M  V30 19036 H 1724.83 -4.96272 -0.0528705 0
M  V30 19037 H 1720.09 -6.05558 0.843157 0
M  V30 19038 H 1724.26 -6.80315 1.48811 0
M  V30 19039 H 1721.89 -7.34972 1.94218 0
M  V30 19040 N 1723.46 0.290824 -1.54893 0
M  V30 19041 C 1724.69 1.04775 -1.78988 0
M  V30 19042 C 1725.11 1.79799 -0.552637 0
M  V30 19043 O 1724.47 1.74349 0.497199 0
M  V30 19044 C 1724.52 1.99603 -3.00318 0
M  V30 19045 O 1723.62 3.08079 -2.74155 0
M  V30 19046 H 1722.97 0.300478 -0.592123 0
M  V30 19047 H 1725.5 0.325151 -2.02 0
M  V30 19048 H 1725.51 2.41884 -3.28567 0
M  V30 19049 H 1724.18 1.44406 -3.90025 0
M  V30 19050 H 1722.76 2.7024 -2.56953 0
M  V30 19051 N 1724.94 1.47523 0.554506 0
M  V30 19052 C 1726.22 1.44768 1.31535 0
M  V30 19053 C 1726.6 0.146082 2.10594 0
M  V30 19054 O 1725.95 -0.872415 2.1119 0
M  V30 19055 C 1726.16 2.69489 2.21758 0
M  V30 19056 C 1727.51 3.16814 2.82691 0
M  V30 19057 O 1728.53 2.70235 2.32059 0
M  V30 19058 O 1727.39 3.97798 3.74725 0
M  V30 19059 H 1724.48 0.577042 0.592412 0
M  V30 19060 H 1727.03 1.59727 0.573186 0
M  V30 19061 H 1725.8 3.55753 1.62958 0
M  V30 19062 H 1725.42 2.5713 3.03266 0
M  V30 19063 N 1726.42 -0.801453 1.357 0
M  V30 19064 C 1727.33 -1.94505 1.31167 0
M  V30 19065 C 1728.35 -1.72657 0.215747 0
M  V30 19066 O 1729.52 -1.96399 0.446022 0
M  V30 19067 C 1726.59 -3.29175 1.08834 0
M  V30 19068 C 1725.65 -3.63883 2.27788 0
M  V30 19069 C 1724.88 -4.92127 2.06511 0
M  V30 19070 O 1725.1 -5.60947 1.03416 0
M  V30 19071 O 1724.04 -5.25213 2.93998 0
M  V30 19072 H 1727.86 -2.01277 2.27423 0
M  V30 19073 H 1725.45 -0.939979 1.16124 0
M  V30 19074 H 1727.33 -4.09787 0.98248 0
M  V30 19075 H 1726.01 -3.23322 0.156326 0
M  V30 19076 H 1724.91 -2.83627 2.4394 0
M  V30 19077 H 1726.25 -3.74446 3.19454 0
M  V30 19078 N 1727.9 -1.19782 -1.02421 0
M  V30 19079 C 1728.85 -0.936475 -2.12915 0
M  V30 19080 C 1729.84 0.10941 -1.69046 0
M  V30 19081 O 1731.05 -0.04026 -1.79955 0
M  V30 19082 H 1727.42 -0.285462 -0.695712 0
M  V30 19083 H 1729.39 -1.87485 -2.32146 0
M  V30 19084 C 1728.14 -0.496786 -3.44133 0
M  V30 19085 H 1727.46 -1.29314 -3.78309 0
M  V30 19086 H 1728.9 -0.353073 -4.22527 0
M  V30 19087 C 1727.36 0.789792 -3.27512 0
M  V30 19088 O 1727.89 1.85009 -3.56559 0
M  V30 19089 N 1726.1 0.748849 -2.80786 0
M  V30 19090 H 1725.65 -0.114256 -2.57346 0
M  V30 19091 H 1725.6 1.61005 -2.70046 0
M  V30 19092 N 1729.38 1.21606 -1.00248 0
M  V30 19093 C 1730.65 1.86191 -0.599348 0
M  V30 19094 C 1731.03 1.89847 0.923104 0
M  V30 19095 O 1730.38 1.39595 1.80902 0
M  V30 19096 C 1730.59 3.26576 -1.23082 0
M  V30 19097 C 1731.94 4.02989 -1.33736 0
M  V30 19098 O 1732.96 3.35877 -1.18595 0
M  V30 19099 O 1731.82 5.23142 -1.58065 0
M  V30 19100 H 1728.92 0.801204 -0.204943 0
M  V30 19101 H 1731.46 1.29309 -1.09897 0
M  V30 19102 H 1730.24 3.18601 -2.27176 0
M  V30 19103 H 1729.86 3.91074 -0.717394 0
M  V30 19104 N 1730.86 0.776895 1.37121 0
M  V30 19105 C 1732.1 0.340209 1.9881 0
M  V30 19106 C 1732.42 -1.09071 1.62367 0
M  V30 19107 O 1733.62 -1.62904 2.17197 0
M  V30 19108 C 1732.08 0.557325 3.55559 0
M  V30 19109 C 1731.69 1.99884 4.00937 0
M  V30 19110 C 1733.43 0.184519 4.24099 0
M  V30 19111 C 1731.34 2.16328 5.50415 0
M  V30 19112 H 1730.27 0.12346 0.743824 0
M  V30 19113 H 1732.92 0.956754 1.56584 0
M  V30 19114 H 1731.3 -0.128752 3.95791 0
M  V30 19115 H 1732.48 2.72029 3.71937 0
M  V30 19116 H 1730.79 2.32872 3.45195 0
M  V30 19117 H 1733.39 0.285827 5.33935 0
M  V30 19118 H 1733.73 -0.865859 4.07196 0
M  V30 19119 H 1734.26 0.823343 3.89186 0
M  V30 19120 H 1731 3.19703 5.7225 0
M  V30 19121 H 1730.52 1.48673 5.81082 0
M  V30 19122 H 1732.2 1.96437 6.16459 0
M  V30 19123 N 1732.33 -1.48497 0.527859 0
M  V30 19124 C 1733.58 -2.034 0.00109325 0
M  V30 19125 C 1733.93 -1.39794 -1.32194 0
M  V30 19126 O 1733.23 -0.533793 -1.84014 0
M  V30 19127 C 1733.42 -3.56945 -0.180276 0
M  V30 19128 C 1733.25 -4.35436 1.12363 0
M  V30 19129 C 1732.02 -4.76452 1.68291 0
M  V30 19130 C 1734.22 -4.72382 2.0337 0
M  V30 19131 N 1732.2 -5.39471 2.92992 0
M  V30 19132 C 1733.57 -5.35398 3.12648 0
M  V30 19133 C 1735.63 -4.54314 2.03723 0
M  V30 19134 C 1734.33 -5.82256 4.22339 0
M  V30 19135 C 1736.36 -5.02151 3.12407 0
M  V30 19136 C 1735.72 -5.65191 4.20403 0
M  V30 19137 H 1731.82 -0.78088 0.0418463 0
M  V30 19138 H 1734.4 -1.81345 0.708669 0
M  V30 19139 H 1732.57 -3.78829 -0.856935 0
M  V30 19140 H 1734.3 -3.98486 -0.706459 0
M  V30 19141 H 1731.06 -4.57495 1.22457 0
M  V30 19142 H 1731.48 -5.75548 3.56474 0
M  V30 19143 H 1736.12 -4.04959 1.21523 0
M  V30 19144 H 1733.84 -6.30618 5.05319 0
M  V30 19145 H 1737.43 -4.89963 3.13731 0
M  V30 19146 H 1736.31 -6.01535 5.03116 0
M  V30 19147 N 1733.81 -0.262893 -1.55392 0
M  V30 19148 C 1734.76 0.629853 -2.22039 0
M  V30 19149 C 1735.73 1.15915 -1.18966 0
M  V30 19150 O 1736.91 1.21069 -1.47468 0
M  V30 19151 C 1734.05 1.8138 -2.9359 0
M  V30 19152 C 1733.17 1.31952 -4.11355 0
M  V30 19153 C 1732.3 2.4643 -4.7058 0
M  V30 19154 C 1731.34 1.93944 -5.80562 0
M  V30 19155 N 1730.48 3.01848 -6.33902 0
M  V30 19156 H 1735.32 0.0548473 -2.9795 0
M  V30 19157 H 1732.85 0.0153072 -1.47092 0
M  V30 19158 H 1734.81 2.50955 -3.33283 0
M  V30 19159 H 1733.44 2.36103 -2.20125 0
M  V30 19160 H 1732.49 0.517281 -3.76866 0
M  V30 19161 H 1733.81 0.894993 -4.90705 0
M  V30 19162 H 1732.96 3.2402 -5.12929 0
M  V30 19163 H 1731.7 2.92193 -3.9048 0
M  V30 19164 H 1730.7 1.1483 -5.37675 0
M  V30 19165 H 1731.93 1.49132 -6.62523 0
M  V30 19166 H 1729.88 3.47015 -5.56701 0
M  V30 19167 H 1729.79 2.63775 -7.08491 0
M  V30 19168 H 1731.06 3.79449 -6.8091 0
M  V30 19169 N 1735.29 1.57597 0.0100073 0
M  V30 19170 C 1736.24 2.089 1.02292 0
M  V30 19171 C 1737.23 1.00681 1.36234 0
M  V30 19172 O 1738.44 1.19155 1.34915 0
M  V30 19173 H 1734.81 0.666899 0.347491 0
M  V30 19174 H 1736.78 2.9301 0.56458 0
M  V30 19175 C 1735.53 2.59942 2.30923 0
M  V30 19176 H 1734.86 3.4284 2.05672 0
M  V30 19177 H 1736.3 2.99528 3.00098 0
M  V30 19178 C 1734.75 1.50907 3.01212 0
M  V30 19179 O 1735.28 0.886216 3.91802 0
M  V30 19180 N 1733.49 1.23895 2.62866 0
M  V30 19181 H 1733.04 1.7473 1.89281 0
M  V30 19182 H 1733 0.511591 3.1021 0
M  V30 19183 N 1736.77 -0.282606 1.55045 0
M  V30 19184 C 1738.04 -1.03617 1.659 0
M  V30 19185 C 1738.42 -2.04615 0.519207 0
M  V30 19186 O 1737.77 -2.2336 -0.48191 0
M  V30 19187 C 1737.98 -1.70159 3.04708 0
M  V30 19188 C 1739.33 -2.21677 3.62139 0
M  V30 19189 O 1740.35 -1.80161 3.07279 0
M  V30 19190 O 1739.21 -2.97799 4.58234 0
M  V30 19191 H 1736.31 -0.48004 0.673417 0
M  V30 19192 H 1738.85 -0.279228 1.67387 0
M  V30 19193 H 1737.63 -0.969205 3.79107 0
M  V30 19194 H 1737.25 -2.52564 3.07079 0
M  V30 19195 N 1738.25 -1.47815 -0.546675 0
M  V30 19196 C 1739.49 -1.5521 -1.30529 0
M  V30 19197 C 1739.82 -0.218129 -1.92971 0
M  V30 19198 O 1739.1 0.774298 -1.78423 0
M  V30 19199 C 1739.38 -2.67799 -2.40739 0
M  V30 19200 C 1739.24 -4.10847 -1.83097 0
M  V30 19201 C 1740.55 -2.76238 -3.42608 0
M  V30 19202 H 1737.67 -0.564998 -0.473229 0
M  V30 19203 H 1740.32 -1.79917 -0.610713 0
M  V30 19204 H 1738.47 -2.46863 -2.99985 0
M  V30 19205 H 1740.14 -4.43177 -1.28031 0
M  V30 19206 H 1738.38 -4.1863 -1.13716 0
M  V30 19207 H 1739.05 -4.85418 -2.62818 0
M  V30 19208 H 1741.53 -2.95156 -2.93296 0
M  V30 19209 H 1740.4 -3.56774 -4.17137 0
M  V30 19210 H 1740.66 -1.83719 -4.02119 0
M  V30 19211 N 1739.72 0.794246 -1.36123 0
M  V30 19212 C 1740.67 1.92808 -1.30108 0
M  V30 19213 C 1741.67 1.68289 -0.193734 0
M  V30 19214 O 1742.87 1.76354 -0.360454 0
M  V30 19215 H 1739.25 0.633671 -0.404926 0
M  V30 19216 H 1741.22 1.95 -2.2587 0
M  V30 19217 C 1739.97 3.29762 -1.10238 0
M  V30 19218 H 1739.29 3.49193 -1.9469 0
M  V30 19219 H 1740.73 4.09463 -1.10073 0
M  V30 19220 C 1739.19 3.36345 0.193222 0
M  V30 19221 O 1739.72 3.83832 1.18474 0
M  V30 19222 N 1737.92 2.89638 0.236243 0
M  V30 19223 H 1737.47 2.51186 -0.571245 0
M  V30 19224 H 1737.43 2.94424 1.1028 0
M  V30 19225 N 1741.2 1.20323 1.01785 0
M  V30 19226 C 1742.48 0.921703 1.72522 0
M  V30 19227 C 1742.86 -0.569838 2.03264 0
M  V30 19228 O 1742.21 -1.53115 1.69611 0
M  V30 19229 C 1742.42 1.79335 2.99399 0
M  V30 19230 C 1743.76 2.03442 3.72688 0
M  V30 19231 O 1744.79 1.76578 3.09352 0
M  V30 19232 O 1743.65 2.48803 4.86579 0
M  V30 19233 H 1740.74 0.344505 0.751828 0
M  V30 19234 H 1743.29 1.31191 1.07644 0
M  V30 19235 H 1742.06 2.80339 2.72994 0
M  V30 19236 H 1741.68 1.40314 3.72018 0
M  V30 19237 N 1742.68 -1.21073 1.00892 0
M  V30 19238 C 1743.59 -2.27265 0.582065 0
M  V30 19239 C 1744.61 -1.69872 -0.376785 0
M  V30 19240 O 1745.78 -1.99969 -0.239644 0
M  V30 19241 C 1742.85 -3.46606 -0.0806764 0
M  V30 19242 C 1741.91 -4.19257 0.923147 0
M  V30 19243 C 1741.14 -5.32901 0.291938 0
M  V30 19244 O 1741.36 -5.6309 -0.910282 0
M  V30 19245 O 1740.3 -5.93453 1.00483 0
M  V30 19246 H 1744.12 -2.65977 1.46594 0
M  V30 19247 H 1741.71 -1.27544 0.777999 0
M  V30 19248 H 1743.59 -4.18978 -0.451177 0
M  V30 19249 H 1742.27 -3.09785 -0.93887 0
M  V30 19250 H 1741.17 -3.4909 1.34488 0
M  V30 19251 H 1742.51 -4.59999 1.75106 0
M  V30 19252 N 1744.16 -0.784156 -1.36707 0
M  V30 19253 C 1745.44 -0.278338 -1.93609 0
M  V30 19254 C 1745.82 1.22865 -1.71661 0
M  V30 19255 O 1745.16 2.01765 -1.07252 0
M  V30 19256 C 1745.37 -0.665232 -3.42601 0
M  V30 19257 C 1746.72 -0.642005 -4.19718 0
M  V30 19258 O 1747.75 -0.605381 -3.51018 0
M  V30 19259 O 1746.6 -0.680178 -5.42251 0
M  V30 19260 H 1743.7 -0.0675603 -0.824236 0
M  V30 19261 H 1746.24 -0.866345 -1.4592 0
M  V30 19262 H 1745.02 -1.70478 -3.52211 0
M  V30 19263 H 1744.64 -0.0508295 -3.97568 0
M  V30 19264 N 1745.64 1.48215 -0.535727 0
M  V30 19265 C 1746.89 2.017 -0.0016958 0
M  V30 19266 C 1747.2 1.41756 1.34776 0
M  V30 19267 O 1748.4 1.86774 1.97048 0
M  V30 19268 C 1746.86 3.59869 0.0473588 0
M  V30 19269 C 1746.47 4.28798 -1.29754 0
M  V30 19270 C 1748.21 4.21179 0.529915 0
M  V30 19271 C 1746.12 5.78915 -1.20876 0
M  V30 19272 H 1745.05 0.753993 0.00313606 0
M  V30 19273 H 1747.7 1.70421 -0.680368 0
M  V30 19274 H 1746.08 3.88015 0.791229 0
M  V30 19275 H 1747.26 4.12318 -2.05743 0
M  V30 19276 H 1745.57 3.79384 -1.7163 0
M  V30 19277 H 1748.17 5.31158 0.614396 0
M  V30 19278 H 1748.51 3.86887 1.53702 0
M  V30 19279 H 1749.04 3.97484 -0.158445 0
M  V30 19280 H 1745.78 6.17792 -2.1912 0
M  V30 19281 H 1745.3 5.97792 -0.490333 0
M  V30 19282 H 1746.98 6.40684 -0.901824 0
M  V30 19283 N 1747.11 0.27113 1.5525 0
M  V30 19284 C 1748.06 -0.634087 2.2379 0
M  V30 19285 C 1749.06 -1.16101 1.23357 0
M  V30 19286 O 1750.26 -1.1151 1.413 0
M  V30 19287 H 1746.64 -0.223023 0.718168 0
M  V30 19288 H 1748.61 -0.0331304 2.98382 0
M  V30 19289 C 1747.36 -1.80879 2.96948 0
M  V30 19290 H 1746.68 -1.41252 3.74016 0
M  V30 19291 H 1748.12 -2.41888 3.48233 0
M  V30 19292 C 1746.58 -2.69481 2.02192 0
M  V30 19293 O 1747.11 -3.69725 1.57056 0
M  V30 19294 N 1745.32 -2.36565 1.68776 0
M  V30 19295 H 1744.86 -1.55096 2.05677 0
M  V30 19296 H 1744.82 -2.96119 1.05646 0
M  V30 19297 N 1748.59 -1.576 -0.00164943 0
M  V30 19298 C 1749.84 -1.89675 -0.686026 0
M  V30 19299 C 1750.15 -0.873179 -1.75028 0
M  V30 19300 O 1751.36 -1.08409 -2.48917 0
M  V30 19301 C 1749.82 -3.36696 -1.27136 0
M  V30 19302 C 1749.42 -4.47346 -0.242011 0
M  V30 19303 C 1751.17 -3.77883 -1.93402 0
M  V30 19304 C 1749.08 -5.85444 -0.837241 0
M  V30 19305 H 1748.01 -0.707756 -0.259994 0
M  V30 19306 H 1750.66 -1.83406 0.0586245 0
M  V30 19307 H 1749.04 -3.37797 -2.06662 0
M  V30 19308 H 1750.21 -4.57759 0.528539 0
M  V30 19309 H 1748.53 -4.15168 0.320118 0
M  V30 19310 H 1751.12 -4.78394 -2.38838 0
M  V30 19311 H 1751.47 -3.11311 -2.76389 0
M  V30 19312 H 1752 -3.79075 -1.20612 0
M  V30 19313 H 1748.74 -6.55484 -0.04619 0
M  V30 19314 H 1748.26 -5.78698 -1.57699 0
M  V30 19315 H 1749.94 -6.33048 -1.33637 0
M  V30 19316 N 1750.07 0.274379 -1.55193 0
M  V30 19317 C 1751 1.36461 -1.82903 0
M  V30 19318 C 1751.98 1.47607 -0.681977 0
M  V30 19319 O 1753.17 1.64253 -0.924827 0
M  V30 19320 C 1750.29 2.74116 -1.98942 0
M  V30 19321 C 1749.34 2.80261 -3.2149 0
M  V30 19322 S 1750.17 2.39647 -4.78884 0
M  V30 19323 C 1751.33 3.79279 -4.97894 0
M  V30 19324 H 1751.56 1.12752 -2.75089 0
M  V30 19325 H 1749.09 0.473936 -1.46946 0
M  V30 19326 H 1751.05 3.5339 -2.08868 0
M  V30 19327 H 1749.71 2.95078 -1.07647 0
M  V30 19328 H 1748.91 3.81291 -3.29595 0
M  V30 19329 H 1748.51 2.09007 -3.10148 0
M  V30 19330 H 1750.8 4.74537 -4.83551 0
M  V30 19331 H 1751.74 3.76127 -5.99945 0
M  V30 19332 H 1752.15 3.70518 -4.25883 0
M  V30 19333 N 1751.55 1.48103 0.538828 0
M  V30 19334 C 1752.83 1.46155 1.29992 0
M  V30 19335 C 1753.21 0.16841 2.10427 0
M  V30 19336 O 1752.55 -0.849967 2.12103 0
M  V30 19337 C 1752.76 2.71826 2.18888 0
M  V30 19338 C 1754.11 3.19794 2.79315 0
M  V30 19339 O 1755.14 2.72681 2.2918 0
M  V30 19340 O 1753.99 4.0175 3.70485 0
M  V30 19341 H 1751.09 0.583293 0.586258 0
M  V30 19342 H 1753.63 1.60326 0.556212 0
M  V30 19343 H 1752.41 3.57462 1.59176 0
M  V30 19344 H 1752.03 2.60332 3.00521 0
M  V30 19345 N 1753.03 -0.787016 1.36542 0
M  V30 19346 C 1753.96 -1.91399 1.33749 0
M  V30 19347 C 1754.94 -1.68817 0.208559 0
M  V30 19348 O 1756.12 -1.89896 0.406574 0
M  V30 19349 C 1753.25 -3.28457 1.12842 0
M  V30 19350 C 1752.21 -3.65568 2.22585 0
M  V30 19351 C 1751.53 -5.01002 1.86818 0
M  V30 19352 C 1752.83 -3.73902 3.64684 0
M  V30 19353 H 1754.53 -1.93993 2.2805 0
M  V30 19354 H 1752.07 -0.931937 1.09777 0
M  V30 19355 H 1754.03 -4.06919 1.09522 0
M  V30 19356 H 1752.75 -3.26256 0.149918 0
M  V30 19357 H 1751.41 -2.89405 2.25035 0
M  V30 19358 H 1751.06 -4.95325 0.875361 0
M  V30 19359 H 1750.76 -5.26802 2.60294 0
M  V30 19360 H 1752.28 -5.81881 1.85058 0
M  V30 19361 H 1753.69 -4.4255 3.64448 0
M  V30 19362 H 1752.09 -4.11188 4.37086 0
M  V30 19363 H 1753.16 -2.74946 3.99416 0
M  V30 19364 N 1754.5 -1.20861 -1.01145 0
M  V30 19365 C 1755.78 -0.93084 -1.72031 0
M  V30 19366 C 1756.16 0.559051 -2.03563 0
M  V30 19367 O 1755.51 1.52214 -1.70421 0
M  V30 19368 C 1755.72 -1.8092 -2.98444 0
M  V30 19369 C 1757.07 -2.05415 -3.71604 0
M  V30 19370 O 1758.09 -1.78216 -3.08411 0
M  V30 19371 O 1756.95 -2.5138 -4.85253 0
M  V30 19372 H 1754.04 -0.348488 -0.74999 0
M  V30 19373 H 1756.59 -1.3176 -1.06946 0
M  V30 19374 H 1755.36 -2.81783 -2.71503 0
M  V30 19375 H 1754.99 -1.42285 -3.71269 0
M  V30 19376 N 1755.98 1.20536 -1.01532 0
M  V30 19377 C 1757.23 1.89191 -0.699258 0
M  V30 19378 C 1757.54 1.79624 0.774238 0
M  V30 19379 O 1758.75 2.43402 1.20281 0
M  V30 19380 C 1757.21 3.39294 -1.20033 0
M  V30 19381 C 1756.81 3.57449 -2.70064 0
M  V30 19382 C 1758.56 4.13511 -0.959626 0
M  V30 19383 C 1756.47 5.01371 -3.13658 0
M  V30 19384 H 1755.4 0.708537 -0.257859 0
M  V30 19385 H 1758.05 1.36368 -1.22785 0
M  V30 19386 H 1756.43 3.91432 -0.599728 0
M  V30 19387 H 1757.6 3.15702 -3.35662 0
M  V30 19388 H 1755.92 2.966 -2.92262 0
M  V30 19389 H 1758.51 5.19624 -1.26077 0
M  V30 19390 H 1758.86 4.1617 0.103934 0
M  V30 19391 H 1759.39 3.67469 -1.52354 0
M  V30 19392 H 1756.13 5.03866 -4.19285 0
M  V30 19393 H 1755.65 5.43933 -2.52779 0
M  V30 19394 H 1757.33 5.69944 -3.06224 0
M  V30 19395 N 1757.46 0.791395 1.36289 0
M  V30 19396 C 1758.39 0.149076 2.28715 0
M  V30 19397 C 1759.41 -0.642827 1.49571 0
M  V30 19398 O 1760.59 -0.477685 1.7199 0
M  V30 19399 C 1757.69 -0.811868 3.29032 0
M  V30 19400 C 1756.87 -0.0695975 4.37345 0
M  V30 19401 C 1755.93 -0.946776 5.17612 0
M  V30 19402 O 1754.95 -0.403295 5.67769 0
M  V30 19403 N 1756.15 -2.27079 5.34243 0
M  V30 19404 H 1758.92 0.943005 2.84478 0
M  V30 19405 H 1756.48 0.645479 1.48476 0
M  V30 19406 H 1758.47 -1.40257 3.79618 0
M  V30 19407 H 1757.04 -1.50667 2.73895 0
M  V30 19408 H 1756.26 0.702196 3.87895 0
M  V30 19409 H 1757.55 0.442542 5.06872 0
M  V30 19410 H 1756.95 -2.73646 4.9511 0
M  V30 19411 H 1755.51 -2.81109 5.88065 0
M  V30 19412 N 1758.94 -1.47929 0.54358 0
M  V30 19413 C 1760.22 -1.95535 -0.0505687 0
M  V30 19414 C 1760.6 -1.48603 -1.49934 0
M  V30 19415 O 1759.94 -0.718655 -2.16905 0
M  V30 19416 C 1760.15 -3.48907 0.0807654 0
M  V30 19417 C 1761.5 -4.2454 -0.0715671 0
M  V30 19418 O 1762.53 -3.56199 0.007637 0
M  V30 19419 O 1761.39 -5.45975 -0.239596 0
M  V30 19420 H 1758.48 -0.823883 -0.0717396 0
M  V30 19421 H 1761.03 -1.58391 0.60914 0
M  V30 19422 H 1759.8 -3.75828 1.08944 0
M  V30 19423 H 1759.42 -3.92781 -0.617178 0
M  V30 19424 N 1760.42 -0.27936 -1.55104 0
M  V30 19425 C 1761.37 0.62221 -2.24123 0
M  V30 19426 C 1762.36 1.15445 -1.23971 0
M  V30 19427 O 1763.57 1.10759 -1.41889 0
M  V30 19428 H 1759.94 0.219212 -0.71934 0
M  V30 19429 H 1761.91 0.0173061 -2.98395 0
M  V30 19430 C 1760.66 1.79301 -2.97903 0
M  V30 19431 H 1759.98 1.39266 -3.7476 0
M  V30 19432 H 1761.42 2.40038 -3.49511 0
M  V30 19433 C 1759.88 2.68405 -2.03618 0
M  V30 19434 O 1760.41 3.68887 -1.59014 0
M  V30 19435 N 1758.62 2.35666 -1.70028 0
M  V30 19436 H 1758.17 1.54003 -2.06497 0
M  V30 19437 H 1758.12 2.95554 -1.07215 0
M  V30 19438 N 1761.9 1.57599 -0.0067085 0
M  V30 19439 C 1762.83 2.05706 1.01084 0
M  V30 19440 C 1763.84 0.976216 1.30284 0
M  V30 19441 O 1765.03 1.25288 1.27142 0
M  V30 19442 C 1762.13 2.44771 2.34393 0
M  V30 19443 C 1761.3 3.75668 2.24036 0
M  V30 19444 C 1760.36 4.01528 3.4009 0
M  V30 19445 O 1759.39 4.72101 3.17977 0
M  V30 19446 N 1760.59 3.49947 4.6316 0
M  V30 19447 H 1763.35 2.93622 0.600532 0
M  V30 19448 H 1760.92 1.6089 0.180536 0
M  V30 19449 H 1762.91 2.5918 3.10818 0
M  V30 19450 H 1761.48 1.62339 2.67142 0
M  V30 19451 H 1760.7 3.71272 1.3248 0
M  V30 19452 H 1761.99 4.6147 2.14295 0
M  V30 19453 H 1761.38 2.92811 4.84023 0
M  V30 19454 H 1759.94 3.69675 5.36828 0
M  V30 19455 N 1763.37 -0.266145 1.55336 0
M  V30 19456 C 1764.32 -1.349 1.89485 0
M  V30 19457 C 1765.32 -1.50792 0.771882 0
M  V30 19458 O 1766.52 -1.52495 0.956302 0
M  V30 19459 H 1762.9 -0.451312 0.601516 0
M  V30 19460 H 1764.87 -1.03354 2.7993 0
M  V30 19461 C 1763.62 -2.70119 2.18931 0
M  V30 19462 H 1762.94 -2.58684 3.04832 0
M  V30 19463 H 1764.38 -3.44811 2.46742 0
M  V30 19464 C 1762.84 -3.21742 0.999177 0
M  V30 19465 O 1763.37 -4.00998 0.237304 0
M  V30 19466 N 1761.57 -2.79514 0.795013 0
M  V30 19467 H 1761.12 -2.15175 1.41625 0
M  V30 19468 H 1761.08 -3.144 0.000343733 0
M  V30 19469 N 1764.85 -1.48386 -0.530967 0
M  V30 19470 C 1766.1 -1.55608 -1.28332 0
M  V30 19471 C 1766.41 -0.234479 -1.94189 0
M  V30 19472 O 1767.62 -0.184926 -2.70869 0
M  V30 19473 C 1766.08 -2.74423 -2.32852 0
M  V30 19474 C 1765.68 -4.13221 -1.73068 0
M  V30 19475 C 1767.43 -2.90956 -3.09103 0
M  V30 19476 C 1765.33 -5.23299 -2.75522 0
M  V30 19477 H 1764.26 -0.579291 -0.482637 0
M  V30 19478 H 1766.92 -1.74718 -0.560885 0
M  V30 19479 H 1765.3 -2.48745 -3.08126 0
M  V30 19480 H 1766.47 -4.48913 -1.03989 0
M  V30 19481 H 1764.79 -4.01796 -1.09312 0
M  V30 19482 H 1767.38 -3.70363 -3.85662 0
M  V30 19483 H 1767.73 -2.00376 -3.64905 0
M  V30 19484 H 1768.26 -3.1653 -2.40943 0
M  V30 19485 H 1765 -6.15842 -2.24542 0
M  V30 19486 H 1764.52 -4.92095 -3.42932 0
M  V30 19487 H 1766.2 -5.5137 -3.38526 0
M  V30 19488 N 1766.33 0.779763 -1.36958 0
M  V30 19489 C 1767.26 1.90687 -1.34762 0
M  V30 19490 C 1768.24 1.68704 -0.217508 0
M  V30 19491 O 1769.43 1.89678 -0.416639 0
M  V30 19492 C 1766.56 3.27854 -1.14582 0
M  V30 19493 C 1765.51 3.64383 -2.2452 0
M  V30 19494 C 1764.84 5.00004 -1.89473 0
M  V30 19495 C 1766.14 3.71963 -3.66662 0
M  V30 19496 H 1767.83 1.92781 -2.29076 0
M  V30 19497 H 1765.38 0.926102 -1.10269 0
M  V30 19498 H 1767.33 4.06332 -1.11678 0
M  V30 19499 H 1766.05 3.26172 -0.167218 0
M  V30 19500 H 1764.71 2.88207 -2.26566 0
M  V30 19501 H 1764.36 4.94853 -0.901617 0
M  V30 19502 H 1764.06 5.25414 -2.63085 0
M  V30 19503 H 1765.58 5.80892 -1.88141 0
M  V30 19504 H 1767 4.40611 -3.6679 0
M  V30 19505 H 1765.39 4.08864 -4.39261 0
M  V30 19506 H 1766.46 2.72824 -4.00868 0
M  V30 19507 N 1767.81 1.21396 1.00503 0
M  V30 19508 C 1768.76 0.97023 2.11398 0
M  V30 19509 C 1769.75 -0.0825019 1.69199 0
M  V30 19510 O 1770.96 0.0688841 1.79868 0
M  V30 19511 H 1767.33 0.296494 0.691083 0
M  V30 19512 H 1769.3 1.91155 2.29134 0
M  V30 19513 C 1768.05 0.551472 3.43299 0
M  V30 19514 H 1767.37 1.35316 3.76204 0
M  V30 19515 H 1768.81 0.420249 4.21912 0
M  V30 19516 C 1767.27 -0.737588 3.28727 0
M  V30 19517 O 1767.8 -1.79313 3.59458 0
M  V30 19518 N 1766.01 -0.704084 2.81942 0
M  V30 19519 H 1765.56 0.155183 2.57132 0
M  V30 19520 H 1765.51 -1.56689 2.72573 0
M  V30 19521 N 1769.29 -1.19996 1.0217 0
M  V30 19522 C 1770.23 -2.22963 0.596318 0
M  V30 19523 C 1771.2 -1.61548 -0.386212 0
M  V30 19524 O 1772.39 -1.88667 -0.284497 0
M  V30 19525 C 1769.53 -3.45058 -0.054059 0
M  V30 19526 C 1768.64 -4.20885 0.973648 0
M  V30 19527 C 1767.78 -5.30387 0.293788 0
M  V30 19528 C 1766.81 -5.97964 1.3079 0
M  V30 19529 N 1765.95 -6.99044 0.654351 0
M  V30 19530 H 1770.79 -2.58709 1.47898 0
M  V30 19531 H 1768.33 -1.27117 0.740254 0
M  V30 19532 H 1770.29 -4.14784 -0.448313 0
M  V30 19533 H 1768.92 -3.0999 -0.900342 0
M  V30 19534 H 1767.97 -3.50174 1.48602 0
M  V30 19535 H 1769.28 -4.67292 1.7447 0
M  V30 19536 H 1768.43 -6.065 -0.155695 0
M  V30 19537 H 1767.17 -4.85031 -0.509521 0
M  V30 19538 H 1766.18 -5.20607 1.76772 0
M  V30 19539 H 1767.4 -6.45404 2.11258 0
M  V30 19540 H 1765.35 -6.55873 -0.128996 0
M  V30 19541 H 1765.27 -7.43605 1.36339 0
M  V30 19542 H 1766.53 -7.79165 0.228631 0
M  V30 19543 N 1770.76 -0.798611 -1.35867 0
M  V30 19544 C 1771.7 -0.161203 -2.28632 0
M  V30 19545 C 1772.71 0.634886 -1.4991 0
M  V30 19546 O 1773.9 0.468557 -1.72241 0
M  V30 19547 C 1771 0.794407 -3.29458 0
M  V30 19548 C 1770.17 0.0464031 -4.37375 0
M  V30 19549 C 1769.23 0.919313 -5.18107 0
M  V30 19550 O 1768.26 0.373179 -5.67975 0
M  V30 19551 N 1769.46 2.24243 -5.35439 0
M  V30 19552 H 1772.22 -0.958079 -2.83973 0
M  V30 19553 H 1769.78 -0.653344 -1.48132 0
M  V30 19554 H 1771.78 1.38242 -3.80357 0
M  V30 19555 H 1770.35 1.49212 -2.7469 0
M  V30 19556 H 1769.57 -0.722757 -3.87518 0
M  V30 19557 H 1770.85 -0.469417 -5.0663 0
M  V30 19558 H 1770.25 2.71017 -4.96554 0
M  V30 19559 H 1768.81 2.77986 -5.89548 0
M  V30 19560 N 1772.24 1.47639 -0.551417 0
M  V30 19561 C 1773.47 2.07381 -0.0278888 0
M  V30 19562 C 1773.89 1.40223 1.25375 0
M  V30 19563 O 1773.25 0.475268 1.7496 0
M  V30 19564 C 1773.3 3.60258 0.157001 0
M  V30 19565 O 1772.4 3.93913 1.2209 0
M  V30 19566 H 1771.74 0.66221 -0.0487252 0
M  V30 19567 H 1774.27 1.89742 -0.765449 0
M  V30 19568 H 1774.28 4.06291 0.373013 0
M  V30 19569 H 1772.96 4.08537 -0.779122 0
M  V30 19570 H 1771.53 3.59633 0.985843 0
M  V30 19571 N 1773.72 0.287581 1.54954 0
M  V30 19572 C 1774.65 -0.587855 2.25979 0
M  V30 19573 C 1775.63 -1.14884 1.25442 0
M  V30 19574 O 1776.82 -1.18067 1.54188 0
M  V30 19575 C 1773.95 -1.76618 2.99037 0
M  V30 19576 C 1772.9 -1.33617 4.06609 0
M  V30 19577 C 1772.23 -2.59859 4.67309 0
M  V30 19578 C 1773.53 -0.477219 5.20115 0
M  V30 19579 H 1775.22 0.00450183 2.994 0
M  V30 19580 H 1772.77 0.00360521 1.44 0
M  V30 19581 H 1774.72 -2.38461 3.4744 0
M  V30 19582 H 1773.44 -2.38457 2.23172 0
M  V30 19583 H 1772.1 -0.74088 3.59036 0
M  V30 19584 H 1771.75 -3.19983 3.88098 0
M  V30 19585 H 1771.45 -2.31793 5.3995 0
M  V30 19586 H 1772.97 -3.22528 5.18467 0
M  V30 19587 H 1774.39 -1.00096 5.64494 0
M  V30 19588 H 1772.79 -0.290913 5.99394 0
M  V30 19589 H 1773.86 0.500993 4.82305 0
M  V30 19590 N 1775.2 -1.57593 0.0150662 0
M  V30 19591 C 1776.15 -2.0936 -0.971443 0
M  V30 19592 C 1777.12 -0.992416 -1.33193 0
M  V30 19593 O 1778.3 -1.26577 -1.42769 0
M  V30 19594 C 1775.44 -2.61386 -2.25324 0
M  V30 19595 C 1774.55 -3.85462 -1.95046 0
M  V30 19596 C 1773.69 -4.25934 -3.17418 0
M  V30 19597 C 1772.73 -5.42805 -2.82894 0
M  V30 19598 N 1771.86 -5.78499 -3.97848 0
M  V30 19599 H 1776.7 -2.93373 -0.523068 0
M  V30 19600 H 1774.24 -1.45018 -0.246605 0
M  V30 19601 H 1776.2 -2.89635 -3.00279 0
M  V30 19602 H 1774.83 -1.80225 -2.67804 0
M  V30 19603 H 1773.88 -3.64029 -1.10394 0
M  V30 19604 H 1775.19 -4.70505 -1.6561 0
M  V30 19605 H 1774.35 -4.55544 -4.00705 0
M  V30 19606 H 1773.09 -3.3963 -3.50004 0
M  V30 19607 H 1772.09 -5.12903 -1.98016 0
M  V30 19608 H 1773.32 -6.30797 -2.51539 0
M  V30 19609 H 1771.26 -4.95152 -4.30303 0
M  V30 19610 H 1771.18 -6.5815 -3.71988 0
M  V30 19611 H 1772.45 -6.12708 -4.8188 0
M  V30 19612 N 1776.68 0.257904 -1.55475 0
M  V30 19613 C 1777.93 0.985329 -1.75995 0
M  V30 19614 C 1778.24 1.86898 -0.57694 0
M  V30 19615 O 1779.44 2.63233 -0.664893 0
M  V30 19616 C 1777.9 1.80195 -3.11541 0
M  V30 19617 C 1777.51 0.966227 -4.37456 0
M  V30 19618 C 1779.25 2.52277 -3.41404 0
M  V30 19619 C 1777.16 1.7781 -5.64037 0
M  V30 19620 H 1776.09 0.371623 -0.656058 0
M  V30 19621 H 1778.74 0.240396 -1.81919 0
M  V30 19622 H 1777.12 2.58841 -2.99695 0
M  V30 19623 H 1778.3 0.222865 -4.60261 0
M  V30 19624 H 1776.61 0.359255 -4.14847 0
M  V30 19625 H 1779.21 3.13451 -4.33189 0
M  V30 19626 H 1779.55 3.23333 -2.62224 0
M  V30 19627 H 1780.08 1.80649 -3.54416 0
M  V30 19628 H 1776.82 1.11147 -6.46008 0
M  V30 19629 H 1776.34 2.49703 -5.45352 0
M  V30 19630 H 1778.02 2.348 -6.02891 0
M  V30 19631 N 1778.15 1.48666 0.52309 0
M  V30 19632 C 1779.06 1.66396 1.65377 0
M  V30 19633 C 1780.08 0.546469 1.65196 0
M  V30 19634 O 1781.26 0.818413 1.84022 0
M  V30 19635 C 1778.32 1.70602 3.01821 0
M  V30 19636 C 1777.38 2.94028 3.12803 0
M  V30 19637 C 1776.62 2.98024 4.42739 0
M  V30 19638 O 1776.84 2.10232 5.30244 0
M  V30 19639 O 1775.77 3.90266 4.58231 0
M  V30 19640 H 1779.6 2.62138 1.53354 0
M  V30 19641 H 1777.18 1.32148 0.696948 0
M  V30 19642 H 1779.07 1.75849 3.82956 0
M  V30 19643 H 1777.74 0.780346 3.14153 0
M  V30 19644 H 1776.65 2.9431 2.30938 0
M  V30 19645 H 1777.98 3.86003 3.0539 0
M  V30 19646 N 1779.63 -0.772489 1.37369 0
M  V30 19647 C 1780.58 -1.88575 1.33073 0
M  V30 19648 C 1781.55 -1.64935 0.19641 0
M  V30 19649 O 1782.73 -1.86862 0.385651 0
M  V30 19650 C 1779.87 -3.25628 1.14281 0
M  V30 19651 C 1778.99 -3.61227 2.36936 0
M  V30 19652 C 1778.12 -4.87486 2.11023 0
M  V30 19653 C 1777.16 -5.15814 3.29548 0
M  V30 19654 N 1776.3 -6.33261 3.03191 0
M  V30 19655 H 1781.14 -1.91583 2.28255 0
M  V30 19656 H 1778.68 -0.936654 1.13425 0
M  V30 19657 H 1780.63 -4.04688 1.01407 0
M  V30 19658 H 1779.26 -3.21998 0.227467 0
M  V30 19659 H 1778.32 -2.77158 2.60552 0
M  V30 19660 H 1779.63 -3.781 3.25333 0
M  V30 19661 H 1778.78 -5.74449 1.95176 0
M  V30 19662 H 1777.52 -4.72716 1.19962 0
M  V30 19663 H 1776.53 -4.27328 3.45935 0
M  V30 19664 H 1777.75 -5.32493 4.21459 0
M  V30 19665 H 1775.7 -6.19851 2.14759 0
M  V30 19666 H 1775.61 -6.50546 3.85131 0
M  V30 19667 H 1776.88 -7.23162 2.9096 0
M  V30 19668 N 1781.11 -1.21927 -0.998575 0
M  V30 19669 C 1782.36 -1.03834 -1.73386 0
M  V30 19670 C 1782.68 0.428247 -1.90239 0
M  V30 19671 O 1781.95 1.30847 -1.45794 0
M  V30 19672 H 1780.53 -0.381225 -0.642399 0
M  V30 19673 H 1783.19 -1.53344 -1.20298 0
M  V30 19674 H 1782.29 -1.51155 -2.73054 0
M  V30 19675 N 1782.59 1.19452 -1.02805 0
M  V30 19676 C 1783.5 2.2631 -0.618147 0
M  V30 19677 C 1784.51 1.70449 0.349712 0
M  V30 19678 O 1785.69 2.00325 0.207801 0
M  V30 19679 C 1782.76 3.46691 0.0255242 0
M  V30 19680 C 1781.82 4.17735 -0.98973 0
M  V30 19681 C 1781.05 5.32369 -0.376681 0
M  V30 19682 O 1781.27 5.64467 0.820584 0
M  V30 19683 O 1780.21 5.9178 -1.09911 0
M  V30 19684 H 1784.03 2.63611 -1.50807 0
M  V30 19685 H 1781.62 1.2629 -0.798192 0
M  V30 19686 H 1783.5 4.19643 0.384464 0
M  V30 19687 H 1782.17 3.1124 0.889467 0
M  V30 19688 H 1781.08 3.46906 -1.40024 0
M  V30 19689 H 1782.41 4.57155 -1.82402 0
M  V30 19690 N 1784.07 0.805805 1.35442 0
M  V30 19691 C 1785.01 0.203715 2.31706 0
M  V30 19692 C 1786.01 -0.646084 1.56595 0
M  V30 19693 O 1787.21 -0.539336 1.7173 0
M  V30 19694 H 1783.59 0.0471152 0.750523 0
M  V30 19695 H 1785.56 1.03076 2.80032 0
M  V30 19696 C 1784.31 -0.633791 3.41875 0
M  V30 19697 H 1783.63 0.0107715 3.99799 0
M  V30 19698 H 1785.07 -1.02147 4.11512 0
M  V30 19699 C 1783.53 -1.79899 2.84847 0
M  V30 19700 O 1784.06 -2.89643 2.78334 0
M  V30 19701 N 1782.27 -1.61027 2.41906 0
M  V30 19702 H 1781.81 -0.717599 2.47403 0
M  V30 19703 H 1781.77 -2.39147 2.04099 0
M  V30 19704 N 1785.54 -1.47344 0.559239 0
M  V30 19705 C 1786.79 -2.01672 0.0337843 0
M  V30 19706 C 1787.11 -1.43883 -1.32503 0
M  V30 19707 O 1788.31 -1.89885 -1.94051 0
M  V30 19708 C 1786.77 -3.59899 0.00989925 0
M  V30 19709 C 1786.38 -4.2668 1.3656 0
M  V30 19710 C 1788.12 -4.21969 -0.462842 0
M  V30 19711 C 1786.03 -5.76919 1.30071 0
M  V30 19712 H 1784.96 -0.753948 0.00885972 0
M  V30 19713 H 1787.61 -1.69317 0.707394 0
M  V30 19714 H 1785.99 -3.89225 -0.729399 0
M  V30 19715 H 1787.16 -4.08993 2.12277 0
M  V30 19716 H 1785.48 -3.76605 1.77644 0
M  V30 19717 H 1788.08 -5.32069 -0.529816 0
M  V30 19718 H 1788.42 -3.89283 -1.47528 0
M  V30 19719 H 1788.95 -3.97182 0.221661 0
M  V30 19720 H 1785.69 -6.14227 2.28921 0
M  V30 19721 H 1785.21 -5.96937 0.585375 0
M  V30 19722 H 1786.89 -6.39168 1.00364 0
M  V30 19723 N 1787.02 -0.295795 -1.54799 0
M  V30 19724 C 1787.95 0.575863 -2.26288 0
M  V30 19725 C 1788.93 1.14217 -1.26049 0
M  V30 19726 O 1790.12 1.17248 -1.54812 0
M  V30 19727 C 1787.25 1.7503 -2.9997 0
M  V30 19728 C 1786.2 1.31459 -4.07311 0
M  V30 19729 C 1785.53 2.57377 -4.6868 0
M  V30 19730 C 1786.83 0.449629 -5.20361 0
M  V30 19731 H 1788.52 -0.0203797 -2.99393 0
M  V30 19732 H 1786.07 -0.0112418 -1.43996 0
M  V30 19733 H 1788.02 2.36615 -3.487 0
M  V30 19734 H 1786.75 2.3727 -2.24434 0
M  V30 19735 H 1785.4 0.721829 -3.59423 0
M  V30 19736 H 1785.05 3.1792 -3.89789 0
M  V30 19737 H 1784.75 2.28927 -5.41171 0
M  V30 19738 H 1786.28 3.19774 -5.2017 0
M  V30 19739 H 1787.69 0.971014 -5.65017 0
M  V30 19740 H 1786.09 0.259121 -5.9954 0
M  V30 19741 H 1787.16 -0.526564 -4.82032 0
M  V30 19742 N 1788.5 1.57583 -0.0234236 0
M  V30 19743 C 1789.43 2.06766 0.988961 0
M  V30 19744 C 1790.45 0.98998 1.29241 0
M  V30 19745 O 1791.64 1.2663 1.25806 0
M  V30 19746 C 1788.74 2.47244 2.31784 0
M  V30 19747 C 1787.91 3.78023 2.20039 0
M  V30 19748 C 1786.97 4.05113 3.35812 0
M  V30 19749 O 1785.99 4.75447 3.12952 0
M  V30 19750 N 1787.2 3.5484 4.59422 0
M  V30 19751 H 1789.96 2.94242 0.569355 0
M  V30 19752 H 1787.52 1.61073 0.163461 0
M  V30 19753 H 1789.51 2.62463 3.08051 0
M  V30 19754 H 1788.08 1.65163 2.65405 0
M  V30 19755 H 1787.3 3.72656 1.28534 0
M  V30 19756 H 1788.59 4.63717 2.09389 0
M  V30 19757 H 1787.99 2.97928 4.8089 0
M  V30 19758 H 1786.55 3.75348 5.32877 0
M  V30 19759 N 1789.98 -0.249655 1.5561 0
M  V30 19760 C 1790.91 -1.33188 1.8653 0
M  V30 19761 C 1791.92 -1.44424 0.751366 0
M  V30 19762 O 1793.11 -1.45823 1.02946 0
M  V30 19763 C 1790.21 -2.71076 2.03398 0
M  V30 19764 C 1789.39 -2.82142 3.34237 0
M  V30 19765 C 1788.45 -4.00857 3.40882 0
M  V30 19766 O 1787.47 -3.90514 4.1411 0
M  V30 19767 N 1788.67 -5.13901 2.69974 0
M  V30 19768 H 1791.44 -1.07 2.79948 0
M  V30 19769 H 1789 -0.43976 1.55813 0
M  V30 19770 H 1790.99 -3.48826 2.05188 0
M  V30 19771 H 1789.56 -2.89985 1.16738 0
M  V30 19772 H 1788.78 -1.9109 3.44788 0
M  V30 19773 H 1790.07 -2.86483 4.20481 0
M  V30 19774 H 1789.47 -5.25195 2.10206 0
M  V30 19775 H 1788.02 -5.89796 2.7746 0
M  V30 19776 N 1791.46 -1.48941 -0.515198 0
M  V30 19777 C 1792.68 -1.61656 -1.29931 0
M  V30 19778 C 1793.11 -0.282529 -1.85966 0
M  V30 19779 O 1792.47 0.747914 -1.65154 0
M  V30 19780 C 1792.51 -2.6774 -2.41553 0
M  V30 19781 O 1791.62 -2.25926 -3.45009 0
M  V30 19782 H 1790.96 -0.541561 -0.384197 0
M  V30 19783 H 1793.49 -1.95032 -0.618349 0
M  V30 19784 H 1793.5 -2.89471 -2.87525 0
M  V30 19785 H 1792.17 -3.64582 -2.00131 0
M  V30 19786 H 1790.75 -2.14469 -3.05053 0
M  V30 19787 N 1792.94 0.765193 -1.37777 0
M  V30 19788 C 1793.87 1.89247 -1.36777 0
M  V30 19789 C 1794.85 1.68463 -0.235389 0
M  V30 19790 O 1796.03 1.89225 -0.436733 0
M  V30 19791 C 1793.16 3.2662 -1.18053 0
M  V30 19792 C 1792.12 3.61981 -2.28372 0
M  V30 19793 C 1791.44 4.97967 -1.94765 0
M  V30 19794 C 1792.74 3.68053 -3.70587 0
M  V30 19795 H 1794.44 1.90341 -2.31108 0
M  V30 19796 H 1791.98 0.914355 -1.11245 0
M  V30 19797 H 1793.93 4.05125 -1.15982 0
M  V30 19798 H 1792.66 3.25976 -0.201803 0
M  V30 19799 H 1791.32 2.85788 -2.2961 0
M  V30 19800 H 1790.97 4.93869 -0.954052 0
M  V30 19801 H 1790.67 5.22594 -2.68642 0
M  V30 19802 H 1792.19 5.78864 -1.94292 0
M  V30 19803 H 1793.6 4.36696 -3.71443 0
M  V30 19804 H 1792 4.04183 -4.43572 0
M  V30 19805 H 1793.07 2.68556 -4.03739 0
M  V30 19806 N 1794.41 1.22455 0.992094 0
M  V30 19807 C 1795.36 0.99534 2.08235 0
M  V30 19808 C 1796.33 -0.0832064 1.65891 0
M  V30 19809 O 1797.52 0.0665468 1.90684 0
M  V30 19810 C 1794.66 0.580055 3.4019 0
M  V30 19811 C 1793.77 1.72946 3.95871 0
M  V30 19812 C 1792.9 1.26208 5.15989 0
M  V30 19813 C 1791.94 2.38298 5.63809 0
M  V30 19814 N 1791.08 1.92602 6.75166 0
M  V30 19815 H 1795.92 1.92861 2.27175 0
M  V30 19816 H 1793.46 0.960948 1.11374 0
M  V30 19817 H 1795.41 0.320448 4.15968 0
M  V30 19818 H 1794.04 -0.316208 3.21248 0
M  V30 19819 H 1793.1 2.10337 3.16958 0
M  V30 19820 H 1794.41 2.57257 4.27341 0
M  V30 19821 H 1793.56 0.959904 5.99058 0
M  V30 19822 H 1792.3 0.389184 4.86145 0
M  V30 19823 H 1791.31 2.69304 4.79328 0
M  V30 19824 H 1792.53 3.26105 5.95678 0
M  V30 19825 H 1790.48 1.07675 6.47103 0
M  V30 19826 H 1790.39 2.70478 7.05959 0
M  V30 19827 H 1791.66 1.65455 7.61738 0
M  V30 19828 N 1795.89 -1.18905 1.03437 0
M  V30 19829 C 1797.31 -1.4075 0.752444 0
M  V30 19830 C 1797.51 -1.90361 -0.660679 0
M  V30 19831 O 1796.56 -2.08389 -1.42584 0
M  V30 19832 C 1797.88 -2.4138 1.79321 0
M  V30 19833 C 1799.42 -2.55118 1.81339 0
M  V30 19834 C 1799.9 -3.59007 2.8439 0
M  V30 19835 N 1801.39 -3.66508 2.83242 0
M  V30 19836 C 1802.13 -4.46602 3.59631 0
M  V30 19837 N 1801.62 -5.30355 4.45753 0
M  V30 19838 N 1803.41 -4.41304 3.48148 0
M  V30 19839 H 1795.57 -0.850259 1.94639 0
M  V30 19840 H 1797.83 -0.435962 0.841808 0
M  V30 19841 H 1797.53 -2.11963 2.80651 0
M  V30 19842 H 1797.41 -3.40636 1.62008 0
M  V30 19843 H 1799.8 -2.83856 0.806847 0
M  V30 19844 H 1799.88 -1.55996 2.02728 0
M  V30 19845 H 1799.52 -3.31011 3.8522 0
M  V30 19846 H 1799.45 -4.57792 2.60258 0
M  V30 19847 H 1801.94 -3.06697 2.20784 0
M  V30 19848 H 1802.25 -5.88603 5.00766 0
M  V30 19849 H 1800.6 -5.29797 4.49823 0
M  V30 19850 H 1803.79 -3.74918 2.80275 0
M  V30 19851 H 1803.96 -5.03483 4.07932 0
M  V30 19852 N 1797.37 -0.812977 -1.35013 0
M  V30 19853 C 1798.32 -0.216001 -2.31595 0
M  V30 19854 C 1799.31 0.637771 -1.56936 0
M  V30 19855 O 1800.52 0.530221 -1.72014 0
M  V30 19856 H 1796.89 -0.0510947 -0.750262 0
M  V30 19857 H 1798.86 -1.04559 -2.79482 0
M  V30 19858 C 1797.61 0.615651 -3.42206 0
M  V30 19859 H 1796.94 -0.0319737 -3.99787 0
M  V30 19860 H 1798.38 0.99963 -4.12048 0
M  V30 19861 C 1796.83 1.78386 -2.85797 0
M  V30 19862 O 1797.36 2.88163 -2.79866 0
M  V30 19863 N 1795.57 1.59742 -2.42757 0
M  V30 19864 H 1795.12 0.704468 -2.4778 0
M  V30 19865 H 1795.08 2.38061 -2.05364 0
M  V30 19866 N 1798.85 1.47045 -0.567045 0
M  V30 19867 C 1800.1 2.02046 -0.0465877 0
M  V30 19868 C 1800.42 1.44271 1.3119 0
M  V30 19869 O 1799.69 0.621533 1.85779 0
M  V30 19870 H 1798.27 0.746864 -0.0142323 0
M  V30 19871 H 1800.93 1.80335 -0.739281 0
M  V30 19872 H 1800.02 3.12081 0.0341623 0
M  V30 19873 N 1800.33 0.304 1.5464 0
M  V30 19874 C 1801.27 -0.570762 2.23631 0
M  V30 19875 C 1802.24 -1.1272 1.21998 0
M  V30 19876 O 1803.43 -1.17117 1.50626 0
M  V30 19877 C 1800.57 -1.73533 2.98296 0
M  V30 19878 C 1799.68 -1.21 4.14708 0
M  V30 19879 C 1798.82 -2.33867 4.76948 0
M  V30 19880 C 1797.85 -1.78483 5.855 0
M  V30 19881 N 1796.99 -2.84935 6.41682 0
M  V30 19882 H 1801.83 0.024168 2.9799 0
M  V30 19883 H 1799.37 0.023697 1.47081 0
M  V30 19884 H 1801.33 -2.42031 3.39819 0
M  V30 19885 H 1799.96 -2.30184 2.26308 0
M  V30 19886 H 1799.01 -0.41718 3.78105 0
M  V30 19887 H 1800.32 -0.764576 4.92905 0
M  V30 19888 H 1799.47 -3.10306 5.21339 0
M  V30 19889 H 1798.21 -2.81737 3.9809 0
M  V30 19890 H 1797.22 -1.00534 5.4053 0
M  V30 19891 H 1798.44 -1.31513 6.66244 0
M  V30 19892 H 1796.39 -3.32133 5.65706 0
M  V30 19893 H 1796.31 -2.44898 7.15235 0
M  V30 19894 H 1797.57 -3.61263 6.90731 0
M  V30 19895 N 1801.8 -1.57568 0.0317802 0
M  V30 19896 C 1803.05 -1.91087 -0.645639 0
M  V30 19897 C 1803.37 -0.910108 -1.73137 0
M  V30 19898 O 1804.57 -1.13665 -2.46562 0
M  V30 19899 C 1803.03 -3.39317 -1.19966 0
M  V30 19900 C 1802.64 -4.47759 -0.147068 0
M  V30 19901 C 1804.38 -3.81901 -1.85343 0
M  V30 19902 C 1802.29 -5.87088 -0.712872 0
M  V30 19903 H 1801.22 -0.713112 -0.244923 0
M  V30 19904 H 1803.87 -1.83241 0.0975145 0
M  V30 19905 H 1802.25 -3.42105 -1.99451 0
M  V30 19906 H 1803.42 -4.56535 0.625518 0
M  V30 19907 H 1801.74 -4.14395 0.408109 0
M  V30 19908 H 1804.34 -4.83352 -2.28636 0
M  V30 19909 H 1804.68 -3.17104 -2.69724 0
M  V30 19910 H 1805.21 -3.81548 -1.12544 0
M  V30 19911 H 1801.95 -6.55434 0.0928582 0
M  V30 19912 H 1801.47 -5.81913 -1.45388 0
M  V30 19913 H 1803.15 -6.3574 -1.20179 0
M  V30 19914 N 1803.28 0.241399 -1.5574 0
M  V30 19915 C 1804.53 0.966607 -1.7703 0
M  V30 19916 C 1804.84 1.86275 -0.59673 0
M  V30 19917 O 1806.05 2.62513 -0.692775 0
M  V30 19918 C 1804.51 1.7688 -3.13435 0
M  V30 19919 C 1804.11 0.919775 -4.38457 0
M  V30 19920 C 1805.86 2.48641 -3.44061 0
M  V30 19921 C 1803.77 1.71817 -5.65891 0
M  V30 19922 H 1802.7 0.364644 -0.659963 0
M  V30 19923 H 1805.35 0.221088 -1.82163 0
M  V30 19924 H 1803.73 2.55648 -3.02424 0
M  V30 19925 H 1804.9 0.174036 -4.60471 0
M  V30 19926 H 1803.22 0.315234 -4.15205 0
M  V30 19927 H 1805.81 3.08839 -4.36489 0
M  V30 19928 H 1806.16 3.20534 -2.65638 0
M  V30 19929 H 1806.69 1.7688 -3.56312 0
M  V30 19930 H 1803.43 1.04289 -6.47151 0
M  V30 19931 H 1802.95 2.43905 -5.47969 0
M  V30 19932 H 1804.63 2.28392 -6.05348 0
M  V30 19933 N 1804.76 1.49212 0.507292 0
M  V30 19934 C 1806.04 1.4888 1.26863 0
M  V30 19935 C 1806.42 0.213007 2.10023 0
M  V30 19936 O 1805.77 -0.804785 2.13858 0
M  V30 19937 C 1805.98 2.76407 2.13073 0
M  V30 19938 C 1807.32 3.25647 2.72468 0
M  V30 19939 O 1808.35 2.77481 2.23344 0
M  V30 19940 O 1807.21 4.09518 3.6188 0
M  V30 19941 H 1804.3 0.595597 0.573754 0
M  V30 19942 H 1806.85 1.6147 0.52208 0
M  V30 19943 H 1805.62 3.60758 1.51558 0
M  V30 19944 H 1805.24 2.66648 2.94932 0
M  V30 19945 N 1806.24 -0.757876 1.38181 0
M  V30 19946 C 1807.49 -1.51688 1.34153 0
M  V30 19947 C 1807.81 -1.94375 -0.0697487 0
M  V30 19948 O 1807.07 -1.65404 -1.04594 0
M  V30 19949 C 1807.37 -2.78548 2.23933 0
M  V30 19950 C 1807.03 -2.54845 3.71975 0
M  V30 19951 C 1805.7 -2.48089 4.12317 0
M  V30 19952 C 1808.05 -2.34027 4.65704 0
M  V30 19953 C 1805.38 -2.18526 5.44485 0
M  V30 19954 C 1807.73 -2.05986 5.98124 0
M  V30 19955 C 1806.39 -1.97683 6.37556 0
M  V30 19956 H 1805.66 -0.555064 0.490902 0
M  V30 19957 H 1808.31 -0.871823 1.70504 0
M  V30 19958 H 1806.61 -3.47682 1.80623 0
M  V30 19959 H 1808.31 -3.36487 2.18122 0
M  V30 19960 H 1804.9 -2.60972 3.39988 0
M  V30 19961 H 1809.08 -2.38228 4.35386 0
M  V30 19962 H 1804.34 -2.10603 5.73983 0
M  V30 19963 H 1808.51 -1.8888 6.70296 0
M  V30 19964 H 1806.14 -1.7454 7.39892 0
M  V30 19965 N 1807.72 -1.22979 -0.985586 0
M  V30 19966 C 1808.97 -1.05286 -1.7204 0
M  V30 19967 C 1809.28 0.411213 -1.91229 0
M  V30 19968 O 1810.48 0.70797 -2.62107 0
M  V30 19969 C 1808.94 -1.8355 -3.09576 0
M  V30 19970 C 1808.55 -3.34254 -2.98293 0
M  V30 19971 C 1810.29 -1.74329 -3.87052 0
M  V30 19972 C 1808.2 -4.0493 -4.31029 0
M  V30 19973 H 1807.13 -0.390364 -0.645083 0
M  V30 19974 H 1809.78 -1.46898 -1.09969 0
M  V30 19975 H 1808.16 -1.34741 -3.72372 0
M  V30 19976 H 1809.34 -3.90511 -2.44618 0
M  V30 19977 H 1807.65 -3.44231 -2.34294 0
M  V30 19978 H 1810.25 -2.24449 -4.85311 0
M  V30 19979 H 1810.59 -0.705078 -4.10286 0
M  V30 19980 H 1811.12 -2.20721 -3.30949 0
M  V30 19981 H 1807.86 -5.09035 -4.12993 0
M  V30 19982 H 1807.38 -3.5346 -4.84588 0
M  V30 19983 H 1809.06 -4.10935 -4.99742 0
M  V30 19984 N 1809.19 1.18355 -1.04066 0
M  V30 19985 C 1810.61 1.40349 -0.759898 0
M  V30 19986 C 1810.81 1.90709 0.650574 0
M  V30 19987 O 1809.87 2.09142 1.41477 0
M  V30 19988 C 1811.18 2.40426 -1.80599 0
M  V30 19989 C 1812.73 2.54153 -1.8269 0
M  V30 19990 C 1813.2 3.57494 -2.8629 0
M  V30 19991 N 1814.69 3.65001 -2.85181 0
M  V30 19992 C 1815.43 4.44688 -3.61995 0
M  V30 19993 N 1814.92 5.27984 -4.48559 0
M  V30 19994 N 1816.72 4.39451 -3.50484 0
M  V30 19995 H 1808.87 0.839924 -1.95087 0
M  V30 19996 H 1811.13 0.431492 -0.844108 0
M  V30 19997 H 1810.84 2.10471 -2.81771 0
M  V30 19998 H 1810.71 3.39773 -1.63812 0
M  V30 19999 H 1813.1 2.83424 -0.821889 0
M  V30 20000 H 1813.18 1.54919 -2.03553 0
M  V30 20001 H 1812.82 3.28963 -3.8697 0
M  V30 20002 H 1812.75 4.56405 -2.62682 0
M  V30 20003 H 1815.24 3.05522 -2.22407 0
M  V30 20004 H 1815.56 5.85939 -5.0388 0
M  V30 20005 H 1813.9 5.27404 -4.52626 0
M  V30 20006 H 1817.09 3.73426 -2.8226 0
M  V30 20007 H 1817.27 5.01313 -4.10596 0
M  V30 20008 N 1810.67 0.820125 1.3458 0
M  V30 20009 C 1811.9 0.419764 2.02597 0
M  V30 20010 C 1812.32 -0.973439 1.6177 0
M  V30 20011 O 1811.67 -1.6295 0.821791 0
M  V30 20012 C 1811.72 0.509104 3.57897 0
M  V30 20013 O 1811.44 1.84739 3.97244 0
M  V30 20014 C 1812.95 0.103283 4.4318 0
M  V30 20015 H 1810.17 0.168803 0.64942 0
M  V30 20016 H 1812.71 1.10751 1.71914 0
M  V30 20017 H 1810.86 -0.130526 3.8718 0
M  V30 20018 H 1811.28 1.81967 4.91923 0
M  V30 20019 H 1812.75 0.216884 5.51574 0
M  V30 20020 H 1813.23 -0.952888 4.28738 0
M  V30 20021 H 1813.84 0.716601 4.19219 0
M  V30 20022 N 1812.15 -1.46743 0.574835 0
M  V30 20023 C 1813.4 -2.02019 0.057302 0
M  V30 20024 C 1813.72 -1.44965 -1.30423 0
M  V30 20025 O 1812.99 -0.631377 -1.85447 0
M  V30 20026 H 1811.57 -0.746778 0.018193 0
M  V30 20027 H 1814.23 -1.7994 0.748834 0
M  V30 20028 H 1813.33 -3.12095 -0.0176114 0
M  V30 20029 N 1813.63 -0.312197 -1.54477 0
M  V30 20030 C 1814.58 0.57453 -2.25393 0
M  V30 20031 C 1815.57 1.12789 -1.26392 0
M  V30 20032 O 1816.78 1.07724 -1.44207 0
M  V30 20033 H 1813.15 0.203904 -0.723828 0
M  V30 20034 H 1815.12 -0.0459918 -2.98365 0
M  V30 20035 C 1813.87 1.72942 -3.01639 0
M  V30 20036 H 1813.19 1.31286 -3.7763 0
M  V30 20037 H 1814.63 2.3257 -3.54524 0
M  V30 20038 C 1813.09 2.64026 -2.09266 0
M  V30 20039 O 1813.62 3.65431 -1.66803 0
M  V30 20040 N 1811.83 2.32007 -1.74989 0
M  V30 20041 H 1811.38 1.49588 -2.09717 0
M  V30 20042 H 1811.33 2.93213 -1.1346 0
M  V30 20043 N 1815.11 1.57549 -0.040136 0
M  V30 20044 C 1816.36 1.91427 0.635496 0
M  V30 20045 C 1816.67 0.919277 1.72652 0
M  V30 20046 O 1817.87 1.14971 2.45955 0
M  V30 20047 C 1816.33 3.39949 1.18164 0
M  V30 20048 C 1815.94 4.4783 0.12332 0
M  V30 20049 C 1817.68 3.82878 1.83315 0
M  V30 20050 C 1815.59 5.87458 0.681727 0
M  V30 20051 H 1814.52 0.714401 0.241138 0
M  V30 20052 H 1817.17 1.83186 -0.107231 0
M  V30 20053 H 1815.55 3.43157 1.97633 0
M  V30 20054 H 1816.73 4.56197 -0.64972 0
M  V30 20055 H 1815.04 4.14173 -0.43008 0
M  V30 20056 H 1817.64 4.84558 2.2607 0
M  V30 20057 H 1817.98 3.1853 2.68038 0
M  V30 20058 H 1818.51 3.82139 1.10519 0
M  V30 20059 H 1815.25 6.55376 -0.127616 0
M  V30 20060 H 1814.77 5.82675 1.423 0
M  V30 20061 H 1816.45 6.36369 1.16806 0
M  V30 20062 N 1816.58 -0.233136 1.55866 0
M  V30 20063 C 1817.81 -0.980602 1.82754 0
M  V30 20064 C 1818.23 -1.77624 0.618988 0
M  V30 20065 O 1817.59 -1.76074 -0.432148 0
M  V30 20066 C 1817.64 -1.88319 3.07519 0
M  V30 20067 O 1816.74 -2.97692 2.85401 0
M  V30 20068 H 1816.09 -0.278295 0.602867 0
M  V30 20069 H 1818.62 -0.249956 2.03067 0
M  V30 20070 H 1818.63 -2.29523 3.37318 0
M  V30 20071 H 1817.3 -1.29831 3.95116 0
M  V30 20072 H 1815.88 -2.60517 2.66805 0
M  V30 20073 N 1818.06 -1.49479 -0.499372 0
M  V30 20074 C 1819.29 -1.6276 -1.27738 0
M  V30 20075 C 1819.71 -0.299635 -1.86407 0
M  V30 20076 O 1819.06 0.715092 -1.67907 0
M  V30 20077 C 1819.11 -2.69762 -2.40647 0
M  V30 20078 O 1818.84 -3.97407 -1.84388 0
M  V30 20079 C 1820.34 -2.93762 -3.31992 0
M  V30 20080 H 1817.56 -0.547893 -0.387368 0
M  V30 20081 H 1820.1 -1.95522 -0.599292 0
M  V30 20082 H 1818.26 -2.39773 -3.04282 0
M  V30 20083 H 1818.67 -4.56361 -2.58525 0
M  V30 20084 H 1820.14 -3.72361 -4.07494 0
M  V30 20085 H 1820.62 -2.0374 -3.89085 0
M  V30 20086 H 1821.23 -3.25173 -2.74122 0
M  V30 20087 N 1819.54 0.750537 -1.38581 0
M  V30 20088 C 1820.77 1.54489 -1.38376 0
M  V30 20089 C 1821.19 1.88085 0.023634 0
M  V30 20090 O 1820.55 1.50794 1.00652 0
M  V30 20091 C 1820.6 2.81875 -2.24897 0
M  V30 20092 O 1819.7 3.77155 -1.66817 0
M  V30 20093 H 1819.04 0.467148 -0.471878 0
M  V30 20094 H 1821.57 0.927264 -1.82381 0
M  V30 20095 H 1821.58 3.30769 -2.38864 0
M  V30 20096 H 1820.26 2.56753 -3.27186 0
M  V30 20097 H 1818.83 3.35868 -1.62009 0
M  V30 20098 N 1821.02 1.235 0.979051 0
M  V30 20099 C 1821.95 1.04183 2.08969 0
M  V30 20100 C 1822.93 -0.041685 1.70049 0
M  V30 20101 O 1824.12 0.123217 1.93809 0
M  V30 20102 C 1821.25 0.633696 3.4147 0
M  V30 20103 C 1820.2 1.66471 3.94299 0
M  V30 20104 C 1819.53 1.11198 5.2301 0
M  V30 20105 C 1820.83 3.05804 4.23416 0
M  V30 20106 H 1822.52 1.9708 2.25388 0
M  V30 20107 H 1820.07 0.948963 1.08308 0
M  V30 20108 H 1822.02 0.485599 4.18593 0
M  V30 20109 H 1820.74 -0.330958 3.24919 0
M  V30 20110 H 1819.4 1.80082 3.19321 0
M  V30 20111 H 1819.05 0.138264 5.0281 0
M  V30 20112 H 1818.75 1.80087 5.59323 0
M  V30 20113 H 1820.27 0.975759 6.02753 0
M  V30 20114 H 1821.69 2.95487 4.91284 0
M  V30 20115 H 1820.08 3.71944 4.70933 0
M  V30 20116 H 1821.15 3.54695 3.30635 0
M  V30 20117 N 1822.5 -1.17802 1.04693 0
M  V30 20118 C 1823.44 -2.21648 0.643478 0
M  V30 20119 C 1824.41 -1.6233 -0.351858 0
M  V30 20120 O 1825.6 -1.89228 -0.244414 0
M  V30 20121 C 1822.74 -3.45095 0.019145 0
M  V30 20122 C 1821.85 -4.18725 1.06271 0
M  V30 20123 C 1820.99 -5.29644 0.406224 0
M  V30 20124 C 1820.03 -5.95055 1.43444 0
M  V30 20125 N 1819.16 -6.97499 0.802482 0
M  V30 20126 H 1824 -2.55513 1.53352 0
M  V30 20127 H 1821.54 -1.25518 0.767051 0
M  V30 20128 H 1823.5 -4.15642 -0.36023 0
M  V30 20129 H 1822.13 -3.1183 -0.834386 0
M  V30 20130 H 1821.18 -3.46943 1.55996 0
M  V30 20131 H 1822.49 -4.63486 1.84342 0
M  V30 20132 H 1821.65 -6.06694 -0.027012 0
M  V30 20133 H 1820.39 -4.86003 -0.406525 0
M  V30 20134 H 1819.39 -5.1674 1.87775 0
M  V30 20135 H 1820.62 -6.40778 2.249 0
M  V30 20136 H 1818.56 -6.55999 0.010153 0
M  V30 20137 H 1818.48 -7.40545 1.52081 0
M  V30 20138 H 1819.75 -7.78504 0.393852 0
M  V30 20139 N 1823.98 -0.827251 -1.34143 0
M  V30 20140 C 1824.91 -0.267015 -2.31968 0
M  V30 20141 C 1825.89 0.618906 -1.58441 0
M  V30 20142 O 1827.07 0.544882 -1.86399 0
M  V30 20143 C 1824.2 0.568379 -3.42617 0
M  V30 20144 C 1823.16 -0.220767 -4.2743 0
M  V30 20145 C 1822.48 0.737643 -5.29587 0
M  V30 20146 C 1823.78 -1.43137 -5.02304 0
M  V30 20147 H 1825.48 -1.08436 -2.79073 0
M  V30 20148 H 1823.02 -0.522879 -1.34171 0
M  V30 20149 H 1824.97 0.970525 -4.10072 0
M  V30 20150 H 1823.7 1.41882 -2.94172 0
M  V30 20151 H 1822.36 -0.604333 -3.61585 0
M  V30 20152 H 1822.01 1.58416 -4.77403 0
M  V30 20153 H 1821.71 0.213815 -5.87211 0
M  V30 20154 H 1823.23 1.13755 -5.9991 0
M  V30 20155 H 1824.64 -1.10301 -5.62589 0
M  V30 20156 H 1823.04 -1.89115 -5.69522 0
M  V30 20157 H 1824.11 -2.2073 -4.31748 0
M  V30 20158 N 1825.45 1.46436 -0.582609 0
M  V30 20159 C 1826.7 2.01592 -0.0658642 0
M  V30 20160 C 1827.02 1.45972 1.30198 0
M  V30 20161 O 1828.22 1.92948 1.91006 0
M  V30 20162 C 1826.68 3.59837 -0.0671547 0
M  V30 20163 C 1826.29 4.24453 -1.43331 0
M  V30 20164 C 1828.03 4.22652 0.395652 0
M  V30 20165 C 1825.94 5.74777 -1.39233 0
M  V30 20166 H 1824.87 0.753712 -0.0208533 0
M  V30 20167 H 1827.52 1.6817 -0.734241 0
M  V30 20168 H 1825.9 3.90336 0.667385 0
M  V30 20169 H 1827.07 4.05564 -2.18757 0
M  V30 20170 H 1825.39 3.73732 -1.83613 0
M  V30 20171 H 1827.99 5.32844 0.445101 0
M  V30 20172 H 1828.33 3.91581 1.41316 0
M  V30 20173 H 1828.86 3.96779 -0.284821 0
M  V30 20174 H 1825.6 6.10508 -2.38664 0
M  V30 20175 H 1825.12 5.9593 -0.680268 0
M  V30 20176 H 1826.8 6.37491 -1.1052 0
M  V30 20177 N 1826.93 0.320385 1.54309 0
M  V30 20178 C 1828.16 -0.28794 2.05391 0
M  V30 20179 C 1828.58 -1.45249 1.19517 0
M  V30 20180 O 1827.94 -1.80154 0.203556 0
M  V30 20181 C 1827.99 -0.703261 3.53676 0
M  V30 20182 O 1827.09 -1.80598 3.70753 0
M  V30 20183 H 1826.43 -0.052589 0.661914 0
M  V30 20184 H 1828.96 0.46787 1.99179 0
M  V30 20185 H 1828.97 -0.986793 3.95887 0
M  V30 20186 H 1827.65 0.148514 4.15635 0
M  V30 20187 H 1826.22 -1.5215 3.40448 0
M  V30 20188 N 1828.41 -1.57525 0.0484906 0
M  V30 20189 C 1829.36 -2.11374 -0.926816 0
M  V30 20190 C 1830.33 -1.02045 -1.31058 0
M  V30 20191 O 1831.51 -1.29577 -1.40052 0
M  V30 20192 C 1828.65 -2.66107 -2.19729 0
M  V30 20193 C 1827.76 -3.89513 -1.86826 0
M  V30 20194 C 1826.9 -4.32571 -3.08312 0
M  V30 20195 C 1825.94 -5.48684 -2.71317 0
M  V30 20196 N 1825.08 -5.86808 -3.85488 0
M  V30 20197 H 1829.92 -2.94417 -0.460721 0
M  V30 20198 H 1827.45 -1.45509 -0.215789 0
M  V30 20199 H 1829.41 -2.95939 -2.94068 0
M  V30 20200 H 1828.04 -1.85865 -2.63921 0
M  V30 20201 H 1827.09 -3.66289 -1.02647 0
M  V30 20202 H 1828.4 -4.73912 -1.55592 0
M  V30 20203 H 1827.56 -4.63941 -3.90952 0
M  V30 20204 H 1826.3 -3.46978 -3.42721 0
M  V30 20205 H 1825.3 -5.16988 -1.87092 0
M  V30 20206 H 1826.53 -6.35991 -2.38102 0
M  V30 20207 H 1824.47 -5.04168 -4.19703 0
M  V30 20208 H 1824.39 -6.65892 -3.57944 0
M  V30 20209 H 1825.66 -6.22792 -4.68776 0
M  V30 20210 N 1829.89 0.224867 -1.55988 0
M  V30 20211 C 1830.83 1.27865 -1.92144 0
M  V30 20212 C 1831.8 1.46741 -0.778228 0
M  V30 20213 O 1832.99 1.60364 -1.03383 0
M  V30 20214 C 1830.13 2.62468 -2.24063 0
M  V30 20215 C 1829.24 2.51419 -3.51301 0
M  V30 20216 C 1828.38 3.78523 -3.72684 0
M  V30 20217 C 1827.42 3.62182 -4.93448 0
M  V30 20218 N 1826.55 4.81228 -5.11237 0
M  V30 20219 H 1831.39 0.96331 -2.82001 0
M  V30 20220 H 1828.93 0.464362 -1.39578 0
M  V30 20221 H 1830.89 3.40848 -2.4058 0
M  V30 20222 H 1829.52 2.92105 -1.37384 0
M  V30 20223 H 1828.57 1.64491 -3.42997 0
M  V30 20224 H 1829.88 2.35263 -4.39833 0
M  V30 20225 H 1829.04 4.65346 -3.89279 0
M  V30 20226 H 1827.78 3.976 -2.82428 0
M  V30 20227 H 1826.78 2.73743 -4.76807 0
M  V30 20228 H 1828.01 3.44579 -5.85186 0
M  V30 20229 H 1825.95 5.00625 -4.23923 0
M  V30 20230 H 1825.87 4.67787 -5.93895 0
M  V30 20231 H 1827.14 5.69487 -5.32264 0
M  V30 20232 N 1831.37 1.49742 0.491438 0
M  V30 20233 C 1832.6 1.63198 1.26689 0
M  V30 20234 C 1833 0.306438 1.86702 0
M  V30 20235 O 1832.35 -0.719282 1.69033 0
M  V30 20236 C 1832.41 2.64966 2.42967 0
M  V30 20237 C 1832.07 4.09066 2.0375 0
M  V30 20238 C 1833.07 4.95574 1.57171 0
M  V30 20239 C 1830.75 4.54859 2.13092 0
M  V30 20240 C 1832.75 6.25916 1.2045 0
M  V30 20241 C 1830.44 5.85212 1.75983 0
M  V30 20242 C 1831.43 6.70565 1.29738 0
M  V30 20243 O 1831.12 7.98487 0.931347 0
M  V30 20244 H 1830.85 0.552094 0.390087 0
M  V30 20245 H 1833.41 1.9658 0.595439 0
M  V30 20246 H 1831.64 2.26784 3.13218 0
M  V30 20247 H 1833.33 2.67852 3.04975 0
M  V30 20248 H 1834.09 4.61419 1.49391 0
M  V30 20249 H 1829.97 3.88585 2.48038 0
M  V30 20250 H 1833.52 6.9249 0.84283 0
M  V30 20251 H 1829.41 6.18893 1.83415 0
M  V30 20252 H 1830.18 8.11581 1.06198 0
M  V30 20253 N 1832.84 -0.743177 1.38977 0
M  V30 20254 C 1834.09 -1.49959 1.35486 0
M  V30 20255 C 1834.41 -1.94933 -0.0512044 0
M  V30 20256 O 1833.68 -1.684 -1.0009 0
M  V30 20257 H 1832.26 -0.556277 0.498562 0
M  V30 20258 H 1834.93 -0.882776 1.73762 0
M  V30 20259 H 1834.02 -2.38559 2.01237 0
M  V30 20260 N 1834.32 -1.24018 -0.972487 0
M  V30 20261 C 1835.57 -1.07105 -1.70913 0
M  V30 20262 C 1835.88 0.390908 -1.91654 0
M  V30 20263 O 1837.09 0.68013 -2.62843 0
M  V30 20264 C 1835.55 -1.86823 -3.07612 0
M  V30 20265 C 1835.15 -3.37399 -2.94731 0
M  V30 20266 C 1836.9 -1.78425 -3.85182 0
M  V30 20267 C 1834.81 -4.09479 -4.2671 0
M  V30 20268 H 1833.74 -0.397184 -0.640907 0
M  V30 20269 H 1836.39 -1.48056 -1.08405 0
M  V30 20270 H 1834.77 -1.38683 -3.70922 0
M  V30 20271 H 1835.94 -3.93084 -2.40462 0
M  V30 20272 H 1834.26 -3.46697 -2.3063 0
M  V30 20273 H 1836.85 -2.29584 -4.82903 0
M  V30 20274 H 1837.2 -0.748555 -4.09515 0
M  V30 20275 H 1837.73 -2.24219 -3.28589 0
M  V30 20276 H 1834.47 -5.13387 -4.07571 0
M  V30 20277 H 1833.99 -3.5858 -4.80812 0
M  V30 20278 H 1835.67 -4.16212 -4.95355 0
M  V30 20279 N 1835.8 1.17245 -1.05316 0
M  V30 20280 C 1837.05 1.87813 -0.765112 0
M  V30 20281 C 1837.38 1.80907 0.706147 0
M  V30 20282 O 1836.65 1.21793 1.51647 0
M  V30 20283 C 1836.94 3.3779 -1.24779 0
M  V30 20284 C 1836.79 3.53441 -2.78208 0
M  V30 20285 C 1838.11 4.31857 -0.847805 0
M  V30 20286 H 1835.23 0.681979 -0.279415 0
M  V30 20287 H 1837.87 1.37869 -1.30737 0
M  V30 20288 H 1836.02 3.80456 -0.786487 0
M  V30 20289 H 1837.69 3.19782 -3.32472 0
M  V30 20290 H 1835.94 2.95678 -3.17423 0
M  V30 20291 H 1836.61 4.58725 -3.07043 0
M  V30 20292 H 1839.08 3.97039 -1.24496 0
M  V30 20293 H 1837.96 5.35326 -1.21313 0
M  V30 20294 H 1838.22 4.41403 0.248104 0
M  V30 20295 N 1837.28 0.834353 1.33702 0
M  V30 20296 C 1838.23 0.236483 2.2677 0
M  V30 20297 C 1839.21 -0.605904 1.49056 0
M  V30 20298 O 1840.4 -0.458611 1.70955 0
M  V30 20299 C 1837.53 -0.591264 3.3817 0
M  V30 20300 C 1836.62 0.262381 4.23288 0
M  V30 20301 N 1837.01 1.33892 4.87757 0
M  V30 20302 C 1835.31 0.0486456 4.45973 0
M  V30 20303 C 1836.01 1.86242 5.5108 0
M  V30 20304 N 1834.99 1.16457 5.30979 0
M  V30 20305 H 1838.79 1.05979 2.74127 0
M  V30 20306 H 1836.3 0.678337 1.47555 0
M  V30 20307 H 1838.3 -1.03584 4.03827 0
M  V30 20308 H 1836.96 -1.4126 2.92362 0
M  V30 20309 H 1837.97 1.72179 4.88441 0
M  V30 20310 H 1834.65 -0.739613 4.10897 0
M  V30 20311 H 1836.04 2.76369 6.12429 0
M  V30 20312 N 1838.76 -1.46125 0.590367 0
M  V30 20313 C 1839.69 -2.27433 -0.186997 0
M  V30 20314 C 1840.67 -1.36095 -0.889776 0
M  V30 20315 O 1841.85 -1.65511 -0.902123 0
M  V30 20316 C 1838.98 -3.14029 -1.26899 0
M  V30 20317 C 1838.02 -4.21185 -0.671223 0
M  V30 20318 S 1838.86 -5.33087 0.507766 0
M  V30 20319 C 1840.01 -6.23251 -0.575243 0
M  V30 20320 H 1840.25 -2.93016 0.502873 0
M  V30 20321 H 1837.78 -1.49715 0.377448 0
M  V30 20322 H 1839.74 -3.64483 -1.88845 0
M  V30 20323 H 1838.4 -2.47744 -1.93085 0
M  V30 20324 H 1837.59 -4.81633 -1.48478 0
M  V30 20325 H 1837.19 -3.73783 -0.127271 0
M  V30 20326 H 1839.49 -6.61606 -1.4589 0
M  V30 20327 H 1840.43 -7.081 -0.00733853 0
M  V30 20328 H 1840.84 -5.57554 -0.882831 0
M  V30 20329 N 1840.23 -0.328564 -1.54137 0
M  V30 20330 C 1841.14 0.543922 -2.28207 0
M  V30 20331 C 1842.16 1.1249 -1.32748 0
M  V30 20332 O 1843.34 1.1438 -1.65769 0
M  V30 20333 C 1840.4 1.6864 -3.02922 0
M  V30 20334 C 1839.46 1.13672 -4.13977 0
M  V30 20335 C 1838.7 2.22474 -4.85119 0
M  V30 20336 O 1838.92 3.42914 -4.55813 0
M  V30 20337 O 1837.85 1.87611 -5.71914 0
M  V30 20338 H 1841.68 -0.0577601 -3.03645 0
M  V30 20339 H 1839.26 -0.0940895 -1.49103 0
M  V30 20340 H 1841.15 2.35143 -3.49693 0
M  V30 20341 H 1839.82 2.27417 -2.30355 0
M  V30 20342 H 1838.73 0.436625 -3.71543 0
M  V30 20343 H 1840.06 0.594012 -4.88602 0
M  V30 20344 N 1841.71 1.57497 -0.0568439 0
M  V30 20345 C 1843.12 1.80477 0.478027 0
M  V30 20346 C 1843.47 0.969549 1.7057 0
M  V30 20347 O 1842.6 0.187756 2.15584 0
M  V30 20348 C 1843.19 3.27332 0.874013 0
M  V30 20349 C 1841.75 3.5121 1.35383 0
M  V30 20350 C 1840.9 2.75308 0.331752 0
M  V30 20351 H 1843.85 1.56162 -0.282678 0
M  V30 20352 H 1843.87 3.38563 1.73653 0
M  V30 20353 H 1843.38 3.88095 -0.019701 0
M  V30 20354 H 1841.49 2.95734 2.26655 0
M  V30 20355 H 1841.6 4.59919 1.34208 0
M  V30 20356 H 1839.96 2.41616 0.805851 0
M  V30 20357 H 1840.75 3.38801 -0.553975 0
M  V30 20358 N 1843.19 -0.216591 1.56105 0
M  V30 20359 C 1844.44 -0.940249 1.79348 0
M  V30 20360 C 1844.77 -1.84135 0.626451 0
M  V30 20361 O 1844.02 -1.91796 -0.388932 0
M  V30 20362 C 1844.32 -1.80637 3.08391 0
M  V30 20363 C 1843.99 -1.05808 4.3831 0
M  V30 20364 C 1842.65 -0.851392 4.73608 0
M  V30 20365 C 1845 -0.530015 5.18498 0
M  V30 20366 C 1842.33 -0.104822 5.86606 0
M  V30 20367 C 1844.68 0.203236 6.32273 0
M  V30 20368 C 1843.34 0.42113 6.6617 0
M  V30 20369 H 1842.61 -0.344062 0.656279 0
M  V30 20370 H 1845.26 -0.208069 1.90366 0
M  V30 20371 H 1843.57 -2.60656 2.92516 0
M  V30 20372 H 1845.26 -2.36852 3.23577 0
M  V30 20373 H 1841.85 -1.22915 4.10597 0
M  V30 20374 H 1846.04 -0.677154 4.91659 0
M  V30 20375 H 1841.29 0.074177 6.11355 0
M  V30 20376 H 1845.47 0.619898 6.93636 0
M  V30 20377 H 1843.09 1.00155 7.53573 0
M  V30 20378 N 1844.67 -1.5 -0.48349 0
M  V30 20379 C 1845.62 -1.67957 -1.58301 0
M  V30 20380 C 1846.59 -0.520895 -1.57721 0
M  V30 20381 O 1847.77 -0.750008 -1.75441 0
M  V30 20382 C 1844.91 -1.76832 -2.96352 0
M  V30 20383 C 1844.02 -3.04119 -3.06815 0
M  V30 20384 C 1843.16 -3.03865 -4.35706 0
M  V30 20385 C 1842.2 -4.25658 -4.39865 0
M  V30 20386 N 1841.33 -4.23214 -5.60209 0
M  V30 20387 H 1846.17 -2.61832 -1.42296 0
M  V30 20388 H 1843.71 -1.29804 -0.692045 0
M  V30 20389 H 1845.67 -1.79958 -3.76392 0
M  V30 20390 H 1844.3 -0.864074 -3.1102 0
M  V30 20391 H 1843.35 -3.10523 -2.19727 0
M  V30 20392 H 1844.66 -3.94106 -3.05748 0
M  V30 20393 H 1843.82 -3.05652 -5.24082 0
M  V30 20394 H 1842.56 -2.11687 -4.39363 0
M  V30 20395 H 1841.56 -4.24097 -3.49888 0
M  V30 20396 H 1842.79 -5.19049 -4.37909 0
M  V30 20397 H 1840.73 -3.33883 -5.64675 0
M  V30 20398 H 1840.65 -5.06956 -5.60832 0
M  V30 20399 H 1841.92 -4.29129 -6.50744 0
M  V30 20400 N 1846.15 0.735796 -1.39369 0
M  V30 20401 C 1847.56 1.31402 -1.32628 0
M  V30 20402 C 1847.91 1.96198 0.00972836 0
M  V30 20403 O 1847.03 1.9625 0.91185 0
M  V30 20404 C 1847.63 2.38934 -2.402 0
M  V30 20405 C 1846.19 2.92432 -2.36982 0
M  V30 20406 C 1845.33 1.65992 -2.2213 0
M  V30 20407 H 1848.29 0.533364 -1.49469 0
M  V30 20408 H 1848.31 3.19304 -2.06942 0
M  V30 20409 H 1847.82 1.91745 -3.37425 0
M  V30 20410 H 1845.92 3.43903 -1.43394 0
M  V30 20411 H 1846.03 3.456 -3.31809 0
M  V30 20412 H 1844.4 1.90298 -1.69289 0
M  V30 20413 H 1845.18 1.20857 -3.21323 0
M  V30 20414 N 1847.63 1.24532 0.965897 0
M  V30 20415 C 1848.87 1.0801 1.70343 0
M  V30 20416 C 1849.19 -0.380738 1.91859 0
M  V30 20417 O 1850.39 -0.666181 2.632 0
M  V30 20418 C 1848.85 1.88452 3.06617 0
M  V30 20419 C 1848.46 3.38957 2.92937 0
M  V30 20420 C 1850.2 1.80465 3.8423 0
M  V30 20421 C 1848.11 4.11736 4.24532 0
M  V30 20422 H 1847.04 0.400577 0.638791 0
M  V30 20423 H 1849.69 1.48629 1.07618 0
M  V30 20424 H 1848.07 1.40648 3.70181 0
M  V30 20425 H 1849.25 3.94353 2.38374 0
M  V30 20426 H 1847.56 3.47915 2.28788 0
M  V30 20427 H 1850.16 2.32142 4.81679 0
M  V30 20428 H 1850.5 0.770262 4.09112 0
M  V30 20429 H 1851.03 2.25958 3.27395 0
M  V30 20430 H 1847.77 5.15541 4.04842 0
M  V30 20431 H 1847.29 3.61125 4.78904 0
M  V30 20432 H 1848.97 4.18833 4.93141 0
M  V30 20433 N 1849.1 -1.16685 1.05936 0
M  V30 20434 C 1850.35 -1.86466 0.768993 0
M  V30 20435 C 1850.67 -1.82374 -0.707038 0
M  V30 20436 O 1851.87 -2.47699 -1.11164 0
M  V30 20437 C 1850.33 -3.34605 1.32543 0
M  V30 20438 C 1849.94 -3.47179 2.83144 0
M  V30 20439 C 1851.68 -4.09665 1.11244 0
M  V30 20440 C 1849.59 -4.89384 3.3205 0
M  V30 20441 H 1848.52 -0.698479 0.283978 0
M  V30 20442 H 1851.17 -1.31717 1.27761 0
M  V30 20443 H 1849.55 -3.88937 0.744592 0
M  V30 20444 H 1850.72 -3.03027 3.47148 0
M  V30 20445 H 1849.04 -2.85549 3.03069 0
M  V30 20446 H 1851.64 -5.14586 1.45276 0
M  V30 20447 H 1851.98 -4.16269 0.0505969 0
M  V30 20448 H 1852.51 -3.61561 1.65887 0
M  V30 20449 H 1849.25 -4.87957 4.37697 0
M  V30 20450 H 1848.77 -5.34176 2.72793 0
M  V30 20451 H 1850.45 -5.58186 3.27166 0
M  V30 20452 N 1850.58 -0.841432 -1.33258 0
M  V30 20453 C 1851.53 -0.274487 -2.29162 0
M  V30 20454 C 1852.5 0.611143 -1.54448 0
M  V30 20455 O 1853.68 0.548868 -1.82735 0
M  V30 20456 C 1850.82 0.542275 -3.40813 0
M  V30 20457 C 1849.94 -0.367664 -4.30433 0
M  V30 20458 C 1849.07 0.460447 -5.29201 0
M  V30 20459 C 1848.11 -0.447722 -6.1046 0
M  V30 20460 N 1847.25 0.342415 -7.01265 0
M  V30 20461 H 1852.09 -1.09762 -2.77049 0
M  V30 20462 H 1849.62 -0.552735 -1.3632 0
M  V30 20463 H 1851.58 1.03132 -4.04252 0
M  V30 20464 H 1850.21 1.33035 -2.94111 0
M  V30 20465 H 1849.26 -0.975032 -3.67692 0
M  V30 20466 H 1850.58 -1.0652 -4.87293 0
M  V30 20467 H 1849.73 1.01321 -5.9818 0
M  V30 20468 H 1848.47 1.19141 -4.72924 0
M  V30 20469 H 1847.47 -1.01248 -5.40397 0
M  V30 20470 H 1848.7 -1.17709 -6.68821 0
M  V30 20471 H 1846.65 1.05671 -6.47433 0
M  V30 20472 H 1846.56 -0.296356 -7.55419 0
M  V30 20473 H 1847.83 0.877331 -7.74547 0
M  V30 20474 N 1852.06 1.4581 -0.598108 0
M  V30 20475 C 1853.01 2.32185 0.138857 0
M  V30 20476 C 1854 1.45406 0.869105 0
M  V30 20477 O 1855.21 1.61945 0.785746 0
M  V30 20478 H 1851.58 0.749302 0.0636431 0
M  V30 20479 H 1853.55 2.92136 -0.608224 0
M  V30 20480 C 1852.3 3.28856 1.12911 0
M  V30 20481 H 1851.63 3.9562 0.576625 0
M  V30 20482 H 1853.07 3.92043 1.61487 0
M  V30 20483 C 1851.52 2.55331 2.1979 0
M  V30 20484 O 1852.05 2.32768 3.27386 0
M  V30 20485 N 1850.26 2.15628 1.94815 0
M  V30 20486 H 1849.81 2.34178 1.07323 0
M  V30 20487 H 1849.77 1.66755 2.66533 0
M  V30 20488 N 1853.54 0.336733 1.53961 0
M  V30 20489 C 1854.79 -0.262826 1.9998 0
M  V30 20490 C 1855.1 -1.52201 1.22858 0
M  V30 20491 O 1856.31 -2.19839 1.5932 0
M  V30 20492 C 1854.76 -0.518877 3.5614 0
M  V30 20493 C 1854.37 0.724019 4.42111 0
M  V30 20494 C 1856.11 -1.07767 4.10593 0
M  V30 20495 C 1854.02 0.439143 5.89767 0
M  V30 20496 H 1852.95 -0.101987 0.747071 0
M  V30 20497 H 1855.6 0.451004 1.77871 0
M  V30 20498 H 1853.98 -1.29323 3.74288 0
M  V30 20499 H 1855.16 1.49896 4.35738 0
M  V30 20500 H 1853.47 1.20396 3.98615 0
M  V30 20501 H 1856.07 -1.30564 5.18514 0
M  V30 20502 H 1856.41 -2.03111 3.63389 0
M  V30 20503 H 1856.95 -0.36418 3.96129 0
M  V30 20504 H 1853.68 1.36212 6.41192 0
M  V30 20505 H 1853.2 -0.297839 5.9906 0
M  V30 20506 H 1854.88 0.0538506 6.46978 0
M  V30 20507 N 1855.02 -1.57465 0.0651956 0
M  V30 20508 C 1856.25 -1.97273 -0.613742 0
M  V30 20509 C 1856.65 -0.942027 -1.64081 0
M  V30 20510 O 1856 0.0804791 -1.83524 0
M  V30 20511 C 1856.06 -3.3337 -1.34554 0
M  V30 20512 C 1855.72 -4.54549 -0.472698 0
M  V30 20513 C 1856.72 -5.19214 0.267005 0
M  V30 20514 C 1854.4 -5.00709 -0.399511 0
M  V30 20515 C 1856.4 -6.28386 1.06819 0
M  V30 20516 C 1854.09 -6.09754 0.405348 0
M  V30 20517 C 1855.08 -6.73455 1.13787 0
M  V30 20518 O 1854.77 -7.80402 1.92947 0
M  V30 20519 H 1854.5 -0.653863 -0.171578 0
M  V30 20520 H 1857.06 -2.04974 0.132144 0
M  V30 20521 H 1855.29 -3.22264 -2.13735 0
M  V30 20522 H 1856.98 -3.57829 -1.91607 0
M  V30 20523 H 1857.74 -4.84501 0.220015 0
M  V30 20524 H 1853.62 -4.50909 -0.959289 0
M  V30 20525 H 1857.17 -6.78038 1.64045 0
M  V30 20526 H 1853.06 -6.43902 0.453925 0
M  V30 20527 H 1853.83 -7.97247 1.85308 0
M  V30 20528 N 1856.49 0.20831 -1.56217 0
M  V30 20529 C 1857.74 0.928839 -1.7904 0
M  V30 20530 C 1858.06 1.84968 -0.636108 0
M  V30 20531 O 1859.26 2.60984 -0.748302 0
M  V30 20532 C 1857.72 1.70192 -3.17116 0
M  V30 20533 C 1857.33 0.826564 -4.40309 0
M  V30 20534 C 1859.07 2.41287 -3.49257 0
M  V30 20535 C 1856.98 1.59775 -5.69408 0
M  V30 20536 H 1855.91 0.350563 -0.667549 0
M  V30 20537 H 1858.56 0.182398 -1.82591 0
M  V30 20538 H 1856.94 2.49176 -3.07778 0
M  V30 20539 H 1858.11 0.076324 -4.60737 0
M  V30 20540 H 1856.43 0.227092 -4.1578 0
M  V30 20541 H 1859.03 2.99511 -4.42942 0
M  V30 20542 H 1859.37 3.14827 -2.72377 0
M  V30 20543 H 1859.9 1.69282 -3.59984 0
M  V30 20544 H 1856.64 0.905384 -6.49217 0
M  V30 20545 H 1856.16 2.32227 -5.5302 0
M  V30 20546 H 1857.84 2.155 -6.10056 0
M  V30 20547 N 1857.97 1.50255 0.475528 0
M  V30 20548 C 1859.2 1.65044 1.25599 0
M  V30 20549 C 1859.62 0.331736 1.85152 0
M  V30 20550 O 1858.98 -0.703863 1.67079 0
M  V30 20551 C 1859.03 2.7405 2.34369 0
M  V30 20552 O 1858.13 2.34994 3.38897 0
M  V30 20553 H 1857.47 0.551557 0.369704 0
M  V30 20554 H 1860 1.96603 0.566422 0
M  V30 20555 H 1860.01 2.96993 2.79749 0
M  V30 20556 H 1858.69 3.6976 1.90395 0
M  V30 20557 H 1857.26 2.22481 2.9926 0
M  V30 20558 N 1859.45 -0.728395 1.39758 0
M  V30 20559 C 1860.68 -1.5176 1.40629 0
M  V30 20560 C 1861.09 -1.888 0.00253909 0
M  V30 20561 O 1860.45 -1.54561 -0.970428 0
M  V30 20562 C 1860.5 -2.80102 2.28528 0
M  V30 20563 O 1860.22 -2.44633 3.63436 0
M  V30 20564 C 1861.72 -3.74087 2.37853 0
M  V30 20565 H 1858.94 -0.468767 0.480103 0
M  V30 20566 H 1861.49 -0.89953 1.83654 0
M  V30 20567 H 1859.64 -3.38225 1.88898 0
M  V30 20568 H 1860.06 -3.27124 4.09988 0
M  V30 20569 H 1861.53 -4.61017 3.03591 0
M  V30 20570 H 1862.01 -4.163 1.39968 0
M  V30 20571 H 1862.61 -3.2188 2.7798 0
M  V30 20572 N 1860.93 -1.25042 -0.959279 0
M  V30 20573 C 1862.16 -1.12079 -1.73557 0
M  V30 20574 C 1862.57 0.328665 -1.86323 0
M  V30 20575 O 1861.91 1.23812 -1.35706 0
M  V30 20576 C 1861.97 -1.69634 -3.16961 0
M  V30 20577 C 1861.63 -3.18593 -3.27639 0
M  V30 20578 C 1862.63 -4.15641 -3.12312 0
M  V30 20579 C 1860.32 -3.58715 -3.51609 0
M  V30 20580 C 1862.31 -5.50791 -3.20793 0
M  V30 20581 C 1860 -4.94003 -3.59728 0
M  V30 20582 C 1861 -5.89851 -3.44333 0
M  V30 20583 O 1860.68 -7.22678 -3.52124 0
M  V30 20584 H 1860.42 -0.3919 -0.550809 0
M  V30 20585 H 1862.97 -1.658 -1.21242 0
M  V30 20586 H 1861.2 -1.10356 -3.70619 0
M  V30 20587 H 1862.89 -1.51838 -3.76431 0
M  V30 20588 H 1863.65 -3.85985 -2.93668 0
M  V30 20589 H 1859.53 -2.8461 -3.62654 0
M  V30 20590 H 1863.08 -6.25582 -3.08695 0
M  V30 20591 H 1858.97 -5.23327 -3.77887 0
M  V30 20592 H 1859.74 -7.30712 -3.68785 0
M  V30 20593 N 1862.41 1.16121 -1.06553 0
M  V30 20594 C 1863.65 1.86991 -0.784989 0
M  V30 20595 C 1863.99 1.81645 0.686919 0
M  V30 20596 O 1863.26 1.23394 1.50347 0
M  V30 20597 C 1863.54 3.36448 -1.28355 0
M  V30 20598 C 1863.4 3.5047 -2.81941 0
M  V30 20599 C 1864.72 4.30933 -0.893561 0
M  V30 20600 H 1861.83 0.678978 -0.286633 0
M  V30 20601 H 1864.48 1.36475 -1.32192 0
M  V30 20602 H 1862.63 3.796 -0.826796 0
M  V30 20603 H 1864.3 3.16237 -3.35845 0
M  V30 20604 H 1862.54 2.92294 -3.20541 0
M  V30 20605 H 1863.21 4.55443 -3.11891 0
M  V30 20606 H 1865.69 3.95696 -1.287 0
M  V30 20607 H 1864.56 5.3401 -1.26984 0
M  V30 20608 H 1864.83 4.41642 0.201274 0
M  V30 20609 N 1863.88 0.848487 1.3281 0
M  V30 20610 C 1865.11 0.461973 2.01369 0
M  V30 20611 C 1865.52 -0.944176 1.63957 0
M  V30 20612 O 1864.87 -1.62659 0.853677 0
M  V30 20613 C 1864.93 0.514163 3.55804 0
M  V30 20614 C 1864.59 1.87812 4.16624 0
M  V30 20615 C 1865.59 2.84271 4.353 0
M  V30 20616 C 1863.27 2.17358 4.52836 0
M  V30 20617 C 1865.27 4.08433 4.89348 0
M  V30 20618 C 1862.95 3.41774 5.0659 0
M  V30 20619 C 1863.95 4.37128 5.24793 0
M  V30 20620 O 1863.64 5.59342 5.774 0
M  V30 20621 H 1863.37 0.180645 0.651416 0
M  V30 20622 H 1865.93 1.14535 1.70502 0
M  V30 20623 H 1864.16 -0.226037 3.86039 0
M  V30 20624 H 1865.85 0.14412 4.05644 0
M  V30 20625 H 1866.61 2.62747 4.07663 0
M  V30 20626 H 1862.49 1.43927 4.37957 0
M  V30 20627 H 1866.03 4.82869 5.03471 0
M  V30 20628 H 1861.93 3.63151 5.33659 0
M  V30 20629 H 1862.7 5.61215 5.95802 0
M  V30 20630 N 1865.36 -1.4549 0.605832 0
M  V30 20631 C 1866.61 -2.01462 0.0979275 0
M  V30 20632 C 1866.92 -1.48025 -1.27859 0
M  V30 20633 O 1868.13 -1.95962 -1.87912 0
M  V30 20634 C 1866.59 -3.59685 0.124393 0
M  V30 20635 C 1866.19 -4.22119 1.50065 0
M  V30 20636 C 1867.94 -4.23228 -0.328361 0
M  V30 20637 C 1865.85 -5.72489 1.4836 0
M  V30 20638 H 1864.78 -0.753284 0.0328415 0
M  V30 20639 H 1867.43 -1.66981 0.760903 0
M  V30 20640 H 1865.81 -3.91348 -0.605201 0
M  V30 20641 H 1866.98 -4.02032 2.25181 0
M  V30 20642 H 1865.3 -3.70763 1.89535 0
M  V30 20643 H 1867.89 -5.33485 -0.360274 0
M  V30 20644 H 1868.24 -3.93779 -1.35068 0
M  V30 20645 H 1868.77 -3.96276 0.347909 0
M  V30 20646 H 1865.51 -6.06634 2.48346 0
M  V30 20647 H 1865.03 -5.94772 0.774989 0
M  V30 20648 H 1866.71 -6.35652 1.20648 0
M  V30 20649 N 1866.84 -0.344893 -1.5378 0
M  V30 20650 C 1868.07 0.252559 -2.05353 0
M  V30 20651 C 1868.48 1.44107 -1.21978 0
M  V30 20652 O 1867.84 1.80704 -0.25543 0
M  V30 20653 C 1867.89 0.666294 -3.55307 0
M  V30 20654 O 1867.61 -0.474957 -4.35518 0
M  V30 20655 C 1869.11 1.32432 -4.23056 0
M  V30 20656 H 1866.33 0.0485202 -0.669243 0
M  V30 20657 H 1868.88 -0.497271 -1.98362 0
M  V30 20658 H 1867.03 1.36606 -3.62515 0
M  V30 20659 H 1867.45 -0.144883 -5.243 0
M  V30 20660 H 1868.92 1.56456 -5.29363 0
M  V30 20661 H 1869.4 2.27829 -3.75487 0
M  V30 20662 H 1870 0.66655 -4.20044 0
M  V30 20663 N 1868.32 1.57428 -0.0735454 0
M  V30 20664 C 1869.73 1.80973 0.458858 0
M  V30 20665 C 1870.08 0.987586 1.69532 0
M  V30 20666 O 1869.21 0.210611 2.15373 0
M  V30 20667 C 1869.8 3.28241 0.839246 0
M  V30 20668 C 1868.36 3.52626 1.3165 0
M  V30 20669 C 1867.51 2.75645 0.302533 0
M  V30 20670 H 1870.46 1.55854 -0.299225 0
M  V30 20671 H 1870.48 3.40386 1.70052 0
M  V30 20672 H 1869.99 3.88052 -0.0608625 0
M  V30 20673 H 1868.09 2.98121 2.23505 0
M  V30 20674 H 1868.2 4.61316 1.29322 0
M  V30 20675 H 1866.57 2.42457 0.780179 0
M  V30 20676 H 1867.35 3.38194 -0.589878 0
M  V30 20677 N 1869.8 -0.200022 1.56326 0
M  V30 20678 C 1870.73 -1.27579 1.89206 0
M  V30 20679 C 1871.71 -1.44185 0.751625 0
M  V30 20680 O 1872.89 -1.59654 1.00214 0
M  V30 20681 C 1870.02 -2.64312 2.11794 0
M  V30 20682 C 1869.06 -2.64603 3.34496 0
M  V30 20683 S 1869.9 -2.16526 4.89772 0
M  V30 20684 C 1871.05 -3.55092 5.15422 0
M  V30 20685 H 1871.29 -0.99499 2.80156 0
M  V30 20686 H 1868.82 -0.403286 1.4904 0
M  V30 20687 H 1870.78 -3.43022 2.25491 0
M  V30 20688 H 1869.44 -2.89606 1.21603 0
M  V30 20689 H 1868.63 -3.65131 3.47412 0
M  V30 20690 H 1868.23 -1.93972 3.19767 0
M  V30 20691 H 1870.53 -4.50925 5.05641 0
M  V30 20692 H 1871.47 -3.47075 6.17207 0
M  V30 20693 H 1871.88 -3.49777 4.43076 0
M  V30 20694 N 1871.27 -1.50505 -0.467553 0
M  V30 20695 C 1872.21 -1.65784 -1.58267 0
M  V30 20696 C 1873.22 -0.539219 -1.53611 0
M  V30 20697 O 1874.41 -0.812524 -1.58935 0
M  V30 20698 C 1871.51 -1.62951 -2.97154 0
M  V30 20699 C 1870.68 -2.90903 -3.26641 0
M  V30 20700 C 1869.74 -2.80665 -4.451 0
M  V30 20701 O 1868.77 -3.5462 -4.45234 0
M  V30 20702 N 1869.97 -1.9446 -5.4696 0
M  V30 20703 H 1872.73 -2.6197 -1.45575 0
M  V30 20704 H 1870.29 -1.48013 -0.656029 0
M  V30 20705 H 1872.29 -1.53709 -3.74373 0
M  V30 20706 H 1870.86 -0.744855 -3.03596 0
M  V30 20707 H 1870.08 -3.14244 -2.38001 0
M  V30 20708 H 1871.36 -3.75663 -3.43155 0
M  V30 20709 H 1870.76 -1.33694 -5.49675 0
M  V30 20710 H 1869.32 -1.9112 -6.2315 0
M  V30 20711 N 1872.75 0.720973 -1.40142 0
M  V30 20712 C 1873.7 1.8564 -1.40145 0
M  V30 20713 C 1874.69 1.67025 -0.282667 0
M  V30 20714 O 1875.9 1.74195 -0.453429 0
M  V30 20715 H 1872.28 0.611316 -0.437947 0
M  V30 20716 H 1874.25 1.82753 -2.35889 0
M  V30 20717 C 1873 3.23455 -1.27563 0
M  V30 20718 H 1872.32 3.38382 -2.12926 0
M  V30 20719 H 1873.76 4.03052 -1.31623 0
M  V30 20720 C 1872.22 3.36897 0.0146614 0
M  V30 20721 O 1872.75 3.89572 0.979616 0
M  V30 20722 N 1870.95 2.90483 0.0823795 0
M  V30 20723 H 1870.5 2.47805 -0.70359 0
M  V30 20724 H 1870.46 2.99856 0.945177 0
M  V30 20725 N 1874.23 1.25549 0.952634 0
M  V30 20726 C 1875.16 1.08592 2.06712 0
M  V30 20727 C 1876.14 -0.00560571 1.70099 0
M  V30 20728 O 1877.33 0.164299 1.93504 0
M  V30 20729 C 1874.46 0.705984 3.40049 0
M  V30 20730 C 1873.41 1.74797 3.90679 0
M  V30 20731 C 1872.74 1.22266 5.20533 0
M  V30 20732 C 1874.04 3.14717 4.16834 0
M  V30 20733 H 1875.73 2.01816 2.21157 0
M  V30 20734 H 1873.28 0.971723 1.06271 0
M  V30 20735 H 1875.23 0.57428 4.17469 0
M  V30 20736 H 1873.95 -0.261964 3.25548 0
M  V30 20737 H 1872.61 1.86815 3.1543 0
M  V30 20738 H 1872.26 0.244887 5.02404 0
M  V30 20739 H 1871.96 1.9191 5.55377 0
M  V30 20740 H 1873.48 1.10339 6.00548 0
M  V30 20741 H 1874.9 3.05842 4.84906 0
M  V30 20742 H 1873.3 3.81849 4.62938 0
M  V30 20743 H 1874.37 3.61629 3.23037 0
M  V30 20744 N 1875.71 -1.15554 1.07168 0
M  V30 20745 C 1876.62 -2.2386 0.701714 0
M  V30 20746 C 1877.63 -1.7163 -0.28621 0
M  V30 20747 O 1878.81 -2.00958 -0.133308 0
M  V30 20748 C 1875.88 -3.46546 0.103165 0
M  V30 20749 C 1874.94 -4.13774 1.14409 0
M  V30 20750 C 1874.17 -5.30604 0.574007 0
M  V30 20751 O 1874.39 -5.67123 -0.610521 0
M  V30 20752 O 1873.33 -5.87293 1.31799 0
M  V30 20753 H 1877.15 -2.57833 1.60487 0
M  V30 20754 H 1874.74 -1.23241 0.844514 0
M  V30 20755 H 1876.62 -4.2078 -0.228452 0
M  V30 20756 H 1875.29 -3.14327 -0.773339 0
M  V30 20757 H 1874.2 -3.4147 1.52803 0
M  V30 20758 H 1875.53 -4.5007 1.99243 0
M  V30 20759 N 1877.19 -0.855519 -1.32358 0
M  V30 20760 C 1878.6 -0.513833 -1.7949 0
M  V30 20761 C 1878.95 0.968373 -1.70637 0
M  V30 20762 O 1878.07 1.75541 -1.26547 0
M  V30 20763 C 1878.67 -0.925925 -3.25902 0
M  V30 20764 C 1877.23 -0.636124 -3.70986 0
M  V30 20765 C 1876.38 -1.12519 -2.53446 0
M  V30 20766 H 1879.33 -1.04264 -1.19644 0
M  V30 20767 H 1879.35 -0.242659 -3.79725 0
M  V30 20768 H 1878.86 -2.00473 -3.32313 0
M  V30 20769 H 1876.96 0.431924 -3.70088 0
M  V30 20770 H 1877.07 -1.20302 -4.6375 0
M  V30 20771 H 1875.44 -0.545429 -2.48791 0
M  V30 20772 H 1876.22 -2.21112 -2.62611 0
M  V30 20773 N 1878.67 1.45167 -0.61354 0
M  V30 20774 C 1879.6 2.3333 0.089004 0
M  V30 20775 C 1880.58 1.47181 0.85275 0
M  V30 20776 O 1881.76 1.7594 0.822122 0
M  V30 20777 C 1878.89 3.29982 1.08301 0
M  V30 20778 C 1877.85 4.25813 0.432084 0
M  V30 20779 C 1877.17 5.122 1.53476 0
M  V30 20780 C 1878.47 5.18233 -0.65052 0
M  V30 20781 H 1880.17 2.92322 -0.647165 0
M  V30 20782 H 1877.71 1.40565 -0.312667 0
M  V30 20783 H 1879.66 3.90533 1.5831 0
M  V30 20784 H 1878.39 2.69162 1.84985 0
M  V30 20785 H 1877.05 3.6657 -0.0471927 0
M  V30 20786 H 1876.7 4.47744 2.29203 0
M  V30 20787 H 1876.4 5.77122 1.10469 0
M  V30 20788 H 1877.92 5.7562 2.037 0
M  V30 20789 H 1879.33 5.72821 -0.234262 0
M  V30 20790 H 1877.73 5.91664 -1.00268 0
M  V30 20791 H 1878.8 4.60304 -1.52475 0
M  V30 20792 N 1880.14 0.353044 1.53595 0
M  V30 20793 C 1881.09 -0.499326 2.25334 0
M  V30 20794 C 1882.06 -1.08781 1.25522 0
M  V30 20795 O 1883.25 -1.12265 1.54276 0
M  V30 20796 C 1880.39 -1.63955 3.03666 0
M  V30 20797 C 1879.5 -1.07745 4.18348 0
M  V30 20798 C 1878.63 -2.18575 4.84147 0
M  V30 20799 C 1877.67 -1.59765 5.90882 0
M  V30 20800 N 1876.81 -2.64376 6.50423 0
M  V30 20801 H 1881.65 0.118959 2.97762 0
M  V30 20802 H 1879.19 0.0704777 1.46931 0
M  V30 20803 H 1881.14 -2.31097 3.47347 0
M  V30 20804 H 1879.77 -2.22868 2.33516 0
M  V30 20805 H 1878.83 -0.296678 3.79241 0
M  V30 20806 H 1880.14 -0.607375 4.95088 0
M  V30 20807 H 1879.29 -2.93563 5.30948 0
M  V30 20808 H 1878.03 -2.68929 4.06852 0
M  V30 20809 H 1877.04 -0.832863 5.43455 0
M  V30 20810 H 1878.26 -1.10251 6.70091 0
M  V30 20811 H 1876.21 -3.13968 5.75986 0
M  V30 20812 H 1876.12 -2.22019 7.22664 0
M  V30 20813 H 1877.39 -3.39105 7.01875 0
M  V30 20814 N 1881.62 -1.57387 0.0818932 0
M  V30 20815 C 1882.87 -1.93045 -0.584519 0
M  V30 20816 C 1883.18 -0.96473 -1.70154 0
M  V30 20817 O 1884.39 -1.21451 -2.42821 0
M  V30 20818 C 1882.85 -3.42962 -1.0911 0
M  V30 20819 C 1882.45 -4.48 -0.00454233 0
M  V30 20820 C 1884.2 -3.87604 -1.731 0
M  V30 20821 C 1882.1 -5.89059 -0.525733 0
M  V30 20822 H 1881.03 -0.720543 -0.222112 0
M  V30 20823 H 1883.69 -1.82838 0.155762 0
M  V30 20824 H 1882.07 -3.48277 -1.88466 0
M  V30 20825 H 1883.24 -4.54314 0.770444 0
M  V30 20826 H 1881.56 -4.12887 0.539739 0
M  V30 20827 H 1884.15 -4.90382 -2.13143 0
M  V30 20828 H 1884.5 -3.25524 -2.59499 0
M  V30 20829 H 1885.03 -3.84935 -1.00349 0
M  V30 20830 H 1881.77 -6.54807 0.301333 0
M  V30 20831 H 1881.29 -5.86243 -1.26802 0
M  V30 20832 H 1882.97 -6.39242 -0.998928 0
M  V30 20833 N 1883.1 0.191729 -1.56429 0
M  V30 20834 C 1884.51 0.756099 -1.70705 0
M  V30 20835 C 1884.86 1.83703 -0.689029 0
M  V30 20836 O 1883.99 2.15852 0.153863 0
M  V30 20837 C 1884.58 1.37827 -3.09498 0
M  V30 20838 C 1883.14 1.88968 -3.25527 0
M  V30 20839 C 1882.29 0.76089 -2.66657 0
M  V30 20840 H 1885.24 -0.0333918 -1.58665 0
M  V30 20841 H 1885.26 2.24771 -3.07015 0
M  V30 20842 H 1884.77 0.591316 -3.83569 0
M  V30 20843 H 1882.87 2.70372 -2.56378 0
M  V30 20844 H 1882.99 2.04916 -4.33066 0
M  V30 20845 H 1881.35 1.17606 -2.25923 0
M  V30 20846 H 1882.13 -0.0138776 -3.43297 0
M  V30 20847 N 1884.58 1.50751 0.459565 0
M  V30 20848 C 1885.82 1.62556 1.21258 0
M  V30 20849 C 1886.16 0.330265 1.91371 0
M  V30 20850 O 1885.43 -0.668955 1.82634 0
M  V30 20851 C 1885.71 2.8138 2.24716 0
M  V30 20852 C 1885.57 4.20823 1.58832 0
M  V30 20853 C 1886.89 2.95744 3.2592 0
M  V30 20854 H 1884.01 0.591628 0.439483 0
M  V30 20855 H 1886.65 1.83172 0.504777 0
M  V30 20856 H 1884.8 2.63933 2.85082 0
M  V30 20857 H 1886.47 4.49888 1.01975 0
M  V30 20858 H 1884.71 4.24548 0.891148 0
M  V30 20859 H 1885.38 4.99915 2.3407 0
M  V30 20860 H 1887.86 3.11754 2.75588 0
M  V30 20861 H 1886.74 3.80488 3.95626 0
M  V30 20862 H 1887 2.06852 3.90723 0
M  V30 20863 N 1886.06 -0.713531 1.40522 0
M  V30 20864 C 1887.01 -1.81927 1.37429 0
M  V30 20865 C 1887.99 -1.58922 0.251499 0
M  V30 20866 O 1889.18 -1.7006 0.490768 0
M  V30 20867 C 1886.31 -3.20074 1.24127 0
M  V30 20868 C 1885.4 -3.48835 2.41195 0
M  V30 20869 N 1885.79 -3.484 3.66676 0
M  V30 20870 C 1884.09 -3.79302 2.34619 0
M  V30 20871 C 1884.79 -3.75562 4.44217 0
M  V30 20872 N 1883.76 -3.94413 3.74084 0
M  V30 20873 H 1887.56 -1.79927 2.32387 0
M  V30 20874 H 1885.08 -0.912746 1.34323 0
M  V30 20875 H 1887.08 -3.99258 1.19993 0
M  V30 20876 H 1885.74 -3.23298 0.301379 0
M  V30 20877 H 1886.75 -3.29201 3.99809 0
M  V30 20878 H 1883.42 -3.90004 1.49007 0
M  V30 20879 H 1884.81 -3.81513 5.5308 0
M  V30 20880 N 1887.53 -1.26053 -0.945962 0
M  V30 20881 C 1888.47 -1.01515 -2.04377 0
M  V30 20882 C 1889.44 0.0585108 -1.62495 0
M  V30 20883 O 1890.63 -0.0829278 -1.88317 0
M  V30 20884 C 1887.76 -0.536293 -3.34427 0
M  V30 20885 C 1886.8 -1.60179 -3.95278 0
M  V30 20886 S 1887.63 -3.18942 -4.30159 0
M  V30 20887 C 1888.79 -2.72813 -5.63315 0
M  V30 20888 H 1889.02 -1.94467 -2.24877 0
M  V30 20889 H 1886.56 -1.09679 -1.08673 0
M  V30 20890 H 1888.51 -0.266669 -4.09633 0
M  V30 20891 H 1887.18 0.372873 -3.11879 0
M  V30 20892 H 1886.37 -1.21763 -4.8907 0
M  V30 20893 H 1885.97 -1.82254 -3.26587 0
M  V30 20894 H 1888.26 -2.16979 -6.41815 0
M  V30 20895 H 1889.21 -3.65278 -6.06611 0
M  V30 20896 H 1889.61 -2.1253 -5.22964 0
M  V30 20897 N 1889.01 1.14984 -1.07779 0
M  V30 20898 C 1889.96 2.2193 -0.696405 0
M  V30 20899 C 1890.95 1.66815 0.294832 0
M  V30 20900 O 1892.16 1.79305 0.158081 0
M  V30 20901 H 1888.53 0.722908 -0.207143 0
M  V30 20902 H 1890.51 2.51374 -1.60791 0
M  V30 20903 C 1889.25 3.4751 -0.114943 0
M  V30 20904 H 1888.58 3.90245 -0.86883 0
M  V30 20905 H 1890.02 4.23846 0.114195 0
M  V30 20906 C 1888.48 3.16827 1.14552 0
M  V30 20907 O 1889.01 3.34026 2.23135 0
M  V30 20908 N 1887.21 2.70836 1.05339 0
M  V30 20909 H 1886.76 2.5704 0.169728 0
M  V30 20910 H 1886.72 2.50681 1.89754 0
M  V30 20911 N 1890.49 0.862526 1.31902 0
M  V30 20912 C 1891.4 0.316029 2.32462 0
M  V30 20913 C 1892.42 -0.570217 1.64391 0
M  V30 20914 O 1893.59 -0.46871 1.9587 0
M  V30 20915 C 1890.66 -0.479949 3.43362 0
M  V30 20916 C 1889.72 0.43337 4.27107 0
M  V30 20917 C 1888.95 -0.324714 5.32711 0
M  V30 20918 O 1889.17 -1.55373 5.48831 0
M  V30 20919 O 1888.11 0.313571 6.01083 0
M  V30 20920 H 1891.93 1.14935 2.81111 0
M  V30 20921 H 1889.52 0.625683 1.35667 0
M  V30 20922 H 1891.4 -0.931458 4.10977 0
M  V30 20923 H 1890.08 -1.28994 2.96888 0
M  V30 20924 H 1888.98 0.933222 3.62273 0
M  V30 20925 H 1890.32 1.20876 4.77127 0
M  V30 20926 N 1891.97 -1.4484 0.62123 0
M  V30 20927 C 1892.92 -2.32377 -0.1019 0
M  V30 20928 C 1893.91 -1.4677 -0.845862 0
M  V30 20929 O 1895.12 -1.63174 -0.759882 0
M  V30 20930 H 1891.49 -0.75022 -0.0517143 0
M  V30 20931 H 1893.46 -2.91131 0.654623 0
M  V30 20932 C 1892.21 -3.30611 -1.07665 0
M  V30 20933 H 1891.53 -3.96487 -0.513612 0
M  V30 20934 H 1892.97 -3.94563 -1.5523 0
M  V30 20935 C 1891.43 -2.58795 -2.157 0
M  V30 20936 O 1891.96 -2.37947 -3.23642 0
M  V30 20937 N 1890.17 -2.187 -1.9136 0
M  V30 20938 H 1889.72 -2.35856 -1.03584 0
M  V30 20939 H 1889.67 -1.70975 -2.63847 0
M  V30 20940 N 1893.45 -0.361184 -1.53405 0
M  V30 20941 C 1894.39 0.502532 -2.27107 0
M  V30 20942 C 1895.39 1.08711 -1.29916 0
M  V30 20943 O 1896.59 1.03082 -1.47561 0
M  V30 20944 H 1892.97 0.180773 -0.729949 0
M  V30 20945 H 1894.94 -0.140891 -2.98067 0
M  V30 20946 C 1893.69 1.63258 -3.06989 0
M  V30 20947 H 1893.01 1.19205 -3.81615 0
M  V30 20948 H 1894.45 2.21174 -3.61743 0
M  V30 20949 C 1892.91 2.57234 -2.17559 0
M  V30 20950 O 1893.44 3.59939 -1.78345 0
M  V30 20951 N 1891.65 2.26322 -1.82282 0
M  V30 20952 H 1891.19 1.4284 -2.1437 0
M  V30 20953 H 1891.15 2.89455 -1.22731 0
M  V30 20954 N 1894.92 1.57341 -0.0902386 0
M  V30 20955 C 1895.85 2.16782 0.86764 0
M  V30 20956 C 1896.84 1.09982 1.29761 0
M  V30 20957 O 1898.02 1.38099 1.36537 0
M  V30 20958 C 1895.15 2.74426 2.12856 0
M  V30 20959 C 1894.1 3.86555 1.83738 0
M  V30 20960 C 1893.43 4.3088 3.16617 0
M  V30 20961 C 1894.73 5.09971 1.12814 0
M  V30 20962 H 1896.42 2.97075 0.372417 0
M  V30 20963 H 1893.97 1.42899 0.177689 0
M  V30 20964 H 1895.92 3.14659 2.80299 0
M  V30 20965 H 1894.65 1.9138 2.64653 0
M  V30 20966 H 1893.31 3.46853 1.18694 0
M  V30 20967 H 1892.95 3.44732 3.66291 0
M  V30 20968 H 1892.65 5.06477 2.97918 0
M  V30 20969 H 1894.18 4.73743 3.85227 0
M  V30 20970 H 1895.59 5.47404 1.70358 0
M  V30 20971 H 1893.99 5.90965 1.04311 0
M  V30 20972 H 1895.06 4.84775 0.110114 0
M  V30 20973 N 1896.4 -0.183431 1.56529 0
M  V30 20974 C 1897.35 -1.24666 1.9637 0
M  V30 20975 C 1898.34 -1.46489 0.850728 0
M  V30 20976 O 1899.55 -1.47212 1.03579 0
M  V30 20977 H 1895.93 -0.418792 0.624594 0
M  V30 20978 H 1897.9 -0.883697 2.85015 0
M  V30 20979 C 1896.65 -2.58135 2.32942 0
M  V30 20980 H 1895.97 -2.42162 3.18116 0
M  V30 20981 H 1897.41 -3.31247 2.64672 0
M  V30 20982 C 1895.87 -3.15993 1.16832 0
M  V30 20983 O 1896.4 -3.99177 0.449531 0
M  V30 20984 N 1894.6 -2.74907 0.942059 0
M  V30 20985 H 1894.15 -2.07365 1.52832 0
M  V30 20986 H 1894.11 -3.13956 0.167 0
M  V30 20987 N 1897.88 -1.50992 -0.451564 0
M  V30 20988 C 1898.83 -1.71831 -1.5677 0
M  V30 20989 C 1899.82 -0.584366 -1.59002 0
M  V30 20990 O 1901.03 -0.765385 -1.62917 0
M  V30 20991 H 1897.4 -0.542689 -0.52057 0
M  V30 20992 H 1899.37 -2.6542 -1.36363 0
M  V30 20993 C 1898.12 -1.84752 -2.94554 0
M  V30 20994 H 1897.45 -2.71405 -2.93563 0
M  V30 20995 H 1898.89 -2.0335 -3.72055 0
M  V30 20996 C 1897.35 -0.603808 -3.31445 0
M  V30 20997 O 1897.88 0.248099 -4.00933 0
M  V30 20998 N 1896.08 -0.452069 -2.87062 0
M  V30 20999 H 1895.63 -1.14638 -2.30686 0
M  V30 21000 H 1895.59 0.378877 -3.12109 0
M  V30 21001 N 1899.36 0.706069 -1.40899 0
M  V30 21002 C 1900.61 1.46164 -1.38993 0
M  V30 21003 C 1900.92 1.956 0.00145788 0
M  V30 21004 O 1902.13 2.71122 0.143137 0
M  V30 21005 C 1900.58 2.64252 -2.44334 0
M  V30 21006 C 1900.19 2.21646 -3.89329 0
M  V30 21007 C 1901.93 3.41941 -2.51549 0
M  V30 21008 C 1899.84 3.36629 -4.86245 0
M  V30 21009 H 1898.77 0.548985 -0.516847 0
M  V30 21010 H 1901.42 0.767528 -1.66677 0
M  V30 21011 H 1899.8 3.3588 -2.09764 0
M  V30 21012 H 1900.98 1.57376 -4.33093 0
M  V30 21013 H 1899.29 1.56978 -3.85677 0
M  V30 21014 H 1901.89 4.27518 -3.21142 0
M  V30 21015 H 1902.23 3.86409 -1.54899 0
M  V30 21016 H 1902.77 2.77363 -2.85158 0
M  V30 21017 H 1899.51 2.97183 -5.84262 0
M  V30 21018 H 1899.03 3.99784 -4.47139 0
M  V30 21019 H 1900.7 4.02559 -5.06513 0
M  V30 21020 N 1900.84 1.26553 0.939264 0
M  V30 21021 C 1902.07 1.14826 1.71752 0
M  V30 21022 C 1902.47 -0.298981 1.86823 0
M  V30 21023 O 1901.82 -1.21638 1.37659 0
M  V30 21024 C 1901.88 1.74655 3.14222 0
M  V30 21025 C 1901.54 3.23765 3.22529 0
M  V30 21026 C 1902.54 4.20557 3.0566 0
M  V30 21027 C 1900.23 3.64263 3.45858 0
M  V30 21028 C 1902.22 5.55825 3.1199 0
M  V30 21029 C 1899.91 4.99664 3.51823 0
M  V30 21030 C 1900.9 5.95254 3.34905 0
M  V30 21031 O 1900.59 7.28189 3.40583 0
M  V30 21032 H 1900.32 0.400613 0.544505 0
M  V30 21033 H 1902.88 1.67708 1.18589 0
M  V30 21034 H 1901.11 1.16238 3.68816 0
M  V30 21035 H 1902.8 1.57807 3.73967 0
M  V30 21036 H 1903.56 3.90608 2.8749 0
M  V30 21037 H 1899.44 2.90343 3.58081 0
M  V30 21038 H 1902.99 6.30414 2.98703 0
M  V30 21039 H 1898.88 5.29273 3.69514 0
M  V30 21040 H 1899.65 7.36486 3.57114 0
M  V30 21041 N 1902.31 -1.14411 1.08387 0
M  V30 21042 C 1903.56 -1.84792 0.808372 0
M  V30 21043 C 1903.88 -1.83833 -0.668195 0
M  V30 21044 O 1905.08 -2.50001 -1.05885 0
M  V30 21045 C 1903.54 -3.31718 1.3961 0
M  V30 21046 C 1903.15 -3.41095 2.90444 0
M  V30 21047 C 1904.89 -4.07213 1.19908 0
M  V30 21048 C 1902.8 -4.82231 3.42356 0
M  V30 21049 H 1901.73 -0.692298 0.29873 0
M  V30 21050 H 1904.38 -1.28977 1.30526 0
M  V30 21051 H 1902.76 -3.8727 0.826924 0
M  V30 21052 H 1903.93 -2.95595 3.53497 0
M  V30 21053 H 1902.25 -2.79056 3.09058 0
M  V30 21054 H 1904.85 -5.11389 1.56158 0
M  V30 21055 H 1905.19 -4.16068 0.138882 0
M  V30 21056 H 1905.72 -3.57961 1.73519 0
M  V30 21057 H 1902.46 -4.78563 4.47948 0
M  V30 21058 H 1901.98 -5.2827 2.84062 0
M  V30 21059 H 1903.66 -5.5112 3.38933 0
M  V30 21060 N 1903.79 -0.869509 -1.31443 0
M  V30 21061 C 1905.02 -0.494667 -2.009 0
M  V30 21062 C 1905.44 0.912728 -1.65272 0
M  V30 21063 O 1904.79 1.59788 -0.881702 0
M  V30 21064 C 1904.84 -0.641585 -3.55761 0
M  V30 21065 O 1904.56 -1.99356 -3.90114 0
M  V30 21066 C 1906.07 -0.267695 -4.42491 0
M  V30 21067 H 1903.29 -0.192789 -0.642708 0
M  V30 21068 H 1905.83 -1.17055 -1.67686 0
M  V30 21069 H 1903.98 -0.0132632 -3.87398 0
M  V30 21070 H 1904.4 -2.00099 -4.8483 0
M  V30 21071 H 1905.87 -0.421448 -5.50389 0
M  V30 21072 H 1906.35 0.793108 -4.3198 0
M  V30 21073 H 1906.96 -0.871698 -4.16271 0
M  V30 21074 N 1905.27 1.44508 -0.628902 0
M  V30 21075 C 1906.22 2.3067 0.0773497 0
M  V30 21076 C 1907.19 1.43353 0.839003 0
M  V30 21077 O 1908.37 1.72258 0.820487 0
M  V30 21078 C 1905.51 3.28596 1.05447 0
M  V30 21079 C 1904.63 4.31016 0.291465 0
M  V30 21080 C 1903.76 5.16035 1.2602 0
M  V30 21081 C 1902.8 6.10166 0.486229 0
M  V30 21082 N 1901.94 6.87892 1.40532 0
M  V30 21083 H 1906.78 2.90523 -0.663346 0
M  V30 21084 H 1904.31 1.43143 -0.338906 0
M  V30 21085 H 1906.27 3.83856 1.63433 0
M  V30 21086 H 1904.9 2.70448 1.76232 0
M  V30 21087 H 1903.95 3.78246 -0.404285 0
M  V30 21088 H 1905.27 4.97827 -0.311447 0
M  V30 21089 H 1904.42 5.75802 1.91147 0
M  V30 21090 H 1903.16 4.49293 1.89704 0
M  V30 21091 H 1902.16 5.4951 -0.178543 0
M  V30 21092 H 1903.39 6.78943 -0.145859 0
M  V30 21093 H 1901.33 6.2382 2.0294 0
M  V30 21094 H 1901.25 7.51134 0.856369 0
M  V30 21095 H 1902.52 7.52183 2.04549 0
M  V30 21096 N 1906.75 0.369315 1.53212 0
M  V30 21097 C 1907.7 -0.491919 2.2263 0
M  V30 21098 C 1908.68 -1.0457 1.22286 0
M  V30 21099 O 1909.88 -0.975125 1.47717 0
M  V30 21100 C 1907 -1.62916 3.02181 0
M  V30 21101 C 1906.09 -1.08808 4.09904 0
M  V30 21102 N 1906.48 -0.270291 5.05077 0
M  V30 21103 C 1904.78 -1.36253 4.24678 0
M  V30 21104 C 1905.48 0.0263875 5.81694 0
M  V30 21105 N 1904.46 -0.572239 5.4058 0
M  V30 21106 H 1908.26 0.139657 2.93568 0
M  V30 21107 H 1905.77 0.177531 1.61427 0
M  V30 21108 H 1907.77 -2.25837 3.50433 0
M  V30 21109 H 1906.43 -2.26376 2.32774 0
M  V30 21110 H 1907.44 0.0908158 5.1782 0
M  V30 21111 H 1904.12 -1.99964 3.66498 0
M  V30 21112 H 1905.51 0.687735 6.68371 0
M  V30 21113 N 1908.23 -1.57291 0.0985816 0
M  V30 21114 C 1909.47 -1.94478 -0.564304 0
M  V30 21115 C 1909.8 -0.980557 -1.67974 0
M  V30 21116 O 1909.06 -0.000761176 -1.957 0
M  V30 21117 C 1909.36 -3.38184 -1.15613 0
M  V30 21118 C 1909.02 -4.50601 -0.164125 0
M  V30 21119 C 1907.68 -4.81077 0.108706 0
M  V30 21120 C 1910.04 -5.18669 0.513033 0
M  V30 21121 C 1907.36 -5.76947 1.06533 0
M  V30 21122 C 1909.72 -6.15565 1.45815 0
M  V30 21123 C 1908.38 -6.44445 1.73918 0
M  V30 21124 H 1907.65 -0.711647 -0.206493 0
M  V30 21125 H 1910.3 -1.90697 0.175155 0
M  V30 21126 H 1908.6 -3.3856 -1.97191 0
M  V30 21127 H 1910.3 -3.6426 -1.67678 0
M  V30 21128 H 1906.89 -4.2685 -0.386958 0
M  V30 21129 H 1911.07 -4.95297 0.315398 0
M  V30 21130 H 1906.33 -5.97636 1.29002 0
M  V30 21131 H 1910.5 -6.67402 1.98865 0
M  V30 21132 H 1908.13 -7.1854 2.48201 0
M  V30 21133 N 1909.71 0.175127 -1.56624 0
M  V30 21134 C 1910.64 1.21918 -1.99144 0
M  V30 21135 C 1911.62 1.4638 -0.866428 0
M  V30 21136 O 1912.8 1.57779 -1.13223 0
M  V30 21137 C 1909.93 2.55897 -2.34807 0
M  V30 21138 C 1908.89 2.46011 -3.50232 0
M  V30 21139 C 1908.21 3.84445 -3.71626 0
M  V30 21140 C 1909.51 1.96808 -4.83801 0
M  V30 21141 H 1911.21 0.86575 -2.8661 0
M  V30 21142 H 1908.75 0.415014 -1.3789 0
M  V30 21143 H 1910.7 3.29136 -2.63149 0
M  V30 21144 H 1909.43 2.9302 -1.44245 0
M  V30 21145 H 1908.09 1.75227 -3.22011 0
M  V30 21146 H 1907.74 4.18955 -2.78362 0
M  V30 21147 H 1907.44 3.787 -4.49288 0
M  V30 21148 H 1908.96 4.59276 -4.02366 0
M  V30 21149 H 1910.37 2.59819 -5.11045 0
M  V30 21150 H 1908.77 2.0202 -5.65073 0
M  V30 21151 H 1909.84 0.922209 -4.7605 0
M  V30 21152 N 1911.18 1.5123 0.44355 0
M  V30 21153 C 1912.41 1.67146 1.21432 0
M  V30 21154 C 1912.82 0.365681 1.85632 0
M  V30 21155 O 1912.16 -0.665141 1.71235 0
M  V30 21156 C 1912.23 2.72562 2.34415 0
M  V30 21157 C 1911.89 4.15341 1.90632 0
M  V30 21158 C 1912.89 5.00323 1.41325 0
M  V30 21159 C 1910.57 4.61409 1.98513 0
M  V30 21160 C 1912.57 6.29431 1.00476 0
M  V30 21161 C 1910.25 5.90515 1.57276 0
M  V30 21162 C 1911.25 6.74353 1.08339 0
M  V30 21163 O 1910.94 8.01046 0.676843 0
M  V30 21164 H 1910.67 0.564225 0.372325 0
M  V30 21165 H 1913.23 1.98375 0.532597 0
M  V30 21166 H 1911.46 2.36634 3.05845 0
M  V30 21167 H 1913.14 2.77419 2.96299 0
M  V30 21168 H 1913.91 4.65938 1.34636 0
M  V30 21169 H 1909.79 3.96279 2.3555 0
M  V30 21170 H 1913.33 6.94821 0.622093 0
M  V30 21171 H 1909.23 6.24415 1.63633 0
M  V30 21172 H 1910 8.14549 0.803247 0
M  V30 21173 N 1912.66 -0.698586 1.41271 0
M  V30 21174 C 1913.89 -1.48743 1.43816 0
M  V30 21175 C 1914.3 -1.88752 0.0425858 0
M  V30 21176 O 1913.66 -1.56584 -0.937425 0
M  V30 21177 C 1913.71 -2.75192 2.34418 0
M  V30 21178 O 1913.43 -2.36869 3.68544 0
M  V30 21179 C 1914.93 -3.68957 2.45735 0
M  V30 21180 H 1912.15 -0.458477 0.489938 0
M  V30 21181 H 1914.7 -0.860372 1.85521 0
M  V30 21182 H 1912.85 -3.34142 1.9603 0
M  V30 21183 H 1913.27 -3.18354 4.16834 0
M  V30 21184 H 1914.74 -4.54473 3.13302 0
M  V30 21185 H 1915.22 -4.13237 1.48767 0
M  V30 21186 H 1915.82 -3.15912 2.84745 0
M  V30 21187 N 1914.14 -1.27049 -0.93254 0
M  V30 21188 C 1915.07 -1.05151 -2.03656 0
M  V30 21189 C 1916.08 -0.00913996 -1.62797 0
M  V30 21190 O 1917.27 -0.25017 -1.76738 0
M  V30 21191 C 1914.37 -0.572071 -3.34037 0
M  V30 21192 C 1913.55 -1.68563 -4.03615 0
M  V30 21193 C 1912.61 -1.20276 -5.12269 0
M  V30 21194 O 1911.63 -1.9015 -5.36499 0
M  V30 21195 N 1912.83 -0.0558099 -5.80473 0
M  V30 21196 H 1915.6 -2.00221 -2.23006 0
M  V30 21197 H 1913.16 -1.18551 -1.1026 0
M  V30 21198 H 1915.15 -0.233036 -4.04029 0
M  V30 21199 H 1913.72 0.285274 -3.11296 0
M  V30 21200 H 1912.94 -2.19519 -3.27422 0
M  V30 21201 H 1914.23 -2.43313 -4.46852 0
M  V30 21202 H 1913.63 0.527516 -5.63235 0
M  V30 21203 H 1912.18 0.224082 -6.51415 0
M  V30 21204 N 1915.62 1.13835 -1.08993 0
M  V30 21205 C 1916.87 1.84361 -0.818161 0
M  V30 21206 C 1917.18 1.84185 0.658437 0
M  V30 21207 O 1918.39 2.50559 1.04558 0
M  V30 21208 C 1916.84 3.30973 -1.41367 0
M  V30 21209 C 1916.45 3.3955 -2.92249 0
M  V30 21210 C 1918.19 4.06571 -1.22066 0
M  V30 21211 C 1916.1 4.80408 -3.44908 0
M  V30 21212 H 1915.03 0.690704 -0.302397 0
M  V30 21213 H 1917.68 1.28283 -1.31208 0
M  V30 21214 H 1916.06 3.86826 -0.84745 0
M  V30 21215 H 1917.24 2.93716 -3.5506 0
M  V30 21216 H 1915.55 2.77413 -3.10533 0
M  V30 21217 H 1918.15 5.10554 -1.58868 0
M  V30 21218 H 1918.49 4.15989 -0.160946 0
M  V30 21219 H 1919.03 3.57036 -1.75415 0
M  V30 21220 H 1915.76 4.76181 -4.5048 0
M  V30 21221 H 1915.28 5.26756 -2.86859 0
M  V30 21222 H 1916.96 5.49315 -3.4185 0
M  V30 21223 N 1917.1 0.876467 1.3098 0
M  V30 21224 C 1918.04 0.335149 2.28354 0
M  V30 21225 C 1919.01 -0.569979 1.56014 0
M  V30 21226 O 1920.2 -0.500226 1.84126 0
M  V30 21227 C 1917.34 -0.451723 3.42131 0
M  V30 21228 C 1916.45 0.481657 4.29306 0
M  V30 21229 C 1915.59 -0.319977 5.30235 0
M  V30 21230 C 1914.62 0.609417 6.09059 0
M  V30 21231 N 1913.76 -0.156366 7.01926 0
M  V30 21232 H 1918.6 1.17069 2.74042 0
M  V30 21233 H 1916.14 0.588683 1.34807 0
M  V30 21234 H 1918.1 -0.923775 4.06844 0
M  V30 21235 H 1916.73 -1.25191 2.97535 0
M  V30 21236 H 1915.78 1.07218 3.64977 0
M  V30 21237 H 1917.09 1.19403 4.84298 0
M  V30 21238 H 1916.24 -0.854256 6.00656 0
M  V30 21239 H 1914.98 -1.06561 4.75916 0
M  V30 21240 H 1913.99 1.1554 5.37523 0
M  V30 21241 H 1915.21 1.354 6.65465 0
M  V30 21242 H 1913.16 -0.884688 6.50007 0
M  V30 21243 H 1913.08 0.496538 7.54368 0
M  V30 21244 H 1914.34 -0.671665 7.76601 0
M  V30 21245 N 1918.57 -1.44173 0.636557 0
M  V30 21246 C 1919.52 -2.30708 -0.0651156 0
M  V30 21247 C 1920.49 -1.43795 -0.831389 0
M  V30 21248 O 1921.68 -1.7269 -0.81134 0
M  V30 21249 C 1918.82 -3.2915 -1.03703 0
M  V30 21250 C 1917.93 -4.31164 -0.268603 0
M  V30 21251 C 1917.06 -5.16696 -1.23282 0
M  V30 21252 C 1916.1 -6.10415 -0.453864 0
M  V30 21253 N 1915.24 -6.88628 -1.36881 0
M  V30 21254 H 1920.08 -2.90167 0.678744 0
M  V30 21255 H 1917.62 -1.42961 0.346492 0
M  V30 21256 H 1919.57 -3.84717 -1.61395 0
M  V30 21257 H 1918.2 -2.71379 -1.74795 0
M  V30 21258 H 1917.26 -3.78026 0.424338 0
M  V30 21259 H 1918.57 -4.97655 0.337844 0
M  V30 21260 H 1917.72 -5.76807 -1.88091 0
M  V30 21261 H 1916.46 -4.50292 -1.87318 0
M  V30 21262 H 1915.47 -5.49408 0.207683 0
M  V30 21263 H 1916.69 -6.78856 0.181863 0
M  V30 21264 H 1914.64 -6.24887 -1.99629 0
M  V30 21265 H 1914.55 -7.51578 -0.816523 0
M  V30 21266 H 1915.82 -7.53258 -2.00558 0
M  V30 21267 N 1920.05 -0.377435 -1.53014 0
M  V30 21268 C 1921.01 0.451217 -2.24715 0
M  V30 21269 C 1922.01 1.00001 -1.25923 0
M  V30 21270 O 1923.2 0.883884 -1.5011 0
M  V30 21271 C 1920.34 1.63185 -2.99305 0
M  V30 21272 H 1921.53 -0.176358 -2.99381 0
M  V30 21273 H 1919.08 -0.12933 -1.55764 0
M  V30 21274 H 1919.82 2.29718 -2.2891 0
M  V30 21275 H 1919.6 1.24517 -3.71804 0
M  V30 21276 H 1921.09 2.2188 -3.53778 0
M  V30 21277 N 1921.53 1.57237 -0.106922 0
M  V30 21278 C 1922.48 2.11215 0.858607 0
M  V30 21279 C 1923.46 1.03 1.23612 0
M  V30 21280 O 1924.66 1.29255 1.20922 0
M  V30 21281 C 1921.79 2.7055 2.11324 0
M  V30 21282 C 1920.87 3.85827 1.76064 0
M  V30 21283 N 1921.26 4.93376 1.11419 0
M  V30 21284 C 1919.56 3.95784 2.05599 0
M  V30 21285 C 1920.26 5.73885 0.950315 0
M  V30 21286 N 1919.24 5.23306 1.47144 0
M  V30 21287 H 1923.04 2.91747 0.355056 0
M  V30 21288 H 1920.55 1.62116 0.0959292 0
M  V30 21289 H 1922.55 3.07557 2.8145 0
M  V30 21290 H 1921.21 1.91477 2.62234 0
M  V30 21291 H 1922.22 5.11999 0.779594 0
M  V30 21292 H 1918.9 3.27736 2.58641 0
M  V30 21293 H 1920.29 6.70433 0.44383 0
M  V30 21294 N 1923.01 -0.166818 1.56715 0
M  V30 21295 C 1923.96 -1.20646 1.96757 0
M  V30 21296 C 1924.93 -1.43751 0.832153 0
M  V30 21297 O 1926.11 -1.56416 1.09264 0
M  V30 21298 C 1923.25 -2.53971 2.3365 0
M  V30 21299 C 1922.36 -2.38207 3.60391 0
M  V30 21300 C 1921.5 -3.6443 3.86476 0
M  V30 21301 C 1920.54 -3.43618 5.0655 0
M  V30 21302 N 1919.67 -4.61923 5.28746 0
M  V30 21303 H 1924.51 -0.857983 2.85382 0
M  V30 21304 H 1922.05 -0.412238 1.41206 0
M  V30 21305 H 1924.01 -3.31684 2.53064 0
M  V30 21306 H 1922.64 -2.86805 1.48131 0
M  V30 21307 H 1921.69 -1.51648 3.48866 0
M  V30 21308 H 1923 -2.18777 4.48261 0
M  V30 21309 H 1922.16 -4.50578 4.06282 0
M  V30 21310 H 1920.9 -3.86844 2.9699 0
M  V30 21311 H 1919.9 -2.55858 4.86638 0
M  V30 21312 H 1921.13 -3.22623 5.97571 0
M  V30 21313 H 1919.07 -4.84547 4.42211 0
M  V30 21314 H 1918.99 -4.45423 6.10848 0
M  V30 21315 H 1920.26 -5.4934 5.53033 0
M  V30 21316 N 1924.49 -1.51463 -0.435524 0
M  V30 21317 C 1925.42 -1.75856 -1.53613 0
M  V30 21318 C 1926.4 -0.608449 -1.58846 0
M  V30 21319 O 1927.58 -0.85135 -1.74544 0
M  V30 21320 C 1924.71 -1.88525 -2.91677 0
M  V30 21321 C 1923.67 -3.03972 -3.01305 0
M  V30 21322 C 1922.99 -3.01828 -4.41366 0
M  V30 21323 C 1924.29 -4.43905 -2.75219 0
M  V30 21324 H 1925.99 -2.68013 -1.33452 0
M  V30 21325 H 1923.53 -1.28968 -0.640564 0
M  V30 21326 H 1925.49 -2.04173 -3.68634 0
M  V30 21327 H 1924.21 -0.930179 -3.13074 0
M  V30 21328 H 1922.87 -2.88033 -2.26788 0
M  V30 21329 H 1922.52 -2.04095 -4.59733 0
M  V30 21330 H 1922.22 -3.79353 -4.48737 0
M  V30 21331 H 1923.74 -3.19572 -5.20294 0
M  V30 21332 H 1925.15 -4.60187 -3.41908 0
M  V30 21333 H 1923.55 -5.2315 -2.93998 0
M  V30 21334 H 1924.62 -4.53818 -1.70814 0
M  V30 21335 N 1925.96 0.691085 -1.4164 0
M  V30 21336 C 1927.21 1.45329 -1.41447 0
M  V30 21337 C 1927.54 1.94184 -0.0249758 0
M  V30 21338 O 1926.82 1.69831 0.948043 0
M  V30 21339 C 1927.1 2.66199 -2.42508 0
M  V30 21340 C 1926.95 2.23081 -3.90583 0
M  V30 21341 C 1928.27 3.68402 -2.40766 0
M  V30 21342 H 1925.39 0.527115 -0.515091 0
M  V30 21343 H 1928.03 0.786758 -1.72945 0
M  V30 21344 H 1926.18 3.23066 -2.15778 0
M  V30 21345 H 1927.86 1.71506 -4.28233 0
M  V30 21346 H 1926.1 1.54818 -4.05233 0
M  V30 21347 H 1926.77 3.09828 -4.56848 0
M  V30 21348 H 1929.25 3.21217 -2.64497 0
M  V30 21349 H 1928.12 4.50576 -3.13484 0
M  V30 21350 H 1928.38 4.18408 -1.42783 0
M  V30 21351 N 1927.44 1.27542 0.925789 0
M  V30 21352 C 1928.67 1.1681 1.70772 0
M  V30 21353 C 1929.09 -0.274824 1.86789 0
M  V30 21354 O 1928.44 -1.18694 1.38629 0
M  V30 21355 C 1928.49 1.84904 3.10633 0
M  V30 21356 O 1928.21 3.23559 2.95366 0
M  V30 21357 C 1929.72 1.80322 4.04968 0
M  V30 21358 H 1926.94 0.406036 0.534206 0
M  V30 21359 H 1929.48 1.68448 1.15955 0
M  V30 21360 H 1927.63 1.37166 3.62304 0
M  V30 21361 H 1928.05 3.57488 3.838 0
M  V30 21362 H 1929.52 2.32577 5.00611 0
M  V30 21363 H 1930 0.772975 4.32344 0
M  V30 21364 H 1930.61 2.27683 3.59222 0
M  V30 21365 N 1928.92 -1.13255 1.09595 0
M  V30 21366 C 1929.85 -2.20827 0.758791 0
M  V30 21367 C 1930.83 -1.68034 -0.264325 0
M  V30 21368 O 1932.02 -1.93751 -0.132005 0
M  V30 21369 C 1929.15 -3.46831 0.180424 0
M  V30 21370 C 1928.1 -4.12724 1.13325 0
M  V30 21371 C 1927.43 -5.33075 0.416504 0
M  V30 21372 C 1928.73 -4.59862 2.47637 0
M  V30 21373 H 1930.42 -2.49287 1.65821 0
M  V30 21374 H 1927.97 -1.19818 0.798734 0
M  V30 21375 H 1929.92 -4.21346 -0.0675313 0
M  V30 21376 H 1928.64 -3.17773 -0.754194 0
M  V30 21377 H 1927.3 -3.40179 1.36651 0
M  V30 21378 H 1926.95 -5.00281 -0.522308 0
M  V30 21379 H 1926.65 -5.78109 1.05183 0
M  V30 21380 H 1928.17 -6.10344 0.17689 0
M  V30 21381 H 1929.59 -5.25791 2.28509 0
M  V30 21382 H 1927.99 -5.15642 3.06974 0
M  V30 21383 H 1929.06 -3.74294 3.08273 0
M  V30 21384 N 1930.4 -0.883401 -1.30514 0
M  V30 21385 C 1931.65 -0.500062 -1.95816 0
M  V30 21386 C 1931.97 0.953596 -1.70093 0
M  V30 21387 O 1931.24 1.67027 -1.02365 0
M  V30 21388 H 1929.82 -0.181936 -0.724506 0
M  V30 21389 H 1932.48 -1.12613 -1.59073 0
M  V30 21390 H 1931.58 -0.668998 -3.04846 0
M  V30 21391 N 1931.88 1.43833 -0.644194 0
M  V30 21392 C 1932.82 2.30739 0.0528797 0
M  V30 21393 C 1933.79 1.44234 0.823751 0
M  V30 21394 O 1934.98 1.73118 0.802171 0
M  V30 21395 C 1932.12 3.29695 1.01956 0
M  V30 21396 C 1931.23 4.31301 0.245734 0
M  V30 21397 C 1930.37 5.17343 1.2054 0
M  V30 21398 C 1929.41 6.10647 0.421486 0
M  V30 21399 N 1928.54 6.89344 1.33228 0
M  V30 21400 H 1933.38 2.89803 -0.694123 0
M  V30 21401 H 1930.92 1.42775 -0.354069 0
M  V30 21402 H 1932.88 3.85568 1.59353 0
M  V30 21403 H 1931.51 2.72302 1.73354 0
M  V30 21404 H 1930.56 3.77795 -0.44438 0
M  V30 21405 H 1931.87 4.97468 -0.364231 0
M  V30 21406 H 1931.03 5.77797 1.85029 0
M  V30 21407 H 1929.76 4.51279 1.84928 0
M  V30 21408 H 1928.77 5.4929 -0.236816 0
M  V30 21409 H 1929.99 6.7875 -0.217862 0
M  V30 21410 H 1927.94 6.25937 1.96312 0
M  V30 21411 H 1927.86 7.52 0.776653 0
M  V30 21412 H 1929.13 7.54311 1.9656 0
M  V30 21413 N 1933.35 0.385544 1.52811 0
M  V30 21414 C 1934.6 -0.197845 2.01531 0
M  V30 21415 C 1934.93 -1.47128 1.27215 0
M  V30 21416 O 1934.18 -1.92363 0.359866 0
M  V30 21417 C 1934.48 -0.515911 3.53657 0
M  V30 21418 C 1934.15 0.665535 4.45961 0
M  V30 21419 C 1932.81 0.989658 4.70913 0
M  V30 21420 C 1935.16 1.4561 5.00447 0
M  V30 21421 C 1932.49 2.10596 5.476 0
M  V30 21422 C 1934.84 2.56298 5.78355 0
M  V30 21423 C 1933.51 2.89223 6.01587 0
M  V30 21424 H 1932.78 -0.0723965 0.737455 0
M  V30 21425 H 1935.42 0.522118 1.84245 0
M  V30 21426 H 1933.73 -1.31715 3.68996 0
M  V30 21427 H 1935.43 -0.979874 3.88844 0
M  V30 21428 H 1932.02 0.4029 4.26702 0
M  V30 21429 H 1936.2 1.21893 4.81098 0
M  V30 21430 H 1931.46 2.3648 5.63815 0
M  V30 21431 H 1935.63 3.1796 6.19576 0
M  V30 21432 H 1933.26 3.75842 6.60793 0
M  V30 21433 N 1934.83 -1.57178 0.115259 0
M  V30 21434 C 1936.06 -1.99415 -0.55147 0
M  V30 21435 C 1936.48 -0.994862 -1.60462 0
M  V30 21436 O 1935.83 0.0127831 -1.82496 0
M  V30 21437 C 1935.88 -3.41665 -1.18099 0
M  V30 21438 O 1935.6 -4.3777 -0.169944 0
M  V30 21439 C 1937.11 -3.99014 -1.9314 0
M  V30 21440 H 1934.33 -0.654856 -0.146302 0
M  V30 21441 H 1936.87 -2.03515 0.200495 0
M  V30 21442 H 1935.02 -3.38516 -1.88376 0
M  V30 21443 H 1935.44 -5.20741 -0.626853 0
M  V30 21444 H 1936.91 -5.00639 -2.32519 0
M  V30 21445 H 1937.39 -3.37947 -2.80515 0
M  V30 21446 H 1938 -4.05697 -1.27634 0
M  V30 21447 N 1936.31 0.158505 -1.56801 0
M  V30 21448 C 1937.24 1.22086 -1.93978 0
M  V30 21449 C 1938.26 1.39798 -0.834291 0
M  V30 21450 O 1939.45 1.39573 -1.11272 0
M  V30 21451 C 1936.55 2.58757 -2.18857 0
M  V30 21452 C 1935.72 2.62175 -3.50118 0
M  V30 21453 C 1934.78 3.80301 -3.63673 0
M  V30 21454 O 1933.8 3.65706 -4.36174 0
M  V30 21455 N 1935.01 4.97286 -2.99477 0
M  V30 21456 H 1937.77 0.904964 -2.8571 0
M  V30 21457 H 1935.33 0.348168 -1.58112 0
M  V30 21458 H 1937.32 3.3627 -2.25177 0
M  V30 21459 H 1935.89 2.82685 -1.33446 0
M  V30 21460 H 1935.11 1.70662 -3.55342 0
M  V30 21461 H 1936.4 2.61481 -4.36469 0
M  V30 21462 H 1935.8 5.12046 -2.40469 0
M  V30 21463 H 1934.36 5.72616 -3.11375 0
M  V30 21464 N 1937.79 1.51692 0.427485 0
M  V30 21465 C 1938.75 1.73114 1.50214 0
M  V30 21466 C 1939.75 0.601079 1.49143 0
M  V30 21467 O 1940.94 0.86875 1.50991 0
M  V30 21468 C 1938.07 1.79666 2.89712 0
M  V30 21469 H 1939.27 2.69033 1.32518 0
M  V30 21470 H 1936.82 1.4183 0.656804 0
M  V30 21471 H 1937.56 0.855968 3.128 0
M  V30 21472 H 1937.34 2.61803 2.91893 0
M  V30 21473 H 1938.83 1.98045 3.67652 0
M  V30 21474 N 1939.27 -0.683564 1.42004 0
M  V30 21475 C 1940.2 -1.8095 1.47578 0
M  V30 21476 C 1941.18 -1.66804 0.333208 0
M  V30 21477 O 1942.36 -1.86357 0.546314 0
M  V30 21478 C 1939.49 -3.19182 1.36895 0
M  V30 21479 C 1938.45 -3.4805 2.49089 0
M  V30 21480 C 1937.77 -4.85764 2.23467 0
M  V30 21481 C 1939.07 -3.4582 3.91415 0
M  V30 21482 H 1940.77 -1.76543 2.41812 0
M  V30 21483 H 1938.31 -0.84794 1.16387 0
M  V30 21484 H 1940.27 -3.97674 1.39404 0
M  V30 21485 H 1938.99 -3.24245 0.391513 0
M  V30 21486 H 1937.65 -2.71915 2.45882 0
M  V30 21487 H 1937.3 -4.87467 1.24037 0
M  V30 21488 H 1937 -5.06043 2.98654 0
M  V30 21489 H 1938.52 -5.66551 2.27711 0
M  V30 21490 H 1939.94 -4.14297 3.96272 0
M  V30 21491 H 1938.33 -3.77633 4.66383 0
M  V30 21492 H 1939.4 -2.4456 4.1871 0
M  V30 21493 N 1940.75 -1.28031 -0.919012 0
M  V30 21494 C 1941.69 -1.11355 -2.04213 0
M  V30 21495 C 1942.69 -0.0342517 -1.69365 0
M  V30 21496 O 1943.89 -0.192628 -1.78966 0
M  V30 21497 H 1940.27 -0.343397 -0.669016 0
M  V30 21498 H 1942.24 -2.06485 -2.15421 0
M  V30 21499 C 1940.99 -0.786653 -3.38684 0
M  V30 21500 H 1940.31 -1.6091 -3.65989 0
M  V30 21501 H 1941.75 -0.709897 -4.18015 0
M  V30 21502 C 1940.21 0.509383 -3.33027 0
M  V30 21503 O 1940.74 1.54125 -3.70956 0
M  V30 21504 N 1938.95 0.508188 -2.86122 0
M  V30 21505 H 1938.49 -0.331947 -2.55452 0
M  V30 21506 H 1938.45 1.37539 -2.82719 0
M  V30 21507 N 1942.22 1.12672 -1.10194 0
M  V30 21508 C 1943.15 2.20422 -0.770492 0
M  V30 21509 C 1944.13 1.68172 0.25541 0
M  V30 21510 O 1945.32 1.93818 0.121728 0
M  V30 21511 C 1942.45 3.4673 -0.198815 0
M  V30 21512 C 1941.4 4.12118 -1.15512 0
M  V30 21513 C 1940.73 5.32847 -0.444768 0
M  V30 21514 C 1942.03 4.58542 -2.50073 0
M  V30 21515 H 1943.72 2.48404 -1.67141 0
M  V30 21516 H 1941.27 1.19392 -0.805077 0
M  V30 21517 H 1943.22 4.21376 0.0451853 0
M  V30 21518 H 1941.95 3.18168 0.737331 0
M  V30 21519 H 1940.61 3.3945 -1.38453 0
M  V30 21520 H 1940.25 5.00551 0.49577 0
M  V30 21521 H 1939.95 5.77543 -1.08247 0
M  V30 21522 H 1941.48 6.10241 -0.209255 0
M  V30 21523 H 1942.89 5.24572 -2.31294 0
M  V30 21524 H 1941.29 5.14007 -3.09704 0
M  V30 21525 H 1942.36 3.72654 -3.10254 0
M  V30 21526 N 1943.7 0.89031 1.30043 0
M  V30 21527 C 1944.95 0.51145 1.95935 0
M  V30 21528 C 1945.28 -0.940438 1.70253 0
M  V30 21529 O 1944.53 -1.68041 1.00302 0
M  V30 21530 C 1944.83 0.739209 3.49672 0
M  V30 21531 C 1944.5 2.167 3.95413 0
M  V30 21532 C 1943.16 2.55743 4.07614 0
M  V30 21533 C 1945.51 3.09723 4.19191 0
M  V30 21534 C 1942.84 3.87008 4.40955 0
M  V30 21535 C 1945.19 4.40527 4.54003 0
M  V30 21536 C 1943.85 4.79455 4.64413 0
M  V30 21537 H 1943.12 0.187153 0.716976 0
M  V30 21538 H 1945.77 1.12718 1.54812 0
M  V30 21539 H 1944.08 0.0404857 3.91779 0
M  V30 21540 H 1945.77 0.425594 3.98735 0
M  V30 21541 H 1942.36 1.85396 3.86427 0
M  V30 21542 H 1946.55 2.80778 4.0924 0
M  V30 21543 H 1941.8 4.16903 4.47216 0
M  V30 21544 H 1945.98 5.1264 4.71352 0
M  V30 21545 H 1943.6 5.81206 4.90003 0
M  V30 21546 N 1945.18 -1.43489 0.651812 0
M  V30 21547 C 1946.6 -1.56374 0.31925 0
M  V30 21548 C 1946.8 -1.63573 -1.1767 0
M  V30 21549 O 1945.85 -1.59003 -1.96149 0
M  V30 21550 C 1947.16 -2.82532 1.02937 0
M  V30 21551 C 1948.71 -2.96274 1.00949 0
M  V30 21552 C 1949.19 -4.25262 1.70047 0
M  V30 21553 N 1950.68 -4.32123 1.66805 0
M  V30 21554 C 1951.41 -5.30693 2.17146 0
M  V30 21555 N 1950.91 -6.3555 2.75769 0
M  V30 21556 N 1952.7 -5.22337 2.07654 0
M  V30 21557 H 1944.85 -1.3706 1.6226 0
M  V30 21558 H 1947.12 -0.658169 0.682289 0
M  V30 21559 H 1946.82 -2.83271 2.08448 0
M  V30 21560 H 1946.7 -3.72713 0.580047 0
M  V30 21561 H 1949.08 -2.95077 -0.0372118 0
M  V30 21562 H 1949.16 -2.07386 1.49749 0
M  V30 21563 H 1948.81 -4.2722 2.74673 0
M  V30 21564 H 1948.74 -5.13044 1.18714 0
M  V30 21565 H 1951.23 -3.56968 1.24024 0
M  V30 21566 H 1951.54 -7.0708 3.11861 0
M  V30 21567 H 1949.89 -6.36177 2.79829 0
M  V30 21568 H 1953.08 -4.39336 1.61561 0
M  V30 21569 H 1953.25 -5.98998 2.47195 0
M  V30 21570 N 1946.66 -0.393643 -1.52605 0
M  V30 21571 C 1947.61 0.454246 -2.28121 0
M  V30 21572 C 1948.6 1.05931 -1.32193 0
M  V30 21573 O 1949.81 0.999286 -1.49714 0
M  V30 21574 H 1946.18 0.165249 -0.733619 0
M  V30 21575 H 1948.15 -0.204084 -2.97701 0
M  V30 21576 C 1946.9 1.5671 -3.10383 0
M  V30 21577 H 1946.22 1.11084 -3.84058 0
M  V30 21578 H 1947.66 2.13451 -3.66353 0
M  V30 21579 C 1946.12 2.52562 -2.22967 0
M  V30 21580 O 1946.65 3.56075 -1.85939 0
M  V30 21581 N 1944.86 2.22405 -1.87041 0
M  V30 21582 H 1944.41 1.38261 -2.17351 0
M  V30 21583 H 1944.36 2.86787 -1.28843 0
M  V30 21584 N 1948.14 1.57115 -0.123593 0
M  V30 21585 C 1949.38 1.94527 0.533131 0
M  V30 21586 C 1949.7 1.0095 1.67536 0
M  V30 21587 O 1950.9 1.27846 2.39515 0
M  V30 21588 C 1949.36 3.45735 0.999783 0
M  V30 21589 C 1948.97 4.47854 -0.114238 0
M  V30 21590 C 1950.71 3.92057 1.62762 0
M  V30 21591 C 1948.62 5.90245 0.36937 0
M  V30 21592 H 1947.55 0.726179 0.20293 0
M  V30 21593 H 1950.2 1.8236 -0.204183 0
M  V30 21594 H 1948.58 3.53151 1.79166 0
M  V30 21595 H 1949.76 4.52111 -0.890627 0
M  V30 21596 H 1948.07 4.11311 -0.649019 0
M  V30 21597 H 1950.67 4.9586 2.00067 0
M  V30 21598 H 1951.01 3.3229 2.50777 0
M  V30 21599 H 1951.54 3.8746 0.901074 0
M  V30 21600 H 1948.28 6.53778 -0.474837 0
M  V30 21601 H 1947.8 5.89399 1.11214 0
M  V30 21602 H 1949.48 6.41666 0.829093 0
M  V30 21603 N 1949.61 -0.150187 1.56883 0
M  V30 21604 C 1950.54 -1.18735 2.01058 0
M  V30 21605 C 1951.52 -1.44983 0.889606 0
M  V30 21606 O 1952.71 -1.55958 1.15719 0
M  V30 21607 C 1949.84 -2.52129 2.38848 0
M  V30 21608 C 1948.79 -2.40408 3.54101 0
M  V30 21609 C 1948.12 -3.78484 3.77695 0
M  V30 21610 C 1949.42 -1.89087 4.86871 0
M  V30 21611 H 1951.11 -0.820044 2.87951 0
M  V30 21612 H 1948.66 -0.393025 1.38533 0
M  V30 21613 H 1950.61 -3.24908 2.68352 0
M  V30 21614 H 1949.34 -2.90688 1.48889 0
M  V30 21615 H 1948 -1.70082 3.24758 0
M  V30 21616 H 1947.64 -4.14474 2.84992 0
M  V30 21617 H 1947.34 -3.71504 4.55256 0
M  V30 21618 H 1948.87 -4.52816 4.09621 0
M  V30 21619 H 1950.28 -2.51656 5.15114 0
M  V30 21620 H 1948.68 -1.93005 5.68216 0
M  V30 21621 H 1949.75 -0.846357 4.77457 0
M  V30 21622 N 1951.09 -1.51916 -0.419434 0
M  V30 21623 C 1952.32 -1.69057 -1.18758 0
M  V30 21624 C 1952.73 -0.395167 -1.85027 0
M  V30 21625 O 1952.07 0.637815 -1.72272 0
M  V30 21626 C 1952.14 -2.76257 -2.30049 0
M  V30 21627 C 1951.8 -4.18321 -1.84001 0
M  V30 21628 C 1952.8 -5.02508 -1.33347 0
M  V30 21629 C 1950.48 -4.64508 -1.91147 0
M  V30 21630 C 1952.48 -6.3095 -0.904498 0
M  V30 21631 C 1950.16 -5.92942 -1.47861 0
M  V30 21632 C 1951.16 -6.75991 -0.975967 0
M  V30 21633 O 1950.85 -8.02021 -0.549318 0
M  V30 21634 H 1950.58 -0.570077 -0.363302 0
M  V30 21635 H 1953.13 -1.99197 -0.50097 0
M  V30 21636 H 1951.36 -2.4147 -3.02042 0
M  V30 21637 H 1953.05 -2.82098 -2.91848 0
M  V30 21638 H 1953.82 -4.68021 -1.27206 0
M  V30 21639 H 1949.7 -3.99976 -2.29216 0
M  V30 21640 H 1953.24 -6.95722 -0.511474 0
M  V30 21641 H 1949.14 -6.2694 -1.53678 0
M  V30 21642 H 1949.91 -8.15724 -0.673558 0
M  V30 21643 N 1952.57 0.676023 -1.42365 0
M  V30 21644 C 1953.52 1.78219 -1.42204 0
M  V30 21645 C 1954.5 1.582 -0.293546 0
M  V30 21646 O 1955.7 1.68699 -0.535684 0
M  V30 21647 C 1952.83 3.1667 -1.3257 0
M  V30 21648 C 1951.91 3.42317 -2.50359 0
M  V30 21649 N 1952.3 3.38555 -3.75784 0
M  V30 21650 C 1950.6 3.72948 -2.44593 0
M  V30 21651 C 1951.3 3.63652 -4.54018 0
M  V30 21652 N 1950.28 3.84357 -3.8441 0
M  V30 21653 H 1954.08 1.73702 -2.37075 0
M  V30 21654 H 1951.59 0.876812 -1.36696 0
M  V30 21655 H 1953.59 3.95937 -1.30536 0
M  V30 21656 H 1952.25 3.22386 -0.38699 0
M  V30 21657 H 1953.26 3.18485 -4.08396 0
M  V30 21658 H 1949.94 3.85916 -1.59295 0
M  V30 21659 H 1951.33 3.66715 -5.63001 0
M  V30 21660 N 1954.05 1.28517 0.912209 0
M  V30 21661 C 1954.98 1.06898 2.01614 0
M  V30 21662 C 1955.96 -0.0154076 1.62593 0
M  V30 21663 O 1957.14 0.132828 1.88031 0
M  V30 21664 C 1954.27 0.624772 3.32888 0
M  V30 21665 C 1953.32 1.70603 3.90892 0
M  V30 21666 S 1954.15 3.30235 4.21551 0
M  V30 21667 C 1955.31 2.87652 5.55884 0
M  V30 21668 H 1955.54 2.00361 2.19642 0
M  V30 21669 H 1953.07 1.12522 1.05727 0
M  V30 21670 H 1955.03 0.375182 4.08782 0
M  V30 21671 H 1953.69 -0.290053 3.12758 0
M  V30 21672 H 1952.88 1.34687 4.8567 0
M  V30 21673 H 1952.49 1.90849 3.2164 0
M  V30 21674 H 1954.78 2.33919 6.35837 0
M  V30 21675 H 1955.72 3.81233 5.96713 0
M  V30 21676 H 1956.13 2.26321 5.17145 0
M  V30 21677 N 1955.53 -1.12086 1.1079 0
M  V30 21678 C 1956.78 -1.83036 0.847387 0
M  V30 21679 C 1957.09 -1.85209 -0.629051 0
M  V30 21680 O 1958.29 -2.52191 -1.00559 0
M  V30 21681 C 1956.75 -3.28682 1.46615 0
M  V30 21682 C 1956.36 -3.34858 2.97614 0
M  V30 21683 C 1958.1 -4.04578 1.28519 0
M  V30 21684 C 1956.01 -4.7486 3.52508 0
M  V30 21685 H 1954.94 -0.685806 0.313347 0
M  V30 21686 H 1957.59 -1.2618 1.33233 0
M  V30 21687 H 1955.97 -3.85429 0.908883 0
M  V30 21688 H 1957.15 -2.8803 3.59688 0
M  V30 21689 H 1955.46 -2.72438 3.14907 0
M  V30 21690 H 1958.06 -5.07962 1.6697 0
M  V30 21691 H 1958.4 -4.1568 0.227105 0
M  V30 21692 H 1958.93 -3.542 1.81073 0
M  V30 21693 H 1955.67 -4.68954 4.57999 0
M  V30 21694 H 1955.19 -5.22125 2.95203 0
M  V30 21695 H 1956.87 -5.43807 3.50546 0
M  V30 21696 N 1957 -0.897194 -1.29569 0
M  V30 21697 C 1958.25 -0.521834 -1.95661 0
M  V30 21698 C 1958.58 0.931396 -1.70749 0
M  V30 21699 O 1957.83 1.67507 -1.01192 0
M  V30 21700 C 1958.13 -0.757743 -3.49275 0
M  V30 21701 C 1957.8 -2.18794 -3.94259 0
M  V30 21702 C 1956.46 -2.57901 -4.06252 0
M  V30 21703 C 1958.81 -3.11942 -4.17542 0
M  V30 21704 C 1956.14 -3.89341 -4.38897 0
M  V30 21705 C 1958.49 -4.42928 -4.51661 0
M  V30 21706 C 1957.16 -4.81911 -4.61864 0
M  V30 21707 H 1956.43 -0.190953 -0.715974 0
M  V30 21708 H 1959.07 -1.13537 -1.54212 0
M  V30 21709 H 1957.38 -0.0612622 -3.91752 0
M  V30 21710 H 1959.08 -0.446734 -3.98504 0
M  V30 21711 H 1955.67 -1.87443 -3.85439 0
M  V30 21712 H 1959.85 -2.82944 -4.07745 0
M  V30 21713 H 1955.11 -4.19269 -4.44998 0
M  V30 21714 H 1959.28 -5.15133 -4.68627 0
M  V30 21715 H 1956.91 -5.83797 -4.86914 0
M  V30 21716 N 1958.48 1.43142 -0.659413 0
M  V30 21717 C 1959.73 2.02038 -0.175593 0
M  V30 21718 C 1960.06 1.5194 1.20946 0
M  V30 21719 O 1959.34 0.715095 1.80877 0
M  V30 21720 C 1959.62 3.59581 -0.193256 0
M  V30 21721 C 1959.47 4.19896 -1.61267 0
M  V30 21722 C 1960.79 4.37616 0.466976 0
M  V30 21723 H 1957.91 0.734103 -0.0652811 0
M  V30 21724 H 1960.55 1.7036 -0.841276 0
M  V30 21725 H 1958.7 3.867 0.373574 0
M  V30 21726 H 1960.37 4.03786 -2.23056 0
M  V30 21727 H 1958.62 3.7631 -2.15807 0
M  V30 21728 H 1959.29 5.28999 -1.57683 0
M  V30 21729 H 1961.76 4.16097 -0.0153667 0
M  V30 21730 H 1960.64 5.47261 0.423915 0
M  V30 21731 H 1960.9 4.14332 1.54211 0
M  V30 21732 N 1959.96 0.40173 1.52394 0
M  V30 21733 C 1960.87 -0.434422 2.30543 0
M  V30 21734 C 1961.89 -1.06028 1.37964 0
M  V30 21735 O 1963.06 -1.0634 1.71037 0
M  V30 21736 C 1960.13 -1.53995 3.10623 0
M  V30 21737 C 1959.19 -0.93791 4.18929 0
M  V30 21738 C 1958.42 -1.99075 4.95182 0
M  V30 21739 O 1958.64 -3.20777 4.71655 0
M  V30 21740 O 1957.58 -1.60111 5.80214 0
M  V30 21741 H 1961.4 0.202567 3.03024 0
M  V30 21742 H 1958.99 0.165122 1.48485 0
M  V30 21743 H 1960.87 -2.18191 3.60514 0
M  V30 21744 H 1959.55 -2.16167 2.40943 0
M  V30 21745 H 1958.45 -0.25886 3.73203 0
M  V30 21746 H 1959.79 -0.360217 4.9088 0
M  V30 21747 N 1961.44 -1.57047 0.131923 0
M  V30 21748 C 1962.67 -1.99989 -0.530289 0
M  V30 21749 C 1963.08 -1.01182 -1.59397 0
M  V30 21750 O 1962.44 -0.00657368 -1.82499 0
M  V30 21751 C 1962.49 -3.42898 -1.14469 0
M  V30 21752 O 1962.21 -4.37926 -0.123503 0
M  V30 21753 C 1963.71 -4.0104 -1.88897 0
M  V30 21754 H 1960.93 -0.656371 -0.139348 0
M  V30 21755 H 1963.48 -2.03291 0.222069 0
M  V30 21756 H 1961.63 -3.40495 -1.84775 0
M  V30 21757 H 1962.04 -5.21376 -0.571587 0
M  V30 21758 H 1963.52 -5.03077 -2.27196 0
M  V30 21759 H 1964 -3.40903 -2.76915 0
M  V30 21760 H 1964.6 -4.07027 -1.23324 0
M  V30 21761 N 1962.92 0.141865 -1.5696 0
M  V30 21762 C 1963.86 1.19416 -1.99606 0
M  V30 21763 C 1964.86 1.44182 -0.889268 0
M  V30 21764 O 1966.06 1.44414 -1.07446 0
M  V30 21765 H 1962.44 0.402085 -0.635477 0
M  V30 21766 H 1964.41 0.80782 -2.87257 0
M  V30 21767 C 1963.16 2.51868 -2.39704 0
M  V30 21768 H 1962.48 2.33642 -3.24425 0
M  V30 21769 H 1963.92 3.24113 -2.73362 0
M  V30 21770 C 1962.38 3.12785 -1.25169 0
M  V30 21771 O 1962.91 3.97845 -0.555208 0
M  V30 21772 N 1961.12 2.72312 -1.01461 0
M  V30 21773 H 1960.66 2.0324 -1.58276 0
M  V30 21774 H 1960.62 3.13403 -0.250181 0
M  V30 21775 N 1964.39 1.52136 0.411372 0
M  V30 21776 C 1965.3 1.78205 1.52579 0
M  V30 21777 C 1966.32 0.667501 1.60687 0
M  V30 21778 O 1967.5 0.952661 1.77444 0
M  V30 21779 C 1964.56 1.9252 2.88335 0
M  V30 21780 C 1963.62 3.16421 2.90131 0
M  V30 21781 C 1962.86 3.30044 4.19412 0
M  V30 21782 O 1963.08 2.48985 5.13189 0
M  V30 21783 O 1962.01 4.23182 4.2802 0
M  V30 21784 H 1965.84 2.72791 1.33487 0
M  V30 21785 H 1963.42 1.36953 0.597004 0
M  V30 21786 H 1965.31 2.03771 3.68857 0
M  V30 21787 H 1963.98 1.01123 3.07499 0
M  V30 21788 H 1962.89 3.1063 2.08471 0
M  V30 21789 H 1964.22 4.07592 2.75916 0
M  V30 21790 N 1965.87 -0.668464 1.42721 0
M  V30 21791 C 1967.1 -1.46158 1.47148 0
M  V30 21792 C 1967.52 -1.87903 0.0860652 0
M  V30 21793 O 1966.88 -1.56406 -0.91689 0
M  V30 21794 C 1966.93 -2.68284 2.40949 0
M  V30 21795 O 1966.03 -3.66787 1.88522 0
M  V30 21796 H 1965.37 -0.438842 0.498311 0
M  V30 21797 H 1967.9 -0.819353 1.87477 0
M  V30 21798 H 1967.91 -3.1628 2.57742 0
M  V30 21799 H 1966.59 -2.3724 3.41599 0
M  V30 21800 H 1965.17 -3.25851 1.81315 0
M  V30 21801 N 1967.35 -1.28999 -0.905381 0
M  V30 21802 C 1968.26 -1.15513 -2.04191 0
M  V30 21803 C 1969.28 -0.0797116 -1.73817 0
M  V30 21804 O 1970.45 -0.290664 -1.99292 0
M  V30 21805 C 1967.52 -0.826901 -3.36695 0
M  V30 21806 C 1966.58 -1.98557 -3.80623 0
M  V30 21807 C 1965.81 -1.6729 -5.06803 0
M  V30 21808 O 1966.04 -0.591168 -5.67328 0
M  V30 21809 O 1964.97 -2.51914 -5.46647 0
M  V30 21810 H 1968.8 -2.10942 -2.18488 0
M  V30 21811 H 1966.38 -1.08397 -1.02813 0
M  V30 21812 H 1968.26 -0.658165 -4.16228 0
M  V30 21813 H 1966.94 0.0976541 -3.23553 0
M  V30 21814 H 1965.84 -2.20951 -3.0188 0
M  V30 21815 H 1967.18 -2.89112 -3.9834 0
M  V30 21816 N 1968.83 1.11497 -1.11383 0
M  V30 21817 C 1969.76 2.17283 -0.729431 0
M  V30 21818 C 1970.77 1.61041 0.238642 0
M  V30 21819 O 1971.96 1.78487 0.0216271 0
M  V30 21820 C 1969.06 3.38852 -0.057216 0
M  V30 21821 C 1968.24 4.24562 -1.05196 0
M  V30 21822 C 1967.3 5.24605 -0.40941 0
M  V30 21823 O 1966.32 5.59183 -1.06315 0
M  V30 21824 N 1967.52 5.74565 0.827957 0
M  V30 21825 H 1970.29 2.50871 -1.63963 0
M  V30 21826 H 1967.85 1.27013 -1.00396 0
M  V30 21827 H 1969.84 4.02871 0.384356 0
M  V30 21828 H 1968.41 3.03332 0.755551 0
M  V30 21829 H 1967.63 3.57008 -1.6715 0
M  V30 21830 H 1968.92 4.78667 -1.72498 0
M  V30 21831 H 1968.32 5.48653 1.37827 0
M  V30 21832 H 1966.87 6.40423 1.21252 0
M  V30 21833 N 1970.31 0.904053 1.29092 0
M  V30 21834 C 1971.58 0.451521 1.90317 0
M  V30 21835 C 1971.96 -1.06911 1.82025 0
M  V30 21836 O 1971.31 -1.9129 1.24982 0
M  V30 21837 C 1971.52 0.970986 3.35221 0
M  V30 21838 C 1972.87 1.01728 4.12234 0
M  V30 21839 O 1973.89 0.918956 3.44142 0
M  V30 21840 O 1972.75 1.16562 5.33925 0
M  V30 21841 H 1969.85 0.141495 0.814806 0
M  V30 21842 H 1972.39 0.994203 1.37527 0
M  V30 21843 H 1971.17 2.01497 3.35432 0
M  V30 21844 H 1970.79 0.408567 3.95495 0
M  V30 21845 N 1971.79 -1.4279 0.666995 0
M  V30 21846 C 1972.72 -2.335 -0.00234362 0
M  V30 21847 C 1973.7 -1.50244 -0.797537 0
M  V30 21848 O 1974.88 -1.7887 -0.756257 0
M  V30 21849 C 1972.01 -3.33774 -0.959795 0
M  V30 21850 C 1970.97 -4.27124 -0.273749 0
M  V30 21851 C 1970.29 -5.17544 -1.3436 0
M  V30 21852 C 1971.59 -5.15462 0.842411 0
M  V30 21853 H 1973.29 -2.89719 0.755212 0
M  V30 21854 H 1970.83 -1.39307 0.364622 0
M  V30 21855 H 1972.78 -3.96139 -1.43707 0
M  V30 21856 H 1971.51 -2.75842 -1.74868 0
M  V30 21857 H 1970.17 -3.66142 0.18321 0
M  V30 21858 H 1969.82 -4.55943 -2.12427 0
M  V30 21859 H 1969.52 -5.80825 -0.889738 0
M  V30 21860 H 1971.04 -5.82784 -1.82196 0
M  V30 21861 H 1972.45 -5.71557 0.4467 0
M  V30 21862 H 1970.85 -5.87535 1.22158 0
M  V30 21863 H 1971.92 -4.54327 1.69454 0
M  V30 21864 N 1973.26 -0.409806 -1.52179 0
M  V30 21865 C 1974.49 0.164995 -2.0594 0
M  V30 21866 C 1974.9 1.39354 -1.27973 0
M  V30 21867 O 1974.24 1.80802 -0.324989 0
M  V30 21868 C 1974.31 0.579659 -3.54796 0
M  V30 21869 C 1973.97 -0.538248 -4.53819 0
M  V30 21870 C 1974.97 -1.40203 -5.00639 0
M  V30 21871 C 1972.65 -0.711133 -4.97241 0
M  V30 21872 C 1974.65 -2.42363 -5.89524 0
M  V30 21873 C 1972.33 -1.73605 -5.85922 0
M  V30 21874 C 1973.33 -2.5907 -6.31959 0
M  V30 21875 O 1973.02 -3.59806 -7.18884 0
M  V30 21876 H 1972.75 0.0236196 -0.675587 0
M  V30 21877 H 1975.31 -0.579572 -1.97054 0
M  V30 21878 H 1973.54 1.37652 -3.61371 0
M  V30 21879 H 1975.22 1.08246 -3.912 0
M  V30 21880 H 1975.99 -1.27987 -4.67808 0
M  V30 21881 H 1971.87 -0.0555613 -4.60967 0
M  V30 21882 H 1975.41 -3.09106 -6.25379 0
M  V30 21883 H 1971.31 -1.85851 -6.18166 0
M  V30 21884 H 1972.08 -3.56058 -7.36997 0
M  V30 21885 N 1974.74 1.56975 -0.14025 0
M  V30 21886 C 1976.02 1.87494 0.557244 0
M  V30 21887 C 1976.4 1.04507 1.83416 0
M  V30 21888 O 1975.75 0.129958 2.2813 0
M  V30 21889 C 1975.96 3.39006 0.829213 0
M  V30 21890 C 1977.3 4.08077 1.17296 0
M  V30 21891 O 1978.33 3.44146 0.918788 0
M  V30 21892 O 1977.19 5.20966 1.65096 0
M  V30 21893 H 1974.28 0.776892 0.283492 0
M  V30 21894 H 1976.83 1.68781 -0.176354 0
M  V30 21895 H 1975.6 3.91229 -0.0747688 0
M  V30 21896 H 1975.22 3.63224 1.61723 0
M  V30 21897 N 1976.22 -0.133539 1.57033 0
M  V30 21898 C 1977.45 -0.857187 1.87978 0
M  V30 21899 C 1977.86 -1.74634 0.72799 0
M  V30 21900 O 1977.2 -1.81051 -0.310857 0
M  V30 21901 C 1977.26 -1.75448 3.13781 0
M  V30 21902 C 1976.93 -1.04112 4.44983 0
M  V30 21903 C 1977.92 -0.388703 5.18445 0
M  V30 21904 C 1975.61 -1.02662 4.91697 0
M  V30 21905 C 1977.6 0.268682 6.36833 0
M  V30 21906 C 1975.29 -0.365432 6.10006 0
M  V30 21907 C 1976.29 0.28108 6.82421 0
M  V30 21908 O 1975.98 0.931754 7.98482 0
M  V30 21909 H 1975.71 -0.252521 0.627064 0
M  V30 21910 H 1978.26 -0.126928 2.05007 0
M  V30 21911 H 1976.49 -2.52602 2.92796 0
M  V30 21912 H 1978.18 -2.35126 3.30863 0
M  V30 21913 H 1978.95 -0.391622 4.83416 0
M  V30 21914 H 1974.83 -1.51926 4.35246 0
M  V30 21915 H 1978.37 0.773893 6.93294 0
M  V30 21916 H 1974.27 -0.360226 6.44494 0
M  V30 21917 H 1975.03 0.834769 8.14232 0
M  V30 21918 N 1977.7 -1.52352 -0.403298 0
M  V30 21919 C 1978.63 -1.79074 -1.49849 0
M  V30 21920 C 1979.61 -0.642006 -1.57519 0
M  V30 21921 O 1980.79 -0.888182 -1.72699 0
M  V30 21922 C 1977.92 -1.9467 -2.87612 0
M  V30 21923 C 1976.88 -3.10295 -2.9479 0
M  V30 21924 C 1976.2 -3.11122 -4.34864 0
M  V30 21925 C 1977.5 -4.49643 -2.65741 0
M  V30 21926 H 1979.2 -2.70783 -1.27737 0
M  V30 21927 H 1976.74 -1.30298 -0.613064 0
M  V30 21928 H 1978.7 -2.11947 -3.64221 0
M  V30 21929 H 1977.42 -0.996377 -3.1103 0
M  V30 21930 H 1976.08 -2.92778 -2.20627 0
M  V30 21931 H 1975.73 -2.13801 -4.553 0
M  V30 21932 H 1975.43 -3.88786 -4.4059 0
M  V30 21933 H 1976.95 -3.30536 -5.13399 0
M  V30 21934 H 1978.37 -4.67335 -3.3207 0
M  V30 21935 H 1976.76 -5.29268 -2.82835 0
M  V30 21936 H 1977.83 -4.57339 -1.61149 0
M  V30 21937 N 1979.18 0.660885 -1.43074 0
M  V30 21938 C 1980.09 1.80324 -1.50068 0
M  V30 21939 C 1981.1 1.69611 -0.388331 0
M  V30 21940 O 1982.28 1.90916 -0.641321 0
M  V30 21941 C 1979.34 3.16557 -1.41394 0
M  V30 21942 C 1978.4 3.39124 -2.63236 0
M  V30 21943 C 1977.64 4.68858 -2.54967 0
M  V30 21944 O 1977.86 5.47699 -1.59318 0
M  V30 21945 O 1976.79 4.92975 -3.45339 0
M  V30 21946 H 1980.62 1.77379 -2.46516 0
M  V30 21947 H 1978.2 0.8184 -1.2499 0
M  V30 21948 H 1980.09 3.97825 -1.38971 0
M  V30 21949 H 1978.76 3.2011 -0.480768 0
M  V30 21950 H 1977.67 2.5765 -2.71233 0
M  V30 21951 H 1979 3.40413 -3.555 0
M  V30 21952 N 1980.65 1.29477 0.898527 0
M  V30 21953 C 1981.59 1.0903 2.00469 0
M  V30 21954 C 1982.57 0.00183835 1.626 0
M  V30 21955 O 1983.75 0.152763 1.8788 0
M  V30 21956 C 1980.88 0.660044 3.32206 0
M  V30 21957 C 1979.92 1.74739 3.89061 0
M  V30 21958 S 1980.76 3.34687 4.18025 0
M  V30 21959 C 1981.91 2.93532 5.52802 0
M  V30 21960 H 1982.14 2.0268 2.17505 0
M  V30 21961 H 1979.68 1.13637 1.04527 0
M  V30 21962 H 1981.64 0.418518 4.08361 0
M  V30 21963 H 1980.3 -0.256865 3.13048 0
M  V30 21964 H 1979.49 1.39831 4.84214 0
M  V30 21965 H 1979.09 1.9425 3.19598 0
M  V30 21966 H 1981.38 2.4065 6.3332 0
M  V30 21967 H 1982.33 3.87541 5.92636 0
M  V30 21968 H 1982.73 2.31793 5.14716 0
M  V30 21969 N 1982.13 -1.10905 1.11972 0
M  V30 21970 C 1983.38 -1.83033 0.873311 0
M  V30 21971 C 1983.71 -1.84716 -0.599472 0
M  V30 21972 O 1982.99 -1.30427 -1.44288 0
M  V30 21973 C 1983.27 -3.29941 1.44261 0
M  V30 21974 C 1983.12 -3.36619 2.98341 0
M  V30 21975 C 1984.44 -4.26179 1.09815 0
M  V30 21976 H 1981.56 -0.664529 0.318701 0
M  V30 21977 H 1984.2 -1.30012 1.38553 0
M  V30 21978 H 1982.35 -3.75223 1.00697 0
M  V30 21979 H 1984.02 -2.99854 3.5055 0
M  V30 21980 H 1982.27 -2.76668 3.34122 0
M  V30 21981 H 1982.94 -4.40043 3.33266 0
M  V30 21982 H 1985.41 -3.89105 1.47433 0
M  V30 21983 H 1984.29 -5.27343 1.52318 0
M  V30 21984 H 1984.55 -4.42099 0.00966838 0
M  V30 21985 N 1983.61 -0.910886 -1.2861 0
M  V30 21986 C 1984.86 -0.53847 -1.94379 0
M  V30 21987 C 1985.17 0.92185 -1.72515 0
M  V30 21988 O 1986.38 1.40229 -2.32482 0
M  V30 21989 C 1984.83 -0.91216 -3.48149 0
M  V30 21990 C 1984.44 -2.39201 -3.78796 0
M  V30 21991 C 1986.19 -0.610192 -4.20092 0
M  V30 21992 C 1984.09 -2.70598 -5.25862 0
M  V30 21993 H 1983.02 -0.197657 -0.727632 0
M  V30 21994 H 1985.67 -1.10941 -1.46165 0
M  V30 21995 H 1984.06 -0.270034 -3.95078 0
M  V30 21996 H 1985.23 -3.08063 -3.42686 0
M  V30 21997 H 1983.55 -2.66414 -3.20019 0
M  V30 21998 H 1986.14 -0.821472 -5.28352 0
M  V30 21999 H 1986.49 0.451862 -4.1384 0
M  V30 22000 H 1987.02 -1.21066 -3.7893 0
M  V30 22001 H 1983.76 -3.75645 -5.37188 0
M  V30 22002 H 1983.28 -2.0637 -5.6318 0
M  V30 22003 H 1984.96 -2.57451 -5.93572 0
M  V30 22004 N 1985.09 1.42434 -0.674558 0
M  V30 22005 C 1986.31 2.06399 -0.203545 0
M  V30 22006 C 1986.74 1.50345 1.1304 0
M  V30 22007 O 1986.1 0.621837 1.70302 0
M  V30 22008 C 1986.14 3.60293 -0.148884 0
M  V30 22009 O 1985.25 4.02843 0.882667 0
M  V30 22010 H 1984.59 0.655698 -0.104672 0
M  V30 22011 H 1987.12 1.82572 -0.923502 0
M  V30 22012 H 1987.13 4.07991 0.0273375 0
M  V30 22013 H 1985.8 4.00464 -1.12256 0
M  V30 22014 H 1984.38 3.66694 0.677506 0
M  V30 22015 N 1986.57 0.417871 1.51959 0
M  V30 22016 C 1987.8 -0.154072 2.06025 0
M  V30 22017 C 1988.2 -1.38674 1.2871 0
M  V30 22018 O 1987.55 -1.80628 0.334573 0
M  V30 22019 C 1987.61 -0.560835 3.55098 0
M  V30 22020 C 1987.27 0.562308 4.53527 0
M  V30 22021 C 1988.27 1.42856 4.99888 0
M  V30 22022 C 1985.96 0.737493 4.96856 0
M  V30 22023 C 1987.95 2.45486 5.88231 0
M  V30 22024 C 1985.64 1.7671 5.84993 0
M  V30 22025 C 1986.63 2.62418 6.30576 0
M  V30 22026 O 1986.32 3.63614 7.16966 0
M  V30 22027 H 1986.05 -0.0200365 0.675703 0
M  V30 22028 H 1988.61 0.590014 1.96743 0
M  V30 22029 H 1986.84 -1.35734 3.62096 0
M  V30 22030 H 1988.53 -1.0617 3.91769 0
M  V30 22031 H 1989.29 1.30466 4.67123 0
M  V30 22032 H 1985.17 0.0800067 4.60931 0
M  V30 22033 H 1988.72 3.12418 6.23731 0
M  V30 22034 H 1984.61 1.89127 6.17172 0
M  V30 22035 H 1985.38 3.59962 7.35099 0
M  V30 22036 N 1988.04 -1.56898 0.148573 0
M  V30 22037 C 1989.29 -1.9535 -0.502116 0
M  V30 22038 C 1989.61 -1.03603 -1.65909 0
M  V30 22039 O 1990.81 -1.31641 -2.37451 0
M  V30 22040 C 1989.27 -3.47281 -0.944653 0
M  V30 22041 C 1988.88 -4.47616 0.185474 0
M  V30 22042 C 1990.62 -3.94597 -1.56504 0
M  V30 22043 C 1988.53 -5.90758 -0.27542 0
M  V30 22044 H 1987.46 -0.729315 -0.191351 0
M  V30 22045 H 1990.11 -1.82013 0.233169 0
M  V30 22046 H 1988.49 -3.55957 -1.73525 0
M  V30 22047 H 1989.66 -4.50637 0.962441 0
M  V30 22048 H 1987.98 -4.10226 0.714373 0
M  V30 22049 H 1990.58 -4.9898 -1.92153 0
M  V30 22050 H 1990.92 -3.36238 -2.45459 0
M  V30 22051 H 1991.45 -3.88845 -0.839319 0
M  V30 22052 H 1988.19 -6.5294 0.578787 0
M  V30 22053 H 1987.71 -5.91094 -1.01823 0
M  V30 22054 H 1989.39 -6.42904 -0.726905 0
M  V30 22055 N 1989.52 0.125209 -1.57102 0
M  V30 22056 C 1990.45 1.15521 -2.02922 0
M  V30 22057 C 1991.43 1.43549 -0.912559 0
M  V30 22058 O 1992.62 1.54097 -1.18185 0
M  V30 22059 C 1989.75 2.48297 -2.42829 0
M  V30 22060 C 1988.7 2.34744 -3.57881 0
M  V30 22061 C 1988.03 3.72427 -3.83669 0
M  V30 22062 C 1989.33 1.81317 -4.89818 0
M  V30 22063 H 1991.02 0.774129 -2.89219 0
M  V30 22064 H 1988.57 0.370935 -1.3914 0
M  V30 22065 H 1990.52 3.20597 -2.73487 0
M  V30 22066 H 1989.25 2.88283 -1.53495 0
M  V30 22067 H 1987.9 1.64893 -3.27423 0
M  V30 22068 H 1987.55 4.09887 -2.9155 0
M  V30 22069 H 1987.25 3.64215 -4.61109 0
M  V30 22070 H 1988.78 4.46242 -4.16773 0
M  V30 22071 H 1990.19 2.43429 -5.19052 0
M  V30 22072 H 1988.59 1.83941 -5.71214 0
M  V30 22073 H 1989.66 0.770291 -4.78743 0
M  V30 22074 N 1991 1.52564 0.395213 0
M  V30 22075 C 1991.96 1.76262 1.46508 0
M  V30 22076 C 1992.96 0.632579 1.47835 0
M  V30 22077 O 1994.15 0.900582 1.49115 0
M  V30 22078 C 1991.29 1.85771 2.85835 0
M  V30 22079 H 1992.48 2.71784 1.26782 0
M  V30 22080 H 1990.03 1.43191 0.626572 0
M  V30 22081 H 1990.77 0.922125 3.10914 0
M  V30 22082 H 1990.55 2.67936 2.86274 0
M  V30 22083 H 1992.04 2.05799 3.63368 0
M  V30 22084 N 1992.48 -0.653289 1.43422 0
M  V30 22085 C 1993.41 -1.77818 1.43025 0
M  V30 22086 C 1994.39 -1.59962 0.291706 0
M  V30 22087 O 1995.57 -1.82146 0.485285 0
M  V30 22088 C 1992.7 -3.15116 1.24175 0
M  V30 22089 C 1991.75 -3.51674 2.41305 0
M  V30 22090 S 1992.58 -3.51656 4.03854 0
M  V30 22091 C 1993.74 -4.91612 3.87387 0
M  V30 22092 H 1993.97 -1.77884 2.38211 0
M  V30 22093 H 1991.5 -0.825924 1.30453 0
M  V30 22094 H 1993.46 -3.94357 1.13987 0
M  V30 22095 H 1992.12 -3.12612 0.30538 0
M  V30 22096 H 1991.31 -4.51526 2.2392 0
M  V30 22097 H 1990.92 -2.79845 2.48118 0
M  V30 22098 H 1993.21 -5.80268 3.49708 0
M  V30 22099 H 1994.15 -5.14047 4.86992 0
M  V30 22100 H 1994.56 -4.65143 3.19847 0
M  V30 22101 N 1993.96 -1.29952 -0.891648 0
M  V30 22102 C 1995.37 -1.08138 -1.17381 0
M  V30 22103 C 1995.57 0.162165 -2.00846 0
M  V30 22104 O 1994.63 0.857667 -2.37488 0
M  V30 22105 C 1995.94 -2.34125 -1.88695 0
M  V30 22106 C 1997.49 -2.39524 -2.01487 0
M  V30 22107 C 1997.96 -3.65336 -2.76213 0
M  V30 22108 N 1999.46 -3.66105 -2.83762 0
M  V30 22109 C 2000.19 -4.6014 -3.42139 0
M  V30 22110 N 1999.69 -5.64513 -4.01617 0
M  V30 22111 N 2001.48 -4.47695 -3.3989 0
M  V30 22112 H 1993.63 -2.09742 -0.334958 0
M  V30 22113 H 1995.89 -0.924239 -0.210916 0
M  V30 22114 H 1995.6 -3.24839 -1.34805 0
M  V30 22115 H 1995.47 -2.42258 -2.89121 0
M  V30 22116 H 1997.86 -1.49293 -2.5455 0
M  V30 22117 H 1997.94 -2.35371 -1.0017 0
M  V30 22118 H 1997.59 -4.55922 -2.23824 0
M  V30 22119 H 1997.52 -3.66749 -3.77893 0
M  V30 22120 H 2000.01 -2.90643 -2.41526 0
M  V30 22121 H 2000.32 -6.32376 -4.44207 0
M  V30 22122 H 1998.66 -5.68313 -4.00056 0
M  V30 22123 H 2001.86 -3.65343 -2.92647 0
M  V30 22124 H 2002.03 -5.21162 -3.85089 0
M  V30 22125 N 1995.44 1.1031 -1.12559 0
M  V30 22126 C 1996.37 2.18738 -0.817073 0
M  V30 22127 C 1997.35 1.68675 0.219681 0
M  V30 22128 O 1998.53 1.94033 0.0805889 0
M  V30 22129 C 1995.66 3.46231 -0.272317 0
M  V30 22130 C 1994.62 4.09575 -1.24228 0
M  V30 22131 C 1993.94 5.31784 -0.557693 0
M  V30 22132 C 1995.24 4.53135 -2.59743 0
M  V30 22133 H 1996.94 2.44802 -1.72372 0
M  V30 22134 H 1994.48 1.17658 -0.830221 0
M  V30 22135 H 1996.43 4.21377 -0.0442049 0
M  V30 22136 H 1995.16 3.19661 0.669677 0
M  V30 22137 H 1993.82 3.36437 -1.45622 0
M  V30 22138 H 1993.47 5.0149 0.389484 0
M  V30 22139 H 1993.17 5.75117 -1.20473 0
M  V30 22140 H 1994.69 6.0966 -0.338649 0
M  V30 22141 H 1996.1 5.19548 -2.42369 0
M  V30 22142 H 1994.5 5.07322 -3.20537 0
M  V30 22143 H 1995.57 3.65989 -3.18088 0
M  V30 22144 N 1996.91 0.917694 1.28125 0
M  V30 22145 C 1997.82 0.414339 2.30912 0
M  V30 22146 C 1998.84 -0.49998 1.66662 0
M  V30 22147 O 2000.02 -0.385213 1.97682 0
M  V30 22148 C 1997.08 -0.333886 3.45089 0
M  V30 22149 C 1996.14 0.614131 4.24885 0
M  V30 22150 C 1995.37 -0.0984806 5.33609 0
M  V30 22151 O 1995.6 -1.31956 5.54927 0
M  V30 22152 O 1994.53 0.568228 5.99212 0
M  V30 22153 H 1998.36 1.26755 2.75984 0
M  V30 22154 H 1995.94 0.682661 1.32891 0
M  V30 22155 H 1997.82 -0.756311 4.14557 0
M  V30 22156 H 1996.5 -1.16286 3.02091 0
M  V30 22157 H 1995.41 1.08603 3.57989 0
M  V30 22158 H 1996.74 1.41003 4.71571 0
M  V30 22159 N 1998.39 -1.42074 0.682102 0
M  V30 22160 C 1999.3 -2.34598 0.00845226 0
M  V30 22161 C 2000.32 -1.55494 -0.780873 0
M  V30 22162 O 2001.49 -1.88032 -0.721524 0
M  V30 22163 C 1998.56 -3.34103 -0.926085 0
M  V30 22164 C 1997.62 -4.29102 -0.130475 0
M  V30 22165 C 1996.85 -5.23853 -1.0205 0
M  V30 22166 O 1997.08 -5.23716 -2.26004 0
M  V30 22167 O 1996.01 -6.00004 -0.47739 0
M  V30 22168 H 1999.84 -2.93756 0.770779 0
M  V30 22169 H 1997.42 -1.42701 0.442368 0
M  V30 22170 H 1999.3 -3.95212 -1.46236 0
M  V30 22171 H 1997.98 -2.77408 -1.66814 0
M  V30 22172 H 1996.88 -3.71383 0.450082 0
M  V30 22173 H 1998.22 -4.88858 0.57262 0
M  V30 22174 N 1999.87 -0.425924 -1.51735 0
M  V30 22175 C 2000.78 0.39769 -2.31205 0
M  V30 22176 C 2001.8 1.0382 -1.39633 0
M  V30 22177 O 2002.97 1.03606 -1.72707 0
M  V30 22178 C 2000.04 1.49033 -3.13033 0
M  V30 22179 C 1999.1 0.871143 -4.20368 0
M  V30 22180 C 1998.33 1.91172 -4.98286 0
M  V30 22181 O 1998.55 3.13232 -4.76699 0
M  V30 22182 O 1997.49 1.5086 -5.82688 0
M  V30 22183 H 2001.31 -0.25075 -3.02663 0
M  V30 22184 H 1998.9 -0.188723 -1.48203 0
M  V30 22185 H 2000.78 2.12428 -3.6394 0
M  V30 22186 H 1999.46 2.12307 -2.44351 0
M  V30 22187 H 1998.36 0.199453 -3.73568 0
M  V30 22188 H 1999.7 0.282077 -4.91391 0
M  V30 22189 N 2001.35 1.56817 -0.156891 0
M  V30 22190 C 2002.76 1.58349 0.199431 0
M  V30 22191 C 2002.96 1.17163 1.63937 0
M  V30 22192 O 2002.02 0.87651 2.36799 0
M  V30 22193 C 2003.33 3.00622 -0.0682996 0
M  V30 22194 C 2004.88 3.13 -0.00536951 0
M  V30 22195 C 2005.36 4.57339 -0.245899 0
M  V30 22196 N 2006.85 4.62797 -0.19317 0
M  V30 22197 C 2007.58 5.72308 -0.353652 0
M  V30 22198 N 2007.08 6.90431 -0.5724 0
M  V30 22199 N 2008.87 5.61349 -0.290563 0
M  V30 22200 H 2001.02 1.8188 -1.09697 0
M  V30 22201 H 2003.28 0.842304 -0.435002 0
M  V30 22202 H 2002.99 3.3518 -1.06524 0
M  V30 22203 H 2002.86 3.71616 0.646647 0
M  V30 22204 H 2005.25 2.78277 0.98213 0
M  V30 22205 H 2005.33 2.44472 -0.752801 0
M  V30 22206 H 2004.98 4.92768 -1.23054 0
M  V30 22207 H 2004.91 5.24007 0.521974 0
M  V30 22208 H 2007.4 3.77889 -0.0291566 0
M  V30 22209 H 2007.71 7.69761 -0.684694 0
M  V30 22210 H 2006.06 6.92328 -0.608841 0
M  V30 22211 H 2009.25 4.67945 -0.120361 0
M  V30 22212 H 2009.42 6.46644 -0.419064 0
M  V30 22213 N 2002.83 -0.116876 1.57166 0
M  V30 22214 C 2003.77 -1.16225 2.01481 0
M  V30 22215 C 2004.77 -1.42749 0.912094 0
M  V30 22216 O 2005.97 -1.42686 1.0973 0
M  V30 22217 H 2002.35 -0.391924 0.641794 0
M  V30 22218 H 2004.32 -0.762018 2.88506 0
M  V30 22219 C 2003.07 -2.48022 2.43681 0
M  V30 22220 H 2002.39 -2.28451 3.28101 0
M  V30 22221 H 2003.83 -3.19723 2.78484 0
M  V30 22222 C 2002.29 -3.10754 1.30129 0
M  V30 22223 O 2002.82 -3.96911 0.618431 0
M  V30 22224 N 2001.03 -2.70664 1.05781 0
M  V30 22225 H 2000.57 -2.00696 1.61489 0
M  V30 22226 H 2000.53 -3.12965 0.300009 0
M  V30 22227 N 2004.3 -1.52772 -0.387116 0
M  V30 22228 C 2005.55 -1.68156 -1.13364 0
M  V30 22229 C 2005.88 -0.421195 -1.89577 0
M  V30 22230 O 2005.16 0.581056 -1.85618 0
M  V30 22231 C 2005.44 -2.91781 -2.11036 0
M  V30 22232 C 2005.29 -4.27922 -1.38573 0
M  V30 22233 C 2006.61 -3.10957 -3.11438 0
M  V30 22234 H 2003.73 -0.611922 -0.410755 0
M  V30 22235 H 2006.37 -1.85372 -0.416809 0
M  V30 22236 H 2004.52 -2.77234 -2.72165 0
M  V30 22237 H 2006.2 -4.54241 -0.803941 0
M  V30 22238 H 2004.44 -4.28316 -0.687576 0
M  V30 22239 H 2005.11 -5.10514 -2.09952 0
M  V30 22240 H 2007.59 -3.24547 -2.604 0
M  V30 22241 H 2006.46 -3.9893 -3.77022 0
M  V30 22242 H 2006.72 -2.25258 -3.80409 0
M  V30 22243 N 2005.78 0.645673 -1.43767 0
M  V30 22244 C 2007.01 1.43303 -1.49237 0
M  V30 22245 C 2007.42 1.88464 -0.11261 0
M  V30 22246 O 2006.78 1.59955 0.878664 0
M  V30 22247 C 2006.83 2.66302 -2.4447 0
M  V30 22248 O 2006.55 2.23028 -3.77081 0
M  V30 22249 C 2008.05 3.59583 -2.59259 0
M  V30 22250 H 2005.27 0.439978 -0.506617 0
M  V30 22251 H 2007.82 0.790924 -1.88586 0
M  V30 22252 H 2005.97 3.26636 -2.08296 0
M  V30 22253 H 2006.39 3.02664 -4.28363 0
M  V30 22254 H 2007.86 4.42532 -3.29953 0
M  V30 22255 H 2008.34 4.07431 -1.64001 0
M  V30 22256 H 2008.94 3.05126 -2.96274 0
M  V30 22257 N 2007.26 1.30423 0.884744 0
M  V30 22258 C 2008.48 1.22312 1.67495 0
M  V30 22259 C 2008.91 -0.210723 1.86916 0
M  V30 22260 O 2008.27 -1.15161 1.40027 0
M  V30 22261 C 2008.32 1.95725 3.0286 0
M  V30 22262 O 2007.42 1.28449 3.91886 0
M  V30 22263 H 2006.76 0.423038 0.511796 0
M  V30 22264 H 2009.29 1.72246 1.10419 0
M  V30 22265 H 2009.3 2.04755 3.52901 0
M  V30 22266 H 2007.98 3.00006 2.88044 0
M  V30 22267 H 2006.55 1.27775 3.50326 0
M  V30 22268 N 2008.74 -1.09711 1.13142 0
M  V30 22269 C 2009.97 -1.85595 0.914436 0
M  V30 22270 C 2010.38 -1.81013 -0.536632 0
M  V30 22271 O 2009.74 -1.20419 -1.37134 0
M  V30 22272 C 2009.79 -3.33692 1.39039 0
M  V30 22273 O 2009.51 -3.38219 2.78459 0
M  V30 22274 C 2011.01 -4.26427 1.21142 0
M  V30 22275 H 2008.23 -0.586333 0.326274 0
M  V30 22276 H 2010.77 -1.38646 1.50325 0
M  V30 22277 H 2008.93 -3.7808 0.844641 0
M  V30 22278 H 2009.34 -4.30567 2.9952 0
M  V30 22279 H 2010.82 -5.28508 1.59323 0
M  V30 22280 H 2011.29 -4.38934 0.152782 0
M  V30 22281 H 2011.9 -3.87851 1.74505 0
M  V30 22282 N 2010.22 -0.924476 -1.27637 0
M  V30 22283 C 2011.44 -0.57884 -1.99159 0
M  V30 22284 C 2011.87 0.83532 -1.68535 0
M  V30 22285 O 2011.22 1.55999 -0.92379 0
M  V30 22286 C 2011.27 -0.807508 -3.51442 0
M  V30 22287 O 2010.38 0.128443 -4.122 0
M  V30 22288 H 2009.72 -0.223218 -0.625356 0
M  V30 22289 H 2012.25 -1.24285 -1.62525 0
M  V30 22290 H 2012.26 -0.721808 -4.01564 0
M  V30 22291 H 2010.93 -1.83836 -3.73064 0
M  V30 22292 H 2009.51 -0.00689785 -3.72899 0
M  V30 22293 N 2011.69 1.41711 -0.689627 0
M  V30 22294 C 2012.97 1.95052 -0.146379 0
M  V30 22295 C 2013.35 1.62932 1.34225 0
M  V30 22296 O 2012.7 0.933198 2.08575 0
M  V30 22297 C 2012.91 3.46324 -0.431327 0
M  V30 22298 C 2014.26 4.23106 -0.355847 0
M  V30 22299 O 2015.28 3.54316 -0.365905 0
M  V30 22300 O 2014.14 5.45615 -0.310824 0
M  V30 22301 H 2011.23 0.82692 -0.0115 0
M  V30 22302 H 2013.78 1.5146 -0.765378 0
M  V30 22303 H 2012.55 3.62963 -1.46197 0
M  V30 22304 H 2012.18 3.96997 0.218942 0
M  V30 22305 N 2013.17 0.433965 1.51507 0
M  V30 22306 C 2014.58 -0.0299408 1.86676 0
M  V30 22307 C 2014.93 -1.42245 1.35132 0
M  V30 22308 O 2014.06 -2.0474 0.700735 0
M  V30 22309 C 2014.65 -0.0611079 3.38745 0
M  V30 22310 C 2013.21 -0.469416 3.73461 0
M  V30 22311 C 2012.36 0.340116 2.75206 0
M  V30 22312 H 2015.31 0.649958 1.4478 0
M  V30 22313 H 2015.33 -0.871298 3.7039 0
M  V30 22314 H 2014.84 0.952511 3.7623 0
M  V30 22315 H 2012.95 -1.48876 3.41565 0
M  V30 22316 H 2013.06 -0.196556 4.78697 0
M  V30 22317 H 2011.42 -0.201099 2.53905 0
M  V30 22318 H 2012.21 1.35255 3.15533 0
M  V30 22319 N 2014.65 -1.56732 0.165206 0
M  V30 22320 C 2016.07 -1.58453 -0.191031 0
M  V30 22321 C 2016.27 -1.1803 -1.63313 0
M  V30 22322 O 2015.32 -0.889055 -2.3633 0
M  V30 22323 C 2016.64 -3.00582 0.0842414 0
M  V30 22324 C 2018.18 -3.12992 0.0219686 0
M  V30 22325 C 2018.66 -4.57203 0.270149 0
M  V30 22326 N 2020.15 -4.62688 0.217711 0
M  V30 22327 C 2020.88 -5.72113 0.383998 0
M  V30 22328 N 2020.38 -6.90118 0.609007 0
M  V30 22329 N 2022.17 -5.61187 0.320329 0
M  V30 22330 H 2014.32 -1.81296 1.1066 0
M  V30 22331 H 2016.59 -0.839986 0.439463 0
M  V30 22332 H 2016.29 -3.3461 1.083 0
M  V30 22333 H 2016.17 -3.71954 -0.62693 0
M  V30 22334 H 2018.55 -2.78794 -0.967358 0
M  V30 22335 H 2018.64 -2.44069 0.765755 0
M  V30 22336 H 2018.28 -4.92108 1.25666 0
M  V30 22337 H 2018.21 -5.24276 -0.494177 0
M  V30 22338 H 2020.7 -3.77868 0.0491965 0
M  V30 22339 H 2021.01 -7.69387 0.725507 0
M  V30 22340 H 2019.36 -6.91995 0.645549 0
M  V30 22341 H 2022.55 -4.67875 0.145176 0
M  V30 22342 H 2022.72 -6.46412 0.453351 0
M  V30 22343 N 2016.13 0.10854 -1.57226 0
M  V30 22344 C 2017.54 0.462379 -1.52755 0
M  V30 22345 C 2017.74 1.81276 -0.87985 0
M  V30 22346 O 2016.8 2.48151 -0.466628 0
M  V30 22347 C 2018.11 0.437241 -2.97504 0
M  V30 22348 C 2019.66 0.520052 -3.08649 0
M  V30 22349 C 2020.14 0.525198 -4.54979 0
M  V30 22350 N 2021.63 0.586339 -4.59474 0
M  V30 22351 C 2022.36 0.61194 -5.70125 0
M  V30 22352 N 2021.86 0.594556 -6.90244 0
M  V30 22353 N 2023.65 0.655738 -5.58262 0
M  V30 22354 H 2015.8 -0.776135 -1.97712 0
M  V30 22355 H 2018.07 -0.287457 -0.903367 0
M  V30 22356 H 2017.77 -0.487552 -3.48304 0
M  V30 22357 H 2017.65 1.2612 -3.55491 0
M  V30 22358 H 2020.03 1.43526 -2.57845 0
M  V30 22359 H 2020.11 -0.331795 -2.53639 0
M  V30 22360 H 2019.76 -0.386013 -5.06431 0
M  V30 22361 H 2019.69 1.39407 -5.07812 0
M  V30 22362 H 2022.18 0.605514 -3.73017 0
M  V30 22363 H 2022.49 0.617002 -7.70333 0
M  V30 22364 H 2020.84 0.561814 -6.92726 0
M  V30 22365 H 2024.03 0.666756 -4.63327 0
M  V30 22366 H 2024.2 0.672222 -6.44504 0
M  V30 22367 N 2017.61 1.52975 0.379009 0
M  V30 22368 C 2018.83 1.72698 1.14849 0
M  V30 22369 C 2019.26 0.448814 1.82667 0
M  V30 22370 O 2018.61 -0.596182 1.71217 0
M  V30 22371 C 2018.66 2.884 2.16466 0
M  V30 22372 O 2017.77 2.56071 3.23267 0
M  V30 22373 H 2017.11 0.573952 0.333878 0
M  V30 22374 H 2019.64 1.99807 0.440243 0
M  V30 22375 H 2019.65 3.14183 2.60295 0
M  V30 22376 H 2018.32 3.8112 1.66494 0
M  V30 22377 H 2016.9 2.41063 2.84505 0
M  V30 22378 N 2019.08 -0.63804 1.44107 0
M  V30 22379 C 2020.01 -1.76164 1.5326 0
M  V30 22380 C 2021 -1.6566 0.386107 0
M  V30 22381 O 2022.18 -1.84525 0.605326 0
M  V30 22382 C 2019.31 -3.14665 1.4698 0
M  V30 22383 C 2018.26 -3.39949 2.60035 0
M  V30 22384 C 2017.59 -4.78409 2.38808 0
M  V30 22385 C 2018.89 -3.33193 4.02219 0
M  V30 22386 H 2020.58 -1.6876 2.47306 0
M  V30 22387 H 2018.13 -0.810483 1.19026 0
M  V30 22388 H 2020.08 -3.93037 1.51986 0
M  V30 22389 H 2018.81 -3.22835 0.494471 0
M  V30 22390 H 2017.47 -2.63955 2.54408 0
M  V30 22391 H 2017.11 -4.83274 1.39483 0
M  V30 22392 H 2016.81 -4.96285 3.14602 0
M  V30 22393 H 2018.34 -5.5902 2.4562 0
M  V30 22394 H 2019.75 -4.0148 4.09252 0
M  V30 22395 H 2018.15 -3.62605 4.78161 0
M  V30 22396 H 2019.22 -2.31116 4.26279 0
M  V30 22397 N 2020.56 -1.3089 -0.877815 0
M  V30 22398 C 2021.47 -1.19819 -2.01694 0
M  V30 22399 C 2022.49 -0.116563 -1.73609 0
M  V30 22400 O 2023.66 -0.332871 -1.9863 0
M  V30 22401 C 2020.73 -0.898133 -3.34865 0
M  V30 22402 C 2019.79 -2.06586 -3.76325 0
M  V30 22403 C 2019.02 -1.78002 -5.03141 0
M  V30 22404 O 2019.25 -0.711373 -5.65947 0
M  V30 22405 O 2018.18 -2.63452 -5.41181 0
M  V30 22406 H 2022.01 -2.15529 -2.13965 0
M  V30 22407 H 2019.59 -1.10553 -1.00491 0
M  V30 22408 H 2021.47 -0.746305 -4.14739 0
M  V30 22409 H 2020.15 0.0290018 -3.23687 0
M  V30 22410 H 2019.06 -2.27305 -2.97125 0
M  V30 22411 H 2020.39 -2.97497 -3.92118 0
M  V30 22412 N 2022.04 1.0911 -1.13723 0
M  V30 22413 C 2022.97 2.17859 -0.840227 0
M  V30 22414 C 2023.95 1.68899 0.201778 0
M  V30 22415 O 2025.14 1.94107 0.0600046 0
M  V30 22416 C 2022.27 3.45922 -0.309024 0
M  V30 22417 C 2021.22 4.08234 -1.28565 0
M  V30 22418 C 2020.55 5.31162 -0.614064 0
M  V30 22419 C 2021.85 4.50354 -2.64534 0
M  V30 22420 H 2023.54 2.4296 -1.74959 0
M  V30 22421 H 2021.09 1.16771 -0.842653 0
M  V30 22422 H 2023.04 4.21306 -0.088895 0
M  V30 22423 H 2021.76 3.20353 0.635735 0
M  V30 22424 H 2020.42 3.34873 -1.49183 0
M  V30 22425 H 2020.07 5.01875 0.336272 0
M  V30 22426 H 2019.77 5.73807 -1.26566 0
M  V30 22427 H 2021.29 6.09267 -0.403293 0
M  V30 22428 H 2022.71 5.16948 -2.47866 0
M  V30 22429 H 2021.11 5.03894 -3.259 0
M  V30 22430 H 2022.18 3.62594 -3.21952 0
M  V30 22431 N 2023.52 0.931232 1.27145 0
M  V30 22432 C 2024.45 0.377419 2.25057 0
M  V30 22433 C 2025.43 -0.528197 1.53782 0
M  V30 22434 O 2026.61 -0.467903 1.826 0
M  V30 22435 C 2023.74 -0.4587 3.3558 0
M  V30 22436 C 2022.79 0.383982 4.24768 0
M  V30 22437 S 2023.62 1.80173 5.0428 0
M  V30 22438 C 2024.78 0.973395 6.18285 0
M  V30 22439 H 2025.01 1.20726 2.71685 0
M  V30 22440 H 2022.54 0.733657 1.35856 0
M  V30 22441 H 2024.5 -0.935236 3.99704 0
M  V30 22442 H 2023.16 -1.2631 2.87584 0
M  V30 22443 H 2022.35 -0.256158 5.03349 0
M  V30 22444 H 2021.96 0.794824 3.65457 0
M  V30 22445 H 2024.25 0.211028 6.77171 0
M  V30 22446 H 2025.19 1.73233 6.86583 0
M  V30 22447 H 2025.6 0.513847 5.62156 0
M  V30 22448 N 2025 -1.41343 0.697132 0
M  V30 22449 C 2025.96 -2.29162 0.0417336 0
M  V30 22450 C 2026.96 -1.44455 -0.706353 0
M  V30 22451 O 2028.15 -1.65586 -0.54101 0
M  V30 22452 C 2025.28 -3.2736 -0.951235 0
M  V30 22453 H 2026.48 -2.88614 0.814974 0
M  V30 22454 H 2024.03 -1.49356 0.460717 0
M  V30 22455 H 2024.76 -2.7289 -1.75218 0
M  V30 22456 H 2024.55 -3.89866 -0.417931 0
M  V30 22457 H 2026.04 -3.93164 -1.40756 0
M  V30 22458 N 2026.48 -0.441993 -1.51275 0
M  V30 22459 C 2027.71 0.121275 -2.06244 0
M  V30 22460 C 2028.11 1.36608 -1.309 0
M  V30 22461 O 2027.46 1.80072 -0.363267 0
M  V30 22462 C 2027.52 0.504271 -3.55946 0
M  V30 22463 C 2027.18 -0.634389 -4.52575 0
M  V30 22464 C 2028.18 -1.5079 -4.97552 0
M  V30 22465 C 2025.86 -0.816445 -4.9562 0
M  V30 22466 C 2027.86 -2.54813 -5.84251 0
M  V30 22467 C 2025.55 -1.85994 -5.82108 0
M  V30 22468 C 2026.54 -2.72417 -6.26321 0
M  V30 22469 O 2026.23 -3.74974 -7.11091 0
M  V30 22470 H 2025.96 0.00928409 -0.675936 0
M  V30 22471 H 2028.52 -0.62124 -1.9578 0
M  V30 22472 H 2026.75 1.29956 -3.64209 0
M  V30 22473 H 2028.44 0.999234 -3.93408 0
M  V30 22474 H 2029.2 -1.37881 -4.64988 0
M  V30 22475 H 2025.08 -0.153327 -4.60745 0
M  V30 22476 H 2028.63 -3.22302 -6.18682 0
M  V30 22477 H 2024.52 -1.98922 -6.14085 0
M  V30 22478 H 2025.29 -3.71611 -7.29279 0
M  V30 22479 N 2027.95 1.56642 -0.173515 0
M  V30 22480 C 2029.2 1.96949 0.470873 0
M  V30 22481 C 2029.53 1.05958 1.63105 0
M  V30 22482 O 2028.78 0.0941313 1.95473 0
M  V30 22483 C 2029.08 3.43315 0.993457 0
M  V30 22484 C 2028.75 4.50871 -0.05105 0
M  V30 22485 C 2027.41 4.80011 -0.338111 0
M  V30 22486 C 2029.76 5.1563 -0.759912 0
M  V30 22487 C 2027.09 5.71207 -1.33938 0
M  V30 22488 C 2029.44 6.07907 -1.75018 0
M  V30 22489 C 2028.11 6.35413 -2.04467 0
M  V30 22490 H 2027.38 0.720689 0.172305 0
M  V30 22491 H 2030.02 1.89644 -0.265939 0
M  V30 22492 H 2028.33 3.47583 1.80813 0
M  V30 22493 H 2030.03 3.71845 1.50108 0
M  V30 22494 H 2026.62 4.2821 0.182862 0
M  V30 22495 H 2030.8 4.93228 -0.551351 0
M  V30 22496 H 2026.06 5.908 -1.57369 0
M  V30 22497 H 2030.23 6.57154 -2.30481 0
M  V30 22498 H 2027.86 7.0588 -2.82201 0
M  V30 22499 N 2029.43 -0.1002 1.57281 0
M  V30 22500 C 2030.66 -0.818307 1.9003 0
M  V30 22501 C 2031.07 -1.72531 0.766704 0
M  V30 22502 O 2030.43 -1.80616 -0.261577 0
M  V30 22503 C 2030.48 -1.63596 3.22364 0
M  V30 22504 O 2030.2 -0.765449 4.31361 0
M  V30 22505 C 2031.7 -2.45758 3.68942 0
M  V30 22506 H 2028.92 -0.234253 0.628782 0
M  V30 22507 H 2031.47 -0.0789616 2.04347 0
M  V30 22508 H 2029.62 -2.32787 3.09659 0
M  V30 22509 H 2030.04 -1.33126 5.07324 0
M  V30 22510 H 2031.51 -2.9863 4.64246 0
M  V30 22511 H 2031.99 -3.23987 2.96528 0
M  V30 22512 H 2032.59 -1.81776 3.84497 0
M  V30 22513 N 2030.91 -1.53174 -0.370891 0
M  V30 22514 C 2032.15 -1.70797 -1.12284 0
M  V30 22515 C 2032.51 -0.44749 -1.86712 0
M  V30 22516 O 2033.71 -0.500342 -2.64102 0
M  V30 22517 C 2031.99 -2.92004 -2.06078 0
M  V30 22518 S 2033.54 -3.30307 -2.88864 0
M  V30 22519 H 2030.36 -0.601048 -0.379819 0
M  V30 22520 H 2032.96 -1.91263 -0.404795 0
M  V30 22521 H 2031.67 -3.81946 -1.50152 0
M  V30 22522 H 2031.2 -2.73925 -2.82363 0
M  V30 22523 H 2033.21 -2.81906 -4.08342 0
M  V30 22524 N 2032.39 0.630389 -1.44443 0
M  V30 22525 C 2033.63 1.40149 -1.48787 0
M  V30 22526 C 2033.99 1.9164 -0.117598 0
M  V30 22527 O 2035.19 2.68776 -0.0357153 0
M  V30 22528 C 2033.46 2.53505 -2.51933 0
M  V30 22529 S 2035.02 3.41671 -2.7533 0
M  V30 22530 H 2031.84 0.478109 -0.526244 0
M  V30 22531 H 2034.44 0.729702 -1.81371 0
M  V30 22532 H 2033.15 2.13989 -3.50196 0
M  V30 22533 H 2032.68 3.25509 -2.20923 0
M  V30 22534 H 2034.69 4.50969 -2.06981 0
M  V30 22535 N 2033.87 1.31354 0.870861 0
M  V30 22536 C 2035.09 1.24082 1.66188 0
M  V30 22537 C 2035.52 -0.190886 1.87129 0
M  V30 22538 O 2034.87 -1.13669 1.41241 0
M  V30 22539 C 2034.92 1.98926 3.00767 0
M  V30 22540 O 2034.03 1.32599 3.90501 0
M  V30 22541 H 2033.37 0.428443 0.50728 0
M  V30 22542 H 2035.9 1.73408 1.08586 0
M  V30 22543 H 2035.91 2.08487 3.5071 0
M  V30 22544 H 2034.58 3.03044 2.84846 0
M  V30 22545 H 2033.16 1.31483 3.48951 0
M  V30 22546 N 2035.34 -1.08505 1.143 0
M  V30 22547 C 2036.27 -2.1741 0.851769 0
M  V30 22548 C 2037.25 -1.69004 -0.192818 0
M  V30 22549 O 2038.44 -1.94136 -0.0497098 0
M  V30 22550 C 2035.57 -3.45754 0.327364 0
M  V30 22551 C 2034.52 -4.07547 1.30728 0
M  V30 22552 C 2033.85 -5.30829 0.642225 0
M  V30 22553 C 2035.15 -4.48945 2.66919 0
M  V30 22554 H 2036.84 -2.42029 1.76245 0
M  V30 22555 H 2034.39 -1.16322 0.848834 0
M  V30 22556 H 2036.34 -4.21253 0.111237 0
M  V30 22557 H 2035.07 -3.20686 -0.618737 0
M  V30 22558 H 2033.73 -3.34077 1.50956 0
M  V30 22559 H 2033.37 -5.02046 -0.309652 0
M  V30 22560 H 2033.07 -5.73128 1.29608 0
M  V30 22561 H 2034.6 -6.09044 0.435598 0
M  V30 22562 H 2036.01 -5.15626 2.50604 0
M  V30 22563 H 2034.41 -5.02158 3.28568 0
M  V30 22564 H 2035.48 -3.60882 3.23871 0
M  V30 22565 N 2036.82 -0.937962 -1.26649 0
M  V30 22566 C 2037.75 -0.402342 -2.25641 0
M  V30 22567 C 2038.77 0.472614 -1.55789 0
M  V30 22568 O 2039.96 0.283579 -1.76233 0
M  V30 22569 C 2037.06 0.441157 -3.36016 0
M  V30 22570 C 2036.23 -0.416892 -4.35409 0
M  V30 22571 C 2035.29 0.365644 -5.24928 0
M  V30 22572 O 2034.31 -0.230215 -5.68734 0
M  V30 22573 N 2035.52 1.66298 -5.5617 0
M  V30 22574 H 2038.28 -1.25333 -2.72235 0
M  V30 22575 H 2035.84 -0.806494 -1.40383 0
M  V30 22576 H 2037.83 0.971979 -3.92855 0
M  V30 22577 H 2036.4 1.19293 -2.88943 0
M  V30 22578 H 2035.62 -1.12895 -3.77688 0
M  V30 22579 H 2036.91 -1.00313 -4.98813 0
M  V30 22580 H 2036.31 2.16925 -5.22456 0
M  V30 22581 H 2034.87 2.14011 -6.15664 0
M  V30 22582 N 2038.3 1.40971 -0.704618 0
M  V30 22583 C 2039.25 2.32576 -0.0337552 0
M  V30 22584 C 2040.24 1.51452 0.758852 0
M  V30 22585 O 2041.45 1.67327 0.663455 0
M  V30 22586 H 2037.82 0.751959 0.00788634 0
M  V30 22587 H 2039.79 2.86819 -0.823248 0
M  V30 22588 C 2038.54 3.36326 0.882061 0
M  V30 22589 H 2037.87 3.98807 0.281575 0
M  V30 22590 H 2039.31 4.02942 1.31962 0
M  V30 22591 C 2037.76 2.70931 2.00245 0
M  V30 22592 O 2038.29 2.56412 3.09218 0
M  V30 22593 N 2036.5 2.29485 1.78284 0
M  V30 22594 H 2036.05 2.41494 0.89657 0
M  V30 22595 H 2036.01 1.86067 2.5343 0
M  V30 22596 N 2039.78 0.45001 1.51039 0
M  V30 22597 C 2041 -0.112834 2.07093 0
M  V30 22598 C 2041.43 -1.34598 1.31397 0
M  V30 22599 O 2040.79 -1.7778 0.355505 0
M  V30 22600 C 2040.83 -0.400989 3.58364 0
M  V30 22601 O 2039.94 -1.48527 3.84725 0
M  V30 22602 H 2039.28 0.00369778 0.66399 0
M  V30 22603 H 2041.81 0.634991 1.94497 0
M  V30 22604 H 2041.82 -0.647726 4.02826 0
M  V30 22605 H 2040.49 0.500232 4.12881 0
M  V30 22606 H 2039.07 -1.2275 3.52118 0
M  V30 22607 N 2041.26 -1.56548 0.18182 0
M  V30 22608 C 2042.21 -2.15071 -0.756856 0
M  V30 22609 C 2043.19 -1.0878 -1.18557 0
M  V30 22610 O 2044.38 -1.34877 -1.14618 0
M  V30 22611 C 2041.51 -2.80324 -1.98175 0
M  V30 22612 C 2040.6 -3.93788 -1.57455 0
M  V30 22613 N 2040.99 -4.9813 -0.877524 0
M  V30 22614 C 2039.29 -4.05143 -1.86482 0
M  V30 22615 C 2039.99 -5.77765 -0.675425 0
M  V30 22616 N 2038.96 -5.29731 -1.22009 0
M  V30 22617 H 2042.77 -2.93109 -0.215455 0
M  V30 22618 H 2040.28 -1.62389 -0.0184721 0
M  V30 22619 H 2042.28 -3.20635 -2.66456 0
M  V30 22620 H 2040.94 -2.0377 -2.528 0
M  V30 22621 H 2041.95 -5.15135 -0.534425 0
M  V30 22622 H 2038.62 -3.39703 -2.42709 0
M  V30 22623 H 2040.01 -6.71787 -0.123453 0
M  V30 22624 N 2042.73 0.0918577 -1.57332 0
M  V30 22625 C 2043.66 1.11191 -2.05326 0
M  V30 22626 C 2044.65 1.41581 -0.942802 0
M  V30 22627 O 2045.83 1.51555 -1.21428 0
M  V30 22628 C 2042.96 2.4309 -2.48041 0
M  V30 22629 C 2041.91 2.271 -3.6278 0
M  V30 22630 C 2041.24 3.64205 -3.91482 0
M  V30 22631 C 2042.54 1.70886 -4.93554 0
M  V30 22632 H 2044.23 0.712608 -2.90796 0
M  V30 22633 H 2041.78 0.341338 -1.39896 0
M  V30 22634 H 2043.73 3.14724 -2.80226 0
M  V30 22635 H 2042.46 2.84962 -1.59575 0
M  V30 22636 H 2041.12 1.57911 -3.30847 0
M  V30 22637 H 2040.76 4.03611 -3.00179 0
M  V30 22638 H 2040.46 3.54352 -4.68731 0
M  V30 22639 H 2041.99 4.37302 -4.26145 0
M  V30 22640 H 2043.4 2.32364 -5.24099 0
M  V30 22641 H 2041.8 1.71783 -5.74987 0
M  V30 22642 H 2042.87 0.668569 -4.80269 0
M  V30 22643 N 2044.21 1.53368 0.362763 0
M  V30 22644 C 2045.44 1.73348 1.12402 0
M  V30 22645 C 2045.85 0.463567 1.83433 0
M  V30 22646 O 2045.19 -0.573438 1.7452 0
M  V30 22647 C 2045.26 2.84605 2.19637 0
M  V30 22648 C 2044.92 4.24862 1.68348 0
M  V30 22649 C 2045.92 5.07111 1.14605 0
M  V30 22650 C 2043.6 4.71283 1.73776 0
M  V30 22651 C 2045.6 6.33872 0.669702 0
M  V30 22652 C 2043.28 5.98021 1.25753 0
M  V30 22653 C 2044.28 6.79148 0.724405 0
M  V30 22654 O 2043.97 8.03507 0.251275 0
M  V30 22655 H 2043.7 0.583168 0.341893 0
M  V30 22656 H 2046.25 2.00919 0.426694 0
M  V30 22657 H 2044.48 2.52514 2.92871 0
M  V30 22658 H 2046.17 2.92735 2.81177 0
M  V30 22659 H 2046.94 4.7242 1.09748 0
M  V30 22660 H 2042.82 4.08208 2.14213 0
M  V30 22661 H 2046.36 6.97141 0.252909 0
M  V30 22662 H 2042.26 6.32211 1.30304 0
M  V30 22663 H 2043.03 8.17662 0.370343 0
M  V30 22664 N 2045.69 -0.62272 1.44776 0
M  V30 22665 C 2046.62 -1.74528 1.5512 0
M  V30 22666 C 2047.6 -1.65241 0.403656 0
M  V30 22667 O 2048.79 -1.83873 0.624863 0
M  V30 22668 C 2045.92 -3.13088 1.5031 0
M  V30 22669 C 2044.87 -3.37172 2.63626 0
M  V30 22670 C 2044.2 -4.75849 2.43868 0
M  V30 22671 C 2045.5 -3.28908 4.0573 0
M  V30 22672 H 2047.19 -1.66128 2.49082 0
M  V30 22673 H 2044.74 -0.797813 1.19879 0
M  V30 22674 H 2046.69 -3.91403 1.56146 0
M  V30 22675 H 2045.41 -3.22293 0.528684 0
M  V30 22676 H 2044.07 -2.61241 2.57194 0
M  V30 22677 H 2043.72 -4.81767 1.446 0
M  V30 22678 H 2043.42 -4.92921 3.19849 0
M  V30 22679 H 2044.94 -5.56383 2.51535 0
M  V30 22680 H 2046.36 -3.97117 4.13487 0
M  V30 22681 H 2044.76 -3.57513 4.8198 0
M  V30 22682 H 2045.83 -2.26581 4.28706 0
M  V30 22683 N 2047.17 -1.31814 -0.863883 0
M  V30 22684 C 2048.41 -1.22028 -1.61979 0
M  V30 22685 C 2048.75 0.219661 -1.92954 0
M  V30 22686 O 2048.02 1.15428 -1.56546 0
M  V30 22687 C 2048.31 -2.0707 -2.94608 0
M  V30 22688 C 2048.16 -3.59395 -2.70473 0
M  V30 22689 C 2049.48 -1.92477 -3.95779 0
M  V30 22690 H 2046.6 -0.444641 -0.587762 0
M  V30 22691 H 2049.24 -1.61666 -0.998202 0
M  V30 22692 H 2047.39 -1.73395 -3.47659 0
M  V30 22693 H 2049.06 -4.03237 -2.24048 0
M  V30 22694 H 2047.3 -3.82521 -2.04597 0
M  V30 22695 H 2047.97 -4.14213 -3.64871 0
M  V30 22696 H 2050.45 -2.21959 -3.51957 0
M  V30 22697 H 2049.33 -2.54272 -4.86453 0
M  V30 22698 H 2049.59 -0.889783 -4.33053 0
M  V30 22699 N 2048.65 1.07897 -1.14873 0
M  V30 22700 C 2049.58 2.16955 -0.863287 0
M  V30 22701 C 2050.56 1.69103 0.183853 0
M  V30 22702 O 2051.74 1.9416 0.0394136 0
M  V30 22703 C 2048.87 3.45575 -0.345696 0
M  V30 22704 C 2047.83 4.06847 -1.32888 0
M  V30 22705 C 2047.15 5.30481 -0.670367 0
M  V30 22706 C 2048.45 4.47523 -2.69296 0
M  V30 22707 H 2050.15 2.41091 -1.77526 0
M  V30 22708 H 2047.69 1.1587 -0.854991 0
M  V30 22709 H 2049.65 4.21188 -0.133575 0
M  V30 22710 H 2048.37 3.21009 0.601722 0
M  V30 22711 H 2047.03 3.33272 -1.52726 0
M  V30 22712 H 2046.68 5.02203 0.283023 0
M  V30 22713 H 2046.38 5.72433 -1.32645 0
M  V30 22714 H 2047.9 6.08805 -0.467891 0
M  V30 22715 H 2049.31 5.1429 -2.53335 0
M  V30 22716 H 2047.71 5.00409 -3.31226 0
M  V30 22717 H 2048.78 3.59159 -3.2578 0
M  V30 22718 N 2050.12 0.944665 1.2615 0
M  V30 22719 C 2051.54 0.647519 1.45874 0
M  V30 22720 C 2051.74 -0.798095 1.85021 0
M  V30 22721 O 2050.8 -1.57439 1.97406 0
M  V30 22722 C 2052.11 1.61192 2.53845 0
M  V30 22723 C 2053.66 1.62201 2.67694 0
M  V30 22724 C 2054.13 2.5738 3.7884 0
M  V30 22725 N 2055.62 2.55686 3.86237 0
M  V30 22726 C 2056.36 3.26015 4.71701 0
M  V30 22727 N 2055.85 4.05782 5.61527 0
M  V30 22728 N 2057.65 3.1495 4.65578 0
M  V30 22729 H 2049.8 1.87901 0.990296 0
M  V30 22730 H 2052.06 0.807679 0.496345 0
M  V30 22731 H 2051.77 2.64402 2.31915 0
M  V30 22732 H 2051.64 1.36668 3.5157 0
M  V30 22733 H 2054.03 0.597142 2.88995 0
M  V30 22734 H 2054.11 1.9078 1.70402 0
M  V30 22735 H 2053.75 3.59987 3.5829 0
M  V30 22736 H 2053.68 2.26089 4.75596 0
M  V30 22737 H 2056.17 1.97768 3.22019 0
M  V30 22738 H 2056.49 4.56389 6.23642 0
M  V30 22739 H 2054.83 4.09882 5.61268 0
M  V30 22740 H 2058.02 2.52113 3.94407 0
M  V30 22741 H 2058.2 3.70027 5.31962 0
M  V30 22742 N 2051.6 -1.40596 0.712085 0
M  V30 22743 C 2053.02 -1.5488 0.385286 0
M  V30 22744 C 2053.22 -1.68416 -1.10626 0
M  V30 22745 O 2052.27 -1.67179 -1.89228 0
M  V30 22746 C 2053.59 -2.77912 1.14828 0
M  V30 22747 C 2055.14 -2.91726 1.13424 0
M  V30 22748 C 2055.61 -4.17667 1.87931 0
M  V30 22749 N 2057.1 -4.2466 1.84982 0
M  V30 22750 C 2057.84 -5.21006 2.39459 0
M  V30 22751 N 2057.33 -6.23282 3.02476 0
M  V30 22752 N 2059.13 -5.1306 2.29621 0
M  V30 22753 H 2051.28 -1.30055 1.67927 0
M  V30 22754 H 2053.54 -0.628638 0.70959 0
M  V30 22755 H 2053.25 -2.74175 2.20275 0
M  V30 22756 H 2053.12 -3.69918 0.737606 0
M  V30 22757 H 2055.51 -2.94969 0.0879737 0
M  V30 22758 H 2055.59 -2.00848 1.5841 0
M  V30 22759 H 2055.23 -4.15186 2.92546 0
M  V30 22760 H 2055.16 -5.07548 1.40367 0
M  V30 22761 H 2057.65 -3.51387 1.39053 0
M  V30 22762 H 2057.97 -6.93217 3.4157 0
M  V30 22763 H 2056.31 -6.23736 3.06559 0
M  V30 22764 H 2059.5 -4.32088 1.80049 0
M  V30 22765 H 2059.67 -5.87975 2.72378 0
M  V30 22766 N 2053.08 -0.458013 -1.50798 0
M  V30 22767 C 2054.33 0.101266 -2.01846 0
M  V30 22768 C 2054.65 1.41388 -1.34293 0
M  V30 22769 O 2053.92 1.89826 -0.484035 0
M  V30 22770 H 2052.5 0.0404137 -0.745906 0
M  V30 22771 H 2055.16 -0.605448 -1.85257 0
M  V30 22772 H 2054.26 0.262253 -3.10996 0
M  V30 22773 N 2054.56 1.56449 -0.190119 0
M  V30 22774 C 2055.49 2.14748 0.771918 0
M  V30 22775 C 2056.47 1.08278 1.21304 0
M  V30 22776 O 2057.65 1.36362 1.30144 0
M  V30 22777 C 2054.78 2.70233 2.04186 0
M  V30 22778 C 2053.83 3.89246 1.74327 0
M  V30 22779 S 2054.66 5.27954 0.895791 0
M  V30 22780 C 2055.82 5.86857 2.17599 0
M  V30 22781 H 2056.05 2.96013 0.276302 0
M  V30 22782 H 2053.58 1.5438 0.0248132 0
M  V30 22783 H 2055.54 3.02845 2.7712 0
M  V30 22784 H 2054.2 1.89018 2.5086 0
M  V30 22785 H 2053.39 4.26461 2.68602 0
M  V30 22786 H 2053 3.57618 1.09478 0
M  V30 22787 H 2055.29 6.00917 3.12898 0
M  V30 22788 H 2056.23 6.83554 1.84823 0
M  V30 22789 H 2056.64 5.15422 2.30218 0
M  V30 22790 N 2056.04 -0.0835127 1.57379 0
M  V30 22791 C 2057.29 -0.783318 1.86302 0
M  V30 22792 C 2057.61 -1.787 0.780472 0
M  V30 22793 O 2056.88 -1.94956 -0.192101 0
M  V30 22794 H 2055.46 -0.292281 0.687445 0
M  V30 22795 H 2058.12 -0.0623868 1.948 0
M  V30 22796 H 2057.21 -1.30677 2.83425 0
M  V30 22797 N 2057.52 -1.53558 -0.354624 0
M  V30 22798 C 2058.45 -1.83751 -1.44076 0
M  V30 22799 C 2059.43 -0.691795 -1.55397 0
M  V30 22800 O 2060.61 -0.942676 -1.69786 0
M  V30 22801 C 2057.74 -2.03721 -2.81274 0
M  V30 22802 C 2056.7 -3.19517 -2.84769 0
M  V30 22803 C 2056.02 -3.248 -4.24746 0
M  V30 22804 C 2057.32 -4.5787 -2.51301 0
M  V30 22805 H 2059.02 -2.7471 -1.19058 0
M  V30 22806 H 2056.56 -1.32182 -0.5713 0
M  V30 22807 H 2058.51 -2.23427 -3.57293 0
M  V30 22808 H 2057.24 -1.09482 -3.07703 0
M  V30 22809 H 2055.9 -2.99649 -2.11201 0
M  V30 22810 H 2055.55 -2.28177 -4.48268 0
M  V30 22811 H 2055.25 -4.02606 -4.27998 0
M  V30 22812 H 2056.77 -3.46702 -5.02623 0
M  V30 22813 H 2058.18 -4.77663 -3.17034 0
M  V30 22814 H 2056.58 -5.37998 -2.65853 0
M  V30 22815 H 2057.65 -4.62234 -1.46518 0
M  V30 22816 N 2058.99 0.615033 -1.45104 0
M  V30 22817 C 2059.96 1.7081 -1.52828 0
M  V30 22818 C 2060.96 1.55523 -0.408557 0
M  V30 22819 O 2062.15 1.60726 -0.671773 0
M  V30 22820 C 2059.28 3.10023 -1.41768 0
M  V30 22821 H 2060.47 1.6533 -2.50212 0
M  V30 22822 H 2058.02 0.830115 -1.32434 0
M  V30 22823 H 2058.76 3.21086 -0.455409 0
M  V30 22824 H 2058.54 3.22527 -2.22977 0
M  V30 22825 H 2060.03 3.89657 -1.5019 0
M  V30 22826 N 2060.47 1.3227 0.85688 0
M  V30 22827 C 2061.72 1.23895 1.61312 0
M  V30 22828 C 2062.07 -0.197917 1.91379 0
M  V30 22829 O 2061.37 -1.13506 1.5436 0
M  V30 22830 C 2061.56 2.02967 2.94175 0
M  V30 22831 C 2061.39 3.54196 2.77083 0
M  V30 22832 C 2060.16 4.23536 2.75582 0
M  V30 22833 C 2062.36 4.48891 2.51 0
M  V30 22834 N 2060.34 5.60834 2.49677 0
M  V30 22835 C 2061.71 5.7395 2.34481 0
M  V30 22836 C 2063.76 4.38173 2.36451 0
M  V30 22837 C 2062.47 6.89502 2.0489 0
M  V30 22838 C 2064.49 5.53521 2.0825 0
M  V30 22839 C 2063.86 6.77578 1.92529 0
M  V30 22840 H 2059.95 0.508517 0.594083 0
M  V30 22841 H 2062.54 1.6661 1.00744 0
M  V30 22842 H 2060.71 1.62601 3.52726 0
M  V30 22843 H 2062.44 1.86505 3.59163 0
M  V30 22844 H 2059.2 3.75632 2.8844 0
M  V30 22845 H 2059.62 6.33161 2.39659 0
M  V30 22846 H 2064.26 3.42913 2.47326 0
M  V30 22847 H 2061.98 7.84775 1.92752 0
M  V30 22848 H 2065.57 5.47154 1.97773 0
M  V30 22849 H 2064.45 7.65325 1.71018 0
M  V30 22850 N 2061.95 -1.07287 1.15444 0
M  V30 22851 C 2062.9 -2.14506 0.85181 0
M  V30 22852 C 2063.87 -1.64945 -0.195533 0
M  V30 22853 O 2065.05 -1.90696 -0.0629401 0
M  V30 22854 C 2062.19 -3.43341 0.347981 0
M  V30 22855 C 2061.3 -4.0669 1.45697 0
M  V30 22856 C 2060.44 -5.23361 0.9092 0
M  V30 22857 C 2059.48 -5.78673 1.99508 0
M  V30 22858 N 2058.62 -6.86675 1.46364 0
M  V30 22859 H 2063.46 -2.39733 1.77008 0
M  V30 22860 H 2060.99 -1.17635 0.883195 0
M  V30 22861 H 2062.95 -4.17183 0.0375747 0
M  V30 22862 H 2061.58 -3.18363 -0.53337 0
M  V30 22863 H 2060.63 -3.30495 1.88355 0
M  V30 22864 H 2061.94 -4.43806 2.2768 0
M  V30 22865 H 2061.1 -6.04189 0.551375 0
M  V30 22866 H 2059.84 -4.87665 0.0585544 0
M  V30 22867 H 2058.84 -4.9649 2.36173 0
M  V30 22868 H 2060.07 -6.16425 2.84952 0
M  V30 22869 H 2058.01 -6.52916 0.635365 0
M  V30 22870 H 2057.93 -7.22678 2.21973 0
M  V30 22871 H 2059.2 -7.71206 1.13408 0
M  V30 22872 N 2063.43 -0.951342 -1.25647 0
M  V30 22873 C 2064.39 -0.473447 -2.24257 0
M  V30 22874 C 2065.39 0.421053 -1.5519 0
M  V30 22875 O 2066.58 0.218803 -1.7282 0
M  V30 22876 C 2063.71 0.316367 -3.39429 0
M  V30 22877 H 2064.91 -1.34499 -2.68049 0
M  V30 22878 H 2062.46 -0.734296 -1.37978 0
M  V30 22879 H 2063.19 1.20572 -3.01053 0
M  V30 22880 H 2062.98 -0.325315 -3.90748 0
M  V30 22881 H 2064.47 0.640306 -4.12662 0
M  V30 22882 N 2064.91 1.40216 -0.719531 0
M  V30 22883 C 2065.84 2.2918 -0.0300683 0
M  V30 22884 C 2066.85 1.4603 0.719654 0
M  V30 22885 O 2068.04 1.69276 0.56638 0
M  V30 22886 C 2065.14 3.2437 0.981688 0
M  V30 22887 C 2064.31 4.36393 0.296683 0
M  V30 22888 C 2063.37 5.11996 1.21437 0
M  V30 22889 O 2062.4 5.64908 0.697679 0
M  V30 22890 N 2063.6 5.21726 2.54524 0
M  V30 22891 H 2066.36 2.88992 -0.79396 0
M  V30 22892 H 2063.93 1.51629 -0.567481 0
M  V30 22893 H 2065.92 3.7182 1.59787 0
M  V30 22894 H 2064.49 2.65699 1.64691 0
M  V30 22895 H 2063.71 3.91019 -0.499755 0
M  V30 22896 H 2065 5.08486 -0.17865 0
M  V30 22897 H 2064.39 4.80227 2.98996 0
M  V30 22898 H 2062.95 5.72669 3.11277 0
M  V30 22899 N 2066.38 0.466004 1.50553 0
M  V30 22900 C 2067.33 -0.344889 2.30029 0
M  V30 22901 C 2068.33 -0.995031 1.37097 0
M  V30 22902 O 2069.53 -0.926717 1.54311 0
M  V30 22903 H 2065.91 -0.130059 0.740668 0
M  V30 22904 H 2067.88 0.345888 2.96389 0
M  V30 22905 C 2066.63 -1.41723 3.17506 0
M  V30 22906 H 2065.95 -0.926335 3.8892 0
M  V30 22907 H 2067.39 -1.95728 3.7612 0
M  V30 22908 C 2065.85 -2.41636 2.34763 0
M  V30 22909 O 2066.38 -3.46798 2.02716 0
M  V30 22910 N 2064.58 -2.13228 1.97439 0
M  V30 22911 H 2064.13 -1.27733 2.23701 0
M  V30 22912 H 2064.09 -2.80313 1.4238 0
M  V30 22913 N 2067.86 -1.56346 0.198413 0
M  V30 22914 C 2069.11 -1.97674 -0.43948 0
M  V30 22915 C 2069.44 -1.0854 -1.61398 0
M  V30 22916 O 2068.69 -0.125218 -1.95299 0
M  V30 22917 C 2068.99 -3.44852 -0.938713 0
M  V30 22918 C 2068.66 -4.50733 0.122773 0
M  V30 22919 C 2067.32 -4.79412 0.414434 0
M  V30 22920 C 2069.67 -5.14356 0.841848 0
M  V30 22921 C 2067 -5.69004 1.43009 0
M  V30 22922 C 2069.35 -6.05046 1.84667 0
M  V30 22923 C 2068.01 -6.3208 2.1455 0
M  V30 22924 H 2067.28 -0.723339 -0.160817 0
M  V30 22925 H 2069.93 -1.89197 0.296077 0
M  V30 22926 H 2068.24 -3.50415 -1.75261 0
M  V30 22927 H 2069.93 -3.74186 -1.44173 0
M  V30 22928 H 2066.52 -4.28446 -0.114715 0
M  V30 22929 H 2070.71 -4.92288 0.629749 0
M  V30 22930 H 2065.96 -5.88222 1.66749 0
M  V30 22931 H 2070.14 -6.53404 2.40907 0
M  V30 22932 H 2067.76 -7.01301 2.93395 0
M  V30 22933 N 2069.34 0.0751653 -1.57421 0
M  V30 22934 C 2070.59 0.776106 -1.87362 0
M  V30 22935 C 2070.92 1.77394 -0.790247 0
M  V30 22936 O 2070.19 1.93471 0.199817 0
M  V30 22937 C 2070.48 1.4871 -3.27959 0
M  V30 22938 C 2070.33 0.505905 -4.46946 0
M  V30 22939 C 2071.65 2.43284 -3.66744 0
M  V30 22940 H 2068.77 0.280684 -0.681458 0
M  V30 22941 H 2071.41 0.0393497 -1.89959 0
M  V30 22942 H 2069.56 2.11512 -3.25876 0
M  V30 22943 H 2071.23 -0.116642 -4.61153 0
M  V30 22944 H 2069.48 -0.179057 -4.3343 0
M  V30 22945 H 2070.15 1.04094 -5.42096 0
M  V30 22946 H 2072.62 1.90562 -3.69899 0
M  V30 22947 H 2071.5 2.90037 -4.66015 0
M  V30 22948 H 2071.76 3.27938 -2.96494 0
M  V30 22949 N 2070.82 1.53744 0.346476 0
M  V30 22950 C 2072.05 1.74784 1.10717 0
M  V30 22951 C 2072.46 0.485625 1.82448 0
M  V30 22952 O 2071.82 -0.542565 1.74248 0
M  V30 22953 C 2071.87 2.926 2.1229 0
M  V30 22954 O 2071.59 4.13939 1.43477 0
M  V30 22955 C 2073.09 3.25667 3.00758 0
M  V30 22956 H 2070.31 0.58408 0.33029 0
M  V30 22957 H 2072.86 2.00558 0.399573 0
M  V30 22958 H 2071.01 2.69165 2.7862 0
M  V30 22959 H 2071.42 4.80051 2.11308 0
M  V30 22960 H 2072.9 4.11463 3.6797 0
M  V30 22961 H 2073.38 2.41845 3.66617 0
M  V30 22962 H 2073.98 3.51098 2.40022 0
M  V30 22963 N 2072.3 -0.607329 1.45428 0
M  V30 22964 C 2073.26 -1.69997 1.53732 0
M  V30 22965 C 2074.26 -1.55304 0.416799 0
M  V30 22966 O 2075.45 -1.60367 0.680287 0
M  V30 22967 C 2072.58 -3.09267 1.43411 0
M  V30 22968 H 2073.77 -1.64001 2.51085 0
M  V30 22969 H 2071.33 -0.82308 1.32872 0
M  V30 22970 H 2072.06 -3.2084 0.47243 0
M  V30 22971 H 2071.85 -3.2134 2.24685 0
M  V30 22972 H 2073.34 -3.88855 1.52255 0
M  V30 22973 N 2073.77 -1.32722 -0.849853 0
M  V30 22974 C 2075.02 -1.23312 -1.60121 0
M  V30 22975 C 2075.34 0.203882 -1.93931 0
M  V30 22976 O 2074.61 1.12986 -1.60035 0
M  V30 22977 H 2073.19 -0.453413 -0.593654 0
M  V30 22978 H 2075.86 -1.66305 -1.0163 0
M  V30 22979 H 2074.95 -1.81913 -2.53602 0
M  V30 22980 N 2075.25 1.06673 -1.16011 0
M  V30 22981 C 2076.48 1.83645 -0.963814 0
M  V30 22982 C 2076.9 1.81793 0.483005 0
M  V30 22983 O 2076.26 1.21592 1.34481 0
M  V30 22984 C 2076.31 3.28326 -1.49113 0
M  V30 22985 O 2075.41 4.06503 -0.694902 0
M  V30 22986 H 2074.75 0.568386 -0.343269 0
M  V30 22987 H 2077.28 1.34523 -1.54158 0
M  V30 22988 H 2077.29 3.7915 -1.50695 0
M  V30 22989 H 2075.97 3.28988 -2.5444 0
M  V30 22990 H 2074.55 3.65295 -0.749278 0
M  V30 22991 N 2076.73 0.957992 1.25141 0
M  V30 22992 C 2077.98 0.614592 1.92948 0
M  V30 22993 C 2078.31 -0.848868 1.74999 0
M  V30 22994 O 2077.56 -1.62488 1.09069 0
M  V30 22995 C 2077.86 0.923523 3.45262 0
M  V30 22996 C 2077.53 2.37356 3.83371 0
M  V30 22997 C 2076.19 2.7699 3.93484 0
M  V30 22998 C 2078.54 3.31508 4.02184 0
M  V30 22999 C 2075.87 4.09838 4.19821 0
M  V30 23000 C 2078.22 4.63973 4.30014 0
M  V30 23001 C 2076.88 5.03398 4.38345 0
M  V30 23002 H 2076.15 0.224895 0.706048 0
M  V30 23003 H 2078.8 1.20766 1.4862 0
M  V30 23004 H 2077.11 0.248102 3.91014 0
M  V30 23005 H 2078.8 0.636357 3.95919 0
M  V30 23006 H 2075.39 2.05619 3.76057 0
M  V30 23007 H 2079.58 3.02076 3.93781 0
M  V30 23008 H 2074.83 4.40023 4.24488 0
M  V30 23009 H 2079.01 5.36905 4.43516 0
M  V30 23010 H 2076.63 6.06363 4.58506 0
M  V30 23011 N 2078.21 -1.39832 0.726957 0
M  V30 23012 C 2079.17 -2.29022 0.0903329 0
M  V30 23013 C 2080.17 -1.45921 -0.675553 0
M  V30 23014 O 2081.36 -1.66696 -0.505765 0
M  V30 23015 C 2078.49 -3.29304 -0.881584 0
M  V30 23016 H 2079.69 -2.86821 0.87601 0
M  V30 23017 H 2077.24 -1.48345 0.492294 0
M  V30 23018 H 2077.97 -2.76545 -1.69391 0
M  V30 23019 H 2077.76 -3.90665 -0.33514 0
M  V30 23020 H 2079.25 -3.96061 -1.32384 0
M  V30 23021 N 2079.69 -0.473982 -1.50304 0
M  V30 23022 C 2080.63 0.318686 -2.28589 0
M  V30 23023 C 2081.6 0.984628 -1.3377 0
M  V30 23024 O 2082.79 0.996508 -1.62709 0
M  V30 23025 C 2079.93 1.39305 -3.15734 0
M  V30 23026 C 2079.04 0.7416 -4.25587 0
M  V30 23027 C 2078.18 1.79411 -4.99985 0
M  V30 23028 C 2077.22 1.12306 -6.01709 0
M  V30 23029 N 2076.35 2.11854 -6.69374 0
M  V30 23030 H 2081.19 -0.3552 -2.95876 0
M  V30 23031 H 2078.73 -0.187014 -1.45906 0
M  V30 23032 H 2080.69 2.02764 -3.64613 0
M  V30 23033 H 2079.32 2.03607 -2.50488 0
M  V30 23034 H 2078.37 -0.00562528 -3.804 0
M  V30 23035 H 2079.68 0.212032 -4.98349 0
M  V30 23036 H 2078.84 2.50443 -5.52597 0
M  V30 23037 H 2077.57 2.35749 -4.26936 0
M  V30 23038 H 2076.58 0.398372 -5.48355 0
M  V30 23039 H 2077.8 0.566533 -6.76733 0
M  V30 23040 H 2075.75 2.67204 -5.99114 0
M  V30 23041 H 2075.67 1.6389 -7.38022 0
M  V30 23042 H 2076.94 2.82258 -7.26602 0
M  V30 23043 N 2081.16 1.56239 -0.206702 0
M  V30 23044 C 2082.58 1.58903 0.148953 0
M  V30 23045 C 2082.78 1.22319 1.60126 0
M  V30 23046 O 2081.84 0.951402 2.3389 0
M  V30 23047 C 2083.15 3.00253 -0.163906 0
M  V30 23048 C 2084.7 3.12824 -0.104945 0
M  V30 23049 C 2085.17 4.56326 -0.391273 0
M  V30 23050 N 2086.66 4.61948 -0.340308 0
M  V30 23051 C 2087.4 5.70894 -0.535549 0
M  V30 23052 N 2086.89 6.88261 -0.791765 0
M  V30 23053 N 2088.69 5.6014 -0.469005 0
M  V30 23054 H 2080.84 1.78298 -1.15428 0
M  V30 23055 H 2083.1 0.828039 -0.46158 0
M  V30 23056 H 2082.81 3.31621 -1.17133 0
M  V30 23057 H 2082.68 3.73485 0.528093 0
M  V30 23058 H 2085.07 2.81261 0.893101 0
M  V30 23059 H 2085.15 2.41953 -0.830197 0
M  V30 23060 H 2084.79 4.88603 -1.38669 0
M  V30 23061 H 2084.72 5.25402 0.355001 0
M  V30 23062 H 2087.21 3.77605 -0.149364 0
M  V30 23063 H 2087.53 7.67193 -0.929241 0
M  V30 23064 H 2085.87 6.90041 -0.828792 0
M  V30 23065 H 2089.06 4.67325 -0.269173 0
M  V30 23066 H 2089.24 6.44983 -0.624576 0
M  V30 23067 N 2082.64 -0.0668159 1.57458 0
M  V30 23068 C 2083.57 -1.0791 2.07069 0
M  V30 23069 C 2084.55 -1.40063 0.965207 0
M  V30 23070 O 2085.74 -1.49604 1.23823 0
M  V30 23071 C 2082.87 -2.39113 2.51877 0
M  V30 23072 C 2081.82 -2.213 3.66347 0
M  V30 23073 C 2081.15 -3.57931 3.97227 0
M  V30 23074 C 2082.45 -1.63013 4.9621 0
M  V30 23075 H 2084.14 -0.666254 2.91893 0
M  V30 23076 H 2081.69 -0.319039 1.40421 0
M  V30 23077 H 2083.64 -3.10226 2.85198 0
M  V30 23078 H 2082.37 -2.82387 1.64088 0
M  V30 23079 H 2081.02 -1.52628 3.33317 0
M  V30 23080 H 2080.67 -3.98784 3.06562 0
M  V30 23081 H 2080.37 -3.4685 4.74309 0
M  V30 23082 H 2081.9 -4.30467 4.33048 0
M  V30 23083 H 2083.31 -2.23997 5.27729 0
M  V30 23084 H 2081.71 -1.62614 5.77648 0
M  V30 23085 H 2082.78 -0.592078 4.81272 0
M  V30 23086 N 2084.12 -1.53926 -0.338317 0
M  V30 23087 C 2085.37 -1.70639 -1.07542 0
M  V30 23088 C 2085.68 -0.479077 -1.89642 0
M  V30 23089 O 2086.89 -0.527259 -2.66331 0
M  V30 23090 C 2085.35 -3.0176 -1.96134 0
M  V30 23091 C 2084.95 -4.31847 -1.19216 0
M  V30 23092 C 2086.7 -3.27839 -2.6967 0
M  V30 23093 C 2084.6 -5.54039 -2.06869 0
M  V30 23094 H 2083.53 -0.635868 -0.4052 0
M  V30 23095 H 2086.19 -1.80424 -0.334569 0
M  V30 23096 H 2084.57 -2.85845 -2.7406 0
M  V30 23097 H 2085.74 -4.58482 -0.461647 0
M  V30 23098 H 2084.06 -4.12421 -0.574263 0
M  V30 23099 H 2086.65 -4.16322 -3.3553 0
M  V30 23100 H 2087 -2.45074 -3.36518 0
M  V30 23101 H 2087.53 -3.44554 -1.98815 0
M  V30 23102 H 2084.27 -6.39363 -1.44554 0
M  V30 23103 H 2083.79 -5.31645 -2.77694 0
M  V30 23104 H 2085.47 -5.89881 -2.658 0
M  V30 23105 N 2085.6 0.599608 -1.45748 0
M  V30 23106 C 2086.55 1.73095 -1.55374 0
M  V30 23107 C 2087.54 1.64028 -0.423205 0
M  V30 23108 O 2088.75 1.69726 -0.599429 0
M  V30 23109 H 2085.12 0.572 -0.48818 0
M  V30 23110 H 2087.09 1.62104 -2.50529 0
M  V30 23111 C 2085.84 3.1148 -1.54517 0
M  V30 23112 H 2085.17 3.19119 -2.40838 0
M  V30 23113 H 2086.61 3.90447 -1.65309 0
M  V30 23114 C 2085.06 3.35809 -0.270913 0
M  V30 23115 O 2085.59 3.96473 0.645927 0
M  V30 23116 N 2083.8 2.90136 -0.164103 0
M  V30 23117 H 2083.35 2.40951 -0.911075 0
M  V30 23118 H 2083.31 3.06788 0.687647 0
M  V30 23119 N 2087.08 1.33171 0.842803 0
M  V30 23120 C 2088.33 1.24159 1.59464 0
M  V30 23121 C 2088.65 -0.193595 1.94037 0
M  V30 23122 O 2087.92 -1.12135 1.60632 0
M  V30 23123 H 2086.5 0.456555 0.591241 0
M  V30 23124 H 2089.16 1.66842 1.00746 0
M  V30 23125 H 2088.25 1.83255 2.52634 0
M  V30 23126 N 2088.56 -1.06056 1.16576 0
M  V30 23127 C 2089.5 -2.15694 0.87056 0
M  V30 23128 C 2090.5 -1.6863 -0.161341 0
M  V30 23129 O 2091.7 -1.79994 -0.0150963 0
M  V30 23130 H 2088.08 -0.704161 0.263934 0
M  V30 23131 H 2090.05 -2.37802 1.80258 0
M  V30 23132 C 2088.8 -3.45498 0.390729 0
M  V30 23133 H 2088.12 -3.82107 1.17619 0
M  V30 23134 H 2089.56 -4.23413 0.222977 0
M  V30 23135 C 2088.02 -3.24928 -0.890131 0
M  V30 23136 O 2088.55 -3.50702 -1.95886 0
M  V30 23137 N 2086.76 -2.7835 -0.834838 0
M  V30 23138 H 2086.3 -2.57576 0.0350662 0
M  V30 23139 H 2086.26 -2.64967 -1.69233 0
M  V30 23140 N 2090.03 -0.964615 -1.24631 0
M  V30 23141 C 2091.26 -0.641396 -1.96392 0
M  V30 23142 C 2091.67 0.792726 -1.71792 0
M  V30 23143 O 2091.01 1.54313 -0.996658 0
M  V30 23144 C 2091.08 -0.832418 -3.4973 0
M  V30 23145 C 2090.74 -2.24559 -3.98023 0
M  V30 23146 C 2091.74 -3.22308 -4.07938 0
M  V30 23147 C 2089.42 -2.57246 -4.31428 0
M  V30 23148 C 2091.42 -4.50832 -4.50588 0
M  V30 23149 C 2089.1 -3.85996 -4.73762 0
M  V30 23150 C 2090.1 -4.82602 -4.83306 0
M  V30 23151 O 2089.79 -6.09056 -5.24696 0
M  V30 23152 H 2089.52 -0.238561 -0.632507 0
M  V30 23153 H 2092.08 -1.29421 -1.59498 0
M  V30 23154 H 2090.31 -0.122445 -3.86506 0
M  V30 23155 H 2091.99 -0.508751 -4.02699 0
M  V30 23156 H 2092.76 -2.98383 -3.82351 0
M  V30 23157 H 2088.64 -1.82773 -4.2322 0
M  V30 23158 H 2092.18 -5.26237 -4.57952 0
M  V30 23159 H 2088.08 -4.09723 -4.98796 0
M  V30 23160 H 2088.85 -6.12578 -5.42854 0
M  V30 23161 N 2091.51 1.39445 -0.734362 0
M  V30 23162 C 2092.42 2.34405 -0.0955161 0
M  V30 23163 C 2093.44 1.58285 0.722625 0
M  V30 23164 O 2094.61 1.9058 0.65124 0
M  V30 23165 C 2091.68 3.3731 0.801447 0
M  V30 23166 C 2090.74 4.2929 -0.0288733 0
M  V30 23167 C 2089.97 5.27279 0.825373 0
M  V30 23168 O 2090.2 5.31743 2.06411 0
M  V30 23169 O 2089.13 6.01362 0.254373 0
M  V30 23170 H 2092.96 2.90693 -0.879273 0
M  V30 23171 H 2090.54 1.4096 -0.495025 0
M  V30 23172 H 2092.42 4.00368 1.31468 0
M  V30 23173 H 2091.1 2.83408 1.56403 0
M  V30 23174 H 2090 3.69456 -0.587608 0
M  V30 23175 H 2091.34 4.86396 -0.753661 0
M  V30 23176 N 2092.99 0.481946 1.5005 0
M  V30 23177 C 2093.94 -0.320472 2.30382 0
M  V30 23178 C 2094.93 -0.980434 1.38144 0
M  V30 23179 O 2096.14 -0.910298 1.55285 0
M  V30 23180 H 2092.51 -0.122196 0.742006 0
M  V30 23181 H 2094.48 0.377305 2.96005 0
M  V30 23182 C 2093.23 -1.38347 3.18991 0
M  V30 23183 H 2092.56 -0.885033 3.89881 0
M  V30 23184 H 2094 -1.91728 3.78175 0
M  V30 23185 C 2092.45 -2.39133 2.37313 0
M  V30 23186 O 2092.98 -3.44629 2.06383 0
M  V30 23187 N 2091.19 -2.11122 1.9969 0
M  V30 23188 H 2090.74 -1.25354 2.25043 0
M  V30 23189 H 2090.7 -2.78787 1.45345 0
M  V30 23190 N 2094.47 -1.56127 0.214985 0
M  V30 23191 C 2095.72 -1.97304 -0.41881 0
M  V30 23192 C 2096.03 -1.10547 -1.61366 0
M  V30 23193 O 2097.24 -1.41593 -2.31654 0
M  V30 23194 C 2095.69 -3.50975 -0.796509 0
M  V30 23195 C 2095.3 -4.46426 0.375156 0
M  V30 23196 C 2097.04 -4.0088 -1.39627 0
M  V30 23197 C 2094.95 -5.91395 -0.0246118 0
M  V30 23198 H 2093.88 -0.736775 -0.160246 0
M  V30 23199 H 2096.53 -1.8086 0.310157 0
M  V30 23200 H 2094.91 -3.62996 -1.58271 0
M  V30 23201 H 2096.09 -4.46149 1.15271 0
M  V30 23202 H 2094.4 -4.06827 0.887721 0
M  V30 23203 H 2097 -5.06681 -1.70816 0
M  V30 23204 H 2097.34 -3.46346 -2.30977 0
M  V30 23205 H 2097.88 -3.92055 -0.673641 0
M  V30 23206 H 2094.61 -6.49897 0.855201 0
M  V30 23207 H 2094.13 -5.94881 -0.766611 0
M  V30 23208 H 2095.81 -6.45408 -0.453573 0
M  V30 23209 N 2095.95 0.0584645 -1.57492 0
M  V30 23210 C 2096.89 1.06805 -2.04601 0
M  V30 23211 C 2097.86 1.37677 -0.929204 0
M  V30 23212 O 2099.05 1.48518 -1.19779 0
M  V30 23213 C 2096.19 2.37272 -2.50591 0
M  V30 23214 C 2095.3 2.12815 -3.75944 0
M  V30 23215 C 2094.44 3.36941 -4.10663 0
M  V30 23216 C 2093.47 3.07907 -5.29018 0
M  V30 23217 N 2092.61 4.24401 -5.5931 0
M  V30 23218 H 2097.45 0.659352 -2.90614 0
M  V30 23219 H 2094.99 0.313985 -1.4371 0
M  V30 23220 H 2096.95 3.13463 -2.75312 0
M  V30 23221 H 2095.58 2.75919 -1.67536 0
M  V30 23222 H 2094.63 1.27255 -3.58483 0
M  V30 23223 H 2095.94 1.87378 -4.62267 0
M  V30 23224 H 2095.09 4.21519 -4.36356 0
M  V30 23225 H 2093.83 3.65466 -3.22933 0
M  V30 23226 H 2092.84 2.21727 -5.03108 0
M  V30 23227 H 2094.06 2.80691 -6.18377 0
M  V30 23228 H 2092.01 4.52933 -4.7454 0
M  V30 23229 H 2091.93 4.02284 -6.40081 0
M  V30 23230 H 2093.19 5.09938 -5.89562 0
M  V30 23231 N 2097.42 1.54103 0.330149 0
M  V30 23232 C 2098.67 1.71653 1.06675 0
M  V30 23233 C 2098.99 0.489514 1.88756 0
M  V30 23234 O 2098.26 -0.496523 1.89503 0
M  V30 23235 H 2096.84 0.63288 0.396827 0
M  V30 23236 H 2099.5 1.91391 0.36818 0
M  V30 23237 H 2098.6 2.59328 1.73653 0
M  V30 23238 N 2098.9 -0.59187 1.46064 0
M  V30 23239 C 2099.87 -1.68357 1.55526 0
M  V30 23240 C 2100.87 -1.54854 0.433247 0
M  V30 23241 O 2102.06 -1.59637 0.697258 0
M  V30 23242 C 2099.19 -3.07729 1.46683 0
M  V30 23243 H 2100.38 -1.61328 2.5281 0
M  V30 23244 H 2097.93 -0.808941 1.33738 0
M  V30 23245 H 2098.67 -3.20321 0.506433 0
M  V30 23246 H 2098.45 -3.18939 2.2808 0
M  V30 23247 H 2099.94 -3.87218 1.5637 0
M  V30 23248 N 2100.38 -1.33616 -0.835729 0
M  V30 23249 C 2101.29 -1.26175 -1.9778 0
M  V30 23250 C 2102.31 -0.171736 -1.7315 0
M  V30 23251 O 2103.48 -0.395895 -1.97471 0
M  V30 23252 C 2100.55 -1.00421 -3.31838 0
M  V30 23253 C 2099.61 -2.18454 -3.69563 0
M  V30 23254 C 2098.84 -1.93919 -4.97223 0
M  V30 23255 O 2099.06 -0.891065 -5.63397 0
M  V30 23256 O 2098 -2.80536 -5.32525 0
M  V30 23257 H 2101.82 -2.22227 -2.07 0
M  V30 23258 H 2099.41 -1.13694 -0.969228 0
M  V30 23259 H 2101.29 -0.877873 -4.12155 0
M  V30 23260 H 2099.97 -0.0739914 -3.23615 0
M  V30 23261 H 2098.87 -2.36642 -2.89743 0
M  V30 23262 H 2100.21 -3.09821 -3.82455 0
M  V30 23263 N 2101.86 1.05436 -1.17136 0
M  V30 23264 C 2102.77 2.16633 -0.900413 0
M  V30 23265 C 2103.78 1.7351 0.130523 0
M  V30 23266 O 2104.96 2.01342 -0.0481629 0
M  V30 23267 C 2102.03 3.4421 -0.414754 0
M  V30 23268 C 2101.09 4.01793 -1.51198 0
M  V30 23269 C 2100.32 5.23281 -1.0494 0
M  V30 23270 O 2100.54 5.70317 0.0974405 0
M  V30 23271 O 2099.48 5.73041 -1.8414 0
M  V30 23272 H 2103.3 2.42336 -1.83049 0
M  V30 23273 H 2100.89 1.15137 -0.952042 0
M  V30 23274 H 2102.77 4.21128 -0.151319 0
M  V30 23275 H 2101.44 3.20013 0.487199 0
M  V30 23276 H 2100.35 3.26326 -1.82926 0
M  V30 23277 H 2101.68 4.30304 -2.38955 0
M  V30 23278 N 2103.34 0.971211 1.24118 0
M  V30 23279 C 2104.25 0.511904 2.28947 0
M  V30 23280 C 2105.26 -0.428843 1.68633 0
M  V30 23281 O 2106.44 -0.301023 1.99138 0
M  V30 23282 C 2103.5 -0.187222 3.46194 0
M  V30 23283 C 2102.56 0.793786 4.21898 0
M  V30 23284 C 2101.8 0.12793 5.33547 0
M  V30 23285 O 2102.02 -1.08301 5.60024 0
M  V30 23286 O 2100.95 0.821863 5.96263 0
M  V30 23287 H 2104.78 1.38346 2.70359 0
M  V30 23288 H 2102.37 0.738411 1.29876 0
M  V30 23289 H 2104.25 -0.579802 4.17392 0
M  V30 23290 H 2102.92 -1.03369 3.06752 0
M  V30 23291 H 2101.83 1.23689 3.53061 0
M  V30 23292 H 2103.16 1.60877 4.65166 0
M  V30 23293 N 2104.81 -1.39054 0.741747 0
M  V30 23294 C 2106.06 -1.99612 0.289503 0
M  V30 23295 C 2106.38 -1.59538 -1.13168 0
M  V30 23296 O 2107.58 -2.12981 -1.68379 0
M  V30 23297 C 2106.04 -3.56862 0.466657 0
M  V30 23298 C 2105.65 -4.05894 1.89616 0
M  V30 23299 C 2107.39 -4.24431 0.0765289 0
M  V30 23300 C 2105.3 -5.55742 2.0225 0
M  V30 23301 H 2104.23 -0.746725 0.10449 0
M  V30 23302 H 2106.88 -1.58968 0.916594 0
M  V30 23303 H 2105.26 -3.95335 -0.229437 0
M  V30 23304 H 2106.43 -3.78739 2.62475 0
M  V30 23305 H 2104.75 -3.5101 2.24011 0
M  V30 23306 H 2107.35 -5.3449 0.149851 0
M  V30 23307 H 2107.69 -4.04861 -0.969208 0
M  V30 23308 H 2108.22 -3.91156 0.724031 0
M  V30 23309 H 2104.96 -5.80201 3.05036 0
M  V30 23310 H 2104.48 -5.84678 1.33836 0
M  V30 23311 H 2106.16 -6.21258 1.80685 0
M  V30 23312 N 2106.29 -0.489897 -1.49792 0
M  V30 23313 C 2107.54 0.0586308 -2.02715 0
M  V30 23314 C 2107.87 1.37665 -1.36974 0
M  V30 23315 O 2107.15 1.87919 -0.501679 0
M  V30 23316 C 2107.43 0.222812 -3.5941 0
M  V30 23317 C 2107.28 -1.11755 -4.35696 0
M  V30 23318 C 2108.6 0.96865 -4.29308 0
M  V30 23319 H 2105.72 0.0198337 -0.736733 0
M  V30 23320 H 2108.36 -0.639149 -1.78927 0
M  V30 23321 H 2106.51 0.81714 -3.79809 0
M  V30 23322 H 2108.18 -1.74991 -4.26821 0
M  V30 23323 H 2106.43 -1.70959 -3.98692 0
M  V30 23324 H 2107.1 -0.956105 -5.43657 0
M  V30 23325 H 2109.57 0.464706 -4.13497 0
M  V30 23326 H 2108.45 1.05235 -5.38718 0
M  V30 23327 H 2108.71 2.00975 -3.93778 0
M  V30 23328 N 2107.77 1.56011 -0.223262 0
M  V30 23329 C 2108.72 2.20365 0.686157 0
M  V30 23330 C 2109.69 1.15978 1.18905 0
M  V30 23331 O 2110.87 1.44339 1.24783 0
M  V30 23332 C 2108.01 2.88879 1.88793 0
M  V30 23333 C 2107.13 4.07863 1.42378 0
M  V30 23334 C 2106.26 4.64156 2.58326 0
M  V30 23335 C 2105.3 5.75438 2.08656 0
M  V30 23336 N 2104.44 6.26015 3.17883 0
M  V30 23337 H 2109.28 2.97713 0.130656 0
M  V30 23338 H 2106.81 1.47005 0.0527363 0
M  V30 23339 H 2108.77 3.26788 2.59356 0
M  V30 23340 H 2107.4 2.14045 2.41629 0
M  V30 23341 H 2106.45 3.75428 0.613024 0
M  V30 23342 H 2107.77 4.88268 1.01958 0
M  V30 23343 H 2106.92 5.04517 3.36968 0
M  V30 23344 H 2105.66 3.82918 3.02035 0
M  V30 23345 H 2104.66 5.34578 1.28476 0
M  V30 23346 H 2105.89 6.58513 1.65944 0
M  V30 23347 H 2103.83 5.4769 3.61071 0
M  V30 23348 H 2103.75 7.01548 2.8172 0
M  V30 23349 H 2105.02 6.71033 3.96655 0
M  V30 23350 N 2109.25 -0.0501116 1.5752 0
M  V30 23351 C 2110.21 -1.0417 2.0416 0
M  V30 23352 C 2111.21 -1.30309 0.942133 0
M  V30 23353 O 2112.4 -1.25665 1.20639 0
M  V30 23354 C 2109.53 -2.37997 2.4407 0
M  V30 23355 H 2110.73 -0.639249 2.93008 0
M  V30 23356 H 2108.28 -0.296417 1.53464 0
M  V30 23357 H 2109.01 -2.83032 1.58314 0
M  V30 23358 H 2108.8 -2.2036 3.2432 0
M  V30 23359 H 2110.29 -3.09229 2.80654 0
M  V30 23360 N 2110.73 -1.54276 -0.321972 0
M  V30 23361 C 2111.67 -1.83772 -1.3963 0
M  V30 23362 C 2112.64 -0.684941 -1.5132 0
M  V30 23363 O 2113.83 -0.931526 -1.66515 0
M  V30 23364 C 2110.97 -2.07212 -2.75966 0
M  V30 23365 C 2110.08 -3.34892 -2.72895 0
M  V30 23366 C 2109.22 -3.48284 -4.01088 0
M  V30 23367 C 2108.26 -4.69833 -3.9233 0
M  V30 23368 N 2107.39 -4.80144 -5.12256 0
M  V30 23369 H 2112.23 -2.75425 -1.13777 0
M  V30 23370 H 2109.77 -1.36401 -0.550737 0
M  V30 23371 H 2111.73 -2.18794 -3.55225 0
M  V30 23372 H 2110.36 -1.18848 -3.00125 0
M  V30 23373 H 2109.41 -3.32039 -1.85618 0
M  V30 23374 H 2110.72 -4.2426 -2.62307 0
M  V30 23375 H 2109.88 -3.59417 -4.88778 0
M  V30 23376 H 2108.61 -2.57011 -4.14483 0
M  V30 23377 H 2107.62 -4.58755 -3.03024 0
M  V30 23378 H 2108.84 -5.62492 -3.80498 0
M  V30 23379 H 2106.79 -3.91787 -5.26155 0
M  V30 23380 H 2106.71 -5.6348 -5.0401 0
M  V30 23381 H 2107.98 -4.9561 -6.01657 0
M  V30 23382 N 2112.2 0.584116 -1.46376 0
M  V30 23383 C 2113.15 1.69328 -1.56833 0
M  V30 23384 C 2114.12 1.60891 -0.412719 0
M  V30 23385 O 2115.31 1.80124 -0.629286 0
M  V30 23386 C 2112.45 3.07663 -1.56324 0
M  V30 23387 C 2111.56 3.26736 -2.82609 0
M  V30 23388 C 2110.69 4.55312 -2.73613 0
M  V30 23389 C 2109.73 4.67723 -3.94844 0
M  V30 23390 N 2108.87 5.87624 -3.84243 0
M  V30 23391 H 2113.71 1.59727 -2.51577 0
M  V30 23392 H 2111.25 0.778493 -1.24811 0
M  V30 23393 H 2113.21 3.87731 -1.54014 0
M  V30 23394 H 2111.84 3.16165 -0.651131 0
M  V30 23395 H 2110.89 2.40283 -2.94904 0
M  V30 23396 H 2112.2 3.31775 -3.72461 0
M  V30 23397 H 2111.35 5.43606 -2.69401 0
M  V30 23398 H 2110.09 4.52709 -1.81399 0
M  V30 23399 H 2109.1 3.77847 -3.99389 0
M  V30 23400 H 2110.32 4.72106 -4.88152 0
M  V30 23401 H 2108.27 5.86021 -2.94814 0
M  V30 23402 H 2108.19 5.93925 -4.67749 0
M  V30 23403 H 2109.45 6.78352 -3.84003 0
M  V30 23404 N 2113.68 1.34058 0.828631 0
M  V30 23405 C 2114.93 1.25437 1.57951 0
M  V30 23406 C 2115.25 -0.175484 1.94811 0
M  V30 23407 O 2116.45 -0.383797 2.68774 0
M  V30 23408 C 2114.91 2.19853 2.84943 0
M  V30 23409 C 2114.52 3.68064 2.55407 0
M  V30 23410 C 2116.26 2.20128 3.62966 0
M  V30 23411 C 2114.17 4.54366 3.78557 0
M  V30 23412 H 2113.1 0.465952 0.592794 0
M  V30 23413 H 2115.75 1.59187 0.912783 0
M  V30 23414 H 2114.13 1.79047 3.53211 0
M  V30 23415 H 2115.3 4.17373 1.95286 0
M  V30 23416 H 2113.62 3.70181 1.9067 0
M  V30 23417 H 2116.22 2.81831 4.54396 0
M  V30 23418 H 2116.56 1.19905 3.98658 0
M  V30 23419 H 2117.09 2.59349 3.01634 0
M  V30 23420 H 2113.83 5.55503 3.47989 0
M  V30 23421 H 2113.35 4.09795 4.37982 0
M  V30 23422 H 2115.03 4.68687 4.46029 0
M  V30 23423 N 2115.16 -1.04814 1.17694 0
M  V30 23424 C 2116.09 -2.1459 0.920505 0
M  V30 23425 C 2117.07 -1.69531 -0.138953 0
M  V30 23426 O 2118.26 -1.94196 0.0120784 0
M  V30 23427 C 2115.39 -3.44537 0.437198 0
M  V30 23428 C 2114.34 -4.03181 1.43628 0
M  V30 23429 C 2113.67 -5.28517 0.810779 0
M  V30 23430 C 2114.97 -4.40226 2.81066 0
M  V30 23431 H 2116.66 -2.363 1.83856 0
M  V30 23432 H 2114.21 -1.13563 0.885411 0
M  V30 23433 H 2116.16 -4.20686 0.245199 0
M  V30 23434 H 2114.88 -3.22492 -0.516401 0
M  V30 23435 H 2113.54 -3.29106 1.61508 0
M  V30 23436 H 2113.19 -5.02777 -0.149773 0
M  V30 23437 H 2112.89 -5.68714 1.47776 0
M  V30 23438 H 2114.42 -6.0735 0.62914 0
M  V30 23439 H 2115.83 -5.07393 2.66881 0
M  V30 23440 H 2114.23 -4.91451 3.44377 0
M  V30 23441 H 2115.3 -3.50396 3.35188 0
M  V30 23442 N 2116.64 -0.977779 -1.23601 0
M  V30 23443 C 2117.57 -0.535228 -2.27283 0
M  V30 23444 C 2118.55 0.430261 -1.64568 0
M  V30 23445 O 2119.74 0.324195 -1.91475 0
M  V30 23446 C 2116.87 0.165683 -3.46905 0
M  V30 23447 C 2115.82 -0.716827 -4.21954 0
M  V30 23448 C 2115.15 0.116149 -5.34574 0
M  V30 23449 C 2116.45 -2.00636 -4.82227 0
M  V30 23450 H 2118.14 -1.40185 -2.64553 0
M  V30 23451 H 2115.69 -0.67551 -1.27173 0
M  V30 23452 H 2117.64 0.486573 -4.18581 0
M  V30 23453 H 2116.36 1.06674 -3.08688 0
M  V30 23454 H 2115.02 -1.02114 -3.52091 0
M  V30 23455 H 2114.67 1.01766 -4.92598 0
M  V30 23456 H 2114.37 -0.471195 -5.85708 0
M  V30 23457 H 2115.89 0.431481 -6.09074 0
M  V30 23458 H 2117.31 -1.75041 -5.45925 0
M  V30 23459 H 2115.7 -2.54126 -5.43636 0
M  V30 23460 H 2116.77 -2.69488 -4.03118 0
M  V30 23461 N 2118.12 1.38658 -0.749111 0
M  V30 23462 C 2119.05 2.28102 -0.0669266 0
M  V30 23463 C 2120.03 1.4514 0.73301 0
M  V30 23464 O 2121.21 1.74512 0.712587 0
M  V30 23465 C 2118.34 3.26187 0.912124 0
M  V30 23466 C 2117.39 4.26036 0.198966 0
M  V30 23467 S 2118.22 5.24141 -1.09709 0
M  V30 23468 C 2119.37 6.25783 -0.120993 0
M  V30 23469 H 2119.61 2.85612 -0.825411 0
M  V30 23470 H 2117.14 1.44593 -0.541501 0
M  V30 23471 H 2119.1 3.83213 1.47167 0
M  V30 23472 H 2117.76 2.67668 1.64355 0
M  V30 23473 H 2116.95 4.95151 0.940303 0
M  V30 23474 H 2116.55 3.72882 -0.288934 0
M  V30 23475 H 2118.85 6.73721 0.714567 0
M  V30 23476 H 2119.79 7.03794 -0.779679 0
M  V30 23477 H 2120.2 5.63911 0.257705 0
M  V30 23478 N 2119.6 0.497834 1.49531 0
M  V30 23479 C 2120.84 -0.0462138 2.04348 0
M  V30 23480 C 2121.2 -1.34566 1.36952 0
M  V30 23481 O 2122.4 -1.97376 1.82473 0
M  V30 23482 C 2120.67 -0.198653 3.56847 0
M  V30 23483 S 2122.23 -0.697405 4.33222 0
M  V30 23484 H 2119.05 -0.00327871 0.710992 0
M  V30 23485 H 2121.65 0.671079 1.83621 0
M  V30 23486 H 2120.35 0.75245 4.03443 0
M  V30 23487 H 2119.89 -0.941279 3.81973 0
M  V30 23488 H 2121.9 -1.96702 4.55546 0
M  V30 23489 N 2121.07 -1.5589 0.231532 0
M  V30 23490 C 2121.98 -2.24359 -0.685566 0
M  V30 23491 C 2123 -1.25454 -1.20571 0
M  V30 23492 O 2124.18 -1.58292 -1.24522 0
M  V30 23493 C 2121.24 -2.91783 -1.87252 0
M  V30 23494 C 2120.3 -4.06059 -1.39337 0
M  V30 23495 C 2119.53 -4.70258 -2.52375 0
M  V30 23496 O 2119.76 -4.33477 -3.70747 0
M  V30 23497 O 2118.69 -5.59063 -2.23008 0
M  V30 23498 H 2122.52 -3.03412 -0.132235 0
M  V30 23499 H 2120.1 -1.494 0.000664697 0
M  V30 23500 H 2121.98 -3.34305 -2.56551 0
M  V30 23501 H 2120.66 -2.15683 -2.41377 0
M  V30 23502 H 2119.57 -3.68086 -0.668112 0
M  V30 23503 H 2120.9 -4.83932 -0.898393 0
M  V30 23504 N 2122.55 0.0417572 -1.57545 0
M  V30 23505 C 2123.48 1.07361 -2.025 0
M  V30 23506 C 2124.5 1.33224 -0.935692 0
M  V30 23507 O 2125.69 1.30935 -1.21319 0
M  V30 23508 C 2122.79 2.41809 -2.37448 0
M  V30 23509 C 2121.96 2.35482 -3.68601 0
M  V30 23510 C 2121.02 3.52277 -3.90881 0
M  V30 23511 O 2120.04 3.32344 -4.621 0
M  V30 23512 N 2121.25 4.73702 -3.35539 0
M  V30 23513 H 2124.01 0.690538 -2.91636 0
M  V30 23514 H 2121.57 0.229926 -1.60259 0
M  V30 23515 H 2123.56 3.18641 -2.495 0
M  V30 23516 H 2122.13 2.72008 -1.54047 0
M  V30 23517 H 2121.35 1.43834 -3.67022 0
M  V30 23518 H 2122.64 2.28384 -4.54663 0
M  V30 23519 H 2122.04 4.92798 -2.77788 0
M  V30 23520 H 2120.6 5.47941 -3.52992 0
M  V30 23521 N 2124.03 1.54445 0.313786 0
M  V30 23522 C 2124.98 1.8451 1.38654 0
M  V30 23523 C 2125.95 0.692957 1.50955 0
M  V30 23524 O 2127.13 0.940344 1.66019 0
M  V30 23525 C 2124.27 2.08672 2.74863 0
M  V30 23526 C 2123.38 3.36334 2.71115 0
M  V30 23527 C 2122.52 3.50406 3.99235 0
M  V30 23528 C 2121.56 4.71907 3.89833 0
M  V30 23529 N 2120.7 4.82853 5.09703 0
M  V30 23530 H 2125.54 2.76024 1.12315 0
M  V30 23531 H 2123.07 1.36691 0.543496 0
M  V30 23532 H 2125.03 2.20675 3.5406 0
M  V30 23533 H 2123.66 1.20438 2.9949 0
M  V30 23534 H 2122.71 3.33019 1.83855 0
M  V30 23535 H 2124.02 4.25645 2.60054 0
M  V30 23536 H 2123.18 3.62004 4.86865 0
M  V30 23537 H 2121.92 2.59206 4.13115 0
M  V30 23538 H 2120.92 4.60356 3.00587 0
M  V30 23539 H 2122.15 5.64502 3.7751 0
M  V30 23540 H 2120.09 3.94572 5.2407 0
M  V30 23541 H 2120.01 5.66145 5.01015 0
M  V30 23542 H 2121.28 4.98794 5.9902 0
M  V30 23543 N 2125.51 -0.576345 1.46683 0
M  V30 23544 C 2126.73 -1.36505 1.56145 0
M  V30 23545 C 2127.16 -1.86975 0.20539 0
M  V30 23546 O 2126.52 -1.6192 -0.815566 0
M  V30 23547 C 2126.56 -2.52417 2.57523 0
M  V30 23548 O 2125.67 -3.54056 2.11467 0
M  V30 23549 H 2125.01 -0.406262 0.525211 0
M  V30 23550 H 2127.54 -0.698466 1.92309 0
M  V30 23551 H 2127.55 -2.99248 2.77335 0
M  V30 23552 H 2126.22 -2.15036 3.55995 0
M  V30 23553 H 2124.8 -3.13661 2.01671 0
M  V30 23554 N 2126.99 -1.34495 -0.82151 0
M  V30 23555 C 2128.21 -1.30011 -1.60949 0
M  V30 23556 C 2128.63 0.125523 -1.88382 0
M  V30 23557 O 2127.99 1.07303 -1.47623 0
M  V30 23558 C 2128.04 -2.09003 -2.94957 0
M  V30 23559 O 2127.76 -3.46007 -2.68721 0
M  V30 23560 C 2129.26 -2.11933 -3.89358 0
M  V30 23561 H 2126.48 -0.447203 -0.500251 0
M  V30 23562 H 2129.02 -1.7713 -1.02202 0
M  V30 23563 H 2127.18 -1.65523 -3.50258 0
M  V30 23564 H 2127.59 -3.86856 -3.54179 0
M  V30 23565 H 2129.07 -2.71623 -4.80547 0
M  V30 23566 H 2129.54 -1.11409 -4.24835 0
M  V30 23567 H 2130.15 -2.55508 -3.39993 0
M  V30 23568 N 2128.46 1.04188 -1.18248 0
M  V30 23569 C 2129.37 2.15666 -0.923339 0
M  V30 23570 C 2130.39 1.73638 0.112112 0
M  V30 23571 O 2131.57 2.0128 -0.0695153 0
M  V30 23572 C 2128.63 3.43751 -0.451239 0
M  V30 23573 C 2127.69 4.00167 -1.55451 0
M  V30 23574 C 2126.93 5.22139 -1.10484 0
M  V30 23575 O 2127.15 5.70388 0.0369453 0
M  V30 23576 O 2126.08 5.71056 -1.90207 0
M  V30 23577 H 2129.91 2.40381 -1.85609 0
M  V30 23578 H 2127.49 1.14121 -0.9642 0
M  V30 23579 H 2129.38 4.20944 -0.195977 0
M  V30 23580 H 2128.05 3.20511 0.45323 0
M  V30 23581 H 2126.96 3.24368 -1.86377 0
M  V30 23582 H 2128.29 4.27745 -2.43506 0
M  V30 23583 N 2129.94 0.98432 1.23081 0
M  V30 23584 C 2130.87 0.48581 2.23992 0
M  V30 23585 C 2131.89 -0.414468 1.57436 0
M  V30 23586 O 2133.08 -0.217976 1.77164 0
M  V30 23587 C 2130.18 -0.316143 3.37422 0
M  V30 23588 C 2129.35 0.578204 4.33561 0
M  V30 23589 C 2128.41 -0.170568 5.25923 0
M  V30 23590 O 2127.43 0.441138 5.67488 0
M  V30 23591 N 2128.64 -1.45541 5.61959 0
M  V30 23592 H 2131.4 1.3535 2.67396 0
M  V30 23593 H 2128.96 0.858041 1.37293 0
M  V30 23594 H 2130.95 -0.825504 3.96191 0
M  V30 23595 H 2129.52 -1.08487 2.93171 0
M  V30 23596 H 2128.74 1.26835 3.73238 0
M  V30 23597 H 2130.03 1.18757 4.94747 0
M  V30 23598 H 2129.43 -1.97385 5.30147 0
M  V30 23599 H 2127.99 -1.91013 6.23183 0
M  V30 23600 N 2131.42 -1.38259 0.756453 0
M  V30 23601 C 2132.67 -2.00052 0.313891 0
M  V30 23602 C 2133 -1.60047 -1.10523 0
M  V30 23603 O 2132.25 -0.830786 -1.7719 0
M  V30 23604 C 2132.55 -3.55293 0.3875 0
M  V30 23605 C 2132.22 -4.15019 1.76268 0
M  V30 23606 C 2130.88 -4.31045 2.13902 0
M  V30 23607 C 2133.23 -4.47937 2.66462 0
M  V30 23608 C 2130.56 -4.77286 3.41197 0
M  V30 23609 C 2132.91 -4.95596 3.93151 0
M  V30 23610 C 2131.57 -5.09828 4.3085 0
M  V30 23611 H 2130.84 -0.732044 0.114861 0
M  V30 23612 H 2133.49 -1.65263 0.967494 0
M  V30 23613 H 2131.8 -3.90237 -0.349664 0
M  V30 23614 H 2133.49 -4.00991 0.0266083 0
M  V30 23615 H 2130.08 -4.02962 1.46014 0
M  V30 23616 H 2134.27 -4.35154 2.38651 0
M  V30 23617 H 2129.52 -4.8649 3.7032 0
M  V30 23618 H 2133.7 -5.20036 4.6318 0
M  V30 23619 H 2131.32 -5.45419 5.29549 0
M  V30 23620 N 2132.9 -0.505757 -1.49264 0
M  V30 23621 C 2134.18 0.100315 -1.95343 0
M  V30 23622 C 2134.56 1.53667 -1.44739 0
M  V30 23623 O 2133.9 2.18663 -0.663221 0
M  V30 23624 C 2134.11 0.00805543 -3.48999 0
M  V30 23625 C 2135.46 0.179587 -4.2422 0
M  V30 23626 O 2136.49 0.0830161 -3.56103 0
M  V30 23627 O 2135.34 0.378466 -5.45188 0
M  V30 23628 H 2132.44 0.0926837 -0.82179 0
M  V30 23629 H 2134.98 -0.568634 -1.59889 0
M  V30 23630 H 2133.76 -0.993441 -3.78479 0
M  V30 23631 H 2133.38 0.716938 -3.91083 0
M  V30 23632 N 2134.38 1.55765 -0.239796 0
M  V30 23633 C 2135.63 1.97945 0.387367 0
M  V30 23634 C 2135.94 1.131 1.59586 0
M  V30 23635 O 2137.14 1.45261 2.29372 0
M  V30 23636 C 2135.6 3.52198 0.740571 0
M  V30 23637 C 2135.21 4.45773 -0.446131 0
M  V30 23638 C 2136.95 4.0305 1.33232 0
M  V30 23639 C 2134.86 5.91359 -0.0694771 0
M  V30 23640 H 2133.79 0.739231 0.148505 0
M  V30 23641 H 2136.44 1.80343 -0.338891 0
M  V30 23642 H 2134.82 3.65468 1.52476 0
M  V30 23643 H 2136 4.44259 -1.22354 0
M  V30 23644 H 2134.31 4.05364 -0.952332 0
M  V30 23645 H 2136.91 5.09335 1.62734 0
M  V30 23646 H 2137.25 3.49977 2.25437 0
M  V30 23647 H 2137.78 3.93077 0.611183 0
M  V30 23648 H 2134.52 6.48455 -0.958485 0
M  V30 23649 H 2134.04 5.96025 0.671873 0
M  V30 23650 H 2135.72 6.46048 0.350837 0
M  V30 23651 N 2135.85 -0.0334016 1.57565 0
M  V30 23652 C 2137.13 -0.760253 1.80221 0
M  V30 23653 C 2137.51 -1.93806 0.836817 0
M  V30 23654 O 2136.86 -2.28174 -0.121959 0
M  V30 23655 C 2137.07 -1.19735 3.27818 0
M  V30 23656 C 2138.42 -1.61505 3.92685 0
M  V30 23657 O 2139.44 -1.29204 3.31941 0
M  V30 23658 O 2138.3 -2.21441 4.99626 0
M  V30 23659 H 2135.39 -0.36729 0.740964 0
M  V30 23660 H 2137.94 -0.0105137 1.69697 0
M  V30 23661 H 2136.71 -0.356354 3.89674 0
M  V30 23662 H 2136.34 -2.00724 3.43214 0
M  V30 23663 N 2137.33 -1.54609 -0.305591 0
M  V30 23664 C 2138.56 -1.774 -1.05891 0
M  V30 23665 C 2138.97 -0.531327 -1.81586 0
M  V30 23666 O 2138.31 0.508271 -1.76528 0
M  V30 23667 C 2138.38 -2.9256 -2.08923 0
M  V30 23668 C 2138.04 -4.30818 -1.52464 0
M  V30 23669 C 2139.04 -5.11015 -0.957049 0
M  V30 23670 C 2136.72 -4.77407 -1.56165 0
M  V30 23671 C 2138.72 -6.35921 -0.433983 0
M  V30 23672 C 2136.4 -6.02276 -1.03471 0
M  V30 23673 C 2137.4 -6.81368 -0.471844 0
M  V30 23674 O 2137.09 -8.03886 0.047115 0
M  V30 23675 H 2136.82 -0.595455 -0.320014 0
M  V30 23676 H 2139.37 -2.02364 -0.35183 0
M  V30 23677 H 2137.6 -2.6321 -2.83298 0
M  V30 23678 H 2139.29 -3.02969 -2.70119 0
M  V30 23679 H 2140.06 -4.76167 -0.921391 0
M  V30 23680 H 2135.94 -4.15877 -1.98915 0
M  V30 23681 H 2139.48 -6.976 0.00600517 0
M  V30 23682 H 2135.38 -6.36612 -1.0675 0
M  V30 23683 H 2136.15 -8.18473 -0.0666184 0
M  V30 23684 N 2138.81 0.568558 -1.46987 0
M  V30 23685 C 2140.09 1.3291 -1.43507 0
M  V30 23686 C 2140.47 2.10724 -0.12598 0
M  V30 23687 O 2139.82 2.10348 0.892528 0
M  V30 23688 C 2140.03 2.2432 -2.6736 0
M  V30 23689 C 2141.37 2.85701 -3.14102 0
M  V30 23690 O 2142.4 2.34627 -2.68009 0
M  V30 23691 O 2141.26 3.78504 -3.94204 0
M  V30 23692 H 2138.35 0.597891 -0.571363 0
M  V30 23693 H 2140.9 0.588401 -1.59173 0
M  V30 23694 H 2139.67 1.66345 -3.54182 0
M  V30 23695 H 2139.29 3.05705 -2.54224 0
M  V30 23696 N 2140.29 1.34929 0.814366 0
M  V30 23697 C 2141.7 1.24889 1.38779 0
M  V30 23698 C 2142.05 -0.122017 1.9582 0
M  V30 23699 O 2141.18 -1.02269 1.90709 0
M  V30 23700 C 2141.77 2.2613 2.52291 0
M  V30 23701 C 2140.33 2.19855 3.05517 0
M  V30 23702 C 2139.48 2.12265 1.78435 0
M  V30 23703 H 2142.43 1.46171 0.618046 0
M  V30 23704 H 2142.45 1.88326 3.30626 0
M  V30 23705 H 2141.96 3.25896 2.10745 0
M  V30 23706 H 2140.06 1.23474 3.51547 0
M  V30 23707 H 2140.17 3.11482 3.64027 0
M  V30 23708 H 2138.54 1.58119 1.99676 0
M  V30 23709 H 2139.32 3.13878 1.39051 0
M  V30 23710 N 2141.77 -1.0356 1.18799 0
M  V30 23711 C 2142.71 -2.13799 0.916116 0
M  V30 23712 C 2143.71 -1.68934 -0.125535 0
M  V30 23713 O 2144.91 -1.79985 0.0230864 0
M  V30 23714 H 2141.29 -0.698404 0.278811 0
M  V30 23715 H 2143.26 -2.33925 1.85262 0
M  V30 23716 C 2142.01 -3.44591 0.463926 0
M  V30 23717 H 2141.33 -3.79526 1.25698 0
M  V30 23718 H 2142.77 -4.22845 0.312739 0
M  V30 23719 C 2141.23 -3.26743 -0.821008 0
M  V30 23720 O 2141.76 -3.54778 -1.88403 0
M  V30 23721 N 2139.97 -2.80058 -0.775608 0
M  V30 23722 H 2139.51 -2.57444 0.089694 0
M  V30 23723 H 2139.47 -2.68497 -1.63575 0
M  V30 23724 N 2143.25 -0.990834 -1.22557 0
M  V30 23725 C 2144.52 -0.581554 -1.86755 0
M  V30 23726 C 2144.9 0.941178 -1.88958 0
M  V30 23727 O 2144.25 1.82226 -1.37862 0
M  V30 23728 C 2144.46 -1.19961 -3.27735 0
M  V30 23729 C 2145.81 -1.29885 -4.04246 0
M  V30 23730 O 2146.83 -1.15385 -3.36994 0
M  V30 23731 O 2145.69 -1.53066 -5.24626 0
M  V30 23732 H 2142.79 -0.197289 -0.803123 0
M  V30 23733 H 2145.33 -1.08658 -1.30351 0
M  V30 23734 H 2144.1 -2.24125 -3.20755 0
M  V30 23735 H 2143.73 -0.680045 -3.91741 0
M  V30 23736 N 2144.72 1.37856 -0.763775 0
M  V30 23737 C 2145.95 2.03864 -0.335144 0
M  V30 23738 C 2146.36 1.57732 1.04486 0
M  V30 23739 O 2145.7 0.750289 1.67679 0
M  V30 23740 C 2145.77 3.58323 -0.290657 0
M  V30 23741 C 2145.43 4.27554 -1.61391 0
M  V30 23742 C 2146.43 4.52225 -2.56494 0
M  V30 23743 C 2144.11 4.65542 -1.88615 0
M  V30 23744 C 2146.11 5.13931 -3.77033 0
M  V30 23745 C 2143.79 5.26971 -3.09426 0
M  V30 23746 C 2144.79 5.51102 -4.03455 0
M  V30 23747 O 2144.48 6.11248 -5.2214 0
M  V30 23748 H 2144.21 0.661438 -0.139556 0
M  V30 23749 H 2146.77 1.77331 -1.03648 0
M  V30 23750 H 2145 3.8387 0.467001 0
M  V30 23751 H 2146.68 4.05751 0.109828 0
M  V30 23752 H 2147.45 4.23296 -2.3674 0
M  V30 23753 H 2143.33 4.461 -1.16258 0
M  V30 23754 H 2146.87 5.32682 -4.5044 0
M  V30 23755 H 2142.77 5.55324 -3.29068 0
M  V30 23756 H 2143.54 6.29731 -5.22859 0
M  V30 23757 N 2146.2 0.513665 1.48994 0
M  V30 23758 C 2147.15 -0.271533 2.3101 0
M  V30 23759 C 2148.14 -0.950911 1.40193 0
M  V30 23760 O 2149.35 -0.877155 1.57181 0
M  V30 23761 H 2145.72 -0.106429 0.744431 0
M  V30 23762 H 2147.7 0.440007 2.95138 0
M  V30 23763 C 2146.44 -1.3155 3.21854 0
M  V30 23764 H 2145.77 -0.802134 3.91671 0
M  V30 23765 H 2147.21 -1.83663 3.82157 0
M  V30 23766 C 2145.67 -2.34045 2.42332 0
M  V30 23767 O 2146.2 -3.40173 2.13647 0
M  V30 23768 N 2144.4 -2.06838 2.04123 0
M  V30 23769 H 2143.95 -1.20552 2.27651 0
M  V30 23770 H 2143.91 -2.75641 1.51225 0
M  V30 23771 N 2147.68 -1.55636 0.248053 0
M  V30 23772 C 2148.63 -2.22824 -0.667239 0
M  V30 23773 C 2149.62 -1.2162 -1.17919 0
M  V30 23774 O 2150.83 -1.39629 -1.13595 0
M  V30 23775 H 2147.2 -0.714778 -0.23366 0
M  V30 23776 H 2149.17 -2.983 -0.0774218 0
M  V30 23777 C 2147.92 -2.9423 -1.85267 0
M  V30 23778 H 2147.25 -3.71878 -1.46789 0
M  V30 23779 H 2148.69 -3.44604 -2.47031 0
M  V30 23780 C 2147.14 -1.98169 -2.72453 0
M  V30 23781 O 2147.67 -1.5155 -3.72016 0
M  V30 23782 N 2145.88 -1.65246 -2.39044 0
M  V30 23783 H 2145.43 -2.03352 -1.58132 0
M  V30 23784 H 2145.39 -1.01239 -2.97654 0
M  V30 23785 N 2149.16 0.0250451 -1.5758 0
M  V30 23786 C 2150.09 1.05761 -2.02212 0
M  V30 23787 C 2151.07 1.34938 -0.907214 0
M  V30 23788 O 2152.25 1.47527 -1.17337 0
M  V30 23789 C 2149.38 2.39136 -2.39857 0
M  V30 23790 C 2148.43 2.25789 -3.61831 0
M  V30 23791 S 2149.26 1.60752 -5.10802 0
M  V30 23792 C 2150.41 2.95609 -5.51694 0
M  V30 23793 H 2150.65 0.677465 -2.89478 0
M  V30 23794 H 2148.18 0.235147 -1.52599 0
M  V30 23795 H 2150.14 3.15836 -2.62217 0
M  V30 23796 H 2148.8 2.74297 -1.53036 0
M  V30 23797 H 2147.99 3.24258 -3.8584 0
M  V30 23798 H 2147.59 1.57232 -3.39344 0
M  V30 23799 H 2149.89 3.91936 -5.52623 0
M  V30 23800 H 2150.83 2.76329 -6.51957 0
M  V30 23801 H 2151.24 2.98367 -4.79205 0
M  V30 23802 N 2150.64 1.54769 0.297388 0
M  V30 23803 C 2151.58 1.8597 1.36689 0
M  V30 23804 C 2152.55 0.708928 1.50211 0
M  V30 23805 O 2153.74 0.9579 1.65012 0
M  V30 23806 C 2150.88 2.11576 2.72635 0
M  V30 23807 C 2149.99 3.39191 2.67533 0
M  V30 23808 C 2149.13 3.54621 3.95496 0
M  V30 23809 C 2148.16 4.76015 3.84806 0
M  V30 23810 N 2147.3 4.88232 5.04553 0
M  V30 23811 H 2152.14 2.772 1.09381 0
M  V30 23812 H 2149.68 1.3726 0.528967 0
M  V30 23813 H 2151.64 2.24418 3.517 0
M  V30 23814 H 2150.27 1.23608 2.98196 0
M  V30 23815 H 2149.32 3.3495 1.80312 0
M  V30 23816 H 2150.63 4.28379 2.55525 0
M  V30 23817 H 2149.78 3.67147 4.82999 0
M  V30 23818 H 2148.52 2.63573 4.10342 0
M  V30 23819 H 2147.53 4.63518 2.95687 0
M  V30 23820 H 2148.75 5.68475 3.71502 0
M  V30 23821 H 2146.7 4.00108 5.19855 0
M  V30 23822 H 2146.62 5.71427 4.94982 0
M  V30 23823 H 2147.88 5.05119 5.93696 0
M  V30 23824 N 2152.11 -0.560755 1.47286 0
M  V30 23825 C 2153.36 -1.31441 1.52991 0
M  V30 23826 C 2153.68 -1.94622 0.195307 0
M  V30 23827 O 2154.88 -2.71187 0.130315 0
M  V30 23828 C 2153.34 -2.38334 2.69676 0
M  V30 23829 C 2152.95 -1.81358 4.0965 0
M  V30 23830 C 2154.69 -3.14902 2.8467 0
M  V30 23831 C 2152.6 -2.8601 5.17641 0
M  V30 23832 H 2151.53 -0.49421 0.569449 0
M  V30 23833 H 2154.18 -0.595972 1.73552 0
M  V30 23834 H 2152.56 -3.13075 2.42487 0
M  V30 23835 H 2153.73 -1.13012 4.46727 0
M  V30 23836 H 2152.05 -1.17385 3.99512 0
M  V30 23837 H 2154.65 -3.93045 3.62518 0
M  V30 23838 H 2154.99 -3.68868 1.92983 0
M  V30 23839 H 2155.52 -2.47271 3.11612 0
M  V30 23840 H 2152.26 -2.36904 6.11193 0
M  V30 23841 H 2151.78 -3.52777 4.85086 0
M  V30 23842 H 2153.46 -3.49566 5.44438 0
M  V30 23843 N 2153.59 -1.35359 -0.807199 0
M  V30 23844 C 2154.83 -1.29962 -1.57763 0
M  V30 23845 C 2155.2 0.124572 -1.91595 0
M  V30 23846 O 2156.4 0.302903 -2.67088 0
M  V30 23847 C 2154.67 -2.18018 -2.83202 0
M  V30 23848 S 2156.23 -2.3013 -3.73611 0
M  V30 23849 H 2153.04 -0.461874 -0.540549 0
M  V30 23850 H 2155.65 -1.70743 -0.952207 0
M  V30 23851 H 2154.35 -3.20473 -2.56369 0
M  V30 23852 H 2153.88 -1.78191 -3.5073 0
M  V30 23853 H 2155.9 -1.48567 -4.73437 0
M  V30 23854 N 2155.07 1.02928 -1.19346 0
M  V30 23855 C 2156.31 1.77875 -1.00697 0
M  V30 23856 C 2156.67 1.86548 0.454282 0
M  V30 23857 O 2157.87 2.57815 0.760575 0
M  V30 23858 C 2156.15 3.1666 -1.65715 0
M  V30 23859 S 2157.7 4.07802 -1.61997 0
M  V30 23860 H 2154.52 0.612328 -0.361352 0
M  V30 23861 H 2157.12 1.23334 -1.51687 0
M  V30 23862 H 2155.83 3.07964 -2.71268 0
M  V30 23863 H 2155.36 3.76277 -1.14802 0
M  V30 23864 H 2157.37 4.92005 -0.643881 0
M  V30 23865 N 2156.55 0.997319 1.2203 0
M  V30 23866 C 2157.79 0.676667 1.91178 0
M  V30 23867 C 2158.13 -0.789768 1.77416 0
M  V30 23868 O 2157.4 -1.57163 1.14586 0
M  V30 23869 C 2157.68 1.08886 3.43243 0
M  V30 23870 C 2157.54 2.61418 3.66034 0
M  V30 23871 C 2158.86 0.645428 4.35342 0
M  V30 23872 H 2155.98 0.247298 0.694271 0
M  V30 23873 H 2158.62 1.24163 1.43818 0
M  V30 23874 H 2156.77 0.608155 3.8371 0
M  V30 23875 H 2158.44 3.17192 3.34943 0
M  V30 23876 H 2156.68 3.03284 3.10163 0
M  V30 23877 H 2157.35 2.8531 4.72549 0
M  V30 23878 H 2159.83 1.05839 4.02414 0
M  V30 23879 H 2158.71 0.962088 5.40403 0
M  V30 23880 H 2158.97 -0.453741 4.39765 0
M  V30 23881 N 2158.03 -1.37449 0.771075 0
M  V30 23882 C 2159.25 -2.04506 0.345245 0
M  V30 23883 C 2159.68 -1.57774 -1.02415 0
M  V30 23884 O 2159.03 -0.737677 -1.65614 0
M  V30 23885 C 2159.08 -3.58411 0.396728 0
M  V30 23886 O 2158.19 -4.07967 -0.60306 0
M  V30 23887 H 2157.53 -0.64693 0.149593 0
M  V30 23888 H 2160.06 -1.75777 1.04708 0
M  V30 23889 H 2160.07 -4.0721 0.253784 0
M  V30 23890 H 2158.74 -3.9178 1.39576 0
M  V30 23891 H 2157.32 -3.7049 -0.423289 0
M  V30 23892 N 2159.5 -0.52156 -1.4872 0
M  V30 23893 C 2160.43 0.234741 -2.32317 0
M  V30 23894 C 2161.42 0.943119 -1.4156 0
M  V30 23895 O 2162.6 0.930536 -1.70454 0
M  V30 23896 C 2159.73 1.28724 -3.22564 0
M  V30 23897 C 2158.68 0.697518 -4.22278 0
M  V30 23898 C 2158.01 1.85205 -5.016 0
M  V30 23899 C 2159.31 -0.325174 -5.21287 0
M  V30 23900 H 2161 -0.463097 -2.95797 0
M  V30 23901 H 2158.55 -0.224154 -1.42245 0
M  V30 23902 H 2160.5 1.82422 -3.79869 0
M  V30 23903 H 2159.23 2.01455 -2.57067 0
M  V30 23904 H 2157.89 0.182131 -3.66147 0
M  V30 23905 H 2157.53 2.56754 -4.32535 0
M  V30 23906 H 2157.23 1.46343 -5.69085 0
M  V30 23907 H 2158.76 2.39297 -5.61755 0
M  V30 23908 H 2160.17 0.124406 -5.73165 0
M  V30 23909 H 2158.57 -0.630729 -5.96776 0
M  V30 23910 H 2159.64 -1.23392 -4.68938 0
M  V30 23911 N 2160.98 1.55502 -0.256304 0
M  V30 23912 C 2162.21 2.0357 0.36969 0
M  V30 23913 C 2162.63 1.13529 1.50853 0
M  V30 23914 O 2161.98 0.151576 1.81869 0
M  V30 23915 C 2162.03 3.5091 0.868581 0
M  V30 23916 O 2161.75 4.37522 -0.224886 0
M  V30 23917 C 2163.26 4.14782 1.56431 0
M  V30 23918 H 2160.48 0.665369 0.0867485 0
M  V30 23919 H 2163.02 2.00883 -0.382912 0
M  V30 23920 H 2161.17 3.54102 1.57133 0
M  V30 23921 H 2161.59 5.2427 0.155467 0
M  V30 23922 H 2163.06 5.1954 1.865 0
M  V30 23923 H 2163.54 3.6183 2.48949 0
M  V30 23924 H 2164.15 4.1554 0.905893 0
M  V30 23925 N 2162.46 -0.0166879 1.57591 0
M  V30 23926 C 2163.88 -0.372531 1.55191 0
M  V30 23927 C 2164.08 -1.75838 0.984042 0
M  V30 23928 O 2163.13 -2.45008 0.610513 0
M  V30 23929 C 2164.45 -0.263043 2.99547 0
M  V30 23930 C 2165.99 -0.339216 3.11156 0
M  V30 23931 C 2166.47 -0.259039 4.57267 0
M  V30 23932 N 2167.96 -0.317455 4.62111 0
M  V30 23933 C 2168.69 -0.278499 5.72723 0
M  V30 23934 N 2168.19 -0.191112 6.92536 0
M  V30 23935 N 2169.98 -0.32914 5.61136 0
M  V30 23936 H 2162.13 0.890086 1.9285 0
M  V30 23937 H 2164.4 0.339637 0.885071 0
M  V30 23938 H 2164.1 0.689794 3.44869 0
M  V30 23939 H 2163.98 -1.0518 3.62239 0
M  V30 23940 H 2166.36 -1.28249 2.65775 0
M  V30 23941 H 2166.45 0.479109 2.51273 0
M  V30 23942 H 2166.09 0.68062 5.03319 0
M  V30 23943 H 2166.02 -1.09563 5.15076 0
M  V30 23944 H 2168.51 -0.387004 3.75913 0
M  V30 23945 H 2168.82 -0.166827 7.7262 0
M  V30 23946 H 2167.17 -0.15698 6.94823 0
M  V30 23947 H 2170.36 -0.395489 4.66426 0
M  V30 23948 H 2170.53 -0.295314 6.47327 0
M  V30 23949 N 2163.94 -1.54924 -0.289176 0
M  V30 23950 C 2165.19 -1.73974 -1.02059 0
M  V30 23951 C 2165.5 -0.539167 -1.88022 0
M  V30 23952 O 2166.71 -0.611723 -2.64519 0
M  V30 23953 C 2165.16 -3.07847 -1.86435 0
M  V30 23954 C 2164.77 -4.35421 -1.05417 0
M  V30 23955 C 2166.51 -3.36252 -2.59104 0
M  V30 23956 C 2164.42 -5.6034 -1.89138 0
M  V30 23957 H 2163.35 -0.648438 -0.384766 0
M  V30 23958 H 2166 -1.81397 -0.276999 0
M  V30 23959 H 2164.38 -2.94419 -2.64827 0
M  V30 23960 H 2165.56 -4.59718 -0.315551 0
M  V30 23961 H 2163.87 -4.14039 -0.442763 0
M  V30 23962 H 2166.47 -4.26785 -3.22115 0
M  V30 23963 H 2166.81 -2.55656 -3.28551 0
M  V30 23964 H 2167.35 -3.50705 -1.87753 0
M  V30 23965 H 2164.09 -6.43638 -1.2414 0
M  V30 23966 H 2163.61 -5.4021 -2.6064 0
M  V30 23967 H 2165.28 -5.98038 -2.46899 0
M  V30 23968 N 2165.42 0.552936 -1.47582 0
M  V30 23969 C 2166.36 1.65963 -1.60389 0
M  V30 23970 C 2167.33 1.59979 -0.446754 0
M  V30 23971 O 2168.52 1.78749 -0.667351 0
M  V30 23972 C 2165.66 3.04278 -1.62815 0
M  V30 23973 C 2164.77 3.20668 -2.89476 0
M  V30 23974 C 2163.91 4.49406 -2.8321 0
M  V30 23975 C 2162.95 4.59243 -4.04676 0
M  V30 23976 N 2162.08 5.79341 -3.96621 0
M  V30 23977 H 2166.92 1.54355 -2.54909 0
M  V30 23978 H 2164.46 0.751844 -1.26435 0
M  V30 23979 H 2166.42 3.84377 -1.62204 0
M  V30 23980 H 2165.05 3.14712 -0.718048 0
M  V30 23981 H 2164.1 2.33973 -2.99935 0
M  V30 23982 H 2165.41 3.238 -3.79414 0
M  V30 23983 H 2164.57 5.3777 -2.80872 0
M  V30 23984 H 2163.3 4.4876 -1.90961 0
M  V30 23985 H 2162.31 3.69291 -4.07314 0
M  V30 23986 H 2163.53 4.61645 -4.98057 0
M  V30 23987 H 2161.48 5.79636 -3.07178 0
M  V30 23988 H 2161.4 5.8387 -4.80242 0
M  V30 23989 H 2162.67 6.70054 -3.98306 0
M  V30 23990 N 2166.89 1.35785 0.800009 0
M  V30 23991 C 2168.31 1.26354 1.37446 0
M  V30 23992 C 2168.66 -0.101241 1.95939 0
M  V30 23993 O 2167.78 -1.00241 1.91783 0
M  V30 23994 C 2168.38 2.28793 2.49878 0
M  V30 23995 C 2166.94 2.23083 3.03168 0
M  V30 23996 C 2166.08 2.14145 1.76174 0
M  V30 23997 H 2169.03 1.46818 0.602508 0
M  V30 23998 H 2169.05 1.91822 3.2861 0
M  V30 23999 H 2168.57 3.28113 2.07277 0
M  V30 24000 H 2166.67 1.27195 3.50217 0
M  V30 24001 H 2166.78 3.15326 3.60703 0
M  V30 24002 H 2165.14 1.60228 1.97987 0
M  V30 24003 H 2165.93 3.15335 1.35715 0
M  V30 24004 N 2168.37 -1.02294 1.19891 0
M  V30 24005 C 2169.32 -2.107 0.942023 0
M  V30 24006 C 2170.29 -1.65626 -0.125398 0
M  V30 24007 O 2171.47 -1.90792 0.0179973 0
M  V30 24008 C 2168.61 -3.41556 0.493291 0
M  V30 24009 C 2167.73 -4.00144 1.62815 0
M  V30 24010 C 2166.86 -5.19034 1.13036 0
M  V30 24011 C 2165.9 -5.69691 2.23872 0
M  V30 24012 N 2165.04 -6.79849 1.75357 0
M  V30 24013 H 2169.88 -2.3201 1.87017 0
M  V30 24014 H 2167.42 -1.13784 0.932293 0
M  V30 24015 H 2169.37 -4.16648 0.214483 0
M  V30 24016 H 2168 -3.20339 -0.397861 0
M  V30 24017 H 2167.06 -3.22208 2.02203 0
M  V30 24018 H 2168.37 -4.3375 2.46298 0
M  V30 24019 H 2167.52 -6.01307 0.807136 0
M  V30 24020 H 2166.26 -4.86978 0.265337 0
M  V30 24021 H 2165.27 -4.86027 2.57018 0
M  V30 24022 H 2166.49 -6.03784 3.1084 0
M  V30 24023 H 2164.44 -6.49634 0.911717 0
M  V30 24024 H 2164.35 -7.12613 2.52425 0
M  V30 24025 H 2165.62 -7.65702 1.46016 0
M  V30 24026 N 2169.85 -1.00378 -1.21499 0
M  V30 24027 C 2171.13 -0.601329 -1.86127 0
M  V30 24028 C 2171.51 0.921083 -1.89945 0
M  V30 24029 O 2170.86 1.80753 -1.39787 0
M  V30 24030 C 2171.07 -1.2343 -3.26445 0
M  V30 24031 C 2172.41 -1.34165 -4.02846 0
M  V30 24032 O 2173.44 -1.18952 -3.35751 0
M  V30 24033 O 2172.3 -1.58622 -5.22973 0
M  V30 24034 H 2169.39 -0.205796 -0.800985 0
M  V30 24035 H 2171.94 -1.10035 -1.29192 0
M  V30 24036 H 2170.71 -2.27515 -3.18359 0
M  V30 24037 H 2170.33 -0.721556 -3.90998 0
M  V30 24038 N 2171.33 1.37038 -0.778354 0
M  V30 24039 C 2172.24 2.33983 -0.170042 0
M  V30 24040 C 2173.25 1.60504 0.671902 0
M  V30 24041 O 2174.43 1.92556 0.590278 0
M  V30 24042 C 2171.5 3.39689 0.693729 0
M  V30 24043 C 2170.56 4.28981 -0.165434 0
M  V30 24044 C 2169.79 5.29638 0.657205 0
M  V30 24045 O 2170.01 5.38041 1.8939 0
M  V30 24046 O 2168.95 6.01867 0.0629255 0
M  V30 24047 H 2172.77 2.87749 -0.97131 0
M  V30 24048 H 2170.36 1.39314 -0.53962 0
M  V30 24049 H 2172.24 4.04348 1.18664 0
M  V30 24050 H 2170.91 2.8824 1.47307 0
M  V30 24051 H 2169.82 3.674 -0.704851 0
M  V30 24052 H 2171.15 4.83752 -0.908023 0
M  V30 24053 N 2172.81 0.529439 1.48441 0
M  V30 24054 C 2174.05 -0.00486384 2.02799 0
M  V30 24055 C 2174.39 -1.33985 1.40576 0
M  V30 24056 O 2173.66 -1.86523 0.551326 0
M  V30 24057 C 2173.94 -0.127443 3.59874 0
M  V30 24058 C 2173.8 1.23268 4.3258 0
M  V30 24059 C 2175.12 -0.854486 4.31725 0
M  V30 24060 H 2172.24 -0.00029358 0.737 0
M  V30 24061 H 2174.88 0.686364 1.7717 0
M  V30 24062 H 2173.03 -0.716153 3.81842 0
M  V30 24063 H 2174.7 1.86245 4.22031 0
M  V30 24064 H 2172.94 1.8147 3.94019 0
M  V30 24065 H 2173.61 1.09991 5.40931 0
M  V30 24066 H 2176.09 -0.354911 4.14584 0
M  V30 24067 H 2174.97 -0.909151 5.41318 0
M  V30 24068 H 2175.23 -1.90464 3.98968 0
M  V30 24069 N 2174.29 -1.55364 0.264547 0
M  V30 24070 C 2175.53 -1.99655 -0.355771 0
M  V30 24071 C 2175.86 -1.15266 -1.56293 0
M  V30 24072 O 2175.14 -0.220196 -1.9325 0
M  V30 24073 C 2175.42 -3.52238 -0.748347 0
M  V30 24074 C 2175.28 -4.47386 0.465419 0
M  V30 24075 C 2176.59 -4.10422 -1.58877 0
M  V30 24076 H 2173.71 -0.725828 -0.12784 0
M  V30 24077 H 2176.36 -1.86375 0.369383 0
M  V30 24078 H 2174.51 -3.63686 -1.36619 0
M  V30 24079 H 2176.18 -4.47896 1.10395 0
M  V30 24080 H 2174.42 -4.1948 1.10539 0
M  V30 24081 H 2175.09 -5.51804 0.147135 0
M  V30 24082 H 2177.57 -4.02185 -1.06707 0
M  V30 24083 H 2176.44 -5.17415 -1.83228 0
M  V30 24084 H 2176.7 -3.59985 -2.56639 0
M  V30 24085 N 2175.76 0.00833021 -1.57598 0
M  V30 24086 C 2177.01 0.69406 -1.89382 0
M  V30 24087 C 2177.33 1.75397 -0.865751 0
M  V30 24088 O 2178.53 2.49374 -1.07353 0
M  V30 24089 C 2176.99 1.28562 -3.36154 0
M  V30 24090 C 2176.6 0.260972 -4.47239 0
M  V30 24091 C 2178.34 1.95003 -3.7706 0
M  V30 24092 C 2176.25 0.862051 -5.85083 0
M  V30 24093 H 2175.18 0.262992 -0.706648 0
M  V30 24094 H 2177.83 -0.0508492 -1.8343 0
M  V30 24095 H 2176.21 2.08092 -3.36918 0
M  V30 24096 H 2177.38 -0.50913 -4.57979 0
M  V30 24097 H 2175.7 -0.302516 -4.153 0
M  V30 24098 H 2178.3 2.40863 -4.77377 0
M  V30 24099 H 2178.64 2.77706 -3.10137 0
M  V30 24100 H 2179.17 1.22218 -3.7856 0
M  V30 24101 H 2175.91 0.0739761 -6.55458 0
M  V30 24102 H 2175.43 1.60151 -5.78024 0
M  V30 24103 H 2177.11 1.3632 -6.32476 0
M  V30 24104 N 2177.24 1.55075 0.280956 0
M  V30 24105 C 2178.48 1.77053 1.02135 0
M  V30 24106 C 2178.85 0.555587 1.83786 0
M  V30 24107 O 2180.05 0.65347 2.60736 0
M  V30 24108 C 2178.32 3.03523 1.88703 0
M  V30 24109 S 2179.88 3.46587 2.69115 0
M  V30 24110 H 2176.69 0.62217 0.34413 0
M  V30 24111 H 2179.3 1.93298 0.292595 0
M  V30 24112 H 2178 3.9005 1.27628 0
M  V30 24113 H 2177.53 2.89921 2.65912 0
M  V30 24114 H 2179.55 3.05234 3.91212 0
M  V30 24115 N 2178.72 -0.545102 1.47873 0
M  V30 24116 C 2180.13 -1.12717 1.48835 0
M  V30 24117 C 2180.48 -1.94604 0.249718 0
M  V30 24118 O 2179.61 -2.06582 -0.644417 0
M  V30 24119 C 2180.2 -2.05084 2.69678 0
M  V30 24120 C 2178.76 -2.58538 2.7356 0
M  V30 24121 C 2177.91 -1.35171 2.42124 0
M  V30 24122 H 2180.86 -0.331094 1.55208 0
M  V30 24123 H 2180.88 -2.89145 2.47336 0
M  V30 24124 H 2180.39 -1.45457 3.59811 0
M  V30 24125 H 2178.49 -3.21929 1.87597 0
M  V30 24126 H 2178.61 -2.98704 3.74583 0
M  V30 24127 H 2176.97 -1.66249 1.9296 0
M  V30 24128 H 2177.75 -0.773194 3.3448 0
M  V30 24129 N 2180.2 -1.36208 -0.792797 0
M  V30 24130 C 2181.44 -1.30249 -1.55053 0
M  V30 24131 C 2181.77 0.119193 -1.94134 0
M  V30 24132 O 2181.03 1.08769 -1.62689 0
M  V30 24133 C 2181.33 -2.16771 -2.84157 0
M  V30 24134 C 2180.99 -3.65368 -2.64229 0
M  V30 24135 C 2179.65 -4.0587 -2.58502 0
M  V30 24136 C 2182.01 -4.59598 -2.45804 0
M  V30 24137 C 2179.33 -5.38747 -2.32312 0
M  V30 24138 C 2181.69 -5.92688 -2.21141 0
M  V30 24139 C 2180.35 -6.32318 -2.13845 0
M  V30 24140 H 2179.62 -0.476617 -0.567378 0
M  V30 24141 H 2182.27 -1.6823 -0.914933 0
M  V30 24142 H 2180.57 -1.71716 -3.52166 0
M  V30 24143 H 2182.27 -2.09488 -3.41929 0
M  V30 24144 H 2178.86 -3.33236 -2.6954 0
M  V30 24145 H 2183.04 -4.29182 -2.49231 0
M  V30 24146 H 2178.3 -5.68437 -2.25143 0
M  V30 24147 H 2182.47 -6.65272 -2.05878 0
M  V30 24148 H 2180.1 -7.3521 -1.93314 0
M  V30 24149 N 2181.68 1.01656 -1.20431 0
M  V30 24150 C 2182.92 1.76797 -1.02578 0
M  V30 24151 C 2183.28 1.8702 0.434471 0
M  V30 24152 O 2184.48 2.58607 0.733188 0
M  V30 24153 C 2182.75 3.14884 -1.69064 0
M  V30 24154 S 2184.31 4.06061 -1.66314 0
M  V30 24155 H 2181.13 0.608461 -0.367826 0
M  V30 24156 H 2183.73 1.21718 -1.52987 0
M  V30 24157 H 2182.43 3.0507 -2.74519 0
M  V30 24158 H 2181.97 3.75038 -1.18787 0
M  V30 24159 H 2183.98 4.91294 -0.696029 0
M  V30 24160 N 2183.15 1.01021 1.20965 0
M  V30 24161 C 2184.09 0.533213 2.22911 0
M  V30 24162 C 2185.1 -0.38098 1.58279 0
M  V30 24163 O 2186.29 -0.180348 1.77587 0
M  V30 24164 C 2183.39 -0.244499 3.38017 0
M  V30 24165 C 2182.56 0.670039 4.32237 0
M  V30 24166 C 2181.62 -0.0589738 5.26167 0
M  V30 24167 O 2180.65 0.561411 5.66425 0
M  V30 24168 N 2181.85 -1.33588 5.6492 0
M  V30 24169 H 2184.61 1.40992 2.64464 0
M  V30 24170 H 2182.17 0.886969 1.35442 0
M  V30 24171 H 2184.17 -0.74128 3.97853 0
M  V30 24172 H 2182.74 -1.02244 2.95406 0
M  V30 24173 H 2181.96 1.34723 3.70464 0
M  V30 24174 H 2183.24 1.29225 4.92116 0
M  V30 24175 H 2182.64 -1.86096 5.34214 0
M  V30 24176 H 2181.2 -1.77752 6.27095 0
M  V30 24177 N 2184.63 -1.36623 0.78561 0
M  V30 24178 C 2185.86 -2.04129 0.366917 0
M  V30 24179 C 2186.28 -1.58852 -1.00736 0
M  V30 24180 O 2185.64 -0.755202 -1.64822 0
M  V30 24181 C 2185.69 -3.5797 0.43472 0
M  V30 24182 O 2184.79 -4.08584 -0.559755 0
M  V30 24183 H 2184.13 -0.645306 0.156447 0
M  V30 24184 H 2186.66 -1.74656 1.06566 0
M  V30 24185 H 2186.67 -4.06918 0.296959 0
M  V30 24186 H 2185.35 -3.90277 1.43724 0
M  V30 24187 H 2183.92 -3.70918 -0.38397 0
M  V30 24188 N 2186.11 -0.537304 -1.48158 0
M  V30 24189 C 2187.36 -0.00589118 -2.02799 0
M  V30 24190 C 2187.69 1.33238 -1.41285 0
M  V30 24191 O 2186.96 1.86228 -0.56121 0
M  V30 24192 C 2187.25 0.108356 -3.59937 0
M  V30 24193 C 2187.1 -1.2556 -4.3192 0
M  V30 24194 C 2188.42 0.831579 -4.32172 0
M  V30 24195 H 2185.54 -0.00361491 -0.736991 0
M  V30 24196 H 2188.18 -0.69575 -1.76803 0
M  V30 24197 H 2186.33 0.695893 -3.82217 0
M  V30 24198 H 2188 -1.88481 -4.21038 0
M  V30 24199 H 2186.24 -1.83557 -3.93051 0
M  V30 24200 H 2186.92 -1.12858 -5.4034 0
M  V30 24201 H 2189.39 0.332919 -4.14766 0
M  V30 24202 H 2188.27 0.880431 -5.41793 0
M  V30 24203 H 2188.53 1.88346 -3.99973 0
M  V30 24204 N 2187.59 1.55221 -0.272782 0
M  V30 24205 C 2188.55 2.21137 0.602593 0
M  V30 24206 C 2189.55 1.1885 1.08311 0
M  V30 24207 O 2190.74 1.4377 0.983663 0
M  V30 24208 C 2187.87 2.87548 1.8311 0
M  V30 24209 H 2189.07 2.99888 0.0271068 0
M  V30 24210 H 2186.62 1.56283 -0.0233836 0
M  V30 24211 H 2187.35 2.12802 2.44716 0
M  V30 24212 H 2187.14 3.62502 1.49449 0
M  V30 24213 H 2188.63 3.37914 2.45365 0
M  V30 24214 N 2189.07 2.77022e-05 1.576 0
M  V30 24215 C 2190.01 -0.991376 2.08424 0
M  V30 24216 C 2190.98 -1.34134 0.979661 0
M  V30 24217 O 2192.17 -1.4397 1.25209 0
M  V30 24218 C 2189.31 -2.27808 2.59224 0
M  V30 24219 C 2188.42 -1.98715 3.83584 0
M  V30 24220 C 2187.56 -3.21468 4.22885 0
M  V30 24221 C 2186.6 -2.88061 5.40081 0
M  V30 24222 N 2185.73 -4.0335 5.74676 0
M  V30 24223 H 2190.57 -0.551038 2.92861 0
M  V30 24224 H 2188.11 -0.260432 1.44776 0
M  V30 24225 H 2190.07 -3.03029 2.86756 0
M  V30 24226 H 2188.7 -2.69511 1.77661 0
M  V30 24227 H 2187.75 -1.13862 3.62959 0
M  V30 24228 H 2189.06 -1.70092 4.68903 0
M  V30 24229 H 2188.22 -4.05034 4.517 0
M  V30 24230 H 2186.95 -3.53229 3.36275 0
M  V30 24231 H 2185.96 -2.02902 5.1099 0
M  V30 24232 H 2187.18 -2.57547 6.28368 0
M  V30 24233 H 2185.13 -4.35008 4.91023 0
M  V30 24234 H 2185.05 -3.78251 6.5457 0
M  V30 24235 H 2186.32 -4.87705 6.08082 0
M  V30 24236 N 2190.54 -1.55222 -0.272728 0
M  V30 24237 C 2191.49 -1.88121 -1.33713 0
M  V30 24238 C 2192.46 -0.732736 -1.49064 0
M  V30 24239 O 2193.65 -0.98403 -1.63467 0
M  V30 24240 C 2190.79 -2.15886 -2.69234 0
M  V30 24241 C 2189.9 -3.43404 -2.62102 0
M  V30 24242 C 2189.03 -3.60868 -3.89804 0
M  V30 24243 C 2188.07 -4.82077 -3.77184 0
M  V30 24244 N 2187.21 -4.96198 -4.96722 0
M  V30 24245 H 2192.05 -2.78905 -1.04957 0
M  V30 24246 H 2189.59 -1.38084 -0.507063 0
M  V30 24247 H 2191.55 -2.29984 -3.48085 0
M  V30 24248 H 2190.18 -1.28337 -2.96192 0
M  V30 24249 H 2189.23 -3.37776 -1.74961 0
M  V30 24250 H 2190.54 -4.3239 -2.48677 0
M  V30 24251 H 2189.69 -3.74785 -4.77096 0
M  V30 24252 H 2188.43 -2.70068 -4.06097 0
M  V30 24253 H 2187.44 -4.68164 -2.88276 0
M  V30 24254 H 2188.66 -5.74313 -3.62411 0
M  V30 24255 H 2186.61 -4.08328 -5.13424 0
M  V30 24256 H 2186.53 -5.7923 -4.85828 0
M  V30 24257 H 2187.79 -5.145 -5.85585 0
M  V30 24258 N 2192.02 0.537252 -1.4816 0
M  V30 24259 C 2192.93 1.66957 -1.6481 0
M  V30 24260 C 2193.95 1.6571 -0.53068 0
M  V30 24261 O 2195.12 1.84794 -0.800816 0
M  V30 24262 C 2192.19 3.03435 -1.67714 0
M  V30 24263 C 2191.25 3.15595 -2.9103 0
M  V30 24264 C 2190.48 4.45562 -2.93786 0
M  V30 24265 O 2190.71 5.32226 -2.05162 0
M  V30 24266 O 2189.64 4.61934 -3.85876 0
M  V30 24267 H 2193.47 1.55849 -2.60662 0
M  V30 24268 H 2191.05 0.709526 -1.31477 0
M  V30 24269 H 2192.93 3.84616 -1.72187 0
M  V30 24270 H 2191.61 3.14884 -0.750333 0
M  V30 24271 H 2190.52 2.33736 -2.92093 0
M  V30 24272 H 2191.85 3.09059 -3.83071 0
M  V30 24273 N 2193.5 1.36626 0.785562 0
M  V30 24274 C 2194.75 1.3107 1.5436 0
M  V30 24275 C 2195.08 -0.108896 1.94195 0
M  V30 24276 O 2194.33 -1.07905 1.63264 0
M  V30 24277 C 2194.63 2.18275 2.83003 0
M  V30 24278 C 2194.3 3.66765 2.62287 0
M  V30 24279 C 2192.96 4.07235 2.56346 0
M  V30 24280 C 2195.31 4.60895 2.43363 0
M  V30 24281 C 2192.64 5.39971 2.29451 0
M  V30 24282 C 2194.99 5.93853 2.17994 0
M  V30 24283 C 2193.65 6.33444 2.10489 0
M  V30 24284 H 2192.92 0.479619 0.564842 0
M  V30 24285 H 2195.57 1.68713 0.905999 0
M  V30 24286 H 2193.88 1.73582 3.5125 0
M  V30 24287 H 2195.57 2.11298 3.40814 0
M  V30 24288 H 2192.16 3.34661 2.67769 0
M  V30 24289 H 2196.35 4.30498 2.46952 0
M  V30 24290 H 2191.6 5.69623 2.22125 0
M  V30 24291 H 2195.78 6.66355 2.02347 0
M  V30 24292 H 2193.4 7.36225 1.89412 0
M  V30 24293 N 2194.98 -1.01016 1.20969 0
M  V30 24294 C 2196.21 -1.78301 1.04959 0
M  V30 24295 C 2196.62 -1.84495 -0.400883 0
M  V30 24296 O 2195.98 -1.30259 -1.27823 0
M  V30 24297 C 2196.03 -3.22459 1.63409 0
M  V30 24298 O 2195.75 -3.16632 3.0278 0
M  V30 24299 C 2197.25 -4.16266 1.52439 0
M  V30 24300 H 2194.47 -0.560515 0.368868 0
M  V30 24301 H 2197.02 -1.27113 1.60195 0
M  V30 24302 H 2195.17 -3.70773 1.12276 0
M  V30 24303 H 2195.58 -4.07164 3.30633 0
M  V30 24304 H 2197.06 -5.15233 1.98087 0
M  V30 24305 H 2197.54 -4.36592 0.477952 0
M  V30 24306 H 2198.14 -3.73838 2.02794 0
M  V30 24307 N 2196.46 -1.01661 -1.20428 0
M  V30 24308 C 2197.68 -0.724976 -1.94316 0
M  V30 24309 C 2198.11 0.708003 -1.74267 0
M  V30 24310 O 2197.46 1.48717 -1.03696 0
M  V30 24311 C 2197.51 -1.06597 -3.44484 0
M  V30 24312 O 2196.62 -0.177671 -4.12017 0
M  V30 24313 H 2195.96 -0.268991 -0.607075 0
M  V30 24314 H 2198.49 -1.35998 -1.52858 0
M  V30 24315 H 2198.5 -1.01769 -3.95104 0
M  V30 24316 H 2197.17 -2.11003 -3.584 0
M  V30 24317 H 2195.75 -0.283486 -3.71821 0
M  V30 24318 N 2197.93 1.36205 -0.792844 0
M  V30 24319 C 2199.16 2.03402 -0.37886 0
M  V30 24320 C 2199.58 1.59776 1.00583 0
M  V30 24321 O 2198.93 0.788793 1.64573 0
M  V30 24322 C 2198.99 3.5885 -0.436893 0
M  V30 24323 O 2198.71 4.00886 -1.76698 0
M  V30 24324 C 2200.21 4.43298 -0.0139722 0
M  V30 24325 H 2197.43 0.652689 -0.155684 0
M  V30 24326 H 2199.97 1.74111 -1.07264 0
M  V30 24327 H 2198.13 3.86838 0.208507 0
M  V30 24328 H 2198.54 4.95489 -1.72019 0
M  V30 24329 H 2200.01 5.51899 -0.105712 0
M  V30 24330 H 2200.49 4.26732 1.03908 0
M  V30 24331 H 2201.1 4.20578 -0.631994 0
M  V30 24332 N 2199.41 0.545154 1.47871 0
M  V30 24333 C 2200.66 0.0145388 2.01695 0
M  V30 24334 C 2200.97 -1.3387 1.42612 0
M  V30 24335 O 2202.18 -1.95854 1.88025 0
M  V30 24336 C 2200.64 -0.0244435 3.59892 0
M  V30 24337 C 2200.24 1.32482 4.27963 0
M  V30 24338 C 2201.99 -0.503086 4.21508 0
M  V30 24339 C 2199.9 1.2456 5.78134 0
M  V30 24340 H 2198.83 0.00166498 0.753998 0
M  V30 24341 H 2201.48 0.691205 1.69984 0
M  V30 24342 H 2199.86 -0.766507 3.88511 0
M  V30 24343 H 2201.03 2.08365 4.11 0
M  V30 24344 H 2199.35 1.74042 3.78283 0
M  V30 24345 H 2201.94 -0.580563 5.31539 0
M  V30 24346 H 2202.29 -1.51236 3.87858 0
M  V30 24347 H 2202.82 0.183751 3.97375 0
M  V30 24348 H 2199.56 2.2305 6.16384 0
M  V30 24349 H 2199.08 0.528387 5.97468 0
M  V30 24350 H 2200.76 0.9426 6.40097 0
M  V30 24351 N 2200.89 -1.55074 0.28101 0
M  V30 24352 C 2202.13 -2.01633 -0.335198 0
M  V30 24353 C 2202.49 -1.16511 -1.52608 0
M  V30 24354 O 2203.7 -1.52676 -2.21232 0
M  V30 24355 C 2201.97 -3.50436 -0.70211 0
M  V30 24356 S 2203.53 -4.18976 -1.30402 0
M  V30 24357 H 2200.34 -0.703359 -0.103955 0
M  V30 24358 H 2202.95 -1.91275 0.40422 0
M  V30 24359 H 2201.65 -4.10034 0.173402 0
M  V30 24360 H 2201.18 -3.64789 -1.47284 0
M  V30 24361 H 2203.2 -4.23091 -2.59245 0
M  V30 24362 N 2202.37 -0.00838561 -1.57598 0
M  V30 24363 C 2203.78 0.533299 -1.78921 0
M  V30 24364 C 2204.13 1.73471 -0.916639 0
M  V30 24365 O 2203.26 2.16059 -0.121374 0
M  V30 24366 C 2203.85 0.974256 -3.2449 0
M  V30 24367 C 2202.41 1.46119 -3.46881 0
M  V30 24368 C 2201.56 0.416254 -2.74158 0
M  V30 24369 H 2204.51 -0.234523 -1.56958 0
M  V30 24370 H 2204.53 1.83982 -3.33063 0
M  V30 24371 H 2204.04 0.0996498 -3.87972 0
M  V30 24372 H 2202.14 2.35641 -2.88624 0
M  V30 24373 H 2202.26 1.48287 -4.55574 0
M  V30 24374 H 2200.62 0.879768 -2.39023 0
M  V30 24375 H 2201.4 -0.44953 -3.40344 0
M  V30 24376 N 2203.85 1.55365 0.264492 0
M  V30 24377 C 2204.8 1.89629 1.34698 0
M  V30 24378 C 2205.79 0.773486 1.5071 0
M  V30 24379 O 2207 0.957924 1.52394 0
M  V30 24380 H 2203.37 0.601996 0.450671 0
M  V30 24381 H 2205.34 2.80039 1.03056 0
M  V30 24382 C 2204.09 2.19218 2.69886 0
M  V30 24383 H 2203.41 3.05107 2.58359 0
M  V30 24384 H 2204.85 2.47108 3.44548 0
M  V30 24385 C 2203.31 1.0026 3.21636 0
M  V30 24386 O 2203.84 0.241571 4.00973 0
M  V30 24387 N 2202.05 0.797987 2.79429 0
M  V30 24388 H 2201.6 1.41854 2.15024 0
M  V30 24389 H 2201.55 0.00368948 3.144 0
M  V30 24390 N 2205.33 -0.529387 1.48443 0
M  V30 24391 C 2206.57 -1.29566 1.58088 0
M  V30 24392 C 2206.93 -1.90374 0.249335 0
M  V30 24393 O 2208.13 -2.67892 0.220785 0
M  V30 24394 C 2206.4 -2.35548 2.68798 0
M  V30 24395 S 2207.96 -3.21892 2.98213 0
M  V30 24396 H 2204.78 -0.440722 0.55793 0
M  V30 24397 H 2207.38 -0.603026 1.85967 0
M  V30 24398 H 2206.08 -1.89356 3.64105 0
M  V30 24399 H 2205.62 -3.09517 2.42822 0
M  V30 24400 H 2207.63 -4.3564 2.37556 0
M  V30 24401 N 2206.8 -1.37041 -0.778305 0
M  V30 24402 C 2207.73 -1.34965 -1.90543 0
M  V30 24403 C 2208.71 -0.219304 -1.6868 0
M  V30 24404 O 2209.9 -0.418657 -1.89634 0
M  V30 24405 C 2207.03 -1.14931 -3.27732 0
M  V30 24406 C 2205.98 -2.24908 -3.64143 0
M  V30 24407 C 2205.31 -1.90004 -4.99802 0
M  V30 24408 C 2206.61 -3.67058 -3.71572 0
M  V30 24409 H 2208.3 -2.29281 -1.92537 0
M  V30 24410 H 2205.85 -1.10368 -0.924928 0
M  V30 24411 H 2207.8 -1.12111 -4.06213 0
M  V30 24412 H 2206.53 -0.170689 -3.26154 0
M  V30 24413 H 2205.19 -2.26873 -2.87966 0
M  V30 24414 H 2204.83 -0.906883 -4.94757 0
M  V30 24415 H 2204.53 -2.63644 -5.25134 0
M  V30 24416 H 2206.06 -1.88759 -5.80691 0
M  V30 24417 H 2207.47 -3.67259 -4.4022 0
M  V30 24418 H 2205.87 -4.39695 -4.08397 0
M  V30 24419 H 2206.94 -4.01158 -2.72397 0
M  V30 24420 N 2208.28 1.00373 -1.21503 0
M  V30 24421 C 2209.53 1.74427 -1.03456 0
M  V30 24422 C 2209.86 1.89363 0.430731 0
M  V30 24423 O 2209.14 1.42888 1.31959 0
M  V30 24424 C 2209.42 3.15612 -1.73381 0
M  V30 24425 C 2209.27 3.08391 -3.27437 0
M  V30 24426 C 2210.59 4.14561 -1.47739 0
M  V30 24427 H 2207.71 0.633136 -0.377237 0
M  V30 24428 H 2210.35 1.1701 -1.49695 0
M  V30 24429 H 2208.5 3.64633 -1.3407 0
M  V30 24430 H 2210.17 2.67075 -3.76123 0
M  V30 24431 H 2208.42 2.45462 -3.57674 0
M  V30 24432 H 2209.09 4.08251 -3.71531 0
M  V30 24433 H 2211.56 3.74251 -1.81866 0
M  V30 24434 H 2210.44 5.11488 -1.99178 0
M  V30 24435 H 2210.7 4.40216 -0.407666 0
M  V30 24436 N 2209.76 1.02298 1.19887 0
M  V30 24437 C 2210.72 0.60339 2.21115 0
M  V30 24438 C 2211.72 -0.329856 1.5738 0
M  V30 24439 O 2212.91 -0.117672 1.73802 0
M  V30 24440 C 2210.04 -0.117932 3.40696 0
M  V30 24441 H 2211.24 1.49898 2.59751 0
M  V30 24442 H 2208.79 0.813491 1.33462 0
M  V30 24443 H 2209.53 -1.02814 3.07571 0
M  V30 24444 H 2209.31 0.552579 3.88187 0
M  V30 24445 H 2210.8 -0.398623 4.15693 0
M  V30 24446 N 2211.24 -1.35782 0.800057 0
M  V30 24447 C 2212.18 -2.29898 0.203888 0
M  V30 24448 C 2213.15 -1.52496 -0.658348 0
M  V30 24449 O 2214.34 -1.80961 -0.6048 0
M  V30 24450 C 2211.48 -3.38984 -0.64682 0
M  V30 24451 C 2210.59 -4.3136 0.23513 0
M  V30 24452 C 2209.73 -5.27534 -0.622961 0
M  V30 24453 C 2208.77 -6.11548 0.25979 0
M  V30 24454 N 2207.9 -6.9988 -0.557896 0
M  V30 24455 H 2212.74 -2.80294 1.01191 0
M  V30 24456 H 2210.28 -1.37956 0.510554 0
M  V30 24457 H 2212.24 -4.00889 -1.15514 0
M  V30 24458 H 2210.87 -2.89881 -1.42016 0
M  V30 24459 H 2209.92 -3.70516 0.861504 0
M  V30 24460 H 2211.23 -4.90339 0.914854 0
M  V30 24461 H 2210.39 -5.94781 -1.19667 0
M  V30 24462 H 2209.13 -4.69036 -1.33628 0
M  V30 24463 H 2208.13 -5.43255 0.845822 0
M  V30 24464 H 2209.36 -6.72124 0.970866 0
M  V30 24465 H 2207.3 -6.43877 -1.2553 0
M  V30 24466 H 2207.22 -7.55973 0.06392 0
M  V30 24467 H 2208.49 -7.71483 -1.11509 0
M  V30 24468 N 2212.72 -0.552988 -1.4758 0
M  V30 24469 C 2213.65 0.18541 -2.32763 0
M  V30 24470 C 2214.63 0.91288 -1.43529 0
M  V30 24471 O 2215.81 0.894171 -1.7239 0
M  V30 24472 C 2212.94 1.21853 -3.25222 0
M  V30 24473 C 2211.9 0.607789 -4.23663 0
M  V30 24474 C 2211.22 1.74524 -5.05416 0
M  V30 24475 C 2212.52 -0.435674 -5.2048 0
M  V30 24476 H 2214.22 -0.525735 -2.94748 0
M  V30 24477 H 2211.76 -0.254276 -1.41737 0
M  V30 24478 H 2213.71 1.74323 -3.83653 0
M  V30 24479 H 2212.44 1.95957 -2.61282 0
M  V30 24480 H 2211.1 0.104425 -3.66451 0
M  V30 24481 H 2210.75 2.47521 -4.37884 0
M  V30 24482 H 2210.45 1.34239 -5.72061 0
M  V30 24483 H 2211.97 2.27328 -5.66705 0
M  V30 24484 H 2213.38 0.0028008 -5.733 0
M  V30 24485 H 2211.78 -0.757172 -5.95304 0
M  V30 24486 H 2212.85 -1.33311 -4.66215 0
M  V30 24487 N 2214.19 1.54923 -0.28923 0
M  V30 24488 C 2215.44 1.99505 0.322844 0
M  V30 24489 C 2215.76 1.17913 1.55311 0
M  V30 24490 O 2215.03 0.272131 1.94001 0
M  V30 24491 H 2213.61 0.736924 0.122278 0
M  V30 24492 H 2216.27 1.90796 -0.397836 0
M  V30 24493 H 2215.37 3.06219 0.603007 0
M  V30 24494 N 2215.67 0.0167433 1.57591 0
M  V30 24495 C 2216.92 -0.663843 1.90463 0
M  V30 24496 C 2217.23 -1.73997 0.893546 0
M  V30 24497 O 2218.44 -2.47635 1.11307 0
M  V30 24498 C 2216.9 -1.23198 3.38157 0
M  V30 24499 C 2216.5 -0.189787 4.47598 0
M  V30 24500 C 2218.25 -1.88979 3.80115 0
M  V30 24501 C 2216.15 -0.768861 5.86381 0
M  V30 24502 H 2215.08 -0.251716 0.710742 0
M  V30 24503 H 2217.74 0.0800249 1.83325 0
M  V30 24504 H 2216.12 -2.02706 3.40186 0
M  V30 24505 H 2217.29 0.581926 4.57111 0
M  V30 24506 H 2215.61 0.368548 4.14766 0
M  V30 24507 H 2218.2 -2.33238 4.81149 0
M  V30 24508 H 2218.55 -2.72737 3.14516 0
M  V30 24509 H 2219.08 -1.1618 3.80456 0
M  V30 24510 H 2215.82 0.030311 6.55493 0
M  V30 24511 H 2215.34 -1.50935 5.80499 0
M  V30 24512 H 2217.02 -1.2624 6.34565 0
M  V30 24513 N 2217.15 -1.55503 -0.256249 0
M  V30 24514 C 2218.1 -1.89528 -1.3171 0
M  V30 24515 C 2219.07 -0.748505 -1.48279 0
M  V30 24516 O 2220.25 -1.00131 -1.62414 0
M  V30 24517 C 2217.39 -2.1873 -2.66929 0
M  V30 24518 C 2216.51 -3.46165 -2.58445 0
M  V30 24519 C 2215.64 -3.64982 -3.85955 0
M  V30 24520 C 2214.68 -4.86051 -3.7205 0
M  V30 24521 N 2213.82 -5.01438 -4.91431 0
M  V30 24522 H 2218.66 -2.80003 -1.01993 0
M  V30 24523 H 2216.19 -1.38614 -0.492389 0
M  V30 24524 H 2218.15 -2.33663 -3.45626 0
M  V30 24525 H 2216.78 -1.31471 -2.94814 0
M  V30 24526 H 2215.83 -3.39613 -1.71368 0
M  V30 24527 H 2217.15 -4.35003 -2.44077 0
M  V30 24528 H 2216.3 -3.79824 -4.73095 0
M  V30 24529 H 2215.04 -2.7436 -4.0321 0
M  V30 24530 H 2214.04 -4.71195 -2.83294 0
M  V30 24531 H 2215.27 -5.78125 -3.56299 0
M  V30 24532 H 2213.21 -4.1375 -5.09065 0
M  V30 24533 H 2213.13 -5.8435 -4.79658 0
M  V30 24534 H 2214.4 -5.20682 -5.80095 0
M  V30 24535 N 2218.63 0.521507 -1.48721 0
M  V30 24536 C 2219.59 1.60745 -1.63382 0
M  V30 24537 C 2220.59 1.5261 -0.506637 0
M  V30 24538 O 2221.78 1.56128 -0.772629 0
M  V30 24539 C 2218.91 3.0038 -1.61198 0
M  V30 24540 H 2220.11 1.49083 -2.6022 0
M  V30 24541 H 2217.66 0.744211 -1.37445 0
M  V30 24542 H 2218.39 3.1754 -0.658686 0
M  V30 24543 H 2218.18 3.07693 -2.43038 0
M  V30 24544 H 2219.67 3.79317 -1.74667 0
M  V30 24545 N 2220.11 1.37452 0.771027 0
M  V30 24546 C 2221.04 1.35974 1.89825 0
M  V30 24547 C 2222.02 0.228246 1.68562 0
M  V30 24548 O 2223.2 0.428708 1.89409 0
M  V30 24549 C 2220.33 1.16668 3.27118 0
M  V30 24550 C 2219.29 2.26836 3.62946 0
M  V30 24551 C 2218.61 1.92652 4.98788 0
M  V30 24552 C 2219.91 3.69023 3.6962 0
M  V30 24553 H 2221.61 2.30299 1.91319 0
M  V30 24554 H 2219.15 1.10857 0.919062 0
M  V30 24555 H 2221.11 1.14263 4.05613 0
M  V30 24556 H 2219.83 0.187983 3.26059 0
M  V30 24557 H 2218.49 2.28397 2.86759 0
M  V30 24558 H 2218.14 0.933108 4.94269 0
M  V30 24559 H 2217.84 2.66425 5.23729 0
M  V30 24560 H 2219.36 1.91836 5.79682 0
M  V30 24561 H 2220.77 3.69588 4.38266 0
M  V30 24562 H 2219.17 4.41855 4.06059 0
M  V30 24563 H 2220.24 4.02597 2.70266 0
M  V30 24564 N 2221.58 -0.997276 1.22033 0
M  V30 24565 C 2222.83 -1.73276 1.04019 0
M  V30 24566 C 2223.15 -1.90285 -0.426222 0
M  V30 24567 O 2222.42 -1.45933 -1.30691 0
M  V30 24568 H 2221 -0.641993 0.381908 0
M  V30 24569 H 2223.67 -1.20135 1.53472 0
M  V30 24570 H 2222.76 -2.72893 1.51446 0
M  V30 24571 N 2223.06 -1.02932 -1.19343 0
M  V30 24572 C 2224.31 -0.726041 -1.89037 0
M  V30 24573 C 2224.64 0.745395 -1.7965 0
M  V30 24574 O 2223.89 1.55853 -1.18357 0
M  V30 24575 C 2224.19 -1.12325 -3.3929 0
M  V30 24576 C 2223.86 -2.59304 -3.6888 0
M  V30 24577 C 2222.52 -2.9946 -3.76666 0
M  V30 24578 C 2224.87 -3.54393 -3.82172 0
M  V30 24579 C 2222.2 -4.33618 -3.95212 0
M  V30 24580 C 2224.55 -4.88255 -4.02231 0
M  V30 24581 C 2223.22 -5.28099 -4.0825 0
M  V30 24582 H 2222.49 -0.265677 -0.691735 0
M  V30 24583 H 2225.13 -1.29225 -1.41326 0
M  V30 24584 H 2223.44 -0.475653 -3.88902 0
M  V30 24585 H 2225.13 -0.866106 -3.91535 0
M  V30 24586 H 2221.72 -2.27195 -3.63429 0
M  V30 24587 H 2225.91 -3.24521 -3.75499 0
M  V30 24588 H 2221.16 -4.64023 -3.98111 0
M  V30 24589 H 2225.34 -5.6185 -4.11458 0
M  V30 24590 H 2222.97 -6.32064 -4.22373 0
M  V30 24591 N 2224.54 1.35356 -0.807246 0
M  V30 24592 C 2225.82 1.93109 -0.31116 0
M  V30 24593 C 2226.2 1.73721 1.19934 0
M  V30 24594 O 2225.55 1.10661 1.99916 0
M  V30 24595 C 2225.76 3.41423 -0.723287 0
M  V30 24596 C 2227.1 4.18568 -0.713152 0
M  V30 24597 O 2228.13 3.4994 -0.664873 0
M  V30 24598 O 2226.99 5.41018 -0.772118 0
M  V30 24599 H 2224.08 0.82297 -0.0815405 0
M  V30 24600 H 2226.63 1.44428 -0.890988 0
M  V30 24601 H 2225.4 3.49267 -1.76432 0
M  V30 24602 H 2225.02 3.97424 -0.118302 0
M  V30 24603 N 2226.02 0.560807 1.47284 0
M  V30 24604 C 2227.27 0.0380976 2.02464 0
M  V30 24605 C 2227.59 -1.31319 1.43477 0
M  V30 24606 O 2226.85 -1.86866 0.581344 0
M  V30 24607 C 2227.15 -0.100721 3.57258 0
M  V30 24608 C 2226.81 1.18014 4.35182 0
M  V30 24609 C 2225.48 1.53111 4.56191 0
M  V30 24610 C 2227.83 2.02876 4.80095 0
M  V30 24611 C 2225.16 2.72909 5.19363 0
M  V30 24612 C 2227.51 3.2188 5.44588 0
M  V30 24613 C 2226.17 3.57286 5.63829 0
M  V30 24614 H 2225.44 0.0139409 0.740869 0
M  V30 24615 H 2228.09 0.733043 1.76914 0
M  V30 24616 H 2226.39 -0.878657 3.8182 0
M  V30 24617 H 2228.09 -0.52057 3.97607 0
M  V30 24618 H 2224.68 0.896874 4.19111 0
M  V30 24619 H 2228.86 1.77068 4.63638 0
M  V30 24620 H 2224.12 3.00505 5.32454 0
M  V30 24621 H 2228.29 3.87921 5.78351 0
M  V30 24622 H 2225.92 4.50208 6.1255 0
M  V30 24623 N 2227.5 -1.54768 0.297442 0
M  V30 24624 C 2228.43 -2.26349 -0.573454 0
M  V30 24625 C 2229.41 -1.26171 -1.14083 0
M  V30 24626 O 2230.59 -1.54936 -1.17083 0
M  V30 24627 C 2227.72 -3.00156 -1.74711 0
M  V30 24628 C 2226.68 -4.07451 -1.31025 0
M  V30 24629 C 2226 -4.68954 -2.56878 0
M  V30 24630 C 2227.3 -5.20409 -0.444092 0
M  V30 24631 H 2229 -2.99391 0.0235657 0
M  V30 24632 H 2226.54 -1.43994 0.0127742 0
M  V30 24633 H 2228.5 -3.48951 -2.36243 0
M  V30 24634 H 2227.22 -2.24686 -2.37031 0
M  V30 24635 H 2225.88 -3.595 -0.718003 0
M  V30 24636 H 2225.53 -3.90128 -3.17505 0
M  V30 24637 H 2225.23 -5.41415 -2.28351 0
M  V30 24638 H 2226.75 -5.2051 -3.1922 0
M  V30 24639 H 2228.16 -5.6512 -0.965 0
M  V30 24640 H 2226.56 -5.99568 -0.252741 0
M  V30 24641 H 2227.63 -4.81976 0.531693 0
M  V30 24642 N 2228.97 -0.0251005 -1.5758 0
M  V30 24643 C 2229.92 0.976133 -2.11127 0
M  V30 24644 C 2230.92 1.33957 -1.03691 0
M  V30 24645 O 2232.12 1.32227 -1.22131 0
M  V30 24646 H 2228.5 0.33255 -0.674474 0
M  V30 24647 H 2230.47 0.499171 -2.94195 0
M  V30 24648 C 2229.22 2.25076 -2.65021 0
M  V30 24649 H 2228.54 1.97984 -3.47336 0
M  V30 24650 H 2229.98 2.93352 -3.06138 0
M  V30 24651 C 2228.44 2.97776 -1.57579 0
M  V30 24652 O 2228.97 3.89731 -0.973272 0
M  V30 24653 N 2227.18 2.60041 -1.2972 0
M  V30 24654 H 2226.72 1.85342 -1.78903 0
M  V30 24655 H 2226.68 3.08993 -0.580564 0
M  V30 24656 N 2230.45 1.55637 0.247999 0
M  V30 24657 C 2231.4 1.90224 1.30703 0
M  V30 24658 C 2232.37 0.756358 1.4788 0
M  V30 24659 O 2233.55 1.00991 1.61881 0
M  V30 24660 C 2230.69 2.20142 2.65766 0
M  V30 24661 C 2229.81 3.4753 2.56606 0
M  V30 24662 C 2228.94 3.67024 3.84014 0
M  V30 24663 C 2227.98 4.88017 3.69467 0
M  V30 24664 N 2227.12 5.04037 4.88765 0
M  V30 24665 H 2231.96 2.80539 1.00507 0
M  V30 24666 H 2229.5 1.38874 0.485031 0
M  V30 24667 H 2231.45 2.35493 3.44382 0
M  V30 24668 H 2230.08 1.33032 2.94113 0
M  V30 24669 H 2229.14 3.40517 1.69565 0
M  V30 24670 H 2230.45 4.36292 2.41767 0
M  V30 24671 H 2229.6 3.82328 4.71074 0
M  V30 24672 H 2228.34 2.76494 4.01749 0
M  V30 24673 H 2227.35 4.72691 2.80791 0
M  V30 24674 H 2228.57 5.80006 3.53228 0
M  V30 24675 H 2226.52 4.16444 5.06863 0
M  V30 24676 H 2226.43 5.86885 4.76552 0
M  V30 24677 H 2227.7 5.23751 5.77326 0
M  V30 24678 N 2231.93 -0.513613 1.48996 0
M  V30 24679 C 2232.88 -1.63741 1.65201 0
M  V30 24680 C 2233.87 -1.61282 0.518118 0
M  V30 24681 O 2235.08 -1.65942 0.697364 0
M  V30 24682 H 2231.45 -0.542565 0.520699 0
M  V30 24683 H 2233.43 -1.47222 2.59554 0
M  V30 24684 C 2232.17 -3.01942 1.72414 0
M  V30 24685 H 2231.5 -3.04535 2.59034 0
M  V30 24686 H 2232.94 -3.80145 1.87792 0
M  V30 24687 C 2231.4 -3.33658 0.466238 0
M  V30 24688 O 2231.93 -3.99564 -0.413674 0
M  V30 24689 N 2230.13 -2.88686 0.332981 0
M  V30 24690 H 2229.68 -2.35229 1.05001 0
M  V30 24691 H 2229.64 -3.10275 -0.507611 0
M  V30 24692 N 2233.41 -1.37859 -0.763727 0
M  V30 24693 C 2234.66 -1.3283 -1.51786 0
M  V30 24694 C 2234.97 0.0823376 -1.95427 0
M  V30 24695 O 2236.18 0.255124 -2.70299 0
M  V30 24696 C 2234.63 -2.33198 -2.74129 0
M  V30 24697 C 2234.24 -3.79831 -2.37555 0
M  V30 24698 C 2235.99 -2.37195 -3.5205 0
M  V30 24699 C 2233.89 -4.7191 -3.56448 0
M  V30 24700 H 2232.82 -0.493705 -0.569887 0
M  V30 24701 H 2235.47 -1.63361 -0.835793 0
M  V30 24702 H 2233.86 -1.95696 -3.44266 0
M  V30 24703 H 2235.03 -4.26215 -1.7515 0
M  V30 24704 H 2233.34 -3.78856 -1.72791 0
M  V30 24705 H 2235.94 -3.0319 -4.40432 0
M  V30 24706 H 2236.28 -1.38789 -3.92484 0
M  V30 24707 H 2236.82 -2.73445 -2.88917 0
M  V30 24708 H 2233.56 -5.71474 -3.21089 0
M  V30 24709 H 2233.08 -4.30225 -4.17931 0
M  V30 24710 H 2234.76 -4.89433 -4.23159 0
M  V30 24711 O 2234.93 0.904027 -1.33827 0
M  V30 24712 H 2235.62 1.53886 -1.17639 0
M  V30 END ATOM
M  V30 BEGIN BOND
M  V30 END BOND
M  V30 END CTAB
M  END
$$$$
