drugbank_target|P37058 Testosterone 17-beta-dehydrogenase 3 (DB00157)
 OpenBabel12092119293D

  0  0  0     0  0            999 V3000
M  V30 BEGIN CTAB
M  V30 COUNTS 4955 5002 0 0 0
M  V30 BEGIN ATOM
M  V30 1 H -0.908 1.98254 -0.117106 0
M  V30 2 N 0 1.576 0 0
M  V30 3 C 0.933 2.03868 1.02534 0
M  V30 4 C 1.911 0.928543 1.3348 0
M  V30 5 O 3.095 1.19667 1.45644 0
M  V30 6 C 0.222 2.43627 2.35294 0
M  V30 7 C -0.732 3.65373 2.2001 0
M  V30 8 S 0.101 5.13292 1.52614 0
M  V30 9 C 1.257 5.56322 2.86805 0
M  V30 10 H 1.49 2.90518 0.631377 0
M  V30 11 H -0.977 1.52953 0.210867 0
M  V30 12 H 0.981 2.67203 3.11629 0
M  V30 13 H -0.358 1.57376 2.7183 0
M  V30 14 H -1.165 3.90944 3.18086 0
M  V30 15 H -1.563 3.418 1.51819 0
M  V30 16 H 0.729 5.58782 3.83104 0
M  V30 17 H 1.672 6.56266 2.65933 0
M  V30 18 H 2.08 4.83886 2.90714 0
M  V30 19 N 1.4781 -0.272755 1.55222 0
M  V30 20 C 2.7261 -1.00234 1.75492 0
M  V30 21 C 3.0471 -1.8681 0.5592 0
M  V30 22 O 2.3171 -1.91215 -0.425882 0
M  V30 23 H 0.8971 -0.373076 0.647166 0
M  V30 24 H 3.5591 -0.296926 1.92625 0
M  V30 25 H 2.6551 -1.63913 2.65592 0
M  V30 26 N 2.9562 -1.48159 -0.537278 0
M  V30 27 C 4.2332 -1.46291 -1.29839 0
M  V30 28 C 4.6132 -0.170613 -2.10409 0
M  V30 29 O 3.9612 0.847746 -2.12192 0
M  V30 30 C 4.1712 -2.72055 -2.18603 0
M  V30 31 C 5.5192 -3.20087 -2.7898 0
M  V30 32 O 6.5432 -2.72921 -2.28894 0
M  V30 33 O 5.4022 -4.02138 -3.70064 0
M  V30 34 H 2.4962 -0.583906 -0.585647 0
M  V30 35 H 5.0422 -1.60384 -0.554534 0
M  V30 36 H 3.8142 -3.57628 -1.58801 0
M  V30 37 H 3.4372 -2.60646 -3.00249 0
M  V30 38 N 4.4343 0.785586 -1.36625 0
M  V30 39 C 5.6803 1.54591 -1.31261 0
M  V30 40 C 6.0133 1.93906 0.106823 0
M  V30 41 O 5.2883 1.63007 1.06108 0
M  V30 42 C 5.5713 2.82038 -2.23889 0
M  V30 43 C 5.4243 2.49066 -3.74548 0
M  V30 44 C 6.7433 3.83887 -2.15217 0
M  V30 45 H 3.8623 0.560846 -0.478143 0
M  V30 46 H 6.5043 0.902278 -1.67209 0
M  V30 47 H 4.6543 3.36961 -1.93363 0
M  V30 48 H 6.3263 2.00164 -4.15611 0
M  V30 49 H 4.5693 1.81954 -3.93796 0
M  V30 50 H 5.2403 3.40109 -4.34776 0
M  V30 51 H 7.7163 3.38421 -2.42096 0
M  V30 52 H 6.5923 4.70806 -2.82193 0
M  V30 53 H 6.8533 4.27131 -1.14068 0
M  V30 54 N 5.9124 1.20967 1.01018 0
M  V30 55 C 6.8424 0.988272 2.11555 0
M  V30 56 C 7.8234 -0.0849778 1.69888 0
M  V30 57 O 9.0084 0.0738202 1.9406 0
M  V30 58 C 6.1384 0.546528 3.42973 0
M  V30 59 C 5.0924 1.56375 3.9841 0
M  V30 60 C 4.4184 0.97842 5.25672 0
M  V30 61 C 5.7184 2.94922 4.31066 0
M  V30 62 H 7.4124 1.91276 2.30334 0
M  V30 63 H 4.9584 0.921073 1.1069 0
M  V30 64 H 6.9114 0.378839 4.19694 0
M  V30 65 H 5.6354 -0.413598 3.23971 0
M  V30 66 H 4.2944 1.71891 3.23804 0
M  V30 67 H 3.9424 0.0101688 5.02999 0
M  V30 68 H 3.6424 1.65784 5.63728 0
M  V30 69 H 5.1664 0.821939 6.05043 0
M  V30 70 H 6.5804 2.8288 4.9865 0
M  V30 71 H 4.9774 3.5983 4.80253 0
M  V30 72 H 6.0474 3.4616 3.39561 0
M  V30 73 N 7.3905 -1.2043 1.01659 0
M  V30 74 C 8.3005 -2.2689 0.596484 0
M  V30 75 C 9.3165 -1.70107 -0.36599 0
M  V30 76 O 10.4925 -2.00117 -0.226942 0
M  V30 77 C 7.5575 -3.4665 -0.0586659 0
M  V30 78 C 6.6185 -4.18662 0.949751 0
M  V30 79 C 5.8515 -5.32705 0.32577 0
M  V30 80 O 6.0745 -5.63656 -0.874509 0
M  V30 81 O 5.0085 -5.92803 1.04249 0
M  V30 82 H 8.8345 -2.65041 1.4828 0
M  V30 83 H 6.4195 -1.27048 0.786082 0
M  V30 84 H 8.3015 -4.19256 -0.424564 0
M  V30 85 H 6.9765 -3.10375 -0.91918 0
M  V30 86 H 5.8835 -3.48229 1.36702 0
M  V30 87 H 7.2165 -4.58878 1.78023 0
M  V30 88 N 8.8686 -0.792821 -1.36206 0
M  V30 89 C 9.8006 -0.151469 -2.28699 0
M  V30 90 C 10.8136 0.641262 -1.49638 0
M  V30 91 O 12.0026 0.475885 -1.72039 0
M  V30 92 C 9.1026 0.808424 -3.29117 0
M  V30 93 C 8.2756 0.0650202 -4.37352 0
M  V30 94 C 7.3346 0.941358 -5.17711 0
M  V30 95 O 6.3606 0.397352 -5.67811 0
M  V30 96 N 7.5626 2.2652 -5.3448 0
M  V30 97 H 10.3276 -0.945982 -2.84379 0
M  V30 98 H 7.8886 -0.647032 -1.48409 0
M  V30 99 H 9.8806 1.3986 -3.79765 0
M  V30 100 H 8.4506 1.5038 -2.74052 0
M  V30 101 H 7.6706 -0.706255 -3.87822 0
M  V30 102 H 8.9586 -0.447847 -5.06825 0
M  V30 103 H 8.3566 2.73128 -4.95396 0
M  V30 104 H 6.9136 2.80493 -5.88359 0
M  V30 105 N 10.3467 1.47872 -0.545128 0
M  V30 106 C 11.5937 2.02493 -0.0165858 0
M  V30 107 C 11.9217 1.42073 1.32836 0
M  V30 108 O 11.1767 0.561459 1.87473 0
M  V30 109 C 11.4757 3.57131 0.13867 0
M  V30 110 C 11.1417 4.36411 -1.13384 0
M  V30 111 C 9.8037 4.57792 -1.48256 0
M  V30 112 C 12.1557 4.82223 -1.97764 0
M  V30 113 C 9.4837 5.22233 -2.67376 0
M  V30 114 C 11.8357 5.47977 -3.16076 0
M  V30 115 C 10.4997 5.67593 -3.51275 0
M  V30 116 H 9.7697 0.740975 -0.00606918 0
M  V30 117 H 12.4167 1.77683 -0.714207 0
M  V30 118 H 10.7217 3.80865 0.919172 0
M  V30 119 H 12.4187 3.97031 0.562782 0
M  V30 120 H 9.0087 4.2004 -0.852297 0
M  V30 121 H 13.1927 4.65493 -1.72132 0
M  V30 122 H 8.4487 5.35616 -2.94831 0
M  V30 123 H 12.6227 5.8244 -3.81755 0
M  V30 124 H 10.2497 6.17298 -4.43675 0
M  V30 125 N 11.8248 0.280983 1.55075 0
M  V30 126 C 13.0718 -0.334115 1.99725 0
M  V30 127 C 13.3998 -1.5542 1.1694 0
M  V30 128 O 12.6548 -1.94361 0.228531 0
M  V30 129 C 12.9538 -0.754656 3.49342 0
M  V30 130 C 12.6198 0.361445 4.49449 0
M  V30 131 C 11.2818 0.667893 4.76542 0
M  V30 132 C 13.6338 1.11322 5.09173 0
M  V30 133 C 10.9618 1.7296 5.60626 0
M  V30 134 C 13.3138 2.1647 5.9441 0
M  V30 135 C 11.9778 2.47742 6.19822 0
M  V30 136 H 11.2478 -0.122261 0.730844 0
M  V30 137 H 13.8948 0.395917 1.87363 0
M  V30 138 H 12.1998 -1.56446 3.5921 0
M  V30 139 H 13.8968 -1.24142 3.813 0
M  V30 140 H 10.4868 0.112481 4.28452 0
M  V30 141 H 14.6708 0.88973 4.8826 0
M  V30 142 H 9.9268 1.97684 5.78559 0
M  V30 143 H 14.1008 2.75193 6.3972 0
M  V30 144 H 11.7278 3.30145 6.84769 0
M  V30 145 N 13.3029 -1.57598 0.00835791 0
M  V30 146 C 14.5519 -1.90107 -0.673968 0
M  V30 147 C 14.8649 -0.884275 -1.7447 0
M  V30 148 O 16.0709 -1.09987 -2.48224 0
M  V30 149 C 14.5269 -3.37497 -1.24995 0
M  V30 150 C 14.1349 -4.47491 -0.2136 0
M  V30 151 C 15.8789 -3.79104 -1.90999 0
M  V30 152 C 13.7859 -5.85963 -0.80005 0
M  V30 153 H 12.7159 -0.709393 -0.255495 0
M  V30 154 H 15.3669 -1.83365 0.0702693 0
M  V30 155 H 13.7489 -3.39102 -2.04513 0
M  V30 156 H 14.9229 -4.57414 0.557596 0
M  V30 157 H 13.2379 -4.14956 0.346474 0
M  V30 158 H 15.8349 -4.79901 -2.35795 0
M  V30 159 H 16.1779 -3.1306 -2.74407 0
M  V30 160 H 16.7109 -3.79833 -1.18203 0
M  V30 161 H 13.4499 -6.555 -0.00456708 0
M  V30 162 H 12.9699 -5.79687 -1.54021 0
M  V30 163 H 14.6489 -6.33884 -1.29615 0
M  V30 164 N 14.781 0.264519 -1.55364 0
M  V30 165 C 15.711 1.33121 -1.91836 0
M  V30 166 C 16.692 1.51101 -0.781192 0
M  V30 167 O 17.877 1.64003 -1.04003 0
M  V30 168 C 15.007 2.68921 -2.19769 0
M  V30 169 C 13.961 2.65661 -3.35571 0
M  V30 170 C 13.287 4.05093 -3.49004 0
M  V30 171 C 14.587 2.24187 -4.71739 0
M  V30 172 H 16.281 1.02844 -2.81182 0
M  V30 173 H 13.827 0.493286 -1.35287 0
M  V30 174 H 15.78 3.43663 -2.43872 0
M  V30 175 H 14.504 3.00799 -1.27231 0
M  V30 176 H 13.163 1.93377 -3.1145 0
M  V30 177 H 12.811 4.34206 -2.53917 0
M  V30 178 H 12.511 4.03804 -4.26868 0
M  V30 179 H 14.035 4.81561 -3.75408 0
M  V30 180 H 15.449 2.88654 -4.9533 0
M  V30 181 H 13.846 2.34044 -5.52579 0
M  V30 182 H 14.916 1.19327 -4.69988 0
M  V30 183 N 16.2591 1.48442 0.529413 0
M  V30 184 C 17.4871 1.60151 1.30994 0
M  V30 185 C 17.9021 0.261985 1.86973 0
M  V30 186 O 17.2591 -0.748805 1.66431 0
M  V30 187 C 17.3101 2.64854 2.46038 0
M  V30 188 O 17.0311 3.93608 1.92365 0
M  V30 189 C 18.5321 2.87007 3.37849 0
M  V30 190 H 15.7521 0.539971 0.398338 0
M  V30 191 H 18.2961 1.94273 0.638597 0
M  V30 192 H 16.4511 2.33589 3.09055 0
M  V30 193 H 16.8651 4.51055 2.67675 0
M  V30 194 H 18.3391 3.64068 4.14919 0
M  V30 195 H 18.8161 1.95852 3.93114 0
M  V30 196 H 19.4221 3.19579 2.80623 0
M  V30 197 N 17.7372 -0.778329 1.37039 0
M  V30 198 C 18.9852 -1.53361 1.31623 0
M  V30 199 C 19.3062 -1.94739 -0.100831 0
M  V30 200 O 18.5762 -1.65797 -1.04347 0
M  V30 201 H 17.1562 -0.568794 0.484234 0
M  V30 202 H 19.8182 -0.926742 1.71457 0
M  V30 203 H 18.9142 -2.43606 1.95096 0
M  V30 204 N 19.2153 -1.21501 -1.00376 0
M  V30 205 C 20.1453 -0.999478 -2.11028 0
M  V30 206 C 21.1263 0.0759671 -1.6993 0
M  V30 207 O 22.3113 -0.0841106 -1.94018 0
M  V30 208 C 19.4413 -0.564709 -3.42678 0
M  V30 209 C 18.3953 -1.58486 -3.97576 0
M  V30 210 C 17.7213 -1.00628 -5.25146 0
M  V30 211 C 19.0213 -2.97204 -4.29496 0
M  V30 212 H 20.7153 -1.92495 -2.29317 0
M  V30 213 H 18.2613 -0.92693 -1.102 0
M  V30 214 H 20.2143 -0.401091 -4.19487 0
M  V30 215 H 18.9383 0.396411 -3.24185 0
M  V30 216 H 17.5973 -1.73606 -3.22888 0
M  V30 217 H 17.2453 -0.0368439 -5.02987 0
M  V30 218 H 16.9453 -1.68771 -5.62841 0
M  V30 219 H 18.4693 -0.854015 -6.04598 0
M  V30 220 H 19.8833 -2.8552 -4.97143 0
M  V30 221 H 18.2803 -3.62372 -4.78338 0
M  V30 222 H 19.3503 -3.47956 -3.3772 0
M  V30 223 N 20.6934 1.19889 -1.02296 0
M  V30 224 C 21.6234 2.25141 -0.619174 0
M  V30 225 C 22.6044 1.66051 0.368915 0
M  V30 226 O 23.7894 1.92546 0.252941 0
M  V30 227 C 20.9194 3.4728 0.0368783 0
M  V30 228 C 19.8734 4.19005 -0.872865 0
M  V30 229 C 19.1994 5.34637 -0.0822402 0
M  V30 230 C 20.4994 4.74452 -2.18387 0
M  V30 231 H 22.1934 2.59171 -1.49903 0
M  V30 232 H 19.7394 1.24579 -0.722222 0
M  V30 233 H 21.6924 4.20098 0.330958 0
M  V30 234 H 20.4164 3.12433 0.95149 0
M  V30 235 H 19.0754 3.48061 -1.15105 0
M  V30 236 H 18.7234 4.96034 0.83422 0
M  V30 237 H 18.4234 5.83557 -0.688149 0
M  V30 238 H 19.9474 6.10255 0.205238 0
M  V30 239 H 21.3614 5.39055 -1.95172 0
M  V30 240 H 19.7584 5.33834 -2.74119 0
M  V30 241 H 20.8284 3.92844 -2.84257 0
M  V30 242 N 22.1715 0.800033 1.35784 0
M  V30 243 C 23.4175 0.377901 1.99248 0
M  V30 244 C 23.7505 -1.05052 1.63333 0
M  V30 245 O 23.0255 -1.72768 0.893385 0
M  V30 246 C 23.3085 0.553922 3.55814 0
M  V30 247 C 23.1615 2.0268 4.01548 0
M  V30 248 C 24.4805 -0.0244802 4.40093 0
M  V30 249 H 21.5995 0.138782 0.723815 0
M  V30 250 H 24.2415 1.00835 1.61035 0
M  V30 251 H 22.3915 0.0172398 3.88496 0
M  V30 252 H 24.0635 2.62536 3.79305 0
M  V30 253 H 22.3065 2.5256 3.52698 0
M  V30 254 H 22.9775 2.10087 5.10458 0
M  V30 255 H 25.4535 0.433775 4.13833 0
M  V30 256 H 24.3295 0.128637 5.48749 0
M  V30 257 H 24.5905 -1.11758 4.27741 0
M  V30 258 N 23.6496 -1.47581 0.552962 0
M  V30 259 C 24.8896 -2.04379 0.0296245 0
M  V30 260 C 25.2536 -1.4185 -1.29393 0
M  V30 261 O 26.4546 -1.89669 -1.90471 0
M  V30 262 C 24.7256 -3.57339 -0.0661371 0
M  V30 263 S 26.2846 -4.35511 -0.536213 0
M  V30 264 H 23.1026 -0.710625 0.0230991 0
M  V30 265 H 25.7046 -1.81005 0.738734 0
M  V30 266 H 24.4086 -4.00374 0.901596 0
M  V30 267 H 23.9396 -3.85202 -0.798931 0
M  V30 268 H 25.9546 -4.6253 -1.79668 0
M  V30 269 N 25.1277 -0.289203 -1.54924 0
M  V30 270 C 26.0577 0.58549 -2.2604 0
M  V30 271 C 27.0387 1.14753 -1.25562 0
M  V30 272 O 28.2237 1.17906 -1.54311 0
M  V30 273 C 25.3537 1.76305 -2.99222 0
M  V30 274 C 24.3077 1.33191 -4.06748 0
M  V30 275 C 23.6337 2.5937 -4.6758 0
M  V30 276 C 24.9337 0.471775 -5.20165 0
M  V30 277 H 26.6277 -0.00763532 -2.99399 0
M  V30 278 H 24.1737 -0.00511229 -1.43999 0
M  V30 279 H 26.1267 2.38097 -3.47689 0
M  V30 280 H 24.8507 2.38223 -2.23422 0
M  V30 281 H 23.5097 0.737121 -3.59113 0
M  V30 282 H 23.1577 3.19576 -3.88433 0
M  V30 283 H 22.8577 2.31228 -5.40192 0
M  V30 284 H 24.3817 3.21985 -5.18804 0
M  V30 285 H 25.7957 0.995056 -5.64599 0
M  V30 286 H 24.1927 0.284639 -5.99425 0
M  V30 287 H 25.2627 -0.506041 -4.82252 0
M  V30 288 N 26.6058 1.57591 -0.0167156 0
M  V30 289 C 27.5688 2.08393 0.954204 0
M  V30 290 C 28.5688 0.996531 1.26198 0
M  V30 291 O 29.7588 1.25858 1.20438 0
M  V30 292 C 26.8908 2.5394 2.27436 0
M  V30 293 H 28.0838 2.95455 0.514451 0
M  V30 294 H 25.6368 1.54582 0.231089 0
M  V30 295 H 26.3718 1.70171 2.76066 0
M  V30 296 H 26.1568 3.33371 2.06412 0
M  V30 297 H 27.6468 2.93512 2.97053 0
M  V30 298 N 28.0839 -0.256276 1.55502 0
M  V30 299 C 29.3239 -0.993081 1.78654 0
M  V30 300 C 29.6879 -1.8288 0.584724 0
M  V30 301 O 30.8889 -2.59665 0.694822 0
M  V30 302 C 29.1599 -1.83856 3.06483 0
M  V30 303 S 30.7189 -2.63573 3.5082 0
M  V30 304 H 27.5369 -0.334199 0.62756 0
M  V30 305 H 30.1389 -0.26184 1.93739 0
M  V30 306 H 28.8429 -1.21414 3.92029 0
M  V30 307 H 28.3739 -2.61271 2.94111 0
M  V30 308 H 30.3889 -3.86312 3.11412 0
M  V30 309 N 29.562 -1.4872 -0.521534 0
M  V30 310 C 30.492 -1.66771 -1.63431 0
M  V30 311 C 31.473 -0.516499 -1.62069 0
M  V30 312 O 32.658 -0.750013 -1.79132 0
M  V30 313 C 29.788 -1.71515 -3.01993 0
M  V30 314 C 28.742 -2.86222 -3.18216 0
M  V30 315 C 28.068 -2.76061 -4.57924 0
M  V30 316 C 29.368 -4.27419 -3.00184 0
M  V30 317 H 31.062 -2.59932 -1.48579 0
M  V30 318 H 28.608 -1.25089 -0.713358 0
M  V30 319 H 30.561 -1.82731 -3.7972 0
M  V30 320 H 29.285 -0.749393 -3.17886 0
M  V30 321 H 27.944 -2.74575 -2.42908 0
M  V30 322 H 27.592 -1.77437 -4.70665 0
M  V30 323 H 27.292 -3.53037 -4.69722 0
M  V30 324 H 28.816 -2.89256 -5.37739 0
M  V30 325 H 30.23 -4.39855 -3.67697 0
M  V30 326 H 28.627 -5.05458 -3.2347 0
M  V30 327 H 29.697 -4.43293 -1.96518 0
M  V30 328 N 31.0401 0.771051 -1.3745 0
M  V30 329 C 32.0031 1.86598 -1.33093 0
M  V30 330 C 33.0031 1.59076 -0.234845 0
M  V30 331 O 34.1931 1.67145 -0.490732 0
M  V30 332 C 31.3251 3.23747 -1.06773 0
M  V30 333 H 32.5181 1.91873 -2.30488 0
M  V30 334 H 30.0711 0.970876 -1.2249 0
M  V30 335 H 30.8061 3.24148 -0.099129 0
M  V30 336 H 30.5911 3.45115 -1.86112 0
M  V30 337 H 32.0811 4.03824 -1.06377 0
M  V30 338 N 32.5182 1.22032 0.997298 0
M  V30 339 C 33.4652 0.986467 2.08656 0
M  V30 340 C 34.4352 -0.0902671 1.65855 0
M  V30 341 O 35.6202 0.0584294 1.90711 0
M  V30 342 C 32.7602 0.565569 3.40434 0
M  V30 343 C 31.8732 1.71259 3.96604 0
M  V30 344 C 31.0082 1.24011 5.16522 0
M  V30 345 C 30.0472 2.35896 5.64818 0
M  V30 346 N 29.1842 1.89726 6.7598 0
M  V30 347 H 34.0242 1.91892 2.27994 0
M  V30 348 H 31.5612 0.956199 1.11782 0
M  V30 349 H 33.5192 0.302738 4.161 0
M  V30 350 H 32.1492 -0.329879 3.2111 0
M  V30 351 H 31.2012 2.08986 3.17851 0
M  V30 352 H 32.5132 2.55436 4.28432 0
M  V30 353 H 31.6672 0.934395 5.99461 0
M  V30 354 H 30.4062 0.368487 4.86306 0
M  V30 355 H 29.4112 2.67261 4.8047 0
M  V30 356 H 30.6362 3.23567 5.97061 0
M  V30 357 H 28.5822 1.0492 6.47555 0
M  V30 358 H 28.4992 2.67471 7.07103 0
M  V30 359 H 29.7672 1.62211 7.62435 0
M  V30 360 N 33.9963 -1.19345 1.0293 0
M  V30 361 C 35.2363 -1.90738 0.734727 0
M  V30 362 C 35.6003 -1.7785 -0.723414 0
M  V30 363 O 36.8013 -2.43844 -1.13108 0
M  V30 364 C 35.0723 -3.37569 1.17396 0
M  V30 365 S 36.6313 -4.27176 1.00329 0
M  V30 366 H 33.4493 -0.658771 0.267474 0
M  V30 367 H 36.0513 -1.4428 1.31922 0
M  V30 368 H 34.7553 -3.44475 2.23081 0
M  V30 369 H 34.2863 -3.8906 0.582772 0
M  V30 370 H 36.3013 -4.96126 -0.0859152 0
M  V30 371 N 35.4744 -0.807222 -1.35358 0
M  V30 372 C 36.7204 -0.388463 -1.99045 0
M  V30 373 C 37.0534 1.04184 -1.63888 0
M  V30 374 O 36.3284 1.72292 -0.902535 0
M  V30 375 C 36.6114 -0.572783 -3.55515 0
M  V30 376 C 36.4644 -2.04807 -4.00468 0
M  V30 377 C 37.7834 0.00114064 -4.401 0
M  V30 378 H 34.9024 -0.142619 -0.723069 0
M  V30 379 H 37.5444 -1.01687 -1.60498 0
M  V30 380 H 35.6944 -0.0378425 -3.88482 0
M  V30 381 H 37.3664 -2.64544 -3.77908 0
M  V30 382 H 35.6094 -2.54427 -3.51353 0
M  V30 383 H 36.2804 -2.12792 -5.09337 0
M  V30 384 H 38.7564 -0.455716 -4.13597 0
M  V30 385 H 37.6324 -0.157737 -5.48673 0
M  V30 386 H 37.8934 1.09488 -4.28328 0
M  V30 387 N 36.9525 1.47285 -0.560781 0
M  V30 388 C 38.3685 1.58065 -0.22081 0
M  V30 389 C 38.5685 1.55892 1.27671 0
M  V30 390 O 37.6245 1.46422 2.0571 0
M  V30 391 C 38.9375 2.88418 -0.850625 0
M  V30 392 C 40.4855 3.02009 -0.822184 0
M  V30 393 C 40.9605 4.35066 -1.43113 0
M  V30 394 N 42.4515 4.41711 -1.39448 0
M  V30 395 C 43.1865 5.43237 -1.83525 0
M  V30 396 N 42.6825 6.51555 -2.35474 0
M  V30 397 N 44.4755 5.34304 -1.74574 0
M  V30 398 H 36.6265 1.46941 -1.53369 0
M  V30 399 H 38.8895 0.699558 -0.639783 0
M  V30 400 H 38.5955 2.95755 -1.9032 0
M  V30 401 H 38.4695 3.75612 -0.345773 0
M  V30 402 H 40.8565 2.94266 0.221714 0
M  V30 403 H 40.9375 2.16347 -1.36483 0
M  V30 404 H 40.5815 4.43565 -2.47412 0
M  V30 405 H 40.5115 5.19465 -0.863899 0
M  V30 406 H 43.0025 3.64027 -1.01452 0
M  V30 407 H 43.3155 7.25203 -2.67021 0
M  V30 408 H 41.6605 6.52435 -2.39487 0
M  V30 409 H 44.8515 4.48581 -1.33763 0
M  V30 410 H 45.0245 6.13288 -2.09242 0
M  V30 411 N 38.4306 0.297415 1.54768 0
M  V30 412 C 39.6776 -0.312913 2.00068 0
M  V30 413 C 40.0056 -1.54171 1.18582 0
M  V30 414 O 39.2606 -1.94108 0.249133 0
M  V30 415 C 39.5596 -0.717561 3.50123 0
M  V30 416 C 39.2256 0.409095 4.4904 0
M  V30 417 C 37.8876 0.718399 4.75807 0
M  V30 418 C 40.2396 1.16717 5.07963 0
M  V30 419 C 37.5676 1.78896 5.5876 0
M  V30 420 C 39.9196 2.22762 5.92081 0
M  V30 421 C 38.5836 2.54303 6.1716 0
M  V30 422 H 37.8536 -0.114503 0.7321 0
M  V30 423 H 40.5006 0.415767 1.86932 0
M  V30 424 H 38.8056 -1.52627 3.60849 0
M  V30 425 H 40.5026 -1.20091 3.82595 0
M  V30 426 H 37.0926 0.157918 4.28309 0
M  V30 427 H 41.2766 0.941466 4.87289 0
M  V30 428 H 36.5326 2.0381 5.7643 0
M  V30 429 H 40.7066 2.81962 6.36765 0
M  V30 430 H 38.3336 3.3739 6.81229 0
M  V30 431 N 39.9087 -1.5758 0.0250728 0
M  V30 432 C 41.1337 -1.96337 -0.668317 0
M  V30 433 C 41.5587 -0.901314 -1.651 0
M  V30 434 O 40.9167 0.138187 -1.80773 0
M  V30 435 C 40.9647 -3.34191 -1.35457 0
M  V30 436 O 40.0687 -3.30269 -2.46974 0
M  V30 437 H 39.4097 -0.640281 -0.175887 0
M  V30 438 H 41.9397 -2.0442 0.0857224 0
M  V30 439 H 41.9497 -3.70331 -1.71228 0
M  V30 440 H 40.6247 -4.11036 -0.634218 0
M  V30 441 H 39.2017 -3.05841 -2.13344 0
M  V30 442 N 41.3868 0.248026 -1.55636 0
M  V30 443 C 42.8028 0.596483 -1.48035 0
M  V30 444 C 43.0028 1.88386 -0.715039 0
M  V30 445 O 42.0588 2.51319 -0.243944 0
M  V30 446 C 43.3718 0.700258 -2.92433 0
M  V30 447 C 44.9198 0.792659 -3.02797 0
M  V30 448 C 45.3948 0.928005 -4.485 0
M  V30 449 N 46.8858 0.992903 -4.52433 0
M  V30 450 C 47.6208 1.11687 -5.62418 0
M  V30 451 N 47.1168 1.20645 -6.82214 0
M  V30 452 N 48.9098 1.14994 -5.50212 0
M  V30 453 H 41.0608 -0.597109 -2.03834 0
M  V30 454 H 43.3238 -0.205925 -0.925364 0
M  V30 455 H 43.0298 -0.175658 -3.51261 0
M  V30 456 H 42.9038 1.57255 -3.42857 0
M  V30 457 H 45.2908 1.65903 -2.4405 0
M  V30 458 H 45.3718 -0.104762 -2.55585 0
M  V30 459 H 45.0158 0.0661971 -5.07857 0
M  V30 460 H 44.9458 1.84045 -4.93391 0
M  V30 461 H 47.4368 0.935064 -3.66149 0
M  V30 462 H 47.7498 1.30008 -7.61786 0
M  V30 463 H 46.0948 1.17605 -6.84977 0
M  V30 464 H 49.2858 1.07643 -4.55555 0
M  V30 465 H 49.4588 1.24311 -6.35965 0
M  V30 466 N 42.8649 1.48995 0.513639 0
M  V30 467 C 44.1049 1.59452 1.27885 0
M  V30 468 C 44.4689 0.269479 1.90099 0
M  V30 469 O 45.6699 0.249139 2.67643 0
M  V30 470 C 43.9409 2.71277 2.32688 0
M  V30 471 S 45.4999 3.01604 3.18717 0
M  V30 472 H 42.3179 0.562565 0.434789 0
M  V30 473 H 44.9199 1.86595 0.583301 0
M  V30 474 H 43.6239 3.66089 1.8549 0
M  V30 475 H 43.1549 2.46086 3.06929 0
M  V30 476 H 45.1699 2.42155 4.331 0
M  V30 477 N 44.343 -0.763751 1.37857 0
M  V30 478 C 45.589 -1.52483 1.33704 0
M  V30 479 C 45.922 -1.94051 -0.0759612 0
M  V30 480 O 45.197 -1.64675 -1.03501 0
M  V30 481 C 45.48 -2.78441 2.28348 0
M  V30 482 C 45.333 -2.43075 3.78463 0
M  V30 483 C 46.652 -3.80415 2.21298 0
M  V30 484 H 43.771 -0.553169 0.487005 0
M  V30 485 H 46.413 -0.875562 1.68624 0
M  V30 486 H 44.563 -3.33842 1.987 0
M  V30 487 H 46.235 -1.93527 4.18742 0
M  V30 488 H 44.478 -1.75666 3.96641 0
M  V30 489 H 45.149 -3.33149 4.40132 0
M  V30 490 H 47.625 -3.34527 2.47449 0
M  V30 491 H 46.501 -4.66257 2.89647 0
M  V30 492 H 46.762 -4.25262 1.20849 0
M  V30 493 N 45.8211 -1.22559 -0.990812 0
M  V30 494 C 46.7511 -1.0218 -2.09956 0
M  V30 495 C 47.7321 0.0579394 -1.70001 0
M  V30 496 O 48.9171 -0.104684 -1.93918 0
M  V30 497 C 46.0471 -0.601023 -3.4206 0
M  V30 498 C 45.0011 -1.62694 -3.95872 0
M  V30 499 C 44.3271 -1.06193 -5.24049 0
M  V30 500 C 45.6271 -3.01743 -4.2632 0
M  V30 501 H 47.3211 -1.94916 -2.27262 0
M  V30 502 H 44.8671 -0.938566 -1.09211 0
M  V30 503 H 46.8201 -0.445561 -4.19038 0
M  V30 504 H 45.5441 0.362005 -3.24588 0
M  V30 505 H 44.2031 -1.77021 -3.21028 0
M  V30 506 H 43.8511 -0.0901903 -5.02919 0
M  V30 507 H 43.5511 -1.74732 -5.61019 0
M  V30 508 H 45.0751 -0.918092 -6.03658 0
M  V30 509 H 46.4891 -2.90777 -4.94087 0
M  V30 510 H 44.8861 -3.67425 -4.74467 0
M  V30 511 H 45.9561 -3.51518 -3.34011 0
M  V30 512 N 47.2992 1.18797 -1.03562 0
M  V30 513 C 48.2292 2.24472 -0.643019 0
M  V30 514 C 49.2102 1.66433 0.351283 0
M  V30 515 O 50.3952 1.92803 0.232505 0
M  V30 516 C 47.5252 3.473 4.24935e-05 0
M  V30 517 C 46.4792 4.18055 -0.917257 0
M  V30 518 C 45.8052 5.34519 -0.138941 0
M  V30 519 C 47.1052 4.72109 -2.23407 0
M  V30 520 H 48.7992 2.57566 -1.52643 0
M  V30 521 H 46.3452 1.23806 -0.735394 0
M  V30 522 H 48.2982 4.20426 0.286383 0
M  V30 523 H 47.0222 3.13424 0.918299 0
M  V30 524 H 45.6812 3.46821 -1.1879 0
M  V30 525 H 45.3292 4.96891 0.781562 0
M  V30 526 H 45.0292 5.82794 -0.750005 0
M  V30 527 H 46.5532 6.10438 0.1405 0
M  V30 528 H 47.9672 5.36955 -2.00879 0
M  V30 529 H 46.3642 5.30897 -2.79765 0
M  V30 530 H 47.4342 3.89807 -2.88407 0
M  V30 531 N 48.7773 0.814389 1.34928 0
M  V30 532 C 49.7253 0.218424 2.31572 0
M  V30 533 C 50.7193 -0.636128 1.57002 0
M  V30 534 O 51.9253 -0.52842 1.72069 0
M  V30 535 H 48.3003 0.0518799 0.750208 0
M  V30 536 H 50.2713 1.04852 2.79372 0
M  V30 537 C 49.0203 -0.61207 3.4227 0
M  V30 538 H 48.3433 0.0361578 3.99784 0
M  V30 539 H 49.7833 -0.995317 4.12152 0
M  V30 540 C 48.2423 -1.78087 2.85984 0
M  V30 541 O 48.7723 -2.8787 2.80168 0
M  V30 542 N 46.9783 -1.59488 2.42924 0
M  V30 543 H 46.5253 -0.701874 2.47854 0
M  V30 544 H 46.4833 -2.37846 2.05613 0
M  V30 545 N 50.2554 -1.46986 0.568584 0
M  V30 546 C 51.4854 -2.0653 0.0539173 0
M  V30 547 C 51.8934 -1.42004 -1.25026 0
M  V30 548 O 51.2364 -0.514541 -1.76347 0
M  V30 549 C 51.2984 -3.58938 -0.200854 0
M  V30 550 C 50.9624 -4.45572 1.01559 0
M  V30 551 C 51.9594 -4.82986 1.92407 0
M  V30 552 C 49.6444 -4.8692 1.23346 0
M  V30 553 C 51.6384 -5.60559 3.03402 0
M  V30 554 C 49.3254 -5.64255 2.34649 0
M  V30 555 C 50.3234 -6.00986 3.24507 0
M  V30 556 O 50.0114 -6.76761 4.33878 0
M  V30 557 H 49.7434 -0.674292 0.0480234 0
M  V30 558 H 52.2974 -1.89812 0.784896 0
M  V30 559 H 50.5274 -3.73911 -0.986279 0
M  V30 560 H 52.2164 -4.0046 -0.662294 0
M  V30 561 H 52.9824 -4.51633 1.76785 0
M  V30 562 H 48.8614 -4.57789 0.543178 0
M  V30 563 H 52.4054 -5.89147 3.73565 0
M  V30 564 H 48.3024 -5.95021 2.5024 0
M  V30 565 H 49.0704 -6.95168 4.32068 0
M  V30 566 N 51.7335 -0.305618 -1.54608 0
M  V30 567 C 52.9795 0.295595 -2.01241 0
M  V30 568 C 53.3345 1.51171 -1.19018 0
M  V30 569 O 52.6275 1.89832 -0.259684 0
M  V30 570 C 52.8215 0.698983 -3.50498 0
M  V30 571 C 52.6505 -0.476491 -4.47168 0
M  V30 572 C 51.4205 -0.969963 -4.95903 0
M  V30 573 C 53.6185 -1.32294 -4.96994 0
M  V30 574 N 51.6005 -2.11172 -5.76437 0
M  V30 575 C 52.9715 -2.31212 -5.75275 0
M  V30 576 C 55.0265 -1.35278 -4.7917 0
M  V30 577 C 53.7295 -3.32896 -6.37631 0
M  V30 578 C 55.7555 -2.35823 -5.42348 0
M  V30 579 C 55.1175 -3.33469 -6.20466 0
M  V30 580 H 51.2165 0.0724992 -0.778632 0
M  V30 581 H 53.8005 -0.436583 -1.89742 0
M  V30 582 H 51.9715 1.40032 -3.62278 0
M  V30 583 H 53.7035 1.28013 -3.8392 0
M  V30 584 H 50.4585 -0.544178 -4.70463 0
M  V30 585 H 50.8825 -2.68714 -6.21387 0
M  V30 586 H 55.5245 -0.61157 -4.18354 0
M  V30 587 H 53.2425 -4.07933 -6.97579 0
M  V30 588 H 56.8285 -2.38911 -5.30484 0
M  V30 589 H 55.7085 -4.09996 -6.68485 0
M  V30 590 N 53.2116 1.57565 -0.0334293 0
M  V30 591 C 54.1586 2.10478 0.946981 0
M  V30 592 C 55.1286 1.00787 1.32027 0
M  V30 593 O 56.3136 1.28232 1.41284 0
M  V30 594 C 53.4536 2.63994 2.22263 0
M  V30 595 C 52.5666 3.87709 1.90541 0
M  V30 596 C 51.7016 4.29604 3.12433 0
M  V30 597 C 50.7406 5.46065 2.76549 0
M  V30 598 N 49.8776 5.83096 3.9108 0
M  V30 599 H 54.7176 2.93963 0.488846 0
M  V30 600 H 52.2546 1.45296 0.22969 0
M  V30 601 H 54.2126 2.93114 2.96884 0
M  V30 602 H 52.8426 1.83333 2.65685 0
M  V30 603 H 51.8946 3.65291 1.06144 0
M  V30 604 H 53.2066 4.72403 1.60116 0
M  V30 605 H 52.3606 4.60182 3.9537 0
M  V30 606 H 51.0996 3.43685 3.46023 0
M  V30 607 H 50.1046 5.15176 1.92026 0
M  V30 608 H 51.3296 6.33685 2.44171 0
M  V30 609 H 49.2756 5.00132 4.24504 0
M  V30 610 H 49.1926 6.6244 3.64293 0
M  V30 611 H 50.4606 6.18282 4.74708 0
M  V30 612 N 54.6897 -0.239769 1.55765 0
M  V30 613 C 55.9357 -0.968234 1.78194 0
M  V30 614 C 56.2687 -1.84701 0.599938 0
M  V30 615 O 55.5437 -1.9031 -0.401524 0
M  V30 616 C 55.8267 -1.8227 3.10564 0
M  V30 617 C 55.6797 -0.971633 4.3918 0
M  V30 618 C 56.9987 -2.80388 3.39221 0
M  V30 619 H 54.1177 -0.350572 0.648281 0
M  V30 620 H 56.7597 -0.238259 1.885 0
M  V30 621 H 54.9097 -2.44507 3.01908 0
M  V30 622 H 56.5817 -0.367408 4.59835 0
M  V30 623 H 54.8247 -0.276276 4.32919 0
M  V30 624 H 55.4957 -1.60346 5.28198 0
M  V30 625 H 57.9717 -2.28287 3.47885 0
M  V30 626 H 56.8477 -3.3729 4.33044 0
M  V30 627 H 57.1087 -3.57212 2.60484 0
M  V30 628 N 56.1678 -1.49265 -0.50573 0
M  V30 629 C 57.0978 -1.68495 -1.61653 0
M  V30 630 C 58.0788 -0.53366 -1.61512 0
M  V30 631 O 59.2638 -0.76897 -1.78327 0
M  V30 632 C 56.3938 -1.74709 -3.00157 0
M  V30 633 C 55.3478 -2.89581 -3.15162 0
M  V30 634 C 54.6738 -2.80903 -4.5497 0
M  V30 635 C 55.9738 -4.30578 -2.95634 0
M  V30 636 H 57.6678 -2.61493 -1.45814 0
M  V30 637 H 55.2138 -1.25838 -0.70005 0
M  V30 638 H 57.1668 -1.86748 -3.77761 0
M  V30 639 H 55.8908 -0.783067 -3.17074 0
M  V30 640 H 54.5498 -2.77136 -2.39982 0
M  V30 641 H 54.1978 -1.82419 -4.68756 0
M  V30 642 H 53.8978 -3.57999 -4.65951 0
M  V30 643 H 55.4218 -2.94944 -5.34641 0
M  V30 644 H 56.8358 -4.4373 -3.63011 0
M  V30 645 H 55.2328 -5.0886 -3.18091 0
M  V30 646 H 56.3028 -4.45352 -1.91806 0
M  V30 647 N 57.6459 0.756429 -1.3826 0
M  V30 648 C 59.0569 1.33359 -1.30661 0
M  V30 649 C 59.4079 1.96161 0.0388875 0
M  V30 650 O 58.5329 1.94874 0.940918 0
M  V30 651 C 59.1279 2.42477 -2.36622 0
M  V30 652 C 57.6869 2.95922 -2.3261 0
M  V30 653 C 56.8339 1.69275 -2.19639 0
M  V30 654 H 59.7849 0.55552 -1.4866 0
M  V30 655 H 59.8059 3.22345 -2.02174 0
M  V30 656 H 59.3179 1.96739 -3.34538 0
M  V30 657 H 57.4189 3.45996 -1.38267 0
M  V30 658 H 57.5319 3.50494 -3.26636 0
M  V30 659 H 55.8959 1.92793 -1.66442 0
M  V30 660 H 56.6789 1.25619 -3.19491 0
M  V30 661 N 59.124 1.23083 0.984299 0
M  V30 662 C 60.071 1.00854 2.07598 0
M  V30 663 C 61.041 -0.0726709 1.65941 0
M  V30 664 O 62.226 0.0786535 1.90638 0
M  V30 665 C 59.366 0.601645 3.39815 0
M  V30 666 C 58.479 1.75456 3.94765 0
M  V30 667 C 57.614 1.29482 5.15177 0
M  V30 668 C 56.653 2.41873 5.62284 0
M  V30 669 N 55.79 1.96885 6.73929 0
M  V30 670 H 60.63 1.943 2.25946 0
M  V30 671 H 58.167 0.968001 1.10762 0
M  V30 672 H 60.125 0.346854 4.15756 0
M  V30 673 H 58.755 -0.295803 3.21442 0
M  V30 674 H 57.807 2.12346 3.15616 0
M  V30 675 H 59.119 2.59965 4.25699 0
M  V30 676 H 58.273 0.997923 5.98437 0
M  V30 677 H 57.012 0.420046 4.85888 0
M  V30 678 H 56.017 2.72342 4.77608 0
M  V30 679 H 57.242 3.29881 5.93595 0
M  V30 680 H 55.188 1.11782 6.46406 0
M  V30 681 H 55.105 2.74956 7.04227 0
M  V30 682 H 56.373 1.70289 7.60672 0
M  V30 683 N 60.6021 -1.18246 1.0419 0
M  V30 684 C 61.8271 -1.92736 0.765996 0
M  V30 685 C 62.2521 -1.75728 -0.67091 0
M  V30 686 O 61.6101 -1.06825 -1.46486 0
M  V30 687 C 61.6581 -3.42148 1.13875 0
M  V30 688 O 60.7621 -4.11548 0.264954 0
M  V30 689 H 60.1031 -0.601238 0.281797 0
M  V30 690 H 62.6331 -1.49942 1.39207 0
M  V30 691 H 62.6431 -3.92858 1.1012 0
M  V30 692 H 61.3181 -3.53848 2.18551 0
M  V30 693 H 59.8951 -3.71137 0.362226 0
M  V30 694 N 62.0802 -0.821533 -1.34494 0
M  V30 695 C 63.3272 -0.408946 -1.98328 0
M  V30 696 C 63.6552 1.02764 -1.65136 0
M  V30 697 O 62.9102 1.73026 -0.914349 0
M  V30 698 C 63.2092 -0.556512 -3.53041 0
M  V30 699 C 62.8752 -1.95861 -4.0614 0
M  V30 700 C 61.5372 -2.34217 -4.20352 0
M  V30 701 C 63.8892 -2.87523 -4.34718 0
M  V30 702 C 61.2172 -3.63572 -4.6047 0
M  V30 703 C 63.5692 -4.1634 -4.76281 0
M  V30 704 C 62.2332 -4.54675 -4.88699 0
M  V30 705 H 61.5032 -0.149644 -0.725732 0
M  V30 706 H 64.1502 -1.04521 -1.6046 0
M  V30 707 H 62.4552 0.163148 -3.9146 0
M  V30 708 H 64.1522 -0.217826 -4.00408 0
M  V30 709 H 60.7422 -1.65066 -3.95539 0
M  V30 710 H 64.9262 -2.59133 -4.23277 0
M  V30 711 H 60.1822 -3.93101 -4.68275 0
M  V30 712 H 64.3562 -4.87455 -4.97354 0
M  V30 713 H 61.9832 -5.54959 -5.19542 0
M  V30 714 N 63.5583 1.46682 -0.576371 0
M  V30 715 C 64.4883 2.33028 0.148397 0
M  V30 716 C 65.4693 1.44961 0.889956 0
M  V30 717 O 66.6543 1.73789 0.866662 0
M  V30 718 C 63.7843 3.27117 1.1667 0
M  V30 719 C 62.7383 4.24575 0.540386 0
M  V30 720 C 62.0643 5.08126 1.6647 0
M  V30 721 C 63.3643 5.19722 -0.518331 0
M  V30 722 H 65.0583 2.93875 -0.572509 0
M  V30 723 H 62.6043 1.41315 -0.276768 0
M  V30 724 H 64.5573 3.86374 1.68204 0
M  V30 725 H 63.2813 2.64364 1.9178 0
M  V30 726 H 61.9403 3.66571 0.0461769 0
M  V30 727 H 61.5883 4.41762 2.40531 0
M  V30 728 H 61.2883 5.74122 1.25131 0
M  V30 729 H 62.8123 5.70246 2.18293 0
M  V30 730 H 64.2263 5.73232 -0.0883058 0
M  V30 731 H 62.6233 5.94026 -0.851679 0
M  V30 732 H 63.6933 4.64037 -1.40703 0
M  V30 733 N 65.0364 0.313813 1.54444 0
M  V30 734 C 66.4524 -0.0391619 1.59552 0
M  V30 735 C 66.6524 -1.51322 1.33056 0
M  V30 736 O 65.7084 -2.26782 1.11022 0
M  V30 737 C 67.0214 0.370302 2.98411 0
M  V30 738 C 68.5694 0.320139 3.11358 0
M  V30 739 C 69.0444 0.704617 4.52547 0
M  V30 740 N 70.5354 0.657645 4.58508 0
M  V30 741 C 71.2704 0.927453 5.6585 0
M  V30 742 N 70.7664 1.26389 6.81174 0
M  V30 743 N 72.5594 0.853662 5.5558 0
M  V30 744 H 64.7104 1.27433 1.69925 0
M  V30 745 H 66.9734 0.517511 0.794284 0
M  V30 746 H 66.6794 1.39694 3.22767 0
M  V30 747 H 66.5534 -0.269619 3.76235 0
M  V30 748 H 68.9404 -0.697275 2.86744 0
M  V30 749 H 69.0214 0.99486 2.35661 0
M  V30 750 H 68.6654 1.7199 4.77893 0
M  V30 751 H 68.5954 0.00768843 5.26599 0
M  V30 752 H 71.0864 0.409067 3.75679 0
M  V30 753 H 71.3994 1.4554 7.58972 0
M  V30 754 H 69.7444 1.30206 6.82694 0
M  V30 755 H 72.9354 0.590383 4.64362 0
M  V30 756 H 73.1084 1.0673 6.3915 0
M  V30 757 N 66.5145 -1.57545 0.0417849 0
M  V30 758 C 67.7395 -1.97035 -0.647455 0
M  V30 759 C 68.1645 -0.918775 -1.64135 0
M  V30 760 O 67.5225 0.119006 -1.80909 0
M  V30 761 C 67.5705 -3.35609 -1.31905 0
M  V30 762 O 66.6745 -3.3287 -2.43457 0
M  V30 763 H 66.0155 -0.64211 -0.169086 0
M  V30 764 H 68.5455 -2.04318 0.107399 0
M  V30 765 H 68.5555 -3.72126 -1.67291 0
M  V30 766 H 67.2305 -4.11685 -0.590586 0
M  V30 767 H 65.8075 -3.08087 -2.10088 0
M  V30 768 N 67.9926 0.231505 -1.5589 0
M  V30 769 C 68.9256 1.31369 -1.86595 0
M  V30 770 C 69.9036 1.45671 -0.722397 0
M  V30 771 O 71.0876 1.61642 -0.969743 0
M  V30 772 C 68.2146 2.68529 -2.06421 0
M  V30 773 C 67.2606 2.71295 -3.29092 0
M  V30 774 S 68.0936 2.26358 -4.85306 0
M  V30 775 C 69.2496 3.65414 -5.08157 0
M  V30 776 H 69.4826 1.05128 -2.78092 0
M  V30 777 H 67.0156 0.433259 -1.48197 0
M  V30 778 H 68.9736 3.47499 -2.18528 0
M  V30 779 H 67.6346 2.91999 -1.15738 0
M  V30 780 H 66.8276 3.72063 -3.39978 0
M  V30 781 H 66.4296 2.0038 -3.15791 0
M  V30 782 H 68.7216 4.6103 -4.96445 0
M  V30 783 H 69.6646 3.5945 -6.10083 0
M  V30 784 H 70.0726 3.5864 -4.35933 0
M  V30 785 N 69.4707 1.49531 0.497807 0
M  V30 786 C 70.7187 1.58865 1.24926 0
M  V30 787 C 71.0397 0.278721 1.92998 0
M  V30 788 O 70.3097 -0.702144 1.82885 0
M  V30 789 H 68.8897 0.585343 0.464094 0
M  V30 790 H 71.5517 1.86174 0.57666 0
M  V30 791 H 70.6477 2.38633 2.01149 0
M  V30 792 N 70.9488 -0.749086 1.3866 0
M  V30 793 C 71.8808 -1.87273 1.32142 0
M  V30 794 C 72.8938 -1.61127 0.232787 0
M  V30 795 O 74.0828 -1.71623 0.49069 0
M  V30 796 C 71.1828 -3.23005 1.02571 0
M  V30 797 C 70.3558 -3.7662 2.22433 0
M  V30 798 C 69.4148 -4.90879 1.89537 0
M  V30 799 O 68.4408 -5.05276 2.62078 0
M  V30 800 N 69.6428 -5.74198 0.853031 0
M  V30 801 H 72.4078 -1.93373 2.28969 0
M  V30 802 H 69.9688 -0.929216 1.32579 0
M  V30 803 H 71.9608 -3.96992 0.786085 0
M  V30 804 H 70.5308 -3.12262 0.145249 0
M  V30 805 H 69.7508 -2.94147 2.62434 0
M  V30 806 H 71.0388 -4.09173 3.02415 0
M  V30 807 H 70.4368 -5.6514 0.25155 0
M  V30 808 H 68.9938 -6.48313 0.67329 0
M  V30 809 N 72.4269 -1.23603 -0.977757 0
M  V30 810 C 73.6729 -1.08136 -1.72274 0
M  V30 811 C 74.0279 0.377453 -1.88661 0
M  V30 812 O 73.3209 1.27552 -1.42972 0
M  V30 813 C 73.5149 -1.7433 -3.11999 0
M  V30 814 C 73.3439 -3.26498 -3.0924 0
M  V30 815 C 72.1139 -3.9567 -3.14282 0
M  V30 816 C 74.3119 -4.2323 -2.92201 0
M  V30 817 N 72.2939 -5.34799 -3.01436 0
M  V30 818 C 73.6649 -5.49289 -2.87544 0
M  V30 819 C 75.7199 -4.13931 -2.76705 0
M  V30 820 C 74.4229 -6.67116 -2.68978 0
M  V30 821 C 76.4489 -5.31424 -2.59504 0
M  V30 822 C 75.8109 -6.5641 -2.55548 0
M  V30 823 H 71.9099 -0.450247 -0.639376 0
M  V30 824 H 74.4939 -1.5637 -1.16002 0
M  V30 825 H 72.6649 -1.28624 -3.66484 0
M  V30 826 H 74.3969 -1.51815 -3.75146 0
M  V30 827 H 71.1519 -3.46767 -3.22567 0
M  V30 828 H 71.5759 -6.07748 -2.98281 0
M  V30 829 H 76.2179 -3.1807 -2.78552 0
M  V30 830 H 73.9359 -7.63109 -2.65876 0
M  V30 831 H 77.5219 -5.26072 -2.48474 0
M  V30 832 H 76.4019 -7.45795 -2.42405 0
M  V30 833 N 73.905 1.17692 -1.04816 0
M  V30 834 C 74.868 2.19787 -0.650117 0
M  V30 835 C 75.868 1.58044 0.296427 0
M  V30 836 O 77.058 1.74012 0.0808097 0
M  V30 837 C 74.19 3.40869 0.0456987 0
M  V30 838 H 75.383 2.56516 -1.5537 0
M  V30 839 H 72.936 1.31708 -0.841594 0
M  V30 840 H 73.671 3.09681 0.962726 0
M  V30 841 H 73.456 3.86928 -0.634727 0
M  V30 842 H 74.946 4.16445 0.310432 0
M  V30 843 N 75.3831 0.828654 1.34056 0
M  V30 844 C 76.6291 0.42008 1.98402 0
M  V30 845 C 76.9621 -1.01564 1.65525 0
M  V30 846 O 76.2371 -1.70834 0.929831 0
M  V30 847 C 76.5201 0.62927 3.54559 0
M  V30 848 C 76.3731 2.11152 3.97159 0
M  V30 849 C 77.6921 0.0688756 4.40046 0
M  V30 850 H 74.8111 0.154104 0.720709 0
M  V30 851 H 77.4531 1.04228 1.5886 0
M  V30 852 H 75.6031 0.0996418 3.88372 0
M  V30 853 H 77.2751 2.70522 3.73651 0
M  V30 854 H 75.5181 2.59985 3.47261 0
M  V30 855 H 76.1891 2.20868 5.05887 0
M  V30 856 H 78.6651 0.521458 4.1282 0
M  V30 857 H 77.5411 0.245006 5.48353 0
M  V30 858 H 77.8021 -1.0266 4.30015 0
M  V30 859 N 76.8612 -1.46375 0.584142 0
M  V30 860 C 78.1102 -2.01585 0.0679741 0
M  V30 861 C 78.4232 -1.46109 -1.30045 0
M  V30 862 O 79.6292 -1.93148 -1.90804 0
M  V30 863 C 78.0852 -3.5983 0.0709207 0
M  V30 864 C 77.6932 -4.24303 1.43775 0
M  V30 865 C 79.4372 -4.22693 -0.391228 0
M  V30 866 C 77.3442 -5.74631 1.39834 0
M  V30 867 H 76.2742 -0.753689 0.0216421 0
M  V30 868 H 78.9252 -1.68093 0.736001 0
M  V30 869 H 77.3072 -3.90405 -0.663299 0
M  V30 870 H 78.4812 -4.05335 2.19181 0
M  V30 871 H 76.7962 -3.73539 1.84004 0
M  V30 872 H 79.3932 -5.3289 -0.439524 0
M  V30 873 H 79.7362 -3.91728 -1.40906 0
M  V30 874 H 80.2692 -3.96749 0.288974 0
M  V30 875 H 77.0082 -6.10258 2.39303 0
M  V30 876 H 76.5282 -5.95858 0.686505 0
M  V30 877 H 78.2072 -6.37375 1.11187 0
M  V30 878 N 78.3393 -0.321999 -1.54275 0
M  V30 879 C 79.5673 0.283052 -2.04955 0
M  V30 880 C 79.9823 1.45904 -1.19823 0
M  V30 881 O 79.3393 1.81063 -0.228545 0
M  V30 882 C 79.3903 0.719028 -3.54277 0
M  V30 883 O 79.1113 -0.410175 -4.36176 0
M  V30 884 C 80.6123 1.38705 -4.21041 0
M  V30 885 H 77.8323 0.0584616 -0.668448 0
M  V30 886 H 80.3763 -0.467734 -1.99079 0
M  V30 887 H 78.5313 1.41979 -3.60445 0
M  V30 888 H 78.9453 -0.0669416 -5.24457 0
M  V30 889 H 80.4193 1.64306 -5.2698 0
M  V30 890 H 80.8963 2.33385 -3.72059 0
M  V30 891 H 81.5023 0.728906 -4.19007 0
M  V30 892 N 79.8174 1.5752 -0.0501392 0
M  V30 893 C 81.0654 1.9227 0.622642 0
M  V30 894 C 81.3864 0.929083 1.71444 0
M  V30 895 O 80.6564 -0.0262186 1.95882 0
M  V30 896 H 79.2364 0.709739 0.232981 0
M  V30 897 H 81.8984 1.94628 -0.102898 0
M  V30 898 H 80.9944 2.93479 1.06191 0
M  V30 899 N 81.2955 -0.223234 1.56011 0
M  V30 900 C 82.2585 -1.26014 1.9145 0
M  V30 901 C 83.2585 -1.3989 0.792937 0
M  V30 902 O 84.4485 -1.38184 1.0607 0
M  V30 903 C 81.5805 -2.63422 2.16383 0
M  V30 904 H 82.7735 -0.95796 2.84189 0
M  V30 905 H 80.3265 -0.463576 1.49267 0
M  V30 906 H 81.0615 -2.98741 1.2619 0
M  V30 907 H 80.8465 -2.54728 2.98088 0
M  V30 908 H 82.3365 -3.38249 2.44903 0
M  V30 909 N 82.7736 -1.49793 -0.48987 0
M  V30 910 C 84.0216 -1.59525 -1.24081 0
M  V30 911 C 84.3426 -0.288953 -1.92847 0
M  V30 912 O 83.6126 0.692436 -1.83254 0
M  V30 913 H 82.1926 -0.587796 -0.460983 0
M  V30 914 H 84.8546 -1.86477 -0.566778 0
M  V30 915 H 83.9506 -2.39696 -1.99881 0
M  V30 916 N 84.2517 0.741722 -1.39055 0
M  V30 917 C 85.5287 1.49252 -1.26425 0
M  V30 918 C 85.9087 2.10705 0.129144 0
M  V30 919 O 85.2567 1.98045 1.13976 0
M  V30 920 C 85.4667 2.54934 -2.38347 0
M  V30 921 C 86.8147 3.21506 -2.77343 0
M  V30 922 O 87.8387 2.65245 -2.37747 0
M  V30 923 O 86.6977 4.23294 -3.45665 0
M  V30 924 H 83.7917 0.662451 -0.495064 0
M  V30 925 H 86.3377 0.776121 -1.50912 0
M  V30 926 H 85.1097 2.07857 -3.31529 0
M  V30 927 H 84.7327 3.34141 -2.15489 0
M  V30 928 N 85.7298 1.2412 0.971189 0
M  V30 929 C 86.9778 1.07668 1.71032 0
M  V30 930 C 87.2988 -0.385797 1.91146 0
M  V30 931 O 86.5688 -1.27569 1.4867 0
M  V30 932 H 85.1488 0.395429 0.633755 0
M  V30 933 H 87.8108 1.55984 1.16855 0
M  V30 934 H 86.9068 1.57195 2.69622 0
M  V30 935 N 87.2079 -1.17134 1.05439 0
M  V30 936 C 88.4569 -1.86791 0.761049 0
M  V30 937 C 88.7699 -1.82072 -0.714795 0
M  V30 938 O 89.9759 -2.47223 -1.12218 0
M  V30 939 C 88.4319 -3.35166 1.31117 0
M  V30 940 C 88.0399 -3.48381 2.81664 0
M  V30 941 C 89.7839 -4.10134 1.09499 0
M  V30 942 C 87.6909 -4.90793 3.29964 0
M  V30 943 H 86.6209 -0.699681 0.281002 0
M  V30 944 H 89.2719 -1.3226 1.27199 0
M  V30 945 H 87.6539 -3.8925 0.72803 0
M  V30 946 H 88.8279 -3.04502 3.45855 0
M  V30 947 H 87.1429 -2.86836 3.01851 0
M  V30 948 H 89.7399 -5.152 1.43084 0
M  V30 949 H 90.0829 -4.16287 0.0328772 0
M  V30 950 H 90.6159 -3.62264 1.64346 0
M  V30 951 H 87.3549 -4.89816 4.35616 0
M  V30 952 H 86.8749 -5.35333 2.70516 0
M  V30 953 H 88.5539 -5.59573 3.24787 0
M  V30 954 N 88.686 -0.835752 -1.33615 0
M  V30 955 C 89.934 -0.429109 -1.97492 0
M  V30 956 C 90.255 1.01433 -1.66543 0
M  V30 957 O 89.525 1.70611 -0.962744 0
M  V30 958 H 88.105 -0.155686 -0.730596 0
M  V30 959 H 90.767 -1.06802 -1.63031 0
M  V30 960 H 89.863 -0.55861 -3.0706 0
M  V30 961 N 90.1641 1.46063 -0.591896 0
M  V30 962 C 91.1111 2.30399 0.136069 0
M  V30 963 C 92.0811 1.41169 0.875238 0
M  V30 964 O 93.2661 1.70112 0.86409 0
M  V30 965 C 90.4061 3.25804 1.13781 0
M  V30 966 C 89.5191 4.30134 0.401137 0
M  V30 967 C 88.6541 5.12659 1.39121 0
M  V30 968 C 87.6931 6.0873 0.641462 0
M  V30 969 N 86.8301 6.8409 1.58004 0
M  V30 970 H 91.6701 2.92118 -0.589144 0
M  V30 971 H 89.2071 1.43959 -0.302342 0
M  V30 972 H 91.1651 3.79569 1.73156 0
M  V30 973 H 89.7951 2.65872 1.83062 0
M  V30 974 H 88.8471 3.79152 -0.307826 0
M  V30 975 H 90.1591 4.98458 -0.184565 0
M  V30 976 H 89.3131 5.70747 2.05749 0
M  V30 977 H 88.0521 4.44316 2.01084 0
M  V30 978 H 87.0571 5.49786 -0.0385419 0
M  V30 979 H 88.2821 6.79095 0.0270945 0
M  V30 980 H 86.2281 6.18449 2.18761 0
M  V30 981 H 86.1451 7.48709 1.04738 0
M  V30 982 H 87.4131 7.4673 2.23639 0
M  V30 983 N 91.6422 0.330177 1.54103 0
M  V30 984 C 92.6052 -0.520144 2.2322 0
M  V30 985 C 93.6052 -1.03828 1.22786 0
M  V30 986 O 94.7952 -0.929652 1.4732 0
M  V30 987 C 91.9272 -1.72317 2.94142 0
M  V30 988 H 93.1202 0.0841605 2.99782 0
M  V30 989 H 90.6732 0.0813433 1.56088 0
M  V30 990 H 91.4082 -2.36653 2.21734 0
M  V30 991 H 91.1932 -1.35898 3.67796 0
M  V30 992 H 92.6832 -2.3266 3.46784 0
M  V30 993 N 93.1203 -1.57491 0.0584922 0
M  V30 994 C 94.3503 -1.9701 -0.622134 0
M  V30 995 C 94.7583 -0.935034 -1.6448 0
M  V30 996 O 94.1013 0.0882904 -1.83488 0
M  V30 997 C 94.1633 -3.32794 -1.35972 0
M  V30 998 C 93.8273 -4.54343 -0.492043 0
M  V30 999 C 94.8243 -5.19323 0.244901 0
M  V30 1000 C 92.5093 -5.00534 -0.420821 0
M  V30 1001 C 94.5033 -6.28835 1.04143 0
M  V30 1002 C 92.1903 -6.09921 0.379389 0
M  V30 1003 C 93.1883 -6.73933 1.10919 0
M  V30 1004 O 92.8763 -7.81216 1.89623 0
M  V30 1005 H 92.6083 -0.653127 -0.174359 0
M  V30 1006 H 95.1623 -2.05029 0.123418 0
M  V30 1007 H 93.3923 -3.21351 -2.15105 0
M  V30 1008 H 95.0813 -3.5701 -1.93129 0
M  V30 1009 H 95.8473 -4.8459 0.19939 0
M  V30 1010 H 91.7263 -4.50496 -0.978474 0
M  V30 1011 H 95.2703 -6.7873 1.61157 0
M  V30 1012 H 91.1673 -6.44089 0.426512 0
M  V30 1013 H 91.9353 -7.98029 1.81913 0
M  V30 1014 N 94.5984 0.214957 -1.56127 0
M  V30 1015 C 95.8234 0.95924 -1.83884 0
M  V30 1016 C 96.2484 1.7689 -0.639644 0
M  V30 1017 O 95.6064 1.76566 0.411601 0
M  V30 1018 C 95.6544 1.84723 -3.09693 0
M  V30 1019 O 94.7584 2.94346 -2.8885 0
M  V30 1020 H 94.0994 0.27125 -0.606069 0
M  V30 1021 H 96.6294 0.226276 -2.03345 0
M  V30 1022 H 96.6394 2.25576 -3.39969 0
M  V30 1023 H 95.3144 1.25218 -3.96602 0
M  V30 1024 H 93.8914 2.57391 -2.69823 0
M  V30 1025 N 96.0765 1.50051 0.48192 0
M  V30 1026 C 97.3235 1.60498 1.23477 0
M  V30 1027 C 97.6515 0.300331 1.92167 0
M  V30 1028 O 96.9065 -0.713094 1.82246 0
M  V30 1029 C 97.2055 2.72717 2.30998 0
M  V30 1030 C 96.8715 4.13572 1.79636 0
M  V30 1031 C 95.5335 4.519 1.65348 0
M  V30 1032 C 97.8855 5.01649 1.41412 0
M  V30 1033 C 95.2135 5.76057 1.11244 0
M  V30 1034 C 97.5655 6.26343 0.887538 0
M  V30 1035 C 96.2295 6.63483 0.731207 0
M  V30 1036 H 95.4995 0.587303 0.451836 0
M  V30 1037 H 98.1465 1.83948 0.532468 0
M  V30 1038 H 96.4515 2.43312 3.07094 0
M  V30 1039 H 98.1485 2.78006 2.88988 0
M  V30 1040 H 94.7385 3.83329 1.91721 0
M  V30 1041 H 98.9225 4.72679 1.51289 0
M  V30 1042 H 94.1785 6.03516 0.978686 0
M  V30 1043 H 98.3525 6.93958 0.582654 0
M  V30 1044 H 95.9795 7.59568 0.309806 0
M  V30 1045 N 97.5546 -0.734337 1.39446 0
M  V30 1046 C 98.4646 -1.87879 1.40495 0
M  V30 1047 C 99.4806 -1.714 0.299672 0
M  V30 1048 O 100.657 -1.93991 0.541249 0
M  V30 1049 C 97.7216 -3.23477 1.24754 0
M  V30 1050 C 96.7826 -3.52344 2.45259 0
M  V30 1051 C 96.0156 -4.81473 2.30259 0
M  V30 1052 O 96.2386 -5.55237 1.30643 0
M  V30 1053 O 95.1726 -5.10254 3.19256 0
M  V30 1054 H 98.9986 -1.89949 2.36966 0
M  V30 1055 H 96.5836 -0.882243 1.20569 0
M  V30 1056 H 98.4656 -4.04509 1.18111 0
M  V30 1057 H 97.1406 -3.22176 0.313781 0
M  V30 1058 H 96.0476 -2.71396 2.57478 0
M  V30 1059 H 97.3806 -3.58426 3.37331 0
M  V30 1060 N 99.0327 -1.24633 -0.964593 0
M  V30 1061 C 99.9627 -1.06611 -2.07741 0
M  V30 1062 C 100.944 0.0218666 -1.70086 0
M  V30 1063 O 102.129 -0.145793 -1.93652 0
M  V30 1064 C 99.2587 -0.673444 -3.40708 0
M  V30 1065 C 98.2127 -1.71054 -3.92332 0
M  V30 1066 C 97.5387 -1.17285 -5.21678 0
M  V30 1067 C 98.8387 -3.10718 -4.19824 0
M  V30 1068 H 100.533 -1.99693 -2.23076 0
M  V30 1069 H 98.0787 -0.96152 -1.07195 0
M  V30 1070 H 100.032 -0.534345 -4.17998 0
M  V30 1071 H 98.7557 0.293073 -3.25282 0
M  V30 1072 H 97.4147 -1.83791 -3.17201 0
M  V30 1073 H 97.0627 -0.196847 -5.02615 0
M  V30 1074 H 96.7627 -1.86592 -5.57187 0
M  V30 1075 H 98.2867 -1.04593 -6.01575 0
M  V30 1076 H 99.7007 -3.01192 -4.87808 0
M  V30 1077 H 98.0977 -3.77406 -4.66567 0
M  V30 1078 H 99.1677 -3.58524 -3.26479 0
M  V30 1079 N 100.511 1.16574 -1.06058 0
M  V30 1080 C 101.474 2.19085 -0.673392 0
M  V30 1081 C 102.474 1.5835 0.279648 0
M  V30 1082 O 103.664 1.74088 0.0623488 0
M  V30 1083 C 100.796 3.40899 0.00954234 0
M  V30 1084 H 101.989 2.54853 -1.58081 0
M  V30 1085 H 99.5418 1.30808 -0.855516 0
M  V30 1086 H 100.277 3.10684 0.929826 0
M  V30 1087 H 100.062 3.86233 -0.67573 0
M  V30 1088 H 101.552 4.1675 0.266245 0
M  V30 1089 N 101.989 0.842826 1.3317 0
M  V30 1090 C 102.936 0.276885 2.29133 0
M  V30 1091 C 103.906 -0.609527 1.54512 0
M  V30 1092 O 105.091 -0.546955 1.82792 0
M  V30 1093 C 102.231 -0.538707 3.40869 0
M  V30 1094 C 101.344 0.372169 4.30394 0
M  V30 1095 C 100.479 -0.454908 5.29249 0
M  V30 1096 C 99.5179 0.45411 6.10413 0
M  V30 1097 N 98.6549 -0.335075 7.013 0
M  V30 1098 H 103.495 1.10052 2.76934 0
M  V30 1099 H 101.032 0.554161 1.36262 0
M  V30 1100 H 102.99 -1.02709 4.0436 0
M  V30 1101 H 101.62 -1.32727 2.9425 0
M  V30 1102 H 100.672 0.97888 3.6759 0
M  V30 1103 H 101.984 1.0703 4.87182 0
M  V30 1104 H 101.138 -1.00695 5.98285 0
M  V30 1105 H 99.8769 -1.18646 4.73048 0
M  V30 1106 H 98.8819 1.01813 5.40291 0
M  V30 1107 H 100.107 1.18409 6.68697 0
M  V30 1108 H 98.0529 -1.04994 6.47543 0
M  V30 1109 H 97.9699 0.304262 7.55387 0
M  V30 1110 H 99.2379 -0.869224 7.74638 0
M  V30 1111 N 103.467 -1.45747 0.599634 0
M  V30 1112 C 104.883 -1.57424 0.26264 0
M  V30 1113 C 105.083 -1.59222 -1.23493 0
M  V30 1114 O 104.139 -1.51825 -2.01756 0
M  V30 1115 C 105.452 -2.86061 0.926795 0
M  V30 1116 C 107 -2.99722 0.901967 0
M  V30 1117 C 107.475 -4.31119 1.54598 0
M  V30 1118 N 108.966 -4.37858 1.5111 0
M  V30 1119 C 109.701 -5.3818 1.97863 0
M  V30 1120 N 109.197 -6.45083 2.52666 0
M  V30 1121 N 110.99 -5.29487 1.88679 0
M  V30 1122 H 103.141 -1.42823 1.57211 0
M  V30 1123 H 105.404 -0.68235 0.658105 0
M  V30 1124 H 105.11 -2.90605 1.98095 0
M  V30 1125 H 104.984 -3.74563 0.445238 0
M  V30 1126 H 107.371 -2.9475 -0.143617 0
M  V30 1127 H 107.452 -2.12652 1.42171 0
M  V30 1128 H 107.096 -4.36849 2.59085 0
M  V30 1129 H 107.026 -5.16992 1.00132 0
M  V30 1130 H 109.517 -3.61209 1.11068 0
M  V30 1131 H 109.83 -7.17869 2.86155 0
M  V30 1132 H 108.175 -6.45856 2.56701 0
M  V30 1133 H 111.366 -4.44877 1.4561 0
M  V30 1134 H 111.539 -6.07524 2.25429 0
M  V30 1135 N 104.945 -0.338344 -1.53925 0
M  V30 1136 C 106.193 0.259245 -2.0043 0
M  V30 1137 C 106.514 1.51484 -1.22791 0
M  V30 1138 O 105.784 1.93037 -0.33368 0
M  V30 1139 H 104.364 0.0987845 -0.740439 0
M  V30 1140 H 107.026 -0.458302 -1.89435 0
M  V30 1141 H 106.122 0.505334 -3.07982 0
M  V30 1142 N 106.423 1.57458 -0.0668435 0
M  V30 1143 C 107.353 2.15468 0.899764 0
M  V30 1144 C 108.334 1.08042 1.31381 0
M  V30 1145 O 109.519 1.36054 1.38574 0
M  V30 1146 C 106.649 2.71232 2.16911 0
M  V30 1147 C 105.603 3.83781 1.89463 0
M  V30 1148 C 104.929 4.26127 3.22986 0
M  V30 1149 C 106.229 5.08238 1.20381 0
M  V30 1150 H 107.923 2.96488 0.416529 0
M  V30 1151 H 105.469 1.4262 0.198908 0
M  V30 1152 H 107.422 3.10458 2.84945 0
M  V30 1153 H 106.146 1.87426 2.67468 0
M  V30 1154 H 104.805 3.45051 1.23836 0
M  V30 1155 H 104.453 3.39249 3.71374 0
M  V30 1156 H 104.153 5.01993 3.05413 0
M  V30 1157 H 105.677 4.67966 3.92225 0
M  V30 1158 H 107.091 5.44811 1.78475 0
M  V30 1159 H 105.488 5.89349 1.13083 0
M  V30 1160 H 106.558 4.84558 0.182153 0
M  V30 1161 N 107.901 -0.206675 1.56239 0
M  V30 1162 C 108.849 -1.27571 1.94495 0
M  V30 1163 C 109.843 -1.47737 0.828862 0
M  V30 1164 O 111.049 -1.48735 1.0138 0
M  V30 1165 H 107.424 -0.428029 0.6183 0
M  V30 1166 H 109.395 -0.925961 2.8367 0
M  V30 1167 C 108.144 -2.61568 2.29079 0
M  V30 1168 H 107.467 -2.46863 3.14482 0
M  V30 1169 H 108.907 -3.35144 2.5972 0
M  V30 1170 C 107.366 -3.17695 1.12123 0
M  V30 1171 O 107.896 -3.99801 0.390153 0
M  V30 1172 N 106.102 -2.76276 0.901097 0
M  V30 1173 H 105.649 -2.09613 1.49733 0
M  V30 1174 H 105.607 -3.1417 0.120319 0
M  V30 1175 N 109.379 -1.50304 -0.473955 0
M  V30 1176 C 110.625 -1.61389 -1.22806 0
M  V30 1177 C 110.958 -0.311955 -1.91678 0
M  V30 1178 O 110.233 0.686384 -1.81986 0
M  V30 1179 C 110.516 -2.79219 -2.27396 0
M  V30 1180 C 110.369 -4.19286 -1.62848 0
M  V30 1181 C 111.688 -2.92614 -3.28732 0
M  V30 1182 H 108.807 -0.587399 -0.445119 0
M  V30 1183 H 111.449 -1.82681 -0.522265 0
M  V30 1184 H 109.599 -2.61195 -2.87592 0
M  V30 1185 H 111.271 -4.48892 -1.06271 0
M  V30 1186 H 109.514 -4.23677 -0.931693 0
M  V30 1187 H 110.185 -4.97655 -2.38838 0
M  V30 1188 H 112.661 -3.09105 -2.78556 0
M  V30 1189 H 111.537 -3.76688 -3.99246 0
M  V30 1190 H 111.798 -2.03107 -3.92683 0
M  V30 1191 N 110.857 0.726932 -1.39834 0
M  V30 1192 C 112.103 1.48884 -1.377 0
M  V30 1193 C 112.436 1.94185 0.0244852 0
M  V30 1194 O 111.711 1.67361 0.990986 0
M  V30 1195 C 111.994 2.72288 -2.3565 0
M  V30 1196 C 111.847 2.32956 -3.84775 0
M  V30 1197 C 113.166 3.74414 -2.31306 0
M  V30 1198 H 110.285 0.540062 -0.5015 0
M  V30 1199 H 112.927 0.830547 -1.70886 0
M  V30 1200 H 111.077 3.28457 -2.07481 0
M  V30 1201 H 112.749 1.82356 -4.23726 0
M  V30 1202 H 110.992 1.65088 -4.01159 0
M  V30 1203 H 111.663 3.21362 -4.4881 0
M  V30 1204 H 114.139 3.27849 -2.56231 0
M  V30 1205 H 113.015 4.58414 -3.01907 0
M  V30 1206 H 113.276 4.21909 -1.32081 0
M  V30 1207 N 112.336 1.25143 0.95797 0
M  V30 1208 C 113.266 1.07711 2.07173 0
M  V30 1209 C 114.247 -0.0128462 1.70095 0
M  V30 1210 O 115.432 0.156061 1.93572 0
M  V30 1211 C 112.562 0.691503 3.40346 0
M  V30 1212 C 111.516 1.73132 3.9142 0
M  V30 1213 C 110.842 1.20049 5.21049 0
M  V30 1214 C 112.142 3.1294 4.1817 0
M  V30 1215 H 113.836 2.00873 2.22014 0
M  V30 1216 H 111.382 0.967191 1.06684 0
M  V30 1217 H 113.335 0.556505 4.17709 0
M  V30 1218 H 112.059 -0.275819 3.25433 0
M  V30 1219 H 110.718 1.8547 3.16222 0
M  V30 1220 H 110.366 0.223499 5.02503 0
M  V30 1221 H 110.066 1.89545 5.56189 0
M  V30 1222 H 111.59 1.07782 6.01012 0
M  V30 1223 H 113.004 3.03775 4.86203 0
M  V30 1224 H 111.401 3.79875 4.64559 0
M  V30 1225 H 112.471 3.6025 3.24573 0
M  V30 1226 N 113.814 -1.1601 1.06675 0
M  V30 1227 C 115.063 -1.85973 0.780818 0
M  V30 1228 C 115.376 -1.82819 -0.695444 0
M  V30 1229 O 116.582 -2.484 -1.09589 0
M  V30 1230 C 115.038 -3.33757 1.34665 0
M  V30 1231 C 114.646 -3.45374 2.85343 0
M  V30 1232 C 116.39 -4.0895 1.13843 0
M  V30 1233 C 114.297 -4.87266 3.35151 0
M  V30 1234 H 113.227 -0.696661 0.288407 0
M  V30 1235 H 115.878 -1.30903 1.28595 0
M  V30 1236 H 114.26 -3.88456 0.769274 0
M  V30 1237 H 115.434 -3.00816 3.49065 0
M  V30 1238 H 113.749 -2.83619 3.04876 0
M  V30 1239 H 116.346 -5.13654 1.4854 0
M  V30 1240 H 116.689 -4.16229 0.0770282 0
M  V30 1241 H 117.222 -3.605 1.68179 0
M  V30 1242 H 113.961 -4.85168 4.40786 0
M  V30 1243 H 113.481 -5.32433 2.76179 0
M  V30 1244 H 115.16 -5.56097 3.30704 0
M  V30 1245 N 115.292 -0.849877 -1.32721 0
M  V30 1246 C 116.517 -0.463856 -2.02146 0
M  V30 1247 C 116.942 0.930449 -1.63476 0
M  V30 1248 O 116.3 1.61033 -0.832952 0
M  V30 1249 C 116.348 -0.604955 -3.55489 0
M  V30 1250 O 115.452 0.36425 -4.10788 0
M  V30 1251 H 114.793 -0.187046 -0.637111 0
M  V30 1252 H 117.323 -1.14775 -1.69375 0
M  V30 1253 H 117.333 -0.490696 -4.05038 0
M  V30 1254 H 116.008 -1.62174 -3.82978 0
M  V30 1255 H 114.585 0.206628 -3.72327 0
M  V30 1256 N 116.77 1.45427 -0.607355 0
M  V30 1257 C 118.186 1.57283 -0.270985 0
M  V30 1258 C 118.386 1.59875 1.22647 0
M  V30 1259 O 117.442 1.52893 2.00948 0
M  V30 1260 C 118.755 2.85566 -0.941952 0
M  V30 1261 C 120.303 2.9924 -0.917849 0
M  V30 1262 C 120.778 4.30293 -1.56882 0
M  V30 1263 N 122.269 4.37051 -1.5343 0
M  V30 1264 C 123.004 5.37123 -2.00715 0
M  V30 1265 N 122.5 6.43734 -2.56084 0
M  V30 1266 N 124.293 5.28479 -1.91484 0
M  V30 1267 H 116.444 1.41988 -1.57966 0
M  V30 1268 H 118.707 0.67885 -0.661715 0
M  V30 1269 H 118.413 2.8955 -1.99633 0
M  V30 1270 H 118.287 3.74322 -0.465096 0
M  V30 1271 H 120.674 2.94822 0.127984 0
M  V30 1272 H 120.755 2.11895 -1.43297 0
M  V30 1273 H 120.399 4.35469 -2.61398 0
M  V30 1274 H 120.329 5.16454 -1.02873 0
M  V30 1275 H 122.82 3.60615 -1.12982 0
M  V30 1276 H 123.133 7.16341 -2.89958 0
M  V30 1277 H 121.478 6.44485 -2.60122 0
M  V30 1278 H 124.669 4.44098 -1.47967 0
M  V30 1279 H 124.842 6.0632 -2.28648 0
M  V30 1280 N 118.248 0.346503 1.53744 0
M  V30 1281 C 119.476 -0.25041 2.05379 0
M  V30 1282 C 119.891 -1.43979 1.22129 0
M  V30 1283 O 119.248 -1.80677 0.257321 0
M  V30 1284 C 119.299 -0.662575 3.55376 0
M  V30 1285 O 119.02 0.479515 4.35468 0
M  V30 1286 C 120.521 -1.31989 4.23195 0
M  V30 1287 H 117.741 -0.0478198 0.669294 0
M  V30 1288 H 120.285 0.499346 1.9831 0
M  V30 1289 H 118.44 -1.36227 3.62658 0
M  V30 1290 H 118.854 0.15037 5.24284 0
M  V30 1291 H 120.328 -1.55902 5.29527 0
M  V30 1292 H 120.805 -2.27436 3.75725 0
M  V30 1293 H 121.411 -0.662154 4.20114 0
M  V30 1294 N 119.726 -1.57421 0.075193 0
M  V30 1295 C 120.656 -2.15942 -0.888324 0
M  V30 1296 C 121.637 -1.08737 -1.30806 0
M  V30 1297 O 122.822 -1.36787 -1.37851 0
M  V30 1298 C 119.952 -2.72379 -2.1547 0
M  V30 1299 C 118.906 -3.8478 -1.87425 0
M  V30 1300 C 118.232 -4.27834 -3.20721 0
M  V30 1301 C 119.532 -5.08869 -1.17684 0
M  V30 1302 H 121.226 -2.96705 -0.400799 0
M  V30 1303 H 118.772 -1.42723 -0.191342 0
M  V30 1304 H 120.725 -3.11965 -2.83295 0
M  V30 1305 H 119.449 -1.88841 -2.6647 0
M  V30 1306 H 118.108 -3.45703 -1.22004 0
M  V30 1307 H 117.756 -3.41214 -3.6957 0
M  V30 1308 H 117.456 -5.03605 -3.02746 0
M  V30 1309 H 118.98 -4.70039 -3.89738 0
M  V30 1310 H 120.394 -5.4575 -1.75584 0
M  V30 1311 H 118.791 -5.8994 -1.09956 0
M  V30 1312 H 119.861 -4.84648 -0.156453 0
M  V30 1313 N 121.204 0.198386 -1.56346 0
M  V30 1314 C 122.114 1.2664 -1.97483 0
M  V30 1315 C 123.13 1.49989 -0.882002 0
M  V30 1316 O 124.306 1.62668 -1.18748 0
M  V30 1317 C 121.371 2.59141 -2.30319 0
M  V30 1318 C 120.432 2.43892 -3.53292 0
M  V30 1319 C 119.665 3.70074 -3.84553 0
M  V30 1320 O 119.888 4.74101 -3.1715 0
M  V30 1321 O 118.822 3.658 -4.7799 0
M  V30 1322 H 122.648 0.947304 -2.88548 0
M  V30 1323 H 120.233 0.403123 -1.43859 0
M  V30 1324 H 122.115 3.37352 -2.5253 0
M  V30 1325 H 120.79 2.90684 -1.42423 0
M  V30 1326 H 119.697 1.63803 -3.36332 0
M  V30 1327 H 121.03 2.17282 -4.41644 0
M  V30 1328 N 122.682 1.50554 0.465978 0
M  V30 1329 C 123.629 1.6979 1.56333 0
M  V30 1330 C 124.599 0.539239 1.57103 0
M  V30 1331 O 125.784 0.770401 1.74555 0
M  V30 1332 C 122.924 1.80273 2.94271 0
M  V30 1333 C 122.037 3.07674 3.0325 0
M  V30 1334 C 121.172 3.08922 4.32135 0
M  V30 1335 C 120.211 4.30755 4.34875 0
M  V30 1336 N 119.348 4.29714 5.55239 0
M  V30 1337 H 124.188 2.63472 1.39235 0
M  V30 1338 H 121.725 1.30602 0.676873 0
M  V30 1339 H 123.683 1.84332 3.74269 0
M  V30 1340 H 122.313 0.900258 3.09992 0
M  V30 1341 H 121.365 3.13062 2.16094 0
M  V30 1342 H 122.677 3.97642 3.01135 0
M  V30 1343 H 121.831 3.11738 5.20485 0
M  V30 1344 H 120.57 2.16792 4.36866 0
M  V30 1345 H 119.575 4.28146 3.44922 0
M  V30 1346 H 120.8 5.24117 4.31831 0
M  V30 1347 H 118.746 3.4044 5.60746 0
M  V30 1348 H 118.663 5.13456 5.54886 0
M  V30 1349 H 119.931 4.36683 6.457 0
M  V30 1350 N 124.16 -0.719506 1.40217 0
M  V30 1351 C 125.09 -1.8465 1.42922 0
M  V30 1352 C 126.071 -1.67599 0.29062 0
M  V30 1353 O 127.256 -1.87688 0.498677 0
M  V30 1354 C 124.386 -3.22565 1.28722 0
M  V30 1355 C 123.34 -3.54281 2.40144 0
M  V30 1356 C 122.666 -4.91298 2.11023 0
M  V30 1357 C 123.966 -3.55676 3.82481 0
M  V30 1358 H 125.66 -1.82644 2.37237 0
M  V30 1359 H 123.206 -0.877305 1.1419 0
M  V30 1360 H 125.159 -4.01095 1.29232 0
M  V30 1361 H 123.883 -3.25137 0.308811 0
M  V30 1362 H 122.542 -2.78088 2.38877 0
M  V30 1363 H 122.19 -4.90468 1.11582 0
M  V30 1364 H 121.89 -5.13485 2.8567 0
M  V30 1365 H 123.414 -5.72166 2.13209 0
M  V30 1366 H 124.828 -4.24254 3.85592 0
M  V30 1367 H 123.225 -3.89388 4.56614 0
M  V30 1368 H 124.295 -2.55144 4.12346 0
M  V30 1369 N 125.638 -1.25649 -0.95132 0
M  V30 1370 C 126.548 -1.08073 -2.08224 0
M  V30 1371 C 127.564 -0.0169666 -1.73992 0
M  V30 1372 O 128.74 -0.218593 -2.0021 0
M  V30 1373 C 125.805 -0.704922 -3.39458 0
M  V30 1374 C 124.866 -1.84699 -3.87537 0
M  V30 1375 C 124.099 -1.48902 -5.12508 0
M  V30 1376 O 124.322 -0.386156 -5.69091 0
M  V30 1377 O 123.256 -2.32033 -5.55378 0
M  V30 1378 H 127.082 -2.02924 -2.25954 0
M  V30 1379 H 124.667 -1.04618 -1.06656 0
M  V30 1380 H 126.549 -0.507609 -4.18332 0
M  V30 1381 H 125.224 0.214291 -3.2299 0
M  V30 1382 H 124.131 -2.09919 -3.09653 0
M  V30 1383 H 125.464 -2.74557 -4.08509 0
M  V30 1384 N 127.117 1.15442 -1.07289 0
M  V30 1385 C 128.08 2.18358 -0.696591 0
M  V30 1386 C 129.08 1.58637 0.262837 0
M  V30 1387 O 130.27 1.74145 0.0438809 0
M  V30 1388 C 127.402 3.4089 -0.0266151 0
M  V30 1389 H 128.595 2.53162 -1.60776 0
M  V30 1390 H 126.148 1.29893 -0.869342 0
M  V30 1391 H 126.883 3.11653 0.896822 0
M  V30 1392 H 126.668 3.85495 -0.716657 0
M  V30 1393 H 128.158 4.17009 0.222028 0
M  V30 1394 N 128.595 0.856903 1.32268 0
M  V30 1395 C 129.844 0.457599 1.96441 0
M  V30 1396 C 130.157 -0.992426 1.68553 0
M  V30 1397 O 131.363 -1.49727 2.26482 0
M  V30 1398 C 129.819 0.767358 3.51624 0
M  V30 1399 C 129.427 2.23326 3.88367 0
M  V30 1400 C 131.171 0.435887 4.22256 0
M  V30 1401 C 129.078 2.48613 5.36606 0
M  V30 1402 H 128.008 0.167387 0.735185 0
M  V30 1403 H 130.659 1.048 1.5063 0
M  V30 1404 H 129.041 0.106367 3.95857 0
M  V30 1405 H 130.215 2.93623 3.55137 0
M  V30 1406 H 128.53 2.52948 3.30766 0
M  V30 1407 H 131.127 0.602202 5.31298 0
M  V30 1408 H 131.47 -0.622672 4.11617 0
M  V30 1409 H 132.003 1.05286 3.83614 0
M  V30 1410 H 128.742 3.53101 5.52268 0
M  V30 1411 H 128.262 1.82896 5.71235 0
M  V30 1412 H 129.941 2.32676 6.03714 0
M  V30 1413 N 130.073 -1.45103 0.615059 0
M  V30 1414 C 131.036 -2.29025 -0.0895485 0
M  V30 1415 C 132.036 -1.40174 -0.787906 0
M  V30 1416 O 133.226 -1.62217 -0.634933 0
M  V30 1417 C 130.358 -3.21376 -1.13711 0
M  V30 1418 H 131.551 -2.92807 0.648382 0
M  V30 1419 H 129.104 -1.51749 0.374444 0
M  V30 1420 H 129.839 -2.6241 -1.90556 0
M  V30 1421 H 129.624 -3.86834 -0.640475 0
M  V30 1422 H 131.114 -3.84459 -1.63036 0
M  V30 1423 N 131.551 -0.354651 -1.53558 0
M  V30 1424 C 132.779 0.239515 -2.05509 0
M  V30 1425 C 133.194 1.4333 -1.2289 0
M  V30 1426 O 132.551 1.80538 -0.266899 0
M  V30 1427 C 132.602 0.643719 -3.55723 0
M  V30 1428 O 132.323 -0.502602 -4.35207 0
M  V30 1429 C 133.824 1.29743 -4.23889 0
M  V30 1430 H 131.044 0.0442697 -0.669538 0
M  V30 1431 H 133.588 -0.509856 -1.98042 0
M  V30 1432 H 131.743 1.34302 -3.63376 0
M  V30 1433 H 132.157 -0.178172 -5.24197 0
M  V30 1434 H 133.631 1.53091 -5.30346 0
M  V30 1435 H 134.108 2.25441 -3.76926 0
M  V30 1436 H 134.714 0.639865 -4.20459 0
M  V30 1437 N 133.029 1.57378 -0.0835403 0
M  V30 1438 C 133.939 2.16897 0.894021 0
M  V30 1439 C 134.955 1.13528 1.31861 0
M  V30 1440 O 136.131 1.45848 1.3889 0
M  V30 1441 C 133.196 2.72831 2.13925 0
M  V30 1442 C 132.257 3.91115 1.76997 0
M  V30 1443 C 131.49 4.44371 2.95584 0
M  V30 1444 O 131.713 3.96596 4.09961 0
M  V30 1445 O 130.647 5.35549 2.74719 0
M  V30 1446 H 134.473 3.00814 0.417679 0
M  V30 1447 H 132.058 1.48741 0.140181 0
M  V30 1448 H 133.94 3.0863 2.86924 0
M  V30 1449 H 132.615 1.91967 2.60635 0
M  V30 1450 H 131.522 3.60148 1.01214 0
M  V30 1451 H 132.855 4.73307 1.3506 0
M  V30 1452 N 134.507 -0.190092 1.56449 0
M  V30 1453 C 135.756 -0.907912 1.80111 0
M  V30 1454 C 136.069 -1.84214 0.657619 0
M  V30 1455 O 137.275 -2.60094 0.778663 0
M  V30 1456 C 135.731 -1.66485 3.19078 0
M  V30 1457 C 135.339 -0.7752 4.41242 0
M  V30 1458 C 137.083 -2.37201 3.52045 0
M  V30 1459 C 134.99 -1.53129 5.71231 0
M  V30 1460 H 133.92 -0.34276 0.671589 0
M  V30 1461 H 136.571 -0.161109 1.82791 0
M  V30 1462 H 134.953 -2.45572 3.10661 0
M  V30 1463 H 136.127 -0.0226298 4.60794 0
M  V30 1464 H 134.442 -0.178627 4.16017 0
M  V30 1465 H 137.039 -2.94329 4.46402 0
M  V30 1466 H 137.382 -3.11632 2.76028 0
M  V30 1467 H 137.915 -1.65075 3.61932 0
M  V30 1468 H 134.654 -0.82967 6.50228 0
M  V30 1469 H 134.174 -2.25767 5.55688 0
M  V30 1470 H 135.853 -2.08377 6.12526 0
M  V30 1471 N 135.985 -1.50799 -0.457987 0
M  V30 1472 C 136.895 -1.73426 -1.57989 0
M  V30 1473 C 137.911 -0.617745 -1.62665 0
M  V30 1474 O 139.087 -0.897614 -1.80291 0
M  V30 1475 C 136.152 -1.83557 -2.94122 0
M  V30 1476 C 135.213 -3.07345 -2.99729 0
M  V30 1477 C 134.446 -3.16983 -4.29368 0
M  V30 1478 O 134.669 -2.33077 -5.20607 0
M  V30 1479 O 133.603 -4.09812 -4.40837 0
M  V30 1480 H 137.429 -2.68555 -1.41817 0
M  V30 1481 H 135.014 -1.35052 -0.638859 0
M  V30 1482 H 136.896 -1.92326 -3.74952 0
M  V30 1483 H 135.571 -0.916137 -3.10465 0
M  V30 1484 H 134.478 -3.04068 -2.1793 0
M  V30 1485 H 135.811 -3.9891 -2.88326 0
M  V30 1486 N 137.463 0.71206 -1.40597 0
M  V30 1487 C 138.879 1.02058 -1.22704 0
M  V30 1488 C 139.079 2.01228 -0.104729 0
M  V30 1489 O 138.135 2.4674 0.53624 0
M  V30 1490 C 139.448 1.56094 -2.57012 0
M  V30 1491 C 140.996 1.6806 -2.64054 0
M  V30 1492 C 141.471 2.25501 -3.9864 0
M  V30 1493 N 142.962 2.32882 -4.004 0
M  V30 1494 C 143.697 2.78317 -5.01325 0
M  V30 1495 N 143.193 3.23478 -6.12645 0
M  V30 1496 N 144.986 2.77733 -4.88693 0
M  V30 1497 H 137.137 0.0547896 -2.12329 0
M  V30 1498 H 139.4 0.0869027 -0.944008 0
M  V30 1499 H 139.106 0.906865 -3.39807 0
M  V30 1500 H 138.98 2.54564 -2.78347 0
M  V30 1501 H 141.367 2.32583 -1.81629 0
M  V30 1502 H 141.448 0.681802 -2.46546 0
M  V30 1503 H 141.092 1.61598 -4.81506 0
M  V30 1504 H 141.022 3.26102 -4.13479 0
M  V30 1505 H 143.513 2.00991 -3.20017 0
M  V30 1506 H 143.826 3.56725 -6.85542 0
M  V30 1507 H 142.171 3.21429 -6.16205 0
M  V30 1508 H 145.362 2.4179 -4.00818 0
M  V30 1509 H 145.535 3.12826 -5.67489 0
M  V30 1510 N 138.941 1.26152 0.944643 0
M  V30 1511 C 140.169 1.14259 1.72489 0
M  V30 1512 C 140.584 -0.302555 1.8636 0
M  V30 1513 O 139.941 -1.20741 1.36849 0
M  V30 1514 C 139.992 1.80266 3.13347 0
M  V30 1515 O 139.713 3.19133 3.00143 0
M  V30 1516 C 141.214 1.74283 4.07603 0
M  V30 1517 H 138.434 0.398051 0.540181 0
M  V30 1518 H 140.978 1.66706 1.18446 0
M  V30 1519 H 139.133 1.31766 3.64303 0
M  V30 1520 H 139.547 3.51744 3.89071 0
M  V30 1521 H 141.021 2.25111 5.04013 0
M  V30 1522 H 141.498 0.708631 4.33446 0
M  V30 1523 H 142.104 2.22319 3.62567 0
M  V30 1524 N 140.419 -1.14872 1.07899 0
M  V30 1525 C 141.647 -1.89661 0.82683 0
M  V30 1526 C 142.062 -1.78312 -0.620519 0
M  V30 1527 O 141.419 -1.13888 -1.42604 0
M  V30 1528 C 141.47 -3.39817 1.23316 0
M  V30 1529 O 141.191 -3.50845 2.62372 0
M  V30 1530 C 142.692 -4.31615 1.0111 0
M  V30 1531 H 139.912 -0.60092 0.298557 0
M  V30 1532 H 142.456 -1.4551 1.43691 0
M  V30 1533 H 140.611 -3.8161 0.667286 0
M  V30 1534 H 141.025 -4.44076 2.79101 0
M  V30 1535 H 142.499 -5.35367 1.34486 0
M  V30 1536 H 142.976 -4.39169 -0.0522168 0
M  V30 1537 H 143.582 -3.95572 1.56215 0
M  V30 1538 N 141.898 -0.863906 -1.31812 0
M  V30 1539 C 143.146 -0.470904 -1.96537 0
M  V30 1540 C 143.467 0.978771 -1.68657 0
M  V30 1541 O 142.737 1.6853 -0.998717 0
M  V30 1542 H 141.317 -0.171148 -0.72713 0
M  V30 1543 H 143.979 -1.10236 -1.60729 0
M  V30 1544 H 143.075 -0.623616 -3.05806 0
M  V30 1545 N 143.376 1.44774 -0.622745 0
M  V30 1546 C 144.792 1.56986 -0.287652 0
M  V30 1547 C 144.992 1.61167 1.20944 0
M  V30 1548 O 144.048 1.55015 1.99315 0
M  V30 1549 C 145.361 2.84551 -0.972188 0
M  V30 1550 C 146.909 2.9825 -0.949536 0
M  V30 1551 C 147.384 4.28605 -1.61437 0
M  V30 1552 N 148.875 4.35399 -1.58057 0
M  V30 1553 C 149.61 5.34964 -2.064 0
M  V30 1554 N 149.106 6.40981 -2.62897 0
M  V30 1555 N 150.899 5.26419 -1.97078 0
M  V30 1556 H 143.05 1.40304 -1.59463 0
M  V30 1557 H 145.313 0.671794 -0.668878 0
M  V30 1558 H 145.019 2.87417 -2.02693 0
M  V30 1559 H 144.893 3.73807 -0.504771 0
M  V30 1560 H 147.28 2.94941 0.0967067 0
M  V30 1561 H 147.361 2.10364 -1.45536 0
M  V30 1562 H 147.005 4.32672 -2.66002 0
M  V30 1563 H 146.935 5.15334 -1.08344 0
M  V30 1564 H 149.426 3.59397 -1.16801 0
M  V30 1565 H 149.739 7.13225 -2.97539 0
M  V30 1566 H 148.084 6.4169 -2.66943 0
M  V30 1567 H 151.275 4.42504 -1.52669 0
M  V30 1568 H 151.448 6.03861 -2.35066 0
M  V30 1569 N 144.854 0.36279 1.53368 0
M  V30 1570 C 146.079 -0.231226 2.06107 0
M  V30 1571 C 146.504 -1.419 1.23474 0
M  V30 1572 O 145.862 -1.79524 0.253128 0
M  V30 1573 C 145.91 -0.605523 3.5548 0
M  V30 1574 O 145.014 -1.70312 3.7559 0
M  V30 1575 H 144.355 -0.034327 0.663112 0
M  V30 1576 H 146.885 0.522584 1.97814 0
M  V30 1577 H 146.895 -0.877314 3.98456 0
M  V30 1578 H 145.57 0.263004 4.15068 0
M  V30 1579 H 144.147 -1.4271 3.44512 0
M  V30 1580 N 146.332 -1.57332 0.0918853 0
M  V30 1581 C 147.578 -1.94524 -0.573425 0
M  V30 1582 C 147.911 -0.973578 -1.68033 0
M  V30 1583 O 147.186 -0.00609226 -1.94499 0
M  V30 1584 C 147.469 -3.41858 -1.13161 0
M  V30 1585 C 147.322 -4.4979 -0.0299747 0
M  V30 1586 C 148.641 -3.90435 -2.03098 0
M  V30 1587 H 145.76 -0.70734 -0.206975 0
M  V30 1588 H 148.402 -1.89309 0.161942 0
M  V30 1589 H 146.552 -3.46433 -1.7583 0
M  V30 1590 H 148.224 -4.57327 0.604112 0
M  V30 1591 H 146.467 -4.291 0.636833 0
M  V30 1592 H 147.138 -5.50069 -0.461287 0
M  V30 1593 H 149.614 -3.87992 -1.50338 0
M  V30 1594 H 148.49 -4.94097 -2.39081 0
M  V30 1595 H 148.751 -3.29541 -2.94712 0
M  V30 1596 N 147.81 0.181792 -1.56548 0
M  V30 1597 C 148.757 1.22521 -1.95595 0
M  V30 1598 C 149.727 1.4454 -0.818373 0
M  V30 1599 O 150.912 1.57454 -1.07763 0
M  V30 1600 C 148.052 2.56193 -2.31212 0
M  V30 1601 C 147.165 2.41641 -3.58097 0
M  V30 1602 C 146.3 3.68108 -3.82975 0
M  V30 1603 C 145.339 3.48445 -5.03242 0
M  V30 1604 N 144.476 4.66956 -5.24306 0
M  V30 1605 H 149.316 0.885226 -2.84548 0
M  V30 1606 H 146.853 0.425718 -1.40805 0
M  V30 1607 H 148.811 3.34088 -2.49882 0
M  V30 1608 H 147.441 2.88208 -1.45382 0
M  V30 1609 H 146.493 1.54976 -3.474 0
M  V30 1610 H 147.805 2.23052 -4.46149 0
M  V30 1611 H 146.959 4.54441 -4.01956 0
M  V30 1612 H 145.698 3.89666 -2.93278 0
M  V30 1613 H 144.703 2.60499 -4.8417 0
M  V30 1614 H 145.928 3.2832 -5.9446 0
M  V30 1615 H 143.874 4.88752 -4.37559 0
M  V30 1616 H 143.791 4.51242 -6.06561 0
M  V30 1617 H 145.059 5.54602 -5.47756 0
M  V30 1618 N 149.288 1.51039 0.449983 0
M  V30 1619 C 150.537 1.62317 1.19733 0
M  V30 1620 C 150.85 0.339101 1.92638 0
M  V30 1621 O 152.056 0.331069 2.69474 0
M  V30 1622 C 150.512 2.86608 2.17678 0
M  V30 1623 C 150.12 4.21972 1.50479 0
M  V30 1624 C 151.864 3.07239 2.92924 0
M  V30 1625 C 149.771 5.37426 2.46834 0
M  V30 1626 H 148.701 0.604532 0.450619 0
M  V30 1627 H 151.352 1.77494 0.465625 0
M  V30 1628 H 149.734 2.65037 2.94231 0
M  V30 1629 H 150.908 4.53878 0.795716 0
M  V30 1630 H 149.223 4.07117 0.874344 0
M  V30 1631 H 151.82 3.90668 3.65079 0
M  V30 1632 H 152.163 2.19807 3.5354 0
M  V30 1633 H 152.696 3.29091 2.23481 0
M  V30 1634 H 149.435 6.27079 1.90926 0
M  V30 1635 H 148.955 5.09912 3.15832 0
M  V30 1636 H 150.634 5.68862 3.08228 0
M  V30 1637 N 150.766 -0.704594 1.40972 0
M  V30 1638 C 152.015 -1.46018 1.39146 0
M  V30 1639 C 152.328 -1.956 0.000589254 0
M  V30 1640 O 153.534 -2.71137 -0.1403 0
M  V30 1641 C 151.99 -2.63996 2.4461 0
M  V30 1642 C 151.598 -2.21238 3.89561 0
M  V30 1643 C 153.342 -3.41677 2.51907 0
M  V30 1644 C 151.249 -3.3612 4.86598 0
M  V30 1645 H 150.179 -0.548444 0.517422 0
M  V30 1646 H 152.83 -0.765784 1.66757 0
M  V30 1647 H 151.212 -3.3566 2.10115 0
M  V30 1648 H 152.386 -1.56923 4.33257 0
M  V30 1649 H 150.701 -1.56574 3.85841 0
M  V30 1650 H 153.298 -4.27182 3.2159 0
M  V30 1651 H 153.641 -3.86247 1.55303 0
M  V30 1652 H 154.174 -2.77064 2.85448 0
M  V30 1653 H 150.913 -2.96572 5.84573 0
M  V30 1654 H 150.433 -3.99315 4.47557 0
M  V30 1655 H 152.112 -4.02029 5.06934 0
M  V30 1656 N 152.244 -1.26651 -0.937939 0
M  V30 1657 C 153.176 -1.04283 -2.04102 0
M  V30 1658 C 154.189 -0.00221014 -1.628 0
M  V30 1659 O 155.378 -0.242645 -1.76843 0
M  V30 1660 C 152.478 -0.557846 -3.34277 0
M  V30 1661 C 151.651 -1.66843 -4.04329 0
M  V30 1662 C 150.71 -1.18095 -5.12777 0
M  V30 1663 O 149.736 -1.87865 -5.37304 0
M  V30 1664 N 150.938 -0.0311006 -5.80492 0
M  V30 1665 H 153.703 -1.9927 -2.23856 0
M  V30 1666 H 151.264 -1.1808 -1.10764 0
M  V30 1667 H 153.256 -0.215836 -4.04124 0
M  V30 1668 H 151.826 0.298523 -3.11171 0
M  V30 1669 H 151.046 -2.18123 -3.28353 0
M  V30 1670 H 152.334 -2.41408 -4.47883 0
M  V30 1671 H 151.732 0.551486 -5.63005 0
M  V30 1672 H 150.289 0.251809 -6.51313 0
M  V30 1673 N 153.722 1.14298 -1.08507 0
M  V30 1674 C 154.685 2.17607 -0.719711 0
M  V30 1675 C 155.685 1.58907 0.245997 0
M  V30 1676 O 156.875 1.74181 0.0254081 0
M  V30 1677 C 154.007 3.40842 -0.0627695 0
M  V30 1678 H 155.2 2.51443 -1.63452 0
M  V30 1679 H 152.753 1.28963 -0.88307 0
M  V30 1680 H 153.488 3.12587 0.863716 0
M  V30 1681 H 153.273 3.84713 -0.757504 0
M  V30 1682 H 154.763 4.17221 0.177786 0
M  V30 1683 N 155.201 0.870884 1.31352 0
M  V30 1684 C 156.478 0.402907 1.91405 0
M  V30 1685 C 156.858 -1.11512 1.79244 0
M  V30 1686 O 156.206 -1.94411 1.2007 0
M  V30 1687 C 156.416 0.885301 3.37585 0
M  V30 1688 C 157.764 0.911971 4.14691 0
M  V30 1689 O 158.788 0.831016 3.46371 0
M  V30 1690 O 157.647 1.02927 5.3672 0
M  V30 1691 H 154.741 0.120698 0.818145 0
M  V30 1692 H 157.287 0.958857 1.40014 0
M  V30 1693 H 156.059 1.92889 3.40455 0
M  V30 1694 H 155.682 0.307714 3.96407 0
M  V30 1695 N 156.679 -1.44442 0.630414 0
M  V30 1696 C 157.926 -2.02052 0.134617 0
M  V30 1697 C 158.254 -1.49576 -1.24327 0
M  V30 1698 O 157.509 -0.669806 -1.83881 0
M  V30 1699 C 157.808 -3.57332 0.0697835 0
M  V30 1700 C 157.474 -4.29058 1.38635 0
M  V30 1701 C 156.136 -4.4837 1.74694 0
M  V30 1702 C 158.488 -4.69872 2.25543 0
M  V30 1703 C 155.816 -5.05756 2.97369 0
M  V30 1704 C 158.168 -5.28616 3.47487 0
M  V30 1705 C 156.832 -5.46147 3.8377 0
M  V30 1706 H 156.102 -0.739361 0.0492598 0
M  V30 1707 H 158.749 -1.73217 0.816586 0
M  V30 1708 H 157.054 -3.85577 -0.695553 0
M  V30 1709 H 158.751 -3.99637 -0.330344 0
M  V30 1710 H 155.341 -4.14357 1.09574 0
M  V30 1711 H 159.525 -4.54666 1.98979 0
M  V30 1712 H 154.781 -5.17515 3.25558 0
M  V30 1713 H 158.955 -5.59192 4.15063 0
M  V30 1714 H 156.582 -5.9038 4.7891 0
M  V30 1715 N 158.157 -0.370918 -1.53173 0
M  V30 1716 C 159.385 0.217704 -2.05751 0
M  V30 1717 C 159.8 1.42018 -1.24404 0
M  V30 1718 O 159.157 1.80245 -0.286033 0
M  V30 1719 C 159.208 0.605954 -3.56385 0
M  V30 1720 O 158.929 -0.548734 -4.3465 0
M  V30 1721 C 160.43 1.2524 -4.25241 0
M  V30 1722 H 157.65 0.0371659 -0.66997 0
M  V30 1723 H 160.194 -0.530832 -1.9749 0
M  V30 1724 H 158.349 1.3044 -3.6478 0
M  V30 1725 H 158.763 -0.23376 -5.23979 0
M  V30 1726 H 160.237 1.47458 -5.3194 0
M  V30 1727 H 160.714 2.2143 -3.79296 0
M  V30 1728 H 161.32 0.595233 -4.21114 0
M  V30 1729 N 159.635 1.57281 -0.100228 0
M  V30 1730 C 160.582 2.14305 0.856858 0
M  V30 1731 C 161.552 1.06296 1.27634 0
M  V30 1732 O 162.737 1.34109 1.35718 0
M  V30 1733 C 159.877 2.73184 2.10866 0
M  V30 1734 C 158.99 3.95442 1.73925 0
M  V30 1735 C 158.125 4.42468 2.93931 0
M  V30 1736 C 157.164 5.57303 2.5314 0
M  V30 1737 N 156.301 5.99158 3.65997 0
M  V30 1738 H 161.141 2.95772 0.363726 0
M  V30 1739 H 158.678 1.46139 0.167858 0
M  V30 1740 H 160.636 3.05442 2.84185 0
M  V30 1741 H 159.266 1.94437 2.57671 0
M  V30 1742 H 158.318 3.69464 0.905554 0
M  V30 1743 H 159.63 4.78769 1.39935 0
M  V30 1744 H 158.784 4.76537 3.75496 0
M  V30 1745 H 157.523 3.58052 3.31134 0
M  V30 1746 H 156.528 5.22857 1.70003 0
M  V30 1747 H 157.753 6.43471 2.17075 0
M  V30 1748 H 155.699 5.17687 4.02909 0
M  V30 1749 H 155.616 6.77295 3.35869 0
M  V30 1750 H 156.884 6.3786 4.48057 0
M  V30 1751 N 161.113 -0.173488 1.56642 0
M  V30 1752 C 162.39 -0.917617 1.7274 0
M  V30 1753 C 162.77 -2.00484 0.661027 0
M  V30 1754 O 162.118 -2.26184 -0.32453 0
M  V30 1755 C 162.328 -1.48433 3.15862 0
M  V30 1756 C 163.676 -1.95809 3.76754 0
M  V30 1757 O 164.7 -1.58231 3.19126 0
M  V30 1758 O 163.559 -2.65024 4.77938 0
M  V30 1759 H 160.653 -0.431772 0.705338 0
M  V30 1760 H 163.199 -0.161487 1.6893 0
M  V30 1761 H 161.971 -0.701715 3.84957 0
M  V30 1762 H 161.594 -2.30471 3.23989 0
M  V30 1763 N 162.591 -1.51276 -0.441967 0
M  V30 1764 C 163.868 -1.54252 -1.20273 0
M  V30 1765 C 164.248 -0.30408 -2.08898 0
M  V30 1766 O 163.596 0.711084 -2.17154 0
M  V30 1767 C 163.806 -2.85406 -2.00859 0
M  V30 1768 C 165.154 -3.37181 -2.58059 0
M  V30 1769 O 166.178 -2.86925 -2.11074 0
M  V30 1770 O 165.037 -4.24858 -3.43741 0
M  V30 1771 H 162.131 -0.619969 -0.547328 0
M  V30 1772 H 164.677 -1.63586 -0.451413 0
M  V30 1773 H 163.449 -3.67003 -1.35736 0
M  V30 1774 H 163.072 -2.79213 -2.83065 0
M  V30 1775 N 164.069 0.697108 -1.41344 0
M  V30 1776 C 165.318 1.45279 -1.39918 0
M  V30 1777 C 165.631 1.95597 -0.0109624 0
M  V30 1778 O 166.837 2.71208 0.125919 0
M  V30 1779 C 165.293 2.62695 -2.46007 0
M  V30 1780 C 164.901 2.19169 -3.90729 0
M  V30 1781 C 166.645 3.40336 -2.53715 0
M  V30 1782 C 164.552 3.33535 -4.88373 0
M  V30 1783 H 163.482 0.545692 -0.520323 0
M  V30 1784 H 166.133 0.756929 -1.67161 0
M  V30 1785 H 164.515 3.34541 -2.11892 0
M  V30 1786 H 165.689 1.54623 -4.34083 0
M  V30 1787 H 164.004 1.54525 -3.86666 0
M  V30 1788 H 166.601 4.2547 -3.2385 0
M  V30 1789 H 166.944 3.85418 -1.5735 0
M  V30 1790 H 167.477 2.75546 -2.86913 0
M  V30 1791 H 164.216 2.93468 -5.86137 0
M  V30 1792 H 163.736 3.96936 -4.49668 0
M  V30 1793 H 165.415 3.99335 -5.09059 0
M  V30 1794 N 165.547 1.27147 0.931209 0
M  V30 1795 C 166.777 1.15914 1.71019 0
M  V30 1796 C 167.185 -0.287112 1.87009 0
M  V30 1797 O 166.528 -1.20761 1.38429 0
M  V30 1798 C 166.59 1.76647 3.13107 0
M  V30 1799 C 166.254 3.25807 3.20467 0
M  V30 1800 C 167.251 4.22489 3.02983 0
M  V30 1801 C 164.936 3.66452 3.43538 0
M  V30 1802 C 166.93 5.57794 3.08454 0
M  V30 1803 C 164.617 5.01888 3.48643 0
M  V30 1804 C 165.615 5.97369 3.31119 0
M  V30 1805 O 165.303 7.30337 3.35952 0
M  V30 1806 H 165.035 0.404062 0.54195 0
M  V30 1807 H 167.589 1.68457 1.17521 0
M  V30 1808 H 165.819 1.18578 3.68071 0
M  V30 1809 H 167.508 1.60179 3.72958 0
M  V30 1810 H 168.274 3.92425 2.85004 0
M  V30 1811 H 164.153 2.92611 3.5623 0
M  V30 1812 H 167.697 6.32298 2.94694 0
M  V30 1813 H 163.594 5.31609 3.66145 0
M  V30 1814 H 164.362 7.38739 3.5243 0
M  V30 1815 N 167.025 -1.13721 1.09112 0
M  V30 1816 C 167.935 -2.22638 0.73957 0
M  V30 1817 C 168.951 -1.72091 -0.257068 0
M  V30 1818 O 170.127 -2.01155 -0.0992154 0
M  V30 1819 C 167.192 -3.46322 0.16191 0
M  V30 1820 C 166.253 -4.11775 1.21408 0
M  V30 1821 C 165.486 -5.29555 0.663891 0
M  V30 1822 O 165.709 -5.68077 -0.514274 0
M  V30 1823 O 164.643 -5.84973 1.41738 0
M  V30 1824 H 168.469 -2.55074 1.64836 0
M  V30 1825 H 166.054 -1.21791 0.865289 0
M  V30 1826 H 167.936 -4.21107 -0.157073 0
M  V30 1827 H 166.611 -3.15593 -0.719932 0
M  V30 1828 H 165.518 -3.3883 1.58571 0
M  V30 1829 H 166.851 -4.46627 2.06845 0
M  V30 1830 N 168.503 -0.877838 -1.30888 0
M  V30 1831 C 169.453 -0.310872 -2.25871 0
M  V30 1832 C 170.437 0.556596 -1.50966 0
M  V30 1833 O 171.629 0.402187 -1.7237 0
M  V30 1834 C 168.758 0.479821 -3.3993 0
M  V30 1835 C 167.844 -0.401333 -4.22197 0
M  V30 1836 N 168.235 -1.49848 -4.83093 0
M  V30 1837 C 166.533 -0.195167 -4.45573 0
M  V30 1838 C 167.234 -2.0425 -5.44662 0
M  V30 1839 N 166.21 -1.33843 -5.26865 0
M  V30 1840 H 170.012 -1.1493 -2.70496 0
M  V30 1841 H 167.526 -0.726458 -1.45246 0
M  V30 1842 H 169.523 0.902582 -4.07012 0
M  V30 1843 H 168.183 1.31577 -2.96846 0
M  V30 1844 H 169.194 -1.88137 -4.82519 0
M  V30 1845 H 165.871 0.604192 -4.13105 0
M  V30 1846 H 167.261 -2.96345 -6.03017 0
M  V30 1847 N 169.982 1.44106 -0.638065 0
M  V30 1848 C 171.231 2.01194 -0.142744 0
M  V30 1849 C 171.544 1.50835 1.24532 0
M  V30 1850 O 172.75 2.00096 1.83504 0
M  V30 1851 C 171.206 3.59319 -0.20442 0
M  V30 1852 C 170.814 4.18674 -1.59423 0
M  V30 1853 C 172.558 4.23854 0.234079 0
M  V30 1854 C 170.465 5.69045 -1.61065 0
M  V30 1855 H 169.395 0.752367 -0.0495998 0
M  V30 1856 H 172.046 1.65246 -0.797881 0
M  V30 1857 H 170.428 3.92598 0.517946 0
M  V30 1858 H 171.602 3.96921 -2.34074 0
M  V30 1859 H 169.917 3.66453 -1.97741 0
M  V30 1860 H 172.514 5.34155 0.241443 0
M  V30 1861 H 172.857 3.96688 1.2627 0
M  V30 1862 H 173.39 3.95403 -0.436025 0
M  V30 1863 H 170.129 6.00956 -2.61787 0
M  V30 1864 H 169.649 5.929 -0.90718 0
M  V30 1865 H 171.328 6.32809 -1.34766 0
M  V30 1866 N 171.46 0.379036 1.52974 0
M  V30 1867 C 172.407 -0.461048 2.26148 0
M  V30 1868 C 173.377 -1.06637 1.27349 0
M  V30 1869 O 174.562 -1.09633 1.56157 0
M  V30 1870 C 171.702 -1.58782 3.06402 0
M  V30 1871 C 170.815 -1.00636 4.20115 0
M  V30 1872 C 169.95 -2.10334 4.87784 0
M  V30 1873 C 168.989 -1.49724 5.93506 0
M  V30 1874 N 168.126 -2.5331 6.54812 0
M  V30 1875 H 172.966 0.169429 2.97518 0
M  V30 1876 H 170.503 0.0953806 1.4679 0
M  V30 1877 H 172.461 -2.25174 3.51215 0
M  V30 1878 H 171.091 -2.18876 2.37261 0
M  V30 1879 H 170.143 -0.232332 3.7969 0
M  V30 1880 H 171.455 -0.523343 4.96047 0
M  V30 1881 H 170.609 -2.84519 5.35849 0
M  V30 1882 H 169.348 -2.61992 4.11353 0
M  V30 1883 H 168.353 -0.740598 5.44789 0
M  V30 1884 H 169.578 -0.988732 6.71864 0
M  V30 1885 H 167.524 -3.04156 5.81227 0
M  V30 1886 H 167.441 -2.09734 7.26325 0
M  V30 1887 H 168.709 -3.27155 7.07524 0
M  V30 1888 N 172.938 -1.57226 0.108567 0
M  V30 1889 C 173.848 -2.18292 -0.859401 0
M  V30 1890 C 174.864 -1.15612 -1.30038 0
M  V30 1891 O 176.04 -1.48039 -1.36552 0
M  V30 1892 C 173.105 -2.762 -2.09558 0
M  V30 1893 C 172.166 -3.93881 -1.70752 0
M  V30 1894 C 171.399 -4.49018 -2.88477 0
M  V30 1895 O 171.622 -4.03068 -4.036 0
M  V30 1896 O 170.556 -5.39852 -2.66164 0
M  V30 1897 H 174.382 -3.01441 -0.369769 0
M  V30 1898 H 171.967 -1.48945 -0.1165 0
M  V30 1899 H 173.849 -3.13156 -2.81978 0
M  V30 1900 H 172.524 -1.96089 -2.57548 0
M  V30 1901 H 171.431 -3.61713 -0.954714 0
M  V30 1902 H 172.764 -4.75396 -1.27513 0
M  V30 1903 N 174.416 0.165178 -1.56732 0
M  V30 1904 C 175.363 1.2044 -1.96883 0
M  V30 1905 C 176.333 1.43664 -0.833657 0
M  V30 1906 O 177.518 1.56302 -1.09427 0
M  V30 1907 C 174.658 2.53727 -2.33916 0
M  V30 1908 C 173.771 2.3783 -3.6064 0
M  V30 1909 C 172.906 3.64026 -3.86857 0
M  V30 1910 C 171.945 3.43088 -5.06909 0
M  V30 1911 N 171.082 4.61369 -5.29229 0
M  V30 1912 H 175.922 0.854996 -2.85471 0
M  V30 1913 H 173.459 0.41076 -1.41249 0
M  V30 1914 H 175.417 3.31419 -2.53411 0
M  V30 1915 H 174.047 2.8665 -1.48431 0
M  V30 1916 H 173.099 1.51282 -3.49024 0
M  V30 1917 H 174.411 2.18308 -4.4849 0
M  V30 1918 H 173.565 4.50152 -4.06753 0
M  V30 1919 H 172.304 3.86533 -2.97394 0
M  V30 1920 H 171.309 2.55349 -4.86906 0
M  V30 1921 H 172.534 3.21997 -5.97909 0
M  V30 1922 H 170.48 4.84084 -4.42718 0
M  V30 1923 H 170.397 4.44783 -6.11313 0
M  V30 1924 H 171.665 5.48761 -5.53608 0
M  V30 1925 N 175.894 1.51508 0.433938 0
M  V30 1926 C 176.824 1.76016 1.53429 0
M  V30 1927 C 177.805 0.610112 1.58782 0
M  V30 1928 O 178.99 0.853177 1.74455 0
M  V30 1929 C 176.12 1.88831 2.9148 0
M  V30 1930 C 175.074 3.04288 3.00987 0
M  V30 1931 C 174.4 3.0229 4.4105 0
M  V30 1932 C 175.7 4.44193 2.74754 0
M  V30 1933 H 177.394 2.68152 1.33171 0
M  V30 1934 H 174.94 1.29035 0.639214 0
M  V30 1935 H 176.893 2.04559 3.6842 0
M  V30 1936 H 175.617 0.933455 3.12976 0
M  V30 1937 H 174.276 2.8827 2.26486 0
M  V30 1938 H 173.924 2.04576 4.59519 0
M  V30 1939 H 173.624 3.79822 4.4834 0
M  V30 1940 H 175.148 3.20116 5.1996 0
M  V30 1941 H 176.562 4.60544 3.41426 0
M  V30 1942 H 174.959 5.23457 2.9345 0
M  V30 1943 H 176.029 4.53996 1.70339 0
M  V30 1944 N 177.372 -0.689602 1.41712 0
M  V30 1945 C 178.335 -1.78521 1.43746 0
M  V30 1946 C 179.335 -1.57436 0.327191 0
M  V30 1947 O 180.525 -1.64 0.587348 0
M  V30 1948 C 177.657 -3.16971 1.25467 0
M  V30 1949 H 178.85 -1.78108 2.41283 0
M  V30 1950 H 176.403 -0.89781 1.27942 0
M  V30 1951 H 177.138 -3.23019 0.287948 0
M  V30 1952 H 176.923 -3.33678 2.05917 0
M  V30 1953 H 178.413 -3.96935 1.2974 0
M  V30 1954 N 178.85 -1.27639 -0.924453 0
M  V30 1955 C 180.098 -1.13941 -1.66918 0
M  V30 1956 C 180.419 0.314589 -1.92446 0
M  V30 1957 O 179.689 1.21964 -1.53303 0
M  V30 1958 H 178.269 -0.418678 -0.618642 0
M  V30 1959 H 180.931 -1.60213 -1.10985 0
M  V30 1960 H 180.027 -1.67094 -2.63602 0
M  V30 1961 N 180.328 1.1314 -1.09713 0
M  V30 1962 C 181.258 2.20748 -0.761102 0
M  V30 1963 C 182.239 1.68061 0.262566 0
M  V30 1964 O 183.424 1.93765 0.129977 0
M  V30 1965 C 180.554 3.46812 -0.184054 0
M  V30 1966 C 179.508 4.12606 -1.13757 0
M  V30 1967 C 178.834 5.33031 -0.422083 0
M  V30 1968 C 180.134 4.59603 -2.48118 0
M  V30 1969 H 181.828 2.49113 -1.66082 0
M  V30 1970 H 179.374 1.19734 -0.799987 0
M  V30 1971 H 181.327 4.21353 0.0631215 0
M  V30 1972 H 180.051 3.17851 0.750868 0
M  V30 1973 H 178.71 3.40036 -1.37007 0
M  V30 1974 H 178.358 5.00335 0.517072 0
M  V30 1975 H 178.058 5.77999 -1.05788 0
M  V30 1976 H 179.582 6.10325 -0.183277 0
M  V30 1977 H 180.996 5.25552 -2.29059 0
M  V30 1978 H 179.393 5.15321 -3.07514 0
M  V30 1979 H 180.463 3.73971 -3.08665 0
M  V30 1980 N 181.806 0.884767 1.30421 0
M  V30 1981 C 182.716 0.355398 2.31892 0
M  V30 1982 C 183.732 -0.542261 1.65335 0
M  V30 1983 O 184.908 -0.435432 1.96637 0
M  V30 1984 C 181.973 -0.421661 3.44126 0
M  V30 1985 C 181.034 0.505727 4.26311 0
M  V30 1986 C 180.267 -0.234343 5.33185 0
M  V30 1987 O 180.49 -1.46045 5.51386 0
M  V30 1988 O 179.424 0.415443 6.00465 0
M  V30 1989 H 183.25 1.19685 2.79122 0
M  V30 1990 H 180.835 0.648596 1.34587 0
M  V30 1991 H 182.717 -0.861641 4.12497 0
M  V30 1992 H 181.392 -1.23942 2.99032 0
M  V30 1993 H 180.299 0.994513 3.60639 0
M  V30 1994 H 181.632 1.28948 4.75009 0
M  V30 1995 N 183.284 -1.43765 0.645699 0
M  V30 1996 C 184.533 -2.01116 0.153412 0
M  V30 1997 C 184.846 -1.51493 -1.23731 0
M  V30 1998 O 186.052 -2.01067 -1.8244 0
M  V30 1999 C 184.508 -3.59206 0.223473 0
M  V30 2000 C 184.116 -4.17823 1.61642 0
M  V30 2001 C 185.86 -4.23972 -0.211597 0
M  V30 2002 C 183.767 -5.68183 1.64081 0
M  V30 2003 H 182.697 -0.752093 0.0535891 0
M  V30 2004 H 185.348 -1.6482 0.806633 0
M  V30 2005 H 183.73 -3.92867 -0.497118 0
M  V30 2006 H 184.904 -3.95674 2.36176 0
M  V30 2007 H 183.219 -3.65399 1.99681 0
M  V30 2008 H 185.816 -5.34275 -0.213112 0
M  V30 2009 H 186.159 -3.97352 -1.24165 0
M  V30 2010 H 186.692 -3.95166 0.456988 0
M  V30 2011 H 183.431 -5.99559 2.64971 0
M  V30 2012 H 182.951 -5.9241 0.938611 0
M  V30 2013 H 184.63 -6.32085 1.3812 0
M  V30 2014 N 184.763 -0.387143 -1.52771 0
M  V30 2015 C 186.011 0.195349 -2.01154 0
M  V30 2016 C 186.332 1.475 -1.27549 0
M  V30 2017 O 185.602 1.91878 -0.394924 0
M  V30 2018 H 184.182 0.075178 -0.743207 0
M  V30 2019 H 186.844 -0.518337 -1.87881 0
M  V30 2020 H 185.94 0.407096 -3.09434 0
M  V30 2021 N 186.241 1.57166 -0.116904 0
M  V30 2022 C 187.49 1.94298 0.541407 0
M  V30 2023 C 187.803 1.00236 1.67964 0
M  V30 2024 O 189.009 1.26826 2.40057 0
M  V30 2025 C 187.465 3.45306 1.01449 0
M  V30 2026 C 187.073 4.47899 -0.0951738 0
M  V30 2027 C 188.817 3.91361 1.6443 0
M  V30 2028 C 186.724 5.90083 0.394491 0
M  V30 2029 H 185.654 0.725308 0.206019 0
M  V30 2030 H 188.305 1.82446 -0.196419 0
M  V30 2031 H 186.687 3.52385 1.80667 0
M  V30 2032 H 187.861 4.52486 -0.871374 0
M  V30 2033 H 186.176 4.11583 -0.631505 0
M  V30 2034 H 188.773 4.95004 2.02176 0
M  V30 2035 H 189.116 3.3122 2.52189 0
M  V30 2036 H 189.649 3.87073 0.917559 0
M  V30 2037 H 186.388 6.53974 -0.447004 0
M  V30 2038 H 185.908 5.88921 1.13722 0
M  V30 2039 H 187.587 6.41307 0.856399 0
M  V30 2040 N 187.719 -0.156864 1.56817 0
M  V30 2041 C 188.649 -1.19589 2.00551 0
M  V30 2042 C 189.63 -1.4536 0.883426 0
M  V30 2043 O 190.815 -1.56449 1.15054 0
M  V30 2044 C 187.945 -2.53143 2.37773 0
M  V30 2045 C 186.899 -2.41913 3.53075 0
M  V30 2046 C 186.225 -3.80088 3.76081 0
M  V30 2047 C 187.525 -1.91157 4.86062 0
M  V30 2048 H 189.219 -0.832293 2.87599 0
M  V30 2049 H 186.765 -0.398918 1.38364 0
M  V30 2050 H 188.718 -3.26047 2.66967 0
M  V30 2051 H 187.442 -2.91319 1.4765 0
M  V30 2052 H 186.101 -1.71462 3.24031 0
M  V30 2053 H 185.749 -4.15683 2.83225 0
M  V30 2054 H 185.449 -3.73439 4.53671 0
M  V30 2055 H 186.973 -4.54556 4.0769 0
M  V30 2056 H 188.387 -2.53846 5.14038 0
M  V30 2057 H 186.784 -1.95422 5.67389 0
M  V30 2058 H 187.854 -0.866673 4.77092 0
M  V30 2059 N 189.197 -1.51736 -0.425897 0
M  V30 2060 C 190.443 -1.65214 -1.1761 0
M  V30 2061 C 190.776 -0.372778 -1.90589 0
M  V30 2062 O 190.051 0.628139 -1.84078 0
M  V30 2063 C 190.334 -2.86312 -2.18398 0
M  V30 2064 C 190.187 -4.24254 -1.49426 0
M  V30 2065 C 191.506 -3.02925 -3.19256 0
M  V30 2066 H 188.625 -0.601263 -0.426206 0
M  V30 2067 H 191.267 -1.8425 -0.463882 0
M  V30 2068 H 189.417 -2.70213 -2.79137 0
M  V30 2069 H 191.089 -4.52046 -0.919362 0
M  V30 2070 H 189.332 -4.26426 -0.796432 0
M  V30 2071 H 190.003 -5.05001 -2.22885 0
M  V30 2072 H 192.479 -3.1781 -2.68581 0
M  V30 2073 H 191.355 -3.89199 -3.8706 0
M  V30 2074 H 191.616 -2.15497 -3.86023 0
M  V30 2075 N 190.675 0.682077 -1.42076 0
M  V30 2076 C 191.623 1.81707 -1.45208 0
M  V30 2077 C 192.617 1.66183 -0.328591 0
M  V30 2078 O 193.823 1.7288 -0.501264 0
M  V30 2079 H 190.198 0.599014 -0.454628 0
M  V30 2080 H 192.169 1.76183 -2.40836 0
M  V30 2081 C 190.918 3.19816 -1.36428 0
M  V30 2082 H 190.241 3.32385 -2.22171 0
M  V30 2083 H 191.681 3.99272 -1.42681 0
M  V30 2084 C 190.14 3.36809 -0.078191 0
M  V30 2085 O 190.67 3.92124 0.87188 0
M  V30 2086 N 188.876 2.906 0.00229266 0
M  V30 2087 H 188.423 2.45772 -0.771616 0
M  V30 2088 H 188.381 3.02347 0.862179 0
M  V30 2089 N 192.153 1.28127 0.917671 0
M  V30 2090 C 193.101 1.11569 2.04096 0
M  V30 2091 C 194.095 0.0360242 1.69362 0
M  V30 2092 O 195.301 0.194501 1.78946 0
M  V30 2093 H 191.676 0.344097 0.668656 0
M  V30 2094 H 193.647 2.06711 2.15205 0
M  V30 2095 C 192.396 0.790197 3.38602 0
M  V30 2096 H 191.719 1.61293 3.6582 0
M  V30 2097 H 193.159 0.714271 4.1794 0
M  V30 2098 C 191.618 -0.505897 3.3308 0
M  V30 2099 O 192.148 -1.53736 3.71117 0
M  V30 2100 N 190.354 -0.505193 2.86175 0
M  V30 2101 H 189.901 0.334621 2.55417 0
M  V30 2102 H 189.859 -1.37243 2.82863 0
M  V30 2103 N 193.631 -1.12557 1.10312 0
M  V30 2104 C 194.877 -1.84311 0.846011 0
M  V30 2105 C 195.21 -1.83805 -0.626859 0
M  V30 2106 O 194.485 -1.28268 -1.46211 0
M  V30 2107 C 194.768 -3.32048 1.39341 0
M  V30 2108 C 194.621 -3.41016 2.93305 0
M  V30 2109 C 195.94 -4.27764 1.03468 0
M  V30 2110 H 193.059 -0.669192 0.30879 0
M  V30 2111 H 195.701 -1.32057 1.36605 0
M  V30 2112 H 193.851 -3.76678 0.951087 0
M  V30 2113 H 195.523 -3.05031 3.46055 0
M  V30 2114 H 193.766 -2.81603 3.29973 0
M  V30 2115 H 194.437 -4.44948 3.26689 0
M  V30 2116 H 196.913 -3.91253 1.41633 0
M  V30 2117 H 195.789 -5.29549 1.44463 0
M  V30 2118 H 196.05 -4.42064 -0.0560404 0
M  V30 2119 N 195.109 -0.891671 -1.2995 0
M  V30 2120 C 196.357 -0.512486 -1.95494 0
M  V30 2121 C 196.678 0.942776 -1.70695 0
M  V30 2122 O 195.948 1.66374 -1.03424 0
M  V30 2123 H 194.528 -0.186533 -0.723336 0
M  V30 2124 H 197.19 -1.13621 -1.58355 0
M  V30 2125 H 196.286 -0.688342 -3.04415 0
M  V30 2126 N 196.587 1.43421 -0.653314 0
M  V30 2127 C 197.52 2.2803 0.0879804 0
M  V30 2128 C 198.498 1.39833 0.82979 0
M  V30 2129 O 199.682 1.69275 0.829341 0
M  V30 2130 C 196.809 3.19247 1.13132 0
M  V30 2131 C 195.855 4.23704 0.487546 0
M  V30 2132 S 196.688 5.30377 -0.738961 0
M  V30 2133 C 197.844 6.25162 0.30384 0
M  V30 2134 H 198.077 2.90554 -0.629739 0
M  V30 2135 H 195.61 1.47934 -0.442156 0
M  V30 2136 H 197.568 3.72346 1.72827 0
M  V30 2137 H 196.229 2.55901 1.82136 0
M  V30 2138 H 195.422 4.87631 1.27407 0
M  V30 2139 H 195.024 3.73983 -0.0352915 0
M  V30 2140 H 197.316 6.67321 1.17 0
M  V30 2141 H 198.259 7.07463 -0.300402 0
M  V30 2142 H 198.667 5.60864 0.63969 0
M  V30 2143 N 198.065 0.39524 1.52563 0
M  V30 2144 C 198.995 -0.428384 2.29537 0
M  V30 2145 C 199.976 -1.05831 1.33169 0
M  V30 2146 O 201.161 -1.06995 1.62067 0
M  V30 2147 C 198.291 -1.55274 3.10656 0
M  V30 2148 C 197.245 -1.04855 4.14957 0
M  V30 2149 C 196.571 -2.26543 4.84337 0
M  V30 2150 C 197.871 -0.112324 5.22179 0
M  V30 2151 H 199.565 0.213867 2.98635 0
M  V30 2152 H 197.111 0.104298 1.43622 0
M  V30 2153 H 199.064 -2.1358 3.63265 0
M  V30 2154 H 197.788 -2.22266 2.39302 0
M  V30 2155 H 196.447 -0.487985 3.63338 0
M  V30 2156 H 196.095 -2.92059 4.09525 0
M  V30 2157 H 195.795 -1.93466 5.54837 0
M  V30 2158 H 197.319 -2.85481 5.39753 0
M  V30 2159 H 198.733 -0.603752 5.70112 0
M  V30 2160 H 197.13 0.128968 5.99961 0
M  V30 2161 H 198.2 0.837052 4.77621 0
M  V30 2162 N 199.544 -1.57102 0.125237 0
M  V30 2163 C 200.955 -1.82384 -0.399142 0
M  V30 2164 C 201.306 -1.04276 -1.66195 0
M  V30 2165 O 200.431 -0.281269 -2.14564 0
M  V30 2166 C 201.026 -3.30821 -0.730932 0
M  V30 2167 C 199.585 -3.56762 -1.19992 0
M  V30 2168 C 198.732 -2.7649 -0.211792 0
M  V30 2169 H 201.683 -1.54786 0.350277 0
M  V30 2170 H 201.704 -3.4579 -1.58775 0
M  V30 2171 H 201.216 -3.87643 0.188345 0
M  V30 2172 H 199.317 -3.05305 -2.13588 0
M  V30 2173 H 199.43 -4.65317 -1.14093 0
M  V30 2174 H 197.794 -2.4489 -0.700085 0
M  V30 2175 H 198.577 -3.36073 0.700691 0
M  V30 2176 N 201.022 0.148545 -1.56898 0
M  V30 2177 C 201.97 1.20265 -1.99096 0
M  V30 2178 C 202.964 1.44559 -0.883123 0
M  V30 2179 O 204.17 1.4487 -1.0683 0
M  V30 2180 H 200.545 0.404786 -0.63376 0
M  V30 2181 H 202.516 0.82004 -2.86911 0
M  V30 2182 C 201.265 2.52886 -2.3863 0
M  V30 2183 H 200.588 2.35021 -3.23427 0
M  V30 2184 H 202.028 3.25274 -2.7198 0
M  V30 2185 C 200.487 3.13315 -1.23837 0
M  V30 2186 O 201.017 3.98077 -0.538268 0
M  V30 2187 N 199.223 2.72742 -1.00301 0
M  V30 2188 H 198.77 2.03912 -1.5741 0
M  V30 2189 H 198.728 3.13507 -0.236838 0
M  V30 2190 N 202.5 1.5196 0.417844 0
M  V30 2191 C 203.43 1.77634 1.51554 0
M  V30 2192 C 204.411 0.626918 1.58126 0
M  V30 2193 O 205.596 0.871632 1.7354 0
M  V30 2194 C 202.726 1.91911 2.8946 0
M  V30 2195 C 201.68 3.07463 2.97743 0
M  V30 2196 C 201.006 3.06951 4.37819 0
M  V30 2197 C 202.306 4.47082 2.70027 0
M  V30 2198 H 204 2.6955 1.3032 0
M  V30 2199 H 201.546 1.29706 0.625492 0
M  V30 2200 H 203.499 2.08455 3.6623 0
M  V30 2201 H 202.223 0.966598 3.11969 0
M  V30 2202 H 200.882 2.90656 2.23416 0
M  V30 2203 H 200.53 2.09438 4.57323 0
M  V30 2204 H 200.23 3.84556 4.44286 0
M  V30 2205 H 201.754 3.25613 5.16535 0
M  V30 2206 H 203.168 4.6414 3.36522 0
M  V30 2207 H 201.565 5.2654 2.87881 0
M  V30 2208 H 202.635 4.55777 1.65514 0
M  V30 2209 N 203.978 -0.674533 1.42435 0
M  V30 2210 C 204.908 -1.80009 1.48724 0
M  V30 2211 C 205.889 -1.6659 0.343793 0
M  V30 2212 O 207.074 -1.86007 0.558137 0
M  V30 2213 C 204.204 -3.18306 1.38919 0
M  V30 2214 C 203.158 -3.46461 2.51294 0
M  V30 2215 C 202.484 -4.84335 2.26547 0
M  V30 2216 C 203.784 -3.43328 3.93603 0
M  V30 2217 H 205.478 -1.75004 2.42928 0
M  V30 2218 H 203.024 -0.840533 1.16923 0
M  V30 2219 H 204.977 -3.9678 1.41927 0
M  V30 2220 H 203.701 -3.2399 0.412094 0
M  V30 2221 H 202.36 -2.70348 2.47604 0
M  V30 2222 H 202.008 -4.86669 1.2713 0
M  V30 2223 H 201.708 -5.04136 3.01861 0
M  V30 2224 H 203.232 -5.65094 2.31304 0
M  V30 2225 H 204.646 -4.11772 3.98894 0
M  V30 2226 H 203.043 -3.74664 4.68771 0
M  V30 2227 H 204.113 -2.41897 4.20255 0
M  V30 2228 N 205.456 -1.28612 -0.910864 0
M  V30 2229 C 206.867 -1.14406 -1.47541 0
M  V30 2230 C 207.218 0.264901 -1.94403 0
M  V30 2231 O 206.343 1.15942 -1.82719 0
M  V30 2232 C 206.938 -2.07073 -2.68153 0
M  V30 2233 C 205.497 -1.96923 -3.20778 0
M  V30 2234 C 204.644 -1.98646 -1.93481 0
M  V30 2235 H 207.595 -1.41259 -0.723291 0
M  V30 2236 H 207.616 -1.63642 -3.43514 0
M  V30 2237 H 207.128 -3.09611 -2.34015 0
M  V30 2238 H 205.229 -0.97433 -3.59635 0
M  V30 2239 H 205.342 -2.84026 -3.85832 0
M  V30 2240 H 203.706 -1.43093 -2.10705 0
M  V30 2241 H 204.489 -3.02868 -1.61634 0
M  V30 2242 N 206.934 1.1197 -1.10907 0
M  V30 2243 C 208.159 1.87942 -0.877064 0
M  V30 2244 C 208.584 1.79341 0.567314 0
M  V30 2245 O 207.942 1.15184 1.40009 0
M  V30 2246 C 207.99 3.34926 -1.33629 0
M  V30 2247 O 207.094 4.09303 -0.504447 0
M  V30 2248 H 206.435 0.583785 -0.316371 0
M  V30 2249 H 208.965 1.4157 -1.47712 0
M  V30 2250 H 208.975 3.8577 -1.32837 0
M  V30 2251 H 207.65 3.40504 -2.3881 0
M  V30 2252 H 206.227 3.68393 -0.577993 0
M  V30 2253 N 208.412 0.89855 1.29475 0
M  V30 2254 C 209.362 0.346767 2.25348 0
M  V30 2255 C 210.346 -0.532509 1.51833 0
M  V30 2256 O 211.538 -0.374714 1.72988 0
M  V30 2257 C 208.667 -0.425681 3.40651 0
M  V30 2258 C 207.753 0.46845 4.21505 0
M  V30 2259 N 208.144 1.57514 4.80648 0
M  V30 2260 C 206.442 0.26603 4.45206 0
M  V30 2261 C 207.143 2.12889 5.41344 0
M  V30 2262 N 206.119 1.42208 5.24669 0
M  V30 2263 H 209.921 1.19219 2.68634 0
M  V30 2264 H 207.435 0.749473 1.44072 0
M  V30 2265 H 209.432 -0.837716 4.08397 0
M  V30 2266 H 208.092 -1.26838 2.98902 0
M  V30 2267 H 209.103 1.95789 4.79465 0
M  V30 2268 H 205.78 -0.538394 4.14014 0
M  V30 2269 H 207.17 3.05901 5.98226 0
M  V30 2270 N 209.89 -1.43072 0.660911 0
M  V30 2271 C 211.137 -2.01721 0.177445 0
M  V30 2272 C 211.465 -1.5218 -1.21126 0
M  V30 2273 O 210.72 -0.708659 -1.82419 0
M  V30 2274 C 211.019 -3.57103 0.145563 0
M  V30 2275 C 210.685 -4.26021 1.47705 0
M  V30 2276 C 209.347 -4.44563 1.84165 0
M  V30 2277 C 211.699 -4.64983 2.35458 0
M  V30 2278 C 209.027 -4.99334 3.0803 0
M  V30 2279 C 211.379 -5.21127 3.58622 0
M  V30 2280 C 210.043 -5.37884 3.95268 0
M  V30 2281 H 209.313 -0.73815 0.0649317 0
M  V30 2282 H 211.96 -1.71446 0.853144 0
M  V30 2283 H 210.265 -3.86965 -0.61361 0
M  V30 2284 H 211.962 -4.00248 -0.2455 0
M  V30 2285 H 208.552 -4.11939 1.18339 0
M  V30 2286 H 212.736 -4.50343 2.08579 0
M  V30 2287 H 207.992 -5.10493 3.36462 0
M  V30 2288 H 212.166 -5.50262 4.26831 0
M  V30 2289 H 209.793 -5.80089 4.91325 0
M  V30 2290 N 211.368 -0.403325 -1.52352 0
M  V30 2291 C 212.298 0.416205 -2.29761 0
M  V30 2292 C 213.279 1.05123 -1.33728 0
M  V30 2293 O 214.464 1.06134 -1.62632 0
M  V30 2294 C 211.594 1.53624 -3.11475 0
M  V30 2295 C 210.548 1.02653 -4.15507 0
M  V30 2296 C 209.874 2.23971 -4.85532 0
M  V30 2297 C 211.174 0.08463 -5.22231 0
M  V30 2298 H 212.868 -0.229701 -2.98518 0
M  V30 2299 H 210.414 -0.111913 -1.43564 0
M  V30 2300 H 212.367 2.1165 -3.64393 0
M  V30 2301 H 211.091 2.20994 -2.40477 0
M  V30 2302 H 209.75 0.46871 -3.63591 0
M  V30 2303 H 209.398 2.89883 -4.11068 0
M  V30 2304 H 209.098 1.90521 -5.55856 0
M  V30 2305 H 210.622 2.82614 -5.41259 0
M  V30 2306 H 212.036 0.573509 -5.70424 0
M  V30 2307 H 210.433 -0.160783 -5.99885 0
M  V30 2308 H 211.503 -0.86237 -4.7717 0
M  V30 2309 N 212.846 1.57033 -0.133567 0
M  V30 2310 C 213.794 2.17348 0.828412 0
M  V30 2311 C 214.788 1.12671 1.26498 0
M  V30 2312 O 215.994 1.30947 1.23502 0
M  V30 2313 H 212.369 0.695775 0.285309 0
M  V30 2314 H 214.34 2.96935 0.295372 0
M  V30 2315 C 213.089 2.79893 2.06289 0
M  V30 2316 H 212.412 3.60147 1.73592 0
M  V30 2317 H 213.852 3.25615 2.71572 0
M  V30 2318 C 212.311 1.77713 2.86216 0
M  V30 2319 O 212.841 1.23937 3.82103 0
M  V30 2320 N 211.047 1.47321 2.50489 0
M  V30 2321 H 210.594 1.91243 1.7258 0
M  V30 2322 H 210.552 0.79199 3.04261 0
M  V30 2323 N 214.325 -0.140222 1.56975 0
M  V30 2324 C 215.288 -1.15689 1.97861 0
M  V30 2325 C 216.288 -1.3549 0.865974 0
M  V30 2326 O 217.478 -1.32367 1.13246 0
M  V30 2327 C 214.61 -2.51582 2.30042 0
M  V30 2328 H 215.803 -0.805971 2.88867 0
M  V30 2329 H 213.356 -0.383801 1.51515 0
M  V30 2330 H 214.091 -2.91632 1.41849 0
M  V30 2331 H 213.876 -2.38569 3.11171 0
M  V30 2332 H 215.366 -3.24792 2.62488 0
M  V30 2333 N 215.803 -1.52179 -0.40978 0
M  V30 2334 C 217.214 -1.58377 -0.988615 0
M  V30 2335 C 217.565 -0.423879 -1.91566 0
M  V30 2336 O 216.69 0.455844 -2.11544 0
M  V30 2337 C 217.285 -2.87044 -1.79976 0
M  V30 2338 C 215.844 -2.95722 -2.32863 0
M  V30 2339 C 214.991 -2.53309 -1.12828 0
M  V30 2340 H 217.942 -1.57558 -0.190039 0
M  V30 2341 H 217.963 -2.7236 -2.65707 0
M  V30 2342 H 217.475 -3.71444 -1.12478 0
M  V30 2343 H 215.576 -2.15814 -3.03735 0
M  V30 2344 H 215.689 -3.99951 -2.63773 0
M  V30 2345 H 214.053 -2.07142 -1.48204 0
M  V30 2346 H 214.836 -3.40082 -0.46897 0
M  V30 2347 N 217.281 0.66697 -1.42791 0
M  V30 2348 C 218.558 1.4234 -1.34159 0
M  V30 2349 C 218.938 2.11093 0.0172729 0
M  V30 2350 O 218.286 2.03808 1.03318 0
M  V30 2351 C 218.496 2.41942 -2.51526 0
M  V30 2352 C 219.844 3.06353 -2.93995 0
M  V30 2353 O 220.868 2.52269 -2.51473 0
M  V30 2354 O 219.727 4.04376 -3.67617 0
M  V30 2355 H 216.821 0.635277 -0.529483 0
M  V30 2356 H 219.367 0.695034 -1.54814 0
M  V30 2357 H 218.139 1.89991 -3.42081 0
M  V30 2358 H 217.762 3.22249 -2.32898 0
M  V30 2359 N 218.759 1.29093 0.90403 0
M  V30 2360 C 219.669 1.15727 2.0407 0
M  V30 2361 C 220.685 0.0815308 1.73809 0
M  V30 2362 O 221.861 0.292749 1.99261 0
M  V30 2363 C 218.926 0.830424 3.36608 0
M  V30 2364 C 217.987 1.98955 3.80415 0
M  V30 2365 C 217.22 1.6782 5.06628 0
M  V30 2366 O 217.443 0.597105 5.67266 0
M  V30 2367 O 216.377 2.52486 5.46383 0
M  V30 2368 H 220.203 2.11171 2.18267 0
M  V30 2369 H 217.788 1.08504 1.027 0
M  V30 2370 H 219.67 0.662521 4.16159 0
M  V30 2371 H 218.345 -0.0942678 3.23563 0
M  V30 2372 H 217.252 2.21267 3.01648 0
M  V30 2373 H 218.585 2.89529 3.98037 0
M  V30 2374 N 220.237 -1.11381 1.11499 0
M  V30 2375 C 221.486 -1.82494 0.858993 0
M  V30 2376 C 221.799 -1.85605 -0.617278 0
M  V30 2377 O 223.005 -2.52824 -0.989552 0
M  V30 2378 C 221.461 -3.27745 1.48699 0
M  V30 2379 C 221.069 -3.32961 2.99735 0
M  V30 2380 C 222.813 -4.03754 1.31085 0
M  V30 2381 C 220.72 -4.72612 3.55516 0
M  V30 2382 H 219.65 -0.683802 0.317696 0
M  V30 2383 H 222.301 -1.25331 1.34031 0
M  V30 2384 H 220.683 -3.84844 0.933339 0
M  V30 2385 H 221.857 -2.85741 3.61509 0
M  V30 2386 H 220.172 -2.70433 3.16631 0
M  V30 2387 H 222.769 -5.06891 1.70192 0
M  V30 2388 H 223.112 -4.15527 0.253496 0
M  V30 2389 H 223.645 -3.53043 1.83318 0
M  V30 2390 H 220.384 -4.66036 4.60967 0
M  V30 2391 H 219.904 -5.2024 2.98513 0
M  V30 2392 H 221.583 -5.4157 3.53992 0
M  V30 2393 N 221.715 -0.905404 -1.28997 0
M  V30 2394 C 222.647 -0.344748 -2.26592 0
M  V30 2395 C 223.66 0.512135 -1.54535 0
M  V30 2396 O 224.849 0.328368 -1.75454 0
M  V30 2397 C 221.949 0.526587 -3.34784 0
M  V30 2398 C 221.122 -0.305871 -4.36329 0
M  V30 2399 C 220.181 0.499209 -5.23827 0
M  V30 2400 O 219.207 -0.0853004 -5.69136 0
M  V30 2401 N 220.409 1.80408 -5.51755 0
M  V30 2402 H 223.174 -1.18359 -2.75338 0
M  V30 2403 H 220.735 -0.770481 -1.42391 0
M  V30 2404 H 222.727 1.07171 -3.90252 0
M  V30 2405 H 221.297 1.26613 -2.85811 0
M  V30 2406 H 220.517 -1.0324 -3.80441 0
M  V30 2407 H 221.805 -0.875773 -5.01206 0
M  V30 2408 H 221.203 2.3016 -5.16762 0
M  V30 2409 H 219.76 2.29621 -6.10014 0
M  V30 2410 N 223.193 1.4272 -0.668489 0
M  V30 2411 C 224.418 2.06484 -0.194758 0
M  V30 2412 C 224.843 1.49862 1.13679 0
M  V30 2413 O 224.201 0.614582 1.70565 0
M  V30 2414 C 224.249 3.60353 -0.133546 0
M  V30 2415 O 223.353 4.02464 0.899806 0
M  V30 2416 H 222.694 0.656137 -0.10188 0
M  V30 2417 H 225.224 1.82964 -0.915722 0
M  V30 2418 H 225.234 4.07976 0.0447041 0
M  V30 2419 H 223.909 4.00938 -1.1055 0
M  V30 2420 H 222.486 3.66402 0.693109 0
M  V30 2421 N 224.671 0.411399 1.52136 0
M  V30 2422 C 225.601 -0.404015 2.29978 0
M  V30 2423 C 226.582 -1.04412 1.34284 0
M  V30 2424 O 227.767 -1.0527 1.63192 0
M  V30 2425 C 224.897 -1.5197 3.12286 0
M  V30 2426 C 223.851 -1.00448 4.16046 0
M  V30 2427 C 223.177 -2.21393 4.86712 0
M  V30 2428 C 224.477 -0.0569336 5.22269 0
M  V30 2429 H 226.171 0.245529 2.98392 0
M  V30 2430 H 223.717 0.119525 1.43503 0
M  V30 2431 H 225.67 -2.09715 3.6551 0
M  V30 2432 H 224.394 -2.19716 2.41646 0
M  V30 2433 H 223.053 -0.449421 3.63835 0
M  V30 2434 H 222.701 -2.87699 4.12599 0
M  V30 2435 H 222.401 -1.87571 5.56858 0
M  V30 2436 H 223.925 -2.7974 5.4275 0
M  V30 2437 H 225.339 -0.54325 5.7072 0
M  V30 2438 H 223.736 0.192594 5.99791 0
M  V30 2439 H 224.806 0.887663 4.76706 0
M  V30 2440 N 226.149 -1.5696 0.141893 0
M  V30 2441 C 227.398 -1.95135 -0.510427 0
M  V30 2442 C 227.711 -1.02896 -1.66348 0
M  V30 2443 O 228.917 -1.30629 -2.38009 0
M  V30 2444 C 227.373 -3.46876 -0.959427 0
M  V30 2445 C 226.981 -4.47691 0.166419 0
M  V30 2446 C 228.725 -3.93927 -1.58183 0
M  V30 2447 C 226.632 -5.90636 -0.300565 0
M  V30 2448 H 225.562 -0.728494 -0.194454 0
M  V30 2449 H 228.213 -1.8211 0.22542 0
M  V30 2450 H 226.595 -3.55215 -1.75038 0
M  V30 2451 H 227.769 -4.51043 0.94325 0
M  V30 2452 H 226.084 -4.10527 0.696905 0
M  V30 2453 H 228.681 -4.98158 -1.94275 0
M  V30 2454 H 229.024 -3.3519 -2.46888 0
M  V30 2455 H 229.557 -3.88484 -0.855863 0
M  V30 2456 H 226.296 -6.5318 0.550989 0
M  V30 2457 H 225.816 -5.90655 -1.04338 0
M  V30 2458 H 227.495 -6.42588 -0.754265 0
M  V30 2459 N 227.627 0.131896 -1.57047 0
M  V30 2460 C 228.577 1.1679 -1.95816 0
M  V30 2461 C 229.561 1.37756 -0.831393 0
M  V30 2462 O 230.753 1.39065 -1.09499 0
M  V30 2463 C 227.882 2.49778 -2.35512 0
M  V30 2464 C 226.968 2.32342 -3.54793 0
M  V30 2465 N 227.359 1.8469 -4.70875 0
M  V30 2466 C 225.657 2.63043 -3.60173 0
M  V30 2467 C 226.358 1.80656 -5.52936 0
M  V30 2468 N 225.334 2.24528 -4.95064 0
M  V30 2469 H 229.136 0.791818 -2.83033 0
M  V30 2470 H 226.65 0.339791 -1.58805 0
M  V30 2471 H 228.647 3.24692 -2.61498 0
M  V30 2472 H 227.307 2.88156 -1.49654 0
M  V30 2473 H 228.318 1.54429 -4.9434 0
M  V30 2474 H 224.995 3.05193 -2.84892 0
M  V30 2475 H 226.385 1.45178 -6.56028 0
M  V30 2476 N 229.106 1.52395 0.401703 0
M  V30 2477 C 230.346 1.68498 1.15705 0
M  V30 2478 C 230.71 0.409748 1.87577 0
M  V30 2479 O 231.911 0.446983 2.65058 0
M  V30 2480 C 230.182 2.87789 2.11924 0
M  V30 2481 S 231.741 3.24415 2.95466 0
M  V30 2482 H 228.559 0.593267 0.391862 0
M  V30 2483 H 231.161 1.90408 0.443282 0
M  V30 2484 H 229.865 3.7884 1.57824 0
M  V30 2485 H 229.396 2.68175 2.87829 0
M  V30 2486 H 231.411 2.73614 4.13944 0
M  V30 2487 N 230.584 -0.659388 1.43143 0
M  V30 2488 C 231.532 -1.79374 1.4808 0
M  V30 2489 C 232.526 -1.65639 0.354988 0
M  V30 2490 O 233.732 -1.7206 0.528704 0
M  V30 2491 H 230.107 -0.591705 0.4641 0
M  V30 2492 H 232.078 -1.72329 2.43609 0
M  V30 2493 C 230.827 -3.17606 1.41499 0
M  V30 2494 H 230.15 -3.28809 2.27431 0
M  V30 2495 H 231.59 -3.96951 1.49015 0
M  V30 2496 C 230.049 -3.36642 0.131765 0
M  V30 2497 O 230.579 -3.93461 -0.809386 0
M  V30 2498 N 228.785 -2.90567 0.0439396 0
M  V30 2499 H 228.332 -2.44513 0.810619 0
M  V30 2500 H 228.29 -3.03681 -0.813969 0
M  V30 2501 N 232.062 -1.29571 -0.897171 0
M  V30 2502 C 233.311 -1.1706 -1.64256 0
M  V30 2503 C 233.624 0.276476 -1.93636 0
M  V30 2504 O 234.83 0.52294 -2.66416 0
M  V30 2505 C 233.286 -2.0475 -2.95982 0
M  V30 2506 C 232.894 -3.54295 -2.74187 0
M  V30 2507 C 234.638 -2.0097 -3.73914 0
M  V30 2508 C 232.545 -4.34081 -4.01656 0
M  V30 2509 H 231.475 -0.43452 -0.616205 0
M  V30 2510 H 234.126 -1.54229 -0.994268 0
M  V30 2511 H 232.508 -1.60452 -3.62038 0
M  V30 2512 H 233.682 -4.06662 -2.1671 0
M  V30 2513 H 231.997 -3.59773 -2.09648 0
M  V30 2514 H 234.594 -2.57838 -4.68427 0
M  V30 2515 H 234.937 -0.990273 -4.0435 0
M  V30 2516 H 235.47 -2.43325 -3.14703 0
M  V30 2517 H 232.209 -5.36671 -3.76384 0
M  V30 2518 H 231.729 -3.86483 -4.58684 0
M  V30 2519 H 233.408 -4.44877 -4.69781 0
M  V30 2520 N 233.54 1.10788 -1.12088 0
M  V30 2521 C 234.768 1.86461 -0.896651 0
M  V30 2522 C 235.183 1.80492 0.553912 0
M  V30 2523 O 234.54 1.19102 1.38278 0
M  V30 2524 C 234.591 3.35006 -1.35843 0
M  V30 2525 O 234.312 3.40866 -2.75213 0
M  V30 2526 C 235.813 4.27565 -1.1706 0
M  V30 2527 H 233.033 0.589425 -0.320654 0
M  V30 2528 H 235.577 1.40076 -1.48993 0
M  V30 2529 H 233.732 3.7887 -0.808458 0
M  V30 2530 H 234.146 4.33411 -2.9539 0
M  V30 2531 H 235.62 5.30007 -1.54263 0
M  V30 2532 H 236.097 4.3906 -0.110814 0
M  V30 2533 H 236.703 3.89501 -1.70789 0
M  V30 2534 N 235.018 0.912232 1.28515 0
M  V30 2535 C 236.243 0.559774 1.99703 0
M  V30 2536 C 236.668 -0.851393 1.67729 0
M  V30 2537 O 236.026 -1.56875 0.908834 0
M  V30 2538 C 236.074 0.773874 3.52198 0
M  V30 2539 O 235.178 -0.167842 4.12058 0
M  V30 2540 H 234.519 0.21723 0.627461 0
M  V30 2541 H 237.049 1.22725 1.63706 0
M  V30 2542 H 237.059 0.683386 4.02236 0
M  V30 2543 H 235.734 1.80261 3.74805 0
M  V30 2544 H 234.311 -0.0287509 3.72889 0
M  V30 2545 N 236.496 -1.42363 0.676048 0
M  V30 2546 C 237.742 -2.0182 0.199125 0
M  V30 2547 C 238.075 -1.53339 -1.19168 0
M  V30 2548 O 237.35 -0.736124 -1.80032 0
M  V30 2549 C 237.633 -3.59331 0.235144 0
M  V30 2550 C 237.486 -4.17989 1.66149 0
M  V30 2551 C 238.805 -4.3813 -0.41595 0
M  V30 2552 H 235.924 -0.733293 0.0738311 0
M  V30 2553 H 238.566 -1.69368 0.86107 0
M  V30 2554 H 236.716 -3.87109 -0.328487 0
M  V30 2555 H 238.388 -4.0116 2.27747 0
M  V30 2556 H 236.631 -3.7377 2.20178 0
M  V30 2557 H 237.302 -5.27126 1.63837 0
M  V30 2558 H 239.778 -4.16051 0.0638529 0
M  V30 2559 H 238.654 -5.47717 -0.360115 0
M  V30 2560 H 238.915 -4.16101 -1.49373 0
M  V30 2561 N 237.974 -0.419461 -1.51915 0
M  V30 2562 C 239.22 0.153166 -2.02221 0
M  V30 2563 C 239.553 1.43907 -1.30401 0
M  V30 2564 O 238.828 1.90055 -0.413438 0
M  V30 2565 C 239.111 0.390291 -3.57979 0
M  V30 2566 C 238.964 -0.913014 -4.40436 0
M  V30 2567 C 240.283 1.16794 -4.2432 0
M  V30 2568 H 237.402 0.0541924 -0.735005 0
M  V30 2569 H 240.044 -0.554955 -1.81715 0
M  V30 2570 H 238.194 0.993491 -3.75582 0
M  V30 2571 H 239.866 -1.54882 -4.34522 0
M  V30 2572 H 238.109 -1.52168 -4.06236 0
M  V30 2573 H 238.78 -0.701361 -5.47526 0
M  V30 2574 H 241.256 0.657161 -4.10878 0
M  V30 2575 H 240.132 1.3026 -5.3322 0
M  V30 2576 H 240.393 2.19132 -3.83971 0
M  V30 2577 N 239.452 1.56882 -0.150215 0
M  V30 2578 C 240.399 2.16922 0.788244 0
M  V30 2579 C 241.369 1.10303 1.24187 0
M  V30 2580 O 242.554 1.38359 1.31383 0
M  V30 2581 C 239.694 2.79754 2.02068 0
M  V30 2582 C 238.807 4.00775 1.61257 0
M  V30 2583 C 237.942 4.51595 2.79705 0
M  V30 2584 C 236.981 5.65074 2.35282 0
M  V30 2585 N 236.118 6.10499 3.4675 0
M  V30 2586 H 240.958 2.96779 0.269444 0
M  V30 2587 H 238.495 1.46599 0.12128 0
M  V30 2588 H 240.453 3.14329 2.74323 0
M  V30 2589 H 239.083 2.02536 2.51354 0
M  V30 2590 H 238.135 3.72158 0.787553 0
M  V30 2591 H 239.447 4.82978 1.24633 0
M  V30 2592 H 238.601 4.88242 3.60145 0
M  V30 2593 H 237.34 3.68406 3.19576 0
M  V30 2594 H 236.345 5.28 1.53283 0
M  V30 2595 H 237.57 6.50052 1.96493 0
M  V30 2596 H 235.516 5.30243 3.86236 0
M  V30 2597 H 235.433 6.87637 3.14152 0
M  V30 2598 H 236.701 6.51791 4.27537 0
M  V30 2599 N 240.93 -0.123565 1.57115 0
M  V30 2600 C 241.863 -1.18202 1.95201 0
M  V30 2601 C 242.841 -1.40349 0.821031 0
M  V30 2602 O 244.025 -1.54578 1.07879 0
M  V30 2603 C 241.152 -2.53671 2.24429 0
M  V30 2604 C 240.198 -2.4798 3.46999 0
M  V30 2605 S 241.031 -1.92389 4.99747 0
M  V30 2606 C 242.187 -3.2954 5.32123 0
M  V30 2607 H 242.42 -0.857212 2.84674 0
M  V30 2608 H 239.953 -0.33014 1.50829 0
M  V30 2609 H 241.911 -3.3162 2.41947 0
M  V30 2610 H 240.572 -2.83332 1.35579 0
M  V30 2611 H 239.765 -3.47758 3.64801 0
M  V30 2612 H 239.367 -1.7815 3.28844 0
M  V30 2613 H 241.659 -4.25736 5.27025 0
M  V30 2614 H 242.602 -3.16569 6.33395 0
M  V30 2615 H 243.01 -3.27758 4.59603 0
M  V30 2616 N 242.408 -1.52605 -0.393616 0
M  V30 2617 C 243.636 -1.71294 -1.16043 0
M  V30 2618 C 244.051 -0.429259 -1.83855 0
M  V30 2619 O 243.408 0.595921 -1.72496 0
M  V30 2620 C 243.459 -2.8593 -2.21193 0
M  V30 2621 O 243.18 -4.09329 -1.56146 0
M  V30 2622 C 244.681 -3.16259 -3.10636 0
M  V30 2623 H 241.901 -0.573641 -0.348104 0
M  V30 2624 H 244.445 -1.99234 -0.461092 0
M  V30 2625 H 242.6 -2.60465 -2.86769 0
M  V30 2626 H 243.014 -4.73323 -2.25978 0
M  V30 2627 H 244.488 -3.99946 -3.80456 0
M  V30 2628 H 244.965 -2.3045 -3.73884 0
M  V30 2629 H 245.571 -3.43547 -2.50711 0
M  V30 2630 N 243.887 0.651787 -1.4349 0
M  V30 2631 C 244.819 1.77725 -1.44729 0
M  V30 2632 C 245.832 1.59141 -0.343231 0
M  V30 2633 O 247.021 1.67835 -0.607751 0
M  V30 2634 C 244.121 3.15172 -1.24579 0
M  V30 2635 C 243.294 3.60402 -2.47849 0
M  V30 2636 C 242.353 4.76656 -2.22902 0
M  V30 2637 O 241.379 4.86022 -2.96263 0
M  V30 2638 N 242.581 5.66958 -1.24656 0
M  V30 2639 H 245.346 1.77141 -2.41746 0
M  V30 2640 H 242.907 0.835678 -1.38665 0
M  V30 2641 H 244.899 3.90634 -1.0577 0
M  V30 2642 H 243.469 3.1052 -0.360015 0
M  V30 2643 H 242.689 2.75369 -2.82073 0
M  V30 2644 H 243.977 3.87368 -3.29884 0
M  V30 2645 H 243.375 5.62065 -0.640265 0
M  V30 2646 H 241.932 6.42135 -1.1183 0
M  V30 2647 N 245.365 1.30045 0.890287 0
M  V30 2648 C 246.295 1.18541 2.01172 0
M  V30 2649 C 247.276 0.0773356 1.69924 0
M  V30 2650 O 248.461 0.25845 1.92473 0
M  V30 2651 C 245.591 0.870941 3.36202 0
M  V30 2652 C 244.545 1.93637 3.81692 0
M  V30 2653 C 243.871 1.475 5.13953 0
M  V30 2654 C 245.171 3.34666 4.00994 0
M  V30 2655 H 246.865 2.12359 2.11054 0
M  V30 2656 H 244.411 1.02238 1.01407 0
M  V30 2657 H 246.364 0.777141 4.14172 0
M  V30 2658 H 245.088 -0.102926 3.26438 0
M  V30 2659 H 243.747 2.01972 3.05946 0
M  V30 2660 H 243.395 0.489551 5.00612 0
M  V30 2661 H 243.095 2.1876 5.4536 0
M  V30 2662 H 244.619 1.39489 5.94454 0
M  V30 2663 H 246.033 3.2912 4.69417 0
M  V30 2664 H 244.43 4.03966 4.43769 0
M  V30 2665 H 245.5 3.76949 3.05021 0
M  V30 2666 N 246.843 -1.10192 1.12674 0
M  V30 2667 C 248.092 -1.81573 0.8783 0
M  V30 2668 C 248.405 -1.86249 -0.597557 0
M  V30 2669 O 249.611 -2.5386 -0.962681 0
M  V30 2670 C 248.067 -3.26149 1.52167 0
M  V30 2671 C 247.675 -3.29763 3.03249 0
M  V30 2672 C 249.419 -4.0234 1.3536 0
M  V30 2673 C 247.326 -4.68815 3.60508 0
M  V30 2674 H 246.256 -0.680394 0.324931 0
M  V30 2675 H 248.907 -1.23902 1.35353 0
M  V30 2676 H 247.289 -3.83832 0.974104 0
M  V30 2677 H 248.463 -2.8189 3.6452 0
M  V30 2678 H 246.778 -2.67059 3.19481 0
M  V30 2679 H 249.375 -5.05058 1.75559 0
M  V30 2680 H 249.718 -4.15235 0.297554 0
M  V30 2681 H 250.251 -3.51079 1.87052 0
M  V30 2682 H 246.99 -4.61121 4.65884 0
M  V30 2683 H 246.51 -5.17045 3.04014 0
M  V30 2684 H 248.189 -5.37785 3.59717 0
M  V30 2685 N 248.321 -0.919034 -1.28029 0
M  V30 2686 C 249.251 -0.428581 -2.29533 0
M  V30 2687 C 250.232 0.50659 -1.62381 0
M  V30 2688 O 251.417 0.413195 -1.89753 0
M  V30 2689 C 248.547 0.327388 -3.45753 0
M  V30 2690 C 247.501 -0.519137 -4.2484 0
M  V30 2691 C 246.827 0.365486 -5.33449 0
M  V30 2692 C 248.127 -1.77914 -4.91064 0
M  V30 2693 H 249.821 -1.27687 -2.70807 0
M  V30 2694 H 247.367 -0.615428 -1.30186 0
M  V30 2695 H 249.32 0.681378 -4.15855 0
M  V30 2696 H 248.044 1.20963 -3.03374 0
M  V30 2697 H 246.703 -0.855717 -3.56473 0
M  V30 2698 H 246.351 1.24642 -4.87312 0
M  V30 2699 H 246.051 -0.197356 -5.87268 0
M  V30 2700 H 247.575 0.715241 -6.06396 0
M  V30 2701 H 248.989 -1.49374 -5.53498 0
M  V30 2702 H 247.386 -2.2848 -5.54903 0
M  V30 2703 H 248.456 -2.50382 -4.15255 0
M  V30 2704 N 249.799 1.42003 -0.683588 0
M  V30 2705 C 250.746 2.30798 -0.0107309 0
M  V30 2706 C 251.716 1.4645 0.783688 0
M  V30 2707 O 252.901 1.75263 0.754156 0
M  V30 2708 C 250.041 3.3238 0.928306 0
M  V30 2709 C 249.154 4.31814 0.126776 0
M  V30 2710 C 248.289 5.20468 1.06236 0
M  V30 2711 C 247.328 6.11577 0.253035 0
M  V30 2712 N 246.465 6.92754 1.14179 0
M  V30 2713 H 251.305 2.8778 -0.773727 0
M  V30 2714 H 248.842 1.41745 -0.393283 0
M  V30 2715 H 250.8 3.89813 1.48666 0
M  V30 2716 H 249.43 2.76976 1.65783 0
M  V30 2717 H 248.482 3.76427 -0.54833 0
M  V30 2718 H 249.794 4.96276 -0.501192 0
M  V30 2719 H 248.948 5.82677 1.69035 0
M  V30 2720 H 247.687 4.56204 1.7242 0
M  V30 2721 H 246.692 5.48428 -0.388108 0
M  V30 2722 H 247.917 6.77892 -0.404839 0
M  V30 2723 H 245.863 6.3111 1.78987 0
M  V30 2724 H 245.78 7.53855 0.569111 0
M  V30 2725 H 247.048 7.59441 1.75697 0
M  V30 2726 N 251.277 0.427512 1.51691 0
M  V30 2727 C 252.227 -0.406604 2.24345 0
M  V30 2728 C 253.211 -0.998276 1.26187 0
M  V30 2729 O 254.403 -0.918045 1.51331 0
M  V30 2730 C 251.532 -1.51266 3.08177 0
M  V30 2731 C 250.618 -0.930868 4.13758 0
M  V30 2732 N 251.009 -0.0773552 5.05741 0
M  V30 2733 C 249.307 -1.19948 4.29568 0
M  V30 2734 C 250.008 0.248344 5.8117 0
M  V30 2735 N 248.984 -0.365535 5.4237 0
M  V30 2736 H 252.786 0.251581 2.92821 0
M  V30 2737 H 250.3 0.239003 1.60632 0
M  V30 2738 H 252.297 -2.123 3.58796 0
M  V30 2739 H 250.957 -2.17328 2.41244 0
M  V30 2740 H 251.968 0.288351 5.17097 0
M  V30 2741 H 248.645 -1.85832 3.73862 0
M  V30 2742 H 250.035 0.942286 6.6526 0
M  V30 2743 N 252.755 -1.56801 0.158532 0
M  V30 2744 C 253.688 -2.13148 -0.815065 0
M  V30 2745 C 254.666 -1.0581 -1.23462 0
M  V30 2746 O 255.85 -1.3371 -1.32868 0
M  V30 2747 C 252.977 -2.6606 -2.09594 0
M  V30 2748 C 252.023 -3.85651 -1.82141 0
M  V30 2749 S 252.856 -5.26041 -1.00207 0
M  V30 2750 C 254.012 -5.8235 -2.29389 0
M  V30 2751 H 254.245 -2.95396 -0.335937 0
M  V30 2752 H 251.778 -1.54299 -0.0559391 0
M  V30 2753 H 253.736 -2.97195 -2.8317 0
M  V30 2754 H 252.397 -1.83921 -2.54621 0
M  V30 2755 H 251.59 -4.20958 -2.77147 0
M  V30 2756 H 251.192 -3.55338 -1.16667 0
M  V30 2757 H 253.484 -5.94485 -3.24952 0
M  V30 2758 H 254.427 -6.79688 -1.9857 0
M  V30 2759 H 254.835 -5.10675 -2.40564 0
M  V30 2760 N 254.233 0.115231 -1.57178 0
M  V30 2761 C 255.143 1.15994 -2.03918 0
M  V30 2762 C 256.159 1.45103 -0.960268 0
M  V30 2763 O 257.335 1.56144 -1.27204 0
M  V30 2764 C 254.4 2.46568 -2.43732 0
M  V30 2765 C 253.461 2.24822 -3.65723 0
M  V30 2766 C 252.694 3.4917 -4.03629 0
M  V30 2767 O 252.917 4.56623 -3.41835 0
M  V30 2768 O 251.851 3.39949 -4.96708 0
M  V30 2769 H 255.677 0.793019 -2.93164 0
M  V30 2770 H 253.262 0.3263 -1.45793 0
M  V30 2771 H 255.144 3.23492 -2.70057 0
M  V30 2772 H 253.819 2.82726 -1.57631 0
M  V30 2773 H 252.726 1.45744 -3.44542 0
M  V30 2774 H 254.059 1.93566 -4.52541 0
M  V30 2775 N 255.711 1.52812 0.385517 0
M  V30 2776 C 256.936 1.72207 1.15583 0
M  V30 2777 C 257.361 0.441034 1.82857 0
M  V30 2778 O 256.719 -0.603465 1.70962 0
M  V30 2779 C 256.767 2.87476 2.17692 0
M  V30 2780 O 255.871 2.54693 3.24354 0
M  V30 2781 H 255.212 0.572526 0.336319 0
M  V30 2782 H 257.742 1.99618 0.448744 0
M  V30 2783 H 257.752 3.13072 2.6163 0
M  V30 2784 H 256.427 3.80408 1.68115 0
M  V30 2785 H 255.004 2.3985 2.85529 0
M  V30 2786 N 257.189 -0.644168 1.43834 0
M  V30 2787 C 258.605 -0.960875 1.27434 0
M  V30 2788 C 258.805 -2.00499 0.200618 0
M  V30 2789 O 257.861 -2.49018 -0.417906 0
M  V30 2790 C 259.174 -1.43653 2.64167 0
M  V30 2791 C 260.722 -1.55271 2.71772 0
M  V30 2792 C 261.197 -2.06224 4.08944 0
M  V30 2793 N 262.688 -2.13513 4.11055 0
M  V30 2794 C 263.423 -2.54081 5.14033 0
M  V30 2795 N 262.919 -2.9388 6.27381 0
M  V30 2796 N 264.712 -2.54101 5.01387 0
M  V30 2797 H 256.863 0.0465779 2.12349 0
M  V30 2798 H 259.126 -0.0417638 0.94708 0
M  V30 2799 H 258.832 -0.743706 3.43747 0
M  V30 2800 H 258.706 -2.40993 2.90176 0
M  V30 2801 H 261.093 -2.23653 1.92519 0
M  V30 2802 H 261.174 -0.563395 2.49519 0
M  V30 2803 H 260.818 -1.38441 4.88668 0
M  V30 2804 H 260.748 -3.06003 4.28567 0
M  V30 2805 H 263.239 -1.85493 3.29242 0
M  V30 2806 H 263.552 -3.2361 7.01781 0
M  V30 2807 H 261.897 -2.91663 6.30839 0
M  V30 2808 H 265.088 -2.22391 4.11898 0
M  V30 2809 H 265.261 -2.85394 5.81768 0
M  V30 2810 N 258.668 -1.30515 -0.883378 0
M  V30 2811 C 259.6 -1.12846 -1.99496 0
M  V30 2812 C 260.613 -0.0712571 -1.62644 0
M  V30 2813 O 261.802 -0.317432 -1.75655 0
M  V30 2814 C 258.902 -0.699123 -3.3161 0
M  V30 2815 C 258.075 -1.83842 -3.96889 0
M  V30 2816 C 257.134 -1.39737 -5.07307 0
M  V30 2817 O 256.16 -2.10485 -5.28852 0
M  V30 2818 N 257.362 -0.277279 -5.79837 0
M  V30 2819 H 260.127 -2.08585 -2.15203 0
M  V30 2820 H 257.688 -1.22672 -1.05656 0
M  V30 2821 H 259.68 -0.387044 -4.02845 0
M  V30 2822 H 258.25 0.166276 -3.12157 0
M  V30 2823 H 257.47 -2.31853 -3.18807 0
M  V30 2824 H 258.758 -2.60187 -4.37241 0
M  V30 2825 H 258.156 0.3122 -5.64838 0
M  V30 2826 H 256.713 -0.0246623 -6.51795 0
M  V30 2827 N 260.146 1.09593 -1.13257 0
M  V30 2828 C 261.093 2.1618 -0.808381 0
M  V30 2829 C 262.063 1.64517 0.228754 0
M  V30 2830 O 263.248 1.9053 0.101381 0
M  V30 2831 C 260.388 3.43973 -0.278675 0
M  V30 2832 C 259.501 4.09545 -1.37466 0
M  V30 2833 C 258.636 5.25088 -0.803479 0
M  V30 2834 C 257.675 5.82579 -1.87799 0
M  V30 2835 N 256.812 6.89486 -1.32488 0
M  V30 2836 H 261.652 2.43254 -1.72138 0
M  V30 2837 H 259.189 1.19392 -0.859294 0
M  V30 2838 H 261.147 4.17174 0.0465583 0
M  V30 2839 H 259.777 3.17223 0.597459 0
M  V30 2840 H 258.829 3.34226 -1.81652 0
M  V30 2841 H 260.141 4.48307 -2.18684 0
M  V30 2842 H 259.295 6.05178 -0.429427 0
M  V30 2843 H 258.034 4.87684 0.0397956 0
M  V30 2844 H 257.039 5.01152 -2.26113 0
M  V30 2845 H 258.264 6.22045 -2.72463 0
M  V30 2846 H 256.21 6.54064 -0.503575 0
M  V30 2847 H 256.127 7.27007 -2.07355 0
M  V30 2848 H 257.395 7.73336 -0.978336 0
M  V30 2849 N 261.624 0.925811 1.2754 0
M  V30 2850 C 262.872 0.564138 1.94067 0
M  V30 2851 C 263.193 -0.897188 1.73134 0
M  V30 2852 O 262.463 -1.63573 1.07799 0
M  V30 2853 H 261.043 0.205645 0.718136 0
M  V30 2854 H 263.705 1.1778 1.55287 0
M  V30 2855 H 262.801 0.76881 3.02483 0
M  V30 2856 N 263.102 -1.41638 0.69111 0
M  V30 2857 C 264.032 -2.3347 0.037248 0
M  V30 2858 C 265.013 -1.51575 -0.771947 0
M  V30 2859 O 266.198 -1.80126 -0.72582 0
M  V30 2860 C 263.328 -3.35354 -0.903064 0
M  V30 2861 C 262.282 -4.27526 -0.201288 0
M  V30 2862 C 261.608 -5.19747 -1.25565 0
M  V30 2863 C 262.908 -5.13959 0.929689 0
M  V30 2864 H 264.602 -2.88397 0.804227 0
M  V30 2865 H 262.148 -1.38669 0.388189 0
M  V30 2866 H 264.101 -3.98519 -1.36969 0
M  V30 2867 H 262.825 -2.78767 -1.70166 0
M  V30 2868 H 261.484 -3.65779 0.245265 0
M  V30 2869 H 261.132 -4.59479 -2.04666 0
M  V30 2870 H 260.832 -5.8225 -0.791128 0
M  V30 2871 H 262.356 -5.85789 -1.72288 0
M  V30 2872 H 263.77 -5.70718 0.543546 0
M  V30 2873 H 262.167 -5.85379 1.32103 0
M  V30 2874 H 263.237 -4.51389 1.77133 0
M  V30 2875 N 264.58 -0.43555 -1.51462 0
M  V30 2876 C 265.829 0.133007 -2.01261 0
M  V30 2877 C 266.142 1.43942 -1.32439 0
M  V30 2878 O 267.348 2.09081 -1.73198 0
M  V30 2879 C 265.804 0.287581 -3.58749 0
M  V30 2880 C 265.412 -1.00829 -4.36506 0
M  V30 2881 C 267.156 0.810004 -4.167 0
M  V30 2882 C 265.063 -0.819454 -5.85695 0
M  V30 2883 H 263.993 0.0534822 -0.752101 0
M  V30 2884 H 266.644 -0.565038 -1.74584 0
M  V30 2885 H 265.026 1.04859 -3.81865 0
M  V30 2886 H 266.2 -1.77749 -4.25138 0
M  V30 2887 H 264.515 -1.45911 -3.89999 0
M  V30 2888 H 267.112 0.967743 -5.2587 0
M  V30 2889 H 267.455 1.79196 -3.75758 0
M  V30 2890 H 267.988 0.107357 -3.97655 0
M  V30 2891 H 264.727 -1.77374 -6.31046 0
M  V30 2892 H 264.247 -0.0900208 -5.99732 0
M  V30 2893 H 265.926 -0.471949 -6.45276 0
M  V30 2894 N 266.058 1.56714 -0.166846 0
M  V30 2895 C 266.988 2.20754 0.760913 0
M  V30 2896 C 267.969 1.16178 1.24244 0
M  V30 2897 O 269.154 1.44592 1.29641 0
M  V30 2898 C 266.284 2.84478 1.99223 0
M  V30 2899 C 265.238 3.95053 1.64672 0
M  V30 2900 C 264.564 4.45805 2.95232 0
M  V30 2901 C 265.864 5.14865 0.878155 0
M  V30 2902 H 267.558 2.98537 0.22713 0
M  V30 2903 H 265.104 1.43596 0.107805 0
M  V30 2904 H 267.057 3.27951 2.64624 0
M  V30 2905 H 265.781 2.04056 2.55007 0
M  V30 2906 H 264.44 3.52228 1.01641 0
M  V30 2907 H 264.088 3.62181 3.49047 0
M  V30 2908 H 263.788 5.204 2.7287 0
M  V30 2909 H 265.312 4.91962 3.6167 0
M  V30 2910 H 266.726 5.55059 1.43466 0
M  V30 2911 H 265.123 5.95348 0.753738 0
M  V30 2912 H 266.193 4.84735 -0.126377 0
M  V30 2913 N 267.536 -0.106894 1.57237 0
M  V30 2914 C 268.484 -1.14944 2.02215 0
M  V30 2915 C 269.478 -1.42167 0.92114 0
M  V30 2916 O 270.684 -1.41987 1.10634 0
M  V30 2917 H 267.059 -0.387841 0.64427 0
M  V30 2918 H 269.03 -0.743683 2.88984 0
M  V30 2919 C 267.779 -2.4647 2.4525 0
M  V30 2920 H 267.102 -2.26363 3.29545 0
M  V30 2921 H 268.542 -3.17948 2.80508 0
M  V30 2922 C 267.001 -3.09921 1.321 0
M  V30 2923 O 267.531 -3.9651 0.643622 0
M  V30 2924 N 265.737 -2.69986 1.07497 0
M  V30 2925 H 265.284 -1.99667 1.62761 0
M  V30 2926 H 265.242 -3.12769 0.319876 0
M  V30 2927 N 269.014 -1.53014 -0.377408 0
M  V30 2928 C 270.263 -1.67845 -1.11853 0
M  V30 2929 C 270.576 -0.430625 -1.90801 0
M  V30 2930 O 271.782 -0.459261 -2.67587 0
M  V30 2931 C 270.238 -2.96668 -2.03756 0
M  V30 2932 C 269.846 -4.28671 -1.30175 0
M  V30 2933 C 271.59 -3.20865 -2.77932 0
M  V30 2934 C 269.497 -5.48591 -2.20911 0
M  V30 2935 H 268.427 -0.625343 -0.421263 0
M  V30 2936 H 271.078 -1.79514 -0.380409 0
M  V30 2937 H 269.46 -2.78773 -2.8125 0
M  V30 2938 H 270.634 -4.57157 -0.578259 0
M  V30 2939 H 268.949 -4.10825 -0.679108 0
M  V30 2940 H 271.546 -4.07642 -3.46024 0
M  V30 2941 H 271.889 -2.36424 -3.4265 0
M  V30 2942 H 272.422 -3.39379 -2.07525 0
M  V30 2943 H 269.161 -6.35474 -1.6079 0
M  V30 2944 H 268.681 -5.244 -2.91144 0
M  V30 2945 H 270.36 -5.8292 -2.80736 0
M  V30 2946 N 270.492 0.636531 -1.44174 0
M  V30 2947 C 271.717 1.42847 -1.50364 0
M  V30 2948 C 272.142 1.87665 -0.127867 0
M  V30 2949 O 271.5 1.58408 0.88185 0
M  V30 2950 C 271.548 2.62854 -2.4686 0
M  V30 2951 O 270.652 3.62501 -1.9664 0
M  V30 2952 H 269.993 0.427642 -0.507955 0
M  V30 2953 H 272.523 0.777422 -1.89255 0
M  V30 2954 H 272.533 3.10465 -2.64718 0
M  V30 2955 H 271.208 2.29578 -3.46795 0
M  V30 2956 H 269.785 3.21735 -1.88523 0
M  V30 2957 N 271.97 1.30982 0.876444 0
M  V30 2958 C 273.195 1.23373 1.66715 0
M  V30 2959 C 273.62 -0.19885 1.87046 0
M  V30 2960 O 272.978 -1.1427 1.40756 0
M  V30 2961 C 273.026 1.97644 3.01611 0
M  V30 2962 O 272.13 1.30935 3.91062 0
M  V30 2963 H 271.471 0.426279 0.509099 0
M  V30 2964 H 274.001 1.72944 1.09323 0
M  V30 2965 H 274.011 2.06992 3.51594 0
M  V30 2966 H 272.686 3.01829 2.86133 0
M  V30 2967 H 271.263 1.29996 3.49507 0
M  V30 2968 N 273.449 -1.08991 1.13837 0
M  V30 2969 C 274.697 -1.80899 0.901098 0
M  V30 2970 C 275.018 -1.86356 -0.574134 0
M  V30 2971 O 274.288 -1.35235 -1.41733 0
M  V30 2972 H 272.868 -0.669966 0.330386 0
M  V30 2973 H 275.53 -1.318 1.43578 0
M  V30 2974 H 274.626 -2.83929 1.29578 0
M  V30 2975 N 274.927 -0.932562 -1.27047 0
M  V30 2976 C 276.176 -0.571351 -1.93439 0
M  V30 2977 C 276.489 0.892467 -1.74053 0
M  V30 2978 O 277.695 1.36267 -2.34826 0
M  V30 2979 C 276.151 -0.97106 -3.46552 0
M  V30 2980 C 275.759 -2.4559 -3.74686 0
M  V30 2981 C 277.503 -0.681333 -4.18997 0
M  V30 2982 C 275.41 -2.79475 -5.21198 0
M  V30 2983 H 274.34 -0.209966 -0.724176 0
M  V30 2984 H 276.991 -1.13403 -1.44263 0
M  V30 2985 H 275.373 -0.336983 -3.94564 0
M  V30 2986 H 276.547 -3.13829 -3.37414 0
M  V30 2987 H 274.862 -2.71802 -3.15456 0
M  V30 2988 H 277.459 -0.910939 -5.26883 0
M  V30 2989 H 277.802 0.381628 -4.14547 0
M  V30 2990 H 278.335 -1.27473 -3.76823 0
M  V30 2991 H 275.074 -3.847 -5.30741 0
M  V30 2992 H 274.594 -2.1589 -5.596 0
M  V30 2993 H 276.273 -2.67478 -5.89122 0
M  V30 2994 N 276.405 1.4127 -0.698611 0
M  V30 2995 C 277.368 2.29158 -0.044132 0
M  V30 2996 C 278.368 1.44529 0.704841 0
M  V30 2997 O 279.558 1.65643 0.539276 0
M  V30 2998 C 276.69 3.27459 0.947809 0
M  V30 2999 H 277.883 2.88529 -0.817994 0
M  V30 3000 H 275.436 1.49307 -0.46228 0
M  V30 3001 H 276.171 2.73073 1.74933 0
M  V30 3002 H 275.956 3.8991 0.41385 0
M  V30 3003 H 277.446 3.93311 1.40344 0
M  V30 3004 N 277.883 0.443576 1.51229 0
M  V30 3005 C 278.813 -0.355142 2.30783 0
M  V30 3006 C 279.794 -1.0154 1.36468 0
M  V30 3007 O 280.979 -1.01785 1.65389 0
M  V30 3008 C 278.109 -1.45312 3.15439 0
M  V30 3009 C 277.063 -0.916002 4.18083 0
M  V30 3010 C 276.389 -2.1102 4.91299 0
M  V30 3011 C 277.689 0.0538602 5.22272 0
M  V30 3012 H 279.383 0.308767 2.97804 0
M  V30 3013 H 276.929 0.149937 1.43217 0
M  V30 3014 H 278.882 -2.01914 3.69876 0
M  V30 3015 H 277.606 -2.14541 2.46252 0
M  V30 3016 H 276.265 -0.372145 3.64706 0
M  V30 3017 H 275.913 -2.78882 4.18609 0
M  V30 3018 H 275.613 -1.75717 5.60712 0
M  V30 3019 H 277.137 -2.68164 5.48562 0
M  V30 3020 H 278.551 -0.422069 5.71744 0
M  V30 3021 H 276.948 0.319776 5.99247 0
M  V30 3022 H 278.018 0.98858 4.74716 0
M  V30 3023 N 279.361 -1.56624 0.175154 0
M  V30 3024 C 280.608 -1.96999 -0.468811 0
M  V30 3025 C 280.936 -1.06129 -1.62994 0
M  V30 3026 O 280.191 -0.0961771 -1.95464 0
M  V30 3027 C 280.49 -3.43419 -0.989864 0
M  V30 3028 C 280.156 -4.50866 0.0557687 0
M  V30 3029 C 278.818 -4.79975 0.343134 0
M  V30 3030 C 281.17 -5.15551 0.765308 0
M  V30 3031 C 278.498 -5.71066 1.34536 0
M  V30 3032 C 280.85 -6.07724 1.75654 0
M  V30 3033 C 279.514 -6.35199 2.05132 0
M  V30 3034 H 278.784 -0.720869 -0.17155 0
M  V30 3035 H 281.431 -1.89616 0.267924 0
M  V30 3036 H 279.736 -3.47772 -1.80449 0
M  V30 3037 H 281.433 -3.72002 -1.49719 0
M  V30 3038 H 278.023 -4.28229 -0.178381 0
M  V30 3039 H 282.207 -4.9317 0.556513 0
M  V30 3040 H 277.463 -5.90635 1.57988 0
M  V30 3041 H 281.637 -6.56912 2.31169 0
M  V30 3042 H 279.264 -7.05584 2.8294 0
M  V30 3043 N 280.839 0.0985539 -1.57292 0
M  V30 3044 C 282.25 0.653457 -1.74891 0
M  V30 3045 C 282.601 1.7929 -0.796838 0
M  V30 3046 O 281.726 2.16385 0.0254886 0
M  V30 3047 C 282.321 1.19216 -3.17133 0
M  V30 3048 C 280.88 1.69316 -3.36168 0
M  V30 3049 C 280.027 0.601294 -2.70702 0
M  V30 3050 H 282.978 -0.127497 -1.58187 0
M  V30 3051 H 282.999 2.06154 -3.19814 0
M  V30 3052 H 282.511 0.362635 -3.86402 0
M  V30 3053 H 280.612 2.5468 -2.71972 0
M  V30 3054 H 280.725 1.78853 -4.44464 0
M  V30 3055 H 279.089 1.0399 -2.32504 0
M  V30 3056 H 279.872 -0.217592 -3.4261 0
M  V30 3057 N 282.317 1.53212 0.369288 0
M  V30 3058 C 283.563 1.70413 1.11046 0
M  V30 3059 C 283.918 0.448509 1.87099 0
M  V30 3060 O 283.211 -0.558382 1.83283 0
M  V30 3061 C 283.405 2.89101 2.10132 0
M  V30 3062 C 283.234 4.26084 1.43814 0
M  V30 3063 C 282.004 4.90994 1.19384 0
M  V30 3064 C 284.202 5.06754 0.877802 0
M  V30 3065 N 282.184 6.11911 0.49377 0
M  V30 3066 C 283.555 6.1924 0.306891 0
M  V30 3067 C 285.61 4.91814 0.776129 0
M  V30 3068 C 284.313 7.1842 -0.355774 0
M  V30 3069 C 286.339 5.91263 0.127252 0
M  V30 3070 C 285.701 7.03069 -0.432801 0
M  V30 3071 H 281.8 0.676872 0.391623 0
M  V30 3072 H 284.384 1.90603 0.397334 0
M  V30 3073 H 282.555 2.70456 2.78761 0
M  V30 3074 H 284.287 2.95142 2.76899 0
M  V30 3075 H 281.042 4.50074 1.47413 0
M  V30 3076 H 281.466 6.76813 0.159207 0
M  V30 3077 H 286.108 4.05564 1.19489 0
M  V30 3078 H 283.826 8.04264 -0.786499 0
M  V30 3079 H 287.412 5.81779 0.0495613 0
M  V30 3080 H 286.292 7.78702 -0.926958 0
M  V30 3081 N 283.795 -0.628877 1.44509 0
M  V30 3082 C 285.206 -1.21054 1.42137 0
M  V30 3083 C 285.557 -1.95715 0.137881 0
M  V30 3084 O 284.682 -2.02554 -0.761645 0
M  V30 3085 C 285.277 -2.20189 2.57493 0
M  V30 3086 C 283.836 -2.73777 2.58308 0
M  V30 3087 C 282.983 -1.48813 2.33987 0
M  V30 3088 H 285.934 -0.41942 1.53057 0
M  V30 3089 H 285.955 -3.02833 2.30375 0
M  V30 3090 H 285.467 -1.6582 3.50892 0
M  V30 3091 H 283.568 -3.32142 1.68856 0
M  V30 3092 H 283.681 -3.19662 3.56865 0
M  V30 3093 H 282.045 -1.77024 1.83124 0
M  V30 3094 H 282.828 -0.963442 3.29504 0
M  V30 3095 N 285.273 -1.31445 -0.869486 0
M  V30 3096 C 286.203 -1.21727 -1.99261 0
M  V30 3097 C 287.184 -0.104359 -1.6978 0
M  V30 3098 O 288.369 -0.289038 -1.92037 0
M  V30 3099 C 285.499 -0.924317 -3.34774 0
M  V30 3100 C 284.453 -1.99685 -3.78563 0
M  V30 3101 C 283.779 -1.55658 -5.11541 0
M  V30 3102 C 285.079 -3.41003 -3.95619 0
M  V30 3103 H 286.773 -2.1569 -2.07649 0
M  V30 3104 H 284.319 -1.03839 -0.997675 0
M  V30 3105 H 286.272 -0.842934 -4.12883 0
M  V30 3106 H 284.996 0.0509793 -3.2656 0
M  V30 3107 H 283.655 -2.06813 -3.02694 0
M  V30 3108 H 283.303 -0.569132 -4.9977 0
M  V30 3109 H 283.003 -2.27409 -5.41811 0
M  V30 3110 H 284.527 -1.48928 -5.92159 0
M  V30 3111 H 285.941 -3.36547 -4.64122 0
M  V30 3112 H 284.338 -4.10975 -4.37286 0
M  V30 3113 H 285.408 -3.81754 -2.98985 0
M  V30 3114 N 286.751 1.08385 -1.14413 0
M  V30 3115 C 287.981 1.8425 -0.934644 0
M  V30 3116 C 288.389 1.81907 0.520234 0
M  V30 3117 O 287.732 1.22126 1.37226 0
M  V30 3118 C 287.794 3.32853 -1.35828 0
M  V30 3119 C 287.458 3.5893 -2.82875 0
M  V30 3120 C 288.455 3.53756 -3.80989 0
M  V30 3121 C 286.14 3.86934 -3.20293 0
M  V30 3122 C 288.134 3.76216 -5.14529 0
M  V30 3123 C 285.821 4.09047 -4.54008 0
M  V30 3124 C 286.819 4.03682 -5.50936 0
M  V30 3125 O 286.507 4.25214 -6.82238 0
M  V30 3126 H 286.239 0.588502 -0.332628 0
M  V30 3127 H 288.793 1.37792 -1.52324 0
M  V30 3128 H 287.023 3.8007 -0.713019 0
M  V30 3129 H 288.712 3.90154 -1.11957 0
M  V30 3130 H 289.478 3.32135 -3.53428 0
M  V30 3131 H 285.357 3.9023 -2.45442 0
M  V30 3132 H 288.901 3.71943 -5.90173 0
M  V30 3133 H 284.798 4.30151 -4.8129 0
M  V30 3134 H 285.566 4.42619 -6.88499 0
M  V30 3135 N 288.23 0.939286 1.26551 0
M  V30 3136 C 289.455 0.602008 1.98471 0
M  V30 3137 C 289.88 -0.815624 1.69497 0
M  V30 3138 O 289.238 -1.54912 0.941905 0
M  V30 3139 C 289.286 0.848407 3.50477 0
M  V30 3140 O 288.39 -0.0804009 4.12322 0
M  V30 3141 H 287.731 0.23049 0.622712 0
M  V30 3142 H 290.261 1.2617 1.61066 0
M  V30 3143 H 290.271 0.768553 4.00696 0
M  V30 3144 H 288.946 1.88171 3.70897 0
M  V30 3145 H 287.523 0.0503508 3.72866 0
M  V30 3146 N 289.708 -1.40897 0.706093 0
M  V30 3147 C 290.641 -2.282 -0.00328781 0
M  V30 3148 C 291.619 -1.42816 -0.77732 0
M  V30 3149 O 292.803 -1.72237 -0.765944 0
M  V30 3150 C 289.93 -3.23226 -1.01205 0
M  V30 3151 C 288.976 -4.25222 -0.329955 0
M  V30 3152 S 289.809 -5.27269 0.935298 0
M  V30 3153 C 290.965 -6.25859 -0.0716061 0
M  V30 3154 H 291.198 -2.88016 0.737143 0
M  V30 3155 H 288.731 -1.46191 0.496756 0
M  V30 3156 H 290.689 -3.78503 -1.58888 0
M  V30 3157 H 289.35 -2.62485 -1.72513 0
M  V30 3158 H 288.543 -4.92023 -1.09221 0
M  V30 3159 H 288.145 -3.73595 0.174069 0
M  V30 3160 H 290.437 -6.71204 -0.921521 0
M  V30 3161 H 291.38 -7.0586 0.562765 0
M  V30 3162 H 291.788 -5.62852 -0.431088 0
M  V30 3163 N 291.186 -0.45159 -1.50991 0
M  V30 3164 C 292.416 0.108177 -2.06317 0
M  V30 3165 C 292.824 1.35774 -1.31765 0
M  V30 3166 O 292.167 1.79838 -0.374694 0
M  V30 3167 C 292.229 0.481659 -3.56259 0
M  V30 3168 C 291.893 -0.663114 -4.52163 0
M  V30 3169 C 292.89 -1.53947 -4.96585 0
M  V30 3170 C 290.575 -0.8479 -4.95092 0
M  V30 3171 C 292.569 -2.58518 -5.82621 0
M  V30 3172 C 290.256 -1.89686 -5.80915 0
M  V30 3173 C 291.254 -2.76388 -6.24579 0
M  V30 3174 O 290.942 -3.79482 -7.08695 0
M  V30 3175 H 290.674 0.00499183 -0.675982 0
M  V30 3176 H 293.228 -0.633659 -1.95381 0
M  V30 3177 H 291.458 1.27641 -3.65027 0
M  V30 3178 H 293.147 0.974233 -3.94035 0
M  V30 3179 H 293.913 -1.4083 -4.64103 0
M  V30 3180 H 289.792 -0.18258 -4.60638 0
M  V30 3181 H 293.336 -3.26224 -6.16623 0
M  V30 3182 H 289.233 -2.02817 -6.12809 0
M  V30 3183 H 290.001 -3.76234 -7.26905 0
M  V30 3184 N 292.664 1.56529 -0.183458 0
M  V30 3185 C 293.889 2.02064 0.467428 0
M  V30 3186 C 294.314 1.06282 1.55196 0
M  V30 3187 O 293.672 0.0443565 1.81246 0
M  V30 3188 C 293.72 3.46122 1.01153 0
M  V30 3189 O 292.824 3.53437 2.12499 0
M  V30 3190 H 292.165 0.654726 0.110588 0
M  V30 3191 H 294.695 2.02521 -0.290917 0
M  V30 3192 H 294.705 3.85676 1.33108 0
M  V30 3193 H 293.38 4.15331 0.217533 0
M  V30 3194 H 291.957 3.2575 1.81497 0
M  V30 3195 N 294.142 -0.090211 1.57342 0
M  V30 3196 C 295.105 -1.09335 2.01441 0
M  V30 3197 C 296.105 -1.32666 0.908641 0
M  V30 3198 O 297.295 -1.28697 1.174 0
M  V30 3199 C 294.427 -2.44136 2.3793 0
M  V30 3200 H 295.62 -0.713662 2.91285 0
M  V30 3201 H 293.173 -0.335404 1.52659 0
M  V30 3202 H 293.908 -2.86972 1.51055 0
M  V30 3203 H 293.693 -2.28548 3.18603 0
M  V30 3204 H 295.183 -3.16277 2.72688 0
M  V30 3205 N 295.62 -1.53406 -0.361157 0
M  V30 3206 C 296.845 -1.74024 -1.12829 0
M  V30 3207 C 297.27 -0.470069 -1.82132 0
M  V30 3208 O 296.628 0.57619 -1.719 0
M  V30 3209 C 296.676 -2.90903 -2.13091 0
M  V30 3210 O 295.78 -2.59821 -3.20261 0
M  V30 3211 H 295.121 -0.577804 -0.327168 0
M  V30 3212 H 297.651 -2.00307 -0.41693 0
M  V30 3213 H 297.661 -3.17194 -2.56616 0
M  V30 3214 H 296.336 -3.83034 -1.62042 0
M  V30 3215 H 294.913 -2.44362 -2.81677 0
M  V30 3216 N 297.098 0.621204 -1.44841 0
M  V30 3217 C 298.045 1.73267 -1.5247 0
M  V30 3218 C 299.015 1.6189 -0.371611 0
M  V30 3219 O 300.2 1.81668 -0.58321 0
M  V30 3220 C 297.34 3.11545 -1.48438 0
M  V30 3221 C 296.453 3.33827 -2.74196 0
M  V30 3222 C 295.588 4.62133 -2.61929 0
M  V30 3223 C 294.627 4.77627 -3.82804 0
M  V30 3224 N 293.764 5.97219 -3.69153 0
M  V30 3225 H 298.604 1.66082 -2.47428 0
M  V30 3226 H 296.141 0.810026 -1.22788 0
M  V30 3227 H 298.099 3.91528 -1.4409 0
M  V30 3228 H 296.729 3.1772 -0.570402 0
M  V30 3229 H 295.781 2.47715 -2.88689 0
M  V30 3230 H 297.093 3.41153 -3.6389 0
M  V30 3231 H 296.247 5.50291 -2.5547 0
M  V30 3232 H 294.986 4.57182 -1.69811 0
M  V30 3233 H 293.991 3.87896 -3.89637 0
M  V30 3234 H 295.216 4.84385 -4.75971 0
M  V30 3235 H 293.162 5.93339 -2.79794 0
M  V30 3236 H 293.079 6.05644 -4.52472 0
M  V30 3237 H 294.347 6.87912 -3.66603 0
M  V30 3238 N 298.576 1.31904 0.862503 0
M  V30 3239 C 299.539 1.20131 1.95195 0
M  V30 3240 C 300.539 0.126409 1.60302 0
M  V30 3241 O 301.729 0.376234 1.70089 0
M  V30 3242 C 298.861 0.845691 3.30244 0
M  V30 3243 H 300.054 2.16943 2.07064 0
M  V30 3244 H 297.607 1.15622 1.05172 0
M  V30 3245 H 298.342 -0.120957 3.24074 0
M  V30 3246 H 298.127 1.62276 3.56944 0
M  V30 3247 H 299.617 0.787418 4.10109 0
M  V30 3248 N 300.054 -1.07777 1.14986 0
M  V30 3249 C 301.301 -1.8029 0.922056 0
M  V30 3250 C 301.629 -1.86531 -0.55105 0
M  V30 3251 O 300.884 -1.34189 -1.42449 0
M  V30 3252 C 301.183 -3.25495 1.47608 0
M  V30 3253 C 300.849 -3.39361 2.96893 0
M  V30 3254 C 299.511 -3.42852 3.37647 0
M  V30 3255 C 301.863 -3.42512 3.92854 0
M  V30 3256 C 299.191 -3.47094 4.73015 0
M  V30 3257 C 301.543 -3.4829 5.28088 0
M  V30 3258 C 300.207 -3.50058 5.68345 0
M  V30 3259 H 299.477 -0.659727 0.337404 0
M  V30 3260 H 302.124 -1.26854 1.43459 0
M  V30 3261 H 300.429 -3.81683 0.88463 0
M  V30 3262 H 302.126 -3.80168 1.27568 0
M  V30 3263 H 298.716 -3.37339 2.64387 0
M  V30 3264 H 302.9 -3.3904 3.62444 0
M  V30 3265 H 298.156 -3.46758 5.03556 0
M  V30 3266 H 302.33 -3.49675 6.02246 0
M  V30 3267 H 299.957 -3.53097 6.73221 0
M  V30 3268 N 301.532 -0.945985 -1.26051 0
M  V30 3269 C 302.778 -0.597002 -1.93814 0
M  V30 3270 C 303.111 0.862484 -1.73997 0
M  V30 3271 O 302.386 1.61769 -1.07986 0
M  V30 3272 C 302.669 -0.945937 -3.47454 0
M  V30 3273 C 302.522 -2.46052 -3.76535 0
M  V30 3274 C 303.841 -0.464785 -4.37639 0
M  V30 3275 H 300.96 -0.218366 -0.703907 0
M  V30 3276 H 303.602 -1.18107 -1.48831 0
M  V30 3277 H 301.752 -0.448902 -3.85898 0
M  V30 3278 H 303.424 -3.03065 -3.47778 0
M  V30 3279 H 301.667 -2.90194 -3.22444 0
M  V30 3280 H 302.338 -2.65517 -4.83947 0
M  V30 3281 H 304.814 -0.891016 -4.06448 0
M  V30 3282 H 303.69 -0.737712 -5.4392 0
M  V30 3283 H 303.951 0.635274 -4.37512 0
M  V30 3284 N 303.011 1.40521 -0.713556 0
M  V30 3285 C 304.251 2.02783 -0.256584 0
M  V30 3286 C 304.615 1.55352 1.12827 0
M  V30 3287 O 305.816 2.09663 1.68211 0
M  V30 3288 C 304.087 3.5586 -0.331414 0
M  V30 3289 S 305.646 4.38773 0.0488703 0
M  V30 3290 H 302.464 0.703655 -0.101934 0
M  V30 3291 H 305.066 1.71674 -0.935325 0
M  V30 3292 H 303.77 3.87874 -1.34098 0
M  V30 3293 H 303.301 3.91695 0.365873 0
M  V30 3294 H 305.316 4.79633 1.2715 0
M  V30 3295 N 304.489 0.459591 1.5075 0
M  V30 3296 C 305.452 -0.329093 2.26825 0
M  V30 3297 C 306.452 -0.930481 1.31144 0
M  V30 3298 O 307.642 -0.801453 1.54669 0
M  V30 3299 C 304.774 -1.46768 3.07688 0
M  V30 3300 H 305.967 0.337924 2.9799 0
M  V30 3301 H 303.52 0.213336 1.54837 0
M  V30 3302 H 304.255 -2.17009 2.40993 0
M  V30 3303 H 304.04 -1.04238 3.77991 0
M  V30 3304 H 305.53 -2.02433 3.65254 0
M  V30 3305 N 305.967 -1.56429 0.191757 0
M  V30 3306 C 307.214 -1.97485 -0.447891 0
M  V30 3307 C 307.542 -1.07852 -1.61859 0
M  V30 3308 O 306.797 -0.116903 -1.95351 0
M  V30 3309 C 307.096 -3.44449 -0.953384 0
M  V30 3310 C 306.762 -4.50781 0.103586 0
M  V30 3311 C 305.424 -4.79584 0.394023 0
M  V30 3312 C 307.776 -5.1471 0.819946 0
M  V30 3313 C 305.104 -5.69607 1.40585 0
M  V30 3314 C 307.456 -6.05827 1.8209 0
M  V30 3315 C 306.12 -6.32987 2.11857 0
M  V30 3316 H 305.39 -0.722648 -0.163895 0
M  V30 3317 H 308.037 -1.89322 0.28802 0
M  V30 3318 H 306.342 -3.49666 -1.76751 0
M  V30 3319 H 308.039 -3.73569 -1.45765 0
M  V30 3320 H 304.629 -4.28394 -0.132951 0
M  V30 3321 H 308.813 -4.92552 0.608789 0
M  V30 3322 H 304.069 -5.88926 1.64243 0
M  V30 3323 H 308.243 -6.54424 2.38123 0
M  V30 3324 H 305.87 -7.02544 2.90407 0
M  V30 3325 N 307.445 0.0818655 -1.57387 0
M  V30 3326 C 308.67 0.799946 -1.91352 0
M  V30 3327 C 309.095 1.70833 -0.787258 0
M  V30 3328 O 308.453 1.79419 0.26048 0
M  V30 3329 C 308.501 1.57812 -3.24234 0
M  V30 3330 O 307.605 2.68806 -3.12757 0
M  V30 3331 H 306.946 0.21891 -0.626877 0
M  V30 3332 H 309.476 0.0531256 -2.04531 0
M  V30 3333 H 309.486 1.95952 -3.57864 0
M  V30 3334 H 308.161 0.911548 -4.05788 0
M  V30 3335 H 306.738 2.33597 -2.90666 0
M  V30 3336 N 308.923 1.53595 0.353017 0
M  V30 3337 C 309.87 1.80919 1.43308 0
M  V30 3338 C 310.84 0.654288 1.5267 0
M  V30 3339 O 312.025 0.897759 1.6836 0
M  V30 3340 C 309.165 2.01605 2.80089 0
M  V30 3341 C 308.278 3.29321 2.79593 0
M  V30 3342 C 307.413 3.40125 4.0803 0
M  V30 3343 C 306.452 4.61826 4.01725 0
M  V30 3344 N 305.589 4.69716 5.21834 0
M  V30 3345 H 310.429 2.73074 1.19308 0
M  V30 3346 H 307.966 1.35263 0.578131 0
M  V30 3347 H 309.924 2.11586 3.59565 0
M  V30 3348 H 308.554 1.12772 3.0246 0
M  V30 3349 H 307.606 3.28229 1.92276 0
M  V30 3350 H 308.918 4.18884 2.70809 0
M  V30 3351 H 308.072 3.49488 4.95927 0
M  V30 3352 H 306.811 2.48601 4.19582 0
M  V30 3353 H 305.816 4.52552 3.12213 0
M  V30 3354 H 307.041 5.54705 3.91764 0
M  V30 3355 H 304.987 3.81097 5.33948 0
M  V30 3356 H 304.904 5.53202 5.1527 0
M  V30 3357 H 306.172 4.83376 6.11529 0
M  V30 3358 N 310.401 -0.613514 1.45168 0
M  V30 3359 C 311.364 -1.7065 1.53007 0
M  V30 3360 C 312.364 -1.5548 0.410184 0
M  V30 3361 O 313.554 -1.60656 0.673455 0
M  V30 3362 C 310.686 -3.09875 1.42093 0
M  V30 3363 H 311.879 -1.65068 2.50385 0
M  V30 3364 H 309.432 -0.828728 1.32521 0
M  V30 3365 H 310.167 -3.21039 0.458769 0
M  V30 3366 H 309.952 -3.22293 2.23315 0
M  V30 3367 H 311.442 -3.895 1.50598 0
M  V30 3368 N 311.879 -1.3236 -0.855495 0
M  V30 3369 C 312.809 -1.23833 -1.97958 0
M  V30 3370 C 313.79 -0.122361 -1.69659 0
M  V30 3371 O 314.975 -0.30939 -1.9172 0
M  V30 3372 C 312.105 -0.959772 -3.33775 0
M  V30 3373 C 311.059 -2.03689 -3.76424 0
M  V30 3374 C 310.385 -1.61075 -5.09862 0
M  V30 3375 C 311.685 -3.4518 -3.9198 0
M  V30 3376 H 313.379 -2.1788 -2.0535 0
M  V30 3377 H 310.925 -1.04891 -0.986605 0
M  V30 3378 H 312.878 -0.886678 -4.11966 0
M  V30 3379 H 311.602 0.0163404 -3.26596 0
M  V30 3380 H 310.261 -2.10012 -3.00484 0
M  V30 3381 H 309.909 -0.622107 -4.99138 0
M  V30 3382 H 309.609 -2.33143 -5.39368 0
M  V30 3383 H 311.133 -1.55201 -5.90546 0
M  V30 3384 H 312.547 -3.4145 -4.60526 0
M  V30 3385 H 310.944 -4.1559 -4.32903 0
M  V30 3386 H 312.014 -3.84903 -2.94919 0
M  V30 3387 N 313.357 1.07166 -1.15556 0
M  V30 3388 C 314.289 2.14341 -0.811815 0
M  V30 3389 C 315.302 1.61835 0.177015 0
M  V30 3390 O 316.491 1.78439 -0.0464996 0
M  V30 3391 C 313.591 3.38387 -0.186481 0
M  V30 3392 C 312.764 4.20238 -1.21321 0
M  V30 3393 C 311.823 5.2266 -0.609302 0
M  V30 3394 O 310.849 5.54719 -1.27576 0
M  V30 3395 N 312.051 5.77306 0.608099 0
M  V30 3396 H 314.816 2.44431 -1.73417 0
M  V30 3397 H 312.377 1.23089 -1.0517 0
M  V30 3398 H 314.369 4.04044 0.230339 0
M  V30 3399 H 312.939 3.05994 0.639249 0
M  V30 3400 H 312.159 3.50369 -1.80652 0
M  V30 3401 H 313.447 4.71736 -1.90638 0
M  V30 3402 H 312.845 5.53513 1.1679 0
M  V30 3403 H 311.402 6.44583 0.96725 0
M  V30 3404 N 314.835 0.952656 1.25548 0
M  V30 3405 C 315.745 0.47782 2.29682 0
M  V30 3406 C 316.761 -0.453859 1.67977 0
M  V30 3407 O 317.937 -0.330587 1.98668 0
M  V30 3408 C 315.002 -0.238655 3.45878 0
M  V30 3409 C 314.063 0.730994 4.23031 0
M  V30 3410 C 313.296 0.0486165 5.33678 0
M  V30 3411 O 313.519 -1.16612 5.58353 0
M  V30 3412 O 312.453 0.733152 5.97418 0
M  V30 3413 H 316.279 1.34312 2.72386 0
M  V30 3414 H 313.864 0.719026 1.30959 0
M  V30 3415 H 315.746 -0.641774 4.16484 0
M  V30 3416 H 314.421 -1.07916 3.05181 0
M  V30 3417 H 313.328 1.18428 3.5486 0
M  V30 3418 H 314.661 1.53946 4.67506 0
M  V30 3419 N 316.313 -1.40141 0.720998 0
M  V30 3420 C 317.223 -2.34486 0.0731031 0
M  V30 3421 C 318.239 -1.57587 -0.737723 0
M  V30 3422 O 319.415 -1.89949 -0.669429 0
M  V30 3423 C 316.48 -3.36528 -0.833656 0
M  V30 3424 C 315.541 -4.29298 -0.0121673 0
M  V30 3425 C 314.774 -5.26466 -0.875742 0
M  V30 3426 O 314.997 -5.29745 -2.11485 0
M  V30 3427 O 313.931 -6.01092 -0.31185 0
M  V30 3428 H 317.757 -2.9152 0.851444 0
M  V30 3429 H 315.342 -1.41427 0.481527 0
M  V30 3430 H 317.224 -3.99093 -1.35289 0
M  V30 3431 H 315.899 -2.81899 -1.59105 0
M  V30 3432 H 314.806 -3.70001 0.552262 0
M  V30 3433 H 316.139 -4.87094 0.707129 0
M  V30 3434 N 317.792 -0.46758 -1.50504 0
M  V30 3435 C 319.022 0.086288 -2.0642 0
M  V30 3436 C 319.43 1.34369 -1.33197 0
M  V30 3437 O 318.773 1.79431 -0.393747 0
M  V30 3438 C 318.835 0.443846 -3.5675 0
M  V30 3439 C 318.499 -0.711035 -4.51435 0
M  V30 3440 C 319.496 -1.59205 -4.94924 0
M  V30 3441 C 317.181 -0.900363 -4.94165 0
M  V30 3442 C 319.175 -2.64683 -5.79846 0
M  V30 3443 C 316.862 -1.95837 -5.7887 0
M  V30 3444 C 317.86 -2.82997 -6.21612 0
M  V30 3445 O 317.548 -3.86977 -7.0463 0
M  V30 3446 H 317.28 -0.00217814 -0.675996 0
M  V30 3447 H 319.834 -0.654346 -1.94698 0
M  V30 3448 H 318.064 1.23762 -3.6636 0
M  V30 3449 H 319.753 0.932386 -3.95046 0
M  V30 3450 H 320.519 -1.45745 -4.62583 0
M  V30 3451 H 316.398 -0.231427 -4.60419 0
M  V30 3452 H 319.942 -3.32745 -6.13128 0
M  V30 3453 H 315.839 -2.09305 -6.10624 0
M  V30 3454 H 316.607 -3.83923 -7.22873 0
M  V30 3455 N 319.27 1.56325 -0.20005 0
M  V30 3456 C 320.217 2.1932 0.718833 0
M  V30 3457 C 321.187 1.14198 1.20615 0
M  V30 3458 O 322.372 1.42469 1.26914 0
M  V30 3459 C 319.512 2.86041 1.93066 0
M  V30 3460 C 318.625 4.05702 1.48425 0
M  V30 3461 C 317.76 4.60266 2.65196 0
M  V30 3462 C 316.799 5.72273 2.17185 0
M  V30 3463 N 315.936 6.21221 3.27152 0
M  V30 3464 H 320.776 2.97486 0.17489 0
M  V30 3465 H 318.313 1.46911 0.0745794 0
M  V30 3466 H 320.271 3.22897 2.64184 0
M  V30 3467 H 318.901 2.1043 2.44783 0
M  V30 3468 H 317.953 3.74475 0.668755 0
M  V30 3469 H 319.265 4.86699 1.09204 0
M  V30 3470 H 318.419 4.99453 3.4443 0
M  V30 3471 H 317.158 3.78386 3.07693 0
M  V30 3472 H 316.163 5.3261 1.36407 0
M  V30 3473 H 317.388 6.55974 1.75713 0
M  V30 3474 H 315.334 5.42263 3.69171 0
M  V30 3475 H 315.251 6.97284 2.92116 0
M  V30 3476 H 316.519 6.65063 4.06585 0
M  V30 3477 N 320.748 -0.0735177 1.57428 0
M  V30 3478 C 321.711 -1.07192 2.02589 0
M  V30 3479 C 322.711 -1.31695 0.922661 0
M  V30 3480 O 323.901 -1.27445 1.18758 0
M  V30 3481 C 321.033 -2.41599 2.40506 0
M  V30 3482 H 322.226 -0.682727 2.92025 0
M  V30 3483 H 319.779 -0.319193 1.53006 0
M  V30 3484 H 320.514 -2.85354 1.5409 0
M  V30 3485 H 320.299 -2.25156 3.21009 0
M  V30 3486 H 321.789 -3.13367 2.76027 0
M  V30 3487 N 322.226 -1.5378 -0.344866 0
M  V30 3488 C 323.173 -1.81676 -1.42346 0
M  V30 3489 C 324.143 -0.662376 -1.52321 0
M  V30 3490 O 325.328 -0.906675 -1.67881 0
M  V30 3491 C 322.468 -2.03087 -2.79015 0
M  V30 3492 C 321.581 -3.30799 -2.77842 0
M  V30 3493 C 320.716 -3.42285 -4.0622 0
M  V30 3494 C 319.755 -4.6395 -3.9927 0
M  V30 3495 N 318.892 -4.72477 -5.19336 0
M  V30 3496 H 323.732 -2.73703 -1.17858 0
M  V30 3497 H 321.269 -1.35568 -0.570949 0
M  V30 3498 H 323.227 -2.1349 -3.58438 0
M  V30 3499 H 321.857 -1.14375 -3.01858 0
M  V30 3500 H 320.909 -3.29244 -1.90533 0
M  V30 3501 H 322.221 -4.20314 -2.68584 0
M  V30 3502 H 321.375 -3.52113 -4.94066 0
M  V30 3503 H 320.114 -2.50823 -4.18258 0
M  V30 3504 H 319.119 -4.54201 -3.09809 0
M  V30 3505 H 320.344 -5.56775 -3.88817 0
M  V30 3506 H 318.29 -3.83924 -5.3192 0
M  V30 3507 H 318.207 -5.55927 -5.12329 0
M  V30 3508 H 319.475 -4.86613 -6.08957 0
M  V30 3509 N 323.704 0.605807 -1.45491 0
M  V30 3510 C 324.614 1.74466 -1.56839 0
M  V30 3511 C 325.63 1.68006 -0.452772 0
M  V30 3512 O 326.806 1.8833 -0.713708 0
M  V30 3513 C 323.871 3.10931 -1.53371 0
M  V30 3514 C 322.932 3.28832 -2.75986 0
M  V30 3515 C 322.165 4.58787 -2.72673 0
M  V30 3516 O 322.388 5.4122 -1.80102 0
M  V30 3517 O 321.322 4.79438 -3.63899 0
M  V30 3518 H 325.148 1.67843 -2.53106 0
M  V30 3519 H 322.733 0.770108 -1.28022 0
M  V30 3520 H 324.615 3.92233 -1.54051 0
M  V30 3521 H 323.29 3.18042 -0.602572 0
M  V30 3522 H 322.197 2.47112 -2.80867 0
M  V30 3523 H 323.53 3.26599 -3.68231 0
M  V30 3524 N 325.182 1.32811 0.848464 0
M  V30 3525 C 326.428 1.23907 1.60546 0
M  V30 3526 C 326.761 -0.197161 1.93197 0
M  V30 3527 O 326.036 -1.13596 1.5788 0
M  V30 3528 C 326.319 2.10489 2.92175 0
M  V30 3529 C 326.172 3.62522 2.66266 0
M  V30 3530 C 327.491 1.97075 3.93509 0
M  V30 3531 H 324.61 0.451459 0.58254 0
M  V30 3532 H 327.252 1.62818 0.979296 0
M  V30 3533 H 325.402 1.77434 3.45614 0
M  V30 3534 H 327.074 4.05821 2.19334 0
M  V30 3535 H 325.317 3.84879 2.00126 0
M  V30 3536 H 325.988 4.18437 3.6002 0
M  V30 3537 H 328.464 2.26045 3.49346 0
M  V30 3538 H 327.34 2.59923 4.83457 0
M  V30 3539 H 327.601 0.940186 4.31987 0
M  V30 3540 N 326.66 -1.06551 1.16123 0
M  V30 3541 C 327.909 -1.78687 0.935622 0
M  V30 3542 C 328.222 -1.88056 -0.538001 0
M  V30 3543 O 329.428 -2.56794 -0.88143 0
M  V30 3544 C 327.884 -3.21143 1.62466 0
M  V30 3545 C 327.492 -3.19949 3.13587 0
M  V30 3546 C 329.236 -3.9783 1.48092 0
M  V30 3547 C 327.143 -4.57108 3.75241 0
M  V30 3548 H 326.073 -0.669712 0.346412 0
M  V30 3549 H 328.724 -1.19534 1.39226 0
M  V30 3550 H 327.106 -3.80539 1.09572 0
M  V30 3551 H 328.28 -2.70151 3.73303 0
M  V30 3552 H 326.595 -2.5676 3.27816 0
M  V30 3553 H 329.192 -4.99217 1.91538 0
M  V30 3554 H 329.535 -4.14078 0.429507 0
M  V30 3555 H 330.068 -3.4495 1.98127 0
M  V30 3556 H 326.807 -4.46065 4.80319 0
M  V30 3557 H 326.327 -5.07111 3.20309 0
M  V30 3558 H 328.006 -5.26069 3.76644 0
M  V30 3559 N 328.138 -0.959301 -1.25041 0
M  V30 3560 C 329.387 -0.612254 -1.92183 0
M  V30 3561 C 329.7 0.855347 -1.75907 0
M  V30 3562 O 330.906 1.31256 -2.37664 0
M  V30 3563 C 329.362 -1.04435 -3.44414 0
M  V30 3564 C 328.97 -2.53482 -3.69393 0
M  V30 3565 C 330.714 -0.770055 -4.17457 0
M  V30 3566 C 328.621 -2.90468 -5.15153 0
M  V30 3567 H 327.551 -0.225279 -0.719559 0
M  V30 3568 H 330.202 -1.16438 -1.41825 0
M  V30 3569 H 328.584 -0.4206 -3.9376 0
M  V30 3570 H 329.758 -3.20916 -3.30681 0
M  V30 3571 H 328.073 -2.78432 -3.0962 0
M  V30 3572 H 330.67 -1.02249 -5.24832 0
M  V30 3573 H 331.013 0.293611 -4.15263 0
M  V30 3574 H 331.546 -1.35437 -3.74034 0
M  V30 3575 H 328.285 -3.95871 -5.22462 0
M  V30 3576 H 327.805 -2.27711 -5.54894 0
M  V30 3577 H 329.484 -2.79914 -5.83315 0
M  V30 3578 N 329.616 1.39756 -0.72842 0
M  V30 3579 C 330.548 2.29157 -0.0446202 0
M  V30 3580 C 331.561 1.46484 0.710367 0
M  V30 3581 O 332.75 1.69632 0.55562 0
M  V30 3582 C 329.85 3.24987 0.961071 0
M  V30 3583 C 329.023 4.36572 0.268967 0
M  V30 3584 C 328.082 5.12756 1.18184 0
M  V30 3585 O 327.108 5.6534 0.661794 0
M  V30 3586 N 328.31 5.23331 2.51206 0
M  V30 3587 H 331.075 2.88482 -0.812295 0
M  V30 3588 H 328.636 1.51265 -0.577098 0
M  V30 3589 H 330.628 3.72827 1.57423 0
M  V30 3590 H 329.198 2.66739 1.63 0
M  V30 3591 H 328.418 3.90694 -0.524574 0
M  V30 3592 H 329.706 5.08363 -0.210934 0
M  V30 3593 H 329.104 4.82116 2.9594 0
M  V30 3594 H 327.661 5.74634 3.07634 0
M  V30 3595 N 331.094 0.475555 1.50254 0
M  V30 3596 C 332.34 -0.0780073 2.0265 0
M  V30 3597 C 332.673 -1.38968 1.35652 0
M  V30 3598 O 331.948 -1.8839 0.483691 0
M  V30 3599 C 332.231 -0.257161 3.59181 0
M  V30 3600 C 332.084 1.07585 4.36744 0
M  V30 3601 C 333.403 -1.00965 4.28362 0
M  V30 3602 H 330.522 -0.0268758 0.73651 0
M  V30 3603 H 333.164 0.622015 1.7953 0
M  V30 3604 H 331.314 -0.853412 3.79011 0
M  V30 3605 H 332.986 1.70902 4.28474 0
M  V30 3606 H 331.229 1.6714 4.00308 0
M  V30 3607 H 331.9 0.904088 5.44546 0
M  V30 3608 H 334.376 -0.504214 4.13034 0
M  V30 3609 H 333.252 -1.10381 5.37687 0
M  V30 3610 H 333.513 -2.04731 3.91839 0
M  V30 3611 N 332.573 -1.56217 0.208337 0
M  V30 3612 C 333.503 -2.22694 -0.702116 0
M  V30 3613 C 334.484 -1.19432 -1.2112 0
M  V30 3614 O 335.669 -1.47978 -1.25762 0
M  V30 3615 C 332.799 -2.8966 -1.9161 0
M  V30 3616 C 331.753 -3.9928 -1.5414 0
M  V30 3617 C 331.079 -4.53476 -2.83308 0
M  V30 3618 C 332.379 -5.17012 -0.741339 0
M  V30 3619 H 334.073 -2.99034 -0.147898 0
M  V30 3620 H 331.619 -1.43831 -0.0696951 0
M  V30 3621 H 333.572 -3.34852 -2.55836 0
M  V30 3622 H 332.296 -2.10746 -2.49507 0
M  V30 3623 H 330.955 -3.54799 -0.922668 0
M  V30 3624 H 330.603 -3.71308 -3.39322 0
M  V30 3625 H 330.303 -5.27451 -2.58976 0
M  V30 3626 H 331.827 -5.01378 -3.485 0
M  V30 3627 H 333.241 -5.58667 -1.28699 0
M  V30 3628 H 331.638 -5.97137 -0.595627 0
M  V30 3629 H 332.708 -4.8423 0.254851 0
M  V30 3630 N 334.051 0.0651679 -1.57465 0
M  V30 3631 C 335.279 0.775808 -1.91804 0
M  V30 3632 C 335.694 1.70782 -0.804916 0
M  V30 3633 O 335.051 1.81153 0.221311 0
M  V30 3634 C 335.102 1.56381 -3.25925 0
M  V30 3635 O 334.823 0.669248 -4.32958 0
M  V30 3636 C 336.324 2.37485 -3.7432 0
M  V30 3637 H 333.544 0.2202 -0.63384 0
M  V30 3638 H 336.088 0.0334587 -2.04473 0
M  V30 3639 H 334.243 2.25837 -3.14764 0
M  V30 3640 H 334.657 1.21801 -5.10162 0
M  V30 3641 H 336.131 2.88223 -4.70778 0
M  V30 3642 H 336.608 3.17307 -3.03666 0
M  V30 3643 H 337.214 1.73173 -3.88447 0
M  V30 3644 N 335.529 1.53961 0.336706 0
M  V30 3645 C 336.94 1.62914 0.911925 0
M  V30 3646 C 337.291 0.514795 1.89326 0
M  V30 3647 O 336.416 -0.354395 2.13478 0
M  V30 3648 C 337.011 2.95304 1.66076 0
M  V30 3649 C 335.57 3.06496 2.18489 0
M  V30 3650 C 334.717 2.58403 1.00613 0
M  V30 3651 H 337.668 1.58285 0.114649 0
M  V30 3652 H 337.689 2.84727 2.5241 0
M  V30 3653 H 337.201 3.76387 0.946276 0
M  V30 3654 H 335.302 2.3006 2.93092 0
M  V30 3655 H 335.415 4.1208 2.44391 0
M  V30 3656 H 333.779 2.13977 1.38152 0
M  V30 3657 H 334.562 3.41932 0.306179 0
M  V30 3658 N 337.007 -0.598083 1.45811 0
M  V30 3659 C 338.237 -1.38121 1.53643 0
M  V30 3660 C 338.645 -1.88425 0.171081 0
M  V30 3661 O 337.988 -1.63409 -0.839237 0
M  V30 3662 C 338.05 -2.61432 2.46766 0
M  V30 3663 C 337.714 -2.32702 3.93318 0
M  V30 3664 C 338.711 -1.92479 4.82957 0
M  V30 3665 C 336.396 -2.45321 4.38318 0
M  V30 3666 C 338.39 -1.65248 6.15607 0
M  V30 3667 C 336.077 -2.17703 5.71007 0
M  V30 3668 C 337.075 -1.7773 6.5947 0
M  V30 3669 O 336.763 -1.50441 7.89698 0
M  V30 3670 H 336.495 -0.428863 0.522544 0
M  V30 3671 H 339.049 -0.73557 1.91777 0
M  V30 3672 H 337.279 -3.28749 2.0362 0
M  V30 3673 H 338.968 -3.23487 2.45175 0
M  V30 3674 H 339.734 -1.82258 4.49452 0
M  V30 3675 H 335.613 -2.75399 3.69697 0
M  V30 3676 H 339.157 -1.33973 6.84614 0
M  V30 3677 H 335.054 -2.27544 6.04065 0
M  V30 3678 H 335.822 -1.64415 8.01817 0
M  V30 3679 N 338.485 -1.33259 -0.841409 0
M  V30 3680 C 339.448 -1.23221 -1.9326 0
M  V30 3681 C 340.448 -0.151895 -1.60081 0
M  V30 3682 O 341.638 -0.403246 -1.69468 0
M  V30 3683 C 338.77 -0.898123 -3.28856 0
M  V30 3684 H 339.963 -2.2021 -2.03587 0
M  V30 3685 H 337.516 -1.17281 -1.03319 0
M  V30 3686 H 338.251 0.0693841 -3.24226 0
M  V30 3687 H 338.036 -1.67934 -3.54317 0
M  V30 3688 H 339.526 -0.852563 -4.08805 0
M  V30 3689 N 339.963 1.05934 -1.16686 0
M  V30 3690 C 341.209 1.79065 -0.95203 0
M  V30 3691 C 341.542 1.87147 0.518629 0
M  V30 3692 O 340.817 1.36574 1.38484 0
M  V30 3693 C 341.1 3.23359 -1.58464 0
M  V30 3694 C 340.953 3.23336 -3.12689 0
M  V30 3695 C 342.272 4.21004 -1.28232 0
M  V30 3696 H 339.391 0.65005 -0.34728 0
M  V30 3697 H 342.033 1.23868 -1.44072 0
M  V30 3698 H 340.183 3.70493 -1.16908 0
M  V30 3699 H 341.855 2.84336 -3.6325 0
M  V30 3700 H 340.098 2.61886 -3.4583 0
M  V30 3701 H 340.769 4.25144 -3.52075 0
M  V30 3702 H 343.245 3.8233 -1.64203 0
M  V30 3703 H 342.121 5.20225 -1.75092 0
M  V30 3704 H 342.382 4.41639 -0.201791 0
M  V30 3705 N 341.441 0.965919 1.2453 0
M  V30 3706 C 342.666 0.643971 1.97149 0
M  V30 3707 C 343.091 -0.779487 1.71189 0
M  V30 3708 O 342.449 -1.5288 0.974553 0
M  V30 3709 C 342.497 0.922557 3.48599 0
M  V30 3710 O 341.601 0.00707672 4.12399 0
M  V30 3711 H 340.942 0.243647 0.617683 0
M  V30 3712 H 343.472 1.29558 1.58353 0
M  V30 3713 H 343.482 0.853373 3.98976 0
M  V30 3714 H 342.157 1.95996 3.66822 0
M  V30 3715 H 340.734 0.12943 3.72675 0
M  V30 3716 N 342.919 -1.39368 0.735821 0
M  V30 3717 C 344.147 -2.04795 0.294393 0
M  V30 3718 C 344.562 -1.55478 -1.07107 0
M  V30 3719 O 343.919 -0.720038 -1.67695 0
M  V30 3720 C 343.97 -3.6035 0.288071 0
M  V30 3721 O 343.691 -4.07852 1.59963 0
M  V30 3722 C 345.192 -4.42976 -0.169422 0
M  V30 3723 H 342.412 -0.658571 0.128551 0
M  V30 3724 H 344.956 -1.78399 0.999701 0
M  V30 3725 H 343.111 -3.85645 -0.368355 0
M  V30 3726 H 343.525 -5.02181 1.51375 0
M  V30 3727 H 344.999 -5.51864 -0.122687 0
M  V30 3728 H 345.476 -4.22068 -1.21472 0
M  V30 3729 H 346.082 -4.22832 0.457469 0
M  V30 3730 N 344.397 -0.483516 -1.5 0
M  V30 3731 C 345.36 0.292965 -2.2732 0
M  V30 3732 C 346.36 0.909499 -1.32608 0
M  V30 3733 O 347.55 0.776745 -1.55924 0
M  V30 3734 C 344.682 1.41854 -3.09984 0
M  V30 3735 H 345.875 -0.385289 -2.97415 0
M  V30 3736 H 343.428 -0.237942 -1.54478 0
M  V30 3737 H 344.163 2.13148 -2.44414 0
M  V30 3738 H 343.948 0.982114 -3.79601 0
M  V30 3739 H 345.438 1.96597 -3.68429 0
M  V30 3740 N 345.875 1.56104 -0.216619 0
M  V30 3741 C 346.808 2.16026 0.735395 0
M  V30 3742 C 347.786 1.1032 1.1945 0
M  V30 3743 O 348.97 1.38549 1.27814 0
M  V30 3744 C 346.097 2.73656 1.99575 0
M  V30 3745 C 345.143 3.92146 1.67702 0
M  V30 3746 S 345.976 5.29397 0.806145 0
M  V30 3747 C 347.132 5.90463 2.07617 0
M  V30 3748 H 347.365 2.96439 0.226072 0
M  V30 3749 H 344.898 1.544 -0.00136639 0
M  V30 3750 H 346.856 3.075 2.71945 0
M  V30 3751 H 345.517 1.93245 2.47619 0
M  V30 3752 H 344.71 4.30954 2.61332 0
M  V30 3753 H 344.312 3.59423 1.03398 0
M  V30 3754 H 346.604 6.06136 3.02664 0
M  V30 3755 H 347.547 6.86589 1.73207 0
M  V30 3756 H 347.955 5.19252 2.21445 0
M  V30 3757 N 347.353 -0.0568162 1.57498 0
M  V30 3758 C 348.581 -0.765626 1.92213 0
M  V30 3759 C 348.996 -1.70353 0.813961 0
M  V30 3760 O 348.353 -1.81268 -0.211701 0
M  V30 3761 C 348.404 -1.5465 3.2675 0
M  V30 3762 O 348.125 -0.646278 4.33307 0
M  V30 3763 C 349.626 -2.35497 3.75574 0
M  V30 3764 H 346.846 -0.216835 0.634999 0
M  V30 3765 H 349.39 -0.0226146 2.04487 0
M  V30 3766 H 347.545 -2.24165 3.15957 0
M  V30 3767 H 347.959 -1.19093 5.108 0
M  V30 3768 H 349.433 -2.85722 4.72299 0
M  V30 3769 H 349.91 -3.15692 3.05344 0
M  V30 3770 H 350.516 -1.7111 3.8936 0
M  V30 3771 N 348.832 -1.54138 -0.328536 0
M  V30 3772 C 349.779 -1.83176 -1.40411 0
M  V30 3773 C 350.749 -0.678494 -1.5161 0
M  V30 3774 O 351.934 -0.92443 -1.6691 0
M  V30 3775 C 349.074 -2.06035 -2.76846 0
M  V30 3776 C 348.187 -3.33727 -2.74318 0
M  V30 3777 C 347.322 -3.46574 -4.02567 0
M  V30 3778 C 346.361 -4.68159 -3.94327 0
M  V30 3779 N 345.498 -4.77959 -5.14296 0
M  V30 3780 H 350.338 -2.74938 -1.14948 0
M  V30 3781 H 347.875 -1.36166 -0.556538 0
M  V30 3782 H 349.833 -2.1728 -3.56153 0
M  V30 3783 H 348.463 -1.1757 -3.00628 0
M  V30 3784 H 347.515 -3.31246 -1.8703 0
M  V30 3785 H 348.827 -4.23139 -2.64111 0
M  V30 3786 H 347.981 -3.57333 -4.90304 0
M  V30 3787 H 346.72 -2.55245 -4.15574 0
M  V30 3788 H 345.725 -4.57461 -3.04974 0
M  V30 3789 H 346.95 -5.60868 -3.82889 0
M  V30 3790 H 344.896 -3.89544 -5.27818 0
M  V30 3791 H 344.813 -5.6133 -5.06404 0
M  V30 3792 H 346.081 -4.93044 -6.03761 0
M  V30 3793 N 350.31 0.590341 -1.46126 0
M  V30 3794 C 351.54 1.37304 -1.54373 0
M  V30 3795 C 351.948 1.88332 -0.181071 0
M  V30 3796 O 351.291 1.63852 0.830559 0
M  V30 3797 C 351.353 2.6012 -2.48149 0
M  V30 3798 C 351.017 2.30613 -3.94546 0
M  V30 3799 C 352.014 1.89915 -4.83971 0
M  V30 3800 C 349.699 2.42993 -4.39613 0
M  V30 3801 C 351.693 1.61981 -6.16475 0
M  V30 3802 C 349.38 2.14672 -5.72153 0
M  V30 3803 C 350.378 1.7423 -6.60404 0
M  V30 3804 O 350.066 1.46251 -7.90485 0
M  V30 3805 H 349.798 0.426086 -0.524811 0
M  V30 3806 H 352.352 0.72539 -1.92165 0
M  V30 3807 H 350.582 3.27664 -2.05361 0
M  V30 3808 H 352.271 3.22182 -2.46887 0
M  V30 3809 H 353.037 1.79872 -4.50412 0
M  V30 3810 H 348.916 2.73435 -3.71153 0
M  V30 3811 H 352.46 1.30341 -6.85315 0
M  V30 3812 H 348.357 2.24337 -6.05263 0
M  V30 3813 H 349.125 1.6016 -8.02677 0
M  V30 3814 N 351.788 1.33704 0.83433 0
M  V30 3815 C 352.718 1.26967 1.95963 0
M  V30 3816 C 353.699 0.149337 1.69443 0
M  V30 3817 O 354.884 0.339852 1.91203 0
M  V30 3818 C 352.014 1.01275 3.32206 0
M  V30 3819 C 350.968 2.09652 3.73136 0
M  V30 3820 C 350.294 1.69166 5.07235 0
M  V30 3821 C 351.594 3.51372 3.86439 0
M  V30 3822 H 353.288 2.2112 2.01857 0
M  V30 3823 H 350.834 1.06447 0.969793 0
M  V30 3824 H 352.787 0.952106 4.10503 0
M  V30 3825 H 351.511 0.0356203 3.26581 0
M  V30 3826 H 350.17 2.14766 2.97104 0
M  V30 3827 H 349.818 0.701437 4.98085 0
M  V30 3828 H 349.518 2.41694 5.35591 0
M  V30 3829 H 351.042 1.64576 5.88003 0
M  V30 3830 H 352.456 3.48734 4.55036 0
M  V30 3831 H 350.853 4.22425 4.26236 0
M  V30 3832 H 351.923 3.89546 2.88759 0
M  V30 3833 N 353.266 -1.05314 1.17247 0
M  V30 3834 C 354.214 -2.15137 0.884238 0
M  V30 3835 C 355.208 -1.68729 -0.15063 0
M  V30 3836 O 356.414 -1.8 -0.00366673 0
M  V30 3837 H 352.789 -0.702471 0.2684 0
M  V30 3838 H 354.76 -2.36652 1.81764 0
M  V30 3839 C 353.509 -3.45243 0.412659 0
M  V30 3840 H 352.832 -3.81352 1.20043 0
M  V30 3841 H 354.272 -4.23263 0.249858 0
M  V30 3842 C 352.731 -3.25487 -0.86948 0
M  V30 3843 O 353.261 -3.51938 -1.93655 0
M  V30 3844 N 351.467 -2.78875 -0.817147 0
M  V30 3845 H 351.014 -2.57549 0.0514211 0
M  V30 3846 H 350.972 -2.66036 -1.67547 0
M  V30 3847 N 354.744 -0.972509 -1.24016 0
M  V30 3848 C 355.972 -0.654803 -1.96265 0
M  V30 3849 C 356.387 0.776708 -1.72083 0
M  V30 3850 O 355.744 1.52171 -1.00748 0
M  V30 3851 C 355.795 -0.92592 -3.49441 0
M  V30 3852 O 355.516 -2.30116 -3.72798 0
M  V30 3853 C 357.017 -0.623068 -4.38899 0
M  V30 3854 H 354.237 -0.243907 -0.6251 0
M  V30 3855 H 356.781 -1.30175 -1.57717 0
M  V30 3856 H 354.936 -0.325108 -3.86033 0
M  V30 3857 H 355.35 -2.38483 -4.67147 0
M  V30 3858 H 356.824 -0.863189 -5.45209 0
M  V30 3859 H 357.301 0.442754 -4.36963 0
M  V30 3860 H 357.907 -1.204 -4.07902 0
M  V30 3861 N 356.222 1.38976 -0.743202 0
M  V30 3862 C 357.17 2.32394 -0.0978389 0
M  V30 3863 C 358.164 1.53486 0.716824 0
M  V30 3864 O 359.37 1.69092 0.617088 0
M  V30 3865 H 355.745 0.75189 -0.0128402 0
M  V30 3866 H 357.716 2.84441 -0.901981 0
M  V30 3867 C 356.465 3.38629 0.789036 0
M  V30 3868 H 355.788 3.99432 0.171559 0
M  V30 3869 H 357.228 4.06426 1.20807 0
M  V30 3870 C 355.687 2.76347 1.92702 0
M  V30 3871 O 356.217 2.64836 3.02034 0
M  V30 3872 N 354.423 2.34311 1.71891 0
M  V30 3873 H 353.97 2.43873 0.829675 0
M  V30 3874 H 353.928 1.9298 2.48205 0
M  V30 3875 N 357.7 0.491464 1.49741 0
M  V30 3876 C 358.946 -0.0565092 2.02721 0
M  V30 3877 C 359.279 -1.37522 1.37118 0
M  V30 3878 O 358.554 -1.87866 0.503645 0
M  V30 3879 C 358.837 -0.219051 3.59433 0
M  V30 3880 C 358.69 1.12211 4.35579 0
M  V30 3881 C 360.009 -0.964157 4.29409 0
M  V30 3882 H 357.128 -0.0190627 0.736753 0
M  V30 3883 H 359.77 0.641021 1.7886 0
M  V30 3884 H 357.92 -0.813165 3.79895 0
M  V30 3885 H 359.592 1.75437 4.26637 0
M  V30 3886 H 357.835 1.71377 3.98513 0
M  V30 3887 H 358.506 0.961794 5.43556 0
M  V30 3888 H 360.982 -0.460378 4.13545 0
M  V30 3889 H 359.858 -1.04671 5.38828 0
M  V30 3890 H 360.119 -2.00563 3.93988 0
M  V30 3891 N 359.178 -1.55987 0.224894 0
M  V30 3892 C 360.427 -1.97566 -0.406273 0
M  V30 3893 C 360.74 -1.11569 -1.6066 0
M  V30 3894 O 361.946 -1.43062 -2.3075 0
M  V30 3895 C 360.402 -3.51474 -0.774207 0
M  V30 3896 C 360.01 -4.46179 0.403496 0
M  V30 3897 C 361.754 -4.01758 -1.37079 0
M  V30 3898 C 359.661 -5.91399 0.0129412 0
M  V30 3899 H 358.591 -0.737777 -0.155565 0
M  V30 3900 H 361.242 -1.80659 0.321635 0
M  V30 3901 H 359.624 -3.63994 -1.55963 0
M  V30 3902 H 360.798 -4.45409 1.18101 0
M  V30 3903 H 359.113 -4.06255 0.913536 0
M  V30 3904 H 361.71 -5.07756 -1.67596 0
M  V30 3905 H 362.053 -3.47805 -2.28773 0
M  V30 3906 H 362.586 -3.92475 -0.648733 0
M  V30 3907 H 359.325 -6.49341 0.896451 0
M  V30 3908 H 358.845 -5.95356 -0.728821 0
M  V30 3909 H 360.524 -6.45683 -0.412582 0
M  V30 3910 N 360.656 0.0484629 -1.57525 0
M  V30 3911 C 361.884 0.755421 -1.92616 0
M  V30 3912 C 362.299 1.69919 -0.822984 0
M  V30 3913 O 361.656 1.81378 0.202085 0
M  V30 3914 C 361.707 1.52915 -3.27566 0
M  V30 3915 O 361.428 0.62329 -4.33644 0
M  V30 3916 C 362.929 2.33502 -3.76818 0
M  V30 3917 H 360.149 0.213465 -0.63614 0
M  V30 3918 H 362.693 0.0117698 -2.04497 0
M  V30 3919 H 360.848 2.22486 -3.17142 0
M  V30 3920 H 361.262 1.16383 -5.11425 0
M  V30 3921 H 362.736 2.83214 -4.73808 0
M  V30 3922 H 363.213 3.14068 -3.07014 0
M  V30 3923 H 363.819 1.69043 -3.90262 0
M  V30 3924 N 362.134 1.5431 0.320358 0
M  V30 3925 C 363.081 1.83918 1.39438 0
M  V30 3926 C 364.051 0.686525 1.51248 0
M  V30 3927 O 365.236 0.933269 1.66417 0
M  V30 3928 C 362.376 2.075 2.75749 0
M  V30 3929 C 361.489 3.35177 2.72544 0
M  V30 3930 C 360.624 3.48704 4.00723 0
M  V30 3931 C 359.663 4.70244 3.91838 0
M  V30 3932 N 358.8 4.80679 5.11754 0
M  V30 3933 H 363.64 2.75544 1.13489 0
M  V30 3934 H 361.177 1.36459 0.549309 0
M  V30 3935 H 363.135 2.19166 3.54996 0
M  V30 3936 H 361.765 1.19163 3 0
M  V30 3937 H 360.817 3.32233 1.85271 0
M  V30 3938 H 362.129 4.24534 2.61863 0
M  V30 3939 H 361.283 3.59928 4.88402 0
M  V30 3940 H 360.022 2.57445 4.14214 0
M  V30 3941 H 359.027 4.59072 3.02544 0
M  V30 3942 H 360.252 5.6289 3.7991 0
M  V30 3943 H 358.198 3.92337 5.25745 0
M  V30 3944 H 358.115 5.64007 5.0342 0
M  V30 3945 H 359.383 4.96239 6.01138 0
M  V30 3946 N 363.613 -0.582584 1.46437 0
M  V30 3947 C 364.841 -1.36682 1.55324 0
M  V30 3948 C 365.256 -1.87796 0.194409 0
M  V30 3949 O 364.613 -1.63623 -0.808318 0
M  V30 3950 C 364.664 -2.55426 2.55812 0
M  V30 3951 O 364.385 -2.0643 3.86417 0
M  V30 3952 C 365.886 -3.47976 2.74641 0
M  V30 3953 H 363.106 -0.417545 0.525259 0
M  V30 3954 H 365.65 -0.708219 1.91845 0
M  V30 3955 H 363.805 -3.17275 2.22295 0
M  V30 3956 H 364.219 -2.83762 4.41111 0
M  V30 3957 H 365.693 -4.27775 3.48874 0
M  V30 3958 H 366.17 -3.99919 1.81553 0
M  V30 3959 H 366.776 -2.91962 3.09255 0
M  V30 3960 N 365.091 -1.34144 -0.827227 0
M  V30 3961 C 366.054 -1.25264 -1.91942 0
M  V30 3962 C 367.054 -0.168866 -1.59911 0
M  V30 3963 O 368.244 -0.421198 -1.69031 0
M  V30 3964 C 365.376 -0.932952 -3.27885 0
M  V30 3965 H 366.569 -2.22357 -2.0124 0
M  V30 3966 H 364.122 -1.1837 -1.0207 0
M  V30 3967 H 364.857 0.0349917 -3.24281 0
M  V30 3968 H 364.642 -1.71682 -3.52516 0
M  V30 3969 H 366.132 -0.895874 -4.07877 0
M  V30 3970 N 366.569 1.04691 -1.17803 0
M  V30 3971 C 367.846 1.7472 -0.879328 0
M  V30 3972 C 368.226 2.01812 0.619271 0
M  V30 3973 O 367.574 1.65824 1.57209 0
M  V30 3974 C 367.784 3.03686 -1.71976 0
M  V30 3975 C 369.132 3.77542 -1.94286 0
M  V30 3976 O 370.156 3.13569 -1.68976 0
M  V30 3977 O 369.015 4.92506 -2.36855 0
M  V30 3978 H 366.109 0.760011 -0.326056 0
M  V30 3979 H 368.655 1.10813 -1.28525 0
M  V30 3980 H 367.427 2.79754 -2.73594 0
M  V30 3981 H 367.05 3.75332 -1.31194 0
M  V30 3982 N 368.047 0.979072 1.23499 0
M  V30 3983 C 368.957 0.526431 2.28617 0
M  V30 3984 C 369.973 -0.418126 1.68901 0
M  V30 3985 O 371.149 -0.288372 1.99325 0
M  V30 3986 C 368.214 -0.165235 3.46306 0
M  V30 3987 C 367.275 0.82056 4.21385 0
M  V30 3988 C 366.508 0.161807 5.33455 0
M  V30 3989 O 366.731 -1.04742 5.60701 0
M  V30 3990 O 365.665 0.859708 5.95729 0
M  V30 3991 H 369.491 1.4006 2.69475 0
M  V30 3992 H 367.076 0.746643 1.29405 0
M  V30 3993 H 368.958 -0.553287 4.17752 0
M  V30 3994 H 367.633 -1.01419 3.07402 0
M  V30 3995 H 366.54 1.25929 3.52268 0
M  V30 3996 H 367.873 1.63828 4.64135 0
M  V30 3997 N 369.525 -1.3858 0.750561 0
M  V30 3998 C 370.772 -2.00184 0.305373 0
M  V30 3999 C 371.1 -1.59575 -1.11203 0
M  V30 4000 O 370.355 -0.823236 -1.77542 0
M  V30 4001 C 370.654 -3.55455 0.372373 0
M  V30 4002 C 370.32 -4.15765 1.745 0
M  V30 4003 C 368.982 -4.31951 2.12065 0
M  V30 4004 C 371.334 -4.49067 2.64553 0
M  V30 4005 C 368.662 -4.78734 3.39162 0
M  V30 4006 C 371.014 -4.97265 3.91038 0
M  V30 4007 C 369.678 -5.11658 4.28676 0
M  V30 4008 H 368.948 -0.732526 0.111744 0
M  V30 4009 H 371.595 -1.65673 0.960451 0
M  V30 4010 H 369.9 -3.90084 -0.366272 0
M  V30 4011 H 371.597 -4.00999 0.00953918 0
M  V30 4012 H 368.187 -4.03579 1.44297 0
M  V30 4013 H 372.371 -4.36166 2.36796 0
M  V30 4014 H 367.627 -4.88062 3.68246 0
M  V30 4015 H 371.801 -5.22003 4.60962 0
M  V30 4016 H 369.428 -5.47668 5.27222 0
M  V30 4017 N 371.003 -0.499398 -1.49478 0
M  V30 4018 C 372.249 0.0457576 -2.02748 0
M  V30 4019 C 372.582 1.36793 -1.37846 0
M  V30 4020 O 371.857 1.87596 -0.513601 0
M  V30 4021 C 372.14 0.199986 -3.59544 0
M  V30 4022 C 371.993 -1.1452 -4.34977 0
M  V30 4023 C 373.312 0.94137 -4.29914 0
M  V30 4024 H 370.431 0.0151552 -0.736844 0
M  V30 4025 H 373.073 -0.650498 -1.78518 0
M  V30 4026 H 371.223 0.793007 -3.8032 0
M  V30 4027 H 372.895 -1.77697 -4.25701 0
M  V30 4028 H 371.138 -1.73488 -3.97598 0
M  V30 4029 H 371.809 -0.990607 -5.43039 0
M  V30 4030 H 374.285 0.43844 -4.13784 0
M  V30 4031 H 373.161 1.01812 -5.39375 0
M  V30 4032 H 373.422 1.98471 -3.95046 0
M  V30 4033 N 372.481 1.55866 -0.233164 0
M  V30 4034 C 373.428 2.20796 0.67215 0
M  V30 4035 C 374.398 1.16731 1.18166 0
M  V30 4036 O 375.583 1.45129 1.23864 0
M  V30 4037 C 372.723 2.90072 1.86955 0
M  V30 4038 C 371.836 4.08759 1.39786 0
M  V30 4039 C 370.971 4.65787 2.55374 0
M  V30 4040 C 370.01 5.76752 2.04998 0
M  V30 4041 N 369.147 6.28021 3.13901 0
M  V30 4042 H 373.987 2.9779 0.111749 0
M  V30 4043 H 371.524 1.47036 0.0434007 0
M  V30 4044 H 373.482 3.28428 2.57276 0
M  V30 4045 H 372.112 2.15575 2.40265 0
M  V30 4046 H 371.164 3.7581 0.589173 0
M  V30 4047 H 372.476 4.88906 0.98856 0
M  V30 4048 H 371.63 5.06646 3.33758 0
M  V30 4049 H 370.369 3.84828 2.99598 0
M  V30 4050 H 369.374 5.35383 1.25079 0
M  V30 4051 H 370.599 6.59553 1.61759 0
M  V30 4052 H 368.545 5.49971 3.57586 0
M  V30 4053 H 368.462 7.03323 2.7726 0
M  V30 4054 H 369.73 6.73538 3.92386 0
M  V30 4055 N 373.959 -0.0401083 1.57549 0
M  V30 4056 C 374.869 -1.06133 2.0922 0
M  V30 4057 C 375.885 -1.40356 1.0284 0
M  V30 4058 O 377.061 -1.49897 1.34509 0
M  V30 4059 C 374.126 -2.34658 2.55218 0
M  V30 4060 C 373.187 -2.07117 3.76033 0
M  V30 4061 C 372.42 -3.29514 4.19829 0
M  V30 4062 O 372.643 -4.39794 3.63232 0
M  V30 4063 O 371.577 -3.15863 5.12362 0
M  V30 4064 H 375.403 -0.652244 2.96613 0
M  V30 4065 H 372.988 -0.256368 1.47184 0
M  V30 4066 H 374.87 -3.10239 2.85184 0
M  V30 4067 H 373.545 -2.74883 1.70941 0
M  V30 4068 H 372.452 -1.29139 3.51104 0
M  V30 4069 H 373.785 -1.71754 4.61261 0
M  V30 4070 N 375.437 -1.54477 -0.31217 0
M  V30 4071 C 376.662 -1.77526 -1.07235 0
M  V30 4072 C 377.087 -0.527775 -1.80544 0
M  V30 4073 O 376.445 0.52121 -1.73646 0
M  V30 4074 C 376.493 -2.97535 -2.03728 0
M  V30 4075 O 375.597 -2.69878 -3.11833 0
M  V30 4076 H 374.938 -0.58792 -0.30862 0
M  V30 4077 H 377.468 -2.01532 -0.352993 0
M  V30 4078 H 377.478 -3.25198 -2.46395 0
M  V30 4079 H 376.153 -3.87996 -1.49774 0
M  V30 4080 H 374.73 -2.53199 -2.7376 0
M  V30 4081 N 376.915 0.57481 -1.46744 0
M  V30 4082 C 377.845 1.69337 -1.60771 0
M  V30 4083 C 378.826 1.63825 -0.457736 0
M  V30 4084 O 380.011 1.8172 -0.684947 0
M  V30 4085 C 377.141 3.0798 -1.60517 0
M  V30 4086 C 376.095 3.28327 -2.74564 0
M  V30 4087 C 375.421 4.67578 -2.59373 0
M  V30 4088 C 376.721 3.15398 -4.16319 0
M  V30 4089 H 378.415 1.57853 -2.54407 0
M  V30 4090 H 375.961 0.75799 -1.22436 0
M  V30 4091 H 377.914 3.86061 -1.68923 0
M  V30 4092 H 376.638 3.20381 -0.634305 0
M  V30 4093 H 375.297 2.52649 -2.65639 0
M  V30 4094 H 374.945 4.76755 -1.60353 0
M  V30 4095 H 374.645 4.82144 -3.35873 0
M  V30 4096 H 376.169 5.47817 -2.69682 0
M  V30 4097 H 377.583 3.83315 -4.26313 0
M  V30 4098 H 375.98 3.41482 -4.93468 0
M  V30 4099 H 377.05 2.12372 -4.3592 0
M  V30 4100 N 378.394 1.34581 0.820102 0
M  V30 4101 C 379.342 1.26401 1.95258 0
M  V30 4102 C 380.336 0.161553 1.68628 0
M  V30 4103 O 381.542 0.326703 1.7701 0
M  V30 4104 H 377.917 0.392749 0.64129 0
M  V30 4105 H 379.888 2.22105 1.99279 0
M  V30 4106 C 378.637 1.03919 3.31807 0
M  V30 4107 H 377.96 1.87984 3.52848 0
M  V30 4108 H 379.4 1.02232 4.11491 0
M  V30 4109 C 377.859 -0.257433 3.35915 0
M  V30 4110 O 378.389 -1.25784 3.81499 0
M  V30 4111 N 376.595 -0.291524 2.89134 0
M  V30 4112 H 376.142 0.523161 2.52232 0
M  V30 4113 H 376.1 -1.15883 2.92264 0
M  V30 4114 N 379.872 -1.04064 1.18357 0
M  V30 4115 C 381.102 -1.80654 1.00238 0
M  V30 4116 C 381.51 -1.83713 -0.452362 0
M  V30 4117 O 380.853 -1.27135 -1.32599 0
M  V30 4118 C 380.915 -3.27582 1.48088 0
M  V30 4119 C 380.579 -3.48184 2.96002 0
M  V30 4120 C 381.576 -3.39372 3.93856 0
M  V30 4121 C 379.261 -3.7478 3.34433 0
M  V30 4122 C 381.255 -3.5686 5.28138 0
M  V30 4123 C 378.942 -3.91915 4.68877 0
M  V30 4124 C 379.94 -3.82956 5.65539 0
M  V30 4125 O 379.628 -3.996 6.97549 0
M  V30 4126 H 379.36 -0.575751 0.354241 0
M  V30 4127 H 381.914 -1.32044 1.57333 0
M  V30 4128 H 380.144 -3.77161 0.853588 0
M  V30 4129 H 381.833 -3.8573 1.2636 0
M  V30 4130 H 382.599 -3.18789 3.65511 0
M  V30 4131 H 378.478 -3.80852 2.59756 0
M  V30 4132 H 382.022 -3.49783 6.03571 0
M  V30 4133 H 377.919 -4.11992 4.96923 0
M  V30 4134 H 378.687 -4.1676 7.04452 0
M  V30 4135 N 381.35 -0.985608 -1.22978 0
M  V30 4136 C 382.596 -0.65836 -1.91816 0
M  V30 4137 C 382.929 0.806692 -1.76653 0
M  V30 4138 O 382.204 1.58252 -1.13078 0
M  V30 4139 C 382.487 -1.056 -3.44268 0
M  V30 4140 C 382.34 -2.57906 -3.68516 0
M  V30 4141 C 383.659 -0.603781 -4.35939 0
M  V30 4142 H 380.778 -0.24065 -0.696604 0
M  V30 4143 H 383.42 -1.22783 -1.44998 0
M  V30 4144 H 381.57 -0.571445 -3.84274 0
M  V30 4145 H 383.242 -3.13976 -3.3796 0
M  V30 4146 H 381.485 -3.00305 -3.13048 0
M  V30 4147 H 382.156 -2.80779 -4.75255 0
M  V30 4148 H 384.632 -1.01987 -4.03408 0
M  V30 4149 H 383.508 -0.910383 -5.41298 0
M  V30 4150 H 383.769 0.495761 -4.39312 0
M  V30 4151 N 382.828 1.3818 -0.7579 0
M  V30 4152 C 384.056 2.04301 -0.326937 0
M  V30 4153 C 384.471 1.57163 1.0462 0
M  V30 4154 O 383.828 0.746626 1.66529 0
M  V30 4155 C 383.879 3.59846 -0.345363 0
M  V30 4156 O 383.6 4.05256 -1.66432 0
M  V30 4157 C 385.101 4.4319 0.098927 0
M  V30 4158 H 382.321 0.656443 -0.139012 0
M  V30 4159 H 384.865 1.76786 -1.02796 0
M  V30 4160 H 383.02 3.86182 0.306955 0
M  V30 4161 H 383.434 4.99709 -1.59345 0
M  V30 4162 H 384.908 5.51989 0.0348745 0
M  V30 4163 H 385.385 4.23947 1.14741 0
M  V30 4164 H 385.991 4.22051 -0.52468 0
M  V30 4165 N 384.306 0.507319 1.49211 0
M  V30 4166 C 385.555 -0.0368315 2.01666 0
M  V30 4167 C 385.868 -1.37459 1.39156 0
M  V30 4168 O 387.074 -2.00579 1.82976 0
M  V30 4169 C 385.53 -0.116089 3.59713 0
M  V30 4170 C 385.138 1.2154 4.31198 0
M  V30 4171 C 386.882 -0.610268 4.2009 0
M  V30 4172 C 384.789 1.09796 5.81119 0
M  V30 4173 H 383.719 -0.0175376 0.753796 0
M  V30 4174 H 386.37 0.647691 1.71689 0
M  V30 4175 H 384.752 -0.8652 3.86433 0
M  V30 4176 H 385.926 1.9783 4.16173 0
M  V30 4177 H 384.241 1.64352 3.82593 0
M  V30 4178 H 386.838 -0.715742 5.29888 0
M  V30 4179 H 387.181 -1.61064 3.8388 0
M  V30 4180 H 387.714 0.0824916 3.97714 0
M  V30 4181 H 384.453 2.0728 6.21864 0
M  V30 4182 H 383.973 0.376058 5.9862 0
M  V30 4183 H 385.652 0.779281 6.4229 0
M  V30 4184 N 385.784 -1.5574 0.241426 0
M  V30 4185 C 387.032 -1.98417 -0.384075 0
M  V30 4186 C 387.353 -1.13078 -1.58866 0
M  V30 4187 O 386.623 -0.212312 -1.94746 0
M  V30 4188 H 385.203 -0.732813 -0.144894 0
M  V30 4189 H 387.865 -1.9193 0.338943 0
M  V30 4190 H 386.961 -3.04219 -0.696939 0
M  V30 4191 N 387.262 0.0317525 -1.57568 0
M  V30 4192 C 388.51 0.721676 -1.88776 0
M  V30 4193 C 388.831 1.76039 -0.838772 0
M  V30 4194 O 388.101 1.95482 0.127935 0
M  V30 4195 H 386.681 0.269534 -0.696678 0
M  V30 4196 H 389.343 -0.00165879 -1.949 0
M  V30 4197 H 388.439 1.21293 -2.87566 0
M  V30 4198 N 388.74 1.54641 0.303973 0
M  V30 4199 C 389.65 1.88439 1.39743 0
M  V30 4200 C 390.666 0.778239 1.55626 0
M  V30 4201 O 391.842 1.07442 1.70347 0
M  V30 4202 C 388.907 2.12212 2.74166 0
M  V30 4203 C 387.968 3.35936 2.67293 0
M  V30 4204 C 387.201 3.58566 3.95305 0
M  V30 4205 O 387.424 2.84263 4.9452 0
M  V30 4206 O 386.358 4.52078 3.97378 0
M  V30 4207 H 390.184 2.81458 1.14083 0
M  V30 4208 H 387.769 1.40793 0.499768 0
M  V30 4209 H 389.651 2.29067 3.53704 0
M  V30 4210 H 388.326 1.22379 2.99675 0
M  V30 4211 H 387.233 3.24448 1.86237 0
M  V30 4212 H 388.566 4.2589 2.46736 0
M  V30 4213 N 390.218 -0.567019 1.47046 0
M  V30 4214 C 391.446 -1.35027 1.56765 0
M  V30 4215 C 391.861 -1.8758 0.214316 0
M  V30 4216 O 391.218 -1.64471 -0.790919 0
M  V30 4217 C 391.269 -2.52698 2.58507 0
M  V30 4218 O 390.99 -2.0232 3.88585 0
M  V30 4219 C 392.491 -3.45043 2.78316 0
M  V30 4220 H 389.711 -0.41195 0.529658 0
M  V30 4221 H 392.255 -0.687832 1.92585 0
M  V30 4222 H 390.41 -3.149 2.25648 0
M  V30 4223 H 390.824 -2.79068 4.44096 0
M  V30 4224 H 392.298 -4.2405 3.53391 0
M  V30 4225 H 392.775 -3.97971 1.85784 0
M  V30 4226 H 393.381 -2.88665 3.12334 0
M  V30 4227 N 391.696 -1.35014 -0.812953 0
M  V30 4228 C 392.936 -1.29289 -1.58315 0
M  V30 4229 C 393.3 0.132727 -1.91541 0
M  V30 4230 O 394.501 0.314269 -2.66957 0
M  V30 4231 C 392.772 -2.1681 -2.84127 0
M  V30 4232 S 394.331 -2.28538 -3.74588 0
M  V30 4233 H 391.149 -0.459569 -0.542511 0
M  V30 4234 H 393.751 -1.70336 -0.959467 0
M  V30 4235 H 392.455 -3.19379 -2.57731 0
M  V30 4236 H 391.986 -1.76697 -3.51485 0
M  V30 4237 H 394.001 -1.4655 -4.74065 0
M  V30 4238 N 393.175 1.03435 -1.18907 0
M  V30 4239 C 394.423 1.76394 -0.986382 0
M  V30 4240 C 394.744 1.88883 0.484567 0
M  V30 4241 O 394.014 1.41843 1.3512 0
M  V30 4242 H 392.594 0.65344 -0.361975 0
M  V30 4243 H 395.256 1.248 -1.49703 0
M  V30 4244 H 394.352 2.77424 -1.42978 0
M  V30 4245 N 394.653 0.992116 1.22453 0
M  V30 4246 C 395.893 0.675727 1.92907 0
M  V30 4247 C 396.257 -0.777762 1.75542 0
M  V30 4248 O 397.458 -1.20553 2.40251 0
M  V30 4249 C 395.729 1.0696 3.4102 0
M  V30 4250 S 397.288 0.871456 4.30059 0
M  V30 4251 H 394.106 0.247089 0.666684 0
M  V30 4252 H 396.708 1.27423 1.48269 0
M  V30 4253 H 395.412 2.12383 3.51172 0
M  V30 4254 H 394.943 0.462858 3.90668 0
M  V30 4255 H 396.958 -0.238436 4.95627 0
M  V30 4256 N 396.131 -1.37776 0.765217 0
M  V30 4257 C 397.061 -2.32945 0.160953 0
M  V30 4258 C 398.042 -1.55454 -0.690516 0
M  V30 4259 O 399.227 -1.83721 -0.629318 0
M  V30 4260 C 396.357 -3.39669 -0.724031 0
M  V30 4261 C 395.311 -4.27992 0.0256173 0
M  V30 4262 C 394.637 -5.25673 -0.978383 0
M  V30 4263 C 395.937 -5.08309 1.20082 0
M  V30 4264 H 397.631 -2.83728 0.955969 0
M  V30 4265 H 395.177 -1.36416 0.461149 0
M  V30 4266 H 397.13 -4.05219 -1.15652 0
M  V30 4267 H 395.854 -2.87396 -1.5515 0
M  V30 4268 H 394.513 -3.63964 0.438812 0
M  V30 4269 H 394.161 -4.69682 -1.80022 0
M  V30 4270 H 393.861 -5.85625 -0.481378 0
M  V30 4271 H 395.385 -5.94098 -1.40995 0
M  V30 4272 H 396.799 -5.67034 0.845307 0
M  V30 4273 H 395.196 -5.77554 1.62947 0
M  V30 4274 H 396.266 -4.41365 2.00811 0
M  V30 4275 N 397.609 -0.515225 -1.4894 0
M  V30 4276 C 398.572 0.244681 -2.2789 0
M  V30 4277 C 399.572 0.881166 -1.34507 0
M  V30 4278 O 400.762 0.743497 -1.57537 0
M  V30 4279 C 397.894 1.35247 -3.12923 0
M  V30 4280 H 399.087 -0.448289 -2.96531 0
M  V30 4281 H 396.64 -0.270656 -1.53939 0
M  V30 4282 H 397.375 2.07916 -2.48881 0
M  V30 4283 H 397.16 0.901374 -3.81599 0
M  V30 4284 H 398.65 1.88737 -3.72516 0
M  V30 4285 N 399.087 1.5561 -0.249682 0
M  V30 4286 C 400.037 2.18157 0.662673 0
M  V30 4287 C 401.021 1.1383 1.13717 0
M  V30 4288 O 402.213 1.39731 1.08648 0
M  V30 4289 C 399.342 2.88672 1.85805 0
M  V30 4290 C 398.428 4.00258 1.40193 0
M  V30 4291 N 398.819 5.01473 0.660213 0
M  V30 4292 C 397.117 4.12864 1.68698 0
M  V30 4293 C 397.818 5.80155 0.423695 0
M  V30 4294 N 396.794 5.34533 0.988721 0
M  V30 4295 H 400.596 2.93769 0.0878688 0
M  V30 4296 H 398.11 1.62316 -0.0521183 0
M  V30 4297 H 400.107 3.31912 2.5227 0
M  V30 4298 H 398.767 2.14564 2.43705 0
M  V30 4299 H 399.778 5.16971 0.310047 0
M  V30 4300 H 396.455 3.4993 2.27717 0
M  V30 4301 H 397.845 6.71688 -0.168616 0
M  V30 4302 N 400.565 -0.0233959 1.57583 0
M  V30 4303 C 401.475 -1.03907 2.10334 0
M  V30 4304 C 402.491 -1.39257 1.04323 0
M  V30 4305 O 403.667 -1.48462 1.36091 0
M  V30 4306 C 400.732 -2.31938 2.57693 0
M  V30 4307 C 399.793 -2.03117 3.78209 0
M  V30 4308 C 399.026 -3.25043 4.233 0
M  V30 4309 O 399.249 -4.35916 3.67876 0
M  V30 4310 O 398.183 -3.10411 5.15683 0
M  V30 4311 H 402.009 -0.620748 2.97288 0
M  V30 4312 H 399.594 -0.240743 1.47448 0
M  V30 4313 H 401.476 -3.07196 2.88458 0
M  V30 4314 H 400.151 -2.73055 1.73847 0
M  V30 4315 H 399.058 -1.25408 3.52454 0
M  V30 4316 H 400.391 -1.66852 4.63056 0
M  V30 4317 N 402.043 -1.548 -0.295768 0
M  V30 4318 C 403.292 -1.73538 -1.02798 0
M  V30 4319 C 403.605 -0.531159 -1.8825 0
M  V30 4320 O 404.811 -0.600458 -2.64777 0
M  V30 4321 C 403.267 -3.07051 -1.87744 0
M  V30 4322 C 402.875 -4.34968 -1.07269 0
M  V30 4323 C 404.619 -3.35146 -2.60533 0
M  V30 4324 C 402.526 -5.5953 -1.91521 0
M  V30 4325 H 401.456 -0.646794 -0.387522 0
M  V30 4326 H 404.107 -1.81278 -0.284718 0
M  V30 4327 H 402.489 -2.93289 -2.66078 0
M  V30 4328 H 403.663 -4.5958 -0.335117 0
M  V30 4329 H 401.978 -4.13847 -0.460384 0
M  V30 4330 H 404.575 -4.2541 -3.23929 0
M  V30 4331 H 404.918 -2.54255 -3.29636 0
M  V30 4332 H 405.451 -3.49902 -1.89244 0
M  V30 4333 H 402.19 -6.43103 -1.26878 0
M  V30 4334 H 401.71 -5.39096 -2.62937 0
M  V30 4335 H 403.389 -5.96982 -2.49442 0
M  V30 4336 N 403.521 0.559213 -1.47345 0
M  V30 4337 C 404.451 1.67622 -1.62558 0
M  V30 4338 C 405.432 1.63331 -0.475087 0
M  V30 4339 O 406.617 1.80983 -0.704182 0
M  V30 4340 C 403.747 3.0626 -1.63774 0
M  V30 4341 C 402.701 3.25397 -2.7803 0
M  V30 4342 C 402.027 4.64801 -2.64318 0
M  V30 4343 C 403.327 3.10965 -4.19641 0
M  V30 4344 H 405.021 1.55146 -2.56067 0
M  V30 4345 H 402.567 0.744961 -1.23233 0
M  V30 4346 H 404.52 3.84247 -1.73008 0
M  V30 4347 H 403.244 3.1969 -0.66825 0
M  V30 4348 H 401.903 2.49817 -2.68304 0
M  V30 4349 H 401.551 4.75028 -1.65401 0
M  V30 4350 H 401.251 4.78555 -3.40968 0
M  V30 4351 H 402.775 5.44926 -2.75478 0
M  V30 4352 H 404.189 3.78772 -4.30354 0
M  V30 4353 H 402.586 3.36229 -4.97062 0
M  V30 4354 H 403.656 2.07736 -4.38148 0
M  V30 4355 N 404.999 1.35443 0.805782 0
M  V30 4356 C 405.962 1.28301 1.89925 0
M  V30 4357 C 406.962 0.194285 1.59622 0
M  V30 4358 O 408.152 0.448036 1.6834 0
M  V30 4359 C 405.284 0.984997 3.2636 0
M  V30 4360 H 406.477 2.2553 1.97677 0
M  V30 4361 H 404.03 1.19979 1.00173 0
M  V30 4362 H 404.765 0.016603 3.24296 0
M  V30 4363 H 404.55 1.77269 3.4974 0
M  V30 4364 H 406.04 0.960651 4.064 0
M  V30 4365 N 406.477 -1.02803 1.19454 0
M  V30 4366 C 407.725 -1.75869 0.995722 0
M  V30 4367 C 408.046 -1.89138 -0.474543 0
M  V30 4368 O 407.316 -1.42558 -1.34366 0
M  V30 4369 H 405.896 -0.651511 0.365435 0
M  V30 4370 H 408.558 -1.24004 1.50363 0
M  V30 4371 H 407.654 -2.76661 1.44447 0
M  V30 4372 N 407.956 -0.998596 -1.21925 0
M  V30 4373 C 409.203 -0.677663 -1.90824 0
M  V30 4374 C 409.531 0.790905 -1.77693 0
M  V30 4375 O 408.786 1.58817 -1.14349 0
M  V30 4376 C 409.085 -1.03648 -3.42041 0
M  V30 4377 C 408.751 -2.49825 -3.75364 0
M  V30 4378 C 407.413 -2.8977 -3.8417 0
M  V30 4379 C 409.765 -3.44545 -3.91073 0
M  V30 4380 C 407.093 -4.23412 -4.06127 0
M  V30 4381 C 409.445 -4.77853 -4.14535 0
M  V30 4382 C 408.109 -5.17531 -4.21566 0
M  V30 4383 H 407.379 -0.247975 -0.698276 0
M  V30 4384 H 410.026 -1.25584 -1.44571 0
M  V30 4385 H 408.331 -0.376457 -3.89987 0
M  V30 4386 H 410.028 -0.766113 -3.93614 0
M  V30 4387 H 406.618 -2.17866 -3.69097 0
M  V30 4388 H 410.802 -3.14853 -3.83642 0
M  V30 4389 H 406.058 -4.53734 -4.09799 0
M  V30 4390 H 410.232 -5.51189 -4.25633 0
M  V30 4391 H 407.859 -6.21102 -4.38333 0
M  V30 4392 N 409.434 1.37368 -0.772513 0
M  V30 4393 C 410.364 2.32856 -0.173304 0
M  V30 4394 C 411.345 1.55818 0.682262 0
M  V30 4395 O 412.53 1.84052 0.619566 0
M  V30 4396 C 409.66 3.40048 0.706007 0
M  V30 4397 C 408.614 4.27973 -0.0483144 0
M  V30 4398 C 407.94 5.26184 0.950491 0
M  V30 4399 C 409.24 5.07665 -1.22776 0
M  V30 4400 H 410.934 2.83217 -0.971002 0
M  V30 4401 H 408.48 1.3617 -0.468377 0
M  V30 4402 H 410.433 4.05827 1.13501 0
M  V30 4403 H 409.157 2.88214 1.53623 0
M  V30 4404 H 407.816 3.63726 -0.458107 0
M  V30 4405 H 407.464 4.7063 1.77529 0
M  V30 4406 H 407.164 5.85872 0.450314 0
M  V30 4407 H 408.688 5.94838 1.37842 0
M  V30 4408 H 410.102 5.66578 -0.875366 0
M  V30 4409 H 408.499 5.76681 -1.66007 0
M  V30 4410 H 409.569 4.40294 -2.03149 0
M  V30 4411 N 410.912 0.523116 1.48665 0
M  V30 4412 C 412.137 -0.0117284 2.07397 0
M  V30 4413 C 412.562 -1.28031 1.37803 0
M  V30 4414 O 411.92 -1.75836 0.441762 0
M  V30 4415 C 411.968 -0.225786 3.59892 0
M  V30 4416 O 411.072 -1.29592 3.91509 0
M  V30 4417 H 410.413 0.0360673 0.66302 0
M  V30 4418 H 412.943 0.729066 1.9117 0
M  V30 4419 H 412.953 -0.450552 4.05505 0
M  V30 4420 H 411.628 0.700944 4.09951 0
M  V30 4421 H 410.205 -1.05436 3.57684 0
M  V30 4422 N 412.39 -1.55475 0.257931 0
M  V30 4423 C 413.32 -2.24815 -0.630912 0
M  V30 4424 C 414.301 -1.23224 -1.17259 0
M  V30 4425 O 415.486 -1.51904 -1.20991 0
M  V30 4426 C 412.616 -2.95609 -1.82298 0
M  V30 4427 C 411.57 -4.03982 -1.41359 0
M  V30 4428 C 410.896 -4.6226 -2.68738 0
M  V30 4429 C 412.196 -5.19109 -0.57648 0
M  V30 4430 H 413.89 -2.99354 -0.0526878 0
M  V30 4431 H 411.436 -1.4398 -0.023901 0
M  V30 4432 H 413.389 -3.42822 -2.45054 0
M  V30 4433 H 412.113 -2.18577 -2.42676 0
M  V30 4434 H 410.772 -3.57555 -0.809324 0
M  V30 4435 H 410.42 -3.81915 -3.27338 0
M  V30 4436 H 410.12 -5.35424 -2.42065 0
M  V30 4437 H 411.644 -5.12212 -3.32372 0
M  V30 4438 H 413.058 -5.62479 -1.10861 0
M  V30 4439 H 411.455 -5.98729 -0.405351 0
M  V30 4440 H 412.525 -4.83174 0.408776 0
M  V30 4441 N 413.868 0.0150385 -1.57593 0
M  V30 4442 C 415.117 0.702115 -1.89085 0
M  V30 4443 C 415.43 1.75764 -0.858277 0
M  V30 4444 O 416.636 2.49829 -1.0629 0
M  V30 4445 C 415.092 1.29992 -3.35604 0
M  V30 4446 C 414.7 0.280007 -4.47124 0
M  V30 4447 C 416.444 1.96606 -3.76227 0
M  V30 4448 C 414.351 0.886949 -5.84711 0
M  V30 4449 H 413.281 0.265997 -0.705522 0
M  V30 4450 H 415.932 -0.0430408 -1.8345 0
M  V30 4451 H 414.314 2.09525 -3.36029 0
M  V30 4452 H 415.488 -0.489631 -4.58191 0
M  V30 4453 H 413.803 -0.284835 -4.15425 0
M  V30 4454 H 416.4 2.42893 -4.76347 0
M  V30 4455 H 416.743 2.79024 -3.08952 0
M  V30 4456 H 417.276 1.23828 -3.78036 0
M  V30 4457 H 414.015 0.101876 -6.55421 0
M  V30 4458 H 413.535 1.6261 -5.77337 0
M  V30 4459 H 415.214 1.39011 -6.3189 0
M  V30 4460 N 415.346 1.54954 0.287554 0
M  V30 4461 C 416.757 1.65732 0.859634 0
M  V30 4462 C 417.108 0.574767 1.87592 0
M  V30 4463 O 416.233 -0.286299 2.14498 0
M  V30 4464 C 416.828 3.00438 1.56597 0
M  V30 4465 C 415.387 3.13292 2.08627 0
M  V30 4466 C 414.534 2.61473 0.923416 0
M  V30 4467 H 417.485 1.5857 0.0642338 0
M  V30 4468 H 417.506 2.92613 2.43224 0
M  V30 4469 H 417.018 3.79207 0.826053 0
M  V30 4470 H 415.119 2.39268 2.85625 0
M  V30 4471 H 415.232 4.19647 2.31157 0
M  V30 4472 H 413.596 2.18264 1.31275 0
M  V30 4473 H 414.379 3.42733 0.197241 0
M  V30 4474 N 416.824 -0.551391 1.4764 0
M  V30 4475 C 417.787 -1.64007 1.60107 0
M  V30 4476 C 418.787 -1.53601 0.47576 0
M  V30 4477 O 419.977 -1.57655 0.740988 0
M  V30 4478 C 417.109 -3.03569 1.55108 0
M  V30 4479 H 418.302 -1.543 2.57161 0
M  V30 4480 H 415.855 -0.771776 1.35917 0
M  V30 4481 H 416.59 -3.18804 0.594519 0
M  V30 4482 H 416.375 -3.12532 2.36783 0
M  V30 4483 H 417.865 -3.82762 1.66982 0
M  V30 4484 N 418.302 -1.35869 -0.798587 0
M  V30 4485 C 419.548 -1.30788 -1.55775 0
M  V30 4486 C 419.903 0.114558 -1.92059 0
M  V30 4487 O 419.196 1.06691 -1.59147 0
M  V30 4488 C 419.39 -2.1556 -2.85077 0
M  V30 4489 C 419.219 -3.65904 -2.61428 0
M  V30 4490 C 417.989 -4.35112 -2.56915 0
M  V30 4491 C 420.187 -4.59375 -2.31255 0
M  V30 4492 N 418.169 -5.71155 -2.25068 0
M  V30 4493 C 419.54 -5.83598 -2.09316 0
M  V30 4494 C 421.595 -4.48035 -2.17185 0
M  V30 4495 C 420.298 -6.97755 -1.74731 0
M  V30 4496 C 422.324 -5.62049 -1.83998 0
M  V30 4497 C 421.686 -6.85305 -1.629 0
M  V30 4498 H 417.785 -0.533855 -0.571422 0
M  V30 4499 H 420.369 -1.7083 -0.934079 0
M  V30 4500 H 418.54 -1.77776 -3.45326 0
M  V30 4501 H 420.272 -2.01938 -3.50718 0
M  V30 4502 H 417.027 -3.87812 -2.71843 0
M  V30 4503 H 417.451 -6.42978 -2.11916 0
M  V30 4504 H 422.093 -3.53338 -2.3219 0
M  V30 4505 H 419.811 -7.92411 -1.58464 0
M  V30 4506 H 423.397 -5.55232 -1.73808 0
M  V30 4507 H 422.277 -7.72034 -1.37596 0
M  V30 4508 N 419.78 1.02168 -1.19998 0
M  V30 4509 C 420.743 2.08765 -0.94604 0
M  V30 4510 C 421.743 1.60618 0.0763846 0
M  V30 4511 O 422.933 1.73472 -0.159135 0
M  V30 4512 C 420.065 3.38262 -0.423255 0
M  V30 4513 H 421.258 2.32726 -1.89153 0
M  V30 4514 H 418.811 1.1889 -1.01464 0
M  V30 4515 H 419.546 3.19974 0.527938 0
M  V30 4516 H 419.331 3.74532 -1.16053 0
M  V30 4517 H 420.821 4.16759 -0.264911 0
M  V30 4518 N 421.258 1.00505 1.21394 0
M  V30 4519 C 422.505 0.687774 1.90462 0
M  V30 4520 C 422.833 -0.78147 1.7811 0
M  V30 4521 O 422.088 -1.58208 1.1519 0
M  V30 4522 C 422.387 1.0546 3.41486 0
M  V30 4523 C 422.053 2.51812 3.74034 0
M  V30 4524 C 420.715 2.91804 3.82628 0
M  V30 4525 C 423.067 3.46614 3.8924 0
M  V30 4526 C 420.395 4.2556 4.03876 0
M  V30 4527 C 422.747 4.80044 4.11995 0
M  V30 4528 C 421.411 5.19759 4.18816 0
M  V30 4529 H 420.681 0.251674 0.696951 0
M  V30 4530 H 423.328 1.26349 1.43903 0
M  V30 4531 H 421.633 0.397133 3.89782 0
M  V30 4532 H 423.33 0.786976 3.93202 0
M  V30 4533 H 419.92 2.1982 3.67936 0
M  V30 4534 H 424.104 3.16883 3.81967 0
M  V30 4535 H 419.36 4.55901 4.07387 0
M  V30 4536 H 423.534 5.53439 4.22704 0
M  V30 4537 H 421.161 6.23418 4.35033 0
M  V30 4538 N 422.737 -1.36956 0.779787 0
M  V30 4539 C 423.967 -2.03459 0.358877 0
M  V30 4540 C 424.375 -1.58939 -1.02641 0
M  V30 4541 O 423.718 -0.769777 -1.66794 0
M  V30 4542 C 423.78 -3.5796 0.332393 0
M  V30 4543 C 423.444 -4.25644 1.66362 0
M  V30 4544 C 424.441 -4.49205 2.61746 0
M  V30 4545 C 422.126 -4.63313 1.94027 0
M  V30 4546 C 424.12 -5.09503 3.82996 0
M  V30 4547 C 421.807 -5.2333 3.15546 0
M  V30 4548 C 422.805 -5.46363 4.0985 0
M  V30 4549 O 422.493 -6.05122 5.29228 0
M  V30 4550 H 422.225 -0.659767 0.147254 0
M  V30 4551 H 424.779 -1.76111 1.05708 0
M  V30 4552 H 423.009 -3.84388 -0.422237 0
M  V30 4553 H 424.698 -4.05852 -0.0625389 0
M  V30 4554 H 425.464 -4.20508 2.41657 0
M  V30 4555 H 421.343 -4.44715 1.21448 0
M  V30 4556 H 424.887 -5.27397 4.56617 0
M  V30 4557 H 420.784 -5.51451 3.35517 0
M  V30 4558 H 421.552 -6.23595 5.30161 0
M  V30 4559 N 424.215 -0.530993 -1.48385 0
M  V30 4560 C 425.44 0.000729535 -2.074 0
M  V30 4561 C 425.865 1.27298 -1.3848 0
M  V30 4562 O 425.223 1.75599 -0.451081 0
M  V30 4563 C 425.271 0.206697 -3.60007 0
M  V30 4564 O 424.375 1.27514 -3.92191 0
M  V30 4565 H 423.716 -0.039583 -0.662819 0
M  V30 4566 H 426.246 -0.739194 -1.9078 0
M  V30 4567 H 426.256 0.42904 -4.05738 0
M  V30 4568 H 424.931 -0.722675 -4.09573 0
M  V30 4569 H 423.508 1.03537 -3.58238 0
M  V30 4570 N 425.693 1.55336 -0.266172 0
M  V30 4571 C 426.941 1.99003 0.35246 0
M  V30 4572 C 427.262 1.15591 1.57047 0
M  V30 4573 O 426.532 0.243268 1.94384 0
M  V30 4574 H 425.112 0.735025 0.133217 0
M  V30 4575 H 427.774 1.91367 -0.369434 0
M  V30 4576 H 426.87 3.05289 0.648453 0
M  V30 4577 N 427.171 -0.0066808 1.57599 0
M  V30 4578 C 428.134 -0.985035 2.06953 0
M  V30 4579 C 429.134 -1.27663 0.977687 0
M  V30 4580 O 430.324 -1.22293 1.24057 0
M  V30 4581 C 427.456 -2.3118 2.50536 0
M  V30 4582 H 428.649 -0.558255 2.94658 0
M  V30 4583 H 426.202 -0.254011 1.54222 0
M  V30 4584 H 426.937 -2.78561 1.66054 0
M  V30 4585 H 426.722 -2.11338 3.3027 0
M  V30 4586 H 428.212 -3.01377 2.8907 0
M  V30 4587 N 428.649 -1.55105 -0.279332 0
M  V30 4588 C 429.896 -1.75412 -1.01177 0
M  V30 4589 C 430.224 -0.551728 -1.86511 0
M  V30 4590 O 429.479 0.465919 -1.90073 0
M  V30 4591 C 429.778 -3.0086 -1.92919 0
M  V30 4592 C 429.444 -4.33689 -1.23387 0
M  V30 4593 C 428.106 -4.69792 -1.04159 0
M  V30 4594 C 430.458 -5.15941 -0.738562 0
M  V30 4595 C 427.786 -5.85707 -0.341166 0
M  V30 4596 C 430.138 -6.32579 -0.0517636 0
M  V30 4597 C 428.802 -6.67326 0.152292 0
M  V30 4598 H 428.072 -0.641879 -0.370233 0
M  V30 4599 H 430.719 -1.89373 -0.284627 0
M  V30 4600 H 429.024 -2.81773 -2.72234 0
M  V30 4601 H 430.721 -3.13768 -2.49701 0
M  V30 4602 H 427.311 -4.05309 -1.39364 0
M  V30 4603 H 431.495 -4.8853 -0.874764 0
M  V30 4604 H 426.751 -6.11157 -0.172287 0
M  V30 4605 H 430.925 -6.9557 0.339828 0
M  V30 4606 H 428.552 -7.56998 0.697014 0
M  V30 4607 N 430.127 0.543554 -1.4793 0
M  V30 4608 C 431.059 1.665 -1.57513 0
M  V30 4609 C 432.072 1.56156 -0.460333 0
M  V30 4610 O 433.261 1.62865 -0.730573 0
M  V30 4611 C 430.361 3.05063 -1.47614 0
M  V30 4612 C 429.534 3.41024 -2.739 0
M  V30 4613 C 428.593 4.58809 -2.57645 0
M  V30 4614 O 427.619 4.62707 -3.31498 0
M  V30 4615 N 428.821 5.56149 -1.66368 0
M  V30 4616 H 431.586 1.5872 -2.5422 0
M  V30 4617 H 429.147 0.730517 -1.44482 0
M  V30 4618 H 431.139 3.81712 -1.34455 0
M  V30 4619 H 429.709 3.06994 -0.589359 0
M  V30 4620 H 428.929 2.53687 -3.01723 0
M  V30 4621 H 430.217 3.61831 -3.57709 0
M  V30 4622 H 429.615 5.55767 -1.05543 0
M  V30 4623 H 428.172 6.32071 -1.59154 0
M  V30 4624 N 431.605 1.3629 0.791371 0
M  V30 4625 C 433.021 1.16661 1.08914 0
M  V30 4626 C 433.221 -0.0106266 2.01497 0
M  V30 4627 O 432.277 -0.676596 2.43266 0
M  V30 4628 C 433.59 2.47656 1.70549 0
M  V30 4629 C 435.138 2.54002 1.82899 0
M  V30 4630 C 435.613 3.85078 2.47949 0
M  V30 4631 N 437.104 3.86413 2.5542 0
M  V30 4632 C 437.839 4.84572 3.06557 0
M  V30 4633 N 437.335 5.93124 3.58016 0
M  V30 4634 N 439.128 4.71994 3.05251 0
M  V30 4635 H 431.279 2.11668 0.176238 0
M  V30 4636 H 433.542 0.937486 0.140796 0
M  V30 4637 H 433.248 3.34059 1.09989 0
M  V30 4638 H 433.122 2.63319 2.70079 0
M  V30 4639 H 435.509 1.68018 2.42598 0
M  V30 4640 H 435.59 2.42239 0.821808 0
M  V30 4641 H 435.234 4.71467 1.88895 0
M  V30 4642 H 435.164 3.94135 3.49235 0
M  V30 4643 H 437.655 3.07988 2.18979 0
M  V30 4644 H 437.968 6.63999 3.95381 0
M  V30 4645 H 436.313 5.96796 3.56173 0
M  V30 4646 H 439.504 3.86321 2.64336 0
M  V30 4647 H 439.677 5.48653 3.44796 0
M  V30 4648 N 433.083 -1.0153 1.20538 0
M  V30 4649 C 434.013 -2.11972 0.979295 0
M  V30 4650 C 434.994 -1.6985 -0.0921787 0
M  V30 4651 O 436.179 -1.94089 0.0655932 0
M  V30 4652 C 433.309 -3.43201 0.531984 0
M  V30 4653 C 432.263 -3.9907 1.54685 0
M  V30 4654 C 431.589 -5.26082 0.956127 0
M  V30 4655 C 432.889 -4.32313 2.93092 0
M  V30 4656 H 434.583 -2.31143 1.90298 0
M  V30 4657 H 432.129 -1.11079 0.916372 0
M  V30 4658 H 434.082 -4.1985 0.361044 0
M  V30 4659 H 432.806 -3.23792 -0.427327 0
M  V30 4660 H 431.465 -3.2453 1.70517 0
M  V30 4661 H 431.113 -5.02999 -0.0111538 0
M  V30 4662 H 430.813 -5.64426 1.63393 0
M  V30 4663 H 432.337 -6.05386 0.796284 0
M  V30 4664 H 433.751 -4.99845 2.80763 0
M  V30 4665 H 432.148 -4.81774 3.57791 0
M  V30 4666 H 433.218 -3.41025 3.44717 0
M  V30 4667 N 434.561 -1.01147 -1.20859 0
M  V30 4668 C 435.491 -0.597663 -2.25722 0
M  V30 4669 C 436.472 0.384744 -1.65692 0
M  V30 4670 O 437.657 0.271303 -1.92296 0
M  V30 4671 C 434.787 0.0700149 -3.47229 0
M  V30 4672 C 433.741 -0.832843 -4.19819 0
M  V30 4673 C 433.067 -0.0312202 -5.34691 0
M  V30 4674 C 434.367 -2.1385 -4.76514 0
M  V30 4675 H 436.061 -1.47423 -2.60589 0
M  V30 4676 H 433.607 -0.710301 -1.25263 0
M  V30 4677 H 435.56 0.37103 -4.19763 0
M  V30 4678 H 434.284 0.981259 -3.11511 0
M  V30 4679 H 432.943 -1.11778 -3.49144 0
M  V30 4680 H 432.591 0.881515 -4.95215 0
M  V30 4681 H 432.291 -0.632434 -5.84187 0
M  V30 4682 H 433.815 0.26346 -6.10031 0
M  V30 4683 H 435.229 -1.9002 -5.40893 0
M  V30 4684 H 433.626 -2.69012 -5.36426 0
M  V30 4685 H 434.696 -2.80495 -3.95538 0
M  V30 4686 N 436.039 1.36541 -0.78704 0
M  V30 4687 C 436.969 2.32659 -0.197992 0
M  V30 4688 C 437.95 1.56533 0.665697 0
M  V30 4689 O 439.135 1.84698 0.60001 0
M  V30 4690 C 436.265 3.40778 0.669901 0
M  V30 4691 C 435.219 4.27897 -0.0937039 0
M  V30 4692 C 434.545 5.27163 0.894629 0
M  V30 4693 C 435.845 5.06334 -1.28154 0
M  V30 4694 H 437.539 2.82171 -1.00099 0
M  V30 4695 H 435.085 1.35665 -0.482793 0
M  V30 4696 H 437.038 4.07008 1.09191 0
M  V30 4697 H 435.762 2.89827 1.50558 0
M  V30 4698 H 434.421 3.6322 -0.49666 0
M  V30 4699 H 434.069 4.72486 1.72527 0
M  V30 4700 H 433.769 5.86317 0.388149 0
M  V30 4701 H 435.293 5.96266 1.31525 0
M  V30 4702 H 436.707 5.65617 -0.93541 0
M  V30 4703 H 435.104 5.74888 -1.72115 0
M  V30 4704 H 436.174 4.38114 -2.07807 0
M  V30 4705 N 437.518 0.538854 1.48102 0
M  V30 4706 C 438.746 0.0123136 2.06896 0
M  V30 4707 C 439.161 -1.27312 1.39417 0
M  V30 4708 O 438.518 -1.75949 0.484582 0
M  V30 4709 C 438.569 -0.206118 3.60912 0
M  V30 4710 O 438.29 1.0284 4.25859 0
M  V30 4711 C 439.791 -0.772033 4.36526 0
M  V30 4712 H 437.011 0.0375239 0.66995 0
M  V30 4713 H 439.555 0.747032 1.90367 0
M  V30 4714 H 437.71 -0.89091 3.77017 0
M  V30 4715 H 438.124 0.814654 5.18135 0
M  V30 4716 H 439.598 -0.874251 5.45033 0
M  V30 4717 H 440.075 -1.77904 4.01555 0
M  V30 4718 H 440.681 -0.123526 4.25121 0
M  V30 4719 N 438.996 -1.55193 0.274407 0
M  V30 4720 C 439.946 -2.19184 -0.627882 0
M  V30 4721 C 440.93 -1.15625 -1.11892 0
M  V30 4722 O 442.122 -1.41441 -1.06411 0
M  V30 4723 C 439.251 -2.91591 -1.81189 0
M  V30 4724 C 438.337 -4.02438 -1.33807 0
M  V30 4725 N 438.728 -5.0246 -0.580349 0
M  V30 4726 C 437.026 -4.15496 -1.62109 0
M  V30 4727 C 437.727 -5.80756 -0.331344 0
M  V30 4728 N 436.703 -5.36038 -0.903556 0
M  V30 4729 H 440.505 -2.93871 -0.0411216 0
M  V30 4730 H 438.019 -1.62213 0.0779348 0
M  V30 4731 H 440.016 -3.35883 -2.46957 0
M  V30 4732 H 438.676 -2.18414 -2.40261 0
M  V30 4733 H 439.687 -5.17399 -0.227762 0
M  V30 4734 H 436.364 -3.53509 -2.22121 0
M  V30 4735 H 437.754 -6.71335 0.275454 0
M  V30 4736 N 440.474 -0.00167713 -1.576 0
M  V30 4737 C 441.704 0.692754 -1.94639 0
M  V30 4738 C 442.112 1.67744 -0.87513 0
M  V30 4739 O 441.455 1.8305 0.154382 0
M  V30 4740 C 441.517 1.47881 -3.27676 0
M  V30 4741 C 441.181 0.655518 -4.52274 0
M  V30 4742 C 442.178 -0.0575214 -5.19868 0
M  V30 4743 C 439.863 0.600994 -4.98692 0
M  V30 4744 C 441.857 -0.814052 -6.3218 0
M  V30 4745 C 439.544 -0.15926 -6.10892 0
M  V30 4746 C 440.542 -0.865515 -6.77494 0
M  V30 4747 O 440.23 -1.61336 -7.87544 0
M  V30 4748 H 439.962 0.197792 -0.646417 0
M  V30 4749 H 442.516 -0.049423 -2.05341 0
M  V30 4750 H 440.746 2.2655 -3.13388 0
M  V30 4751 H 442.435 2.05874 -3.49816 0
M  V30 4752 H 443.201 -0.0245611 -4.84994 0
M  V30 4753 H 439.08 1.14025 -4.46676 0
M  V30 4754 H 442.624 -1.36584 -6.84098 0
M  V30 4755 H 438.521 -0.194035 -6.45208 0
M  V30 4756 H 439.289 -1.53025 -8.04068 0
M  V30 4757 N 441.952 1.55251 0.271103 0
M  V30 4758 C 443.198 1.76207 1.00394 0
M  V30 4759 C 443.531 0.562604 1.85872 0
M  V30 4760 O 442.806 -0.439785 1.89463 0
M  V30 4761 C 443.089 3.06828 1.8849 0
M  V30 4762 C 442.942 4.37134 1.05992 0
M  V30 4763 C 444.261 3.33503 2.87165 0
M  V30 4764 H 441.38 0.641086 0.363562 0
M  V30 4765 H 444.022 1.87982 0.276189 0
M  V30 4766 H 442.172 2.96921 2.5054 0
M  V30 4767 H 443.844 4.59001 0.459978 0
M  V30 4768 H 442.087 4.32275 0.363443 0
M  V30 4769 H 442.758 5.2486 1.70955 0
M  V30 4770 H 445.234 3.43215 2.3525 0
M  V30 4771 H 444.11 4.2616 3.45946 0
M  V30 4772 H 444.371 2.53235 3.62387 0
M  V30 4773 N 443.43 -0.535701 1.48216 0
M  V30 4774 C 444.393 -1.623 1.61838 0
M  V30 4775 C 445.393 -1.53087 0.492024 0
M  V30 4776 O 446.583 -1.5686 0.757668 0
M  V30 4777 C 443.715 -3.01907 1.58319 0
M  V30 4778 H 444.908 -1.51564 2.58783 0
M  V30 4779 H 442.461 -0.757317 1.36727 0
M  V30 4780 H 443.196 -3.18155 0.628299 0
M  V30 4781 H 442.981 -3.10003 2.40085 0
M  V30 4782 H 444.471 -3.80969 1.71033 0
M  V30 4783 N 444.908 -1.36708 -0.784132 0
M  V30 4784 C 446.138 -1.34203 -1.57077 0
M  V30 4785 C 446.546 0.0774945 -1.89041 0
M  V30 4786 O 445.889 1.04628 -1.50992 0
M  V30 4787 C 445.951 -2.10351 -2.91535 0
M  V30 4788 C 445.615 -3.59405 -2.82272 0
M  V30 4789 C 446.612 -4.53545 -2.54151 0
M  V30 4790 C 444.297 -4.02362 -3.00683 0
M  V30 4791 C 446.291 -5.8862 -2.44551 0
M  V30 4792 C 443.978 -5.37526 -2.90704 0
M  V30 4793 C 444.976 -6.30468 -2.62677 0
M  V30 4794 O 444.664 -7.63149 -2.52702 0
M  V30 4795 H 444.396 -0.461791 -0.493685 0
M  V30 4796 H 446.95 -1.80475 -0.980712 0
M  V30 4797 H 445.18 -1.5875 -3.52612 0
M  V30 4798 H 446.869 -2.00636 -3.52845 0
M  V30 4799 H 447.635 -4.21669 -2.39625 0
M  V30 4800 H 443.514 -3.30389 -3.21503 0
M  V30 4801 H 447.058 -6.61133 -2.22596 0
M  V30 4802 H 442.955 -5.69008 -3.04795 0
M  V30 4803 H 443.723 -7.73331 -2.68144 0
M  V30 4804 N 446.386 1.0089 -1.21074 0
M  V30 4805 C 447.316 2.1145 -0.990523 0
M  V30 4806 C 448.297 1.69897 0.0831699 0
M  V30 4807 O 449.482 1.94052 -0.0758853 0
M  V30 4808 C 446.612 3.42914 -0.550177 0
M  V30 4809 C 445.566 3.98244 -1.56799 0
M  V30 4810 C 444.892 5.25568 -0.984013 0
M  V30 4811 C 446.192 4.30752 -2.95381 0
M  V30 4812 H 447.886 2.3013 -1.91521 0
M  V30 4813 H 445.432 1.10592 -0.92225 0
M  V30 4814 H 447.385 4.19653 -0.383305 0
M  V30 4815 H 446.109 3.24014 0.41015 0
M  V30 4816 H 444.768 3.23621 -1.72236 0
M  V30 4817 H 444.416 5.02998 -0.0155216 0
M  V30 4818 H 444.116 5.63551 -1.66384 0
M  V30 4819 H 445.64 6.04955 -0.828378 0
M  V30 4820 H 447.054 4.98349 -2.8341 0
M  V30 4821 H 445.451 4.79869 -3.60341 0
M  V30 4822 H 446.521 3.39192 -3.46521 0
M  V30 4823 N 447.864 1.01787 1.20321 0
M  V30 4824 C 448.811 0.589197 2.23153 0
M  V30 4825 C 449.781 -0.391367 1.61423 0
M  V30 4826 O 450.966 -0.290518 1.88575 0
M  V30 4827 C 448.106 -0.0650747 3.45039 0
M  V30 4828 C 447.219 0.960207 4.21194 0
M  V30 4829 C 446.354 0.276854 5.30478 0
M  V30 4830 C 445.393 1.2888 5.98378 0
M  V30 4831 N 444.53 0.632031 6.99249 0
M  V30 4832 H 449.37 1.47071 2.59179 0
M  V30 4833 H 446.907 0.736192 1.27352 0
M  V30 4834 H 448.865 -0.461552 4.14639 0
M  V30 4835 H 447.495 -0.910233 3.09701 0
M  V30 4836 H 446.547 1.47484 3.50646 0
M  V30 4837 H 447.859 1.72977 4.67847 0
M  V30 4838 H 447.013 -0.175056 6.06447 0
M  V30 4839 H 445.752 -0.525004 4.84866 0
M  V30 4840 H 444.757 1.75109 5.21169 0
M  V30 4841 H 445.982 2.09196 6.46076 0
M  V30 4842 H 443.928 -0.149935 6.55829 0
M  V30 4843 H 443.845 1.33964 7.44036 0
M  V30 4844 H 445.113 0.203755 7.79234 0
M  V30 4845 N 449.342 -1.36122 0.79427 0
M  V30 4846 C 450.272 -2.32551 0.210328 0
M  V30 4847 C 451.253 -1.56884 -0.657386 0
M  V30 4848 O 452.438 -1.85014 -0.590207 0
M  V30 4849 C 449.568 -3.41128 -0.651819 0
M  V30 4850 C 448.522 -4.27842 0.116395 0
M  V30 4851 C 447.848 -5.2763 -0.86666 0
M  V30 4852 C 449.148 -5.05647 1.30837 0
M  V30 4853 H 450.842 -2.81636 1.01594 0
M  V30 4854 H 448.388 -1.35407 0.489981 0
M  V30 4855 H 450.341 -4.07581 -1.07031 0
M  V30 4856 H 449.065 -2.90622 -1.49019 0
M  V30 4857 H 447.724 -3.62952 0.515915 0
M  V30 4858 H 447.372 -4.73395 -1.70019 0
M  V30 4859 H 447.072 -5.86514 -0.35705 0
M  V30 4860 H 448.596 -5.96955 -1.28361 0
M  V30 4861 H 450.01 -5.65113 0.965393 0
M  V30 4862 H 448.407 -5.73967 1.75161 0
M  V30 4863 H 449.477 -4.37006 2.10128 0
M  V30 4864 N 450.82 -0.546701 -1.47814 0
M  V30 4865 C 451.768 0.220048 -2.31557 0
M  V30 4866 C 452.762 0.919472 -1.42275 0
M  V30 4867 O 453.968 0.841953 -1.59095 0
M  V30 4868 H 450.343 0.0898334 -0.746615 0
M  V30 4869 H 452.314 -0.505589 -2.94086 0
M  V30 4870 C 451.063 1.24353 -3.24702 0
M  V30 4871 H 450.386 0.714758 -3.93359 0
M  V30 4872 H 451.826 1.75112 -3.8615 0
M  V30 4873 C 450.285 2.28593 -2.47481 0
M  V30 4874 O 450.815 3.35334 -2.21165 0
M  V30 4875 N 449.021 2.02244 -2.08676 0
M  V30 4876 H 448.568 1.15455 -2.30278 0
M  V30 4877 H 448.526 2.72207 -1.57323 0
M  V30 4878 N 452.299 1.55045 -0.282633 0
M  V30 4879 C 453.527 2.04168 0.33512 0
M  V30 4880 C 453.942 1.16071 1.48906 0
M  V30 4881 O 453.299 0.182391 1.81586 0
M  V30 4882 C 453.35 3.52332 0.808957 0
M  V30 4883 O 453.071 4.37078 -0.299038 0
M  V30 4884 C 454.572 4.17375 1.49375 0
M  V30 4885 H 451.792 0.666744 0.0754543 0
M  V30 4886 H 454.336 2.00205 -0.416918 0
M  V30 4887 H 452.491 3.56715 1.51106 0
M  V30 4888 H 452.905 5.24458 0.0665514 0
M  V30 4889 H 454.379 5.22627 1.77664 0
M  V30 4890 H 454.856 3.65999 2.42778 0
M  V30 4891 H 455.462 4.17016 0.835305 0
M  V30 4892 N 453.777 0.010035 1.57597 0
M  V30 4893 C 454.724 -0.978122 2.09049 0
M  V30 4894 C 455.694 -1.33509 0.988159 0
M  V30 4895 O 456.879 -1.43172 1.26121 0
M  V30 4896 C 454.019 -2.26158 2.60666 0
M  V30 4897 C 453.132 -1.96275 3.84838 0
M  V30 4898 C 452.267 -3.18776 4.24918 0
M  V30 4899 C 451.306 -2.84625 5.41899 0
M  V30 4900 N 450.443 -3.99693 5.77226 0
M  V30 4901 H 455.283 -0.532431 2.93205 0
M  V30 4902 H 452.82 -0.251234 1.44939 0
M  V30 4903 H 454.778 -3.01202 2.88675 0
M  V30 4904 H 453.408 -2.68378 1.79369 0
M  V30 4905 H 452.46 -1.11555 3.63675 0
M  V30 4906 H 453.772 -1.67111 4.69974 0
M  V30 4907 H 452.926 -4.02157 4.54262 0
M  V30 4908 H 451.665 -3.51087 3.38511 0
M  V30 4909 H 450.67 -1.99653 5.12268 0
M  V30 4910 H 451.895 -2.53551 6.29991 0
M  V30 4911 H 449.841 -4.31882 4.93776 0
M  V30 4912 H 449.758 -3.74087 6.56959 0
M  V30 4913 H 451.026 -4.83834 6.11167 0
M  V30 4914 N 455.255 -1.55392 -0.262866 0
M  V30 4915 C 456.501 -1.76737 -0.99458 0
M  V30 4916 C 456.834 -0.572453 -1.85571 0
M  V30 4917 O 456.109 0.429732 -1.89693 0
M  V30 4918 C 456.392 -3.07824 -1.8686 0
M  V30 4919 C 456.245 -4.3769 -1.03672 0
M  V30 4920 C 457.564 -3.35021 -2.85393 0
M  V30 4921 H 454.683 -0.643005 -0.360157 0
M  V30 4922 H 457.325 -1.88126 -0.266216 0
M  V30 4923 H 455.475 -2.98245 -2.48962 0
M  V30 4924 H 457.147 -4.59238 -0.43563 0
M  V30 4925 H 455.39 -4.32461 -0.340513 0
M  V30 4926 H 456.061 -5.25759 -1.6817 0
M  V30 4927 H 458.537 -3.44458 -2.33426 0
M  V30 4928 H 457.413 -4.27989 -3.43681 0
M  V30 4929 H 457.674 -2.55153 -3.61039 0
M  V30 4930 N 456.733 0.527833 -1.48498 0
M  V30 4931 C 458.149 0.856571 -1.34666 0
M  V30 4932 C 458.349 1.98271 -0.35931 0
M  V30 4933 O 457.405 2.51551 0.218703 0
M  V30 4934 C 458.718 1.22207 -2.74747 0
M  V30 4935 C 460.266 1.33183 -2.83251 0
M  V30 4936 C 460.741 1.73075 -4.24039 0
M  V30 4937 N 462.232 1.80174 -4.26722 0
M  V30 4938 C 462.967 2.1243 -5.32598 0
M  V30 4939 N 462.463 2.43096 -6.4875 0
M  V30 4940 N 464.256 2.13454 -5.19994 0
M  V30 4941 H 456.407 -0.215174 -2.11307 0
M  V30 4942 H 458.67 -0.0336281 -0.947403 0
M  V30 4943 H 458.376 0.468195 -3.4857 0
M  V30 4944 H 458.25 2.17173 -3.08409 0
M  V30 4945 H 460.637 2.07647 -2.09683 0
M  V30 4946 H 460.718 0.363333 -2.53206 0
M  V30 4947 H 460.362 0.991712 -4.98124 0
M  V30 4948 H 460.292 2.70979 -4.51529 0
M  V30 4949 H 462.783 1.58744 -3.42942 0
M  V30 4950 H 463.096 2.6682 -7.25277 0
M  V30 4951 H 461.441 2.40611 -6.52021 0
M  V30 4952 H 464.632 1.88956 -4.28268 0
M  V30 4953 H 464.805 2.38261 -6.02608 0
M  V30 4954 O 458.25 1.46817 0.672841 0
M  V30 4955 H 458.941 1.41236 1.3256 0
M  V30 END ATOM
M  V30 BEGIN BOND
M  V30 END BOND
M  V30 END CTAB
M  END
$$$$
