drugbank_target|Q8IVH8 Mitogen-activated protein kinase kinase kinase kinase 3 (DB12010)
 OpenBabel12092121163D

  0  0  0     0  0            999 V3000
M  V30 BEGIN CTAB
M  V30 COUNTS 14187 14369 0 0 0
M  V30 BEGIN ATOM
M  V30 1 H -0.908 1.98254 -0.117106 0
M  V30 2 N 0 1.576 0 0
M  V30 3 C 0.933 2.03868 1.02534 0
M  V30 4 C 1.911 0.928543 1.3348 0
M  V30 5 O 3.095 1.19667 1.45644 0
M  V30 6 C 0.222 2.43627 2.35294 0
M  V30 7 C -0.732 3.65373 2.2001 0
M  V30 8 S 0.101 5.13292 1.52614 0
M  V30 9 C 1.257 5.56322 2.86805 0
M  V30 10 H 1.49 2.90518 0.631377 0
M  V30 11 H -0.977 1.52953 0.210867 0
M  V30 12 H 0.981 2.67203 3.11629 0
M  V30 13 H -0.358 1.57376 2.7183 0
M  V30 14 H -1.165 3.90944 3.18086 0
M  V30 15 H -1.563 3.418 1.51819 0
M  V30 16 H 0.729 5.58782 3.83104 0
M  V30 17 H 1.672 6.56266 2.65933 0
M  V30 18 H 2.08 4.83886 2.90714 0
M  V30 19 N 1.4781 -0.272755 1.55222 0
M  V30 20 C 2.4261 -1.35705 1.88909 0
M  V30 21 C 3.4201 -1.5112 0.765456 0
M  V30 22 O 4.6261 -1.52901 0.949802 0
M  V30 23 H 1.0011 -0.453868 0.59959 0
M  V30 24 H 2.9721 -1.04544 2.79487 0
M  V30 25 C 1.7211 -2.71049 2.17779 0
M  V30 26 H 1.0441 -2.59979 3.03728 0
M  V30 27 H 2.4841 -3.45858 2.45272 0
M  V30 28 C 0.9431 -3.22165 0.985473 0
M  V30 29 O 1.4731 -4.01096 0.220233 0
M  V30 30 N -0.3209 -2.7985 0.783108 0
M  V30 31 H -0.7739 -2.15775 1.40708 0
M  V30 32 H -0.8159 -3.14397 -0.0130392 0
M  V30 33 N 2.9562 -1.48159 -0.537278 0
M  V30 34 C 4.3672 -1.49429 -1.11928 0
M  V30 35 C 4.7182 -0.26 -1.9447 0
M  V30 36 O 3.8432 0.633489 -2.0692 0
M  V30 37 C 4.4382 -2.70758 -2.03656 0
M  V30 38 C 2.9972 -2.74923 -2.57088 0
M  V30 39 C 2.1442 -2.42835 -1.3389 0
M  V30 40 H 5.0952 -1.55381 -0.322886 0
M  V30 41 H 5.1162 -2.48861 -2.87834 0
M  V30 42 H 4.6282 -3.60575 -1.43553 0
M  V30 43 H 2.7292 -1.89296 -3.20933 0
M  V30 44 H 2.8422 -3.76157 -2.9672 0
M  V30 45 H 1.2062 -1.93836 -1.65226 0
M  V30 46 H 1.9892 -3.34884 -0.755504 0
M  V30 47 N 4.4343 0.785586 -1.36625 0
M  V30 48 C 5.6823 1.54057 -1.30808 0
M  V30 49 C 6.0033 1.94683 0.111157 0
M  V30 50 O 5.2733 1.65241 1.05224 0
M  V30 51 H 3.8533 0.571354 -0.481211 0
M  V30 52 H 6.5153 0.935821 -1.70963 0
M  V30 53 H 5.6113 2.44637 -1.93801 0
M  V30 54 N 5.9124 1.20967 1.01018 0
M  V30 55 C 7.1594 1.02374 1.74716 0
M  V30 56 C 7.4874 -0.443375 1.89379 0
M  V30 57 O 6.7424 -1.34535 1.42123 0
M  V30 58 C 7.0414 1.65997 3.16512 0
M  V30 59 C 6.7074 3.15831 3.2181 0
M  V30 60 C 5.3694 3.56719 3.22963 0
M  V30 61 C 7.7214 4.11816 3.19464 0
M  V30 62 C 5.0494 4.92107 3.19449 0
M  V30 63 C 7.4014 5.47158 3.17491 0
M  V30 64 C 6.0654 5.87451 3.16951 0
M  V30 65 H 5.3354 0.374614 0.639332 0
M  V30 66 H 7.9824 1.50485 1.18434 0
M  V30 67 H 6.2874 1.10166 3.75993 0
M  V30 68 H 7.9844 1.49119 3.72242 0
M  V30 69 H 4.5744 2.83263 3.21652 0
M  V30 70 H 8.7584 3.81257 3.17737 0
M  V30 71 H 4.0144 5.22579 3.17366 0
M  V30 72 H 8.1884 6.21274 3.14629 0
M  V30 73 H 5.8154 6.92329 3.13983 0
M  V30 74 N 7.3905 -1.2043 1.01659 0
M  V30 75 C 8.6675 -1.8548 0.621004 0
M  V30 76 C 9.0475 -1.9091 -0.900919 0
M  V30 77 O 8.3955 -1.41694 -1.79263 0
M  V30 78 C 8.6055 -3.25119 1.2688 0
M  V30 79 C 9.9535 -4.01403 1.38423 0
M  V30 80 O 10.9775 -3.34473 1.22501 0
M  V30 81 O 9.8365 -5.21265 1.64151 0
M  V30 82 H 6.9305 -0.798761 0.214266 0
M  V30 83 H 9.4765 -1.28019 1.11396 0
M  V30 84 H 8.2485 -3.15932 2.30873 0
M  V30 85 H 7.8715 -3.90212 0.762917 0
M  V30 86 N 8.8686 -0.792821 -1.36206 0
M  V30 87 C 9.7986 -0.207853 -2.32573 0
M  V30 88 C 10.7796 0.659055 -1.56813 0
M  V30 89 O 11.9646 0.592176 -1.84951 0
M  V30 90 C 9.0946 0.655449 -3.41059 0
M  V30 91 C 8.0486 -0.111842 -4.27854 0
M  V30 92 C 7.3746 0.872274 -5.27537 0
M  V30 93 C 8.6746 -1.30299 -5.05786 0
M  V30 94 H 10.3686 -1.01294 -2.81744 0
M  V30 95 H 7.9146 -0.48854 -1.3546 0
M  V30 96 H 9.8676 1.07464 -4.07467 0
M  V30 97 H 8.5916 1.49328 -2.90463 0
M  V30 98 H 7.2506 -0.512053 -3.63006 0
M  V30 99 H 6.8986 1.70523 -4.73214 0
M  V30 100 H 6.5986 0.363291 -5.86476 0
M  V30 101 H 8.1226 1.28996 -5.96818 0
M  V30 102 H 9.5366 -0.959379 -5.65216 0
M  V30 103 H 7.9336 -1.7455 -5.74154 0
M  V30 104 H 9.0036 -2.09663 -4.37229 0
M  V30 105 N 10.3467 1.47872 -0.545128 0
M  V30 106 C 11.5717 2.07391 -0.0190611 0
M  V30 107 C 11.9967 1.39688 1.25971 0
M  V30 108 O 11.3547 0.467816 1.7516 0
M  V30 109 C 11.4027 3.60188 0.172335 0
M  V30 110 O 10.5067 3.9339 1.23766 0
M  V30 111 H 9.8477 0.662411 -0.0459059 0
M  V30 112 H 12.3777 1.90066 -0.757365 0
M  V30 113 H 12.3877 4.06129 0.390305 0
M  V30 114 H 11.0627 4.08865 -0.761725 0
M  V30 115 H 9.6397 3.5921 1.00114 0
M  V30 116 N 11.8248 0.280983 1.55075 0
M  V30 117 C 13.2408 -0.0729964 1.59433 0
M  V30 118 C 13.4408 -1.5411 1.29817 0
M  V30 119 O 12.4968 -2.29086 1.06187 0
M  V30 120 C 13.8098 0.306921 2.9913 0
M  V30 121 C 15.3578 0.254023 3.11968 0
M  V30 122 C 15.8328 0.608467 4.5394 0
M  V30 123 N 17.3238 0.560241 4.59799 0
M  V30 124 C 18.0588 0.80722 5.6769 0
M  V30 125 N 17.5548 1.11912 6.83701 0
M  V30 126 N 19.3478 0.735623 5.57266 0
M  V30 127 H 11.4988 1.238 1.7259 0
M  V30 128 H 13.7618 0.500547 0.805082 0
M  V30 129 H 13.4678 1.32816 3.25657 0
M  V30 130 H 13.3418 -0.349363 3.75579 0
M  V30 131 H 15.7288 -0.75794 2.852 0
M  V30 132 H 15.8098 0.944649 2.37718 0
M  V30 133 H 15.4538 1.61814 4.81434 0
M  V30 134 H 15.3838 -0.104013 5.26497 0
M  V30 135 H 17.8748 0.329288 3.76463 0
M  V30 136 H 18.1878 1.29409 7.61888 0
M  V30 137 H 16.5328 1.15695 6.85303 0
M  V30 138 H 19.7238 0.491752 4.6551 0
M  V30 139 H 19.8968 0.931482 6.4127 0
M  V30 140 N 13.3029 -1.57598 0.00835791 0
M  V30 141 C 14.7189 -1.55764 -0.347822 0
M  V30 142 C 14.9189 -1.01186 -1.74252 0
M  V30 143 O 13.9749 -0.649371 -2.44007 0
M  V30 144 C 15.2879 -2.99927 -0.215407 0
M  V30 145 C 16.8359 -3.11656 -0.289725 0
M  V30 146 C 17.3109 -4.57621 -0.18634 0
M  V30 147 N 18.8019 -4.62557 -0.243978 0
M  V30 148 C 19.5369 -5.73094 -0.18745 0
M  V30 149 N 19.0329 -6.92753 -0.0810331 0
M  V30 150 N 20.8259 -5.61588 -0.239925 0
M  V30 151 H 12.9769 -1.91411 0.92062 0
M  V30 152 H 15.2399 -0.879562 0.353659 0
M  V30 153 H 14.9459 -3.43729 0.744512 0
M  V30 154 H 14.8199 -3.63865 -0.994097 0
M  V30 155 H 17.2069 -2.67779 -1.24009 0
M  V30 156 H 17.2879 -2.5048 0.51898 0
M  V30 157 H 16.9319 -5.02174 0.760519 0
M  V30 158 H 16.8619 -5.16752 -1.01364 0
M  V30 159 H 19.3529 -3.76481 -0.327217 0
M  V30 160 H 19.6659 -7.72787 -0.0440241 0
M  V30 161 H 18.0109 -6.94984 -0.0465419 0
M  V30 162 H 21.2019 -4.66996 -0.321317 0
M  V30 163 H 21.3749 -6.47714 -0.192407 0
M  V30 164 N 14.781 0.264519 -1.55364 0
M  V30 165 C 15.729 1.34702 -1.89626 0
M  V30 166 C 16.723 1.50712 -0.773459 0
M  V30 167 O 17.929 1.52395 -0.957897 0
M  V30 168 H 14.304 0.450682 -0.601988 0
M  V30 169 H 16.275 1.0306 -2.80038 0
M  V30 170 C 15.024 2.6989 -2.19214 0
M  V30 171 H 14.347 2.58365 -3.05103 0
M  V30 172 H 15.787 3.44553 -2.47102 0
M  V30 173 C 14.246 3.21637 -1.00254 0
M  V30 174 O 14.776 4.00973 -0.241501 0
M  V30 175 N 12.982 2.7943 -0.797938 0
M  V30 176 H 12.529 2.15026 -1.4185 0
M  V30 177 H 12.487 3.144 -0.00363422 0
M  V30 178 N 16.2591 1.48442 0.529413 0
M  V30 179 C 17.6701 1.5002 1.11134 0
M  V30 180 C 18.0211 0.27031 1.94329 0
M  V30 181 O 17.1461 -0.622507 2.07253 0
M  V30 182 C 17.7411 2.71834 2.02217 0
M  V30 183 C 16.3001 2.76283 2.55627 0
M  V30 184 C 15.4471 2.43542 1.326 0
M  V30 185 H 18.3981 1.5555 0.314641 0
M  V30 186 H 18.4191 2.50384 2.8651 0
M  V30 187 H 17.9311 3.61331 1.41639 0
M  V30 188 H 16.0321 1.90995 3.19924 0
M  V30 189 H 16.1451 3.77725 2.94721 0
M  V30 190 H 14.5091 1.94709 1.64196 0
M  V30 191 H 15.2921 3.3528 0.737734 0
M  V30 192 N 17.7372 -0.778329 1.37039 0
M  V30 193 C 18.6692 -1.90034 1.2814 0
M  V30 194 C 19.6822 -1.61585 0.198558 0
M  V30 195 O 20.8712 -1.72625 0.454175 0
M  V30 196 C 17.9712 -3.25108 0.956968 0
M  V30 197 C 17.1442 -3.81253 2.14394 0
M  V30 198 C 16.2032 -4.94789 1.79082 0
M  V30 199 O 15.2292 -5.10721 2.51301 0
M  V30 200 N 16.4312 -5.75878 0.731043 0
M  V30 201 H 19.1962 -1.98186 2.24816 0
M  V30 202 H 16.7572 -0.957129 1.30578 0
M  V30 203 H 18.7492 -3.9857 0.701701 0
M  V30 204 H 17.3192 -3.125 0.0789812 0
M  V30 205 H 16.5392 -2.99647 2.56135 0
M  V30 206 H 17.8272 -4.15495 2.93668 0
M  V30 207 H 17.2252 -5.65547 0.131618 0
M  V30 208 H 15.7822 -6.49596 0.535622 0
M  V30 209 N 19.2153 -1.21501 -1.00376 0
M  V30 210 C 20.1253 -0.991447 -2.12621 0
M  V30 211 C 21.1413 0.0568446 -1.73907 0
M  V30 212 O 22.3173 -0.13348 -2.00957 0
M  V30 213 C 19.3823 -0.560312 -3.42142 0
M  V30 214 C 18.4433 -1.68096 -3.95022 0
M  V30 215 C 17.6763 -1.2703 -5.18362 0
M  V30 216 O 17.8993 -0.144438 -5.70217 0
M  V30 217 O 16.8333 -2.08269 -5.64719 0
M  V30 218 H 20.6593 -1.93158 -2.34358 0
M  V30 219 H 18.2443 -0.999999 -1.10997 0
M  V30 220 H 20.1263 -0.329724 -4.20108 0
M  V30 221 H 18.8013 0.351089 -3.2179 0
M  V30 222 H 17.7083 -1.96597 -3.18278 0
M  V30 223 H 19.0413 -2.56983 -4.19786 0
M  V30 224 N 20.6934 1.19889 -1.02296 0
M  V30 225 C 21.9704 1.85148 -0.630832 0
M  V30 226 C 22.3504 1.91385 0.890782 0
M  V30 227 O 21.6984 1.42642 1.78509 0
M  V30 228 C 21.9084 3.24442 -1.28602 0
M  V30 229 C 23.2564 4.00663 -1.4055 0
M  V30 230 O 24.2804 3.33818 -1.24273 0
M  V30 231 O 23.1394 5.20387 -1.66913 0
M  V30 232 H 20.2334 0.797613 -0.218499 0
M  V30 233 H 22.7794 1.27427 -1.12074 0
M  V30 234 H 21.5514 3.14704 -2.32545 0
M  V30 235 H 21.1744 3.89802 -0.7836 0
M  V30 236 N 22.1715 0.800033 1.35784 0
M  V30 237 C 23.4185 0.377342 1.98953 0
M  V30 238 C 23.7465 -1.05378 1.6348 0
M  V30 239 O 23.0015 -1.74459 0.886707 0
M  V30 240 C 23.3005 0.500276 3.53881 0
M  V30 241 C 22.9665 1.89375 4.09204 0
M  V30 242 C 21.6285 2.27499 4.24025 0
M  V30 243 C 23.9805 2.8057 4.39238 0
M  V30 244 C 21.3085 3.562 4.66195 0
M  V30 245 C 23.6605 4.0871 4.82844 0
M  V30 246 C 22.3245 4.46843 4.95871 0
M  V30 247 H 21.5945 0.138079 0.728021 0
M  V30 248 H 24.2415 1.01955 1.62103 0
M  V30 249 H 22.5465 -0.225405 3.91151 0
M  V30 250 H 24.2435 0.154097 4.00704 0
M  V30 251 H 20.8335 1.58753 3.98115 0
M  V30 252 H 25.0175 2.52367 4.27346 0
M  V30 253 H 20.2735 3.85602 4.74469 0
M  V30 254 H 24.4475 4.79481 5.05046 0
M  V30 255 H 22.0745 5.46623 5.28306 0
M  V30 256 N 23.6496 -1.47581 0.552962 0
M  V30 257 C 24.5596 -2.33743 -0.200353 0
M  V30 258 C 25.5756 -1.47928 -0.916151 0
M  V30 259 O 26.7516 -1.80865 -0.885993 0
M  V30 260 C 23.8166 -3.24536 -1.21973 0
M  V30 261 C 22.8776 -4.26238 -0.511819 0
M  V30 262 C 22.1106 -5.12693 -1.48263 0
M  V30 263 O 22.3336 -5.01525 -2.71714 0
M  V30 264 O 21.2676 -5.93375 -1.00945 0
M  V30 265 H 25.0936 -2.9945 0.506304 0
M  V30 266 H 22.6786 -1.46071 0.313622 0
M  V30 267 H 24.5606 -3.80631 -1.80827 0
M  V30 268 H 23.2356 -2.61462 -1.90839 0
M  V30 269 H 22.1426 -3.73914 0.117799 0
M  V30 270 H 23.4756 -4.92014 0.135308 0
M  V30 271 N 25.1277 -0.289203 -1.54924 0
M  V30 272 C 26.0577 0.58549 -2.2604 0
M  V30 273 C 27.0387 1.14753 -1.25562 0
M  V30 274 O 28.2237 1.17906 -1.54311 0
M  V30 275 C 25.3537 1.76305 -2.99222 0
M  V30 276 C 24.3077 1.33191 -4.06748 0
M  V30 277 C 23.6337 2.5937 -4.6758 0
M  V30 278 C 24.9337 0.471775 -5.20165 0
M  V30 279 H 26.6277 -0.00763532 -2.99399 0
M  V30 280 H 24.1737 -0.00511229 -1.43999 0
M  V30 281 H 26.1267 2.38097 -3.47689 0
M  V30 282 H 24.8507 2.38223 -2.23422 0
M  V30 283 H 23.5097 0.737121 -3.59113 0
M  V30 284 H 23.1577 3.19576 -3.88433 0
M  V30 285 H 22.8577 2.31228 -5.40192 0
M  V30 286 H 24.3817 3.21985 -5.18804 0
M  V30 287 H 25.7957 0.995056 -5.64599 0
M  V30 288 H 24.1927 0.284639 -5.99425 0
M  V30 289 H 25.2627 -0.506041 -4.82252 0
M  V30 290 N 26.6058 1.57591 -0.0167156 0
M  V30 291 C 27.8548 1.90461 0.663877 0
M  V30 292 C 28.1678 0.893515 1.73999 0
M  V30 293 O 29.3738 1.11302 2.47637 0
M  V30 294 C 27.8298 3.38155 1.23204 0
M  V30 295 C 27.4378 4.47597 0.189866 0
M  V30 296 C 29.1818 3.80111 1.88986 0
M  V30 297 C 27.0888 5.86379 0.768964 0
M  V30 298 H 26.0188 0.710738 0.251729 0
M  V30 299 H 28.6698 1.83326 -0.0799926 0
M  V30 300 H 27.0518 3.40182 2.02712 0
M  V30 301 H 28.2258 4.57112 -0.581846 0
M  V30 302 H 26.5408 4.14766 -0.368475 0
M  V30 303 H 29.1378 4.81145 2.33247 0
M  V30 304 H 29.4808 3.14511 2.72743 0
M  V30 305 H 30.0138 3.80454 1.16187 0
M  V30 306 H 26.7528 6.55493 -0.0301957 0
M  V30 307 H 26.2728 5.80496 1.50945 0
M  V30 308 H 27.9518 6.34563 1.26251 0
M  V30 309 N 28.0839 -0.256276 1.55502 0
M  V30 310 C 29.0159 -1.33981 1.85962 0
M  V30 311 C 30.0289 -1.44743 0.745212 0
M  V30 312 O 31.2179 -1.4626 1.02324 0
M  V30 313 C 28.3179 -2.7194 2.02242 0
M  V30 314 C 27.4909 -2.83562 3.33033 0
M  V30 315 C 26.5499 -4.02304 3.39172 0
M  V30 316 O 25.5759 -3.92273 4.12444 0
M  V30 317 N 26.7779 -5.15045 2.67784 0
M  V30 318 H 29.5429 -1.08191 2.7949 0
M  V30 319 H 27.1039 -0.446388 1.55624 0
M  V30 320 H 29.0959 -3.49697 2.03701 0
M  V30 321 H 27.6659 -2.90479 1.15502 0
M  V30 322 H 26.8859 -1.92555 3.43971 0
M  V30 323 H 28.1739 -2.88271 4.19258 0
M  V30 324 H 27.5719 -5.26085 2.07968 0
M  V30 325 H 26.1289 -5.90972 2.74947 0
M  V30 326 N 29.562 -1.4872 -0.521534 0
M  V30 327 C 30.978 -1.35028 -0.850855 0
M  V30 328 C 31.178 -0.367712 -1.98116 0
M  V30 329 O 30.234 0.208037 -2.51642 0
M  V30 330 C 31.547 -2.75263 -1.21041 0
M  V30 331 C 33.095 -2.83813 -1.31981 0
M  V30 332 C 33.57 -4.24769 -1.71276 0
M  V30 333 N 35.061 -4.27482 -1.78363 0
M  V30 334 C 35.796 -5.33494 -2.1017 0
M  V30 335 N 35.292 -6.49775 -2.40343 0
M  V30 336 N 37.085 -5.20894 -2.11248 0
M  V30 337 H 29.236 -2.11214 0.22413 0
M  V30 338 H 31.499 -0.947252 0.0376439 0
M  V30 339 H 31.205 -3.48765 -0.453415 0
M  V30 340 H 31.079 -3.09327 -2.15863 0
M  V30 341 H 33.466 -2.10561 -2.06756 0
M  V30 342 H 33.547 -2.53358 -0.352596 0
M  V30 343 H 33.191 -4.9854 -0.970588 0
M  V30 344 H 33.121 -4.52673 -2.69062 0
M  V30 345 H 35.612 -3.43611 -1.57288 0
M  V30 346 H 35.925 -7.26402 -2.63743 0
M  V30 347 H 34.27 -6.53035 -2.37844 0
M  V30 348 H 37.461 -4.29065 -1.87139 0
M  V30 349 H 37.634 -6.03612 -2.35704 0
M  V30 350 N 31.0401 0.771051 -1.3745 0
M  V30 351 C 32.2891 1.52491 -1.3202 0
M  V30 352 C 32.6021 1.9538 0.0927347 0
M  V30 353 O 33.8081 2.70159 0.269503 0
M  V30 354 C 32.2641 2.75366 -2.31736 0
M  V30 355 C 31.8721 2.39573 -3.78562 0
M  V30 356 C 33.6161 3.53307 -2.35318 0
M  V30 357 C 31.5231 3.58954 -4.70007 0
M  V30 358 H 30.4531 0.572506 -0.490666 0
M  V30 359 H 33.1041 0.844474 -1.62914 0
M  V30 360 H 31.4861 3.45303 -1.93861 0
M  V30 361 H 32.6601 1.77415 -4.25277 0
M  V30 362 H 30.9751 1.74805 -3.77932 0
M  V30 363 H 33.5721 4.42039 -3.00842 0
M  V30 364 H 33.9151 3.93217 -1.36698 0
M  V30 365 H 34.4481 2.90367 -2.71904 0
M  V30 366 H 31.1871 3.24125 -5.69757 0
M  V30 367 H 30.7071 4.20214 -4.27996 0
M  V30 368 H 32.3861 4.25758 -4.87175 0
M  V30 369 N 32.5182 1.22032 0.997298 0
M  V30 370 C 33.7662 1.04016 1.73278 0
M  V30 371 C 34.0872 -0.426255 1.90284 0
M  V30 372 O 33.3572 -1.30694 1.45931 0
M  V30 373 H 31.9372 0.381897 0.642 0
M  V30 374 H 34.5992 1.5347 1.20137 0
M  V30 375 H 33.6952 1.51441 2.72896 0
M  V30 376 N 33.9963 -1.19345 1.0293 0
M  V30 377 C 35.2213 -1.93538 0.745511 0
M  V30 378 C 35.6463 -1.75007 -0.689511 0
M  V30 379 O 35.0043 -1.05265 -1.47611 0
M  V30 380 C 35.0523 -3.43336 1.10239 0
M  V30 381 O 34.1563 -4.11806 0.221289 0
M  V30 382 H 33.4973 -0.604193 0.275404 0
M  V30 383 H 36.0273 -1.5141 1.37609 0
M  V30 384 H 36.0373 -3.94004 1.05947 0
M  V30 385 H 34.7123 -3.56146 2.14786 0
M  V30 386 H 33.2893 -3.715 0.322842 0
M  V30 387 N 35.4744 -0.807222 -1.35358 0
M  V30 388 C 36.7224 -0.387122 -1.98358 0
M  V30 389 C 37.0434 1.04942 -1.64354 0
M  V30 390 O 36.3134 1.72615 -0.926339 0
M  V30 391 H 34.8934 -0.140154 -0.733734 0
M  V30 392 H 37.5554 -1.0332 -1.6526 0
M  V30 393 H 36.6514 -0.493352 -3.08176 0
M  V30 394 N 36.9525 1.47285 -0.560781 0
M  V30 395 C 38.1805 2.06855 -0.0430262 0
M  V30 396 C 38.5955 1.41291 1.25229 0
M  V30 397 O 37.9525 0.510648 1.7521 0
M  V30 398 C 38.0035 3.61178 0.152518 0
M  V30 399 O 37.7245 4.24285 -1.0915 0
M  V30 400 C 39.2255 4.37624 0.707145 0
M  V30 401 H 36.4455 0.669319 -0.0474652 0
M  V30 402 H 38.9895 1.89237 -0.77521 0
M  V30 403 H 37.1445 3.78298 0.834843 0
M  V30 404 H 37.5585 5.16868 -0.891482 0
M  V30 405 H 39.0325 5.46271 0.793244 0
M  V30 406 H 39.5095 4.04152 1.71923 0
M  V30 407 H 40.1155 4.25257 0.0604027 0
M  V30 408 N 38.4306 0.297415 1.54768 0
M  V30 409 C 39.6606 -0.315165 2.04182 0
M  V30 410 C 40.0686 -1.4834 1.17439 0
M  V30 411 O 39.4116 -1.82695 0.191891 0
M  V30 412 C 39.4736 -0.837583 3.49607 0
M  V30 413 C 39.1376 0.204912 4.5654 0
M  V30 414 C 40.1346 1.03214 5.09552 0
M  V30 415 C 37.8196 0.345578 5.0111 0
M  V30 416 C 39.8136 1.986 6.05671 0
M  V30 417 C 37.5006 1.30289 5.97049 0
M  V30 418 C 38.4986 2.12159 6.49213 0
M  V30 419 O 38.1866 3.06268 7.43273 0
M  V30 420 H 37.9186 -0.0729646 0.672051 0
M  V30 421 H 40.4726 0.433907 2.00765 0
M  V30 422 H 38.7026 -1.63712 3.50336 0
M  V30 423 H 40.3916 -1.36566 3.82236 0
M  V30 424 H 41.1576 0.934312 4.75916 0
M  V30 425 H 37.0366 -0.28171 4.60138 0
M  V30 426 H 40.5806 2.62542 6.46311 0
M  V30 427 H 36.4776 1.40145 6.30103 0
M  V30 428 H 37.2456 3.01205 7.61064 0
M  V30 429 N 39.9087 -1.5758 0.0250728 0
M  V30 430 C 41.1567 -1.91255 -0.653151 0
M  V30 431 C 41.4777 -0.901691 -1.729 0
M  V30 432 O 40.7477 0.0573785 -1.95816 0
M  V30 433 H 39.3277 -0.705942 -0.244243 0
M  V30 434 H 41.9897 -1.94767 0.0719209 0
M  V30 435 H 41.0857 -2.91752 -1.10847 0
M  V30 436 N 41.3868 0.248026 -1.55636 0
M  V30 437 C 42.6638 0.998988 -1.68165 0
M  V30 438 C 43.0438 2.03409 -0.564621 0
M  V30 439 O 42.3918 2.24378 0.432076 0
M  V30 440 C 42.6018 1.63334 -3.0842 0
M  V30 441 C 43.9498 2.13562 -3.66983 0
M  V30 442 O 44.9738 1.73277 -3.11213 0
M  V30 443 O 43.8328 2.87526 -4.64749 0
M  V30 444 H 40.9268 0.464933 -0.683935 0
M  V30 445 H 43.4728 0.241902 -1.67967 0
M  V30 446 H 42.2448 0.884583 -3.8117 0
M  V30 447 H 41.8678 2.45666 -3.12624 0
M  V30 448 N 42.8649 1.48995 0.513639 0
M  V30 449 C 44.1109 1.58076 1.27042 0
M  V30 450 C 44.4439 0.261026 1.92438 0
M  V30 451 O 43.7189 -0.734393 1.80103 0
M  V30 452 C 44.0019 2.73091 2.34719 0
M  V30 453 C 43.8549 4.14821 1.73907 0
M  V30 454 C 45.1739 2.83796 3.36375 0
M  V30 455 H 42.2929 0.575391 0.460536 0
M  V30 456 H 44.9349 1.81232 0.570516 0
M  V30 457 H 43.0849 2.53479 2.94416 0
M  V30 458 H 44.7569 4.45917 1.18135 0
M  V30 459 H 42.9999 4.21058 1.0437 0
M  V30 460 H 43.6709 4.91147 2.51949 0
M  V30 461 H 46.1469 3.01611 2.86653 0
M  V30 462 H 45.0229 3.65971 4.09093 0
M  V30 463 H 45.2839 1.92624 3.9793 0
M  V30 464 N 44.343 -0.763751 1.37857 0
M  V30 465 C 45.573 -1.55067 1.3652 0
M  V30 466 C 45.981 -1.89135 -0.0494227 0
M  V30 467 O 45.324 -1.52529 -1.02375 0
M  V30 468 C 45.386 -2.8838 2.14656 0
M  V30 469 C 45.05 -2.76905 3.63555 0
M  V30 470 C 46.047 -2.4739 4.57268 0
M  V30 471 C 43.732 -2.94676 4.06781 0
M  V30 472 C 45.726 -2.35786 5.92186 0
M  V30 473 C 43.413 -2.82692 5.41782 0
M  V30 474 C 44.411 -2.53289 6.34298 0
M  V30 475 O 44.099 -2.41345 7.66817 0
M  V30 476 H 43.831 -0.486776 0.469069 0
M  V30 477 H 46.385 -0.953812 1.81911 0
M  V30 478 H 44.615 -3.50217 1.63967 0
M  V30 479 H 46.304 -3.49828 2.05852 0
M  V30 480 H 47.07 -2.33339 4.2518 0
M  V30 481 H 42.949 -3.16563 3.35126 0
M  V30 482 H 46.493 -2.12757 6.64365 0
M  V30 483 H 42.39 -2.96314 5.7347 0
M  V30 484 H 43.158 -2.56634 7.77226 0
M  V30 485 N 45.8211 -1.22559 -0.990812 0
M  V30 486 C 46.7681 -0.997519 -2.0813 0
M  V30 487 C 47.7381 0.0814702 -1.659 0
M  V30 488 O 48.9231 -0.0685424 -1.90677 0
M  V30 489 C 46.0631 -0.583615 -3.40129 0
M  V30 490 C 45.1761 -1.7336 -3.9569 0
M  V30 491 C 44.3111 -1.26748 -5.15857 0
M  V30 492 C 43.3501 -2.38888 -5.63559 0
M  V30 493 N 42.4871 -1.93308 -6.74964 0
M  V30 494 H 47.3271 -1.93099 -2.26973 0
M  V30 495 H 44.8641 -0.962114 -1.11273 0
M  V30 496 H 46.8221 -0.324801 -4.15934 0
M  V30 497 H 45.4521 0.312845 -3.2128 0
M  V30 498 H 44.5041 -2.10669 -3.16738 0
M  V30 499 H 45.8161 -2.57704 -4.27071 0
M  V30 500 H 44.9701 -0.966173 -5.98957 0
M  V30 501 H 43.7091 -0.394272 -4.86104 0
M  V30 502 H 42.7141 -2.69805 -4.79046 0
M  V30 503 H 43.9391 -3.26728 -5.95336 0
M  V30 504 H 41.8851 -1.08352 -6.4699 0
M  V30 505 H 41.8021 -2.71217 -7.05675 0
M  V30 506 H 43.0701 -1.66252 -7.61564 0
M  V30 507 N 47.2992 1.18797 -1.03562 0
M  V30 508 C 48.2622 2.20464 -0.626769 0
M  V30 509 C 49.2622 1.57721 0.313173 0
M  V30 510 O 50.4522 1.73917 0.0992615 0
M  V30 511 C 47.5842 3.40802 0.0818498 0
M  V30 512 H 48.7772 2.58149 -1.5264 0
M  V30 513 H 46.3302 1.32593 -0.827578 0
M  V30 514 H 47.0652 3.08642 0.995518 0
M  V30 515 H 46.8502 3.8758 -0.593652 0
M  V30 516 H 48.3402 4.16092 0.354584 0
M  V30 517 N 48.7773 0.814389 1.34928 0
M  V30 518 C 50.1933 0.499084 1.51596 0
M  V30 519 C 50.3933 -0.978319 1.76157 0
M  V30 520 O 49.4493 -1.76309 1.80752 0
M  V30 521 C 50.7623 1.35121 2.68631 0
M  V30 522 C 52.3103 1.34746 2.82511 0
M  V30 523 C 52.7853 2.18388 4.0258 0
M  V30 524 N 54.2763 2.15966 4.09772 0
M  V30 525 C 55.0113 2.77437 5.01813 0
M  V30 526 N 54.5073 3.47866 5.99134 0
M  V30 527 N 56.3003 2.67037 4.94619 0
M  V30 528 H 48.4513 1.7711 1.17243 0
M  V30 529 H 50.7143 0.754256 0.574284 0
M  V30 530 H 50.4203 2.40001 2.57085 0
M  V30 531 H 50.2943 1.00991 3.63429 0
M  V30 532 H 52.6813 0.30648 2.93504 0
M  V30 533 H 52.7623 1.72869 1.88547 0
M  V30 534 H 52.4063 3.2253 3.92347 0
M  V30 535 H 52.3363 1.77621 4.9574 0
M  V30 536 H 54.8273 1.64729 3.40107 0
M  V30 537 H 55.1403 3.92038 6.65977 0
M  V30 538 H 53.4853 3.51972 5.99284 0
M  V30 539 H 56.6763 2.11597 4.17546 0
M  V30 540 H 56.8493 3.15232 5.66156 0
M  V30 541 N 50.2554 -1.46986 0.568584 0
M  V30 542 C 51.2034 -2.31858 -0.185649 0
M  V30 543 C 52.1974 -1.43624 -0.898249 0
M  V30 544 O 53.4034 -1.60327 -0.818242 0
M  V30 545 H 49.7784 -0.747866 -0.0787399 0
M  V30 546 H 51.7494 -2.93303 0.549191 0
M  V30 547 C 50.4984 -3.26513 -1.19519 0
M  V30 548 H 49.8214 -3.94377 -0.656285 0
M  V30 549 H 51.2614 -3.88707 -1.6936 0
M  V30 550 C 49.7204 -2.50847 -2.24894 0
M  V30 551 O 50.2504 -2.26119 -3.32014 0
M  V30 552 N 48.4564 -2.11656 -1.99124 0
M  V30 553 H 48.0034 -2.31966 -1.12024 0
M  V30 554 H 47.9614 -1.61347 -2.69842 0
M  V30 555 N 51.7335 -0.305618 -1.54608 0
M  V30 556 C 52.9795 0.302746 -2.00528 0
M  V30 557 C 53.3125 1.53184 -1.19367 0
M  V30 558 O 52.5875 1.92598 -0.271321 0
M  V30 559 C 52.8705 0.654756 -3.54097 0
M  V30 560 C 52.7235 -0.583793 -4.45995 0
M  V30 561 C 54.0425 1.47947 -4.14487 0
M  V30 562 H 51.1615 0.108564 -0.72896 0
M  V30 563 H 53.8035 -0.418634 -1.85331 0
M  V30 564 H 51.9535 1.26935 -3.67178 0
M  V30 565 H 53.6255 -1.22224 -4.44814 0
M  V30 566 H 51.8685 -1.21615 -4.16404 0
M  V30 567 H 52.5395 -0.293287 -5.5122 0
M  V30 568 H 55.0155 0.96013 -4.04871 0
M  V30 569 H 53.8915 1.69454 -5.22088 0
M  V30 570 H 54.1525 2.47011 -3.66658 0
M  V30 571 N 53.2116 1.57565 -0.0334293 0
M  V30 572 C 54.1596 2.1164 0.96496 0
M  V30 573 C 55.1536 1.04398 1.33407 0
M  V30 574 O 56.3596 1.22828 1.3158 0
M  V30 575 H 52.7346 0.676222 0.32898 0
M  V30 576 H 54.7056 2.94455 0.483614 0
M  V30 577 C 53.4546 2.66207 2.23672 0
M  V30 578 H 52.7776 3.48378 1.96145 0
M  V30 579 H 54.2176 3.07685 2.9173 0
M  V30 580 C 52.6766 1.59151 2.96939 0
M  V30 581 O 53.2066 0.993858 3.89211 0
M  V30 582 N 51.4126 1.31093 2.59351 0
M  V30 583 H 50.9596 1.7988 1.84393 0
M  V30 584 H 50.9176 0.596889 3.08682 0
M  V30 585 N 54.6897 -0.239769 1.55765 0
M  V30 586 C 55.9177 -0.98417 1.81994 0
M  V30 587 C 56.3327 -1.7867 0.610124 0
M  V30 588 O 55.6897 -1.77571 -0.421271 0
M  V30 589 C 55.7407 -1.91635 3.06526 0
M  V30 590 O 55.4617 -1.14629 4.22838 0
M  V30 591 C 56.9627 -2.77616 3.45607 0
M  V30 592 H 54.1827 -0.28928 0.605441 0
M  V30 593 H 56.7267 -0.260499 2.02834 0
M  V30 594 H 54.8817 -2.5942 2.87715 0
M  V30 595 H 55.2957 -1.77745 4.93464 0
M  V30 596 H 56.7697 -3.38759 4.35828 0
M  V30 597 H 57.2467 -3.4909 2.6652 0
M  V30 598 H 57.8527 -2.15271 3.66795 0
M  V30 599 N 56.1678 -1.49265 -0.50573 0
M  V30 600 C 57.4158 -1.582 -1.25766 0
M  V30 601 C 57.7368 -0.268482 -1.93143 0
M  V30 602 O 57.0068 0.711833 -1.8251 0
M  V30 603 H 55.5868 -0.582873 -0.467191 0
M  V30 604 H 58.2488 -1.85865 -0.586525 0
M  V30 605 H 57.3448 -2.37563 -2.02412 0
M  V30 606 N 57.6459 0.756429 -1.3826 0
M  V30 607 C 58.5559 1.9009 -1.37488 0
M  V30 608 C 59.5719 1.71855 -0.272366 0
M  V30 609 O 60.7479 1.94827 -0.510318 0
M  V30 610 C 57.8129 3.25421 -1.19592 0
M  V30 611 C 56.8739 3.56202 -2.39622 0
M  V30 612 C 56.1069 4.85075 -2.2257 0
M  V30 613 O 56.3299 5.57246 -1.21793 0
M  V30 614 O 55.2639 5.15269 -3.11098 0
M  V30 615 H 59.0899 1.93695 -2.33914 0
M  V30 616 H 56.6749 0.901313 -1.1915 0
M  V30 617 H 58.5569 4.06337 -1.11661 0
M  V30 618 H 57.2319 3.22634 -0.262486 0
M  V30 619 H 56.1389 2.75458 -2.53128 0
M  V30 620 H 57.4719 3.63747 -3.31586 0
M  V30 621 N 59.124 1.23083 0.984299 0
M  V30 622 C 60.054 1.03292 2.09411 0
M  V30 623 C 61.035 -0.048923 1.7003 0
M  V30 624 O 62.22 0.114967 1.93859 0
M  V30 625 C 59.35 0.619155 3.41736 0
M  V30 626 C 58.304 1.64791 3.95004 0
M  V30 627 C 57.63 1.0897 5.23478 0
M  V30 628 C 58.93 3.03999 4.24714 0
M  V30 629 H 60.624 1.96119 2.26225 0
M  V30 630 H 58.17 0.944344 1.08711 0
M  V30 631 H 60.123 0.467777 4.18796 0
M  V30 632 H 58.847 -0.344786 3.24775 0
M  V30 633 H 57.506 1.78721 3.20085 0
M  V30 634 H 57.154 0.11686 5.02864 0
M  V30 635 H 56.854 1.77704 5.60085 0
M  V30 636 H 58.378 0.950093 6.03163 0
M  V30 637 H 59.792 2.93393 4.92538 0
M  V30 638 H 58.189 3.69936 4.72512 0
M  V30 639 H 59.259 3.53285 3.32142 0
M  V30 640 N 60.6021 -1.18246 1.0419 0
M  V30 641 C 61.5651 -2.20128 0.638452 0
M  V30 642 C 62.5651 -1.57885 -0.304805 0
M  V30 643 O 63.7551 -1.73967 -0.0900369 0
M  V30 644 C 60.8871 -3.4084 -0.0637751 0
M  V30 645 H 62.0801 -2.57336 1.54007 0
M  V30 646 H 59.6331 -1.32152 0.834598 0
M  V30 647 H 60.3681 -3.09166 -0.979136 0
M  V30 648 H 60.1531 -3.8726 0.614198 0
M  V30 649 H 61.6431 -4.16274 -0.332512 0
M  V30 650 N 62.0802 -0.821533 -1.34494 0
M  V30 651 C 63.0432 -0.247847 -2.27856 0
M  V30 652 C 64.0432 0.573453 -1.50227 0
M  V30 653 O 65.2332 0.389759 -1.69784 0
M  V30 654 C 62.3652 0.652698 -3.34593 0
M  V30 655 H 63.5582 -1.07146 -2.80107 0
M  V30 656 H 61.1112 -0.593291 -1.44602 0
M  V30 657 H 61.8462 1.49943 -2.87555 0
M  V30 658 H 61.6312 0.065292 -3.92046 0
M  V30 659 H 63.1212 1.04793 -4.04238 0
M  V30 660 N 63.5583 1.46682 -0.576371 0
M  V30 661 C 64.8073 2.01619 -0.0572825 0
M  V30 662 C 65.1203 1.45417 1.30818 0
M  V30 663 O 66.3263 1.92133 1.91825 0
M  V30 664 C 64.7823 3.59863 -0.0518371 0
M  V30 665 C 64.3903 4.25059 -1.41523 0
M  V30 666 C 66.1343 4.2248 0.413639 0
M  V30 667 C 64.0413 5.75364 -1.36785 0
M  V30 668 H 62.9713 0.753794 -0.0176448 0
M  V30 669 H 65.6223 1.68481 -0.727076 0
M  V30 670 H 64.0043 3.90048 0.683994 0
M  V30 671 H 65.1783 4.06491 -2.17029 0
M  V30 672 H 63.4933 3.7451 -1.8202 0
M  V30 673 H 66.0903 5.3265 0.467779 0
M  V30 674 H 66.4333 3.90976 1.42982 0
M  V30 675 H 66.9663 3.96897 -0.267929 0
M  V30 676 H 63.7053 6.11518 -2.36063 0
M  V30 677 H 63.2253 5.96214 -0.654895 0
M  V30 678 H 64.9043 6.37955 -1.07805 0
M  V30 679 N 65.0364 0.313813 1.54444 0
M  V30 680 C 65.9834 -0.55655 2.23989 0
M  V30 681 C 66.9534 -1.11943 1.22711 0
M  V30 682 O 68.1384 -1.16158 1.51367 0
M  V30 683 C 65.2784 -1.71635 2.99392 0
M  V30 684 C 64.3914 -1.18364 4.15468 0
M  V30 685 C 63.5264 -2.30834 4.78424 0
M  V30 686 C 62.5654 -1.74762 5.86622 0
M  V30 687 N 61.7024 -2.80855 6.43479 0
M  V30 688 H 66.5424 0.0430893 2.97969 0
M  V30 689 H 64.0794 0.0330359 1.47063 0
M  V30 690 H 66.0374 -2.39868 3.41349 0
M  V30 691 H 64.6674 -2.28742 2.27765 0
M  V30 692 H 63.7194 -0.393163 3.78363 0
M  V30 693 H 65.0314 -0.733262 4.93381 0
M  V30 694 H 64.1854 -3.0699 5.23299 0
M  V30 695 H 62.9244 -2.79204 3.99871 0
M  V30 696 H 61.9294 -0.970995 5.41158 0
M  V30 697 H 63.1544 -1.2728 6.67066 0
M  V30 698 H 61.1004 -3.28535 5.67804 0
M  V30 699 H 61.0174 -2.40351 7.16776 0
M  V30 700 H 62.2854 -3.5687 6.93011 0
M  V30 701 N 66.5145 -1.57545 0.0417849 0
M  V30 702 C 67.7605 -1.92601 -0.635021 0
M  V30 703 C 68.0935 -0.919627 -1.71045 0
M  V30 704 O 67.3685 0.0557892 -1.9442 0
M  V30 705 C 67.6515 -3.38085 -1.23979 0
M  V30 706 C 67.5045 -4.49467 -0.173057 0
M  V30 707 C 68.8235 -3.83776 -2.15416 0
M  V30 708 H 65.9425 -0.700397 -0.229374 0
M  V30 709 H 68.5845 -1.89728 0.101633 0
M  V30 710 H 66.7345 -3.40664 -1.86762 0
M  V30 711 H 68.4065 -4.59018 0.458312 0
M  V30 712 H 66.6495 -4.30909 0.499996 0
M  V30 713 H 67.3205 -5.48323 -0.636054 0
M  V30 714 H 69.7965 -3.83013 -1.62605 0
M  V30 715 H 68.6725 -4.8624 -2.54679 0
M  V30 716 H 68.9335 -3.19998 -3.05047 0
M  V30 717 N 67.9926 0.231505 -1.5589 0
M  V30 718 C 69.2416 0.955346 -1.7764 0
M  V30 719 C 69.5546 1.85893 -0.608546 0
M  V30 720 O 70.7606 2.62067 -0.70943 0
M  V30 721 C 69.2166 1.74886 -3.14552 0
M  V30 722 C 68.8246 0.891915 -4.39032 0
M  V30 723 C 70.5686 2.46452 -3.45633 0
M  V30 724 C 68.4756 1.68221 -5.66971 0
M  V30 725 H 67.4056 0.360446 -0.662265 0
M  V30 726 H 70.0566 0.209516 -1.823 0
M  V30 727 H 68.4386 2.53723 -3.04041 0
M  V30 728 H 69.6126 0.144793 -4.60572 0
M  V30 729 H 67.9276 0.288863 -4.15397 0
M  V30 730 H 70.5246 3.06061 -4.38441 0
M  V30 731 H 70.8676 3.18841 -2.67668 0
M  V30 732 H 71.4006 1.74613 -3.57428 0
M  V30 733 H 68.1396 1.00178 -6.478 0
M  V30 734 H 67.6596 2.4042 -5.49507 0
M  V30 735 H 69.3386 2.24544 -6.06786 0
M  V30 736 N 69.4707 1.49531 0.497807 0
M  V30 737 C 70.4177 1.66436 1.59899 0
M  V30 738 C 71.3877 0.505793 1.58212 0
M  V30 739 O 72.5727 0.733202 1.7615 0
M  V30 740 C 69.7127 1.7399 2.98029 0
M  V30 741 C 68.8257 3.01172 3.09708 0
M  V30 742 C 67.9607 2.99686 4.38591 0
M  V30 743 C 66.9997 4.21434 4.43914 0
M  V30 744 N 66.1367 4.1784 5.64229 0
M  V30 745 H 70.9767 2.60459 1.44793 0
M  V30 746 H 68.5137 1.29137 0.704423 0
M  V30 747 H 70.4717 1.76352 3.78095 0
M  V30 748 H 69.1017 0.834301 3.11832 0
M  V30 749 H 68.1537 3.08408 2.22685 0
M  V30 750 H 69.4657 3.91165 3.09502 0
M  V30 751 H 68.6197 3.00628 5.2698 0
M  V30 752 H 67.3587 2.07477 4.41367 0
M  V30 753 H 66.3637 4.20733 3.53926 0
M  V30 754 H 67.5887 5.14839 4.42851 0
M  V30 755 H 65.5347 3.28469 5.67841 0
M  V30 756 H 65.4517 5.01571 5.65652 0
M  V30 757 H 66.7197 4.22889 6.54817 0
M  V30 758 N 70.9488 -0.749086 1.3866 0
M  V30 759 C 71.8788 -1.8764 1.38973 0
M  V30 760 C 72.8598 -1.68178 0.255004 0
M  V30 761 O 74.0448 -1.88704 0.458754 0
M  V30 762 C 71.1748 -3.25222 1.21851 0
M  V30 763 C 70.1288 -3.59295 2.32575 0
M  V30 764 C 69.4548 -4.95663 2.00555 0
M  V30 765 C 70.7548 -3.63709 3.7485 0
M  V30 766 H 72.4488 -1.87635 2.3331 0
M  V30 767 H 69.9948 -0.901329 1.12303 0
M  V30 768 H 71.9478 -4.03746 1.20695 0
M  V30 769 H 70.6718 -3.25719 0.239775 0
M  V30 770 H 69.3308 -2.83093 2.32925 0
M  V30 771 H 68.9788 -4.92724 1.01154 0
M  V30 772 H 68.6788 -5.19429 2.74714 0
M  V30 773 H 70.2028 -5.7656 2.01024 0
M  V30 774 H 71.6168 -4.32338 3.76506 0
M  V30 775 H 70.0138 -3.98986 4.48252 0
M  V30 776 H 71.0838 -2.63834 4.06841 0
M  V30 777 N 72.4269 -1.23603 -0.977757 0
M  V30 778 C 73.3369 -1.03632 -2.1047 0
M  V30 779 C 74.3529 0.0199435 -1.73989 0
M  V30 780 O 75.5289 -0.176076 -2.00629 0
M  V30 781 C 72.5939 -0.63276 -3.40877 0
M  V30 782 C 71.6549 -1.76437 -3.91367 0
M  V30 783 C 70.8879 -1.37997 -5.15551 0
M  V30 784 O 71.1109 -0.265357 -5.69782 0
M  V30 785 O 70.0449 -2.20201 -5.60174 0
M  V30 786 H 73.8709 -1.98086 -2.30208 0
M  V30 787 H 71.4559 -1.02332 -1.08851 0
M  V30 788 H 73.3379 -0.418761 -4.19314 0
M  V30 789 H 72.0129 0.282754 -3.22463 0
M  V30 790 H 70.9199 -2.03304 -3.14036 0
M  V30 791 H 72.2529 -2.6583 -4.14241 0
M  V30 792 N 73.905 1.17692 -1.04816 0
M  V30 793 C 75.316 1.69501 -0.782698 0
M  V30 794 C 75.667 1.83456 0.695577 0
M  V30 795 O 74.792 1.51942 1.54086 0
M  V30 796 C 75.387 3.07874 -1.41419 0
M  V30 797 C 73.946 3.56864 -1.19686 0
M  V30 798 C 73.093 2.3322 -1.50012 0
M  V30 799 H 76.044 1.02262 -1.2136 0
M  V30 800 H 76.065 3.71528 -0.821428 0
M  V30 801 H 75.577 2.97685 -2.49009 0
M  V30 802 H 73.678 3.72337 -0.140043 0
M  V30 803 H 73.791 4.39851 -1.89916 0
M  V30 804 H 72.155 2.37501 -0.920071 0
M  V30 805 H 72.938 2.25644 -2.58727 0
M  V30 806 N 75.3831 0.828654 1.34056 0
M  V30 807 C 76.6311 0.41863 1.97717 0
M  V30 808 C 76.9521 -1.02314 1.66002 0
M  V30 809 O 76.2221 -1.71119 0.953683 0
M  V30 810 H 74.8021 0.151809 0.731412 0
M  V30 811 H 77.4641 1.05936 1.63596 0
M  V30 812 H 76.5601 0.542318 3.07352 0
M  V30 813 N 76.8612 -1.46375 0.584142 0
M  V30 814 C 77.7712 -2.34115 -0.150728 0
M  V30 815 C 78.7872 -1.49838 -0.884567 0
M  V30 816 O 79.9632 -1.82704 -0.847429 0
M  V30 817 C 77.0282 -3.2705 -1.15062 0
M  V30 818 C 76.0892 -4.27228 -0.421293 0
M  V30 819 C 75.3222 -5.15722 -1.37355 0
M  V30 820 O 75.5452 -5.07176 -2.61014 0
M  V30 821 O 74.4792 -5.95383 -0.883355 0
M  V30 822 H 78.3052 -2.98309 0.569708 0
M  V30 823 H 75.8902 -1.45373 0.344535 0
M  V30 824 H 77.7722 -3.84381 -1.72712 0
M  V30 825 H 76.4472 -2.65451 -1.8525 0
M  V30 826 H 75.3542 -3.7358 0.197085 0
M  V30 827 H 76.6872 -4.91616 0.239641 0
M  V30 828 N 78.3393 -0.321999 -1.54275 0
M  V30 829 C 79.6163 0.335232 -1.92706 0
M  V30 830 C 79.9963 1.70006 -1.25145 0
M  V30 831 O 79.3443 2.25067 -0.394596 0
M  V30 832 C 79.5543 0.429008 -3.46353 0
M  V30 833 C 80.9023 0.690029 -4.18956 0
M  V30 834 O 81.9263 0.511992 -3.52501 0
M  V30 835 O 80.7853 1.03338 -5.36641 0
M  V30 836 H 77.8793 0.191143 -0.804608 0
M  V30 837 H 80.4253 -0.3716 -1.65581 0
M  V30 838 H 79.1973 -0.529611 -3.87699 0
M  V30 839 H 78.8203 1.18348 -3.79578 0
M  V30 840 N 79.8174 1.5752 -0.0501392 0
M  V30 841 C 81.0644 1.9265 0.623874 0
M  V30 842 C 81.3924 0.928411 1.70912 0
M  V30 843 O 80.6474 -0.0594525 1.9561 0
M  V30 844 C 80.9464 3.34467 1.25963 0
M  V30 845 C 80.6124 4.49883 0.302689 0
M  V30 846 C 79.2744 4.81184 0.0393636 0
M  V30 847 C 81.6264 5.20002 -0.353205 0
M  V30 848 C 78.9544 5.79951 -0.887308 0
M  V30 849 C 81.3064 6.1976 -1.26806 0
M  V30 850 C 79.9704 6.49491 -1.54007 0
M  V30 851 H 79.2404 0.704957 0.228292 0
M  V30 852 H 81.8874 1.91146 -0.116398 0
M  V30 853 H 80.1924 3.32333 2.07514 0
M  V30 854 H 81.8894 3.58928 1.78806 0
M  V30 855 H 78.4794 4.25457 0.518109 0
M  V30 856 H 82.6634 4.96033 -0.162854 0
M  V30 857 H 77.9194 6.01322 -1.10553 0
M  V30 858 H 82.0934 6.73205 -1.78236 0
M  V30 859 H 79.7204 7.25837 -2.25976 0
M  V30 860 N 81.2955 -0.223234 1.56011 0
M  V30 861 C 82.2585 -1.26014 1.9145 0
M  V30 862 C 83.2585 -1.3989 0.792937 0
M  V30 863 O 84.4485 -1.38184 1.0607 0
M  V30 864 C 81.5805 -2.63422 2.16383 0
M  V30 865 H 82.7735 -0.95796 2.84189 0
M  V30 866 H 80.3265 -0.463576 1.49267 0
M  V30 867 H 81.0615 -2.98741 1.2619 0
M  V30 868 H 80.8465 -2.54728 2.98088 0
M  V30 869 H 82.3365 -3.38249 2.44903 0
M  V30 870 N 82.7736 -1.49793 -0.48987 0
M  V30 871 C 84.0196 -1.60078 -1.24511 0
M  V30 872 C 84.3526 -0.291608 -1.91998 0
M  V30 873 O 83.6276 0.705647 -1.81248 0
M  V30 874 C 83.9106 -2.76791 -2.30345 0
M  V30 875 C 83.7636 -4.17535 -1.67286 0
M  V30 876 C 85.0826 -2.89111 -3.31817 0
M  V30 877 H 82.2016 -0.582645 -0.451324 0
M  V30 878 H 84.8436 -1.82117 -0.541612 0
M  V30 879 H 82.9936 -2.5813 -2.90346 0
M  V30 880 H 84.6656 -4.4774 -1.11026 0
M  V30 881 H 82.9086 -4.22665 -0.976577 0
M  V30 882 H 83.5796 -4.95094 -2.44103 0
M  V30 883 H 86.0556 -3.06133 -2.81819 0
M  V30 884 H 84.9316 -3.72433 -4.03219 0
M  V30 885 H 85.1926 -1.9893 -3.94815 0
M  V30 886 N 84.2517 0.741722 -1.39055 0
M  V30 887 C 85.4977 1.50336 -1.36113 0
M  V30 888 C 85.8307 1.94148 0.0450796 0
M  V30 889 O 85.1057 1.66301 1.00868 0
M  V30 890 C 85.3887 2.74773 -2.32749 0
M  V30 891 C 85.2417 2.37023 -3.82283 0
M  V30 892 C 86.5607 3.76846 -2.27322 0
M  V30 893 H 83.6797 0.545351 -0.495743 0
M  V30 894 H 86.3217 0.848624 -1.69995 0
M  V30 895 H 84.4717 3.30639 -2.03986 0
M  V30 896 H 86.1437 1.8684 -4.21768 0
M  V30 897 H 84.3867 1.69334 -3.99385 0
M  V30 898 H 85.0577 3.26104 -4.45376 0
M  V30 899 H 87.5337 3.30548 -2.5274 0
M  V30 900 H 86.4097 4.6159 -2.97028 0
M  V30 901 H 86.6707 4.23286 -1.27599 0
M  V30 902 N 85.7298 1.2412 0.971189 0
M  V30 903 C 86.6618 0.988349 2.06795 0
M  V30 904 C 87.6748 -0.0409541 1.62748 0
M  V30 905 O 88.8638 0.195673 1.77424 0
M  V30 906 C 85.9638 0.469023 3.35639 0
M  V30 907 C 85.1368 1.56065 4.08611 0
M  V30 908 C 84.1958 1.04458 5.15728 0
M  V30 909 O 83.2218 1.73553 5.42096 0
M  V30 910 N 84.4238 -0.122817 5.8037 0
M  V30 911 H 87.1888 1.93265 2.29061 0
M  V30 912 H 84.7498 1.15102 1.13856 0
M  V30 913 H 86.7418 0.108613 4.04554 0
M  V30 914 H 85.3118 -0.380919 3.1027 0
M  V30 915 H 84.5318 2.09341 3.34021 0
M  V30 916 H 85.8198 2.29449 4.54126 0
M  V30 917 H 85.2178 -0.700563 5.61345 0
M  V30 918 H 83.7748 -0.424404 6.50417 0
M  V30 919 N 87.2079 -1.17134 1.05439 0
M  V30 920 C 88.1399 -2.2078 0.615539 0
M  V30 921 C 89.1529 -1.59584 -0.322001 0
M  V30 922 O 90.3419 -1.78133 -0.114344 0
M  V30 923 C 87.4419 -3.38691 -0.118938 0
M  V30 924 C 86.6149 -4.29454 0.829924 0
M  V30 925 C 85.6739 -5.26024 0.136258 0
M  V30 926 O 84.6999 -5.63952 0.77115 0
M  V30 927 N 85.9019 -5.69487 -1.1254 0
M  V30 928 H 88.6669 -2.59052 1.50705 0
M  V30 929 H 86.2279 -1.32058 0.936603 0
M  V30 930 H 88.2199 -4.00329 -0.593179 0
M  V30 931 H 86.7899 -2.98996 -0.91215 0
M  V30 932 H 86.0099 -3.65211 1.48373 0
M  V30 933 H 87.2979 -4.86984 1.47392 0
M  V30 934 H 86.6959 -5.4075 -1.6615 0
M  V30 935 H 85.2529 -6.33257 -1.54366 0
M  V30 936 N 88.686 -0.835752 -1.33615 0
M  V30 937 C 89.596 -0.269088 -2.33052 0
M  V30 938 C 90.612 0.603251 -1.63208 0
M  V30 939 O 91.788 0.508112 -1.94885 0
M  V30 940 C 88.853 0.549091 -3.42324 0
M  V30 941 C 87.914 -0.347156 -4.27894 0
M  V30 942 C 87.147 0.43207 -5.31948 0
M  V30 943 O 87.37 1.66409 -5.45586 0
M  V30 944 O 86.304 -0.192298 -6.01593 0
M  V30 945 H 90.13 -1.09243 -2.83372 0
M  V30 946 H 87.715 -0.598198 -1.36901 0
M  V30 947 H 89.597 1.01414 -4.09015 0
M  V30 948 H 88.272 1.34955 -2.94226 0
M  V30 949 H 87.179 -0.859979 -3.64081 0
M  V30 950 H 88.512 -1.1123 -4.79467 0
M  V30 951 N 90.1641 1.46063 -0.591896 0
M  V30 952 C 91.4131 2.01547 -0.0786637 0
M  V30 953 C 91.7261 1.46796 1.29268 0
M  V30 954 O 92.9321 1.94157 1.89777 0
M  V30 955 C 91.3881 3.59787 -0.0900024 0
M  V30 956 C 90.9961 4.23534 -1.46023 0
M  V30 957 C 92.7401 4.22895 0.368806 0
M  V30 958 C 90.6471 5.73881 -1.4288 0
M  V30 959 H 89.5771 0.753564 -0.0256388 0
M  V30 960 H 92.2281 1.677 -0.744905 0
M  V30 961 H 90.6101 3.90752 0.642586 0
M  V30 962 H 91.7841 4.04167 -2.21328 0
M  V30 963 H 90.0991 3.72558 -1.85982 0
M  V30 964 H 92.6961 5.33116 0.411258 0
M  V30 965 H 93.0391 3.9247 1.38827 0
M  V30 966 H 93.5721 3.9659 -0.31001 0
M  V30 967 H 90.3111 6.0898 -2.42536 0
M  V30 968 H 89.8311 5.95486 -0.718095 0
M  V30 969 H 91.5101 6.36776 -1.14565 0
M  V30 970 N 91.6422 0.330177 1.54103 0
M  V30 971 C 92.8912 -0.271336 1.99867 0
M  V30 972 C 93.2042 -1.52723 1.22209 0
M  V30 973 O 94.4102 -2.20515 1.58383 0
M  V30 974 C 92.8662 -0.534032 3.55916 0
M  V30 975 C 92.4742 0.705193 4.42415 0
M  V30 976 C 94.2182 -1.09514 4.1013 0
M  V30 977 C 92.1252 0.414035 5.89949 0
M  V30 978 H 91.0552 -0.105166 0.74663 0
M  V30 979 H 93.7062 0.443429 1.78062 0
M  V30 980 H 92.0882 -1.30915 3.73734 0
M  V30 981 H 93.2622 1.4804 4.36372 0
M  V30 982 H 91.5772 1.18698 3.99124 0
M  V30 983 H 94.1742 -1.3277 5.17954 0
M  V30 984 H 94.5172 -2.04656 3.62521 0
M  V30 985 H 95.0502 -0.381038 3.95971 0
M  V30 986 H 91.7892 1.33481 6.41766 0
M  V30 987 H 91.3092 -0.323336 5.98928 0
M  V30 988 H 92.9882 0.0263105 6.46995 0
M  V30 989 N 93.1203 -1.57491 0.0584922 0
M  V30 990 C 94.0533 -2.07533 -0.948969 0
M  V30 991 C 95.0313 -0.977444 -1.29942 0
M  V30 992 O 96.2153 -1.2499 -1.41102 0
M  V30 993 C 93.3423 -2.52192 -2.2609 0
M  V30 994 C 92.3883 -3.73287 -2.06298 0
M  V30 995 S 93.2213 -5.18603 -1.33459 0
M  V30 996 C 94.3773 -5.66583 -2.65959 0
M  V30 997 H 94.6103 -2.92662 -0.523118 0
M  V30 998 H 92.1433 -1.53631 -0.153954 0
M  V30 999 H 94.1013 -2.78585 -3.01498 0
M  V30 1000 H 92.7623 -1.67356 -2.65802 0
M  V30 1001 H 91.9553 -4.0248 -3.03357 0
M  V30 1002 H 91.5573 -3.47199 -1.39029 0
M  V30 1003 H 93.8493 -5.72616 -3.62101 0
M  V30 1004 H 94.7923 -6.65684 -2.41393 0
M  V30 1005 H 95.2003 -4.94342 -2.72554 0
M  V30 1006 N 94.5984 0.214957 -1.56127 0
M  V30 1007 C 95.5314 1.29382 -1.87977 0
M  V30 1008 C 96.5094 1.44897 -0.737807 0
M  V30 1009 O 97.6934 1.60605 -0.986833 0
M  V30 1010 C 94.8204 2.66325 -2.09258 0
M  V30 1011 C 93.8664 2.67789 -3.31951 0
M  V30 1012 S 94.6994 2.21198 -4.8768 0
M  V30 1013 C 95.8554 3.60003 -5.12004 0
M  V30 1014 H 96.0884 1.02173 -2.79192 0
M  V30 1015 H 93.6214 0.417516 -1.48648 0
M  V30 1016 H 95.5794 3.45162 -2.22201 0
M  V30 1017 H 94.2404 2.90755 -1.18829 0
M  V30 1018 H 93.4334 3.68436 -3.43906 0
M  V30 1019 H 93.0354 1.9702 -3.17898 0
M  V30 1020 H 95.3274 4.55739 -5.01307 0
M  V30 1021 H 96.2704 3.52959 -6.13861 0
M  V30 1022 H 96.6784 3.53996 -4.39712 0
M  V30 1023 N 96.0765 1.50051 0.48192 0
M  V30 1024 C 97.0235 1.68122 1.58125 0
M  V30 1025 C 97.9935 0.522545 1.57666 0
M  V30 1026 O 99.1785 0.751844 1.75362 0
M  V30 1027 C 96.3185 1.77142 2.96167 0
M  V30 1028 C 95.4315 3.0444 3.06497 0
M  V30 1029 C 94.5665 3.04321 4.35387 0
M  V30 1030 C 93.6055 4.26118 4.3942 0
M  V30 1031 N 92.7425 4.238 5.59766 0
M  V30 1032 H 97.5825 2.6198 1.42022 0
M  V30 1033 H 95.1195 1.29877 0.690687 0
M  V30 1034 H 97.0775 1.80352 3.76203 0
M  V30 1035 H 95.7075 0.867329 3.1093 0
M  V30 1036 H 94.7595 3.10752 2.19402 0
M  V30 1037 H 96.0715 3.94426 3.05336 0
M  V30 1038 H 95.2255 3.062 5.23762 0
M  V30 1039 H 93.9645 2.12147 4.39141 0
M  V30 1040 H 92.9695 4.24463 3.49444 0
M  V30 1041 H 94.1945 5.19507 4.37366 0
M  V30 1042 H 92.1405 3.34474 5.64326 0
M  V30 1043 H 92.0575 5.07542 5.60301 0
M  V30 1044 H 93.3255 4.2981 6.50295 0
M  V30 1045 N 97.5546 -0.734337 1.39446 0
M  V30 1046 C 98.8316 -1.48579 1.27215 0
M  V30 1047 C 99.2116 -2.1077 -0.117968 0
M  V30 1048 O 98.5596 -1.98646 -1.12924 0
M  V30 1049 C 98.7696 -2.53667 2.39696 0
M  V30 1050 C 100.118 -3.20031 2.79044 0
M  V30 1051 O 101.142 -2.6398 2.39151 0
M  V30 1052 O 100.001 -4.21455 3.47905 0
M  V30 1053 H 97.0946 -0.659816 0.49857 0
M  V30 1054 H 99.6406 -0.768106 1.51322 0
M  V30 1055 H 98.4126 -2.06096 3.32626 0
M  V30 1056 H 98.0356 -3.32994 2.17258 0
M  V30 1057 N 99.0327 -1.24633 -0.964593 0
M  V30 1058 C 100.273 -1.09981 -1.72289 0
M  V30 1059 C 100.637 0.354792 -1.88693 0
M  V30 1060 O 101.838 0.62289 -2.61483 0
M  V30 1061 C 100.109 -1.82262 -3.07434 0
M  V30 1062 S 101.668 -1.83379 -3.98645 0
M  V30 1063 H 98.4857 -0.393292 -0.59232 0
M  V30 1064 H 101.088 -1.58009 -1.15123 0
M  V30 1065 H 99.7917 -2.87206 -2.93157 0
M  V30 1066 H 99.3227 -1.3458 -3.69664 0
M  V30 1067 H 101.338 -0.903691 -4.87901 0
M  V30 1068 N 100.511 1.16574 -1.06058 0
M  V30 1069 C 101.458 2.20883 -0.669263 0
M  V30 1070 C 102.428 1.62729 0.332918 0
M  V30 1071 O 103.613 1.895 0.222346 0
M  V30 1072 C 100.753 3.45049 -0.0593572 0
M  V30 1073 C 99.8658 4.17458 -1.11143 0
M  V30 1074 C 99.0008 5.29135 -0.467916 0
M  V30 1075 C 98.0398 5.93343 -1.50369 0
M  V30 1076 N 97.1768 6.96516 -0.883706 0
M  V30 1077 H 102.017 2.53709 -1.5632 0
M  V30 1078 H 99.5538 1.24616 -0.781625 0
M  V30 1079 H 101.512 4.16033 0.311771 0
M  V30 1080 H 100.142 3.12781 0.797992 0
M  V30 1081 H 99.1938 3.45101 -1.60029 0
M  V30 1082 H 100.506 4.61307 -1.89731 0
M  V30 1083 H 99.6598 6.06684 -0.0436871 0
M  V30 1084 H 98.3988 4.86443 0.349864 0
M  V30 1085 H 97.4038 5.14517 -1.93784 0
M  V30 1086 H 98.6288 6.38114 -2.32352 0
M  V30 1087 H 96.5748 6.55943 -0.086595 0
M  V30 1088 H 96.4918 7.38723 -1.607 0
M  V30 1089 H 97.7598 7.77993 -0.484543 0
M  V30 1090 N 101.989 0.842826 1.3317 0
M  V30 1091 C 102.939 0.250877 2.26616 0
M  V30 1092 C 103.923 -0.596427 1.49437 0
M  V30 1093 O 105.115 -0.447747 1.71243 0
M  V30 1094 C 102.244 -0.569779 3.38539 0
M  V30 1095 C 101.33 0.289254 4.23112 0
M  V30 1096 N 101.721 1.36987 4.86897 0
M  V30 1097 C 100.019 0.0769631 4.45934 0
M  V30 1098 C 100.72 1.89737 5.49886 0
M  V30 1099 N 99.6959 1.19827 5.30229 0
M  V30 1100 H 103.498 1.07718 2.73448 0
M  V30 1101 H 101.012 0.687693 1.47121 0
M  V30 1102 H 103.009 -1.01018 4.04476 0
M  V30 1103 H 101.669 -1.39401 2.93253 0
M  V30 1104 H 102.68 1.75277 4.87338 0
M  V30 1105 H 99.3569 -0.713507 4.11358 0
M  V30 1106 H 100.747 2.80253 6.10662 0
M  V30 1107 N 103.467 -1.45747 0.599634 0
M  V30 1108 C 104.878 -1.85853 0.177681 0
M  V30 1109 C 105.229 -1.50102 -1.26348 0
M  V30 1110 O 104.354 -0.923905 -1.95686 0
M  V30 1111 C 104.949 -3.37326 0.315688 0
M  V30 1112 C 103.508 -3.76365 -0.0515144 0
M  V30 1113 C 102.655 -2.69722 0.643822 0
M  V30 1114 H 105.606 -1.36661 0.806814 0
M  V30 1115 H 105.627 -3.77778 -0.454321 0
M  V30 1116 H 105.139 -3.63315 1.36468 0
M  V30 1117 H 103.24 -3.55993 -1.09999 0
M  V30 1118 H 103.353 -4.77916 0.336594 0
M  V30 1119 H 101.717 -2.54567 0.0822881 0
M  V30 1120 H 102.5 -2.98549 1.6948 0
M  V30 1121 N 104.945 -0.338344 -1.53925 0
M  V30 1122 C 105.893 0.536231 -2.26335 0
M  V30 1123 C 106.887 1.1063 -1.28286 0
M  V30 1124 O 108.093 1.05264 -1.46012 0
M  V30 1125 H 104.468 0.191602 -0.727181 0
M  V30 1126 H 106.439 -0.0965747 -2.98244 0
M  V30 1127 C 105.188 1.67803 -3.04528 0
M  V30 1128 H 104.511 1.24864 -3.79801 0
M  V30 1129 H 105.951 2.26526 -3.58416 0
M  V30 1130 C 104.41 2.60439 -2.13712 0
M  V30 1131 O 104.94 3.6255 -1.72975 0
M  V30 1132 N 103.146 2.29006 -1.78898 0
M  V30 1133 H 102.693 1.46011 -2.12223 0
M  V30 1134 H 102.651 2.91248 -1.18416 0
M  V30 1135 N 106.423 1.57458 -0.0668435 0
M  V30 1136 C 107.672 1.92477 0.602947 0
M  V30 1137 C 107.985 0.948419 1.71068 0
M  V30 1138 O 109.191 1.19124 2.43971 0
M  V30 1139 C 107.647 3.41903 1.12383 0
M  V30 1140 C 107.255 4.47975 0.04737 0
M  V30 1141 C 108.999 3.85931 1.76797 0
M  V30 1142 C 106.906 5.88529 0.582022 0
M  V30 1143 H 105.836 0.718387 0.22899 0
M  V30 1144 H 108.487 1.82978 -0.138276 0
M  V30 1145 H 106.869 3.46459 1.91787 0
M  V30 1146 H 108.043 4.55029 -0.726978 0
M  V30 1147 H 106.358 4.13384 -0.500243 0
M  V30 1148 H 108.955 4.88322 2.17821 0
M  V30 1149 H 109.298 3.23029 2.62599 0
M  V30 1150 H 109.831 3.83958 1.04024 0
M  V30 1151 H 106.57 6.55065 -0.238721 0
M  V30 1152 H 106.09 5.85004 1.324 0
M  V30 1153 H 107.769 6.38258 1.05999 0
M  V30 1154 N 107.901 -0.206675 1.56239 0
M  V30 1155 C 109.147 -0.930218 1.80208 0
M  V30 1156 C 109.48 -1.83387 0.638981 0
M  V30 1157 O 108.755 -1.91119 -0.361066 0
M  V30 1158 C 109.038 -1.75641 3.1436 0
M  V30 1159 C 108.891 -0.878257 4.41142 0
M  V30 1160 C 110.21 -2.73129 3.45092 0
M  V30 1161 H 107.329 -0.336742 0.655571 0
M  V30 1162 H 109.971 -0.198222 1.88963 0
M  V30 1163 H 108.121 -2.38048 3.07027 0
M  V30 1164 H 109.793 -0.269787 4.6051 0
M  V30 1165 H 108.036 -0.184385 4.33408 0
M  V30 1166 H 108.707 -1.49106 5.3148 0
M  V30 1167 H 111.183 -2.20856 3.52649 0
M  V30 1168 H 110.059 -3.28028 4.40101 0
M  V30 1169 H 110.32 -3.51606 2.68003 0
M  V30 1170 N 109.379 -1.50304 -0.473955 0
M  V30 1171 C 110.342 -1.6841 -1.55469 0
M  V30 1172 C 111.342 -0.554905 -1.50922 0
M  V30 1173 O 112.532 -0.821882 -1.53593 0
M  V30 1174 C 109.664 -1.70667 -2.95102 0
M  V30 1175 H 110.857 -2.64828 -1.40733 0
M  V30 1176 H 108.41 -1.39742 -0.700132 0
M  V30 1177 H 109.145 -0.75932 -3.15285 0
M  V30 1178 H 108.93 -2.52698 -2.9981 0
M  V30 1179 H 110.42 -1.8664 -3.73571 0
M  V30 1180 N 110.857 0.726932 -1.39834 0
M  V30 1181 C 112.087 1.51393 -1.40583 0
M  V30 1182 C 112.495 1.892 -0.000740625 0
M  V30 1183 O 111.838 1.55189 0.982951 0
M  V30 1184 C 111.9 2.82588 -2.22226 0
M  V30 1185 C 111.564 2.67169 -3.70769 0
M  V30 1186 C 112.561 2.3518 -4.63666 0
M  V30 1187 C 110.246 2.83788 -4.14451 0
M  V30 1188 C 112.24 2.20002 -5.98229 0
M  V30 1189 C 109.927 2.68229 -5.49087 0
M  V30 1190 C 110.925 2.36382 -6.4079 0
M  V30 1191 O 110.613 2.2093 -7.72946 0
M  V30 1192 H 110.345 0.474168 -0.48181 0
M  V30 1193 H 112.899 0.905247 -1.84376 0
M  V30 1194 H 111.129 3.45746 -1.73195 0
M  V30 1195 H 112.818 3.44247 -2.15055 0
M  V30 1196 H 113.584 2.21984 -4.31217 0
M  V30 1197 H 109.463 3.07566 -3.43401 0
M  V30 1198 H 113.007 1.95067 -6.69772 0
M  V30 1199 H 108.904 2.81006 -5.81125 0
M  V30 1200 H 109.672 2.35937 -7.83757 0
M  V30 1201 N 112.336 1.25143 0.95797 0
M  V30 1202 C 113.583 1.09692 1.70217 0
M  V30 1203 C 113.911 -0.362654 1.91089 0
M  V30 1204 O 113.166 -1.28386 1.47701 0
M  V30 1205 C 113.465 1.79272 3.09187 0
M  V30 1206 C 113.131 3.29196 3.08125 0
M  V30 1207 C 111.793 3.70096 3.07543 0
M  V30 1208 C 114.145 4.24995 3.0171 0
M  V30 1209 C 111.473 5.05213 2.9829 0
M  V30 1210 C 113.825 5.60132 2.93999 0
M  V30 1211 C 112.489 6.00365 2.9175 0
M  V30 1212 H 111.759 0.401393 0.622868 0
M  V30 1213 H 114.406 1.55372 1.11945 0
M  V30 1214 H 112.711 1.26014 3.70982 0
M  V30 1215 H 114.408 1.64773 3.65583 0
M  V30 1216 H 110.998 2.96651 3.09348 0
M  V30 1217 H 115.182 3.9439 3.01281 0
M  V30 1218 H 110.438 5.35569 2.94916 0
M  V30 1219 H 114.612 6.3406 2.87996 0
M  V30 1220 H 112.239 7.05023 2.84336 0
M  V30 1221 N 113.814 -1.1601 1.06675 0
M  V30 1222 C 115.062 -1.86264 0.784229 0
M  V30 1223 C 115.383 -1.82328 -0.691488 0
M  V30 1224 O 114.653 -1.25947 -1.50047 0
M  V30 1225 H 113.233 -0.689621 0.28711 0
M  V30 1226 H 115.895 -1.40664 1.34906 0
M  V30 1227 H 114.991 -2.91595 1.11259 0
M  V30 1228 N 115.292 -0.849877 -1.32721 0
M  V30 1229 C 116.517 -0.463856 -2.02146 0
M  V30 1230 C 116.942 0.930449 -1.63476 0
M  V30 1231 O 116.3 1.61033 -0.832952 0
M  V30 1232 C 116.348 -0.604955 -3.55489 0
M  V30 1233 O 115.452 0.36425 -4.10788 0
M  V30 1234 H 114.793 -0.187046 -0.637111 0
M  V30 1235 H 117.323 -1.14775 -1.69375 0
M  V30 1236 H 117.333 -0.490696 -4.05038 0
M  V30 1237 H 116.008 -1.62174 -3.82978 0
M  V30 1238 H 114.585 0.206628 -3.72327 0
M  V30 1239 N 116.77 1.45427 -0.607355 0
M  V30 1240 C 118 2.06314 -0.108656 0
M  V30 1241 C 118.408 1.45269 1.21217 0
M  V30 1242 O 117.751 0.561115 1.74921 0
M  V30 1243 C 117.813 3.59345 0.105618 0
M  V30 1244 C 117.477 4.42723 -1.13337 0
M  V30 1245 C 118.474 4.77715 -2.05145 0
M  V30 1246 C 116.159 4.83478 -1.36213 0
M  V30 1247 C 118.153 5.52317 -3.18158 0
M  V30 1248 C 115.84 5.57835 -2.49527 0
M  V30 1249 C 116.838 5.92171 -3.40327 0
M  V30 1250 O 116.526 6.65019 -4.51669 0
M  V30 1251 H 116.258 0.672782 -0.0658842 0
M  V30 1252 H 118.812 1.87664 -0.834945 0
M  V30 1253 H 117.042 3.76394 0.886796 0
M  V30 1254 H 118.731 4.02076 0.555886 0
M  V30 1255 H 119.497 4.46787 -1.88697 0
M  V30 1256 H 115.376 4.56188 -0.664362 0
M  V30 1257 H 118.92 5.79036 -3.89054 0
M  V30 1258 H 114.817 5.88177 -2.65928 0
M  V30 1259 H 115.585 6.83469 -4.50348 0
M  V30 1260 N 118.248 0.346503 1.53744 0
M  V30 1261 C 119.178 -0.501193 2.28058 0
M  V30 1262 C 120.159 -1.10014 1.29734 0
M  V30 1263 O 121.344 -1.12097 1.58581 0
M  V30 1264 C 118.474 -1.65078 3.05559 0
M  V30 1265 C 117.428 -1.18003 4.11411 0
M  V30 1266 C 116.754 -2.41837 4.76884 0
M  V30 1267 C 118.054 -0.278394 5.21558 0
M  V30 1268 H 119.748 0.11875 2.99164 0
M  V30 1269 H 117.294 0.0585531 1.43881 0
M  V30 1270 H 119.247 -2.25028 3.56287 0
M  V30 1271 H 117.971 -2.29767 2.32109 0
M  V30 1272 H 116.63 -0.603331 3.61601 0
M  V30 1273 H 116.278 -3.0494 4.00026 0
M  V30 1274 H 115.978 -2.1102 5.48402 0
M  V30 1275 H 117.502 -3.02508 5.30397 0
M  V30 1276 H 118.916 -0.784823 5.67903 0
M  V30 1277 H 117.313 -0.0619707 6.00068 0
M  V30 1278 H 118.383 0.684677 4.80042 0
M  V30 1279 N 119.726 -1.57421 0.075193 0
M  V30 1280 C 121.142 -1.57099 -0.281444 0
M  V30 1281 C 121.342 -1.08486 -1.69803 0
M  V30 1282 O 120.398 -0.752279 -2.41033 0
M  V30 1283 C 121.711 -3.00571 -0.0880041 0
M  V30 1284 C 123.259 -3.12605 -0.157281 0
M  V30 1285 C 123.734 -4.57999 0.0079207 0
M  V30 1286 N 125.225 -4.63176 -0.0475725 0
M  V30 1287 C 125.96 -5.73373 0.0557876 0
M  V30 1288 N 125.456 -6.92473 0.21286 0
M  V30 1289 N 127.249 -5.621 -0.00152098 0
M  V30 1290 H 119.4 -1.87335 1.00098 0
M  V30 1291 H 121.663 -0.86377 0.390646 0
M  V30 1292 H 121.369 -3.40262 0.889629 0
M  V30 1293 H 121.243 -3.67754 -0.838875 0
M  V30 1294 H 123.63 -2.72798 -1.1254 0
M  V30 1295 H 123.711 -2.48053 0.62475 0
M  V30 1296 H 123.355 -4.98496 0.972824 0
M  V30 1297 H 123.285 -5.20586 -0.793556 0
M  V30 1298 H 125.776 -3.7753 -0.167244 0
M  V30 1299 H 126.089 -7.72279 0.283781 0
M  V30 1300 H 124.434 -6.94556 0.248267 0
M  V30 1301 H 127.625 -4.67938 -0.122958 0
M  V30 1302 H 127.798 -6.47948 0.0824844 0
M  V30 1303 N 121.204 0.198386 -1.56346 0
M  V30 1304 C 122.62 0.549085 -1.49857 0
M  V30 1305 C 122.82 1.86016 -0.774611 0
M  V30 1306 O 121.876 2.50416 -0.323776 0
M  V30 1307 C 123.189 0.606868 -2.94512 0
M  V30 1308 C 124.737 0.695925 -3.05165 0
M  V30 1309 C 125.212 0.784848 -4.51225 0
M  V30 1310 N 126.703 0.848463 -4.55363 0
M  V30 1311 C 127.438 0.937378 -5.65686 0
M  V30 1312 N 126.934 0.9888 -6.85707 0
M  V30 1313 N 128.727 0.974312 -5.53592 0
M  V30 1314 H 120.878 -0.661655 -2.01831 0
M  V30 1315 H 123.141 -0.235261 -0.918344 0
M  V30 1316 H 122.847 -0.28732 -3.50524 0
M  V30 1317 H 122.721 1.46268 -3.47686 0
M  V30 1318 H 125.108 1.58055 -2.49204 0
M  V30 1319 H 125.189 -0.186022 -2.55123 0
M  V30 1320 H 124.833 -0.0954072 -5.0781 0
M  V30 1321 H 124.763 1.68255 -4.98997 0
M  V30 1322 H 127.254 0.818103 -3.68938 0
M  V30 1323 H 127.567 1.05707 -7.65536 0
M  V30 1324 H 125.912 0.957534 -6.88372 0
M  V30 1325 H 129.103 0.930954 -4.58749 0
M  V30 1326 H 129.276 1.04015 -6.39597 0
M  V30 1327 N 122.682 1.50554 0.465978 0
M  V30 1328 C 123.959 1.5232 1.22712 0
M  V30 1329 C 124.339 0.270807 2.09356 0
M  V30 1330 O 123.687 -0.745541 2.15995 0
M  V30 1331 C 123.897 2.82175 2.05374 0
M  V30 1332 C 125.245 3.33033 2.6339 0
M  V30 1333 O 126.269 2.83531 2.15612 0
M  V30 1334 O 125.128 4.19336 3.50456 0
M  V30 1335 H 122.222 0.611183 0.557122 0
M  V30 1336 H 124.768 1.62847 0.477381 0
M  V30 1337 H 123.54 3.64797 1.41558 0
M  V30 1338 H 123.163 2.74675 2.87471 0
M  V30 1339 N 124.16 -0.719506 1.40217 0
M  V30 1340 C 125.107 -1.83359 1.40172 0
M  V30 1341 C 126.077 -1.64065 0.259206 0
M  V30 1342 O 127.262 -1.85254 0.456677 0
M  V30 1343 C 124.402 -3.2103 1.26624 0
M  V30 1344 C 123.515 -3.51923 2.50548 0
M  V30 1345 C 122.65 -4.79079 2.29471 0
M  V30 1346 C 121.689 -5.02863 3.48992 0
M  V30 1347 N 120.826 -6.2123 3.27135 0
M  V30 1348 H 125.666 -1.82733 2.35399 0
M  V30 1349 H 123.203 -0.892688 1.16917 0
M  V30 1350 H 125.161 -4.00524 1.16776 0
M  V30 1351 H 123.791 -3.20895 0.350176 0
M  V30 1352 H 122.843 -2.67014 2.70939 0
M  V30 1353 H 124.155 -3.6541 3.39525 0
M  V30 1354 H 123.309 -5.66582 2.16955 0
M  V30 1355 H 122.048 -4.67794 1.37913 0
M  V30 1356 H 121.053 -4.13816 3.6199 0
M  V30 1357 H 122.278 -5.16023 4.41472 0
M  V30 1358 H 120.224 -6.11204 2.38256 0
M  V30 1359 H 120.141 -6.35375 4.09675 0
M  V30 1360 H 121.409 -7.11532 3.18344 0
M  V30 1361 N 125.638 -1.25649 -0.95132 0
M  V30 1362 C 126.568 -1.08808 -2.06599 0
M  V30 1363 C 127.549 0.00382547 -1.701 0
M  V30 1364 O 128.734 -0.166325 -1.93486 0
M  V30 1365 C 125.864 -0.709542 -3.39975 0
M  V30 1366 C 124.818 -1.75206 -3.90496 0
M  V30 1367 C 124.144 -1.22811 -5.20405 0
M  V30 1368 C 125.444 -3.15153 -4.16504 0
M  V30 1369 H 127.138 -2.02048 -2.20946 0
M  V30 1370 H 124.684 -0.972835 -1.06169 0
M  V30 1371 H 126.637 -0.578649 -4.17408 0
M  V30 1372 H 125.361 0.258556 -3.25575 0
M  V30 1373 H 124.02 -1.87145 -3.15234 0
M  V30 1374 H 123.668 -0.250145 -5.02378 0
M  V30 1375 H 123.368 -1.92492 -5.55176 0
M  V30 1376 H 124.892 -1.10968 -6.00432 0
M  V30 1377 H 126.306 -3.06349 -4.84586 0
M  V30 1378 H 124.703 -3.82333 -4.62538 0
M  V30 1379 H 125.773 -3.61966 -3.22658 0
M  V30 1380 N 127.117 1.15442 -1.07289 0
M  V30 1381 C 128.363 1.8672 -0.806679 0
M  V30 1382 C 128.718 1.80723 0.660084 0
M  V30 1383 O 128.011 1.21902 1.47819 0
M  V30 1384 C 128.205 3.3489 -1.24834 0
M  V30 1385 C 128.034 3.55313 -2.7565 0
M  V30 1386 C 126.804 3.7082 -3.4325 0
M  V30 1387 C 129.002 3.53188 -3.73848 0
M  V30 1388 N 126.984 3.7929 -4.82713 0
M  V30 1389 C 128.355 3.67765 -4.99149 0
M  V30 1390 C 130.41 3.36459 -3.67015 0
M  V30 1391 C 129.113 3.6734 -6.18428 0
M  V30 1392 C 131.139 3.37333 -4.85758 0
M  V30 1393 C 130.501 3.52438 -6.09891 0
M  V30 1394 H 126.6 0.700433 -0.347733 0
M  V30 1395 H 129.184 1.38441 -1.36902 0
M  V30 1396 H 127.355 3.81786 -0.713713 0
M  V30 1397 H 129.087 3.93875 -0.929745 0
M  V30 1398 H 125.842 3.71568 -2.93656 0
M  V30 1399 H 126.266 3.8727 -5.55294 0
M  V30 1400 H 130.908 3.237 -2.71989 0
M  V30 1401 H 128.626 3.78878 -7.13777 0
M  V30 1402 H 132.212 3.25617 -4.82146 0
M  V30 1403 H 131.092 3.53047 -7.00234 0
M  V30 1404 N 128.595 0.856903 1.32268 0
M  V30 1405 C 129.844 0.457599 1.96441 0
M  V30 1406 C 130.157 -0.992426 1.68553 0
M  V30 1407 O 131.363 -1.49727 2.26482 0
M  V30 1408 C 129.819 0.767358 3.51624 0
M  V30 1409 C 129.427 2.23326 3.88367 0
M  V30 1410 C 131.171 0.435887 4.22256 0
M  V30 1411 C 129.078 2.48613 5.36606 0
M  V30 1412 H 128.008 0.167387 0.735185 0
M  V30 1413 H 130.659 1.048 1.5063 0
M  V30 1414 H 129.041 0.106367 3.95857 0
M  V30 1415 H 130.215 2.93623 3.55137 0
M  V30 1416 H 128.53 2.52948 3.30766 0
M  V30 1417 H 131.127 0.602202 5.31298 0
M  V30 1418 H 131.47 -0.622672 4.11617 0
M  V30 1419 H 132.003 1.05286 3.83614 0
M  V30 1420 H 128.742 3.53101 5.52268 0
M  V30 1421 H 128.262 1.82896 5.71235 0
M  V30 1422 H 129.941 2.32676 6.03714 0
M  V30 1423 N 130.073 -1.45103 0.615059 0
M  V30 1424 C 131.313 -2.04069 0.116282 0
M  V30 1425 C 131.677 -1.4721 -1.2326 0
M  V30 1426 O 132.878 -1.97577 -1.82255 0
M  V30 1427 C 131.149 -3.57298 0.085482 0
M  V30 1428 S 132.708 -4.37394 -0.351015 0
M  V30 1429 H 129.526 -0.709006 0.0532183 0
M  V30 1430 H 132.128 -1.77709 0.81484 0
M  V30 1431 H 130.832 -3.9619 1.0706 0
M  V30 1432 H 130.363 -3.88244 -0.634835 0
M  V30 1433 H 132.378 -4.69734 -1.59889 0
M  V30 1434 N 131.551 -0.354651 -1.53558 0
M  V30 1435 C 132.484 0.540273 -2.21712 0
M  V30 1436 C 133.462 1.09161 -1.2051 0
M  V30 1437 O 134.646 1.14979 -1.49372 0
M  V30 1438 C 131.773 1.74435 -2.90328 0
M  V30 1439 C 130.819 1.32146 -4.05512 0
M  V30 1440 S 131.652 0.331924 -5.3447 0
M  V30 1441 C 132.808 1.54258 -6.06593 0
M  V30 1442 H 133.041 -0.0385776 -2.97275 0
M  V30 1443 H 130.574 -0.138736 -1.53775 0
M  V30 1444 H 132.532 2.43507 -3.30476 0
M  V30 1445 H 131.193 2.29444 -2.1451 0
M  V30 1446 H 130.386 2.21952 -4.52497 0
M  V30 1447 H 129.988 0.710091 -3.67197 0
M  V30 1448 H 132.28 2.47534 -6.30661 0
M  V30 1449 H 133.223 1.11431 -6.99277 0
M  V30 1450 H 133.631 1.74367 -5.36895 0
M  V30 1451 N 133.029 1.57378 -0.0835403 0
M  V30 1452 C 133.939 2.16897 0.894021 0
M  V30 1453 C 134.955 1.13528 1.31861 0
M  V30 1454 O 136.131 1.45848 1.3889 0
M  V30 1455 C 133.196 2.72831 2.13925 0
M  V30 1456 C 132.257 3.91115 1.76997 0
M  V30 1457 C 131.49 4.44371 2.95584 0
M  V30 1458 O 131.713 3.96596 4.09961 0
M  V30 1459 O 130.647 5.35549 2.74719 0
M  V30 1460 H 134.473 3.00814 0.417679 0
M  V30 1461 H 132.058 1.48741 0.140181 0
M  V30 1462 H 133.94 3.0863 2.86924 0
M  V30 1463 H 132.615 1.91967 2.60635 0
M  V30 1464 H 131.522 3.60148 1.01214 0
M  V30 1465 H 132.855 4.73307 1.3506 0
M  V30 1466 N 134.507 -0.190092 1.56449 0
M  V30 1467 C 135.754 -0.909705 1.80916 0
M  V30 1468 C 136.082 -1.83047 0.657583 0
M  V30 1469 O 135.337 -1.92428 -0.356356 0
M  V30 1470 C 135.636 -1.75382 3.1141 0
M  V30 1471 C 135.302 -0.983606 4.40041 0
M  V30 1472 C 133.964 -0.770967 4.74984 0
M  V30 1473 C 136.316 -0.442024 5.19322 0
M  V30 1474 C 133.644 -0.0053448 5.867 0
M  V30 1475 C 135.996 0.310412 6.31838 0
M  V30 1476 C 134.66 0.534023 6.6536 0
M  V30 1477 H 133.93 -0.332885 0.662019 0
M  V30 1478 H 136.577 -0.175762 1.90692 0
M  V30 1479 H 134.882 -2.55659 2.96893 0
M  V30 1480 H 136.579 -2.31331 3.27547 0
M  V30 1481 H 133.169 -1.15936 4.12622 0
M  V30 1482 H 137.353 -0.593693 4.92736 0
M  V30 1483 H 132.609 0.177825 6.11141 0
M  V30 1484 H 136.783 0.737419 6.92485 0
M  V30 1485 H 134.41 1.12918 7.51767 0
M  V30 1486 N 135.985 -1.50799 -0.457987 0
M  V30 1487 C 137.225 -1.64088 -1.21879 0
M  V30 1488 C 137.589 -0.339848 -1.88968 0
M  V30 1489 O 138.79 -0.348301 -2.66534 0
M  V30 1490 C 137.061 -2.79726 -2.2246 0
M  V30 1491 S 138.62 -3.13225 -3.07303 0
M  V30 1492 H 135.438 -0.578314 -0.41361 0
M  V30 1493 H 138.04 -1.88632 -0.513645 0
M  V30 1494 H 136.744 -3.72722 -1.71775 0
M  V30 1495 H 136.275 -2.57308 -2.97584 0
M  V30 1496 H 138.29 -2.58062 -4.23814 0
M  V30 1497 N 137.463 0.71206 -1.40597 0
M  V30 1498 C 138.711 1.46907 -1.38791 0
M  V30 1499 C 139.032 1.94998 0.00780391 0
M  V30 1500 O 138.302 1.70587 0.963174 0
M  V30 1501 H 136.882 0.545043 -0.51082 0
M  V30 1502 H 139.544 0.843882 -1.75683 0
M  V30 1503 H 138.64 2.34021 -2.06496 0
M  V30 1504 N 138.941 1.26152 0.944643 0
M  V30 1505 C 140.189 1.11271 1.6871 0
M  V30 1506 C 140.51 -0.345166 1.91921 0
M  V30 1507 O 139.78 -1.24387 1.51343 0
M  V30 1508 H 138.36 0.408783 0.625224 0
M  V30 1509 H 141.022 1.58427 1.1352 0
M  V30 1510 H 140.118 1.62879 2.66227 0
M  V30 1511 N 140.419 -1.14872 1.07899 0
M  V30 1512 C 141.667 -1.85422 0.803941 0
M  V30 1513 C 141.988 -1.83051 -0.67211 0
M  V30 1514 O 141.258 -1.27532 -1.48703 0
M  V30 1515 H 139.838 -0.686537 0.294408 0
M  V30 1516 H 142.5 -1.39226 1.3639 0
M  V30 1517 H 141.596 -2.90399 1.14346 0
M  V30 1518 N 141.898 -0.863906 -1.31812 0
M  V30 1519 C 143.123 -0.48527 -2.01643 0
M  V30 1520 C 143.548 0.913058 -1.64453 0
M  V30 1521 O 142.906 1.6014 -0.849985 0
M  V30 1522 C 142.954 -0.642625 -3.54828 0
M  V30 1523 O 142.058 0.320659 -4.11151 0
M  V30 1524 H 141.399 -0.193793 -0.635091 0
M  V30 1525 H 143.929 -1.16565 -1.68148 0
M  V30 1526 H 143.939 -0.533628 -4.04495 0
M  V30 1527 H 142.614 -1.66227 -3.81237 0
M  V30 1528 H 141.191 0.167126 -3.72525 0
M  V30 1529 N 143.376 1.44774 -0.622745 0
M  V30 1530 C 144.306 2.33382 0.0741861 0
M  V30 1531 C 145.287 1.47719 0.843387 0
M  V30 1532 O 146.472 1.76458 0.810934 0
M  V30 1533 C 143.602 3.30663 1.06204 0
M  V30 1534 C 142.556 4.26079 0.405037 0
M  V30 1535 C 141.882 5.13165 1.5022 0
M  V30 1536 C 143.182 5.1781 -0.683414 0
M  V30 1537 H 144.876 2.91905 -0.665713 0
M  V30 1538 H 142.422 1.40363 -0.321587 0
M  V30 1539 H 144.375 3.9153 1.55827 0
M  V30 1540 H 143.099 2.70331 1.83272 0
M  V30 1541 H 141.758 3.66532 -0.0704683 0
M  V30 1542 H 141.406 4.49191 2.26355 0
M  V30 1543 H 141.106 5.77812 1.06803 0
M  V30 1544 H 142.63 5.76902 2.00041 0
M  V30 1545 H 144.044 5.72661 -0.270631 0
M  V30 1546 H 142.441 5.91015 -1.04023 0
M  V30 1547 H 143.511 4.59326 -1.55395 0
M  V30 1548 N 144.854 0.36279 1.53368 0
M  V30 1549 C 145.786 -0.519668 2.23231 0
M  V30 1550 C 146.799 -1.04844 1.24546 0
M  V30 1551 O 147.988 -0.955296 1.50786 0
M  V30 1552 C 145.088 -1.72995 2.9142 0
M  V30 1553 C 144.261 -1.33316 4.16588 0
M  V30 1554 C 143.32 -2.40521 4.68013 0
M  V30 1555 O 142.346 -2.03027 5.3176 0
M  V30 1556 N 143.548 -3.72065 4.45587 0
M  V30 1557 H 146.313 0.078751 2.99597 0
M  V30 1558 H 143.874 0.187833 1.60807 0
M  V30 1559 H 145.866 -2.44184 3.22733 0
M  V30 1560 H 144.436 -2.2353 2.18525 0
M  V30 1561 H 143.656 -0.451236 3.91609 0
M  V30 1562 H 144.944 -1.04432 4.97967 0
M  V30 1563 H 144.342 -4.05304 3.94646 0
M  V30 1564 H 142.899 -4.39366 4.81457 0
M  V30 1565 N 146.332 -1.57332 0.0918853 0
M  V30 1566 C 147.609 -1.85691 -0.614668 0
M  V30 1567 C 147.989 -0.988146 -1.86545 0
M  V30 1568 O 147.337 -0.0597055 -2.28422 0
M  V30 1569 C 147.547 -3.36294 -0.933126 0
M  V30 1570 C 148.895 -4.04275 -1.29796 0
M  V30 1571 O 149.919 -3.41157 -1.02424 0
M  V30 1572 O 148.778 -5.1564 -1.81047 0
M  V30 1573 H 145.872 -0.767802 -0.307261 0
M  V30 1574 H 148.418 -1.69244 0.12434 0
M  V30 1575 H 147.19 -3.91273 -0.0456404 0
M  V30 1576 H 146.813 -3.58076 -1.72822 0
M  V30 1577 N 147.81 0.181792 -1.56548 0
M  V30 1578 C 149.059 0.898348 -1.8059 0
M  V30 1579 C 149.372 1.83862 -0.667379 0
M  V30 1580 O 150.578 2.59678 -0.792446 0
M  V30 1581 C 149.034 1.64791 -3.19956 0
M  V30 1582 C 148.642 0.751789 -4.41647 0
M  V30 1583 C 150.386 2.35331 -3.53298 0
M  V30 1584 C 148.293 1.50098 -5.72035 0
M  V30 1585 H 147.223 0.339194 -0.673397 0
M  V30 1586 H 149.874 0.151413 -1.82874 0
M  V30 1587 H 148.256 2.43921 -3.11959 0
M  V30 1588 H 149.43 -0.0018076 -4.608 0
M  V30 1589 H 147.745 0.156562 -4.16106 0
M  V30 1590 H 150.342 2.91958 -4.47956 0
M  V30 1591 H 150.685 3.10164 -2.77676 0
M  V30 1592 H 151.218 1.63154 -3.62803 0
M  V30 1593 H 147.957 0.795175 -6.50659 0
M  V30 1594 H 147.477 2.22817 -5.56878 0
M  V30 1595 H 149.156 2.05125 -6.13622 0
M  V30 1596 N 149.288 1.51039 0.449983 0
M  V30 1597 C 150.518 1.66627 1.22143 0
M  V30 1598 C 150.926 0.357776 1.85786 0
M  V30 1599 O 150.269 -0.672424 1.70951 0
M  V30 1600 C 150.331 2.71562 2.35573 0
M  V30 1601 C 149.995 4.14526 1.92399 0
M  V30 1602 C 150.992 4.99717 1.43453 0
M  V30 1603 C 148.677 4.60559 2.00475 0
M  V30 1604 C 150.671 6.28998 1.03155 0
M  V30 1605 C 148.358 5.8984 1.59788 0
M  V30 1606 C 149.356 6.73886 1.11208 0
M  V30 1607 O 149.044 8.0075 0.710935 0
M  V30 1608 H 148.776 0.562635 0.374724 0
M  V30 1609 H 151.33 1.98146 0.541036 0
M  V30 1610 H 149.56 2.3533 3.06849 0
M  V30 1611 H 151.249 2.76156 2.97478 0
M  V30 1612 H 152.015 4.65361 1.36618 0
M  V30 1613 H 147.894 3.95273 2.37235 0
M  V30 1614 H 151.438 6.9455 0.651663 0
M  V30 1615 H 147.335 6.23713 1.66289 0
M  V30 1616 H 148.103 8.142 0.837913 0
M  V30 1617 N 150.766 -0.704594 1.40972 0
M  V30 1618 C 151.716 -1.81051 1.38581 0
M  V30 1619 C 152.7 -1.58759 0.261585 0
M  V30 1620 O 153.892 -1.69745 0.501556 0
M  V30 1621 C 151.021 -3.19279 1.26157 0
M  V30 1622 C 150.107 -3.47296 2.43405 0
M  V30 1623 N 150.498 -3.46064 3.68881 0
M  V30 1624 C 148.796 -3.77804 2.37023 0
M  V30 1625 C 149.497 -3.72733 4.46592 0
M  V30 1626 N 148.473 -3.9203 3.76581 0
M  V30 1627 H 152.275 -1.78448 2.33525 0
M  V30 1628 H 149.789 -0.904198 1.349 0
M  V30 1629 H 151.786 -3.98488 1.22526 0
M  V30 1630 H 150.446 -3.231 0.321902 0
M  V30 1631 H 151.457 -3.26656 4.01891 0
M  V30 1632 H 148.134 -3.8905 1.51481 0
M  V30 1633 H 149.524 -3.77993 5.55492 0
M  V30 1634 N 152.244 -1.26651 -0.937939 0
M  V30 1635 C 153.49 -1.12553 -1.687 0
M  V30 1636 C 153.823 0.329782 -1.91379 0
M  V30 1637 O 153.098 1.24202 -1.4968 0
M  V30 1638 C 153.381 -1.89862 -3.05981 0
M  V30 1639 C 153.234 -3.43318 -2.90607 0
M  V30 1640 C 154.553 -1.69499 -4.0615 0
M  V30 1641 H 151.672 -0.410257 -0.612257 0
M  V30 1642 H 154.314 -1.55685 -1.08913 0
M  V30 1643 H 152.464 -1.53204 -3.57017 0
M  V30 1644 H 154.136 -3.89747 -2.46769 0
M  V30 1645 H 152.379 -3.70179 -2.26164 0
M  V30 1646 H 153.05 -3.92642 -3.8799 0
M  V30 1647 H 155.526 -2.01442 -3.64088 0
M  V30 1648 H 154.402 -2.26002 -5.00214 0
M  V30 1649 H 154.663 -0.640365 -4.37438 0
M  V30 1650 N 153.722 1.14298 -1.08507 0
M  V30 1651 C 154.95 1.89219 -0.836876 0
M  V30 1652 C 155.365 1.78638 0.611054 0
M  V30 1653 O 154.722 1.14643 1.41998 0
M  V30 1654 C 154.773 3.39158 -1.25116 0
M  V30 1655 O 154.494 3.49449 -2.64229 0
M  V30 1656 C 155.995 4.31073 -1.03398 0
M  V30 1657 H 153.215 0.599328 -0.301739 0
M  V30 1658 H 155.759 1.44746 -1.44461 0
M  V30 1659 H 153.914 3.81251 -0.687514 0
M  V30 1660 H 154.328 4.42589 -2.81452 0
M  V30 1661 H 155.802 5.34646 -1.37323 0
M  V30 1662 H 156.279 4.3919 0.0289259 0
M  V30 1663 H 156.885 3.94738 -1.58311 0
M  V30 1664 N 155.201 0.870884 1.31352 0
M  V30 1665 C 156.449 0.48132 1.96285 0
M  V30 1666 C 156.77 -0.969813 1.69173 0
M  V30 1667 O 156.04 -1.67998 1.00764 0
M  V30 1668 H 154.62 0.175002 0.726212 0
M  V30 1669 H 157.282 1.11087 1.60143 0
M  V30 1670 H 156.378 0.639825 3.05471 0
M  V30 1671 N 156.679 -1.44442 0.630414 0
M  V30 1672 C 158.09 -1.85434 0.217063 0
M  V30 1673 C 158.441 -1.52748 -1.23136 0
M  V30 1674 O 157.566 -0.965205 -1.93682 0
M  V30 1675 C 158.161 -3.36581 0.387168 0
M  V30 1676 C 156.72 -3.76389 0.0283297 0
M  V30 1677 C 155.867 -2.68296 0.700889 0
M  V30 1678 H 158.818 -1.34919 0.83562 0
M  V30 1679 H 158.839 -3.78657 -0.374086 0
M  V30 1680 H 158.351 -3.60339 1.44144 0
M  V30 1681 H 156.452 -3.58246 -1.02423 0
M  V30 1682 H 156.565 -4.77095 0.437892 0
M  V30 1683 H 154.929 -2.54335 0.136267 0
M  V30 1684 H 155.712 -2.94887 1.75774 0
M  V30 1685 N 158.157 -0.370918 -1.53173 0
M  V30 1686 C 159.087 0.464847 -2.28826 0
M  V30 1687 C 160.068 1.07936 -1.31468 0
M  V30 1688 O 161.253 1.0956 -1.60344 0
M  V30 1689 C 158.383 1.60196 -3.08147 0
M  V30 1690 C 157.337 1.11443 -4.13237 0
M  V30 1691 C 156.663 2.3422 -4.80672 0
M  V30 1692 C 157.963 0.195384 -5.21934 0
M  V30 1693 H 159.657 -0.166329 -2.98938 0
M  V30 1694 H 157.203 -0.0814359 -1.4377 0
M  V30 1695 H 159.156 2.19332 -3.59822 0
M  V30 1696 H 157.88 2.26045 -2.35735 0
M  V30 1697 H 156.539 0.545727 -3.62515 0
M  V30 1698 H 156.187 2.98537 -4.04827 0
M  V30 1699 H 155.887 2.02269 -5.51689 0
M  V30 1700 H 157.411 2.94032 -5.35143 0
M  V30 1701 H 158.825 0.694375 -5.69079 0
M  V30 1702 H 157.222 -0.0335027 -6.00091 0
M  V30 1703 H 158.292 -0.760961 -4.78892 0
M  V30 1704 N 159.635 1.57281 -0.100228 0
M  V30 1705 C 160.86 1.99302 0.573881 0
M  V30 1706 C 161.285 0.979059 1.60611 0
M  V30 1707 O 160.643 -0.0517803 1.81226 0
M  V30 1708 C 160.691 3.40274 1.19358 0
M  V30 1709 O 159.795 3.41676 2.30935 0
M  V30 1710 H 159.136 0.647944 0.145138 0
M  V30 1711 H 161.666 2.03779 -0.183156 0
M  V30 1712 H 161.676 3.78078 1.53365 0
M  V30 1713 H 160.351 4.13594 0.437385 0
M  V30 1714 H 158.928 3.15672 1.98509 0
M  V30 1715 N 161.113 -0.173488 1.56642 0
M  V30 1716 C 162.023 -1.23482 1.99473 0
M  V30 1717 C 163.039 -1.48567 0.905752 0
M  V30 1718 O 164.215 -1.60758 1.21321 0
M  V30 1719 C 161.28 -2.55444 2.34413 0
M  V30 1720 C 160.341 -2.38241 3.57127 0
M  V30 1721 C 159.574 -3.63909 3.90392 0
M  V30 1722 O 159.797 -4.68996 3.24653 0
M  V30 1723 O 158.731 -3.58149 4.83749 0
M  V30 1724 H 162.557 -0.901279 2.90018 0
M  V30 1725 H 160.142 -0.380185 1.44482 0
M  V30 1726 H 162.024 -3.33292 2.57865 0
M  V30 1727 H 160.699 -2.88382 1.4703 0
M  V30 1728 H 159.606 -1.58431 3.38896 0
M  V30 1729 H 160.939 -2.10228 4.45045 0
M  V30 1730 N 162.591 -1.51276 -0.441967 0
M  V30 1731 C 163.521 -1.752 -1.54361 0
M  V30 1732 C 164.502 -0.601682 -1.59103 0
M  V30 1733 O 165.687 -0.843913 -1.74905 0
M  V30 1734 C 162.817 -1.87282 -2.92477 0
M  V30 1735 C 161.771 -3.02687 -3.02596 0
M  V30 1736 C 161.097 -2.99947 -4.42647 0
M  V30 1737 C 162.397 -4.4273 -2.77106 0
M  V30 1738 H 164.091 -2.67442 -1.34592 0
M  V30 1739 H 161.637 -1.28694 -0.646048 0
M  V30 1740 H 163.59 -2.02602 -3.695 0
M  V30 1741 H 162.314 -0.916844 -3.13467 0
M  V30 1742 H 160.973 -2.87065 -2.28012 0
M  V30 1743 H 160.621 -2.02136 -4.60597 0
M  V30 1744 H 160.321 -3.77439 -4.50348 0
M  V30 1745 H 161.845 -3.17354 -5.2165 0
M  V30 1746 H 163.259 -4.58727 -3.43864 0
M  V30 1747 H 161.656 -5.21893 -2.96222 0
M  V30 1748 H 162.726 -4.53087 -1.72744 0
M  V30 1749 N 164.069 0.697108 -1.41344 0
M  V30 1750 C 165.001 1.8224 -1.39001 0
M  V30 1751 C 166.014 1.60152 -0.292428 0
M  V30 1752 O 167.203 1.69684 -0.554048 0
M  V30 1753 C 164.303 3.18976 -1.14489 0
M  V30 1754 C 163.476 3.68105 -2.36258 0
M  V30 1755 C 162.535 4.83506 -2.07625 0
M  V30 1756 O 161.561 4.95201 -2.8065 0
M  V30 1757 N 162.763 5.70637 -1.06555 0
M  V30 1758 H 165.528 1.84742 -2.35988 0
M  V30 1759 H 163.089 0.87937 -1.35936 0
M  V30 1760 H 165.081 3.93801 -0.932885 0
M  V30 1761 H 163.651 3.11508 -0.261043 0
M  V30 1762 H 162.871 2.84204 -2.7317 0
M  V30 1763 H 164.159 3.97667 -3.17393 0
M  V30 1764 H 163.557 5.63817 -0.461125 0
M  V30 1765 H 162.114 6.45368 -0.913444 0
M  V30 1766 N 165.547 1.27147 0.931209 0
M  V30 1767 C 166.796 1.12664 1.67302 0
M  V30 1768 C 167.109 -0.327718 1.92835 0
M  V30 1769 O 168.315 -0.593392 2.64936 0
M  V30 1770 C 166.771 1.9683 3.01307 0
M  V30 1771 C 166.379 3.46901 2.83485 0
M  V30 1772 C 168.123 1.90985 3.79111 0
M  V30 1773 C 166.03 4.23279 4.13024 0
M  V30 1774 H 164.96 0.41803 0.627509 0
M  V30 1775 H 167.611 1.51539 1.03481 0
M  V30 1776 H 165.993 1.50797 3.66164 0
M  V30 1777 H 167.167 4.00773 2.27415 0
M  V30 1778 H 165.482 3.54088 2.19113 0
M  V30 1779 H 168.079 2.45328 4.75098 0
M  V30 1780 H 168.422 0.882718 4.06834 0
M  V30 1781 H 168.955 2.34895 3.21044 0
M  V30 1782 H 165.694 5.26503 3.90481 0
M  V30 1783 H 165.214 3.74186 4.6877 0
M  V30 1784 H 166.893 4.32265 4.81411 0
M  V30 1785 N 167.025 -1.13721 1.09112 0
M  V30 1786 C 167.988 -2.17222 0.731241 0
M  V30 1787 C 168.988 -1.59035 -0.237566 0
M  V30 1788 O 170.178 -1.74192 -0.0161704 0
M  V30 1789 C 167.31 -3.40804 0.0808443 0
M  V30 1790 H 168.503 -2.50573 1.64783 0
M  V30 1791 H 166.056 -1.28493 0.889897 0
M  V30 1792 H 166.791 -3.1304 -0.847127 0
M  V30 1793 H 166.576 -3.84306 0.777896 0
M  V30 1794 H 168.066 -4.1731 -0.155657 0
M  V30 1795 N 168.503 -0.877838 -1.30888 0
M  V30 1796 C 169.733 -0.506678 -2.00291 0
M  V30 1797 C 170.141 0.907449 -1.66018 0
M  V30 1798 O 169.484 1.60719 -0.88967 0
M  V30 1799 C 169.546 -0.59323 -3.54572 0
M  V30 1800 C 169.21 -1.97038 -4.12341 0
M  V30 1801 C 170.207 -2.93889 -4.28865 0
M  V30 1802 C 167.892 -2.27383 -4.47886 0
M  V30 1803 C 169.886 -4.19224 -4.80136 0
M  V30 1804 C 167.573 -3.52965 -4.98857 0
M  V30 1805 C 168.571 -4.48701 -5.14934 0
M  V30 1806 O 168.259 -5.72056 -5.64808 0
M  V30 1807 H 167.991 -0.1951 -0.647234 0
M  V30 1808 H 170.545 -1.18301 -1.6791 0
M  V30 1809 H 168.775 0.140057 -3.86446 0
M  V30 1810 H 170.464 -0.234372 -4.05223 0
M  V30 1811 H 171.23 -2.71756 -4.01714 0
M  V30 1812 H 167.109 -1.53639 -4.34645 0
M  V30 1813 H 170.653 -4.93956 -4.92599 0
M  V30 1814 H 166.55 -3.74939 -5.25443 0
M  V30 1815 H 167.318 -5.74337 -5.83163 0
M  V30 1816 N 169.982 1.44106 -0.638065 0
M  V30 1817 C 171.228 2.02277 -0.145546 0
M  V30 1818 C 171.561 1.50125 1.23191 0
M  V30 1819 O 170.836 0.688133 1.8192 0
M  V30 1820 C 171.119 3.59829 -0.139791 0
M  V30 1821 C 170.972 4.22247 -1.55008 0
M  V30 1822 C 172.291 4.36873 0.531966 0
M  V30 1823 H 169.41 0.734992 -0.0543632 0
M  V30 1824 H 172.052 1.71592 -0.815863 0
M  V30 1825 H 170.202 3.86102 0.431007 0
M  V30 1826 H 171.874 4.07057 -2.1703 0
M  V30 1827 H 170.117 3.79476 -2.10191 0
M  V30 1828 H 170.788 5.31284 -1.49804 0
M  V30 1829 H 173.264 4.16074 0.0464781 0
M  V30 1830 H 172.14 5.4657 0.505206 0
M  V30 1831 H 172.401 4.11995 1.60352 0
M  V30 1832 N 171.46 0.379036 1.52974 0
M  V30 1833 C 172.685 -0.209353 2.06341 0
M  V30 1834 C 173.11 -1.40583 1.24972 0
M  V30 1835 O 172.468 -1.79246 0.272155 0
M  V30 1836 C 172.516 -0.567786 3.56102 0
M  V30 1837 O 171.62 -1.66318 3.77375 0
M  V30 1838 H 170.961 -0.0272919 0.663439 0
M  V30 1839 H 173.491 0.543536 1.97248 0
M  V30 1840 H 173.501 -0.835003 3.99364 0
M  V30 1841 H 172.176 0.307013 4.14765 0
M  V30 1842 H 170.753 -1.39048 3.46006 0
M  V30 1843 N 172.938 -1.57226 0.108567 0
M  V30 1844 C 174.354 -1.5766 -0.248058 0
M  V30 1845 C 174.554 -1.12063 -1.67464 0
M  V30 1846 O 173.61 -0.803236 -2.39383 0
M  V30 1847 C 174.923 -3.0069 -0.0242287 0
M  V30 1848 C 176.471 -3.12868 -0.0909372 0
M  V30 1849 C 176.946 -4.57879 0.105067 0
M  V30 1850 N 178.437 -4.63172 0.0506846 0
M  V30 1851 C 179.172 -5.73126 0.177396 0
M  V30 1852 N 178.668 -6.91866 0.359696 0
M  V30 1853 N 180.461 -5.61977 0.117709 0
M  V30 1854 H 172.612 -1.85169 1.04049 0
M  V30 1855 H 174.875 -0.85529 0.40888 0
M  V30 1856 H 174.581 -3.38299 0.961604 0
M  V30 1857 H 174.455 -3.6945 -0.76068 0
M  V30 1858 H 176.842 -2.75124 -1.06729 0
M  V30 1859 H 176.923 -2.46672 0.677225 0
M  V30 1860 H 176.567 -4.96321 1.07834 0
M  V30 1861 H 176.497 -5.22153 -0.682954 0
M  V30 1862 H 178.988 -3.778 -0.0871266 0
M  V30 1863 H 179.301 -7.71503 0.447529 0
M  V30 1864 H 177.646 -6.93874 0.395536 0
M  V30 1865 H 180.837 -4.68094 -0.0236741 0
M  V30 1866 H 181.01 -6.47627 0.219905 0
M  V30 1867 N 174.416 0.165178 -1.56732 0
M  V30 1868 C 175.326 1.22423 -2.00125 0
M  V30 1869 C 176.342 1.48084 -0.913619 0
M  V30 1870 O 177.518 1.60112 -1.22172 0
M  V30 1871 C 174.583 2.54197 -2.35764 0
M  V30 1872 C 173.644 2.36343 -3.58386 0
M  V30 1873 C 172.877 3.61834 -3.92316 0
M  V30 1874 O 173.1 4.67267 -3.27135 0
M  V30 1875 O 172.034 3.55579 -4.85641 0
M  V30 1876 H 175.86 0.885886 -2.90492 0
M  V30 1877 H 173.445 0.372518 -1.44681 0
M  V30 1878 H 175.327 3.3192 -2.59629 0
M  V30 1879 H 174.002 2.87598 -1.48557 0
M  V30 1880 H 172.909 1.56632 -3.39731 0
M  V30 1881 H 174.242 2.07865 -4.46154 0
M  V30 1882 N 175.894 1.51508 0.433938 0
M  V30 1883 C 177.122 1.68157 1.20543 0
M  V30 1884 C 177.537 0.380362 1.84929 0
M  V30 1885 O 176.894 -0.641446 1.70856 0
M  V30 1886 C 176.945 2.79965 2.28696 0
M  V30 1887 O 176.666 4.05045 1.66943 0
M  V30 1888 C 178.167 3.07912 3.18912 0
M  V30 1889 H 175.387 0.56421 0.363191 0
M  V30 1890 H 177.931 1.97941 0.513754 0
M  V30 1891 H 176.086 2.5277 2.93574 0
M  V30 1892 H 176.5 4.67165 2.38448 0
M  V30 1893 H 177.974 3.89719 3.90926 0
M  V30 1894 H 178.451 2.20456 3.79863 0
M  V30 1895 H 179.057 3.36779 2.59731 0
M  V30 1896 N 177.372 -0.689602 1.41712 0
M  V30 1897 C 178.302 -1.81577 1.46806 0
M  V30 1898 C 179.283 -1.66945 0.326105 0
M  V30 1899 O 180.468 -1.86588 0.538377 0
M  V30 1900 C 177.598 -3.19762 1.35535 0
M  V30 1901 C 176.552 -3.49107 2.47605 0
M  V30 1902 C 175.878 -4.86711 2.21397 0
M  V30 1903 C 177.178 -3.47483 3.89939 0
M  V30 1904 H 178.872 -1.7757 2.41058 0
M  V30 1905 H 176.418 -0.852887 1.16025 0
M  V30 1906 H 178.371 -3.98263 1.3771 0
M  V30 1907 H 177.095 -3.24409 0.377708 0
M  V30 1908 H 175.754 -2.72959 2.44722 0
M  V30 1909 H 175.402 -4.8799 1.21961 0
M  V30 1910 H 175.102 -5.0731 2.96497 0
M  V30 1911 H 176.626 -5.67515 2.25297 0
M  V30 1912 H 178.04 -4.1598 3.94505 0
M  V30 1913 H 176.437 -3.79615 4.64771 0
M  V30 1914 H 177.507 -2.46341 4.17665 0
M  V30 1915 N 178.85 -1.27639 -0.924453 0
M  V30 1916 C 179.782 -1.06442 -2.02985 0
M  V30 1917 C 180.795 -0.0194771 -1.62788 0
M  V30 1918 O 181.984 -0.261388 -1.76576 0
M  V30 1919 C 179.084 -0.59327 -3.33667 0
M  V30 1920 C 178.257 -1.71123 -4.02537 0
M  V30 1921 C 177.316 -1.23527 -5.11495 0
M  V30 1922 O 176.342 -1.93553 -5.35281 0
M  V30 1923 N 177.544 -0.0926678 -5.80426 0
M  V30 1924 H 180.309 -2.01633 -2.2173 0
M  V30 1925 H 177.87 -1.19248 -1.09505 0
M  V30 1926 H 179.862 -0.258686 -4.03872 0
M  V30 1927 H 178.432 0.265502 -3.1147 0
M  V30 1928 H 177.652 -2.21593 -3.26022 0
M  V30 1929 H 178.94 -2.46145 -4.45298 0
M  V30 1930 H 178.338 0.491741 -5.63559 0
M  V30 1931 H 176.895 0.182714 -6.51544 0
M  V30 1932 N 180.328 1.1314 -1.09713 0
M  V30 1933 C 181.576 1.84119 -0.833338 0
M  V30 1934 C 181.897 1.84097 0.642904 0
M  V30 1935 O 181.167 1.29881 1.46655 0
M  V30 1936 H 179.747 0.681766 -0.305293 0
M  V30 1937 H 182.409 1.37038 -1.38588 0
M  V30 1938 H 181.505 2.88543 -1.18951 0
M  V30 1939 N 181.806 0.884767 1.30421 0
M  V30 1940 C 182.736 0.367574 2.30589 0
M  V30 1941 C 183.717 -0.549464 1.60981 0
M  V30 1942 O 184.902 -0.46336 1.88591 0
M  V30 1943 C 182.032 -0.418944 3.44764 0
M  V30 1944 C 180.986 0.406316 4.26067 0
M  V30 1945 C 180.312 -0.506793 5.32293 0
M  V30 1946 C 181.612 1.64832 4.95608 0
M  V30 1947 H 183.306 1.20462 2.74097 0
M  V30 1948 H 180.852 0.580695 1.31772 0
M  V30 1949 H 182.805 -0.791395 4.13902 0
M  V30 1950 H 181.529 -1.28964 3.0006 0
M  V30 1951 H 180.188 0.760903 3.58617 0
M  V30 1952 H 179.836 -1.37519 4.83836 0
M  V30 1953 H 179.536 0.0415828 5.87585 0
M  V30 1954 H 181.06 -0.875764 6.04287 0
M  V30 1955 H 182.474 1.34646 5.57264 0
M  V30 1956 H 180.871 2.13688 5.60765 0
M  V30 1957 H 181.941 2.39284 4.21748 0
M  V30 1958 N 183.284 -1.43765 0.645699 0
M  V30 1959 C 184.514 -2.05953 0.163318 0
M  V30 1960 C 184.922 -1.48432 -1.17322 0
M  V30 1961 O 184.265 -0.607295 -1.73371 0
M  V30 1962 C 184.327 -3.59499 -0.0103065 0
M  V30 1963 C 183.991 -4.39563 1.25035 0
M  V30 1964 C 184.988 -4.72108 2.17739 0
M  V30 1965 C 182.673 -4.79697 1.48983 0
M  V30 1966 C 184.667 -5.43688 3.3269 0
M  V30 1967 C 182.354 -5.51023 2.64229 0
M  V30 1968 C 183.352 -5.8294 3.55908 0
M  V30 1969 O 183.04 -6.5281 4.69142 0
M  V30 1970 H 182.772 -0.670798 0.0836986 0
M  V30 1971 H 185.326 -1.85384 0.884407 0
M  V30 1972 H 183.556 -3.78613 -0.78669 0
M  V30 1973 H 185.245 -4.03408 -0.449087 0
M  V30 1974 H 186.011 -4.41627 2.00476 0
M  V30 1975 H 181.89 -4.54266 0.785078 0
M  V30 1976 H 185.434 -5.68517 4.04269 0
M  V30 1977 H 181.331 -5.8092 2.81429 0
M  V30 1978 H 182.099 -6.71288 4.6831 0
M  V30 1979 N 184.763 -0.387143 -1.52771 0
M  V30 1980 C 185.993 0.195585 -2.05672 0
M  V30 1981 C 186.401 1.41241 -1.25887 0
M  V30 1982 O 185.744 1.81265 -0.298081 0
M  V30 1983 C 185.806 0.632327 -3.53895 0
M  V30 1984 C 185.47 -0.470739 -4.54569 0
M  V30 1985 C 186.467 -1.32746 -5.02667 0
M  V30 1986 C 184.152 -0.637151 -4.98243 0
M  V30 1987 C 186.146 -2.33574 -5.93061 0
M  V30 1988 C 183.833 -1.64877 -5.88438 0
M  V30 1989 C 184.831 -2.49649 -6.35739 0
M  V30 1990 O 184.519 -3.49082 -7.24153 0
M  V30 1991 H 184.251 0.033658 -0.675162 0
M  V30 1992 H 186.805 -0.550221 -1.97893 0
M  V30 1993 H 185.035 1.43008 -3.59285 0
M  V30 1994 H 186.724 1.14048 -3.89548 0
M  V30 1995 H 187.49 -1.21019 -4.69659 0
M  V30 1996 H 183.369 0.0129567 -4.60998 0
M  V30 1997 H 186.913 -2.99777 -6.29904 0
M  V30 1998 H 182.81 -1.76643 -6.2086 0
M  V30 1999 H 183.578 -3.45065 -7.42208 0
M  V30 2000 N 186.241 1.57166 -0.116904 0
M  V30 2001 C 187.171 2.18222 0.830759 0
M  V30 2002 C 188.152 1.12167 1.27877 0
M  V30 2003 O 189.337 1.40394 1.34176 0
M  V30 2004 C 186.467 2.77996 2.08172 0
M  V30 2005 C 185.421 3.89614 1.77157 0
M  V30 2006 C 184.747 4.36187 3.09265 0
M  V30 2007 C 186.047 5.1181 1.04151 0
M  V30 2008 H 187.741 2.97664 0.321992 0
M  V30 2009 H 185.287 1.4318 0.153434 0
M  V30 2010 H 187.24 3.19366 2.74924 0
M  V30 2011 H 185.964 1.9584 2.6137 0
M  V30 2012 H 184.623 3.48816 1.12796 0
M  V30 2013 H 184.271 3.50893 3.60393 0
M  V30 2014 H 183.971 5.11455 2.89288 0
M  V30 2015 H 185.495 4.80207 3.77139 0
M  V30 2016 H 186.909 5.50214 1.61052 0
M  V30 2017 H 185.306 5.92648 0.942762 0
M  V30 2018 H 186.376 4.84892 0.0279022 0
M  V30 2019 N 187.719 -0.156864 1.56817 0
M  V30 2020 C 188.669 -1.19891 1.93934 0
M  V30 2021 C 189.653 -1.39061 0.809372 0
M  V30 2022 O 190.845 -1.40789 1.07273 0
M  V30 2023 C 187.974 -2.53493 2.31508 0
M  V30 2024 C 187.06 -2.37957 3.51052 0
M  V30 2025 N 187.451 -1.92158 4.67877 0
M  V30 2026 C 185.749 -2.68739 3.55943 0
M  V30 2027 C 186.45 -1.8943 5.49992 0
M  V30 2028 N 185.426 -2.32375 4.91429 0
M  V30 2029 H 189.228 -0.836746 2.81737 0
M  V30 2030 H 186.742 -0.365012 1.58245 0
M  V30 2031 H 188.739 -3.28811 2.56299 0
M  V30 2032 H 187.399 -2.905 1.45051 0
M  V30 2033 H 188.41 -1.62274 4.91821 0
M  V30 2034 H 185.087 -3.09687 2.80001 0
M  V30 2035 H 186.477 -1.55596 6.53636 0
M  V30 2036 N 189.197 -1.51736 -0.425897 0
M  V30 2037 C 190.422 -1.69082 -1.20108 0
M  V30 2038 C 190.847 -0.392398 -1.83962 0
M  V30 2039 O 190.205 0.64858 -1.69302 0
M  V30 2040 C 190.253 -2.81604 -2.25237 0
M  V30 2041 O 189.357 -2.46004 -3.30992 0
M  V30 2042 H 188.698 -0.563408 -0.35138 0
M  V30 2043 H 191.228 -1.98358 -0.501512 0
M  V30 2044 H 191.238 -3.06025 -2.69838 0
M  V30 2045 H 189.913 -3.75817 -1.78142 0
M  V30 2046 H 188.49 -2.32195 -2.91787 0
M  V30 2047 N 190.675 0.682077 -1.42076 0
M  V30 2048 C 191.622 1.79578 -1.44984 0
M  V30 2049 C 192.592 1.6332 -0.302614 0
M  V30 2050 O 193.777 1.83978 -0.505633 0
M  V30 2051 C 190.917 3.1756 -1.35091 0
M  V30 2052 C 190.03 3.45156 -2.59791 0
M  V30 2053 C 189.165 4.72826 -2.42093 0
M  V30 2054 C 188.204 4.93433 -3.62202 0
M  V30 2055 N 187.341 6.12338 -3.43491 0
M  V30 2056 H 192.181 1.76427 -2.40161 0
M  V30 2057 H 189.718 0.861376 -1.19242 0
M  V30 2058 H 191.676 3.97287 -1.27354 0
M  V30 2059 H 190.306 3.19854 -0.435133 0
M  V30 2060 H 189.358 2.59736 -2.77923 0
M  V30 2061 H 190.67 3.5628 -3.49094 0
M  V30 2062 H 189.824 5.60631 -2.319 0
M  V30 2063 H 188.563 4.63973 -1.50268 0
M  V30 2064 H 187.568 4.04073 -3.72834 0
M  V30 2065 H 188.793 5.04136 -4.54998 0
M  V30 2066 H 186.739 6.04672 -2.54377 0
M  V30 2067 H 186.656 6.2429 -4.26377 0
M  V30 2068 H 187.924 7.02841 -3.37097 0
M  V30 2069 N 192.153 1.28127 0.917671 0
M  V30 2070 C 193.401 1.14825 1.66312 0
M  V30 2071 C 193.722 -0.304379 1.9261 0
M  V30 2072 O 192.992 -1.21149 1.53947 0
M  V30 2073 H 191.572 0.421953 0.616413 0
M  V30 2074 H 194.234 1.608 1.10134 0
M  V30 2075 H 193.33 1.68489 2.62712 0
M  V30 2076 N 193.631 -1.12557 1.10312 0
M  V30 2077 C 194.578 -2.18247 0.750781 0
M  V30 2078 C 195.548 -1.63853 -0.272293 0
M  V30 2079 O 196.733 -1.90195 -0.151862 0
M  V30 2080 C 193.873 -3.44591 0.187379 0
M  V30 2081 C 192.986 -4.13046 1.2656 0
M  V30 2082 C 192.121 -5.27034 0.663978 0
M  V30 2083 C 191.16 -5.87353 1.72287 0
M  V30 2084 N 190.297 -6.92757 1.1416 0
M  V30 2085 H 195.137 -2.47732 1.65628 0
M  V30 2086 H 192.674 -1.21629 0.827337 0
M  V30 2087 H 194.632 -4.16904 -0.157148 0
M  V30 2088 H 193.262 -3.15527 -0.681355 0
M  V30 2089 H 192.314 -3.38924 1.72727 0
M  V30 2090 H 193.626 -4.53947 2.06721 0
M  V30 2091 H 192.78 -6.06104 0.268824 0
M  V30 2092 H 191.519 -4.87407 -0.169082 0
M  V30 2093 H 190.524 -5.06971 2.12746 0
M  V30 2094 H 191.749 -6.29051 2.55875 0
M  V30 2095 H 189.695 -6.5517 0.329984 0
M  V30 2096 H 189.612 -7.3225 1.88007 0
M  V30 2097 H 190.88 -7.75658 0.772956 0
M  V30 2098 N 195.109 -0.891671 -1.2995 0
M  V30 2099 C 196.042 -0.307994 -2.26112 0
M  V30 2100 C 197.02 0.575262 -1.52084 0
M  V30 2101 O 198.204 0.523864 -1.81074 0
M  V30 2102 C 195.331 0.561734 -3.34009 0
M  V30 2103 C 194.377 -0.253107 -4.25748 0
M  V30 2104 S 195.21 -1.64572 -5.09584 0
M  V30 2105 C 196.366 -0.782699 -6.20987 0
M  V30 2106 H 196.599 -1.12309 -2.75271 0
M  V30 2107 H 194.132 -0.691509 -1.38049 0
M  V30 2108 H 196.09 1.05777 -3.96638 0
M  V30 2109 H 194.751 1.35099 -2.83561 0
M  V30 2110 H 193.944 0.410908 -5.02322 0
M  V30 2111 H 193.546 -0.682004 -3.67729 0
M  V30 2112 H 195.838 -0.00257476 -6.775 0
M  V30 2113 H 196.781 -1.52026 -6.91588 0
M  V30 2114 H 197.189 -0.340638 -5.63471 0
M  V30 2115 N 196.587 1.43421 -0.653314 0
M  V30 2116 C 197.537 2.2792 0.060558 0
M  V30 2117 C 198.521 1.39906 0.794677 0
M  V30 2118 O 199.713 1.63536 0.677128 0
M  V30 2119 C 196.842 3.27603 1.0262 0
M  V30 2120 C 195.928 4.23104 0.290551 0
M  V30 2121 N 196.319 5.01031 -0.692967 0
M  V30 2122 C 194.617 4.42816 0.531984 0
M  V30 2123 C 195.318 5.70626 -1.12963 0
M  V30 2124 N 194.294 5.41617 -0.463867 0
M  V30 2125 H 198.096 2.85585 -0.694143 0
M  V30 2126 H 195.61 1.55126 -0.480602 0
M  V30 2127 H 197.607 3.86918 1.55242 0
M  V30 2128 H 196.267 2.71499 1.78096 0
M  V30 2129 H 197.278 5.0669 -1.07169 0
M  V30 2130 H 193.955 3.97782 1.26791 0
M  V30 2131 H 195.345 6.4318 -1.94343 0
M  V30 2132 N 198.065 0.39524 1.52563 0
M  V30 2133 C 199.481 0.0454682 1.59535 0
M  V30 2134 C 199.681 -1.44056 1.4089 0
M  V30 2135 O 198.737 -2.20579 1.22888 0
M  V30 2136 C 200.05 0.527963 2.96029 0
M  V30 2137 C 201.598 0.484733 3.09224 0
M  V30 2138 C 202.073 0.943512 4.48176 0
M  V30 2139 N 203.564 0.899765 4.54377 0
M  V30 2140 C 204.299 1.22609 5.60138 0
M  V30 2141 N 203.795 1.62319 6.73516 0
M  V30 2142 N 205.588 1.14696 5.50274 0
M  V30 2143 H 197.739 1.36261 1.62931 0
M  V30 2144 H 200.002 0.558887 0.765735 0
M  V30 2145 H 199.708 1.56607 3.14908 0
M  V30 2146 H 199.582 -0.0698056 3.77135 0
M  V30 2147 H 201.969 -0.544298 2.90037 0
M  V30 2148 H 202.05 1.11838 2.30056 0
M  V30 2149 H 201.694 1.9708 4.68104 0
M  V30 2150 H 201.624 0.286817 5.25818 0
M  V30 2151 H 204.115 0.607632 3.72983 0
M  V30 2152 H 204.428 1.85567 7.5019 0
M  V30 2153 H 202.773 1.66211 6.74833 0
M  V30 2154 H 205.964 0.835701 4.6058 0
M  V30 2155 H 206.137 1.40459 6.32594 0
M  V30 2156 N 199.544 -1.57102 0.125237 0
M  V30 2157 C 200.821 -1.86953 -0.575142 0
M  V30 2158 C 201.201 -1.02749 -1.84407 0
M  V30 2159 O 200.549 -0.108144 -2.28244 0
M  V30 2160 C 200.759 -3.38198 -0.861583 0
M  V30 2161 C 202.107 -4.06937 -1.21192 0
M  V30 2162 O 203.131 -3.43252 -0.951645 0
M  V30 2163 O 201.99 -5.19364 -1.70068 0
M  V30 2164 H 199.084 -0.774147 -0.290906 0
M  V30 2165 H 201.63 -1.68942 0.160211 0
M  V30 2166 H 200.402 -3.91282 0.0373647 0
M  V30 2167 H 200.025 -3.61661 -1.65188 0
M  V30 2168 N 201.022 0.148545 -1.56898 0
M  V30 2169 C 202.271 0.85984 -1.82454 0
M  V30 2170 C 202.584 1.82406 -0.706229 0
M  V30 2171 O 203.79 2.57938 -0.847349 0
M  V30 2172 C 202.246 1.57967 -3.2338 0
M  V30 2173 C 201.854 0.65794 -4.43142 0
M  V30 2174 C 203.598 2.27784 -3.58211 0
M  V30 2175 C 201.505 1.3793 -5.75091 0
M  V30 2176 H 200.435 0.324834 -0.68044 0
M  V30 2177 H 203.086 0.112588 -1.83154 0
M  V30 2178 H 201.468 2.37249 -3.17063 0
M  V30 2179 H 202.642 -0.0995497 -4.60692 0
M  V30 2180 H 200.957 0.0682643 -4.16344 0
M  V30 2181 H 203.554 2.8239 -4.54048 0
M  V30 2182 H 203.897 3.04204 -2.84193 0
M  V30 2183 H 204.43 1.55421 -3.66182 0
M  V30 2184 H 201.169 0.656982 -6.52199 0
M  V30 2185 H 200.689 2.10954 -5.61479 0
M  V30 2186 H 202.368 1.92063 -6.17835 0
M  V30 2187 N 202.5 1.5196 0.417844 0
M  V30 2188 C 203.447 1.74678 1.50852 0
M  V30 2189 C 204.417 0.588947 1.55308 0
M  V30 2190 O 205.602 0.825544 1.72016 0
M  V30 2191 C 202.742 1.89544 2.88387 0
M  V30 2192 C 201.855 3.17166 2.93309 0
M  V30 2193 C 200.99 3.22513 4.22088 0
M  V30 2194 C 200.029 4.44372 4.20951 0
M  V30 2195 N 199.166 4.47161 5.41287 0
M  V30 2196 H 204.006 2.67768 1.30783 0
M  V30 2197 H 201.543 1.32689 0.63498 0
M  V30 2198 H 203.501 1.96146 3.68216 0
M  V30 2199 H 202.131 0.998424 3.06971 0
M  V30 2200 H 201.183 3.19778 2.06024 0
M  V30 2201 H 202.495 4.07021 2.88332 0
M  V30 2202 H 201.649 3.28139 5.10303 0
M  V30 2203 H 200.388 2.30581 4.29748 0
M  V30 2204 H 199.393 4.38902 3.31127 0
M  V30 2205 H 200.618 5.3759 4.14938 0
M  V30 2206 H 198.564 3.58108 5.49632 0
M  V30 2207 H 198.481 5.3085 5.3827 0
M  V30 2208 H 199.749 4.57005 6.3148 0
M  V30 2209 N 203.978 -0.674533 1.42435 0
M  V30 2210 C 205.226 -1.43175 1.42637 0
M  V30 2211 C 205.547 -1.94951 0.0438992 0
M  V30 2212 O 204.817 -1.7308 -0.917607 0
M  V30 2213 H 203.397 -0.531307 0.525092 0
M  V30 2214 H 206.059 -0.797006 1.77859 0
M  V30 2215 H 205.155 -2.28463 2.12629 0
M  V30 2216 N 205.456 -1.28612 -0.910864 0
M  V30 2217 C 206.419 -1.12803 -1.9952 0
M  V30 2218 C 207.419 -0.0668264 -1.60661 0
M  V30 2219 O 208.609 -0.312847 -1.71368 0
M  V30 2220 C 205.741 -0.72254 -3.33155 0
M  V30 2221 H 206.934 -2.09109 -2.14973 0
M  V30 2222 H 204.487 -1.11639 -1.09391 0
M  V30 2223 H 205.222 0.241152 -3.23402 0
M  V30 2224 H 205.007 -1.48916 -3.62721 0
M  V30 2225 H 206.497 -0.634666 -4.12749 0
M  V30 2226 N 206.934 1.1197 -1.10907 0
M  V30 2227 C 207.882 2.19927 -0.757303 0
M  V30 2228 C 208.876 1.67564 0.248747 0
M  V30 2229 O 210.082 1.79672 0.108605 0
M  V30 2230 H 206.457 0.716925 -0.226987 0
M  V30 2231 H 208.428 2.46847 -1.67658 0
M  V30 2232 C 207.177 3.47061 -0.210671 0
M  V30 2233 H 206.5 3.87703 -0.976049 0
M  V30 2234 H 207.94 4.24 -0.0026584 0
M  V30 2235 C 206.399 3.19864 1.05777 0
M  V30 2236 O 206.929 3.40049 2.13845 0
M  V30 2237 N 205.135 2.73636 0.978349 0
M  V30 2238 H 204.682 2.5741 0.0988246 0
M  V30 2239 H 204.64 2.55815 1.82773 0
M  V30 2240 N 208.412 0.89855 1.29475 0
M  V30 2241 C 209.661 0.519863 1.94885 0
M  V30 2242 C 209.974 -0.9383 1.71625 0
M  V30 2243 O 211.18 -1.42445 2.31131 0
M  V30 2244 C 209.636 0.878836 3.49005 0
M  V30 2245 C 209.244 2.35569 3.81066 0
M  V30 2246 C 210.988 0.570004 4.20656 0
M  V30 2247 C 208.895 2.65558 5.28425 0
M  V30 2248 H 207.825 0.190692 0.729488 0
M  V30 2249 H 210.476 1.09539 1.47219 0
M  V30 2250 H 208.858 0.232253 3.95318 0
M  V30 2251 H 210.032 3.04773 3.45616 0
M  V30 2252 H 208.347 2.63343 3.22552 0
M  V30 2253 H 210.944 0.770925 5.29113 0
M  V30 2254 H 211.287 -0.491404 4.1339 0
M  V30 2255 H 211.82 1.17438 3.8007 0
M  V30 2256 H 208.559 3.70493 5.40754 0
M  V30 2257 H 208.079 2.00977 5.65127 0
M  V30 2258 H 209.758 2.51765 5.96006 0
M  V30 2259 N 209.89 -1.43072 0.660911 0
M  V30 2260 C 210.82 -2.33497 -0.0122829 0
M  V30 2261 C 211.801 -1.49903 -0.803925 0
M  V30 2262 O 212.986 -1.78546 -0.763864 0
M  V30 2263 C 210.116 -3.33363 -0.973994 0
M  V30 2264 C 209.07 -4.27003 -0.291928 0
M  V30 2265 C 208.396 -5.16967 -1.36562 0
M  V30 2266 C 209.696 -5.15816 0.820462 0
M  V30 2267 H 211.39 -2.90038 0.742873 0
M  V30 2268 H 208.936 -1.39461 0.358688 0
M  V30 2269 H 210.889 -3.95524 -1.45392 0
M  V30 2270 H 209.613 -2.75095 -1.7604 0
M  V30 2271 H 208.272 -3.66217 0.167623 0
M  V30 2272 H 207.92 -4.55034 -2.14366 0
M  V30 2273 H 207.62 -5.80441 -0.914454 0
M  V30 2274 H 209.144 -5.82003 -1.84675 0
M  V30 2275 H 210.558 -5.71742 0.422366 0
M  V30 2276 H 208.955 -5.8805 1.19656 0
M  V30 2277 H 210.025 -4.55045 1.67518 0
M  V30 2278 N 211.368 -0.403325 -1.52352 0
M  V30 2279 C 212.298 0.416205 -2.29761 0
M  V30 2280 C 213.279 1.05123 -1.33728 0
M  V30 2281 O 214.464 1.06134 -1.62632 0
M  V30 2282 C 211.594 1.53624 -3.11475 0
M  V30 2283 C 210.548 1.02653 -4.15507 0
M  V30 2284 C 209.874 2.23971 -4.85532 0
M  V30 2285 C 211.174 0.08463 -5.22231 0
M  V30 2286 H 212.868 -0.229701 -2.98518 0
M  V30 2287 H 210.414 -0.111913 -1.43564 0
M  V30 2288 H 212.367 2.1165 -3.64393 0
M  V30 2289 H 211.091 2.20994 -2.40477 0
M  V30 2290 H 209.75 0.46871 -3.63591 0
M  V30 2291 H 209.398 2.89883 -4.11068 0
M  V30 2292 H 209.098 1.90521 -5.55856 0
M  V30 2293 H 210.622 2.82614 -5.41259 0
M  V30 2294 H 212.036 0.573509 -5.70424 0
M  V30 2295 H 210.433 -0.160783 -5.99885 0
M  V30 2296 H 211.503 -0.86237 -4.7717 0
M  V30 2297 N 212.846 1.57033 -0.133567 0
M  V30 2298 C 214.074 2.00044 0.528195 0
M  V30 2299 C 214.489 1.01349 1.59291 0
M  V30 2300 O 213.846 0.00848369 1.82498 0
M  V30 2301 C 213.897 3.43018 1.1411 0
M  V30 2302 O 213.618 4.37939 0.11892 0
M  V30 2303 C 215.119 4.01237 1.88477 0
M  V30 2304 H 212.339 0.656517 0.138661 0
M  V30 2305 H 214.883 2.03267 -0.224196 0
M  V30 2306 H 213.038 3.40688 1.84418 0
M  V30 2307 H 213.452 5.21436 0.56613 0
M  V30 2308 H 214.926 5.03314 2.26669 0
M  V30 2309 H 215.403 3.41193 2.76558 0
M  V30 2310 H 216.009 4.07156 1.22898 0
M  V30 2311 N 214.325 -0.140222 1.56975 0
M  V30 2312 C 215.602 -0.880769 1.74648 0
M  V30 2313 C 215.982 -1.99036 0.703404 0
M  V30 2314 O 215.33 -2.26821 -0.27648 0
M  V30 2315 C 215.54 -1.417 3.18939 0
M  V30 2316 C 216.888 -1.87774 3.80823 0
M  V30 2317 O 217.912 -1.51427 3.2241 0
M  V30 2318 O 216.771 -2.54827 4.83452 0
M  V30 2319 H 213.865 -0.416713 0.714338 0
M  V30 2320 H 216.411 -0.125618 1.69234 0
M  V30 2321 H 215.183 -0.619902 3.86359 0
M  V30 2322 H 214.806 -2.23546 3.28805 0
M  V30 2323 N 215.803 -1.52179 -0.40978 0
M  V30 2324 C 216.751 -1.76086 -1.51975 0
M  V30 2325 C 217.745 -0.627964 -1.57331 0
M  V30 2326 O 218.951 -0.809993 -1.60745 0
M  V30 2327 H 215.326 -0.556829 -0.505416 0
M  V30 2328 H 217.297 -2.69077 -1.28996 0
M  V30 2329 C 216.046 -1.92799 -2.8935 0
M  V30 2330 H 215.369 -2.79392 -2.85972 0
M  V30 2331 H 216.809 -2.13527 -3.66309 0
M  V30 2332 C 215.268 -0.694923 -3.29655 0
M  V30 2333 O 215.798 0.13751 -4.01465 0
M  V30 2334 N 214.004 -0.53101 -2.85707 0
M  V30 2335 H 213.551 -1.20952 -2.27439 0
M  V30 2336 H 213.509 0.292718 -3.13034 0
M  V30 2337 N 217.281 0.66697 -1.42791 0
M  V30 2338 C 218.529 1.42417 -1.43394 0
M  V30 2339 C 218.85 1.94925 -0.0542373 0
M  V30 2340 O 218.12 1.73564 0.908415 0
M  V30 2341 H 216.7 0.528515 -0.527902 0
M  V30 2342 H 219.362 0.787562 -1.78279 0
M  V30 2343 H 218.458 2.27333 -2.13837 0
M  V30 2344 N 218.759 1.29093 0.90403 0
M  V30 2345 C 219.709 1.10482 1.99443 0
M  V30 2346 C 220.693 0.0255401 1.6088 0
M  V30 2347 O 221.885 0.24677 1.75271 0
M  V30 2348 C 219.014 0.778882 3.34348 0
M  V30 2349 C 218.1 1.89749 3.79284 0
M  V30 2350 N 218.491 3.14045 3.96497 0
M  V30 2351 C 216.789 1.78955 4.08523 0
M  V30 2352 C 217.49 3.86996 4.34292 0
M  V30 2353 N 216.466 3.14909 4.43095 0
M  V30 2354 H 220.268 2.04778 2.10815 0
M  V30 2355 H 217.782 1.20155 1.09255 0
M  V30 2356 H 219.779 0.62661 4.12164 0
M  V30 2357 H 218.439 -0.156205 3.24324 0
M  V30 2358 H 219.45 3.49548 3.82148 0
M  V30 2359 H 216.127 0.926886 4.07081 0
M  V30 2360 H 217.517 4.93941 4.55491 0
M  V30 2361 N 220.237 -1.11381 1.11499 0
M  V30 2362 C 221.483 -1.83403 0.865512 0
M  V30 2363 C 221.816 -1.84459 -0.607329 0
M  V30 2364 O 221.091 -1.29811 -1.44842 0
M  V30 2365 C 221.374 -3.30552 1.42855 0
M  V30 2366 C 221.227 -3.37886 2.96906 0
M  V30 2367 C 222.546 -4.26643 1.08 0
M  V30 2368 H 219.665 -0.665879 0.31587 0
M  V30 2369 H 222.307 -1.30601 1.37998 0
M  V30 2370 H 220.457 -3.75648 0.990985 0
M  V30 2371 H 222.129 -3.01343 3.49271 0
M  V30 2372 H 220.372 -2.78088 3.32941 0
M  V30 2373 H 221.043 -4.41458 3.31389 0
M  V30 2374 H 223.519 -3.89729 1.45775 0
M  V30 2375 H 222.395 -5.27986 1.50072 0
M  V30 2376 H 222.656 -4.42099 -0.00915037 0
M  V30 2377 N 221.715 -0.905404 -1.28997 0
M  V30 2378 C 222.662 -0.385892 -2.27551 0
M  V30 2379 C 223.632 0.535113 -1.57244 0
M  V30 2380 O 224.817 0.459119 -1.85194 0
M  V30 2381 C 221.957 0.375461 -3.43051 0
M  V30 2382 C 221.07 -0.577092 -4.28128 0
M  V30 2383 C 220.205 0.201879 -5.30816 0
M  V30 2384 C 219.244 -0.744829 -6.07551 0
M  V30 2385 N 218.381 9.42587e-05 -7.021 0
M  V30 2386 H 223.221 -1.23139 -2.71368 0
M  V30 2387 H 220.758 -0.618542 -1.33463 0
M  V30 2388 H 222.716 0.832992 -4.088 0
M  V30 2389 H 221.346 1.18537 -3.00248 0
M  V30 2390 H 220.398 -1.15315 -3.62501 0
M  V30 2391 H 221.71 -1.30152 -4.8152 0
M  V30 2392 H 220.864 0.720351 -6.02408 0
M  V30 2393 H 219.603 0.959413 -4.7817 0
M  V30 2394 H 218.608 -1.27475 -5.34818 0
M  V30 2395 H 219.833 -1.50178 -6.62286 0
M  V30 2396 H 217.779 0.739791 -6.51815 0
M  V30 2397 H 217.696 -0.664321 -7.53076 0
M  V30 2398 H 218.964 0.498644 -7.77903 0
M  V30 2399 N 223.193 1.4272 -0.668489 0
M  V30 2400 C 224.123 2.335 -0.000100175 0
M  V30 2401 C 225.104 1.50328 0.795964 0
M  V30 2402 O 226.289 1.78949 0.754385 0
M  V30 2403 C 223.419 3.33874 0.956302 0
M  V30 2404 C 222.373 4.27152 0.269278 0
M  V30 2405 C 221.699 5.17684 1.33818 0
M  V30 2406 C 222.999 5.15373 -0.847805 0
M  V30 2407 H 224.693 2.89639 -0.758244 0
M  V30 2408 H 222.239 1.39269 -0.366079 0
M  V30 2409 H 224.192 3.9629 1.43292 0
M  V30 2410 H 222.916 2.76025 1.74579 0
M  V30 2411 H 221.575 3.66123 -0.187042 0
M  V30 2412 H 221.223 4.56165 2.1195 0
M  V30 2413 H 220.923 5.80918 0.883659 0
M  V30 2414 H 222.447 5.82974 1.81586 0
M  V30 2415 H 223.861 5.7151 -0.452681 0
M  V30 2416 H 222.258 5.87407 -1.22773 0
M  V30 2417 H 223.328 4.5415 -1.69929 0
M  V30 2418 N 224.671 0.411399 1.52136 0
M  V30 2419 C 225.634 -0.401089 2.25663 0
M  V30 2420 C 226.634 -0.971732 1.28117 0
M  V30 2421 O 227.824 -0.850254 1.52041 0
M  V30 2422 C 224.956 -1.56483 3.02863 0
M  V30 2423 H 226.149 0.24295 2.98914 0
M  V30 2424 H 223.702 0.163968 1.55438 0
M  V30 2425 H 224.437 -2.24567 2.33967 0
M  V30 2426 H 224.222 -1.16211 3.74483 0
M  V30 2427 H 225.712 -2.13951 3.58629 0
M  V30 2428 N 226.149 -1.5696 0.141893 0
M  V30 2429 C 227.426 -1.87553 -0.555281 0
M  V30 2430 C 227.806 -1.04699 -1.83306 0
M  V30 2431 O 227.154 -0.132346 -2.28116 0
M  V30 2432 C 227.364 -3.39093 -0.825664 0
M  V30 2433 C 228.712 -4.08199 -1.16869 0
M  V30 2434 O 229.736 -3.44242 -0.915185 0
M  V30 2435 O 228.595 -5.21139 -1.6455 0
M  V30 2436 H 225.689 -0.777188 -0.282679 0
M  V30 2437 H 228.235 -1.68763 0.17812 0
M  V30 2438 H 227.007 -3.91221 0.0788633 0
M  V30 2439 H 226.63 -3.63393 -1.61343 0
M  V30 2440 N 227.627 0.131896 -1.57047 0
M  V30 2441 C 228.874 0.841932 -1.84168 0
M  V30 2442 C 229.202 1.8048 -0.725066 0
M  V30 2443 O 228.457 1.93618 0.284692 0
M  V30 2444 C 228.756 1.63703 -3.17704 0
M  V30 2445 C 228.422 0.81961 -4.43388 0
M  V30 2446 C 227.084 0.594148 -4.77518 0
M  V30 2447 C 229.436 0.248977 -5.20605 0
M  V30 2448 C 226.764 -0.212409 -5.86315 0
M  V30 2449 C 229.116 -0.544701 -6.30251 0
M  V30 2450 C 227.78 -0.780599 -6.6292 0
M  V30 2451 H 227.05 0.308085 -0.673917 0
M  V30 2452 H 229.697 0.104867 -1.91213 0
M  V30 2453 H 228.002 2.44464 -3.06177 0
M  V30 2454 H 229.699 2.19015 -3.35907 0
M  V30 2455 H 226.289 1.00542 -4.16641 0
M  V30 2456 H 230.473 0.410408 -4.946 0
M  V30 2457 H 225.729 -0.404524 -6.1006 0
M  V30 2458 H 229.903 -0.993922 -6.89271 0
M  V30 2459 H 227.53 -1.40742 -7.47058 0
M  V30 2460 N 229.106 1.52395 0.401703 0
M  V30 2461 C 230.354 1.66488 1.14569 0
M  V30 2462 C 230.675 0.400897 1.90835 0
M  V30 2463 O 229.945 -0.584415 1.8698 0
M  V30 2464 H 228.525 0.613672 0.425929 0
M  V30 2465 H 231.187 1.89464 0.457093 0
M  V30 2466 H 230.283 2.50942 1.85566 0
M  V30 2467 N 230.584 -0.659388 1.43143 0
M  V30 2468 C 231.83 -1.42145 1.44647 0
M  V30 2469 C 232.163 -1.9408 0.0681907 0
M  V30 2470 O 231.438 -1.71899 -0.910007 0
M  V30 2471 C 231.721 -2.60735 2.48373 0
M  V30 2472 C 231.574 -2.14332 3.95451 0
M  V30 2473 C 232.893 -3.62951 2.48906 0
M  V30 2474 H 230.012 -0.51552 0.526696 0
M  V30 2475 H 232.654 -0.748069 1.74654 0
M  V30 2476 H 230.804 -3.18184 2.22916 0
M  V30 2477 H 232.476 -1.61932 4.31944 0
M  V30 2478 H 230.719 -1.4576 4.08578 0
M  V30 2479 H 231.39 -2.99583 4.63631 0
M  V30 2480 H 233.866 -3.1525 2.71582 0
M  V30 2481 H 232.742 -4.43487 3.23435 0
M  V30 2482 H 233.003 -4.15126 1.52061 0
M  V30 2483 N 232.062 -1.29571 -0.897171 0
M  V30 2484 C 233.287 -1.20705 -1.68656 0
M  V30 2485 C 233.712 0.228582 -1.86706 0
M  V30 2486 O 233.07 1.16494 -1.3892 0
M  V30 2487 C 233.118 -1.9282 -3.04717 0
M  V30 2488 O 232.222 -1.24697 -3.93096 0
M  V30 2489 H 231.563 -0.418126 -0.515816 0
M  V30 2490 H 234.093 -1.71183 -1.12061 0
M  V30 2491 H 234.103 -2.01372 -3.54843 0
M  V30 2492 H 232.778 -2.97239 -2.90899 0
M  V30 2493 H 231.355 -1.2442 -3.51531 0
M  V30 2494 N 233.54 1.10788 -1.12088 0
M  V30 2495 C 234.503 2.15207 -0.788577 0
M  V30 2496 C 235.503 1.59609 0.195317 0
M  V30 2497 O 236.693 1.74174 -0.0300193 0
M  V30 2498 C 233.825 3.4047 -0.171174 0
M  V30 2499 H 235.018 2.46116 -1.71368 0
M  V30 2500 H 232.571 1.26089 -0.923652 0
M  V30 2501 H 233.306 3.15176 0.763832 0
M  V30 2502 H 233.091 3.82109 -0.879514 0
M  V30 2503 H 234.581 4.17576 0.04496 0
M  V30 2504 N 235.018 0.912232 1.28515 0
M  V30 2505 C 235.95 0.35676 2.26406 0
M  V30 2506 C 236.963 -0.503933 1.54804 0
M  V30 2507 O 238.152 -0.319059 1.75625 0
M  V30 2508 C 235.252 -0.508825 3.35058 0
M  V30 2509 C 234.425 0.329007 4.36161 0
M  V30 2510 C 233.484 -0.471422 5.24084 0
M  V30 2511 O 232.51 0.115482 5.69083 0
M  V30 2512 N 233.712 -1.77479 5.52704 0
M  V30 2513 H 236.477 1.19818 2.74707 0
M  V30 2514 H 234.038 0.778022 1.4198 0
M  V30 2515 H 236.03 -1.051 3.90815 0
M  V30 2516 H 234.6 -1.25095 2.86478 0
M  V30 2517 H 233.82 1.05256 3.79888 0
M  V30 2518 H 235.108 0.90234 5.00735 0
M  V30 2519 H 234.506 -2.27417 5.17975 0
M  V30 2520 H 233.063 -2.26382 6.11224 0
M  V30 2521 N 236.496 -1.42363 0.676048 0
M  V30 2522 C 237.745 -2.00745 0.196037 0
M  V30 2523 C 238.058 -1.54083 -1.20489 0
M  V30 2524 O 239.264 -2.04891 -1.78134 0
M  V30 2525 C 237.72 -3.58651 0.299616 0
M  V30 2526 C 237.328 -4.143 1.70468 0
M  V30 2527 C 239.072 -4.24326 -0.121619 0
M  V30 2528 C 236.979 -5.64574 1.76096 0
M  V30 2529 H 235.909 -0.750787 0.0695301 0
M  V30 2530 H 238.56 -1.63072 0.841412 0
M  V30 2531 H 236.942 -3.93833 -0.413673 0
M  V30 2532 H 238.116 -3.90575 2.44515 0
M  V30 2533 H 236.431 -3.61081 2.07387 0
M  V30 2534 H 239.028 -5.34607 -0.0997362 0
M  V30 2535 H 239.371 -3.99897 -1.15708 0
M  V30 2536 H 239.904 -3.94108 0.540706 0
M  V30 2537 H 236.643 -5.93804 2.77628 0
M  V30 2538 H 236.163 -5.90286 1.06406 0
M  V30 2539 H 237.842 -6.29013 1.51496 0
M  V30 2540 N 237.974 -0.419461 -1.51915 0
M  V30 2541 C 239.202 0.152136 -2.0634 0
M  V30 2542 C 239.617 1.37988 -1.28859 0
M  V30 2543 O 238.974 1.79243 -0.343232 0
M  V30 2544 C 239.025 0.492266 -3.58133 0
M  V30 2545 O 238.746 -0.686736 -4.32684 0
M  V30 2546 C 240.247 1.11648 -4.2901 0
M  V30 2547 H 237.467 0.0158325 -0.670813 0
M  V30 2548 H 240.011 -0.593394 -1.95702 0
M  V30 2549 H 238.166 1.18769 -3.68745 0
M  V30 2550 H 238.58 -0.400341 -5.2297 0
M  V30 2551 H 240.054 1.3046 -5.36362 0
M  V30 2552 H 240.531 2.09251 -3.86148 0
M  V30 2553 H 241.137 0.460958 -4.22795 0
M  V30 2554 N 239.452 1.56882 -0.150215 0
M  V30 2555 C 240.415 2.1573 0.774157 0
M  V30 2556 C 241.415 1.0999 1.17298 0
M  V30 2557 O 242.605 1.35613 1.09338 0
M  V30 2558 C 239.737 2.72302 2.05096 0
M  V30 2559 H 240.93 2.98752 0.262201 0
M  V30 2560 H 238.483 1.55985 0.099248 0
M  V30 2561 H 239.218 1.92956 2.6065 0
M  V30 2562 H 239.003 3.49665 1.77416 0
M  V30 2563 H 240.493 3.17632 2.71109 0
M  V30 2564 N 240.93 -0.123565 1.57115 0
M  V30 2565 C 242.158 -0.846461 1.88793 0
M  V30 2566 C 242.573 -1.73652 0.740976 0
M  V30 2567 O 241.93 -1.80207 -0.288393 0
M  V30 2568 C 241.981 -1.6837 3.19897 0
M  V30 2569 O 241.702 -0.829477 4.30176 0
M  V30 2570 C 243.203 -2.51214 3.65248 0
M  V30 2571 H 240.423 -0.243573 0.625231 0
M  V30 2572 H 242.967 -0.109324 2.04208 0
M  V30 2573 H 241.122 -2.37364 3.06165 0
M  V30 2574 H 241.536 -1.40651 5.0529 0
M  V30 2575 H 243.01 -3.05497 4.59756 0
M  V30 2576 H 243.487 -3.28359 2.9168 0
M  V30 2577 H 244.093 -1.8747 3.81752 0
M  V30 2578 N 242.408 -1.52605 -0.393616 0
M  V30 2579 C 243.657 -1.66649 -1.13627 0
M  V30 2580 C 243.97 -0.410364 -1.91247 0
M  V30 2581 O 245.176 -0.430854 -2.68059 0
M  V30 2582 C 243.632 -2.9449 -2.06891 0
M  V30 2583 C 243.24 -4.27266 -1.34714 0
M  V30 2584 C 244.984 -3.17899 -2.81319 0
M  V30 2585 C 242.891 -5.46217 -2.26717 0
M  V30 2586 H 241.821 -0.62084 -0.427871 0
M  V30 2587 H 244.472 -1.791 -0.399428 0
M  V30 2588 H 242.854 -2.75774 -2.84191 0
M  V30 2589 H 244.028 -4.56518 -0.626714 0
M  V30 2590 H 242.343 -4.10081 -0.722643 0
M  V30 2591 H 244.94 -4.03949 -3.50328 0
M  V30 2592 H 245.283 -2.32777 -3.45139 0
M  V30 2593 H 245.816 -3.37159 -2.11113 0
M  V30 2594 H 242.555 -6.33733 -1.67521 0
M  V30 2595 H 242.075 -5.21283 -2.96689 0
M  V30 2596 H 243.754 -5.7991 -2.86903 0
M  V30 2597 N 243.887 0.651787 -1.4349 0
M  V30 2598 C 244.85 1.74647 -1.48429 0
M  V30 2599 C 245.85 1.56513 -0.368817 0
M  V30 2600 O 247.04 1.62385 -0.630623 0
M  V30 2601 C 244.172 3.13533 -1.33827 0
M  V30 2602 H 245.365 1.71649 -2.4592 0
M  V30 2603 H 242.918 0.863573 -1.30277 0
M  V30 2604 H 243.653 3.22142 -0.37349 0
M  V30 2605 H 243.438 3.28101 -2.14691 0
M  V30 2606 H 244.928 3.93356 -1.40218 0
M  V30 2607 N 245.365 1.30045 0.890287 0
M  V30 2608 C 246.312 1.15976 1.99545 0
M  V30 2609 C 247.282 0.0506202 1.66023 0
M  V30 2610 O 248.467 0.219847 1.89529 0
M  V30 2611 C 245.607 0.852054 3.34416 0
M  V30 2612 C 244.72 2.04255 3.80662 0
M  V30 2613 C 243.855 1.6734 5.04154 0
M  V30 2614 C 242.894 2.82916 5.42794 0
M  V30 2615 N 242.031 2.46333 6.57468 0
M  V30 2616 H 246.871 2.10524 2.10911 0
M  V30 2617 H 244.408 1.04749 1.03276 0
M  V30 2618 H 246.366 0.654296 4.12037 0
M  V30 2619 H 244.996 -0.0565502 3.2275 0
M  V30 2620 H 244.048 2.35172 2.98995 0
M  V30 2621 H 245.36 2.90826 4.05242 0
M  V30 2622 H 244.514 1.43908 5.89386 0
M  V30 2623 H 243.253 0.779308 4.81433 0
M  V30 2624 H 242.258 3.0702 4.56091 0
M  V30 2625 H 243.483 3.73004 5.6749 0
M  V30 2626 H 241.429 1.59423 6.36334 0
M  V30 2627 H 241.346 3.26436 6.81891 0
M  V30 2628 H 242.614 2.26244 7.45945 0
M  V30 2629 N 246.843 -1.10192 1.12674 0
M  V30 2630 C 248.259 -1.34235 0.863317 0
M  V30 2631 C 248.459 -1.95062 -0.505277 0
M  V30 2632 O 247.515 -2.19192 -1.25345 0
M  V30 2633 C 248.828 -2.2616 1.98172 0
M  V30 2634 C 250.376 -2.3969 2.0129 0
M  V30 2635 C 250.851 -3.34946 3.1237 0
M  V30 2636 N 252.342 -3.42515 3.11829 0
M  V30 2637 C 253.077 -4.16199 3.94419 0
M  V30 2638 N 252.573 -4.92747 4.87004 0
M  V30 2639 N 254.366 -4.11843 3.82547 0
M  V30 2640 H 246.517 -0.690798 2.00853 0
M  V30 2641 H 248.78 -0.366774 0.874174 0
M  V30 2642 H 248.486 -1.8868 2.96804 0
M  V30 2643 H 248.36 -3.26488 1.88906 0
M  V30 2644 H 250.747 -2.76438 1.03276 0
M  V30 2645 H 250.828 -1.39169 2.14629 0
M  V30 2646 H 250.472 -2.98923 4.10619 0
M  V30 2647 H 250.402 -4.35353 2.96269 0
M  V30 2648 H 252.893 -2.87926 2.44759 0
M  V30 2649 H 253.206 -5.46376 5.46528 0
M  V30 2650 H 251.551 -4.91862 4.91016 0
M  V30 2651 H 254.742 -3.51136 3.0955 0
M  V30 2652 H 254.915 -4.69007 4.47142 0
M  V30 2653 N 248.321 -0.919034 -1.28029 0
M  V30 2654 C 249.268 -0.410005 -2.27129 0
M  V30 2655 C 250.238 0.518405 -1.57803 0
M  V30 2656 O 251.423 0.439451 -1.8567 0
M  V30 2657 C 248.563 0.339054 -3.4343 0
M  V30 2658 C 247.676 -0.622468 -4.27492 0
M  V30 2659 C 246.811 0.145567 -5.31001 0
M  V30 2660 C 245.85 -0.809226 -6.06727 0
M  V30 2661 N 244.987 -0.0743728 -7.02061 0
M  V30 2662 H 249.827 -1.26011 -2.70047 0
M  V30 2663 H 247.364 -0.632663 -1.328 0
M  V30 2664 H 249.322 0.789586 -4.0966 0
M  V30 2665 H 247.952 1.15346 -3.01488 0
M  V30 2666 H 247.004 -1.19153 -3.61257 0
M  V30 2667 H 248.316 -1.35252 -4.80113 0
M  V30 2668 H 247.47 0.656417 -6.03139 0
M  V30 2669 H 246.209 0.908643 -4.79161 0
M  V30 2670 H 245.214 -1.3314 -5.33436 0
M  V30 2671 H 246.439 -1.57194 -6.60656 0
M  V30 2672 H 244.385 0.670616 -6.52563 0
M  V30 2673 H 244.302 -0.744157 -7.52329 0
M  V30 2674 H 245.57 0.416109 -7.78389 0
M  V30 2675 N 249.799 1.42003 -0.683588 0
M  V30 2676 C 251.024 2.06265 -0.216647 0
M  V30 2677 C 251.449 1.51059 1.12083 0
M  V30 2678 O 250.807 0.632638 1.69904 0
M  V30 2679 C 250.855 3.60191 -0.171759 0
M  V30 2680 O 249.959 4.03396 0.857069 0
M  V30 2681 H 249.3 0.65502 -0.108834 0
M  V30 2682 H 251.83 1.81982 -0.935077 0
M  V30 2683 H 251.84 4.08 0.0014303 0
M  V30 2684 H 250.515 3.99743 -1.14796 0
M  V30 2685 H 249.092 3.67117 0.654208 0
M  V30 2686 N 251.277 0.427512 1.51691 0
M  V30 2687 C 252.524 -0.142229 2.02 0
M  V30 2688 C 252.852 -1.43566 1.31221 0
M  V30 2689 O 252.107 -1.91298 0.412744 0
M  V30 2690 C 252.406 -0.418249 3.54944 0
M  V30 2691 C 252.072 0.788187 4.43958 0
M  V30 2692 C 250.734 1.11906 4.68007 0
M  V30 2693 C 253.086 1.59347 4.96244 0
M  V30 2694 C 250.414 2.25608 5.41588 0
M  V30 2695 C 252.766 2.7214 5.71072 0
M  V30 2696 C 251.43 3.05692 5.93387 0
M  V30 2697 H 250.7 -0.0520451 0.73917 0
M  V30 2698 H 253.347 0.572697 1.82736 0
M  V30 2699 H 251.652 -1.21496 3.72486 0
M  V30 2700 H 253.349 -0.872339 3.91397 0
M  V30 2701 H 249.939 0.520344 4.2543 0
M  V30 2702 H 254.123 1.35106 4.77556 0
M  V30 2703 H 249.379 2.51929 5.57083 0
M  V30 2704 H 253.553 3.34914 6.10578 0
M  V30 2705 H 251.18 3.9391 6.50184 0
M  V30 2706 N 252.755 -1.56801 0.158532 0
M  V30 2707 C 254.004 -1.95665 -0.489702 0
M  V30 2708 C 254.317 -1.04654 -1.65248 0
M  V30 2709 O 255.523 -1.33146 -2.3661 0
M  V30 2710 C 253.979 -3.47874 -0.922582 0
M  V30 2711 C 253.587 -4.47489 0.213893 0
M  V30 2712 C 255.331 -3.95583 -1.53996 0
M  V30 2713 C 253.238 -5.90921 -0.237903 0
M  V30 2714 H 252.168 -0.730516 -0.186716 0
M  V30 2715 H 254.819 -1.81861 0.244722 0
M  V30 2716 H 253.201 -3.57051 -1.71261 0
M  V30 2717 H 254.375 -4.50017 0.991036 0
M  V30 2718 H 252.69 -4.09764 0.740407 0
M  V30 2719 H 255.287 -5.0019 -1.8898 0
M  V30 2720 H 255.63 -3.37789 -2.43319 0
M  V30 2721 H 256.163 -3.8937 -0.814611 0
M  V30 2722 H 252.902 -6.52559 0.620236 0
M  V30 2723 H 252.422 -5.91729 -0.980676 0
M  V30 2724 H 254.101 -6.43352 -0.686067 0
M  V30 2725 N 254.233 0.115231 -1.57178 0
M  V30 2726 C 255.481 0.820727 -1.84685 0
M  V30 2727 C 255.802 1.80237 -0.744279 0
M  V30 2728 O 255.072 1.94529 0.231375 0
M  V30 2729 H 253.652 0.306084 -0.681411 0
M  V30 2730 H 256.314 0.101656 -1.94635 0
M  V30 2731 H 255.41 1.36366 -2.80733 0
M  V30 2732 N 255.711 1.52812 0.385517 0
M  V30 2733 C 256.939 1.71907 1.15133 0
M  V30 2734 C 257.354 0.439004 1.83625 0
M  V30 2735 O 256.711 -0.586765 1.7281 0
M  V30 2736 C 256.762 2.87099 2.19673 0
M  V30 2737 O 256.483 4.10151 1.53973 0
M  V30 2738 C 257.984 3.17902 3.08955 0
M  V30 2739 H 255.204 0.575479 0.345057 0
M  V30 2740 H 257.748 1.99476 0.45052 0
M  V30 2741 H 255.903 2.61982 2.85384 0
M  V30 2742 H 256.317 4.74514 2.23465 0
M  V30 2743 H 257.791 4.01959 3.7833 0
M  V30 2744 H 258.268 2.3243 3.72657 0
M  V30 2745 H 258.874 3.44871 2.48885 0
M  V30 2746 N 257.189 -0.644168 1.43834 0
M  V30 2747 C 258.6 -1.22554 1.40845 0
M  V30 2748 C 258.951 -1.9585 0.117115 0
M  V30 2749 O 258.076 -2.01734 -0.783086 0
M  V30 2750 C 258.671 -2.22907 2.55143 0
M  V30 2751 C 257.23 -2.76501 2.5539 0
M  V30 2752 C 256.377 -1.51287 2.32396 0
M  V30 2753 H 259.328 -0.43563 1.52604 0
M  V30 2754 H 259.349 -3.05259 2.2715 0
M  V30 2755 H 258.861 -1.69533 3.49114 0
M  V30 2756 H 256.962 -3.33914 1.65324 0
M  V30 2757 H 257.075 -3.23429 3.53455 0
M  V30 2758 H 255.439 -1.78957 1.81236 0
M  V30 2759 H 256.222 -0.998336 3.28463 0
M  V30 2760 N 258.668 -1.30515 -0.883378 0
M  V30 2761 C 259.898 -1.22182 -1.66599 0
M  V30 2762 C 260.306 0.217507 -1.87946 0
M  V30 2763 O 259.649 1.1554 -1.42815 0
M  V30 2764 C 259.711 -1.88146 -3.06335 0
M  V30 2765 C 259.375 -3.37476 -3.08154 0
M  V30 2766 C 260.372 -4.33443 -2.87094 0
M  V30 2767 C 258.057 -3.7895 -3.29701 0
M  V30 2768 C 260.051 -5.68858 -2.8754 0
M  V30 2769 C 257.738 -5.14482 -3.29776 0
M  V30 2770 C 258.736 -6.09246 -3.0872 0
M  V30 2771 O 258.424 -7.42302 -3.08615 0
M  V30 2772 H 258.156 -0.423898 -0.52658 0
M  V30 2773 H 260.71 -1.72703 -1.11188 0
M  V30 2774 H 258.94 -1.32157 -3.63416 0
M  V30 2775 H 260.629 -1.7391 -3.66756 0
M  V30 2776 H 261.395 -4.02733 -2.70243 0
M  V30 2777 H 257.274 -3.05631 -3.45124 0
M  V30 2778 H 260.818 -6.428 -2.71024 0
M  V30 2779 H 256.715 -5.44832 -3.46163 0
M  V30 2780 H 257.483 -7.5131 -3.24769 0
M  V30 2781 N 260.146 1.09593 -1.13257 0
M  V30 2782 C 261.392 1.82181 -0.904521 0
M  V30 2783 C 261.747 1.83967 0.563358 0
M  V30 2784 O 261.04 1.29566 1.41149 0
M  V30 2785 C 261.234 3.27802 -1.42411 0
M  V30 2786 C 261.063 3.40201 -2.94097 0
M  V30 2787 C 259.833 3.52104 -3.62424 0
M  V30 2788 C 262.031 3.32875 -3.92044 0
M  V30 2789 N 260.013 3.53169 -5.0214 0
M  V30 2790 C 261.384 3.40789 -5.17941 0
M  V30 2791 C 263.439 3.16531 -3.84334 0
M  V30 2792 C 262.142 3.34042 -6.37031 0
M  V30 2793 C 264.168 3.11109 -5.02956 0
M  V30 2794 C 263.53 3.19614 -6.27715 0
M  V30 2795 H 259.629 0.681015 -0.384373 0
M  V30 2796 H 262.213 1.3099 -1.44048 0
M  V30 2797 H 260.384 3.77466 -0.915086 0
M  V30 2798 H 262.116 3.88393 -1.13722 0
M  V30 2799 H 258.871 3.5548 -3.12939 0
M  V30 2800 H 259.295 3.57291 -5.75041 0
M  V30 2801 H 263.937 3.08827 -2.88766 0
M  V30 2802 H 261.655 3.4051 -7.32857 0
M  V30 2803 H 265.241 2.99601 -4.98729 0
M  V30 2804 H 264.121 3.15432 -7.17964 0
M  V30 2805 N 261.624 0.925811 1.2754 0
M  V30 2806 C 262.557 0.367836 2.25216 0
M  V30 2807 C 263.535 -0.534738 1.53556 0
M  V30 2808 O 264.719 -0.475672 1.824 0
M  V30 2809 C 261.846 -0.47298 3.35381 0
M  V30 2810 C 260.892 0.365898 4.24928 0
M  V30 2811 S 261.725 1.78025 5.05042 0
M  V30 2812 C 262.881 0.947068 6.18693 0
M  V30 2813 H 263.114 1.19568 2.72196 0
M  V30 2814 H 260.647 0.727867 1.36167 0
M  V30 2815 H 262.605 -0.952242 3.99303 0
M  V30 2816 H 261.266 -1.27533 2.87044 0
M  V30 2817 H 260.459 -0.277582 5.03235 0
M  V30 2818 H 260.061 0.779261 3.65792 0
M  V30 2819 H 262.353 0.182201 6.77255 0
M  V30 2820 H 263.296 1.70309 6.87314 0
M  V30 2821 H 263.704 0.489913 5.6237 0
M  V30 2822 N 263.102 -1.41638 0.69111 0
M  V30 2823 C 264.065 -2.29178 0.0319786 0
M  V30 2824 C 265.065 -1.44153 -0.712496 0
M  V30 2825 O 266.255 -1.65354 -0.548053 0
M  V30 2826 C 263.387 -3.26952 -0.965161 0
M  V30 2827 H 264.58 -2.88959 0.802681 0
M  V30 2828 H 262.133 -1.4955 0.454356 0
M  V30 2829 H 262.868 -2.72142 -1.76378 0
M  V30 2830 H 262.653 -3.89685 -0.434522 0
M  V30 2831 H 264.143 -3.92561 -1.42428 0
M  V30 2832 N 264.58 -0.43555 -1.51462 0
M  V30 2833 C 265.991 0.0279871 -1.86679 0
M  V30 2834 C 266.342 1.42104 -1.35281 0
M  V30 2835 O 265.467 2.04667 -0.702878 0
M  V30 2836 C 266.062 0.0575626 -3.38751 0
M  V30 2837 C 264.621 0.465507 -3.7351 0
M  V30 2838 C 263.768 -0.342996 -2.75171 0
M  V30 2839 H 266.719 -0.651473 -1.44712 0
M  V30 2840 H 266.74 0.867421 -3.70481 0
M  V30 2841 H 266.252 -0.956448 -3.7613 0
M  V30 2842 H 264.353 1.48519 -3.41721 0
M  V30 2843 H 264.466 0.191546 -4.78717 0
M  V30 2844 H 262.83 0.198442 -2.53926 0
M  V30 2845 H 263.613 -1.35585 -3.15391 0
M  V30 2846 N 266.058 1.56714 -0.166846 0
M  V30 2847 C 266.968 2.21331 0.777791 0
M  V30 2848 C 267.984 1.20358 1.25658 0
M  V30 2849 O 269.16 1.53005 1.30964 0
M  V30 2850 C 266.225 2.83787 1.99163 0
M  V30 2851 C 265.286 3.99947 1.56016 0
M  V30 2852 C 264.519 4.59415 2.71613 0
M  V30 2853 O 264.742 4.17769 3.88362 0
M  V30 2854 O 263.676 5.49359 2.45945 0
M  V30 2855 H 267.502 3.02605 0.257636 0
M  V30 2856 H 265.087 1.49275 0.0611393 0
M  V30 2857 H 266.969 3.23405 2.70161 0
M  V30 2858 H 265.644 2.05513 2.50092 0
M  V30 2859 H 264.551 3.65007 0.819809 0
M  V30 2860 H 265.884 4.79801 1.09782 0
M  V30 2861 N 267.536 -0.106894 1.57237 0
M  V30 2862 C 268.782 -0.81373 1.85759 0
M  V30 2863 C 269.115 -1.78952 0.754315 0
M  V30 2864 O 268.39 -1.93029 -0.23879 0
M  V30 2865 C 268.673 -1.55293 3.24894 0
M  V30 2866 C 268.526 -0.595929 4.45835 0
M  V30 2867 C 269.845 -2.5063 3.61763 0
M  V30 2868 H 266.964 -0.294369 0.67566 0
M  V30 2869 H 269.606 -0.0776472 1.89841 0
M  V30 2870 H 267.756 -2.1804 3.21544 0
M  V30 2871 H 269.428 0.0236262 4.61294 0
M  V30 2872 H 267.671 0.0916191 4.33703 0
M  V30 2873 H 268.342 -1.15004 5.39887 0
M  V30 2874 H 270.818 -1.97982 3.65981 0
M  V30 2875 H 269.694 -2.99376 4.60071 0
M  V30 2876 H 269.955 -3.3385 2.89821 0
M  V30 2877 N 269.014 -1.53014 -0.377408 0
M  V30 2878 C 269.977 -1.77957 -1.44444 0
M  V30 2879 C 270.977 -0.649763 -1.47087 0
M  V30 2880 O 272.167 -0.917897 -1.48055 0
M  V30 2881 C 269.299 -1.89089 -2.83651 0
M  V30 2882 H 270.492 -2.73243 -1.23606 0
M  V30 2883 H 268.045 -1.43912 -0.609844 0
M  V30 2884 H 268.78 -0.958293 -3.09818 0
M  V30 2885 H 268.565 -2.71254 -2.83132 0
M  V30 2886 H 270.055 -2.1002 -3.60945 0
M  V30 2887 N 270.492 0.636531 -1.44174 0
M  V30 2888 C 271.455 1.73063 -1.50273 0
M  V30 2889 C 272.455 1.56113 -0.385397 0
M  V30 2890 O 273.645 1.61707 -0.64781 0
M  V30 2891 C 270.777 3.12096 -1.37145 0
M  V30 2892 H 271.97 1.69031 -2.47727 0
M  V30 2893 H 269.523 0.849706 -1.31186 0
M  V30 2894 H 270.258 3.21728 -0.407636 0
M  V30 2895 H 270.043 3.25805 -2.18159 0
M  V30 2896 H 271.533 3.91846 -1.44382 0
M  V30 2897 N 271.97 1.30982 0.876444 0
M  V30 2898 C 273.216 1.20474 1.63138 0
M  V30 2899 C 273.549 -0.238096 1.92735 0
M  V30 2900 O 272.824 -1.1692 1.55435 0
M  V30 2901 C 273.107 2.04244 2.96574 0
M  V30 2902 C 272.96 3.56793 2.73896 0
M  V30 2903 C 274.279 1.88684 3.97601 0
M  V30 2904 H 271.398 0.439001 0.591985 0
M  V30 2905 H 274.04 1.60704 1.01361 0
M  V30 2906 H 272.19 1.70063 3.493 0
M  V30 2907 H 273.862 4.01077 2.27892 0
M  V30 2908 H 272.105 3.80548 2.08245 0
M  V30 2909 H 272.776 4.10706 3.68815 0
M  V30 2910 H 275.252 2.18584 3.54062 0
M  V30 2911 H 274.128 2.4961 4.88862 0
M  V30 2912 H 274.389 0.848343 4.33884 0
M  V30 2913 N 273.449 -1.08991 1.13837 0
M  V30 2914 C 274.359 -2.19301 0.833333 0
M  V30 2915 C 275.375 -1.73026 -0.183847 0
M  V30 2916 O 276.551 -2.01395 -0.0138092 0
M  V30 2917 C 273.616 -3.45323 0.308651 0
M  V30 2918 C 272.677 -4.06255 1.38764 0
M  V30 2919 C 271.91 -5.26262 0.887896 0
M  V30 2920 O 272.133 -5.69747 -0.27287 0
M  V30 2921 O 271.067 -5.78435 1.66421 0
M  V30 2922 H 274.893 -2.47854 1.75506 0
M  V30 2923 H 272.478 -1.18012 0.916166 0
M  V30 2924 H 274.36 -4.21394 0.0216739 0
M  V30 2925 H 273.035 -3.18362 -0.585431 0
M  V30 2926 H 271.942 -3.318 1.72799 0
M  V30 2927 H 273.275 -4.37452 2.25602 0
M  V30 2928 N 274.927 -0.932562 -1.27047 0
M  V30 2929 C 276.343 -0.633544 -1.46487 0
M  V30 2930 C 276.543 0.815746 -1.84249 0
M  V30 2931 O 275.599 1.59319 -1.95892 0
M  V30 2932 C 276.912 -1.58758 -2.55375 0
M  V30 2933 C 278.46 -1.59634 -2.69232 0
M  V30 2934 C 278.935 -2.53747 -3.81283 0
M  V30 2935 N 280.426 -2.51982 -3.88664 0
M  V30 2936 C 281.161 -3.21491 -4.74796 0
M  V30 2937 N 280.657 -4.00395 -5.65381 0
M  V30 2938 N 282.45 -3.10485 -4.68568 0
M  V30 2939 H 274.601 -1.86946 -1.00821 0
M  V30 2940 H 276.864 -0.802897 -0.504044 0
M  V30 2941 H 276.57 -2.62172 -2.34432 0
M  V30 2942 H 276.444 -1.33301 -3.52861 0
M  V30 2943 H 278.831 -0.569488 -2.89553 0
M  V30 2944 H 278.912 -1.89142 -1.72218 0
M  V30 2945 H 278.556 -3.56545 -3.61715 0
M  V30 2946 H 278.486 -2.21532 -4.77735 0
M  V30 2947 H 280.977 -1.94681 -3.23895 0
M  V30 2948 H 281.29 -4.50406 -6.27976 0
M  V30 2949 H 279.635 -4.04498 -5.65161 0
M  V30 2950 H 282.826 -2.48331 -3.96799 0
M  V30 2951 H 282.999 -3.64925 -5.35475 0
M  V30 2952 N 276.405 1.4127 -0.698611 0
M  V30 2953 C 277.352 2.30773 -0.0352094 0
M  V30 2954 C 278.322 1.47273 0.768111 0
M  V30 2955 O 279.507 1.76053 0.735524 0
M  V30 2956 C 276.647 3.33346 0.893 0
M  V30 2957 C 275.76 4.31924 0.0809695 0
M  V30 2958 C 274.895 5.21566 1.0071 0
M  V30 2959 C 273.934 6.11811 0.188155 0
M  V30 2960 N 273.071 6.93926 1.06825 0
M  V30 2961 H 277.911 2.86943 -0.804207 0
M  V30 2962 H 275.448 1.4132 -0.408294 0
M  V30 2963 H 277.406 3.91368 1.44523 0
M  V30 2964 H 276.036 2.78719 1.62836 0
M  V30 2965 H 275.088 3.75825 -0.588224 0
M  V30 2966 H 276.4 4.95716 -0.553801 0
M  V30 2967 H 275.554 5.84437 1.62845 0
M  V30 2968 H 274.293 4.58008 1.67572 0
M  V30 2969 H 273.298 5.47986 -0.446254 0
M  V30 2970 H 274.523 6.77425 -0.476716 0
M  V30 2971 H 272.469 6.32973 1.72283 0
M  V30 2972 H 272.386 7.54416 0.489123 0
M  V30 2973 H 273.654 7.61262 1.67632 0
M  V30 2974 N 277.883 0.443576 1.51229 0
M  V30 2975 C 279.131 -0.120557 2.0174 0
M  V30 2976 C 279.452 -1.42665 1.32935 0
M  V30 2977 O 278.722 -1.9028 0.465866 0
M  V30 2978 H 277.302 -0.0475426 0.745486 0
M  V30 2979 H 279.964 0.587711 1.85828 0
M  V30 2980 H 279.06 -0.291972 3.10731 0
M  V30 2981 N 279.361 -1.56624 0.175154 0
M  V30 2982 C 280.609 -1.96609 -0.467885 0
M  V30 2983 C 280.93 -1.06238 -1.63519 0
M  V30 2984 O 280.2 -0.129523 -1.95471 0
M  V30 2985 H 278.78 -0.726008 -0.175845 0
M  V30 2986 H 281.442 -1.93195 0.257234 0
M  V30 2987 H 280.538 -3.00989 -0.825342 0
M  V30 2988 N 280.839 0.0985539 -1.57292 0
M  V30 2989 C 282.069 0.815135 -1.8984 0
M  V30 2990 C 282.477 1.7297 -0.766679 0
M  V30 2991 O 281.82 1.81698 0.270483 0
M  V30 2992 C 281.882 1.6842 -3.17608 0
M  V30 2993 C 281.546 0.94182 -4.4719 0
M  V30 2994 C 282.543 0.273212 -5.19182 0
M  V30 2995 C 280.228 0.916927 -4.9386 0
M  V30 2996 C 282.222 -0.410361 -6.36078 0
M  V30 2997 C 279.909 0.229567 -6.10669 0
M  V30 2998 C 280.907 -0.432902 -6.81627 0
M  V30 2999 O 280.595 -1.10925 -7.9621 0
M  V30 3000 H 280.327 0.238501 -0.632529 0
M  V30 3001 H 282.881 0.0812659 -2.05239 0
M  V30 3002 H 281.111 2.46022 -2.98345 0
M  V30 3003 H 282.8 2.27704 -3.36015 0
M  V30 3004 H 283.566 0.283927 -4.84168 0
M  V30 3005 H 279.445 1.42201 -4.3852 0
M  V30 3006 H 282.989 -0.928013 -6.914 0
M  V30 3007 H 278.886 0.216686 -6.45136 0
M  V30 3008 H 279.654 -1.01579 -8.12172 0
M  V30 3009 N 282.317 1.53212 0.369288 0
M  V30 3010 C 283.265 1.80054 1.47253 0
M  V30 3011 C 284.259 0.669456 1.55611 0
M  V30 3012 O 285.465 0.852328 1.58541 0
M  V30 3013 H 281.84 0.570034 0.490475 0
M  V30 3014 H 283.811 2.72403 1.21817 0
M  V30 3015 C 282.56 2.00403 2.84137 0
M  V30 3016 H 281.883 2.86876 2.78464 0
M  V30 3017 H 283.323 2.23164 3.60519 0
M  V30 3018 C 281.782 0.782081 3.27697 0
M  V30 3019 O 282.312 -0.0310205 4.01688 0
M  V30 3020 N 280.518 0.606573 2.84199 0
M  V30 3021 H 280.065 1.26939 2.24152 0
M  V30 3022 H 280.023 -0.20962 3.137 0
M  V30 3023 N 283.795 -0.628877 1.44509 0
M  V30 3024 C 284.727 -1.754 1.47538 0
M  V30 3025 C 285.74 -1.58575 0.368506 0
M  V30 3026 O 286.929 -1.66847 0.634376 0
M  V30 3027 C 284.029 -3.1315 1.29577 0
M  V30 3028 C 283.202 -3.56413 2.53551 0
M  V30 3029 C 282.261 -4.7305 2.30457 0
M  V30 3030 O 281.287 -4.81247 3.03957 0
M  V30 3031 N 282.489 -5.64903 1.3366 0
M  V30 3032 H 285.254 -1.73272 2.44534 0
M  V30 3033 H 282.815 -0.813512 1.39977 0
M  V30 3034 H 284.807 -3.88902 1.11971 0
M  V30 3035 H 283.377 -3.09908 0.409371 0
M  V30 3036 H 282.597 -2.70847 2.86419 0
M  V30 3037 H 283.885 -3.82071 3.36005 0
M  V30 3038 H 283.283 -5.60975 0.729604 0
M  V30 3039 H 281.84 -6.40275 1.22032 0
M  V30 3040 N 285.273 -1.31445 -0.869486 0
M  V30 3041 C 286.203 -1.21727 -1.99261 0
M  V30 3042 C 287.184 -0.104359 -1.6978 0
M  V30 3043 O 288.369 -0.289038 -1.92037 0
M  V30 3044 C 285.499 -0.924317 -3.34774 0
M  V30 3045 C 284.453 -1.99685 -3.78563 0
M  V30 3046 C 283.779 -1.55658 -5.11541 0
M  V30 3047 C 285.079 -3.41003 -3.95619 0
M  V30 3048 H 286.773 -2.1569 -2.07649 0
M  V30 3049 H 284.319 -1.03839 -0.997675 0
M  V30 3050 H 286.272 -0.842934 -4.12883 0
M  V30 3051 H 284.996 0.0509793 -3.2656 0
M  V30 3052 H 283.655 -2.06813 -3.02694 0
M  V30 3053 H 283.303 -0.569132 -4.9977 0
M  V30 3054 H 283.003 -2.27409 -5.41811 0
M  V30 3055 H 284.527 -1.48928 -5.92159 0
M  V30 3056 H 285.941 -3.36547 -4.64122 0
M  V30 3057 H 284.338 -4.10975 -4.37286 0
M  V30 3058 H 285.408 -3.81754 -2.98985 0
M  V30 3059 N 286.751 1.08385 -1.14413 0
M  V30 3060 C 287.991 1.8238 -0.922868 0
M  V30 3061 C 288.355 1.84225 0.540842 0
M  V30 3062 O 289.556 2.53985 0.880058 0
M  V30 3063 C 287.827 3.24048 -1.50757 0
M  V30 3064 S 289.386 4.14917 -1.4279 0
M  V30 3065 H 286.204 0.628524 -0.332384 0
M  V30 3066 H 288.806 1.30278 -1.45766 0
M  V30 3067 H 287.51 3.20288 -2.56601 0
M  V30 3068 H 287.041 3.81224 -0.971178 0
M  V30 3069 H 289.056 4.94473 -0.413582 0
M  V30 3070 N 288.23 0.939286 1.26551 0
M  V30 3071 C 289.507 0.5038 1.89001 0
M  V30 3072 C 289.887 -1.01854 1.84903 0
M  V30 3073 O 289.235 -1.87773 1.30206 0
M  V30 3074 C 289.445 1.063 3.32417 0
M  V30 3075 C 290.793 1.13051 4.09273 0
M  V30 3076 O 291.817 1.01345 3.41479 0
M  V30 3077 O 290.676 1.31233 5.30509 0
M  V30 3078 H 287.77 0.163897 0.810597 0
M  V30 3079 H 290.316 1.03173 1.34735 0
M  V30 3080 H 289.088 2.10665 3.29752 0
M  V30 3081 H 288.711 0.517408 3.94219 0
M  V30 3082 N 289.708 -1.40897 0.706093 0
M  V30 3083 C 290.638 -2.33418 0.0620085 0
M  V30 3084 C 291.619 -1.52385 -0.755827 0
M  V30 3085 O 292.804 -1.80886 -0.706674 0
M  V30 3086 C 289.934 -3.36293 -0.867445 0
M  V30 3087 C 288.888 -4.27716 -0.155932 0
M  V30 3088 C 288.214 -5.2105 -1.20046 0
M  V30 3089 C 289.514 -5.12944 0.984149 0
M  V30 3090 H 291.208 -2.87527 0.83477 0
M  V30 3091 H 288.754 -1.38249 0.402875 0
M  V30 3092 H 290.707 -3.99949 -1.32735 0
M  V30 3093 H 289.431 -2.80556 -1.67199 0
M  V30 3094 H 288.09 -3.65498 0.284047 0
M  V30 3095 H 287.738 -4.61624 -1.99781 0
M  V30 3096 H 287.438 -5.83056 -0.729328 0
M  V30 3097 H 288.962 -5.87584 -1.66066 0
M  V30 3098 H 290.376 -5.70109 0.604048 0
M  V30 3099 H 288.773 -5.83945 1.38304 0
M  V30 3100 H 289.843 -4.49485 1.81911 0
M  V30 3101 N 291.186 -0.45159 -1.50991 0
M  V30 3102 C 292.432 0.102439 -2.03142 0
M  V30 3103 C 292.787 1.39138 -1.32884 0
M  V30 3104 O 292.08 1.86493 -0.439438 0
M  V30 3105 C 292.274 0.361728 -3.55565 0
M  V30 3106 C 292.103 -0.900535 -4.40591 0
M  V30 3107 C 290.873 -1.43821 -4.844 0
M  V30 3108 C 293.071 -1.79063 -4.82121 0
M  V30 3109 N 291.053 -2.65153 -5.53685 0
M  V30 3110 C 292.424 -2.84991 -5.50618 0
M  V30 3111 C 294.479 -1.80334 -4.64095 0
M  V30 3112 C 293.182 -3.92155 -6.02998 0
M  V30 3113 C 295.208 -2.86442 -5.17402 0
M  V30 3114 C 294.57 -3.9109 -5.85857 0
M  V30 3115 H 290.669 -0.00204537 -0.781997 0
M  V30 3116 H 293.253 -0.615446 -1.84717 0
M  V30 3117 H 291.424 1.04865 -3.73976 0
M  V30 3118 H 293.156 0.908372 -3.94374 0
M  V30 3119 H 289.911 -0.990117 -4.63135 0
M  V30 3120 H 290.335 -3.26717 -5.92946 0
M  V30 3121 H 294.977 -1.00753 -4.1062 0
M  V30 3122 H 292.695 -4.72565 -6.55521 0
M  V30 3123 H 296.281 -2.88386 -5.05297 0
M  V30 3124 H 295.161 -4.71845 -6.26364 0
M  V30 3125 N 292.664 1.56529 -0.183458 0
M  V30 3126 C 293.627 2.17324 0.728223 0
M  V30 3127 C 294.627 1.12453 1.14939 0
M  V30 3128 O 295.817 1.37902 1.06437 0
M  V30 3129 C 292.949 2.76591 1.99274 0
M  V30 3130 H 294.142 2.99241 0.198772 0
M  V30 3131 H 291.695 1.5616 0.0661391 0
M  V30 3132 H 292.43 1.98441 2.56499 0
M  V30 3133 H 292.215 3.5335 1.69959 0
M  V30 3134 H 293.705 3.23311 2.6431 0
M  V30 3135 N 294.142 -0.090211 1.57342 0
M  V30 3136 C 295.388 -0.793982 1.86611 0
M  V30 3137 C 295.721 -1.78142 0.773252 0
M  V30 3138 O 294.996 -1.93271 -0.218304 0
M  V30 3139 C 295.279 -1.51839 3.26523 0
M  V30 3140 C 295.132 -0.548609 4.46442 0
M  V30 3141 C 296.451 -2.46779 3.64401 0
M  V30 3142 H 293.57 -0.287186 0.678744 0
M  V30 3143 H 296.212 -0.0575076 1.89913 0
M  V30 3144 H 294.362 -2.14617 3.23839 0
M  V30 3145 H 296.034 0.0725513 4.61243 0
M  V30 3146 H 294.277 0.137614 4.33582 0
M  V30 3147 H 294.948 -1.09271 5.41076 0
M  V30 3148 H 297.424 -1.94089 3.68061 0
M  V30 3149 H 296.3 -2.94479 4.63221 0
M  V30 3150 H 296.561 -3.30758 2.93346 0
M  V30 3151 N 295.62 -1.53406 -0.361157 0
M  V30 3152 C 296.868 -1.69467 -1.10115 0
M  V30 3153 C 297.189 -0.451352 -1.89705 0
M  V30 3154 O 296.459 0.534636 -1.88463 0
M  V30 3155 H 295.039 -0.624749 -0.409508 0
M  V30 3156 H 297.701 -1.90609 -0.406699 0
M  V30 3157 H 296.797 -2.55774 -1.78847 0
M  V30 3158 N 297.098 0.621204 -1.44841 0
M  V30 3159 C 298.347 1.37658 -1.47422 0
M  V30 3160 C 298.66 1.95264 -0.114629 0
M  V30 3161 O 299.866 2.71494 -0.0180199 0
M  V30 3162 C 298.322 2.49285 -2.59586 0
M  V30 3163 C 297.93 1.98149 -4.01797 0
M  V30 3164 C 299.674 3.26409 -2.71399 0
M  V30 3165 C 297.581 3.07178 -5.05367 0
M  V30 3166 H 296.511 0.517344 -0.548517 0
M  V30 3167 H 299.162 0.667257 -1.70938 0
M  V30 3168 H 297.544 3.22839 -2.29328 0
M  V30 3169 H 298.718 1.31395 -4.41669 0
M  V30 3170 H 297.033 1.33812 -3.94314 0
M  V30 3171 H 299.63 4.07706 -3.45948 0
M  V30 3172 H 299.973 3.76535 -1.77559 0
M  V30 3173 H 300.506 2.5995 -3.01116 0
M  V30 3174 H 297.245 2.61985 -6.00869 0
M  V30 3175 H 296.765 3.72542 -4.70077 0
M  V30 3176 H 298.444 3.71789 -5.29511 0
M  V30 3177 N 298.576 1.31904 0.862503 0
M  V30 3178 C 299.804 1.24998 1.64873 0
M  V30 3179 C 300.219 -0.183425 1.87907 0
M  V30 3180 O 299.576 -1.11794 1.44251 0
M  V30 3181 C 299.627 1.99829 3.01248 0
M  V30 3182 O 299.348 3.37575 2.79239 0
M  V30 3183 C 300.849 1.99852 3.95694 0
M  V30 3184 H 298.069 0.431599 0.513773 0
M  V30 3185 H 300.613 1.73901 1.07604 0
M  V30 3186 H 298.768 1.54668 3.55185 0
M  V30 3187 H 299.182 3.75776 3.65914 0
M  V30 3188 H 300.656 2.56709 4.88676 0
M  V30 3189 H 301.133 0.982852 4.28062 0
M  V30 3190 H 301.739 2.44926 3.47694 0
M  V30 3191 N 300.054 -1.07777 1.14986 0
M  V30 3192 C 301.017 -2.13041 0.845358 0
M  V30 3193 C 302.017 -1.60071 -0.152931 0
M  V30 3194 O 303.207 -1.74033 0.0761879 0
M  V30 3195 C 300.339 -3.39896 0.261383 0
M  V30 3196 H 301.532 -2.41485 1.77834 0
M  V30 3197 H 299.085 -1.23595 0.956757 0
M  V30 3198 H 299.82 -3.17091 -0.68 0
M  V30 3199 H 299.605 -3.79642 0.980514 0
M  V30 3200 H 301.095 -4.17548 0.0657687 0
M  V30 3201 N 301.532 -0.945985 -1.26051 0
M  V30 3202 C 302.781 -0.591836 -1.92822 0
M  V30 3203 C 303.094 0.873956 -1.7499 0
M  V30 3204 O 304.3 1.33769 -2.36259 0
M  V30 3205 C 302.756 -1.00776 -3.45503 0
M  V30 3206 C 302.364 -2.4955 -3.7206 0
M  V30 3207 C 304.108 -0.725735 -4.1825 0
M  V30 3208 C 302.015 -2.84988 -5.18205 0
M  V30 3209 H 300.945 -0.217635 -0.721908 0
M  V30 3210 H 303.596 -1.14927 -1.43052 0
M  V30 3211 H 301.978 -0.378812 -3.94184 0
M  V30 3212 H 303.152 -3.1739 -3.34066 0
M  V30 3213 H 301.467 -2.75133 -3.12555 0
M  V30 3214 H 304.064 -0.966771 -5.25887 0
M  V30 3215 H 304.407 0.337639 -4.14929 0
M  V30 3216 H 304.94 -1.31463 -3.7545 0
M  V30 3217 H 301.679 -3.90307 -5.26631 0
M  V30 3218 H 301.199 -2.21813 -5.57278 0
M  V30 3219 H 302.878 -2.73712 -5.86252 0
M  V30 3220 N 303.011 1.40521 -0.713556 0
M  V30 3221 C 303.921 2.34522 -0.0606667 0
M  V30 3222 C 304.937 1.57193 0.74607 0
M  V30 3223 O 306.113 1.89591 0.679493 0
M  V30 3224 C 303.178 3.36081 0.851491 0
M  V30 3225 C 302.239 4.29286 0.0349339 0
M  V30 3226 C 301.472 5.25994 0.903649 0
M  V30 3227 O 301.695 5.28616 2.14292 0
M  V30 3228 O 300.629 6.00918 0.343723 0
M  V30 3229 H 304.455 2.91968 -0.835972 0
M  V30 3230 H 302.04 1.41681 -0.47402 0
M  V30 3231 H 303.922 3.98369 1.37404 0
M  V30 3232 H 302.597 2.81052 1.60598 0
M  V30 3233 H 301.504 3.70289 -0.532633 0
M  V30 3234 H 302.837 4.87462 -0.681287 0
M  V30 3235 N 304.489 0.459591 1.5075 0
M  V30 3236 C 305.419 -0.330644 2.31147 0
M  V30 3237 C 306.4 -1.00087 1.37538 0
M  V30 3238 O 307.585 -1.00025 1.66459 0
M  V30 3239 C 304.715 -1.41958 3.16962 0
M  V30 3240 C 303.669 -0.871608 4.19031 0
M  V30 3241 C 302.995 -2.05797 4.9351 0
M  V30 3242 C 304.295 0.109251 5.22186 0
M  V30 3243 H 305.989 0.340336 2.97459 0
M  V30 3244 H 303.535 0.165119 1.4305 0
M  V30 3245 H 305.488 -1.9798 3.71997 0
M  V30 3246 H 304.212 -2.11917 2.48513 0
M  V30 3247 H 302.871 -0.333442 3.6508 0
M  V30 3248 H 302.519 -2.74427 4.21544 0
M  V30 3249 H 302.219 -1.6976 5.62544 0
M  V30 3250 H 303.743 -2.62331 5.51375 0
M  V30 3251 H 305.157 -0.361405 5.7216 0
M  V30 3252 H 303.554 0.383316 5.98875 0
M  V30 3253 H 304.624 1.03887 4.73641 0
M  V30 3254 N 305.967 -1.56429 0.191757 0
M  V30 3255 C 306.93 -2.17707 -0.716688 0
M  V30 3256 C 307.93 -1.13061 -1.14341 0
M  V30 3257 O 309.12 -1.38464 -1.05704 0
M  V30 3258 C 306.252 -2.77644 -1.97804 0
M  V30 3259 H 307.445 -2.99342 -0.1829 0
M  V30 3260 H 304.998 -1.56193 -0.0578566 0
M  V30 3261 H 305.733 -1.99799 -2.55443 0
M  V30 3262 H 305.518 -3.54246 -1.68083 0
M  V30 3263 H 307.008 -3.24708 -2.62592 0
M  V30 3264 N 307.445 0.0818655 -1.57387 0
M  V30 3265 C 308.355 1.11642 -2.06333 0
M  V30 3266 C 309.371 1.43033 -0.99083 0
M  V30 3267 O 310.547 1.53411 -1.30488 0
M  V30 3268 C 307.612 2.41342 -2.48907 0
M  V30 3269 C 306.673 2.17014 -3.7041 0
M  V30 3270 C 305.906 3.4053 -4.10944 0
M  V30 3271 O 306.129 4.4927 -3.51444 0
M  V30 3272 O 305.063 3.29336 -5.03807 0
M  V30 3273 H 308.889 0.730657 -2.9478 0
M  V30 3274 H 306.474 0.295301 -1.46452 0
M  V30 3275 H 308.356 3.17691 -2.76858 0
M  V30 3276 H 307.031 2.79319 -1.63593 0
M  V30 3277 H 305.938 1.38403 -3.47556 0
M  V30 3278 H 307.271 1.83923 -4.56545 0
M  V30 3279 N 308.923 1.53595 0.353017 0
M  V30 3280 C 309.853 1.83902 1.43883 0
M  V30 3281 C 310.834 0.693421 1.55324 0
M  V30 3282 O 312.019 0.944452 1.69687 0
M  V30 3283 C 309.149 2.04016 2.8106 0
M  V30 3284 C 308.103 3.19814 2.84434 0
M  V30 3285 C 307.429 3.25244 4.24406 0
M  V30 3286 C 308.729 4.58133 2.50822 0
M  V30 3287 H 310.423 2.74835 1.1877 0
M  V30 3288 H 307.969 1.32242 0.569917 0
M  V30 3289 H 309.922 2.238 3.57059 0
M  V30 3290 H 308.646 1.09804 3.07588 0
M  V30 3291 H 307.305 2.9987 2.10887 0
M  V30 3292 H 306.953 2.28646 4.48029 0
M  V30 3293 H 306.653 4.03054 4.27576 0
M  V30 3294 H 308.177 3.47228 5.0226 0
M  V30 3295 H 309.591 4.77995 3.16534 0
M  V30 3296 H 307.988 5.38276 2.6529 0
M  V30 3297 H 309.058 4.62387 1.46034 0
M  V30 3298 N 310.401 -0.613514 1.45168 0
M  V30 3299 C 311.333 -1.73825 1.4939 0
M  V30 3300 C 312.346 -1.58175 0.385304 0
M  V30 3301 O 313.535 -1.66165 0.652036 0
M  V30 3302 C 310.635 -3.11758 1.32891 0
M  V30 3303 C 309.808 -3.53704 2.57317 0
M  V30 3304 C 308.867 -4.70579 2.35462 0
M  V30 3305 O 307.893 -4.77996 3.09044 0
M  V30 3306 N 309.095 -5.63454 1.39644 0
M  V30 3307 H 311.86 -1.70669 2.46358 0
M  V30 3308 H 309.421 -0.79862 1.40832 0
M  V30 3309 H 311.413 -3.87692 1.1609 0
M  V30 3310 H 309.983 -3.09456 0.442218 0
M  V30 3311 H 309.203 -2.67794 2.89275 0
M  V30 3312 H 310.491 -3.78486 3.40038 0
M  V30 3313 H 309.889 -5.6017 0.789062 0
M  V30 3314 H 308.446 -6.38944 1.28816 0
M  V30 3315 N 311.879 -1.3236 -0.855495 0
M  V30 3316 C 313.29 -1.2056 -1.42556 0
M  V30 3317 C 313.641 0.182209 -1.95352 0
M  V30 3318 O 312.766 1.08088 -1.87472 0
M  V30 3319 C 313.361 -2.1826 -2.59129 0
M  V30 3320 C 311.92 -2.10351 -3.12137 0
M  V30 3321 C 311.067 -2.06674 -1.84882 0
M  V30 3322 H 314.018 -1.442 -0.662727 0
M  V30 3323 H 314.039 -1.78064 -3.36264 0
M  V30 3324 H 313.551 -3.19257 -2.20673 0
M  V30 3325 H 311.652 -1.12599 -3.55179 0
M  V30 3326 H 311.765 -3.00135 -3.73438 0
M  V30 3327 H 310.129 -1.51901 -2.04446 0
M  V30 3328 H 310.912 -3.09451 -1.48643 0
M  V30 3329 N 313.357 1.07166 -1.15556 0
M  V30 3330 C 314.768 1.6127 -0.940693 0
M  V30 3331 C 315.119 1.89251 0.517551 0
M  V30 3332 O 314.244 1.65937 1.38903 0
M  V30 3333 C 314.839 2.92993 -1.7012 0
M  V30 3334 C 313.398 3.43832 -1.53156 0
M  V30 3335 C 312.545 2.1786 -1.71558 0
M  V30 3336 H 315.496 0.90229 -1.30554 0
M  V30 3337 H 315.517 3.62007 -1.17181 0
M  V30 3338 H 315.029 2.72596 -2.76248 0
M  V30 3339 H 313.13 3.69307 -0.494294 0
M  V30 3340 H 313.243 4.19747 -2.30975 0
M  V30 3341 H 311.607 2.2765 -1.14225 0
M  V30 3342 H 312.39 1.99956 -2.79056 0
M  V30 3343 N 314.835 0.952656 1.25548 0
M  V30 3344 C 315.768 0.415525 2.24385 0
M  V30 3345 C 316.746 -0.502046 1.54655 0
M  V30 3346 O 317.93 -0.436875 1.83368 0
M  V30 3347 C 315.057 -0.401734 3.36309 0
M  V30 3348 C 314.103 0.455949 4.24056 0
M  V30 3349 S 314.936 1.88698 5.01152 0
M  V30 3350 C 316.092 1.07809 6.16545 0
M  V30 3351 H 316.325 1.25315 2.69599 0
M  V30 3352 H 313.858 0.756587 1.34592 0
M  V30 3353 H 315.816 -0.867329 4.01233 0
M  V30 3354 H 314.477 -1.21416 2.89684 0
M  V30 3355 H 313.67 -0.170776 5.03711 0
M  V30 3356 H 313.272 0.856675 3.64056 0
M  V30 3357 H 315.564 0.325816 6.76716 0
M  V30 3358 H 316.507 1.84849 6.83547 0
M  V30 3359 H 316.915 0.60909 5.61204 0
M  V30 3360 N 316.313 -1.40141 0.720998 0
M  V30 3361 C 317.56 -2.00787 0.262842 0
M  V30 3362 C 317.888 -1.5718 -1.14563 0
M  V30 3363 O 317.143 -0.785391 -1.79249 0
M  V30 3364 C 317.442 -3.56165 0.296892 0
M  V30 3365 C 317.108 -4.19373 1.65641 0
M  V30 3366 C 315.77 -4.36352 2.02855 0
M  V30 3367 C 318.122 -4.54578 2.54968 0
M  V30 3368 C 315.45 -4.8582 3.28931 0
M  V30 3369 C 317.802 -5.05447 3.80402 0
M  V30 3370 C 316.466 -5.20635 4.17726 0
M  V30 3371 H 315.736 -0.734731 0.0961807 0
M  V30 3372 H 318.383 -1.67673 0.925093 0
M  V30 3373 H 316.688 -3.8922 -0.448932 0
M  V30 3374 H 318.385 -4.00929 -0.0755208 0
M  V30 3375 H 314.975 -4.06549 1.35704 0
M  V30 3376 H 319.159 -4.41091 2.27491 0
M  V30 3377 H 314.415 -4.95764 3.57811 0
M  V30 3378 H 318.589 -5.31663 4.49786 0
M  V30 3379 H 316.216 -5.58728 5.15487 0
M  V30 3380 N 317.792 -0.46758 -1.50504 0
M  V30 3381 C 319.069 0.15003 -1.95024 0
M  V30 3382 C 319.449 1.57304 -1.40779 0
M  V30 3383 O 318.797 2.20281 -0.607319 0
M  V30 3384 C 319.007 0.0969324 -3.48865 0
M  V30 3385 C 320.355 0.287565 -4.23625 0
M  V30 3386 O 321.379 0.173678 -3.55776 0
M  V30 3387 O 320.238 0.517186 -5.44047 0
M  V30 3388 H 317.332 0.113582 -0.819163 0
M  V30 3389 H 319.878 -0.52773 -1.61286 0
M  V30 3390 H 318.65 -0.896732 -3.80886 0
M  V30 3391 H 318.273 0.816303 -3.8913 0
M  V30 3392 N 319.27 1.56325 -0.20005 0
M  V30 3393 C 320.2 2.22318 0.713916 0
M  V30 3394 C 321.181 1.18788 1.21752 0
M  V30 3395 O 322.366 1.47309 1.26545 0
M  V30 3396 C 319.496 2.88639 1.93144 0
M  V30 3397 C 318.45 3.98457 1.56255 0
M  V30 3398 C 317.776 4.51967 2.85709 0
M  V30 3399 C 319.076 5.16612 0.768747 0
M  V30 3400 H 320.77 2.98952 0.163755 0
M  V30 3401 H 318.316 1.43792 0.0773219 0
M  V30 3402 H 320.269 3.33491 2.57608 0
M  V30 3403 H 318.993 2.09419 2.50621 0
M  V30 3404 H 317.652 3.54305 0.941471 0
M  V30 3405 H 317.3 3.69503 3.41287 0
M  V30 3406 H 317 5.26071 2.6177 0
M  V30 3407 H 318.524 4.99523 3.51154 0
M  V30 3408 H 319.938 5.57977 1.3166 0
M  V30 3409 H 318.335 5.96812 0.627286 0
M  V30 3410 H 319.405 4.84358 -0.229168 0
M  V30 3411 N 320.748 -0.0735177 1.57428 0
M  V30 3412 C 321.698 -1.09442 2.00016 0
M  V30 3413 C 322.682 -1.34575 0.881947 0
M  V30 3414 O 323.874 -1.34905 1.14585 0
M  V30 3415 C 321.003 -2.40865 2.4462 0
M  V30 3416 C 320.089 -2.19014 3.63172 0
M  V30 3417 N 320.48 -1.67087 4.77405 0
M  V30 3418 C 318.778 -2.49494 3.69688 0
M  V30 3419 C 319.479 -1.6001 5.5926 0
M  V30 3420 N 318.455 -2.05999 5.03056 0
M  V30 3421 H 322.257 -0.686227 2.85776 0
M  V30 3422 H 319.771 -0.280617 1.59957 0
M  V30 3423 H 321.768 -3.14763 2.73368 0
M  V30 3424 H 320.428 -2.82403 1.60246 0
M  V30 3425 H 321.439 -1.35975 4.99731 0
M  V30 3426 H 318.116 -2.94409 2.96023 0
M  V30 3427 H 319.506 -1.2073 6.60964 0
M  V30 3428 N 322.226 -1.5378 -0.344866 0
M  V30 3429 C 323.637 -1.62428 -0.920552 0
M  V30 3430 C 323.988 -0.504747 -1.89596 0
M  V30 3431 O 323.113 0.365711 -2.13287 0
M  V30 3432 C 323.708 -2.94419 -1.67639 0
M  V30 3433 C 322.267 -3.05333 -2.20111 0
M  V30 3434 C 321.414 -2.57866 -1.01982 0
M  V30 3435 H 324.365 -1.58222 -0.123042 0
M  V30 3436 H 324.386 -2.83384 -2.53917 0
M  V30 3437 H 323.898 -3.7588 -0.966224 0
M  V30 3438 H 321.999 -2.28502 -2.94308 0
M  V30 3439 H 322.112 -4.10778 -2.46573 0
M  V30 3440 H 320.476 -2.13241 -1.39285 0
M  V30 3441 H 321.259 -3.41765 -0.324308 0
M  V30 3442 N 323.704 0.605807 -1.45491 0
M  V30 3443 C 324.637 1.73022 -1.48791 0
M  V30 3444 C 325.615 1.58917 -0.344112 0
M  V30 3445 O 326.799 1.80453 -0.544876 0
M  V30 3446 C 323.926 3.10865 -1.34463 0
M  V30 3447 C 322.972 3.43554 -2.5273 0
M  V30 3448 S 323.805 3.38196 -4.15191 0
M  V30 3449 C 324.961 4.78616 -4.03333 0
M  V30 3450 H 325.194 1.69961 -2.43928 0
M  V30 3451 H 322.727 0.782611 -1.33096 0
M  V30 3452 H 324.685 3.90398 -1.26884 0
M  V30 3453 H 323.346 3.1144 -0.40794 0
M  V30 3454 H 322.539 4.43924 -2.38637 0
M  V30 3455 H 322.141 2.71541 -2.5718 0
M  V30 3456 H 324.433 5.68463 -3.68587 0
M  V30 3457 H 325.376 4.97767 -5.03621 0
M  V30 3458 H 325.784 4.54381 -3.34959 0
M  V30 3459 N 325.182 1.32811 0.848464 0
M  V30 3460 C 326.598 1.11937 1.13764 0
M  V30 3461 C 326.798 -0.0960789 2.01271 0
M  V30 3462 O 325.854 -0.779165 2.40178 0
M  V30 3463 C 327.167 2.402 1.809 0
M  V30 3464 C 328.715 2.46016 1.93508 0
M  V30 3465 C 329.19 3.74215 2.64059 0
M  V30 3466 N 330.681 3.75232 2.71579 0
M  V30 3467 C 331.416 4.71134 3.26833 0
M  V30 3468 N 330.912 5.77406 3.8285 0
M  V30 3469 N 332.705 4.58623 3.24995 0
M  V30 3470 H 324.856 2.1073 0.265855 0
M  V30 3471 H 327.119 0.930671 0.180431 0
M  V30 3472 H 326.825 3.29093 1.24058 0
M  V30 3473 H 326.699 2.51628 2.81004 0
M  V30 3474 H 329.086 1.57577 2.49506 0
M  V30 3475 H 329.167 2.38536 0.923811 0
M  V30 3476 H 328.811 4.63031 2.08722 0
M  V30 3477 H 328.741 3.78968 3.65637 0
M  V30 3478 H 331.232 2.98423 2.31845 0
M  V30 3479 H 331.545 6.46632 4.23187 0
M  V30 3480 H 329.89 5.81152 3.81165 0
M  V30 3481 H 333.081 3.74762 2.80484 0
M  V30 3482 H 333.254 5.33535 3.67756 0
M  V30 3483 N 326.66 -1.06551 1.16123 0
M  V30 3484 C 327.623 -2.12132 0.867906 0
M  V30 3485 C 328.623 -1.60224 -0.135944 0
M  V30 3486 O 329.813 -1.73943 0.0946422 0
M  V30 3487 C 326.945 -3.396 0.297419 0
M  V30 3488 H 328.138 -2.39586 1.80385 0
M  V30 3489 H 325.691 -1.22574 0.969812 0
M  V30 3490 H 326.426 -3.17794 -0.64633 0
M  V30 3491 H 326.211 -3.78581 1.02073 0
M  V30 3492 H 327.701 -4.17455 0.110052 0
M  V30 3493 N 328.138 -0.959301 -1.25041 0
M  V30 3494 C 329.068 -0.501388 -2.28053 0
M  V30 3495 C 330.049 0.454673 -1.63911 0
M  V30 3496 O 331.234 0.352618 -1.90972 0
M  V30 3497 C 328.364 0.217224 -3.4662 0
M  V30 3498 C 327.318 -0.654034 -4.22973 0
M  V30 3499 C 326.644 0.195589 -5.34342 0
M  V30 3500 C 327.944 -1.93447 -4.85155 0
M  V30 3501 H 329.638 -1.36238 -2.66608 0
M  V30 3502 H 327.184 -0.656534 -1.28163 0
M  V30 3503 H 329.137 0.548732 -4.17812 0
M  V30 3504 H 327.861 1.1125 -3.07068 0
M  V30 3505 H 326.52 -0.968693 -3.5357 0
M  V30 3506 H 326.168 1.09076 -4.91031 0
M  V30 3507 H 325.868 -0.384091 -5.86343 0
M  V30 3508 H 327.392 0.521958 -6.08365 0
M  V30 3509 H 328.806 -1.66908 -5.48466 0
M  V30 3510 H 327.203 -2.46018 -5.47353 0
M  V30 3511 H 328.273 -2.63466 -4.07079 0
M  V30 3512 N 329.616 1.39756 -0.72842 0
M  V30 3513 C 330.863 2.00645 -0.273487 0
M  V30 3514 C 331.191 1.57786 1.13727 0
M  V30 3515 O 330.446 0.794886 1.7883 0
M  V30 3516 C 330.745 3.56002 -0.315776 0
M  V30 3517 C 330.411 4.18489 -1.67863 0
M  V30 3518 C 329.073 4.3527 -2.05166 0
M  V30 3519 C 331.425 4.53219 -2.57375 0
M  V30 3520 C 328.753 4.84069 -3.31503 0
M  V30 3521 C 331.105 5.03423 -3.83077 0
M  V30 3522 C 329.769 5.18413 -4.20481 0
M  V30 3523 H 329.039 0.734211 -0.100076 0
M  V30 3524 H 331.686 1.6718 -0.933972 0
M  V30 3525 H 329.991 3.89452 0.428285 0
M  V30 3526 H 331.688 4.00963 0.0542575 0
M  V30 3527 H 328.278 4.05824 -1.37858 0
M  V30 3528 H 332.462 4.39878 -2.29827 0
M  V30 3529 H 327.718 4.93859 -3.60435 0
M  V30 3530 H 331.892 5.2927 -4.52599 0
M  V30 3531 H 329.519 5.55987 -5.18443 0
M  V30 3532 N 331.094 0.475555 1.50254 0
M  V30 3533 C 332.024 -0.30611 2.31485 0
M  V30 3534 C 333.005 -0.986228 1.38591 0
M  V30 3535 O 334.19 -0.982541 1.67511 0
M  V30 3536 C 331.32 -1.38588 3.1845 0
M  V30 3537 C 330.274 -0.827115 4.19932 0
M  V30 3538 C 329.6 -2.00551 4.95665 0
M  V30 3539 C 330.9 0.16463 5.2204 0
M  V30 3540 H 332.594 0.371866 2.97082 0
M  V30 3541 H 330.14 0.180282 1.42867 0
M  V30 3542 H 332.093 -1.94023 3.74076 0
M  V30 3543 H 330.817 -2.09269 2.50747 0
M  V30 3544 H 329.476 -0.294702 3.65414 0
M  V30 3545 H 329.124 -2.6994 4.2443 0
M  V30 3546 H 328.824 -1.63784 5.64313 0
M  V30 3547 H 330.348 -2.56468 5.54127 0
M  V30 3548 H 331.762 -0.300699 5.72511 0
M  V30 3549 H 330.159 0.446813 5.98434 0
M  V30 3550 H 331.229 1.08905 4.72512 0
M  V30 3551 N 332.573 -1.56217 0.208337 0
M  V30 3552 C 333.506 -2.15633 -0.746842 0
M  V30 3553 C 334.484 -1.09685 -1.20034 0
M  V30 3554 O 335.668 -1.3787 -1.28547 0
M  V30 3555 C 332.795 -2.72594 -2.01023 0
M  V30 3556 C 331.841 -3.91251 -1.69779 0
M  V30 3557 S 332.674 -5.28962 -0.834209 0
M  V30 3558 C 333.83 -5.89353 -2.10745 0
M  V30 3559 H 334.063 -2.96315 -0.241789 0
M  V30 3560 H 331.596 -1.54398 -0.00682183 0
M  V30 3561 H 333.554 -3.06053 -2.73572 0
M  V30 3562 H 332.215 -1.91929 -2.48641 0
M  V30 3563 H 331.408 -4.29562 -2.63614 0
M  V30 3564 H 331.01 -3.58869 -1.05303 0
M  V30 3565 H 333.302 -6.04522 -3.05875 0
M  V30 3566 H 334.245 -6.85661 -1.76845 0
M  V30 3567 H 334.653 -5.1807 -2.24196 0
M  V30 3568 N 334.051 0.0651679 -1.57465 0
M  V30 3569 C 335.279 0.775808 -1.91804 0
M  V30 3570 C 335.694 1.70782 -0.804916 0
M  V30 3571 O 335.051 1.81153 0.221311 0
M  V30 3572 C 335.102 1.56381 -3.25925 0
M  V30 3573 O 334.823 0.669248 -4.32958 0
M  V30 3574 C 336.324 2.37485 -3.7432 0
M  V30 3575 H 333.544 0.2202 -0.63384 0
M  V30 3576 H 336.088 0.0334587 -2.04473 0
M  V30 3577 H 334.243 2.25837 -3.14764 0
M  V30 3578 H 334.657 1.21801 -5.10162 0
M  V30 3579 H 336.131 2.88223 -4.70778 0
M  V30 3580 H 336.608 3.17307 -3.03666 0
M  V30 3581 H 337.214 1.73173 -3.88447 0
M  V30 3582 N 335.529 1.53961 0.336706 0
M  V30 3583 C 336.476 1.82428 1.41381 0
M  V30 3584 C 337.446 0.670444 1.51968 0
M  V30 3585 O 338.631 0.915565 1.67398 0
M  V30 3586 C 335.771 2.04564 2.77934 0
M  V30 3587 C 334.884 3.32267 2.76084 0
M  V30 3588 C 334.019 3.44434 4.04399 0
M  V30 3589 C 333.058 4.66061 3.96804 0
M  V30 3590 N 332.195 4.75224 5.16823 0
M  V30 3591 H 337.035 2.74324 1.16405 0
M  V30 3592 H 334.572 1.35869 0.563752 0
M  V30 3593 H 336.53 2.15388 3.57301 0
M  V30 3594 H 335.16 1.15974 3.01247 0
M  V30 3595 H 334.212 3.3025 1.88784 0
M  V30 3596 H 335.524 4.21733 2.66351 0
M  V30 3597 H 334.678 3.54728 4.92192 0
M  V30 3598 H 333.417 2.53037 4.16921 0
M  V30 3599 H 332.422 4.55838 3.07396 0
M  V30 3600 H 333.647 5.58829 3.85858 0
M  V30 3601 H 331.593 3.86739 5.29876 0
M  V30 3602 H 331.51 5.58636 5.09374 0
M  V30 3603 H 332.778 4.89835 6.06367 0
M  V30 3604 N 337.007 -0.598083 1.45811 0
M  V30 3605 C 338.232 -1.3881 1.54099 0
M  V30 3606 C 338.657 -1.8726 0.177578 0
M  V30 3607 O 338.015 -1.6069 -0.839541 0
M  V30 3608 C 338.063 -2.56217 2.53743 0
M  V30 3609 O 337.167 -3.5716 2.06182 0
M  V30 3610 H 336.508 -0.414024 0.519115 0
M  V30 3611 H 339.038 -0.726971 1.91249 0
M  V30 3612 H 339.048 -3.03337 2.72856 0
M  V30 3613 H 337.723 -2.20303 3.5276 0
M  V30 3614 H 336.3 -3.16624 1.96987 0
M  V30 3615 N 338.485 -1.33259 -0.841409 0
M  V30 3616 C 339.433 -1.23279 -1.97244 0
M  V30 3617 C 340.427 -0.134706 -1.68864 0
M  V30 3618 O 341.633 -0.298501 -1.77508 0
M  V30 3619 H 338.008 -0.382497 -0.647457 0
M  V30 3620 H 339.979 -2.18906 -2.02787 0
M  V30 3621 C 338.728 -0.986268 -3.33419 0
M  V30 3622 H 338.051 -1.82347 -3.55794 0
M  V30 3623 H 339.491 -0.956728 -4.13065 0
M  V30 3624 C 337.95 0.310842 -3.35463 0
M  V30 3625 O 338.48 1.31838 -3.79449 0
M  V30 3626 N 336.686 0.337485 -2.88634 0
M  V30 3627 H 336.233 -0.482967 -2.53032 0
M  V30 3628 H 336.191 1.20518 -2.90384 0
M  V30 3629 N 339.963 1.05934 -1.16686 0
M  V30 3630 C 341.21 1.788 -0.950622 0
M  V30 3631 C 341.538 1.87384 0.521305 0
M  V30 3632 O 340.793 1.36438 1.40297 0
M  V30 3633 C 341.092 3.23105 -1.52767 0
M  V30 3634 C 340.758 3.34594 -3.02254 0
M  V30 3635 C 339.42 3.37437 -3.43059 0
M  V30 3636 C 341.772 3.36219 -3.98254 0
M  V30 3637 C 339.1 3.39525 -4.78477 0
M  V30 3638 C 341.452 3.39845 -5.33562 0
M  V30 3639 C 340.116 3.40971 -5.73842 0
M  V30 3640 H 339.386 0.654275 -0.347857 0
M  V30 3641 H 342.033 1.24555 -1.45459 0
M  V30 3642 H 340.338 3.80227 -0.94524 0
M  V30 3643 H 342.035 3.7809 -1.336 0
M  V30 3644 H 338.625 3.3309 -2.6972 0
M  V30 3645 H 342.809 3.33231 -3.67792 0
M  V30 3646 H 338.065 3.38703 -5.09009 0
M  V30 3647 H 342.239 3.4005 -6.07733 0
M  V30 3648 H 339.866 3.42342 -6.78753 0
M  V30 3649 N 341.441 0.965919 1.2453 0
M  V30 3650 C 342.373 0.452465 2.2469 0
M  V30 3651 C 343.386 -0.437821 1.56802 0
M  V30 3652 O 344.575 -0.244283 1.76821 0
M  V30 3653 C 341.675 -0.366258 3.36915 0
M  V30 3654 C 340.848 0.513701 4.34373 0
M  V30 3655 C 339.907 -0.248716 5.25612 0
M  V30 3656 O 338.933 0.356745 5.68081 0
M  V30 3657 N 340.135 -1.53877 5.59734 0
M  V30 3658 H 342.9 1.31361 2.69378 0
M  V30 3659 H 340.461 0.837541 1.38553 0
M  V30 3660 H 342.453 -0.884297 3.94921 0
M  V30 3661 H 341.023 -1.12832 2.91526 0
M  V30 3662 H 340.243 1.21273 3.75082 0
M  V30 3663 H 341.531 1.11391 4.96457 0
M  V30 3664 H 340.929 -2.05243 5.27154 0
M  V30 3665 H 339.486 -2.00254 6.20275 0
M  V30 3666 N 342.919 -1.39368 0.735821 0
M  V30 3667 C 344.33 -1.83313 0.354015 0
M  V30 3668 C 344.681 -1.61461 -1.11466 0
M  V30 3669 O 343.806 -1.10621 -1.85989 0
M  V30 3670 C 344.401 -3.32781 0.635769 0
M  V30 3671 C 342.96 -3.75142 0.307448 0
M  V30 3672 C 342.107 -2.62358 0.897974 0
M  V30 3673 H 345.058 -1.28349 0.933398 0
M  V30 3674 H 345.079 -3.80388 -0.0921773 0
M  V30 3675 H 344.591 -3.48654 1.70476 0
M  V30 3676 H 342.692 -3.64857 -0.755674 0
M  V30 3677 H 342.805 -4.72532 0.790583 0
M  V30 3678 H 341.169 -2.52624 0.324551 0
M  V30 3679 H 341.952 -2.81036 1.97164 0
M  V30 3680 N 344.397 -0.483516 -1.5 0
M  V30 3681 C 345.808 -0.0314176 -1.86674 0
M  V30 3682 C 346.159 1.37728 -1.39733 0
M  V30 3683 O 345.284 2.02327 -0.767635 0
M  V30 3684 C 345.879 -0.0502376 -3.38763 0
M  V30 3685 C 344.438 0.346442 -3.74802 0
M  V30 3686 C 343.585 -0.430366 -2.7394 0
M  V30 3687 H 346.536 -0.697182 -1.42566 0
M  V30 3688 H 346.557 0.749116 -3.73053 0
M  V30 3689 H 346.069 -1.07563 -3.72897 0
M  V30 3690 H 344.17 1.37572 -3.46273 0
M  V30 3691 H 344.283 0.0391486 -4.79084 0
M  V30 3692 H 342.647 0.117557 -2.54429 0
M  V30 3693 H 343.43 -1.4555 -3.10918 0
M  V30 3694 N 345.875 1.56104 -0.216619 0
M  V30 3695 C 346.822 2.2007 0.695531 0
M  V30 3696 C 347.792 1.15471 1.19397 0
M  V30 3697 O 348.977 1.43807 1.25396 0
M  V30 3698 C 346.117 2.88073 1.90021 0
M  V30 3699 C 345.23 4.07253 1.44113 0
M  V30 3700 C 344.365 4.63052 2.603 0
M  V30 3701 C 343.404 5.74545 2.11103 0
M  V30 3702 N 342.541 6.24656 3.20545 0
M  V30 3703 H 347.381 2.97655 0.143327 0
M  V30 3704 H 344.918 1.46982 0.0589934 0
M  V30 3705 H 346.876 3.25681 2.60745 0
M  V30 3706 H 345.506 2.13015 2.42538 0
M  V30 3707 H 344.558 3.75164 0.628999 0
M  V30 3708 H 345.87 4.8783 1.04036 0
M  V30 3709 H 345.024 5.03078 3.39113 0
M  V30 3710 H 343.763 3.81628 3.03663 0
M  V30 3711 H 342.768 5.34027 1.3075 0
M  V30 3712 H 343.993 6.57801 1.68746 0
M  V30 3713 H 341.939 5.46148 3.63399 0
M  V30 3714 H 341.856 7.00343 2.84704 0
M  V30 3715 H 343.124 6.69338 3.99508 0
M  V30 3716 N 347.353 -0.0568162 1.57498 0
M  V30 3717 C 348.283 -1.06593 2.0775 0
M  V30 3718 C 349.264 -1.39448 0.974082 0
M  V30 3719 O 350.449 -1.48815 1.24771 0
M  V30 3720 C 347.579 -2.37509 2.5339 0
M  V30 3721 C 346.533 -2.1897 3.67745 0
M  V30 3722 C 345.859 -3.55402 3.99492 0
M  V30 3723 C 347.159 -1.59859 4.97235 0
M  V30 3724 H 348.853 -0.647706 2.9231 0
M  V30 3725 H 346.399 -0.310116 1.40621 0
M  V30 3726 H 348.352 -3.08409 2.87162 0
M  V30 3727 H 347.076 -2.8134 1.65878 0
M  V30 3728 H 345.735 -1.50508 3.3428 0
M  V30 3729 H 345.383 -3.9683 3.09088 0
M  V30 3730 H 345.083 -3.43831 4.76502 0
M  V30 3731 H 346.607 -4.27708 4.35773 0
M  V30 3732 H 348.021 -2.20642 5.29141 0
M  V30 3733 H 346.418 -1.58942 5.78669 0
M  V30 3734 H 347.488 -0.561506 4.81638 0
M  V30 3735 N 348.832 -1.54138 -0.328536 0
M  V30 3736 C 349.779 -1.83176 -1.40411 0
M  V30 3737 C 350.749 -0.678494 -1.5161 0
M  V30 3738 O 351.934 -0.92443 -1.6691 0
M  V30 3739 C 349.074 -2.06035 -2.76846 0
M  V30 3740 C 348.187 -3.33727 -2.74318 0
M  V30 3741 C 347.322 -3.46574 -4.02567 0
M  V30 3742 C 346.361 -4.68159 -3.94327 0
M  V30 3743 N 345.498 -4.77959 -5.14296 0
M  V30 3744 H 350.338 -2.74938 -1.14948 0
M  V30 3745 H 347.875 -1.36166 -0.556538 0
M  V30 3746 H 349.833 -2.1728 -3.56153 0
M  V30 3747 H 348.463 -1.1757 -3.00628 0
M  V30 3748 H 347.515 -3.31246 -1.8703 0
M  V30 3749 H 348.827 -4.23139 -2.64111 0
M  V30 3750 H 347.981 -3.57333 -4.90304 0
M  V30 3751 H 346.72 -2.55245 -4.15574 0
M  V30 3752 H 345.725 -4.57461 -3.04974 0
M  V30 3753 H 346.95 -5.60868 -3.82889 0
M  V30 3754 H 344.896 -3.89544 -5.27818 0
M  V30 3755 H 344.813 -5.6133 -5.06404 0
M  V30 3756 H 346.081 -4.93044 -6.03761 0
M  V30 3757 N 350.31 0.590341 -1.46126 0
M  V30 3758 C 351.587 1.35029 -1.41515 0
M  V30 3759 C 351.967 2.10888 -0.0946472 0
M  V30 3760 O 351.315 2.08998 0.923693 0
M  V30 3761 C 351.525 2.28269 -2.63997 0
M  V30 3762 C 352.873 2.90338 -3.09821 0
M  V30 3763 O 353.897 2.38585 -2.64492 0
M  V30 3764 O 352.756 3.84321 -3.88535 0
M  V30 3765 H 349.85 0.606317 -0.562413 0
M  V30 3766 H 352.396 0.611994 -1.58281 0
M  V30 3767 H 351.168 1.71591 -3.51671 0
M  V30 3768 H 350.791 3.0945 -2.49652 0
M  V30 3769 N 351.788 1.33704 0.83433 0
M  V30 3770 C 352.735 1.24335 1.94447 0
M  V30 3771 C 353.705 0.120991 1.65659 0
M  V30 3772 O 354.89 0.300035 1.88426 0
M  V30 3773 C 352.03 0.993124 3.30501 0
M  V30 3774 C 351.143 2.20217 3.71657 0
M  V30 3775 C 350.278 1.88572 4.96602 0
M  V30 3776 C 349.317 3.05683 5.30306 0
M  V30 3777 N 348.454 2.73997 6.46429 0
M  V30 3778 H 353.294 2.1928 2.01792 0
M  V30 3779 H 350.831 1.09035 0.987404 0
M  V30 3780 H 352.789 0.828467 4.08892 0
M  V30 3781 H 351.419 0.0803902 3.227 0
M  V30 3782 H 350.471 2.47642 2.88752 0
M  V30 3783 H 351.783 3.07752 3.92543 0
M  V30 3784 H 350.937 1.68776 5.82752 0
M  V30 3785 H 349.676 0.982799 4.77695 0
M  V30 3786 H 348.681 3.26088 4.42659 0
M  V30 3787 H 349.906 3.96737 5.51159 0
M  V30 3788 H 347.852 1.86268 6.28999 0
M  V30 3789 H 347.769 3.55064 6.67432 0
M  V30 3790 H 349.037 2.57679 7.35678 0
M  V30 3791 N 353.266 -1.05314 1.17247 0
M  V30 3792 C 354.199 -2.12512 0.831507 0
M  V30 3793 C 355.177 -1.61351 -0.201168 0
M  V30 3794 O 356.361 -1.88317 -0.0829831 0
M  V30 3795 C 353.488 -3.37848 0.24015 0
M  V30 3796 C 352.534 -4.07832 1.24801 0
M  V30 3797 S 353.367 -4.56537 2.79882 0
M  V30 3798 C 354.523 -5.85122 2.22223 0
M  V30 3799 H 354.756 -2.41106 1.7394 0
M  V30 3800 H 352.289 -1.17896 0.996988 0
M  V30 3801 H 354.247 -4.10391 -0.0945588 0
M  V30 3802 H 352.908 -3.07392 -0.645668 0
M  V30 3803 H 352.101 -4.97883 0.78287 0
M  V30 3804 H 351.703 -3.41348 1.52831 0
M  V30 3805 H 353.995 -6.58408 1.59703 0
M  V30 3806 H 354.938 -6.36381 3.10523 0
M  V30 3807 H 355.346 -5.39626 1.65722 0
M  V30 3808 N 354.744 -0.972509 -1.24016 0
M  V30 3809 C 355.691 -0.505969 -2.25186 0
M  V30 3810 C 356.661 0.451009 -1.5986 0
M  V30 3811 O 357.846 0.360307 -1.87367 0
M  V30 3812 C 354.986 0.193089 -3.44559 0
M  V30 3813 C 354.099 -0.803222 -4.24467 0
M  V30 3814 C 353.234 -0.0797793 -5.3114 0
M  V30 3815 C 352.273 -1.06583 -6.02749 0
M  V30 3816 N 351.41 -0.372074 -7.01113 0
M  V30 3817 H 356.25 -1.37351 -2.64459 0
M  V30 3818 H 353.787 -0.688419 -1.29997 0
M  V30 3819 H 355.745 0.615125 -4.1264 0
M  V30 3820 H 354.375 1.02455 -3.06109 0
M  V30 3821 H 353.427 -1.34368 -3.55878 0
M  V30 3822 H 354.739 -1.55494 -4.73944 0
M  V30 3823 H 353.893 0.400015 -6.0538 0
M  V30 3824 H 352.632 0.704597 -4.82583 0
M  V30 3825 H 351.637 -1.55645 -5.27309 0
M  V30 3826 H 352.862 -1.85074 -6.53395 0
M  V30 3827 H 350.808 0.393238 -6.5482 0
M  V30 3828 H 350.725 -1.06258 -7.48495 0
M  V30 3829 H 351.993 0.0855932 -7.79453 0
M  V30 3830 N 356.222 1.38976 -0.743202 0
M  V30 3831 C 357.468 2.01114 -0.304109 0
M  V30 3832 C 357.823 1.57929 1.09892 0
M  V30 3833 O 357.116 0.801983 1.74008 0
M  V30 3834 C 357.31 3.55647 -0.353517 0
M  V30 3835 C 357.139 4.13837 -1.75981 0
M  V30 3836 C 355.909 4.46062 -2.37395 0
M  V30 3837 C 358.107 4.36812 -2.71477 0
M  V30 3838 N 356.089 4.898 -3.70093 0
M  V30 3839 C 357.46 4.82844 -3.88923 0
M  V30 3840 C 359.515 4.18893 -2.69134 0
M  V30 3841 C 358.218 5.12837 -5.04371 0
M  V30 3842 C 360.244 4.50005 -3.83731 0
M  V30 3843 C 359.606 4.96251 -4.99914 0
M  V30 3844 H 355.705 0.765931 -0.157716 0
M  V30 3845 H 358.289 1.68763 -0.970931 0
M  V30 3846 H 356.46 3.87368 0.282987 0
M  V30 3847 H 358.192 4.04564 0.104904 0
M  V30 3848 H 354.947 4.34145 -1.89248 0
M  V30 3849 H 355.371 5.16016 -4.38242 0
M  V30 3850 H 360.013 3.82335 -1.80499 0
M  V30 3851 H 357.731 5.48297 -5.9363 0
M  V30 3852 H 361.317 4.37755 -3.83225 0
M  V30 3853 H 360.197 5.19867 -5.87118 0
M  V30 3854 N 357.7 0.491464 1.49741 0
M  V30 3855 C 358.925 -0.0557177 2.07325 0
M  V30 3856 C 359.35 -1.30925 1.35056 0
M  V30 3857 O 358.708 -1.76733 0.404365 0
M  V30 3858 C 358.756 -0.302074 3.59333 0
M  V30 3859 O 357.86 -1.37868 3.88672 0
M  V30 3860 H 357.201 0.0219956 0.663636 0
M  V30 3861 H 359.731 0.688352 1.92673 0
M  V30 3862 H 359.741 -0.536464 4.04458 0
M  V30 3863 H 358.416 0.61383 4.11345 0
M  V30 3864 H 356.993 -1.12999 3.55367 0
M  V30 3865 N 359.178 -1.55987 0.224894 0
M  V30 3866 C 360.126 -2.21808 -0.700283 0
M  V30 3867 C 361.12 -1.19854 -1.19714 0
M  V30 3868 O 362.326 -1.37925 -1.15658 0
M  V30 3869 H 358.701 -0.711226 -0.244258 0
M  V30 3870 H 360.672 -2.98152 -0.121749 0
M  V30 3871 C 359.421 -2.91444 -1.8962 0
M  V30 3872 H 358.744 -3.69655 -1.52299 0
M  V30 3873 H 360.184 -3.40894 -2.52125 0
M  V30 3874 C 358.643 -1.94098 -2.75368 0
M  V30 3875 O 359.173 -1.46004 -3.74227 0
M  V30 3876 N 357.379 -1.61675 -2.41474 0
M  V30 3877 H 356.926 -2.00979 -1.61137 0
M  V30 3878 H 356.884 -0.968036 -2.99126 0
M  V30 3879 N 360.656 0.0484629 -1.57525 0
M  V30 3880 C 361.881 0.759177 -1.93006 0
M  V30 3881 C 362.306 1.69125 -0.823317 0
M  V30 3882 O 361.664 1.79931 0.222364 0
M  V30 3883 C 361.712 1.50899 -3.27509 0
M  V30 3884 O 360.816 2.62112 -3.18388 0
M  V30 3885 H 360.157 0.205564 -0.631379 0
M  V30 3886 H 362.687 0.00972959 -2.04598 0
M  V30 3887 H 362.697 1.88317 -3.6194 0
M  V30 3888 H 361.372 0.825269 -4.0763 0
M  V30 3889 H 359.949 2.27379 -2.95556 0
M  V30 3890 N 362.134 1.5431 0.320358 0
M  V30 3891 C 363.381 1.72668 1.05792 0
M  V30 3892 C 363.709 0.502084 1.87908 0
M  V30 3893 O 362.964 -0.516149 1.88771 0
M  V30 3894 C 363.263 2.95639 2.00828 0
M  V30 3895 C 362.929 4.30265 1.34843 0
M  V30 3896 C 361.591 4.66865 1.16578 0
M  V30 3897 C 363.943 5.13801 0.875095 0
M  V30 3898 C 361.271 5.84597 0.496336 0
M  V30 3899 C 363.623 6.32219 0.219463 0
M  V30 3900 C 362.287 6.67495 0.0246915 0
M  V30 3901 H 361.557 0.631837 0.387121 0
M  V30 3902 H 364.204 1.88552 0.334735 0
M  V30 3903 H 362.509 2.74456 2.79609 0
M  V30 3904 H 364.206 3.07038 2.57932 0
M  V30 3905 H 360.796 4.01472 1.50061 0
M  V30 3906 H 364.98 4.86039 1.00398 0
M  V30 3907 H 360.236 6.10486 0.334264 0
M  V30 3908 H 364.41 6.96227 -0.155291 0
M  V30 3909 H 362.037 7.5858 -0.496065 0
M  V30 3910 N 363.613 -0.582584 1.46437 0
M  V30 3911 C 364.563 -1.68654 1.53426 0
M  V30 3912 C 365.547 -1.55971 0.395194 0
M  V30 3913 O 366.739 -1.64884 0.643612 0
M  V30 3914 C 363.868 -3.07439 1.52762 0
M  V30 3915 C 362.954 -3.25418 2.71963 0
M  V30 3916 N 363.345 -3.13556 3.96883 0
M  V30 3917 C 361.643 -3.56357 2.68189 0
M  V30 3918 C 362.344 -3.33543 4.76575 0
M  V30 3919 N 361.32 -3.58704 4.08451 0
M  V30 3920 H 365.122 -1.58014 2.47808 0
M  V30 3921 H 362.636 -0.786617 1.42078 0
M  V30 3922 H 364.633 -3.86671 1.55857 0
M  V30 3923 H 363.293 -3.1921 0.594573 0
M  V30 3924 H 364.304 -2.9142 4.28129 0
M  V30 3925 H 360.981 -3.74812 1.83908 0
M  V30 3926 H 362.371 -3.29555 5.85528 0
M  V30 3927 N 365.091 -1.34144 -0.827227 0
M  V30 3928 C 366.041 -1.21923 -1.92663 0
M  V30 3929 C 367.025 -0.119294 -1.60457 0
M  V30 3930 O 368.217 -0.348539 -1.73534 0
M  V30 3931 C 365.346 -0.972492 -3.29238 0
M  V30 3932 C 364.432 -2.1154 -3.67576 0
M  V30 3933 N 364.823 -3.36627 -3.77512 0
M  V30 3934 C 363.121 -2.02468 -3.97395 0
M  V30 3935 C 363.822 -4.11658 -4.1099 0
M  V30 3936 N 362.798 -3.40207 -4.23981 0
M  V30 3937 H 366.6 -2.16721 -1.98517 0
M  V30 3938 H 364.114 -1.2632 -1.02064 0
M  V30 3939 H 366.111 -0.865847 -4.0781 0
M  V30 3940 H 364.771 -0.0331509 -3.24683 0
M  V30 3941 H 365.782 -3.71234 -3.61118 0
M  V30 3942 H 362.459 -1.16265 -4.00985 0
M  V30 3943 H 363.849 -5.19657 -4.25918 0
M  V30 3944 N 366.569 1.04691 -1.17803 0
M  V30 3945 C 367.816 1.77782 -0.969532 0
M  V30 3946 C 368.144 1.87926 0.501401 0
M  V30 3947 O 367.399 1.37918 1.38842 0
M  V30 3948 C 367.698 3.21467 -1.56186 0
M  V30 3949 C 367.364 3.3137 -3.05786 0
M  V30 3950 C 366.026 3.3378 -3.46619 0
M  V30 3951 C 368.378 3.31976 -4.01797 0
M  V30 3952 C 365.706 3.34431 -4.82051 0
M  V30 3953 C 368.058 3.34167 -5.37136 0
M  V30 3954 C 366.722 3.34866 -5.77426 0
M  V30 3955 H 365.992 0.650549 -0.354777 0
M  V30 3956 H 368.639 1.23006 -1.46772 0
M  V30 3957 H 366.944 3.79203 -0.985515 0
M  V30 3958 H 368.641 3.76652 -1.37602 0
M  V30 3959 H 365.231 3.3021 -2.73238 0
M  V30 3960 H 369.415 3.29311 -3.71306 0
M  V30 3961 H 364.671 3.33285 -5.12573 0
M  V30 3962 H 368.845 3.33585 -6.11305 0
M  V30 3963 H 366.472 3.35124 -6.82346 0
M  V30 3964 N 368.047 0.979072 1.23499 0
M  V30 3965 C 369.293 0.648178 1.92163 0
M  V30 3966 C 369.626 -0.816049 1.76222 0
M  V30 3967 O 368.901 -1.58849 1.12237 0
M  V30 3968 C 369.184 1.03773 3.44824 0
M  V30 3969 C 369.037 2.55948 3.69879 0
M  V30 3970 C 370.356 0.580653 4.36253 0
M  V30 3971 H 367.475 0.236952 0.69787 0
M  V30 3972 H 370.117 1.22012 1.45647 0
M  V30 3973 H 368.267 0.551058 3.84572 0
M  V30 3974 H 369.939 3.12179 3.3962 0
M  V30 3975 H 368.182 2.98641 3.14636 0
M  V30 3976 H 368.853 2.78255 4.76737 0
M  V30 3977 H 371.329 0.998465 4.03943 0
M  V30 3978 H 370.205 0.881663 5.41773 0
M  V30 3979 H 370.466 -0.519052 4.39042 0
M  V30 3980 N 369.525 -1.3858 0.750561 0
M  V30 3981 C 370.472 -2.30483 0.120835 0
M  V30 3982 C 371.442 -1.50022 -0.712923 0
M  V30 3983 O 372.627 -1.78662 -0.669676 0
M  V30 3984 C 369.767 -3.36431 -0.768666 0
M  V30 3985 C 368.88 -4.31927 0.0793922 0
M  V30 3986 C 368.015 -5.24944 -0.81283 0
M  V30 3987 C 367.054 -6.12088 0.0390447 0
M  V30 3988 N 366.191 -6.97412 -0.809969 0
M  V30 3989 H 371.031 -2.83761 0.91015 0
M  V30 3990 H 368.568 -1.39707 0.460463 0
M  V30 3991 H 370.526 -3.96462 -1.29898 0
M  V30 3992 H 369.156 -2.8457 -1.5238 0
M  V30 3993 H 368.208 -3.73382 0.727303 0
M  V30 3994 H 369.52 -4.93319 0.737401 0
M  V30 3995 H 368.674 -5.90078 -1.41042 0
M  V30 3996 H 367.413 -4.63911 -1.50458 0
M  V30 3997 H 366.418 -5.45952 0.649328 0
M  V30 3998 H 367.643 -6.75189 0.727809 0
M  V30 3999 H 365.589 -6.38931 -1.48672 0
M  V30 4000 H 365.506 -7.55712 -0.208789 0
M  V30 4001 H 366.774 -7.66959 -1.39263 0
M  V30 4002 N 371.003 -0.499398 -1.49478 0
M  V30 4003 C 371.936 0.326491 -2.25852 0
M  V30 4004 C 372.914 0.971776 -1.30366 0
M  V30 4005 O 374.098 1.00219 -1.59651 0
M  V30 4006 C 371.225 1.45969 -3.05632 0
M  V30 4007 C 370.271 0.928938 -4.16261 0
M  V30 4008 S 371.104 -0.179012 -5.35201 0
M  V30 4009 C 372.26 0.957389 -6.18534 0
M  V30 4010 H 372.493 -0.321746 -2.95554 0
M  V30 4011 H 370.026 -0.284674 -1.51753 0
M  V30 4012 H 371.984 2.109 -3.52181 0
M  V30 4013 H 370.645 2.07953 -2.35402 0
M  V30 4014 H 369.838 1.77813 -4.71592 0
M  V30 4015 H 369.44 0.356869 -3.72293 0
M  V30 4016 H 371.732 1.86296 -6.51383 0
M  V30 4017 H 372.675 0.442733 -7.06715 0
M  V30 4018 H 373.083 1.224 -5.5107 0
M  V30 4019 N 372.481 1.55866 -0.233164 0
M  V30 4020 C 373.444 2.1953 0.658715 0
M  V30 4021 C 374.444 1.16053 1.11303 0
M  V30 4022 O 375.634 1.41218 1.01996 0
M  V30 4023 C 372.766 2.82791 1.90373 0
M  V30 4024 H 373.959 2.99721 0.10347 0
M  V30 4025 H 371.512 1.56291 0.0164245 0
M  V30 4026 H 372.247 2.06501 2.50056 0
M  V30 4027 H 372.032 3.58578 1.58632 0
M  V30 4028 H 373.522 3.31556 2.53891 0
M  V30 4029 N 373.959 -0.0401083 1.57549 0
M  V30 4030 C 374.889 -1.04384 2.08869 0
M  V30 4031 C 375.87 -1.38407 0.988817 0
M  V30 4032 O 377.055 -1.47483 1.26342 0
M  V30 4033 C 374.185 -2.34808 2.55895 0
M  V30 4034 C 373.139 -2.15057 3.70047 0
M  V30 4035 C 372.465 -3.51145 4.03239 0
M  V30 4036 C 373.765 -1.54576 4.98902 0
M  V30 4037 H 375.459 -0.616666 2.92981 0
M  V30 4038 H 373.005 -0.295184 1.40942 0
M  V30 4039 H 374.958 -3.05346 2.90417 0
M  V30 4040 H 373.682 -2.79565 1.68853 0
M  V30 4041 H 372.341 -1.46954 3.35857 0
M  V30 4042 H 371.989 -3.93529 3.13279 0
M  V30 4043 H 371.689 -3.38758 4.80122 0
M  V30 4044 H 373.213 -4.23062 4.40285 0
M  V30 4045 H 374.627 -2.15017 5.31451 0
M  V30 4046 H 373.024 -1.52796 5.80322 0
M  V30 4047 H 374.094 -0.51039 4.82206 0
M  V30 4048 N 375.437 -1.54477 -0.31217 0
M  V30 4049 C 376.665 -1.77205 -1.068 0
M  V30 4050 C 377.08 -0.526114 -1.81321 0
M  V30 4051 O 376.437 0.503647 -1.75413 0
M  V30 4052 C 376.488 -2.97253 -2.05725 0
M  V30 4053 O 376.209 -4.1703 -1.34228 0
M  V30 4054 C 377.71 -3.32281 -2.93435 0
M  V30 4055 H 374.93 -0.591287 -0.317208 0
M  V30 4056 H 377.474 -2.01398 -0.354834 0
M  V30 4057 H 375.629 -2.753 -2.72559 0
M  V30 4058 H 376.043 -4.84636 -2.00571 0
M  V30 4059 H 377.517 -4.19551 -3.58721 0
M  V30 4060 H 377.994 -2.49945 -3.61143 0
M  V30 4061 H 378.6 -3.56353 -2.32147 0
M  V30 4062 N 376.915 0.57481 -1.46744 0
M  V30 4063 C 377.862 1.68329 -1.57905 0
M  V30 4064 C 378.832 1.60625 -0.422927 0
M  V30 4065 O 380.017 1.79721 -0.640711 0
M  V30 4066 C 377.157 3.06665 -1.58274 0
M  V30 4067 C 376.27 3.24935 -2.84678 0
M  V30 4068 C 375.405 4.53566 -2.76499 0
M  V30 4069 C 374.444 4.65207 -3.97806 0
M  V30 4070 N 373.581 5.85172 -3.87967 0
M  V30 4071 H 378.421 1.58127 -2.52587 0
M  V30 4072 H 375.958 0.770552 -1.25303 0
M  V30 4073 H 377.916 3.86745 -1.56473 0
M  V30 4074 H 376.546 3.15745 -0.671194 0
M  V30 4075 H 375.598 2.38405 -2.96424 0
M  V30 4076 H 376.91 3.29403 -3.7456 0
M  V30 4077 H 376.064 5.41885 -2.72848 0
M  V30 4078 H 374.803 4.51548 -1.8427 0
M  V30 4079 H 373.808 3.75304 -4.0178 0
M  V30 4080 H 375.033 4.68997 -4.9114 0
M  V30 4081 H 372.979 5.84137 -2.98529 0
M  V30 4082 H 372.896 5.90943 -4.71511 0
M  V30 4083 H 374.164 6.759 -3.88303 0
M  V30 4084 N 378.394 1.34581 0.820102 0
M  V30 4085 C 379.342 1.26401 1.95258 0
M  V30 4086 C 380.336 0.161553 1.68628 0
M  V30 4087 O 381.542 0.326703 1.7701 0
M  V30 4088 H 377.917 0.392749 0.64129 0
M  V30 4089 H 379.888 2.22105 1.99279 0
M  V30 4090 C 378.637 1.03919 3.31807 0
M  V30 4091 H 377.96 1.87984 3.52848 0
M  V30 4092 H 379.4 1.02232 4.11491 0
M  V30 4093 C 377.859 -0.257433 3.35915 0
M  V30 4094 O 378.389 -1.25784 3.81499 0
M  V30 4095 N 376.595 -0.291524 2.89134 0
M  V30 4096 H 376.142 0.523161 2.52232 0
M  V30 4097 H 376.1 -1.15883 2.92264 0
M  V30 4098 N 379.872 -1.04064 1.18357 0
M  V30 4099 C 381.283 -1.58719 0.98312 0
M  V30 4100 C 381.634 -1.90556 -0.467193 0
M  V30 4101 O 380.759 -1.69561 -1.34454 0
M  V30 4102 C 381.354 -2.88379 1.77828 0
M  V30 4103 C 379.913 -3.3965 1.62218 0
M  V30 4104 C 379.06 -2.13235 1.77274 0
M  V30 4105 H 382.011 -0.867359 1.32901 0
M  V30 4106 H 382.032 -3.58773 1.26737 0
M  V30 4107 H 381.544 -2.65176 2.83379 0
M  V30 4108 H 379.645 -3.67866 0.592036 0
M  V30 4109 H 379.758 -4.13475 2.42023 0
M  V30 4110 H 378.122 -2.24542 1.20221 0
M  V30 4111 H 378.905 -1.92487 2.8426 0
M  V30 4112 N 381.35 -0.985608 -1.22978 0
M  V30 4113 C 382.297 -0.529825 -2.24636 0
M  V30 4114 C 383.267 0.434028 -1.60329 0
M  V30 4115 O 384.452 0.340414 -1.87739 0
M  V30 4116 C 381.592 0.156533 -3.44745 0
M  V30 4117 C 380.705 -0.848197 -4.23591 0
M  V30 4118 C 379.84 -0.136109 -5.31026 0
M  V30 4119 C 378.879 -1.1297 -6.01585 0
M  V30 4120 N 378.016 -0.446415 -7.00679 0
M  V30 4121 H 382.856 -1.40148 -2.62988 0
M  V30 4122 H 380.393 -0.702168 -1.29259 0
M  V30 4123 H 382.351 0.571324 -4.1327 0
M  V30 4124 H 380.981 0.992025 -3.07179 0
M  V30 4125 H 380.033 -1.38135 -3.54433 0
M  V30 4126 H 381.345 -1.60512 -4.72268 0
M  V30 4127 H 380.499 0.335784 -6.0577 0
M  V30 4128 H 379.238 0.653373 -4.83304 0
M  V30 4129 H 378.243 -1.6123 -5.25628 0
M  V30 4130 H 379.468 -1.91993 -6.51395 0
M  V30 4131 H 377.414 0.323763 -6.55201 0
M  V30 4132 H 377.331 -1.1419 -7.47326 0
M  V30 4133 H 378.599 0.00291697 -7.795 0
M  V30 4134 N 382.828 1.3818 -0.7579 0
M  V30 4135 C 383.775 2.30416 -0.133057 0
M  V30 4136 C 384.745 1.50398 0.704957 0
M  V30 4137 O 385.93 1.79014 0.660192 0
M  V30 4138 C 383.07 3.36834 0.750813 0
M  V30 4139 C 382.183 4.31879 -0.102297 0
M  V30 4140 C 381.318 5.25368 0.784979 0
M  V30 4141 C 380.357 6.12058 -0.0715046 0
M  V30 4142 N 379.494 6.97832 0.772972 0
M  V30 4143 H 384.334 2.83274 -0.925186 0
M  V30 4144 H 381.871 1.39461 -0.467866 0
M  V30 4145 H 383.829 3.97145 1.27794 0
M  V30 4146 H 382.459 2.85374 1.50868 0
M  V30 4147 H 381.511 3.72991 -0.747095 0
M  V30 4148 H 382.823 4.92921 -0.763552 0
M  V30 4149 H 381.977 5.90818 1.37911 0
M  V30 4150 H 380.716 4.64703 1.47996 0
M  V30 4151 H 379.721 5.456 -0.678272 0
M  V30 4152 H 380.946 6.74793 -0.763606 0
M  V30 4153 H 378.892 6.3971 1.45282 0
M  V30 4154 H 378.809 7.55812 0.168709 0
M  V30 4155 H 380.077 7.67687 1.35194 0
M  V30 4156 N 384.306 0.507319 1.49211 0
M  V30 4157 C 385.722 0.163682 1.58758 0
M  V30 4158 C 385.922 -1.33208 1.51188 0
M  V30 4159 O 384.978 -2.10855 1.38911 0
M  V30 4160 C 386.291 0.746095 2.91297 0
M  V30 4161 C 387.839 0.712773 3.04776 0
M  V30 4162 C 388.314 1.27336 4.39943 0
M  V30 4163 N 389.805 1.23433 4.46451 0
M  V30 4164 C 390.54 1.63821 5.495 0
M  V30 4165 N 390.036 2.11832 6.5962 0
M  V30 4166 N 391.829 1.55198 5.4025 0
M  V30 4167 H 383.98 1.47972 1.52375 0
M  V30 4168 H 386.243 0.614147 0.722168 0
M  V30 4169 H 385.949 1.79534 3.02424 0
M  V30 4170 H 385.823 0.210137 3.76614 0
M  V30 4171 H 388.21 -0.327656 2.93275 0
M  V30 4172 H 388.291 1.28595 2.21127 0
M  V30 4173 H 387.935 2.3126 4.52196 0
M  V30 4174 H 387.865 0.676066 5.22242 0
M  V30 4175 H 390.356 0.882627 3.67448 0
M  V30 4176 H 390.669 2.40703 7.34358 0
M  V30 4177 H 389.014 2.1581 6.60644 0
M  V30 4178 H 392.205 1.17505 4.53112 0
M  V30 4179 H 392.378 1.86997 6.20432 0
M  V30 4180 N 385.784 -1.5574 0.241426 0
M  V30 4181 C 387.195 -1.84842 -0.262755 0
M  V30 4182 C 387.546 -1.16317 -1.58003 0
M  V30 4183 O 386.671 -0.439653 -2.11887 0
M  V30 4184 C 387.266 -3.35332 -0.483523 0
M  V30 4185 C 385.825 -3.6468 -0.931977 0
M  V30 4186 C 384.972 -2.77299 -0.0061151 0
M  V30 4187 H 387.923 -1.51761 0.464129 0
M  V30 4188 H 387.944 -3.56615 -1.32688 0
M  V30 4189 H 387.456 -3.85178 0.47537 0
M  V30 4190 H 385.557 -3.20307 -1.90353 0
M  V30 4191 H 385.67 -4.72498 -0.792628 0
M  V30 4192 H 384.034 -2.49408 -0.516503 0
M  V30 4193 H 384.817 -3.2995 0.948052 0
M  V30 4194 N 387.262 0.0317525 -1.57568 0
M  V30 4195 C 388.49 0.734949 -1.93407 0
M  V30 4196 C 388.905 1.69036 -0.84096 0
M  V30 4197 O 388.262 1.81582 0.182836 0
M  V30 4198 C 388.313 1.49432 -3.29169 0
M  V30 4199 O 388.034 0.577261 -4.3428 0
M  V30 4200 C 389.535 2.29492 -3.79273 0
M  V30 4201 H 386.755 0.206706 -0.638368 0
M  V30 4202 H 389.299 -0.00992046 -2.04498 0
M  V30 4203 H 387.454 2.1911 -3.19483 0
M  V30 4204 H 387.868 1.10952 -5.1263 0
M  V30 4205 H 389.342 2.78172 -4.76785 0
M  V30 4206 H 389.819 3.10794 -3.10328 0
M  V30 4207 H 390.425 1.64894 -3.92033 0
M  V30 4208 N 388.74 1.54641 0.303973 0
M  V30 4209 C 389.703 1.84646 1.35789 0
M  V30 4210 C 390.703 0.7192 1.4382 0
M  V30 4211 O 391.893 0.987491 1.43507 0
M  V30 4212 C 389.025 2.02407 2.74307 0
M  V30 4213 H 390.218 2.78829 1.10429 0
M  V30 4214 H 387.771 1.46658 0.540487 0
M  V30 4215 H 388.506 1.10502 3.04893 0
M  V30 4216 H 388.291 2.84453 2.69868 0
M  V30 4217 H 389.781 2.27002 3.50514 0
M  V30 4218 N 390.218 -0.567019 1.47046 0
M  V30 4219 C 391.128 -1.70247 1.6141 0
M  V30 4220 C 392.144 -1.66746 0.497157 0
M  V30 4221 O 393.32 -1.86371 0.763389 0
M  V30 4222 C 390.385 -3.06756 1.61561 0
M  V30 4223 C 389.446 -3.21399 2.84607 0
M  V30 4224 C 388.679 -4.51396 2.84741 0
M  V30 4225 O 388.902 -5.36255 1.94388 0
M  V30 4226 O 387.836 -4.69621 3.76483 0
M  V30 4227 H 391.662 -1.61073 2.57467 0
M  V30 4228 H 389.247 -0.735894 1.30019 0
M  V30 4229 H 391.129 -3.8801 1.64396 0
M  V30 4230 H 389.804 -3.16333 0.686684 0
M  V30 4231 H 388.711 -2.39579 2.8732 0
M  V30 4232 H 390.044 -3.16721 3.76761 0
M  V30 4233 N 391.696 -1.35014 -0.812953 0
M  V30 4234 C 392.643 -1.27412 -1.92444 0
M  V30 4235 C 393.613 -0.14733 -1.65445 0
M  V30 4236 O 394.798 -0.329974 -1.87925 0
M  V30 4237 C 391.938 -1.04558 -3.28879 0
M  V30 4238 C 391.051 -2.26101 -3.68106 0
M  V30 4239 C 390.186 -1.96449 -4.9354 0
M  V30 4240 C 389.225 -3.14081 -5.25376 0
M  V30 4241 N 388.362 -2.84246 -6.41988 0
M  V30 4242 H 393.202 -2.22463 -1.98278 0
M  V30 4243 H 390.739 -1.10593 -0.969933 0
M  V30 4244 H 392.697 -0.893413 -4.07522 0
M  V30 4245 H 391.327 -0.131719 -3.22531 0
M  V30 4246 H 390.379 -2.52204 -2.84775 0
M  V30 4247 H 391.691 -3.13959 -3.87597 0
M  V30 4248 H 390.845 -1.78026 -5.79993 0
M  V30 4249 H 389.584 -1.05867 -4.76071 0
M  V30 4250 H 388.589 -3.33089 -4.37415 0
M  V30 4251 H 389.814 -4.05455 -5.44778 0
M  V30 4252 H 387.76 -1.96252 -6.25956 0
M  V30 4253 H 387.677 -3.65637 -6.61699 0
M  V30 4254 H 388.945 -2.6935 -7.31485 0
M  V30 4255 N 393.175 1.03435 -1.18907 0
M  V30 4256 C 394.105 2.13503 -0.945448 0
M  V30 4257 C 395.086 1.69682 0.119189 0
M  V30 4258 O 396.271 1.94169 -0.034707 0
M  V30 4259 C 393.401 3.44004 -0.477316 0
M  V30 4260 C 392.355 4.0148 -1.48316 0
M  V30 4261 C 391.681 5.27537 -0.872311 0
M  V30 4262 C 392.981 4.36921 -2.86177 0
M  V30 4263 H 394.675 2.34141 -1.86597 0
M  V30 4264 H 392.221 1.12523 -0.898584 0
M  V30 4265 H 394.174 4.20372 -0.294204 0
M  V30 4266 H 392.898 3.23072 0.478786 0
M  V30 4267 H 391.557 3.27201 -1.65332 0
M  V30 4268 H 391.205 5.02917 0.0911752 0
M  V30 4269 H 390.905 5.66954 -1.54393 0
M  V30 4270 H 392.429 6.06576 -0.699871 0
M  V30 4271 H 393.843 5.04248 -2.72776 0
M  V30 4272 H 392.24 4.87405 -3.50081 0
M  V30 4273 H 393.31 3.46466 -3.39248 0
M  V30 4274 N 394.653 0.992116 1.22453 0
M  V30 4275 C 395.583 0.561677 2.26644 0
M  V30 4276 C 396.564 -0.411055 1.65059 0
M  V30 4277 O 397.749 -0.301861 1.9184 0
M  V30 4278 C 394.879 -0.125247 3.47074 0
M  V30 4279 C 393.833 0.765948 4.21091 0
M  V30 4280 C 393.159 -0.0538484 5.34673 0
M  V30 4281 C 394.459 2.06242 4.79856 0
M  V30 4282 H 396.153 1.43259 2.62902 0
M  V30 4283 H 393.699 0.690283 1.26377 0
M  V30 4284 H 395.652 -0.437764 4.1912 0
M  V30 4285 H 394.376 -1.03069 3.0991 0
M  V30 4286 H 393.035 1.0621 3.50878 0
M  V30 4287 H 392.683 -0.960188 4.9375 0
M  V30 4288 H 392.383 0.539415 5.85119 0
M  V30 4289 H 393.907 -0.360477 6.09535 0
M  V30 4290 H 395.321 1.8139 5.43848 0
M  V30 4291 H 393.718 2.60444 5.40638 0
M  V30 4292 H 394.788 2.74167 3.99951 0
M  V30 4293 N 396.131 -1.37776 0.765217 0
M  V30 4294 C 397.063 -2.28958 0.105361 0
M  V30 4295 C 398.076 -1.48316 -0.67128 0
M  V30 4296 O 399.265 -1.71046 -0.51045 0
M  V30 4297 C 396.365 -3.27421 -0.874569 0
M  V30 4298 C 395.538 -4.37132 -0.153123 0
M  V30 4299 C 394.597 -5.1571 -1.04547 0
M  V30 4300 O 393.623 -5.66896 -0.511672 0
M  V30 4301 N 394.825 -5.29808 -2.37243 0
M  V30 4302 H 397.59 -2.86227 0.888495 0
M  V30 4303 H 395.151 -1.49682 0.617 0
M  V30 4304 H 397.143 -3.7687 -1.47483 0
M  V30 4305 H 395.713 -2.70967 -1.55871 0
M  V30 4306 H 394.933 -3.89166 0.627975 0
M  V30 4307 H 396.221 -5.07625 0.345643 0
M  V30 4308 H 395.619 -4.89793 -2.83054 0
M  V30 4309 H 394.176 -5.82589 -2.9229 0
M  V30 4310 N 397.609 -0.515225 -1.4894 0
M  V30 4311 C 398.559 0.275113 -2.26334 0
M  V30 4312 C 399.543 0.923007 -1.31793 0
M  V30 4313 O 400.735 0.828254 -1.56426 0
M  V30 4314 C 397.864 1.33041 -3.16473 0
M  V30 4315 C 396.95 0.688051 -4.18481 0
M  V30 4316 N 397.341 -0.217638 -5.05332 0
M  V30 4317 C 395.639 0.94699 -4.3583 0
M  V30 4318 C 396.34 -0.58676 -5.78733 0
M  V30 4319 N 395.316 0.0486966 -5.43578 0
M  V30 4320 H 399.118 -0.421876 -2.90856 0
M  V30 4321 H 396.632 -0.332249 -1.58965 0
M  V30 4322 H 398.629 1.9102 -3.70563 0
M  V30 4323 H 397.289 2.02894 -2.53504 0
M  V30 4324 H 398.3 -0.589343 -5.14536 0
M  V30 4325 H 394.977 1.63719 -3.8406 0
M  V30 4326 H 396.367 -1.32855 -6.58634 0
M  V30 4327 N 399.087 1.5561 -0.249682 0
M  V30 4328 C 400.498 1.84979 0.252949 0
M  V30 4329 C 400.849 1.17153 1.57384 0
M  V30 4330 O 399.974 0.450884 2.11651 0
M  V30 4331 C 400.569 3.35584 0.465732 0
M  V30 4332 C 399.128 3.65169 0.912624 0
M  V30 4333 C 398.275 2.77299 -0.00859085 0
M  V30 4334 H 401.226 1.51513 -0.47217 0
M  V30 4335 H 401.247 3.57313 1.30795 0
M  V30 4336 H 400.759 3.8492 -0.49579 0
M  V30 4337 H 398.86 3.21312 1.88652 0
M  V30 4338 H 398.973 4.72912 0.767559 0
M  V30 4339 H 397.337 2.49678 0.50327 0
M  V30 4340 H 398.12 3.29442 -0.965537 0
M  V30 4341 N 400.565 -0.0233959 1.57583 0
M  V30 4342 C 401.812 -0.713063 1.8953 0
M  V30 4343 C 402.14 -1.75056 0.847673 0
M  V30 4344 O 401.395 -1.95119 -0.150636 0
M  V30 4345 C 401.694 -1.41428 3.28227 0
M  V30 4346 C 401.36 -0.512222 4.47981 0
M  V30 4347 C 400.022 -0.263785 4.80476 0
M  V30 4348 C 402.374 0.110248 5.21083 0
M  V30 4349 C 399.702 0.615804 5.83459 0
M  V30 4350 C 402.054 0.977573 6.25001 0
M  V30 4351 C 400.718 1.23542 6.55968 0
M  V30 4352 H 399.988 -0.260928 0.69354 0
M  V30 4353 H 402.635 0.0271047 1.91481 0
M  V30 4354 H 400.94 -2.22791 3.22291 0
M  V30 4355 H 402.637 -1.95355 3.50196 0
M  V30 4356 H 399.227 -0.716013 4.22577 0
M  V30 4357 H 403.411 -0.0687137 4.96252 0
M  V30 4358 H 398.667 0.82382 6.05824 0
M  V30 4359 H 402.841 1.46638 6.80786 0
M  V30 4360 H 400.468 1.91871 7.35588 0
M  V30 4361 N 402.043 -1.548 -0.295768 0
M  V30 4362 C 403.289 -1.74588 -1.03184 0
M  V30 4363 C 403.622 -0.532962 -1.86744 0
M  V30 4364 O 402.897 0.469872 -1.88739 0
M  V30 4365 C 403.18 -3.03791 -1.93347 0
M  V30 4366 C 403.033 -4.35392 -1.12933 0
M  V30 4367 C 404.352 -3.28892 -2.92435 0
M  V30 4368 H 401.471 -0.635221 -0.373715 0
M  V30 4369 H 404.113 -1.87519 -0.30606 0
M  V30 4370 H 402.263 -2.92898 -2.55232 0
M  V30 4371 H 403.935 -4.58211 -0.532943 0
M  V30 4372 H 402.178 -4.31642 -0.432168 0
M  V30 4373 H 402.849 -5.22074 -1.79284 0
M  V30 4374 H 405.325 -3.39429 -2.4068 0
M  V30 4375 H 404.201 -4.20603 -3.52682 0
M  V30 4376 H 404.462 -2.47437 -3.6637 0
M  V30 4377 N 403.521 0.559213 -1.47345 0
M  V30 4378 C 404.749 1.34194 -1.57479 0
M  V30 4379 C 405.164 1.87463 -0.224261 0
M  V30 4380 O 404.521 1.64888 0.782185 0
M  V30 4381 C 404.572 2.51324 -2.59843 0
M  V30 4382 O 404.293 2.00256 -3.89653 0
M  V30 4383 C 405.794 3.43563 -2.80142 0
M  V30 4384 H 403.014 0.409136 -0.531835 0
M  V30 4385 H 405.558 0.677609 -1.92947 0
M  V30 4386 H 403.713 3.13699 -2.27314 0
M  V30 4387 H 404.127 2.76708 -4.4557 0
M  V30 4388 H 405.601 4.2217 -3.55635 0
M  V30 4389 H 406.078 3.9698 -1.87892 0
M  V30 4390 H 406.684 2.87005 -3.1386 0
M  V30 4391 N 404.999 1.35443 0.805782 0
M  V30 4392 C 405.931 1.24285 1.92577 0
M  V30 4393 C 406.944 0.165962 1.61952 0
M  V30 4394 O 408.133 0.419303 1.73505 0
M  V30 4395 C 405.233 0.891272 3.2697 0
M  V30 4396 C 404.406 2.06669 3.85495 0
M  V30 4397 C 403.465 1.69077 4.98297 0
M  V30 4398 O 402.491 2.4096 5.15681 0
M  V30 4399 N 403.693 0.614869 5.77234 0
M  V30 4400 H 406.458 2.20777 2.02676 0
M  V30 4401 H 404.019 1.28623 0.983243 0
M  V30 4402 H 406.011 0.621256 3.99903 0
M  V30 4403 H 404.581 0.016004 3.12596 0
M  V30 4404 H 403.801 2.50046 3.04747 0
M  V30 4405 H 405.089 2.85237 4.21328 0
M  V30 4406 H 404.487 0.017648 5.65697 0
M  V30 4407 H 403.044 0.404636 6.50543 0
M  V30 4408 N 406.477 -1.02803 1.19454 0
M  V30 4409 C 407.427 -2.0945 0.900827 0
M  V30 4410 C 408.411 -1.60335 -0.134715 0
M  V30 4411 O 409.603 -1.76857 0.0710924 0
M  V30 4412 C 406.732 -3.4044 0.442229 0
M  V30 4413 C 405.818 -3.96286 1.51056 0
M  V30 4414 N 406.209 -4.25785 2.73021 0
M  V30 4415 C 404.507 -4.24307 1.37404 0
M  V30 4416 C 405.208 -4.70654 3.41848 0
M  V30 4417 N 404.184 -4.72238 2.69243 0
M  V30 4418 H 407.986 -2.3015 1.82779 0
M  V30 4419 H 405.5 -1.20672 1.08683 0
M  V30 4420 H 407.497 -4.16354 0.21326 0
M  V30 4421 H 406.157 -3.21159 -0.478238 0
M  V30 4422 H 407.168 -4.15041 3.09776 0
M  V30 4423 H 403.845 -4.14285 0.517103 0
M  V30 4424 H 405.235 -5.02392 4.46152 0
M  V30 4425 N 407.956 -0.998596 -1.21925 0
M  V30 4426 C 408.886 -0.573688 -2.26343 0
M  V30 4427 C 409.867 0.402296 -1.65274 0
M  V30 4428 O 411.052 0.291683 -1.91997 0
M  V30 4429 C 408.182 0.106839 -3.47136 0
M  V30 4430 C 407.136 -0.788269 -4.20678 0
M  V30 4431 C 406.462 0.0254927 -5.34694 0
M  V30 4432 C 407.762 -2.08784 -4.78755 0
M  V30 4433 H 409.456 -1.44651 -2.62138 0
M  V30 4434 H 407.002 -0.696975 -1.26009 0
M  V30 4435 H 408.955 0.415531 -4.19346 0
M  V30 4436 H 407.679 1.01424 -3.10452 0
M  V30 4437 H 406.338 -1.08069 -3.50309 0
M  V30 4438 H 405.986 0.933989 -4.94253 0
M  V30 4439 H 405.686 -0.570437 -5.84825 0
M  V30 4440 H 407.21 0.328147 -6.09718 0
M  V30 4441 H 408.624 -1.84272 -5.42878 0
M  V30 4442 H 407.021 -2.63307 -5.39249 0
M  V30 4443 H 408.091 -2.76284 -3.98491 0
M  V30 4444 N 409.434 1.37368 -0.772513 0
M  V30 4445 C 410.662 2.03942 -0.348588 0
M  V30 4446 C 411.077 1.58264 1.02947 0
M  V30 4447 O 410.434 0.764246 1.65727 0
M  V30 4448 C 410.485 3.5946 -0.38351 0
M  V30 4449 O 410.206 4.03468 -1.70721 0
M  V30 4450 C 411.707 4.4327 0.0519152 0
M  V30 4451 H 408.927 0.654931 -0.145966 0
M  V30 4452 H 411.471 1.75686 -1.04665 0
M  V30 4453 H 409.626 3.86486 0.265978 0
M  V30 4454 H 410.04 4.97991 -1.64636 0
M  V30 4455 H 411.514 5.51995 -0.0236733 0
M  V30 4456 H 411.991 4.2514 1.10238 0
M  V30 4457 H 412.597 4.21471 -0.569415 0
M  V30 4458 N 410.912 0.523116 1.48665 0
M  V30 4459 C 412.328 0.180511 1.58576 0
M  V30 4460 C 412.528 -1.31597 1.52592 0
M  V30 4461 O 411.584 -2.0937 1.4114 0
M  V30 4462 C 412.897 0.776949 2.90489 0
M  V30 4463 C 414.445 0.745058 3.04003 0
M  V30 4464 C 414.92 1.31995 4.38567 0
M  V30 4465 N 416.411 1.28162 4.45117 0
M  V30 4466 C 417.146 1.6964 5.47731 0
M  V30 4467 N 416.642 2.18816 6.57337 0
M  V30 4468 N 418.435 1.6092 5.38573 0
M  V30 4469 H 410.586 1.4958 1.50797 0
M  V30 4470 H 412.849 0.621772 0.715614 0
M  V30 4471 H 412.555 1.82732 3.00503 0
M  V30 4472 H 412.429 0.25007 3.7637 0
M  V30 4473 H 414.816 -0.296532 2.93606 0
M  V30 4474 H 414.897 1.30933 2.1975 0
M  V30 4475 H 414.541 2.36043 4.49718 0
M  V30 4476 H 414.471 0.731418 5.21496 0
M  V30 4477 H 416.962 0.92155 3.66491 0
M  V30 4478 H 417.275 2.48478 7.31764 0
M  V30 4479 H 415.62 2.22805 6.58318 0
M  V30 4480 H 418.811 1.22304 4.5184 0
M  V30 4481 H 418.984 1.93567 6.18414 0
M  V30 4482 N 412.39 -1.55475 0.257931 0
M  V30 4483 C 413.615 -2.04064 -0.370488 0
M  V30 4484 C 414.04 -1.13565 -1.49948 0
M  V30 4485 O 413.398 -0.130781 -1.80828 0
M  V30 4486 C 413.446 -3.50554 -0.845237 0
M  V30 4487 O 412.55 -3.63173 -1.95394 0
M  V30 4488 H 411.891 -0.659257 -0.0792243 0
M  V30 4489 H 414.421 -2.00903 0.387212 0
M  V30 4490 H 414.431 -3.91588 -1.14555 0
M  V30 4491 H 413.106 -4.15896 -0.0191259 0
M  V30 4492 H 411.683 -3.34039 -1.65748 0
M  V30 4493 N 413.868 0.0150385 -1.57593 0
M  V30 4494 C 414.798 1.01047 -2.10503 0
M  V30 4495 C 415.779 1.36816 -1.01071 0
M  V30 4496 O 416.964 1.45455 -1.28672 0
M  V30 4497 C 414.094 2.30708 -2.59598 0
M  V30 4498 C 413.048 2.09142 -3.73421 0
M  V30 4499 C 412.374 3.44685 -4.08774 0
M  V30 4500 C 413.674 1.46619 -5.01298 0
M  V30 4501 H 415.368 0.569978 -2.93925 0
M  V30 4502 H 412.914 0.272724 -1.41394 0
M  V30 4503 H 414.867 3.00687 -2.95238 0
M  V30 4504 H 413.591 2.76843 -1.73279 0
M  V30 4505 H 412.25 1.41592 -3.38153 0
M  V30 4506 H 411.898 3.88495 -3.195 0
M  V30 4507 H 411.598 3.31077 -4.8545 0
M  V30 4508 H 413.122 4.16004 -4.4696 0
M  V30 4509 H 414.536 2.06535 -5.34805 0
M  V30 4510 H 412.933 1.43544 -5.82679 0
M  V30 4511 H 414.003 0.433611 -4.82957 0
M  V30 4512 N 415.346 1.54954 0.287554 0
M  V30 4513 C 416.309 1.86076 1.33823 0
M  V30 4514 C 417.309 0.734414 1.43049 0
M  V30 4515 O 418.499 1.00266 1.42452 0
M  V30 4516 C 415.631 2.05305 2.72144 0
M  V30 4517 H 416.824 2.79984 1.07465 0
M  V30 4518 H 414.377 1.47223 0.524902 0
M  V30 4519 H 415.112 1.1373 3.03704 0
M  V30 4520 H 414.897 2.873 2.66836 0
M  V30 4521 H 416.387 2.30706 3.48087 0
M  V30 4522 N 416.824 -0.551391 1.4764 0
M  V30 4523 C 418.073 -1.30467 1.53822 0
M  V30 4524 C 418.386 -1.94495 0.207661 0
M  V30 4525 O 419.592 -2.71099 0.147533 0
M  V30 4526 C 418.048 -2.36616 2.71184 0
M  V30 4527 C 417.656 -1.78754 4.10793 0
M  V30 4528 C 419.4 -3.13088 2.86663 0
M  V30 4529 C 417.307 -2.82717 5.19447 0
M  V30 4530 H 416.237 -0.490584 0.572576 0
M  V30 4531 H 418.888 -0.58494 1.73927 0
M  V30 4532 H 417.27 -3.11529 2.4447 0
M  V30 4533 H 418.444 -1.10173 4.47435 0
M  V30 4534 H 416.759 -1.14846 4.00249 0
M  V30 4535 H 419.356 -3.90736 3.65007 0
M  V30 4536 H 419.699 -3.67635 1.95321 0
M  V30 4537 H 420.232 -2.45288 3.13175 0
M  V30 4538 H 416.971 -2.33018 6.12685 0
M  V30 4539 H 416.491 -3.4969 4.87316 0
M  V30 4540 H 418.17 -3.46102 5.46646 0
M  V30 4541 N 418.302 -1.35869 -0.798587 0
M  V30 4542 C 419.212 -1.31578 -1.94228 0
M  V30 4543 C 420.228 -0.21939 -1.72611 0
M  V30 4544 O 421.404 -0.450167 -1.96305 0
M  V30 4545 C 418.469 -1.09528 -3.28944 0
M  V30 4546 C 417.53 -2.28556 -3.63402 0
M  V30 4547 C 416.763 -2.07549 -4.9169 0
M  V30 4548 O 416.986 -1.046 -5.60727 0
M  V30 4549 O 415.92 -2.95106 -5.24591 0
M  V30 4550 H 419.746 -2.27847 -2.00796 0
M  V30 4551 H 417.331 -1.16322 -0.937526 0
M  V30 4552 H 419.213 -0.991127 -4.09579 0
M  V30 4553 H 417.888 -0.16315 -3.23289 0
M  V30 4554 H 416.795 -2.44538 -2.83112 0
M  V30 4555 H 418.128 -3.20244 -3.73771 0
M  V30 4556 N 419.78 1.02168 -1.19998 0
M  V30 4557 C 420.71 2.12488 -0.96804 0
M  V30 4558 C 421.691 1.69799 0.101185 0
M  V30 4559 O 422.876 1.94121 -0.0552993 0
M  V30 4560 C 420.006 3.43479 -0.513776 0
M  V30 4561 C 418.96 3.99884 -1.52566 0
M  V30 4562 C 418.286 5.26582 -0.928214 0
M  V30 4563 C 419.586 4.33861 -2.90795 0
M  V30 4564 H 421.28 2.32149 -1.89069 0
M  V30 4565 H 418.826 1.11564 -0.910468 0
M  V30 4566 H 420.779 4.20036 -0.338774 0
M  V30 4567 H 419.503 3.23561 0.444493 0
M  V30 4568 H 418.162 3.25429 -1.68794 0
M  V30 4569 H 417.81 5.02986 0.0378289 0
M  V30 4570 H 417.51 5.65284 -1.60397 0
M  V30 4571 H 419.034 6.05799 -0.764167 0
M  V30 4572 H 420.448 5.01327 -2.78109 0
M  V30 4573 H 418.845 4.83664 -3.55231 0
M  V30 4574 H 419.915 3.42848 -3.42904 0
M  V30 4575 N 421.258 1.00505 1.21394 0
M  V30 4576 C 422.188 0.585684 2.26035 0
M  V30 4577 C 423.169 -0.393525 1.65485 0
M  V30 4578 O 424.354 -0.281497 1.92149 0
M  V30 4579 C 421.484 -0.0884283 3.47187 0
M  V30 4580 C 420.438 0.810567 4.20254 0
M  V30 4581 C 419.764 0.00286382 5.347 0
M  V30 4582 C 421.064 2.1132 4.77641 0
M  V30 4583 H 422.758 1.46039 2.61368 0
M  V30 4584 H 420.304 0.703648 1.25638 0
M  V30 4585 H 422.257 -0.393286 4.19561 0
M  V30 4586 H 420.981 -0.997766 3.10986 0
M  V30 4587 H 419.64 1.09925 3.49731 0
M  V30 4588 H 419.288 -0.907765 4.94741 0
M  V30 4589 H 418.988 0.601444 5.84514 0
M  V30 4590 H 420.512 -0.295808 6.09883 0
M  V30 4591 H 421.926 1.87148 5.41893 0
M  V30 4592 H 420.323 2.66164 5.37845 0
M  V30 4593 H 421.393 2.78393 3.9702 0
M  V30 4594 N 422.737 -1.36956 0.779787 0
M  V30 4595 C 424.014 -1.93697 0.272156 0
M  V30 4596 C 424.394 -1.71267 -1.23413 0
M  V30 4597 O 423.742 -1.06607 -2.02107 0
M  V30 4598 C 423.952 -3.42812 0.654291 0
M  V30 4599 C 425.3 -4.19921 0.628602 0
M  V30 4600 O 426.324 -3.51209 0.594172 0
M  V30 4601 O 425.183 -5.42465 0.662864 0
M  V30 4602 H 422.277 -0.824447 0.0649286 0
M  V30 4603 H 424.823 -1.46196 0.861682 0
M  V30 4604 H 423.595 -3.52754 1.69353 0
M  V30 4605 H 423.218 -3.97582 0.0381369 0
M  V30 4606 N 424.215 -0.530993 -1.48385 0
M  V30 4607 C 425.162 0.231223 -2.29639 0
M  V30 4608 C 426.132 0.932864 -1.37429 0
M  V30 4609 O 427.317 0.933692 -1.66394 0
M  V30 4610 C 424.457 1.27155 -3.2082 0
M  V30 4611 C 423.57 0.578655 -4.28107 0
M  V30 4612 C 422.705 1.602 -5.06467 0
M  V30 4613 C 421.744 0.892625 -6.05556 0
M  V30 4614 N 420.881 1.86157 -6.76971 0
M  V30 4615 H 425.721 -0.467848 -2.94305 0
M  V30 4616 H 423.258 -0.242556 -1.45086 0
M  V30 4617 H 425.216 1.88703 -3.72085 0
M  V30 4618 H 423.846 1.939 -2.58075 0
M  V30 4619 H 422.898 -0.150782 -3.80101 0
M  V30 4620 H 424.21 0.0217065 -4.98795 0
M  V30 4621 H 423.364 2.29173 -5.61751 0
M  V30 4622 H 422.103 2.19285 -4.35621 0
M  V30 4623 H 421.108 0.188829 -5.49476 0
M  V30 4624 H 422.333 0.307878 -6.78402 0
M  V30 4625 H 420.279 2.44147 -6.08875 0
M  V30 4626 H 420.196 1.35608 -7.43738 0
M  V30 4627 H 421.464 2.54325 -7.36844 0
M  V30 4628 N 425.693 1.55336 -0.266172 0
M  V30 4629 C 426.939 1.99692 0.353681 0
M  V30 4630 C 427.272 1.1543 1.56172 0
M  V30 4631 O 426.547 0.222218 1.93226 0
M  V30 4632 C 426.83 3.52316 0.74466 0
M  V30 4633 C 426.683 4.47337 -0.470101 0
M  V30 4634 C 428.002 4.10588 1.58447 0
M  V30 4635 H 425.121 0.725961 0.12708 0
M  V30 4636 H 427.763 1.86336 -0.371333 0
M  V30 4637 H 425.913 3.63829 1.36239 0
M  V30 4638 H 427.585 4.4778 -1.10864 0
M  V30 4639 H 425.828 4.19364 -1.10978 0
M  V30 4640 H 426.499 5.51788 -0.15291 0
M  V30 4641 H 428.975 4.02297 1.06286 0
M  V30 4642 H 427.851 5.17607 1.82686 0
M  V30 4643 H 428.112 3.60253 2.56262 0
M  V30 4644 N 427.171 -0.0066808 1.57599 0
M  V30 4645 C 428.119 -1.01851 2.09115 0
M  V30 4646 C 429.113 -1.36021 1.00969 0
M  V30 4647 O 430.319 -1.34663 1.19439 0
M  V30 4648 H 426.694 -0.346083 0.667631 0
M  V30 4649 H 428.665 -0.558394 2.93129 0
M  V30 4650 C 427.414 -2.30374 2.60429 0
M  V30 4651 H 426.737 -2.04947 3.43273 0
M  V30 4652 H 428.177 -2.99466 3.00161 0
M  V30 4653 C 426.636 -3.00893 1.51542 0
M  V30 4654 O 427.166 -3.91614 0.894484 0
M  V30 4655 N 425.372 -2.62603 1.2445 0
M  V30 4656 H 424.919 -1.88911 1.75129 0
M  V30 4657 H 424.877 -3.10101 0.518137 0
M  V30 4658 N 428.649 -1.55105 -0.279332 0
M  V30 4659 C 429.597 -1.88333 -1.36505 0
M  V30 4660 C 430.591 -0.759043 -1.51443 0
M  V30 4661 O 431.797 -0.943312 -1.53302 0
M  V30 4662 H 428.172 -0.59766 -0.456406 0
M  V30 4663 H 430.143 -2.79041 -1.05728 0
M  V30 4664 C 428.892 -2.16628 -2.7197 0
M  V30 4665 H 428.215 -3.02624 -2.61264 0
M  V30 4666 H 429.655 -2.43803 -3.46895 0
M  V30 4667 C 428.114 -0.971807 -3.22579 0
M  V30 4668 O 428.644 -0.203228 -4.01186 0
M  V30 4669 N 426.85 -0.771238 -2.80179 0
M  V30 4670 H 426.397 -1.39792 -2.1637 0
M  V30 4671 H 426.355 0.0263667 -3.14389 0
M  V30 4672 N 430.127 0.543554 -1.4793 0
M  V30 4673 C 431.538 1.12561 -1.48953 0
M  V30 4674 C 431.889 1.94578 -0.251754 0
M  V30 4675 O 431.014 2.0665 0.642255 0
M  V30 4676 C 431.609 2.04801 -2.69892 0
M  V30 4677 C 430.168 2.58251 -2.73831 0
M  V30 4678 C 429.315 1.34918 -2.42265 0
M  V30 4679 H 432.266 0.32947 -1.55242 0
M  V30 4680 H 432.287 2.88886 -2.47639 0
M  V30 4681 H 431.799 1.4508 -3.59963 0
M  V30 4682 H 429.9 3.21732 -1.87934 0
M  V30 4683 H 430.013 2.98312 -3.74895 0
M  V30 4684 H 428.377 1.66046 -1.93134 0
M  V30 4685 H 429.16 0.769693 -3.3456 0
M  V30 4686 N 431.605 1.3629 0.791371 0
M  V30 4687 C 432.882 1.20962 1.53712 0
M  V30 4688 C 433.262 -0.205021 2.10102 0
M  V30 4689 O 432.61 -1.21042 1.93807 0
M  V30 4690 C 432.82 2.29002 2.63361 0
M  V30 4691 C 434.168 2.65572 3.31295 0
M  V30 4692 O 435.192 2.2803 2.73643 0
M  V30 4693 O 434.051 3.3018 4.35481 0
M  V30 4694 H 431.145 0.47086 0.679867 0
M  V30 4695 H 433.691 1.48016 0.830021 0
M  V30 4696 H 432.463 3.2382 2.19674 0
M  V30 4697 H 432.086 2.03303 3.41692 0
M  V30 4698 N 433.083 -1.0153 1.20538 0
M  V30 4699 C 434.033 -2.08482 0.922991 0
M  V30 4700 C 435.017 -1.60469 -0.117702 0
M  V30 4701 O 436.209 -1.76772 0.0898465 0
M  V30 4702 C 433.338 -3.39952 0.478312 0
M  V30 4703 C 432.424 -3.94662 1.5525 0
M  V30 4704 N 432.815 -4.22866 2.77521 0
M  V30 4705 C 431.113 -4.22825 1.41897 0
M  V30 4706 C 431.814 -4.67002 3.4682 0
M  V30 4707 N 430.79 -4.69356 2.74237 0
M  V30 4708 H 434.592 -2.28199 1.85209 0
M  V30 4709 H 432.106 -1.19512 1.09957 0
M  V30 4710 H 434.103 -4.16105 0.257408 0
M  V30 4711 H 432.763 -3.21648 -0.444148 0
M  V30 4712 H 433.774 -4.11732 3.1416 0
M  V30 4713 H 430.451 -4.13714 0.561015 0
M  V30 4714 H 431.841 -4.97632 4.51455 0
M  V30 4715 N 434.561 -1.01147 -1.20859 0
M  V30 4716 C 435.786 -0.716698 -1.94623 0
M  V30 4717 C 436.211 0.715415 -1.73964 0
M  V30 4718 O 435.569 1.49157 -1.03062 0
M  V30 4719 C 435.617 -1.0513 -3.44935 0
M  V30 4720 O 434.721 -0.160131 -4.12089 0
M  V30 4721 H 434.062 -0.266404 -0.608214 0
M  V30 4722 H 436.592 -1.35346 -1.53436 0
M  V30 4723 H 436.602 -1.00086 -3.95533 0
M  V30 4724 H 435.277 -2.09475 -3.59295 0
M  V30 4725 H 433.854 -0.267657 -3.71938 0
M  V30 4726 N 436.039 1.36541 -0.78704 0
M  V30 4727 C 437.267 2.03561 -0.370199 0
M  V30 4728 C 437.682 1.59347 1.01263 0
M  V30 4729 O 437.039 0.781781 1.64907 0
M  V30 4730 C 437.09 3.59033 -0.421614 0
M  V30 4731 O 436.811 4.01634 -1.7499 0
M  V30 4732 C 438.312 4.433 0.00489763 0
M  V30 4733 H 435.532 0.653346 -0.152904 0
M  V30 4734 H 438.076 1.74566 -1.06522 0
M  V30 4735 H 436.231 3.86746 0.224971 0
M  V30 4736 H 436.645 4.96217 -1.69909 0
M  V30 4737 H 438.119 5.51939 -0.0822184 0
M  V30 4738 H 438.596 4.26285 1.05723 0
M  V30 4739 H 439.202 4.20843 -0.614085 0
M  V30 4740 N 437.518 0.538854 1.48102 0
M  V30 4741 C 438.748 0.0122958 2.06596 0
M  V30 4742 C 439.156 -1.27861 1.39457 0
M  V30 4743 O 438.499 -1.77348 0.478907 0
M  V30 4744 C 438.561 -0.273131 3.58461 0
M  V30 4745 C 438.225 0.92561 4.47528 0
M  V30 4746 C 439.222 1.82637 4.86765 0
M  V30 4747 C 436.907 1.13511 4.89306 0
M  V30 4748 C 438.901 2.92047 5.66558 0
M  V30 4749 C 436.588 2.23233 5.68868 0
M  V30 4750 C 437.586 3.12333 6.07402 0
M  V30 4751 O 437.274 4.20155 6.85365 0
M  V30 4752 H 437.006 0.0344283 0.675123 0
M  V30 4753 H 439.56 0.746494 1.91355 0
M  V30 4754 H 437.79 -1.06141 3.71848 0
M  V30 4755 H 439.479 -0.742842 3.99045 0
M  V30 4756 H 440.245 1.67649 4.55103 0
M  V30 4757 H 436.124 0.450835 4.5879 0
M  V30 4758 H 439.668 3.6162 5.96554 0
M  V30 4759 H 435.565 2.38201 5.99942 0
M  V30 4760 H 436.333 4.17975 7.03732 0
M  V30 4761 N 438.996 -1.55193 0.274407 0
M  V30 4762 C 439.946 -2.19184 -0.627882 0
M  V30 4763 C 440.93 -1.15625 -1.11892 0
M  V30 4764 O 442.122 -1.41441 -1.06411 0
M  V30 4765 C 439.251 -2.91591 -1.81189 0
M  V30 4766 C 438.337 -4.02438 -1.33807 0
M  V30 4767 N 438.728 -5.0246 -0.580349 0
M  V30 4768 C 437.026 -4.15496 -1.62109 0
M  V30 4769 C 437.727 -5.80756 -0.331344 0
M  V30 4770 N 436.703 -5.36038 -0.903556 0
M  V30 4771 H 440.505 -2.93871 -0.0411216 0
M  V30 4772 H 438.019 -1.62213 0.0779348 0
M  V30 4773 H 440.016 -3.35883 -2.46957 0
M  V30 4774 H 438.676 -2.18414 -2.40261 0
M  V30 4775 H 439.687 -5.17399 -0.227762 0
M  V30 4776 H 436.364 -3.53509 -2.22121 0
M  V30 4777 H 437.754 -6.71335 0.275454 0
M  V30 4778 N 440.474 -0.00167713 -1.576 0
M  V30 4779 C 441.751 0.719951 -1.81868 0
M  V30 4780 C 442.131 1.91895 -0.879747 0
M  V30 4781 O 441.479 2.28389 0.0711423 0
M  V30 4782 C 441.689 1.12409 -3.30402 0
M  V30 4783 C 443.037 1.52724 -3.96182 0
M  V30 4784 O 444.061 1.21784 -3.34734 0
M  V30 4785 O 442.92 2.10265 -5.04431 0
M  V30 4786 H 440.014 0.350707 -0.748955 0
M  V30 4787 H 442.56 -0.0272597 -1.69678 0
M  V30 4788 H 441.332 0.269532 -3.90371 0
M  V30 4789 H 440.955 1.93035 -3.47596 0
M  V30 4790 N 441.952 1.55251 0.271103 0
M  V30 4791 C 443.199 1.75946 1.00245 0
M  V30 4792 C 443.527 0.561611 1.86215 0
M  V30 4793 O 442.782 -0.455832 1.90317 0
M  V30 4794 C 443.081 3.01879 1.91321 0
M  V30 4795 C 442.747 4.34337 1.21086 0
M  V30 4796 C 441.409 4.70338 1.01666 0
M  V30 4797 C 443.761 5.16325 0.71119 0
M  V30 4798 C 441.089 5.8588 0.310099 0
M  V30 4799 C 443.441 6.32597 0.0182157 0
M  V30 4800 C 442.105 6.67236 -0.18768 0
M  V30 4801 H 441.375 0.643833 0.366824 0
M  V30 4802 H 444.022 1.89521 0.27458 0
M  V30 4803 H 442.327 2.83212 2.70736 0
M  V30 4804 H 444.024 3.15088 2.48033 0
M  V30 4805 H 440.614 4.06043 1.37213 0
M  V30 4806 H 444.798 4.88987 0.848844 0
M  V30 4807 H 440.054 6.1124 0.139873 0
M  V30 4808 H 444.228 6.9538 -0.376711 0
M  V30 4809 H 441.855 7.56618 -0.73715 0
M  V30 4810 N 443.43 -0.535701 1.48216 0
M  V30 4811 C 444.707 -1.29683 1.46429 0
M  V30 4812 C 445.087 -2.10391 0.172852 0
M  V30 4813 O 444.435 -2.12282 -0.845488 0
M  V30 4814 C 444.645 -2.18313 2.72287 0
M  V30 4815 C 445.993 -2.78639 3.20383 0
M  V30 4816 O 447.017 -2.28604 2.73164 0
M  V30 4817 O 445.876 -3.69636 4.02531 0
M  V30 4818 H 442.97 -0.585026 0.584529 0
M  V30 4819 H 445.516 -0.552827 1.60443 0
M  V30 4820 H 444.288 -1.58421 3.57797 0
M  V30 4821 H 443.911 -2.99971 2.60966 0
M  V30 4822 N 444.908 -1.36708 -0.784132 0
M  V30 4823 C 446.185 -1.21776 -1.53069 0
M  V30 4824 C 446.565 0.193876 -2.10208 0
M  V30 4825 O 445.913 1.20012 -1.94446 0
M  V30 4826 C 446.123 -2.30395 -2.62143 0
M  V30 4827 C 447.471 -2.67325 -3.29882 0
M  V30 4828 O 448.495 -2.29478 -2.7243 0
M  V30 4829 O 447.354 -3.32485 -4.33724 0
M  V30 4830 H 444.448 -0.474459 -0.677361 0
M  V30 4831 H 446.994 -1.48454 -0.82216 0
M  V30 4832 H 445.766 -3.2498 -2.17953 0
M  V30 4833 H 445.389 -2.05112 -3.40609 0
M  V30 4834 N 446.386 1.0089 -1.21074 0
M  V30 4835 C 447.663 1.71834 -0.934469 0
M  V30 4836 C 448.043 2.0368 0.554753 0
M  V30 4837 O 447.391 1.70742 1.51854 0
M  V30 4838 C 447.601 2.98061 -1.8155 0
M  V30 4839 C 448.949 3.7117 -2.06199 0
M  V30 4840 O 449.973 3.08034 -1.78867 0
M  V30 4841 O 448.832 4.84721 -2.52404 0
M  V30 4842 H 445.926 0.749253 -0.35007 0
M  V30 4843 H 448.472 1.06668 -1.31985 0
M  V30 4844 H 447.244 2.70908 -2.82355 0
M  V30 4845 H 446.867 3.70968 -1.43068 0
M  V30 4846 N 447.864 1.01787 1.20321 0
M  V30 4847 C 449.141 0.622978 1.85414 0
M  V30 4848 C 449.521 -0.898887 1.91006 0
M  V30 4849 O 448.869 -1.79112 1.41884 0
M  V30 4850 C 449.079 1.27226 3.24984 0
M  V30 4851 C 450.427 1.3885 4.01255 0
M  V30 4852 O 451.451 1.22857 3.34342 0
M  V30 4853 O 450.31 1.64705 5.2109 0
M  V30 4854 H 447.404 0.215116 0.798533 0
M  V30 4855 H 449.95 1.11533 1.27901 0
M  V30 4856 H 448.722 2.31209 3.15687 0
M  V30 4857 H 448.345 0.767069 3.90131 0
M  V30 4858 N 449.342 -1.36122 0.79427 0
M  V30 4859 C 450.753 -1.81646 0.431446 0
M  V30 4860 C 451.104 -1.66043 -1.04518 0
M  V30 4861 O 450.229 -1.1841 -1.8113 0
M  V30 4862 C 450.824 -3.29785 0.776341 0
M  V30 4863 C 449.383 -3.73501 0.466282 0
M  V30 4864 C 448.53 -2.58313 1.00844 0
M  V30 4865 H 451.481 -1.24274 0.986995 0
M  V30 4866 H 451.502 -3.80437 0.0692413 0
M  V30 4867 H 451.014 -3.4111 1.8511 0
M  V30 4868 H 449.115 -3.67733 -0.600245 0
M  V30 4869 H 449.228 -4.68754 0.990288 0
M  V30 4870 H 447.592 -2.5102 0.431406 0
M  V30 4871 H 448.375 -2.72421 2.08906 0
M  V30 4872 N 450.82 -0.546701 -1.47814 0
M  V30 4873 C 451.73 0.21026 -2.33656 0
M  V30 4874 C 452.746 0.922413 -1.47538 0
M  V30 4875 O 453.922 0.893652 -1.80488 0
M  V30 4876 C 450.987 1.23348 -3.24016 0
M  V30 4877 C 450.048 0.529883 -4.26017 0
M  V30 4878 C 449.281 1.50435 -5.12059 0
M  V30 4879 O 449.504 2.73837 -5.00369 0
M  V30 4880 O 448.438 1.03459 -5.92942 0
M  V30 4881 H 452.264 -0.493605 -2.99662 0
M  V30 4882 H 449.849 -0.307427 -1.46203 0
M  V30 4883 H 451.731 1.82438 -3.79861 0
M  V30 4884 H 450.406 1.91945 -2.60651 0
M  V30 4885 H 449.313 -0.101948 -3.73961 0
M  V30 4886 H 450.646 -0.11445 -4.92067 0
M  V30 4887 N 452.299 1.55045 -0.282633 0
M  V30 4888 C 453.71 1.85473 0.213655 0
M  V30 4889 C 454.061 1.20465 1.54863 0
M  V30 4890 O 453.186 0.495676 2.10647 0
M  V30 4891 C 453.781 3.36496 0.394445 0
M  V30 4892 C 452.34 3.67022 0.834961 0
M  V30 4893 C 451.487 2.77218 -0.0674081 0
M  V30 4894 H 454.438 1.50478 -0.504202 0
M  V30 4895 H 454.459 3.60007 1.23186 0
M  V30 4896 H 453.971 3.83782 -0.577326 0
M  V30 4897 H 452.072 3.25241 1.81794 0
M  V30 4898 H 452.185 4.74433 0.667075 0
M  V30 4899 H 450.549 2.5069 0.450196 0
M  V30 4900 H 451.332 3.2732 -1.0352 0
M  V30 4901 N 453.777 0.010035 1.57597 0
M  V30 4902 C 454.707 -0.976857 2.12084 0
M  V30 4903 C 455.688 -1.35191 1.03235 0
M  V30 4904 O 456.873 -1.43389 1.3097 0
M  V30 4905 C 454.003 -2.26548 2.63236 0
M  V30 4906 C 452.957 -2.03175 3.76701 0
M  V30 4907 C 452.283 -3.38138 4.14206 0
M  V30 4908 C 453.583 -1.38625 5.03568 0
M  V30 4909 H 455.277 -0.523145 2.94794 0
M  V30 4910 H 452.823 -0.250195 1.4181 0
M  V30 4911 H 454.776 -2.95952 2.99984 0
M  V30 4912 H 453.5 -2.74051 1.77661 0
M  V30 4913 H 452.159 -1.36195 3.40362 0
M  V30 4914 H 451.807 -3.83363 3.25641 0
M  V30 4915 H 451.507 -3.23312 4.90656 0
M  V30 4916 H 453.031 -4.08841 4.53521 0
M  V30 4917 H 454.445 -1.98 5.38023 0
M  V30 4918 H 452.842 -1.34256 5.84889 0
M  V30 4919 H 453.912 -0.356722 4.83586 0
M  V30 4920 N 455.255 -1.55392 -0.262866 0
M  V30 4921 C 456.501 -1.76737 -0.99458 0
M  V30 4922 C 456.834 -0.572453 -1.85571 0
M  V30 4923 O 456.109 0.429732 -1.89693 0
M  V30 4924 C 456.392 -3.07824 -1.8686 0
M  V30 4925 C 456.245 -4.3769 -1.03672 0
M  V30 4926 C 457.564 -3.35021 -2.85393 0
M  V30 4927 H 454.683 -0.643005 -0.360157 0
M  V30 4928 H 457.325 -1.88126 -0.266216 0
M  V30 4929 H 455.475 -2.98245 -2.48962 0
M  V30 4930 H 457.147 -4.59238 -0.43563 0
M  V30 4931 H 455.39 -4.32461 -0.340513 0
M  V30 4932 H 456.061 -5.25759 -1.6817 0
M  V30 4933 H 458.537 -3.44458 -2.33426 0
M  V30 4934 H 457.413 -4.27989 -3.43681 0
M  V30 4935 H 457.674 -2.55153 -3.61039 0
M  V30 4936 N 456.733 0.527833 -1.48498 0
M  V30 4937 C 457.696 1.61439 -1.62696 0
M  V30 4938 C 458.696 1.52824 -0.500136 0
M  V30 4939 O 459.886 1.56456 -0.765976 0
M  V30 4940 C 457.018 3.01063 -1.59918 0
M  V30 4941 H 458.211 1.50189 -2.59583 0
M  V30 4942 H 455.764 0.750055 -1.37127 0
M  V30 4943 H 456.499 3.17818 -0.645163 0
M  V30 4944 H 456.284 3.08725 -2.41726 0
M  V30 4945 H 457.774 3.80057 -1.73051 0
M  V30 4946 N 458.211 1.37122 0.776871 0
M  V30 4947 C 459.457 1.32243 1.53752 0
M  V30 4948 C 459.79 -0.0944745 1.9397 0
M  V30 4949 O 459.065 -1.05068 1.6368 0
M  V30 4950 C 459.348 2.25681 2.80607 0
M  V30 4951 C 459.201 3.76127 2.46676 0
M  V30 4952 C 460.52 2.17657 3.82509 0
M  V30 4953 H 457.639 0.481704 0.557791 0
M  V30 4954 H 460.281 1.6778 0.891612 0
M  V30 4955 H 458.431 1.95505 3.35723 0
M  V30 4956 H 460.103 4.16877 1.97513 0
M  V30 4957 H 458.346 3.94946 1.79443 0
M  V30 4958 H 459.017 4.36933 3.37333 0
M  V30 4959 H 461.493 2.44245 3.36873 0
M  V30 4960 H 460.369 2.85185 4.69 0
M  V30 4961 H 460.63 1.16785 4.26396 0
M  V30 4962 N 459.689 -1.00246 1.21608 0
M  V30 4963 C 461.1 -1.55511 1.03312 0
M  V30 4964 C 461.451 -1.91946 -0.406332 0
M  V30 4965 O 460.576 -1.73753 -1.28992 0
M  V30 4966 C 461.171 -2.82576 1.86913 0
M  V30 4967 C 459.73 -3.34318 1.72941 0
M  V30 4968 C 458.877 -2.07487 1.83968 0
M  V30 4969 H 461.828 -0.824638 1.35593 0
M  V30 4970 H 461.849 -3.54559 1.38087 0
M  V30 4971 H 461.361 -2.56026 2.91672 0
M  V30 4972 H 459.462 -3.65797 0.70877 0
M  V30 4973 H 459.575 -4.05566 2.55055 0
M  V30 4974 H 457.939 -2.20603 1.27304 0
M  V30 4975 H 458.722 -1.83346 2.9024 0
M  V30 4976 N 461.167 -1.02423 -1.1978 0
M  V30 4977 C 462.117 -0.571689 -2.20716 0
M  V30 4978 C 463.101 0.377077 -1.56419 0
M  V30 4979 O 464.293 0.198801 -1.7588 0
M  V30 4980 C 461.422 0.0808555 -3.43205 0
M  V30 4981 C 460.508 -0.890073 -4.14655 0
M  V30 4982 N 460.899 -2.05065 -4.62366 0
M  V30 4983 C 459.197 -0.71252 -4.40272 0
M  V30 4984 C 459.898 -2.66264 -5.17183 0
M  V30 4985 N 458.874 -1.94264 -5.07703 0
M  V30 4986 H 462.676 -1.45636 -2.55279 0
M  V30 4987 H 460.19 -0.890596 -1.35802 0
M  V30 4988 H 462.187 0.422654 -4.14752 0
M  V30 4989 H 460.847 0.961274 -3.10144 0
M  V30 4990 H 461.858 -2.43026 -4.57339 0
M  V30 4991 H 458.535 0.119199 -4.1733 0
M  V30 4992 H 459.925 -3.64526 -5.64421 0
M  V30 4993 N 462.645 1.35699 -0.801477 0
M  V30 4994 C 464.061 1.52065 -0.484596 0
M  V30 4995 C 464.261 1.75215 0.995084 0
M  V30 4996 O 463.317 1.79061 1.78026 0
M  V30 4997 C 464.63 2.69908 -1.32552 0
M  V30 4998 C 466.178 2.83784 -1.32044 0
M  V30 4999 C 466.653 4.04646 -2.14536 0
M  V30 5000 N 468.144 4.11814 -2.12046 0
M  V30 5001 C 468.879 5.04437 -2.72636 0
M  V30 5002 N 468.375 6.02426 -3.42133 0
M  V30 5003 N 470.168 4.97144 -2.62305 0
M  V30 5004 H 462.319 1.18928 -1.75983 0
M  V30 5005 H 464.582 0.581455 -0.748741 0
M  V30 5006 H 464.288 2.59363 -2.37537 0
M  V30 5007 H 464.162 3.64376 -0.975181 0
M  V30 5008 H 466.549 2.93783 -0.27846 0
M  V30 5009 H 466.63 1.90188 -1.71062 0
M  V30 5010 H 466.274 3.95407 -3.18772 0
M  V30 5011 H 466.204 4.97413 -1.72882 0
M  V30 5012 H 468.695 3.41664 -1.61476 0
M  V30 5013 H 469.008 6.69688 -3.85666 0
M  V30 5014 H 467.353 6.02615 -3.46237 0
M  V30 5015 H 470.544 4.19546 -2.07603 0
M  V30 5016 H 470.717 5.69138 -3.09815 0
M  V30 5017 N 464.123 0.554532 1.47522 0
M  V30 5018 C 465.372 0.0273458 2.01681 0
M  V30 5019 C 465.685 -1.32962 1.43459 0
M  V30 5020 O 466.891 -1.94657 1.89265 0
M  V30 5021 C 465.347 -0.00159057 3.599 0
M  V30 5022 C 464.955 1.35197 4.27113 0
M  V30 5023 C 466.699 -0.476311 4.21819 0
M  V30 5024 C 464.606 1.28229 5.77331 0
M  V30 5025 H 463.536 0.00645269 0.753972 0
M  V30 5026 H 466.187 0.701985 1.69542 0
M  V30 5027 H 464.569 -0.741821 3.8899 0
M  V30 5028 H 465.743 2.1097 4.09668 0
M  V30 5029 H 464.058 1.76441 3.77171 0
M  V30 5030 H 466.655 -0.5468 5.31897 0
M  V30 5031 H 466.998 -1.4877 3.8881 0
M  V30 5032 H 467.531 0.20898 3.97251 0
M  V30 5033 H 464.27 2.26959 6.14955 0
M  V30 5034 H 463.79 0.566314 5.97121 0
M  V30 5035 H 465.469 0.983226 6.39485 0
M  V30 5036 N 465.601 -1.54893 0.290851 0
M  V30 5037 C 466.551 -2.19838 -0.604599 0
M  V30 5038 C 467.535 -1.16805 -1.10659 0
M  V30 5039 O 468.727 -1.42562 -1.04905 0
M  V30 5040 C 465.856 -2.93497 -1.78086 0
M  V30 5041 C 464.942 -4.03835 -1.29531 0
M  V30 5042 N 465.333 -5.03047 -0.527024 0
M  V30 5043 C 463.631 -4.17192 -1.57693 0
M  V30 5044 C 464.332 -5.81074 -0.269728 0
M  V30 5045 N 463.308 -5.36966 -0.846651 0
M  V30 5046 H 467.11 -2.93898 -0.00995032 0
M  V30 5047 H 464.624 -1.62121 0.0951353 0
M  V30 5048 H 466.621 -3.38484 -2.43381 0
M  V30 5049 H 465.281 -2.2095 -2.37931 0
M  V30 5050 H 466.292 -5.17611 -0.172872 0
M  V30 5051 H 462.969 -3.55845 -2.18359 0
M  V30 5052 H 464.359 -6.71005 0.346643 0
M  V30 5053 N 467.08 -0.0183926 -1.57589 0
M  V30 5054 C 468.305 0.676634 -1.96052 0
M  V30 5055 C 468.73 1.6548 -0.894307 0
M  V30 5056 O 468.088 1.80712 0.145849 0
M  V30 5057 C 468.136 1.36872 -3.33614 0
M  V30 5058 O 467.24 2.48372 -3.29219 0
M  V30 5059 H 466.581 0.1786 -0.63953 0
M  V30 5060 H 469.111 -0.077056 -2.04455 0
M  V30 5061 H 469.121 1.72797 -3.69601 0
M  V30 5062 H 467.796 0.651636 -4.10763 0
M  V30 5063 H 466.373 2.14639 -3.04934 0
M  V30 5064 N 468.558 1.5553 0.254621 0
M  V30 5065 C 469.786 1.81046 1.00149 0
M  V30 5066 C 470.201 0.593047 1.79244 0
M  V30 5067 O 469.558 -0.438196 1.77161 0
M  V30 5068 C 469.609 3.04684 1.94551 0
M  V30 5069 O 469.33 4.21725 1.18658 0
M  V30 5070 C 470.831 3.42943 2.80901 0
M  V30 5071 H 468.051 0.602653 0.295044 0
M  V30 5072 H 470.595 2.02576 0.279842 0
M  V30 5073 H 468.75 2.85226 2.62154 0
M  V30 5074 H 469.164 4.91746 1.82445 0
M  V30 5075 H 470.638 4.32576 3.42902 0
M  V30 5076 H 471.115 2.63176 3.51617 0
M  V30 5077 H 471.721 3.64724 2.18762 0
M  V30 5078 N 470.036 -0.519951 1.48776 0
M  V30 5079 C 471.261 -1.30447 1.6124 0
M  V30 5080 C 471.686 -1.86055 0.276591 0
M  V30 5081 O 471.044 -1.64915 -0.753183 0
M  V30 5082 C 471.092 -2.42406 2.66967 0
M  V30 5083 O 470.196 -3.45728 2.24824 0
M  V30 5084 H 469.537 -0.385924 0.540332 0
M  V30 5085 H 472.067 -0.624572 1.94834 0
M  V30 5086 H 472.077 -2.88447 2.88552 0
M  V30 5087 H 470.752 -2.01294 3.63941 0
M  V30 5088 H 469.329 -3.05737 2.13494 0
M  V30 5089 N 471.514 -1.37532 -0.769588 0
M  V30 5090 C 472.93 -1.18379 -1.07045 0
M  V30 5091 C 473.13 -0.0214312 -2.01489 0
M  V30 5092 O 472.186 0.637809 -2.44312 0
M  V30 5093 C 473.499 -2.50338 -1.66588 0
M  V30 5094 C 475.047 -2.56879 -1.78835 0
M  V30 5095 C 475.522 -3.88974 -2.41792 0
M  V30 5096 N 477.013 -3.90428 -2.4924 0
M  V30 5097 C 477.748 -4.89388 -2.98809 0
M  V30 5098 N 477.244 -5.98745 -3.48535 0
M  V30 5099 N 479.037 -4.76791 -2.97703 0
M  V30 5100 H 471.188 -2.11921 -0.142541 0
M  V30 5101 H 473.451 -0.939608 -0.125863 0
M  V30 5102 H 473.157 -3.35767 -1.0466 0
M  V30 5103 H 473.031 -2.67583 -2.65856 0
M  V30 5104 H 475.418 -1.71856 -2.39895 0
M  V30 5105 H 475.499 -2.43516 -0.783166 0
M  V30 5106 H 475.143 -4.74412 -1.81371 0
M  V30 5107 H 475.073 -3.99641 -3.4292 0
M  V30 5108 H 477.564 -3.11433 -2.14052 0
M  V30 5109 H 477.877 -6.70205 -3.84767 0
M  V30 5110 H 476.222 -6.02387 -3.46634 0
M  V30 5111 H 479.413 -3.90478 -2.58157 0
M  V30 5112 H 479.586 -5.54069 -3.36024 0
M  V30 5113 N 472.992 0.995999 -1.22138 0
M  V30 5114 C 473.94 2.10673 -0.985876 0
M  V30 5115 C 474.934 1.69255 0.0699553 0
M  V30 5116 O 476.14 1.79812 -0.0822176 0
M  V30 5117 H 472.515 0.688865 -0.30161 0
M  V30 5118 H 474.486 2.27711 -1.92848 0
M  V30 5119 C 473.235 3.42881 -0.576909 0
M  V30 5120 H 472.558 3.75191 -1.38101 0
M  V30 5121 H 473.998 4.21589 -0.451518 0
M  V30 5122 C 472.457 3.29265 0.713196 0
M  V30 5123 O 472.987 3.60777 1.76643 0
M  V30 5124 N 471.193 2.82456 0.683162 0
M  V30 5125 H 470.74 2.5701 -0.174242 0
M  V30 5126 H 470.698 2.73727 1.54663 0
M  V30 5127 N 474.47 1.03057 1.19235 0
M  V30 5128 C 475.716 0.729098 1.89241 0
M  V30 5129 C 476.049 -0.740573 1.79525 0
M  V30 5130 O 475.324 -1.53946 1.18874 0
M  V30 5131 C 475.607 1.18304 3.40112 0
M  V30 5132 C 475.46 2.71406 3.5869 0
M  V30 5133 C 476.779 0.765161 4.33397 0
M  V30 5134 H 473.898 0.266338 0.687192 0
M  V30 5135 H 476.54 1.28079 1.40341 0
M  V30 5136 H 474.69 0.713672 3.81889 0
M  V30 5137 H 476.362 3.26303 3.26074 0
M  V30 5138 H 474.605 3.11717 3.01687 0
M  V30 5139 H 475.276 2.98225 4.64506 0
M  V30 5140 H 477.752 1.16889 3.99345 0
M  V30 5141 H 476.628 1.11065 5.37546 0
M  V30 5142 H 476.889 -0.332372 4.40849 0
M  V30 5143 N 475.948 -1.35272 0.808662 0
M  V30 5144 C 477.364 -1.51806 0.492653 0
M  V30 5145 C 477.564 -1.7574 -0.985778 0
M  V30 5146 O 476.62 -1.80003 -1.77074 0
M  V30 5147 C 477.933 -2.69202 1.33981 0
M  V30 5148 C 479.481 -2.8308 1.33547 0
M  V30 5149 C 479.956 -4.03502 2.16679 0
M  V30 5150 N 481.447 -4.10684 2.14227 0
M  V30 5151 C 482.182 -5.02984 2.75308 0
M  V30 5152 N 481.678 -6.00603 3.45323 0
M  V30 5153 N 483.471 -4.95746 2.64938 0
M  V30 5154 H 475.622 -1.17993 1.76611 0
M  V30 5155 H 477.885 -0.577476 0.751814 0
M  V30 5156 H 477.591 -2.581 2.38909 0
M  V30 5157 H 477.465 -3.63854 0.994491 0
M  V30 5158 H 479.852 -2.93631 0.294036 0
M  V30 5159 H 479.933 -1.89278 1.72068 0
M  V30 5160 H 479.577 -3.93711 3.20864 0
M  V30 5161 H 479.507 -4.96489 1.75517 0
M  V30 5162 H 481.998 -3.40802 1.63285 0
M  V30 5163 H 482.311 -6.67633 3.89212 0
M  V30 5164 H 480.656 -6.0077 3.49428 0
M  V30 5165 H 483.847 -4.18439 2.09825 0
M  V30 5166 H 484.02 -5.67487 3.12829 0
M  V30 5167 N 477.426 -0.562348 -1.47226 0
M  V30 5168 C 478.336 0.185466 -2.33866 0
M  V30 5169 C 479.352 0.906713 -1.48508 0
M  V30 5170 O 480.528 0.874458 -1.81425 0
M  V30 5171 C 477.593 1.19904 -3.25306 0
M  V30 5172 C 476.654 0.484669 -4.26555 0
M  V30 5173 C 475.887 1.44996 -5.13626 0
M  V30 5174 O 476.11 2.68515 -5.03245 0
M  V30 5175 O 475.044 0.971642 -5.94006 0
M  V30 5176 H 478.87 -0.525361 -2.99121 0
M  V30 5177 H 476.455 -0.322916 -1.45868 0
M  V30 5178 H 478.337 1.78399 -3.81774 0
M  V30 5179 H 477.012 1.8917 -2.62672 0
M  V30 5180 H 475.919 -0.141605 -3.73832 0
M  V30 5181 H 477.252 -0.166634 -4.91918 0
M  V30 5182 N 478.904 1.54736 -0.299062 0
M  V30 5183 C 479.814 2.27127 0.587413 0
M  V30 5184 C 480.83 1.30575 1.15005 0
M  V30 5185 O 482.006 1.63554 1.17525 0
M  V30 5186 C 479.071 2.99645 1.74395 0
M  V30 5187 C 478.132 4.11731 1.21559 0
M  V30 5188 C 477.365 4.80781 2.317 0
M  V30 5189 O 477.588 4.4918 3.51558 0
M  V30 5190 O 476.522 5.68226 1.98501 0
M  V30 5191 H 480.348 3.037 0.000250109 0
M  V30 5192 H 477.933 1.49256 -0.0655919 0
M  V30 5193 H 479.815 3.45138 2.4178 0
M  V30 5194 H 478.49 2.25969 2.31775 0
M  V30 5195 H 477.397 3.70641 0.507514 0
M  V30 5196 H 478.73 4.87379 0.687233 0
M  V30 5197 N 480.382 0.0267497 1.57577 0
M  V30 5198 C 481.329 -0.955894 2.10075 0
M  V30 5199 C 482.299 -1.32453 1.00226 0
M  V30 5200 O 483.484 -1.41826 1.27632 0
M  V30 5201 C 480.624 -2.2338 2.6305 0
M  V30 5202 C 479.737 -1.92183 3.86898 0
M  V30 5203 C 478.872 -3.14251 4.28275 0
M  V30 5204 C 477.911 -2.78862 5.44888 0
M  V30 5205 N 477.048 -3.93548 5.81433 0
M  V30 5206 H 481.888 -0.501303 2.93753 0
M  V30 5207 H 479.425 -0.235847 1.45197 0
M  V30 5208 H 481.383 -2.98124 2.91853 0
M  V30 5209 H 480.013 -2.6646 1.82205 0
M  V30 5210 H 479.065 -1.07692 3.64838 0
M  V30 5211 H 480.377 -1.62117 4.7172 0
M  V30 5212 H 479.531 -3.97317 4.58502 0
M  V30 5213 H 478.27 -3.47476 3.42215 0
M  V30 5214 H 477.275 -1.94208 5.14357 0
M  V30 5215 H 478.5 -2.46855 6.32645 0
M  V30 5216 H 476.446 -4.2662 4.98328 0
M  V30 5217 H 476.363 -3.67098 6.6089 0
M  V30 5218 H 477.631 -4.77325 6.16264 0
M  V30 5219 N 481.861 -1.55662 -0.24637 0
M  V30 5220 C 483.089 -1.81575 -0.991876 0
M  V30 5221 C 483.504 -0.602545 -1.78927 0
M  V30 5222 O 482.861 0.428795 -1.77391 0
M  V30 5223 C 482.912 -3.05711 -1.92933 0
M  V30 5224 O 482.633 -4.22348 -1.1642 0
M  V30 5225 C 484.134 -3.44428 -2.79078 0
M  V30 5226 H 481.354 -0.604209 -0.291844 0
M  V30 5227 H 483.898 -2.02722 -0.269095 0
M  V30 5228 H 482.053 -2.86612 -2.60638 0
M  V30 5229 H 482.467 -4.92706 -1.79835 0
M  V30 5230 H 483.941 -4.34388 -3.40603 0
M  V30 5231 H 484.418 -2.65037 -3.50217 0
M  V30 5232 H 485.024 -3.65879 -2.16824 0
M  V30 5233 N 483.339 0.512053 -1.4905 0
M  V30 5234 C 484.755 0.84224 -1.35567 0
M  V30 5235 C 484.955 1.97878 -0.380319 0
M  V30 5236 O 484.011 2.51769 0.19201 0
M  V30 5237 C 485.324 1.19286 -2.76028 0
M  V30 5238 C 486.872 1.30171 -2.84648 0
M  V30 5239 C 487.347 1.68568 -4.25851 0
M  V30 5240 N 488.838 1.75638 -4.28609 0
M  V30 5241 C 489.573 2.06769 -5.34821 0
M  V30 5242 N 489.069 2.36201 -6.51292 0
M  V30 5243 N 490.862 2.07927 -5.22229 0
M  V30 5244 H 483.013 -0.237574 -2.11067 0
M  V30 5245 H 485.276 -0.0436747 -0.946993 0
M  V30 5246 H 484.982 0.431199 -3.49047 0
M  V30 5247 H 484.856 2.13889 -3.10695 0
M  V30 5248 H 487.243 2.05411 -2.11873 0
M  V30 5249 H 487.324 0.336457 -2.53578 0
M  V30 5250 H 486.968 0.938824 -4.99148 0
M  V30 5251 H 486.898 2.66174 -4.54377 0
M  V30 5252 H 489.389 1.55097 -3.44606 0
M  V30 5253 H 489.702 2.59112 -7.28066 0
M  V30 5254 H 488.047 2.33681 -6.54536 0
M  V30 5255 H 491.238 1.84403 -4.30248 0
M  V30 5256 H 491.411 2.31856 -6.05101 0
M  V30 5257 N 484.817 1.37938 0.762283 0
M  V30 5258 C 486.042 1.37059 1.55659 0
M  V30 5259 C 486.467 -0.0396123 1.88058 0
M  V30 5260 O 485.825 -1.01929 1.49934 0
M  V30 5261 C 485.873 2.22494 2.83776 0
M  V30 5262 O 484.977 1.63607 3.78559 0
M  V30 5263 H 484.318 0.467892 0.47114 0
M  V30 5264 H 486.848 1.81587 0.942725 0
M  V30 5265 H 486.858 2.36045 3.32786 0
M  V30 5266 H 485.533 3.24993 2.59524 0
M  V30 5267 H 484.11 1.5915 3.37233 0
M  V30 5268 N 486.295 -0.989507 1.22664 0
M  V30 5269 C 487.205 -2.11449 1.01619 0
M  V30 5270 C 488.221 -1.73962 -0.036545 0
M  V30 5271 O 489.397 -2.00788 0.156924 0
M  V30 5272 C 486.462 -3.41465 0.600204 0
M  V30 5273 C 485.523 -3.93033 1.72695 0
M  V30 5274 C 484.756 -5.16844 1.33071 0
M  V30 5275 O 484.979 -5.7001 0.210975 0
M  V30 5276 O 483.913 -5.6225 2.14845 0
M  V30 5277 H 487.739 -2.32088 1.9588 0
M  V30 5278 H 485.324 -1.09823 1.01289 0
M  V30 5279 H 487.206 -4.19695 0.37873 0
M  V30 5280 H 485.881 -3.22178 -0.313511 0
M  V30 5281 H 484.788 -3.15961 2.00298 0
M  V30 5282 H 486.121 -4.16758 2.61865 0
M  V30 5283 N 487.773 -1.03688 -1.18687 0
M  V30 5284 C 489.022 -0.733235 -1.879 0
M  V30 5285 C 489.335 0.741745 -1.8099 0
M  V30 5286 O 490.541 1.15875 -2.4553 0
M  V30 5287 C 488.997 -1.26127 -3.37076 0
M  V30 5288 C 488.605 -2.76461 -3.52524 0
M  V30 5289 C 490.349 -1.03398 -4.11715 0
M  V30 5290 C 488.256 -3.22642 -4.95637 0
M  V30 5291 H 487.186 -0.270584 -0.703776 0
M  V30 5292 H 489.837 -1.25222 -1.34133 0
M  V30 5293 H 488.219 -0.670165 -3.90288 0
M  V30 5294 H 489.393 -3.41296 -3.09602 0
M  V30 5295 H 487.708 -2.97559 -2.91286 0
M  V30 5296 H 490.305 -1.3542 -5.17267 0
M  V30 5297 H 490.648 0.0289246 -4.1629 0
M  V30 5298 H 491.181 -1.5895 -3.64664 0
M  V30 5299 H 487.92 -4.28296 -4.96228 0
M  V30 5300 H 487.44 -2.62539 -5.39289 0
M  V30 5301 H 489.119 -3.16444 -5.64333 0
M  V30 5302 N 489.251 1.34841 -0.815825 0
M  V30 5303 C 490.479 2.0273 -0.413294 0
M  V30 5304 C 490.894 1.61459 0.978599 0
M  V30 5305 O 490.251 0.816584 1.63212 0
M  V30 5306 C 490.302 3.58058 -0.497676 0
M  V30 5307 O 490.023 3.97832 -1.8347 0
M  V30 5308 C 491.524 4.4321 -0.0891339 0
M  V30 5309 H 488.744 0.649956 -0.166728 0
M  V30 5310 H 491.288 1.72267 -1.10201 0
M  V30 5311 H 489.443 3.87136 0.142886 0
M  V30 5312 H 489.857 4.92501 -1.80396 0
M  V30 5313 H 491.331 5.5164 -0.199274 0
M  V30 5314 H 491.808 4.28432 0.966571 0
M  V30 5315 H 492.414 4.19446 -0.703214 0
M  V30 5316 N 490.729 0.570148 1.46925 0
M  V30 5317 C 491.976 0.0509529 2.02436 0
M  V30 5318 C 492.304 -1.30405 1.44308 0
M  V30 5319 O 491.559 -1.86493 0.593198 0
M  V30 5320 C 491.858 -0.0780336 3.57315 0
M  V30 5321 C 491.524 1.20775 4.34424 0
M  V30 5322 C 490.186 1.56004 4.5521 0
M  V30 5323 C 492.538 2.0592 4.78797 0
M  V30 5324 C 489.866 2.76201 5.17619 0
M  V30 5325 C 492.218 3.25332 5.42533 0
M  V30 5326 C 490.882 3.60859 5.61549 0
M  V30 5327 H 490.152 0.018645 0.740765 0
M  V30 5328 H 492.799 0.744262 1.76445 0
M  V30 5329 H 491.104 -0.854394 3.82371 0
M  V30 5330 H 492.801 -0.495312 3.97929 0
M  V30 5331 H 489.391 0.923469 4.18533 0
M  V30 5332 H 493.575 1.80008 4.62505 0
M  V30 5333 H 488.831 3.0388 5.30535 0
M  V30 5334 H 493.005 3.91586 5.75876 0
M  V30 5335 H 490.632 4.54088 6.09678 0
M  V30 5336 N 492.207 -1.54576 0.307264 0
M  V30 5337 C 493.455 -1.99867 -0.299574 0
M  V30 5338 C 493.776 -1.19714 -1.53927 0
M  V30 5339 O 493.046 -0.29472 -1.9367 0
M  V30 5340 H 491.626 -0.738299 -0.113683 0
M  V30 5341 H 494.288 -1.9032 0.420042 0
M  V30 5342 H 493.384 -3.06901 -0.567283 0
M  V30 5343 N 493.685 -0.035106 -1.57561 0
M  V30 5344 C 494.617 0.973604 -2.07494 0
M  V30 5345 C 495.63 1.28504 -0.999534 0
M  V30 5346 O 496.819 1.24864 -1.27559 0
M  V30 5347 C 493.919 2.29945 -2.48955 0
M  V30 5348 C 493.092 2.1723 -3.79644 0
M  V30 5349 C 492.151 3.328 -4.07592 0
M  V30 5350 O 491.177 3.09418 -4.77754 0
M  V30 5351 N 492.379 4.56779 -3.58236 0
M  V30 5352 H 495.144 0.547525 -2.94656 0
M  V30 5353 H 492.705 0.151515 -1.61189 0
M  V30 5354 H 494.697 3.06097 -2.64739 0
M  V30 5355 H 493.267 2.64173 -1.67126 0
M  V30 5356 H 492.487 1.25768 -3.73599 0
M  V30 5357 H 493.775 2.05945 -4.65257 0
M  V30 5358 H 493.173 4.78668 -3.01485 0
M  V30 5359 H 491.73 5.30079 -3.79288 0
M  V30 5360 N 495.163 1.55791 0.238111 0
M  V30 5361 C 496.409 1.78297 0.966337 0
M  V30 5362 C 496.742 0.601903 1.84637 0
M  V30 5363 O 496.017 -0.399499 1.90353 0
M  V30 5364 C 496.3 3.10758 1.81939 0
M  V30 5365 C 496.153 4.39283 0.966958 0
M  V30 5366 C 497.472 3.39519 2.80027 0
M  V30 5367 H 494.591 0.648654 0.349882 0
M  V30 5368 H 497.233 1.88525 0.236253 0
M  V30 5369 H 495.383 3.02168 2.44185 0
M  V30 5370 H 497.055 4.59873 0.362514 0
M  V30 5371 H 495.298 4.32948 0.271669 0
M  V30 5372 H 495.969 5.28368 1.59784 0
M  V30 5373 H 498.445 3.48128 2.27917 0
M  V30 5374 H 497.321 4.33402 3.36829 0
M  V30 5375 H 497.582 2.60864 3.56934 0
M  V30 5376 N 496.642 -0.504142 1.49319 0
M  V30 5377 C 497.589 -1.60603 1.65756 0
M  V30 5378 C 498.559 -1.58425 0.499082 0
M  V30 5379 O 499.744 -1.76459 0.725728 0
M  V30 5380 C 496.884 -2.98764 1.72726 0
M  V30 5381 C 495.997 -3.10982 2.99857 0
M  V30 5382 C 495.132 -4.39857 2.97824 0
M  V30 5383 C 494.171 -4.45697 4.19548 0
M  V30 5384 N 493.308 -5.65995 4.15444 0
M  V30 5385 H 498.148 -1.45895 2.59843 0
M  V30 5386 H 495.685 -0.709891 1.28837 0
M  V30 5387 H 497.643 -3.78839 1.74747 0
M  V30 5388 H 496.273 -3.12183 0.821075 0
M  V30 5389 H 495.325 -2.23991 3.07461 0
M  V30 5390 H 496.637 -3.11157 3.89849 0
M  V30 5391 H 495.791 -5.2825 2.98391 0
M  V30 5392 H 494.53 -4.42242 2.05604 0
M  V30 5393 H 493.535 -3.55707 4.19229 0
M  V30 5394 H 494.76 -4.4503 5.12957 0
M  V30 5395 H 492.706 -5.69229 3.26059 0
M  V30 5396 H 492.623 -5.67773 4.99169 0
M  V30 5397 H 493.891 -6.56604 4.20109 0
M  V30 5398 N 498.12 -1.38341 -0.754957 0
M  V30 5399 C 499.367 -1.34473 -1.51404 0
M  V30 5400 C 499.695 0.0656458 -1.94389 0
M  V30 5401 O 498.95 1.04244 -1.65625 0
M  V30 5402 C 499.249 -2.2452 -2.78075 0
M  V30 5403 C 498.915 -3.72512 -2.54059 0
M  V30 5404 C 497.577 -4.1284 -2.47218 0
M  V30 5405 C 499.929 -4.66197 -2.33044 0
M  V30 5406 C 497.257 -5.44945 -2.17376 0
M  V30 5407 C 499.609 -5.98558 -2.04723 0
M  V30 5408 C 498.273 -6.37972 -1.96337 0
M  V30 5409 H 497.543 -0.492072 -0.554027 0
M  V30 5410 H 500.19 -1.70687 -0.868223 0
M  V30 5411 H 498.495 -1.81357 -3.473 0
M  V30 5412 H 500.192 -2.18832 -3.36026 0
M  V30 5413 H 496.782 -3.40538 -2.60253 0
M  V30 5414 H 500.966 -4.35888 -2.37309 0
M  V30 5415 H 496.222 -5.74426 -2.09391 0
M  V30 5416 H 500.396 -6.70693 -1.87465 0
M  V30 5417 H 498.023 -7.40258 -1.72978 0
M  V30 5418 N 499.598 0.982988 -1.23187 0
M  V30 5419 C 500.875 1.69814 -0.970707 0
M  V30 5420 C 501.255 2.04811 0.511424 0
M  V30 5421 O 500.603 1.73924 1.48198 0
M  V30 5422 C 500.813 2.94143 -1.87831 0
M  V30 5423 C 502.161 3.66712 -2.14026 0
M  V30 5424 O 503.185 3.04171 -1.8536 0
M  V30 5425 O 502.044 4.79258 -2.62629 0
M  V30 5426 H 499.138 0.741659 -0.365884 0
M  V30 5427 H 501.684 1.03844 -1.34218 0
M  V30 5428 H 500.456 2.64858 -2.88038 0
M  V30 5429 H 500.079 3.6785 -1.50905 0
M  V30 5430 N 501.076 1.04316 1.18135 0
M  V30 5431 C 502.487 0.775505 1.69832 0
M  V30 5432 C 502.838 -0.703348 1.8316 0
M  V30 5433 O 501.963 -1.54729 1.51287 0
M  V30 5434 C 502.558 1.40112 3.0847 0
M  V30 5435 C 501.117 1.18172 3.57368 0
M  V30 5436 C 500.264 1.49022 2.33854 0
M  V30 5437 H 503.215 1.20925 1.02775 0
M  V30 5438 H 503.236 0.805672 3.71873 0
M  V30 5439 H 502.748 2.47744 2.98738 0
M  V30 5440 H 500.849 0.124258 3.72393 0
M  V30 5441 H 500.962 1.8805 4.40652 0
M  V30 5442 H 499.326 0.909995 2.37889 0
M  V30 5443 H 500.109 2.57768 2.26738 0
M  V30 5444 N 502.554 -1.34406 0.822964 0
M  V30 5445 C 503.965 -1.8069 0.469879 0
M  V30 5446 C 504.316 -1.68223 -1.00972 0
M  V30 5447 O 503.441 -1.22226 -1.78577 0
M  V30 5448 C 504.036 -3.28064 0.846118 0
M  V30 5449 C 502.595 -3.72428 0.545402 0
M  V30 5450 C 501.742 -2.56116 1.06301 0
M  V30 5451 H 504.693 -1.22153 1.01313 0
M  V30 5452 H 504.714 -3.80205 0.149922 0
M  V30 5453 H 504.226 -3.37107 1.92304 0
M  V30 5454 H 502.327 -3.68924 -0.522109 0
M  V30 5455 H 502.44 -4.66548 1.0895 0
M  V30 5456 H 500.804 -2.50048 0.484554 0
M  V30 5457 H 501.587 -2.67928 2.14638 0
M  V30 5458 N 504.032 -0.577932 -1.46621 0
M  V30 5459 C 504.962 0.145917 -2.33044 0
M  V30 5460 C 505.943 0.888412 -1.45056 0
M  V30 5461 O 507.128 0.864812 -1.73881 0
M  V30 5462 C 504.258 1.16322 -3.27241 0
M  V30 5463 C 503.212 0.535868 -4.24632 0
M  V30 5464 C 502.538 1.65929 -5.08303 0
M  V30 5465 C 503.838 -0.523861 -5.19666 0
M  V30 5466 H 505.532 -0.575636 -2.93814 0
M  V30 5467 H 503.078 -0.278272 -1.41286 0
M  V30 5468 H 505.031 1.67793 -3.86553 0
M  V30 5469 H 503.755 1.91498 -2.64567 0
M  V30 5470 H 502.414 0.0422759 -3.66576 0
M  V30 5471 H 502.062 2.40061 -4.42018 0
M  V30 5472 H 501.762 1.2452 -5.74255 0
M  V30 5473 H 503.286 2.17686 -5.70478 0
M  V30 5474 H 504.7 -0.0944059 -5.73222 0
M  V30 5475 H 503.097 -0.858 -5.93935 0
M  V30 5476 H 504.167 -1.41197 -4.63887 0
M  V30 5477 N 505.51 1.54411 -0.315457 0
M  V30 5478 C 506.926 1.59556 0.037464 0
M  V30 5479 C 507.126 1.33217 1.5118 0
M  V30 5480 O 506.182 1.11264 2.26664 0
M  V30 5481 C 507.495 2.98372 -0.373477 0
M  V30 5482 C 509.043 3.11324 -0.323452 0
M  V30 5483 C 509.518 4.52472 -0.709433 0
M  V30 5484 N 511.009 4.58437 -0.662524 0
M  V30 5485 C 511.744 5.65751 -0.933474 0
M  V30 5486 N 511.24 6.81039 -1.27114 0
M  V30 5487 N 513.033 5.55489 -0.859573 0
M  V30 5488 H 505.184 1.6979 -1.27614 0
M  V30 5489 H 507.447 0.793732 -0.518356 0
M  V30 5490 H 507.153 3.22618 -1.40037 0
M  V30 5491 H 507.027 3.76264 0.265615 0
M  V30 5492 H 509.414 2.86818 0.694223 0
M  V30 5493 H 509.495 2.35555 -0.997367 0
M  V30 5494 H 509.139 4.7771 -1.72498 0
M  V30 5495 H 509.069 5.26598 -0.0132923 0
M  V30 5496 H 511.56 3.75636 -0.413065 0
M  V30 5497 H 511.873 7.58816 -1.46348 0
M  V30 5498 H 510.218 6.82555 -1.30932 0
M  V30 5499 H 513.409 4.64299 -0.595324 0
M  V30 5500 H 513.582 6.39036 -1.0741 0
M  V30 5501 N 506.988 0.0434614 1.5754 0
M  V30 5502 C 507.935 -0.93356 2.11077 0
M  V30 5503 C 508.905 -1.31383 1.01626 0
M  V30 5504 O 510.09 -1.40465 1.29129 0
M  V30 5505 C 507.23 -2.20578 2.65404 0
M  V30 5506 C 506.343 -1.88068 3.88914 0
M  V30 5507 C 505.478 -3.09691 4.31584 0
M  V30 5508 C 504.517 -2.73067 5.47815 0
M  V30 5509 N 503.654 -3.87359 5.85574 0
M  V30 5510 H 508.494 -0.470118 2.94268 0
M  V30 5511 H 506.031 -0.220434 1.45439 0
M  V30 5512 H 507.989 -2.95011 2.94999 0
M  V30 5513 H 506.619 -2.64513 1.85021 0
M  V30 5514 H 505.671 -1.03816 3.6596 0
M  V30 5515 H 506.983 -1.57104 4.73413 0
M  V30 5516 H 506.137 -3.92431 4.62691 0
M  V30 5517 H 504.876 -3.43827 3.45882 0
M  V30 5518 H 503.881 -1.88742 5.16388 0
M  V30 5519 H 505.106 -2.40131 6.35227 0
M  V30 5520 H 503.052 -4.21311 5.02825 0
M  V30 5521 H 502.969 -3.60068 6.64746 0
M  V30 5522 H 504.237 -4.70761 6.21292 0
M  V30 5523 N 508.466 -1.55915 -0.229846 0
M  V30 5524 C 509.376 -1.94891 -1.30593 0
M  V30 5525 C 510.392 -0.851604 -1.51736 0
M  V30 5526 O 511.568 -1.15447 -1.65027 0
M  V30 5527 C 508.633 -2.25052 -2.63728 0
M  V30 5528 C 507.694 -3.48306 -2.5096 0
M  V30 5529 C 506.927 -3.77019 -3.77747 0
M  V30 5530 O 507.15 -3.07534 -4.80395 0
M  V30 5531 O 506.084 -4.70523 -3.75356 0
M  V30 5532 H 509.91 -2.86581 -1.00525 0
M  V30 5533 H 507.495 -1.43017 -0.432025 0
M  V30 5534 H 509.377 -2.45682 -3.42372 0
M  V30 5535 H 508.052 -1.36538 -2.93495 0
M  V30 5536 H 506.959 -3.32964 -1.70546 0
M  V30 5537 H 508.292 -4.37177 -2.26136 0
M  V30 5538 N 509.944 0.496216 -1.49584 0
M  V30 5539 C 511.172 1.27394 -1.63029 0
M  V30 5540 C 511.587 1.86344 -0.303569 0
M  V30 5541 O 510.944 1.68057 0.711547 0
M  V30 5542 C 510.995 2.40077 -2.70269 0
M  V30 5543 O 510.716 1.83549 -3.97796 0
M  V30 5544 C 512.217 3.31372 -2.94462 0
M  V30 5545 H 509.437 0.386211 -0.54871 0
M  V30 5546 H 511.981 0.595163 -1.95648 0
M  V30 5547 H 510.136 3.03775 -2.40415 0
M  V30 5548 H 510.55 2.57561 -4.56905 0
M  V30 5549 H 512.024 4.06707 -3.73221 0
M  V30 5550 H 512.501 3.88654 -2.0456 0
M  V30 5551 H 513.107 2.73435 -3.25751 0
M  V30 5552 N 511.423 1.38739 0.74761 0
M  V30 5553 C 512.333 1.38696 1.89211 0
M  V30 5554 C 513.349 0.283303 1.71678 0
M  V30 5555 O 514.525 0.522713 1.94498 0
M  V30 5556 C 511.59 1.21662 3.24653 0
M  V30 5557 C 510.651 2.41886 3.54669 0
M  V30 5558 C 509.884 2.25655 4.83648 0
M  V30 5559 O 510.107 1.25339 5.56459 0
M  V30 5560 O 509.041 3.14372 5.13277 0
M  V30 5561 H 512.867 2.35143 1.92202 0
M  V30 5562 H 510.452 1.19721 0.893708 0
M  V30 5563 H 512.334 1.14246 4.05618 0
M  V30 5564 H 511.009 0.283024 3.2246 0
M  V30 5565 H 509.916 2.54877 2.73841 0
M  V30 5566 H 511.249 3.33895 3.61628 0
M  V30 5567 N 512.901 -0.976442 1.23707 0
M  V30 5568 C 514.312 -1.53284 1.06587 0
M  V30 5569 C 514.663 -1.92765 -0.365526 0
M  V30 5570 O 513.788 -1.7645 -1.25277 0
M  V30 5571 C 514.383 -2.78548 1.92864 0
M  V30 5572 C 512.942 -3.30574 1.79994 0
M  V30 5573 C 512.089 -2.03538 1.88328 0
M  V30 5574 H 515.04 -0.795692 1.37311 0
M  V30 5575 H 515.061 -3.5155 1.45577 0
M  V30 5576 H 514.573 -2.49782 2.97037 0
M  V30 5577 H 512.674 -3.64211 0.786202 0
M  V30 5578 H 512.787 -4.00065 2.636 0
M  V30 5579 H 511.151 -2.17853 1.31954 0
M  V30 5580 H 511.934 -1.77149 2.94063 0
M  V30 5581 N 514.379 -1.04941 -1.1758 0
M  V30 5582 C 515.329 -0.618378 -2.19454 0
M  V30 5583 C 516.313 0.343813 -1.57184 0
M  V30 5584 O 517.505 0.16145 -1.76262 0
M  V30 5585 C 514.634 0.00803847 -3.43299 0
M  V30 5586 C 513.72 -0.977827 -4.12673 0
M  V30 5587 N 514.111 -2.14826 -4.57912 0
M  V30 5588 C 512.409 -0.805748 -4.38661 0
M  V30 5589 C 513.11 -2.77174 -5.11419 0
M  V30 5590 N 512.086 -2.04989 -5.03468 0
M  V30 5591 H 515.888 -1.51018 -2.52132 0
M  V30 5592 H 513.402 -0.919201 -1.33882 0
M  V30 5593 H 515.399 0.334584 -4.15555 0
M  V30 5594 H 514.059 0.895272 -3.12114 0
M  V30 5595 H 515.07 -2.52673 -4.52081 0
M  V30 5596 H 511.747 0.0306506 -4.17489 0
M  V30 5597 H 513.137 -3.76416 -5.56562 0
M  V30 5598 N 515.857 1.33968 -0.830081 0
M  V30 5599 C 516.807 2.26845 -0.229242 0
M  V30 5600 C 517.791 1.48862 0.610659 0
M  V30 5601 O 518.983 1.70808 0.464067 0
M  V30 5602 C 516.112 3.3798 0.602057 0
M  V30 5603 C 515.198 4.23369 -0.248866 0
M  V30 5604 N 515.589 4.88182 -1.32334 0
M  V30 5605 C 513.887 4.45987 -0.0344077 0
M  V30 5606 C 514.588 5.51671 -1.84482 0
M  V30 5607 N 513.564 5.31348 -1.14762 0
M  V30 5608 H 517.366 2.74464 -1.05104 0
M  V30 5609 H 514.88 1.4777 -0.673623 0
M  V30 5610 H 516.877 4.03494 1.04873 0
M  V30 5611 H 515.537 2.9191 1.42193 0
M  V30 5612 H 516.548 4.88988 -1.70619 0
M  V30 5613 H 513.225 4.10658 0.752727 0
M  V30 5614 H 514.615 6.13308 -2.74413 0
M  V30 5615 N 517.335 0.585699 1.46312 0
M  V30 5616 C 518.245 -0.148236 2.34131 0
M  V30 5617 C 519.261 -0.882972 1.49932 0
M  V30 5618 O 520.437 -0.845484 1.82794 0
M  V30 5619 C 517.502 -1.14714 3.27172 0
M  V30 5620 C 516.563 -0.416746 4.27272 0
M  V30 5621 C 515.796 -1.36806 5.15868 0
M  V30 5622 O 516.019 -2.60475 5.07454 0
M  V30 5623 O 514.953 -0.877018 5.95476 0
M  V30 5624 H 518.779 0.572882 2.98248 0
M  V30 5625 H 516.364 0.346082 1.45336 0
M  V30 5626 H 518.246 -1.72303 3.84564 0
M  V30 5627 H 516.921 -1.84967 2.65648 0
M  V30 5628 H 515.828 0.201061 3.73559 0
M  V30 5629 H 517.161 0.244872 4.9159 0
M  V30 5630 N 518.813 -1.54241 0.323641 0
M  V30 5631 C 519.743 -2.27289 -0.534993 0
M  V30 5632 C 520.724 -1.28087 -1.11927 0
M  V30 5633 O 521.909 -1.56899 -1.14439 0
M  V30 5634 C 519.039 -3.03075 -1.69596 0
M  V30 5635 C 517.993 -4.09614 -1.24098 0
M  V30 5636 C 517.319 -4.73242 -2.4889 0
M  V30 5637 C 518.619 -5.21087 -0.355789 0
M  V30 5638 H 520.313 -2.99308 0.0743257 0
M  V30 5639 H 517.859 -1.43952 0.0371874 0
M  V30 5640 H 519.812 -3.52907 -2.30293 0
M  V30 5641 H 518.536 -2.28673 -2.33187 0
M  V30 5642 H 517.195 -3.60666 -0.656945 0
M  V30 5643 H 516.843 -3.95455 -3.10845 0
M  V30 5644 H 516.543 -5.45209 -2.19138 0
M  V30 5645 H 518.067 -5.25848 -3.10348 0
M  V30 5646 H 519.481 -5.66675 -0.869042 0
M  V30 5647 H 517.878 -5.9991 -0.151045 0
M  V30 5648 H 518.948 -4.81005 0.613339 0
M  V30 5649 N 520.291 -0.0518155 -1.57515 0
M  V30 5650 C 521.702 0.483787 -1.80323 0
M  V30 5651 C 522.053 1.70879 -0.964099 0
M  V30 5652 O 521.178 2.15643 -0.180872 0
M  V30 5653 C 521.773 0.884459 -3.27052 0
M  V30 5654 C 520.332 1.36504 -3.50776 0
M  V30 5655 C 519.479 0.340539 -2.75201 0
M  V30 5656 H 522.43 -0.277691 -1.56252 0
M  V30 5657 H 522.451 1.74733 -3.38007 0
M  V30 5658 H 521.963 -0.00731093 -3.88099 0
M  V30 5659 H 520.064 2.27598 -2.95009 0
M  V30 5660 H 520.177 1.35675 -4.59488 0
M  V30 5661 H 518.541 0.81356 -2.41357 0
M  V30 5662 H 519.324 -0.543156 -3.38976 0
M  V30 5663 N 521.769 1.56035 0.221574 0
M  V30 5664 C 523.046 1.69837 0.970301 0
M  V30 5665 C 523.426 0.599065 2.02421 0
M  V30 5666 O 522.774 -0.393929 2.25079 0
M  V30 5667 C 522.984 3.11148 1.58076 0
M  V30 5668 C 524.332 3.70555 2.07302 0
M  V30 5669 O 525.356 3.14109 1.6797 0
M  V30 5670 O 524.215 4.69562 2.79596 0
M  V30 5671 H 521.309 0.691727 0.453257 0
M  V30 5672 H 523.855 1.68353 0.213358 0
M  V30 5673 H 522.627 3.82617 0.819759 0
M  V30 5674 H 522.25 3.16749 2.40324 0
M  V30 5675 N 523.247 -0.488276 1.49845 0
M  V30 5676 C 524.472 -1.26997 1.63971 0
M  V30 5677 C 524.897 -1.85427 0.315994 0
M  V30 5678 O 524.255 -1.66475 -0.718032 0
M  V30 5679 C 524.303 -2.36689 2.72049 0
M  V30 5680 O 523.407 -3.40882 2.32107 0
M  V30 5681 H 522.748 -0.374376 0.548396 0
M  V30 5682 H 525.278 -0.583104 1.96115 0
M  V30 5683 H 525.288 -2.82262 2.94605 0
M  V30 5684 H 523.963 -1.93529 3.68129 0
M  V30 5685 H 522.54 -3.01139 2.19931 0
M  V30 5686 N 524.725 -1.39134 -0.740242 0
M  V30 5687 C 526.002 -1.26584 -1.49117 0
M  V30 5688 C 526.382 0.126902 -2.10718 0
M  V30 5689 O 525.73 1.13765 -1.98166 0
M  V30 5690 C 525.94 -2.38619 -2.54681 0
M  V30 5691 C 527.288 -2.77685 -3.21211 0
M  V30 5692 O 528.312 -2.38029 -2.64991 0
M  V30 5693 O 527.171 -3.46115 -4.22926 0
M  V30 5694 H 524.265 -0.495769 -0.661923 0
M  V30 5695 H 526.811 -1.50995 -0.774514 0
M  V30 5696 H 525.583 -3.3175 -2.07504 0
M  V30 5697 H 525.206 -2.15845 -3.33911 0
M  V30 5698 N 526.204 0.969867 -1.24223 0
M  V30 5699 C 527.452 1.70918 -1.0785 0
M  V30 5700 C 527.773 1.91186 0.383763 0
M  V30 5701 O 527.043 1.48806 1.27411 0
M  V30 5702 H 525.623 0.633334 -0.396103 0
M  V30 5703 H 528.285 1.16689 -1.56108 0
M  V30 5704 H 527.381 2.69455 -1.57482 0
M  V30 5705 N 527.682 1.05563 1.17022 0
M  V30 5706 C 528.929 0.767937 1.87374 0
M  V30 5707 C 529.257 -0.705224 1.81265 0
M  V30 5708 O 528.512 -1.5318 1.21796 0
M  V30 5709 C 528.811 1.19849 3.36706 0
M  V30 5710 C 528.477 2.6745 3.63017 0
M  V30 5711 C 527.139 3.0777 3.69907 0
M  V30 5712 C 529.491 3.62811 3.74189 0
M  V30 5713 C 526.819 4.42307 3.85463 0
M  V30 5714 C 529.171 4.97087 3.91264 0
M  V30 5715 C 527.835 5.37055 3.96394 0
M  V30 5716 H 527.105 0.281008 0.68565 0
M  V30 5717 H 529.752 1.32339 1.38415 0
M  V30 5718 H 528.057 0.562096 3.87747 0
M  V30 5719 H 529.754 0.953038 3.8951 0
M  V30 5720 H 526.344 2.35228 3.58282 0
M  V30 5721 H 530.528 3.32798 3.68183 0
M  V30 5722 H 525.784 4.72769 3.87684 0
M  V30 5723 H 529.958 5.70869 3.9885 0
M  V30 5724 H 527.585 6.41308 4.082 0
M  V30 5725 N 529.16 -1.33526 0.837174 0
M  V30 5726 C 530.09 -2.31764 0.284206 0
M  V30 5727 C 531.071 -1.58896 -0.607142 0
M  V30 5728 O 532.256 -1.86798 -0.531047 0
M  V30 5729 C 529.386 -3.43029 -0.542962 0
M  V30 5730 C 528.34 -4.27255 0.252451 0
M  V30 5731 C 527.666 -5.3012 -0.69836 0
M  V30 5732 C 528.966 -5.01229 1.46858 0
M  V30 5733 H 530.66 -2.78262 1.10502 0
M  V30 5734 H 528.206 -1.3378 0.532812 0
M  V30 5735 H 530.159 -4.1078 -0.940096 0
M  V30 5736 H 528.883 -2.95216 -1.39697 0
M  V30 5737 H 527.542 -3.61127 0.631124 0
M  V30 5738 H 527.19 -4.78564 -1.54872 0
M  V30 5739 H 526.89 -5.87353 -0.170274 0
M  V30 5740 H 528.414 -6.00737 -1.09305 0
M  V30 5741 H 529.828 -5.61756 1.14469 0
M  V30 5742 H 528.225 -5.68104 1.93333 0
M  V30 5743 H 529.295 -4.301 2.23924 0
M  V30 5744 N 530.638 -0.59345 -1.46 0
M  V30 5745 C 531.915 -0.0157933 -1.95594 0
M  V30 5746 C 532.295 1.44807 -1.53604 0
M  V30 5747 O 531.643 2.14342 -0.791824 0
M  V30 5748 C 531.853 -0.199081 -3.48432 0
M  V30 5749 C 533.201 -0.0724943 -4.24538 0
M  V30 5750 O 534.225 -0.128469 -3.55968 0
M  V30 5751 O 533.084 0.0542426 -5.46473 0
M  V30 5752 H 530.178 0.043749 -0.825842 0
M  V30 5753 H 532.724 -0.662522 -1.56233 0
M  V30 5754 H 531.496 -1.21631 -3.71916 0
M  V30 5755 H 531.119 0.483576 -3.94648 0
M  V30 5756 N 532.116 1.54067 -0.331816 0
M  V30 5757 C 533.341 2.05599 0.272705 0
M  V30 5758 C 533.766 1.2059 1.44359 0
M  V30 5759 O 533.124 0.216907 1.79998 0
M  V30 5760 C 533.172 3.54188 0.677021 0
M  V30 5761 O 532.276 3.72082 1.77844 0
M  V30 5762 H 531.617 0.662286 0.0476801 0
M  V30 5763 H 534.147 1.98826 -0.482624 0
M  V30 5764 H 534.157 3.96608 0.957415 0
M  V30 5765 H 532.832 4.15513 -0.179325 0
M  V30 5766 H 531.409 3.41566 1.49622 0
M  V30 5767 N 533.594 0.0601682 1.57485 0
M  V30 5768 C 534.819 -0.624416 1.97777 0
M  V30 5769 C 535.244 -1.63051 0.937867 0
M  V30 5770 O 534.602 -1.81036 -0.0978845 0
M  V30 5771 C 534.65 -1.27979 3.37126 0
M  V30 5772 O 533.754 -2.39556 3.35688 0
M  V30 5773 H 533.095 -0.161581 0.64404 0
M  V30 5774 H 535.625 0.131237 2.04179 0
M  V30 5775 H 535.635 -1.62937 3.74053 0
M  V30 5776 H 534.31 -0.542501 4.12347 0
M  V30 5777 H 532.887 -2.06478 3.10517 0
M  V30 5778 N 535.072 -1.5615 -0.213296 0
M  V30 5779 C 535.982 -1.96265 -1.28519 0
M  V30 5780 C 536.998 -0.86765 -1.50824 0
M  V30 5781 O 538.174 -1.17191 -1.63793 0
M  V30 5782 C 535.239 -2.27836 -2.61327 0
M  V30 5783 C 534.3 -3.50949 -2.47252 0
M  V30 5784 C 533.533 -3.81004 -3.73727 0
M  V30 5785 O 533.756 -3.12612 -4.77106 0
M  V30 5786 O 532.69 -4.74477 -3.70344 0
M  V30 5787 H 536.516 -2.87631 -0.974795 0
M  V30 5788 H 534.101 -1.43467 -0.416832 0
M  V30 5789 H 535.983 -2.49299 -3.39747 0
M  V30 5790 H 534.658 -1.39643 -2.9203 0
M  V30 5791 H 533.565 -3.34754 -1.67004 0
M  V30 5792 H 534.898 -4.39551 -2.21486 0
M  V30 5793 N 536.55 0.480323 -1.50102 0
M  V30 5794 C 537.46 1.60547 -1.71061 0
M  V30 5795 C 538.476 1.63564 -0.593529 0
M  V30 5796 O 539.652 1.81604 -0.870751 0
M  V30 5797 C 536.717 2.96814 -1.79171 0
M  V30 5798 C 535.778 3.04259 -3.02861 0
M  V30 5799 C 535.011 4.34027 -3.10574 0
M  V30 5800 O 535.234 5.24009 -2.25323 0
M  V30 5801 O 534.168 4.46873 -4.03223 0
M  V30 5802 H 537.994 1.45788 -2.6642 0
M  V30 5803 H 535.579 0.658838 -1.34088 0
M  V30 5804 H 537.461 3.77765 -1.86738 0
M  V30 5805 H 536.136 3.11791 -0.869947 0
M  V30 5806 H 535.043 2.22419 -3.008 0
M  V30 5807 H 536.376 2.94216 -3.94586 0
M  V30 5808 N 538.028 1.39524 0.732853 0
M  V30 5809 C 539.277 1.36175 1.48792 0
M  V30 5810 C 539.59 -0.0388195 1.95561 0
M  V30 5811 O 540.796 -0.194899 2.708 0
M  V30 5812 C 539.252 2.39242 2.68871 0
M  V30 5813 C 538.86 3.85024 2.29042 0
M  V30 5814 C 540.604 2.44972 3.46683 0
M  V30 5815 C 538.511 4.79727 3.45856 0
M  V30 5816 H 537.441 0.506267 0.558757 0
M  V30 5817 H 540.092 1.65181 0.799226 0
M  V30 5818 H 538.474 2.0331 3.39825 0
M  V30 5819 H 539.648 4.30008 1.6562 0
M  V30 5820 H 537.963 3.82609 1.64316 0
M  V30 5821 H 540.56 3.12918 4.33574 0
M  V30 5822 H 540.903 1.4749 3.89297 0
M  V30 5823 H 541.436 2.79808 2.82759 0
M  V30 5824 H 538.175 5.78479 3.08289 0
M  V30 5825 H 537.695 4.39421 4.08251 0
M  V30 5826 H 539.374 4.98731 4.12161 0
M  V30 5827 N 539.506 -0.963266 1.24736 0
M  V30 5828 C 540.736 -1.73913 1.11524 0
M  V30 5829 C 541.144 -1.86218 -0.334612 0
M  V30 5830 O 540.487 -1.3531 -1.24245 0
M  V30 5831 C 540.549 -3.17501 1.68622 0
M  V30 5832 C 540.213 -3.28655 3.17546 0
M  V30 5833 C 541.21 -3.13637 4.14642 0
M  V30 5834 C 538.895 -3.52753 3.5759 0
M  V30 5835 C 540.889 -3.2255 5.49764 0
M  V30 5836 C 538.576 -3.61303 4.92852 0
M  V30 5837 C 539.574 -3.46214 5.88748 0
M  V30 5838 O 539.262 -3.5443 7.2155 0
M  V30 5839 H 538.994 -0.552057 0.390139 0
M  V30 5840 H 541.548 -1.2177 1.65412 0
M  V30 5841 H 539.778 -3.70969 1.09172 0
M  V30 5842 H 541.467 -3.76914 1.50635 0
M  V30 5843 H 542.233 -2.94899 3.85045 0
M  V30 5844 H 538.112 -3.63561 2.83451 0
M  V30 5845 H 541.656 -3.1069 6.24594 0
M  V30 5846 H 537.553 -3.79556 5.22118 0
M  V30 5847 H 538.321 -3.71116 7.29531 0
M  V30 5848 N 540.985 -1.06182 -1.16461 0
M  V30 5849 C 542.215 -0.797425 -1.9059 0
M  V30 5850 C 542.623 0.651845 -1.77616 0
M  V30 5851 O 541.966 1.45788 -1.11766 0
M  V30 5852 C 542.028 -1.11128 -3.41893 0
M  V30 5853 C 541.692 -2.55874 -3.78652 0
M  V30 5854 C 542.689 -3.54104 -3.80665 0
M  V30 5855 C 540.374 -2.91144 -4.09317 0
M  V30 5856 C 542.368 -4.85645 -4.12829 0
M  V30 5857 C 540.055 -4.22885 -4.41148 0
M  V30 5858 C 541.053 -5.19945 -4.42883 0
M  V30 5859 O 540.741 -6.49322 -4.73959 0
M  V30 5860 H 540.473 -0.288709 -0.611247 0
M  V30 5861 H 543.027 -1.41841 -1.4856 0
M  V30 5862 H 541.257 -0.433217 -3.84266 0
M  V30 5863 H 542.946 -0.831306 -3.97296 0
M  V30 5864 H 543.712 -3.28197 -3.57088 0
M  V30 5865 H 539.591 -2.16252 -4.07131 0
M  V30 5866 H 543.135 -5.61398 -4.14099 0
M  V30 5867 H 539.032 -4.48551 -4.6419 0
M  V30 5868 H 539.8 -6.54294 -4.91774 0
M  V30 5869 N 542.463 1.3308 -0.844243 0
M  V30 5870 C 543.691 2.01808 -0.456203 0
M  V30 5871 C 544.106 1.63498 0.944131 0
M  V30 5872 O 543.463 0.85102 1.61443 0
M  V30 5873 C 543.514 3.56922 -0.573513 0
M  V30 5874 O 543.235 3.93851 -1.91868 0
M  V30 5875 C 544.736 4.42922 -0.183125 0
M  V30 5876 H 541.956 0.646273 -0.180477 0
M  V30 5877 H 544.5 1.69891 -1.1383 0
M  V30 5878 H 542.655 3.87352 0.0607367 0
M  V30 5879 H 543.069 4.88564 -1.90802 0
M  V30 5880 H 544.543 5.51093 -0.316241 0
M  V30 5881 H 545.02 4.30386 0.875477 0
M  V30 5882 H 545.626 4.1786 -0.792027 0
M  V30 5883 N 543.941 0.601185 1.45683 0
M  V30 5884 C 544.904 -0.111398 2.28929 0
M  V30 5885 C 545.904 -0.801246 1.39416 0
M  V30 5886 O 547.094 -0.650383 1.61603 0
M  V30 5887 C 544.226 -1.16773 3.20276 0
M  V30 5888 H 545.419 0.620412 2.93413 0
M  V30 5889 H 542.972 0.359946 1.52099 0
M  V30 5890 H 543.707 -1.93051 2.60579 0
M  V30 5891 H 543.492 -0.677358 3.86205 0
M  V30 5892 H 544.982 -1.66698 3.82886 0
M  V30 5893 N 545.419 -1.53889 0.339982 0
M  V30 5894 C 546.835 -1.59595 -0.0120752 0
M  V30 5895 C 547.035 -1.35605 -1.49042 0
M  V30 5896 O 546.091 -1.14856 -2.24865 0
M  V30 5897 C 547.404 -2.9774 0.420898 0
M  V30 5898 C 548.952 -3.1077 0.37294 0
M  V30 5899 C 549.427 -4.51286 0.781327 0
M  V30 5900 N 550.918 -4.57325 0.735374 0
M  V30 5901 C 551.653 -5.64194 1.02336 0
M  V30 5902 N 551.149 -6.7893 1.37933 0
M  V30 5903 N 552.942 -5.54051 0.947838 0
M  V30 5904 H 545.093 -1.67738 1.30299 0
M  V30 5905 H 547.356 -0.785385 0.530918 0
M  V30 5906 H 547.062 -3.20349 1.45152 0
M  V30 5907 H 546.936 -3.76639 -0.205721 0
M  V30 5908 H 549.323 -2.87886 -0.648505 0
M  V30 5909 H 549.404 -2.33939 1.03472 0
M  V30 5910 H 549.048 -4.74905 1.80077 0
M  V30 5911 H 548.978 -5.26511 0.0970679 0
M  V30 5912 H 551.469 -3.74931 0.472773 0
M  V30 5913 H 551.782 -7.56392 1.58402 0
M  V30 5914 H 550.127 -6.80386 1.41774 0
M  V30 5915 H 553.318 -4.63293 0.669115 0
M  V30 5916 H 553.491 -6.37246 1.17563 0
M  V30 5917 N 546.897 -0.0685191 -1.57451 0
M  V30 5918 C 548.122 0.613919 -1.98106 0
M  V30 5919 C 548.547 1.62551 -0.946501 0
M  V30 5920 O 547.905 1.81085 0.0882824 0
M  V30 5921 C 547.953 1.26189 -3.378 0
M  V30 5922 O 547.057 2.37773 -3.36954 0
M  V30 5923 H 546.398 0.158163 -0.644888 0
M  V30 5924 H 548.928 -0.142063 -2.04106 0
M  V30 5925 H 548.938 1.60951 -3.74912 0
M  V30 5926 H 547.613 0.520625 -4.12629 0
M  V30 5927 H 546.19 2.04829 -3.11608 0
M  V30 5928 N 548.375 1.56261 0.205012 0
M  V30 5929 C 549.323 1.94631 1.27364 0
M  V30 5930 C 550.317 0.830434 1.47649 0
M  V30 5931 O 551.523 1.01538 1.48627 0
M  V30 5932 H 547.898 0.618755 0.427371 0
M  V30 5933 H 549.869 2.83768 0.922941 0
M  V30 5934 C 548.618 2.29358 2.61324 0
M  V30 5935 H 547.941 3.14744 2.46528 0
M  V30 5936 H 549.381 2.60076 3.34868 0
M  V30 5937 C 547.84 1.12461 3.17575 0
M  V30 5938 O 548.37 0.394407 3.99759 0
M  V30 5939 N 546.576 0.904036 2.7618 0
M  V30 5940 H 546.123 1.49956 2.09454 0
M  V30 5941 H 546.081 0.123662 3.14157 0
M  V30 5942 N 549.853 -0.472356 1.50355 0
M  V30 5943 C 550.783 -1.57859 1.72055 0
M  V30 5944 C 551.764 -1.60283 0.569505 0
M  V30 5945 O 552.949 -1.7657 0.808503 0
M  V30 5946 C 550.079 -2.96191 1.81351 0
M  V30 5947 C 549.033 -3.08633 2.96529 0
M  V30 5948 C 548.359 -4.486 2.90968 0
M  V30 5949 C 549.659 -2.85969 4.37057 0
M  V30 5950 H 551.353 -1.39953 2.64676 0
M  V30 5951 H 548.899 -0.671846 1.27367 0
M  V30 5952 H 550.852 -3.73507 1.95117 0
M  V30 5953 H 549.576 -3.15251 0.853502 0
M  V30 5954 H 548.235 -2.33749 2.82413 0
M  V30 5955 H 547.883 -4.64577 1.92815 0
M  V30 5956 H 547.583 -4.57861 3.68289 0
M  V30 5957 H 549.107 -5.27938 3.0678 0
M  V30 5958 H 550.521 -3.53036 4.51706 0
M  V30 5959 H 548.918 -3.06677 5.15819 0
M  V30 5960 H 549.988 -1.81838 4.49514 0
M  V30 5961 N 551.331 -1.39911 -0.725443 0
M  V30 5962 C 552.608 -1.28158 -1.47766 0
M  V30 5963 C 552.988 0.104545 -2.10841 0
M  V30 5964 O 552.336 1.11657 -1.99361 0
M  V30 5965 C 552.546 -2.41306 -2.52135 0
M  V30 5966 C 553.894 -2.81076 -3.18247 0
M  V30 5967 O 554.918 -2.40827 -2.62452 0
M  V30 5968 O 553.777 -3.50581 -4.19231 0
M  V30 5969 H 550.871 -0.502761 -0.656628 0
M  V30 5970 H 553.417 -1.51808 -0.758456 0
M  V30 5971 H 552.189 -3.33932 -2.03974 0
M  V30 5972 H 551.812 -2.19374 -3.31603 0
M  V30 5973 N 552.809 0.956637 -1.25245 0
M  V30 5974 C 553.739 2.07058 -1.07931 0
M  V30 5975 C 554.72 1.70096 0.0110361 0
M  V30 5976 O 555.905 1.93555 -0.158121 0
M  V30 5977 C 553.035 3.40272 -0.695124 0
M  V30 5978 C 551.989 3.91235 -1.73549 0
M  V30 5979 C 551.315 5.20921 -1.20604 0
M  V30 5980 C 552.615 4.17837 -3.13385 0
M  V30 5981 H 554.309 2.218 -2.01109 0
M  V30 5982 H 551.855 1.06581 -0.968326 0
M  V30 5983 H 553.808 4.1765 -0.560949 0
M  V30 5984 H 552.532 3.25462 0.272355 0
M  V30 5985 H 551.191 3.16025 -1.85807 0
M  V30 5986 H 550.839 5.02479 -0.228846 0
M  V30 5987 H 550.539 5.55987 -1.90136 0
M  V30 5988 H 552.063 6.00897 -1.08421 0
M  V30 5989 H 553.477 4.8588 -3.04292 0
M  V30 5990 H 551.874 4.64154 -3.80369 0
M  V30 5991 H 552.944 3.2419 -3.60595 0
M  V30 5992 N 554.287 1.06798 1.15896 0
M  V30 5993 C 555.219 0.641263 2.20046 0
M  V30 5994 C 556.232 -0.303355 1.59949 0
M  V30 5995 O 557.421 -0.0935478 1.78255 0
M  V30 5996 C 554.521 -0.0794029 3.38807 0
M  V30 5997 C 553.694 0.879986 4.28457 0
M  V30 5998 C 552.753 0.197638 5.25829 0
M  V30 5999 O 551.779 0.836913 5.63014 0
M  V30 6000 N 552.981 -1.05886 5.70761 0
M  V30 6001 H 555.746 1.53718 2.57276 0
M  V30 6002 H 553.307 0.951951 1.30956 0
M  V30 6003 H 555.299 -0.546418 4.00994 0
M  V30 6004 H 553.869 -0.877193 3.0004 0
M  V30 6005 H 553.089 1.52625 3.63454 0
M  V30 6006 H 554.377 1.53065 4.8523 0
M  V30 6007 H 553.775 -1.59828 5.42652 0
M  V30 6008 H 552.332 -1.46965 6.35015 0
M  V30 6009 N 555.766 -1.3263 0.851289 0
M  V30 6010 C 556.696 -2.31449 0.308771 0
M  V30 6011 C 557.677 -1.59531 -0.590255 0
M  V30 6012 O 558.862 -1.87351 -0.511205 0
M  V30 6013 C 555.992 -3.43586 -0.506548 0
M  V30 6014 C 554.946 -4.26963 0.297753 0
M  V30 6015 C 554.272 -5.30831 -0.642094 0
M  V30 6016 C 555.572 -4.99643 1.52166 0
M  V30 6017 H 557.266 -2.77074 1.13447 0
M  V30 6018 H 554.812 -1.33207 0.546971 0
M  V30 6019 H 556.765 -4.11754 -0.896474 0
M  V30 6020 H 555.489 -2.96681 -1.36558 0
M  V30 6021 H 554.148 -3.60437 0.669391 0
M  V30 6022 H 553.796 -4.8018 -1.49788 0
M  V30 6023 H 553.496 -5.87501 -0.107968 0
M  V30 6024 H 555.02 -6.01862 -1.02927 0
M  V30 6025 H 556.434 -5.6051 1.20421 0
M  V30 6026 H 554.831 -5.66022 1.99347 0
M  V30 6027 H 555.901 -4.27701 2.28474 0
M  V30 6028 N 557.244 -0.608902 -1.45362 0
M  V30 6029 C 558.154 0.110969 -2.34337 0
M  V30 6030 C 559.17 0.859007 -1.51318 0
M  V30 6031 O 560.346 0.816296 -1.84116 0
M  V30 6032 C 557.411 1.09494 -3.28956 0
M  V30 6033 C 556.472 0.348718 -4.27881 0
M  V30 6034 C 555.705 1.28582 -5.17979 0
M  V30 6035 O 555.928 2.52369 -5.11533 0
M  V30 6036 O 554.862 0.782172 -5.96796 0
M  V30 6037 H 558.688 -0.620258 -2.97299 0
M  V30 6038 H 556.273 -0.36916 -1.44767 0
M  V30 6039 H 558.155 1.66163 -3.87257 0
M  V30 6040 H 556.83 1.80717 -2.68557 0
M  V30 6041 H 555.737 -0.260465 -3.73192 0
M  V30 6042 H 557.07 -0.323049 -4.91139 0
M  V30 6043 N 558.722 1.53707 -0.348139 0
M  V30 6044 C 559.952 2.05108 0.247864 0
M  V30 6045 C 560.36 1.22252 1.44399 0
M  V30 6046 O 559.703 0.251853 1.81965 0
M  V30 6047 C 559.765 3.52171 0.722187 0
M  V30 6048 C 559.429 4.5562 -0.354902 0
M  V30 6049 C 560.426 5.05883 -1.19911 0
M  V30 6050 C 558.111 4.99703 -0.510145 0
M  V30 6051 C 560.105 5.98814 -2.18406 0
M  V30 6052 C 557.792 5.92443 -1.49848 0
M  V30 6053 C 558.79 6.41887 -2.33389 0
M  V30 6054 O 558.478 7.32802 -3.3054 0
M  V30 6055 H 558.21 0.674086 0.0508296 0
M  V30 6056 H 560.764 1.99229 -0.49968 0
M  V30 6057 H 558.994 3.55529 1.52105 0
M  V30 6058 H 560.683 3.8652 1.23925 0
M  V30 6059 H 561.449 4.72586 -1.09028 0
M  V30 6060 H 557.328 4.60816 0.130274 0
M  V30 6061 H 560.872 6.3733 -2.83649 0
M  V30 6062 H 556.769 6.25155 -1.60786 0
M  V30 6063 H 557.537 7.50749 -3.26064 0
M  V30 6064 N 560.2 0.0768682 1.57412 0
M  V30 6065 C 561.448 -0.589918 1.93299 0
M  V30 6066 C 561.769 -1.69842 0.958049 0
M  V30 6067 O 561.039 -1.95899 0.00703261 0
M  V30 6068 H 559.619 -0.220901 0.713591 0
M  V30 6069 H 562.281 0.135917 1.94425 0
M  V30 6070 H 561.377 -1.01195 2.95239 0
M  V30 6071 N 561.678 -1.56367 -0.196722 0
M  V30 6072 C 562.61 -1.90941 -1.26784 0
M  V30 6073 C 563.623 -0.799928 -1.41792 0
M  V30 6074 O 564.812 -1.07833 -1.42247 0
M  V30 6075 C 561.912 -2.12477 -2.6402 0
M  V30 6076 C 561.085 -3.43616 -2.70641 0
M  V30 6077 C 560.144 -3.54284 -3.89062 0
M  V30 6078 O 559.17 -4.2712 -3.76241 0
M  V30 6079 N 560.372 -2.87252 -5.04447 0
M  V30 6080 H 563.137 -2.83417 -0.974417 0
M  V30 6081 H 560.698 -1.57215 -0.386649 0
M  V30 6082 H 562.69 -2.16904 -3.41665 0
M  V30 6083 H 561.26 -1.26508 -2.85857 0
M  V30 6084 H 560.48 -3.51072 -1.79283 0
M  V30 6085 H 561.768 -4.29958 -2.72054 0
M  V30 6086 H 561.166 -2.27901 -5.17762 0
M  V30 6087 H 559.723 -2.97308 -5.80044 0
M  V30 6088 N 563.156 0.464375 -1.50603 0
M  V30 6089 C 564.404 1.21356 -1.61608 0
M  V30 6090 C 564.725 1.92329 -0.321643 0
M  V30 6091 O 563.995 1.84403 0.661232 0
M  V30 6092 H 562.575 0.45094 -0.595535 0
M  V30 6093 H 565.237 0.535046 -1.87412 0
M  V30 6094 H 564.333 1.95783 -2.43054 0
M  V30 6095 N 564.634 1.40294 0.718013 0
M  V30 6096 C 565.584 1.36847 1.82365 0
M  V30 6097 C 566.568 0.246424 1.59002 0
M  V30 6098 O 567.76 0.485336 1.70216 0
M  V30 6099 C 564.889 1.23105 3.20469 0
M  V30 6100 C 563.975 2.4008 3.49603 0
M  V30 6101 N 564.366 3.65562 3.49568 0
M  V30 6102 C 562.664 2.33407 3.80049 0
M  V30 6103 C 563.365 4.43015 3.76978 0
M  V30 6104 N 562.341 3.72823 3.95606 0
M  V30 6105 H 566.143 2.31811 1.80668 0
M  V30 6106 H 563.657 1.34031 0.91703 0
M  V30 6107 H 565.654 1.18718 3.9964 0
M  V30 6108 H 564.314 0.291056 3.23393 0
M  V30 6109 H 565.325 3.98756 3.30476 0
M  V30 6110 H 562.002 1.47762 3.90478 0
M  V30 6111 H 563.392 5.51859 3.83276 0
M  V30 6112 N 566.112 -0.949982 1.2575 0
M  V30 6113 C 567.044 -2.05088 1.02331 0
M  V30 6114 C 568.057 -1.62795 -0.0133247 0
M  V30 6115 O 569.246 -1.77067 0.225759 0
M  V30 6116 C 566.346 -3.34794 0.525924 0
M  V30 6117 C 565.519 -4.05903 1.62978 0
M  V30 6118 C 564.578 -5.1388 1.13196 0
M  V30 6119 O 563.604 -5.39072 1.82729 0
M  V30 6120 N 564.806 -5.80495 -0.0242926 0
M  V30 6121 H 567.571 -2.25747 1.97125 0
M  V30 6122 H 565.132 -1.11886 1.17018 0
M  V30 6123 H 567.124 -4.04312 0.177263 0
M  V30 6124 H 565.694 -3.10872 -0.328202 0
M  V30 6125 H 564.914 -3.3042 2.1498 0
M  V30 6126 H 566.202 -4.50166 2.37124 0
M  V30 6127 H 565.6 -5.62454 -0.605184 0
M  V30 6128 H 564.157 -6.51043 -0.313947 0
M  V30 6129 N 567.59 -1.07411 -1.15328 0
M  V30 6130 C 568.838 -0.796073 -1.85761 0
M  V30 6131 C 569.159 0.679864 -1.82764 0
M  V30 6132 O 568.429 1.49242 -1.269 0
M  V30 6133 H 567.009 -0.291495 -0.687779 0
M  V30 6134 H 569.671 -1.35799 -1.39802 0
M  V30 6135 H 568.767 -1.13114 -2.90881 0
M  V30 6136 N 569.068 1.32177 -0.85831 0
M  V30 6137 C 570.316 1.96735 -0.462568 0
M  V30 6138 C 570.637 1.6824 0.985911 0
M  V30 6139 O 569.907 0.991564 1.68952 0
M  V30 6140 H 568.487 0.727849 -0.168064 0
M  V30 6141 H 571.149 1.61195 -1.09554 0
M  V30 6142 H 570.245 3.06068 -0.610647 0
M  V30 6143 N 570.547 0.616602 1.45037 0
M  V30 6144 C 571.777 0.121791 2.06241 0
M  V30 6145 C 572.185 -1.20289 1.46038 0
M  V30 6146 O 571.528 -1.7456 0.572242 0
M  V30 6147 C 571.59 -0.0827345 3.59405 0
M  V30 6148 C 571.254 1.16153 4.41993 0
M  V30 6149 C 572.251 2.08183 4.76399 0
M  V30 6150 C 569.936 1.39288 4.82601 0
M  V30 6151 C 571.93 3.21668 5.5028 0
M  V30 6152 C 569.617 2.53073 5.56235 0
M  V30 6153 C 570.615 3.44091 5.89992 0
M  V30 6154 O 570.303 4.55894 6.6213 0
M  V30 6155 H 570.035 0.0701667 0.672349 0
M  V30 6156 H 572.589 0.846877 1.87129 0
M  V30 6157 H 570.819 -0.862812 3.76952 0
M  V30 6158 H 572.508 -0.530273 4.02421 0
M  V30 6159 H 573.274 1.91538 4.45576 0
M  V30 6160 H 569.153 0.693396 4.55755 0
M  V30 6161 H 572.697 3.92733 5.76547 0
M  V30 6162 H 568.594 2.69667 5.86472 0
M  V30 6163 H 569.362 4.5469 6.80587 0
M  V30 6164 N 572.025 -1.5352 0.356285 0
M  V30 6165 C 573.272 -2.01117 -0.236303 0
M  V30 6166 C 573.6 -1.24381 -1.49531 0
M  V30 6167 O 572.855 -0.323057 -1.93015 0
M  V30 6168 C 573.154 -3.52607 -0.583369 0
M  V30 6169 C 572.82 -4.47151 0.58023 0
M  V30 6170 C 571.482 -4.72718 0.899528 0
M  V30 6171 C 573.834 -5.03137 1.36024 0
M  V30 6172 C 571.162 -5.51523 2.00098 0
M  V30 6173 C 573.514 -5.83145 2.45204 0
M  V30 6174 C 572.178 -6.07001 2.77679 0
M  V30 6175 H 571.448 -0.735938 -0.0864695 0
M  V30 6176 H 574.095 -1.85209 0.48683 0
M  V30 6177 H 572.4 -3.66413 -1.38739 0
M  V30 6178 H 574.097 -3.86901 -1.05397 0
M  V30 6179 H 570.687 -4.27394 0.321322 0
M  V30 6180 H 574.871 -4.83339 1.12682 0
M  V30 6181 H 570.127 -5.68229 2.25668 0
M  V30 6182 H 574.301 -6.25537 3.06067 0
M  V30 6183 H 571.928 -6.67851 3.63151 0
M  V30 6184 N 573.503 -0.0852151 -1.57369 0
M  V30 6185 C 574.433 0.874556 -2.16503 0
M  V30 6186 C 575.414 1.30111 -1.09568 0
M  V30 6187 O 576.599 1.36977 -1.37662 0
M  V30 6188 C 573.729 2.13731 -2.73745 0
M  V30 6189 C 572.683 1.84971 -3.85966 0
M  V30 6190 C 572.009 3.17991 -4.29867 0
M  V30 6191 C 573.309 1.14442 -5.09608 0
M  V30 6192 H 575.003 0.381899 -2.96954 0
M  V30 6193 H 572.549 0.18225 -1.42842 0
M  V30 6194 H 574.502 2.81302 -3.13763 0
M  V30 6195 H 573.226 2.65263 -1.90534 0
M  V30 6196 H 571.885 1.19801 -3.46473 0
M  V30 6197 H 571.533 3.6739 -3.4356 0
M  V30 6198 H 571.233 2.99534 -5.05523 0
M  V30 6199 H 572.757 3.86737 -4.72511 0
M  V30 6200 H 574.171 1.72105 -5.46857 0
M  V30 6201 H 572.568 1.06197 -5.90629 0
M  V30 6202 H 573.638 0.12559 -4.84737 0
M  V30 6203 N 574.981 1.5647 0.188427 0
M  V30 6204 C 576.229 1.80655 0.905986 0
M  V30 6205 C 576.55 0.659391 1.83513 0
M  V30 6206 O 575.82 -0.321868 1.93238 0
M  V30 6207 H 574.4 0.666391 0.337538 0
M  V30 6208 H 577.062 1.93949 0.192339 0
M  V30 6209 H 576.158 2.74066 1.49313 0
M  V30 6210 N 576.459 -0.456382 1.50847 0
M  V30 6211 C 577.422 -1.53493 1.70213 0
M  V30 6212 C 578.422 -1.50264 0.572481 0
M  V30 6213 O 579.612 -1.52623 0.839751 0
M  V30 6214 C 576.744 -2.93091 1.741 0
M  V30 6215 H 577.937 -1.37633 2.66453 0
M  V30 6216 H 575.49 -0.683776 1.4055 0
M  V30 6217 H 576.225 -3.14378 0.796063 0
M  V30 6218 H 576.01 -2.9684 2.5618 0
M  V30 6219 H 577.5 -3.71368 1.90987 0
M  V30 6220 N 577.937 -1.40673 -0.710563 0
M  V30 6221 C 578.885 -1.41517 -1.84596 0
M  V30 6222 C 579.879 -0.295043 -1.66811 0
M  V30 6223 O 581.085 -0.466331 -1.73854 0
M  V30 6224 H 577.46 -0.442467 -0.608052 0
M  V30 6225 H 579.431 -2.37238 -1.80999 0
M  V30 6226 C 578.18 -1.29957 -3.225 0
M  V30 6227 H 577.503 -2.15429 -3.36794 0
M  V30 6228 H 578.943 -1.34608 -4.02066 0
M  V30 6229 C 577.402 -0.0103164 -3.36898 0
M  V30 6230 O 577.932 0.950707 -3.90288 0
M  V30 6231 N 576.138 0.0608409 -2.90536 0
M  V30 6232 H 575.685 -0.721943 -2.47277 0
M  V30 6233 H 575.643 0.92292 -3.00549 0
M  V30 6234 N 579.415 0.9433 -1.26252 0
M  V30 6235 C 580.362 2.0417 -1.07625 0
M  V30 6236 C 581.332 1.6609 0.0180738 0
M  V30 6237 O 582.517 1.90276 -0.141289 0
M  V30 6238 C 579.657 3.37653 -0.713043 0
M  V30 6239 C 578.77 3.88783 -1.8834 0
M  V30 6240 C 577.905 5.10642 -1.4635 0
M  V30 6241 C 576.944 5.54028 -2.60229 0
M  V30 6242 N 576.081 6.67092 -2.18936 0
M  V30 6243 H 580.921 2.19436 -2.01623 0
M  V30 6244 H 578.458 1.07519 -1.00389 0
M  V30 6245 H 580.416 4.14391 -0.483358 0
M  V30 6246 H 579.046 3.22241 0.18996 0
M  V30 6247 H 578.098 3.08464 -2.22608 0
M  V30 6248 H 579.41 4.16922 -2.73821 0
M  V30 6249 H 578.564 5.94832 -1.19414 0
M  V30 6250 H 577.303 4.84244 -0.579568 0
M  V30 6251 H 576.308 4.68396 -2.87898 0
M  V30 6252 H 577.533 5.82429 -3.49219 0
M  V30 6253 H 575.479 6.42381 -1.32974 0
M  V30 6254 H 575.396 6.94806 -2.97961 0
M  V30 6255 H 576.664 7.54662 -1.95206 0
M  V30 6256 N 580.893 1.08022 1.14757 0
M  V30 6257 C 582.118 0.82895 1.90114 0
M  V30 6258 C 582.543 -0.612772 1.77839 0
M  V30 6259 O 581.901 -1.42895 1.11583 0
M  V30 6260 C 581.949 1.25062 3.38219 0
M  V30 6261 O 581.053 0.400119 4.10454 0
M  V30 6262 H 580.394 0.301412 0.591648 0
M  V30 6263 H 582.924 1.44062 1.45284 0
M  V30 6264 H 582.934 1.22977 3.89025 0
M  V30 6265 H 581.609 2.30067 3.46471 0
M  V30 6266 H 580.186 0.484052 3.69745 0
M  V30 6267 N 582.371 -1.3172 0.865308 0
M  V30 6268 C 583.301 -2.31109 0.333302 0
M  V30 6269 C 584.282 -1.60148 -0.573301 0
M  V30 6270 O 585.467 -1.87882 -0.491305 0
M  V30 6271 C 582.597 -3.44104 -0.470078 0
M  V30 6272 C 581.551 -4.26623 0.343021 0
M  V30 6273 C 580.877 -5.31482 -0.585756 0
M  V30 6274 C 582.177 -4.98001 1.57456 0
M  V30 6275 H 583.871 -2.75855 1.1638 0
M  V30 6276 H 581.417 -1.3262 0.561069 0
M  V30 6277 H 583.37 -4.12682 -0.852752 0
M  V30 6278 H 582.094 -2.98112 -1.33404 0
M  V30 6279 H 580.753 -3.59707 0.707583 0
M  V30 6280 H 580.401 -4.81741 -1.44686 0
M  V30 6281 H 580.101 -5.87582 -0.0456494 0
M  V30 6282 H 581.625 -6.0292 -0.965375 0
M  V30 6283 H 583.039 -5.59201 1.26359 0
M  V30 6284 H 581.436 -5.63876 2.05339 0
M  V30 6285 H 582.506 -4.25253 2.32997 0
M  V30 6286 N 583.85 -0.624285 -1.44708 0
M  V30 6287 C 584.779 0.0717025 -2.3339 0
M  V30 6288 C 585.76 0.841814 -1.47809 0
M  V30 6289 O 586.946 0.809056 -1.76544 0
M  V30 6290 C 584.076 1.05852 -3.30776 0
M  V30 6291 C 583.029 0.400503 -4.26122 0
M  V30 6292 C 582.356 1.49674 -5.13324 0
M  V30 6293 C 583.656 -0.688924 -5.17737 0
M  V30 6294 H 585.35 -0.668819 -2.91834 0
M  V30 6295 H 582.896 -0.32308 -1.40329 0
M  V30 6296 H 584.849 1.5541 -3.91696 0
M  V30 6297 H 583.572 1.82984 -2.70526 0
M  V30 6298 H 582.231 -0.0743687 -3.66525 0
M  V30 6299 H 581.88 2.25877 -4.49431 0
M  V30 6300 H 581.58 1.06188 -5.77926 0
M  V30 6301 H 583.104 1.99427 -5.77115 0
M  V30 6302 H 584.518 -0.276724 -5.72632 0
M  V30 6303 H 582.915 -1.04652 -5.90904 0
M  V30 6304 H 583.985 -1.55884 -4.5916 0
M  V30 6305 N 585.328 1.53329 -0.364422 0
M  V30 6306 C 586.275 2.25698 0.482607 0
M  V30 6307 C 587.245 1.26325 1.07848 0
M  V30 6308 O 588.43 1.55104 1.11119 0
M  V30 6309 C 585.57 3.04873 1.61699 0
M  V30 6310 C 584.683 4.19135 1.0464 0
M  V30 6311 C 583.818 4.85754 2.14979 0
M  V30 6312 C 582.857 5.9205 1.5538 0
M  V30 6313 N 581.994 6.52365 2.59547 0
M  V30 6314 H 586.834 2.97666 -0.141032 0
M  V30 6315 H 584.371 1.46875 -0.0813692 0
M  V30 6316 H 586.329 3.49051 2.28516 0
M  V30 6317 H 584.959 2.35162 2.2113 0
M  V30 6318 H 584.011 3.79451 0.268553 0
M  V30 6319 H 585.323 4.95525 0.570653 0
M  V30 6320 H 584.477 5.3311 2.89619 0
M  V30 6321 H 583.216 4.08834 2.65906 0
M  V30 6322 H 582.221 5.44058 0.792549 0
M  V30 6323 H 583.446 6.7089 1.0528 0
M  V30 6324 H 581.392 5.78298 3.09689 0
M  V30 6325 H 581.309 7.2429 2.16655 0
M  V30 6326 H 582.577 7.0437 3.33892 0
M  V30 6327 N 586.806 0.0935595 1.57322 0
M  V30 6328 C 588.031 -0.582324 1.99057 0
M  V30 6329 C 588.456 -1.61025 0.972242 0
M  V30 6330 O 587.814 -1.81202 -0.0594622 0
M  V30 6331 C 587.862 -1.20799 3.39765 0
M  V30 6332 O 586.966 -2.32382 3.40694 0
M  V30 6333 H 586.307 -0.147884 0.647323 0
M  V30 6334 H 588.837 0.174516 2.03854 0
M  V30 6335 H 588.847 -1.54966 3.77425 0
M  V30 6336 H 587.522 -0.454914 4.13405 0
M  V30 6337 H 586.099 -1.99845 3.14827 0
M  V30 6338 N 588.284 -1.56567 -0.180126 0
M  V30 6339 C 589.53 -1.81761 -0.899497 0
M  V30 6340 C 589.863 -0.670015 -1.82276 0
M  V30 6341 O 589.138 0.328575 -1.91705 0
M  V30 6342 C 589.421 -3.17296 -1.7028 0
M  V30 6343 C 589.274 -4.4257 -0.803255 0
M  V30 6344 C 590.593 -3.49678 -2.67233 0
M  V30 6345 H 587.712 -0.661192 -0.325567 0
M  V30 6346 H 590.354 -1.89272 -0.16612 0
M  V30 6347 H 588.504 -3.11023 -2.32802 0
M  V30 6348 H 590.176 -4.60902 -0.191585 0
M  V30 6349 H 588.419 -4.33658 -0.110796 0
M  V30 6350 H 589.09 -5.33935 -1.40064 0
M  V30 6351 H 591.566 -3.56347 -2.14839 0
M  V30 6352 H 590.442 -4.45605 -3.20511 0
M  V30 6353 H 590.703 -2.73932 -3.47007 0
M  V30 6354 N 589.762 0.448376 -1.51087 0
M  V30 6355 C 590.672 1.56882 -1.74428 0
M  V30 6356 C 591.688 1.62268 -0.62809 0
M  V30 6357 O 592.864 1.79716 -0.909075 0
M  V30 6358 C 589.929 2.92947 -1.85426 0
M  V30 6359 C 588.99 2.97766 -3.09247 0
M  V30 6360 C 588.223 4.27341 -3.19711 0
M  V30 6361 O 588.446 5.19112 -2.36387 0
M  V30 6362 O 587.38 4.38219 -4.12611 0
M  V30 6363 H 591.206 1.40104 -2.69452 0
M  V30 6364 H 588.791 0.630247 -1.35456 0
M  V30 6365 H 590.673 3.73719 -1.94709 0
M  V30 6366 H 589.348 3.09876 -0.935887 0
M  V30 6367 H 588.255 2.15989 -3.0545 0
M  V30 6368 H 589.588 2.8578 -4.00738 0
M  V30 6369 N 591.24 1.41047 0.703093 0
M  V30 6370 C 592.15 1.44645 1.84703 0
M  V30 6371 C 593.166 0.337778 1.7069 0
M  V30 6372 O 594.342 0.584327 1.92737 0
M  V30 6373 C 591.407 1.31928 3.20618 0
M  V30 6374 C 590.468 2.53047 3.46794 0
M  V30 6375 C 589.701 2.40927 4.76224 0
M  V30 6376 O 589.924 1.42978 5.5219 0
M  V30 6377 O 588.858 3.30543 5.03016 0
M  V30 6378 H 592.684 2.41139 1.84624 0
M  V30 6379 H 590.269 1.22504 0.855167 0
M  V30 6380 H 592.151 1.27092 4.01778 0
M  V30 6381 H 590.826 0.385469 3.21397 0
M  V30 6382 H 589.733 2.6346 2.65593 0
M  V30 6383 H 591.066 3.45231 3.50822 0
M  V30 6384 N 592.718 -0.936591 1.26751 0
M  V30 6385 C 593.628 -2.06949 1.10496 0
M  V30 6386 C 594.644 -1.7396 0.037271 0
M  V30 6387 O 595.82 -1.99941 0.241944 0
M  V30 6388 C 592.885 -3.38612 0.744491 0
M  V30 6389 C 591.946 -3.85355 1.89209 0
M  V30 6390 C 591.179 -5.10735 1.54873 0
M  V30 6391 O 591.402 -5.68602 0.452546 0
M  V30 6392 O 590.336 -5.52632 2.38499 0
M  V30 6393 H 594.162 -2.23571 2.05547 0
M  V30 6394 H 591.747 -1.05428 1.05855 0
M  V30 6395 H 593.629 -4.17711 0.556396 0
M  V30 6396 H 592.304 -3.23218 -0.176582 0
M  V30 6397 H 591.211 -3.07182 2.13518 0
M  V30 6398 H 592.544 -4.05277 2.79305 0
M  V30 6399 N 594.196 -1.08629 -1.14182 0
M  V30 6400 C 595.126 -0.740003 -2.21464 0
M  V30 6401 C 596.107 0.278591 -1.67803 0
M  V30 6402 O 597.292 0.148461 -1.93632 0
M  V30 6403 C 594.422 -0.150952 -3.46972 0
M  V30 6404 C 593.376 -1.09815 -4.13672 0
M  V30 6405 C 592.702 -0.3712 -5.3341 0
M  V30 6406 C 594.002 -2.43722 -4.61949 0
M  V30 6407 H 595.696 -1.63697 -2.50686 0
M  V30 6408 H 593.242 -0.788526 -1.20492 0
M  V30 6409 H 595.195 0.103325 -4.21273 0
M  V30 6410 H 593.919 0.781164 -3.1712 0
M  V30 6411 H 592.578 -1.33756 -3.41328 0
M  V30 6412 H 592.226 0.564792 -4.99819 0
M  V30 6413 H 591.926 -1.00267 -5.78982 0
M  V30 6414 H 593.45 -0.12503 -6.10472 0
M  V30 6415 H 594.864 -2.24034 -5.27714 0
M  V30 6416 H 593.261 -3.02582 -5.18232 0
M  V30 6417 H 594.331 -3.05082 -3.76899 0
M  V30 6418 N 595.674 1.31259 -0.872281 0
M  V30 6419 C 596.624 2.26 -0.301295 0
M  V30 6420 C 597.608 1.50729 0.562991 0
M  V30 6421 O 598.8 1.72198 0.40949 0
M  V30 6422 C 595.929 3.39724 0.494227 0
M  V30 6423 C 595.015 4.22363 -0.383432 0
M  V30 6424 N 595.406 4.83724 -1.47799 0
M  V30 6425 C 593.704 4.45652 -0.176278 0
M  V30 6426 C 594.405 5.45523 -2.01939 0
M  V30 6427 N 593.381 5.27428 -1.31608 0
M  V30 6428 H 597.183 2.70981 -1.13782 0
M  V30 6429 H 594.697 1.45552 -0.720294 0
M  V30 6430 H 596.694 4.06626 0.919828 0
M  V30 6431 H 595.354 2.96286 1.32834 0
M  V30 6432 H 596.365 4.83313 -1.8609 0
M  V30 6433 H 593.042 4.12845 0.621698 0
M  V30 6434 H 594.432 6.04268 -2.93786 0
M  V30 6435 N 597.152 0.631951 1.44375 0
M  V30 6436 C 598.084 -0.110911 2.28931 0
M  V30 6437 C 599.097 -0.808086 1.41329 0
M  V30 6438 O 600.286 -0.669396 1.65473 0
M  V30 6439 C 597.386 -1.17928 3.1772 0
M  V30 6440 C 596.559 -0.564458 4.33743 0
M  V30 6441 C 595.618 -1.5269 5.0356 0
M  V30 6442 O 594.644 -1.04372 5.59549 0
M  V30 6443 N 595.846 -2.86123 5.05088 0
M  V30 6444 H 598.611 0.614758 2.93327 0
M  V30 6445 H 596.172 0.473171 1.54831 0
M  V30 6446 H 598.164 -1.82348 3.61291 0
M  V30 6447 H 596.734 -1.80717 2.55069 0
M  V30 6448 H 595.954 0.258373 3.93352 0
M  V30 6449 H 597.242 -0.134355 5.08623 0
M  V30 6450 H 596.64 -3.27959 4.60933 0
M  V30 6451 H 595.197 -3.45901 5.52445 0
M  V30 6452 N 598.631 -1.53133 0.372548 0
M  V30 6453 C 600.047 -1.59585 0.02178 0
M  V30 6454 C 600.247 -1.38736 -1.46132 0
M  V30 6455 O 599.303 -1.19599 -2.22379 0
M  V30 6456 C 600.616 -2.9678 0.483959 0
M  V30 6457 C 602.164 -3.09909 0.438775 0
M  V30 6458 C 602.639 -4.49527 0.876876 0
M  V30 6459 N 604.13 -4.55663 0.832214 0
M  V30 6460 C 604.865 -5.61896 1.14281 0
M  V30 6461 N 604.361 -6.75852 1.52303 0
M  V30 6462 N 606.154 -5.51916 1.06515 0
M  V30 6463 H 598.305 -1.64936 1.33827 0
M  V30 6464 H 600.568 -0.773947 0.547458 0
M  V30 6465 H 600.274 -3.17198 1.51915 0
M  V30 6466 H 600.148 -3.7699 -0.125784 0
M  V30 6467 H 602.535 -2.89197 -0.587294 0
M  V30 6468 H 602.616 -2.31691 1.0841 0
M  V30 6469 H 602.26 -4.70979 1.90109 0
M  V30 6470 H 602.19 -5.26186 0.208727 0
M  V30 6471 H 604.681 -3.73844 0.552195 0
M  V30 6472 H 604.994 -7.52862 1.7441 0
M  V30 6473 H 603.339 -6.77226 1.56175 0
M  V30 6474 H 606.53 -4.6177 0.767235 0
M  V30 6475 H 606.703 -6.34609 1.31053 0
M  V30 6476 N 600.109 -0.101901 -1.5727 0
M  V30 6477 C 601.357 0.559091 -1.94213 0
M  V30 6478 C 601.678 1.68297 -0.984948 0
M  V30 6479 O 600.948 1.95863 -0.0381975 0
M  V30 6480 H 599.528 0.20952 -0.717015 0
M  V30 6481 H 602.19 -0.166831 -1.94185 0
M  V30 6482 H 601.286 0.96485 -2.96811 0
M  V30 6483 N 601.587 1.56661 0.17182 0
M  V30 6484 C 602.537 1.92781 1.21736 0
M  V30 6485 C 603.521 0.796065 1.39827 0
M  V30 6486 O 604.713 1.05924 1.41806 0
M  V30 6487 C 601.842 2.29079 2.55691 0
M  V30 6488 C 600.928 3.48765 2.41296 0
M  V30 6489 N 601.319 4.66022 1.96614 0
M  V30 6490 C 599.617 3.53362 2.72124 0
M  V30 6491 C 600.318 5.48159 1.94669 0
M  V30 6492 N 599.294 4.89189 2.37054 0
M  V30 6493 H 603.096 2.80926 0.863592 0
M  V30 6494 H 600.61 1.57889 0.380096 0
M  V30 6495 H 602.607 2.5315 3.31241 0
M  V30 6496 H 601.267 1.42272 2.91871 0
M  V30 6497 H 602.278 4.9025 1.66959 0
M  V30 6498 H 598.955 2.77033 3.12345 0
M  V30 6499 H 600.345 6.52121 1.61826 0
M  V30 6500 N 603.065 -0.440357 1.51323 0
M  V30 6501 C 604.311 -1.19181 1.64085 0
M  V30 6502 C 604.644 -1.90936 0.354575 0
M  V30 6503 O 603.919 -1.8347 -0.645675 0
M  V30 6504 C 604.202 -2.2112 2.84215 0
M  V30 6505 C 604.055 -1.53468 4.22809 0
M  V30 6506 C 605.374 -3.22133 2.99864 0
M  V30 6507 H 602.493 -0.431924 0.597169 0
M  V30 6508 H 605.135 -0.481443 1.83799 0
M  V30 6509 H 603.285 -2.81703 2.67537 0
M  V30 6510 H 604.957 -0.962455 4.51148 0
M  V30 6511 H 603.2 -0.837086 4.25647 0
M  V30 6512 H 603.871 -2.27694 5.02852 0
M  V30 6513 H 606.347 -2.71601 3.15233 0
M  V30 6514 H 605.223 -3.90756 3.85488 0
M  V30 6515 H 605.484 -3.88061 2.11804 0
M  V30 6516 N 604.543 -1.41418 -0.695603 0
M  V30 6517 C 605.506 -1.42988 -1.79129 0
M  V30 6518 C 606.506 -0.320514 -1.57573 0
M  V30 6519 O 607.696 -0.58039 -1.64247 0
M  V30 6520 C 604.828 -1.24122 -3.175 0
M  V30 6521 H 606.021 -2.40526 -1.7913 0
M  V30 6522 H 603.574 -1.2756 -0.903225 0
M  V30 6523 H 604.309 -0.274253 -3.23138 0
M  V30 6524 H 604.094 -2.045 -3.34547 0
M  V30 6525 H 605.584 -1.28056 -3.97481 0
M  V30 6526 N 606.021 0.929856 -1.27246 0
M  V30 6527 C 606.971 2.01629 -1.06442 0
M  V30 6528 C 607.955 1.60899 0.00687842 0
M  V30 6529 O 609.147 1.75733 -0.211407 0
M  V30 6530 C 606.276 3.35849 -0.711361 0
M  V30 6531 C 605.362 3.8303 -1.82069 0
M  V30 6532 N 605.753 4.02743 -3.05993 0
M  V30 6533 C 604.051 4.12046 -1.70687 0
M  V30 6534 C 604.752 4.42001 -3.78167 0
M  V30 6535 N 603.728 4.4935 -3.05918 0
M  V30 6536 H 607.53 2.14898 -2.00489 0
M  V30 6537 H 605.044 1.11654 -1.17929 0
M  V30 6538 H 607.041 4.13343 -0.543442 0
M  V30 6539 H 605.701 3.23944 0.221517 0
M  V30 6540 H 606.712 3.89112 -3.41778 0
M  V30 6541 H 603.389 4.08866 -0.844681 0
M  V30 6542 H 604.779 4.6535 -4.84664 0
M  V30 6543 N 607.499 1.09233 1.13605 0
M  V30 6544 C 608.429 0.751738 2.21068 0
M  V30 6545 C 609.41 -0.269688 1.67948 0
M  V30 6546 O 610.595 -0.13819 1.93708 0
M  V30 6547 C 607.725 0.16935 3.46887 0
M  V30 6548 C 606.679 1.12007 4.13084 0
M  V30 6549 C 606.005 0.399483 5.33206 0
M  V30 6550 C 607.305 2.46168 4.6065 0
M  V30 6551 H 608.999 1.65024 2.49815 0
M  V30 6552 H 606.545 0.794905 1.20072 0
M  V30 6553 H 608.498 -0.0809824 4.21322 0
M  V30 6554 H 607.222 -0.764335 3.1753 0
M  V30 6555 H 605.881 1.35564 3.40614 0
M  V30 6556 H 605.529 -0.538277 5.00112 0
M  V30 6557 H 605.229 1.03337 5.78442 0
M  V30 6558 H 606.753 0.157403 6.10397 0
M  V30 6559 H 608.167 2.26829 5.26518 0
M  V30 6560 H 606.564 3.05326 5.1662 0
M  V30 6561 H 607.634 3.07076 3.75276 0
M  V30 6562 N 608.977 -1.30795 0.87923 0
M  V30 6563 C 609.887 -2.32041 0.345565 0
M  V30 6564 C 610.903 -1.65103 -0.549265 0
M  V30 6565 O 612.079 -1.9645 -0.443763 0
M  V30 6566 C 609.144 -3.43944 -0.436245 0
M  V30 6567 C 608.205 -4.26521 0.48765 0
M  V30 6568 C 607.438 -5.33081 -0.256943 0
M  V30 6569 O 607.661 -5.50762 -1.48381 0
M  V30 6570 O 606.595 -6.00635 0.389985 0
M  V30 6571 H 610.421 -2.79627 1.18501 0
M  V30 6572 H 608.006 -1.3486 0.642885 0
M  V30 6573 H 609.888 -4.12128 -0.879119 0
M  V30 6574 H 608.563 -2.98504 -1.25208 0
M  V30 6575 H 607.47 -3.61057 0.979216 0
M  V30 6576 H 608.803 -4.75551 1.26933 0
M  V30 6577 N 610.455 -0.639598 -1.44038 0
M  V30 6578 C 611.732 -0.078012 -1.95444 0
M  V30 6579 C 612.112 1.39847 -1.58133 0
M  V30 6580 O 611.46 2.11714 -0.859614 0
M  V30 6581 C 611.67 -0.309832 -3.47622 0
M  V30 6582 C 613.018 -0.207521 -4.24093 0
M  V30 6583 O 614.042 -0.241653 -3.55379 0
M  V30 6584 O 612.901 -0.119641 -5.46369 0
M  V30 6585 H 609.995 0.0174534 -0.826816 0
M  V30 6586 H 612.541 -0.711891 -1.54046 0
M  V30 6587 H 611.313 -1.33401 -3.67858 0
M  V30 6588 H 610.936 0.357777 -3.95987 0
M  V30 6589 N 611.933 1.52934 -0.380664 0
M  V30 6590 C 613.21 1.93845 0.261417 0
M  V30 6591 C 613.59 1.31544 1.65104 0
M  V30 6592 O 612.938 0.480234 2.23397 0
M  V30 6593 C 613.148 3.47739 0.296466 0
M  V30 6594 C 614.496 4.21284 0.529578 0
M  V30 6595 O 615.52 3.54199 0.377041 0
M  V30 6596 O 614.379 5.40195 0.827753 0
M  V30 6597 H 611.473 0.811318 0.160285 0
M  V30 6598 H 614.019 1.64042 -0.434544 0
M  V30 6599 H 612.791 3.85395 -0.67724 0
M  V30 6600 H 612.414 3.8382 1.0377 0
M  V30 6601 N 613.412 0.11024 1.57214 0
M  V30 6602 C 614.322 -0.857077 2.18383 0
M  V30 6603 C 615.338 -1.29915 1.1575 0
M  V30 6604 O 616.514 -1.36394 1.48184 0
M  V30 6605 C 613.579 -2.09264 2.76423 0
M  V30 6606 C 612.64 -1.70333 3.94063 0
M  V30 6607 C 611.873 -2.87999 4.49324 0
M  V30 6608 O 612.096 -4.0317 4.03497 0
M  V30 6609 O 611.03 -2.6559 5.40135 0
M  V30 6610 H 614.856 -0.366561 3.0148 0
M  V30 6611 H 612.441 -0.114914 1.48957 0
M  V30 6612 H 614.323 -2.81644 3.13456 0
M  V30 6613 H 612.998 -2.57339 1.96363 0
M  V30 6614 H 611.905 -0.950864 3.61814 0
M  V30 6615 H 613.238 -1.27007 4.75531 0
M  V30 6616 N 614.89 -1.56749 -0.16351 0
M  V30 6617 C 616.138 -1.82074 -0.87713 0
M  V30 6618 C 616.459 -0.688503 -1.82441 0
M  V30 6619 O 615.729 0.291085 -1.93725 0
M  V30 6620 H 614.309 -0.671677 -0.326893 0
M  V30 6621 H 616.971 -1.9423 -0.161459 0
M  V30 6622 H 616.067 -2.76407 -1.44934 0
M  V30 6623 N 616.368 0.432326 -1.51554 0
M  V30 6624 C 617.645 1.19288 -1.55015 0
M  V30 6625 C 618.025 2.08701 -0.317375 0
M  V30 6626 O 617.373 2.17602 0.697243 0
M  V30 6627 C 617.583 1.99037 -2.86679 0
M  V30 6628 C 618.931 2.55907 -3.38817 0
M  V30 6629 O 619.955 2.09243 -2.88263 0
M  V30 6630 O 618.814 3.41029 -4.27038 0
M  V30 6631 H 615.908 0.543369 -0.623441 0
M  V30 6632 H 618.454 0.440988 -1.6387 0
M  V30 6633 H 617.226 1.33397 -3.6786 0
M  V30 6634 H 616.849 2.81281 -2.8101 0
M  V30 6635 N 617.846 1.41785 0.688094 0
M  V30 6636 C 619.123 1.32031 1.44316 0
M  V30 6637 C 619.503 -0.0486079 2.11044 0
M  V30 6638 O 618.851 -1.06332 2.02252 0
M  V30 6639 C 619.061 2.47906 2.45649 0
M  V30 6640 C 620.409 2.89415 3.10683 0
M  V30 6641 O 621.433 2.477 2.55975 0
M  V30 6642 O 620.292 3.61573 4.09789 0
M  V30 6643 H 617.386 0.519994 0.643067 0
M  V30 6644 H 619.932 1.53765 0.71794 0
M  V30 6645 H 618.704 3.39222 1.95048 0
M  V30 6646 H 618.327 2.28089 3.25671 0
M  V30 6647 N 619.324 -0.923095 1.27737 0
M  V30 6648 C 620.601 -1.64989 1.05062 0
M  V30 6649 C 620.981 -2.07018 -0.413124 0
M  V30 6650 O 620.329 -1.80797 -1.39731 0
M  V30 6651 C 620.539 -2.84847 2.01652 0
M  V30 6652 C 621.887 -3.56083 2.31279 0
M  V30 6653 O 622.911 -2.94981 1.99662 0
M  V30 6654 O 621.77 -4.66182 2.85196 0
M  V30 6655 H 618.864 -0.723357 0.400853 0
M  V30 6656 H 621.41 -0.973224 1.3902 0
M  V30 6657 H 620.182 -2.50814 3.00347 0
M  V30 6658 H 619.805 -3.60231 1.68284 0
M  V30 6659 N 620.802 -1.09834 -1.13024 0
M  V30 6660 C 621.712 -0.753731 -2.22162 0
M  V30 6661 C 622.728 0.246105 -1.72251 0
M  V30 6662 O 623.904 0.0864051 -2.01215 0
M  V30 6663 C 620.969 -0.183958 -3.46212 0
M  V30 6664 C 620.03 -1.24028 -4.10993 0
M  V30 6665 C 619.263 -0.697597 -5.29121 0
M  V30 6666 O 619.486 0.478092 -5.68393 0
M  V30 6667 O 618.42 -1.4546 -5.84059 0
M  V30 6668 H 622.246 -1.66456 -2.5402 0
M  V30 6669 H 619.831 -0.873026 -1.21238 0
M  V30 6670 H 621.713 0.130257 -4.21199 0
M  V30 6671 H 620.388 0.699823 -3.16045 0
M  V30 6672 H 619.295 -1.60725 -3.37814 0
M  V30 6673 H 620.628 -2.09685 -4.45301 0
M  V30 6674 N 622.28 1.30327 -0.886154 0
M  V30 6675 C 623.505 2.0079 -0.519425 0
M  V30 6676 C 623.93 1.65979 0.885013 0
M  V30 6677 O 623.288 0.877043 1.58675 0
M  V30 6678 C 623.336 3.53686 -0.702758 0
M  V30 6679 O 622.44 4.11637 0.250828 0
M  V30 6680 H 621.781 0.63171 -0.204544 0
M  V30 6681 H 624.311 1.66145 -1.19402 0
M  V30 6682 H 624.321 4.03531 -0.602207 0
M  V30 6683 H 622.996 3.78361 -1.72673 0
M  V30 6684 H 621.573 3.72755 0.103873 0
M  V30 6685 N 623.758 0.647228 1.43697 0
M  V30 6686 C 624.705 -0.0480092 2.3075 0
M  V30 6687 C 625.675 -0.820705 1.44408 0
M  V30 6688 O 626.86 -0.798515 1.73287 0
M  V30 6689 C 624 -1.01259 3.2991 0
M  V30 6690 C 623.113 -0.236629 4.31351 0
M  V30 6691 C 622.248 -1.19447 5.17596 0
M  V30 6692 C 621.287 -0.408595 6.10735 0
M  V30 6693 N 620.424 -1.31772 6.89623 0
M  V30 6694 H 625.264 0.700238 2.89656 0
M  V30 6695 H 622.801 0.357082 1.427 0
M  V30 6696 H 624.759 -1.58538 3.85903 0
M  V30 6697 H 623.389 -1.72778 2.72667 0
M  V30 6698 H 622.441 0.452353 3.77701 0
M  V30 6699 H 623.753 0.374731 4.9739 0
M  V30 6700 H 622.907 -1.83809 5.78186 0
M  V30 6701 H 621.646 -1.83975 4.51669 0
M  V30 6702 H 620.651 0.24841 5.49239 0
M  V30 6703 H 621.876 0.232188 6.78703 0
M  V30 6704 H 619.822 -1.94991 6.2635 0
M  V30 6705 H 619.739 -0.760779 7.52162 0
M  V30 6706 H 621.007 -1.94967 7.54724 0
M  V30 6707 N 625.236 -1.5273 0.388769 0
M  V30 6708 C 626.186 -2.23238 -0.463567 0
M  V30 6709 C 627.17 -1.23606 -1.03007 0
M  V30 6710 O 628.362 -1.48945 -0.956261 0
M  V30 6711 C 625.491 -3.04228 -1.5906 0
M  V30 6712 C 624.577 -4.11255 -1.03587 0
M  V30 6713 N 624.968 -5.0538 -0.206038 0
M  V30 6714 C 623.266 -4.26376 -1.30841 0
M  V30 6715 C 623.967 -5.81613 0.100359 0
M  V30 6716 N 622.943 -5.41264 -0.503447 0
M  V30 6717 H 626.745 -2.93367 0.176978 0
M  V30 6718 H 624.259 -1.61188 0.198046 0
M  V30 6719 H 626.256 -3.53277 -2.21362 0
M  V30 6720 H 624.916 -2.35634 -2.23398 0
M  V30 6721 H 625.927 -5.17663 0.156659 0
M  V30 6722 H 622.604 -3.69011 -1.95287 0
M  V30 6723 H 623.994 -6.67442 0.772676 0
M  V30 6724 N 626.714 -0.118576 -1.57153 0
M  V30 6725 C 627.939 0.550582 -1.99958 0
M  V30 6726 C 628.364 1.59458 -0.997736 0
M  V30 6727 O 627.722 1.81274 0.0306269 0
M  V30 6728 C 627.77 1.15379 -3.41643 0
M  V30 6729 O 626.874 2.26932 -3.44348 0
M  V30 6730 H 626.215 0.137567 -0.649593 0
M  V30 6731 H 628.745 -0.206926 -2.03551 0
M  V30 6732 H 628.755 1.48942 -3.79843 0
M  V30 6733 H 627.43 0.389087 -4.14076 0
M  V30 6734 H 626.007 1.94812 -3.17967 0
M  V30 6735 N 628.193 1.56834 0.155195 0
M  V30 6736 C 629.421 1.87049 0.884326 0
M  V30 6737 C 629.836 0.705839 1.7511 0
M  V30 6738 O 629.193 -0.324641 1.79589 0
M  V30 6739 C 629.244 3.1644 1.74781 0
M  V30 6740 O 628.965 4.28417 0.915978 0
M  V30 6741 C 630.466 3.60113 2.58522 0
M  V30 6742 H 627.686 0.620196 0.25612 0
M  V30 6743 H 630.23 2.03946 0.150445 0
M  V30 6744 H 628.385 3.01321 2.43484 0
M  V30 6745 H 628.799 5.02353 1.50803 0
M  V30 6746 H 630.273 4.53508 3.14698 0
M  V30 6747 H 630.75 2.85005 3.34169 0
M  V30 6748 H 631.356 3.77898 1.95124 0
M  V30 6749 N 629.671 -0.424282 1.51781 0
M  V30 6750 C 630.601 -1.52305 1.7699 0
M  V30 6751 C 631.582 -1.5839 0.620209 0
M  V30 6752 O 632.767 -1.73908 0.864268 0
M  V30 6753 C 629.897 -2.90271 1.90683 0
M  V30 6754 C 628.851 -2.99043 3.06198 0
M  V30 6755 C 628.177 -4.39116 3.05092 0
M  V30 6756 C 629.477 -2.7192 4.45934 0
M  V30 6757 H 631.171 -1.31461 2.68995 0
M  V30 6758 H 628.717 -0.630985 1.29439 0
M  V30 6759 H 630.67 -3.6711 2.06901 0
M  V30 6760 H 629.394 -3.12376 0.953365 0
M  V30 6761 H 628.053 -2.24646 2.89706 0
M  V30 6762 H 627.701 -4.58207 2.07498 0
M  V30 6763 H 627.401 -4.45912 3.82669 0
M  V30 6764 H 628.925 -5.17911 3.2342 0
M  V30 6765 H 630.339 -3.38487 4.62709 0
M  V30 6766 H 628.736 -2.90111 5.25315 0
M  V30 6767 H 629.806 -1.67445 4.55072 0
M  V30 6768 N 631.149 -1.42148 -0.680565 0
M  V30 6769 C 632.096 -1.45175 -1.79424 0
M  V30 6770 C 633.066 -0.304352 -1.63288 0
M  V30 6771 O 634.251 -0.507591 -1.83924 0
M  V30 6772 C 631.391 -1.35429 -3.17416 0
M  V30 6773 C 630.504 -2.60158 -3.4488 0
M  V30 6774 C 629.639 -2.42596 -4.72568 0
M  V30 6775 C 628.678 -3.62727 -4.93047 0
M  V30 6776 N 627.815 -3.44143 -6.11973 0
M  V30 6777 H 632.655 -2.40349 -1.76172 0
M  V30 6778 H 630.192 -1.19334 -0.860107 0
M  V30 6779 H 632.15 -1.27777 -3.97151 0
M  V30 6780 H 630.78 -0.438536 -3.19807 0
M  V30 6781 H 629.832 -2.78199 -2.5944 0
M  V30 6782 H 631.144 -3.49473 -3.55908 0
M  V30 6783 H 630.298 -2.32497 -5.60384 0
M  V30 6784 H 629.037 -1.50761 -4.63813 0
M  V30 6785 H 628.042 -3.73264 -4.03676 0
M  V30 6786 H 629.267 -4.55534 -5.03652 0
M  V30 6787 H 627.213 -2.5502 -6.04401 0
M  V30 6788 H 627.13 -4.27041 -6.23836 0
M  V30 6789 H 628.398 -3.37845 -7.02482 0
M  V30 6790 N 632.627 0.916307 -1.28225 0
M  V30 6791 C 633.59 1.99996 -1.11957 0
M  V30 6792 C 634.59 1.60688 -0.0600152 0
M  V30 6793 O 635.78 1.71499 -0.30558 0
M  V30 6794 C 632.912 3.33458 -0.708411 0
M  V30 6795 H 634.105 2.15858 -2.08196 0
M  V30 6796 H 631.658 1.09863 -1.11175 0
M  V30 6797 H 632.393 3.23297 0.254859 0
M  V30 6798 H 632.178 3.63349 -1.47377 0
M  V30 6799 H 633.668 4.13014 -0.617164 0
M  V30 6800 N 634.105 1.10431 1.1244 0
M  V30 6801 C 635.052 0.753103 2.18167 0
M  V30 6802 C 636.022 -0.270549 1.63882 0
M  V30 6803 O 637.207 -0.149837 1.90211 0
M  V30 6804 C 634.347 0.191046 3.44571 0
M  V30 6805 C 633.46 1.26999 4.12911 0
M  V30 6806 C 632.595 0.669586 5.26963 0
M  V30 6807 C 631.634 1.72912 5.87169 0
M  V30 6808 N 630.771 1.14898 6.92635 0
M  V30 6809 H 635.611 1.65892 2.47556 0
M  V30 6810 H 633.148 0.828631 1.21541 0
M  V30 6811 H 635.106 -0.152712 4.1692 0
M  V30 6812 H 633.736 -0.677997 3.15599 0
M  V30 6813 H 632.788 1.73087 3.3874 0
M  V30 6814 H 634.1 2.07204 4.53727 0
M  V30 6815 H 633.254 0.275274 6.06075 0
M  V30 6816 H 631.993 -0.163895 4.87425 0
M  V30 6817 H 630.998 2.13286 5.06744 0
M  V30 6818 H 632.223 2.56544 6.28778 0
M  V30 6819 H 630.169 0.336956 6.55134 0
M  V30 6820 H 630.086 1.88786 7.32049 0
M  V30 6821 H 631.354 0.78121 7.75576 0
M  V30 6822 N 635.583 -1.29855 0.893053 0
M  V30 6823 C 636.832 -1.95104 0.511597 0
M  V30 6824 C 637.145 -1.71226 -0.945567 0
M  V30 6825 O 638.351 -2.30525 -1.43424 0
M  V30 6826 C 636.807 -3.49374 0.864034 0
M  V30 6827 C 636.415 -3.82061 2.33952 0
M  V30 6828 C 638.159 -4.20894 0.552167 0
M  V30 6829 C 636.066 -5.29546 2.63316 0
M  V30 6830 H 634.996 -0.73029 0.187597 0
M  V30 6831 H 637.647 -1.47682 1.08914 0
M  V30 6832 H 636.029 -3.95413 0.215493 0
M  V30 6833 H 637.203 -3.46904 3.03305 0
M  V30 6834 H 635.518 -3.23665 2.61973 0
M  V30 6835 H 638.115 -5.29435 0.748489 0
M  V30 6836 H 638.458 -4.13178 -0.508924 0
M  V30 6837 H 638.991 -3.80564 1.15825 0
M  V30 6838 H 635.73 -5.4232 3.68197 0
M  V30 6839 H 635.25 -5.65974 1.9858 0
M  V30 6840 H 636.929 -5.97068 2.49236 0
M  V30 6841 N 637.061 -0.65484 -1.43351 0
M  V30 6842 C 638.472 -0.248506 -1.85039 0
M  V30 6843 C 638.823 1.20526 -1.54816 0
M  V30 6844 O 637.948 1.92016 -0.99794 0
M  V30 6845 C 638.543 -0.444241 -3.35875 0
M  V30 6846 C 637.102 -0.0922108 -3.76287 0
M  V30 6847 C 636.249 -0.746327 -2.67068 0
M  V30 6848 H 639.2 -0.8584 -1.33481 0
M  V30 6849 H 639.221 0.309762 -3.79237 0
M  V30 6850 H 638.733 -1.50239 -3.5784 0
M  V30 6851 H 636.834 0.96328 -3.59933 0
M  V30 6852 H 636.947 -0.518807 -4.76283 0
M  V30 6853 H 635.311 -0.179416 -2.54067 0
M  V30 6854 H 636.094 -1.80754 -2.91861 0
M  V30 6855 N 638.539 1.52521 -0.396863 0
M  V30 6856 C 639.95 1.86547 0.0754868 0
M  V30 6857 C 640.301 1.31621 1.45501 0
M  V30 6858 O 639.426 0.650563 2.0639 0
M  V30 6859 C 640.021 3.38495 0.143754 0
M  V30 6860 C 638.58 3.72205 0.560413 0
M  V30 6861 C 637.727 2.75954 -0.272856 0
M  V30 6862 H 640.678 1.46323 -0.614434 0
M  V30 6863 H 640.699 3.68153 0.961425 0
M  V30 6864 H 640.211 3.78442 -0.860415 0
M  V30 6865 H 638.312 3.3783 1.57167 0
M  V30 6866 H 638.425 4.78074 0.313314 0
M  V30 6867 H 636.789 2.53339 0.263 0
M  V30 6868 H 637.572 3.1874 -1.27515 0
M  V30 6869 N 640.017 0.126909 1.57088 0
M  V30 6870 C 641.428 -0.397201 1.82426 0
M  V30 6871 C 641.779 -1.66084 1.04453 0
M  V30 6872 O 640.904 -2.14534 0.283552 0
M  V30 6873 C 641.499 -0.727411 3.30899 0
M  V30 6874 C 640.058 -1.19612 3.56889 0
M  V30 6875 C 639.205 -0.20885 2.76512 0
M  V30 6876 H 642.156 0.351924 1.54749 0
M  V30 6877 H 642.177 -1.58407 3.45959 0
M  V30 6878 H 641.689 0.19247 3.87622 0
M  V30 6879 H 639.79 -2.13263 3.05532 0
M  V30 6880 H 639.903 -1.13598 4.65438 0
M  V30 6881 H 638.267 -0.697479 2.44964 0
M  V30 6882 H 639.05 0.704267 3.35998 0
M  V30 6883 N 641.495 -1.56914 -0.146875 0
M  V30 6884 C 642.425 -2.01308 -1.1831 0
M  V30 6885 C 643.406 -0.892664 -1.44795 0
M  V30 6886 O 644.591 -1.16048 -1.55713 0
M  V30 6887 C 641.721 -2.3938 -2.51624 0
M  V30 6888 C 640.675 -3.54608 -2.3966 0
M  V30 6889 C 640.001 -3.78493 -3.77686 0
M  V30 6890 C 641.301 -4.87269 -1.88058 0
M  V30 6891 H 642.995 -2.88123 -0.813964 0
M  V30 6892 H 640.541 -1.38615 -0.3901 0
M  V30 6893 H 642.494 -2.69037 -3.24341 0
M  V30 6894 H 641.218 -1.49502 -2.90373 0
M  V30 6895 H 639.877 -3.25116 -1.69396 0
M  V30 6896 H 639.525 -2.85866 -4.13871 0
M  V30 6897 H 639.225 -4.56039 -3.70543 0
M  V30 6898 H 640.749 -4.10576 -4.51951 0
M  V30 6899 H 642.163 -5.15644 -2.50568 0
M  V30 6900 H 640.56 -5.68622 -1.91805 0
M  V30 6901 H 641.63 -4.77634 -0.836277 0
M  V30 6902 N 642.974 0.416227 -1.52004 0
M  V30 6903 C 644.385 0.995319 -1.57957 0
M  V30 6904 C 644.736 1.91744 -0.415754 0
M  V30 6905 O 643.861 2.11349 0.464808 0
M  V30 6906 C 644.456 1.81191 -2.86278 0
M  V30 6907 C 643.015 2.34115 -2.94732 0
M  V30 6908 C 642.162 1.139 -2.52828 0
M  V30 6909 H 645.113 0.196716 -1.57476 0
M  V30 6910 H 645.134 2.66859 -2.71231 0
M  V30 6911 H 644.646 1.14051 -3.70963 0
M  V30 6912 H 642.747 3.04647 -2.14525 0
M  V30 6913 H 642.86 2.65466 -3.98829 0
M  V30 6914 H 641.224 1.49081 -2.06511 0
M  V30 6915 H 642.007 0.483383 -3.3988 0
M  V30 6916 N 644.452 1.42507 0.673017 0
M  V30 6917 C 645.863 1.38347 1.25367 0
M  V30 6918 C 646.214 0.0776327 1.96046 0
M  V30 6919 O 645.339 -0.823571 2.00116 0
M  V30 6920 C 645.934 2.506 2.28002 0
M  V30 6921 C 644.493 2.49767 2.81591 0
M  V30 6922 C 643.64 2.293 1.55938 0
M  V30 6923 H 646.591 1.51695 0.466288 0
M  V30 6924 H 646.612 2.20953 3.09774 0
M  V30 6925 H 646.124 3.45627 1.76532 0
M  V30 6926 H 644.225 1.58563 3.37177 0
M  V30 6927 H 644.338 3.46867 3.30485 0
M  V30 6928 H 642.702 1.77594 1.82572 0
M  V30 6929 H 643.485 3.26385 1.06431 0
M  V30 6930 N 645.93 -0.909495 1.28709 0
M  V30 6931 C 646.877 -2.01245 1.13 0
M  V30 6932 C 647.847 -1.6608 0.0259684 0
M  V30 6933 O 649.032 -1.89835 0.191687 0
M  V30 6934 C 646.172 -3.35644 0.802315 0
M  V30 6935 C 645.285 -3.83653 1.98582 0
M  V30 6936 C 644.42 -5.06582 1.59837 0
M  V30 6937 C 643.459 -5.46934 2.74827 0
M  V30 6938 N 642.596 -6.61053 2.36546 0
M  V30 6939 H 647.436 -2.14013 2.0737 0
M  V30 6940 H 644.973 -1.0482 1.03205 0
M  V30 6941 H 646.931 -4.12963 0.593057 0
M  V30 6942 H 645.561 -3.22631 -0.104457 0
M  V30 6943 H 644.613 -3.02454 2.30708 0
M  V30 6944 H 645.925 -4.09515 2.84779 0
M  V30 6945 H 645.079 -5.91457 1.35143 0
M  V30 6946 H 643.818 -4.82537 0.707753 0
M  V30 6947 H 642.823 -4.60599 3.00215 0
M  V30 6948 H 644.048 -5.72965 3.64538 0
M  V30 6949 H 641.994 -6.3863 1.49959 0
M  V30 6950 H 641.911 -6.86662 3.16277 0
M  V30 6951 H 643.179 -7.49221 2.15146 0
M  V30 6952 N 647.408 -1.11026 -1.11852 0
M  V30 6953 C 648.819 -0.873203 -1.65021 0
M  V30 6954 C 649.17 0.595364 -1.86949 0
M  V30 6955 O 648.295 1.45645 -1.60051 0
M  V30 6956 C 648.89 -1.57859 -2.99777 0
M  V30 6957 C 647.449 -1.38807 -3.49871 0
M  V30 6958 C 646.596 -1.62403 -2.24768 0
M  V30 6959 H 649.547 -1.26712 -0.955503 0
M  V30 6960 H 649.568 -1.02111 -3.66543 0
M  V30 6961 H 649.08 -2.6474 -2.83786 0
M  V30 6962 H 647.181 -0.341163 -3.71035 0
M  V30 6963 H 647.294 -2.13421 -4.28938 0
M  V30 6964 H 645.658 -1.04714 -2.32179 0
M  V30 6965 H 646.441 -2.70549 -2.11324 0
M  V30 6966 N 648.886 1.2938 -0.899927 0
M  V30 6967 C 649.833 2.27713 -0.376243 0
M  V30 6968 C 650.803 1.57016 0.541774 0
M  V30 6969 O 651.988 1.84997 0.466966 0
M  V30 6970 C 649.128 3.42889 0.39 0
M  V30 6971 C 648.241 4.28369 -0.558938 0
M  V30 6972 C 647.376 5.30726 0.224379 0
M  V30 6973 C 646.415 6.07862 -0.719068 0
M  V30 6974 N 645.552 7.02094 0.0298569 0
M  V30 6975 H 650.392 2.71888 -1.21988 0
M  V30 6976 H 647.929 1.33724 -0.612879 0
M  V30 6977 H 649.887 4.08443 0.850314 0
M  V30 6978 H 648.517 2.99743 1.19809 0
M  V30 6979 H 647.569 3.62986 -1.13777 0
M  V30 6980 H 648.881 4.82068 -1.2811 0
M  V30 6981 H 648.035 6.02098 0.745881 0
M  V30 6982 H 646.774 4.77759 0.979674 0
M  V30 6983 H 645.779 5.35353 -1.25207 0
M  V30 6984 H 647.004 6.62917 -1.4737 0
M  V30 6985 H 644.95 6.51496 0.767415 0
M  V30 6986 H 644.867 7.5335 -0.632391 0
M  V30 6987 H 646.135 7.77685 0.531615 0
M  V30 6988 N 650.364 0.662433 1.43002 0
M  V30 6989 C 651.589 0.186003 2.06564 0
M  V30 6990 C 652.014 -1.14314 1.49379 0
M  V30 6991 O 651.372 -1.70824 0.607346 0
M  V30 6992 C 651.42 0.118269 3.60406 0
M  V30 6993 O 650.524 -0.916859 4.02079 0
M  V30 6994 H 649.865 0.0990981 0.656563 0
M  V30 6995 H 652.395 0.907958 1.8335 0
M  V30 6996 H 652.405 -0.0619981 4.07953 0
M  V30 6997 H 651.08 1.08849 4.01403 0
M  V30 6998 H 649.657 -0.708635 3.66105 0
M  V30 6999 N 651.842 -1.52309 0.404946 0
M  V30 7000 C 653.091 -2.00952 -0.173529 0
M  V30 7001 C 653.404 -1.29512 -1.46581 0
M  V30 7002 O 654.61 -1.6895 -2.12528 0
M  V30 7003 C 653.066 -3.58097 -0.359801 0
M  V30 7004 C 652.674 -4.38449 0.920138 0
M  V30 7005 C 654.418 -4.14984 -0.893794 0
M  V30 7006 C 652.325 -5.87227 0.701285 0
M  V30 7007 H 651.255 -0.750871 -0.0686244 0
M  V30 7008 H 653.906 -1.75687 0.529749 0
M  V30 7009 H 652.288 -3.79675 -1.12531 0
M  V30 7010 H 653.462 -4.28633 1.69147 0
M  V30 7011 H 651.777 -3.92859 1.38024 0
M  V30 7012 H 654.374 -5.23813 -1.0735 0
M  V30 7013 H 654.717 -3.72072 -1.8673 0
M  V30 7014 H 655.25 -3.97358 -0.187453 0
M  V30 7015 H 651.989 -6.34491 1.64624 0
M  V30 7016 H 651.509 -5.99792 -0.0308288 0
M  V30 7017 H 653.188 -6.46096 0.341846 0
M  V30 7018 N 653.32 -0.135238 -1.57019 0
M  V30 7019 C 654.567 0.518794 -1.95742 0
M  V30 7020 C 654.895 1.65642 -1.01947 0
M  V30 7021 O 654.15 1.95645 -0.0464016 0
M  V30 7022 C 654.449 1.07694 -3.40788 0
M  V30 7023 C 654.115 0.058992 -4.50861 0
M  V30 7024 C 652.777 -0.220872 -4.80693 0
M  V30 7025 C 655.129 -0.633856 -5.17331 0
M  V30 7026 C 652.457 -1.19959 -5.74305 0
M  V30 7027 C 654.809 -1.60131 -6.11997 0
M  V30 7028 C 653.473 -1.889 -6.40213 0
M  V30 7029 H 652.743 0.18984 -0.716269 0
M  V30 7030 H 655.39 -0.219581 -1.90237 0
M  V30 7031 H 653.695 1.89241 -3.43067 0
M  V30 7032 H 655.392 1.59137 -3.68071 0
M  V30 7033 H 651.982 0.287304 -4.27636 0
M  V30 7034 H 656.166 -0.430823 -4.94427 0
M  V30 7035 H 651.422 -1.42905 -5.94465 0
M  V30 7036 H 655.596 -2.14376 -6.62583 0
M  V30 7037 H 653.223 -2.64891 -7.12556 0
M  V30 7038 N 654.798 1.5699 0.138552 0
M  V30 7039 C 656.047 1.82998 0.848205 0
M  V30 7040 C 656.36 0.717829 1.81952 0
M  V30 7041 O 657.566 0.863756 2.57394 0
M  V30 7042 C 656.022 3.24379 1.55904 0
M  V30 7043 C 655.63 4.43552 0.62971 0
M  V30 7044 C 657.374 3.59654 2.25498 0
M  V30 7045 C 655.281 5.75957 1.34266 0
M  V30 7046 H 654.211 0.682495 0.320495 0
M  V30 7047 H 656.862 1.83222 0.100924 0
M  V30 7048 H 655.244 3.18567 2.35226 0
M  V30 7049 H 656.418 4.6062 -0.128882 0
M  V30 7050 H 654.733 4.16379 0.0417526 0
M  V30 7051 H 657.33 4.55837 2.79493 0
M  V30 7052 H 657.673 2.86124 3.02388 0
M  V30 7053 H 658.206 3.67164 1.53087 0
M  V30 7054 H 654.945 6.52604 0.615441 0
M  V30 7055 H 654.465 5.62811 2.07375 0
M  V30 7056 H 656.144 6.19046 1.88126 0
M  V30 7057 N 656.276 -0.40816 1.52223 0
M  V30 7058 C 657.687 -0.986929 1.58482 0
M  V30 7059 C 658.038 -1.91521 0.425917 0
M  V30 7060 O 657.163 -2.11593 -0.453593 0
M  V30 7061 C 657.758 -1.7967 2.87235 0
M  V30 7062 C 656.317 -2.32549 2.9597 0
M  V30 7063 C 655.464 -1.12558 2.53428 0
M  V30 7064 H 658.415 -0.188362 1.57578 0
M  V30 7065 H 658.436 -2.65417 2.72642 0
M  V30 7066 H 657.948 -1.12082 3.71563 0
M  V30 7067 H 656.049 -3.03505 2.16137 0
M  V30 7068 H 656.162 -2.63348 4.00231 0
M  V30 7069 H 654.526 -1.47984 2.07299 0
M  V30 7070 H 655.309 -0.465351 3.40131 0
M  V30 7071 N 657.755 -1.42862 -0.66545 0
M  V30 7072 C 658.687 -1.43026 -1.79098 0
M  V30 7073 C 659.7 -0.32803 -1.59461 0
M  V30 7074 O 660.889 -0.591709 -1.68407 0
M  V30 7075 C 657.989 -1.21566 -3.16346 0
M  V30 7076 C 657.162 -2.44399 -3.62751 0
M  V30 7077 C 656.221 -2.18344 -4.78761 0
M  V30 7078 O 655.247 -2.91611 -4.88827 0
M  V30 7079 N 656.449 -1.1924 -5.68122 0
M  V30 7080 H 659.214 -2.40045 -1.79439 0
M  V30 7081 H 656.775 -1.37861 -0.848872 0
M  V30 7082 H 658.767 -1.02037 -3.91625 0
M  V30 7083 H 657.337 -0.330368 -3.10849 0
M  V30 7084 H 656.557 -2.79433 -2.78048 0
M  V30 7085 H 657.845 -3.26173 -3.90498 0
M  V30 7086 H 657.243 -0.586603 -5.6265 0
M  V30 7087 H 655.8 -1.05698 -6.43173 0
M  V30 7088 N 659.233 0.902656 -1.29189 0
M  V30 7089 C 660.143 2.03946 -1.15944 0
M  V30 7090 C 661.159 1.738 -0.0833803 0
M  V30 7091 O 662.335 1.9923 -0.29487 0
M  V30 7092 C 659.4 3.36519 -0.834006 0
M  V30 7093 C 658.461 3.80203 -1.9936 0
M  V30 7094 C 657.694 5.06449 -1.68359 0
M  V30 7095 O 657.917 5.67202 -0.603141 0
M  V30 7096 O 656.851 5.46114 -2.53067 0
M  V30 7097 H 660.677 2.18043 -2.11403 0
M  V30 7098 H 658.262 1.02584 -1.08613 0
M  V30 7099 H 660.144 4.16089 -0.666949 0
M  V30 7100 H 658.819 3.23573 0.0908245 0
M  V30 7101 H 657.726 3.01413 -2.21588 0
M  V30 7102 H 659.059 3.97729 -2.89952 0
M  V30 7103 N 660.711 1.11618 1.11262 0
M  V30 7104 C 661.644 0.719995 2.16544 0
M  V30 7105 C 662.622 -0.28471 1.60088 0
M  V30 7106 O 663.806 -0.180693 1.87632 0
M  V30 7107 C 660.933 0.0643302 3.38639 0
M  V30 7108 C 659.979 1.03448 4.13764 0
M  V30 7109 S 660.812 2.55789 4.70459 0
M  V30 7110 C 661.968 1.91529 5.95875 0
M  V30 7111 H 662.201 1.61181 2.49816 0
M  V30 7112 H 659.734 0.934401 1.22916 0
M  V30 7113 H 661.692 -0.307609 4.09346 0
M  V30 7114 H 660.353 -0.804471 3.03623 0
M  V30 7115 H 659.546 0.523188 5.01277 0
M  V30 7116 H 659.148 1.34893 3.48826 0
M  V30 7117 H 661.44 1.25286 6.65815 0
M  V30 7118 H 662.383 2.77047 6.51652 0
M  V30 7119 H 662.791 1.37468 5.47506 0
M  V30 7120 N 662.189 -1.289 0.906776 0
M  V30 7121 C 663.139 -2.25122 0.361109 0
M  V30 7122 C 664.123 -1.52169 -0.52283 0
M  V30 7123 O 665.315 -1.73223 -0.363691 0
M  V30 7124 C 662.444 -3.40915 -0.403982 0
M  V30 7125 C 661.53 -4.21198 0.495279 0
M  V30 7126 N 661.921 -4.79636 1.60572 0
M  V30 7127 C 660.219 -4.45027 0.294372 0
M  V30 7128 C 660.92 -5.39977 2.16332 0
M  V30 7129 N 659.896 -5.23753 1.45546 0
M  V30 7130 H 663.698 -2.67869 1.20927 0
M  V30 7131 H 661.212 -1.43592 0.758632 0
M  V30 7132 H 663.209 -4.08922 -0.811695 0
M  V30 7133 H 661.869 -2.99703 -1.24932 0
M  V30 7134 H 662.88 -4.78209 1.98838 0
M  V30 7135 H 659.557 -4.14348 -0.512021 0
M  V30 7136 H 660.947 -5.96266 3.09704 0
M  V30 7137 N 663.667 -0.670007 -1.42649 0
M  V30 7138 C 664.892 -0.196955 -2.06463 0
M  V30 7139 C 665.317 1.1352 -1.49983 0
M  V30 7140 O 664.675 1.705 -0.616397 0
M  V30 7141 C 664.723 -0.137381 -3.60338 0
M  V30 7142 O 663.827 0.895523 -4.02559 0
M  V30 7143 H 663.168 -0.102579 -0.656029 0
M  V30 7144 H 665.698 -0.917669 -1.82866 0
M  V30 7145 H 665.708 0.0403625 -4.0798 0
M  V30 7146 H 664.383 -1.10977 -4.0082 0
M  V30 7147 H 662.96 0.689209 -3.66476 0
M  V30 7148 N 665.145 1.52092 -0.413018 0
M  V30 7149 C 666.373 2.06274 0.160881 0
M  V30 7150 C 666.788 1.28273 1.38533 0
M  V30 7151 O 666.145 0.33563 1.79387 0
M  V30 7152 C 666.196 3.57921 0.507443 0
M  V30 7153 O 665.917 4.32971 -0.668388 0
M  V30 7154 C 667.418 4.28533 1.13465 0
M  V30 7155 H 664.638 0.67074 0.0186759 0
M  V30 7156 H 667.182 1.95951 -0.585092 0
M  V30 7157 H 665.337 3.68238 1.20331 0
M  V30 7158 H 665.751 5.23135 -0.378169 0
M  V30 7159 H 667.225 5.35804 1.32732 0
M  V30 7160 H 667.702 3.85258 2.10886 0
M  V30 7161 H 668.308 4.22595 0.478876 0
M  V30 7162 N 666.623 0.143563 1.56945 0
M  V30 7163 C 667.533 -0.810562 2.20152 0
M  V30 7164 C 668.549 -1.27431 1.1848 0
M  V30 7165 O 669.725 -1.33221 1.51044 0
M  V30 7166 C 666.79 -2.03353 2.80799 0
M  V30 7167 C 665.851 -1.61936 3.97587 0
M  V30 7168 C 665.084 -2.78403 4.55332 0
M  V30 7169 O 665.307 -3.94521 4.11958 0
M  V30 7170 O 664.241 -2.54073 5.45647 0
M  V30 7171 H 668.067 -0.30253 3.02189 0
M  V30 7172 H 665.652 -0.0832925 1.49168 0
M  V30 7173 H 667.534 -2.74932 3.19359 0
M  V30 7174 H 666.209 -2.53116 2.01777 0
M  V30 7175 H 665.116 -0.873904 3.6375 0
M  V30 7176 H 666.449 -1.16892 4.78118 0
M  V30 7177 N 668.101 -1.57061 -0.130224 0
M  V30 7178 C 669.378 -1.75205 -0.869631 0
M  V30 7179 C 669.758 -0.716063 -1.98584 0
M  V30 7180 O 669.106 0.262032 -2.26993 0
M  V30 7181 C 669.316 -3.19835 -1.39666 0
M  V30 7182 C 670.664 -3.82011 -1.85345 0
M  V30 7183 O 671.688 -3.23368 -1.49371 0
M  V30 7184 O 670.547 -4.85064 -2.51744 0
M  V30 7185 H 667.641 -0.716977 -0.412157 0
M  V30 7186 H 670.187 -1.69311 -0.11484 0
M  V30 7187 H 668.959 -3.86745 -0.595288 0
M  V30 7188 H 668.582 -3.30222 -2.21448 0
M  V30 7189 N 669.579 0.400081 -1.52437 0
M  V30 7190 C 670.489 1.51253 -1.79331 0
M  V30 7191 C 671.505 1.60188 -0.679396 0
M  V30 7192 O 672.681 1.76733 -0.965791 0
M  V30 7193 C 669.746 2.869 -1.94652 0
M  V30 7194 C 668.807 2.87777 -3.18564 0
M  V30 7195 C 668.04 4.16954 -3.33145 0
M  V30 7196 O 668.263 5.11329 -2.52783 0
M  V30 7197 O 667.197 4.2487 -4.26343 0
M  V30 7198 H 671.023 1.31461 -2.73773 0
M  V30 7199 H 668.608 0.586834 -1.37392 0
M  V30 7200 H 670.49 3.67336 -2.065 0
M  V30 7201 H 669.165 3.06741 -1.034 0
M  V30 7202 H 668.072 2.06162 -3.12167 0
M  V30 7203 H 669.405 2.72886 -4.09627 0
M  V30 7204 N 671.057 1.43213 0.657864 0
M  V30 7205 C 672.005 1.48271 1.79216 0
M  V30 7206 C 672.999 0.35675 1.65601 0
M  V30 7207 O 674.205 0.530535 1.72004 0
M  V30 7208 H 670.58 0.464729 0.591211 0
M  V30 7209 H 672.551 2.43792 1.7207 0
M  V30 7210 C 671.3 1.41837 3.17455 0
M  V30 7211 H 670.623 2.27781 3.28567 0
M  V30 7212 H 672.063 1.49438 3.96793 0
M  V30 7213 C 670.522 0.135347 3.36628 0
M  V30 7214 O 671.052 -0.805199 3.93547 0
M  V30 7215 N 669.258 0.0470316 2.90562 0
M  V30 7216 H 668.805 0.813221 2.44427 0
M  V30 7217 H 668.763 -0.810737 3.03767 0
M  V30 7218 N 672.536 -0.895792 1.29666 0
M  V30 7219 C 673.468 -2.00563 1.10937 0
M  V30 7220 C 674.481 -1.62705 0.055734 0
M  V30 7221 O 675.67 -1.7595 0.300656 0
M  V30 7222 C 672.77 -3.32262 0.667448 0
M  V30 7223 C 671.943 -3.98625 1.80047 0
M  V30 7224 C 671.002 -5.08617 1.3489 0
M  V30 7225 O 670.028 -5.30837 2.05429 0
M  V30 7226 N 671.23 -5.80076 0.221937 0
M  V30 7227 H 673.995 -2.17184 2.06522 0
M  V30 7228 H 671.556 -1.06822 1.21658 0
M  V30 7229 H 673.548 -4.03196 0.348586 0
M  V30 7230 H 672.118 -3.11985 -0.196055 0
M  V30 7231 H 671.338 -3.21005 2.28801 0
M  V30 7232 H 672.626 -4.39704 2.56003 0
M  V30 7233 H 672.024 -5.64514 -0.366084 0
M  V30 7234 H 670.581 -6.51789 -0.0375346 0
M  V30 7235 N 674.014 -1.12206 -1.10668 0
M  V30 7236 C 675.262 -0.874144 -1.82217 0
M  V30 7237 C 675.583 0.601736 -1.85484 0
M  V30 7238 O 674.853 1.43725 -1.33116 0
M  V30 7239 H 673.433 -0.320404 -0.674797 0
M  V30 7240 H 676.095 -1.41606 -1.33917 0
M  V30 7241 H 675.191 -1.25349 -2.85822 0
M  V30 7242 N 675.492 1.28418 -0.913599 0
M  V30 7243 C 676.72 1.99106 -0.562536 0
M  V30 7244 C 677.135 1.68273 0.856137 0
M  V30 7245 O 676.492 0.935401 1.56705 0
M  V30 7246 C 676.543 3.5338 -0.761903 0
M  V30 7247 O 676.264 3.83127 -2.12475 0
M  V30 7248 C 677.765 4.41328 -0.417651 0
M  V30 7249 H 674.985 0.635798 -0.214481 0
M  V30 7250 H 677.529 1.63618 -1.22676 0
M  V30 7251 H 675.684 3.8713 -0.144676 0
M  V30 7252 H 676.098 4.77763 -2.16431 0
M  V30 7253 H 677.572 5.48642 -0.607919 0
M  V30 7254 H 678.049 4.34422 0.646108 0
M  V30 7255 H 678.655 4.13074 -1.01241 0
M  V30 7256 N 676.97 0.677563 1.42291 0
M  V30 7257 C 678.219 0.198173 2.00724 0
M  V30 7258 C 678.532 -1.20325 1.54211 0
M  V30 7259 O 679.738 -1.77916 2.05081 0
M  V30 7260 C 678.194 0.303432 3.58619 0
M  V30 7261 C 677.802 1.70909 4.14119 0
M  V30 7262 C 679.546 -0.117103 4.24338 0
M  V30 7263 C 677.453 1.76696 5.64387 0
M  V30 7264 H 676.383 0.070329 0.750713 0
M  V30 7265 H 679.034 0.843147 1.62982 0
M  V30 7266 H 677.416 -0.409482 3.93877 0
M  V30 7267 H 678.59 2.44931 3.90315 0
M  V30 7268 H 676.905 2.07771 3.6086 0
M  V30 7269 H 679.502 -0.0940471 5.34617 0
M  V30 7270 H 679.845 -1.15283 4.00019 0
M  V30 7271 H 680.378 0.5449 3.9405 0
M  V30 7272 H 677.117 2.7826 5.93508 0
M  V30 7273 H 676.637 1.07034 5.90173 0
M  V30 7274 H 678.316 1.52166 6.28852 0
M  V30 7275 N 678.448 -1.51871 0.421078 0
M  V30 7276 C 679.395 -2.27334 -0.398508 0
M  V30 7277 C 680.365 -1.30241 -1.03085 0
M  V30 7278 O 681.55 -1.59121 -1.05285 0
M  V30 7279 C 678.69 -3.10664 -1.50272 0
M  V30 7280 C 677.803 -4.2273 -0.890122 0
M  V30 7281 C 676.938 -4.93399 -1.96803 0
M  V30 7282 C 675.977 -5.97409 -1.333 0
M  V30 7283 N 675.114 -6.61548 -2.35156 0
M  V30 7284 H 679.954 -2.96938 0.251411 0
M  V30 7285 H 677.491 -1.46472 0.135825 0
M  V30 7286 H 679.449 -3.57292 -2.15403 0
M  V30 7287 H 678.079 -2.43207 -2.1225 0
M  V30 7288 H 677.131 -3.80186 -0.127537 0
M  V30 7289 H 678.443 -4.97302 -0.386349 0
M  V30 7290 H 677.597 -5.43491 -2.69633 0
M  V30 7291 H 676.336 -4.18421 -2.50549 0
M  V30 7292 H 675.341 -5.46624 -0.59008 0
M  V30 7293 H 676.566 -6.74335 -0.803076 0
M  V30 7294 H 674.512 -5.89394 -2.88012 0
M  V30 7295 H 674.429 -7.31832 -1.89624 0
M  V30 7296 H 675.697 -7.16276 -3.0752 0
M  V30 7297 N 679.926 -0.151884 -1.56866 0
M  V30 7298 C 681.342 0.204486 -1.58285 0
M  V30 7299 C 681.542 1.6431 -1.16639 0
M  V30 7300 O 680.598 2.37077 -0.868946 0
M  V30 7301 C 681.911 -0.0587019 -3.00643 0
M  V30 7302 C 683.459 0.00462303 -3.13 0
M  V30 7303 C 683.934 -0.231297 -4.57416 0
M  V30 7304 N 685.425 -0.178394 -4.62856 0
M  V30 7305 C 686.16 -0.335379 -5.72418 0
M  V30 7306 N 685.656 -0.550355 -6.90611 0
M  V30 7307 N 687.449 -0.272641 -5.61438 0
M  V30 7308 H 679.6 -1.09116 -1.82229 0
M  V30 7309 H 681.863 -0.432311 -0.843689 0
M  V30 7310 H 681.569 -1.05453 -3.35518 0
M  V30 7311 H 681.443 0.658508 -3.71407 0
M  V30 7312 H 683.83 0.991009 -2.77962 0
M  V30 7313 H 683.911 -0.744992 -2.44711 0
M  V30 7314 H 683.555 -1.2148 -4.93158 0
M  V30 7315 H 683.485 0.5387 -5.23837 0
M  V30 7316 H 685.976 -0.0170923 -3.77896 0
M  V30 7317 H 686.289 -0.660116 -7.69976 0
M  V30 7318 H 684.634 -0.586736 -6.92519 0
M  V30 7319 H 687.825 -0.105421 -4.67981 0
M  V30 7320 H 687.998 -0.398418 -6.46774 0
M  V30 7321 N 681.404 1.57128 0.121893 0
M  V30 7322 C 682.644 1.86517 0.836113 0
M  V30 7323 C 683.008 0.739497 1.77188 0
M  V30 7324 O 684.209 0.91508 2.52744 0
M  V30 7325 C 682.48 3.21129 1.56878 0
M  V30 7326 S 684.039 3.72143 2.32497 0
M  V30 7327 H 680.857 0.653923 0.279115 0
M  V30 7328 H 683.459 1.95271 0.0946254 0
M  V30 7329 H 682.163 4.01002 0.873255 0
M  V30 7330 H 681.694 3.15446 2.35069 0
M  V30 7331 H 683.709 3.43413 3.58164 0
M  V30 7332 N 682.882 -0.391992 1.52647 0
M  V30 7333 C 684.293 -0.970064 1.5952 0
M  V30 7334 C 684.644 -1.91059 0.446207 0
M  V30 7335 O 683.769 -2.12062 -0.431125 0
M  V30 7336 C 684.364 -1.76614 2.89125 0
M  V30 7337 C 682.923 -2.29396 2.9842 0
M  V30 7338 C 682.07 -1.09864 2.54608 0
M  V30 7339 H 685.021 -0.171638 1.57769 0
M  V30 7340 H 685.042 -2.62511 2.75442 0
M  V30 7341 H 684.554 -1.08135 3.72731 0
M  V30 7342 H 682.655 -3.01196 2.19344 0
M  V30 7343 H 682.768 -2.59088 4.03002 0
M  V30 7344 H 681.132 -1.45777 2.08857 0
M  V30 7345 H 681.915 -0.429249 3.40606 0
M  V30 7346 N 684.36 -1.4356 -0.65026 0
M  V30 7347 C 685.293 -1.434 -1.77515 0
M  V30 7348 C 686.271 -0.295082 -1.599 0
M  V30 7349 O 687.455 -0.489128 -1.82043 0
M  V30 7350 C 684.582 -1.2484 -3.14853 0
M  V30 7351 C 683.628 -2.42046 -3.51163 0
M  V30 7352 S 684.461 -4.04595 -3.50803 0
M  V30 7353 C 685.617 -3.88424 -4.90793 0
M  V30 7354 H 685.85 -2.38586 -1.77381 0
M  V30 7355 H 683.383 -1.30627 -0.823169 0
M  V30 7356 H 685.341 -1.14819 -3.94115 0
M  V30 7357 H 684.002 -0.311977 -3.12547 0
M  V30 7358 H 683.195 -2.24873 -4.51052 0
M  V30 7359 H 682.797 -2.48708 -2.79321 0
M  V30 7360 H 685.089 -3.50932 -5.79528 0
M  V30 7361 H 686.032 -4.88076 -5.13018 0
M  V30 7362 H 686.44 -3.20829 -4.64467 0
M  V30 7363 N 685.838 0.888903 -1.30139 0
M  V30 7364 C 687.063 1.67884 -1.21777 0
M  V30 7365 C 687.488 1.86848 0.216689 0
M  V30 7366 O 686.846 1.39659 1.15608 0
M  V30 7367 C 686.894 3.03483 -1.94757 0
M  V30 7368 O 685.998 3.92294 -1.27198 0
M  V30 7369 H 685.339 0.513144 -0.421402 0
M  V30 7370 H 687.869 1.10968 -1.71893 0
M  V30 7371 H 687.879 3.53553 -2.03627 0
M  V30 7372 H 686.554 2.89 -2.99085 0
M  V30 7373 H 685.131 3.50732 -1.26655 0
M  V30 7374 N 687.317 1.12792 1.10072 0
M  V30 7375 C 688.565 0.883796 1.81751 0
M  V30 7376 C 688.886 -0.591891 1.858 0
M  V30 7377 O 688.156 -1.43017 1.33876 0
M  V30 7378 H 686.736 0.323978 0.673088 0
M  V30 7379 H 689.398 1.42314 1.33164 0
M  V30 7380 H 688.494 1.26863 2.85153 0
M  V30 7381 N 688.795 -1.27931 0.920396 0
M  V30 7382 C 690.02 -1.99343 0.572478 0
M  V30 7383 C 690.445 -1.68267 -0.840696 0
M  V30 7384 O 689.803 -0.918805 -1.56294 0
M  V30 7385 C 689.851 -3.51698 0.796284 0
M  V30 7386 O 688.955 -4.12157 -0.141602 0
M  V30 7387 H 688.296 -0.626065 0.221221 0
M  V30 7388 H 690.826 -1.62921 1.23765 0
M  V30 7389 H 690.836 -4.01793 0.708984 0
M  V30 7390 H 689.511 -3.73649 1.82644 0
M  V30 7391 H 688.088 -3.729 -0.005007 0
M  V30 7392 N 690.273 -0.685099 -1.4193 0
M  V30 7393 C 691.684 -0.287699 -1.8447 0
M  V30 7394 C 692.035 1.17215 -1.57338 0
M  V30 7395 O 691.16 1.89856 -1.03845 0
M  V30 7396 C 691.755 -0.515385 -3.34857 0
M  V30 7397 C 690.314 -0.172006 -3.76007 0
M  V30 7398 C 689.461 -0.802808 -2.65425 0
M  V30 7399 H 692.412 -0.88652 -1.3163 0
M  V30 7400 H 692.433 0.229251 -3.79809 0
M  V30 7401 H 691.945 -1.57796 -3.54573 0
M  V30 7402 H 690.046 0.886716 -3.61895 0
M  V30 7403 H 690.159 -0.619717 -4.75075 0
M  V30 7404 H 688.523 -0.233267 -2.5363 0
M  V30 7405 H 689.306 -1.86904 -2.87961 0
M  V30 7406 N 691.751 1.51645 -0.429126 0
M  V30 7407 C 692.714 2.26116 0.374726 0
M  V30 7408 C 693.714 1.29242 0.956714 0
M  V30 7409 O 694.904 1.53022 0.832452 0
M  V30 7410 C 692.036 3.04669 1.52937 0
M  V30 7411 H 693.229 2.9861 -0.277818 0
M  V30 7412 H 690.782 1.55236 -0.182097 0
M  V30 7413 H 691.517 2.36571 2.21821 0
M  V30 7414 H 691.302 3.75814 1.11833 0
M  V30 7415 H 692.792 3.61102 2.09751 0
M  V30 7416 N 693.229 0.160201 1.56784 0
M  V30 7417 C 694.176 -0.774416 2.1742 0
M  V30 7418 C 695.146 -1.23483 1.11091 0
M  V30 7419 O 696.331 -1.30499 1.39193 0
M  V30 7420 C 693.471 -2.00283 2.81035 0
M  V30 7421 C 692.584 -1.58701 4.01793 0
M  V30 7422 C 691.719 -2.76824 4.53367 0
M  V30 7423 C 690.758 -2.31679 5.66561 0
M  V30 7424 N 689.895 -3.42856 6.12694 0
M  V30 7425 H 694.735 -0.250542 2.96945 0
M  V30 7426 H 692.272 -0.111943 1.46673 0
M  V30 7427 H 694.23 -2.72316 3.16069 0
M  V30 7428 H 692.86 -2.5006 2.04132 0
M  V30 7429 H 691.912 -0.76384 3.72652 0
M  V30 7430 H 693.224 -1.21555 4.83762 0
M  V30 7431 H 692.378 -3.57029 4.90525 0
M  V30 7432 H 691.117 -3.17223 3.70433 0
M  V30 7433 H 690.122 -1.49917 5.28966 0
M  V30 7434 H 691.347 -1.9235 6.5129 0
M  V30 7435 H 689.293 -3.82852 5.32692 0
M  V30 7436 H 689.21 -3.09767 6.89624 0
M  V30 7437 H 690.478 -4.23379 6.545 0
M  V30 7438 N 694.707 -1.5719 -0.113559 0
M  V30 7439 C 696.118 -1.74259 -0.670116 0
M  V30 7440 C 696.469 -0.779694 -1.80042 0
M  V30 7441 O 695.594 0.0461353 -2.16351 0
M  V30 7442 C 696.189 -3.15981 -1.22236 0
M  V30 7443 C 694.748 -3.34537 -1.72516 0
M  V30 7444 C 693.895 -2.70116 -0.627098 0
M  V30 7445 H 696.846 -1.58301 0.112396 0
M  V30 7446 H 696.867 -3.17832 -2.09197 0
M  V30 7447 H 696.379 -3.86038 -0.39949 0
M  V30 7448 H 694.48 -2.6953 -2.57263 0
M  V30 7449 H 694.593 -4.42737 -1.83086 0
M  V30 7450 H 692.957 -2.31501 -1.06204 0
M  V30 7451 H 693.74 -3.42802 0.184889 0
M  V30 7452 N 696.185 0.383891 -1.52853 0
M  V30 7453 C 697.41 1.154 -1.7233 0
M  V30 7454 C 697.835 1.82809 -0.44298 0
M  V30 7455 O 697.193 1.71026 0.601645 0
M  V30 7456 C 697.241 2.17386 -2.87708 0
M  V30 7457 O 696.345 3.24082 -2.55038 0
M  V30 7458 H 695.686 0.335709 -0.572883 0
M  V30 7459 H 698.216 0.44662 -1.99666 0
M  V30 7460 H 698.226 2.61296 -3.1335 0
M  V30 7461 H 696.901 1.6771 -3.80587 0
M  V30 7462 H 695.478 2.85273 -2.40153 0
M  V30 7463 N 697.663 1.43903 0.642637 0
M  V30 7464 C 698.595 1.45857 1.768 0
M  V30 7465 C 699.608 0.353358 1.58919 0
M  V30 7466 O 700.797 0.618426 1.67445 0
M  V30 7467 C 697.897 1.26583 3.14372 0
M  V30 7468 C 697.07 2.50139 3.58817 0
M  V30 7469 C 696.129 2.25933 4.75227 0
M  V30 7470 O 695.155 2.99351 4.84125 0
M  V30 7471 N 696.357 1.28263 5.66153 0
M  V30 7472 H 699.122 2.42869 1.75598 0
M  V30 7473 H 696.683 1.39194 0.826832 0
M  V30 7474 H 698.675 1.08255 3.89953 0
M  V30 7475 H 697.245 0.37978 3.10284 0
M  V30 7476 H 696.465 2.83821 2.73568 0
M  V30 7477 H 697.753 3.32344 3.8526 0
M  V30 7478 H 697.151 0.676041 5.61646 0
M  V30 7479 H 695.708 1.15916 6.4141 0
M  V30 7480 N 699.141 -0.881989 1.30609 0
M  V30 7481 C 700.387 -1.63647 1.19781 0
M  V30 7482 C 700.72 -1.92632 -0.246265 0
M  V30 7483 O 699.995 -1.54938 -1.17577 0
M  V30 7484 C 700.278 -2.97437 2.02985 0
M  V30 7485 C 700.131 -2.75406 3.55628 0
M  V30 7486 C 701.45 -3.98397 1.86997 0
M  V30 7487 H 698.569 -0.593841 0.436488 0
M  V30 7488 H 701.211 -1.02041 1.60273 0
M  V30 7489 H 699.361 -3.50018 1.68581 0
M  V30 7490 H 701.033 -2.2959 4.00107 0
M  V30 7491 H 699.276 -2.09856 3.79662 0
M  V30 7492 H 699.947 -3.70552 4.09139 0
M  V30 7493 H 702.423 -3.54986 2.17081 0
M  V30 7494 H 701.299 -4.89916 2.47536 0
M  V30 7495 H 701.56 -4.3424 0.829943 0
M  V30 7496 N 700.619 -1.13374 -1.09472 0
M  V30 7497 C 702.03 -0.90801 -1.63132 0
M  V30 7498 C 702.381 0.555576 -1.8817 0
M  V30 7499 O 701.506 1.42218 -1.63104 0
M  V30 7500 C 702.101 -1.64182 -2.96361 0
M  V30 7501 C 700.66 -1.46197 -3.46848 0
M  V30 7502 C 699.807 -1.67134 -2.21273 0
M  V30 7503 H 702.758 -1.2871 -0.928411 0
M  V30 7504 H 702.779 -1.09863 -3.64294 0
M  V30 7505 H 702.291 -2.707 -2.78106 0
M  V30 7506 H 700.392 -0.419788 -3.70228 0
M  V30 7507 H 700.505 -2.22472 -4.24315 0
M  V30 7508 H 698.869 -1.09616 -2.29905 0
M  V30 7509 H 699.652 -2.74971 -2.05538 0
M  V30 7510 N 702.098 1.27442 -0.927168 0
M  V30 7511 C 703.509 1.76385 -0.611979 0
M  V30 7512 C 703.86 1.75715 0.872853 0
M  V30 7513 O 702.985 1.3603 1.683 0
M  V30 7514 C 703.58 3.20303 -1.10414 0
M  V30 7515 C 702.139 3.66916 -0.839628 0
M  V30 7516 C 701.286 2.46859 -1.26317 0
M  V30 7517 H 704.237 1.13716 -1.107 0
M  V30 7518 H 704.258 3.77811 -0.451578 0
M  V30 7519 H 703.77 3.20759 -2.18484 0
M  V30 7520 H 701.871 3.71906 0.227292 0
M  V30 7521 H 701.984 4.56415 -1.45679 0
M  V30 7522 H 700.348 2.45407 -0.681723 0
M  V30 7523 H 701.131 2.50025 -2.3525 0
M  V30 7524 N 703.576 0.692616 1.41565 0
M  V30 7525 C 704.992 0.363878 1.55397 0
M  V30 7526 C 705.192 -1.1294 1.66874 0
M  V30 7527 O 704.248 -1.91517 1.64552 0
M  V30 7528 C 705.561 1.10982 2.7947 0
M  V30 7529 C 707.109 1.09387 2.93263 0
M  V30 7530 C 707.584 1.8215 4.20221 0
M  V30 7531 N 709.075 1.79105 4.27172 0
M  V30 7532 C 709.81 2.32247 5.2426 0
M  V30 7533 N 709.306 2.93847 6.27396 0
M  V30 7534 N 711.099 2.22519 5.1618 0
M  V30 7535 H 703.25 1.66116 1.3236 0
M  V30 7536 H 705.513 0.700848 0.63837 0
M  V30 7537 H 705.219 2.1647 2.77188 0
M  V30 7538 H 705.093 0.686492 3.709 0
M  V30 7539 H 707.48 0.0472638 2.95062 0
M  V30 7540 H 707.561 1.55623 2.03015 0
M  V30 7541 H 707.205 2.86789 4.19183 0
M  V30 7542 H 707.135 1.33351 5.09436 0
M  V30 7543 H 709.626 1.34191 3.53272 0
M  V30 7544 H 709.939 3.31972 6.97864 0
M  V30 7545 H 708.284 2.97924 6.27906 0
M  V30 7546 H 711.475 1.7407 4.34531 0
M  V30 7547 H 711.648 2.64239 5.91677 0
M  V30 7548 N 705.054 -1.51416 0.437162 0
M  V30 7549 C 706.465 -1.86682 -0.0260005 0
M  V30 7550 C 706.816 -1.35432 -1.4196 0
M  V30 7551 O 705.941 -0.705055 -2.04592 0
M  V30 7552 C 706.536 -3.38757 -0.0539577 0
M  V30 7553 C 705.095 -3.7356 -0.461532 0
M  V30 7554 C 704.242 -2.75134 0.345924 0
M  V30 7555 H 707.193 -1.44642 0.653013 0
M  V30 7556 H 707.214 -3.70573 -0.863478 0
M  V30 7557 H 706.726 -3.76028 0.96045 0
M  V30 7558 H 704.827 -3.41878 -1.48155 0
M  V30 7559 H 704.94 -4.78737 -0.186451 0
M  V30 7560 H 703.304 -2.53947 -0.195739 0
M  V30 7561 H 704.087 -3.15247 1.35921 0
M  V30 7562 N 706.532 -0.168513 -1.56696 0
M  V30 7563 C 707.943 0.348694 -1.83415 0
M  V30 7564 C 708.294 1.63257 -1.0882 0
M  V30 7565 O 707.419 2.13707 -0.340333 0
M  V30 7566 C 708.014 0.639423 -3.32711 0
M  V30 7567 C 706.573 1.10108 -3.59935 0
M  V30 7568 C 705.72 0.135464 -2.76969 0
M  V30 7569 H 708.671 -0.392829 -1.53761 0
M  V30 7570 H 708.692 1.49179 -3.50037 0
M  V30 7571 H 708.204 -0.295173 -3.86976 0
M  V30 7572 H 706.305 2.05088 -3.11079 0
M  V30 7573 H 706.418 1.01218 -4.68286 0
M  V30 7574 H 704.782 0.632286 -2.46727 0
M  V30 7575 H 705.565 -0.793104 -3.34013 0
M  V30 7576 N 708.01 1.57248 0.105221 0
M  V30 7577 C 709.421 1.74612 0.660865 0
M  V30 7578 C 709.772 0.789231 1.79626 0
M  V30 7579 O 708.897 -0.0346611 2.16372 0
M  V30 7580 C 709.492 3.16624 1.20559 0
M  V30 7581 C 708.051 3.35447 1.7074 0
M  V30 7582 C 707.198 2.70445 0.612764 0
M  V30 7583 H 710.149 1.5824 -0.12079 0
M  V30 7584 H 710.17 3.18937 2.07508 0
M  V30 7585 H 709.682 3.86245 0.379012 0
M  V30 7586 H 707.783 2.7089 2.5583 0
M  V30 7587 H 707.896 4.43702 1.80736 0
M  V30 7588 H 706.26 2.32061 1.04975 0
M  V30 7589 H 707.043 3.42699 -0.203066 0
M  V30 7590 N 709.488 -0.375779 1.53054 0
M  V30 7591 C 710.899 -0.95309 1.6054 0
M  V30 7592 C 711.25 -1.90575 0.466446 0
M  V30 7593 O 710.375 -2.12507 -0.408609 0
M  V30 7594 C 710.97 -1.73537 2.90982 0
M  V30 7595 C 709.529 -2.26218 3.00836 0
M  V30 7596 C 708.676 -1.07157 2.55759 0
M  V30 7597 H 711.627 -0.154895 1.57942 0
M  V30 7598 H 711.648 -2.59574 2.78211 0
M  V30 7599 H 711.16 -1.04176 3.73857 0
M  V30 7600 H 709.261 -2.98852 2.22527 0
M  V30 7601 H 709.374 -2.54799 4.05727 0
M  V30 7602 H 707.738 -1.43553 2.10391 0
M  V30 7603 H 708.521 -0.393099 3.41042 0
M  V30 7604 N 710.966 -1.44241 -0.634997 0
M  V30 7605 C 712.382 -1.28043 -0.952742 0
M  V30 7606 C 712.582 -0.21338 -2.00367 0
M  V30 7607 O 711.638 0.402042 -2.49279 0
M  V30 7608 C 712.951 -2.65076 -1.41968 0
M  V30 7609 C 714.499 -2.72755 -1.53537 0
M  V30 7610 C 714.974 -4.10249 -2.03616 0
M  V30 7611 N 716.465 -4.12406 -2.10892 0
M  V30 7612 C 717.2 -5.15641 -2.50803 0
M  V30 7613 N 716.696 -6.29239 -2.89879 0
M  V30 7614 N 718.489 -5.02995 -2.50903 0
M  V30 7615 H 710.64 -2.12315 0.060098 0
M  V30 7616 H 712.903 -0.947326 -0.0357325 0
M  V30 7617 H 712.609 -3.44213 -0.721804 0
M  V30 7618 H 712.483 -2.91704 -2.39141 0
M  V30 7619 H 714.87 -1.93939 -2.22422 0
M  V30 7620 H 714.951 -2.49872 -0.547496 0
M  V30 7621 H 714.595 -4.8954 -1.35327 0
M  V30 7622 H 714.525 -4.30507 -3.03268 0
M  V30 7623 H 717.016 -3.30417 -1.83393 0
M  V30 7624 H 717.329 -7.03827 -3.19135 0
M  V30 7625 H 715.674 -6.32683 -2.8764 0
M  V30 7626 H 718.865 -4.13306 -2.19763 0
M  V30 7627 H 719.038 -5.83574 -2.81683 0
M  V30 7628 N 712.444 0.87505 -1.31075 0
M  V30 7629 C 713.374 1.99775 -1.20881 0
M  V30 7630 C 714.355 1.69822 -0.0971612 0
M  V30 7631 O 715.54 1.92158 -0.280895 0
M  V30 7632 C 712.67 3.35163 -0.910118 0
M  V30 7633 C 711.624 3.79406 -1.98078 0
M  V30 7634 C 710.95 5.12197 -1.53488 0
M  V30 7635 C 712.25 3.97061 -3.39323 0
M  V30 7636 H 713.944 2.08562 -2.14808 0
M  V30 7637 H 711.49 1.00207 -1.03415 0
M  V30 7638 H 713.443 4.13237 -0.825423 0
M  V30 7639 H 712.167 3.26536 0.064822 0
M  V30 7640 H 710.826 3.03568 -2.05528 0
M  V30 7641 H 710.474 5.00007 -0.547941 0
M  V30 7642 H 710.174 5.4277 -2.2511 0
M  V30 7643 H 711.698 5.92785 -1.46417 0
M  V30 7644 H 713.112 4.65545 -3.34576 0
M  V30 7645 H 711.509 4.39025 -4.09118 0
M  V30 7646 H 712.579 3.00601 -3.80483 0
M  V30 7647 N 713.922 1.13953 1.08869 0
M  V30 7648 C 715.333 0.916649 1.62648 0
M  V30 7649 C 715.684 -0.545589 1.88462 0
M  V30 7650 O 714.809 -1.41351 1.63856 0
M  V30 7651 C 715.404 1.65751 2.95486 0
M  V30 7652 C 713.963 1.48034 3.46068 0
M  V30 7653 C 713.11 1.68305 2.20383 0
M  V30 7654 H 716.061 1.292 0.921572 0
M  V30 7655 H 716.082 1.11794 3.63707 0
M  V30 7656 H 715.594 2.72171 2.76667 0
M  V30 7657 H 713.695 0.439416 3.7 0
M  V30 7658 H 713.808 2.24719 4.23129 0
M  V30 7659 H 712.172 1.10833 2.29321 0
M  V30 7660 H 712.955 2.76057 2.04077 0
M  V30 7661 N 715.4 -1.26948 0.933913 0
M  V30 7662 C 716.811 -1.76058 0.621324 0
M  V30 7663 C 717.162 -1.76175 -0.863522 0
M  V30 7664 O 716.287 -1.36921 -1.67576 0
M  V30 7665 C 716.882 -3.19713 1.12111 0
M  V30 7666 C 715.441 -3.66465 0.859074 0
M  V30 7667 C 714.588 -2.46186 1.27624 0
M  V30 7668 H 717.539 -1.13127 1.11301 0
M  V30 7669 H 717.56 -3.77566 0.471608 0
M  V30 7670 H 717.072 -3.19596 2.20182 0
M  V30 7671 H 715.173 -3.72021 -0.207566 0
M  V30 7672 H 715.286 -4.55636 1.48098 0
M  V30 7673 H 713.65 -2.45042 0.694727 0
M  V30 7674 H 714.433 -2.48774 2.36572 0
M  V30 7675 N 716.879 -0.700114 -1.41195 0
M  V30 7676 C 717.829 -0.0144098 -2.27995 0
M  V30 7677 C 718.813 0.748249 -1.42443 0
M  V30 7678 O 720.005 0.622995 -1.65674 0
M  V30 7679 C 717.134 0.917938 -3.308 0
M  V30 7680 C 716.22 0.151286 -4.2383 0
M  V30 7681 N 716.611 -0.85732 -4.98481 0
M  V30 7682 C 714.909 0.386108 -4.44326 0
M  V30 7683 C 715.61 -1.31663 -5.66604 0
M  V30 7684 N 714.586 -0.641689 -5.39799 0
M  V30 7685 H 718.388 -0.787662 -2.83149 0
M  V30 7686 H 715.902 -0.531344 -1.53462 0
M  V30 7687 H 717.899 1.42437 -3.91813 0
M  V30 7688 H 716.559 1.69074 -2.77208 0
M  V30 7689 H 717.57 -1.2377 -5.02893 0
M  V30 7690 H 714.247 1.13644 -4.01735 0
M  V30 7691 H 715.637 -2.15384 -6.36443 0
M  V30 7692 N 718.357 1.51182 -0.445186 0
M  V30 7693 C 719.304 2.27939 0.362291 0
M  V30 7694 C 720.274 1.31864 1.01 0
M  V30 7695 O 721.459 1.60776 1.02741 0
M  V30 7696 C 718.599 3.13016 1.45311 0
M  V30 7697 C 717.712 4.24093 0.822757 0
M  V30 7698 C 716.847 4.96467 1.88928 0
M  V30 7699 C 715.886 5.99454 1.23778 0
M  V30 7700 N 715.023 6.65206 2.24602 0
M  V30 7701 H 719.863 2.965 -0.29862 0
M  V30 7702 H 717.4 1.46237 -0.15911 0
M  V30 7703 H 719.358 3.60673 2.09692 0
M  V30 7704 H 717.988 2.46553 2.08354 0
M  V30 7705 H 717.04 3.80341 0.0670364 0
M  V30 7706 H 718.352 4.97853 0.307184 0
M  V30 7707 H 717.506 5.47712 2.60953 0
M  V30 7708 H 716.245 4.22355 2.4386 0
M  V30 7709 H 715.25 5.47494 0.503042 0
M  V30 7710 H 716.475 6.75527 0.695694 0
M  V30 7711 H 714.421 5.93901 2.78599 0
M  V30 7712 H 714.338 7.34756 1.77958 0
M  V30 7713 H 715.606 7.21078 2.96085 0
M  V30 7714 N 719.835 0.176821 1.56605 0
M  V30 7715 C 721.246 -0.338963 1.83597 0
M  V30 7716 C 721.597 -1.62677 1.09684 0
M  V30 7717 O 720.722 -2.13524 0.351661 0
M  V30 7718 C 721.317 -0.62177 3.33046 0
M  V30 7719 C 719.876 -1.08198 3.60514 0
M  V30 7720 C 719.023 -0.120774 2.77037 0
M  V30 7721 H 721.974 0.400978 1.53551 0
M  V30 7722 H 721.995 -1.47321 3.50823 0
M  V30 7723 H 721.507 0.315692 3.86814 0
M  V30 7724 H 719.608 -2.03435 3.12162 0
M  V30 7725 H 719.721 -0.987329 4.68816 0
M  V30 7726 H 718.085 -0.619192 2.47059 0
M  V30 7727 H 718.868 0.810806 3.33588 0
M  V30 7728 N 721.313 -1.57302 -0.09688 0
M  V30 7729 C 722.559 -1.86273 -0.801885 0
M  V30 7730 C 722.892 -0.765694 -1.78468 0
M  V30 7731 O 722.167 0.226495 -1.93177 0
M  V30 7732 C 722.45 -3.25876 -1.53221 0
M  V30 7733 C 722.303 -4.46205 -0.567529 0
M  V30 7734 C 723.622 -3.63352 -2.48321 0
M  V30 7735 H 720.741 -0.67752 -0.29006 0
M  V30 7736 H 723.383 -1.89887 -0.0655577 0
M  V30 7737 H 721.533 -3.22926 -2.15988 0
M  V30 7738 H 723.205 -4.6127 0.0529982 0
M  V30 7739 H 721.448 -4.33636 0.119233 0
M  V30 7740 H 722.119 -5.40608 -1.11564 0
M  V30 7741 H 724.595 -3.67234 -1.95648 0
M  V30 7742 H 723.471 -4.61968 -2.9644 0
M  V30 7743 H 723.732 -2.91941 -3.31998 0
M  V30 7744 N 722.791 0.367657 -1.53252 0
M  V30 7745 C 723.754 1.43308 -1.78873 0
M  V30 7746 C 724.754 1.46671 -0.659115 0
M  V30 7747 O 725.944 1.47468 -0.927306 0
M  V30 7748 C 723.076 2.82442 -1.90892 0
M  V30 7749 H 724.269 1.21864 -2.74024 0
M  V30 7750 H 721.822 0.600668 -1.44297 0
M  V30 7751 H 722.557 3.09202 -0.978 0
M  V30 7752 H 722.342 2.81399 -2.73051 0
M  V30 7753 H 723.832 3.59601 -2.12314 0
M  V30 7754 N 724.269 1.44576 0.627338 0
M  V30 7755 C 725.199 1.54562 1.75022 0
M  V30 7756 C 726.18 0.398378 1.65369 0
M  V30 7757 O 727.365 0.61899 1.84071 0
M  V30 7758 C 724.495 1.49309 3.13567 0
M  V30 7759 C 723.449 2.62549 3.38012 0
M  V30 7760 C 722.775 2.42348 4.76625 0
M  V30 7761 C 724.075 4.04678 3.30202 0
M  V30 7762 H 725.769 2.4855 1.66922 0
M  V30 7763 H 723.315 1.19624 0.801636 0
M  V30 7764 H 725.268 1.54895 3.919 0
M  V30 7765 H 723.992 0.518392 3.2246 0
M  V30 7766 H 722.651 2.56358 2.62061 0
M  V30 7767 H 722.299 1.43062 4.82226 0
M  V30 7768 H 721.999 3.18273 4.93939 0
M  V30 7769 H 723.523 2.49758 5.57183 0
M  V30 7770 H 724.937 4.12217 3.98435 0
M  V30 7771 H 723.334 4.80836 3.5905 0
M  V30 7772 H 724.404 4.2798 2.27949 0
M  V30 7773 N 725.747 -0.868086 1.31537 0
M  V30 7774 C 726.995 -1.61807 1.21091 0
M  V30 7775 C 727.316 -1.93631 -0.230623 0
M  V30 7776 O 726.586 -1.5846 -1.15183 0
M  V30 7777 H 725.166 -0.599854 0.445178 0
M  V30 7778 H 727.828 -1.03915 1.64887 0
M  V30 7779 H 726.924 -2.56088 1.78396 0
M  V30 7780 N 727.225 -1.14528 -1.08264 0
M  V30 7781 C 728.173 -0.829201 -2.17318 0
M  V30 7782 C 729.167 0.193521 -1.68291 0
M  V30 7783 O 730.373 0.0494744 -1.79932 0
M  V30 7784 H 726.748 -0.250435 -0.709074 0
M  V30 7785 H 728.719 -1.75683 -2.41201 0
M  V30 7786 C 727.468 -0.324663 -3.46181 0
M  V30 7787 H 726.791 -1.10299 -3.84284 0
M  V30 7788 H 728.231 -0.142059 -4.23762 0
M  V30 7789 C 726.69 0.952033 -3.23169 0
M  V30 7790 O 727.22 2.02549 -3.46896 0
M  V30 7791 N 725.426 0.887854 -2.76705 0
M  V30 7792 H 724.973 0.0141402 -2.57596 0
M  V30 7793 H 724.931 1.74263 -2.61686 0
M  V30 7794 N 728.703 1.26451 -0.940633 0
M  V30 7795 C 729.951 1.93395 -0.586748 0
M  V30 7796 C 730.272 1.7417 0.876921 0
M  V30 7797 O 729.542 1.097 1.62304 0
M  V30 7798 H 728.122 0.715687 -0.214012 0
M  V30 7799 H 730.784 1.53902 -1.19584 0
M  V30 7800 H 729.88 3.01565 -0.804059 0
M  V30 7801 N 730.181 0.707592 1.40822 0
M  V30 7802 C 731.114 -0.000859377 2.282 0
M  V30 7803 C 732.092 -0.7758 1.42899 0
M  V30 7804 O 733.276 -0.76411 1.72318 0
M  V30 7805 C 730.403 -1.00861 3.23334 0
M  V30 7806 C 729.449 -0.32543 4.25257 0
M  V30 7807 S 730.282 0.940908 5.27169 0
M  V30 7808 C 731.438 -0.0649459 6.25866 0
M  V30 7809 H 731.671 0.740207 2.87938 0
M  V30 7810 H 729.204 0.498311 1.46138 0
M  V30 7811 H 731.162 -1.58485 3.78672 0
M  V30 7812 H 729.823 -1.72233 2.62668 0
M  V30 7813 H 729.016 -1.08697 4.92139 0
M  V30 7814 H 728.618 0.178044 3.73576 0
M  V30 7815 H 730.91 -0.914377 6.71301 0
M  V30 7816 H 731.853 0.570276 7.058 0
M  V30 7817 H 732.261 -0.425098 5.62897 0
M  V30 7818 N 731.66 -1.50943 0.453197 0
M  V30 7819 C 732.885 -2.07116 -0.108463 0
M  V30 7820 C 733.31 -1.31681 -1.3432 0
M  V30 7821 O 732.668 -0.359256 -1.77705 0
M  V30 7822 C 732.716 -3.58447 -0.393424 0
M  V30 7823 O 731.82 -3.85038 -1.47714 0
M  V30 7824 H 731.161 -0.66398 0.0050993 0
M  V30 7825 H 733.691 -1.94362 0.639095 0
M  V30 7826 H 733.701 -4.02961 -0.639222 0
M  V30 7827 H 732.376 -4.12774 0.508946 0
M  V30 7828 H 730.953 -3.52376 -1.22006 0
M  V30 7829 N 733.138 -0.185124 -1.56509 0
M  V30 7830 C 734.363 0.465278 -2.02114 0
M  V30 7831 C 734.788 1.55083 -1.06447 0
M  V30 7832 O 734.146 1.81241 -0.0462852 0
M  V30 7833 C 734.194 1.00784 -3.46229 0
M  V30 7834 O 733.298 2.12123 -3.53663 0
M  V30 7835 H 732.639 0.109891 -0.654843 0
M  V30 7836 H 735.169 -0.293072 -2.0249 0
M  V30 7837 H 735.179 1.32697 -3.85818 0
M  V30 7838 H 733.854 0.213113 -4.15354 0
M  V30 7839 H 732.431 1.8115 -3.25943 0
M  V30 7840 N 734.616 1.57351 0.0885366 0
M  V30 7841 C 735.863 1.86419 0.790824 0
M  V30 7842 C 736.191 0.774561 1.78412 0
M  V30 7843 O 735.446 -0.23119 1.9433 0
M  V30 7844 C 735.745 3.22098 1.5488 0
M  V30 7845 C 735.411 4.4548 0.697025 0
M  V30 7846 C 734.073 4.78975 0.462237 0
M  V30 7847 C 736.425 5.21094 0.105315 0
M  V30 7848 C 733.753 5.85507 -0.374016 0
M  V30 7849 C 736.105 6.28509 -0.718298 0
M  V30 7850 C 734.769 6.60515 -0.963116 0
M  V30 7851 H 734.039 0.682157 0.289383 0
M  V30 7852 H 736.686 1.91429 0.0520961 0
M  V30 7853 H 734.991 3.12803 2.35927 0
M  V30 7854 H 736.688 3.41819 2.09669 0
M  V30 7855 H 733.278 4.19255 0.890137 0
M  V30 7856 H 737.462 4.95544 0.273856 0
M  V30 7857 H 732.718 6.08713 -0.572606 0
M  V30 7858 H 736.892 6.86268 -1.18362 0
M  V30 7859 H 734.519 7.42893 -1.6129 0
M  V30 7860 N 736.094 -0.359525 1.53444 0
M  V30 7861 C 737.026 -1.46098 1.76602 0
M  V30 7862 C 738.039 -1.49395 0.646912 0
M  V30 7863 O 739.228 -1.52765 0.923307 0
M  V30 7864 C 736.328 -2.84836 1.83635 0
M  V30 7865 C 735.501 -3.05164 3.13358 0
M  V30 7866 C 734.56 -4.24051 3.11556 0
M  V30 7867 O 733.586 -4.18935 3.85334 0
M  V30 7868 N 734.788 -5.31775 2.328 0
M  V30 7869 H 737.553 -1.2661 2.71643 0
M  V30 7870 H 735.114 -0.549294 1.52297 0
M  V30 7871 H 737.106 -3.62516 1.799 0
M  V30 7872 H 735.676 -2.97542 0.958509 0
M  V30 7873 H 734.896 -2.15091 3.30348 0
M  V30 7874 H 736.184 -3.15619 3.99076 0
M  V30 7875 H 735.582 -5.38796 1.7238 0
M  V30 7876 H 734.139 -6.0801 2.34877 0
M  V30 7877 N 737.572 -1.44907 -0.619662 0
M  V30 7878 C 738.502 -1.55488 -1.742 0
M  V30 7879 C 739.483 -0.407143 -1.65156 0
M  V30 7880 O 740.668 -0.628743 -1.8374 0
M  V30 7881 C 737.798 -1.5097 -3.1277 0
M  V30 7882 C 736.752 -2.64337 -3.36615 0
M  V30 7883 C 736.078 -2.44872 -4.75333 0
M  V30 7884 C 737.378 -4.06423 -3.28051 0
M  V30 7885 H 739.072 -2.49432 -1.65602 0
M  V30 7886 H 736.618 -1.20047 -0.795281 0
M  V30 7887 H 738.571 -1.56971 -3.91073 0
M  V30 7888 H 737.295 -0.535486 -3.2218 0
M  V30 7889 H 735.954 -2.57744 -2.60698 0
M  V30 7890 H 735.602 -1.45617 -4.81461 0
M  V30 7891 H 735.302 -3.20888 -4.92244 0
M  V30 7892 H 736.826 -2.52709 -5.55851 0
M  V30 7893 H 738.24 -4.14324 -3.96243 0
M  V30 7894 H 736.637 -4.82733 -3.56495 0
M  V30 7895 H 737.707 -4.29183 -2.25676 0
M  V30 7896 N 739.05 0.861098 -1.31996 0
M  V30 7897 C 739.998 1.99052 -1.20337 0
M  V30 7898 C 740.992 1.69045 -0.109623 0
M  V30 7899 O 742.198 1.77931 -0.272117 0
M  V30 7900 H 738.573 0.653064 -0.372843 0
M  V30 7901 H 740.544 2.06015 -2.15872 0
M  V30 7902 C 739.293 3.34846 -0.936663 0
M  V30 7903 H 738.616 3.58462 -1.77045 0
M  V30 7904 H 740.056 4.1444 -0.895302 0
M  V30 7905 C 738.515 3.34965 0.360607 0
M  V30 7906 O 739.045 3.7745 1.37456 0
M  V30 7907 N 737.251 2.88101 0.380296 0
M  V30 7908 H 736.798 2.53721 -0.445351 0
M  V30 7909 H 736.756 2.88563 1.24816 0
M  V30 7910 N 740.528 1.15101 1.07655 0
M  V30 7911 C 741.776 0.922149 1.79836 0
M  V30 7912 C 742.097 -0.552346 1.87014 0
M  V30 7913 O 741.367 -1.40145 1.3688 0
M  V30 7914 H 739.947 0.338182 0.666064 0
M  V30 7915 H 742.609 1.45107 1.30115 0
M  V30 7916 H 741.705 1.32883 2.82398 0
M  V30 7917 N 742.006 -1.2595 0.947325 0
M  V30 7918 C 742.916 -2.29883 0.468079 0
M  V30 7919 C 743.932 -1.67783 -0.460975 0
M  V30 7920 O 745.108 -1.98526 -0.339006 0
M  V30 7921 C 742.173 -3.45773 -0.253315 0
M  V30 7922 C 741.234 -4.23337 0.713054 0
M  V30 7923 C 740.467 -5.33694 0.025993 0
M  V30 7924 O 740.69 -5.57853 -1.18978 0
M  V30 7925 O 739.624 -5.97724 0.70782 0
M  V30 7926 H 743.45 -2.72952 1.33156 0
M  V30 7927 H 741.035 -1.31263 0.713468 0
M  V30 7928 H 742.917 -4.16209 -0.659423 0
M  V30 7929 H 741.592 -3.04721 -1.09209 0
M  V30 7930 H 740.499 -3.55359 1.16923 0
M  V30 7931 H 741.832 -4.68154 1.51963 0
M  V30 7932 N 743.484 -0.715051 -1.40445 0
M  V30 7933 C 744.9 -0.388555 -1.54798 0
M  V30 7934 C 745.1 1.10271 -1.68649 0
M  V30 7935 O 744.156 1.88875 -1.67578 0
M  V30 7936 C 745.469 -1.15414 -2.77669 0
M  V30 7937 C 747.017 -1.14039 -2.91486 0
M  V30 7938 C 747.492 -1.88812 -4.1727 0
M  V30 7939 N 748.983 -1.85878 -4.24268 0
M  V30 7940 C 749.718 -2.40558 -5.20499 0
M  V30 7941 N 749.214 -3.03791 -6.22642 0
M  V30 7942 N 751.007 -2.30703 -5.12574 0
M  V30 7943 H 743.158 -1.68201 -1.297 0
M  V30 7944 H 745.421 -0.710915 -0.627139 0
M  V30 7945 H 745.127 -2.20853 -2.7371 0
M  V30 7946 H 745.001 -0.745412 -3.69761 0
M  V30 7947 H 747.388 -0.0941996 -2.9495 0
M  V30 7948 H 747.469 -1.58834 -2.00513 0
M  V30 7949 H 747.113 -2.93422 -4.14568 0
M  V30 7950 H 747.043 -1.41438 -5.0725 0
M  V30 7951 H 749.534 -1.39794 -3.51093 0
M  V30 7952 H 749.847 -3.43032 -6.92495 0
M  V30 7953 H 748.192 -3.07875 -6.23087 0
M  V30 7954 H 751.383 -1.80961 -4.31707 0
M  V30 7955 H 751.556 -2.73618 -5.87398 0
M  V30 7956 N 744.962 1.50701 -0.461195 0
M  V30 7957 C 746.239 1.94958 0.158296 0
M  V30 7958 C 746.619 1.40111 1.57899 0
M  V30 7959 O 745.967 0.597976 2.20537 0
M  V30 7960 C 746.177 3.48821 0.11172 0
M  V30 7961 C 747.525 4.23499 0.30552 0
M  V30 7962 O 748.549 3.557 0.188758 0
M  V30 7963 O 747.408 5.43823 0.540244 0
M  V30 7964 H 744.502 0.818674 0.117054 0
M  V30 7965 H 747.048 1.61508 -0.520888 0
M  V30 7966 H 745.82 3.81263 -0.880577 0
M  V30 7967 H 745.443 3.88781 0.832791 0
M  V30 7968 N 746.441 0.193421 1.56409 0
M  V30 7969 C 747.689 -0.444908 1.97142 0
M  V30 7970 C 748.01 -1.62268 1.08139 0
M  V30 7971 O 747.28 -1.95307 0.152326 0
M  V30 7972 H 745.86 -0.16736 0.728011 0
M  V30 7973 H 748.522 0.279763 1.92882 0
M  V30 7974 H 747.618 -0.790159 3.01932 0
M  V30 7975 N 747.919 -1.57396 -0.0801906 0
M  V30 7976 C 749.144 -1.91437 -0.797909 0
M  V30 7977 C 749.569 -0.789075 -1.70749 0
M  V30 7978 O 748.927 0.25857 -1.79447 0
M  V30 7979 C 748.975 -3.24402 -1.57467 0
M  V30 7980 O 748.079 -3.13043 -2.68473 0
M  V30 7981 H 747.42 -0.627109 -0.218243 0
M  V30 7982 H 749.95 -2.04537 -0.050949 0
M  V30 7983 H 749.96 -3.58072 -1.95571 0
M  V30 7984 H 748.635 -4.05884 -0.907229 0
M  V30 7985 H 747.212 -2.90915 -2.33287 0
M  V30 7986 N 749.397 0.351382 -1.53633 0
M  V30 7987 C 750.327 1.43688 -1.84055 0
M  V30 7988 C 751.308 1.55251 -0.695073 0
M  V30 7989 O 752.493 1.69587 -0.946257 0
M  V30 7990 C 749.623 2.80843 -2.04315 0
M  V30 7991 C 748.577 2.84094 -3.20117 0
M  V30 7992 C 747.903 4.2406 -3.25696 0
M  V30 7993 C 749.203 2.50334 -4.58399 0
M  V30 7994 H 750.897 1.18478 -2.74961 0
M  V30 7995 H 748.443 0.568509 -1.32303 0
M  V30 7996 H 750.396 3.56821 -2.2418 0
M  V30 7997 H 749.12 3.07471 -1.10132 0
M  V30 7998 H 747.779 2.10568 -3.00094 0
M  V30 7999 H 747.427 4.47785 -2.29123 0
M  V30 8000 H 747.127 4.27147 -4.03509 0
M  V30 8001 H 748.651 5.0189 -3.47762 0
M  V30 8002 H 750.065 3.16025 -4.78332 0
M  V30 8003 H 748.462 2.64717 -5.38558 0
M  V30 8004 H 749.532 1.45542 -4.62543 0
M  V30 8005 N 750.875 1.45233 0.611969 0
M  V30 8006 C 752.115 1.50558 1.38245 0
M  V30 8007 C 752.479 0.141959 1.91474 0
M  V30 8008 O 753.68 0.0698926 2.68709 0
M  V30 8009 C 751.951 2.55136 2.50281 0
M  V30 8010 S 753.51 2.79652 3.38142 0
M  V30 8011 H 750.328 0.532281 0.471378 0
M  V30 8012 H 752.93 1.82285 0.706578 0
M  V30 8013 H 751.634 3.52888 2.09518 0
M  V30 8014 H 751.165 2.25045 3.22674 0
M  V30 8015 H 753.18 2.12699 4.48301 0
M  V30 8016 N 752.353 -0.854086 1.3245 0
M  V30 8017 C 753.285 -1.96932 1.17262 0
M  V30 8018 C 754.298 -1.62445 0.107469 0
M  V30 8019 O 755.487 -1.74904 0.356481 0
M  V30 8020 C 752.587 -3.29971 0.772817 0
M  V30 8021 C 751.76 -3.92695 1.92638 0
M  V30 8022 C 750.819 -5.04068 1.51003 0
M  V30 8023 O 749.845 -5.24032 2.22213 0
M  V30 8024 N 751.047 -5.79076 0.406371 0
M  V30 8025 H 753.812 -2.10503 2.13327 0
M  V30 8026 H 751.373 -1.02897 1.24995 0
M  V30 8027 H 753.365 -4.01883 0.476684 0
M  V30 8028 H 751.935 -3.1245 -0.0967 0
M  V30 8029 H 751.155 -3.13563 2.38897 0
M  V30 8030 H 752.443 -4.31337 2.69863 0
M  V30 8031 H 751.841 -5.65393 -0.186302 0
M  V30 8032 H 750.398 -6.51579 0.169846 0
M  V30 8033 N 753.831 -1.1567 -1.07043 0
M  V30 8034 C 754.763 -0.814095 -2.14255 0
M  V30 8035 C 755.776 0.175293 -1.61854 0
M  V30 8036 O 756.965 -0.0483984 -1.78434 0
M  V30 8037 C 754.065 -0.190082 -3.38367 0
M  V30 8038 C 753.238 -1.21768 -4.20109 0
M  V30 8039 C 752.297 -0.614863 -5.22595 0
M  V30 8040 O 751.323 -1.28167 -5.54583 0
M  V30 8041 N 752.525 0.601955 -5.77371 0
M  V30 8042 H 755.29 -1.73677 -2.44247 0
M  V30 8043 H 752.851 -1.05301 -1.22977 0
M  V30 8044 H 754.843 0.22604 -4.04068 0
M  V30 8045 H 753.413 0.635992 -3.06062 0
M  V30 8046 H 752.633 -1.81025 -3.50177 0
M  V30 8047 H 753.921 -1.9114 -4.71533 0
M  V30 8048 H 753.319 1.162 -5.53637 0
M  V30 8049 H 751.876 0.96039 -6.44686 0
M  V30 8050 N 755.309 1.25446 -0.953992 0
M  V30 8051 C 756.241 2.25111 -0.431004 0
M  V30 8052 C 757.254 1.56377 0.452764 0
M  V30 8053 O 758.443 1.76579 0.261144 0
M  V30 8054 C 755.543 3.3655 0.39839 0
M  V30 8055 C 754.716 4.34843 -0.472229 0
M  V30 8056 C 753.775 5.25351 0.29886 0
M  V30 8057 O 752.801 5.68396 -0.302522 0
M  V30 8058 N 754.003 5.5824 1.59211 0
M  V30 8059 H 756.768 2.70619 -1.28785 0
M  V30 8060 H 754.329 1.39346 -0.824281 0
M  V30 8061 H 756.321 3.94059 0.921941 0
M  V30 8062 H 754.891 2.90436 1.15609 0
M  V30 8063 H 754.111 3.76222 -1.17689 0
M  V30 8064 H 755.399 4.97497 -1.06648 0
M  V30 8065 H 754.797 5.25172 2.10264 0
M  V30 8066 H 753.354 6.18336 2.06164 0
M  V30 8067 N 756.787 0.722489 1.40064 0
M  V30 8068 C 757.735 0.063329 2.32514 0
M  V30 8069 C 758.729 -0.73953 1.52405 0
M  V30 8070 O 759.935 -0.642122 1.68157 0
M  V30 8071 H 756.31 0.00167692 0.751998 0
M  V30 8072 H 758.281 0.859656 2.85749 0
M  V30 8073 C 757.03 -0.839219 3.3742 0
M  V30 8074 H 756.353 -0.230836 3.99133 0
M  V30 8075 H 757.793 -1.26827 4.04587 0
M  V30 8076 C 756.252 -1.96783 2.73456 0
M  V30 8077 O 756.782 -3.05933 2.60323 0
M  V30 8078 N 754.988 -1.75351 2.31734 0
M  V30 8079 H 754.535 -0.865787 2.42615 0
M  V30 8080 H 754.493 -2.51043 1.89275 0
M  V30 8081 N 758.265 -1.50454 0.469181 0
M  V30 8082 C 759.175 -2.32248 -0.331349 0
M  V30 8083 C 760.191 -1.42548 -0.997807 0
M  V30 8084 O 761.367 -1.75602 -0.9862 0
M  V30 8085 C 758.432 -3.17171 -1.40012 0
M  V30 8086 C 757.493 -4.2269 -0.750463 0
M  V30 8087 C 756.726 -5.03554 -1.76831 0
M  V30 8088 O 756.949 -4.85469 -2.99459 0
M  V30 8089 O 755.883 -5.86767 -1.3412 0
M  V30 8090 H 759.709 -3.01821 0.337279 0
M  V30 8091 H 757.294 -1.47602 0.231066 0
M  V30 8092 H 759.176 -3.69871 -2.01924 0
M  V30 8093 H 757.851 -2.50328 -2.05226 0
M  V30 8094 H 756.758 -3.73986 -0.0924446 0
M  V30 8095 H 758.091 -4.91997 -0.14131 0
M  V30 8096 N 759.743 -0.201713 -1.56304 0
M  V30 8097 C 760.693 0.729444 -2.16016 0
M  V30 8098 C 761.677 1.17164 -1.10279 0
M  V30 8099 O 762.869 1.12893 -1.36324 0
M  V30 8100 C 759.998 1.94594 -2.82822 0
M  V30 8101 C 759.084 1.52434 -3.95758 0
M  V30 8102 N 759.475 0.814106 -4.99205 0
M  V30 8103 C 757.773 1.81314 -4.07481 0
M  V30 8104 C 758.474 0.601896 -5.78578 0
M  V30 8105 N 757.45 1.15263 -5.3124 0
M  V30 8106 H 761.252 0.178163 -2.93359 0
M  V30 8107 H 758.766 -0.00218038 -1.624 0
M  V30 8108 H 760.763 2.62357 -3.23998 0
M  V30 8109 H 759.423 2.50188 -2.06969 0
M  V30 8110 H 760.434 0.468872 -5.15773 0
M  V30 8111 H 757.111 2.3837 -3.42762 0
M  V30 8112 H 758.501 0.0380119 -6.71889 0
M  V30 8113 N 761.222 1.57436 0.0718424 0
M  V30 8114 C 762.638 1.53792 0.426628 0
M  V30 8115 C 762.838 0.921887 1.79174 0
M  V30 8116 O 761.894 0.524374 2.46995 0
M  V30 8117 C 763.207 2.98443 0.367739 0
M  V30 8118 C 764.755 3.09778 0.447928 0
M  V30 8119 C 765.23 4.5608 0.418946 0
M  V30 8120 N 766.721 4.60716 0.479022 0
M  V30 8121 C 767.456 5.71397 0.47881 0
M  V30 8122 N 766.952 6.91443 0.433417 0
M  V30 8123 N 768.745 5.59639 0.525364 0
M  V30 8124 H 760.896 1.95848 -0.822033 0
M  V30 8125 H 763.159 0.896418 -0.308447 0
M  V30 8126 H 762.865 3.47072 -0.56865 0
M  V30 8127 H 762.739 3.58335 1.17795 0
M  V30 8128 H 765.126 2.61122 1.37474 0
M  V30 8129 H 765.207 2.52796 -0.390857 0
M  V30 8130 H 764.851 5.05393 -0.504016 0
M  V30 8131 H 764.781 5.10925 1.27526 0
M  V30 8132 H 767.272 3.74328 0.518355 0
M  V30 8133 H 767.585 7.71562 0.43718 0
M  V30 8134 H 765.93 6.93847 0.400106 0
M  V30 8135 H 769.121 4.64756 0.558519 0
M  V30 8136 H 769.294 6.45896 0.52173 0
M  V30 8137 N 762.7 -0.34323 1.53817 0
M  V30 8138 C 763.948 -1.0813 1.70741 0
M  V30 8139 C 764.269 -1.89165 0.473461 0
M  V30 8140 O 763.539 -1.89075 -0.512605 0
M  V30 8141 H 762.119 -0.40219 0.629486 0
M  V30 8142 H 764.781 -0.384426 1.91071 0
M  V30 8143 H 763.877 -1.7585 2.57843 0
M  V30 8144 N 764.178 -1.45556 -0.604258 0
M  V30 8145 C 765.406 -1.53278 -1.38973 0
M  V30 8146 C 765.821 -0.166509 -1.88064 0
M  V30 8147 O 765.178 0.832519 -1.62405 0
M  V30 8148 C 765.229 -2.51992 -2.59195 0
M  V30 8149 O 764.95 -3.8331 -2.12143 0
M  V30 8150 C 766.451 -2.69445 -3.52015 0
M  V30 8151 H 763.671 -0.519003 -0.425297 0
M  V30 8152 H 766.215 -1.90773 -0.736621 0
M  V30 8153 H 764.37 -2.17561 -3.2054 0
M  V30 8154 H 764.784 -4.3685 -2.90279 0
M  V30 8155 H 766.258 -3.42485 -4.32907 0
M  V30 8156 H 766.735 -1.75596 -4.0257 0
M  V30 8157 H 767.341 -3.04886 -2.9652 0
M  V30 8158 N 765.656 0.84705 -1.32902 0
M  V30 8159 C 766.604 1.97765 -1.22441 0
M  V30 8160 C 767.598 1.68919 -0.127546 0
M  V30 8161 O 768.804 1.77633 -0.290973 0
M  V30 8162 H 765.179 0.649072 -0.379748 0
M  V30 8163 H 767.15 2.03713 -2.18044 0
M  V30 8164 C 765.899 3.33834 -0.972125 0
M  V30 8165 H 765.222 3.56564 -1.80837 0
M  V30 8166 H 766.662 4.13467 -0.939209 0
M  V30 8167 C 765.121 3.35328 0.325059 0
M  V30 8168 O 765.651 3.78887 1.33445 0
M  V30 8169 N 763.857 2.88488 0.349718 0
M  V30 8170 H 763.404 2.53234 -0.472236 0
M  V30 8171 H 763.362 2.8987 1.21748 0
M  V30 8172 N 767.134 1.16236 1.06428 0
M  V30 8173 C 768.064 0.890807 2.1584 0
M  V30 8174 C 769.045 -0.162333 1.69324 0
M  V30 8175 O 770.23 -0.0147191 1.94194 0
M  V30 8176 C 767.36 0.389615 3.45108 0
M  V30 8177 C 766.314 1.38051 4.05125 0
M  V30 8178 C 765.64 0.737773 5.29586 0
M  V30 8179 C 766.94 2.74965 4.44062 0
M  V30 8180 H 768.634 1.80577 2.38814 0
M  V30 8181 H 766.18 0.869657 1.14774 0
M  V30 8182 H 768.133 0.187127 4.20984 0
M  V30 8183 H 766.857 -0.560851 3.21748 0
M  V30 8184 H 765.516 1.56952 3.31303 0
M  V30 8185 H 765.164 -0.219135 5.02522 0
M  V30 8186 H 764.864 1.39914 5.70699 0
M  V30 8187 H 766.388 0.545275 6.0816 0
M  V30 8188 H 767.802 2.59855 5.11027 0
M  V30 8189 H 766.199 3.37563 4.96156 0
M  V30 8190 H 767.269 3.30321 3.54987 0
M  V30 8191 N 768.612 -1.24939 0.960631 0
M  V30 8192 C 769.837 -1.9742 0.635608 0
M  V30 8193 C 770.262 -1.70857 -0.786737 0
M  V30 8194 O 769.62 -0.968063 -1.53291 0
M  V30 8195 C 769.668 -3.48987 0.907771 0
M  V30 8196 O 768.772 -4.12399 -0.0104053 0
M  V30 8197 H 768.113 -0.61871 0.241027 0
M  V30 8198 H 770.643 -1.58901 1.28886 0
M  V30 8199 H 770.653 -3.99334 0.836453 0
M  V30 8200 H 769.328 -3.6765 1.94439 0
M  V30 8201 H 767.905 -3.72727 0.113631 0
M  V30 8202 N 770.09 -0.729906 -1.39679 0
M  V30 8203 C 771.506 -0.404951 -1.54377 0
M  V30 8204 C 771.706 1.08476 -1.6981 0
M  V30 8205 O 770.762 1.87087 -1.69572 0
M  V30 8206 C 772.075 -1.18352 -2.76429 0
M  V30 8207 C 773.623 -1.17124 -2.9026 0
M  V30 8208 C 774.098 -1.93227 -4.15244 0
M  V30 8209 N 775.589 -1.90368 -4.22273 0
M  V30 8210 C 776.324 -2.46065 -5.17918 0
M  V30 8211 N 775.82 -3.10378 -6.19385 0
M  V30 8212 N 777.613 -2.36127 -5.10099 0
M  V30 8213 H 769.764 -1.69567 -1.27909 0
M  V30 8214 H 772.027 -0.717527 -0.619564 0
M  V30 8215 H 771.733 -2.23743 -2.71352 0
M  V30 8216 H 771.607 -0.784589 -3.6895 0
M  V30 8217 H 773.994 -0.125478 -2.94833 0
M  V30 8218 H 774.075 -1.60951 -1.98817 0
M  V30 8219 H 773.719 -2.97802 -4.11432 0
M  V30 8220 H 773.649 -1.4681 -5.05722 0
M  V30 8221 H 776.14 -1.4351 -3.4959 0
M  V30 8222 H 776.453 -3.50358 -6.88817 0
M  V30 8223 H 774.798 -3.14467 -6.19787 0
M  V30 8224 H 777.989 -1.85529 -4.29763 0
M  V30 8225 H 778.162 -2.79833 -5.84463 0
M  V30 8226 N 771.568 1.50203 -0.477153 0
M  V30 8227 C 772.515 2.28656 0.31386 0
M  V30 8228 C 773.485 1.33977 0.981802 0
M  V30 8229 O 774.67 1.62919 0.993072 0
M  V30 8230 C 771.81 3.16027 1.38639 0
M  V30 8231 C 770.923 4.25743 0.732615 0
M  V30 8232 C 770.058 5.00363 1.78355 0
M  V30 8233 C 769.097 6.01945 1.11035 0
M  V30 8234 N 768.234 6.6982 2.10441 0
M  V30 8235 H 773.074 2.958 -0.361445 0
M  V30 8236 H 770.611 1.45867 -0.190093 0
M  V30 8237 H 772.569 3.6504 2.01994 0
M  V30 8238 H 771.199 2.50917 2.03077 0
M  V30 8239 H 770.251 3.80398 -0.0136546 0
M  V30 8240 H 771.563 4.98393 0.201513 0
M  V30 8241 H 770.717 5.53124 2.49276 0
M  V30 8242 H 769.456 4.27432 2.34847 0
M  V30 8243 H 768.461 5.48438 0.386797 0
M  V30 8244 H 769.686 6.76851 0.552248 0
M  V30 8245 H 767.632 5.99677 2.65939 0
M  V30 8246 H 767.549 7.38366 1.62332 0
M  V30 8247 H 768.817 7.27196 2.80724 0
M  V30 8248 N 773.046 0.209999 1.56195 0
M  V30 8249 C 773.956 -0.716459 2.23392 0
M  V30 8250 C 774.972 -1.22291 1.23778 0
M  V30 8251 O 776.148 -1.26694 1.56558 0
M  V30 8252 C 773.213 -1.91261 2.89172 0
M  V30 8253 C 772.274 -1.44927 4.04097 0
M  V30 8254 C 771.507 -2.5884 4.66731 0
M  V30 8255 O 771.73 -3.76693 4.2832 0
M  V30 8256 O 770.664 -2.30701 5.55932 0
M  V30 8257 H 774.49 -0.174089 3.03201 0
M  V30 8258 H 772.075 -0.0199505 1.49387 0
M  V30 8259 H 773.957 -2.6114 3.30733 0
M  V30 8260 H 772.632 -2.4433 2.12331 0
M  V30 8261 H 771.539 -0.718839 3.67129 0
M  V30 8262 H 772.872 -0.965084 4.82646 0
M  V30 8263 N 774.524 -1.57472 -0.0634922 0
M  V30 8264 C 775.471 -2.04258 -1.07457 0
M  V30 8265 C 776.441 -0.924804 -1.37973 0
M  V30 8266 O 777.626 -1.19305 -1.48899 0
M  V30 8267 C 774.766 -2.49832 -2.38071 0
M  V30 8268 C 773.879 -3.75263 -2.14014 0
M  V30 8269 C 773.014 -4.09585 -3.38251 0
M  V30 8270 C 772.053 -5.28032 -3.09594 0
M  V30 8271 N 771.19 -5.57953 -4.26185 0
M  V30 8272 H 776.03 -2.90402 -0.668626 0
M  V30 8273 H 773.567 -1.43609 -0.318572 0
M  V30 8274 H 775.525 -2.7431 -3.14341 0
M  V30 8275 H 774.155 -1.66654 -2.76453 0
M  V30 8276 H 773.207 -3.58075 -1.28399 0
M  V30 8277 H 774.519 -4.61667 -1.88852 0
M  V30 8278 H 773.673 -4.35008 -4.2291 0
M  V30 8279 H 772.412 -3.21765 -3.66495 0
M  V30 8280 H 771.417 -5.02397 -2.23332 0
M  V30 8281 H 772.642 -6.17477 -2.82663 0
M  V30 8282 H 770.588 -4.73092 -4.54445 0
M  V30 8283 H 770.505 -6.38793 -4.04326 0
M  V30 8284 H 771.773 -5.87931 -5.11817 0
M  V30 8285 N 776.003 0.335068 -1.53997 0
M  V30 8286 C 776.95 1.41187 -1.82579 0
M  V30 8287 C 777.92 1.51897 -0.672061 0
M  V30 8288 O 779.105 1.673 -0.917346 0
M  V30 8289 C 776.245 2.77717 -2.0486 0
M  V30 8290 C 775.358 2.7573 -3.32561 0
M  V30 8291 C 774.493 4.04032 -3.44864 0
M  V30 8292 C 773.532 3.96308 -4.66483 0
M  V30 8293 N 772.669 5.16317 -4.75774 0
M  V30 8294 H 777.509 1.16113 -2.74448 0
M  V30 8295 H 775.046 0.562305 -1.35928 0
M  V30 8296 H 777.004 3.57071 -2.15768 0
M  V30 8297 H 775.634 3.01124 -1.16294 0
M  V30 8298 H 774.686 1.88432 -3.3045 0
M  V30 8299 H 775.998 2.65902 -4.22016 0
M  V30 8300 H 775.152 4.91814 -3.55251 0
M  V30 8301 H 773.891 4.16652 -2.53481 0
M  V30 8302 H 772.896 3.06911 -4.56164 0
M  V30 8303 H 774.121 3.85263 -5.5924 0
M  V30 8304 H 772.067 5.29464 -3.87303 0
M  V30 8305 H 771.984 5.08779 -5.59178 0
M  V30 8306 H 773.252 6.05846 -4.9048 0
M  V30 8307 N 777.481 1.45874 0.596531 0
M  V30 8308 C 778.758 1.40942 1.35627 0
M  V30 8309 C 779.138 0.0857066 2.10926 0
M  V30 8310 O 778.486 -0.932544 2.08605 0
M  V30 8311 C 778.696 2.63027 2.29386 0
M  V30 8312 C 780.044 3.08588 2.91649 0
M  V30 8313 O 781.068 2.63478 2.39704 0
M  V30 8314 O 779.927 3.86902 3.85965 0
M  V30 8315 H 777.021 0.559838 0.608696 0
M  V30 8316 H 779.567 1.5802 0.618698 0
M  V30 8317 H 778.339 3.5094 1.7308 0
M  V30 8318 H 777.962 2.48338 3.10506 0
M  V30 8319 N 778.959 -0.83999 1.33349 0
M  V30 8320 C 780.205 -1.59753 1.24927 0
M  V30 8321 C 780.538 -1.93318 -0.184855 0
M  V30 8322 O 779.813 -1.586 -1.12589 0
M  V30 8323 C 780.096 -2.90829 2.12345 0
M  V30 8324 C 779.949 -2.63953 3.6421 0
M  V30 8325 C 781.268 -3.92246 1.99577 0
M  V30 8326 H 778.387 -0.579654 0.45516 0
M  V30 8327 H 781.029 -0.968909 1.63439 0
M  V30 8328 H 779.179 -3.44478 1.79631 0
M  V30 8329 H 780.851 -2.16745 4.07209 0
M  V30 8330 H 779.094 -1.97671 3.86146 0
M  V30 8331 H 779.765 -3.57348 4.20721 0
M  V30 8332 H 782.241 -3.479 2.28265 0
M  V30 8333 H 781.117 -4.81793 2.62996 0
M  V30 8334 H 781.378 -4.3138 0.967673 0
M  V30 8335 N 780.437 -1.16799 -1.0581 0
M  V30 8336 C 781.848 -0.95945 -1.60161 0
M  V30 8337 C 782.199 0.49543 -1.89842 0
M  V30 8338 O 781.324 1.36957 -1.67546 0
M  V30 8339 C 781.919 -1.73527 -2.90987 0
M  V30 8340 C 780.478 -1.57158 -3.42021 0
M  V30 8341 C 779.625 -1.74089 -2.15843 0
M  V30 8342 H 782.576 -1.31598 -0.886992 0
M  V30 8343 H 782.597 -1.21397 -3.60615 0
M  V30 8344 H 782.109 -2.79411 -2.69353 0
M  V30 8345 H 780.21 -0.537361 -3.68705 0
M  V30 8346 H 780.323 -2.35858 -4.17022 0
M  V30 8347 H 778.687 -1.16874 -2.26302 0
M  V30 8348 H 779.47 -2.81371 -1.96686 0
M  V30 8349 N 781.915 1.24427 -0.967243 0
M  V30 8350 C 782.862 2.25398 -0.496419 0
M  V30 8351 C 783.832 1.59667 0.457781 0
M  V30 8352 O 785.017 1.87213 0.368246 0
M  V30 8353 C 782.157 3.44474 0.207693 0
M  V30 8354 C 781.27 4.24804 -0.785221 0
M  V30 8355 C 780.405 5.31169 -0.0572631 0
M  V30 8356 C 779.444 6.03195 -1.04027 0
M  V30 8357 N 778.581 7.01265 -0.34235 0
M  V30 8358 H 783.421 2.65039 -1.36229 0
M  V30 8359 H 780.958 1.30288 -0.682902 0
M  V30 8360 H 782.916 4.12376 0.632612 0
M  V30 8361 H 781.546 3.05672 1.03752 0
M  V30 8362 H 780.598 3.56445 -1.32858 0
M  V30 8363 H 781.91 4.74599 -1.53483 0
M  V30 8364 H 781.064 6.05205 0.425674 0
M  V30 8365 H 779.803 4.8228 0.725047 0
M  V30 8366 H 778.808 5.27964 -1.53409 0
M  V30 8367 H 780.033 6.54173 -1.82302 0
M  V30 8368 H 777.979 6.54648 0.420993 0
M  V30 8369 H 777.896 7.48939 -1.03084 0
M  V30 8370 H 779.164 7.7941 0.118634 0
M  V30 8371 N 783.393 0.737304 1.3929 0
M  V30 8372 C 784.804 0.355966 1.83275 0
M  V30 8373 C 785.155 -1.11295 1.6158 0
M  V30 8374 O 784.28 -1.85871 1.10819 0
M  V30 8375 C 784.875 0.63931 3.32713 0
M  V30 8376 C 783.434 0.31144 3.75109 0
M  V30 8377 C 782.581 0.900765 2.62262 0
M  V30 8378 H 785.532 0.934763 1.28249 0
M  V30 8379 H 785.553 -0.0881293 3.80398 0
M  V30 8380 H 785.065 1.70847 3.48472 0
M  V30 8381 H 783.166 -0.751791 3.64937 0
M  V30 8382 H 783.279 0.795611 4.72448 0
M  V30 8383 H 781.643 0.327239 2.52589 0
M  V30 8384 H 782.426 1.97463 2.80826 0
M  V30 8385 N 784.871 -1.49948 0.485112 0
M  V30 8386 C 786.12 -2.01589 -0.066765 0
M  V30 8387 C 786.433 -1.371 -1.39509 0
M  V30 8388 O 787.639 -1.79978 -2.03274 0
M  V30 8389 C 786.095 -3.59501 -0.169476 0
M  V30 8390 C 785.703 -4.32955 1.15126 0
M  V30 8391 C 787.447 -4.19138 -0.672564 0
M  V30 8392 C 785.354 -5.82684 1.01158 0
M  V30 8393 H 784.284 -0.753453 -0.0287259 0
M  V30 8394 H 786.935 -1.72632 0.622132 0
M  V30 8395 H 785.317 -3.85106 -0.922471 0
M  V30 8396 H 786.491 -4.19064 1.9163 0
M  V30 8397 H 784.806 -3.84991 1.58654 0
M  V30 8398 H 787.403 -5.28767 -0.794325 0
M  V30 8399 H 787.746 -3.81447 -1.66745 0
M  V30 8400 H 788.279 -3.97793 0.0234415 0
M  V30 8401 H 785.018 -6.24873 1.98025 0
M  V30 8402 H 784.538 -5.99112 0.287151 0
M  V30 8403 H 786.217 -6.43376 0.683847 0
M  V30 8404 N 786.349 -0.21828 -1.56081 0
M  V30 8405 C 787.574 0.422302 -2.03055 0
M  V30 8406 C 787.999 1.5279 -1.09713 0
M  V30 8407 O 787.357 1.81102 -0.0847187 0
M  V30 8408 C 787.405 0.934177 -3.48289 0
M  V30 8409 O 786.509 2.04574 -3.58083 0
M  V30 8410 H 785.85 0.0959764 -0.657027 0
M  V30 8411 H 788.38 -0.335958 -2.01823 0
M  V30 8412 H 788.39 1.24484 -3.88546 0
M  V30 8413 H 787.065 0.124963 -4.15712 0
M  V30 8414 H 785.642 1.74196 -3.29712 0
M  V30 8415 N 787.827 1.57504 0.0551401 0
M  V30 8416 C 788.775 2.05884 1.08233 0
M  V30 8417 C 789.769 0.967383 1.39061 0
M  V30 8418 O 790.975 1.15242 1.38273 0
M  V30 8419 H 787.35 0.656673 0.366449 0
M  V30 8420 H 789.321 2.91273 0.648269 0
M  V30 8421 C 788.07 2.53221 2.38273 0
M  V30 8422 H 787.393 3.36809 2.15406 0
M  V30 8423 H 788.833 2.9081 3.08554 0
M  V30 8424 C 787.292 1.42218 3.05411 0
M  V30 8425 O 787.822 0.773638 3.9418 0
M  V30 8426 N 786.028 1.16316 2.66306 0
M  V30 8427 H 785.575 1.69237 1.94207 0
M  V30 8428 H 785.533 0.422534 3.11548 0
M  V30 8429 N 789.305 -0.326896 1.54172 0
M  V30 8430 C 790.553 -1.06313 1.71878 0
M  V30 8431 C 790.874 -1.88652 0.493498 0
M  V30 8432 O 790.144 -1.89608 -0.492522 0
M  V30 8433 H 788.724 -0.39549 0.633716 0
M  V30 8434 H 791.386 -0.364139 1.91468 0
M  V30 8435 H 790.482 -1.73105 2.59694 0
M  V30 8436 N 790.784 -1.46188 -0.588786 0
M  V30 8437 C 791.714 -1.59148 -1.70863 0
M  V30 8438 C 792.695 -0.442083 -1.64255 0
M  V30 8439 O 793.88 -0.667575 -1.82365 0
M  V30 8440 C 791.01 -1.5757 -3.09498 0
M  V30 8441 C 789.964 -2.71418 -3.30932 0
M  V30 8442 C 789.29 -2.549 -4.70032 0
M  V30 8443 C 790.59 -4.1329 -3.19356 0
M  V30 8444 H 792.284 -2.52889 -1.60274 0
M  V30 8445 H 789.83 -1.21707 -0.769638 0
M  V30 8446 H 791.783 -1.65231 -3.87655 0
M  V30 8447 H 790.507 -0.603705 -3.20972 0
M  V30 8448 H 789.166 -2.63216 -2.55172 0
M  V30 8449 H 788.814 -1.55797 -4.78264 0
M  V30 8450 H 788.514 -3.31257 -4.85327 0
M  V30 8451 H 790.038 -2.64443 -5.50366 0
M  V30 8452 H 791.452 -4.22636 -3.87365 0
M  V30 8453 H 789.849 -4.90187 -3.46175 0
M  V30 8454 H 790.919 -4.33874 -2.16522 0
M  V30 8455 N 792.262 0.832906 -1.33792 0
M  V30 8456 C 793.673 1.40489 -1.22963 0
M  V30 8457 C 794.024 1.95633 0.149026 0
M  V30 8458 O 793.149 1.8928 1.04891 0
M  V30 8459 C 793.744 2.55387 -2.22627 0
M  V30 8460 C 792.303 3.08522 -2.15618 0
M  V30 8461 C 791.45 1.81347 -2.09782 0
M  V30 8462 H 794.401 0.638156 -1.45304 0
M  V30 8463 H 794.422 3.33193 -1.83746 0
M  V30 8464 H 793.934 2.15222 -3.22957 0
M  V30 8465 H 792.035 3.53217 -1.18611 0
M  V30 8466 H 792.148 3.6829 -3.0643 0
M  V30 8467 H 790.512 2.01839 -1.55349 0
M  V30 8468 H 791.295 1.43369 -3.1193 0
M  V30 8469 N 793.74 1.17359 1.05189 0
M  V30 8470 C 795.151 0.96793 1.5965 0
M  V30 8471 C 795.502 -0.485355 1.90102 0
M  V30 8472 O 794.627 -1.36066 1.6827 0
M  V30 8473 C 795.222 1.75068 2.90063 0
M  V30 8474 C 793.781 1.58969 3.41183 0
M  V30 8475 C 792.928 1.75231 2.14917 0
M  V30 8476 H 795.879 1.32067 0.880001 0
M  V30 8477 H 795.9 1.23308 3.59966 0
M  V30 8478 H 795.412 2.80835 2.67868 0
M  V30 8479 H 793.513 0.556906 3.68415 0
M  V30 8480 H 793.626 2.38067 4.15766 0
M  V30 8481 H 791.99 1.18073 2.25679 0
M  V30 8482 H 792.773 2.8241 1.95191 0
M  V30 8483 N 795.218 -1.23913 0.973828 0
M  V30 8484 C 796.446 -1.96195 0.656891 0
M  V30 8485 C 796.861 -1.72166 -0.774876 0
M  V30 8486 O 796.218 -1.0091 -1.52064 0
M  V30 8487 C 796.269 -3.49342 0.929638 0
M  V30 8488 O 795.99 -3.72553 2.30512 0
M  V30 8489 C 797.491 -4.38833 0.627739 0
M  V30 8490 H 794.711 -0.624841 0.244572 0
M  V30 8491 H 797.255 -1.57579 1.30343 0
M  V30 8492 H 795.41 -3.85999 0.329216 0
M  V30 8493 H 795.824 -4.66893 2.3898 0
M  V30 8494 H 797.298 -5.45117 0.868991 0
M  V30 8495 H 797.775 -4.37009 -0.438104 0
M  V30 8496 H 798.381 -4.07773 1.20834 0
M  V30 8497 N 796.696 -0.74468 -1.38897 0
M  V30 8498 C 798.107 -0.36568 -1.83084 0
M  V30 8499 C 798.458 1.10436 -1.62168 0
M  V30 8500 O 797.583 1.85281 -1.11804 0
M  V30 8501 C 798.178 -0.656946 -3.3237 0
M  V30 8502 C 796.737 -0.331329 -3.74939 0
M  V30 8503 C 795.884 -0.914661 -2.61781 0
M  V30 8504 H 798.835 -0.941551 -1.27752 0
M  V30 8505 H 798.856 0.0679546 -3.80439 0
M  V30 8506 H 798.368 -1.72693 -3.47561 0
M  V30 8507 H 796.469 0.732426 -3.6533 0
M  V30 8508 H 796.582 -0.820655 -4.72019 0
M  V30 8509 H 794.946 -0.34063 -2.52412 0
M  V30 8510 H 795.729 -1.98949 -2.79775 0
M  V30 8511 N 798.174 1.49689 -0.493057 0
M  V30 8512 C 799.121 2.28976 0.28959 0
M  V30 8513 C 800.091 1.35011 0.967536 0
M  V30 8514 O 801.276 1.63964 0.975736 0
M  V30 8515 C 798.416 3.1748 1.35279 0
M  V30 8516 C 797.529 4.26496 0.687418 0
M  V30 8517 C 796.664 5.02226 1.73038 0
M  V30 8518 C 795.703 6.03089 1.04645 0
M  V30 8519 N 794.84 6.72014 2.03325 0
M  V30 8520 H 799.68 2.954 -0.392798 0
M  V30 8521 H 797.217 1.45657 -0.205554 0
M  V30 8522 H 799.175 3.67162 1.98111 0
M  V30 8523 H 797.805 2.53057 2.00405 0
M  V30 8524 H 796.857 3.80362 -0.0540001 0
M  V30 8525 H 798.169 4.98578 0.14864 0
M  V30 8526 H 797.323 5.55737 2.43395 0
M  V30 8527 H 796.062 4.29899 2.303 0
M  V30 8528 H 795.067 5.48817 0.328606 0
M  V30 8529 H 796.292 6.77398 0.480428 0
M  V30 8530 H 794.238 6.02464 2.59564 0
M  V30 8531 H 794.155 7.40046 1.54492 0
M  V30 8532 H 795.423 7.30133 2.72995 0
M  V30 8533 N 799.652 0.226554 1.55963 0
M  V30 8534 C 800.898 -0.404387 1.98727 0
M  V30 8535 C 801.231 -1.59059 1.11418 0
M  V30 8536 O 800.506 -1.93729 0.172971 0
M  V30 8537 C 800.789 -0.834081 3.50307 0
M  V30 8538 C 800.642 0.356104 4.48388 0
M  V30 8539 C 801.961 -1.68845 4.06423 0
M  V30 8540 H 799.08 -0.145515 0.722492 0
M  V30 8541 H 801.722 0.323791 1.87221 0
M  V30 8542 H 799.872 -1.45454 3.60244 0
M  V30 8543 H 801.544 0.99432 4.50456 0
M  V30 8544 H 799.787 1.0027 4.22053 0
M  V30 8545 H 800.458 0.0124333 5.51999 0
M  V30 8546 H 802.934 -1.16489 3.99461 0
M  V30 8547 H 801.81 -1.958 5.1279 0
M  V30 8548 H 802.071 -2.65347 3.53615 0
M  V30 8549 N 801.13 -1.57531 -0.0467866 0
M  V30 8550 C 802.08 -2.01845 -1.06031 0
M  V30 8551 C 803.064 -0.904662 -1.33059 0
M  V30 8552 O 804.256 -1.16858 -1.32941 0
M  V30 8553 C 801.385 -2.48673 -2.36679 0
M  V30 8554 C 800.471 -3.66837 -2.12818 0
M  V30 8555 N 800.862 -4.80172 -1.5896 0
M  V30 8556 C 799.16 -3.73869 -2.43183 0
M  V30 8557 C 799.861 -5.61895 -1.50494 0
M  V30 8558 N 798.837 -5.0648 -1.97431 0
M  V30 8559 H 802.639 -2.869 -0.637623 0
M  V30 8560 H 800.153 -1.6041 -0.253427 0
M  V30 8561 H 802.15 -2.78671 -3.10077 0
M  V30 8562 H 800.81 -1.65016 -2.79642 0
M  V30 8563 H 801.821 -5.01967 -1.27474 0
M  V30 8564 H 798.498 -3.00977 -2.89342 0
M  V30 8565 H 799.888 -6.62918 -1.09494 0
M  V30 8566 N 802.608 0.318715 -1.54344 0
M  V30 8567 C 803.541 1.41644 -1.7892 0
M  V30 8568 C 804.519 1.495 -0.639421 0
M  V30 8569 O 805.703 1.66835 -0.877404 0
M  V30 8570 C 802.83 2.79701 -1.9101 0
M  V30 8571 C 801.876 2.89354 -3.13331 0
M  V30 8572 S 802.709 2.53264 -4.71824 0
M  V30 8573 C 803.865 3.93384 -4.86826 0
M  V30 8574 H 804.098 1.20585 -2.71747 0
M  V30 8575 H 801.631 0.515828 -1.45529 0
M  V30 8576 H 803.589 3.59227 -1.98661 0
M  V30 8577 H 802.25 2.9804 -0.991516 0
M  V30 8578 H 801.443 3.90574 -3.1854 0
M  V30 8579 H 801.045 2.17805 -3.04035 0
M  V30 8580 H 803.337 4.88191 -4.69761 0
M  V30 8581 H 804.28 3.93156 -5.88926 0
M  V30 8582 H 804.688 3.82564 -4.15097 0
M  V30 8583 N 804.086 1.46499 0.581025 0
M  V30 8584 C 805.334 1.51596 1.33653 0
M  V30 8585 C 805.655 0.169859 1.94259 0
M  V30 8586 O 804.925 -0.803776 1.78651 0
M  V30 8587 H 803.505 0.558346 0.496244 0
M  V30 8588 H 806.167 1.8264 0.680338 0
M  V30 8589 H 805.263 2.26956 2.14237 0
M  V30 8590 N 805.565 -0.825799 1.34232 0
M  V30 8591 C 806.528 -1.91808 1.25468 0
M  V30 8592 C 807.528 -1.59893 0.170567 0
M  V30 8593 O 808.718 -1.68986 0.422996 0
M  V30 8594 C 805.85 -3.27786 0.93644 0
M  V30 8595 H 807.043 -2.01003 2.22571 0
M  V30 8596 H 804.596 -1.01944 1.18479 0
M  V30 8597 H 805.331 -3.24285 -0.0315408 0
M  V30 8598 H 805.116 -3.52333 1.72057 0
M  V30 8599 H 806.606 -4.07782 0.900214 0
M  V30 8600 N 807.043 -1.17915 -1.04565 0
M  V30 8601 C 808.283 -0.982331 -1.79247 0
M  V30 8602 C 808.647 0.47998 -1.85904 0
M  V30 8603 O 809.848 0.796078 -2.56741 0
M  V30 8604 C 808.119 -1.61329 -3.18916 0
M  V30 8605 S 809.678 -1.56355 -4.09998 0
M  V30 8606 H 806.496 -0.352869 -0.617256 0
M  V30 8607 H 809.098 -1.49971 -1.25415 0
M  V30 8608 H 807.802 -2.66993 -3.11678 0
M  V30 8609 H 807.333 -1.09599 -3.77825 0
M  V30 8610 H 809.348 -0.57593 -4.92846 0
M  V30 8611 N 808.521 1.23394 -0.980386 0
M  V30 8612 C 809.768 1.91809 -0.649261 0
M  V30 8613 C 810.096 1.765 0.817197 0
M  V30 8614 O 809.351 1.11979 1.60497 0
M  V30 8615 C 809.65 3.43542 -0.985588 0
M  V30 8616 C 809.316 3.79031 -2.44225 0
M  V30 8617 C 807.978 3.88429 -2.84035 0
M  V30 8618 C 810.33 3.96145 -3.38702 0
M  V30 8619 C 807.658 4.12368 -4.17336 0
M  V30 8620 C 810.01 4.21583 -4.71646 0
M  V30 8621 C 808.674 4.29203 -5.11215 0
M  V30 8622 H 807.944 0.70188 -0.237581 0
M  V30 8623 H 810.591 1.4642 -1.23424 0
M  V30 8624 H 808.896 3.90503 -0.318521 0
M  V30 8625 H 810.593 3.94708 -0.707596 0
M  V30 8626 H 807.183 3.7229 -2.12362 0
M  V30 8627 H 811.367 3.88274 -3.09123 0
M  V30 8628 H 806.623 4.1649 -4.47601 0
M  V30 8629 H 810.797 4.33769 -5.4481 0
M  V30 8630 H 808.424 4.47505 -6.14527 0
M  V30 8631 N 809.999 0.752036 1.385 0
M  V30 8632 C 811.224 0.316993 2.04963 0
M  V30 8633 C 811.649 -1.04582 1.56346 0
M  V30 8634 O 811.007 -1.66616 0.714755 0
M  V30 8635 C 811.055 0.347235 3.58924 0
M  V30 8636 O 810.159 -0.659296 4.07096 0
M  V30 8637 H 809.5 0.140652 0.648932 0
M  V30 8638 H 812.03 1.02272 1.77205 0
M  V30 8639 H 812.04 0.19757 4.07521 0
M  V30 8640 H 810.715 1.34157 3.93668 0
M  V30 8641 H 809.292 -0.474371 3.6987 0
M  V30 8642 N 811.477 -1.49425 0.500989 0
M  V30 8643 C 812.424 -2.29126 -0.277443 0
M  V30 8644 C 813.394 -1.35522 -0.960363 0
M  V30 8645 O 814.579 -1.64479 -0.967027 0
M  V30 8646 C 811.719 -3.18193 -1.33593 0
M  V30 8647 C 810.832 -4.26854 -0.664791 0
M  V30 8648 C 809.967 -5.03137 -1.70372 0
M  V30 8649 C 809.006 -6.03635 -1.01445 0
M  V30 8650 N 808.143 -6.73083 -1.99758 0
M  V30 8651 H 812.983 -2.95187 0.408458 0
M  V30 8652 H 810.52 -1.45546 0.213275 0
M  V30 8653 H 812.478 -3.68207 -1.96161 0
M  V30 8654 H 811.108 -2.54116 -1.9906 0
M  V30 8655 H 810.16 -3.80328 0.0741708 0
M  V30 8656 H 811.472 -4.9865 -0.122197 0
M  V30 8657 H 810.626 -5.5702 -2.40445 0
M  V30 8658 H 809.365 -4.31114 -2.28017 0
M  V30 8659 H 808.37 -5.48984 -0.299496 0
M  V30 8660 H 809.595 -6.77644 -0.444497 0
M  V30 8661 H 807.541 -6.03832 -2.56365 0
M  V30 8662 H 807.458 -7.40855 -1.50565 0
M  V30 8663 H 808.726 -7.3157 -2.69119 0
M  V30 8664 N 812.955 -0.234822 -1.55841 0
M  V30 8665 C 814.201 0.393843 -1.98939 0
M  V30 8666 C 814.534 1.58466 -1.1226 0
M  V30 8667 O 813.809 1.93635 -0.183242 0
M  V30 8668 C 814.092 0.815492 -3.50745 0
M  V30 8669 C 813.945 -0.379878 -4.48193 0
M  V30 8670 C 815.264 1.66687 -4.07312 0
M  V30 8671 H 812.383 0.141681 -0.723253 0
M  V30 8672 H 815.025 -0.333716 -1.87046 0
M  V30 8673 H 813.175 1.43541 -3.6101 0
M  V30 8674 H 814.847 -1.0182 -4.49923 0
M  V30 8675 H 813.09 -1.02507 -4.21515 0
M  V30 8676 H 813.761 -0.0417069 -5.51984 0
M  V30 8677 H 816.237 1.14369 -4.00074 0
M  V30 8678 H 815.113 1.93078 -5.13821 0
M  V30 8679 H 815.374 2.63468 -3.55017 0
M  V30 8680 N 814.433 1.57553 0.0384317 0
M  V30 8681 C 815.68 1.88841 0.731116 0
M  V30 8682 C 816.008 0.83093 1.75857 0
M  V30 8683 O 815.263 -0.169248 1.94967 0
M  V30 8684 C 815.562 3.26862 1.44554 0
M  V30 8685 C 815.228 4.47472 0.554946 0
M  V30 8686 C 813.89 4.80203 0.309621 0
M  V30 8687 C 816.242 5.21165 -0.0605204 0
M  V30 8688 C 813.57 5.8402 -0.560101 0
M  V30 8689 C 815.922 6.25905 -0.91789 0
M  V30 8690 C 814.586 6.57117 -1.17277 0
M  V30 8691 H 813.856 0.691018 0.267534 0
M  V30 8692 H 816.503 1.91498 -0.00883195 0
M  V30 8693 H 814.808 3.2015 2.25856 0
M  V30 8694 H 816.505 3.48316 1.98688 0
M  V30 8695 H 813.095 4.21874 0.756304 0
M  V30 8696 H 817.279 4.96164 0.116064 0
M  V30 8697 H 812.535 6.06583 -0.765974 0
M  V30 8698 H 816.709 6.82155 -1.40136 0
M  V30 8699 H 814.336 7.37385 -1.84843 0
M  V30 8700 N 815.911 -0.310526 1.54511 0
M  V30 8701 C 816.859 -1.40272 1.85544 0
M  V30 8702 C 817.853 -1.52941 0.728377 0
M  V30 8703 O 819.059 -1.55172 0.912234 0
M  V30 8704 H 815.434 -0.468355 0.588343 0
M  V30 8705 H 817.405 -1.11329 2.76855 0
M  V30 8706 C 816.154 -2.76279 2.11105 0
M  V30 8707 H 815.477 -2.67308 2.97298 0
M  V30 8708 H 816.917 -3.51736 2.36765 0
M  V30 8709 C 815.376 -3.24472 0.906618 0
M  V30 8710 O 815.906 -4.01514 0.122358 0
M  V30 8711 N 814.112 -2.81676 0.714632 0
M  V30 8712 H 813.659 -2.19143 1.35404 0
M  V30 8713 H 813.617 -3.14272 -0.089703 0
M  V30 8714 N 817.389 -1.46805 -0.573248 0
M  V30 8715 C 818.637 -1.52302 -1.32847 0
M  V30 8716 C 818.958 -0.180159 -1.94166 0
M  V30 8717 O 818.228 0.794291 -1.79075 0
M  V30 8718 H 816.808 -0.56097 -0.493276 0
M  V30 8719 H 819.47 -1.82998 -0.670642 0
M  V30 8720 H 818.566 -2.28089 -2.13031 0
M  V30 8721 N 818.867 0.818669 -1.34668 0
M  V30 8722 C 820.107 1.58862 -1.28617 0
M  V30 8723 C 820.471 1.91483 0.140845 0
M  V30 8724 O 821.672 2.66821 0.325583 0
M  V30 8725 C 819.943 2.85044 -2.15604 0
M  V30 8726 S 821.502 3.75553 -2.26948 0
M  V30 8727 H 818.32 0.544454 -0.457265 0
M  V30 8728 H 820.922 0.966679 -1.69928 0
M  V30 8729 H 819.626 2.59083 -3.18284 0
M  V30 8730 H 819.157 3.52231 -1.75205 0
M  V30 8731 H 821.172 4.74682 -1.44539 0
M  V30 8732 N 820.346 1.18468 1.03938 0
M  V30 8733 C 821.757 0.984808 1.58614 0
M  V30 8734 C 822.108 -0.465165 1.90606 0
M  V30 8735 O 821.233 -1.34274 1.69704 0
M  V30 8736 C 821.828 1.78135 2.8819 0
M  V30 8737 C 820.387 1.62579 3.39478 0
M  V30 8738 C 819.534 1.77501 2.13046 0
M  V30 8739 H 822.485 1.32993 0.865944 0
M  V30 8740 H 822.506 1.27119 3.58638 0
M  V30 8741 H 822.018 2.83661 2.64874 0
M  V30 8742 H 820.119 0.59595 3.67803 0
M  V30 8743 H 820.232 2.42463 4.13217 0
M  V30 8744 H 818.596 1.2046 2.24414 0
M  V30 8745 H 819.379 2.84464 1.92185 0
M  V30 8746 N 821.824 -1.22873 0.986916 0
M  V30 8747 C 822.754 -2.2688 0.552064 0
M  V30 8748 C 823.735 -1.64883 -0.418048 0
M  V30 8749 O 824.92 -1.9171 -0.30999 0
M  V30 8750 C 822.05 -3.47018 -0.139959 0
M  V30 8751 C 821.004 -4.21411 0.748091 0
M  V30 8752 C 820.33 -5.34645 -0.0765132 0
M  V30 8753 C 821.63 -4.80726 2.04206 0
M  V30 8754 H 823.324 -2.63507 1.42143 0
M  V30 8755 H 820.87 -1.26668 0.68492 0
M  V30 8756 H 822.823 -4.18931 -0.455527 0
M  V30 8757 H 821.547 -3.0947 -1.04382 0
M  V30 8758 H 820.206 -3.51325 1.04721 0
M  V30 8759 H 819.854 -4.93339 -0.981109 0
M  V30 8760 H 819.554 -5.85342 0.514606 0
M  V30 8761 H 821.078 -6.09377 -0.386313 0
M  V30 8762 H 822.492 -5.44612 1.79083 0
M  V30 8763 H 820.889 -5.41737 2.5815 0
M  V30 8764 H 821.959 -4.01109 2.72469 0
M  V30 8765 N 823.302 -0.75937 -1.38099 0
M  V30 8766 C 824.249 -0.135508 -2.30402 0
M  V30 8767 C 825.219 0.703356 -1.50473 0
M  V30 8768 O 826.404 0.658287 -1.79084 0
M  V30 8769 C 823.544 0.747228 -3.36913 0
M  V30 8770 C 822.657 -0.106893 -4.31868 0
M  V30 8771 C 821.792 0.779388 -5.25451 0
M  V30 8772 C 820.831 -0.0780179 -6.1205 0
M  V30 8773 N 819.968 0.765545 -6.97914 0
M  V30 8774 H 824.808 -0.9282 -2.83176 0
M  V30 8775 H 822.345 -0.46935 -1.39411 0
M  V30 8776 H 824.303 1.27371 -3.97281 0
M  V30 8777 H 822.933 1.50565 -2.85535 0
M  V30 8778 H 821.985 -0.751063 -3.72912 0
M  V30 8779 H 823.297 -0.768798 -4.9284 0
M  V30 8780 H 822.451 1.37282 -5.90964 0
M  V30 8781 H 821.19 1.47501 -4.6486 0
M  V30 8782 H 820.195 -0.684078 -5.45528 0
M  V30 8783 H 821.42 -0.770786 -6.74712 0
M  V30 8784 H 819.366 1.44601 -6.39864 0
M  V30 8785 H 819.283 0.160666 -7.55829 0
M  V30 8786 H 820.551 1.34377 -7.6783 0
M  V30 8787 N 824.78 1.49157 -0.508906 0
M  V30 8788 C 826.029 2.0167 0.0346854 0
M  V30 8789 C 826.342 1.39302 1.37311 0
M  V30 8790 O 827.548 1.83189 2.00385 0
M  V30 8791 C 826.004 3.59725 0.112261 0
M  V30 8792 C 825.612 4.31069 -1.21999 0
M  V30 8793 C 827.356 4.20155 0.605798 0
M  V30 8794 C 825.263 5.81001 -1.10415 0
M  V30 8795 H 824.193 0.753814 0.0167355 0
M  V30 8796 H 826.844 1.7162 -0.649518 0
M  V30 8797 H 825.226 3.86525 0.861087 0
M  V30 8798 H 826.4 4.15962 -1.98273 0
M  V30 8799 H 824.715 3.82418 -1.64759 0
M  V30 8800 H 827.312 5.29964 0.710102 0
M  V30 8801 H 827.655 3.84051 1.60656 0
M  V30 8802 H 828.188 3.97705 -0.0867239 0
M  V30 8803 H 824.927 6.21643 -2.07941 0
M  V30 8804 H 824.447 5.9858 -0.382428 0
M  V30 8805 H 826.126 6.42207 -0.786116 0
M  V30 8806 N 826.258 0.243083 1.55714 0
M  V30 8807 C 827.208 -0.671915 2.17875 0
M  V30 8808 C 828.192 -1.14199 1.13347 0
M  V30 8809 O 829.384 -1.09239 1.39269 0
M  V30 8810 C 826.513 -1.87027 2.87881 0
M  V30 8811 C 825.599 -1.41888 3.99661 0
M  V30 8812 N 825.99 -0.681465 5.01188 0
M  V30 8813 C 824.288 -1.70447 4.12145 0
M  V30 8814 C 824.989 -0.448285 5.7997 0
M  V30 8815 N 823.965 -1.01137 5.34109 0
M  V30 8816 H 827.767 -0.100321 2.93729 0
M  V30 8817 H 825.281 0.0452371 1.62337 0
M  V30 8818 H 827.278 -2.53674 3.3084 0
M  V30 8819 H 825.938 -2.44613 2.13529 0
M  V30 8820 H 826.949 -0.331959 5.16835 0
M  V30 8821 H 823.626 -2.29198 3.48962 0
M  V30 8822 H 825.016 0.140141 6.71754 0
M  V30 8823 N 827.736 -1.57571 -0.0300757 0
M  V30 8824 C 828.976 -1.91074 -0.725946 0
M  V30 8825 C 829.34 -0.841545 -1.72575 0
M  V30 8826 O 830.541 -1.06088 -2.46979 0
M  V30 8827 C 828.812 -3.2973 -1.37888 0
M  V30 8828 S 830.371 -3.85065 -2.10405 0
M  V30 8829 H 827.189 -0.669084 -0.240515 0
M  V30 8830 H 829.791 -1.9549 0.019384 0
M  V30 8831 H 828.495 -4.05411 -0.637974 0
M  V30 8832 H 828.026 -3.28614 -2.16278 0
M  V30 8833 H 830.041 -3.63711 -3.37533 0
M  V30 8834 N 829.214 0.302327 -1.54673 0
M  V30 8835 C 830.177 1.35592 -1.8479 0
M  V30 8836 C 831.177 1.43743 -0.72073 0
M  V30 8837 O 832.367 1.43402 -0.989017 0
M  V30 8838 C 829.499 2.74091 -2.02699 0
M  V30 8839 H 830.692 1.10132 -2.78946 0
M  V30 8840 H 828.245 0.538926 -1.46715 0
M  V30 8841 H 828.98 3.04775 -1.10826 0
M  V30 8842 H 828.765 2.69565 -2.8474 0
M  V30 8843 H 830.255 3.50272 -2.27374 0
M  V30 8844 N 830.692 1.47107 0.565454 0
M  V30 8845 C 831.917 1.57153 1.35343 0
M  V30 8846 C 832.342 0.219247 1.86818 0
M  V30 8847 O 831.7 -0.803539 1.62521 0
M  V30 8848 C 831.748 2.59387 2.50501 0
M  V30 8849 O 830.852 2.14086 3.52478 0
M  V30 8850 H 830.193 0.528209 0.402357 0
M  V30 8851 H 832.723 1.92821 0.684189 0
M  V30 8852 H 832.733 2.79546 2.97184 0
M  V30 8853 H 831.408 3.57579 2.12391 0
M  V30 8854 H 829.985 2.03991 3.12157 0
M  V30 8855 N 832.17 -0.811516 1.35101 0
M  V30 8856 C 833.395 -1.60499 1.31358 0
M  V30 8857 C 833.82 -1.87793 -0.107383 0
M  V30 8858 O 833.178 -1.46161 -1.07268 0
M  V30 8859 C 833.226 -2.91612 2.12119 0
M  V30 8860 O 832.33 -3.84211 1.49853 0
M  V30 8861 H 831.671 -0.487702 0.450603 0
M  V30 8862 H 834.201 -1.00758 1.7807 0
M  V30 8863 H 834.211 -3.4108 2.23894 0
M  V30 8864 H 832.886 -2.71071 3.15426 0
M  V30 8865 H 831.463 -3.42751 1.46889 0
M  V30 8866 N 833.648 -1.19017 -1.03309 0
M  V30 8867 C 834.894 -1.0017 -1.77024 0
M  V30 8868 C 835.249 0.463062 -1.86744 0
M  V30 8869 O 834.542 1.33937 -1.37009 0
M  V30 8870 C 834.736 -1.59927 -3.19622 0
M  V30 8871 C 834.565 -3.12062 -3.23802 0
M  V30 8872 C 833.335 -3.80932 -3.31992 0
M  V30 8873 C 835.533 -4.0947 -3.1119 0
M  V30 8874 N 833.515 -5.20502 -3.25502 0
M  V30 8875 C 834.886 -5.3561 -3.12285 0
M  V30 8876 C 836.941 -4.00887 -2.95287 0
M  V30 8877 C 835.644 -6.54161 -2.99109 0
M  V30 8878 C 837.67 -5.19042 -2.83459 0
M  V30 8879 C 837.032 -6.44079 -2.85205 0
M  V30 8880 H 833.131 -0.420633 -0.659236 0
M  V30 8881 H 835.715 -1.5092 -1.23009 0
M  V30 8882 H 833.886 -1.11785 -3.71966 0
M  V30 8883 H 835.618 -1.34557 -3.81676 0
M  V30 8884 H 832.373 -3.31702 -3.38039 0
M  V30 8885 H 832.797 -5.93519 -3.25675 0
M  V30 8886 H 837.439 -3.05042 -2.92762 0
M  V30 8887 H 835.157 -7.50196 -3.00386 0
M  V30 8888 H 838.743 -5.14199 -2.72197 0
M  V30 8889 H 837.623 -7.33969 -2.7615 0
M  V30 8890 N 835.127 1.22348 -0.993418 0
M  V30 8891 C 836.376 1.90422 -0.665019 0
M  V30 8892 C 836.689 1.78199 0.806512 0
M  V30 8893 O 837.895 2.41193 1.24652 0
M  V30 8894 C 836.351 3.41403 -1.13893 0
M  V30 8895 C 835.959 3.62262 -2.63572 0
M  V30 8896 C 837.703 4.15175 -0.884884 0
M  V30 8897 C 835.61 5.06947 -3.04564 0
M  V30 8898 H 834.54 0.713073 -0.245037 0
M  V30 8899 H 837.191 1.3856 -1.20305 0
M  V30 8900 H 835.573 3.9245 -0.529027 0
M  V30 8901 H 836.747 3.21705 -3.29913 0
M  V30 8902 H 835.062 3.01824 -2.86865 0
M  V30 8903 H 837.659 5.21813 -1.16684 0
M  V30 8904 H 838.002 4.15915 0.178982 0
M  V30 8905 H 838.535 3.70157 -1.45701 0
M  V30 8906 H 835.274 5.11346 -4.10128 0
M  V30 8907 H 834.794 5.48404 -2.42927 0
M  V30 8908 H 836.473 5.75374 -2.95894 0
M  V30 8909 N 836.605 0.766683 1.37694 0
M  V30 8910 C 837.553 0.137269 2.32195 0
M  V30 8911 C 838.547 -0.69067 1.54681 0
M  V30 8912 O 839.753 -0.588299 1.70115 0
M  V30 8913 H 836.128 0.0256003 0.751564 0
M  V30 8914 H 838.099 0.950129 2.82869 0
M  V30 8915 C 836.848 -0.731446 3.39919 0
M  V30 8916 H 836.171 -0.103738 3.99665 0
M  V30 8917 H 837.611 -1.13891 4.08417 0
M  V30 8918 C 836.07 -1.87984 2.79578 0
M  V30 8919 O 836.6 -2.97496 2.69924 0
M  V30 8920 N 834.806 -1.6789 2.37195 0
M  V30 8921 H 834.353 -0.788162 2.45246 0
M  V30 8922 H 834.311 -2.44894 1.97165 0
M  V30 8923 N 838.083 -1.48885 0.516809 0
M  V30 8924 C 839.494 -1.86557 0.0729921 0
M  V30 8925 C 839.845 -1.42767 -1.34581 0
M  V30 8926 O 838.97 -0.812514 -2.00567 0
M  V30 8927 C 839.565 -3.38567 0.125686 0
M  V30 8928 C 838.124 -3.75481 -0.262867 0
M  V30 8929 C 837.271 -2.72913 0.491281 0
M  V30 8930 H 840.222 -1.40978 0.728767 0
M  V30 8931 H 840.243 -3.74629 -0.665831 0
M  V30 8932 H 839.755 -3.70408 1.15842 0
M  V30 8933 H 837.856 -3.49251 -1.29824 0
M  V30 8934 H 837.969 -4.79052 0.067579 0
M  V30 8935 H 836.333 -2.54627 -0.0608525 0
M  V30 8936 H 837.116 -3.07599 1.5244 0
M  V30 8937 N 839.561 -0.251338 -1.55583 0
M  V30 8938 C 840.838 0.422729 -1.90977 0
M  V30 8939 C 841.218 1.75534 -1.17265 0
M  V30 8940 O 840.566 2.26632 -0.291588 0
M  V30 8941 C 840.776 0.586448 -3.44037 0
M  V30 8942 C 842.124 0.880294 -4.15375 0
M  V30 8943 O 843.148 0.672148 -3.49801 0
M  V30 8944 O 842.007 1.27694 -5.31372 0
M  V30 8945 H 839.101 0.227622 -0.795058 0
M  V30 8946 H 841.647 -0.295733 -1.67103 0
M  V30 8947 H 840.419 -0.352327 -3.89711 0
M  V30 8948 H 840.042 1.35528 -3.73789 0
M  V30 8949 N 841.039 1.57585 0.0217189 0
M  V30 8950 C 842.267 1.93871 0.722619 0
M  V30 8951 C 842.682 0.851706 1.68498 0
M  V30 8952 O 842.039 -0.17127 1.81695 0
M  V30 8953 C 842.09 3.30114 1.47333 0
M  V30 8954 O 841.811 4.34639 0.549597 0
M  V30 8955 C 843.312 3.80727 2.27072 0
M  V30 8956 H 840.532 0.639671 0.202637 0
M  V30 8957 H 843.076 2.04487 -0.0229414 0
M  V30 8958 H 841.231 3.20872 2.17071 0
M  V30 8959 H 841.645 5.13326 1.07686 0
M  V30 8960 H 843.119 4.78547 2.75131 0
M  V30 8961 H 843.596 3.12301 3.08812 0
M  V30 8962 H 844.202 3.93075 1.62395 0
M  V30 8963 N 842.517 -0.29412 1.54831 0
M  V30 8964 C 843.933 -0.640167 1.46199 0
M  V30 8965 C 844.133 -1.90426 0.658798 0
M  V30 8966 O 843.189 -2.51932 0.169228 0
M  V30 8967 C 844.502 -0.786763 2.90225 0
M  V30 8968 C 846.05 -0.882201 3.0031 0
M  V30 8969 C 846.525 -1.06074 4.45547 0
M  V30 8970 N 848.016 -1.12678 4.49286 0
M  V30 8971 C 848.751 -1.28334 5.58854 0
M  V30 8972 N 848.247 -1.40845 6.78332 0
M  V30 8973 N 850.04 -1.31277 5.46555 0
M  V30 8974 H 842.191 0.536334 2.05517 0
M  V30 8975 H 844.454 0.178363 0.93107 0
M  V30 8976 H 844.16 0.0713018 3.51628 0
M  V30 8977 H 844.034 -1.67364 3.38037 0
M  V30 8978 H 846.421 -1.73075 2.39017 0
M  V30 8979 H 846.502 0.0288405 2.55784 0
M  V30 8980 H 846.146 -0.216935 5.07437 0
M  V30 8981 H 846.076 -1.98611 4.8771 0
M  V30 8982 H 848.567 -1.04335 3.63212 0
M  V30 8983 H 848.88 -1.52566 7.57591 0
M  V30 8984 H 847.225 -1.37888 6.81184 0
M  V30 8985 H 850.416 -1.2112 4.52159 0
M  V30 8986 H 850.589 -1.43136 6.31994 0
M  V30 8987 N 843.995 -1.47404 -0.557645 0
M  V30 8988 C 845.272 -1.44488 -1.31843 0
M  V30 8989 C 845.652 -0.1416 -2.10625 0
M  V30 8990 O 845 0.876908 -2.11004 0
M  V30 8991 C 845.21 -2.69016 -2.22331 0
M  V30 8992 C 846.558 -3.16212 -2.83364 0
M  V30 8993 O 847.582 -2.69741 -2.32634 0
M  V30 8994 O 846.441 -3.96999 -3.75571 0
M  V30 8995 H 843.535 -0.57578 -0.593639 0
M  V30 8996 H 846.081 -1.59605 -0.576584 0
M  V30 8997 H 844.853 -3.55406 -1.63715 0
M  V30 8998 H 844.476 -2.56484 -3.03812 0
M  V30 8999 N 845.473 0.80434 -1.35529 0
M  V30 9000 C 846.405 1.92445 -1.2449 0
M  V30 9001 C 847.418 1.61934 -0.167685 0
M  V30 9002 O 848.607 1.73461 -0.42115 0
M  V30 9003 C 845.707 3.26875 -0.894751 0
M  V30 9004 C 844.88 3.85275 -2.07079 0
M  V30 9005 C 843.939 4.98116 -1.69607 0
M  V30 9006 O 842.965 5.15424 -2.41509 0
M  V30 9007 N 844.167 5.77169 -0.621012 0
M  V30 9008 H 846.932 2.02441 -2.20993 0
M  V30 9009 H 844.493 0.981874 -1.28728 0
M  V30 9010 H 846.485 3.99837 -0.625511 0
M  V30 9011 H 845.055 3.12594 -0.0193306 0
M  V30 9012 H 844.275 3.0448 -2.5037 0
M  V30 9013 H 845.563 4.21024 -2.85685 0
M  V30 9014 H 844.961 5.65695 -0.0236679 0
M  V30 9015 H 843.518 6.50499 -0.411558 0
M  V30 9016 N 846.951 1.19563 1.02676 0
M  V30 9017 C 848.181 1.0234 1.79472 0
M  V30 9018 C 848.589 -0.430891 1.84228 0
M  V30 9019 O 847.932 -1.31106 1.28674 0
M  V30 9020 C 847.994 1.51901 3.25832 0
M  V30 9021 C 847.658 3.00045 3.44706 0
M  V30 9022 C 848.655 3.9779 3.34752 0
M  V30 9023 C 846.34 3.38784 3.70851 0
M  V30 9024 C 848.334 5.32267 3.50672 0
M  V30 9025 C 846.021 4.73419 3.86416 0
M  V30 9026 C 847.019 5.69969 3.7633 0
M  V30 9027 O 846.707 7.02165 3.91432 0
M  V30 9028 H 846.439 0.360936 0.571578 0
M  V30 9029 H 848.993 1.58863 1.30198 0
M  V30 9030 H 847.223 0.897546 3.7614 0
M  V30 9031 H 848.912 1.30853 3.84229 0
M  V30 9032 H 849.678 3.69207 3.14502 0
M  V30 9033 H 845.557 2.64183 3.77794 0
M  V30 9034 H 849.101 6.07612 3.42715 0
M  V30 9035 H 844.998 5.01697 4.06165 0
M  V30 9036 H 845.766 7.09268 4.08511 0
M  V30 9037 N 848.429 -1.21819 0.999893 0
M  V30 9038 C 849.359 -2.26282 0.576096 0
M  V30 9039 C 850.34 -1.65317 -0.400537 0
M  V30 9040 O 851.525 -1.92028 -0.28964 0
M  V30 9041 C 848.655 -3.47147 -0.103145 0
M  V30 9042 C 847.609 -4.20594 0.792745 0
M  V30 9043 C 846.935 -5.34696 -0.0198026 0
M  V30 9044 C 848.235 -4.78533 2.09293 0
M  V30 9045 H 849.929 -2.61984 1.4493 0
M  V30 9046 H 847.475 -1.25935 0.698316 0
M  V30 9047 H 849.428 -4.1939 -0.411068 0
M  V30 9048 H 848.152 -3.1056 -1.01094 0
M  V30 9049 H 846.811 -3.50194 1.08442 0
M  V30 9050 H 846.459 -4.94352 -0.928729 0
M  V30 9051 H 846.159 -5.84764 0.576661 0
M  V30 9052 H 847.683 -6.09752 -0.321659 0
M  V30 9053 H 849.097 -5.42682 1.8485 0
M  V30 9054 H 847.494 -5.38968 2.63881 0
M  V30 9055 H 848.564 -3.98197 2.76708 0
M  V30 9056 N 849.908 -0.773975 -1.37286 0
M  V30 9057 C 851.157 -0.335977 -1.98882 0
M  V30 9058 C 851.47 1.09416 -1.62134 0
M  V30 9059 O 852.676 1.63366 -2.1685 0
M  V30 9060 C 851.132 -0.549756 -3.55676 0
M  V30 9061 C 850.74 -1.9903 -4.01361 0
M  V30 9062 C 852.484 -0.175493 -4.24137 0
M  V30 9063 C 850.391 -2.15156 -5.50874 0
M  V30 9064 H 849.321 -0.121877 -0.744085 0
M  V30 9065 H 851.972 -0.953419 -1.56787 0
M  V30 9066 H 850.354 0.137175 -3.95762 0
M  V30 9067 H 851.528 -2.71237 -3.72515 0
M  V30 9068 H 849.843 -2.32137 -3.4569 0
M  V30 9069 H 852.44 -0.274463 -5.33995 0
M  V30 9070 H 852.783 0.874524 -4.07011 0
M  V30 9071 H 853.316 -0.815058 -3.89361 0
M  V30 9072 H 850.055 -3.18485 -5.72929 0
M  V30 9073 H 849.575 -1.47435 -5.81397 0
M  V30 9074 H 851.254 -1.95124 -6.16876 0
M  V30 9075 N 851.386 1.48609 -0.524698 0
M  V30 9076 C 852.633 2.02497 0.0113214 0
M  V30 9077 C 852.961 1.40229 1.34781 0
M  V30 9078 O 852.216 0.53557 1.88229 0
M  V30 9079 C 852.515 3.56906 0.187873 0
M  V30 9080 C 852.181 4.37932 -1.07359 0
M  V30 9081 C 850.843 4.59792 -1.41933 0
M  V30 9082 C 853.195 4.84902 -1.911 0
M  V30 9083 C 850.523 5.25868 -2.60154 0
M  V30 9084 C 852.875 5.52281 -3.08495 0
M  V30 9085 C 851.539 5.7238 -3.4342 0
M  V30 9086 H 850.809 0.740988 0.0041428 0
M  V30 9087 H 853.456 1.78651 -0.689652 0
M  V30 9088 H 851.761 3.79563 0.971572 0
M  V30 9089 H 853.458 3.96218 0.617443 0
M  V30 9090 H 850.048 4.21175 -0.794331 0
M  V30 9091 H 854.232 4.67821 -1.65701 0
M  V30 9092 H 849.488 5.39628 -2.87422 0
M  V30 9093 H 853.662 5.87645 -3.73692 0
M  V30 9094 H 851.289 6.23354 -4.35126 0
M  V30 9095 N 852.864 0.259585 1.55447 0
M  V30 9096 C 854.112 -0.360893 1.98852 0
M  V30 9097 C 854.433 -1.57535 1.14924 0
M  V30 9098 O 853.703 -1.94485 0.235025 0
M  V30 9099 H 852.283 -0.136332 0.734454 0
M  V30 9100 H 854.945 0.361319 1.91522 0
M  V30 9101 H 854.041 -0.661388 3.05012 0
M  V30 9102 N 854.342 -1.57594 -0.0133615 0
M  V30 9103 C 855.305 -2.06534 -0.993799 0
M  V30 9104 C 856.305 -0.972267 -1.28077 0
M  V30 9105 O 857.495 -1.23537 -1.22818 0
M  V30 9106 C 854.627 -2.49554 -2.3224 0
M  V30 9107 H 855.82 -2.94419 -0.570741 0
M  V30 9108 H 853.373 -1.54113 -0.260546 0
M  V30 9109 H 854.108 -1.64872 -2.79263 0
M  V30 9110 H 853.893 -3.29371 -2.12737 0
M  V30 9111 H 855.383 -2.8779 -3.026 0
M  V30 9112 N 855.82 0.285905 -1.54985 0
M  V30 9113 C 856.73 1.37534 -1.90057 0
M  V30 9114 C 857.746 1.54707 -0.796348 0
M  V30 9115 O 858.922 1.69082 -1.09423 0
M  V30 9116 C 855.987 2.7167 -2.15398 0
M  V30 9117 C 855.048 2.63354 -3.39033 0
M  V30 9118 C 854.281 3.91093 -3.63155 0
M  V30 9119 O 854.504 4.91169 -2.90015 0
M  V30 9120 O 853.438 3.92075 -4.56685 0
M  V30 9121 H 857.264 1.10791 -2.8277 0
M  V30 9122 H 854.849 0.483303 -1.41367 0
M  V30 9123 H 856.731 3.51006 -2.33179 0
M  V30 9124 H 855.406 2.98226 -1.25868 0
M  V30 9125 H 854.313 1.82438 -3.26599 0
M  V30 9126 H 855.646 2.41749 -4.2874 0
M  V30 9127 N 857.298 1.47698 0.54982 0
M  V30 9128 C 858.208 1.63386 1.68351 0
M  V30 9129 C 859.224 0.516583 1.66155 0
M  V30 9130 O 860.4 0.785088 1.85468 0
M  V30 9131 C 857.465 1.6513 3.04849 0
M  V30 9132 C 856.526 2.88338 3.18056 0
M  V30 9133 C 855.759 2.8999 4.48042 0
M  V30 9134 O 855.982 2.00633 5.3395 0
M  V30 9135 O 854.916 3.81938 4.65196 0
M  V30 9136 H 858.742 2.59329 1.58057 0
M  V30 9137 H 856.327 1.30869 0.72067 0
M  V30 9138 H 858.209 1.68913 3.86065 0
M  V30 9139 H 856.884 0.723555 3.1551 0
M  V30 9140 H 855.791 2.90097 2.36209 0
M  V30 9141 H 857.124 3.80431 3.12302 0
M  V30 9142 N 858.776 -0.797141 1.35954 0
M  V30 9143 C 860.024 -1.55161 1.29497 0
M  V30 9144 C 860.345 -1.94582 -0.127659 0
M  V30 9145 O 859.615 -1.64343 -1.06622 0
M  V30 9146 H 858.195 -0.575413 0.47635 0
M  V30 9147 H 860.857 -0.950282 1.70164 0
M  V30 9148 H 859.953 -2.46272 1.9172 0
M  V30 9149 N 860.254 -1.20106 -1.0204 0
M  V30 9150 C 861.503 -1.00316 -1.74985 0
M  V30 9151 C 861.816 0.465814 -1.89972 0
M  V30 9152 O 863.022 0.782749 -2.59972 0
M  V30 9153 C 861.478 -1.74608 -3.14706 0
M  V30 9154 C 861.086 -3.25573 -3.07744 0
M  V30 9155 C 862.83 -1.63172 -3.91887 0
M  V30 9156 C 860.737 -3.92419 -4.42449 0
M  V30 9157 H 859.667 -0.371728 -0.655999 0
M  V30 9158 H 862.318 -1.43688 -1.14131 0
M  V30 9159 H 860.7 -1.24021 -3.76078 0
M  V30 9160 H 861.874 -3.83345 -2.55702 0
M  V30 9161 H 860.189 -3.3738 -2.44057 0
M  V30 9162 H 862.786 -2.10457 -4.9154 0
M  V30 9163 H 863.129 -0.58728 -4.12137 0
M  V30 9164 H 863.662 -2.11152 -3.37135 0
M  V30 9165 H 860.401 -4.96998 -4.27403 0
M  V30 9166 H 859.921 -3.39436 -4.94513 0
M  V30 9167 H 861.6 -3.96453 -5.11306 0
M  V30 9168 N 861.732 1.21287 -1.00634 0
M  V30 9169 C 862.962 1.94103 -0.70765 0
M  V30 9170 C 863.37 1.74382 0.733991 0
M  V30 9171 O 862.713 1.04843 1.50843 0
M  V30 9172 C 862.775 3.46705 -0.950581 0
M  V30 9173 C 862.439 3.90176 -2.37932 0
M  V30 9174 C 863.436 3.96769 -3.35961 0
M  V30 9175 C 861.121 4.22453 -2.71733 0
M  V30 9176 C 863.115 4.35034 -4.65858 0
M  V30 9177 C 860.802 4.60394 -4.01846 0
M  V30 9178 C 861.8 4.66656 -4.9872 0
M  V30 9179 O 861.488 5.03732 -6.26505 0
M  V30 9180 H 861.22 0.62405 -0.259881 0
M  V30 9181 H 863.774 1.55015 -1.34757 0
M  V30 9182 H 862.004 3.85868 -0.253492 0
M  V30 9183 H 863.693 4.00741 -0.645069 0
M  V30 9184 H 864.459 3.72009 -3.11182 0
M  V30 9185 H 860.338 4.16776 -1.97025 0
M  V30 9186 H 863.882 4.39836 -5.4147 0
M  V30 9187 H 859.779 4.84609 -4.26409 0
M  V30 9188 H 860.547 5.21761 -6.30641 0
M  V30 9189 N 863.21 0.781244 1.36873 0
M  V30 9190 C 864.438 0.361566 2.03716 0
M  V30 9191 C 864.853 -1.01937 1.58916 0
M  V30 9192 O 864.21 -1.65237 0.774783 0
M  V30 9193 C 864.261 0.406391 3.59208 0
M  V30 9194 O 863.982 1.73286 4.02372 0
M  V30 9195 C 865.483 -0.0236894 4.43294 0
M  V30 9196 H 862.703 0.150133 0.653988 0
M  V30 9197 H 865.247 1.05781 1.75016 0
M  V30 9198 H 863.402 -0.241364 3.86647 0
M  V30 9199 H 863.816 1.67804 4.96933 0
M  V30 9200 H 865.29 0.0588205 5.51969 0
M  V30 9201 H 865.767 -1.07529 4.25833 0
M  V30 9202 H 866.373 0.59624 4.211 0
M  V30 9203 N 864.689 -1.48329 0.532571 0
M  V30 9204 C 865.619 -2.32485 -0.217511 0
M  V30 9205 C 866.6 -1.42255 -0.932598 0
M  V30 9206 O 867.785 -1.7114 -0.917873 0
M  V30 9207 C 864.915 -3.23509 -1.26329 0
M  V30 9208 C 863.869 -4.22784 -0.666191 0
M  V30 9209 C 863.195 -5.0296 -1.81482 0
M  V30 9210 C 864.495 -5.21031 0.363813 0
M  V30 9211 H 866.189 -2.95445 0.485014 0
M  V30 9212 H 863.735 -1.42075 0.234694 0
M  V30 9213 H 865.688 -3.81211 -1.79601 0
M  V30 9214 H 864.412 -2.58554 -1.99543 0
M  V30 9215 H 863.071 -3.66272 -0.15498 0
M  V30 9216 H 862.719 -4.34427 -2.5354 0
M  V30 9217 H 862.419 -5.70154 -1.4212 0
M  V30 9218 H 863.943 -5.63514 -2.35126 0
M  V30 9219 H 865.357 -5.73241 -0.0819079 0
M  V30 9220 H 863.754 -5.96292 0.674956 0
M  V30 9221 H 864.824 -4.6801 1.26865 0
M  V30 9222 N 866.167 -0.267825 -1.55308 0
M  V30 9223 C 867.115 0.638848 -2.23655 0
M  V30 9224 C 868.109 1.16363 -1.2311 0
M  V30 9225 O 869.315 1.1181 -1.41062 0
M  V30 9226 H 865.69 0.224551 -0.717691 0
M  V30 9227 H 867.661 0.0394809 -2.98374 0
M  V30 9228 C 866.41 1.8151 -2.96562 0
M  V30 9229 H 865.733 1.42048 -3.73715 0
M  V30 9230 H 867.173 2.42629 -3.47717 0
M  V30 9231 C 865.632 2.69911 -2.01618 0
M  V30 9232 O 866.162 3.70058 -1.56268 0
M  V30 9233 N 864.368 2.36924 -1.68272 0
M  V30 9234 H 863.915 1.55533 -2.05347 0
M  V30 9235 H 863.873 2.96343 -1.05016 0
M  V30 9236 N 867.645 1.57599 0.00500368 0
M  V30 9237 C 868.575 2.11143 0.99705 0
M  V30 9238 C 869.556 1.0194 1.3617 0
M  V30 9239 O 870.741 1.29596 1.44632 0
M  V30 9240 C 867.871 2.61062 2.2905 0
M  V30 9241 C 866.825 3.74745 2.0676 0
M  V30 9242 C 866.151 4.10961 3.42075 0
M  V30 9243 C 867.451 5.02222 1.43424 0
M  V30 9244 H 869.145 2.94281 0.551251 0
M  V30 9245 H 866.691 1.41565 0.263715 0
M  V30 9246 H 868.644 2.97146 2.98801 0
M  V30 9247 H 867.368 1.75038 2.75734 0
M  V30 9248 H 866.027 3.39047 1.39436 0
M  V30 9249 H 865.675 3.21968 3.86453 0
M  V30 9250 H 865.375 4.87549 3.27979 0
M  V30 9251 H 866.899 4.49599 4.1315 0
M  V30 9252 H 868.313 5.36109 2.03125 0
M  V30 9253 H 866.71 5.83581 1.39831 0
M  V30 9254 H 867.78 4.83224 0.40285 0
M  V30 9255 N 869.123 -0.277682 1.55134 0
M  V30 9256 C 870.071 -1.36305 1.88478 0
M  V30 9257 C 871.065 -1.51362 0.760654 0
M  V30 9258 O 872.271 -1.53202 0.944943 0
M  V30 9259 H 868.646 -0.45577 0.598146 0
M  V30 9260 H 870.617 -1.05431 2.79154 0
M  V30 9261 C 869.366 -2.71739 2.16918 0
M  V30 9262 H 868.689 -2.60942 3.02901 0
M  V30 9263 H 870.129 -3.46635 2.44172 0
M  V30 9264 C 868.588 -3.22476 0.975239 0
M  V30 9265 O 869.118 -4.01164 0.207497 0
M  V30 9266 N 867.324 -2.80097 0.774219 0
M  V30 9267 H 866.871 -2.16221 1.40022 0
M  V30 9268 H 866.829 -3.14392 -0.023021 0
M  V30 9269 N 870.601 -1.47988 -0.541979 0
M  V30 9270 C 871.511 -1.64276 -1.67483 0
M  V30 9271 C 872.527 -0.525387 -1.65879 0
M  V30 9272 O 873.703 -0.794912 -1.85049 0
M  V30 9273 C 870.768 -1.66744 -3.03969 0
M  V30 9274 C 869.829 -2.90021 -3.16522 0
M  V30 9275 C 869.062 -2.92362 -4.46498 0
M  V30 9276 O 869.285 -2.03462 -5.32878 0
M  V30 9277 O 868.219 -3.84399 -4.63164 0
M  V30 9278 H 872.045 -2.60164 -1.5668 0
M  V30 9279 H 869.63 -1.31249 -0.71372 0
M  V30 9280 H 871.512 -1.70958 -3.85164 0
M  V30 9281 H 870.187 -0.740277 -3.15122 0
M  V30 9282 H 869.094 -2.91345 -2.34667 0
M  V30 9283 H 870.427 -3.82082 -3.10281 0
M  V30 9284 N 872.079 0.78992 -1.36375 0
M  V30 9285 C 873.009 1.91683 -1.33341 0
M  V30 9286 C 873.99 1.68861 -0.204965 0
M  V30 9287 O 875.175 1.89982 -0.402531 0
M  V30 9288 C 872.305 3.28696 -1.12143 0
M  V30 9289 C 871.259 3.66041 -2.21806 0
M  V30 9290 C 870.585 5.01399 -1.85751 0
M  V30 9291 C 871.885 3.74677 -3.63888 0
M  V30 9292 H 873.579 1.94478 -2.27637 0
M  V30 9293 H 871.125 0.934271 -1.09578 0
M  V30 9294 H 873.078 4.07151 -1.08656 0
M  V30 9295 H 871.802 3.26287 -0.142974 0
M  V30 9296 H 870.461 2.89883 -2.24418 0
M  V30 9297 H 870.109 4.9551 -0.864817 0
M  V30 9298 H 869.809 5.27355 -2.59173 0
M  V30 9299 H 871.333 5.82274 -1.83819 0
M  V30 9300 H 872.747 4.43324 -3.63506 0
M  V30 9301 H 871.144 4.12118 -4.3621 0
M  V30 9302 H 872.214 2.75795 -3.9883 0
M  V30 9303 N 873.557 1.20646 1.01402 0
M  V30 9304 C 874.507 0.925209 2.08384 0
M  V30 9305 C 875.491 -0.115994 1.60481 0
M  V30 9306 O 876.683 0.0917276 1.76762 0
M  V30 9307 C 873.812 0.48193 3.399 0
M  V30 9308 C 872.898 1.5567 3.94497 0
M  V30 9309 N 873.289 2.77971 4.2257 0
M  V30 9310 C 871.587 1.42347 4.22674 0
M  V30 9311 C 872.288 3.47317 4.66632 0
M  V30 9312 N 871.264 2.74736 4.69064 0
M  V30 9313 H 875.066 1.85452 2.28002 0
M  V30 9314 H 872.58 1.10084 1.19395 0
M  V30 9315 H 874.577 0.261835 4.16077 0
M  V30 9316 H 873.237 -0.440725 3.21695 0
M  V30 9317 H 874.248 3.14598 4.11398 0
M  V30 9318 H 870.925 0.565417 4.13654 0
M  V30 9319 H 872.315 4.51985 4.97151 0
M  V30 9320 N 875.035 -1.20752 1.01276 0
M  V30 9321 C 875.945 -2.27079 0.589277 0
M  V30 9322 C 876.961 -1.6999 -0.371389 0
M  V30 9323 O 878.137 -2.00044 -0.233294 0
M  V30 9324 C 875.202 -3.4663 -0.0696715 0
M  V30 9325 C 874.263 -4.18962 0.936454 0
M  V30 9326 C 873.496 -5.32806 0.308856 0
M  V30 9327 O 873.719 -5.63376 -0.8924 0
M  V30 9328 O 872.653 -5.93131 1.02367 0
M  V30 9329 H 876.479 -2.6551 1.47438 0
M  V30 9330 H 874.064 -1.27297 0.782045 0
M  V30 9331 H 875.946 -4.19119 -0.437873 0
M  V30 9332 H 874.621 -3.10082 -0.929029 0
M  V30 9333 H 873.528 -3.48661 1.35595 0
M  V30 9334 H 874.861 -4.59441 1.76565 0
M  V30 9335 N 876.513 -0.788492 -1.36457 0
M  V30 9336 C 877.741 -0.372365 -2.03522 0
M  V30 9337 C 878.156 1.01093 -1.59454 0
M  V30 9338 O 877.513 1.64824 -0.783535 0
M  V30 9339 C 877.564 -0.425435 -3.58988 0
M  V30 9340 O 877.285 -1.75418 -4.01448 0
M  V30 9341 C 878.786 0.000180167 -4.433 0
M  V30 9342 H 876.006 -0.1536 -0.653183 0
M  V30 9343 H 878.55 -1.06708 -1.74452 0
M  V30 9344 H 876.705 0.220856 -3.8677 0
M  V30 9345 H 877.119 -1.70437 -4.96036 0
M  V30 9346 H 878.593 -0.0880919 -5.5193 0
M  V30 9347 H 879.07 1.05269 -4.26398 0
M  V30 9348 H 879.676 -0.618563 -4.20778 0
M  V30 9349 N 877.991 1.48044 -0.54043 0
M  V30 9350 C 879.216 2.07396 -0.0124765 0
M  V30 9351 C 879.641 1.39288 1.26414 0
M  V30 9352 O 878.999 0.462252 1.75308 0
M  V30 9353 C 879.047 3.60131 0.18377 0
M  V30 9354 O 878.151 3.92995 1.25014 0
M  V30 9355 H 877.492 0.662554 -0.0438026 0
M  V30 9356 H 880.022 1.90306 -0.751327 0
M  V30 9357 H 880.032 4.06003 0.403197 0
M  V30 9358 H 878.707 4.09105 -0.74874 0
M  V30 9359 H 877.284 3.5889 1.01254 0
M  V30 9360 N 879.47 0.276058 1.55163 0
M  V30 9361 C 880.403 -0.652386 2.18676 0
M  V30 9362 C 881.381 -1.15151 1.148 0
M  V30 9363 O 882.565 -1.22431 1.43328 0
M  V30 9364 C 879.692 -1.88982 2.81076 0
M  V30 9365 C 878.738 -1.52609 3.98262 0
M  V30 9366 S 879.571 -0.603445 5.32089 0
M  V30 9367 C 880.727 -1.84923 5.97958 0
M  V30 9368 H 880.96 -0.112733 2.97086 0
M  V30 9369 H 878.493 0.0603118 1.54282 0
M  V30 9370 H 880.451 -2.60007 3.17658 0
M  V30 9371 H 879.112 -2.40061 2.02557 0
M  V30 9372 H 878.305 -2.44689 4.40617 0
M  V30 9373 H 877.907 -0.89601 3.63108 0
M  V30 9374 H 880.199 -2.79303 6.17249 0
M  V30 9375 H 881.142 -1.46868 6.92702 0
M  V30 9376 H 881.55 -2.0146 5.27327 0
M  V30 9377 N 880.948 -1.576 0.00335426 0
M  V30 9378 C 881.858 -2.12067 -1.00322 0
M  V30 9379 C 882.874 -1.06672 -1.37467 0
M  V30 9380 O 884.05 -1.38592 -1.46131 0
M  V30 9381 C 881.115 -2.61593 -2.27531 0
M  V30 9382 C 880.176 -3.81602 -1.96668 0
M  V30 9383 C 879.409 -4.28756 -3.17811 0
M  V30 9384 O 879.632 -3.75222 -4.2961 0
M  V30 9385 O 878.566 -5.20877 -3.01613 0
M  V30 9386 H 882.392 -2.98299 -0.570199 0
M  V30 9387 H 879.977 -1.47835 -0.215682 0
M  V30 9388 H 881.859 -2.93631 -3.02256 0
M  V30 9389 H 880.534 -1.78457 -2.70065 0
M  V30 9390 H 879.441 -3.54531 -1.19408 0
M  V30 9391 H 880.774 -4.65822 -1.58968 0
M  V30 9392 N 882.426 0.269451 -1.5528 0
M  V30 9393 C 883.358 1.35553 -1.84819 0
M  V30 9394 C 884.371 1.45369 -0.732914 0
M  V30 9395 O 885.56 1.47122 -1.0108 0
M  V30 9396 C 882.66 2.73645 -1.9993 0
M  V30 9397 C 881.833 2.86376 -3.30617 0
M  V30 9398 C 880.892 4.05165 -3.35749 0
M  V30 9399 O 879.918 3.95756 -4.09104 0
M  V30 9400 N 881.12 5.17297 -2.63408 0
M  V30 9401 H 883.885 1.10557 -2.78563 0
M  V30 9402 H 881.446 0.459566 -1.5524 0
M  V30 9403 H 883.438 3.51411 -2.00729 0
M  V30 9404 H 882.008 2.91448 -1.13035 0
M  V30 9405 H 881.228 1.95465 -3.42326 0
M  V30 9406 H 882.516 2.91815 -4.16799 0
M  V30 9407 H 881.914 5.2783 -2.03501 0
M  V30 9408 H 880.471 5.93281 -2.69927 0
M  V30 9409 N 883.904 1.48273 0.534124 0
M  V30 9410 C 884.834 1.6538 1.64839 0
M  V30 9411 C 885.815 0.502741 1.62501 0
M  V30 9412 O 887 0.734799 1.79762 0
M  V30 9413 C 884.13 1.68949 3.03436 0
M  V30 9414 C 883.084 2.83513 3.20631 0
M  V30 9415 C 882.41 2.72169 4.60248 0
M  V30 9416 C 883.71 4.24858 3.03797 0
M  V30 9417 H 885.404 2.58663 1.50777 0
M  V30 9418 H 882.95 1.24479 0.723937 0
M  V30 9419 H 884.903 1.79505 3.81256 0
M  V30 9420 H 883.627 0.722415 3.1851 0
M  V30 9421 H 882.286 2.72505 2.45227 0
M  V30 9422 H 881.934 1.7344 4.72152 0
M  V30 9423 H 881.634 3.49042 4.72698 0
M  V30 9424 H 883.158 2.84687 5.40172 0
M  V30 9425 H 884.572 4.36721 3.71413 0
M  V30 9426 H 882.969 5.02697 3.27743 0
M  V30 9427 H 884.039 4.41611 2.0027 0
M  V30 9428 N 885.382 -0.782676 1.36792 0
M  V30 9429 C 886.629 -1.54083 1.31395 0
M  V30 9430 C 886.957 -1.94217 -0.104797 0
M  V30 9431 O 886.212 -1.63491 -1.0756 0
M  V30 9432 C 886.511 -2.82542 2.18872 0
M  V30 9433 C 886.177 -2.61512 3.67317 0
M  V30 9434 C 884.839 -2.55486 4.07775 0
M  V30 9435 C 887.191 -2.42389 4.61407 0
M  V30 9436 C 884.519 -2.28311 5.40454 0
M  V30 9437 C 886.871 -2.1674 5.94312 0
M  V30 9438 C 885.535 -2.09151 6.33887 0
M  V30 9439 H 884.805 -0.563829 0.48081 0
M  V30 9440 H 887.452 -0.902436 1.68903 0
M  V30 9441 H 885.757 -3.50883 1.74323 0
M  V30 9442 H 887.454 -3.40367 2.12017 0
M  V30 9443 H 884.044 -2.67062 3.35225 0
M  V30 9444 H 888.228 -2.46043 4.31018 0
M  V30 9445 H 883.484 -2.20922 5.70091 0
M  V30 9446 H 887.658 -2.0094 6.6678 0
M  V30 9447 H 885.285 -1.87857 7.36623 0
M  V30 9448 N 886.86 -1.21182 -1.00761 0
M  V30 9449 C 888.271 -1.02652 -1.55947 0
M  V30 9450 C 888.622 0.414466 -1.91772 0
M  V30 9451 O 887.747 1.29727 -1.73204 0
M  V30 9452 C 888.342 -1.85713 -2.83366 0
M  V30 9453 C 886.901 -1.71523 -3.35048 0
M  V30 9454 C 886.048 -1.83087 -2.08265 0
M  V30 9455 H 888.999 -1.35242 -0.830379 0
M  V30 9456 H 889.02 -1.36583 -3.55141 0
M  V30 9457 H 888.532 -2.90584 -2.5726 0
M  V30 9458 H 886.633 -0.693257 -3.66094 0
M  V30 9459 H 886.746 -2.53333 -4.06644 0
M  V30 9460 H 885.11 -1.26367 -2.21141 0
M  V30 9461 H 885.893 -2.8946 -1.84575 0
M  V30 9462 N 888.338 1.20213 -1.01915 0
M  V30 9463 C 889.754 1.41696 -0.734459 0
M  V30 9464 C 889.954 1.89504 0.684867 0
M  V30 9465 O 889.01 2.06556 1.45227 0
M  V30 9466 C 890.323 2.43644 -1.76233 0
M  V30 9467 C 891.871 2.57406 -1.78076 0
M  V30 9468 C 892.346 3.626 -2.79796 0
M  V30 9469 N 893.837 3.70086 -2.78551 0
M  V30 9470 C 894.572 4.51145 -3.53915 0
M  V30 9471 N 894.068 5.35988 -4.38963 0
M  V30 9472 N 895.861 4.45702 -3.425 0
M  V30 9473 H 888.012 0.874976 -1.93541 0
M  V30 9474 H 890.275 0.446647 -0.836188 0
M  V30 9475 H 889.981 2.15519 -2.77929 0
M  V30 9476 H 889.855 3.42672 -1.57657 0
M  V30 9477 H 892.242 2.8486 -0.770634 0
M  V30 9478 H 892.323 1.58565 -2.00725 0
M  V30 9479 H 891.967 3.35889 -3.80973 0
M  V30 9480 H 891.897 4.61069 -2.54407 0
M  V30 9481 H 894.388 3.09484 -2.1686 0
M  V30 9482 H 894.701 5.94932 -4.9323 0
M  V30 9483 H 893.046 5.35482 -4.4304 0
M  V30 9484 H 896.237 3.78456 -2.75478 0
M  V30 9485 H 896.41 5.08637 -4.01487 0
M  V30 9486 N 889.816 0.795718 1.36037 0
M  V30 9487 C 891.232 0.478145 1.52269 0
M  V30 9488 C 891.432 -1.0025 1.74792 0
M  V30 9489 O 890.488 -1.78783 1.78305 0
M  V30 9490 C 891.801 1.31406 2.70468 0
M  V30 9491 C 893.349 1.3084 2.84341 0
M  V30 9492 C 893.824 2.12819 4.05551 0
M  V30 9493 N 895.315 2.10298 4.12709 0
M  V30 9494 C 896.05 2.70495 5.05589 0
M  V30 9495 N 895.546 3.39576 6.03871 0
M  V30 9496 N 897.339 2.60195 4.98252 0
M  V30 9497 H 889.49 1.75477 1.19673 0
M  V30 9498 H 891.753 0.74627 0.584624 0
M  V30 9499 H 891.459 2.36435 2.60368 0
M  V30 9500 H 891.333 0.959726 3.64786 0
M  V30 9501 H 893.72 0.266003 2.93899 0
M  V30 9502 H 893.801 1.70254 1.90912 0
M  V30 9503 H 893.445 3.17093 3.96755 0
M  V30 9504 H 893.375 1.70772 4.98141 0
M  V30 9505 H 895.866 1.60026 3.42345 0
M  V30 9506 H 896.179 3.82823 6.71317 0
M  V30 9507 H 894.524 3.43679 6.04077 0
M  V30 9508 H 897.715 2.05823 4.20422 0
M  V30 9509 H 897.888 3.074 5.70447 0
M  V30 9510 N 891.294 -1.47756 0.548274 0
M  V30 9511 C 892.534 -2.04387 0.0231354 0
M  V30 9512 C 892.898 -1.41438 -1.29843 0
M  V30 9513 O 894.099 -1.89064 -1.91072 0
M  V30 9514 C 892.37 -3.57316 -0.077482 0
M  V30 9515 S 893.929 -4.35339 -0.550038 0
M  V30 9516 H 890.747 -0.710694 0.0208428 0
M  V30 9517 H 893.349 -1.81239 0.732984 0
M  V30 9518 H 892.053 -4.00658 0.88888 0
M  V30 9519 H 891.584 -3.84947 -0.811157 0
M  V30 9520 H 893.599 -4.61957 -1.81135 0
M  V30 9521 N 892.772 -0.284283 -1.55015 0
M  V30 9522 C 894 0.332948 -2.04203 0
M  V30 9523 C 894.415 1.48783 -1.16229 0
M  V30 9524 O 893.772 1.81567 -0.184323 0
M  V30 9525 C 893.823 0.805207 -3.52418 0
M  V30 9526 O 893.544 -0.303689 -4.37046 0
M  V30 9527 C 895.045 1.48931 -4.17534 0
M  V30 9528 H 892.265 0.0747447 -0.666824 0
M  V30 9529 H 894.809 -0.419048 -2.00161 0
M  V30 9530 H 892.964 1.50727 -3.56876 0
M  V30 9531 H 893.378 0.0609703 -5.24465 0
M  V30 9532 H 894.852 1.77108 -5.22816 0
M  V30 9533 H 895.329 2.42389 -3.66257 0
M  V30 9534 H 895.935 0.830867 -4.17105 0
M  V30 9535 N 894.251 1.57596 -0.0117121 0
M  V30 9536 C 895.497 1.92189 0.665966 0
M  V30 9537 C 895.852 0.887145 1.70726 0
M  V30 9538 O 895.145 -0.099151 1.91343 0
M  V30 9539 C 895.339 3.31296 1.34082 0
M  V30 9540 C 895.168 4.48205 0.366406 0
M  V30 9541 C 893.938 5.05293 -0.0274458 0
M  V30 9542 C 896.136 5.12951 -0.37219 0
M  V30 9543 N 894.118 6.0572 -0.998846 0
M  V30 9544 C 895.489 6.08318 -1.1979 0
M  V30 9545 C 897.544 4.95998 -0.434768 0
M  V30 9546 C 896.247 6.88555 -2.0805 0
M  V30 9547 C 898.273 5.7683 -1.30464 0
M  V30 9548 C 897.635 6.71798 -2.11816 0
M  V30 9549 H 893.734 0.751422 0.216537 0
M  V30 9550 H 896.318 1.94556 -0.0748079 0
M  V30 9551 H 894.489 3.2978 2.05182 0
M  V30 9552 H 896.221 3.53285 1.97413 0
M  V30 9553 H 892.976 4.72354 0.343382 0
M  V30 9554 H 893.4 6.60619 -1.48027 0
M  V30 9555 H 898.042 4.22417 0.179925 0
M  V30 9556 H 895.76 7.61453 -2.70581 0
M  V30 9557 H 899.346 5.6575 -1.35712 0
M  V30 9558 H 898.226 7.33256 -2.78037 0
M  V30 9559 N 895.729 -0.261212 1.5542 0
M  V30 9560 C 896.659 -1.32712 1.92119 0
M  V30 9561 C 897.64 -1.50934 0.784406 0
M  V30 9562 O 898.825 -1.63781 1.04352 0
M  V30 9563 C 895.955 -2.68453 2.20341 0
M  V30 9564 C 894.909 -2.64947 3.36136 0
M  V30 9565 C 894.235 -4.04349 3.49865 0
M  V30 9566 C 895.535 -2.23182 4.72215 0
M  V30 9567 H 897.229 -1.02245 2.81401 0
M  V30 9568 H 894.775 -0.490406 1.35392 0
M  V30 9569 H 896.728 -3.43144 2.44603 0
M  V30 9570 H 895.452 -3.00527 1.27871 0
M  V30 9571 H 894.111 -1.92714 3.11861 0
M  V30 9572 H 893.759 -4.33665 2.5484 0
M  V30 9573 H 893.459 -4.02895 4.27726 0
M  V30 9574 H 894.983 -4.80761 3.76432 0
M  V30 9575 H 896.397 -2.87599 4.95943 0
M  V30 9576 H 894.794 -2.32867 5.53076 0
M  V30 9577 H 895.864 -1.18327 4.70241 0
M  V30 9578 N 897.207 -1.48554 -0.526253 0
M  V30 9579 C 898.437 -1.60197 -1.30463 0
M  V30 9580 C 898.845 -0.26278 -1.87366 0
M  V30 9581 O 898.188 0.758537 -1.67308 0
M  V30 9582 C 898.25 -2.59223 -2.49085 0
M  V30 9583 C 897.914 -4.04199 -2.13241 0
M  V30 9584 C 898.911 -4.91771 -1.68694 0
M  V30 9585 C 896.596 -4.49762 -2.2365 0
M  V30 9586 C 898.59 -6.22934 -1.35026 0
M  V30 9587 C 896.277 -5.80945 -1.89594 0
M  V30 9588 C 897.275 -6.67354 -1.45353 0
M  V30 9589 O 896.963 -7.96096 -1.11745 0
M  V30 9590 H 896.695 -0.54284 -0.402866 0
M  V30 9591 H 899.249 -1.95137 -0.641157 0
M  V30 9592 H 897.479 -2.19412 -3.18426 0
M  V30 9593 H 899.168 -2.60661 -3.11144 0
M  V30 9594 H 899.934 -4.57806 -1.6012 0
M  V30 9595 H 895.813 -3.8269 -2.5704 0
M  V30 9596 H 899.357 -6.90334 -1.00422 0
M  V30 9597 H 895.254 -6.14444 -1.9781 0
M  V30 9598 H 896.022 -8.08882 -1.25111 0
M  V30 9599 N 898.685 0.775411 -1.37205 0
M  V30 9600 C 899.931 1.53611 -1.32407 0
M  V30 9601 C 900.264 1.9398 0.0924103 0
M  V30 9602 O 899.539 1.63791 1.04893 0
M  V30 9603 C 899.822 2.80367 -2.25979 0
M  V30 9604 C 899.675 2.46275 -3.76389 0
M  V30 9605 C 900.994 3.82277 -2.18064 0
M  V30 9606 H 898.113 0.557278 -0.482297 0
M  V30 9607 H 900.755 0.889826 -1.67875 0
M  V30 9608 H 898.905 3.35515 -1.95862 0
M  V30 9609 H 900.577 1.9707 -4.17087 0
M  V30 9610 H 898.82 1.79023 -3.95137 0
M  V30 9611 H 899.491 3.36868 -4.37291 0
M  V30 9612 H 901.967 3.36613 -2.44604 0
M  V30 9613 H 900.843 4.68696 -2.85684 0
M  V30 9614 H 901.104 4.26272 -1.17239 0
M  V30 9615 N 900.163 1.21714 1.00117 0
M  V30 9616 C 901.096 0.923113 2.08696 0
M  V30 9617 C 902.074 -0.130827 1.62073 0
M  V30 9618 O 903.258 -0.00103064 1.885 0
M  V30 9619 C 900.385 0.386807 3.36484 0
M  V30 9620 C 899.431 1.42414 4.0202 0
M  V30 9621 S 900.264 2.99466 4.43937 0
M  V30 9622 C 901.42 2.47452 5.74907 0
M  V30 9623 H 901.653 1.84258 2.33315 0
M  V30 9624 H 899.186 1.0473 1.1345 0
M  V30 9625 H 901.144 0.0839547 4.10414 0
M  V30 9626 H 899.805 -0.511413 3.09909 0
M  V30 9627 H 898.998 0.998593 4.94008 0
M  V30 9628 H 898.6 1.67527 3.34381 0
M  V30 9629 H 900.892 1.88177 6.50842 0
M  V30 9630 H 901.835 3.37898 6.22279 0
M  V30 9631 H 902.243 1.89027 5.31911 0
M  V30 9632 N 901.641 -1.19671 1.02551 0
M  V30 9633 C 902.589 -2.24812 0.596867 0
M  V30 9634 C 903.583 -1.65336 -0.368839 0
M  V30 9635 O 904.789 -1.78422 -0.237786 0
M  V30 9636 H 901.164 -0.731417 0.174739 0
M  V30 9637 H 903.135 -2.58286 1.49435 0
M  V30 9638 C 901.884 -3.47677 -0.0399514 0
M  V30 9639 H 901.207 -3.93728 0.694153 0
M  V30 9640 H 902.647 -4.22917 -0.302861 0
M  V30 9641 C 901.106 -3.11411 -1.2855 0
M  V30 9642 O 901.636 -3.23757 -2.37791 0
M  V30 9643 N 899.842 -2.65875 -1.17297 0
M  V30 9644 H 899.389 -2.56029 -0.284045 0
M  V30 9645 H 899.347 -2.41981 -2.00731 0
M  V30 9646 N 903.119 -0.802921 -1.35613 0
M  V30 9647 C 904.067 -0.198783 -2.31749 0
M  V30 9648 C 905.061 0.649416 -1.56458 0
M  V30 9649 O 906.267 0.542989 -1.71615 0
M  V30 9650 H 902.642 -0.0455177 -0.750621 0
M  V30 9651 H 904.613 -1.02479 -2.80251 0
M  V30 9652 C 903.362 0.641066 -3.41739 0
M  V30 9653 H 902.685 -0.00226244 -3.998 0
M  V30 9654 H 904.125 1.03022 -4.11294 0
M  V30 9655 C 902.584 1.80505 -2.84464 0
M  V30 9656 O 903.114 2.90235 -2.77717 0
M  V30 9657 N 901.32 1.61542 -2.41563 0
M  V30 9658 H 900.867 0.722863 -2.4725 0
M  V30 9659 H 900.825 2.39581 -2.03589 0
M  V30 9660 N 904.597 1.47463 -0.556102 0
M  V30 9661 C 905.837 2.04372 -0.0339743 0
M  V30 9662 C 906.201 1.42125 1.29091 0
M  V30 9663 O 907.402 1.90074 1.90066 0
M  V30 9664 C 905.673 3.57352 0.0585316 0
M  V30 9665 S 907.232 4.35625 0.526943 0
M  V30 9666 H 904.05 0.710574 -0.0246115 0
M  V30 9667 H 906.652 1.80848 -0.742585 0
M  V30 9668 H 905.356 4.00181 -0.910116 0
M  V30 9669 H 904.887 3.85371 0.790731 0
M  V30 9670 H 906.902 4.62911 1.78683 0
M  V30 9671 N 906.075 0.2925 1.54862 0
M  V30 9672 C 907.005 -0.580677 2.26165 0
M  V30 9673 C 907.986 -1.14485 1.25806 0
M  V30 9674 O 909.171 -1.17577 1.54562 0
M  V30 9675 C 906.301 -1.75668 2.99596 0
M  V30 9676 C 905.255 -1.32325 4.07031 0
M  V30 9677 C 904.581 -2.58374 4.68131 0
M  V30 9678 C 905.881 -0.460703 5.20264 0
M  V30 9679 H 907.575 0.0140075 2.99397 0
M  V30 9680 H 905.121 0.00817706 1.43998 0
M  V30 9681 H 907.074 -2.37356 3.48195 0
M  V30 9682 H 905.798 -2.37747 2.23928 0
M  V30 9683 H 904.457 -0.729477 3.59269 0
M  V30 9684 H 904.105 -3.18749 3.89112 0
M  V30 9685 H 903.805 -2.30078 5.40683 0
M  V30 9686 H 905.329 -3.2088 5.19489 0
M  V30 9687 H 906.743 -0.983037 5.64809 0
M  V30 9688 H 905.14 -0.271881 5.99484 0
M  V30 9689 H 906.21 0.516304 4.82143 0
M  V30 9690 N 907.553 -1.57587 0.0200696 0
M  V30 9691 C 908.483 -2.12702 -0.963333 0
M  V30 9692 C 909.464 -1.04094 -1.34531 0
M  V30 9693 O 910.649 -1.31881 -1.42552 0
M  V30 9694 C 907.779 -2.64673 -2.24868 0
M  V30 9695 C 906.733 -3.77987 -2.00772 0
M  V30 9696 C 906.059 -4.16351 -3.35494 0
M  V30 9697 C 907.359 -5.0444 -1.35416 0
M  V30 9698 H 909.053 -2.95121 -0.504363 0
M  V30 9699 H 906.599 -1.41966 -0.24116 0
M  V30 9700 H 908.552 -3.01862 -2.94036 0
M  V30 9701 H 907.276 -1.79403 -2.72914 0
M  V30 9702 H 905.935 -3.41223 -1.34025 0
M  V30 9703 H 905.583 -3.28075 -3.81282 0
M  V30 9704 H 905.283 -4.92705 -3.20181 0
M  V30 9705 H 906.807 -4.56115 -4.05945 0
M  V30 9706 H 908.221 -5.39273 -1.94571 0
M  V30 9707 H 906.618 -5.85732 -1.30529 0
M  V30 9708 H 907.688 -4.83803 -0.325923 0
M  V30 9709 N 909.032 0.252966 -1.55557 0
M  V30 9710 C 910.257 1.0038 -1.8149 0
M  V30 9711 C 910.682 1.78397 -0.596318 0
M  V30 9712 O 910.04 1.7551 0.454535 0
M  V30 9713 C 910.088 1.9222 -3.05096 0
M  V30 9714 O 909.192 3.01302 -2.81587 0
M  V30 9715 H 908.533 0.285949 -0.599274 0
M  V30 9716 H 911.063 0.275795 -2.02733 0
M  V30 9717 H 911.073 2.338 -3.34368 0
M  V30 9718 H 909.748 1.34852 -3.93431 0
M  V30 9719 H 908.325 2.63894 -2.63466 0
M  V30 9720 N 910.51 1.48831 0.518367 0
M  V30 9721 C 911.759 1.5669 1.27008 0
M  V30 9722 C 912.072 0.250934 1.93984 0
M  V30 9723 O 913.278 0.207884 2.70703 0
M  V30 9724 C 911.734 2.76387 2.30517 0
M  V30 9725 C 911.342 4.14673 1.69559 0
M  V30 9726 C 913.086 2.93566 3.06625 0
M  V30 9727 C 910.993 5.25616 2.71076 0
M  V30 9728 H 909.923 0.583362 0.477708 0
M  V30 9729 H 912.574 1.75187 0.546052 0
M  V30 9730 H 910.956 2.51348 3.06006 0
M  V30 9731 H 912.13 4.49779 1.00179 0
M  V30 9732 H 910.445 4.02708 1.05902 0
M  V30 9733 H 913.042 3.7362 3.82508 0
M  V30 9734 H 913.385 2.03462 3.63193 0
M  V30 9735 H 913.918 3.18562 2.38251 0
M  V30 9736 H 910.657 6.17723 2.19313 0
M  V30 9737 H 910.177 4.94985 3.38748 0
M  V30 9738 H 911.856 5.5422 3.3384 0
M  V30 9739 N 911.988 -0.768124 1.37614 0
M  V30 9740 C 913.213 -1.56239 1.36397 0
M  V30 9741 C 913.638 -1.8804 -0.0475839 0
M  V30 9742 O 912.996 -1.495 -1.02564 0
M  V30 9743 C 913.044 -2.84716 2.21289 0
M  V30 9744 O 912.148 -3.79249 1.62001 0
M  V30 9745 H 911.489 -0.473119 0.465891 0
M  V30 9746 H 914.019 -0.950415 1.81186 0
M  V30 9747 H 914.029 -3.33784 2.34632 0
M  V30 9748 H 912.704 -2.60899 3.2389 0
M  V30 9749 H 911.281 -3.37904 1.57719 0
M  V30 9750 N 913.466 -1.22244 -0.994698 0
M  V30 9751 C 914.714 -1.04384 -1.73056 0
M  V30 9752 C 915.035 0.422204 -1.90374 0
M  V30 9753 O 914.305 1.30383 -1.46209 0
M  V30 9754 H 912.885 -0.383263 -0.641185 0
M  V30 9755 H 915.547 -1.53725 -1.1981 0
M  V30 9756 H 914.643 -1.52021 -2.72573 0
M  V30 9757 N 914.944 1.19125 -1.03184 0
M  V30 9758 C 915.891 2.2245 -0.6152 0
M  V30 9759 C 916.861 1.61869 0.372502 0
M  V30 9760 O 918.046 1.88901 0.268491 0
M  V30 9761 C 915.186 3.45091 0.0248027 0
M  V30 9762 C 914.299 4.20044 -1.0093 0
M  V30 9763 C 913.434 5.30119 -0.338744 0
M  V30 9764 C 912.473 5.96833 -1.35855 0
M  V30 9765 N 911.61 6.98464 -0.713594 0
M  V30 9766 H 916.45 2.57445 -1.50086 0
M  V30 9767 H 913.987 1.26485 -0.751005 0
M  V30 9768 H 915.945 4.15149 0.413131 0
M  V30 9769 H 914.575 3.10742 0.874028 0
M  V30 9770 H 913.627 3.48901 -1.51566 0
M  V30 9771 H 914.939 4.65796 -1.78425 0
M  V30 9772 H 914.093 6.0661 0.104269 0
M  V30 9773 H 912.832 4.85446 0.468382 0
M  V30 9774 H 911.837 5.1909 -1.81179 0
M  V30 9775 H 913.062 6.4359 -2.16722 0
M  V30 9776 H 911.008 6.55959 0.0733863 0
M  V30 9777 H 910.925 7.42422 -1.42638 0
M  V30 9778 H 912.193 7.78943 -0.294681 0
M  V30 9779 N 916.422 0.810101 1.35185 0
M  V30 9780 C 917.385 0.22852 2.28058 0
M  V30 9781 C 918.385 -0.586168 1.49735 0
M  V30 9782 O 919.575 -0.40414 1.69447 0
M  V30 9783 C 916.707 -0.681041 3.34028 0
M  V30 9784 H 917.9 1.04768 2.81005 0
M  V30 9785 H 915.453 0.58101 1.451 0
M  V30 9786 H 916.188 -1.52375 2.86273 0
M  V30 9787 H 915.973 -0.0985276 3.91976 0
M  V30 9788 H 917.463 -1.08217 4.03335 0
M  V30 9789 N 917.9 -1.47166 0.563914 0
M  V30 9790 C 919.125 -2.0735 0.0454698 0
M  V30 9791 C 919.55 -1.41281 -1.24182 0
M  V30 9792 O 918.908 -0.490084 -1.7455 0
M  V30 9793 C 918.956 -3.60378 -0.126453 0
M  V30 9794 O 918.06 -3.94934 -1.18746 0
M  V30 9795 H 917.401 -0.661773 0.0543377 0
M  V30 9796 H 919.931 -1.89086 0.781508 0
M  V30 9797 H 919.941 -4.06593 -0.338554 0
M  V30 9798 H 918.616 -4.07862 0.81373 0
M  V30 9799 H 917.193 -3.60455 -0.955318 0
M  V30 9800 N 919.378 -0.300708 -1.54705 0
M  V30 9801 C 920.31 0.609179 -2.20956 0
M  V30 9802 C 921.323 1.09776 -1.20221 0
M  V30 9803 O 922.512 1.01527 -1.46815 0
M  V30 9804 C 919.612 1.84595 -2.84214 0
M  V30 9805 C 918.785 1.49991 -4.10879 0
M  V30 9806 C 917.844 2.5918 -4.57943 0
M  V30 9807 O 916.87 2.24285 -5.23149 0
M  V30 9808 N 918.072 3.89714 -4.30236 0
M  V30 9809 H 920.837 0.0420111 -2.99671 0
M  V30 9810 H 918.398 -0.122896 -1.61433 0
M  V30 9811 H 920.39 2.56988 -3.12633 0
M  V30 9812 H 918.96 2.32152 -2.09342 0
M  V30 9813 H 918.18 0.608637 -3.89473 0
M  V30 9814 H 919.468 1.24409 -4.93356 0
M  V30 9815 H 918.866 4.20874 -3.77997 0
M  V30 9816 H 917.423 4.58406 -4.63365 0
M  V30 9817 N 920.856 1.57574 -0.0284266 0
M  V30 9818 C 921.786 2.1321 0.952039 0
M  V30 9819 C 922.767 1.04806 1.33977 0
M  V30 9820 O 923.952 1.32635 1.41851 0
M  V30 9821 C 921.082 2.65862 2.23461 0
M  V30 9822 C 920.036 3.79047 1.98765 0
M  V30 9823 C 919.362 4.18124 3.33281 0
M  V30 9824 C 920.662 5.05151 1.32739 0
M  V30 9825 H 922.356 2.95385 0.488705 0
M  V30 9826 H 919.902 1.42092 0.233628 0
M  V30 9827 H 921.855 3.03417 2.92431 0
M  V30 9828 H 920.579 1.80848 2.71959 0
M  V30 9829 H 919.238 3.41929 1.32213 0
M  V30 9830 H 918.886 3.30092 3.79537 0
M  V30 9831 H 918.586 4.94396 3.17563 0
M  V30 9832 H 920.11 4.58262 4.0352 0
M  V30 9833 H 921.524 5.40297 1.91708 0
M  V30 9834 H 919.921 5.86416 1.27421 0
M  V30 9835 H 920.991 4.83969 0.300261 0
M  V30 9836 N 922.334 -0.244713 1.55689 0
M  V30 9837 C 923.564 -0.988508 1.81417 0
M  V30 9838 C 923.972 -1.79362 0.602143 0
M  V30 9839 O 923.315 -1.78386 -0.438639 0
M  V30 9840 C 923.377 -1.97287 3.0053 0
M  V30 9841 C 923.041 -1.35448 4.36466 0
M  V30 9842 C 924.038 -0.755874 5.14376 0
M  V30 9843 C 921.723 -1.37319 4.83165 0
M  V30 9844 C 923.717 -0.184218 6.37134 0
M  V30 9845 C 921.404 -0.797681 6.05871 0
M  V30 9846 C 922.402 -0.204224 6.82695 0
M  V30 9847 O 922.09 0.362392 8.03083 0
M  V30 9848 H 921.822 -0.296412 0.607549 0
M  V30 9849 H 924.376 -0.272185 2.03589 0
M  V30 9850 H 922.606 -2.72756 2.74119 0
M  V30 9851 H 924.295 -2.58028 3.13331 0
M  V30 9852 H 925.061 -0.733912 4.79415 0
M  V30 9853 H 920.94 -1.8245 4.23359 0
M  V30 9854 H 924.484 0.279624 6.97039 0
M  V30 9855 H 920.381 -0.816978 6.40309 0
M  V30 9856 H 921.149 0.254467 8.18104 0
M  V30 9857 N 923.813 -1.49104 -0.510467 0
M  V30 9858 C 925.038 -1.62068 -1.29417 0
M  V30 9859 C 925.463 -0.288432 -1.85875 0
M  V30 9860 O 924.821 0.742667 -1.65391 0
M  V30 9861 C 924.869 -2.68506 -2.40701 0
M  V30 9862 O 923.973 -2.27021 -3.4429 0
M  V30 9863 H 923.314 -0.542778 -0.382476 0
M  V30 9864 H 925.844 -1.95228 -0.612154 0
M  V30 9865 H 925.854 -2.90383 -2.86604 0
M  V30 9866 H 924.529 -3.65216 -1.98973 0
M  V30 9867 H 923.106 -2.15436 -3.04371 0
M  V30 9868 N 925.291 0.760815 -1.38019 0
M  V30 9869 C 926.241 1.86487 -1.31174 0
M  V30 9870 C 927.225 1.59684 -0.197414 0
M  V30 9871 O 928.417 1.71628 -0.432764 0
M  V30 9872 C 925.546 3.24103 -1.13192 0
M  V30 9873 C 924.632 3.5682 -2.29216 0
M  V30 9874 N 925.023 3.60644 -3.5464 0
M  V30 9875 C 923.321 3.87047 -2.2161 0
M  V30 9876 C 924.022 3.90423 -4.31214 0
M  V30 9877 N 922.998 4.06883 -3.60482 0
M  V30 9878 H 926.8 1.87711 -2.26146 0
M  V30 9879 H 924.314 0.957811 -1.31148 0
M  V30 9880 H 926.311 4.03101 -1.06372 0
M  V30 9881 H 924.971 3.24135 -0.191473 0
M  V30 9882 H 925.982 3.42581 -3.88405 0
M  V30 9883 H 922.659 3.94837 -1.35684 0
M  V30 9884 H 924.049 4.00065 -5.39812 0
M  V30 9885 N 926.769 1.22769 0.988202 0
M  V30 9886 C 927.717 0.999271 2.10041 0
M  V30 9887 C 928.711 -0.0591767 1.69297 0
M  V30 9888 O 929.917 0.0936653 1.79756 0
M  V30 9889 H 926.292 0.30599 0.686931 0
M  V30 9890 H 928.263 1.94294 2.26478 0
M  V30 9891 C 927.012 0.59873 3.42506 0
M  V30 9892 H 926.335 1.40487 3.74304 0
M  V30 9893 H 927.775 0.478353 4.21293 0
M  V30 9894 C 926.234 -0.692216 3.29712 0
M  V30 9895 O 926.764 -1.74342 3.61895 0
M  V30 9896 N 924.97 -0.665163 2.82885 0
M  V30 9897 H 924.517 0.190604 2.56894 0
M  V30 9898 H 924.475 -1.52917 2.74706 0
M  V30 9899 N 928.247 -1.18576 1.03814 0
M  V30 9900 C 929.177 -2.24334 0.647795 0
M  V30 9901 C 930.158 -1.66508 -0.34774 0
M  V30 9902 O 931.343 -1.92852 -0.228401 0
M  V30 9903 C 928.473 -3.47299 0.00734922 0
M  V30 9904 C 927.427 -4.17859 0.926152 0
M  V30 9905 C 926.753 -5.34489 0.150317 0
M  V30 9906 C 928.053 -4.71632 2.24411 0
M  V30 9907 H 929.747 -2.57241 1.53191 0
M  V30 9908 H 927.293 -1.23649 0.738028 0
M  V30 9909 H 929.246 -4.20486 -0.277434 0
M  V30 9910 H 927.97 -3.13619 -0.911626 0
M  V30 9911 H 926.629 -3.46567 1.19528 0
M  V30 9912 H 926.277 -4.97056 -0.770985 0
M  V30 9913 H 925.977 -5.82633 0.762407 0
M  V30 9914 H 927.501 -6.10467 -0.127508 0
M  V30 9915 H 928.915 -5.36526 2.02021 0
M  V30 9916 H 927.312 -5.303 2.80894 0
M  V30 9917 H 928.382 -3.89192 2.89236 0
M  V30 9918 N 929.725 -0.817259 -1.34754 0
M  V30 9919 C 931.136 -0.462215 -1.80888 0
M  V30 9920 C 931.487 1.01685 -1.67794 0
M  V30 9921 O 930.612 1.79094 -1.21468 0
M  V30 9922 C 931.207 -0.832204 -3.2842 0
M  V30 9923 C 929.766 -0.52961 -3.72655 0
M  V30 9924 C 928.913 -1.05214 -2.56564 0
M  V30 9925 H 931.864 -1.00795 -1.22581 0
M  V30 9926 H 931.885 -0.133804 -3.80265 0
M  V30 9927 H 931.397 -1.90873 -3.37919 0
M  V30 9928 H 929.498 0.537743 -3.68699 0
M  V30 9929 H 929.611 -1.06971 -4.67005 0
M  V30 9930 H 927.975 -0.473949 -2.50251 0
M  V30 9931 H 928.758 -2.135 -2.68836 0
M  V30 9932 N 931.203 1.46865 -0.571711 0
M  V30 9933 C 932.451 2.0203 -0.0530022 0
M  V30 9934 C 932.772 1.44687 1.30731 0
M  V30 9935 O 932.042 0.627429 1.85581 0
M  V30 9936 H 930.622 0.746815 -0.0166035 0
M  V30 9937 H 933.284 1.80099 -0.745003 0
M  V30 9938 H 932.38 3.12091 0.0242538 0
M  V30 9939 N 932.681 0.308908 1.54543 0
M  V30 9940 C 933.611 -0.556657 2.26768 0
M  V30 9941 C 934.592 -1.13145 1.27013 0
M  V30 9942 O 935.777 -1.15931 1.558 0
M  V30 9943 C 932.907 -1.72481 3.01443 0
M  V30 9944 C 931.861 -1.28001 4.08411 0
M  V30 9945 C 931.187 -2.53395 4.70845 0
M  V30 9946 C 932.487 -0.405497 5.20724 0
M  V30 9947 H 934.181 0.0457618 2.99365 0
M  V30 9948 H 931.727 0.0234495 1.43981 0
M  V30 9949 H 933.68 -2.3365 3.50693 0
M  V30 9950 H 932.404 -2.35359 2.26437 0
M  V30 9951 H 931.063 -0.69133 3.60022 0
M  V30 9952 H 930.711 -3.14604 3.92471 0
M  V30 9953 H 930.411 -2.2433 5.43093 0
M  V30 9954 H 931.935 -3.15352 5.22863 0
M  V30 9955 H 933.349 -0.923076 5.6582 0
M  V30 9956 H 931.746 -0.208282 5.99738 0
M  V30 9957 H 932.816 0.567412 4.81569 0
M  V30 9958 N 934.159 -1.57557 0.0367827 0
M  V30 9959 C 935.406 -1.92114 -0.640185 0
M  V30 9960 C 935.734 -0.913887 -1.71693 0
M  V30 9961 O 934.989 0.0760343 -1.95552 0
M  V30 9962 C 935.288 -3.33387 -1.28794 0
M  V30 9963 C 934.954 -4.4961 -0.340819 0
M  V30 9964 C 933.616 -4.81133 -0.0801574 0
M  V30 9965 C 935.968 -5.20283 0.309106 0
M  V30 9966 C 933.296 -5.80683 0.838107 0
M  V30 9967 C 935.648 -6.20813 1.21547 0
M  V30 9968 C 934.312 -6.50773 1.48495 0
M  V30 9969 H 933.582 -0.702996 -0.23426 0
M  V30 9970 H 936.229 -1.91238 0.100188 0
M  V30 9971 H 934.534 -3.30561 -2.10324 0
M  V30 9972 H 936.231 -3.57399 -1.81843 0
M  V30 9973 H 932.821 -4.25002 -0.554161 0
M  V30 9974 H 937.005 -4.96153 0.120794 0
M  V30 9975 H 932.261 -6.02238 1.05451 0
M  V30 9976 H 936.435 -6.74692 1.72522 0
M  V30 9977 H 934.062 -7.27727 2.19814 0
M  V30 9978 N 935.637 0.236453 -1.55816 0
M  V30 9979 C 936.914 0.986463 -1.68903 0
M  V30 9980 C 937.294 2.02984 -0.579722 0
M  V30 9981 O 936.642 2.24693 0.415389 0
M  V30 9982 C 936.852 1.61038 -3.09625 0
M  V30 9983 C 938.2 2.10829 -3.6856 0
M  V30 9984 O 939.224 1.7096 -3.12492 0
M  V30 9985 O 938.083 2.84064 -4.66873 0
M  V30 9986 H 935.177 0.459837 -0.687371 0
M  V30 9987 H 937.723 0.229412 -1.68142 0
M  V30 9988 H 936.495 0.856232 -3.81817 0
M  V30 9989 H 936.118 2.43336 -3.14441 0
M  V30 9990 N 937.115 1.49373 0.502552 0
M  V30 9991 C 938.345 1.62252 1.27898 0
M  V30 9992 C 938.753 0.292555 1.86924 0
M  V30 9993 O 938.096 -0.731823 1.68493 0
M  V30 9994 C 938.158 2.63153 2.4493 0
M  V30 9995 C 937.822 4.07541 2.06784 0
M  V30 9996 C 938.819 4.94392 1.60849 0
M  V30 9997 C 936.504 4.53263 2.16466 0
M  V30 9998 C 938.498 6.25003 1.25098 0
M  V30 9999 C 936.185 5.83888 1.80327 0
M  V30 10000 C 937.183 6.69582 1.34718 0
M  V30 10001 O 936.871 7.97773 0.990661 0
M  V30 10002 H 936.603 0.54918 0.394179 0
M  V30 10003 H 939.157 1.96132 0.610031 0
M  V30 10004 H 937.387 2.2445 3.14895 0
M  V30 10005 H 939.076 2.65578 3.06957 0
M  V30 10006 H 939.842 4.60296 1.52816 0
M  V30 10007 H 935.721 3.86731 2.50919 0
M  V30 10008 H 939.265 6.91844 0.894269 0
M  V30 10009 H 935.162 6.17513 1.8801 0
M  V30 10010 H 935.93 8.1077 1.12227 0
M  V30 10011 N 938.594 -0.753485 1.38421 0
M  V30 10012 C 939.557 -1.84888 1.35459 0
M  V30 10013 C 940.557 -1.58764 0.255083 0
M  V30 10014 O 941.747 -1.66507 0.511978 0
M  V30 10015 C 938.879 -3.22361 1.10888 0
M  V30 10016 H 940.072 -1.88922 2.32913 0
M  V30 10017 H 937.625 -0.955199 1.23716 0
M  V30 10018 H 938.36 -3.23996 0.1404 0
M  V30 10019 H 938.145 -3.42717 1.90492 0
M  V30 10020 H 939.635 -4.02437 1.1151 0
M  V30 10021 N 940.072 -1.23292 -0.981677 0
M  V30 10022 C 941.488 -0.995295 -1.24764 0
M  V30 10023 C 941.688 0.304379 -1.99188 0
M  V30 10024 O 940.744 1.02414 -2.30798 0
M  V30 10025 C 942.057 -2.20135 -2.04844 0
M  V30 10026 C 943.605 -2.24612 -2.17988 0
M  V30 10027 C 944.08 -3.448 -3.01458 0
M  V30 10028 N 945.571 -3.45031 -3.09044 0
M  V30 10029 C 946.306 -4.34683 -3.7395 0
M  V30 10030 N 945.802 -5.34569 -4.4069 0
M  V30 10031 N 947.595 -4.22429 -3.70823 0
M  V30 10032 H 939.746 -2.06834 -0.483052 0
M  V30 10033 H 942.009 -0.906929 -0.276014 0
M  V30 10034 H 941.715 -3.14446 -1.57532 0
M  V30 10035 H 941.589 -2.21115 -3.05594 0
M  V30 10036 H 943.976 -1.30841 -2.64508 0
M  V30 10037 H 944.057 -2.27664 -1.16631 0
M  V30 10038 H 943.701 -4.38877 -2.55635 0
M  V30 10039 H 943.631 -3.38988 -4.02982 0
M  V30 10040 H 946.122 -2.72759 -2.61555 0
M  V30 10041 H 946.435 -5.99236 -4.87991 0
M  V30 10042 H 944.78 -5.3847 -4.39403 0
M  V30 10043 H 947.971 -3.43639 -3.17851 0
M  V30 10044 H 948.144 -4.92501 -4.21126 0
M  V30 10045 N 941.55 1.18024 -1.04442 0
M  V30 10046 C 942.482 2.21294 -0.596799 0
M  V30 10047 C 943.495 1.59305 0.33552 0
M  V30 10048 O 944.684 1.7803 0.129443 0
M  V30 10049 C 941.784 3.38578 0.147648 0
M  V30 10050 C 940.957 4.30143 -0.793484 0
M  V30 10051 C 940.016 5.2612 -0.0916561 0
M  V30 10052 O 939.042 5.64586 -0.72331 0
M  V30 10053 N 940.244 5.68512 1.17364 0
M  V30 10054 H 943.009 2.6032 -1.48504 0
M  V30 10055 H 940.57 1.32847 -0.925374 0
M  V30 10056 H 942.562 3.99812 0.627098 0
M  V30 10057 H 941.132 2.98212 0.937466 0
M  V30 10058 H 940.352 3.66456 -1.45272 0
M  V30 10059 H 941.64 4.88216 -1.43258 0
M  V30 10060 H 941.038 5.39322 1.70729 0
M  V30 10061 H 939.595 6.31925 1.5973 0
M  V30 10062 N 943.028 0.824394 1.34319 0
M  V30 10063 C 943.961 0.192544 2.27386 0
M  V30 10064 C 944.939 -0.651901 1.4896 0
M  V30 10065 O 946.123 -0.615321 1.78174 0
M  V30 10066 C 943.25 -0.730958 3.30718 0
M  V30 10067 C 942.296 0.0361484 4.26485 0
M  V30 10068 S 943.129 1.3843 5.17298 0
M  V30 10069 C 944.285 0.465713 6.24165 0
M  V30 10070 H 944.518 0.981573 2.80629 0
M  V30 10071 H 942.051 0.620371 1.41389 0
M  V30 10072 H 944.009 -1.25822 3.90742 0
M  V30 10073 H 942.67 -1.49352 2.7632 0
M  V30 10074 H 941.863 -0.665969 4.99581 0
M  V30 10075 H 941.465 0.494011 3.70723 0
M  V30 10076 H 943.757 -0.342157 6.76635 0
M  V30 10077 H 944.7 1.16639 6.98427 0
M  V30 10078 H 945.108 0.0534895 5.64475 0
M  V30 10079 N 944.506 -1.46559 0.579492 0
M  V30 10080 C 945.438 -2.28383 -0.19337 0
M  V30 10081 C 946.451 -1.38324 -0.858511 0
M  V30 10082 O 947.64 -1.62952 -0.728615 0
M  V30 10083 C 944.74 -3.13262 -1.29306 0
M  V30 10084 C 943.913 -4.31426 -0.720459 0
M  V30 10085 C 942.972 -4.97728 -1.70744 0
M  V30 10086 O 941.998 -5.55423 -1.24476 0
M  V30 10087 N 943.2 -4.94445 -3.04146 0
M  V30 10088 H 945.965 -2.95353 0.508611 0
M  V30 10089 H 943.526 -1.56436 0.417046 0
M  V30 10090 H 945.518 -3.54483 -1.95254 0
M  V30 10091 H 944.088 -2.48388 -1.89795 0
M  V30 10092 H 943.308 -3.94028 0.116398 0
M  V30 10093 H 944.596 -5.07808 -0.31763 0
M  V30 10094 H 943.994 -4.4881 -3.44363 0
M  V30 10095 H 942.551 -5.39616 -3.65592 0
M  V30 10096 N 945.984 -0.3171 -1.54377 0
M  V30 10097 C 946.931 0.551782 -2.24107 0
M  V30 10098 C 947.901 1.11681 -1.22949 0
M  V30 10099 O 949.086 1.15836 -1.51614 0
M  V30 10100 C 946.226 1.70997 -2.99756 0
M  V30 10101 C 945.339 1.17479 -4.15719 0
M  V30 10102 C 944.474 2.29815 -4.78914 0
M  V30 10103 C 943.513 1.73513 -5.86992 0
M  V30 10104 N 942.65 2.79485 -6.44075 0
M  V30 10105 H 947.49 -0.049431 -2.97959 0
M  V30 10106 H 945.027 -0.0361658 -1.47056 0
M  V30 10107 H 946.985 2.39141 -3.41859 0
M  V30 10108 H 945.615 2.28257 -2.28251 0
M  V30 10109 H 944.667 0.385109 -3.78446 0
M  V30 10110 H 945.979 0.72276 -4.93536 0
M  V30 10111 H 945.133 3.05875 -5.23952 0
M  V30 10112 H 943.872 2.78352 -4.00464 0
M  V30 10113 H 942.877 0.959475 -5.41363 0
M  V30 10114 H 944.102 1.2586 -6.67335 0
M  V30 10115 H 942.048 3.27325 -5.68502 0
M  V30 10116 H 941.965 2.38825 -7.17286 0
M  V30 10117 H 943.233 3.55394 -6.93769 0
M  V30 10118 N 947.462 1.57535 -0.0451378 0
M  V30 10119 C 948.392 2.14208 0.929372 0
M  V30 10120 C 949.373 1.06221 1.32858 0
M  V30 10121 O 950.558 1.34132 1.40436 0
M  V30 10122 C 947.688 2.68217 2.20629 0
M  V30 10123 C 946.642 3.81134 1.94734 0
M  V30 10124 C 945.968 4.21636 3.28828 0
M  V30 10125 C 947.268 5.06531 1.27374 0
M  V30 10126 H 948.962 2.95886 0.457348 0
M  V30 10127 H 946.508 1.42332 0.218544 0
M  V30 10128 H 948.461 3.06502 2.89196 0
M  V30 10129 H 947.185 1.83722 2.70026 0
M  V30 10130 H 945.844 3.43312 1.28579 0
M  V30 10131 H 945.492 3.34099 3.76014 0
M  V30 10132 H 945.192 4.97736 3.12302 0
M  V30 10133 H 946.716 4.62516 3.98637 0
M  V30 10134 H 948.13 5.423 1.85967 0
M  V30 10135 H 946.527 5.87735 1.21194 0
M  V30 10136 H 947.597 4.84261 0.248913 0
M  V30 10137 N 948.94 -0.228186 1.55939 0
M  V30 10138 C 950.351 -0.795734 1.68893 0
M  V30 10139 C 950.702 -1.85261 0.645967 0
M  V30 10140 O 949.827 -2.15434 -0.2042 0
M  V30 10141 C 950.422 -1.45013 3.06197 0
M  V30 10142 C 948.981 -1.96514 3.21028 0
M  V30 10143 C 948.128 -0.822918 2.64808 0
M  V30 10144 H 951.079 -0.0036485 1.587 0
M  V30 10145 H 951.1 -2.31875 3.01685 0
M  V30 10146 H 950.612 -0.680678 3.82084 0
M  V30 10147 H 948.713 -2.76282 2.49998 0
M  V30 10148 H 948.826 -2.14967 4.28166 0
M  V30 10149 H 947.19 -1.22846 2.23116 0
M  V30 10150 H 947.973 -0.0662493 3.43236 0
M  V30 10151 N 950.418 -1.49637 -0.494624 0
M  V30 10152 C 951.664 -1.59681 -1.25019 0
M  V30 10153 C 951.997 -0.285511 -1.9209 0
M  V30 10154 O 951.272 0.711398 -1.81023 0
M  V30 10155 C 951.555 -2.76058 -2.31222 0
M  V30 10156 C 951.408 -4.17002 -1.68611 0
M  V30 10157 C 952.727 -2.88056 -3.32734 0
M  V30 10158 H 949.846 -0.581209 -0.453172 0
M  V30 10159 H 952.488 -1.81944 -0.547391 0
M  V30 10160 H 950.638 -2.57207 -2.91164 0
M  V30 10161 H 952.31 -4.47385 -1.12447 0
M  V30 10162 H 950.553 -4.22352 -0.989991 0
M  V30 10163 H 951.224 -4.94316 -2.45674 0
M  V30 10164 H 953.7 -3.05237 -2.82789 0
M  V30 10165 H 952.576 -3.71151 -4.04399 0
M  V30 10166 H 952.837 -1.97676 -3.95445 0
M  V30 10167 N 951.896 0.746133 -1.38819 0
M  V30 10168 C 952.859 1.84167 -1.36437 0
M  V30 10169 C 953.859 1.58626 -0.263499 0
M  V30 10170 O 955.049 1.66233 -0.520801 0
M  V30 10171 C 952.181 3.21769 -1.12596 0
M  V30 10172 H 953.374 1.87684 -2.33912 0
M  V30 10173 H 950.927 0.948625 -1.24221 0
M  V30 10174 H 951.662 3.23917 -0.15758 0
M  V30 10175 H 951.447 3.41702 -1.92307 0
M  V30 10176 H 952.937 4.0184 -1.13643 0
M  V30 10177 N 953.375 1.23811 0.975125 0
M  V30 10178 C 954.624 1.06741 1.71141 0
M  V30 10179 C 954.937 -0.394986 1.9157 0
M  V30 10180 O 956.143 -0.685723 2.62698 0
M  V30 10181 C 954.599 1.86168 3.08009 0
M  V30 10182 C 954.207 3.36771 2.95448 0
M  V30 10183 C 955.951 1.77604 3.85561 0
M  V30 10184 C 953.858 4.0857 4.2758 0
M  V30 10185 H 952.788 0.395819 0.64175 0
M  V30 10186 H 955.439 1.47825 1.0872 0
M  V30 10187 H 953.821 1.37893 3.71216 0
M  V30 10188 H 954.995 3.92571 2.41298 0
M  V30 10189 H 953.31 3.46205 2.31368 0
M  V30 10190 H 955.907 2.28556 4.83391 0
M  V30 10191 H 956.25 0.739837 4.09673 0
M  V30 10192 H 956.783 2.23519 3.29065 0
M  V30 10193 H 953.522 5.12518 4.08663 0
M  V30 10194 H 953.042 3.57556 4.81574 0
M  V30 10195 H 954.721 4.15157 4.9624 0
M  V30 10196 N 954.853 -1.17469 1.05066 0
M  V30 10197 C 956.264 -1.69334 0.786304 0
M  V30 10198 C 956.615 -1.83604 -0.691671 0
M  V30 10199 O 955.74 -1.52269 -1.53763 0
M  V30 10200 C 956.335 -3.07572 1.42074 0
M  V30 10201 C 954.894 -3.56609 1.20446 0
M  V30 10202 C 954.041 -2.329 1.50508 0
M  V30 10203 H 956.992 -1.02003 1.21577 0
M  V30 10204 H 957.013 -3.71352 0.829334 0
M  V30 10205 H 956.525 -2.97154 2.49642 0
M  V30 10206 H 954.626 -3.72306 0.147968 0
M  V30 10207 H 954.739 -4.39446 1.90852 0
M  V30 10208 H 953.103 -2.37305 0.925124 0
M  V30 10209 H 953.886 -2.25093 2.59207 0
M  V30 10210 N 956.331 -0.831506 -1.3388 0
M  V30 10211 C 957.294 -0.264773 -2.27666 0
M  V30 10212 C 958.294 0.562273 -1.50649 0
M  V30 10213 O 959.484 0.377131 -1.70069 0
M  V30 10214 C 956.616 0.627814 -3.35069 0
M  V30 10215 H 957.809 -1.09225 -2.79303 0
M  V30 10216 H 955.362 -0.604021 -1.44157 0
M  V30 10217 H 956.097 1.47802 -2.88661 0
M  V30 10218 H 955.882 0.0361552 -3.92083 0
M  V30 10219 H 957.372 1.01786 -4.05005 0
M  V30 10220 N 957.809 1.4625 -0.587256 0
M  V30 10221 C 958.759 2.27407 0.164393 0
M  V30 10222 C 959.743 1.36138 0.857628 0
M  V30 10223 O 960.935 1.60279 0.750973 0
M  V30 10224 C 958.064 3.22585 1.17447 0
M  V30 10225 C 957.15 4.21339 0.483121 0
M  V30 10226 N 957.541 5.03669 -0.46385 0
M  V30 10227 C 955.839 4.39931 0.73329 0
M  V30 10228 C 956.54 5.75182 -0.868334 0
M  V30 10229 N 955.516 5.43169 -0.216487 0
M  V30 10230 H 959.318 2.88453 -0.563237 0
M  V30 10231 H 956.832 1.57155 -0.409388 0
M  V30 10232 H 958.829 3.79439 1.72718 0
M  V30 10233 H 957.489 2.63098 1.90288 0
M  V30 10234 H 958.5 5.11049 -0.839602 0
M  V30 10235 H 955.177 3.91588 1.44792 0
M  V30 10236 H 956.567 6.51371 -1.64821 0
M  V30 10237 N 959.287 0.325282 1.54207 0
M  V30 10238 C 960.234 -0.539889 2.24397 0
M  V30 10239 C 961.204 -1.11028 1.2354 0
M  V30 10240 O 962.389 -1.1503 1.52226 0
M  V30 10241 C 959.529 -1.69405 3.00659 0
M  V30 10242 C 958.642 -1.15273 4.16337 0
M  V30 10243 C 957.777 -2.27272 4.80126 0
M  V30 10244 C 956.816 -1.70397 5.87904 0
M  V30 10245 N 955.953 -2.76065 6.45548 0
M  V30 10246 H 960.793 0.0652318 2.97929 0
M  V30 10247 H 958.33 0.043964 1.47034 0
M  V30 10248 H 960.288 -2.37325 3.43122 0
M  V30 10249 H 958.918 -2.27043 2.29458 0
M  V30 10250 H 957.97 -0.365034 3.78645 0
M  V30 10251 H 959.282 -0.696576 4.93912 0
M  V30 10252 H 958.436 -3.03092 5.25566 0
M  V30 10253 H 957.175 -2.76224 4.01935 0
M  V30 10254 H 956.18 -0.930752 5.41864 0
M  V30 10255 H 957.405 -1.22319 6.67993 0
M  V30 10256 H 955.351 -3.24306 5.7023 0
M  V30 10257 H 955.268 -2.35018 7.18542 0
M  V30 10258 H 956.536 -3.5171 6.95644 0
M  V30 10259 N 960.765 -1.57509 0.0534917 0
M  V30 10260 C 961.695 -2.14698 -0.917999 0
M  V30 10261 C 962.676 -1.06924 -1.32292 0
M  V30 10262 O 963.861 -1.34875 -1.39723 0
M  V30 10263 C 960.991 -2.69383 -2.19203 0
M  V30 10264 C 959.945 -3.82161 -1.9271 0
M  V30 10265 C 959.271 -4.23373 -3.26587 0
M  V30 10266 C 960.571 -5.07199 -1.24686 0
M  V30 10267 H 962.265 -2.96125 -0.44165 0
M  V30 10268 H 959.811 -1.42446 -0.210993 0
M  V30 10269 H 961.764 -3.08031 -2.87567 0
M  V30 10270 H 960.488 -1.85151 -2.69048 0
M  V30 10271 H 959.147 -3.43989 -1.26757 0
M  V30 10272 H 958.795 -3.36089 -3.74237 0
M  V30 10273 H 958.495 -4.99385 -3.09658 0
M  V30 10274 H 960.019 -4.64623 -3.96178 0
M  V30 10275 H 961.433 -5.43279 -1.83088 0
M  V30 10276 H 959.83 -5.88369 -1.18076 0
M  V30 10277 H 960.9 -4.84386 -0.223227 0
M  V30 10278 N 962.243 0.219913 -1.56058 0
M  V30 10279 C 963.654 0.786766 -1.69313 0
M  V30 10280 C 964.005 1.84916 -0.655782 0
M  V30 10281 O 963.13 2.1554 0.192772 0
M  V30 10282 C 963.725 1.43387 -3.06962 0
M  V30 10283 C 962.284 1.94809 -3.22066 0
M  V30 10284 C 961.431 0.808863 -2.65241 0
M  V30 10285 H 964.382 -0.00476777 -1.58699 0
M  V30 10286 H 964.403 2.30272 -3.02911 0
M  V30 10287 H 963.915 0.660405 -3.8244 0
M  V30 10288 H 962.016 2.74952 -2.5146 0
M  V30 10289 H 962.129 2.12694 -4.293 0
M  V30 10290 H 960.493 1.21661 -2.23765 0
M  V30 10291 H 961.276 0.0480458 -3.43266 0
M  V30 10292 N 963.721 1.49897 0.486681 0
M  V30 10293 C 964.998 1.50614 1.24799 0
M  V30 10294 C 965.378 0.24193 2.09709 0
M  V30 10295 O 964.726 -0.775237 2.14947 0
M  V30 10296 C 964.936 2.79318 2.09243 0
M  V30 10297 C 966.284 3.29371 2.67955 0
M  V30 10298 O 967.308 2.80533 2.19499 0
M  V30 10299 O 966.167 4.14466 3.56202 0
M  V30 10300 H 963.261 0.603447 0.565491 0
M  V30 10301 H 965.807 1.62174 0.499778 0
M  V30 10302 H 964.579 3.62812 1.46572 0
M  V30 10303 H 964.202 2.70687 2.91229 0
M  V30 10304 N 965.199 -0.738761 1.39212 0
M  V30 10305 C 966.615 -1.04381 1.20734 0
M  V30 10306 C 966.815 -2.01391 0.0663082 0
M  V30 10307 O 965.871 -2.45672 -0.583229 0
M  V30 10308 C 967.184 -1.6097 2.53987 0
M  V30 10309 C 968.732 -1.73069 2.60799 0
M  V30 10310 C 969.207 -2.33067 3.94264 0
M  V30 10311 N 970.698 -2.40481 3.95883 0
M  V30 10312 C 971.433 -2.87834 4.95923 0
M  V30 10313 N 970.929 -3.35111 6.0636 0
M  V30 10314 N 972.722 -2.87009 4.83304 0
M  V30 10315 H 964.873 -0.0952996 2.12186 0
M  V30 10316 H 967.136 -0.104902 0.942178 0
M  V30 10317 H 966.842 -0.971548 3.38015 0
M  V30 10318 H 966.716 -2.59829 2.73439 0
M  V30 10319 H 969.103 -2.36007 1.77157 0
M  V30 10320 H 969.184 -0.728728 2.452 0
M  V30 10321 H 968.828 -1.70758 4.78335 0
M  V30 10322 H 968.758 -3.33933 4.07181 0
M  V30 10323 H 971.249 -2.07061 3.16123 0
M  V30 10324 H 971.562 -3.69742 6.78609 0
M  V30 10325 H 969.907 -3.33129 6.09959 0
M  V30 10326 H 973.098 -2.49395 3.96131 0
M  V30 10327 H 973.271 -3.23598 5.61416 0
M  V30 10328 N 966.677 -1.24326 -0.968545 0
M  V30 10329 C 967.926 -1.07647 -1.70572 0
M  V30 10330 C 968.239 0.384821 -1.91777 0
M  V30 10331 O 969.445 0.671782 -2.63058 0
M  V30 10332 C 967.901 -1.87799 -3.07017 0
M  V30 10333 C 967.509 -3.38333 -2.93658 0
M  V30 10334 C 969.253 -1.79647 -3.84613 0
M  V30 10335 C 967.16 -4.10831 -4.25407 0
M  V30 10336 H 966.09 -0.399216 -0.639642 0
M  V30 10337 H 968.741 -1.484 -1.07934 0
M  V30 10338 H 967.123 -1.3986 -3.7048 0
M  V30 10339 H 968.297 -3.93845 -2.39213 0
M  V30 10340 H 966.612 -3.47427 -2.29528 0
M  V30 10341 H 969.209 -2.31116 -4.82172 0
M  V30 10342 H 969.552 -0.761553 -4.09275 0
M  V30 10343 H 970.085 -2.25261 -3.27875 0
M  V30 10344 H 966.824 -5.14679 -4.05939 0
M  V30 10345 H 966.344 -3.60105 -4.79671 0
M  V30 10346 H 968.023 -4.17783 -4.94031 0
M  V30 10347 N 968.156 1.1691 -1.05688 0
M  V30 10348 C 969.086 2.23275 -0.683402 0
M  V30 10349 C 970.067 1.6704 0.321206 0
M  V30 10350 O 971.252 1.93191 0.197691 0
M  V30 10351 C 968.382 3.47244 -0.0626006 0
M  V30 10352 C 967.336 4.16333 -0.992513 0
M  V30 10353 C 966.662 5.34182 -0.23533 0
M  V30 10354 C 967.962 4.68002 -2.31886 0
M  V30 10355 H 969.656 2.54771 -1.57264 0
M  V30 10356 H 967.202 1.2246 -0.757606 0
M  V30 10357 H 969.155 4.20874 0.210503 0
M  V30 10358 H 967.879 3.1503 0.861616 0
M  V30 10359 H 966.538 3.44622 -1.25026 0
M  V30 10360 H 966.186 4.9822 0.69181 0
M  V30 10361 H 965.886 5.81346 -0.855002 0
M  V30 10362 H 967.41 6.10592 0.0303717 0
M  V30 10363 H 968.824 5.33244 -2.10531 0
M  V30 10364 H 967.221 5.25764 -2.89296 0
M  V30 10365 H 968.291 3.84541 -2.95391 0
M  V30 10366 N 969.634 0.838594 1.33437 0
M  V30 10367 C 971.045 0.490934 1.8013 0
M  V30 10368 C 971.396 -0.990024 1.6939 0
M  V30 10369 O 970.521 -1.77139 1.24302 0
M  V30 10370 C 971.116 0.884347 3.27055 0
M  V30 10371 C 969.675 0.588829 3.71766 0
M  V30 10372 C 968.822 1.09282 2.54858 0
M  V30 10373 H 971.773 1.02732 1.20962 0
M  V30 10374 H 971.794 0.194283 3.80004 0
M  V30 10375 H 971.306 1.96225 3.34839 0
M  V30 10376 H 969.407 -0.479018 3.69508 0
M  V30 10377 H 969.52 1.14387 4.65245 0
M  V30 10378 H 967.884 0.513702 2.49466 0
M  V30 10379 H 968.667 2.1775 2.65405 0
M  V30 10380 N 971.112 -1.45937 0.595003 0
M  V30 10381 C 972.528 -1.57507 0.257641 0
M  V30 10382 C 972.728 -1.58829 -1.23998 0
M  V30 10383 O 971.784 -1.51183 -2.02237 0
M  V30 10384 C 973.097 -2.86354 0.917708 0
M  V30 10385 C 974.645 -3.00007 0.892446 0
M  V30 10386 C 975.12 -4.31607 1.53229 0
M  V30 10387 N 976.611 -4.38336 1.49719 0
M  V30 10388 C 977.346 -5.38805 1.96154 0
M  V30 10389 N 976.842 -6.45882 2.50617 0
M  V30 10390 N 978.635 -5.30084 1.86997 0
M  V30 10391 H 970.786 -1.43322 1.56756 0
M  V30 10392 H 973.049 -0.684436 0.655936 0
M  V30 10393 H 972.755 -2.91233 1.97171 0
M  V30 10394 H 972.629 -3.74703 0.433344 0
M  V30 10395 H 975.016 -2.94703 -0.152975 0
M  V30 10396 H 975.097 -2.13103 1.41495 0
M  V30 10397 H 974.741 -4.3767 2.57697 0
M  V30 10398 H 974.671 -5.17308 0.984903 0
M  V30 10399 H 977.162 -3.6156 1.09921 0
M  V30 10400 H 977.475 -7.18774 2.83874 0
M  V30 10401 H 975.82 -6.46668 2.54649 0
M  V30 10402 H 979.011 -4.45337 1.44196 0
M  V30 10403 H 979.184 -6.08237 2.23499 0
M  V30 10404 N 972.59 -0.333456 -1.54032 0
M  V30 10405 C 973.537 0.527981 -2.2468 0
M  V30 10406 C 974.507 1.10371 -1.24127 0
M  V30 10407 O 975.692 1.14221 -1.52834 0
M  V30 10408 C 972.832 1.67808 -3.01553 0
M  V30 10409 C 971.945 1.13064 -4.16942 0
M  V30 10410 C 971.08 2.24722 -4.81325 0
M  V30 10411 C 970.119 1.67277 -5.88799 0
M  V30 10412 N 969.256 2.72638 -6.47003 0
M  V30 10413 H 974.096 -0.0810308 -2.9789 0
M  V30 10414 H 971.633 -0.051761 -1.47009 0
M  V30 10415 H 973.591 2.35502 -3.44376 0
M  V30 10416 H 972.221 2.25823 -2.30659 0
M  V30 10417 H 971.273 0.344948 -3.78833 0
M  V30 10418 H 972.585 0.670373 -4.94275 0
M  V30 10419 H 971.739 3.00301 -5.27166 0
M  V30 10420 H 970.478 2.74089 -4.03394 0
M  V30 10421 H 969.483 0.902002 -5.4235 0
M  V30 10422 H 970.708 1.18775 -6.68632 0
M  V30 10423 H 968.654 3.21277 -5.71941 0
M  V30 10424 H 968.571 2.31204 -7.19778 0
M  V30 10425 H 969.839 3.48015 -6.97499 0
M  V30 10426 N 974.068 1.57479 -0.061844 0
M  V30 10427 C 975.315 1.93108 0.60954 0
M  V30 10428 C 975.643 0.941086 1.70217 0
M  V30 10429 O 974.898 -0.044914 1.95648 0
M  V30 10430 C 975.197 3.35394 1.23474 0
M  V30 10431 C 974.863 4.50095 0.269247 0
M  V30 10432 C 973.525 4.812 0.00360316 0
M  V30 10433 C 975.877 5.19725 -0.391839 0
M  V30 10434 C 973.205 5.79276 -0.930383 0
M  V30 10435 C 975.557 6.18801 -1.31408 0
M  V30 10436 C 974.221 6.48328 -1.58829 0
M  V30 10437 H 973.491 0.706634 0.223046 0
M  V30 10438 H 976.138 1.91054 -0.1306 0
M  V30 10439 H 974.443 3.33866 2.05039 0
M  V30 10440 H 976.14 3.60247 1.76134 0
M  V30 10441 H 972.73 4.2583 0.486477 0
M  V30 10442 H 976.914 4.95898 -0.199713 0
M  V30 10443 H 972.17 6.00484 -1.15019 0
M  V30 10444 H 976.344 6.71862 -1.83234 0
M  V30 10445 H 973.971 7.24137 -2.31363 0
M  V30 10446 N 975.546 -0.211634 1.56173 0
M  V30 10447 C 976.771 -0.955324 1.84088 0
M  V30 10448 C 977.196 -1.76754 0.643407 0
M  V30 10449 O 976.554 -1.76653 -0.407842 0
M  V30 10450 C 976.602 -1.84063 3.10085 0
M  V30 10451 O 975.706 -2.9373 2.89476 0
M  V30 10452 H 975.047 -0.26996 0.606645 0
M  V30 10453 H 977.577 -0.221947 2.03393 0
M  V30 10454 H 977.587 -2.24852 3.40449 0
M  V30 10455 H 976.262 -1.24373 3.96868 0
M  V30 10456 H 974.839 -2.56816 2.7037 0
M  V30 10457 N 977.024 -1.50153 -0.478725 0
M  V30 10458 C 978.27 -1.60998 -1.23318 0
M  V30 10459 C 978.603 -0.305868 -1.91776 0
M  V30 10460 O 977.878 0.692158 -1.81767 0
M  V30 10461 C 978.161 -2.78495 -2.28282 0
M  V30 10462 C 978.014 -4.18767 -1.64178 0
M  V30 10463 C 979.333 -2.91569 -3.2966 0
M  V30 10464 H 976.452 -0.585983 -0.446982 0
M  V30 10465 H 979.094 -1.82514 -0.528063 0
M  V30 10466 H 977.244 -2.60281 -2.8842 0
M  V30 10467 H 978.916 -4.48552 -1.07696 0
M  V30 10468 H 977.159 -4.23379 -0.94514 0
M  V30 10469 H 977.83 -4.96894 -2.40417 0
M  V30 10470 H 980.306 -3.08219 -2.79536 0
M  V30 10471 H 979.182 -3.75419 -4.0044 0
M  V30 10472 H 979.443 -2.01859 -3.93326 0
M  V30 10473 N 978.502 0.731368 -1.39602 0
M  V30 10474 C 979.727 1.52567 -1.40492 0
M  V30 10475 C 980.152 1.881 -0.00228828 0
M  V30 10476 O 979.51 1.52167 0.985643 0
M  V30 10477 C 979.558 2.78749 -2.2876 0
M  V30 10478 O 978.662 3.7482 -1.71999 0
M  V30 10479 H 978.003 0.460601 -0.478271 0
M  V30 10480 H 980.533 0.902042 -1.83642 0
M  V30 10481 H 980.543 3.27446 -2.43399 0
M  V30 10482 H 979.218 2.5222 -3.30693 0
M  V30 10483 H 977.795 3.33604 -1.66622 0
M  V30 10484 N 979.98 1.24838 0.961938 0
M  V30 10485 C 980.943 1.04674 2.03902 0
M  V30 10486 C 981.943 0.00204674 1.608 0
M  V30 10487 O 983.133 0.243555 1.72489 0
M  V30 10488 C 980.265 0.587736 3.35795 0
M  V30 10489 H 981.458 2.00278 2.23223 0
M  V30 10490 H 979.011 1.07142 1.138 0
M  V30 10491 H 979.746 -0.371244 3.22168 0
M  V30 10492 H 979.531 1.34182 3.68426 0
M  V30 10493 H 981.021 0.467867 4.14971 0
M  V30 10494 N 981.458 -1.16348 1.06306 0
M  V30 10495 C 982.405 -2.20741 0.673962 0
M  V30 10496 C 983.375 -1.628 -0.329454 0
M  V30 10497 O 984.56 -1.89547 -0.218313 0
M  V30 10498 C 981.7 -3.45036 0.0667008 0
M  V30 10499 C 980.813 -4.17221 1.12031 0
M  V30 10500 C 979.948 -5.29034 0.479176 0
M  V30 10501 C 978.987 -5.93021 1.51631 0
M  V30 10502 N 978.124 -6.96327 0.898528 0
M  V30 10503 H 982.964 -2.53376 1.56859 0
M  V30 10504 H 980.501 -1.24449 0.784276 0
M  V30 10505 H 982.459 -4.16099 -0.302916 0
M  V30 10506 H 981.089 -3.1295 -0.791333 0
M  V30 10507 H 980.141 -3.4476 1.60763 0
M  V30 10508 H 981.453 -4.60902 1.90712 0
M  V30 10509 H 980.607 -6.06674 0.0565993 0
M  V30 10510 H 979.346 -4.86517 -0.33951 0
M  V30 10511 H 978.351 -5.14104 1.94878 0
M  V30 10512 H 979.576 -6.37618 2.3371 0
M  V30 10513 H 977.522 -6.55923 0.100555 0
M  V30 10514 H 977.439 -7.38379 1.62272 0
M  V30 10515 H 978.707 -7.77888 0.5011 0
M  V30 10516 N 982.937 -0.845659 -1.3299 0
M  V30 10517 C 984.186 -0.440928 -1.96822 0
M  V30 10518 C 984.499 1.00668 -1.67706 0
M  V30 10519 O 985.705 1.51641 -2.25205 0
M  V30 10520 C 984.161 -0.73752 -3.52262 0
M  V30 10521 C 983.769 -2.20026 -3.90247 0
M  V30 10522 C 985.513 -0.400072 -4.22611 0
M  V30 10523 C 983.42 -2.44054 -5.38694 0
M  V30 10524 H 982.35 -0.161148 -0.736578 0
M  V30 10525 H 985.001 -1.03519 -1.51513 0
M  V30 10526 H 983.383 -0.0728025 -3.95933 0
M  V30 10527 H 984.557 -2.90602 -3.57613 0
M  V30 10528 H 982.872 -2.50135 -3.32899 0
M  V30 10529 H 985.469 -0.557136 -5.3179 0
M  V30 10530 H 985.812 0.657547 -4.11074 0
M  V30 10531 H 986.345 -1.0203 -3.84493 0
M  V30 10532 H 983.084 -3.48407 -5.55241 0
M  V30 10533 H 982.604 -1.78047 -5.72765 0
M  V30 10534 H 984.283 -2.27549 -6.05665 0
M  V30 10535 N 984.415 1.45619 -0.602734 0
M  V30 10536 C 985.826 1.85814 -0.181636 0
M  V30 10537 C 986.177 1.5037 1.26029 0
M  V30 10538 O 985.302 0.928068 1.95489 0
M  V30 10539 C 985.897 3.37258 -0.322866 0
M  V30 10540 C 984.456 3.76375 0.043504 0
M  V30 10541 C 983.603 2.69585 -0.649561 0
M  V30 10542 H 986.554 1.36489 -0.809721 0
M  V30 10543 H 986.575 3.77874 0.446279 0
M  V30 10544 H 986.087 3.63024 -1.37241 0
M  V30 10545 H 984.188 3.56226 1.09241 0
M  V30 10546 H 984.301 4.77843 -0.346765 0
M  V30 10547 H 982.665 2.54549 -0.087706 0
M  V30 10548 H 983.448 2.98188 -1.70115 0
M  V30 10549 N 985.893 0.34162 1.53853 0
M  V30 10550 C 986.803 -0.524555 2.2866 0
M  V30 10551 C 987.819 -1.1136 1.33697 0
M  V30 10552 O 988.995 -1.1297 1.66732 0
M  V30 10553 C 986.06 -1.66065 3.04341 0
M  V30 10554 C 985.121 -1.10158 4.14926 0
M  V30 10555 C 984.354 -2.18353 4.86988 0
M  V30 10556 O 984.577 -3.39038 4.58704 0
M  V30 10557 O 983.511 -1.82756 5.73484 0
M  V30 10558 H 987.337 0.0835014 3.03585 0
M  V30 10559 H 984.922 0.106727 1.49018 0
M  V30 10560 H 986.804 -2.3217 3.51674 0
M  V30 10561 H 985.479 -2.25456 2.32275 0
M  V30 10562 H 984.386 -0.405109 3.719 0
M  V30 10563 H 985.719 -0.552567 4.89088 0
M  V30 10564 N 987.371 -1.57444 0.0701946 0
M  V30 10565 C 988.599 -1.97754 -0.608358 0
M  V30 10566 C 989.014 -0.948496 -1.63245 0
M  V30 10567 O 988.371 0.065046 -1.82384 0
M  V30 10568 C 988.422 -3.38142 -1.27836 0
M  V30 10569 O 988.143 -4.37104 -0.295255 0
M  V30 10570 C 989.644 -3.93318 -2.04489 0
M  V30 10571 H 986.864 -0.650398 -0.164997 0
M  V30 10572 H 989.408 -2.04006 0.142124 0
M  V30 10573 H 987.563 -3.32982 -1.97994 0
M  V30 10574 H 987.977 -5.18732 -0.77574 0
M  V30 10575 H 989.451 -4.93774 -2.46762 0
M  V30 10576 H 989.928 -3.29774 -2.90079 0
M  V30 10577 H 990.534 -4.01875 -1.39201 0
M  V30 10578 N 988.849 0.203349 -1.56283 0
M  V30 10579 C 989.796 1.25205 -1.93888 0
M  V30 10580 C 990.766 1.45654 -0.798376 0
M  V30 10581 O 991.951 1.58924 -1.05583 0
M  V30 10582 C 989.091 2.59355 -2.27659 0
M  V30 10583 C 988.204 2.46553 -3.54733 0
M  V30 10584 C 987.339 3.73351 -3.77865 0
M  V30 10585 C 986.378 3.55347 -4.98392 0
M  V30 10586 N 985.515 4.74137 -5.17821 0
M  V30 10587 H 990.355 0.924356 -2.83301 0
M  V30 10588 H 987.892 0.445082 -1.40205 0
M  V30 10589 H 989.85 3.375 -2.45254 0
M  V30 10590 H 988.48 2.90184 -1.41396 0
M  V30 10591 H 987.532 1.59749 -3.45231 0
M  V30 10592 H 988.844 2.2918 -4.43033 0
M  V30 10593 H 987.998 4.59937 -3.95655 0
M  V30 10594 H 986.737 3.9367 -2.8788 0
M  V30 10595 H 985.742 2.67146 -4.80534 0
M  V30 10596 H 986.967 3.36482 -5.89879 0
M  V30 10597 H 984.913 4.94735 -4.30782 0
M  V30 10598 H 984.83 4.59558 -6.00285 0
M  V30 10599 H 986.098 5.62098 -5.40061 0
M  V30 10600 N 990.327 1.50405 0.470755 0
M  V30 10601 C 991.573 1.62618 1.22175 0
M  V30 10602 C 991.928 0.322593 1.89676 0
M  V30 10603 O 991.221 -0.679504 1.79146 0
M  V30 10604 C 991.415 2.74426 2.28965 0
M  V30 10605 C 991.244 4.15532 1.71941 0
M  V30 10606 C 990.014 4.81928 1.51899 0
M  V30 10607 C 992.212 4.99762 1.21417 0
M  V30 10608 N 990.194 6.07249 0.901208 0
M  V30 10609 C 991.565 6.15809 0.719638 0
M  V30 10610 C 993.62 4.85535 1.10275 0
M  V30 10611 C 992.323 7.19192 0.124669 0
M  V30 10612 C 994.349 5.89094 0.521721 0
M  V30 10613 C 993.711 7.0439 0.0375645 0
M  V30 10614 H 989.81 0.649215 0.43594 0
M  V30 10615 H 992.394 1.87525 0.523702 0
M  V30 10616 H 990.565 2.51242 2.96196 0
M  V30 10617 H 992.297 2.75996 2.95987 0
M  V30 10618 H 989.052 4.39228 1.77133 0
M  V30 10619 H 989.476 6.7424 0.610722 0
M  V30 10620 H 994.118 3.96681 1.463 0
M  V30 10621 H 991.836 8.0772 -0.247782 0
M  V30 10622 H 995.422 5.8015 0.437872 0
M  V30 10623 H 994.302 7.83154 -0.404993 0
M  V30 10624 N 991.805 -0.723954 1.39988 0
M  V30 10625 C 993.045 -1.49624 1.39255 0
M  V30 10626 C 993.409 -1.91998 -0.00860198 0
M  V30 10627 O 994.61 -2.6843 -0.141002 0
M  V30 10628 C 992.881 -2.69514 2.34728 0
M  V30 10629 S 994.44 -3.59027 2.5228 0
M  V30 10630 H 991.258 -0.511661 0.493685 0
M  V30 10631 H 993.86 -0.847322 1.76184 0
M  V30 10632 H 992.564 -2.36541 3.35375 0
M  V30 10633 H 992.095 -3.39325 1.99053 0
M  V30 10634 H 994.11 -4.63597 1.76896 0
M  V30 10635 N 993.283 -1.25346 -0.955304 0
M  V30 10636 C 994.215 -1.0146 -2.0552 0
M  V30 10637 C 995.228 0.0202256 -1.62787 0
M  V30 10638 O 996.417 -0.218251 -1.77161 0
M  V30 10639 C 993.517 -0.511727 -3.35014 0
M  V30 10640 C 992.69 -1.61256 -4.0659 0
M  V30 10641 C 991.749 -1.11017 -5.14356 0
M  V30 10642 O 990.775 -1.80443 -5.39842 0
M  V30 10643 N 991.977 0.0489001 -5.80479 0
M  V30 10644 H 994.742 -1.96166 -2.26581 0
M  V30 10645 H 992.303 -1.16543 -1.12381 0
M  V30 10646 H 994.295 -0.160123 -4.04383 0
M  V30 10647 H 992.865 0.341377 -3.1073 0
M  V30 10648 H 992.085 -2.13577 -3.31328 0
M  V30 10649 H 993.373 -2.35213 -4.51168 0
M  V30 10650 H 992.771 0.629021 -5.62192 0
M  V30 10651 H 991.328 0.341542 -6.50905 0
M  V30 10652 N 994.761 1.15782 -1.06922 0
M  V30 10653 C 995.708 2.2038 -0.685659 0
M  V30 10654 C 996.678 1.62972 0.320816 0
M  V30 10655 O 997.863 1.8966 0.208258 0
M  V30 10656 C 995.003 3.44995 -0.084998 0
M  V30 10657 C 994.116 4.16621 -1.14242 0
M  V30 10658 C 993.251 5.28773 -0.507226 0
M  V30 10659 C 992.29 5.92209 -1.54774 0
M  V30 10660 N 991.427 6.9584 -0.935443 0
M  V30 10661 H 996.267 2.5254 -1.58201 0
M  V30 10662 H 993.804 1.24031 -0.790864 0
M  V30 10663 H 995.762 4.16254 0.280845 0
M  V30 10664 H 994.392 3.13365 0.774725 0
M  V30 10665 H 993.444 3.43903 -1.62589 0
M  V30 10666 H 994.756 4.59884 -1.93154 0
M  V30 10667 H 993.91 6.06635 -0.0887719 0
M  V30 10668 H 992.649 4.8669 0.313704 0
M  V30 10669 H 991.654 5.13063 -1.97602 0
M  V30 10670 H 992.879 6.3637 -2.37088 0
M  V30 10671 H 990.825 6.5586 -0.135339 0
M  V30 10672 H 990.742 7.37508 -1.66186 0
M  V30 10673 H 992.01 7.77611 -0.542346 0
M  V30 10674 N 996.239 0.8527 1.3254 0
M  V30 10675 C 997.479 0.461385 1.99125 0
M  V30 10676 C 997.843 -0.964507 1.66016 0
M  V30 10677 O 999.044 -1.46027 2.25676 0
M  V30 10678 C 997.315 0.69143 3.50648 0
M  V30 10679 S 998.874 0.397397 4.36997 0
M  V30 10680 H 995.692 0.172933 0.689649 0
M  V30 10681 H 998.294 1.10499 1.61277 0
M  V30 10682 H 996.998 1.72831 3.72233 0
M  V30 10683 H 996.529 0.0341812 3.93385 0
M  V30 10684 H 998.544 -0.777363 4.90073 0
M  V30 10685 N 997.718 -1.45297 0.610449 0
M  V30 10686 C 998.958 -2.04105 0.109802 0
M  V30 10687 C 999.322 -1.46818 -1.23727 0
M  V30 10688 O 1000.52 -1.96997 -1.82881 0
M  V30 10689 C 998.794 -3.57323 0.0741377 0
M  V30 10690 S 1000.35 -4.3728 -0.364901 0
M  V30 10691 H 997.171 -0.709171 0.050967 0
M  V30 10692 H 999.773 -1.77967 0.809194 0
M  V30 10693 H 998.477 -3.96528 1.05801 0
M  V30 10694 H 998.008 -3.8804 -0.647158 0
M  V30 10695 H 1000.02 -4.69224 -1.61379 0
M  V30 10696 N 999.196 -0.349774 -1.5367 0
M  V30 10697 C 1000.44 0.245189 -2.01312 0
M  V30 10698 C 1000.77 1.49702 -1.23705 0
M  V30 10699 O 1000.05 1.91742 -0.326371 0
M  V30 10700 C 1000.33 0.553071 -3.55827 0
M  V30 10701 C 1000.19 -0.71129 -4.4414 0
M  V30 10702 C 1001.5 1.36015 -4.18555 0
M  V30 10703 H 998.624 0.0876415 -0.73177 0
M  V30 10704 H 1001.27 -0.471543 -1.84056 0
M  V30 10705 H 999.416 1.16367 -3.70663 0
M  V30 10706 H 1001.09 -1.34913 -4.41131 0
M  V30 10707 H 999.331 -1.33491 -4.1275 0
M  V30 10708 H 1000 -0.45104 -5.50154 0
M  V30 10709 H 1002.48 0.843778 -4.07455 0
M  V30 10710 H 1001.35 1.54432 -5.26728 0
M  V30 10711 H 1001.61 2.36408 -3.73582 0
M  V30 10712 N 1000.67 1.57404 -0.0785433 0
M  V30 10713 C 1001.92 1.94031 0.589896 0
M  V30 10714 C 1002.25 0.959297 1.68852 0
M  V30 10715 O 1001.53 -0.0103978 1.94497 0
M  V30 10716 C 1001.81 3.40886 1.16055 0
M  V30 10717 C 1001.66 4.49748 0.0681072 0
M  V30 10718 C 1002.98 3.88699 2.06401 0
M  V30 10719 H 1000.1 0.70556 0.212965 0
M  V30 10720 H 1002.74 1.89439 -0.145886 0
M  V30 10721 H 1000.89 3.4493 1.78761 0
M  V30 10722 H 1002.57 4.57823 -0.565318 0
M  V30 10723 H 1000.81 4.29625 -0.600431 0
M  V30 10724 H 1001.48 5.49658 0.507906 0
M  V30 10725 H 1003.96 3.86703 1.53622 0
M  V30 10726 H 1002.83 4.92052 2.43261 0
M  V30 10727 H 1003.09 3.2703 2.97496 0
M  V30 10728 N 1002.15 -0.195058 1.56388 0
M  V30 10729 C 1003.57 -0.545894 1.49974 0
M  V30 10730 C 1003.77 -1.85851 0.778568 0
M  V30 10731 O 1002.82 -2.50346 0.329105 0
M  V30 10732 C 1004.14 -0.600599 2.94641 0
M  V30 10733 C 1005.68 -0.689429 3.05313 0
M  V30 10734 C 1006.16 -0.775243 4.51391 0
M  V30 10735 N 1007.65 -0.838769 4.55542 0
M  V30 10736 C 1008.39 -0.925337 5.65884 0
M  V30 10737 N 1007.88 -0.974204 6.85916 0
M  V30 10738 N 1009.67 -0.962528 5.53798 0
M  V30 10739 H 1001.83 0.66595 2.0169 0
M  V30 10740 H 1004.09 0.237215 0.917842 0
M  V30 10741 H 1003.79 0.29478 3.50462 0
M  V30 10742 H 1003.67 -1.45528 3.47996 0
M  V30 10743 H 1006.06 -1.57524 2.4954 0
M  V30 10744 H 1006.14 0.191451 2.55083 0
M  V30 10745 H 1005.78 0.106215 5.07789 0
M  V30 10746 H 1005.71 -1.67193 4.99354 0
M  V30 10747 H 1008.2 -0.810249 3.69112 0
M  V30 10748 H 1008.51 -1.04077 7.6576 0
M  V30 10749 H 1006.86 -0.942881 6.88574 0
M  V30 10750 H 1010.05 -0.921188 4.58946 0
M  V30 10751 H 1010.22 -1.02653 6.39817 0
M  V30 10752 N 1003.63 -1.50653 -0.462772 0
M  V30 10753 C 1004.58 -1.70661 -1.58043 0
M  V30 10754 C 1005.57 -0.572533 -1.59432 0
M  V30 10755 O 1006.78 -0.753257 -1.63481 0
M  V30 10756 H 1003.15 -0.538805 -0.524588 0
M  V30 10757 H 1005.12 -2.64399 -1.38332 0
M  V30 10758 C 1003.87 -1.82558 -2.95919 0
M  V30 10759 H 1003.2 -2.69216 -2.95572 0
M  V30 10760 H 1004.64 -2.0058 -3.73556 0
M  V30 10761 C 1003.09 -0.57916 -3.31885 0
M  V30 10762 O 1003.62 0.277888 -4.00738 0
M  V30 10763 N 1001.83 -0.430723 -2.8739 0
M  V30 10764 H 1001.38 -1.1292 -2.31531 0
M  V30 10765 H 1001.34 0.402061 -3.11819 0
M  V30 10766 N 1005.11 0.71652 -1.4037 0
M  V30 10767 C 1006.52 1.29562 -1.34427 0
M  V30 10768 C 1006.87 1.96192 -0.0173106 0
M  V30 10769 O 1006 1.97488 0.884719 0
M  V30 10770 C 1006.59 2.35601 -2.4347 0
M  V30 10771 C 1005.15 2.89138 -2.4099 0
M  V30 10772 C 1004.3 1.62915 -2.24397 0
M  V30 10773 H 1007.25 0.512715 -1.5019 0
M  V30 10774 H 1007.27 3.16422 -2.11323 0
M  V30 10775 H 1006.78 1.87077 -3.40035 0
M  V30 10776 H 1004.88 3.41894 -1.4812 0
M  V30 10777 H 1004.99 3.40995 -3.3654 0
M  V30 10778 H 1003.36 1.87947 -1.71896 0
M  V30 10779 H 1004.14 1.16417 -3.22958 0
M  V30 10780 N 1006.59 1.25851 0.948643 0
M  V30 10781 C 1007.82 1.13546 1.726 0
M  V30 10782 C 1008.22 -0.312857 1.86595 0
M  V30 10783 O 1007.57 -1.22657 1.36751 0
M  V30 10784 C 1007.63 1.72315 3.15512 0
M  V30 10785 C 1007.29 3.2136 3.24926 0
M  V30 10786 C 1008.29 4.18274 3.08777 0
M  V30 10787 C 1005.98 3.61683 3.48555 0
M  V30 10788 C 1007.97 5.53491 3.16112 0
M  V30 10789 C 1005.66 4.97035 3.55526 0
M  V30 10790 C 1006.65 5.92749 3.3932 0
M  V30 10791 O 1006.34 7.25637 3.45985 0
M  V30 10792 H 1006.07 0.396555 0.547467 0
M  V30 10793 H 1008.63 1.66822 1.19832 0
M  V30 10794 H 1006.86 1.13494 3.6967 0
M  V30 10795 H 1008.55 1.55024 3.7513 0
M  V30 10796 H 1009.31 3.88461 2.90385 0
M  V30 10797 H 1005.19 2.87674 3.60229 0
M  V30 10798 H 1008.74 6.28177 3.0338 0
M  V30 10799 H 1004.63 5.26512 3.73437 0
M  V30 10800 H 1005.4 7.33812 3.62577 0
M  V30 10801 N 1008.06 -1.15214 1.07534 0
M  V30 10802 C 1009.29 -1.89922 0.820804 0
M  V30 10803 C 1009.71 -1.78114 -0.626177 0
M  V30 10804 O 1009.06 -1.13435 -1.42964 0
M  V30 10805 C 1009.12 -3.40207 1.22236 0
M  V30 10806 O 1008.84 -3.51676 2.61257 0
M  V30 10807 C 1010.34 -4.31934 0.997393 0
M  V30 10808 H 1007.56 -0.601865 0.296647 0
M  V30 10809 H 1010.1 -1.45965 1.43229 0
M  V30 10810 H 1008.26 -3.8182 0.655167 0
M  V30 10811 H 1008.67 -4.44959 2.77689 0
M  V30 10812 H 1010.14 -5.35791 1.32785 0
M  V30 10813 H 1010.62 -4.3915 -0.0661599 0
M  V30 10814 H 1011.23 -3.96066 1.54958 0
M  V30 10815 N 1009.54 -0.859717 -1.32086 0
M  V30 10816 C 1010.79 -0.464662 -1.96686 0
M  V30 10817 C 1011.11 0.98412 -1.68345 0
M  V30 10818 O 1010.38 1.68847 -0.993361 0
M  V30 10819 H 1008.96 -0.168838 -0.727669 0
M  V30 10820 H 1011.62 -1.09726 -1.61079 0
M  V30 10821 H 1010.72 -0.613904 -3.06003 0
M  V30 10822 N 1011.02 1.44971 -0.618145 0
M  V30 10823 C 1011.97 2.27704 0.116119 0
M  V30 10824 C 1012.95 1.37927 0.828558 0
M  V30 10825 O 1014.15 1.61836 0.716806 0
M  V30 10826 C 1011.28 3.25004 1.10578 0
M  V30 10827 C 1010.36 4.22269 0.39364 0
M  V30 10828 N 1010.75 5.02571 -0.570581 0
M  V30 10829 C 1009.05 4.41387 0.639809 0
M  V30 10830 C 1009.75 5.73211 -0.990144 0
M  V30 10831 N 1008.73 5.42587 -0.331653 0
M  V30 10832 H 1012.53 2.87193 -0.624295 0
M  V30 10833 H 1010.04 1.56252 -0.442631 0
M  V30 10834 H 1012.04 3.83017 1.64631 0
M  V30 10835 H 1010.7 2.67075 1.84664 0
M  V30 10836 H 1011.71 5.09153 -0.947814 0
M  V30 10837 H 1008.39 3.94572 1.36453 0
M  V30 10838 H 1009.78 6.47728 -1.78601 0
M  V30 10839 N 1012.5 0.357919 1.53482 0
M  V30 10840 C 1013.45 -0.49217 2.25491 0
M  V30 10841 C 1014.42 -1.08382 1.25867 0
M  V30 10842 O 1015.6 -1.11775 1.54632 0
M  V30 10843 C 1012.74 -1.6299 3.04185 0
M  V30 10844 C 1011.85 -1.06416 4.18688 0
M  V30 10845 C 1010.99 -2.17037 4.84839 0
M  V30 10846 C 1010.03 -1.57889 5.91386 0
M  V30 10847 N 1009.16 -2.6231 6.51259 0
M  V30 10848 H 1014 0.128412 2.97723 0
M  V30 10849 H 1011.54 0.0751423 1.46908 0
M  V30 10850 H 1013.5 -2.29993 3.48079 0
M  V30 10851 H 1012.13 -2.22125 2.34223 0
M  V30 10852 H 1011.18 -0.284635 3.79334 0
M  V30 10853 H 1012.49 -0.591654 4.95279 0
M  V30 10854 H 1011.65 -2.91876 5.31877 0
M  V30 10855 H 1010.39 -2.67636 4.07703 0
M  V30 10856 H 1009.39 -0.815605 5.43717 0
M  V30 10857 H 1010.62 -1.08123 6.70437 0
M  V30 10858 H 1008.56 -3.12137 5.7698 0
M  V30 10859 H 1008.48 -2.19724 7.23365 0
M  V30 10860 H 1009.75 -3.36875 7.02948 0
M  V30 10861 N 1013.98 -1.5736 0.0868897 0
M  V30 10862 C 1015.21 -1.981 -0.586498 0
M  V30 10863 C 1015.61 -0.96455 -1.62767 0
M  V30 10864 O 1014.96 0.0551801 -1.83617 0
M  V30 10865 C 1015.02 -3.35193 -1.29947 0
M  V30 10866 C 1014.68 -4.55157 -0.410012 0
M  V30 10867 C 1015.68 -5.18797 0.338532 0
M  V30 10868 C 1013.37 -5.01212 -0.33047 0
M  V30 10869 C 1015.36 -6.26854 1.15468 0
M  V30 10870 C 1013.05 -6.09138 0.48934 0
M  V30 10871 C 1014.04 -6.71823 1.23057 0
M  V30 10872 O 1013.73 -7.77669 2.03683 0
M  V30 10873 H 1013.46 -0.656166 -0.16255 0
M  V30 10874 H 1016.02 -2.04773 0.160379 0
M  V30 10875 H 1014.25 -3.25179 -2.09274 0
M  V30 10876 H 1015.94 -3.60435 -1.86658 0
M  V30 10877 H 1016.7 -4.84151 0.286764 0
M  V30 10878 H 1012.58 -4.52188 -0.897058 0
M  V30 10879 H 1016.13 -6.75712 1.73374 0
M  V30 10880 H 1012.02 -6.43215 0.542618 0
M  V30 10881 H 1012.79 -7.94618 1.96277 0
M  V30 10882 N 1015.45 0.186762 -1.56489 0
M  V30 10883 C 1016.38 1.23395 -1.98232 0
M  V30 10884 C 1017.37 1.4702 -0.855526 0
M  V30 10885 O 1018.55 1.58616 -1.12048 0
M  V30 10886 C 1015.68 2.57635 -2.32898 0
M  V30 10887 C 1014.63 2.48607 -3.48394 0
M  V30 10888 C 1013.96 3.87196 -3.68759 0
M  V30 10889 C 1015.26 2.00398 -4.82325 0
M  V30 10890 H 1016.95 0.887026 -2.85958 0
M  V30 10891 H 1014.5 0.42525 -1.37578 0
M  V30 10892 H 1016.45 3.31082 -2.60696 0
M  V30 10893 H 1015.18 2.94084 -1.42064 0
M  V30 10894 H 1013.84 1.77615 -3.207 0
M  V30 10895 H 1013.48 4.21012 -2.75241 0
M  V30 10896 H 1013.18 3.82029 -4.46462 0
M  V30 10897 H 1014.71 4.62253 -3.98941 0
M  V30 10898 H 1016.12 2.6361 -5.091 0
M  V30 10899 H 1014.52 2.06214 -5.63556 0
M  V30 10900 H 1015.59 0.957562 -4.75351 0
M  V30 10901 N 1016.93 1.50896 0.454776 0
M  V30 10902 C 1018.17 1.64347 1.21529 0
M  V30 10903 C 1018.54 0.343869 1.88896 0
M  V30 10904 O 1019.74 0.353973 2.66459 0
M  V30 10905 C 1018.01 2.80199 2.21864 0
M  V30 10906 S 1019.57 3.13879 3.06636 0
M  V30 10907 H 1016.39 0.579193 0.412379 0
M  V30 10908 H 1018.99 1.88741 0.509629 0
M  V30 10909 H 1017.69 3.73086 1.70982 0
M  V30 10910 H 1017.22 2.57941 2.97036 0
M  V30 10911 H 1019.24 2.58964 4.23264 0
M  V30 10912 N 1018.41 -0.709066 1.40748 0
M  V30 10913 C 1019.66 -1.46611 1.39103 0
M  V30 10914 C 1019.98 -1.95 -0.00365366 0
M  V30 10915 O 1019.25 -1.70791 -0.959541 0
M  V30 10916 H 1017.83 -0.543954 0.511979 0
M  V30 10917 H 1020.49 -0.840141 1.75863 0
M  V30 10918 H 1019.59 -2.33581 2.06994 0
M  V30 10919 N 1019.89 -1.26353 -0.941956 0
M  V30 10920 C 1020.85 -1.07904 -2.02211 0
M  V30 10921 C 1021.85 -0.0276283 -1.60776 0
M  V30 10922 O 1023.04 -0.270965 -1.7208 0
M  V30 10923 C 1020.17 -0.641084 -3.34818 0
M  V30 10924 H 1021.37 -2.03804 -2.20009 0
M  V30 10925 H 1018.92 -1.08939 -1.12081 0
M  V30 10926 H 1019.66 0.319943 -3.22718 0
M  V30 10927 H 1019.44 -1.40027 -3.66244 0
M  V30 10928 H 1020.93 -0.533826 -4.14174 0
M  V30 10929 N 1021.37 1.14642 -1.08144 0
M  V30 10930 C 1022.3 2.21775 -0.730609 0
M  V30 10931 C 1023.28 1.67683 0.285702 0
M  V30 10932 O 1024.46 1.93567 0.156667 0
M  V30 10933 C 1021.59 3.47033 -0.136242 0
M  V30 10934 C 1020.55 4.14134 -1.0806 0
M  V30 10935 C 1019.87 5.33563 -0.348585 0
M  V30 10936 C 1021.17 4.62978 -2.41761 0
M  V30 10937 H 1022.87 2.51378 -1.62633 0
M  V30 10938 H 1020.41 1.20825 -0.783411 0
M  V30 10939 H 1022.37 4.21226 0.121182 0
M  V30 10940 H 1021.09 3.16786 0.7946 0
M  V30 10941 H 1019.75 3.41892 -1.32308 0
M  V30 10942 H 1019.4 4.99575 0.585974 0
M  V30 10943 H 1019.1 5.79402 -0.978122 0
M  V30 10944 H 1020.62 6.10519 -0.0991508 0
M  V30 10945 H 1022.04 5.28659 -2.21795 0
M  V30 10946 H 1020.43 5.1951 -3.00383 0
M  V30 10947 H 1021.5 3.78189 -3.03482 0
M  V30 10948 N 1022.85 0.866709 1.31628 0
M  V30 10949 C 1023.78 0.277328 2.27516 0
M  V30 10950 C 1024.79 -0.557786 1.52946 0
M  V30 10951 O 1025.98 -0.38031 1.74402 0
M  V30 10952 C 1023.08 -0.625742 3.33073 0
M  V30 10953 C 1022.25 0.176204 4.37045 0
M  V30 10954 C 1021.31 -0.654497 5.22114 0
M  V30 10955 O 1020.34 -0.0836961 5.69138 0
M  V30 10956 N 1021.54 -1.96708 5.46156 0
M  V30 10957 H 1024.3 1.10133 2.78731 0
M  V30 10958 H 1021.87 0.72787 1.44616 0
M  V30 10959 H 1023.86 -1.18709 3.86898 0
M  V30 10960 H 1022.43 -1.35042 2.81926 0
M  V30 10961 H 1021.65 0.918999 3.83338 0
M  V30 10962 H 1022.94 0.726594 5.03585 0
M  V30 10963 H 1022.33 -2.454 5.09701 0
M  V30 10964 H 1020.89 -2.47629 6.02929 0
M  V30 10965 N 1024.32 -1.44642 0.625825 0
M  V30 10966 C 1025.55 -2.06458 0.135116 0
M  V30 10967 C 1025.97 -1.46729 -1.18811 0
M  V30 10968 O 1025.32 -0.58818 -1.72762 0
M  V30 10969 C 1025.37 -3.61499 0.00850114 0
M  V30 10970 O 1025.1 -4.19002 1.2794 0
M  V30 10971 C 1026.6 -4.40339 -0.511527 0
M  V30 10972 H 1023.82 -0.666541 0.0772294 0
M  V30 10973 H 1026.36 -1.85597 0.858726 0
M  V30 10974 H 1024.52 -3.81641 -0.665522 0
M  V30 10975 H 1024.93 -5.12385 1.12081 0
M  V30 10976 H 1026.4 -5.49262 -0.549149 0
M  V30 10977 H 1026.88 -4.11409 -1.53752 0
M  V30 10978 H 1027.49 -4.25104 0.129066 0
M  V30 10979 N 1025.8 -0.366053 -1.5329 0
M  V30 10980 C 1027.03 0.226839 -2.06156 0
M  V30 10981 C 1027.45 1.41637 -1.23776 0
M  V30 10982 O 1026.81 1.7947 -0.256948 0
M  V30 10983 C 1026.86 0.597956 -3.55608 0
M  V30 10984 O 1025.96 1.69512 -3.75951 0
M  V30 10985 H 1025.3 0.0329156 -0.663184 0
M  V30 10986 H 1027.83 -0.526793 -1.97702 0
M  V30 10987 H 1027.84 0.868831 -3.98642 0
M  V30 10988 H 1026.52 -0.271838 -4.15011 0
M  V30 10989 H 1025.09 1.41976 -3.44815 0
M  V30 10990 N 1027.28 1.57312 -0.0952337 0
M  V30 10991 C 1028.53 1.93533 0.568131 0
M  V30 10992 C 1028.84 0.979121 1.6933 0
M  V30 10993 O 1030.05 1.23506 2.41782 0
M  V30 10994 C 1028.5 3.43875 1.06198 0
M  V30 10995 C 1028.11 4.47988 -0.0334397 0
M  V30 10996 C 1029.86 3.89057 1.69807 0
M  V30 10997 C 1027.76 5.89483 0.475774 0
M  V30 10998 H 1026.69 0.7224 0.215995 0
M  V30 10999 H 1029.34 1.82699 -0.171257 0
M  V30 11000 H 1027.73 3.49862 1.85506 0
M  V30 11001 H 1028.9 4.53644 -0.808934 0
M  V30 11002 H 1027.21 4.12415 -0.574725 0
M  V30 11003 H 1029.81 4.92171 2.08978 0
M  V30 11004 H 1030.15 3.27713 2.5673 0
M  V30 11005 H 1030.69 3.85772 0.970815 0
M  V30 11006 H 1027.43 6.54528 -0.356837 0
M  V30 11007 H 1026.95 5.87297 1.21827 0
M  V30 11008 H 1028.63 6.40066 0.944697 0
M  V30 11009 N 1028.76 -0.17846 1.56586 0
M  V30 11010 C 1030 -0.897562 1.81856 0
M  V30 11011 C 1030.34 -1.82204 0.671955 0
M  V30 11012 O 1029.61 -1.91739 -0.326535 0
M  V30 11013 C 1029.89 -1.69942 3.17477 0
M  V30 11014 C 1029.75 -0.798545 4.42655 0
M  V30 11015 C 1031.07 -2.66861 3.49962 0
M  V30 11016 H 1028.19 -0.324863 0.661539 0
M  V30 11017 H 1030.83 -0.164106 1.8929 0
M  V30 11018 H 1028.98 -2.32471 3.11271 0
M  V30 11019 H 1030.65 -0.18668 4.60922 0
M  V30 11020 H 1028.89 -0.106181 4.3367 0
M  V30 11021 H 1029.56 -1.39496 5.34083 0
M  V30 11022 H 1032.04 -2.1446 3.56576 0
M  V30 11023 H 1030.92 -3.20037 4.45946 0
M  V30 11024 H 1031.18 -3.46715 2.74301 0
M  V30 11025 N 1030.24 -1.51135 -0.446768 0
M  V30 11026 C 1031.17 -1.74709 -1.54916 0
M  V30 11027 C 1032.15 -0.596628 -1.59293 0
M  V30 11028 O 1033.33 -0.838356 -1.75172 0
M  V30 11029 C 1030.46 -1.86353 -2.9307 0
M  V30 11030 C 1029.42 -3.01725 -3.03556 0
M  V30 11031 C 1028.74 -2.9854 -4.43597 0
M  V30 11032 C 1030.04 -4.41848 -2.7851 0
M  V30 11033 H 1031.74 -2.67014 -1.3544 0
M  V30 11034 H 1029.28 -1.28489 -0.650131 0
M  V30 11035 H 1031.23 -2.01428 -3.70141 0
M  V30 11036 H 1029.96 -0.906887 -3.13756 0
M  V30 11037 H 1028.62 -2.86339 -2.28922 0
M  V30 11038 H 1028.27 -2.00673 -4.61237 0
M  V30 11039 H 1027.97 -3.76008 -4.51544 0
M  V30 11040 H 1029.49 -3.15696 -5.22655 0
M  V30 11041 H 1030.9 -4.57633 -3.45319 0
M  V30 11042 H 1029.3 -5.2095 -2.97877 0
M  V30 11043 H 1030.37 -4.52536 -1.74182 0
M  V30 11044 N 1031.71 0.701592 -1.41122 0
M  V30 11045 C 1032.64 1.82815 -1.45262 0
M  V30 11046 C 1033.62 1.67215 -0.311939 0
M  V30 11047 O 1034.81 1.87038 -0.522538 0
M  V30 11048 C 1031.94 3.20899 -1.32819 0
M  V30 11049 C 1030.89 3.51194 -2.44636 0
M  V30 11050 C 1030.22 4.8857 -2.17263 0
M  V30 11051 C 1031.52 3.50777 -3.86979 0
M  V30 11052 H 1033.21 1.79608 -2.39544 0
M  V30 11053 H 1030.76 0.862693 -1.15298 0
M  V30 11054 H 1032.71 3.99417 -1.34329 0
M  V30 11055 H 1031.44 3.24717 -0.350191 0
M  V30 11056 H 1030.1 2.75024 -2.42399 0
M  V30 11057 H 1029.74 4.89007 -1.17819 0
M  V30 11058 H 1029.44 5.09805 -2.92186 0
M  V30 11059 H 1030.97 5.69405 -2.20478 0
M  V30 11060 H 1032.38 4.19309 -3.90964 0
M  V30 11061 H 1030.78 3.83542 -4.61536 0
M  V30 11062 H 1031.85 2.49873 -4.15562 0
M  V30 11063 N 1033.19 1.2685 0.935242 0
M  V30 11064 C 1034.1 1.10716 2.06831 0
M  V30 11065 C 1035.12 0.0391222 1.73956 0
M  V30 11066 O 1036.29 0.244071 1.99916 0
M  V30 11067 C 1033.36 0.748093 3.38533 0
M  V30 11068 C 1032.42 1.89619 3.85153 0
M  V30 11069 C 1031.65 1.55416 5.1057 0
M  V30 11070 O 1031.88 0.458596 5.68553 0
M  V30 11071 O 1030.81 2.39087 5.52378 0
M  V30 11072 H 1034.64 2.05785 2.23352 0
M  V30 11073 H 1032.22 1.05967 1.05315 0
M  V30 11074 H 1034.1 0.560841 4.17651 0
M  V30 11075 H 1032.78 -0.173142 3.23237 0
M  V30 11076 H 1031.68 2.13845 3.06954 0
M  V30 11077 H 1033.02 2.79737 4.04979 0
M  V30 11078 N 1034.67 -1.14067 1.0875 0
M  V30 11079 C 1035.92 -1.85677 0.830392 0
M  V30 11080 C 1036.27 -1.81549 -0.637016 0
M  V30 11081 O 1035.56 -1.23774 -1.46255 0
M  V30 11082 C 1035.76 -3.33273 1.29089 0
M  V30 11083 C 1035.59 -3.51774 2.80153 0
M  V30 11084 C 1034.36 -3.66419 3.47944 0
M  V30 11085 C 1036.56 -3.48399 3.78316 0
M  V30 11086 N 1034.54 -3.73112 4.87504 0
M  V30 11087 C 1035.91 -3.61378 5.03791 0
M  V30 11088 C 1037.96 -3.31758 3.7127 0
M  V30 11089 C 1036.67 -3.59435 6.23056 0
M  V30 11090 C 1038.69 -3.31119 4.90014 0
M  V30 11091 C 1038.05 -3.44643 6.1433 0
M  V30 11092 H 1034.15 -0.695948 0.356625 0
M  V30 11093 H 1036.74 -1.36687 1.38654 0
M  V30 11094 H 1034.91 -3.80846 0.762274 0
M  V30 11095 H 1036.64 -3.92659 0.979828 0
M  V30 11096 H 1033.4 -3.67799 2.98364 0
M  V30 11097 H 1033.82 -3.80167 5.6018 0
M  V30 11098 H 1038.46 -3.2021 2.76089 0
M  V30 11099 H 1036.18 -3.69758 7.18544 0
M  V30 11100 H 1039.77 -3.1945 4.86254 0
M  V30 11101 H 1038.65 -3.44101 7.04673 0
M  V30 11102 N 1036.15 -0.873678 -1.31166 0
M  V30 11103 C 1037.39 -0.487178 -1.96861 0
M  V30 11104 C 1037.73 0.95887 -1.68877 0
M  V30 11105 O 1037 1.6758 -0.987279 0
M  V30 11106 C 1037.29 -0.74925 -3.52219 0
M  V30 11107 C 1037.14 -2.2451 -3.89763 0
M  V30 11108 C 1038.46 -0.218194 -4.39559 0
M  V30 11109 H 1035.58 -0.178477 -0.715063 0
M  V30 11110 H 1038.22 -1.0956 -1.55231 0
M  V30 11111 H 1036.37 -0.231403 -3.8781 0
M  V30 11112 H 1038.04 -2.83049 -3.64254 0
M  V30 11113 H 1036.28 -2.71621 -3.38237 0
M  V30 11114 H 1036.95 -2.37911 -4.98099 0
M  V30 11115 H 1039.43 -0.661274 -4.10812 0
M  V30 11116 H 1038.31 -0.430983 -5.47205 0
M  V30 11117 H 1038.57 0.880056 -4.33252 0
M  V30 11118 N 1037.63 1.44308 -0.633487 0
M  V30 11119 C 1038.54 2.34492 0.0711787 0
M  V30 11120 C 1039.55 1.52754 0.8332 0
M  V30 11121 O 1040.73 1.85475 0.784929 0
M  V30 11122 C 1037.79 3.30767 1.03895 0
M  V30 11123 C 1036.85 4.28412 0.276043 0
M  V30 11124 C 1036.09 5.20087 1.19772 0
M  V30 11125 O 1036.31 5.15743 2.4365 0
M  V30 11126 O 1035.24 5.98038 0.680764 0
M  V30 11127 H 1039.07 2.96203 -0.67063 0
M  V30 11128 H 1036.66 1.4412 -0.393678 0
M  V30 11129 H 1038.54 3.90021 1.59566 0
M  V30 11130 H 1037.21 2.71586 1.76133 0
M  V30 11131 H 1036.12 3.72696 -0.32377 0
M  V30 11132 H 1037.45 4.9052 -0.406364 0
M  V30 11133 N 1039.1 0.374177 1.53094 0
M  V30 11134 C 1040.52 -0.103172 1.86415 0
M  V30 11135 C 1040.87 -1.47439 1.29446 0
M  V30 11136 O 1039.99 -2.07333 0.619853 0
M  V30 11137 C 1040.59 -0.193988 3.38244 0
M  V30 11138 C 1039.15 -0.615605 3.71332 0
M  V30 11139 C 1038.29 0.23186 2.76329 0
M  V30 11140 H 1041.24 0.592644 1.47219 0
M  V30 11141 H 1041.26 -1.01597 3.66686 0
M  V30 11142 H 1040.78 0.80414 3.79678 0
M  V30 11143 H 1038.88 -1.62165 3.3546 0
M  V30 11144 H 1038.99 -0.38425 4.77557 0
M  V30 11145 H 1037.35 -0.300579 2.5292 0
M  V30 11146 H 1038.14 1.22769 3.20597 0
M  V30 11147 N 1040.58 -1.57259 0.103575 0
M  V30 11148 C 1041.52 -2.10165 -0.889141 0
M  V30 11149 C 1042.49 -1.01426 -1.27089 0
M  V30 11150 O 1043.68 -1.2898 -1.37465 0
M  V30 11151 C 1040.8 -2.58564 -2.18774 0
M  V30 11152 C 1039.85 -3.79043 -1.95522 0
M  V30 11153 S 1040.68 -5.22213 -1.18551 0
M  V30 11154 C 1041.84 -5.73968 -2.49623 0
M  V30 11155 H 1042.07 -2.9404 -0.439083 0
M  V30 11156 H 1039.61 -1.54008 -0.10989 0
M  V30 11157 H 1041.56 -2.87106 -2.93395 0
M  V30 11158 H 1040.22 -1.749 -2.609 0
M  V30 11159 H 1039.42 -4.11004 -2.91705 0
M  V30 11160 H 1039.02 -3.51038 -1.29028 0
M  V30 11161 H 1041.31 -5.82752 -3.45553 0
M  V30 11162 H 1042.25 -6.72324 -2.22229 0
M  V30 11163 H 1042.66 -5.01946 -2.58284 0
M  V30 11164 N 1042.06 0.170153 -1.56679 0
M  V30 11165 C 1042.99 1.23525 -1.93066 0
M  V30 11166 C 1044.01 1.40414 -0.823879 0
M  V30 11167 O 1045.19 1.40396 -1.10232 0
M  V30 11168 C 1042.29 2.60376 -2.16928 0
M  V30 11169 C 1041.47 2.6477 -3.4816 0
M  V30 11170 C 1040.53 3.82993 -3.60837 0
M  V30 11171 O 1039.55 3.68937 -4.33444 0
M  V30 11172 N 1040.75 4.99498 -2.95773 0
M  V30 11173 H 1043.52 0.926172 -2.8503 0
M  V30 11174 H 1041.08 0.359909 -1.57849 0
M  V30 11175 H 1043.07 3.37934 -2.22672 0
M  V30 11176 H 1041.64 2.83669 -1.31342 0
M  V30 11177 H 1040.86 1.73298 -3.54064 0
M  V30 11178 H 1042.15 2.64717 -4.34514 0
M  V30 11179 H 1041.55 5.13819 -2.36657 0
M  V30 11180 H 1040.11 5.74914 -3.07111 0
M  V30 11181 N 1043.54 1.5137 0.438746 0
M  V30 11182 C 1044.49 1.72582 1.53245 0
M  V30 11183 C 1045.46 0.567488 1.56105 0
M  V30 11184 O 1046.64 0.80176 1.73137 0
M  V30 11185 C 1043.78 1.85551 2.90972 0
M  V30 11186 C 1042.89 3.13094 2.97652 0
M  V30 11187 C 1042.03 3.16666 4.26493 0
M  V30 11188 C 1041.07 4.38529 4.27035 0
M  V30 11189 N 1040.2 4.39659 5.47398 0
M  V30 11190 H 1045.04 2.65941 1.3446 0
M  V30 11191 H 1042.58 1.31801 0.653206 0
M  V30 11192 H 1044.54 1.91053 3.70884 0
M  V30 11193 H 1043.17 0.956025 3.08318 0
M  V30 11194 H 1042.22 3.16909 2.10412 0
M  V30 11195 H 1043.53 4.03009 2.93914 0
M  V30 11196 H 1042.69 3.21075 5.14777 0
M  V30 11197 H 1041.43 2.24637 4.32885 0
M  V30 11198 H 1040.43 4.34297 3.37144 0
M  V30 11199 H 1041.66 5.31821 4.22307 0
M  V30 11200 H 1039.6 3.50499 5.54514 0
M  V30 11201 H 1039.52 5.23382 5.45534 0
M  V30 11202 H 1040.79 4.48259 6.37718 0
M  V30 11203 N 1045.02 -0.694098 1.41492 0
M  V30 11204 C 1046.26 -1.45415 1.40929 0
M  V30 11205 C 1046.59 -1.94491 0.0189301 0
M  V30 11206 O 1045.85 -1.7 -0.96945 0
M  V30 11207 C 1046.15 -2.6805 2.36398 0
M  V30 11208 C 1045.81 -2.37623 3.83205 0
M  V30 11209 C 1044.47 -2.29035 4.23198 0
M  V30 11210 C 1046.83 -2.12555 4.75888 0
M  V30 11211 C 1044.15 -1.93478 5.5388 0
M  V30 11212 C 1046.51 -1.78506 6.06892 0
M  V30 11213 C 1045.17 -1.68415 6.45905 0
M  V30 11214 H 1044.44 -0.53211 0.515694 0
M  V30 11215 H 1047.09 -0.793193 1.74301 0
M  V30 11216 H 1045.39 -3.39086 1.96285 0
M  V30 11217 H 1047.09 -3.26194 2.33234 0
M  V30 11218 H 1043.68 -2.45202 3.51531 0
M  V30 11219 H 1047.86 -2.18133 4.45793 0
M  V30 11220 H 1043.12 -1.84219 5.82986 0
M  V30 11221 H 1047.29 -1.58128 6.7821 0
M  V30 11222 H 1044.92 -1.40631 7.47079 0
M  V30 11223 N 1046.49 -1.27344 -0.928501 0
M  V30 11224 C 1047.43 -1.04322 -2.02959 0
M  V30 11225 C 1048.41 0.0361118 -1.6256 0
M  V30 11226 O 1049.59 -0.108872 -1.88185 0
M  V30 11227 C 1046.72 -0.582329 -3.33656 0
M  V30 11228 C 1045.76 -1.65611 -3.93033 0
M  V30 11229 S 1046.6 -3.2484 -4.25722 0
M  V30 11230 C 1047.75 -2.8055 -5.59502 0
M  V30 11231 H 1047.98 -1.97548 -2.22176 0
M  V30 11232 H 1045.52 -1.11167 -1.07151 0
M  V30 11233 H 1047.48 -0.323095 -4.09227 0
M  V30 11234 H 1046.14 0.329858 -3.12363 0
M  V30 11235 H 1045.33 -1.28491 -4.87346 0
M  V30 11236 H 1044.93 -1.86738 -3.24045 0
M  V30 11237 H 1047.22 -2.25803 -6.38764 0
M  V30 11238 H 1048.17 -3.73603 -6.0152 0
M  V30 11239 H 1048.57 -2.19717 -5.19985 0
M  V30 11240 N 1047.97 1.13488 -1.09353 0
M  V30 11241 C 1048.9 2.20988 -0.75409 0
M  V30 11242 C 1049.88 1.67977 0.267901 0
M  V30 11243 O 1051.07 1.93722 0.136128 0
M  V30 11244 C 1048.2 3.46869 -0.173042 0
M  V30 11245 C 1047.15 4.12965 -1.12446 0
M  V30 11246 C 1046.48 5.33163 -0.405157 0
M  V30 11247 C 1047.78 4.60388 -2.46658 0
M  V30 11248 H 1049.47 2.49639 -1.6529 0
M  V30 11249 H 1047.02 1.19987 -0.796182 0
M  V30 11250 H 1048.97 4.21331 0.0764988 0
M  V30 11251 H 1047.7 3.17611 0.760956 0
M  V30 11252 H 1046.35 3.40469 -1.35927 0
M  V30 11253 H 1046 5.00169 0.532955 0
M  V30 11254 H 1045.7 5.78332 -1.03952 0
M  V30 11255 H 1047.23 6.1038 -0.163899 0
M  V30 11256 H 1048.64 5.26276 -2.27389 0
M  V30 11257 H 1047.04 5.16294 -3.05876 0
M  V30 11258 H 1048.11 3.74949 -3.07476 0
M  V30 11259 N 1049.45 0.880621 1.30701 0
M  V30 11260 C 1050.7 0.492957 1.95583 0
M  V30 11261 C 1051.01 -0.961863 1.70316 0
M  V30 11262 O 1052.22 -1.45617 2.29146 0
M  V30 11263 C 1050.68 0.830656 3.50183 0
M  V30 11264 C 1050.28 2.30295 3.84276 0
M  V30 11265 C 1052.03 0.511979 4.21401 0
M  V30 11266 C 1049.93 2.58251 5.32034 0
M  V30 11267 H 1048.86 0.18062 0.732047 0
M  V30 11268 H 1051.52 1.075 1.48715 0
M  V30 11269 H 1049.9 0.177752 3.95601 0
M  V30 11270 H 1051.07 2.99981 3.49783 0
M  V30 11271 H 1049.39 2.58873 3.2615 0
M  V30 11272 H 1051.98 0.697935 5.30125 0
M  V30 11273 H 1052.33 -0.548327 4.12673 0
M  V30 11274 H 1052.86 1.12189 3.81652 0
M  V30 11275 H 1049.6 3.63005 5.45809 0
M  V30 11276 H 1049.12 1.9317 5.67843 0
M  V30 11277 H 1050.8 2.43527 5.99419 0
M  V30 11278 N 1050.93 -1.4397 0.641131 0
M  V30 11279 C 1051.88 -2.30728 -0.0577905 0
M  V30 11280 C 1052.85 -1.44059 -0.826819 0
M  V30 11281 O 1054.03 -1.72947 -0.805853 0
M  V30 11282 C 1051.17 -3.29478 -1.02657 0
M  V30 11283 C 1050.28 -4.31247 -0.254913 0
M  V30 11284 C 1049.42 -5.17085 -1.2164 0
M  V30 11285 C 1048.46 -6.10556 -0.434481 0
M  V30 11286 N 1047.6 -6.89059 -1.34694 0
M  V30 11287 H 1052.44 -2.8995 0.687953 0
M  V30 11288 H 1049.97 -1.4285 0.351029 0
M  V30 11289 H 1051.93 -3.85228 -1.60173 0
M  V30 11290 H 1050.56 -2.71932 -1.73933 0
M  V30 11291 H 1049.61 -3.77889 0.436338 0
M  V30 11292 H 1050.92 -4.97545 0.353642 0
M  V30 11293 H 1050.08 -5.77402 -1.86258 0
M  V30 11294 H 1048.82 -4.50885 -1.85888 0
M  V30 11295 H 1047.82 -5.49339 0.225125 0
M  V30 11296 H 1049.05 -6.78795 0.203415 0
M  V30 11297 H 1046.99 -6.25518 -1.97644 0
M  V30 11298 H 1046.91 -7.51833 -0.792657 0
M  V30 11299 H 1048.18 -7.5389 -1.98165 0
M  V30 11300 N 1052.41 -0.382291 -1.52893 0
M  V30 11301 C 1053.36 0.473026 -2.23039 0
M  V30 11302 C 1054.34 1.0353 -1.23168 0
M  V30 11303 O 1055.53 0.962566 -1.48538 0
M  V30 11304 C 1052.66 1.60349 -3.03551 0
M  V30 11305 C 1051.75 1.05329 -4.10812 0
M  V30 11306 N 1052.14 0.22746 -5.05288 0
M  V30 11307 C 1050.44 1.32648 -4.25818 0
M  V30 11308 C 1051.14 -0.0757032 -5.81651 0
M  V30 11309 N 1050.11 0.526387 -5.41045 0
M  V30 11310 H 1053.92 -0.164541 -2.93439 0
M  V30 11311 H 1051.43 -0.191211 -1.6127 0
M  V30 11312 H 1053.43 2.22858 -3.52335 0
M  V30 11313 H 1052.09 2.24394 -2.34685 0
M  V30 11314 H 1053.1 -0.134714 -5.17725 0
M  V30 11315 H 1049.78 1.96849 -3.6818 0
M  V30 11316 H 1051.17 -0.744375 -6.67764 0
M  V30 11317 N 1053.89 1.57202 -0.111913 0
M  V30 11318 C 1055.13 1.94125 0.547573 0
M  V30 11319 C 1055.45 0.997026 1.68282 0
M  V30 11320 O 1056.65 1.26063 2.40459 0
M  V30 11321 C 1055.11 3.44982 1.02545 0
M  V30 11322 C 1054.72 4.47927 -0.0809529 0
M  V30 11323 C 1056.46 3.90837 1.65671 0
M  V30 11324 C 1054.37 5.89955 0.413224 0
M  V30 11325 H 1053.3 0.724651 0.208321 0
M  V30 11326 H 1055.95 1.82507 -0.190625 0
M  V30 11327 H 1054.33 3.5181 1.81785 0
M  V30 11328 H 1055.51 4.52761 -0.857003 0
M  V30 11329 H 1053.82 4.11782 -0.618434 0
M  V30 11330 H 1056.42 4.9436 2.03746 0
M  V30 11331 H 1056.76 3.30417 2.53239 0
M  V30 11332 H 1057.29 3.8678 0.929844 0
M  V30 11333 H 1054.03 6.54113 -0.426238 0
M  V30 11334 H 1053.55 5.88557 1.15591 0
M  V30 11335 H 1055.23 6.41032 0.876756 0
M  V30 11336 N 1055.36 -0.161842 1.56767 0
M  V30 11337 C 1056.64 -0.904754 1.73417 0
M  V30 11338 C 1057.02 -1.99987 0.675908 0
M  V30 11339 O 1056.37 -2.26419 -0.307712 0
M  V30 11340 C 1056.58 -1.46082 3.16956 0
M  V30 11341 C 1057.93 -1.93004 3.78199 0
M  V30 11342 O 1058.95 -1.55856 3.20293 0
M  V30 11343 O 1057.81 -2.61465 4.79894 0
M  V30 11344 H 1054.9 -0.426518 0.708528 0
M  V30 11345 H 1057.45 -0.148928 1.69045 0
M  V30 11346 H 1056.22 -0.673087 3.85468 0
M  V30 11347 H 1055.84 -2.28056 3.25693 0
M  V30 11348 N 1056.84 -1.516 -0.430713 0
M  V30 11349 C 1058.09 -1.64596 -1.17959 0
M  V30 11350 C 1058.42 -0.365382 -1.91037 0
M  V30 11351 O 1057.67 0.650826 -1.84561 0
M  V30 11352 C 1057.97 -2.804 -2.21609 0
M  V30 11353 C 1057.64 -4.19431 -1.65495 0
M  V30 11354 C 1056.3 -4.57252 -1.49915 0
M  V30 11355 C 1058.65 -5.0616 -1.24304 0
M  V30 11356 C 1055.98 -5.79501 -0.916276 0
M  V30 11357 C 1058.33 -6.28995 -0.674437 0
M  V30 11358 C 1056.99 -6.65582 -0.505591 0
M  V30 11359 H 1056.26 -0.602301 -0.431642 0
M  V30 11360 H 1058.91 -1.8565 -0.469726 0
M  V30 11361 H 1057.22 -2.53595 -2.98658 0
M  V30 11362 H 1058.91 -2.87654 -2.79385 0
M  V30 11363 H 1055.5 -3.89615 -1.78599 0
M  V30 11364 H 1059.69 -4.77541 -1.35159 0
M  V30 11365 H 1054.94 -6.0649 -0.77328 0
M  V30 11366 H 1059.12 -6.95536 -0.346779 0
M  V30 11367 H 1056.74 -7.60182 -0.0518188 0
M  V30 11368 N 1058.32 0.686584 -1.41858 0
M  V30 11369 C 1059.73 1.26682 -1.37145 0
M  V30 11370 C 1060.08 1.96112 -0.058922 0
M  V30 11371 O 1059.21 1.99321 0.842629 0
M  V30 11372 C 1059.8 2.30383 -2.48413 0
M  V30 11373 C 1058.36 2.83961 -2.47069 0
M  V30 11374 C 1057.51 1.58119 -2.27802 0
M  V30 11375 H 1060.46 0.480742 -1.51243 0
M  V30 11376 H 1060.48 3.11868 -2.17987 0
M  V30 11377 H 1059.99 1.79822 -3.43927 0
M  V30 11378 H 1058.09 3.38675 -1.55338 0
M  V30 11379 H 1058.21 3.3378 -3.43697 0
M  V30 11380 H 1056.57 1.84258 -1.75844 0
M  V30 11381 H 1057.35 1.09541 -3.25355 0
M  V30 11382 N 1059.8 1.27835 0.921735 0
M  V30 11383 C 1061.05 1.13904 1.6646 0
M  V30 11384 C 1061.36 -0.313379 1.93073 0
M  V30 11385 O 1062.57 -0.573687 2.6537 0
M  V30 11386 C 1061.02 1.99064 2.99836 0
M  V30 11387 C 1060.63 3.48998 2.80899 0
M  V30 11388 C 1062.37 1.93797 3.77681 0
M  V30 11389 C 1060.28 4.26337 4.09867 0
M  V30 11390 H 1059.21 0.422681 0.624385 0
M  V30 11391 H 1061.86 1.52303 1.02352 0
M  V30 11392 H 1060.24 1.53514 3.65034 0
M  V30 11393 H 1061.42 4.02452 2.24431 0
M  V30 11394 H 1059.73 3.55707 2.16476 0
M  V30 11395 H 1062.33 2.48852 4.73262 0
M  V30 11396 H 1062.67 0.912928 4.06167 0
M  V30 11397 H 1063.21 2.37275 3.19289 0
M  V30 11398 H 1059.94 5.2939 3.86557 0
M  V30 11399 H 1059.46 3.77659 4.65976 0
M  V30 11400 H 1061.14 4.3583 4.78185 0
M  V30 11401 N 1061.28 -1.12907 1.09954 0
M  V30 11402 C 1062.69 -1.65847 0.857417 0
M  V30 11403 C 1063.04 -1.86372 -0.613176 0
M  V30 11404 O 1062.16 -1.58654 -1.47166 0
M  V30 11405 C 1062.76 -3.01269 1.54991 0
M  V30 11406 C 1061.32 -3.51179 1.35462 0
M  V30 11407 C 1060.46 -2.26307 1.60251 0
M  V30 11408 H 1063.41 -0.96755 1.25794 0
M  V30 11409 H 1063.44 -3.675 0.986091 0
M  V30 11410 H 1062.95 -2.86299 2.6202 0
M  V30 11411 H 1061.05 -3.71343 0.305742 0
M  V30 11412 H 1061.16 -4.30955 2.09318 0
M  V30 11413 H 1059.53 -2.33167 1.02494 0
M  V30 11414 H 1060.31 -2.13896 2.68521 0
M  V30 11415 N 1062.75 -0.88754 -1.30232 0
M  V30 11416 C 1063.99 -0.514017 -1.97831 0
M  V30 11417 C 1064.36 0.920151 -1.68515 0
M  V30 11418 O 1065.56 1.39993 -2.29468 0
M  V30 11419 C 1063.83 -0.784155 -3.48692 0
M  V30 11420 S 1065.39 -0.513119 -4.3579 0
M  V30 11421 H 1062.21 -0.191157 -0.684821 0
M  V30 11422 H 1064.81 -1.14736 -1.58291 0
M  V30 11423 H 1063.51 -1.82639 -3.6752 0
M  V30 11424 H 1063.04 -0.138468 -3.93156 0
M  V30 11425 H 1065.06 0.647155 -4.91962 0
M  V30 11426 N 1064.23 1.43628 -0.648757 0
M  V30 11427 C 1065.64 1.85142 -0.24066 0
M  V30 11428 C 1065.99 1.54304 1.21181 0
M  V30 11429 O 1065.12 0.989792 1.92437 0
M  V30 11430 C 1065.71 3.3606 -0.429999 0
M  V30 11431 C 1064.27 3.76323 -0.0762588 0
M  V30 11432 C 1063.42 2.67382 -0.734999 0
M  V30 11433 H 1066.37 1.33844 -0.852734 0
M  V30 11434 H 1066.39 3.79102 0.325836 0
M  V30 11435 H 1065.9 3.58474 -1.48721 0
M  V30 11436 H 1064.01 3.59521 0.978529 0
M  V30 11437 H 1064.12 4.76498 -0.498612 0
M  V30 11438 H 1062.48 2.54141 -0.168644 0
M  V30 11439 H 1063.27 2.92625 -1.79515 0
M  V30 11440 N 1065.71 0.390394 1.52688 0
M  V30 11441 C 1066.64 -0.43567 2.294 0
M  V30 11442 C 1067.62 -1.06253 1.32832 0
M  V30 11443 O 1068.81 -1.07509 1.61726 0
M  V30 11444 C 1065.94 -1.56259 3.10162 0
M  V30 11445 C 1064.89 -1.06172 4.14622 0
M  V30 11446 C 1064.22 -2.2808 4.83615 0
M  V30 11447 C 1065.52 -0.128902 5.22141 0
M  V30 11448 H 1067.21 0.204384 2.98702 0
M  V30 11449 H 1064.76 0.0997377 1.43654 0
M  V30 11450 H 1066.71 -2.14732 3.62585 0
M  V30 11451 H 1065.43 -2.23025 2.38595 0
M  V30 11452 H 1064.09 -0.499518 3.63181 0
M  V30 11453 H 1063.74 -2.93358 4.08595 0
M  V30 11454 H 1063.44 -1.95227 5.5422 0
M  V30 11455 H 1064.96 -2.87193 5.38844 0
M  V30 11456 H 1066.38 -0.621849 5.69917 0
M  V30 11457 H 1064.78 0.109919 5.99999 0
M  V30 11458 H 1065.85 0.821884 4.77884 0
M  V30 11459 N 1067.19 -1.57141 0.120249 0
M  V30 11460 C 1068.6 -1.5784 -0.236335 0
M  V30 11461 C 1068.8 -1.13304 -1.66626 0
M  V30 11462 O 1067.86 -0.821004 -2.3878 0
M  V30 11463 C 1069.17 -3.007 -0.00188211 0
M  V30 11464 C 1070.72 -3.12927 -0.0676838 0
M  V30 11465 C 1071.2 -4.57789 0.139092 0
M  V30 11466 N 1072.69 -4.63122 0.085104 0
M  V30 11467 C 1073.42 -5.72978 0.219983 0
M  V30 11468 N 1072.92 -6.91579 0.411102 0
M  V30 11469 N 1074.71 -5.61874 0.159469 0
M  V30 11470 H 1066.86 -1.84391 1.05422 0
M  V30 11471 H 1069.13 -0.852228 0.415225 0
M  V30 11472 H 1068.83 -3.37575 0.986718 0
M  V30 11473 H 1068.71 -3.70005 -0.733203 0
M  V30 11474 H 1071.09 -2.75909 -1.04681 0
M  V30 11475 H 1071.17 -2.46162 0.695538 0
M  V30 11476 H 1070.82 -4.95506 1.1152 0
M  V30 11477 H 1070.75 -5.22646 -0.644131 0
M  V30 11478 H 1073.24 -3.77854 -0.0590479 0
M  V30 11479 H 1073.55 -7.71149 0.504851 0
M  V30 11480 H 1071.9 -6.9356 0.447091 0
M  V30 11481 H 1075.09 -4.68099 0.0111131 0
M  V30 11482 H 1075.26 -6.47445 0.268028 0
M  V30 11483 N 1068.67 0.153526 -1.5685 0
M  V30 11484 C 1069.6 1.21906 -1.9291 0
M  V30 11485 C 1070.58 1.4189 -0.794098 0
M  V30 11486 O 1071.76 1.56609 -1.0491 0
M  V30 11487 C 1068.89 2.57908 -2.19548 0
M  V30 11488 C 1067.93 2.54557 -3.42203 0
M  V30 11489 S 1068.77 2.01891 -4.95984 0
M  V30 11490 C 1069.92 3.39635 -5.25737 0
M  V30 11491 H 1070.16 0.911382 -2.82986 0
M  V30 11492 H 1067.69 0.358863 -1.50172 0
M  V30 11493 H 1069.65 3.36177 -2.35575 0
M  V30 11494 H 1068.31 2.85868 -1.30147 0
M  V30 11495 H 1067.5 3.54657 -3.58098 0
M  V30 11496 H 1067.1 1.84393 -3.25385 0
M  V30 11497 H 1069.4 4.35716 -5.18804 0
M  V30 11498 H 1070.34 3.28599 -6.27239 0
M  V30 11499 H 1070.75 3.36469 -4.53265 0
M  V30 11500 N 1070.14 1.51827 0.422667 0
M  V30 11501 C 1071.39 1.6522 1.17084 0
M  V30 11502 C 1071.72 0.375508 1.90841 0
M  V30 11503 O 1070.97 -0.641029 1.84903 0
M  V30 11504 C 1071.27 2.81572 2.20119 0
M  V30 11505 C 1070.94 4.20303 1.63268 0
M  V30 11506 C 1069.6 4.5804 1.47488 0
M  V30 11507 C 1071.95 5.06812 1.21618 0
M  V30 11508 C 1069.28 5.79979 0.885531 0
M  V30 11509 C 1071.63 6.29343 0.641071 0
M  V30 11510 C 1070.3 6.65841 0.470286 0
M  V30 11511 H 1069.57 0.604581 0.428442 0
M  V30 11512 H 1072.21 1.85896 0.459874 0
M  V30 11513 H 1070.52 2.55175 2.97309 0
M  V30 11514 H 1072.22 2.89132 2.77856 0
M  V30 11515 H 1068.81 3.90557 1.76531 0
M  V30 11516 H 1072.99 4.78251 1.32624 0
M  V30 11517 H 1068.25 6.06892 0.741105 0
M  V30 11518 H 1072.42 6.9571 0.309888 0
M  V30 11519 H 1070.05 7.60199 0.0115038 0
M  V30 11520 N 1071.62 -0.679052 1.4222 0
M  V30 11521 C 1072.53 -1.82221 1.47759 0
M  V30 11522 C 1073.55 -1.70092 0.3667 0
M  V30 11523 O 1074.72 -1.91718 0.616957 0
M  V30 11524 C 1071.79 -3.18332 1.37351 0
M  V30 11525 C 1070.85 -3.42449 2.58896 0
M  V30 11526 C 1070.08 -4.72067 2.48976 0
M  V30 11527 O 1070.31 -5.49683 1.5233 0
M  V30 11528 O 1069.24 -4.97333 3.39033 0
M  V30 11529 H 1073.07 -1.80504 2.44238 0
M  V30 11530 H 1070.65 -0.834251 1.23938 0
M  V30 11531 H 1072.53 -3.99563 1.33893 0
M  V30 11532 H 1071.21 -3.20696 0.439965 0
M  V30 11533 H 1070.12 -2.61083 2.6793 0
M  V30 11534 H 1071.45 -3.44912 3.51136 0
M  V30 11535 N 1073.1 -1.28322 -0.914942 0
M  V30 11536 C 1074.03 -1.06469 -2.01841 0
M  V30 11537 C 1075.01 0.0188681 -1.62589 0
M  V30 11538 O 1076.2 -0.128825 -1.88059 0
M  V30 11539 C 1073.32 -0.617685 -3.3302 0
M  V30 11540 C 1072.37 -1.6977 -3.91255 0
M  V30 11541 S 1073.2 -3.29337 -4.22253 0
M  V30 11542 C 1074.36 -2.86468 -5.56495 0
M  V30 11543 H 1074.59 -1.99893 -2.20068 0
M  V30 11544 H 1072.12 -1.12297 -1.05966 0
M  V30 11545 H 1074.08 -0.366481 -4.08861 0
M  V30 11546 H 1072.74 0.296709 -3.12695 0
M  V30 11547 H 1071.94 -1.33653 -4.85956 0
M  V30 11548 H 1071.54 -1.90164 -3.22046 0
M  V30 11549 H 1073.83 -2.32565 -6.36333 0
M  V30 11550 H 1074.77 -3.79962 -5.97523 0
M  V30 11551 H 1075.18 -2.2522 -5.17626 0
M  V30 11552 N 1074.58 1.12322 -1.10551 0
M  V30 11553 C 1075.51 2.20176 -0.777486 0
M  V30 11554 C 1076.49 1.68252 0.250069 0
M  V30 11555 O 1077.67 1.93856 0.115574 0
M  V30 11556 C 1074.8 3.46666 -0.209822 0
M  V30 11557 C 1073.76 4.11749 -1.1682 0
M  V30 11558 C 1073.08 5.32703 -0.461684 0
M  V30 11559 C 1074.38 4.57746 -2.51527 0
M  V30 11560 H 1076.08 2.47872 -1.67928 0
M  V30 11561 H 1073.62 1.19136 -0.808863 0
M  V30 11562 H 1075.58 4.21388 0.0318068 0
M  V30 11563 H 1074.3 3.18401 0.727226 0
M  V30 11564 H 1072.96 3.39009 -1.3953 0
M  V30 11565 H 1072.61 5.00706 0.479875 0
M  V30 11566 H 1072.31 5.77197 -1.1008 0
M  V30 11567 H 1073.83 6.10172 -0.228629 0
M  V30 11568 H 1075.25 5.23835 -2.32958 0
M  V30 11569 H 1073.64 5.13021 -3.11335 0
M  V30 11570 H 1074.71 3.71667 -3.11435 0
M  V30 11571 N 1076.06 0.894434 1.2976 0
M  V30 11572 C 1077.3 0.518435 1.96061 0
M  V30 11573 C 1077.64 -0.931882 1.70381 0
M  V30 11574 O 1076.91 -1.65988 1.01381 0
M  V30 11575 C 1077.19 0.80519 3.50982 0
M  V30 11576 C 1077.05 2.30683 3.86142 0
M  V30 11577 C 1078.37 0.288096 4.39156 0
M  V30 11578 H 1075.48 0.18983 0.712133 0
M  V30 11579 H 1078.13 1.12016 1.53468 0
M  V30 11580 H 1076.28 0.293071 3.87393 0
M  V30 11581 H 1077.95 2.88808 3.59705 0
M  V30 11582 H 1076.19 2.76968 3.33873 0
M  V30 11583 H 1076.86 2.45805 4.94251 0
M  V30 11584 H 1079.34 0.726547 4.09708 0
M  V30 11585 H 1078.21 0.517985 5.4645 0
M  V30 11586 H 1078.48 -0.811018 4.34597 0
M  V30 11587 N 1077.53 -1.43282 0.656365 0
M  V30 11588 C 1078.78 -2.02075 0.171293 0
M  V30 11589 C 1079.11 -1.51682 -1.21269 0
M  V30 11590 O 1078.39 -0.711243 -1.81029 0
M  V30 11591 C 1078.67 -3.59621 0.185602 0
M  V30 11592 C 1078.52 -4.20239 1.60373 0
M  V30 11593 C 1079.84 -4.37515 -0.476289 0
M  V30 11594 H 1076.96 -0.73424 0.0637185 0
M  V30 11595 H 1079.6 -1.70539 0.837648 0
M  V30 11596 H 1077.75 -3.86619 -0.381804 0
M  V30 11597 H 1079.43 -4.0426 2.22197 0
M  V30 11598 H 1077.67 -3.76769 2.15006 0
M  V30 11599 H 1078.34 -5.29333 1.56557 0
M  V30 11600 H 1080.82 -4.16099 0.00651073 0
M  V30 11601 H 1079.69 -5.47169 -0.435562 0
M  V30 11602 H 1079.95 -4.14003 -1.55093 0
M  V30 11603 N 1079.01 -0.398486 -1.52479 0
M  V30 11604 C 1080.42 0.0735015 -1.86555 0
M  V30 11605 C 1080.78 1.45361 -1.31775 0
M  V30 11606 O 1079.9 2.0632 -0.652759 0
M  V30 11607 C 1080.5 0.140152 -3.3851 0
M  V30 11608 C 1079.05 0.556451 -3.72264 0
M  V30 11609 C 1078.2 -0.275792 -2.75925 0
M  V30 11610 H 1081.15 -0.615991 -1.46257 0
M  V30 11611 H 1081.17 0.957507 -3.68255 0
M  V30 11612 H 1080.69 -0.864442 -3.7835 0
M  V30 11613 H 1078.79 1.56808 -3.37997 0
M  V30 11614 H 1078.9 0.308227 -4.78107 0
M  V30 11615 H 1077.26 0.260304 -2.53366 0
M  V30 11616 H 1078.05 -1.27854 -3.18604 0
M  V30 11617 N 1080.49 1.57075 -0.12858 0
M  V30 11618 C 1081.4 2.19369 0.831533 0
M  V30 11619 C 1082.42 1.17258 1.28555 0
M  V30 11620 O 1083.59 1.49766 1.34656 0
M  V30 11621 C 1080.66 2.78846 2.06024 0
M  V30 11622 C 1079.72 3.96024 1.65722 0
M  V30 11623 C 1078.95 4.52655 2.82735 0
M  V30 11624 O 1079.18 4.08175 3.98434 0
M  V30 11625 O 1078.11 5.43198 2.59268 0
M  V30 11626 H 1081.94 3.01887 0.331352 0
M  V30 11627 H 1079.52 1.49081 0.0975226 0
M  V30 11628 H 1081.4 3.16721 2.77967 0
M  V30 11629 H 1080.08 1.99353 2.5503 0
M  V30 11630 H 1078.98 3.62899 0.908574 0
M  V30 11631 H 1080.32 4.76981 1.21449 0
M  V30 11632 N 1081.97 -0.145205 1.5693 0
M  V30 11633 C 1082.9 -1.20438 1.95006 0
M  V30 11634 C 1083.91 -1.39085 0.846114 0
M  V30 11635 O 1085.1 -1.38625 1.12452 0
M  V30 11636 C 1082.2 -2.56892 2.21043 0
M  V30 11637 C 1081.38 -2.59197 3.52329 0
M  V30 11638 C 1080.44 -3.77204 3.66884 0
M  V30 11639 O 1079.46 -3.61995 4.39259 0
M  V30 11640 N 1080.66 -4.9473 3.03682 0
M  V30 11641 H 1083.43 -0.880709 2.86467 0
M  V30 11642 H 1080.99 -0.334751 1.58401 0
M  V30 11643 H 1082.98 -3.34349 2.2802 0
M  V30 11644 H 1081.55 -2.81544 1.35838 0
M  V30 11645 H 1080.77 -1.67644 3.56776 0
M  V30 11646 H 1082.06 -2.57771 4.3867 0
M  V30 11647 H 1081.46 -5.09989 2.44801 0
M  V30 11648 H 1080.01 -5.69956 3.16218 0
M  V30 11649 N 1083.45 -1.52049 -0.414609 0
M  V30 11650 C 1084.36 -1.7788 -1.52958 0
M  V30 11651 C 1085.37 -0.66408 -1.60829 0
M  V30 11652 O 1086.55 -0.948882 -1.77646 0
M  V30 11653 C 1083.61 -1.91906 -2.88744 0
M  V30 11654 C 1082.68 -3.15803 -2.90804 0
M  V30 11655 C 1081.91 -3.29151 -4.20114 0
M  V30 11656 O 1082.13 -2.47892 -5.13718 0
M  V30 11657 O 1081.07 -4.2227 -4.28919 0
M  V30 11658 H 1084.89 -2.72506 -1.34067 0
M  V30 11659 H 1082.48 -1.36826 -0.599918 0
M  V30 11660 H 1084.36 -2.02986 -3.6929 0
M  V30 11661 H 1083.03 -1.00468 -3.07714 0
M  V30 11662 H 1081.94 -3.10185 -2.09131 0
M  V30 11663 H 1083.27 -4.07004 -2.76783 0
M  V30 11664 N 1084.93 0.6715 -1.42579 0
M  V30 11665 C 1086.16 1.4576 -1.46416 0
M  V30 11666 C 1086.56 1.89051 -0.0749843 0
M  V30 11667 O 1085.91 1.58927 0.921296 0
M  V30 11668 C 1085.97 2.7365 -2.33144 0
M  V30 11669 C 1085.63 2.52414 -3.80968 0
M  V30 11670 C 1086.63 2.16804 -4.72538 0
M  V30 11671 C 1084.31 2.67306 -4.25268 0
M  V30 11672 C 1086.31 1.96358 -6.06401 0
M  V30 11673 C 1084 2.46475 -5.5919 0
M  V30 11674 C 1084.99 2.11055 -6.49573 0
M  V30 11675 O 1084.68 1.90428 -7.8102 0
M  V30 11676 H 1084.41 0.454896 -0.500045 0
M  V30 11677 H 1086.97 0.832198 -1.87786 0
M  V30 11678 H 1085.2 3.38684 -1.86629 0
M  V30 11679 H 1086.89 3.35543 -2.28398 0
M  V30 11680 H 1087.65 2.04891 -4.39596 0
M  V30 11681 H 1083.53 2.93854 -3.55206 0
M  V30 11682 H 1087.08 1.68634 -6.76911 0
M  V30 11683 H 1082.97 2.57985 -5.91704 0
M  V30 11684 H 1083.74 2.05 -7.92412 0
M  V30 11685 N 1086.4 1.28806 0.908124 0
M  V30 11686 C 1087.81 1.14719 1.47297 0
M  V30 11687 C 1088.17 -0.260763 1.94459 0
M  V30 11688 O 1087.29 -1.15553 1.82966 0
M  V30 11689 C 1087.89 2.07643 2.67712 0
M  V30 11690 C 1086.44 1.97605 3.20358 0
M  V30 11691 C 1085.59 1.99058 1.93058 0
M  V30 11692 H 1088.54 1.41413 0.720283 0
M  V30 11693 H 1088.56 1.64372 3.43165 0
M  V30 11694 H 1088.08 3.10108 2.33355 0
M  V30 11695 H 1086.18 0.981982 3.59427 0
M  V30 11696 H 1086.29 2.84846 3.85226 0
M  V30 11697 H 1084.65 1.43541 2.104 0
M  V30 11698 H 1085.44 3.03212 1.60989 0
M  V30 11699 N 1087.88 -1.11734 1.11145 0
M  V30 11700 C 1088.81 -2.1976 0.789152 0
M  V30 11701 C 1089.79 -1.68382 -0.241143 0
M  V30 11702 O 1090.98 -1.93914 -0.105292 0
M  V30 11703 C 1088.11 -3.46549 0.228204 0
M  V30 11704 C 1087.06 -4.11123 1.19002 0
M  V30 11705 C 1086.39 -5.32451 0.489928 0
M  V30 11706 C 1087.69 -4.56406 2.53951 0
M  V30 11707 H 1089.38 -2.46978 1.69241 0
M  V30 11708 H 1086.93 -1.18705 0.81517 0
M  V30 11709 H 1088.88 -4.21399 -0.00945908 0
M  V30 11710 H 1087.6 -3.18782 -0.71033 0
M  V30 11711 H 1086.26 -3.38264 1.41326 0
M  V30 11712 H 1085.91 -5.00953 -0.453315 0
M  V30 11713 H 1085.61 -5.76605 1.1314 0
M  V30 11714 H 1087.14 -6.10042 0.260984 0
M  V30 11715 H 1088.55 -5.22592 2.35733 0
M  V30 11716 H 1086.95 -5.11363 3.14051 0
M  V30 11717 H 1088.02 -3.7001 3.13402 0
M  V30 11718 N 1089.36 -0.901303 -1.29284 0
M  V30 11719 C 1090.61 -0.528826 -1.95784 0
M  V30 11720 C 1090.94 0.922833 -1.70873 0
M  V30 11721 O 1090.21 1.65448 -1.0226 0
M  V30 11722 C 1090.5 -0.823793 -3.50551 0
M  V30 11723 C 1090.35 -2.32727 -3.84913 0
M  V30 11724 C 1091.67 -0.311382 -4.38997 0
M  V30 11725 H 1088.79 -0.193604 -0.711116 0
M  V30 11726 H 1091.43 -1.12828 -1.52872 0
M  V30 11727 H 1089.58 -0.313612 -3.87232 0
M  V30 11728 H 1091.25 -2.90712 -3.58168 0
M  V30 11729 H 1089.49 -2.78735 -3.32399 0
M  V30 11730 H 1090.17 -2.48423 -4.9294 0
M  V30 11731 H 1092.64 -0.748265 -4.09317 0
M  V30 11732 H 1091.52 -0.546957 -5.46168 0
M  V30 11733 H 1091.78 0.787959 -4.35021 0
M  V30 11734 N 1090.84 1.42931 -0.663954 0
M  V30 11735 C 1092.08 2.03557 -0.185479 0
M  V30 11736 C 1092.44 1.51309 1.18193 0
M  V30 11737 O 1093.64 2.03649 1.75444 0
M  V30 11738 C 1091.91 3.56802 -0.206705 0
M  V30 11739 S 1093.47 4.38333 0.202356 0
M  V30 11740 H 1090.29 0.706791 -0.0772523 0
M  V30 11741 H 1092.89 1.74841 -0.874688 0
M  V30 11742 H 1091.6 3.92328 -1.20445 0
M  V30 11743 H 1091.13 3.90175 0.502693 0
M  V30 11744 H 1093.14 4.7489 1.43853 0
M  V30 11745 N 1092.32 0.406567 1.52266 0
M  V30 11746 C 1093.56 -0.170305 2.02084 0
M  V30 11747 C 1093.89 -1.45008 1.29176 0
M  V30 11748 O 1093.17 -1.90399 0.39731 0
M  V30 11749 C 1093.45 -0.420627 3.57635 0
M  V30 11750 C 1093.31 0.87564 4.41194 0
M  V30 11751 C 1094.62 -1.20387 4.23314 0
M  V30 11752 H 1091.74 -0.0604219 0.734519 0
M  V30 11753 H 1094.39 0.539529 1.82179 0
M  V30 11754 H 1092.54 -1.0253 3.74726 0
M  V30 11755 H 1094.21 1.51192 4.35819 0
M  V30 11756 H 1092.45 1.48718 4.07511 0
M  V30 11757 H 1093.12 0.654916 5.48101 0
M  V30 11758 H 1095.6 -0.691972 4.10306 0
M  V30 11759 H 1094.47 -1.34776 5.32096 0
M  V30 11760 H 1094.73 -2.2238 3.82099 0
M  V30 11761 N 1093.79 -1.57004 0.136909 0
M  V30 11762 C 1095.04 -1.9541 -0.51569 0
M  V30 11763 C 1095.36 -1.02219 -1.66061 0
M  V30 11764 O 1094.63 -0.0818172 -1.95729 0
M  V30 11765 H 1093.21 -0.721504 -0.193497 0
M  V30 11766 H 1095.88 -1.93765 0.210046 0
M  V30 11767 H 1094.97 -2.98887 -0.898494 0
M  V30 11768 N 1095.27 0.136881 -1.57004 0
M  V30 11769 C 1096.52 0.849031 -1.84172 0
M  V30 11770 C 1096.85 1.80359 -0.720027 0
M  V30 11771 O 1096.13 1.92538 0.275584 0
M  V30 11772 C 1096.41 1.61465 -3.21871 0
M  V30 11773 C 1096.26 0.680902 -4.44616 0
M  V30 11774 C 1097.58 2.57488 -3.56914 0
M  V30 11775 H 1094.7 0.307209 -0.669919 0
M  V30 11776 H 1097.34 0.113862 -1.89659 0
M  V30 11777 H 1095.49 2.24137 -3.17325 0
M  V30 11778 H 1097.16 0.0644094 -4.61255 0
M  V30 11779 H 1095.41 -0.00883629 -4.33799 0
M  V30 11780 H 1096.08 1.25286 -5.37594 0
M  V30 11781 H 1098.55 2.0493 -3.62136 0
M  V30 11782 H 1097.43 3.08101 -4.54274 0
M  V30 11783 H 1097.69 3.39321 -2.83397 0
M  V30 11784 N 1096.75 1.52266 0.40654 0
M  V30 11785 C 1097.98 1.70598 1.17945 0
M  V30 11786 C 1098.4 0.415793 1.83447 0
M  V30 11787 O 1097.76 -0.626968 1.70114 0
M  V30 11788 C 1097.81 2.84449 2.21633 0
M  V30 11789 O 1096.91 2.50199 3.27833 0
M  V30 11790 H 1096.25 0.567837 0.344177 0
M  V30 11791 H 1098.78 1.98981 0.476211 0
M  V30 11792 H 1098.79 3.09436 2.65919 0
M  V30 11793 H 1097.47 3.78055 1.73341 0
M  V30 11794 H 1096.04 2.35892 2.88807 0
M  V30 11795 N 1098.23 -0.663929 1.42933 0
M  V30 11796 C 1099.64 -0.978346 1.26097 0
M  V30 11797 C 1099.84 -2.00756 0.172968 0
M  V30 11798 O 1098.9 -2.48418 -0.452184 0
M  V30 11799 C 1100.21 -1.4728 2.62162 0
M  V30 11800 C 1101.76 -1.59001 2.69606 0
M  V30 11801 C 1102.24 -2.1184 4.06064 0
M  V30 11802 N 1103.73 -2.19158 4.08074 0
M  V30 11803 C 1104.46 -2.61141 5.10483 0
M  V30 11804 N 1103.96 -3.02498 6.23271 0
M  V30 11805 N 1105.75 -2.60986 4.97838 0
M  V30 11806 H 1097.9 0.0173096 2.12393 0
M  V30 11807 H 1100.17 -0.0548116 0.946414 0
M  V30 11808 H 1099.87 -0.791008 3.42689 0
M  V30 11809 H 1099.75 -2.4497 2.86827 0
M  V30 11810 H 1102.13 -2.26284 1.89418 0
M  V30 11811 H 1102.21 -0.597728 2.48718 0
M  V30 11812 H 1101.86 -1.45162 4.86714 0
M  V30 11813 H 1101.79 -3.1188 4.2431 0
M  V30 11814 H 1104.28 -1.90013 3.26655 0
M  V30 11815 H 1104.59 -3.33251 6.97254 0
M  V30 11816 H 1102.94 -3.00328 6.2676 0
M  V30 11817 H 1106.13 -2.28046 4.08794 0
M  V30 11818 H 1106.3 -2.93384 5.7778 0
M  V30 11819 N 1099.71 -1.29285 -0.901281 0
M  V30 11820 C 1100.95 -1.16934 -1.64836 0
M  V30 11821 C 1101.28 0.279826 -1.92982 0
M  V30 11822 O 1100.55 1.19179 -1.55478 0
M  V30 11823 H 1099.13 -0.429768 -0.61099 0
M  V30 11824 H 1101.79 -1.62189 -1.08077 0
M  V30 11825 H 1100.88 -1.71821 -2.60545 0
M  V30 11826 N 1101.18 1.11143 -1.11736 0
M  V30 11827 C 1102.6 1.34962 -0.851905 0
M  V30 11828 C 1102.8 1.94627 0.521797 0
M  V30 11829 O 1101.86 2.18121 1.27198 0
M  V30 11830 C 1103.17 2.27832 -1.96248 0
M  V30 11831 C 1104.72 2.41388 -1.9925 0
M  V30 11832 C 1105.19 3.37582 -3.09519 0
M  V30 11833 N 1106.68 3.45147 -3.08914 0
M  V30 11834 C 1107.42 4.19527 -3.90876 0
M  V30 11835 N 1106.91 4.96858 -4.82809 0
M  V30 11836 N 1108.71 4.15071 -3.79042 0
M  V30 11837 H 1100.86 0.707801 -2.0026 0
M  V30 11838 H 1103.12 0.374172 -0.871033 0
M  V30 11839 H 1102.83 1.91189 -2.95194 0
M  V30 11840 H 1102.7 3.28078 -1.86132 0
M  V30 11841 H 1105.09 2.77304 -1.00928 0
M  V30 11842 H 1105.17 1.40983 -2.13442 0
M  V30 11843 H 1104.81 3.02393 -4.0807 0
M  V30 11844 H 1104.74 4.37849 -2.92568 0
M  V30 11845 H 1107.23 2.89991 -2.42309 0
M  V30 11846 H 1107.55 5.5099 -5.41876 0
M  V30 11847 H 1105.89 4.96008 -4.86828 0
M  V30 11848 H 1109.08 3.53748 -3.06562 0
M  V30 11849 H 1109.26 4.72781 -4.4315 0
M  V30 11850 N 1102.66 0.908147 1.28804 0
M  V30 11851 C 1103.94 0.457561 1.90173 0
M  V30 11852 C 1104.32 -1.06333 1.82364 0
M  V30 11853 O 1103.67 -1.90892 1.25589 0
M  V30 11854 C 1103.88 0.981624 3.34911 0
M  V30 11855 C 1105.23 1.03037 4.11908 0
M  V30 11856 O 1106.25 0.929878 3.43848 0
M  V30 11857 O 1105.11 1.18257 5.33552 0
M  V30 11858 H 1102.2 0.144081 0.814352 0
M  V30 11859 H 1104.75 0.998565 1.37211 0
M  V30 11860 H 1103.52 2.02561 3.34791 0
M  V30 11861 H 1103.14 0.421122 3.95364 0
M  V30 11862 N 1104.14 -1.42577 0.671525 0
M  V30 11863 C 1105.39 -2.01584 0.192431 0
M  V30 11864 C 1105.72 -1.53076 -1.19992 0
M  V30 11865 O 1104.97 -0.722196 -1.81887 0
M  V30 11866 C 1105.27 -3.56985 0.172097 0
M  V30 11867 C 1104.94 -4.24912 1.50867 0
M  V30 11868 C 1103.6 -4.43182 1.87464 0
M  V30 11869 C 1105.95 -4.6322 2.38908 0
M  V30 11870 C 1103.28 -4.97031 3.11732 0
M  V30 11871 C 1105.63 -5.18447 3.62485 0
M  V30 11872 C 1104.29 -5.34932 3.99255 0
M  V30 11873 H 1103.56 -0.737647 0.0704155 0
M  V30 11874 H 1106.21 -1.70807 0.865862 0
M  V30 11875 H 1104.52 -3.87411 -0.584835 0
M  V30 11876 H 1106.21 -4.00419 -0.215749 0
M  V30 11877 H 1102.8 -4.11048 1.21397 0
M  V30 11878 H 1106.99 -4.4878 2.1192 0
M  V30 11879 H 1102.24 -5.07979 3.40246 0
M  V30 11880 H 1106.42 -5.47075 4.30909 0
M  V30 11881 H 1104.04 -5.76422 4.95623 0
M  V30 11882 N 1105.62 -0.414636 -1.52048 0
M  V30 11883 C 1106.57 0.422766 -2.28726 0
M  V30 11884 C 1107.56 1.04099 -1.3364 0
M  V30 11885 O 1108.77 0.978559 -1.51077 0
M  V30 11886 H 1105.14 0.155123 -0.735827 0
M  V30 11887 H 1107.11 -0.245091 -2.97392 0
M  V30 11888 C 1105.86 1.52418 -3.12513 0
M  V30 11889 H 1105.18 1.05781 -3.85552 0
M  V30 11890 H 1106.62 2.08382 -3.6926 0
M  V30 11891 C 1105.08 2.49465 -2.26426 0
M  V30 11892 O 1105.61 3.53479 -1.90829 0
M  V30 11893 N 1103.82 2.19806 -1.90088 0
M  V30 11894 H 1103.37 1.35253 -2.19236 0
M  V30 11895 H 1103.32 2.84984 -1.32783 0
M  V30 11896 N 1107.1 1.56929 -0.145233 0
M  V30 11897 C 1108.03 2.13796 0.826078 0
M  V30 11898 C 1109.04 1.08697 1.21197 0
M  V30 11899 O 1110.23 1.3598 1.15635 0
M  V30 11900 C 1107.33 2.6443 2.11967 0
M  V30 11901 C 1106.5 3.9391 1.90142 0
M  V30 11902 C 1105.56 4.29872 3.03474 0
M  V30 11903 O 1104.59 4.98227 2.75242 0
M  V30 11904 N 1105.79 3.8931 4.30602 0
M  V30 11905 H 1108.56 2.97764 0.340073 0
M  V30 11906 H 1106.12 1.61854 0.0383928 0
M  V30 11907 H 1108.11 2.85502 2.86829 0
M  V30 11908 H 1106.68 1.85196 2.51836 0
M  V30 11909 H 1105.9 3.81481 0.993268 0
M  V30 11910 H 1107.19 4.78523 1.72896 0
M  V30 11911 H 1106.58 3.34229 4.56407 0
M  V30 11912 H 1105.14 4.15438 5.0225 0
M  V30 11913 N 1108.58 -0.128553 1.57075 0
M  V30 11914 C 1109.82 -0.839252 1.8462 0
M  V30 11915 C 1110.15 -1.79974 0.729582 0
M  V30 11916 O 1109.43 -1.92681 -0.265369 0
M  V30 11917 C 1109.71 -1.59756 3.22723 0
M  V30 11918 C 1109.57 -0.657313 4.44971 0
M  V30 11919 C 1110.88 -2.55592 3.58275 0
M  V30 11920 H 1108 -0.303652 0.671539 0
M  V30 11921 H 1110.65 -0.103802 1.89716 0
M  V30 11922 H 1108.8 -2.22451 3.18509 0
M  V30 11923 H 1110.47 -0.0399471 4.61283 0
M  V30 11924 H 1108.71 0.0318416 4.33788 0
M  V30 11925 H 1109.38 -1.22433 5.38251 0
M  V30 11926 H 1111.86 -2.03007 3.63218 0
M  V30 11927 H 1110.73 -3.05687 4.55902 0
M  V30 11928 H 1110.99 -3.37813 2.85193 0
M  V30 11929 N 1110.05 -1.5248 -0.398459 0
M  V30 11930 C 1111.3 -1.67309 -1.1461 0
M  V30 11931 C 1111.63 -0.407095 -1.89885 0
M  V30 11932 O 1110.91 0.594834 -1.85181 0
M  V30 11933 C 1111.19 -2.90204 -2.13198 0
M  V30 11934 C 1111.04 -4.26881 -1.4175 0
M  V30 11935 C 1112.36 -3.08634 -3.13741 0
M  V30 11936 H 1109.48 -0.608853 -0.415292 0
M  V30 11937 H 1112.12 -1.85057 -0.430573 0
M  V30 11938 H 1110.27 -2.75204 -2.74218 0
M  V30 11939 H 1111.95 -4.53631 -0.837676 0
M  V30 11940 H 1110.19 -4.27793 -0.719387 0
M  V30 11941 H 1110.86 -5.08939 -2.1374 0
M  V30 11942 H 1113.34 -3.22603 -2.62805 0
M  V30 11943 H 1112.21 -3.96117 -3.79977 0
M  V30 11944 H 1112.47 -2.22425 -3.82073 0
M  V30 11945 N 1111.53 0.65634 -1.43283 0
M  V30 11946 C 1112.95 0.971645 -1.26614 0
M  V30 11947 C 1113.15 2.00662 -0.183612 0
M  V30 11948 O 1112.2 2.48654 0.439003 0
M  V30 11949 C 1113.52 1.45888 -2.6294 0
M  V30 11950 C 1115.06 1.57569 -2.70446 0
M  V30 11951 C 1115.54 2.09684 -4.07181 0
M  V30 11952 N 1117.03 2.16991 -4.0923 0
M  V30 11953 C 1117.77 2.5843 -5.11861 0
M  V30 11954 N 1117.26 2.99188 -6.24867 0
M  V30 11955 N 1119.05 2.58342 -4.99215 0
M  V30 11956 H 1111.21 -0.028573 -2.12381 0
M  V30 11957 H 1113.47 0.0497918 -0.946691 0
M  V30 11958 H 1113.17 0.772823 -3.43104 0
M  V30 11959 H 1113.05 2.43445 -2.88122 0
M  V30 11960 H 1115.44 2.25277 -1.90616 0
M  V30 11961 H 1115.52 0.584529 -2.49032 0
M  V30 11962 H 1115.16 1.42579 -4.87477 0
M  V30 11963 H 1115.09 3.09625 -4.25958 0
M  V30 11964 H 1117.58 1.88278 -3.27658 0
M  V30 11965 H 1117.89 3.29549 -6.99012 0
M  V30 11966 H 1116.24 2.97 -6.28344 0
M  V30 11967 H 1119.43 2.25875 -4.09998 0
M  V30 11968 H 1119.6 2.90316 -5.79328 0
M  V30 11969 N 1113.01 1.29761 0.894412 0
M  V30 11970 C 1114.26 1.18039 1.64539 0
M  V30 11971 C 1114.58 -0.26697 1.92659 0
M  V30 11972 O 1113.84 -1.20865 1.53916 0
M  V30 11973 C 1114.14 1.94458 2.99868 0
M  V30 11974 C 1113.8 3.44143 2.91336 0
M  V30 11975 C 1112.47 3.84963 2.88716 0
M  V30 11976 C 1114.82 4.39503 2.80154 0
M  V30 11977 C 1112.15 5.19451 2.72741 0
M  V30 11978 C 1114.5 5.74088 2.65718 0
M  V30 11979 C 1113.16 6.14159 2.61467 0
M  V30 11980 H 1112.43 0.431936 0.60209 0
M  V30 11981 H 1115.08 1.60758 1.04063 0
M  V30 11982 H 1113.38 1.44346 3.64241 0
M  V30 11983 H 1115.08 1.82788 3.56917 0
M  V30 11984 H 1111.67 3.11699 2.9418 0
M  V30 11985 H 1115.86 4.08915 2.81251 0
M  V30 11986 H 1111.11 5.49602 2.67858 0
M  V30 11987 H 1115.29 6.47625 2.56038 0
M  V30 11988 H 1112.91 7.18317 2.48847 0
M  V30 11989 N 1114.49 -1.10549 1.12324 0
M  V30 11990 C 1115.4 -2.20428 0.803032 0
M  V30 11991 C 1116.41 -1.72756 -0.207674 0
M  V30 11992 O 1117.59 -2.01357 -0.0415623 0
M  V30 11993 C 1114.65 -3.45716 0.261032 0
M  V30 11994 C 1113.72 -4.08129 1.33152 0
M  V30 11995 C 1112.95 -5.27436 0.815288 0
M  V30 11996 O 1113.17 -5.69317 -0.351361 0
M  V30 11997 O 1112.11 -5.80674 1.58434 0
M  V30 11998 H 1115.93 -2.50249 1.72073 0
M  V30 11999 H 1113.52 -1.19263 0.899815 0
M  V30 12000 H 1115.4 -4.21384 -0.0364007 0
M  V30 12001 H 1114.07 -3.17525 -0.629249 0
M  V30 12002 H 1112.98 -3.3415 1.6821 0
M  V30 12003 H 1114.31 -4.4052 2.19552 0
M  V30 12004 N 1115.97 -0.914965 -1.28321 0
M  V30 12005 C 1117.19 -0.564654 -1.99046 0
M  V30 12006 C 1117.61 0.854345 -1.68364 0
M  V30 12007 O 1116.97 1.56605 -0.937068 0
M  V30 12008 C 1117.02 -0.765663 -3.53299 0
M  V30 12009 O 1116.74 -2.12883 -3.829 0
M  V30 12010 C 1118.24 -0.422347 -4.41283 0
M  V30 12011 H 1115.46 -0.215158 -0.635569 0
M  V30 12012 H 1118 -1.2285 -1.63487 0
M  V30 12013 H 1116.16 -0.148795 -3.87114 0
M  V30 12014 H 1116.57 -2.1694 -4.77533 0
M  V30 12015 H 1118.05 -0.613757 -5.48577 0
M  V30 12016 H 1118.52 0.641484 -4.3449 0
M  V30 12017 H 1119.13 -1.01681 -4.12966 0
M  V30 12018 N 1117.44 1.42219 -0.679077 0
M  V30 12019 C 1118.69 2.01777 -0.20342 0
M  V30 12020 C 1119.02 1.53592 1.18841 0
M  V30 12021 O 1118.3 0.739954 1.79875 0
M  V30 12022 C 1118.58 3.59281 -0.242791 0
M  V30 12023 C 1118.43 4.17634 -1.67038 0
M  V30 12024 C 1119.75 4.38218 0.406624 0
M  V30 12025 H 1116.87 0.733134 -0.0753916 0
M  V30 12026 H 1119.51 1.69185 -0.864673 0
M  V30 12027 H 1117.66 3.87178 0.320248 0
M  V30 12028 H 1119.34 4.00674 -2.286 0
M  V30 12029 H 1117.58 3.73301 -2.20973 0
M  V30 12030 H 1118.25 5.26776 -1.64958 0
M  V30 12031 H 1120.73 4.16036 -0.0727077 0
M  V30 12032 H 1119.6 5.47793 0.348457 0
M  V30 12033 H 1119.86 4.16418 1.48487 0
M  V30 12034 N 1118.92 0.422693 1.51826 0
M  V30 12035 C 1119.87 -0.41063 2.28947 0
M  V30 12036 C 1120.86 -1.03389 1.34191 0
M  V30 12037 O 1122.07 -0.970533 1.51594 0
M  V30 12038 H 1118.44 -0.151219 0.736639 0
M  V30 12039 H 1120.42 0.260859 2.97258 0
M  V30 12040 C 1119.16 -1.50758 3.13317 0
M  V30 12041 H 1118.49 -1.03734 3.86108 0
M  V30 12042 H 1119.93 -2.0642 3.7036 0
M  V30 12043 C 1118.39 -2.48261 2.27746 0
M  V30 12044 O 1118.92 -3.52462 1.92701 0
M  V30 12045 N 1117.12 -2.18795 1.91251 0
M  V30 12046 H 1116.67 -1.34088 2.1995 0
M  V30 12047 H 1116.63 -2.84276 1.34293 0
M  V30 12048 N 1120.4 -1.5685 0.153553 0
M  V30 12049 C 1121.81 -1.83074 -0.36618 0
M  V30 12050 C 1122.16 -1.07257 -1.64288 0
M  V30 12051 O 1121.29 -0.319925 -2.14022 0
M  V30 12052 C 1121.88 -3.32086 -0.671142 0
M  V30 12053 C 1120.44 -3.58868 -1.13537 0
M  V30 12054 C 1119.59 -2.76827 -0.161887 0
M  V30 12055 H 1122.54 -1.54129 0.378139 0
M  V30 12056 H 1122.56 -3.48598 -1.52512 0
M  V30 12057 H 1122.07 -3.8724 0.258234 0
M  V30 12058 H 1120.17 -3.09107 -2.08047 0
M  V30 12059 H 1120.29 -4.67299 -1.05682 0
M  V30 12060 H 1118.65 -2.46112 -0.6558 0
M  V30 12061 H 1119.43 -3.34755 0.761195 0
M  V30 12062 N 1121.88 0.120221 -1.57141 0
M  V30 12063 C 1122.83 1.16654 -2.01233 0
M  V30 12064 C 1123.82 1.42943 -0.909053 0
M  V30 12065 O 1125.03 1.4292 -1.09426 0
M  V30 12066 H 1121.4 0.393289 -0.640958 0
M  V30 12067 H 1123.37 0.768156 -2.88343 0
M  V30 12068 C 1122.12 2.4854 -2.43152 0
M  V30 12069 H 1121.44 2.29149 -3.27614 0
M  V30 12070 H 1122.88 3.20315 -2.77802 0
M  V30 12071 C 1121.34 3.1103 -1.29468 0
M  V30 12072 O 1121.87 3.97042 -0.609982 0
M  V30 12073 N 1120.08 2.70888 -1.05205 0
M  V30 12074 H 1119.63 2.01039 -1.61062 0
M  V30 12075 H 1119.58 3.13028 -0.293347 0
M  V30 12076 N 1123.36 1.52689 0.390367 0
M  V30 12077 C 1124.58 1.71839 1.16129 0
M  V30 12078 C 1125.01 0.435226 1.82996 0
M  V30 12079 O 1124.36 -0.60889 1.70769 0
M  V30 12080 C 1124.41 2.86784 2.18603 0
M  V30 12081 O 1123.52 2.53662 3.25161 0
M  V30 12082 H 1122.86 0.571455 0.338135 0
M  V30 12083 H 1125.39 1.99475 0.45508 0
M  V30 12084 H 1125.4 3.12239 2.62622 0
M  V30 12085 H 1124.07 3.79872 1.69322 0
M  V30 12086 H 1122.65 2.38942 2.86289 0
M  V30 12087 N 1124.83 -0.648732 1.43629 0
M  V30 12088 C 1126.06 -1.4362 1.48932 0
M  V30 12089 C 1126.48 -1.88487 0.108599 0
M  V30 12090 O 1125.83 -1.59768 -0.882066 0
M  V30 12091 C 1125.89 -2.66822 2.43903 0
M  V30 12092 O 1125.61 -2.2383 3.76606 0
M  V30 12093 C 1127.11 -3.60134 2.58493 0
M  V30 12094 H 1124.33 -0.441055 0.505679 0
M  V30 12095 H 1126.87 -0.794936 1.88417 0
M  V30 12096 H 1125.03 -3.27079 2.07601 0
M  V30 12097 H 1125.44 -3.03575 4.27718 0
M  V30 12098 H 1126.91 -4.43234 3.29011 0
M  V30 12099 H 1127.39 -4.07779 1.63134 0
M  V30 12100 H 1128 -3.05756 2.95624 0
M  V30 12101 N 1126.31 -1.30234 -0.887518 0
M  V30 12102 C 1127.54 -1.21955 -1.67755 0
M  V30 12103 C 1127.96 0.214701 -1.86871 0
M  V30 12104 O 1127.32 1.15459 -1.39782 0
M  V30 12105 C 1127.37 -1.95079 -3.03276 0
M  V30 12106 O 1126.47 -1.27615 -3.92158 0
M  V30 12107 H 1125.81 -0.421948 -0.512695 0
M  V30 12108 H 1128.34 -1.72011 -1.10785 0
M  V30 12109 H 1128.35 -2.04004 -3.53336 0
M  V30 12110 H 1127.03 -2.99392 -2.88682 0
M  V30 12111 H 1125.61 -1.27029 -3.50597 0
M  V30 12112 N 1127.79 1.09952 -1.12909 0
M  V30 12113 C 1129.02 1.8633 -0.910821 0
M  V30 12114 C 1129.44 1.80335 0.534874 0
M  V30 12115 O 1128.8 1.1769 1.37908 0
M  V30 12116 C 1128.85 3.32462 -1.39648 0
M  V30 12117 O 1127.95 4.08327 -0.578192 0
M  V30 12118 H 1127.29 0.577984 -0.32685 0
M  V30 12119 H 1129.82 1.38883 -1.50242 0
M  V30 12120 H 1129.83 3.83311 -1.39774 0
M  V30 12121 H 1128.51 3.36141 -2.44913 0
M  V30 12122 H 1127.08 3.67291 -0.644347 0
M  V30 12123 N 1129.27 0.921757 1.27833 0
M  V30 12124 C 1130.51 0.569378 1.95268 0
M  V30 12125 C 1130.87 -0.878685 1.71163 0
M  V30 12126 O 1130.16 -1.6177 1.02669 0
M  V30 12127 C 1130.36 0.824259 3.47765 0
M  V30 12128 C 1130.19 2.29555 3.86697 0
M  V30 12129 C 1128.96 2.94715 4.10452 0
M  V30 12130 C 1131.15 3.27261 3.96743 0
M  V30 12131 N 1129.14 4.32058 4.36118 0
M  V30 12132 C 1130.51 4.49793 4.26715 0
M  V30 12133 C 1132.56 3.2255 3.79296 0
M  V30 12134 C 1131.26 5.68208 4.41057 0
M  V30 12135 C 1133.29 4.40272 3.9486 0
M  V30 12136 C 1132.65 5.61581 4.25213 0
M  V30 12137 H 1128.75 0.258368 0.738085 0
M  V30 12138 H 1131.34 1.18715 1.54321 0
M  V30 12139 H 1129.51 0.235697 3.87684 0
M  V30 12140 H 1131.24 0.435106 4.02354 0
M  V30 12141 H 1127.99 2.4541 4.05057 0
M  V30 12142 H 1128.42 5.03092 4.5302 0
M  V30 12143 H 1133.06 2.29835 3.54875 0
M  V30 12144 H 1130.78 6.61396 4.64308 0
M  V30 12145 H 1134.36 4.38138 3.82787 0
M  V30 12146 H 1133.24 6.51154 4.36998 0
M  V30 12147 N 1130.75 -1.41857 0.686609 0
M  V30 12148 C 1131.99 -2.01368 0.213801 0
M  V30 12149 C 1132.32 -1.5434 -1.18361 0
M  V30 12150 O 1131.58 -0.741447 -1.81111 0
M  V30 12151 C 1131.88 -3.56783 0.209951 0
M  V30 12152 C 1131.54 -4.23288 1.55365 0
M  V30 12153 C 1130.2 -4.41169 1.92154 0
M  V30 12154 C 1132.56 -4.6066 2.43807 0
M  V30 12155 C 1129.88 -4.93697 3.16986 0
M  V30 12156 C 1132.24 -5.14573 3.67963 0
M  V30 12157 C 1130.9 -5.30667 4.04906 0
M  V30 12158 H 1130.17 -0.736858 0.0782352 0
M  V30 12159 H 1132.82 -1.69879 0.88393 0
M  V30 12160 H 1131.12 -3.88009 -0.543712 0
M  V30 12161 H 1132.82 -4.00625 -0.173267 0
M  V30 12162 H 1129.41 -4.09738 1.2575 0
M  V30 12163 H 1133.59 -4.46507 2.16668 0
M  V30 12164 H 1128.85 -5.04342 3.45615 0
M  V30 12165 H 1133.02 -5.42473 4.36687 0
M  V30 12166 H 1130.65 -5.71133 5.01709 0
M  V30 12167 N 1132.22 -0.430739 -1.51599 0
M  V30 12168 C 1133.45 0.136797 -2.06447 0
M  V30 12169 C 1133.87 1.37027 -1.29881 0
M  V30 12170 O 1133.22 1.78983 -0.356543 0
M  V30 12171 C 1133.28 0.465637 -3.58489 0
M  V30 12172 O 1133 -0.718873 -4.32162 0
M  V30 12173 C 1134.5 1.08456 -4.29828 0
M  V30 12174 H 1131.72 0.0108468 -0.670912 0
M  V30 12175 H 1134.26 -0.607921 -1.95255 0
M  V30 12176 H 1132.42 1.16025 -3.69617 0
M  V30 12177 H 1132.83 -0.439195 -5.22658 0
M  V30 12178 H 1134.3 1.2647 -5.37317 0
M  V30 12179 H 1134.78 2.06376 -3.87693 0
M  V30 12180 H 1135.39 0.429525 -4.23125 0
M  V30 12181 N 1133.7 1.56767 -0.161869 0
M  V30 12182 C 1134.61 2.21083 0.784814 0
M  V30 12183 C 1135.63 1.19959 1.26039 0
M  V30 12184 O 1136.8 1.52588 1.31449 0
M  V30 12185 C 1133.87 2.83153 2.00063 0
M  V30 12186 C 1132.93 3.9945 1.57285 0
M  V30 12187 C 1132.16 4.5855 2.7307 0
M  V30 12188 O 1132.39 4.16534 3.89686 0
M  V30 12189 O 1131.32 5.48575 2.47688 0
M  V30 12190 H 1135.15 3.02522 0.267243 0
M  V30 12191 H 1132.73 1.49255 0.0658783 0
M  V30 12192 H 1134.61 3.22546 2.71186 0
M  V30 12193 H 1133.29 2.04718 2.50744 0
M  V30 12194 H 1132.2 3.64745 0.831393 0
M  V30 12195 H 1133.53 4.7945 1.11304 0
M  V30 12196 N 1135.18 -0.111886 1.57202 0
M  V30 12197 C 1136.41 -0.836317 1.89791 0
M  V30 12198 C 1136.83 -1.72304 0.754513 0
M  V30 12199 O 1136.19 -1.78889 -0.294672 0
M  V30 12200 C 1136.24 -1.63971 3.21164 0
M  V30 12201 O 1135.34 -2.74726 3.0757 0
M  V30 12202 H 1134.68 -0.230833 0.622585 0
M  V30 12203 H 1137.21 -0.0921478 2.04392 0
M  V30 12204 H 1137.22 -2.02746 3.54059 0
M  V30 12205 H 1135.9 -0.98882 4.03974 0
M  V30 12206 H 1134.47 -2.39101 2.86156 0
M  V30 12207 N 1136.66 -1.52894 -0.382264 0
M  V30 12208 C 1137.94 -1.58853 -1.14127 0
M  V30 12209 C 1138.32 -0.38582 -2.07544 0
M  V30 12210 O 1137.66 0.625323 -2.19777 0
M  V30 12211 C 1137.87 -2.93068 -1.89504 0
M  V30 12212 C 1139.22 -3.47048 -2.44629 0
M  V30 12213 O 1140.25 -2.94987 -1.99652 0
M  V30 12214 O 1139.1 -4.3802 -3.26804 0
M  V30 12215 H 1136.2 -0.640969 -0.522578 0
M  V30 12216 H 1138.74 -1.65231 -0.386873 0
M  V30 12217 H 1137.52 -3.72047 -1.2123 0
M  V30 12218 H 1137.14 -2.90106 -2.7189 0
M  V30 12219 N 1138.14 0.641106 -1.43971 0
M  V30 12220 C 1139.37 1.42829 -1.49692 0
M  V30 12221 C 1139.78 1.88427 -0.118594 0
M  V30 12222 O 1139.14 1.60234 0.873581 0
M  V30 12223 C 1139.19 2.65524 -2.45314 0
M  V30 12224 O 1138.91 2.2183 -3.77787 0
M  V30 12225 C 1140.41 3.58758 -2.60399 0
M  V30 12226 H 1137.63 0.438367 -0.508011 0
M  V30 12227 H 1140.17 0.784933 -1.88836 0
M  V30 12228 H 1138.33 3.25973 -2.09332 0
M  V30 12229 H 1138.74 3.01303 -4.29321 0
M  V30 12230 H 1140.22 4.41483 -3.31357 0
M  V30 12231 H 1140.69 4.06909 -1.65294 0
M  V30 12232 H 1141.3 3.04184 -2.97241 0
M  V30 12233 N 1139.62 1.30703 0.880598 0
M  V30 12234 C 1141.03 1.17818 1.4483 0
M  V30 12235 C 1141.38 -0.219456 1.94969 0
M  V30 12236 O 1140.5 -1.11646 1.85375 0
M  V30 12237 C 1141.1 2.13275 2.63247 0
M  V30 12238 C 1139.66 2.04356 3.16094 0
M  V30 12239 C 1138.8 2.03108 1.88792 0
M  V30 12240 H 1141.75 1.42909 0.690125 0
M  V30 12241 H 1141.78 1.71615 3.39601 0
M  V30 12242 H 1141.29 3.14988 2.26725 0
M  V30 12243 H 1139.39 1.058 3.57263 0
M  V30 12244 H 1139.5 2.92953 3.79098 0
M  V30 12245 H 1137.87 1.47971 2.07308 0
M  V30 12246 H 1138.65 3.06558 1.54521 0
M  V30 12247 N 1141.09 -1.09351 1.1349 0
M  V30 12248 C 1142.03 -2.15852 0.770763 0
M  V30 12249 C 1143.04 -1.61468 -0.207866 0
M  V30 12250 O 1144.23 -1.78496 0.0124385 0
M  V30 12251 C 1141.33 -3.38681 0.121871 0
M  V30 12252 C 1140.5 -4.22477 1.13279 0
M  V30 12253 C 1139.56 -5.23728 0.509448 0
M  V30 12254 O 1138.59 -5.57052 1.16967 0
M  V30 12255 N 1139.79 -5.76041 -0.718159 0
M  V30 12256 H 1142.55 -2.47696 1.6872 0
M  V30 12257 H 1140.11 -1.25074 1.02801 0
M  V30 12258 H 1142.11 -4.03531 -0.307404 0
M  V30 12259 H 1140.68 -3.04718 -0.697527 0
M  V30 12260 H 1139.9 -3.53753 1.73933 0
M  V30 12261 H 1141.18 -4.75288 1.81601 0
M  V30 12262 H 1140.58 -5.51183 -1.27331 0
M  V30 12263 H 1139.14 -6.4262 -1.09008 0
M  V30 12264 N 1142.57 -0.928524 -1.27343 0
M  V30 12265 C 1143.8 -0.585734 -1.98436 0
M  V30 12266 C 1144.21 0.83644 -1.69261 0
M  V30 12267 O 1143.57 1.55603 -0.953626 0
M  V30 12268 C 1143.62 -0.803092 -3.52467 0
M  V30 12269 O 1143.34 -2.16932 -3.80621 0
M  V30 12270 C 1144.84 -0.469127 -4.40811 0
M  V30 12271 H 1142.06 -0.221887 -0.633251 0
M  V30 12272 H 1144.61 -1.24577 -1.62175 0
M  V30 12273 H 1142.76 -0.189846 -3.86935 0
M  V30 12274 H 1143.18 -2.21992 -4.75205 0
M  V30 12275 H 1144.65 -0.671906 -5.47895 0
M  V30 12276 H 1145.13 0.595365 -4.35146 0
M  V30 12277 H 1145.73 -1.06055 -4.11865 0
M  V30 12278 N 1144.05 1.41491 -0.694123 0
M  V30 12279 C 1145 2.32594 -0.0164704 0
M  V30 12280 C 1145.99 1.50884 0.770086 0
M  V30 12281 O 1147.2 1.66829 0.675871 0
M  V30 12282 H 1143.57 0.751879 0.0134743 0
M  V30 12283 H 1145.54 2.87423 -0.80191 0
M  V30 12284 C 1144.29 3.35661 0.90703 0
M  V30 12285 H 1143.62 3.98587 0.311205 0
M  V30 12286 H 1145.06 4.0195 1.34952 0
M  V30 12287 C 1143.51 2.69436 2.02253 0
M  V30 12288 O 1144.04 2.54107 3.11115 0
M  V30 12289 N 1142.25 2.28154 1.79984 0
M  V30 12290 H 1141.8 2.40821 0.914492 0
M  V30 12291 H 1141.76 1.84178 2.54805 0
M  V30 12292 N 1145.53 0.438773 1.51369 0
M  V30 12293 C 1146.77 -0.127401 2.02399 0
M  V30 12294 C 1147.11 -1.42235 1.32223 0
M  V30 12295 O 1146.38 -1.89513 0.437607 0
M  V30 12296 C 1146.66 -0.344673 3.58447 0
M  V30 12297 C 1146.52 0.969027 4.39238 0
M  V30 12298 C 1147.84 -1.11381 4.25773 0
M  V30 12299 H 1144.96 -0.0448281 0.735635 0
M  V30 12300 H 1147.6 0.57805 1.80993 0
M  V30 12301 H 1145.75 -0.945582 3.76817 0
M  V30 12302 H 1147.42 1.60403 4.32514 0
M  V30 12303 H 1145.66 1.57329 4.04265 0
M  V30 12304 H 1146.33 0.771029 5.46589 0
M  V30 12305 H 1148.81 -0.604785 4.11681 0
M  V30 12306 H 1147.69 -1.23459 5.34835 0
M  V30 12307 H 1147.95 -2.14225 3.8673 0
M  V30 12308 N 1147.01 -1.56678 0.170181 0
M  V30 12309 C 1148.23 -2.01223 -0.481362 0
M  V30 12310 C 1148.65 -1.05039 -1.56883 0
M  V30 12311 O 1148.01 -0.0510751 -1.82429 0
M  V30 12312 C 1148.06 -3.45588 -1.06073 0
M  V30 12313 O 1147.78 -4.38097 -0.0166754 0
M  V30 12314 C 1149.28 -4.05527 -1.79061 0
M  V30 12315 H 1146.5 -0.659574 -0.1233 0
M  V30 12316 H 1149.04 -2.02689 0.271576 0
M  V30 12317 H 1147.2 -3.449 -1.76417 0
M  V30 12318 H 1147.61 -5.22615 -0.444276 0
M  V30 12319 H 1149.09 -5.08467 -2.1486 0
M  V30 12320 H 1149.56 -3.47554 -2.68519 0
M  V30 12321 H 1150.17 -4.09914 -1.13361 0
M  V30 12322 N 1148.48 0.103547 -1.57259 0
M  V30 12323 C 1149.43 1.13239 -1.97891 0
M  V30 12324 C 1150.42 1.36234 -0.856105 0
M  V30 12325 O 1151.61 1.37067 -1.11989 0
M  V30 12326 C 1148.74 2.4549 -2.39979 0
M  V30 12327 C 1147.82 2.25905 -3.58926 0
M  V30 12328 N 1148.22 1.76167 -4.7413 0
M  V30 12329 C 1146.51 2.56503 -3.64859 0
M  V30 12330 C 1147.21 1.70653 -5.56105 0
M  V30 12331 N 1146.19 2.15562 -4.99033 0
M  V30 12332 H 1149.99 0.740638 -2.84415 0
M  V30 12333 H 1147.51 0.311091 -1.59393 0
M  V30 12334 H 1149.5 3.19922 -2.67312 0
M  V30 12335 H 1148.16 2.8541 -1.54827 0
M  V30 12336 H 1149.17 1.45487 -4.97045 0
M  V30 12337 H 1145.85 3.00005 -2.9035 0
M  V30 12338 H 1147.24 1.33321 -6.5854 0
M  V30 12339 N 1149.96 1.53094 0.37415 0
M  V30 12340 C 1151.21 1.69111 1.11934 0
M  V30 12341 C 1151.54 0.437252 1.89213 0
M  V30 12342 O 1150.82 -0.565298 1.86104 0
M  V30 12343 C 1151.1 2.93559 2.08554 0
M  V30 12344 C 1150.95 4.29082 1.3494 0
M  V30 12345 C 1152.27 3.13586 3.08791 0
M  V30 12346 H 1149.39 0.615383 0.405553 0
M  V30 12347 H 1152.03 1.85719 0.401078 0
M  V30 12348 H 1150.18 2.79531 2.69805 0
M  V30 12349 H 1151.85 4.54906 0.765402 0
M  V30 12350 H 1150.1 4.28884 0.651238 0
M  V30 12351 H 1150.77 5.12275 2.05616 0
M  V30 12352 H 1153.24 3.26743 2.57639 0
M  V30 12353 H 1152.12 4.02112 3.73627 0
M  V30 12354 H 1152.38 2.28475 3.78486 0
M  V30 12355 N 1151.44 -0.633461 1.44309 0
M  V30 12356 C 1152.67 -1.42033 1.50447 0
M  V30 12357 C 1153.08 -1.88362 0.128585 0
M  V30 12358 O 1152.44 -1.60695 -0.865071 0
M  V30 12359 C 1152.49 -2.6422 2.46719 0
M  V30 12360 O 1152.21 -2.19823 3.78958 0
M  V30 12361 C 1153.71 -3.57372 2.62298 0
M  V30 12362 H 1150.93 -0.435667 0.510329 0
M  V30 12363 H 1153.48 -0.774907 1.8925 0
M  V30 12364 H 1151.63 -3.24859 2.11058 0
M  V30 12365 H 1152.05 -2.99022 4.30913 0
M  V30 12366 H 1153.52 -4.39719 3.33693 0
M  V30 12367 H 1154 -4.06026 1.67449 0
M  V30 12368 H 1154.6 -3.02603 2.9885 0
M  V30 12369 N 1152.92 -1.31168 -0.873655 0
M  V30 12370 C 1153.85 -1.14325 -1.98651 0
M  V30 12371 C 1154.86 -0.0833421 -1.62587 0
M  V30 12372 O 1156.05 -0.330477 -1.75414 0
M  V30 12373 C 1153.15 -0.723747 -3.31082 0
M  V30 12374 C 1152.33 -1.86787 -3.95512 0
M  V30 12375 C 1151.38 -1.43503 -5.06254 0
M  V30 12376 O 1150.41 -2.14409 -5.27273 0
M  V30 12377 N 1151.61 -0.320362 -5.79615 0
M  V30 12378 H 1154.38 -2.10179 -2.13647 0
M  V30 12379 H 1151.94 -1.23454 -1.04742 0
M  V30 12380 H 1153.93 -0.416971 -4.02546 0
M  V30 12381 H 1152.5 0.143073 -3.12272 0
M  V30 12382 H 1151.72 -2.34216 -3.17075 0
M  V30 12383 H 1153.01 -2.6343 -4.35296 0
M  V30 12384 H 1152.41 0.270215 -5.65054 0
M  V30 12385 H 1150.96 -0.0731 -6.51759 0
M  V30 12386 N 1154.4 1.08748 -1.14068 0
M  V30 12387 C 1155.33 2.17591 -0.84714 0
M  V30 12388 C 1156.31 1.68962 0.196415 0
M  V30 12389 O 1157.49 1.94125 0.0538415 0
M  V30 12390 C 1154.62 3.45823 -0.320005 0
M  V30 12391 C 1153.58 4.07824 -1.2986 0
M  V30 12392 C 1152.9 5.30965 -0.630925 0
M  V30 12393 C 1154.2 4.49512 -2.65963 0
M  V30 12394 H 1155.9 2.42404 -1.75729 0
M  V30 12395 H 1153.44 1.16502 -0.846356 0
M  V30 12396 H 1155.4 4.21276 -0.102271 0
M  V30 12397 H 1154.12 3.20553 0.625561 0
M  V30 12398 H 1152.78 3.34398 -1.50245 0
M  V30 12399 H 1152.43 5.01979 0.320337 0
M  V30 12400 H 1152.13 5.73402 -1.28388 0
M  V30 12401 H 1153.65 6.09136 -0.422635 0
M  V30 12402 H 1155.06 5.16159 -2.49506 0
M  V30 12403 H 1153.46 5.02857 -3.27498 0
M  V30 12404 H 1154.53 3.6157 -3.23102 0
M  V30 12405 N 1155.87 0.935264 1.26849 0
M  V30 12406 C 1156.78 0.446122 2.30319 0
M  V30 12407 C 1157.8 -0.476965 1.67335 0
M  V30 12408 O 1158.98 -0.357934 1.98194 0
M  V30 12409 C 1156.04 -0.286297 3.45516 0
M  V30 12410 C 1155.1 0.672626 4.23998 0
M  V30 12411 C 1154.34 -0.0249345 5.33694 0
M  V30 12412 O 1154.56 -1.24296 5.56693 0
M  V30 12413 O 1153.49 0.650752 5.98372 0
M  V30 12414 H 1157.32 1.30546 2.74211 0
M  V30 12415 H 1154.9 0.70091 1.31938 0
M  V30 12416 H 1156.79 -0.699109 4.1556 0
M  V30 12417 H 1155.46 -1.12112 3.03665 0
M  V30 12418 H 1154.37 1.13527 3.56458 0
M  V30 12419 H 1155.7 1.47489 4.69583 0
M  V30 12420 N 1157.35 -1.41121 0.701616 0
M  V30 12421 C 1158.77 -1.55162 0.373766 0
M  V30 12422 C 1158.97 -1.6759 -1.11875 0
M  V30 12423 O 1158.02 -1.65768 -1.90465 0
M  V30 12424 C 1159.34 -2.78758 1.12759 0
M  V30 12425 C 1160.89 -2.92561 1.11253 0
M  V30 12426 C 1161.36 -4.19052 1.84822 0
M  V30 12427 N 1162.85 -4.26023 1.81821 0
M  V30 12428 C 1163.59 -5.22771 2.3558 0
M  V30 12429 N 1163.08 -6.25512 2.97836 0
M  V30 12430 N 1164.88 -5.14752 2.25802 0
M  V30 12431 H 1157.03 -1.31299 1.66956 0
M  V30 12432 H 1159.29 -0.633894 0.704898 0
M  V30 12433 H 1159 -2.75804 2.18231 0
M  V30 12434 H 1158.87 -3.70456 0.710095 0
M  V30 12435 H 1161.26 -2.95026 0.0660506 0
M  V30 12436 H 1161.34 -2.0202 1.56913 0
M  V30 12437 H 1160.98 -4.17349 2.89452 0
M  V30 12438 H 1160.91 -5.08577 1.36592 0
M  V30 12439 H 1163.4 -3.52411 1.36438 0
M  V30 12440 H 1163.72 -6.95736 3.36409 0
M  V30 12441 H 1162.06 -6.25997 3.01916 0
M  V30 12442 H 1165.25 -4.33414 1.76833 0
M  V30 12443 H 1165.42 -5.89983 2.68001 0
M  V30 12444 N 1158.83 -0.446794 -1.51134 0
M  V30 12445 C 1160.11 0.176892 -1.94798 0
M  V30 12446 C 1160.49 1.59229 -1.38598 0
M  V30 12447 O 1159.84 2.21097 -0.576905 0
M  V30 12448 C 1160.05 0.145 -3.48699 0
M  V30 12449 C 1161.39 0.345917 -4.23189 0
M  V30 12450 O 1162.42 0.222691 -3.55503 0
M  V30 12451 O 1161.28 0.592112 -5.43283 0
M  V30 12452 H 1158.37 0.12486 -0.81752 0
M  V30 12453 H 1160.92 -0.505453 -1.61998 0
M  V30 12454 H 1159.69 -0.844156 -3.82086 0
M  V30 12455 H 1159.31 0.869851 -3.87968 0
M  V30 12456 N 1160.31 1.56586 -0.178487 0
M  V30 12457 C 1161.54 2.01475 0.470684 0
M  V30 12458 C 1161.95 1.0587 1.56323 0
M  V30 12459 O 1161.31 0.060749 1.82399 0
M  V30 12460 C 1161.36 3.46145 1.04238 0
M  V30 12461 O 1161.08 4.381 -0.0065582 0
M  V30 12462 C 1162.58 4.06471 1.76908 0
M  V30 12463 H 1159.8 0.660219 0.119801 0
M  V30 12464 H 1162.35 2.02542 -0.282322 0
M  V30 12465 H 1160.5 3.45831 1.74585 0
M  V30 12466 H 1160.91 5.22843 0.416554 0
M  V30 12467 H 1162.39 5.096 2.12161 0
M  V30 12468 H 1162.87 3.48974 2.66672 0
M  V30 12469 H 1163.47 4.10509 1.11186 0
M  V30 12470 N 1161.79 -0.095206 1.57312 0
M  V30 12471 C 1163.04 -0.797417 1.85268 0
M  V30 12472 C 1163.35 -1.79903 0.767733 0
M  V30 12473 O 1164.55 -2.54914 0.934409 0
M  V30 12474 C 1163.01 -1.469 3.28555 0
M  V30 12475 C 1162.62 -0.507152 4.4512 0
M  V30 12476 C 1164.36 -2.15494 3.65735 0
M  V30 12477 C 1162.27 -1.18331 5.79441 0
M  V30 12478 H 1161.2 -0.301552 0.691074 0
M  V30 12479 H 1163.85 -0.0503584 1.83431 0
M  V30 12480 H 1162.23 -2.26351 3.24933 0
M  V30 12481 H 1163.41 0.255858 4.60089 0
M  V30 12482 H 1161.72 0.0730882 4.16336 0
M  V30 12483 H 1164.32 -2.66816 4.63371 0
M  V30 12484 H 1164.66 -2.94383 2.94354 0
M  V30 12485 H 1165.19 -1.42903 3.71246 0
M  V30 12486 H 1161.93 -0.435238 6.54053 0
M  V30 12487 H 1161.45 -1.91775 5.68315 0
M  V30 12488 H 1163.13 -1.70983 6.23998 0
M  V30 12489 N 1163.26 -1.53291 -0.366026 0
M  V30 12490 C 1164.19 -1.82675 -1.45437 0
M  V30 12491 C 1165.18 -0.680227 -1.55907 0
M  V30 12492 O 1166.36 -0.930032 -1.70482 0
M  V30 12493 C 1163.49 -2.01626 -2.8278 0
M  V30 12494 C 1162.44 -3.17391 -2.87135 0
M  V30 12495 C 1161.77 -3.21634 -4.27148 0
M  V30 12496 C 1163.07 -4.5599 -2.54697 0
M  V30 12497 H 1164.76 -2.73818 -1.21096 0
M  V30 12498 H 1162.31 -1.31754 -0.581108 0
M  V30 12499 H 1164.26 -2.20765 -3.58944 0
M  V30 12500 H 1162.99 -1.07193 -3.08508 0
M  V30 12501 H 1161.65 -2.98071 -2.13422 0
M  V30 12502 H 1161.29 -2.2484 -4.49951 0
M  V30 12503 H 1160.99 -3.99414 -4.30978 0
M  V30 12504 H 1162.52 -3.42957 -5.05186 0
M  V30 12505 H 1163.93 -4.75294 -3.20575 0
M  V30 12506 H 1162.33 -5.36008 -2.69844 0
M  V30 12507 H 1163.4 -4.61133 -1.49949 0
M  V30 12508 N 1164.74 0.6258 -1.44643 0
M  V30 12509 C 1165.99 1.3873 -1.47925 0
M  V30 12510 C 1166.32 1.93868 -0.113469 0
M  V30 12511 O 1165.6 1.73976 0.869639 0
M  V30 12512 C 1165.88 2.54867 -2.54391 0
M  V30 12513 C 1165.73 2.05044 -4.00346 0
M  V30 12514 C 1167.05 3.57043 -2.57309 0
M  V30 12515 H 1164.17 0.503087 -0.538584 0
M  V30 12516 H 1166.81 0.707102 -1.76352 0
M  V30 12517 H 1164.96 3.12894 -2.30281 0
M  V30 12518 H 1166.63 1.51807 -4.35606 0
M  V30 12519 H 1164.88 1.36185 -4.11869 0
M  V30 12520 H 1165.55 2.88681 -4.70497 0
M  V30 12521 H 1168.02 3.08826 -2.78865 0
M  V30 12522 H 1166.9 4.35818 -3.33698 0
M  V30 12523 H 1167.16 4.11464 -1.61708 0
M  V30 12524 N 1166.22 1.31629 0.866686 0
M  V30 12525 C 1167.46 1.22806 1.63395 0
M  V30 12526 C 1167.82 -0.209785 1.9085 0
M  V30 12527 O 1169.03 -0.421562 2.65474 0
M  V30 12528 C 1167.3 2.05187 2.92631 0
M  V30 12529 S 1168.86 2.13261 3.83491 0
M  V30 12530 H 1165.67 0.437339 0.560585 0
M  V30 12531 H 1168.28 1.66333 1.02731 0
M  V30 12532 H 1166.98 3.08736 2.70389 0
M  V30 12533 H 1166.51 1.62393 3.58318 0
M  V30 12534 H 1168.53 1.27333 4.79584 0
M  V30 12535 N 1167.7 -1.08142 1.14644 0
M  V30 12536 C 1168.63 -2.17139 0.858667 0
M  V30 12537 C 1169.61 -1.69064 -0.187452 0
M  V30 12538 O 1170.8 -1.94151 -0.0435458 0
M  V30 12539 C 1167.93 -3.45648 0.33834 0
M  V30 12540 C 1166.88 -4.07129 1.32021 0
M  V30 12541 C 1166.21 -5.30623 0.659075 0
M  V30 12542 C 1167.51 -4.48095 2.68343 0
M  V30 12543 H 1169.2 -2.41468 1.77012 0
M  V30 12544 H 1166.75 -1.16052 0.852523 0
M  V30 12545 H 1168.7 -4.21216 0.124611 0
M  V30 12546 H 1167.42 -3.2088 -0.608553 0
M  V30 12547 H 1166.08 -3.33596 1.52016 0
M  V30 12548 H 1165.73 -5.02142 -0.293711 0
M  V30 12549 H 1165.43 -5.72714 1.31427 0
M  V30 12550 H 1166.95 -6.08903 0.454933 0
M  V30 12551 H 1168.37 -5.14828 2.5224 0
M  V30 12552 H 1166.76 -5.01113 3.30161 0
M  V30 12553 H 1167.83 -3.59852 3.25015 0
M  V30 12554 N 1169.18 -0.941978 -1.26351 0
M  V30 12555 C 1170.45 -0.507822 -1.88893 0
M  V30 12556 C 1170.83 1.0146 -1.85119 0
M  V30 12557 O 1170.18 1.87495 -1.30606 0
M  V30 12558 C 1170.39 -1.07007 -3.3219 0
M  V30 12559 C 1171.74 -1.13922 -4.09032 0
M  V30 12560 O 1172.76 -1.02072 -3.41262 0
M  V30 12561 O 1171.62 -1.32362 -5.30229 0
M  V30 12562 H 1168.72 -0.165621 -0.810246 0
M  V30 12563 H 1171.26 -1.03459 -1.34515 0
M  V30 12564 H 1170.04 -2.11366 -3.29302 0
M  V30 12565 H 1169.66 -0.525797 -3.94108 0
M  V30 12566 N 1170.66 1.40747 -0.709091 0
M  V30 12567 C 1171.9 2.02864 -0.250145 0
M  V30 12568 C 1172.26 1.54993 1.13319 0
M  V30 12569 O 1173.46 2.09128 1.68876 0
M  V30 12570 C 1171.73 3.55964 -0.320114 0
M  V30 12571 S 1173.29 4.38755 0.0628008 0
M  V30 12572 H 1170.11 0.703975 -0.0996992 0
M  V30 12573 H 1172.71 1.7197 -0.92987 0
M  V30 12574 H 1171.41 3.88297 -1.32866 0
M  V30 12575 H 1170.95 3.91577 0.378308 0
M  V30 12576 H 1172.96 4.79226 1.28672 0
M  V30 12577 N 1172.13 0.454803 1.50895 0
M  V30 12578 C 1173.37 -0.104722 2.04132 0
M  V30 12579 C 1173.74 -1.38434 1.33042 0
M  V30 12580 O 1174.94 -2.02521 1.76745 0
M  V30 12581 C 1173.21 -0.300775 3.56132 0
M  V30 12582 S 1174.77 -0.821197 4.31047 0
M  V30 12583 H 1171.59 -0.0236407 0.710607 0
M  V30 12584 H 1174.19 0.618213 1.85468 0
M  V30 12585 H 1172.89 0.636592 4.05433 0
M  V30 12586 H 1172.42 -1.05029 3.79121 0
M  V30 12587 H 1174.44 -2.09669 4.49726 0
M  V30 12588 N 1173.61 -1.56489 0.186789 0
M  V30 12589 C 1174.86 -1.96517 -0.45433 0
M  V30 12590 C 1175.17 -1.07618 -1.63333 0
M  V30 12591 O 1176.38 -1.37392 -2.3417 0
M  V30 12592 C 1174.84 -3.49482 -0.859685 0
M  V30 12593 C 1174.44 -4.47031 0.294572 0
M  V30 12594 C 1176.19 -3.98296 -1.46835 0
M  V30 12595 C 1174.09 -5.91254 -0.131279 0
M  V30 12596 H 1173.02 -0.733765 -0.17351 0
M  V30 12597 H 1175.68 -1.8139 0.277485 0
M  V30 12598 H 1174.06 -3.60082 -1.64793 0
M  V30 12599 H 1175.23 -4.48156 1.07205 0
M  V30 12600 H 1173.55 -4.08362 0.814197 0
M  V30 12601 H 1176.14 -5.03518 -1.79928 0
M  V30 12602 H 1176.49 -3.42123 -2.37186 0
M  V30 12603 H 1177.02 -3.90776 -0.744247 0
M  V30 12604 H 1173.76 -6.51334 0.737839 0
M  V30 12605 H 1173.28 -5.93401 -0.873786 0
M  V30 12606 H 1174.96 -6.44485 -0.569913 0
M  V30 12607 N 1175.09 0.086862 -1.5736 0
M  V30 12608 C 1176.04 1.10478 -2.02641 0
M  V30 12609 C 1177.01 1.39331 -0.904219 0
M  V30 12610 O 1178.19 1.50654 -1.17081 0
M  V30 12611 C 1175.33 2.41754 -2.4627 0
M  V30 12612 C 1174.44 2.19561 -3.72044 0
M  V30 12613 C 1173.58 3.44294 -4.04519 0
M  V30 12614 C 1172.62 3.17399 -5.23378 0
M  V30 12615 N 1171.76 4.3442 -5.51564 0
M  V30 12616 H 1176.6 0.711663 -2.89378 0
M  V30 12617 H 1174.13 0.339856 -1.4312 0
M  V30 12618 H 1176.09 3.18378 -2.69613 0
M  V30 12619 H 1174.72 2.78896 -1.62532 0
M  V30 12620 H 1173.77 1.337 -3.5613 0
M  V30 12621 H 1175.08 1.95685 -4.58812 0
M  V30 12622 H 1174.24 4.29321 -4.28682 0
M  V30 12623 H 1172.98 3.71232 -3.16289 0
M  V30 12624 H 1171.98 2.30765 -4.99026 0
M  V30 12625 H 1173.21 2.91799 -6.13213 0
M  V30 12626 H 1171.15 4.61418 -4.66293 0
M  V30 12627 H 1171.07 4.13764 -6.3272 0
M  V30 12628 H 1172.34 5.20489 -5.80269 0
M  V30 12629 N 1176.57 1.53483 0.357892 0
M  V30 12630 C 1177.82 1.69256 1.09706 0
M  V30 12631 C 1178.13 0.454888 1.90237 0
M  V30 12632 O 1179.34 0.4933 2.66981 0
M  V30 12633 C 1177.79 2.99238 1.99961 0
M  V30 12634 C 1177.4 4.30293 1.24706 0
M  V30 12635 C 1179.14 3.24378 2.73823 0
M  V30 12636 C 1177.05 5.5136 2.13907 0
M  V30 12637 H 1175.98 0.630657 0.413265 0
M  V30 12638 H 1178.63 1.79983 0.357518 0
M  V30 12639 H 1177.01 2.82332 2.77677 0
M  V30 12640 H 1178.19 4.57857 0.519995 0
M  V30 12641 H 1176.5 4.11656 0.626736 0
M  V30 12642 H 1179.1 4.12015 3.40805 0
M  V30 12643 H 1179.44 2.40769 3.39612 0
M  V30 12644 H 1179.98 3.41994 2.03187 0
M  V30 12645 H 1176.71 6.3747 1.52684 0
M  V30 12646 H 1176.23 5.28065 2.84442 0
M  V30 12647 H 1177.91 5.86448 2.7329 0
M  V30 12648 N 1178.05 -0.61812 1.44973 0
M  V30 12649 C 1179.29 -1.37944 1.48658 0
M  V30 12650 C 1179.62 -1.93805 0.123749 0
M  V30 12651 O 1178.9 -1.74434 -0.860401 0
M  V30 12652 C 1179.18 -2.53515 2.55739 0
M  V30 12653 C 1179.04 -2.02918 4.01428 0
M  V30 12654 C 1180.35 -3.55674 2.59199 0
M  V30 12655 H 1177.47 -0.500223 0.541244 0
M  V30 12656 H 1180.12 -0.69774 1.76725 0
M  V30 12657 H 1178.27 -3.11669 2.31937 0
M  V30 12658 H 1179.94 -1.49494 4.36405 0
M  V30 12659 H 1178.18 -1.33999 4.12586 0
M  V30 12660 H 1178.85 -2.86181 4.72021 0
M  V30 12661 H 1181.33 -3.07343 2.80499 0
M  V30 12662 H 1180.2 -4.34042 3.36004 0
M  V30 12663 H 1180.46 -4.10601 1.63888 0
M  V30 12664 N 1179.52 -1.32087 -0.859693 0
M  V30 12665 C 1180.47 -1.20549 -1.98924 0
M  V30 12666 C 1181.47 -0.111422 -1.69033 0
M  V30 12667 O 1182.67 -0.27401 -1.77902 0
M  V30 12668 H 1179.05 -0.373538 -0.652667 0
M  V30 12669 H 1181.02 -2.16091 -2.05785 0
M  V30 12670 C 1179.77 -0.940226 -3.34746 0
M  V30 12671 H 1179.09 -1.77427 -3.58273 0
M  V30 12672 H 1180.53 -0.899712 -4.14344 0
M  V30 12673 C 1178.99 0.357042 -3.35003 0
M  V30 12674 O 1179.52 1.37054 -3.77596 0
M  V30 12675 N 1177.72 0.37723 -2.88141 0
M  V30 12676 H 1177.27 -0.448051 -2.53674 0
M  V30 12677 H 1177.23 1.24509 -2.88695 0
M  V30 12678 N 1181 1.07532 -1.15215 0
M  V30 12679 C 1181.93 2.1668 -0.870171 0
M  V30 12680 C 1182.91 1.69161 0.178483 0
M  V30 12681 O 1184.1 1.94172 0.0332489 0
M  V30 12682 C 1181.23 3.45464 -0.356666 0
M  V30 12683 C 1180.18 4.06424 -1.34179 0
M  V30 12684 C 1179.51 5.30266 -0.687206 0
M  V30 12685 C 1180.81 4.46666 -2.70715 0
M  V30 12686 H 1182.5 2.40526 -1.7829 0
M  V30 12687 H 1180.05 1.15598 -0.858665 0
M  V30 12688 H 1182 4.21144 -0.146947 0
M  V30 12689 H 1180.72 3.21199 0.591527 0
M  V30 12690 H 1179.38 3.32786 -1.53783 0
M  V30 12691 H 1179.03 5.0229 0.267077 0
M  V30 12692 H 1178.73 5.72009 -1.34462 0
M  V30 12693 H 1180.26 6.08653 -0.487218 0
M  V30 12694 H 1181.67 5.13483 -2.54966 0
M  V30 12695 H 1180.07 4.99355 -3.32813 0
M  V30 12696 H 1181.14 3.58123 -3.26919 0
M  V30 12697 N 1182.48 0.948665 1.2585 0
M  V30 12698 C 1183.41 0.421458 2.25292 0
M  V30 12699 C 1184.43 -0.459389 1.56184 0
M  V30 12700 O 1185.61 -0.268627 1.76467 0
M  V30 12701 C 1182.71 -0.412653 3.36378 0
M  V30 12702 C 1181.89 0.453792 4.3504 0
M  V30 12703 C 1180.95 -0.321127 5.25219 0
M  V30 12704 O 1179.97 0.278424 5.68519 0
M  V30 12705 N 1181.17 -1.61576 5.5756 0
M  V30 12706 H 1183.94 1.27636 2.71162 0
M  V30 12707 H 1181.5 0.818367 1.39694 0
M  V30 12708 H 1183.49 -0.938637 3.93664 0
M  V30 12709 H 1182.06 -1.16839 2.89944 0
M  V30 12710 H 1181.28 1.16093 3.76718 0
M  V30 12711 H 1182.57 1.04538 4.97945 0
M  V30 12712 H 1181.97 -2.12488 5.24276 0
M  V30 12713 H 1180.53 -2.08783 6.17457 0
M  V30 12714 N 1183.96 -1.40369 0.716545 0
M  V30 12715 C 1185.21 -2.00473 0.255959 0
M  V30 12716 C 1185.53 -1.57104 -1.15514 0
M  V30 12717 O 1184.8 -0.810925 -1.78328 0
M  V30 12718 H 1183.38 -0.741357 0.0916427 0
M  V30 12719 H 1186.04 -1.71692 0.922389 0
M  V30 12720 H 1185.14 -3.10752 0.289806 0
M  V30 12721 N 1185.44 -0.462799 -1.50652 0
M  V30 12722 C 1186.85 -0.11648 -1.59174 0
M  V30 12723 C 1187.05 1.37638 -1.47167 0
M  V30 12724 O 1186.11 2.14886 -1.3259 0
M  V30 12725 C 1187.42 -0.659289 -2.93383 0
M  V30 12726 C 1188.97 -0.62198 -3.06758 0
M  V30 12727 C 1189.44 -1.14219 -4.43529 0
M  V30 12728 N 1190.94 -1.10125 -4.49919 0
M  V30 12729 C 1191.67 -1.47436 -5.54121 0
M  V30 12730 N 1191.17 -1.92156 -6.65618 0
M  V30 12731 N 1192.96 -1.39091 -5.44619 0
M  V30 12732 H 1185.11 -1.43383 -1.56701 0
M  V30 12733 H 1187.37 -0.592438 -0.740082 0
M  V30 12734 H 1187.08 -1.70477 -3.07621 0
M  V30 12735 H 1186.95 -0.0982388 -3.77072 0
M  V30 12736 H 1189.34 0.414576 -2.92173 0
M  V30 12737 H 1189.42 -1.21974 -2.24847 0
M  V30 12738 H 1189.07 -2.17734 -4.58862 0
M  V30 12739 H 1189 -0.52073 -5.24019 0
M  V30 12740 H 1191.49 -0.773154 -3.69906 0
M  V30 12741 H 1191.8 -2.18796 -7.4118 0
M  V30 12742 H 1190.14 -1.96103 -6.6676 0
M  V30 12743 H 1193.34 -1.04001 -4.564 0
M  V30 12744 H 1193.51 -1.68496 -6.2571 0
M  V30 12745 N 1186.91 1.56388 -0.195085 0
M  V30 12746 C 1187.84 2.22091 0.720971 0
M  V30 12747 C 1188.83 1.184 1.22128 0
M  V30 12748 O 1190.01 1.46907 1.27012 0
M  V30 12749 C 1187.14 2.88025 1.94059 0
M  V30 12750 C 1186.09 3.97959 1.5752 0
M  V30 12751 C 1185.42 4.51058 2.87143 0
M  V30 12752 C 1186.72 5.16365 0.785145 0
M  V30 12753 H 1188.41 2.98898 0.173245 0
M  V30 12754 H 1185.96 1.43767 0.0818868 0
M  V30 12755 H 1187.91 3.32671 2.58666 0
M  V30 12756 H 1186.64 2.08623 2.51285 0
M  V30 12757 H 1185.3 3.54004 0.952715 0
M  V30 12758 H 1184.94 3.68418 3.42458 0
M  V30 12759 H 1184.64 5.25237 2.63439 0
M  V30 12760 H 1186.17 4.98406 3.52738 0
M  V30 12761 H 1187.58 5.57556 1.33431 0
M  V30 12762 H 1185.98 5.9661 0.646231 0
M  V30 12763 H 1187.05 4.84428 -0.213789 0
M  V30 12764 N 1188.39 -0.0785156 1.57404 0
M  V30 12765 C 1189.34 -1.09402 2.03224 0
M  V30 12766 C 1190.31 -1.38849 0.911596 0
M  V30 12767 O 1191.49 -1.50031 1.17878 0
M  V30 12768 C 1188.63 -2.40444 2.47549 0
M  V30 12769 C 1187.75 -2.17585 3.73203 0
M  V30 12770 C 1186.88 -3.42143 4.06339 0
M  V30 12771 C 1185.92 -3.14619 5.25054 0
M  V30 12772 N 1185.06 -4.31489 5.5386 0
M  V30 12773 H 1189.9 -0.696307 2.89751 0
M  V30 12774 H 1187.44 -0.332261 1.43298 0
M  V30 12775 H 1189.39 -3.16944 2.71298 0
M  V30 12776 H 1188.02 -2.78031 1.64009 0
M  V30 12777 H 1187.08 -1.3181 3.56834 0
M  V30 12778 H 1188.39 -1.93249 4.59844 0
M  V30 12779 H 1187.54 -4.27042 4.30953 0
M  V30 12780 H 1186.28 -3.69549 3.18253 0
M  V30 12781 H 1185.29 -2.28116 5.00243 0
M  V30 12782 H 1186.51 -2.88543 6.14752 0
M  V30 12783 H 1184.46 -4.58939 4.68734 0
M  V30 12784 H 1184.37 -4.10403 6.34906 0
M  V30 12785 H 1185.64 -5.17404 5.83021 0
M  V30 12786 N 1189.87 -1.5367 -0.349747 0
M  V30 12787 C 1191.1 -1.74858 -1.11532 0
M  V30 12788 C 1191.52 -0.483591 -1.81777 0
M  V30 12789 O 1190.88 0.563399 -1.72324 0
M  V30 12790 C 1190.93 -2.92479 -2.10923 0
M  V30 12791 O 1190.03 -2.62194 -3.18321 0
M  V30 12792 H 1189.37 -0.580219 -0.322865 0
M  V30 12793 H 1191.9 -2.00611 -0.402033 0
M  V30 12794 H 1191.91 -3.19093 -2.54252 0
M  V30 12795 H 1190.59 -3.84228 -1.59191 0
M  V30 12796 H 1189.16 -2.46448 -2.79853 0
M  V30 12797 N 1191.35 0.610423 -1.45298 0
M  V30 12798 C 1192.57 1.40112 -1.52917 0
M  V30 12799 C 1193 1.87404 -0.161696 0
M  V30 12800 O 1192.36 1.59973 0.853135 0
M  V30 12801 C 1192.4 2.58359 -2.51561 0
M  V30 12802 O 1191.51 3.58895 -2.03146 0
M  V30 12803 H 1190.85 0.41841 -0.515586 0
M  V30 12804 H 1193.38 0.743159 -1.90626 0
M  V30 12805 H 1193.39 3.0564 -2.70275 0
M  V30 12806 H 1192.06 2.23286 -3.50879 0
M  V30 12807 H 1190.64 3.18282 -1.94296 0
M  V30 12808 N 1192.83 1.32541 0.852676 0
M  V30 12809 C 1194.24 1.11575 1.14119 0
M  V30 12810 C 1194.44 -0.102469 2.01239 0
M  V30 12811 O 1193.5 -0.786786 2.39929 0
M  V30 12812 C 1194.81 2.39624 1.81661 0
M  V30 12813 C 1196.36 2.454 1.94288 0
M  V30 12814 C 1196.83 3.73375 2.65245 0
M  V30 12815 N 1198.33 3.74368 2.72769 0
M  V30 12816 C 1199.06 4.70094 3.28328 0
M  V30 12817 N 1198.56 5.76187 3.84682 0
M  V30 12818 N 1200.35 4.57588 3.26449 0
M  V30 12819 H 1192.5 2.10644 0.272544 0
M  V30 12820 H 1194.76 0.930094 0.183385 0
M  V30 12821 H 1194.47 3.28698 1.25102 0
M  V30 12822 H 1194.34 2.50734 2.81802 0
M  V30 12823 H 1196.73 1.56784 2.50005 0
M  V30 12824 H 1196.81 2.38241 0.931379 0
M  V30 12825 H 1196.46 4.62366 2.10191 0
M  V30 12826 H 1196.39 3.77806 3.66838 0
M  V30 12827 H 1198.88 2.97685 2.32791 0
M  V30 12828 H 1199.19 6.45285 4.25238 0
M  V30 12829 H 1197.53 5.79939 3.83008 0
M  V30 12830 H 1200.73 3.7387 2.81672 0
M  V30 12831 H 1200.9 5.32365 3.69448 0
M  V30 12832 N 1194.3 -1.0692 1.15784 0
M  V30 12833 C 1195.25 -2.14235 0.858616 0
M  V30 12834 C 1196.22 -1.65006 -0.190295 0
M  V30 12835 O 1197.41 -1.90715 -0.0568853 0
M  V30 12836 C 1194.55 -3.43229 0.35888 0
M  V30 12837 C 1193.66 -4.06225 1.46987 0
M  V30 12838 C 1192.79 -5.2307 0.925812 0
M  V30 12839 C 1191.83 -5.78037 2.01345 0
M  V30 12840 N 1190.97 -6.86206 1.48544 0
M  V30 12841 H 1195.81 -2.3917 1.77769 0
M  V30 12842 H 1193.35 -1.17354 0.886925 0
M  V30 12843 H 1195.31 -4.17169 0.0508198 0
M  V30 12844 H 1193.94 -3.18531 -0.523259 0
M  V30 12845 H 1192.99 -3.29895 1.89403 0
M  V30 12846 H 1194.3 -4.43081 2.29088 0
M  V30 12847 H 1193.45 -6.04011 0.570555 0
M  V30 12848 H 1192.19 -4.87644 0.0740371 0
M  V30 12849 H 1191.2 -4.95738 2.37748 0
M  V30 12850 H 1192.42 -6.15517 2.86907 0
M  V30 12851 H 1190.37 -6.52711 0.656092 0
M  V30 12852 H 1190.29 -7.2197 2.24266 0
M  V30 12853 H 1191.55 -7.70842 1.15856 0
M  V30 12854 N 1195.78 -0.955326 -1.25345 0
M  V30 12855 C 1196.71 -0.494145 -2.28211 0
M  V30 12856 C 1197.69 0.459875 -1.63766 0
M  V30 12857 O 1198.88 0.358679 -1.90859 0
M  V30 12858 C 1196.01 0.228228 -3.46549 0
M  V30 12859 C 1194.96 -0.640601 -4.23179 0
M  V30 12860 C 1194.29 0.212553 -5.34277 0
M  V30 12861 C 1195.59 -1.91906 -4.85767 0
M  V30 12862 H 1197.28 -1.35391 -2.67039 0
M  V30 12863 H 1194.83 -0.652462 -1.2837 0
M  V30 12864 H 1196.78 0.561995 -4.17636 0
M  V30 12865 H 1195.51 1.12224 -3.06714 0
M  V30 12866 H 1194.16 -0.957462 -3.53876 0
M  V30 12867 H 1193.81 1.10634 -4.90682 0
M  V30 12868 H 1193.51 -0.365473 -5.86462 0
M  V30 12869 H 1195.04 0.541271 -6.08196 0
M  V30 12870 H 1196.45 -1.65165 -5.48993 0
M  V30 12871 H 1194.85 -2.44279 -5.48131 0
M  V30 12872 H 1195.92 -2.62173 -4.07914 0
M  V30 12873 N 1197.26 1.39987 -0.723979 0
M  V30 12874 C 1198.49 2.0556 -0.275634 0
M  V30 12875 C 1198.91 1.54207 1.07711 0
M  V30 12876 O 1198.27 0.681041 1.68022 0
M  V30 12877 C 1198.32 3.59551 -0.27485 0
M  V30 12878 O 1197.42 4.05685 0.741182 0
M  V30 12879 H 1196.76 0.651634 -0.12755 0
M  V30 12880 H 1199.29 1.79229 -0.986814 0
M  V30 12881 H 1199.3 4.07837 -0.115425 0
M  V30 12882 H 1197.98 3.96291 -1.26198 0
M  V30 12883 H 1196.55 3.6884 0.548795 0
M  V30 12884 N 1198.74 0.470782 1.50404 0
M  V30 12885 C 1199.96 -0.084284 2.07229 0
M  V30 12886 C 1200.39 -1.32774 1.33239 0
M  V30 12887 O 1199.75 -1.77274 0.379971 0
M  V30 12888 C 1199.8 -0.351565 3.58882 0
M  V30 12889 O 1198.9 -1.43211 3.86736 0
M  V30 12890 H 1198.24 0.0128479 0.663876 0
M  V30 12891 H 1200.77 0.661735 1.93603 0
M  V30 12892 H 1200.78 -0.592151 4.0368 0
M  V30 12893 H 1199.46 0.557084 4.12152 0
M  V30 12894 H 1198.03 -1.17886 3.53776 0
M  V30 12895 N 1200.22 -1.56282 0.203376 0
M  V30 12896 C 1201.13 -2.23086 -0.725922 0
M  V30 12897 C 1202.14 -1.23258 -1.22814 0
M  V30 12898 O 1203.32 -1.5602 -1.27357 0
M  V30 12899 C 1200.38 -2.88358 -1.92485 0
M  V30 12900 C 1199.45 -4.03479 -1.46639 0
M  V30 12901 C 1198.68 -4.65629 -2.60816 0
M  V30 12902 O 1198.9 -4.2672 -3.78506 0
M  V30 12903 O 1197.84 -5.54949 -2.33056 0
M  V30 12904 H 1201.66 -3.03124 -0.18694 0
M  V30 12905 H 1199.25 -1.49377 -0.0262829 0
M  V30 12906 H 1201.13 -3.29623 -2.62539 0
M  V30 12907 H 1199.8 -2.11294 -2.45228 0
M  V30 12908 H 1198.71 -3.66821 -0.734396 0
M  V30 12909 H 1200.04 -4.82232 -0.985535 0
M  V30 12910 N 1201.7 0.070167 -1.57444 0
M  V30 12911 C 1202.63 1.08351 -2.06839 0
M  V30 12912 C 1203.61 1.40269 -0.962224 0
M  V30 12913 O 1204.79 1.49867 -1.23505 0
M  V30 12914 C 1201.92 2.39649 -2.51368 0
M  V30 12915 C 1200.88 2.22079 -3.65875 0
M  V30 12916 C 1200.2 3.58776 -3.96464 0
M  V30 12917 C 1201.5 1.64069 -4.95862 0
M  V30 12918 H 1203.2 0.672465 -2.9175 0
M  V30 12919 H 1200.74 0.322027 -1.40353 0
M  V30 12920 H 1202.69 3.10833 -2.84537 0
M  V30 12921 H 1201.42 2.82736 -1.63487 0
M  V30 12922 H 1200.08 1.53337 -3.32992 0
M  V30 12923 H 1199.73 3.99436 -3.05712 0
M  V30 12924 H 1199.43 3.47859 -4.7357 0
M  V30 12925 H 1200.95 4.31387 -4.32131 0
M  V30 12926 H 1202.36 2.2512 -5.27251 0
M  V30 12927 H 1200.76 1.63843 -5.773 0
M  V30 12928 H 1201.83 0.60232 -4.81145 0
M  V30 12929 N 1203.17 1.53854 0.341593 0
M  V30 12930 C 1204.4 1.75134 1.10162 0
M  V30 12931 C 1204.82 0.491415 1.82292 0
M  V30 12932 O 1204.17 -0.53703 1.7442 0
M  V30 12933 C 1204.22 2.93273 2.1136 0
M  V30 12934 O 1203.95 4.14393 1.42162 0
M  V30 12935 C 1205.45 3.26621 2.99723 0
M  V30 12936 H 1202.67 0.585126 0.328434 0
M  V30 12937 H 1205.21 2.00684 0.393204 0
M  V30 12938 H 1203.37 2.70048 2.77764 0
M  V30 12939 H 1203.78 4.8072 2.09783 0
M  V30 12940 H 1205.25 4.12629 3.66662 0
M  V30 12941 H 1205.73 2.43008 3.65847 0
M  V30 12942 H 1206.34 3.51858 2.38906 0
M  V30 12943 N 1204.65 -0.602709 1.4562 0
M  V30 12944 C 1205.9 -1.36158 1.49891 0
M  V30 12945 C 1206.23 -1.93977 0.142581 0
M  V30 12946 O 1205.48 -1.75822 -0.859374 0
M  V30 12947 C 1205.78 -2.52474 2.52966 0
M  V30 12948 C 1205.45 -2.12772 3.97541 0
M  V30 12949 C 1204.11 -2.01658 4.36907 0
M  V30 12950 C 1206.46 -1.8186 4.88443 0
M  V30 12951 C 1203.79 -1.57862 5.65063 0
M  V30 12952 C 1206.14 -1.39548 6.17016 0
M  V30 12953 C 1204.8 -1.26997 6.55308 0
M  V30 12954 H 1204.07 -0.498236 0.54849 0
M  V30 12955 H 1206.72 -0.680738 1.78992 0
M  V30 12956 H 1205.03 -3.25917 2.17452 0
M  V30 12957 H 1206.72 -3.10701 2.53507 0
M  V30 12958 H 1203.31 -2.22349 3.66413 0
M  V30 12959 H 1207.5 -1.89341 4.58763 0
M  V30 12960 H 1202.75 -1.46771 5.93522 0
M  V30 12961 H 1206.93 -1.14677 6.86893 0
M  V30 12962 H 1204.55 -0.928346 7.5451 0
M  V30 12963 N 1206.13 -1.32992 -0.845635 0
M  V30 12964 C 1207.41 -1.14671 -1.58461 0
M  V30 12965 C 1207.79 0.289498 -2.09106 0
M  V30 12966 O 1207.13 1.28751 -1.88773 0
M  V30 12967 C 1207.34 -2.18206 -2.72373 0
M  V30 12968 C 1208.69 -2.5201 -3.41726 0
M  V30 12969 O 1209.72 -2.16821 -2.82608 0
M  V30 12970 O 1208.58 -3.12368 -4.48429 0
M  V30 12971 H 1205.67 -0.443088 -0.698285 0
M  V30 12972 H 1208.22 -1.44552 -0.888978 0
M  V30 12973 H 1206.99 -3.14707 -2.32541 0
M  V30 12974 H 1206.61 -1.89372 -3.49605 0
M  V30 12975 N 1207.61 1.06304 -1.1635 0
M  V30 12976 C 1208.85 1.79101 -0.94494 0
M  V30 12977 C 1209.18 1.87217 0.527251 0
M  V30 12978 O 1208.44 1.35992 1.40729 0
M  V30 12979 C 1208.74 3.23589 -1.51741 0
M  V30 12980 C 1208.4 3.35552 -3.0119 0
M  V30 12981 C 1207.06 3.38525 -3.41986 0
M  V30 12982 C 1209.42 3.37482 -3.97184 0
M  V30 12983 C 1206.74 3.41042 -4.77396 0
M  V30 12984 C 1209.1 3.41537 -5.3248 0
M  V30 12985 C 1207.76 3.42792 -5.72757 0
M  V30 12986 H 1207.03 0.655377 -0.345778 0
M  V30 12987 H 1209.68 1.25017 -1.45062 0
M  V30 12988 H 1207.98 3.80525 -0.933164 0
M  V30 12989 H 1209.68 3.78512 -1.32399 0
M  V30 12990 H 1206.27 3.33944 -2.68662 0
M  V30 12991 H 1210.45 3.34397 -3.66732 0
M  V30 12992 H 1205.71 3.40317 -5.07931 0
M  V30 12993 H 1209.88 3.41977 -6.0665 0
M  V30 12994 H 1207.51 3.44495 -6.77663 0
M  V30 12995 N 1209.09 0.96196 1.24836 0
M  V30 12996 C 1210.02 0.445329 2.24832 0
M  V30 12997 C 1211.03 -0.442797 1.56663 0
M  V30 12998 O 1212.22 -0.249896 1.76742 0
M  V30 12999 C 1209.32 -0.376953 3.36797 0
M  V30 13000 C 1208.49 0.499908 4.34534 0
M  V30 13001 C 1207.55 -0.265402 5.2553 0
M  V30 13002 O 1206.58 0.338707 5.68191 0
M  V30 13003 N 1207.78 -1.55654 5.59243 0
M  V30 13004 H 1210.54 1.30505 2.69793 0
M  V30 13005 H 1208.11 0.833137 1.38818 0
M  V30 13006 H 1210.1 -0.896831 3.94638 0
M  V30 13007 H 1208.67 -1.13757 2.91167 0
M  V30 13008 H 1207.89 1.20082 3.75465 0
M  V30 13009 H 1209.18 1.09814 4.96808 0
M  V30 13010 H 1208.57 -2.06916 5.265 0
M  V30 13011 H 1207.13 -2.02223 6.19636 0
M  V30 13012 N 1210.56 -1.39601 0.731392 0
M  V30 13013 C 1211.81 -1.99821 0.274661 0
M  V30 13014 C 1212.13 -1.58693 -1.1435 0
M  V30 13015 O 1213.33 -2.11724 -1.69957 0
M  V30 13016 C 1211.79 -3.57199 0.440124 0
M  V30 13017 C 1211.4 -4.07292 1.86594 0
M  V30 13018 C 1213.14 -4.24476 0.0449851 0
M  V30 13019 C 1211.05 -5.57229 1.98115 0
M  V30 13020 H 1209.98 -0.747481 0.0989383 0
M  V30 13021 H 1212.63 -1.59645 0.904755 0
M  V30 13022 H 1211.01 -3.95153 -0.25881 0
M  V30 13023 H 1212.18 -3.80679 2.59654 0
M  V30 13024 H 1210.5 -3.52665 2.21397 0
M  V30 13025 H 1213.1 -5.34587 0.110126 0
M  V30 13026 H 1213.44 -4.04129 -0.999269 0
M  V30 13027 H 1213.97 -3.91683 0.694942 0
M  V30 13028 H 1210.71 -5.82452 3.00716 0
M  V30 13029 H 1210.23 -5.85656 1.29487 0
M  V30 13030 H 1211.91 -6.22584 1.76063 0
M  V30 13031 N 1212.04 -0.478751 -1.50152 0
M  V30 13032 C 1212.95 0.316554 -2.32455 0
M  V30 13033 C 1213.97 0.98871 -1.4318 0
M  V30 13034 O 1215.14 0.974998 -1.76226 0
M  V30 13035 C 1212.21 1.3799 -3.18056 0
M  V30 13036 C 1211.27 0.723534 -4.23159 0
M  V30 13037 C 1210.5 1.73621 -5.0467 0
M  V30 13038 O 1210.73 2.96362 -4.87366 0
M  V30 13039 O 1209.66 1.30381 -5.87609 0
M  V30 13040 H 1213.49 -0.356491 -3.016 0
M  V30 13041 H 1211.07 -0.24046 -1.47452 0
M  V30 13042 H 1212.95 1.99565 -3.71149 0
M  V30 13043 H 1211.63 2.03627 -2.5163 0
M  V30 13044 H 1210.54 0.0686296 -3.74037 0
M  V30 13045 H 1211.87 0.109979 -4.92077 0
M  V30 13046 N 1213.52 1.56172 -0.211661 0
M  V30 13047 C 1214.75 2.02874 0.430905 0
M  V30 13048 C 1215.17 1.09064 1.53254 0
M  V30 13049 O 1214.53 0.0770408 1.81136 0
M  V30 13050 C 1214.58 3.4789 0.948933 0
M  V30 13051 O 1213.68 3.57213 2.0609 0
M  V30 13052 H 1213.02 0.656614 0.0987607 0
M  V30 13053 H 1215.55 2.01964 -0.327399 0
M  V30 13054 H 1215.56 3.88015 1.2613 0
M  V30 13055 H 1214.24 4.15656 0.142584 0
M  V30 13056 H 1212.81 3.28971 1.75592 0
M  V30 13057 N 1215 -0.0618163 1.57479 0
M  V30 13058 C 1216.25 -0.75794 1.86918 0
M  V30 13059 C 1216.56 -1.78234 0.80572 0
M  V30 13060 O 1217.77 -2.52874 0.98827 0
M  V30 13061 C 1216.22 -1.39898 3.31597 0
M  V30 13062 C 1215.83 -0.412621 4.46096 0
M  V30 13063 C 1217.57 -2.07688 3.70224 0
M  V30 13064 C 1215.48 -1.06014 5.8182 0
M  V30 13065 H 1214.41 -0.286825 0.697314 0
M  V30 13066 H 1217.06 -0.0114386 1.83496 0
M  V30 13067 H 1215.44 -2.19408 3.29661 0
M  V30 13068 H 1216.62 0.353392 4.59443 0
M  V30 13069 H 1214.93 0.161383 4.16087 0
M  V30 13070 H 1217.53 -2.56928 4.68927 0
M  V30 13071 H 1217.87 -2.88073 3.00532 0
M  V30 13072 H 1218.41 -1.34996 3.74194 0
M  V30 13073 H 1215.15 -0.296405 6.5483 0
M  V30 13074 H 1214.67 -1.79677 5.72255 0
M  V30 13075 H 1216.34 -1.57708 6.27485 0
M  V30 13076 N 1216.48 -1.54033 -0.333429 0
M  V30 13077 C 1217.72 -1.72019 -1.07411 0
M  V30 13078 C 1218.06 -0.487265 -1.87988 0
M  V30 13079 O 1217.33 0.515757 -1.87537 0
M  V30 13080 C 1217.61 -2.98986 -2.00698 0
M  V30 13081 C 1217.47 -4.32509 -1.23517 0
M  V30 13082 C 1218.79 -3.21663 -3.00368 0
M  V30 13083 H 1215.9 -0.625919 -0.389094 0
M  V30 13084 H 1218.55 -1.86717 -0.351697 0
M  V30 13085 H 1216.7 -2.86586 -2.62298 0
M  V30 13086 H 1218.37 -4.56775 -0.644522 0
M  V30 13087 H 1216.61 -4.3046 -0.537298 0
M  V30 13088 H 1217.28 -5.17547 -1.91962 0
M  V30 13089 H 1219.76 -3.33459 -2.48886 0
M  V30 13090 H 1218.63 -4.11877 -3.62834 0
M  V30 13091 H 1218.9 -2.3843 -3.72295 0
M  V30 13092 N 1217.95 0.594978 -1.45938 0
M  V30 13093 C 1219.19 1.36479 -1.52161 0
M  V30 13094 C 1219.56 1.91296 -0.164295 0
M  V30 13095 O 1220.76 2.68609 -0.101247 0
M  V30 13096 C 1219.03 2.47286 -2.5804 0
M  V30 13097 S 1220.59 3.34855 -2.8358 0
M  V30 13098 H 1217.41 0.465134 -0.537746 0
M  V30 13099 H 1220.01 0.685257 -1.83097 0
M  V30 13100 H 1218.71 2.05386 -3.5531 0
M  V30 13101 H 1218.24 3.20025 -2.28795 0
M  V30 13102 H 1220.26 4.45788 -2.17916 0
M  V30 13103 N 1219.43 1.33438 0.838571 0
M  V30 13104 C 1220.36 1.26344 1.96365 0
M  V30 13105 C 1221.34 0.143956 1.6949 0
M  V30 13106 O 1222.53 0.333779 1.9131 0
M  V30 13107 C 1219.66 1.0022 3.32526 0
M  V30 13108 C 1218.61 2.08466 3.73799 0
M  V30 13109 C 1217.94 1.67555 5.07769 0
M  V30 13110 C 1219.24 3.50144 3.87552 0
M  V30 13111 H 1220.93 2.20478 2.02558 0
M  V30 13112 H 1218.48 1.06139 0.973168 0
M  V30 13113 H 1220.43 0.939068 4.10803 0
M  V30 13114 H 1219.16 0.0252514 3.2659 0
M  V30 13115 H 1217.81 2.13822 2.97785 0
M  V30 13116 H 1217.46 0.685619 4.98305 0
M  V30 13117 H 1217.16 2.39993 5.36356 0
M  V30 13118 H 1218.69 1.62708 5.88522 0
M  V30 13119 H 1220.1 3.47287 4.56141 0
M  V30 13120 H 1218.5 4.21069 4.27575 0
M  V30 13121 H 1219.57 3.88628 2.89994 0
M  V30 13122 N 1220.91 -1.05686 1.16912 0
M  V30 13123 C 1221.84 -2.1329 0.839044 0
M  V30 13124 C 1222.86 -1.62047 -0.156392 0
M  V30 13125 O 1224.04 -1.78366 0.0692192 0
M  V30 13126 C 1221.14 -3.38122 0.229558 0
M  V30 13127 C 1220.32 -4.18659 1.26662 0
M  V30 13128 C 1219.38 -5.21842 0.675811 0
M  V30 13129 O 1218.4 -5.53049 1.3463 0
M  V30 13130 N 1219.6 -5.78034 -0.534532 0
M  V30 13131 H 1222.37 -2.42203 1.76515 0
M  V30 13132 H 1219.93 -1.2174 1.06729 0
M  V30 13133 H 1221.92 -4.04305 -0.178868 0
M  V30 13134 H 1220.49 -3.06783 -0.60023 0
M  V30 13135 H 1219.71 -3.4804 1.85099 0
M  V30 13136 H 1221 -4.6927 1.9663 0
M  V30 13137 H 1220.4 -5.54955 -1.09731 0
M  V30 13138 H 1218.96 -6.45763 -0.885087 0
M  V30 13139 N 1222.39 -0.968567 -1.24324 0
M  V30 13140 C 1223.67 -0.547774 -1.87773 0
M  V30 13141 C 1224.05 0.975107 -1.87229 0
M  V30 13142 O 1223.39 1.84683 -1.34553 0
M  V30 13143 C 1223.6 -1.1403 -3.29846 0
M  V30 13144 C 1224.95 -1.22572 -4.06523 0
M  V30 13145 O 1225.98 -1.09287 -3.3902 0
M  V30 13146 O 1224.83 -1.43579 -5.27302 0
M  V30 13147 H 1221.93 -0.182771 -0.806551 0
M  V30 13148 H 1224.47 -1.06289 -1.3229 0
M  V30 13149 H 1223.25 -2.18303 -3.24745 0
M  V30 13150 H 1222.87 -0.609275 -3.92904 0
M  V30 13151 N 1223.87 1.39211 -0.738786 0
M  V30 13152 C 1225.09 2.05256 -0.297421 0
M  V30 13153 C 1225.52 1.55341 1.06069 0
M  V30 13154 O 1224.87 0.698823 1.67291 0
M  V30 13155 C 1224.92 3.59239 -0.312969 0
M  V30 13156 O 1224.03 4.06448 0.698112 0
M  V30 13157 H 1223.37 0.650245 -0.134454 0
M  V30 13158 H 1225.9 1.78173 -1.00577 0
M  V30 13159 H 1225.91 4.07691 -0.158675 0
M  V30 13160 H 1224.58 3.94931 -1.30394 0
M  V30 13161 H 1223.16 3.69401 0.509643 0
M  V30 13162 N 1225.34 0.486708 1.49896 0
M  V30 13163 C 1226.59 -0.0629451 2.02702 0
M  V30 13164 C 1226.92 -1.37956 1.36681 0
M  V30 13165 O 1226.2 -1.88025 0.497678 0
M  V30 13166 C 1226.48 -0.230461 3.59362 0
M  V30 13167 C 1226.33 1.10828 4.35933 0
M  V30 13168 C 1227.65 -0.977785 4.29101 0
M  V30 13169 H 1224.77 -0.0214017 0.736689 0
M  V30 13170 H 1227.41 0.635339 1.79063 0
M  V30 13171 H 1225.56 -0.825222 3.79634 0
M  V30 13172 H 1227.24 1.74082 4.27192 0
M  V30 13173 H 1225.48 1.7011 3.99055 0
M  V30 13174 H 1226.15 0.944532 5.43859 0
M  V30 13175 H 1228.63 -0.473505 4.13397 0
M  V30 13176 H 1227.5 -1.06382 5.38492 0
M  V30 13177 H 1227.76 -2.01813 3.9335 0
M  V30 13178 N 1226.82 -1.56058 0.219941 0
M  V30 13179 C 1227.75 -2.2321 -0.685547 0
M  V30 13180 C 1228.73 -1.20328 -1.20229 0
M  V30 13181 O 1229.92 -1.48909 -1.24659 0
M  V30 13182 C 1227.05 -2.91076 -1.89452 0
M  V30 13183 C 1226 -4.00415 -1.51169 0
M  V30 13184 C 1225.33 -4.55569 -2.79931 0
M  V30 13185 C 1226.63 -5.17549 -0.702896 0
M  V30 13186 H 1228.32 -2.99136 -0.125671 0
M  V30 13187 H 1225.87 -1.43879 -0.0590043 0
M  V30 13188 H 1227.82 -3.36744 -2.53341 0
M  V30 13189 H 1226.55 -2.12594 -2.47934 0
M  V30 13190 H 1225.21 -3.55475 -0.896275 0
M  V30 13191 H 1224.85 -3.73819 -3.36553 0
M  V30 13192 H 1224.55 -5.29361 -2.55049 0
M  V30 13193 H 1226.08 -5.03955 -3.44764 0
M  V30 13194 H 1227.49 -5.59608 -1.24544 0
M  V30 13195 H 1225.89 -5.97563 -0.551234 0
M  V30 13196 H 1226.96 -4.84027 0.29083 0
M  V30 13197 N 1228.3 0.053464 -1.57509 0
M  V30 13198 C 1229.26 1.04604 -2.03938 0
M  V30 13199 C 1230.26 1.30509 -0.939357 0
M  V30 13200 O 1231.45 1.25922 -1.20371 0
M  V30 13201 C 1228.59 2.38516 -2.43563 0
M  V30 13202 H 1229.78 0.645484 -2.92871 0
M  V30 13203 H 1227.33 0.299683 -1.534 0
M  V30 13204 H 1228.07 2.83368 -1.57712 0
M  V30 13205 H 1227.85 2.2105 -3.23851 0
M  V30 13206 H 1229.34 3.09826 -2.79996 0
M  V30 13207 N 1229.78 1.54207 0.325255 0
M  V30 13208 C 1231.03 1.72331 1.0634 0
M  V30 13209 C 1231.35 0.496115 1.88066 0
M  V30 13210 O 1230.61 -0.52214 1.88606 0
M  V30 13211 C 1230.91 2.95 2.01766 0
M  V30 13212 C 1230.57 4.29835 1.36208 0
M  V30 13213 C 1229.24 4.66493 1.18059 0
M  V30 13214 C 1231.59 5.13521 0.891404 0
M  V30 13215 C 1228.92 5.84436 0.514894 0
M  V30 13216 C 1231.27 6.32146 0.239534 0
M  V30 13217 C 1229.93 6.67484 0.0458839 0
M  V30 13218 H 1229.2 0.630605 0.389125 0
M  V30 13219 H 1231.85 1.88445 0.34072 0
M  V30 13220 H 1230.15 2.73567 2.80479 0
M  V30 13221 H 1231.85 3.06217 2.58906 0
M  V30 13222 H 1228.44 4.00993 1.51335 0
M  V30 13223 H 1232.63 4.85718 1.01941 0
M  V30 13224 H 1227.88 6.10376 0.353644 0
M  V30 13225 H 1232.06 6.96273 -0.133185 0
M  V30 13226 H 1229.68 7.58733 -0.471978 0
M  V30 13227 N 1231.26 -0.58723 1.46251 0
M  V30 13228 C 1232.5 -1.34549 1.52539 0
M  V30 13229 C 1232.86 -1.91622 0.172885 0
M  V30 13230 O 1232.15 -1.73267 -0.81787 0
M  V30 13231 C 1232.35 -2.49776 2.5563 0
M  V30 13232 C 1232.17 -2.03991 4.00772 0
M  V30 13233 C 1230.94 -1.89216 4.68535 0
M  V30 13234 C 1233.14 -1.60227 4.88704 0
M  V30 13235 N 1231.12 -1.37454 5.98314 0
M  V30 13236 C 1232.5 -1.20024 6.08271 0
M  V30 13237 C 1234.55 -1.48004 4.75394 0
M  V30 13238 C 1233.25 -0.688163 7.16001 0
M  V30 13239 C 1235.28 -0.981991 5.8319 0
M  V30 13240 C 1234.64 -0.589721 7.01927 0
M  V30 13241 H 1230.74 -0.485499 0.613037 0
M  V30 13242 H 1233.32 -0.669117 1.82841 0
M  V30 13243 H 1231.5 -3.14983 2.27245 0
M  V30 13244 H 1233.23 -3.16715 2.5194 0
M  V30 13245 H 1229.98 -2.11025 4.23988 0
M  V30 13246 H 1230.41 -1.13748 6.67376 0
M  V30 13247 H 1235.05 -1.76951 3.8399 0
M  V30 13248 H 1232.77 -0.386268 8.07176 0
M  V30 13249 H 1236.35 -0.891387 5.74931 0
M  V30 13250 H 1235.23 -0.210279 7.83918 0
M  V30 13251 N 1232.74 -1.33881 -0.831482 0
M  V30 13252 C 1233.68 -1.24748 -1.94182 0
M  V30 13253 C 1234.65 -0.124516 -1.65633 0
M  V30 13254 O 1235.84 -0.304045 -1.88362 0
M  V30 13255 C 1232.98 -1.00016 -3.30289 0
M  V30 13256 C 1232.09 -2.21007 -3.71187 0
M  V30 13257 C 1231.23 -1.89629 -4.962 0
M  V30 13258 C 1230.26 -3.06811 -5.29654 0
M  V30 13259 N 1229.4 -2.75372 -6.45844 0
M  V30 13260 H 1234.24 -2.19709 -2.01325 0
M  V30 13261 H 1231.78 -1.09245 -0.985081 0
M  V30 13262 H 1233.74 -0.837167 -4.08714 0
M  V30 13263 H 1232.37 -0.0872582 -3.22682 0
M  V30 13264 H 1231.42 -2.48256 -2.88224 0
M  V30 13265 H 1232.73 -3.08587 -3.91887 0
M  V30 13266 H 1231.88 -1.70016 -5.82391 0
M  V30 13267 H 1230.62 -0.992964 -4.77485 0
M  V30 13268 H 1229.63 -3.27029 -4.41964 0
M  V30 13269 H 1230.85 -3.97909 -5.50314 0
M  V30 13270 H 1228.8 -1.87607 -6.28601 0
M  V30 13271 H 1228.72 -3.56483 -6.66675 0
M  V30 13272 H 1229.98 -2.59244 -7.35128 0
M  V30 13273 N 1234.21 1.05064 -1.1747 0
M  V30 13274 C 1235.16 2.11131 -0.860692 0
M  V30 13275 C 1236.15 1.60049 0.165288 0
M  V30 13276 O 1237.34 1.76961 -0.0373288 0
M  V30 13277 C 1234.47 3.41222 -0.37718 0
M  V30 13278 C 1233.55 3.99097 -1.43466 0
M  V30 13279 N 1233.95 4.30918 -2.64846 0
M  V30 13280 C 1232.24 4.26851 -1.29282 0
M  V30 13281 C 1232.94 4.77092 -3.32804 0
M  V30 13282 N 1231.92 4.77291 -2.60182 0
M  V30 13283 H 1235.72 2.33597 -1.78353 0
M  V30 13284 H 1233.24 1.22724 -1.06361 0
M  V30 13285 H 1235.23 4.16685 -0.133766 0
M  V30 13286 H 1233.89 3.20188 0.53944 0
M  V30 13287 H 1234.9 4.20877 -3.01799 0
M  V30 13288 H 1231.58 4.15197 -0.437949 0
M  V30 13289 H 1232.97 5.10815 -4.36483 0
M  V30 13290 N 1235.69 0.975146 1.23809 0
M  V30 13291 C 1236.94 0.639858 1.91704 0
M  V30 13292 C 1237.26 -0.828557 1.76522 0
M  V30 13293 O 1236.53 -1.59217 1.14135 0
M  V30 13294 H 1235.11 0.233667 0.709513 0
M  V30 13295 H 1237.77 1.23782 1.50545 0
M  V30 13296 H 1236.87 0.886915 2.99233 0
M  V30 13297 N 1237.17 -1.38817 0.746158 0
M  V30 13298 C 1238.1 -2.28116 0.0620717 0
M  V30 13299 C 1239.08 -1.44984 -0.736097 0
M  V30 13300 O 1240.26 -1.7436 -0.7163 0
M  V30 13301 C 1237.39 -3.25992 -0.919065 0
M  V30 13302 C 1236.44 -4.25992 -0.208033 0
M  V30 13303 S 1237.27 -5.24374 1.08593 0
M  V30 13304 C 1238.43 -6.25807 0.107674 0
M  V30 13305 H 1238.66 -2.85787 0.819331 0
M  V30 13306 H 1236.19 -1.44708 0.538422 0
M  V30 13307 H 1238.15 -3.82899 -1.47982 0
M  V30 13308 H 1236.81 -2.67318 -1.64924 0
M  V30 13309 H 1236 -4.9495 -0.95084 0
M  V30 13310 H 1235.61 -3.72943 0.280998 0
M  V30 13311 H 1237.9 -6.73568 -0.728905 0
M  V30 13312 H 1238.84 -7.03959 0.764698 0
M  V30 13313 H 1239.25 -5.63855 -0.269706 0
M  V30 13314 N 1238.65 -0.49465 -1.49636 0
M  V30 13315 C 1239.58 0.323781 -2.26902 0
M  V30 13316 C 1240.59 0.936281 -1.33183 0
M  V30 13317 O 1241.78 0.820695 -1.58514 0
M  V30 13318 C 1238.88 1.47025 -3.05347 0
M  V30 13319 C 1238.05 0.966228 -4.26594 0
M  V30 13320 C 1237.11 1.98955 -4.87138 0
M  V30 13321 O 1236.14 1.56065 -5.47387 0
M  V30 13322 N 1237.34 3.3195 -4.76224 0
M  V30 13323 H 1240.11 -0.338716 -2.9778 0
M  V30 13324 H 1237.67 -0.326817 -1.58567 0
M  V30 13325 H 1239.66 2.15225 -3.42725 0
M  V30 13326 H 1238.23 2.03702 -2.37117 0
M  V30 13327 H 1237.45 0.109336 -3.94048 0
M  V30 13328 H 1238.74 0.607781 -5.05157 0
M  V30 13329 H 1238.14 3.69488 -4.28363 0
M  V30 13330 H 1236.69 3.95881 -5.17805 0
M  V30 13331 N 1240.13 1.55939 -0.228214 0
M  V30 13332 C 1241.37 1.98084 0.400884 0
M  V30 13333 C 1241.69 1.11727 1.59819 0
M  V30 13334 O 1240.96 0.195794 1.94919 0
M  V30 13335 H 1239.54 0.731558 0.151102 0
M  V30 13336 H 1242.21 1.92211 -0.322659 0
M  V30 13337 H 1241.3 3.03617 0.722706 0
M  V30 13338 N 1241.6 -0.0451101 1.57535 0
M  V30 13339 C 1243.02 -0.400463 1.54494 0
M  V30 13340 C 1243.22 -1.77584 0.952166 0
M  V30 13341 O 1242.28 -2.46069 0.566221 0
M  V30 13342 C 1243.59 -0.31703 2.99024 0
M  V30 13343 C 1245.14 -0.395284 3.10494 0
M  V30 13344 C 1245.61 -0.341475 4.56725 0
M  V30 13345 N 1247.1 -0.400755 4.61463 0
M  V30 13346 C 1247.84 -0.381757 5.72128 0
M  V30 13347 N 1247.33 -0.315995 6.92079 0
M  V30 13348 N 1249.13 -0.4303 5.60451 0
M  V30 13349 H 1241.28 0.855156 1.94424 0
M  V30 13350 H 1243.54 0.323618 0.891053 0
M  V30 13351 H 1243.25 0.627477 3.46057 0
M  V30 13352 H 1243.12 -1.11696 3.60283 0
M  V30 13353 H 1245.51 -1.33022 2.63418 0
M  V30 13354 H 1245.59 0.433709 2.52096 0
M  V30 13355 H 1245.23 0.589725 5.04465 0
M  V30 13356 H 1245.16 -1.18836 5.13016 0
M  V30 13357 H 1247.65 -0.454745 3.75154 0
M  V30 13358 H 1247.97 -0.306158 7.72193 0
M  V30 13359 H 1246.31 -0.282281 6.94427 0
M  V30 13360 H 1249.5 -0.479555 4.65637 0
M  V30 13361 H 1249.68 -0.412025 6.46689 0
M  V30 13362 N 1243.08 -1.54377 -0.317073 0
M  V30 13363 C 1244.31 -1.77184 -1.07798 0
M  V30 13364 C 1244.73 -0.52204 -1.80711 0
M  V30 13365 O 1244.09 0.52672 -1.7348 0
M  V30 13366 C 1244.14 -2.96887 -2.04671 0
M  V30 13367 O 1243.24 -2.68887 -3.12688 0
M  V30 13368 H 1242.58 -0.586937 -0.310485 0
M  V30 13369 H 1245.11 -2.01419 -0.35939 0
M  V30 13370 H 1245.12 -3.24414 -2.47426 0
M  V30 13371 H 1243.8 -3.87518 -1.51005 0
M  V30 13372 H 1242.38 -2.52329 -2.74562 0
M  V30 13373 N 1244.56 0.579466 -1.4656 0
M  V30 13374 C 1245.81 1.33756 -1.52038 0
M  V30 13375 C 1246.14 1.93725 -0.173423 0
M  V30 13376 O 1245.39 1.77167 0.831293 0
M  V30 13377 C 1245.69 2.48417 -2.56951 0
M  V30 13378 C 1245.36 2.0642 -4.00876 0
M  V30 13379 C 1244.02 1.94682 -4.4006 0
M  V30 13380 C 1246.37 1.74066 -4.91274 0
M  V30 13381 C 1243.7 1.48852 -5.67503 0
M  V30 13382 C 1246.05 1.29714 -6.19158 0
M  V30 13383 C 1244.71 1.16555 -6.57245 0
M  V30 13384 H 1243.98 0.489447 -0.556347 0
M  V30 13385 H 1246.63 0.652176 -1.80053 0
M  V30 13386 H 1244.94 3.22416 -2.2261 0
M  V30 13387 H 1246.63 3.06629 -2.58418 0
M  V30 13388 H 1243.22 2.16492 -3.69904 0
M  V30 13389 H 1247.41 1.82019 -4.61717 0
M  V30 13390 H 1242.66 1.3731 -5.95782 0
M  V30 13391 H 1246.84 1.03734 -6.88631 0
M  V30 13392 H 1244.46 0.808193 -7.55892 0
M  V30 13393 N 1246.04 1.3432 0.824371 0
M  V30 13394 C 1247.45 1.1397 1.11727 0
M  V30 13395 C 1247.65 -0.0597597 2.01411 0
M  V30 13396 O 1246.71 -0.735717 2.41544 0
M  V30 13397 C 1248.02 2.43423 1.76538 0
M  V30 13398 C 1249.57 2.49466 1.89039 0
M  V30 13399 C 1250.05 3.78917 2.57266 0
M  V30 13400 N 1251.54 3.8007 2.64767 0
M  V30 13401 C 1252.27 4.76953 3.18282 0
M  V30 13402 N 1251.77 5.84217 3.72373 0
M  V30 13403 N 1253.56 4.6441 3.1667 0
M  V30 13404 H 1245.71 2.11175 0.227802 0
M  V30 13405 H 1247.98 0.933774 0.163615 0
M  V30 13406 H 1247.68 3.31278 1.18102 0
M  V30 13407 H 1247.56 2.56655 2.7642 0
M  V30 13408 H 1249.94 1.62052 2.46623 0
M  V30 13409 H 1250.02 2.40163 0.880635 0
M  V30 13410 H 1249.67 4.6672 2.00336 0
M  V30 13411 H 1249.6 3.85502 3.58742 0
M  V30 13412 H 1252.09 3.02556 2.26425 0
M  V30 13413 H 1252.4 6.54159 4.11455 0
M  V30 13414 H 1250.75 5.87933 3.70621 0
M  V30 13415 H 1253.94 3.7976 2.73678 0
M  V30 13416 H 1254.11 5.40081 3.58073 0
M  V30 13417 N 1247.52 -1.0444 1.18026 0
M  V30 13418 C 1248.74 -1.81772 0.998684 0
M  V30 13419 C 1249.17 -1.82682 -0.448225 0
M  V30 13420 O 1248.52 -1.24136 -1.32136 0
M  V30 13421 C 1248.57 -3.2542 1.55352 0
M  V30 13422 O 1247.68 -4.05103 0.772351 0
M  V30 13423 H 1247.02 -0.561731 0.354054 0
M  V30 13424 H 1249.55 -1.31557 1.56697 0
M  V30 13425 H 1249.56 -3.76206 1.57903 0
M  V30 13426 H 1248.23 -3.24073 2.60672 0
M  V30 13427 H 1246.81 -3.63798 0.818852 0
M  V30 13428 N 1248.99 -0.981699 -1.2329 0
M  V30 13429 C 1249.94 -0.515432 -2.26817 0
M  V30 13430 C 1250.94 0.428204 -1.63899 0
M  V30 13431 O 1252.14 0.301954 -1.77449 0
M  V30 13432 H 1248.52 -0.148257 -0.737241 0
M  V30 13433 H 1250.49 -1.40027 -2.63505 0
M  V30 13434 C 1249.24 0.165266 -3.47307 0
M  V30 13435 H 1248.56 -0.55176 -3.95974 0
M  V30 13436 H 1250 0.45513 -4.2155 0
M  V30 13437 C 1248.46 1.39693 -3.06574 0
M  V30 13438 O 1248.99 2.49308 -3.14974 0
M  V30 13439 N 1247.2 1.26806 -2.61474 0
M  V30 13440 H 1246.74 0.376161 -2.54839 0
M  V30 13441 H 1246.7 2.09324 -2.34587 0
M  V30 13442 N 1250.47 1.3842 -0.753509 0
M  V30 13443 C 1251.38 2.34252 -0.127811 0
M  V30 13444 C 1252.4 1.59266 0.700743 0
M  V30 13445 O 1253.57 1.9146 0.624914 0
M  V30 13446 C 1250.64 3.38382 0.754886 0
M  V30 13447 C 1249.7 4.2921 -0.0880312 0
M  V30 13448 C 1248.93 5.28367 0.75263 0
M  V30 13449 O 1249.16 5.34537 1.99064 0
M  V30 13450 O 1248.09 6.01656 0.171475 0
M  V30 13451 H 1251.92 2.89454 -0.91925 0
M  V30 13452 H 1249.5 1.40265 -0.514404 0
M  V30 13453 H 1251.38 4.02141 1.25938 0
M  V30 13454 H 1250.06 2.85536 1.52482 0
M  V30 13455 H 1248.97 3.68611 -0.638468 0
M  V30 13456 H 1250.3 4.85311 -0.82062 0
M  V30 13457 N 1251.95 0.502579 1.49372 0
M  V30 13458 C 1253.2 -0.0414423 2.02758 0
M  V30 13459 C 1253.53 -1.36499 1.38136 0
M  V30 13460 O 1252.8 -1.87487 0.517593 0
M  V30 13461 C 1253.09 -0.192333 3.59586 0
M  V30 13462 C 1252.94 1.15445 4.34733 0
M  V30 13463 C 1254.26 -0.932218 4.30114 0
M  V30 13464 H 1251.38 -0.0135869 0.736875 0
M  V30 13465 H 1254.02 0.654296 1.78379 0
M  V30 13466 H 1252.17 -0.78491 3.80488 0
M  V30 13467 H 1253.84 1.78603 4.25322 0
M  V30 13468 H 1252.09 1.74333 3.97228 0
M  V30 13469 H 1252.76 1.00216 5.42827 0
M  V30 13470 H 1255.23 -0.429632 4.13876 0
M  V30 13471 H 1254.11 -1.00664 5.39591 0
M  V30 13472 H 1254.37 -1.9763 3.95468 0
M  V30 13473 N 1253.43 -1.55816 0.23648 0
M  V30 13474 C 1254.66 -2.03083 -0.395584 0
M  V30 13475 C 1255.07 -1.11599 -1.52286 0
M  V30 13476 O 1254.43 -0.128403 -1.82048 0
M  V30 13477 C 1254.48 -3.49776 -0.913197 0
M  V30 13478 O 1254.2 -4.37773 0.169151 0
M  V30 13479 C 1255.7 -4.12756 -1.617 0
M  V30 13480 H 1252.92 -0.66421 -0.0952146 0
M  V30 13481 H 1255.47 -2.01354 0.357299 0
M  V30 13482 H 1253.62 -3.52072 -1.6163 0
M  V30 13483 H 1254.03 -5.24029 -0.222217 0
M  V30 13484 H 1255.51 -5.17123 -1.93101 0
M  V30 13485 H 1255.99 -3.58631 -2.53537 0
M  V30 13486 H 1256.59 -4.14353 -0.958736 0
M  V30 13487 N 1254.91 0.036755 -1.57557 0
M  V30 13488 C 1255.84 1.06718 -2.0284 0
M  V30 13489 C 1256.85 1.32926 -0.939917 0
M  V30 13490 O 1258.04 1.30549 -1.21734 0
M  V30 13491 C 1255.14 2.41054 -2.38214 0
M  V30 13492 C 1254.31 2.3431 -3.69347 0
M  V30 13493 C 1253.37 3.51034 -3.91997 0
M  V30 13494 O 1252.4 3.30875 -4.63152 0
M  V30 13495 N 1253.6 4.72634 -3.37042 0
M  V30 13496 H 1256.37 0.681275 -2.91854 0
M  V30 13497 H 1253.93 0.224836 -1.60331 0
M  V30 13498 H 1255.92 3.17847 -2.5051 0
M  V30 13499 H 1254.49 2.71517 -1.5491 0
M  V30 13500 H 1253.71 1.42668 -3.67477 0
M  V30 13501 H 1255 2.2694 -4.55385 0
M  V30 13502 H 1254.39 4.91914 -2.79352 0
M  V30 13503 H 1252.95 5.46818 -3.5473 0
M  V30 13504 N 1256.39 1.54543 0.308881 0
M  V30 13505 C 1257.3 1.87994 1.4034 0
M  V30 13506 C 1258.31 0.773294 1.55872 0
M  V30 13507 O 1259.49 1.069 1.70688 0
M  V30 13508 C 1256.55 2.11341 2.74838 0
M  V30 13509 C 1255.61 3.35086 2.68358 0
M  V30 13510 C 1254.85 3.5731 3.96441 0
M  V30 13511 O 1255.07 2.82692 4.9542 0
M  V30 13512 O 1254 4.50814 3.98811 0
M  V30 13513 H 1257.83 2.81094 1.14976 0
M  V30 13514 H 1255.41 1.40634 0.504236 0
M  V30 13515 H 1257.3 2.27943 3.54429 0
M  V30 13516 H 1255.97 1.21427 3.00062 0
M  V30 13517 H 1254.88 3.23855 1.87267 0
M  V30 13518 H 1256.21 4.25104 2.48087 0
M  V30 13519 N 1257.86 -0.571685 1.46866 0
M  V30 13520 C 1259.11 -1.32574 1.5201 0
M  V30 13521 C 1259.43 -1.94762 0.180838 0
M  V30 13522 O 1260.63 -2.71276 0.110158 0
M  V30 13523 C 1259.09 -2.40331 2.67897 0
M  V30 13524 C 1258.7 -1.84398 4.08291 0
M  V30 13525 C 1260.44 -3.17009 2.82321 0
M  V30 13526 C 1258.35 -2.89849 5.15501 0
M  V30 13527 H 1257.28 -0.498428 0.565761 0
M  V30 13528 H 1259.93 -0.608853 1.73105 0
M  V30 13529 H 1258.31 -3.14869 2.40153 0
M  V30 13530 H 1259.48 -1.16329 4.45875 0
M  V30 13531 H 1257.8 -1.20351 3.98628 0
M  V30 13532 H 1260.4 -3.95729 3.59587 0
M  V30 13533 H 1260.74 -3.70292 1.90236 0
M  V30 13534 H 1261.27 -2.4958 3.09765 0
M  V30 13535 H 1258.01 -2.4144 6.09415 0
M  V30 13536 H 1257.53 -3.56372 4.82451 0
M  V30 13537 H 1259.21 -3.53603 5.41825 0
M  V30 13538 N 1259.34 -1.34755 -0.817236 0
M  V30 13539 C 1260.57 -1.30676 -1.61054 0
M  V30 13540 C 1260.99 0.115343 -1.87746 0
M  V30 13541 O 1260.35 1.07887 -1.45705 0
M  V30 13542 C 1260.4 -2.10881 -2.92509 0
M  V30 13543 O 1259.5 -1.48223 -3.84842 0
M  V30 13544 H 1258.84 -0.448531 -0.489608 0
M  V30 13545 H 1261.37 -1.77642 -1.01512 0
M  V30 13546 H 1261.38 -2.22446 -3.42026 0
M  V30 13547 H 1260.06 -3.14274 -2.72406 0
M  V30 13548 H 1258.63 -1.45434 -3.4337 0
M  V30 13549 N 1260.82 1.03812 -1.18578 0
M  V30 13550 C 1262.1 1.74062 -0.892288 0
M  V30 13551 C 1262.48 2.02267 0.604256 0
M  V30 13552 O 1261.82 1.66988 1.55972 0
M  V30 13553 C 1262.03 3.024 -1.74228 0
M  V30 13554 C 1263.38 3.76088 -1.97087 0
M  V30 13555 O 1264.41 3.12305 -1.71302 0
M  V30 13556 O 1263.27 4.90732 -2.40509 0
M  V30 13557 H 1260.36 0.757567 -0.331695 0
M  V30 13558 H 1262.91 1.09855 -1.29345 0
M  V30 13559 H 1261.68 2.77713 -2.75665 0
M  V30 13560 H 1261.3 3.74346 -1.3398 0
M  V30 13561 N 1262.3 0.988223 1.22768 0
M  V30 13562 C 1263.52 0.679426 1.95955 0
M  V30 13563 C 1263.95 -0.748483 1.72567 0
M  V30 13564 O 1263.31 -1.51097 1.00197 0
M  V30 13565 C 1263.35 0.985284 3.46878 0
M  V30 13566 O 1262.46 0.0814607 4.1232 0
M  V30 13567 H 1261.8 0.254749 0.613188 0
M  V30 13568 H 1264.33 1.32393 1.55991 0
M  V30 13569 H 1264.34 0.925198 3.97371 0
M  V30 13570 H 1263.01 2.02581 3.63227 0
M  V30 13571 H 1261.59 0.196629 3.72381 0
M  V30 13572 N 1263.78 -1.38018 0.760839 0
M  V30 13573 C 1265 -2.04231 0.331285 0
M  V30 13574 C 1265.42 -1.57385 -1.04285 0
M  V30 13575 O 1264.78 -0.750168 -1.66369 0
M  V30 13576 C 1264.83 -3.59772 0.353021 0
M  V30 13577 O 1264.55 -4.049 1.67294 0
M  V30 13578 C 1266.05 -4.4321 -0.0894942 0
M  V30 13579 H 1263.27 -0.656145 0.140408 0
M  V30 13580 H 1265.81 -1.76567 1.03172 0
M  V30 13581 H 1263.97 -3.86246 -0.298735 0
M  V30 13582 H 1264.38 -4.99369 1.60408 0
M  V30 13583 H 1265.86 -5.51995 -0.0231262 0
M  V30 13584 H 1266.33 -4.2419 -1.13839 0
M  V30 13585 H 1266.94 -4.21939 0.533661 0
M  V30 13586 N 1265.25 -0.510493 -1.49103 0
M  V30 13587 C 1266.67 -0.167061 -1.58723 0
M  V30 13588 C 1266.87 1.32886 -1.51471 0
M  V30 13589 O 1265.93 2.10559 -1.39359 0
M  V30 13590 C 1267.24 -0.752293 -2.91137 0
M  V30 13591 C 1268.79 -0.719258 -3.04624 0
M  V30 13592 C 1269.26 -1.28272 -4.39671 0
M  V30 13593 N 1270.75 -1.24383 -4.46187 0
M  V30 13594 C 1271.49 -1.6499 -5.4915 0
M  V30 13595 N 1270.98 -2.13235 -6.59168 0
M  V30 13596 N 1272.78 -1.56348 -5.39918 0
M  V30 13597 H 1264.93 -1.48296 -1.5206 0
M  V30 13598 H 1267.19 -0.615683 -0.72086 0
M  V30 13599 H 1266.9 -1.80178 -3.02041 0
M  V30 13600 H 1266.77 -0.218152 -3.76569 0
M  V30 13601 H 1269.16 0.321413 -2.93344 0
M  V30 13602 H 1269.24 -1.29065 -2.20852 0
M  V30 13603 H 1268.88 -2.32222 -4.51703 0
M  V30 13604 H 1268.81 -0.687179 -5.22097 0
M  V30 13605 H 1271.3 -0.890446 -3.67259 0
M  V30 13606 H 1271.62 -2.42266 -7.33844 0
M  V30 13607 H 1269.96 -2.17216 -6.60183 0
M  V30 13608 H 1273.15 -1.18469 -4.52861 0
M  V30 13609 H 1273.33 -1.88317 -6.20033 0
M  V30 13610 N 1266.73 1.55688 -0.24474 0
M  V30 13611 C 1267.98 1.98067 0.381081 0
M  V30 13612 C 1268.29 1.13606 1.59227 0
M  V30 13613 O 1269.5 1.45988 2.2891 0
M  V30 13614 C 1267.96 3.52432 0.729385 0
M  V30 13615 C 1267.56 4.45629 -0.460282 0
M  V30 13616 C 1269.31 4.03471 1.31952 0
M  V30 13617 C 1267.21 5.91334 -0.088252 0
M  V30 13618 H 1266.14 0.739699 0.146157 0
M  V30 13619 H 1268.8 1.80235 -0.344615 0
M  V30 13620 H 1267.18 3.65951 1.51315 0
M  V30 13621 H 1268.35 4.43868 -1.23764 0
M  V30 13622 H 1266.67 4.05059 -0.965197 0
M  V30 13623 H 1269.26 5.09849 1.61116 0
M  V30 13624 H 1269.61 3.50691 2.24325 0
M  V30 13625 H 1270.14 3.93269 0.5987 0
M  V30 13626 H 1266.88 6.48147 -0.979069 0
M  V30 13627 H 1266.4 5.96235 0.652947 0
M  V30 13628 H 1268.08 6.46156 0.330324 0
M  V30 13629 N 1268.21 -0.0283989 1.57574 0
M  V30 13630 C 1269.46 -0.719077 1.89303 0
M  V30 13631 C 1269.78 -1.75325 0.84211 0
M  V30 13632 O 1269.04 -1.95071 -0.15683 0
M  V30 13633 C 1269.34 -1.4247 3.27776 0
M  V30 13634 C 1269 -0.526442 4.47816 0
M  V30 13635 C 1267.67 -0.279038 4.8039 0
M  V30 13636 C 1270.02 0.0937038 5.21116 0
M  V30 13637 C 1267.35 0.597277 5.83652 0
M  V30 13638 C 1269.7 0.957725 6.25308 0
M  V30 13639 C 1268.36 1.21458 6.56357 0
M  V30 13640 H 1267.63 -0.263129 0.692708 0
M  V30 13641 H 1270.28 0.0210252 1.91488 0
M  V30 13642 H 1268.58 -2.23813 3.21582 0
M  V30 13643 H 1270.28 -1.96466 3.49574 0
M  V30 13644 H 1266.87 -0.729426 4.22347 0
M  V30 13645 H 1271.06 -0.084469 4.96228 0
M  V30 13646 H 1266.31 0.804582 6.06083 0
M  V30 13647 H 1270.49 1.44476 6.81249 0
M  V30 13648 H 1268.11 1.89534 7.36193 0
M  V30 13649 N 1269.69 -1.54705 -0.300681 0
M  V30 13650 C 1271.1 -1.45926 -0.646359 0
M  V30 13651 C 1271.3 -0.65072 -1.90704 0
M  V30 13652 O 1270.36 -0.158547 -2.52002 0
M  V30 13653 C 1271.67 -2.89889 -0.799059 0
M  V30 13654 C 1273.22 -2.99934 -0.894923 0
M  V30 13655 C 1273.7 -4.45093 -1.07962 0
M  V30 13656 N 1275.19 -4.48804 -1.14581 0
M  V30 13657 C 1275.92 -5.58305 -1.30702 0
M  V30 13658 N 1275.42 -6.77729 -1.43719 0
M  V30 13659 N 1277.21 -5.45994 -1.33593 0
M  V30 13660 H 1269.36 -2.05742 0.527617 0
M  V30 13661 H 1271.62 -0.931817 0.174415 0
M  V30 13662 H 1271.33 -3.51655 0.0563954 0
M  V30 13663 H 1271.2 -3.37325 -1.68796 0
M  V30 13664 H 1273.59 -2.38281 -1.74086 0
M  V30 13665 H 1273.67 -2.55794 0.0179973 0
M  V30 13666 H 1273.32 -5.0734 -0.238444 0
M  V30 13667 H 1273.25 -4.86864 -2.00677 0
M  V30 13668 H 1275.74 -3.62766 -1.05874 0
M  V30 13669 H 1276.05 -7.56937 -1.55776 0
M  V30 13670 H 1274.4 -6.80594 -1.40774 0
M  V30 13671 H 1277.59 -4.51641 -1.23035 0
M  V30 13672 H 1277.76 -6.31381 -1.45813 0
M  V30 13673 N 1271.17 0.563888 -1.47167 0
M  V30 13674 C 1272.1 1.68137 -1.62025 0
M  V30 13675 C 1273.08 1.63481 -0.469899 0
M  V30 13676 O 1274.26 1.81206 -0.698432 0
M  V30 13677 C 1271.39 3.06779 -1.62801 0
M  V30 13678 C 1270.35 3.26278 -2.76996 0
M  V30 13679 C 1269.67 4.65638 -2.62841 0
M  V30 13680 C 1270.97 3.12295 -4.18651 0
M  V30 13681 H 1272.67 1.55958 -2.55573 0
M  V30 13682 H 1270.21 0.74887 -1.22996 0
M  V30 13683 H 1272.17 3.84795 -1.71787 0
M  V30 13684 H 1270.89 3.19901 -0.658097 0
M  V30 13685 H 1269.55 2.50668 -2.67509 0
M  V30 13686 H 1269.2 4.75551 -1.63892 0
M  V30 13687 H 1268.9 4.79635 -3.39447 0
M  V30 13688 H 1270.42 5.45798 -2.73746 0
M  V30 13689 H 1271.83 3.80136 -4.2915 0
M  V30 13690 H 1270.23 3.37805 -4.95992 0
M  V30 13691 H 1271.3 2.09126 -4.37486 0
M  V30 13692 N 1272.64 1.35187 0.810078 0
M  V30 13693 C 1273.57 1.30481 1.93641 0
M  V30 13694 C 1274.56 0.179875 1.69146 0
M  V30 13695 O 1275.74 0.374284 1.90559 0
M  V30 13696 C 1272.87 1.07251 3.30325 0
M  V30 13697 C 1271.82 2.16348 3.69293 0
M  V30 13698 C 1271.15 1.78288 5.04101 0
M  V30 13699 C 1272.45 3.58285 3.80038 0
M  V30 13700 H 1274.14 2.24725 1.97836 0
M  V30 13701 H 1271.69 1.08179 0.950436 0
M  V30 13702 H 1273.64 1.02599 4.08719 0
M  V30 13703 H 1272.37 0.0945203 3.26463 0
M  V30 13704 H 1271.03 2.2009 2.93182 0
M  V30 13705 H 1270.67 0.791163 4.96739 0
M  V30 13706 H 1270.37 2.51315 5.31144 0
M  V30 13707 H 1271.9 1.75155 5.84938 0
M  V30 13708 H 1273.31 3.56884 4.48672 0
M  V30 13709 H 1271.71 4.30044 4.18548 0
M  V30 13710 H 1272.78 3.94691 2.81685 0
M  V30 13711 N 1274.12 -1.03182 1.19127 0
M  V30 13712 C 1275.37 -1.76184 0.990134 0
M  V30 13713 C 1275.69 -1.88986 -0.480546 0
M  V30 13714 O 1274.96 -1.4213 -1.34817 0
M  V30 13715 H 1273.54 -0.652668 0.363364 0
M  V30 13716 H 1276.2 -1.24481 1.49968 0
M  V30 13717 H 1275.3 -2.77119 1.43568 0
M  V30 13718 N 1275.6 -0.99472 -1.22242 0
M  V30 13719 C 1276.83 -0.689809 -1.95592 0
M  V30 13720 C 1277.25 0.739321 -1.72961 0
M  V30 13721 O 1276.61 1.50563 -1.00997 0
M  V30 13722 C 1276.66 -1.00367 -3.46351 0
M  V30 13723 O 1275.76 -0.103326 -4.12271 0
M  V30 13724 H 1275.1 -0.257997 -0.611828 0
M  V30 13725 H 1277.63 -1.33219 -1.55286 0
M  V30 13726 H 1277.64 -0.946259 -3.96875 0
M  V30 13727 H 1276.32 -2.04504 -3.62148 0
M  V30 13728 H 1274.89 -0.216374 -3.72272 0
M  V30 13729 N 1277.08 1.37613 -0.768148 0
M  V30 13730 C 1278.36 1.93921 -0.255724 0
M  V30 13731 C 1278.74 1.70215 1.2486 0
M  V30 13732 O 1278.08 1.0489 2.03003 0
M  V30 13733 C 1278.29 3.43354 -0.625204 0
M  V30 13734 C 1279.64 4.20439 -0.592978 0
M  V30 13735 O 1280.67 3.51701 -0.564375 0
M  V30 13736 O 1279.52 5.43008 -0.616849 0
M  V30 13737 H 1276.62 0.824968 -0.0579366 0
M  V30 13738 H 1279.16 1.46921 -0.849257 0
M  V30 13739 H 1277.94 3.54177 -1.66356 0
M  V30 13740 H 1277.56 3.976 -0.00442816 0
M  V30 13741 N 1278.56 0.518393 1.4883 0
M  V30 13742 C 1279.97 0.175476 1.58632 0
M  V30 13743 C 1280.17 -1.32081 1.52174 0
M  V30 13744 O 1279.23 -2.09817 1.40474 0
M  V30 13745 C 1280.54 0.767722 2.90734 0
M  V30 13746 C 1282.09 0.735402 3.04238 0
M  V30 13747 C 1282.56 1.30602 4.38984 0
M  V30 13748 N 1284.06 1.26748 4.45521 0
M  V30 13749 C 1284.79 1.679 5.48267 0
M  V30 13750 N 1284.29 2.16728 6.58028 0
M  V30 13751 N 1286.08 1.59209 5.39082 0
M  V30 13752 H 1278.23 1.491 1.51271 0
M  V30 13753 H 1280.49 0.619497 0.717584 0
M  V30 13754 H 1280.2 1.81777 3.01081 0
M  V30 13755 H 1280.07 0.238119 3.76448 0
M  V30 13756 H 1282.46 -0.305852 2.93511 0
M  V30 13757 H 1282.54 1.30235 2.20165 0
M  V30 13758 H 1282.19 2.34614 4.50465 0
M  V30 13759 H 1282.12 0.714858 5.21725 0
M  V30 13760 H 1284.61 0.90991 3.66782 0
M  V30 13761 H 1284.92 2.46154 7.32549 0
M  V30 13762 H 1283.26 2.20714 6.59022 0
M  V30 13763 H 1286.46 1.20869 4.52226 0
M  V30 13764 H 1286.63 1.91602 6.19025 0
M  V30 13765 N 1280.03 -1.55556 0.252993 0
M  V30 13766 C 1281.28 -1.99385 -0.370599 0
M  V30 13767 C 1281.61 -1.14101 -1.57145 0
M  V30 13768 O 1280.89 -0.205828 -1.93408 0
M  V30 13769 C 1281.17 -3.51672 -0.774503 0
M  V30 13770 C 1281.02 -4.47719 0.432159 0
M  V30 13771 C 1282.34 -4.0923 -1.61923 0
M  V30 13772 H 1279.46 -0.724858 -0.133231 0
M  V30 13773 H 1282.1 -1.86644 0.355522 0
M  V30 13774 H 1280.25 -3.62661 -1.39318 0
M  V30 13775 H 1281.93 -4.48704 1.07063 0
M  V30 13776 H 1280.17 -4.2029 1.07419 0
M  V30 13777 H 1280.84 -5.51898 0.106123 0
M  V30 13778 H 1283.32 -4.01381 -1.09693 0
M  V30 13779 H 1282.19 -5.16039 -1.87068 0
M  V30 13780 H 1282.45 -3.58067 -2.59307 0
M  V30 13781 N 1281.51 0.0200419 -1.57587 0
M  V30 13782 C 1282.76 0.710078 -1.89962 0
M  V30 13783 C 1283.09 1.74521 -0.851829 0
M  V30 13784 O 1282.37 1.94052 0.132005 0
M  V30 13785 C 1282.65 1.37145 -3.32961 0
M  V30 13786 C 1282.5 0.349221 -4.48442 0
M  V30 13787 C 1283.82 2.30304 -3.75031 0
M  V30 13788 H 1280.94 0.25667 -0.690862 0
M  V30 13789 H 1283.58 -0.0271362 -1.89981 0
M  V30 13790 H 1281.73 1.99981 -3.33076 0
M  V30 13791 H 1283.4 -0.277916 -4.60462 0
M  V30 13792 H 1281.65 -0.330594 -4.32538 0
M  V30 13793 H 1282.32 0.850636 -5.45406 0
M  V30 13794 H 1284.79 1.77503 -3.7634 0
M  V30 13795 H 1283.67 2.73555 -4.75877 0
M  V30 13796 H 1283.93 3.17364 -3.07786 0
M  V30 13797 N 1282.99 1.54862 0.292472 0
M  V30 13798 C 1284.24 1.74807 1.02813 0
M  V30 13799 C 1284.57 0.536935 1.8663 0
M  V30 13800 O 1283.84 -0.465854 1.88839 0
M  V30 13801 C 1284.13 3.04202 1.927 0
M  V30 13802 C 1283.98 4.35631 1.12006 0
M  V30 13803 C 1285.3 3.29514 2.91734 0
M  V30 13804 H 1282.42 0.636015 0.372362 0
M  V30 13805 H 1285.06 1.87583 0.302069 0
M  V30 13806 H 1283.21 2.9344 2.54608 0
M  V30 13807 H 1284.88 4.58323 0.52319 0
M  V30 13808 H 1283.13 4.31733 0.42298 0
M  V30 13809 H 1283.8 5.22454 1.78172 0
M  V30 13810 H 1286.27 3.39941 2.39957 0
M  V30 13811 H 1285.15 4.21352 3.51786 0
M  V30 13812 H 1285.41 2.48216 3.65843 0
M  V30 13813 N 1284.47 -0.556076 1.47464 0
M  V30 13814 C 1285.4 -1.67275 1.62915 0
M  V30 13815 C 1286.38 -1.63229 0.478562 0
M  V30 13816 O 1287.56 -1.80833 0.708032 0
M  V30 13817 C 1284.69 -3.05911 1.64426 0
M  V30 13818 C 1283.65 -3.24804 2.78722 0
M  V30 13819 C 1282.97 -4.64238 2.65307 0
M  V30 13820 C 1284.27 -3.10071 4.20302 0
M  V30 13821 H 1285.97 -1.54601 2.56396 0
M  V30 13822 H 1283.51 -0.742337 1.23391 0
M  V30 13823 H 1285.47 -3.83878 1.73826 0
M  V30 13824 H 1284.19 -3.19547 0.675053 0
M  V30 13825 H 1282.85 -2.49246 2.68835 0
M  V30 13826 H 1282.5 -4.74675 1.66412 0
M  V30 13827 H 1282.2 -4.77828 3.41986 0
M  V30 13828 H 1283.72 -5.44339 2.76637 0
M  V30 13829 H 1285.14 -3.77855 4.3116 0
M  V30 13830 H 1283.53 -3.3517 4.97776 0
M  V30 13831 H 1284.6 -2.06803 4.38589 0
M  V30 13832 N 1285.95 -1.35615 -0.802897 0
M  V30 13833 C 1286.86 -1.3096 -1.94645 0
M  V30 13834 C 1287.87 -0.213909 -1.7268 0
M  V30 13835 O 1289.05 -0.443932 -1.96446 0
M  V30 13836 C 1286.11 -1.08483 -3.2929 0
M  V30 13837 C 1285.18 -2.27401 -3.64126 0
M  V30 13838 C 1284.41 -2.05987 -4.92347 0
M  V30 13839 O 1284.63 -1.02819 -5.61057 0
M  V30 13840 O 1283.57 -2.93439 -5.25526 0
M  V30 13841 H 1287.39 -2.27209 -2.01519 0
M  V30 13842 H 1284.98 -1.16024 -0.941214 0
M  V30 13843 H 1286.86 -0.978118 -4.09891 0
M  V30 13844 H 1285.53 -0.152885 -3.23339 0
M  V30 13845 H 1284.44 -2.43638 -2.83886 0
M  V30 13846 H 1285.77 -3.19055 -3.74786 0
M  V30 13847 N 1287.43 1.02549 -1.19673 0
M  V30 13848 C 1288.65 1.8016 -1.02748 0
M  V30 13849 C 1289.08 1.83372 0.419105 0
M  V30 13850 O 1288.43 1.26222 1.30144 0
M  V30 13851 C 1288.48 3.22907 -1.60509 0
M  V30 13852 O 1287.59 4.03823 -0.836702 0
M  V30 13853 H 1286.93 0.556027 -0.362946 0
M  V30 13854 H 1289.46 1.29047 -1.5877 0
M  V30 13855 H 1289.47 3.73646 -1.63868 0
M  V30 13856 H 1288.14 3.19885 -2.65794 0
M  V30 13857 H 1286.72 3.6245 -0.876626 0
M  V30 13858 N 1288.9 1.00119 1.21713 0
M  V30 13859 C 1290.32 0.713343 1.42771 0
M  V30 13860 C 1290.52 -0.712923 1.88467 0
M  V30 13861 O 1289.58 -1.48277 2.04378 0
M  V30 13862 C 1290.89 1.72596 2.46234 0
M  V30 13863 C 1292.44 1.74235 2.60022 0
M  V30 13864 C 1292.91 2.74382 3.66713 0
M  V30 13865 N 1294.4 2.73027 3.7418 0
M  V30 13866 C 1295.14 3.47178 4.56349 0
M  V30 13867 N 1294.63 4.30958 5.42446 0
M  V30 13868 N 1296.43 3.35846 4.50737 0
M  V30 13869 H 1288.58 1.9222 0.903611 0
M  V30 13870 H 1290.84 0.829466 0.459011 0
M  V30 13871 H 1290.55 2.74699 2.19621 0
M  V30 13872 H 1290.42 1.52553 3.44975 0
M  V30 13873 H 1292.81 0.728261 2.85973 0
M  V30 13874 H 1292.89 1.98349 1.61528 0
M  V30 13875 H 1292.53 3.75945 3.41508 0
M  V30 13876 H 1292.46 2.47534 4.64795 0
M  V30 13877 H 1294.95 2.12242 3.12669 0
M  V30 13878 H 1295.27 4.84344 6.02189 0
M  V30 13879 H 1293.61 4.35042 5.42 0
M  V30 13880 H 1296.8 2.6983 3.82504 0
M  V30 13881 H 1296.98 3.93892 5.14541 0
M  V30 13882 N 1290.38 -1.37203 0.775435 0
M  V30 13883 C 1291.79 -1.82224 0.406372 0
M  V30 13884 C 1292.14 -1.64587 -1.06796 0
M  V30 13885 O 1291.27 -1.15903 -1.82744 0
M  V30 13886 C 1291.86 -3.30824 0.730819 0
M  V30 13887 C 1290.42 -3.74108 0.414766 0
M  V30 13888 C 1289.57 -2.59679 0.972747 0
M  V30 13889 H 1292.52 -1.25623 0.969775 0
M  V30 13890 H 1292.54 -3.80496 0.0168066 0
M  V30 13891 H 1292.05 -3.43628 1.80392 0
M  V30 13892 H 1290.15 -3.66871 -0.650866 0
M  V30 13893 H 1290.27 -4.70074 0.925595 0
M  V30 13894 H 1288.63 -2.51591 0.396772 0
M  V30 13895 H 1289.41 -2.75274 2.05132 0
M  V30 13896 N 1291.86 -0.526279 -1.48553 0
M  V30 13897 C 1293.09 0.0052277 -2.06899 0
M  V30 13898 C 1293.5 1.2849 -1.38332 0
M  V30 13899 O 1292.86 1.76354 -0.469648 0
M  V30 13900 C 1292.91 0.236709 -3.60724 0
M  V30 13901 O 1292.63 -0.992256 -4.26715 0
M  V30 13902 C 1294.13 0.809014 -4.35855 0
M  V30 13903 H 1291.35 -0.0318426 -0.670244 0
M  V30 13904 H 1293.9 -0.730865 -1.90994 0
M  V30 13905 H 1292.05 0.922842 -3.76248 0
M  V30 13906 H 1292.47 -0.770697 -5.18807 0
M  V30 13907 H 1293.94 0.920428 -5.44272 0
M  V30 13908 H 1294.42 1.81302 -4.00033 0
M  V30 13909 H 1295.02 0.159564 -4.25001 0
M  V30 13910 N 1293.34 1.5542 -0.261239 0
M  V30 13911 C 1294.61 1.91243 0.41056 0
M  V30 13912 C 1294.99 1.1838 1.74784 0
M  V30 13913 O 1294.34 0.306013 2.26442 0
M  V30 13914 C 1294.55 3.44404 0.56453 0
M  V30 13915 C 1295.9 4.15927 0.853827 0
M  V30 13916 O 1296.92 3.50222 0.649861 0
M  V30 13917 O 1295.78 5.32175 1.24308 0
M  V30 13918 H 1292.88 0.796491 0.222555 0
M  V30 13919 H 1295.42 1.66912 -0.306367 0
M  V30 13920 H 1294.2 3.89478 -0.377134 0
M  V30 13921 H 1293.82 3.74644 1.33145 0
M  V30 13922 N 1294.82 -0.0116844 1.57596 0
M  V30 13923 C 1295.76 -1.02514 2.08791 0
M  V30 13924 C 1296.76 -1.36341 1.00536 0
M  V30 13925 O 1297.96 -1.35042 1.19011 0
M  V30 13926 H 1294.34 -0.348201 0.666528 0
M  V30 13927 H 1296.31 -0.567698 2.9295 0
M  V30 13928 C 1295.06 -2.312 2.59696 0
M  V30 13929 H 1294.38 -2.06036 3.42621 0
M  V30 13930 H 1295.82 -3.00417 2.99208 0
M  V30 13931 C 1294.28 -3.01372 1.50586 0
M  V30 13932 O 1294.81 -3.91896 0.882046 0
M  V30 13933 N 1293.02 -2.62997 1.23616 0
M  V30 13934 H 1292.56 -1.89466 1.74529 0
M  V30 13935 H 1292.52 -3.10264 0.508289 0
M  V30 13936 N 1296.29 -1.55015 -0.284256 0
M  V30 13937 C 1297.7 -1.65915 -0.856104 0
M  V30 13938 C 1298.06 -0.578758 -1.8747 0
M  V30 13939 O 1297.18 0.281733 -2.14558 0
M  V30 13940 C 1297.78 -3.0077 -1.55957 0
M  V30 13941 C 1296.33 -3.13735 -2.0796 0
M  V30 13942 C 1295.48 -2.61669 -0.917849 0
M  V30 13943 H 1298.43 -1.58583 -0.0608587 0
M  V30 13944 H 1298.45 -2.9313 -2.42601 0
M  V30 13945 H 1297.97 -3.79382 -0.81798 0
M  V30 13946 H 1296.07 -2.39875 -2.85115 0
M  V30 13947 H 1296.18 -4.20138 -2.30263 0
M  V30 13948 H 1294.54 -2.18542 -1.3081 0
M  V30 13949 H 1295.33 -3.42774 -0.189946 0
M  V30 13950 N 1297.77 0.548248 -1.47757 0
M  V30 13951 C 1299 1.3302 -1.58472 0
M  V30 13952 C 1299.41 1.87292 -0.238186 0
M  V30 13953 O 1298.77 1.65465 0.76991 0
M  V30 13954 C 1298.82 2.49386 -2.61704 0
M  V30 13955 O 1298.54 1.97355 -3.9113 0
M  V30 13956 C 1300.04 3.41471 -2.82688 0
M  V30 13957 H 1297.26 0.405172 -0.534861 0
M  V30 13958 H 1299.81 0.663251 -1.93446 0
M  V30 13959 H 1297.96 3.12001 -2.29639 0
M  V30 13960 H 1298.38 2.7339 -4.47614 0
M  V30 13961 H 1299.85 4.19516 -3.58762 0
M  V30 13962 H 1300.33 3.95573 -1.90837 0
M  V30 13963 H 1300.93 2.84664 -3.15985 0
M  V30 13964 N 1299.25 1.36039 0.795694 0
M  V30 13965 C 1300.21 1.29709 1.88966 0
M  V30 13966 C 1301.21 0.206142 1.59473 0
M  V30 13967 O 1302.4 0.460534 1.68002 0
M  V30 13968 C 1299.53 1.00922 3.25619 0
M  V30 13969 H 1300.73 2.26993 1.95995 0
M  V30 13970 H 1298.28 1.2072 0.992791 0
M  V30 13971 H 1299.02 0.0407027 3.24274 0
M  V30 13972 H 1298.8 1.79863 3.48413 0
M  V30 13973 H 1300.29 0.990826 4.05675 0
M  V30 13974 N 1300.73 -1.01913 1.20215 0
M  V30 13975 C 1301.68 -2.12516 0.945493 0
M  V30 13976 C 1302.67 -1.69091 -0.102243 0
M  V30 13977 O 1303.88 -1.79936 0.047888 0
M  V30 13978 H 1300.25 -0.694496 0.288409 0
M  V30 13979 H 1302.22 -2.31349 1.88468 0
M  V30 13980 C 1300.97 -3.43919 0.51137 0
M  V30 13981 H 1300.29 -3.77758 1.30916 0
M  V30 13982 H 1301.73 -4.22374 0.370981 0
M  V30 13983 C 1300.19 -3.27844 -0.775902 0
M  V30 13984 O 1300.72 -3.5734 -1.83496 0
M  V30 13985 N 1298.93 -2.81101 -0.73694 0
M  V30 13986 H 1298.48 -2.57296 0.125164 0
M  V30 13987 H 1298.43 -2.70726 -1.59859 0
M  V30 13988 N 1302.21 -1.00763 -1.2118 0
M  V30 13989 C 1303.43 -0.710515 -1.9485 0
M  V30 13990 C 1303.86 0.720934 -1.73736 0
M  V30 13991 O 1303.21 1.49484 -1.02588 0
M  V30 13992 C 1303.26 -1.04035 -3.45267 0
M  V30 13993 O 1302.37 -0.147047 -4.12138 0
M  V30 13994 H 1301.71 -0.264472 -0.609057 0
M  V30 13995 H 1304.24 -1.34858 -1.53865 0
M  V30 13996 H 1304.25 -0.9883 -3.95849 0
M  V30 13997 H 1302.92 -2.08334 -3.59958 0
M  V30 13998 H 1301.5 -0.255847 -3.72021 0
M  V30 13999 N 1303.68 1.3679 -0.7827 0
M  V30 14000 C 1304.63 2.32019 -0.164358 0
M  V30 14001 C 1305.63 1.55476 0.672571 0
M  V30 14002 O 1306.83 1.7079 0.568406 0
M  V30 14003 H 1303.21 0.751214 -0.0343697 0
M  V30 14004 H 1305.18 2.81741 -0.983077 0
M  V30 14005 C 1303.93 3.4075 0.691727 0
M  V30 14006 H 1303.25 3.99759 0.0570885 0
M  V30 14007 H 1304.69 4.09719 1.09117 0
M  V30 14008 C 1303.15 2.81753 1.84708 0
M  V30 14009 O 1303.68 2.73378 2.94325 0
M  V30 14010 N 1301.89 2.39138 1.6511 0
M  V30 14011 H 1301.43 2.46149 0.759487 0
M  V30 14012 H 1301.39 2.0001 2.42576 0
M  V30 14013 N 1305.16 0.53415 1.48272 0
M  V30 14014 C 1306.09 -0.215037 2.32508 0
M  V30 14015 C 1307.07 -0.931083 1.42355 0
M  V30 14016 O 1308.26 -0.916051 1.71237 0
M  V30 14017 C 1305.39 -1.25985 3.23643 0
M  V30 14018 C 1304.34 -0.661692 4.22854 0
M  V30 14019 C 1303.67 -1.80946 5.03153 0
M  V30 14020 C 1304.97 0.369358 5.20992 0
M  V30 14021 H 1306.66 0.488158 2.95394 0
M  V30 14022 H 1304.21 0.236206 1.4205 0
M  V30 14023 H 1306.16 -1.79195 3.81402 0
M  V30 14024 H 1304.89 -1.99268 2.58766 0
M  V30 14025 H 1303.54 -0.151082 3.66289 0
M  V30 14026 H 1303.19 -2.53077 4.34696 0
M  V30 14027 H 1302.89 -1.41513 5.70305 0
M  V30 14028 H 1304.42 -2.34526 5.63764 0
M  V30 14029 H 1305.83 -0.0758076 5.7325 0
M  V30 14030 H 1304.23 0.681301 5.9622 0
M  V30 14031 H 1305.3 1.27363 4.67875 0
M  V30 14032 N 1306.64 -1.55279 0.269478 0
M  V30 14033 C 1307.87 -2.03581 -0.351907 0
M  V30 14034 C 1308.28 -1.14747 -1.50432 0
M  V30 14035 O 1307.62 -0.158939 -1.83011 0
M  V30 14036 C 1307.68 -3.48041 -0.900444 0
M  V30 14037 C 1307.35 -4.56835 0.122612 0
M  V30 14038 C 1308.34 -5.11329 0.940149 0
M  V30 14039 C 1306.03 -5.01651 0.255224 0
M  V30 14040 C 1308.02 -6.09151 1.87654 0
M  V30 14041 C 1305.71 -5.993 1.19509 0
M  V30 14042 C 1306.71 -6.52931 2.00426 0
M  V30 14043 O 1306.4 -7.48671 2.92825 0
M  V30 14044 H 1306.13 -0.670627 -0.0850629 0
M  V30 14045 H 1308.68 -2.01514 0.39766 0
M  V30 14046 H 1306.91 -3.47329 -1.69998 0
M  V30 14047 H 1308.6 -3.79713 -1.43431 0
M  V30 14048 H 1309.37 -4.77522 0.848402 0
M  V30 14049 H 1305.25 -4.59556 -0.364579 0
M  V30 14050 H 1308.79 -6.50937 2.50853 0
M  V30 14051 H 1304.69 -6.32526 1.28768 0
M  V30 14052 H 1305.46 -7.66368 2.87442 0
M  V30 14053 N 1308.12 0.00332656 -1.576 0
M  V30 14054 C 1309.37 0.688044 -1.89602 0
M  V30 14055 C 1309.68 1.75121 -0.871316 0
M  V30 14056 O 1310.89 2.49032 -1.08144 0
M  V30 14057 C 1309.34 1.27494 -3.36561 0
M  V30 14058 C 1308.95 0.246771 -4.4732 0
M  V30 14059 C 1310.69 1.93804 -3.77677 0
M  V30 14060 C 1308.6 0.843471 -5.85354 0
M  V30 14061 H 1307.53 0.260747 -0.707479 0
M  V30 14062 H 1310.18 -0.0566727 -1.83412 0
M  V30 14063 H 1308.56 2.07022 -3.37577 0
M  V30 14064 H 1309.74 -0.523668 -4.57815 0
M  V30 14065 H 1308.05 -0.3157 -4.15202 0
M  V30 14066 H 1310.65 2.39347 -4.78139 0
M  V30 14067 H 1310.99 2.7672 -3.11017 0
M  V30 14068 H 1311.53 1.21015 -3.78946 0
M  V30 14069 H 1308.27 0.0531655 -6.55478 0
M  V30 14070 H 1307.79 1.58315 -5.7853 0
M  V30 14071 H 1309.46 1.34311 -6.32906 0
M  V30 14072 N 1309.6 1.55164 0.276031 0
M  V30 14073 C 1310.53 1.90844 1.34539 0
M  V30 14074 C 1311.51 0.769968 1.51676 0
M  V30 14075 O 1312.69 1.02785 1.64769 0
M  V30 14076 C 1309.82 2.17769 2.70543 0
M  V30 14077 C 1308.78 3.33592 2.68142 0
M  V30 14078 C 1308.1 3.45991 4.07669 0
M  V30 14079 C 1309.4 4.70064 2.27678 0
M  V30 14080 H 1311.1 2.80412 1.04926 0
M  V30 14081 H 1308.64 1.34918 0.503303 0
M  V30 14082 H 1310.6 2.41317 3.45462 0
M  V30 14083 H 1309.32 1.24997 3.01734 0
M  V30 14084 H 1307.98 3.10007 1.95681 0
M  V30 14085 H 1307.63 2.50691 4.36077 0
M  V30 14086 H 1307.33 4.23862 4.06958 0
M  V30 14087 H 1308.85 3.71828 4.84331 0
M  V30 14088 H 1310.26 4.93176 2.92319 0
M  V30 14089 H 1308.66 5.50829 2.38134 0
M  V30 14090 H 1309.73 4.69091 1.22808 0
M  V30 14091 N 1311.07 -0.540404 1.48045 0
M  V30 14092 C 1312.04 -1.62813 1.61322 0
M  V30 14093 C 1313.04 -1.53243 0.487161 0
M  V30 14094 O 1314.23 -1.571 0.752684 0
M  V30 14095 C 1311.36 -3.02408 1.5736 0
M  V30 14096 H 1312.55 -1.52385 2.583 0
M  V30 14097 H 1310.11 -0.761654 1.36486 0
M  V30 14098 H 1310.84 -3.18353 0.618195 0
M  V30 14099 H 1310.63 -3.10763 2.39099 0
M  V30 14100 H 1312.12 -3.8151 1.69822 0
M  V30 14101 N 1312.55 -1.36459 -0.788468 0
M  V30 14102 C 1313.8 -1.30483 -1.54333 0
M  V30 14103 C 1314.12 0.115266 -1.94659 0
M  V30 14104 O 1313.39 1.05573 -1.65019 0
M  V30 14105 H 1311.97 -0.480004 -0.572368 0
M  V30 14106 H 1314.63 -1.70765 -0.939428 0
M  V30 14107 H 1313.73 -1.93284 -2.45046 0
M  V30 14108 N 1314.03 1.01274 -1.20754 0
M  V30 14109 C 1314.98 2.08285 -0.927426 0
M  V30 14110 C 1315.96 1.60494 0.114286 0
M  V30 14111 O 1317.16 1.76752 -0.0936086 0
M  V30 14112 C 1314.29 3.39849 -0.485546 0
M  V30 14113 C 1313.37 3.94331 -1.5609 0
M  V30 14114 N 1313.76 4.22274 -2.78421 0
M  V30 14115 C 1312.06 4.22522 -1.42797 0
M  V30 14116 C 1312.76 4.66262 -3.47813 0
M  V30 14117 N 1311.74 4.68771 -2.75235 0
M  V30 14118 H 1315.54 2.27804 -1.85695 0
M  V30 14119 H 1313.05 1.19278 -1.10211 0
M  V30 14120 H 1315.05 4.16049 -0.266263 0
M  V30 14121 H 1313.71 3.21742 0.437301 0
M  V30 14122 H 1314.72 4.11063 -3.15036 0
M  V30 14123 H 1311.4 4.13593 -0.569819 0
M  V30 14124 H 1312.79 4.9667 -4.52513 0
M  V30 14125 N 1315.51 1.01404 1.20644 0
M  V30 14126 C 1316.42 0.591693 2.27016 0
M  V30 14127 C 1317.44 -0.36958 1.7003 0
M  V30 14128 O 1318.61 -0.231165 2.00069 0
M  V30 14129 C 1315.68 -0.0659827 3.46637 0
M  V30 14130 C 1314.74 0.940911 4.18862 0
M  V30 14131 C 1313.97 0.314526 5.32772 0
M  V30 14132 O 1314.19 -0.886404 5.63471 0
M  V30 14133 O 1313.13 1.02998 5.93022 0
M  V30 14134 H 1316.95 1.4772 2.65353 0
M  V30 14135 H 1314.54 0.783399 1.27213 0
M  V30 14136 H 1316.42 -0.433412 4.19165 0
M  V30 14137 H 1315.1 -0.925729 3.10181 0
M  V30 14138 H 1314 1.35966 3.48517 0
M  V30 14139 H 1315.34 1.77054 4.59252 0
M  V30 14140 N 1316.99 -1.36373 0.789944 0
M  V30 14141 C 1317.94 -2.31928 0.17666 0
M  V30 14142 C 1318.93 -1.55831 -0.664316 0
M  V30 14143 O 1320.14 -1.71089 -0.559341 0
M  V30 14144 H 1316.51 -0.751021 0.038353 0
M  V30 14145 H 1318.48 -2.81216 0.998004 0
M  V30 14146 C 1317.23 -3.41112 -0.673646 0
M  V30 14147 H 1316.55 -3.99784 -0.0358875 0
M  V30 14148 H 1317.99 -4.10292 -1.06942 0
M  V30 14149 C 1316.45 -2.82728 -1.83211 0
M  V30 14150 O 1316.98 -2.74935 -2.92871 0
M  V30 14151 N 1315.19 -2.4001 -1.6384 0
M  V30 14152 H 1314.74 -2.46549 -0.746423 0
M  V30 14153 H 1314.69 -2.01294 -2.41512 0
M  V30 14154 N 1318.47 -0.542005 -1.47987 0
M  V30 14155 C 1319.69 -0.0146835 -2.07395 0
M  V30 14156 C 1320.12 1.26266 -1.39422 0
M  V30 14157 O 1319.47 1.75259 -0.464118 0
M  V30 14158 C 1319.52 0.179937 -3.60151 0
M  V30 14159 O 1318.63 1.24596 -3.93128 0
M  V30 14160 H 1317.97 -0.0445076 -0.662507 0
M  V30 14161 H 1320.5 -0.753352 -1.90226 0
M  V30 14162 H 1320.51 0.398876 -4.06046 0
M  V30 14163 H 1319.18 -0.753093 -4.09025 0
M  V30 14164 H 1317.76 1.00872 -3.58997 0
M  V30 14165 N 1319.94 1.55134 -0.277709 0
M  V30 14166 C 1321.17 2.03765 0.341106 0
M  V30 14167 C 1321.58 1.15543 1.49822 0
M  V30 14168 O 1320.92 0.168642 1.82924 0
M  V30 14169 C 1320.99 3.48513 0.881974 0
M  V30 14170 C 1320.65 4.56764 -0.146837 0
M  V30 14171 C 1321.65 5.10823 -0.967252 0
M  V30 14172 C 1319.33 5.01509 -0.281824 0
M  V30 14173 C 1321.33 6.08147 -1.90882 0
M  V30 14174 C 1319.01 5.98658 -1.22686 0
M  V30 14175 C 1320.01 6.51859 -2.03886 0
M  V30 14176 O 1319.7 7.47108 -2.96791 0
M  V30 14177 H 1319.43 0.671068 0.0815052 0
M  V30 14178 H 1321.99 2.013 -0.408341 0
M  V30 14179 H 1320.22 3.48226 1.68154 0
M  V30 14180 H 1321.9 3.80469 1.41416 0
M  V30 14181 H 1322.67 4.77065 -0.873714 0
M  V30 14182 H 1318.55 4.59743 0.340203 0
M  V30 14183 H 1322.09 6.49597 -2.54301 0
M  V30 14184 H 1317.99 6.31834 -1.32121 0
M  V30 14185 H 1318.76 7.64832 -2.91502 0
M  V30 14186 O 1321.46 0.143437 1.60862 0
M  V30 14187 H 1322.15 -0.451144 1.88373 0
M  V30 END ATOM
M  V30 BEGIN BOND
M  V30 END BOND
M  V30 END CTAB
M  END
$$$$
