drugbank_target|Q9P2N6 KAT8 regulatory NSL complex subunit 3 (DB03467)
 OpenBabel12092121083D

  0  0  0     0  0            999 V3000
M  V30 BEGIN CTAB
M  V30 COUNTS 13618 13754 0 0 0
M  V30 BEGIN ATOM
M  V30 1 H -0.908 1.98254 -0.117106 0
M  V30 2 N 0 1.576 0 0
M  V30 3 C 0.933 2.03868 1.02534 0
M  V30 4 C 1.911 0.928543 1.3348 0
M  V30 5 O 3.095 1.19667 1.45644 0
M  V30 6 C 0.222 2.43627 2.35294 0
M  V30 7 C -0.732 3.65373 2.2001 0
M  V30 8 S 0.101 5.13292 1.52614 0
M  V30 9 C 1.257 5.56322 2.86805 0
M  V30 10 H 1.49 2.90518 0.631377 0
M  V30 11 H -0.977 1.52953 0.210867 0
M  V30 12 H 0.981 2.67203 3.11629 0
M  V30 13 H -0.358 1.57376 2.7183 0
M  V30 14 H -1.165 3.90944 3.18086 0
M  V30 15 H -1.563 3.418 1.51819 0
M  V30 16 H 0.729 5.58782 3.83104 0
M  V30 17 H 1.672 6.56266 2.65933 0
M  V30 18 H 2.08 4.83886 2.90714 0
M  V30 19 N 1.4781 -0.272755 1.55222 0
M  V30 20 C 2.4411 -1.32041 1.87344 0
M  V30 21 C 3.4411 -1.42342 0.74803 0
M  V30 22 O 4.6311 -1.41488 1.0162 0
M  V30 23 C 1.7631 -2.70173 2.07893 0
M  V30 24 H 2.9561 -1.04789 2.80997 0
M  V30 25 H 0.5091 -0.51083 1.47717 0
M  V30 26 H 1.2441 -3.02605 1.16622 0
M  V30 27 H 1.0291 -2.64082 2.89833 0
M  V30 28 H 2.5191 -3.45869 2.34017 0
M  V30 29 N 2.9562 -1.48159 -0.537278 0
M  V30 30 C 3.9062 -1.5854 -1.63857 0
M  V30 31 C 4.8902 -0.442969 -1.54682 0
M  V30 32 O 6.0822 -0.69401 -1.62827 0
M  V30 33 C 3.2112 -1.62144 -3.02596 0
M  V30 34 C 2.2972 -2.81841 -3.16901 0
M  V30 35 N 2.6882 -4.06337 -3.01204 0
M  V30 36 C 0.9862 -2.79021 -3.47942 0
M  V30 37 C 1.6872 -4.86606 -3.18731 0
M  V30 38 N 0.6632 -4.19288 -3.45974 0
M  V30 39 H 4.4652 -2.5255 -1.50319 0
M  V30 40 H 1.9792 -1.4443 -0.742555 0
M  V30 41 H 3.9762 -1.67674 -3.81695 0
M  V30 42 H 2.6362 -0.69245 -3.17231 0
M  V30 43 H 3.6472 -4.36888 -2.78117 0
M  V30 44 H 0.3242 -1.95347 -3.6898 0
M  V30 45 H 1.7142 -5.95385 -3.11394 0
M  V30 46 N 4.4343 0.785586 -1.36625 0
M  V30 47 C 5.8503 1.08419 -1.17122 0
M  V30 48 C 6.0503 2.015 0.00208491 0
M  V30 49 O 5.1063 2.43551 0.666278 0
M  V30 50 C 6.4193 1.69498 -2.48377 0
M  V30 51 C 7.9673 1.81821 -2.54775 0
M  V30 52 C 8.4423 2.46315 -3.86126 0
M  V30 53 N 9.9333 2.53779 -3.87492 0
M  V30 54 C 10.6683 3.045 -4.85868 0
M  V30 55 N 10.1643 3.55499 -5.94637 0
M  V30 56 N 11.9573 3.03247 -4.73284 0
M  V30 57 H 4.1083 0.167264 -2.1174 0
M  V30 58 H 6.3713 0.13682 -0.938075 0
M  V30 59 H 6.0773 1.08571 -3.34522 0
M  V30 60 H 5.9513 2.6896 -2.64462 0
M  V30 61 H 8.3383 2.41884 -1.69045 0
M  V30 62 H 8.4193 0.811532 -2.42586 0
M  V30 63 H 8.0633 1.86895 -4.72263 0
M  V30 64 H 7.9933 3.47561 -3.95612 0
M  V30 65 H 10.4843 2.17672 -3.08913 0
M  V30 66 H 10.7973 3.92562 -6.65669 0
M  V30 67 H 9.1423 3.5364 -5.98301 0
M  V30 68 H 12.3333 2.62696 -3.87438 0
M  V30 69 H 12.5063 3.42467 -5.50109 0
M  V30 70 N 5.9124 1.20967 1.01018 0
M  V30 71 C 7.1604 1.02172 1.74371 0
M  V30 72 C 7.4814 -0.446414 1.89821 0
M  V30 73 O 6.7514 -1.32234 1.44537 0
M  V30 74 H 5.3314 0.375066 0.646014 0
M  V30 75 H 7.9934 1.52187 1.21758 0
M  V30 76 H 7.0894 1.48538 2.74487 0
M  V30 77 N 7.3905 -1.2043 1.01659 0
M  V30 78 C 8.6385 -1.89423 0.704522 0
M  V30 79 C 8.9595 -1.79231 -0.768197 0
M  V30 80 O 8.2295 -1.1947 -1.55254 0
M  V30 81 H 6.8095 -0.701178 0.257602 0
M  V30 82 H 9.4715 -1.4626 1.28818 0
M  V30 83 H 8.5675 -2.96052 0.987916 0
M  V30 84 N 8.8686 -0.792821 -1.36206 0
M  V30 85 C 9.7786 -0.194808 -2.3379 0
M  V30 86 C 10.7946 0.654869 -1.61206 0
M  V30 87 O 11.9706 0.569856 -1.9317 0
M  V30 88 C 9.0356 0.657721 -3.40404 0
M  V30 89 C 8.0966 -0.210849 -4.28782 0
M  V30 90 C 7.3296 0.601086 -5.30304 0
M  V30 91 O 7.5526 1.83682 -5.40016 0
M  V30 92 O 6.4866 -0.000808277 -6.019 0
M  V30 93 H 10.3126 -1.00172 -2.86704 0
M  V30 94 H 7.8976 -0.554341 -1.38735 0
M  V30 95 H 9.7796 1.14375 -4.05581 0
M  V30 96 H 8.4546 1.44247 -2.89784 0
M  V30 97 H 7.3616 -0.743714 -3.66633 0
M  V30 98 H 8.6946 -0.959195 -4.82763 0
M  V30 99 N 10.3467 1.47872 -0.545128 0
M  V30 100 C 11.7627 1.5829 -0.204032 0
M  V30 101 C 11.9627 1.54529 1.29317 0
M  V30 102 O 11.0187 1.44232 2.07252 0
M  V30 103 C 12.3317 2.89304 -0.819987 0
M  V30 104 C 13.8797 3.02864 -0.790105 0
M  V30 105 C 14.3547 4.3656 -1.38491 0
M  V30 106 N 15.8457 4.43165 -1.34755 0
M  V30 107 C 16.5807 5.45153 -1.77753 0
M  V30 108 N 16.0767 6.54016 -2.2855 0
M  V30 109 N 17.8697 5.36125 -1.68897 0
M  V30 110 H 10.0207 1.4856 -1.51802 0
M  V30 111 H 12.2837 0.706305 -0.632327 0
M  V30 112 H 11.9897 2.97757 -1.87173 0
M  V30 113 H 11.8637 3.75957 -0.305915 0
M  V30 114 H 14.2507 2.94014 0.252913 0
M  V30 115 H 14.3317 2.17782 -1.34181 0
M  V30 116 H 13.9757 4.46164 -2.42693 0
M  V30 117 H 13.9057 5.20353 -0.808754 0
M  V30 118 H 16.3967 3.65083 -0.975855 0
M  V30 119 H 16.7097 7.27994 -2.59314 0
M  V30 120 H 15.0547 6.54938 -2.32553 0
M  V30 121 H 18.2457 4.49975 -1.28998 0
M  V30 122 H 18.4187 6.15472 -2.02726 0
M  V30 123 N 11.8248 0.280983 1.55075 0
M  V30 124 C 13.1018 -0.386207 1.91749 0
M  V30 125 C 13.4818 -1.73264 1.20594 0
M  V30 126 O 12.8298 -2.26034 0.334784 0
M  V30 127 C 13.0398 -0.520687 3.45094 0
M  V30 128 C 14.3878 -0.800865 4.16979 0
M  V30 129 O 15.4118 -0.605271 3.5102 0
M  V30 130 O 14.2708 -1.1753 5.33712 0
M  V30 131 H 11.3648 -0.212408 0.799257 0
M  V30 132 H 13.9108 0.327568 1.66509 0
M  V30 133 H 12.6828 0.426633 3.88967 0
M  V30 134 H 12.3058 -1.2837 3.76307 0
M  V30 135 N 13.3029 -1.57598 0.00835791 0
M  V30 136 C 14.5499 -1.90928 -0.674732 0
M  V30 137 C 14.8779 -0.88277 -1.73313 0
M  V30 138 O 14.1329 0.111294 -1.95383 0
M  V30 139 C 14.4319 -3.3101 -1.34787 0
M  V30 140 C 14.0979 -4.48922 -0.421861 0
M  V30 141 C 12.7599 -4.8091 -0.166927 0
M  V30 142 C 15.1119 -5.20755 0.215211 0
M  V30 143 C 12.4399 -5.821 0.733232 0
M  V30 144 C 14.7919 -6.22905 1.1033 0
M  V30 145 C 13.4559 -6.53346 1.36733 0
M  V30 146 H 12.7259 -0.698656 -0.246902 0
M  V30 147 H 15.3729 -1.91387 0.0656779 0
M  V30 148 H 13.6779 -3.26714 -2.16253 0
M  V30 149 H 15.3749 -3.54061 -1.8826 0
M  V30 150 H 11.9649 -4.23934 -0.630729 0
M  V30 151 H 16.1489 -4.9629 0.0312829 0
M  V30 152 H 11.4049 -6.04042 0.945712 0
M  V30 153 H 15.5789 -6.77694 1.60325 0
M  V30 154 H 13.2059 -7.31573 2.06652 0
M  V30 155 N 14.781 0.264519 -1.55364 0
M  V30 156 C 15.713 1.34965 -1.85248 0
M  V30 157 C 16.726 1.45136 -0.737525 0
M  V30 158 O 17.915 1.46801 -1.01547 0
M  V30 159 C 15.015 2.73008 -2.00797 0
M  V30 160 C 14.188 2.85324 -3.31525 0
M  V30 161 C 13.247 4.04097 -3.37034 0
M  V30 162 O 12.273 3.94455 -4.10358 0
M  V30 163 N 13.475 5.16458 -2.65049 0
M  V30 164 H 16.24 1.09672 -2.78913 0
M  V30 165 H 13.801 0.454635 -1.55386 0
M  V30 166 H 15.793 3.50772 -2.01844 0
M  V30 167 H 14.363 2.91087 -1.1396 0
M  V30 168 H 13.583 1.94377 -3.42945 0
M  V30 169 H 14.871 2.9049 -4.17724 0
M  V30 170 H 14.269 5.27181 -2.05175 0
M  V30 171 H 12.826 5.92422 -2.71809 0
M  V30 172 N 16.2591 1.48442 0.529413 0
M  V30 173 C 17.4871 1.60151 1.30994 0
M  V30 174 C 17.9021 0.261985 1.86973 0
M  V30 175 O 17.2591 -0.748805 1.66431 0
M  V30 176 C 17.3101 2.64854 2.46038 0
M  V30 177 O 17.0311 3.93608 1.92365 0
M  V30 178 C 18.5321 2.87007 3.37849 0
M  V30 179 H 15.7521 0.539971 0.398338 0
M  V30 180 H 18.2961 1.94273 0.638597 0
M  V30 181 H 16.4511 2.33589 3.09055 0
M  V30 182 H 16.8651 4.51055 2.67675 0
M  V30 183 H 18.3391 3.64068 4.14919 0
M  V30 184 H 18.8161 1.95852 3.93114 0
M  V30 185 H 19.4221 3.19579 2.80623 0
M  V30 186 N 17.7372 -0.778329 1.37039 0
M  V30 187 C 18.9622 -1.57248 1.35233 0
M  V30 188 C 19.3872 -1.87999 -0.0615568 0
M  V30 189 O 18.7452 -1.48734 -1.03672 0
M  V30 190 C 18.7932 -2.86353 2.19167 0
M  V30 191 O 17.8972 -3.80442 1.59178 0
M  V30 192 H 17.2382 -0.476569 0.462362 0
M  V30 193 H 19.7682 -0.963853 1.80474 0
M  V30 194 H 19.7782 -3.35519 2.32145 0
M  V30 195 H 18.4532 -2.63299 3.21942 0
M  V30 196 H 17.0302 -3.39067 1.55203 0
M  V30 197 N 19.2153 -1.21501 -1.00376 0
M  V30 198 C 20.1783 -0.976927 -2.07337 0
M  V30 199 C 21.1783 0.0525322 -1.60714 0
M  V30 200 O 22.3683 -0.184869 -1.73216 0
M  V30 201 C 19.5003 -0.473423 -3.37597 0
M  V30 202 H 20.6933 -1.92587 -2.29892 0
M  V30 203 H 18.2463 -1.03217 -1.17371 0
M  V30 204 H 18.9813 0.480379 -3.20722 0
M  V30 205 H 18.7663 -1.216 -3.72768 0
M  V30 206 H 20.2563 -0.32675 -4.1632 0
M  V30 207 N 20.6934 1.19889 -1.02296 0
M  V30 208 C 22.1094 1.41462 -0.738954 0
M  V30 209 C 22.3094 1.89721 0.678846 0
M  V30 210 O 21.3654 2.07016 1.4457 0
M  V30 211 C 22.6784 2.43083 -1.77005 0
M  V30 212 C 24.2264 2.5684 -1.78892 0
M  V30 213 C 24.7014 3.61709 -2.80945 0
M  V30 214 N 26.1924 3.69199 -2.79725 0
M  V30 215 C 26.9274 4.50019 -3.55345 0
M  V30 216 N 26.4234 5.34592 -4.40662 0
M  V30 217 N 28.2164 4.44612 -3.43914 0
M  V30 218 H 20.3674 0.868827 -1.93817 0
M  V30 219 H 22.6304 0.44399 -0.837602 0
M  V30 220 H 22.3364 2.14636 -2.78612 0
M  V30 221 H 22.2104 3.4217 -1.58744 0
M  V30 222 H 24.5974 2.84614 -0.779674 0
M  V30 223 H 24.6784 1.57927 -2.01228 0
M  V30 224 H 24.3224 3.34678 -3.82038 0
M  V30 225 H 24.2524 4.60259 -2.5587 0
M  V30 226 H 26.7434 3.08794 -2.17842 0
M  V30 227 H 27.0564 5.93363 -4.95116 0
M  V30 228 H 25.4014 5.34073 -4.44737 0
M  V30 229 H 28.5924 3.7758 -2.76679 0
M  V30 230 H 28.7654 5.0736 -4.031 0
M  V30 231 N 22.1715 0.800033 1.35784 0
M  V30 232 C 23.5875 0.482977 1.52117 0
M  V30 233 C 23.7875 -0.996948 1.75109 0
M  V30 234 O 22.8435 -1.78216 1.78872 0
M  V30 235 C 24.1565 1.32264 2.70049 0
M  V30 236 C 25.7045 1.31742 2.83924 0
M  V30 237 C 26.1795 2.14106 4.04874 0
M  V30 238 N 27.6705 2.11607 4.12039 0
M  V30 239 C 28.4055 2.72099 5.04727 0
M  V30 240 N 27.9015 3.41492 6.02789 0
M  V30 241 N 29.6945 2.61776 4.97423 0
M  V30 242 H 21.8455 1.75856 1.19115 0
M  V30 243 H 24.1085 0.748122 0.582252 0
M  V30 244 H 23.8145 2.37261 2.59616 0
M  V30 245 H 23.6885 0.971303 3.6448 0
M  V30 246 H 26.0755 0.275333 2.93813 0
M  V30 247 H 26.1565 1.70859 1.9037 0
M  V30 248 H 25.8005 3.18351 3.95746 0
M  V30 249 H 25.7305 1.72353 4.97596 0
M  V30 250 H 28.2215 1.61112 3.41835 0
M  V30 251 H 28.5345 3.84953 6.70098 0
M  V30 252 H 26.8795 3.45596 6.02983 0
M  V30 253 H 30.0705 2.07157 4.19766 0
M  V30 254 H 30.2435 3.0921 5.69468 0
M  V30 255 N 23.6496 -1.47581 0.552962 0
M  V30 256 C 24.5826 -2.26883 -0.244857 0
M  V30 257 C 25.5606 -1.33784 -0.924147 0
M  V30 258 O 26.7446 -1.6316 -0.943981 0
M  V30 259 C 23.8716 -3.10695 -1.34856 0
M  V30 260 C 22.9176 -4.19339 -0.778268 0
M  V30 261 S 23.7506 -5.34207 0.37184 0
M  V30 262 C 24.9066 -6.21584 -0.733779 0
M  V30 263 H 25.1396 -2.94202 0.428087 0
M  V30 264 H 22.6726 -1.50628 0.339197 0
M  V30 265 H 24.6306 -3.59555 -1.98066 0
M  V30 266 H 23.2916 -2.42746 -1.99332 0
M  V30 267 H 22.4846 -4.77695 -1.60696 0
M  V30 268 H 22.0866 -3.73338 -0.222422 0
M  V30 269 H 24.3786 -6.57676 -1.62692 0
M  V30 270 H 25.3216 -7.07851 -0.187668 0
M  V30 271 H 25.7296 -5.55125 -1.02454 0
M  V30 272 N 25.1277 -0.289203 -1.54924 0
M  V30 273 C 26.3757 0.322879 -1.99504 0
M  V30 274 C 26.6967 1.55313 -1.1791 0
M  V30 275 O 25.9667 1.94001 -0.272097 0
M  V30 276 H 24.5467 0.122291 -0.736922 0
M  V30 277 H 27.2087 -0.397802 -1.90797 0
M  V30 278 H 26.3047 0.603061 -3.06218 0
M  V30 279 N 26.6058 1.57591 -0.0167156 0
M  V30 280 C 27.8338 1.95575 0.675128 0
M  V30 281 C 28.2488 0.892542 1.6637 0
M  V30 282 O 27.6058 -0.126912 1.82058 0
M  V30 283 C 27.6568 3.33608 1.39239 0
M  V30 284 O 27.3778 4.3585 0.443444 0
M  V30 285 C 28.8788 3.86151 2.17721 0
M  V30 286 H 26.0988 0.644423 0.186978 0
M  V30 287 H 28.6428 2.0437 -0.0728 0
M  V30 288 H 26.7978 3.2607 2.09182 0
M  V30 289 H 27.2118 5.158 0.951358 0
M  V30 290 H 28.6858 4.85114 2.63379 0
M  V30 291 H 29.1628 3.19738 3.01105 0
M  V30 292 H 29.7688 3.96918 1.52761 0
M  V30 293 N 28.0839 -0.256276 1.55502 0
M  V30 294 C 29.3089 -1.00766 1.81276 0
M  V30 295 C 29.7339 -1.78524 0.59252 0
M  V30 296 O 29.0919 -1.75413 -0.45827 0
M  V30 297 C 29.1399 -1.92869 3.04687 0
M  V30 298 O 28.2439 -3.019 2.80945 0
M  V30 299 H 27.5849 -0.287224 0.598664 0
M  V30 300 H 30.1149 -0.280109 2.02674 0
M  V30 301 H 30.1249 -2.34511 3.33869 0
M  V30 302 H 28.7999 -1.35689 3.93143 0
M  V30 303 H 27.3769 -2.64454 2.62904 0
M  V30 304 N 29.562 -1.4872 -0.521534 0
M  V30 305 C 30.492 -1.66771 -1.63431 0
M  V30 306 C 31.473 -0.516499 -1.62069 0
M  V30 307 O 32.658 -0.750013 -1.79132 0
M  V30 308 C 29.788 -1.71515 -3.01993 0
M  V30 309 C 28.742 -2.86222 -3.18216 0
M  V30 310 C 28.068 -2.76061 -4.57924 0
M  V30 311 C 29.368 -4.27419 -3.00184 0
M  V30 312 H 31.062 -2.59932 -1.48579 0
M  V30 313 H 28.608 -1.25089 -0.713358 0
M  V30 314 H 30.561 -1.82731 -3.7972 0
M  V30 315 H 29.285 -0.749393 -3.17886 0
M  V30 316 H 27.944 -2.74575 -2.42908 0
M  V30 317 H 27.592 -1.77437 -4.70665 0
M  V30 318 H 27.292 -3.53037 -4.69722 0
M  V30 319 H 28.816 -2.89256 -5.37739 0
M  V30 320 H 30.23 -4.39855 -3.67697 0
M  V30 321 H 28.627 -5.05458 -3.2347 0
M  V30 322 H 29.697 -4.43293 -1.96518 0
M  V30 323 N 31.0401 0.771051 -1.3745 0
M  V30 324 C 31.9701 1.89827 -1.3597 0
M  V30 325 C 32.9511 1.68562 -0.228216 0
M  V30 326 O 34.1361 1.8941 -0.428675 0
M  V30 327 C 31.2661 3.2712 -1.16662 0
M  V30 328 C 30.2201 3.6295 -2.2683 0
M  V30 329 C 29.5461 4.98791 -1.92644 0
M  V30 330 C 30.8461 3.69627 -3.69017 0
M  V30 331 H 32.5401 1.91323 -2.30295 0
M  V30 332 H 30.0861 0.919082 -1.10855 0
M  V30 333 H 32.0391 4.05615 -1.14256 0
M  V30 334 H 30.7631 3.26059 -0.187926 0
M  V30 335 H 29.4221 2.86763 -2.28392 0
M  V30 336 H 29.0701 4.94271 -0.933021 0
M  V30 337 H 28.7701 5.23733 -2.66416 0
M  V30 338 H 30.2941 5.79685 -1.91826 0
M  V30 339 H 31.7081 4.38273 -3.69581 0
M  V30 340 H 30.1051 4.06067 -4.41848 0
M  V30 341 H 31.1751 2.70273 -4.02592 0
M  V30 342 N 32.5182 1.22032 0.997298 0
M  V30 343 C 33.7652 1.04222 1.73621 0
M  V30 344 C 34.0932 -0.423264 1.89839 0
M  V30 345 O 33.3482 -1.3302 1.43542 0
M  V30 346 C 33.6472 1.69345 3.14733 0
M  V30 347 C 33.3132 3.19226 3.18442 0
M  V30 348 C 31.9752 3.60124 3.19161 0
M  V30 349 C 34.3272 4.15181 3.15078 0
M  V30 350 C 31.6552 4.95467 3.14212 0
M  V30 351 C 34.0072 5.50495 3.1167 0
M  V30 352 C 32.6712 5.90779 3.10703 0
M  V30 353 H 31.9412 0.381374 0.635323 0
M  V30 354 H 34.5882 1.51732 1.16831 0
M  V30 355 H 32.8932 1.14147 3.74803 0
M  V30 356 H 34.5902 1.53059 3.7064 0
M  V30 357 H 31.1802 2.86659 3.18629 0
M  V30 358 H 35.3642 3.84605 3.13676 0
M  V30 359 H 30.6202 5.25916 3.11805 0
M  V30 360 H 34.7942 6.24576 3.08022 0
M  V30 361 H 32.4212 6.9562 3.06622 0
M  V30 362 N 33.9963 -1.19345 1.0293 0
M  V30 363 C 34.9283 -2.22036 0.56857 0
M  V30 364 C 35.9413 -1.58865 -0.355779 0
M  V30 365 O 37.1303 -1.77851 -0.152103 0
M  V30 366 C 34.2303 -3.38363 -0.190752 0
M  V30 367 C 33.4033 -4.31118 0.738643 0
M  V30 368 C 32.4623 -5.26194 0.0246497 0
M  V30 369 O 31.4883 -5.65461 0.651354 0
M  V30 370 N 32.6903 -5.66971 -1.24594 0
M  V30 371 H 35.4553 -2.6219 1.45177 0
M  V30 372 H 33.0163 -1.34015 0.908381 0
M  V30 373 H 35.0083 -3.98981 -0.677961 0
M  V30 374 H 33.5783 -2.96994 -0.975366 0
M  V30 375 H 32.7983 -3.68276 1.40593 0
M  V30 376 H 34.0863 -4.90001 1.37029 0
M  V30 377 H 33.4843 -5.37104 -1.77583 0
M  V30 378 H 32.0413 -6.2984 -1.67764 0
M  V30 379 N 35.4744 -0.807222 -1.35358 0
M  V30 380 C 36.4044 -0.232509 -2.3234 0
M  V30 381 C 37.3854 0.642386 -1.57504 0
M  V30 382 O 38.5704 0.572526 -1.85569 0
M  V30 383 C 35.7004 0.619238 -3.41735 0
M  V30 384 C 34.6544 -0.157215 -4.27711 0
M  V30 385 C 33.9804 0.816273 -5.28433 0
M  V30 386 C 35.2804 -1.35656 -5.04376 0
M  V30 387 H 36.9744 -1.04276 -2.80654 0
M  V30 388 H 34.5204 -0.50288 -1.34934 0
M  V30 389 H 36.4734 1.03137 -4.08584 0
M  V30 390 H 35.1974 1.46239 -2.92031 0
M  V30 391 H 33.8564 -0.550525 -3.62443 0
M  V30 392 H 33.5044 1.65494 -4.74996 0
M  V30 393 H 33.2044 0.301067 -5.86828 0
M  V30 394 H 34.7284 1.22659 -5.98153 0
M  V30 395 H 36.1424 -1.01927 -5.64166 0
M  V30 396 H 34.5394 -1.8063 -5.7227 0
M  V30 397 H 35.6094 -2.14288 -4.34981 0
M  V30 398 N 36.9525 1.47285 -0.560781 0
M  V30 399 C 38.1775 2.07359 -0.0410566 0
M  V30 400 C 38.6025 1.41017 1.24483 0
M  V30 401 O 37.9605 0.486368 1.74654 0
M  V30 402 C 38.0085 3.6035 0.134123 0
M  V30 403 O 37.1125 3.94681 1.19587 0
M  V30 404 H 36.4535 0.661887 -0.0529291 0
M  V30 405 H 38.9835 1.89252 -0.777482 0
M  V30 406 H 38.9935 4.0652 0.347207 0
M  V30 407 H 37.6685 4.08034 -0.805047 0
M  V30 408 H 36.2455 3.60251 0.962987 0
M  V30 409 N 38.4306 0.297415 1.54768 0
M  V30 410 C 39.6766 -0.313376 2.00364 0
M  V30 411 C 40.0096 -1.53815 1.18553 0
M  V30 412 O 39.2846 -1.92739 0.261103 0
M  V30 413 C 39.5676 -0.673525 3.53745 0
M  V30 414 C 39.4206 0.560133 4.46299 0
M  V30 415 C 40.7396 -1.50143 4.13697 0
M  V30 416 H 37.8586 -0.112428 0.728374 0
M  V30 417 H 40.5006 0.4088 1.8555 0
M  V30 418 H 38.6506 -1.28881 3.665 0
M  V30 419 H 40.3226 1.19863 4.45455 0
M  V30 420 H 38.5656 1.19405 4.17043 0
M  V30 421 H 39.2366 0.26405 5.51368 0
M  V30 422 H 41.7126 -0.981588 4.04356 0
M  V30 423 H 40.5886 -1.72221 5.21182 0
M  V30 424 H 40.8496 -2.48952 3.65343 0
M  V30 425 N 39.9087 -1.5758 0.0250728 0
M  V30 426 C 40.8587 -2.06468 -0.967201 0
M  V30 427 C 41.8427 -0.964376 -1.28797 0
M  V30 428 O 43.0347 -1.22797 -1.27475 0
M  V30 429 C 40.1637 -2.59203 -2.25097 0
M  V30 430 C 39.2497 -3.76157 -1.95874 0
M  V30 431 N 39.6407 -4.86919 -1.36905 0
M  V30 432 C 37.9387 -3.84566 -2.25887 0
M  V30 433 C 38.6397 -5.68172 -1.24724 0
M  V30 434 N 37.6157 -5.14953 -1.74138 0
M  V30 435 H 41.4177 -2.89508 -0.506176 0
M  V30 436 H 38.9317 -1.61399 -0.18004 0
M  V30 437 H 40.9287 -2.92517 -2.97052 0
M  V30 438 H 39.5887 -1.77592 -2.71829 0
M  V30 439 H 40.5997 -5.07256 -1.04459 0
M  V30 440 H 37.2767 -3.13854 -2.75321 0
M  V30 441 H 38.6667 -6.67221 -0.791605 0
M  V30 442 N 41.3868 0.248026 -1.55636 0
M  V30 443 C 42.2968 1.32859 -1.93354 0
M  V30 444 C 43.3128 1.52719 -0.833838 0
M  V30 445 O 44.4888 1.66363 -1.13513 0
M  V30 446 C 41.5538 2.66337 -2.21958 0
M  V30 447 C 40.6148 2.55008 -3.45354 0
M  V30 448 C 39.8478 3.82121 -3.72584 0
M  V30 449 O 40.0708 4.83951 -3.01907 0
M  V30 450 O 39.0048 3.80822 -4.6611 0
M  V30 451 H 42.8308 1.03862 -2.85388 0
M  V30 452 H 40.4158 0.448686 -1.42503 0
M  V30 453 H 42.2978 3.45216 -2.4167 0
M  V30 454 H 40.9728 2.95068 -1.33103 0
M  V30 455 H 39.8798 1.7442 -3.30951 0
M  V30 456 H 41.2128 2.31222 -4.34508 0
M  V30 457 N 42.8649 1.48995 0.513639 0
M  V30 458 C 44.2809 1.35478 0.843682 0
M  V30 459 C 44.4809 0.378213 1.97919 0
M  V30 460 O 43.5369 -0.194689 2.51748 0
M  V30 461 C 44.8499 2.75901 1.1958 0
M  V30 462 C 46.3979 2.84509 1.30474 0
M  V30 463 C 46.8729 4.25671 1.69021 0
M  V30 464 N 48.3639 4.28422 1.76094 0
M  V30 465 C 49.0989 5.34601 2.07338 0
M  V30 466 N 48.5949 6.5104 2.36894 0
M  V30 467 N 50.3879 5.22007 2.08483 0
M  V30 468 H 42.5389 2.11092 -0.235328 0
M  V30 469 H 44.8019 0.947039 -0.0426669 0
M  V30 470 H 44.5079 3.49001 0.434913 0
M  V30 471 H 44.3819 3.10467 2.1422 0
M  V30 472 H 46.7689 2.11655 2.05637 0
M  V30 473 H 46.8499 2.53542 0.339155 0
M  V30 474 H 46.4939 4.99048 0.944135 0
M  V30 475 H 46.4239 4.54094 2.66658 0
M  V30 476 H 48.9149 3.44441 1.55464 0
M  V30 477 H 49.2279 7.2779 2.59887 0
M  V30 478 H 47.5729 6.54287 2.34378 0
M  V30 479 H 50.7639 4.30051 1.84861 0
M  V30 480 H 50.9369 6.04854 2.325 0
M  V30 481 N 44.343 -0.763751 1.37857 0
M  V30 482 C 45.253 -1.90817 1.36478 0
M  V30 483 C 46.269 -1.71997 0.263248 0
M  V30 484 O 47.445 -1.95095 0.499979 0
M  V30 485 C 44.51 -3.2605 1.17864 0
M  V30 486 C 43.571 -3.57467 2.3773 0
M  V30 487 C 42.804 -4.86249 2.19995 0
M  V30 488 O 43.027 -5.57884 1.18836 0
M  V30 489 O 41.961 -5.16911 3.08361 0
M  V30 490 H 45.787 -1.94933 2.32884 0
M  V30 491 H 43.372 -0.907619 1.1867 0
M  V30 492 H 45.254 -4.06924 1.09504 0
M  V30 493 H 43.929 -3.22769 0.245372 0
M  V30 494 H 42.836 -2.76796 2.51664 0
M  V30 495 H 44.169 -3.655 3.29652 0
M  V30 496 N 45.8211 -1.22559 -0.990812 0
M  V30 497 C 46.7511 -1.0218 -2.09956 0
M  V30 498 C 47.7321 0.0579394 -1.70001 0
M  V30 499 O 48.9171 -0.104684 -1.93918 0
M  V30 500 C 46.0471 -0.601023 -3.4206 0
M  V30 501 C 45.0011 -1.62694 -3.95872 0
M  V30 502 C 44.3271 -1.06193 -5.24049 0
M  V30 503 C 45.6271 -3.01743 -4.2632 0
M  V30 504 H 47.3211 -1.94916 -2.27262 0
M  V30 505 H 44.8671 -0.938566 -1.09211 0
M  V30 506 H 46.8201 -0.445561 -4.19038 0
M  V30 507 H 45.5441 0.362005 -3.24588 0
M  V30 508 H 44.2031 -1.77021 -3.21028 0
M  V30 509 H 43.8511 -0.0901903 -5.02919 0
M  V30 510 H 43.5511 -1.74732 -5.61019 0
M  V30 511 H 45.0751 -0.918092 -6.03658 0
M  V30 512 H 46.4891 -2.90777 -4.94087 0
M  V30 513 H 44.8861 -3.67425 -4.74467 0
M  V30 514 H 45.9561 -3.51518 -3.34011 0
M  V30 515 N 47.2992 1.18797 -1.03562 0
M  V30 516 C 48.5762 1.84469 -0.650434 0
M  V30 517 C 48.9562 1.92319 0.870433 0
M  V30 518 O 48.3042 1.44528 1.76986 0
M  V30 519 C 48.5142 3.2306 -1.32036 0
M  V30 520 C 49.8622 3.9915 -1.44792 0
M  V30 521 O 50.8862 3.32481 -1.27806 0
M  V30 522 O 49.7452 5.18587 -1.72423 0
M  V30 523 H 46.8392 0.795251 -0.226946 0
M  V30 524 H 49.3852 1.26231 -1.13419 0
M  V30 525 H 48.1572 3.1222 -2.3587 0
M  V30 526 H 47.7802 3.88949 -0.8249 0
M  V30 527 N 48.7773 0.814389 1.34928 0
M  V30 528 C 49.7073 0.244827 2.32213 0
M  V30 529 C 50.6883 -0.634024 1.57842 0
M  V30 530 O 51.8733 -0.562676 1.8587 0
M  V30 531 C 49.0033 -0.601106 3.42058 0
M  V30 532 C 47.9573 0.179896 4.27622 0
M  V30 533 C 47.2833 -0.788237 5.28858 0
M  V30 534 C 48.5833 1.38329 5.03649 0
M  V30 535 H 50.2773 1.05763 2.80097 0
M  V30 536 H 47.8233 0.510029 1.34665 0
M  V30 537 H 49.7763 -1.00968 4.09125 0
M  V30 538 H 48.5003 -1.44688 2.92802 0
M  V30 539 H 47.1593 0.569739 3.62146 0
M  V30 540 H 46.8073 -1.62973 4.75866 0
M  V30 541 H 46.5073 -0.269942 5.8698 0
M  V30 542 H 48.0313 -1.19485 5.98795 0
M  V30 543 H 49.4453 1.04918 5.63618 0
M  V30 544 H 47.8423 1.83662 5.71304 0
M  V30 545 H 48.9123 2.16592 4.33839 0
M  V30 546 N 50.2554 -1.46986 0.568584 0
M  V30 547 C 51.5014 -2.02741 0.0488709 0
M  V30 548 C 51.8344 -1.44077 -1.30214 0
M  V30 549 O 51.1094 -0.600552 -1.84996 0
M  V30 550 C 51.3924 -3.60086 -0.032047 0
M  V30 551 C 51.2454 -4.29162 1.34686 0
M  V30 552 C 52.5644 -4.33838 -0.739798 0
M  V30 553 H 49.6834 -0.736749 0.0192338 0
M  V30 554 H 52.3254 -1.75289 0.733065 0
M  V30 555 H 50.4754 -3.83606 -0.61473 0
M  V30 556 H 52.1474 -4.16948 1.97362 0
M  V30 557 H 50.3904 -3.89073 1.91846 0
M  V30 558 H 51.0614 -5.37826 1.24285 0
M  V30 559 H 53.5374 -4.15378 -0.244939 0
M  V30 560 H 52.4134 -5.43537 -0.765406 0
M  V30 561 H 52.6744 -4.03875 -1.79827 0
M  V30 562 N 51.7335 -0.305618 -1.54608 0
M  V30 563 C 52.9805 0.302298 -2.00231 0
M  V30 564 C 53.3085 1.5354 -1.19398 0
M  V30 565 O 52.5635 1.93973 -0.259423 0
M  V30 566 C 52.8625 0.698983 -3.50498 0
M  V30 567 C 52.5285 -0.432903 -4.48817 0
M  V30 568 C 51.1905 -0.743622 -4.75419 0
M  V30 569 C 53.5425 -1.19409 -5.07337 0
M  V30 570 C 50.8705 -1.81857 -5.57804 0
M  V30 571 C 53.2225 -2.25899 -5.90891 0
M  V30 572 C 51.8865 -2.57572 -6.15803 0
M  V30 573 H 51.1565 0.110619 -0.732697 0
M  V30 574 H 53.8035 -0.425674 -1.86709 0
M  V30 575 H 52.1085 1.50711 -3.61654 0
M  V30 576 H 53.8055 1.1806 -3.83227 0
M  V30 577 H 50.3955 -0.18063 -4.28219 0
M  V30 578 H 54.5795 -0.967295 -4.86782 0
M  V30 579 H 49.8355 -2.06864 -5.75341 0
M  V30 580 H 54.0095 -2.85335 -6.35261 0
M  V30 581 H 51.6365 -3.40998 -6.7943 0
M  V30 582 N 53.2116 1.57565 -0.0334293 0
M  V30 583 C 54.1416 2.13511 0.945265 0
M  V30 584 C 55.1226 1.05231 1.33643 0
M  V30 585 O 56.3076 1.33084 1.41429 0
M  V30 586 C 53.4376 2.6657 2.22616 0
M  V30 587 C 52.3916 3.79676 1.97561 0
M  V30 588 C 51.7176 4.1918 3.31952 0
M  V30 589 C 53.0176 5.0557 1.31135 0
M  V30 590 H 54.7116 2.95538 0.479325 0
M  V30 591 H 52.2576 1.42166 0.229115 0
M  V30 592 H 54.2106 3.04344 2.91466 0
M  V30 593 H 52.9346 1.8171 2.71384 0
M  V30 594 H 51.5936 3.42347 1.31127 0
M  V30 595 H 51.2416 3.31296 3.78487 0
M  V30 596 H 50.9416 4.95402 3.15992 0
M  V30 597 H 52.4656 4.59541 4.02063 0
M  V30 598 H 53.8796 5.40903 1.89992 0
M  V30 599 H 52.2766 5.86818 1.25559 0
M  V30 600 H 53.3466 4.84062 0.284894 0
M  V30 601 N 54.6897 -0.239769 1.55765 0
M  V30 602 C 55.9667 -0.990056 1.68693 0
M  V30 603 C 56.3467 -2.03107 0.5754 0
M  V30 604 O 55.6947 -2.24604 -0.42017 0
M  V30 605 C 55.9047 -1.61696 3.09282 0
M  V30 606 C 57.2527 -2.11613 3.6811 0
M  V30 607 O 58.2767 -1.71624 3.12127 0
M  V30 608 O 57.1357 -2.85057 4.66267 0
M  V30 609 H 54.2297 -0.461299 0.686391 0
M  V30 610 H 56.7757 -0.232991 1.68093 0
M  V30 611 H 55.5477 -0.864357 3.81634 0
M  V30 612 H 55.1707 -2.44005 3.13923 0
M  V30 613 N 56.1678 -1.49265 -0.50573 0
M  V30 614 C 57.1178 -1.6198 -1.60457 0
M  V30 615 C 58.1018 -0.47568 -1.53708 0
M  V30 616 O 59.2938 -0.728392 -1.61318 0
M  V30 617 C 56.4228 -1.68526 -2.99089 0
M  V30 618 C 55.5088 -2.885 -3.10852 0
M  V30 619 N 55.8998 -4.12635 -2.92517 0
M  V30 620 C 54.1978 -2.86338 -3.41945 0
M  V30 621 C 54.8988 -4.93258 -3.08337 0
M  V30 622 N 53.8748 -4.26533 -3.37003 0
M  V30 623 H 57.6768 -2.55681 -1.44928 0
M  V30 624 H 55.1908 -1.45972 -0.711752 0
M  V30 625 H 57.1878 -1.75732 -3.78053 0
M  V30 626 H 55.8478 -0.759584 -3.1569 0
M  V30 627 H 56.8588 -4.42689 -2.68787 0
M  V30 628 H 53.5358 -2.03129 -3.64753 0
M  V30 629 H 54.9258 -6.01856 -2.98695 0
M  V30 630 N 57.6459 0.756429 -1.3826 0
M  V30 631 C 58.8709 1.55077 -1.37717 0
M  V30 632 C 59.2959 1.88073 0.03164 0
M  V30 633 O 58.6539 1.50364 1.01293 0
M  V30 634 C 58.7019 2.8283 -2.23695 0
M  V30 635 O 57.8059 3.77862 -1.6521 0
M  V30 636 H 57.1469 0.469152 -0.469885 0
M  V30 637 H 59.6769 0.935019 -1.81985 0
M  V30 638 H 59.6869 3.31783 -2.37453 0
M  V30 639 H 58.3619 2.58144 -3.2609 0
M  V30 640 H 56.9389 3.36555 -1.60578 0
M  V30 641 N 59.124 1.23083 0.984299 0
M  V30 642 C 60.354 1.08556 1.75781 0
M  V30 643 C 60.762 -0.366171 1.85623 0
M  V30 644 O 60.105 -1.26524 1.33182 0
M  V30 645 C 60.167 1.63208 3.20318 0
M  V30 646 C 59.831 3.11922 3.33997 0
M  V30 647 C 60.828 4.09259 3.2063 0
M  V30 648 C 58.513 3.51552 3.58771 0
M  V30 649 C 60.507 5.4421 3.31835 0
M  V30 650 C 58.194 4.86649 3.69616 0
M  V30 651 C 59.192 5.82787 3.56157 0
M  V30 652 O 58.88 7.15431 3.66626 0
M  V30 653 H 58.612 0.380713 0.5586 0
M  V30 654 H 61.166 1.63321 1.2456 0
M  V30 655 H 59.396 1.0286 3.72769 0
M  V30 656 H 61.085 1.44216 3.79416 0
M  V30 657 H 61.851 3.79984 3.01392 0
M  V30 658 H 57.73 2.77239 3.6832 0
M  V30 659 H 61.274 6.1923 3.21247 0
M  V30 660 H 57.171 5.15601 3.88363 0
M  V30 661 H 57.939 7.23127 3.83445 0
M  V30 662 N 60.6021 -1.18246 1.0419 0
M  V30 663 C 61.5651 -2.20128 0.638452 0
M  V30 664 C 62.5651 -1.57885 -0.304805 0
M  V30 665 O 63.7551 -1.73967 -0.0900369 0
M  V30 666 C 60.8871 -3.4084 -0.0637751 0
M  V30 667 H 62.0801 -2.57336 1.54007 0
M  V30 668 H 59.6331 -1.32152 0.834598 0
M  V30 669 H 60.3681 -3.09166 -0.979136 0
M  V30 670 H 60.1531 -3.8726 0.614198 0
M  V30 671 H 61.6431 -4.16274 -0.332512 0
M  V30 672 N 62.0802 -0.821533 -1.34494 0
M  V30 673 C 63.0272 -0.240397 -2.29545 0
M  V30 674 C 63.9972 0.634031 -1.53523 0
M  V30 675 O 65.1822 0.575966 -1.81899 0
M  V30 676 C 62.3222 0.592869 -3.39969 0
M  V30 677 C 61.4352 -0.30365 -4.30932 0
M  V30 678 C 60.5702 0.539049 -5.28458 0
M  V30 679 C 59.6092 -0.356942 -6.11058 0
M  V30 680 N 58.7462 0.446603 -7.00678 0
M  V30 681 H 63.5862 -1.05632 -2.7865 0
M  V30 682 H 61.1232 -0.532413 -1.37127 0
M  V30 683 H 63.0812 1.09129 -4.02675 0
M  V30 684 H 61.7112 1.37392 -2.92102 0
M  V30 685 H 60.7632 -0.920276 -3.691 0
M  V30 686 H 62.0752 -0.992661 -4.88823 0
M  V30 687 H 61.2292 1.102 -5.96608 0
M  V30 688 H 59.9682 1.26157 -4.71101 0
M  V30 689 H 58.9732 -0.932047 -5.41842 0
M  V30 690 H 60.1982 -1.07755 -6.70497 0
M  V30 691 H 58.1442 1.15282 -6.45791 0
M  V30 692 H 58.0612 -0.184048 -7.55776 0
M  V30 693 H 59.3292 0.992352 -7.73158 0
M  V30 694 N 63.5583 1.46682 -0.576371 0
M  V30 695 C 64.9693 1.86112 -0.148091 0
M  V30 696 C 65.3203 1.48073 1.2872 0
M  V30 697 O 64.4453 0.892656 1.97131 0
M  V30 698 C 65.0403 3.37786 -0.261982 0
M  V30 699 C 63.5993 3.76235 0.111384 0
M  V30 700 C 62.7463 2.70713 -0.60083 0
M  V30 701 H 65.6973 1.37927 -0.78497 0
M  V30 702 H 65.7183 3.77007 0.514364 0
M  V30 703 H 65.2303 3.6544 -1.30671 0
M  V30 704 H 63.3313 3.54198 1.15649 0
M  V30 705 H 63.4443 4.78391 -0.26052 0
M  V30 706 H 61.8083 2.54666 -0.0417783 0
M  V30 707 H 62.5913 3.01208 -1.64708 0
M  V30 708 N 65.0364 0.313813 1.54444 0
M  V30 709 C 66.2824 -0.284918 2.01395 0
M  V30 710 C 66.6374 -1.50537 1.19818 0
M  V30 711 O 65.9304 -1.89692 0.269748 0
M  V30 712 C 66.1244 -0.680386 3.50864 0
M  V30 713 C 65.9534 0.500198 4.4691 0
M  V30 714 C 64.7234 0.996248 4.95382 0
M  V30 715 C 66.9214 1.34928 4.96285 0
M  V30 716 N 64.9034 2.14226 5.75309 0
M  V30 717 C 66.2744 2.3426 5.7404 0
M  V30 718 C 68.3294 1.37818 4.78446 0
M  V30 719 C 67.0324 3.36272 6.35856 0
M  V30 720 C 69.0584 2.38695 5.4109 0
M  V30 721 C 68.4204 3.36755 6.18688 0
M  V30 722 H 64.5194 -0.0683689 0.779006 0
M  V30 723 H 67.1034 0.44664 1.89508 0
M  V30 724 H 65.2744 -1.38109 3.63016 0
M  V30 725 H 67.0064 -1.25975 3.84594 0
M  V30 726 H 63.7614 0.56912 4.70168 0
M  V30 727 H 64.1854 2.72005 6.19953 0
M  V30 728 H 68.8274 0.633747 4.18023 0
M  V30 729 H 66.5454 4.11627 6.95405 0
M  V30 730 H 70.1314 2.41721 5.29209 0
M  V30 731 H 69.0114 4.13535 6.66302 0
M  V30 732 N 66.5145 -1.57545 0.0417849 0
M  V30 733 C 67.7395 -1.97035 -0.647455 0
M  V30 734 C 68.1645 -0.918775 -1.64135 0
M  V30 735 O 67.5225 0.119006 -1.80909 0
M  V30 736 C 67.5705 -3.35609 -1.31905 0
M  V30 737 O 66.6745 -3.3287 -2.43457 0
M  V30 738 H 66.0155 -0.64211 -0.169086 0
M  V30 739 H 68.5455 -2.04318 0.107399 0
M  V30 740 H 68.5555 -3.72126 -1.67291 0
M  V30 741 H 67.2305 -4.11685 -0.590586 0
M  V30 742 H 65.8075 -3.08087 -2.10088 0
M  V30 743 N 67.9926 0.231505 -1.5589 0
M  V30 744 C 68.9556 1.27028 -1.90779 0
M  V30 745 C 69.9556 1.40308 -0.785507 0
M  V30 746 O 71.1456 1.38744 -1.05336 0
M  V30 747 C 68.2776 2.64566 -2.14983 0
M  V30 748 H 69.4706 0.973017 -2.83677 0
M  V30 749 H 67.0236 0.471486 -1.49019 0
M  V30 750 H 67.7586 2.99406 -1.24604 0
M  V30 751 H 67.5436 2.56305 -2.96732 0
M  V30 752 H 69.0336 3.39543 -2.43105 0
M  V30 753 N 69.4707 1.49531 0.497807 0
M  V30 754 C 70.4207 1.62829 1.59596 0
M  V30 755 C 71.4047 0.483824 1.53453 0
M  V30 756 O 72.5967 0.736937 1.60929 0
M  V30 757 C 69.7257 1.7011 2.98191 0
M  V30 758 C 68.8117 2.90144 3.09317 0
M  V30 759 N 69.2027 4.1418 2.90324 0
M  V30 760 C 67.5007 2.88148 3.40422 0
M  V30 761 C 68.2017 4.94886 3.05717 0
M  V30 762 N 67.1777 4.28314 3.34736 0
M  V30 763 H 70.9797 2.56446 1.4357 0
M  V30 764 H 68.4937 1.46347 0.704001 0
M  V30 765 H 70.4907 1.77735 3.77115 0
M  V30 766 H 69.1507 0.776315 3.15283 0
M  V30 767 H 70.1617 4.44109 2.66436 0
M  V30 768 H 66.8387 2.05061 3.63671 0
M  V30 769 H 68.2287 6.03432 2.95499 0
M  V30 770 N 70.9488 -0.749086 1.3866 0
M  V30 771 C 72.3598 -1.32664 1.31366 0
M  V30 772 C 72.7108 -1.96179 -0.028484 0
M  V30 773 O 71.8358 -1.9537 -0.93057 0
M  V30 774 C 72.4308 -2.41219 2.37905 0
M  V30 775 C 70.9898 -2.94684 2.34176 0
M  V30 776 C 70.1368 -1.68108 2.20533 0
M  V30 777 H 73.0878 -0.547628 1.48952 0
M  V30 778 H 73.1088 -3.21268 2.0388 0
M  V30 779 H 72.6208 -1.94962 3.35576 0
M  V30 780 H 70.7218 -3.45258 1.401 0
M  V30 781 H 70.8348 -3.48757 3.2849 0
M  V30 782 H 69.1988 -1.91907 1.67463 0
M  V30 783 H 69.9818 -1.23923 3.20153 0
M  V30 784 N 72.4269 -1.23603 -0.977757 0
M  V30 785 C 73.7039 -0.977897 -1.69401 0
M  V30 786 C 74.0839 0.502738 -2.05026 0
M  V30 787 O 73.4319 1.47459 -1.74551 0
M  V30 788 C 73.6419 -1.89077 -2.93345 0
M  V30 789 C 74.9899 -2.15579 -3.65802 0
M  V30 790 O 76.0139 -1.86648 -3.03383 0
M  V30 791 O 74.8729 -2.64658 -4.78141 0
M  V30 792 H 71.9669 -0.369025 -0.740101 0
M  V30 793 H 74.5129 -1.34657 -1.03274 0
M  V30 794 H 73.2849 -2.89158 -2.63634 0
M  V30 795 H 72.9079 -1.52463 -3.67207 0
M  V30 796 N 73.905 1.17692 -1.04816 0
M  V30 797 C 74.868 2.19787 -0.650117 0
M  V30 798 C 75.868 1.58044 0.296427 0
M  V30 799 O 77.058 1.74012 0.0808097 0
M  V30 800 C 74.19 3.40869 0.0456987 0
M  V30 801 H 75.383 2.56516 -1.5537 0
M  V30 802 H 72.936 1.31708 -0.841594 0
M  V30 803 H 73.671 3.09681 0.962726 0
M  V30 804 H 73.456 3.86928 -0.634727 0
M  V30 805 H 74.946 4.16445 0.310432 0
M  V30 806 N 75.3831 0.828654 1.34056 0
M  V30 807 C 76.6081 0.431637 2.02859 0
M  V30 808 C 77.0331 -0.956339 1.61975 0
M  V30 809 O 76.3911 -1.62338 0.807228 0
M  V30 810 C 76.4391 0.548323 3.56407 0
M  V30 811 O 75.5431 -0.429556 4.10157 0
M  V30 812 H 74.8841 0.176886 0.640006 0
M  V30 813 H 77.4141 1.12066 1.71179 0
M  V30 814 H 77.4241 0.426196 4.05768 0
M  V30 815 H 76.0991 1.5606 3.8551 0
M  V30 816 H 74.6761 -0.265836 3.71951 0
M  V30 817 N 76.8612 -1.46375 0.584142 0
M  V30 818 C 78.0862 -2.07268 0.0740405 0
M  V30 819 C 78.5112 -1.42979 -1.22223 0
M  V30 820 O 77.8692 -0.514092 -1.73859 0
M  V30 821 C 77.9172 -3.60518 -0.0767769 0
M  V30 822 O 77.0212 -3.96533 -1.13292 0
M  V30 823 H 76.3622 -0.660961 0.0634524 0
M  V30 824 H 78.8922 -1.87991 0.807492 0
M  V30 825 H 78.9022 -4.07021 -0.282489 0
M  V30 826 H 77.5772 -4.06702 0.86986 0
M  V30 827 H 76.1542 -3.61738 -0.905553 0
M  V30 828 N 78.3393 -0.321999 -1.54275 0
M  V30 829 C 79.3023 0.531975 -2.22941 0
M  V30 830 C 80.3023 1.04478 -1.22234 0
M  V30 831 O 81.4923 0.937452 -1.46825 0
M  V30 832 C 78.6243 1.73874 -2.93224 0
M  V30 833 H 79.8173 -0.0682612 -2.99822 0
M  V30 834 H 77.3703 -0.0730644 -1.56129 0
M  V30 835 H 78.1053 2.37825 -2.20476 0
M  V30 836 H 77.8903 1.37847 -3.6707 0
M  V30 837 H 79.3803 2.34496 -3.45545 0
M  V30 838 N 79.8174 1.5752 -0.0501392 0
M  V30 839 C 81.2334 1.56631 0.306402 0
M  V30 840 C 81.4334 1.0577 1.71508 0
M  V30 841 O 80.4894 0.713837 2.422 0
M  V30 842 C 81.8024 3.00393 0.135811 0
M  V30 843 C 83.3504 3.12315 0.206993 0
M  V30 844 C 83.8254 4.57954 0.064944 0
M  V30 845 N 85.3164 4.63041 0.121254 0
M  V30 846 C 86.0514 5.73389 0.0354381 0
M  V30 847 N 85.5474 6.92724 -0.102666 0
M  V30 848 N 87.3404 5.62026 0.090946 0
M  V30 849 H 79.4914 1.88903 -0.971046 0
M  V30 850 H 81.7544 0.869876 -0.376855 0
M  V30 851 H 81.4604 3.41635 -0.835384 0
M  V30 852 H 81.3344 3.66373 0.897275 0
M  V30 853 H 83.7214 2.70973 1.16866 0
M  V30 854 H 83.8024 2.49016 -0.585208 0
M  V30 855 H 83.4464 4.99981 -0.893394 0
M  V30 856 H 83.3764 5.19258 0.876277 0
M  V30 857 H 85.8674 3.77216 0.227284 0
M  V30 858 H 86.1804 7.72633 -0.160882 0
M  V30 859 H 84.5254 6.94864 -0.137737 0
M  V30 860 H 87.7164 4.67684 0.197388 0
M  V30 861 H 87.8894 6.47997 0.0206089 0
M  V30 862 N 81.2955 -0.223234 1.56011 0
M  V30 863 C 82.7065 -0.790368 1.69145 0
M  V30 864 C 83.0575 -1.85055 0.651845 0
M  V30 865 O 82.1825 -2.15498 -0.197359 0
M  V30 866 C 82.7775 -1.4404 3.06656 0
M  V30 867 C 81.3365 -1.95494 3.2165 0
M  V30 868 C 80.4835 -0.814506 2.65068 0
M  V30 869 H 83.4345 0.00139011 1.587 0
M  V30 870 H 83.4555 -2.30916 3.0242 0
M  V30 871 H 82.9675 -0.668543 3.82298 0
M  V30 872 H 81.0685 -2.75487 2.50874 0
M  V30 873 H 81.1815 -2.13607 4.28846 0
M  V30 874 H 79.5455 -1.22137 2.23505 0
M  V30 875 H 80.3285 -0.0553515 3.43255 0
M  V30 876 N 82.7736 -1.49793 -0.48987 0
M  V30 877 C 84.0016 -1.63568 -1.26701 0
M  V30 878 C 84.4166 -0.311465 -1.86213 0
M  V30 879 O 83.7736 0.704416 -1.68357 0
M  V30 880 C 83.8246 -2.71284 -2.38929 0
M  V30 881 O 83.5456 -3.9857 -1.81861 0
M  V30 882 C 85.0466 -2.95864 -3.3012 0
M  V30 883 H 82.2666 -0.550342 -0.383881 0
M  V30 884 H 84.8106 -1.95898 -0.586864 0
M  V30 885 H 82.9656 -2.417 -3.02753 0
M  V30 886 H 83.3796 -4.57993 -2.55622 0
M  V30 887 H 84.8536 -3.74941 -4.05121 0
M  V30 888 H 85.3306 -2.06206 -3.87783 0
M  V30 889 H 85.9366 -3.26907 -2.72051 0
M  V30 890 N 84.2517 0.741722 -1.39055 0
M  V30 891 C 85.6677 1.04638 -1.20512 0
M  V30 892 C 85.8677 2.01405 -0.0620218 0
M  V30 893 O 84.9237 2.45547 0.588457 0
M  V30 894 C 86.2367 1.6151 -2.53643 0
M  V30 895 C 87.7847 1.73623 -2.6043 0
M  V30 896 C 88.2597 2.33906 -3.93767 0
M  V30 897 N 89.7507 2.41323 -3.9537 0
M  V30 898 C 90.4857 2.88888 -4.95309 0
M  V30 899 N 89.9817 3.36401 -6.05645 0
M  V30 900 N 91.7747 2.88037 -4.82692 0
M  V30 901 H 83.9257 0.0998155 -2.12165 0
M  V30 902 H 86.1887 0.106907 -0.941953 0
M  V30 903 H 85.8947 0.978739 -3.37807 0
M  V30 904 H 85.7687 2.60411 -2.72885 0
M  V30 905 H 88.1557 2.36384 -1.76655 0
M  V30 906 H 88.2367 0.733945 -2.45045 0
M  V30 907 H 87.8807 1.71776 -4.7797 0
M  V30 908 H 87.8107 3.34799 -4.06469 0
M  V30 909 H 90.3017 2.07734 -3.15682 0
M  V30 910 H 90.6147 3.71186 -6.77821 0
M  V30 911 H 88.9597 3.34427 -6.09248 0
M  V30 912 H 92.1507 2.50237 -3.95599 0
M  V30 913 H 92.3237 3.24792 -5.60726 0
M  V30 914 N 85.7298 1.2412 0.971189 0
M  V30 915 C 86.6628 0.97373 2.06382 0
M  V30 916 C 87.6408 -0.0912662 1.62344 0
M  V30 917 O 88.8248 0.0449365 1.88446 0
M  V30 918 C 85.9518 0.468746 3.35441 0
M  V30 919 C 84.9978 1.52176 3.98428 0
M  V30 920 S 85.8308 3.10203 4.36503 0
M  V30 921 C 86.9868 2.61398 5.68702 0
M  V30 922 H 87.2198 1.89893 2.28753 0
M  V30 923 H 84.7528 1.07466 1.10862 0
M  V30 924 H 86.7108 0.184012 4.10087 0
M  V30 925 H 85.3718 -0.435688 3.11064 0
M  V30 926 H 84.5648 1.11876 4.91426 0
M  V30 927 H 84.1668 1.75632 3.30196 0
M  V30 928 H 86.4588 2.03992 6.4606 0
M  V30 929 H 87.4018 3.52972 6.13854 0
M  V30 930 H 87.8098 2.01941 5.27143 0
M  V30 931 N 87.2079 -1.17134 1.05439 0
M  V30 932 C 88.1379 -2.2342 0.678649 0
M  V30 933 C 89.1189 -1.66971 -0.32476 0
M  V30 934 O 90.3039 -1.93149 -0.201802 0
M  V30 935 C 87.4339 -3.47256 0.0552099 0
M  V30 936 C 86.3879 -4.16543 0.98365 0
M  V30 937 C 85.7139 -5.34231 0.223961 0
M  V30 938 C 87.0139 -4.68495 2.3089 0
M  V30 939 H 88.7079 -2.55105 1.56722 0
M  V30 940 H 86.2539 -1.2262 0.754998 0
M  V30 941 H 88.2069 -4.20828 -0.21946 0
M  V30 942 H 86.9309 -3.14846 -0.868319 0
M  V30 943 H 85.5899 -3.44887 1.24293 0
M  V30 944 H 85.2379 -4.98071 -0.702412 0
M  V30 945 H 84.9379 -5.81527 0.842627 0
M  V30 946 H 86.4619 -6.10585 -0.0433671 0
M  V30 947 H 87.8759 -5.33691 2.09396 0
M  V30 948 H 86.2729 -5.26379 2.88176 0
M  V30 949 H 87.3429 -3.85169 2.94572 0
M  V30 950 N 88.686 -0.835752 -1.33615 0
M  V30 951 C 89.933 -0.429959 -1.97883 0
M  V30 952 C 90.261 1.01006 -1.66217 0
M  V30 953 O 89.516 1.72047 -0.93265 0
M  V30 954 C 89.815 -0.593925 -3.52431 0
M  V30 955 C 89.481 -2.00158 -4.04039 0
M  V30 956 C 88.143 -2.38662 -4.17844 0
M  V30 957 C 90.495 -2.92117 -4.31644 0
M  V30 958 C 87.823 -3.68435 -4.56588 0
M  V30 959 C 90.175 -4.21368 -4.71838 0
M  V30 960 C 88.839 -4.59833 -4.83849 0
M  V30 961 H 88.109 -0.157333 -0.724104 0
M  V30 962 H 90.756 -1.06217 -1.59343 0
M  V30 963 H 89.061 0.121619 -3.91611 0
M  V30 964 H 90.758 -0.260282 -4.00154 0
M  V30 965 H 87.348 -1.69252 -3.93766 0
M  V30 966 H 91.532 -2.63608 -4.20505 0
M  V30 967 H 86.788 -3.98046 -4.64079 0
M  V30 968 H 90.962 -4.92703 -4.92155 0
M  V30 969 H 88.589 -5.60438 -5.13627 0
M  V30 970 N 90.1641 1.46063 -0.591896 0
M  V30 971 C 91.4101 2.02638 -0.0811191 0
M  V30 972 C 91.7431 1.4613 1.27905 0
M  V30 973 O 91.0181 0.629908 1.84017 0
M  V30 974 C 91.3011 3.60091 -0.0252436 0
M  V30 975 C 91.1541 4.26965 -1.41496 0
M  V30 976 C 92.4731 4.3496 0.670685 0
M  V30 977 H 89.5921 0.73635 -0.0309524 0
M  V30 978 H 92.2341 1.741 -0.760859 0
M  V30 979 H 90.3841 3.84535 0.553624 0
M  V30 980 H 92.0561 4.13756 -2.0397 0
M  V30 981 H 90.2991 3.85971 -1.98011 0
M  V30 982 H 90.9701 5.35781 -1.32825 0
M  V30 983 H 93.4461 4.15716 0.178825 0
M  V30 984 H 92.3221 5.44686 0.678837 0
M  V30 985 H 92.5831 4.06685 1.73379 0
M  V30 986 N 91.6422 0.330177 1.54103 0
M  V30 987 C 92.8702 -0.272179 2.05102 0
M  V30 988 C 93.2852 -1.45267 1.20595 0
M  V30 989 O 92.6422 -1.8094 0.238144 0
M  V30 990 C 92.6932 -0.70023 3.54653 0
M  V30 991 O 92.4142 0.433301 4.35952 0
M  V30 992 C 93.9152 -1.3647 4.21771 0
M  V30 993 H 91.1352 -0.0549159 0.668749 0
M  V30 994 H 93.6792 0.478285 1.98828 0
M  V30 995 H 91.8342 -1.40066 3.61193 0
M  V30 996 H 92.2482 0.0947539 5.24414 0
M  V30 997 H 93.7222 -1.61509 5.27843 0
M  V30 998 H 94.1992 -2.31409 3.73292 0
M  V30 999 H 94.8052 -0.706675 4.19388 0
M  V30 1000 N 93.1203 -1.57491 0.0584922 0
M  V30 1001 C 94.5313 -1.80526 -0.476138 0
M  V30 1002 C 94.8823 -0.971334 -1.70469 0
M  V30 1003 O 94.0073 -0.190012 -2.15564 0
M  V30 1004 C 94.6023 -3.27424 -0.870587 0
M  V30 1005 C 93.1613 -3.51351 -1.35015 0
M  V30 1006 C 92.3083 -2.75343 -0.32887 0
M  V30 1007 H 95.2593 -1.56133 0.284312 0
M  V30 1008 H 95.2803 -3.38745 -1.73299 0
M  V30 1009 H 94.7923 -3.88093 0.0237627 0
M  V30 1010 H 92.8933 -2.95971 -2.26345 0
M  V30 1011 H 93.0063 -4.60059 -1.33726 0
M  V30 1012 H 91.3703 -2.417 -0.803321 0
M  V30 1013 H 92.1533 -3.38743 0.557521 0
M  V30 1014 N 94.5984 0.214957 -1.56127 0
M  V30 1015 C 96.0144 0.564948 -1.49267 0
M  V30 1016 C 96.2144 1.86827 -0.754838 0
M  V30 1017 O 95.2704 2.50745 -0.297198 0
M  V30 1018 C 96.5834 0.638071 -2.93852 0
M  V30 1019 C 98.1314 0.728253 -3.0441 0
M  V30 1020 C 98.6064 0.832663 -4.50367 0
M  V30 1021 N 100.097 0.896712 -4.54437 0
M  V30 1022 C 100.832 0.997324 -5.6466 0
M  V30 1023 N 100.328 1.06147 -6.8462 0
M  V30 1024 N 102.121 1.03297 -5.52527 0
M  V30 1025 H 94.2724 -0.640211 -2.02522 0
M  V30 1026 H 96.5354 -0.225507 -0.920788 0
M  V30 1027 H 96.2414 -0.250126 -3.50809 0
M  V30 1028 H 96.1154 1.49947 -3.46115 0
M  V30 1029 H 98.5024 1.60689 -2.47514 0
M  V30 1030 H 98.5834 -0.158952 -2.55306 0
M  V30 1031 H 98.2274 -0.0415417 -5.07883 0
M  V30 1032 H 98.1574 1.73538 -4.97184 0
M  V30 1033 H 100.648 0.857188 -3.6805 0
M  V30 1034 H 100.961 1.1382 -7.64372 0
M  V30 1035 H 99.3064 1.03049 -6.87318 0
M  V30 1036 H 102.497 0.979558 -4.57736 0
M  V30 1037 H 102.67 1.10793 -6.38458 0
M  V30 1038 N 96.0765 1.50051 0.48192 0
M  V30 1039 C 97.4925 1.37237 0.814756 0
M  V30 1040 C 97.6925 0.420109 1.97072 0
M  V30 1041 O 96.7485 -0.141246 2.52105 0
M  V30 1042 C 98.0615 2.78375 1.13701 0
M  V30 1043 C 99.6095 2.87213 1.2441 0
M  V30 1044 C 100.084 4.29161 1.59954 0
M  V30 1045 N 101.575 4.32061 1.66967 0
M  V30 1046 C 102.31 5.38879 1.95952 0
M  V30 1047 N 101.806 6.55918 2.23031 0
M  V30 1048 N 103.599 5.26312 1.97363 0
M  V30 1049 H 95.7505 2.10546 -0.28005 0
M  V30 1050 H 98.0135 0.945921 -0.0627454 0
M  V30 1051 H 97.7195 3.49845 0.360787 0
M  V30 1052 H 97.5935 3.14941 2.07586 0
M  V30 1053 H 99.9805 2.15969 2.01101 0
M  V30 1054 H 100.061 2.54204 0.285299 0
M  V30 1055 H 99.7055 5.00938 0.838067 0
M  V30 1056 H 99.6355 4.59648 2.56966 0
M  V30 1057 H 102.126 3.47661 1.48123 0
M  V30 1058 H 102.439 7.33139 2.44391 0
M  V30 1059 H 100.784 6.59112 2.20447 0
M  V30 1060 H 103.975 4.33876 1.75697 0
M  V30 1061 H 104.148 6.09649 2.19618 0
M  V30 1062 N 97.5546 -0.734337 1.39446 0
M  V30 1063 C 98.4866 -1.85861 1.34121 0
M  V30 1064 C 99.4996 -1.60871 0.249864 0
M  V30 1065 O 100.689 -1.71093 0.508865 0
M  V30 1066 C 97.7886 -3.21899 1.05991 0
M  V30 1067 C 96.9616 -3.74239 2.26415 0
M  V30 1068 C 96.0206 -4.88841 1.94733 0
M  V30 1069 O 95.0466 -5.02468 2.67422 0
M  V30 1070 N 96.2486 -5.73261 0.913884 0
M  V30 1071 H 99.0136 -1.90934 2.31007 0
M  V30 1072 H 96.5746 -0.915102 1.33557 0
M  V30 1073 H 98.5666 -3.96136 0.828147 0
M  V30 1074 H 97.1366 -3.12091 0.178361 0
M  V30 1075 H 96.3566 -2.91347 2.65539 0
M  V30 1076 H 97.6446 -4.05942 3.06738 0
M  V30 1077 H 97.0426 -5.64842 0.311476 0
M  V30 1078 H 95.5996 -6.47563 0.742015 0
M  V30 1079 N 99.0327 -1.24633 -0.964593 0
M  V30 1080 C 99.9827 -1.00841 -2.04487 0
M  V30 1081 C 100.967 0.0512468 -1.60818 0
M  V30 1082 O 102.159 -0.162865 -1.76249 0
M  V30 1083 C 99.2877 -0.618474 -3.37683 0
M  V30 1084 C 98.3737 -1.71437 -3.87905 0
M  V30 1085 N 98.7647 -2.9477 -4.11029 0
M  V30 1086 C 97.0627 -1.5926 -4.16596 0
M  V30 1087 C 97.7637 -3.65834 -4.52261 0
M  V30 1088 N 96.7397 -2.9341 -4.57615 0
M  V30 1089 H 100.542 -1.94487 -2.20345 0
M  V30 1090 H 98.0557 -1.14805 -1.14863 0
M  V30 1091 H 100.053 -0.429247 -4.14684 0
M  V30 1092 H 98.7127 0.310766 -3.23209 0
M  V30 1093 H 99.7237 -3.30917 -3.9839 0
M  V30 1094 H 96.4007 -0.731606 -4.1104 0
M  V30 1095 H 97.7907 -4.71646 -4.78539 0
M  V30 1096 N 100.511 1.16574 -1.06058 0
M  V30 1097 C 101.421 2.2452 -0.680282 0
M  V30 1098 C 102.437 1.71348 0.302604 0
M  V30 1099 O 103.613 2.00822 0.152513 0
M  V30 1100 C 100.678 3.46629 -0.0700315 0
M  V30 1101 C 99.7388 4.14849 -1.10448 0
M  V30 1102 C 98.9718 5.31129 -0.523256 0
M  V30 1103 O 99.1948 5.66514 0.664709 0
M  V30 1104 O 98.1288 5.88526 -1.26179 0
M  V30 1105 H 101.955 2.59355 -1.58015 0
M  V30 1106 H 99.5398 1.24043 -0.832694 0
M  V30 1107 H 101.422 4.20543 0.268667 0
M  V30 1108 H 100.097 3.13573 0.803353 0
M  V30 1109 H 99.0038 3.42916 -1.49532 0
M  V30 1110 H 100.337 4.51954 -1.94931 0
M  V30 1111 N 101.989 0.842826 1.3317 0
M  V30 1112 C 103.214 0.453129 2.02389 0
M  V30 1113 C 103.639 -0.939105 1.6298 0
M  V30 1114 O 102.997 -1.61472 0.8244 0
M  V30 1115 C 103.045 0.586094 3.55805 0
M  V30 1116 O 102.149 -0.386029 4.10589 0
M  V30 1117 H 101.49 0.183664 0.638094 0
M  V30 1118 H 104.02 1.13875 1.69981 0
M  V30 1119 H 104.03 0.469209 4.05293 0
M  V30 1120 H 102.705 1.6014 3.83833 0
M  V30 1121 H 101.282 -0.226371 3.72212 0
M  V30 1122 N 103.467 -1.45747 0.599634 0
M  V30 1123 C 104.695 -2.06668 0.0978551 0
M  V30 1124 C 105.11 -1.44562 -1.21439 0
M  V30 1125 O 104.467 -0.556923 -1.73795 0
M  V30 1126 C 104.518 -3.61456 -0.0567044 0
M  V30 1127 O 104.239 -4.21242 1.20361 0
M  V30 1128 C 105.74 -4.39345 -0.590869 0
M  V30 1129 H 102.96 -0.667825 0.0651943 0
M  V30 1130 H 105.504 -1.87115 0.82511 0
M  V30 1131 H 103.659 -3.80378 -0.734251 0
M  V30 1132 H 104.073 -5.14323 1.02821 0
M  V30 1133 H 105.547 -5.48182 -0.648131 0
M  V30 1134 H 106.024 -4.08568 -1.61147 0
M  V30 1135 H 106.63 -4.25268 0.0523679 0
M  V30 1136 N 104.945 -0.338344 -1.53925 0
M  V30 1137 C 106.194 0.260732 -2.00008 0
M  V30 1138 C 106.507 1.52073 -1.23017 0
M  V30 1139 O 107.713 2.19672 -1.5955 0
M  V30 1140 C 106.169 0.51515 -3.56194 0
M  V30 1141 C 105.777 -0.728645 -4.42035 0
M  V30 1142 C 107.521 1.07337 -4.10706 0
M  V30 1143 C 105.428 -0.445315 -5.89721 0
M  V30 1144 H 104.358 0.101205 -0.747177 0
M  V30 1145 H 107.009 -0.452866 -1.77824 0
M  V30 1146 H 105.391 1.28932 -3.74423 0
M  V30 1147 H 106.565 -1.50352 -4.35581 0
M  V30 1148 H 104.88 -1.20813 -3.98489 0
M  V30 1149 H 107.477 1.30022 -5.18651 0
M  V30 1150 H 107.82 2.0273 -3.63602 0
M  V30 1151 H 108.353 0.360034 -3.96167 0
M  V30 1152 H 105.092 -1.36883 -6.41049 0
M  V30 1153 H 104.612 0.291569 -5.99091 0
M  V30 1154 H 106.291 -0.0606218 -6.46972 0
M  V30 1155 N 106.423 1.57458 -0.0668435 0
M  V30 1156 C 107.333 2.15937 0.916975 0
M  V30 1157 C 108.349 1.12123 1.33058 0
M  V30 1158 O 109.525 1.44366 1.40429 0
M  V30 1159 C 106.59 2.70547 2.16807 0
M  V30 1160 C 105.651 3.89215 1.81135 0
M  V30 1161 C 104.884 4.41211 3.0028 0
M  V30 1162 O 105.107 3.92225 4.14144 0
M  V30 1163 O 104.041 5.32605 2.80384 0
M  V30 1164 H 107.867 3.00354 0.449561 0
M  V30 1165 H 105.452 1.48584 0.155949 0
M  V30 1166 H 107.334 3.0557 2.90181 0
M  V30 1167 H 106.009 1.89192 2.62656 0
M  V30 1168 H 104.916 3.59054 1.05028 0
M  V30 1169 H 106.249 4.71848 1.40073 0
M  V30 1170 N 107.901 -0.206675 1.56239 0
M  V30 1171 C 109.126 -0.949474 1.8439 0
M  V30 1172 C 109.551 -1.76549 0.649016 0
M  V30 1173 O 108.909 -1.76782 -0.402231 0
M  V30 1174 C 108.957 -1.83078 3.10668 0
M  V30 1175 O 108.061 -2.9281 2.90407 0
M  V30 1176 H 107.402 -0.268033 0.607499 0
M  V30 1177 H 109.932 -0.215488 2.03462 0
M  V30 1178 H 109.942 -2.2377 3.41161 0
M  V30 1179 H 108.617 -1.23112 3.97261 0
M  V30 1180 H 107.194 -2.55956 2.71184 0
M  V30 1181 N 109.379 -1.50304 -0.473955 0
M  V30 1182 C 110.656 -1.51667 -1.23518 0
M  V30 1183 C 111.036 -0.259701 -2.09496 0
M  V30 1184 O 110.384 0.756986 -2.15597 0
M  V30 1185 C 110.594 -2.81082 -2.06868 0
M  V30 1186 C 111.942 -3.31631 -2.65153 0
M  V30 1187 O 112.966 -2.82384 -2.17113 0
M  V30 1188 O 111.825 -4.17471 -3.52675 0
M  V30 1189 H 108.919 -0.60822 -0.560355 0
M  V30 1190 H 111.465 -1.62592 -0.486011 0
M  V30 1191 H 110.237 -3.64041 -1.4349 0
M  V30 1192 H 109.86 -2.73146 -2.88924 0
M  V30 1193 N 110.857 0.726932 -1.39834 0
M  V30 1194 C 112.103 1.48884 -1.377 0
M  V30 1195 C 112.436 1.94185 0.0244852 0
M  V30 1196 O 111.711 1.67361 0.990986 0
M  V30 1197 C 111.994 2.72288 -2.3565 0
M  V30 1198 C 111.847 2.32956 -3.84775 0
M  V30 1199 C 113.166 3.74414 -2.31306 0
M  V30 1200 H 110.285 0.540062 -0.5015 0
M  V30 1201 H 112.927 0.830547 -1.70886 0
M  V30 1202 H 111.077 3.28457 -2.07481 0
M  V30 1203 H 112.749 1.82356 -4.23726 0
M  V30 1204 H 110.992 1.65088 -4.01159 0
M  V30 1205 H 111.663 3.21362 -4.4881 0
M  V30 1206 H 114.139 3.27849 -2.56231 0
M  V30 1207 H 113.015 4.58414 -3.01907 0
M  V30 1208 H 113.276 4.21909 -1.32081 0
M  V30 1209 N 112.336 1.25143 0.95797 0
M  V30 1210 C 113.747 1.08851 1.51685 0
M  V30 1211 C 114.098 -0.33687 1.93286 0
M  V30 1212 O 113.223 -1.22644 1.7829 0
M  V30 1213 C 113.818 1.96978 2.75654 0
M  V30 1214 C 112.377 1.84881 3.27866 0
M  V30 1215 C 111.524 1.91329 2.0072 0
M  V30 1216 H 114.475 1.38478 0.77522 0
M  V30 1217 H 114.496 1.5078 3.4935 0
M  V30 1218 H 114.008 3.00712 2.45345 0
M  V30 1219 H 112.109 0.840182 3.63004 0
M  V30 1220 H 112.222 2.6951 3.96107 0
M  V30 1221 H 110.586 1.35174 2.15871 0
M  V30 1222 H 111.369 2.96661 1.72764 0
M  V30 1223 N 113.814 -1.1601 1.06675 0
M  V30 1224 C 115.063 -1.85973 0.780818 0
M  V30 1225 C 115.376 -1.82819 -0.695444 0
M  V30 1226 O 116.582 -2.484 -1.09589 0
M  V30 1227 C 115.038 -3.33757 1.34665 0
M  V30 1228 C 114.646 -3.45374 2.85343 0
M  V30 1229 C 116.39 -4.0895 1.13843 0
M  V30 1230 C 114.297 -4.87266 3.35151 0
M  V30 1231 H 113.227 -0.696661 0.288407 0
M  V30 1232 H 115.878 -1.30903 1.28595 0
M  V30 1233 H 114.26 -3.88456 0.769274 0
M  V30 1234 H 115.434 -3.00816 3.49065 0
M  V30 1235 H 113.749 -2.83619 3.04876 0
M  V30 1236 H 116.346 -5.13654 1.4854 0
M  V30 1237 H 116.689 -4.16229 0.0770282 0
M  V30 1238 H 117.222 -3.605 1.68179 0
M  V30 1239 H 113.961 -4.85168 4.40786 0
M  V30 1240 H 113.481 -5.32433 2.76179 0
M  V30 1241 H 115.16 -5.56097 3.30704 0
M  V30 1242 N 115.292 -0.849877 -1.32721 0
M  V30 1243 C 116.569 -0.372405 -1.92022 0
M  V30 1244 C 116.949 1.1435 -1.77447 0
M  V30 1245 O 116.297 1.96296 -1.16962 0
M  V30 1246 C 116.507 -0.831482 -3.3895 0
M  V30 1247 C 117.855 -0.845882 -4.16089 0
M  V30 1248 O 118.879 -0.775806 -3.47649 0
M  V30 1249 O 117.738 -0.943753 -5.38289 0
M  V30 1250 H 114.832 -0.107667 -0.819961 0
M  V30 1251 H 117.378 -0.93646 -1.41522 0
M  V30 1252 H 116.15 -1.87448 -3.4348 0
M  V30 1253 H 115.773 -0.24461 -3.96847 0
M  V30 1254 N 116.77 1.45427 -0.607355 0
M  V30 1255 C 118.016 2.0254 -0.102607 0
M  V30 1256 C 118.349 1.47478 1.26348 0
M  V30 1257 O 117.624 0.64939 1.83339 0
M  V30 1258 C 117.907 3.60044 -0.0634347 0
M  V30 1259 C 117.76 4.2544 -1.46017 0
M  V30 1260 C 119.079 4.35646 0.624514 0
M  V30 1261 H 116.198 0.73598 -0.0387607 0
M  V30 1262 H 118.84 1.73284 -0.779282 0
M  V30 1263 H 116.99 3.85101 0.512808 0
M  V30 1264 H 118.662 4.11569 -2.08347 0
M  V30 1265 H 116.905 3.83849 -2.02094 0
M  V30 1266 H 117.576 5.34342 -1.385 0
M  V30 1267 H 120.052 4.15882 0.134723 0
M  V30 1268 H 118.928 5.45376 0.621028 0
M  V30 1269 H 119.189 4.08501 1.69055 0
M  V30 1270 N 118.248 0.346503 1.53744 0
M  V30 1271 C 119.158 -0.517293 2.28826 0
M  V30 1272 C 120.174 -1.10935 1.3405 0
M  V30 1273 O 121.35 -1.1244 1.6709 0
M  V30 1274 C 118.415 -1.65098 3.04866 0
M  V30 1275 C 117.476 -1.0884 4.15274 0
M  V30 1276 C 116.709 -2.16806 4.87679 0
M  V30 1277 O 116.932 -3.3758 4.59778 0
M  V30 1278 O 115.866 -1.80934 5.74061 0
M  V30 1279 H 119.692 0.0931396 3.03557 0
M  V30 1280 H 117.277 0.111458 1.48984 0
M  V30 1281 H 119.159 -2.31053 3.5241 0
M  V30 1282 H 117.834 -2.24717 2.32989 0
M  V30 1283 H 116.741 -0.3933 3.72027 0
M  V30 1284 H 118.074 -0.537036 4.89261 0
M  V30 1285 N 119.726 -1.57421 0.075193 0
M  V30 1286 C 120.954 -1.97946 -0.602076 0
M  V30 1287 C 121.369 -0.953674 -1.62943 0
M  V30 1288 O 120.726 0.0592551 -1.82404 0
M  V30 1289 C 120.777 -3.38546 -1.26762 0
M  V30 1290 O 120.498 -4.37195 -0.281376 0
M  V30 1291 C 121.999 -3.93966 -2.03239 0
M  V30 1292 H 119.219 -0.650918 -0.162931 0
M  V30 1293 H 121.763 -2.03959 0.148601 0
M  V30 1294 H 119.918 -3.33609 -1.96936 0
M  V30 1295 H 120.332 -5.18975 -0.759267 0
M  V30 1296 H 121.806 -4.94555 -2.45193 0
M  V30 1297 H 122.283 -3.30693 -2.8903 0
M  V30 1298 H 122.889 -4.02315 -1.37924 0
M  V30 1299 N 121.204 0.198386 -1.56346 0
M  V30 1300 C 122.45 0.920648 -1.80698 0
M  V30 1301 C 122.783 1.83045 -0.648697 0
M  V30 1302 O 122.058 1.91308 0.350925 0
M  V30 1303 C 122.341 1.73971 -3.15287 0
M  V30 1304 C 122.194 0.85485 -4.41602 0
M  V30 1305 C 123.513 2.71296 -3.46535 0
M  V30 1306 H 120.632 0.333261 -0.657348 0
M  V30 1307 H 123.274 0.188198 -1.89066 0
M  V30 1308 H 121.424 2.36416 -3.08285 0
M  V30 1309 H 123.096 0.245362 -4.60647 0
M  V30 1310 H 121.339 0.161398 -4.335 0
M  V30 1311 H 122.01 1.46286 -5.32264 0
M  V30 1312 H 124.486 2.18983 -3.53816 0
M  V30 1313 H 123.362 3.2569 -4.41834 0
M  V30 1314 H 123.623 3.5018 -2.69864 0
M  V30 1315 N 122.682 1.50554 0.465978 0
M  V30 1316 C 123.91 1.65563 1.24083 0
M  V30 1317 C 124.325 0.341051 1.85694 0
M  V30 1318 O 123.682 -0.677543 1.69457 0
M  V30 1319 C 123.733 2.75051 2.34583 0
M  V30 1320 O 123.454 4.01413 1.75497 0
M  V30 1321 C 124.955 3.01078 3.25372 0
M  V30 1322 H 122.175 0.55638 0.375077 0
M  V30 1323 H 124.719 1.96807 0.555624 0
M  V30 1324 H 122.874 2.46486 2.9887 0
M  V30 1325 H 123.288 4.62002 2.48303 0
M  V30 1326 H 124.762 3.81339 3.99105 0
M  V30 1327 H 125.239 2.12349 3.84453 0
M  V30 1328 H 125.845 3.31194 2.66816 0
M  V30 1329 N 124.16 -0.719506 1.40217 0
M  V30 1330 C 125.385 -1.51371 1.4178 0
M  V30 1331 C 125.81 -1.88091 0.0182355 0
M  V30 1332 O 125.168 -1.52997 -0.972707 0
M  V30 1333 C 125.216 -2.768 2.31115 0
M  V30 1334 O 124.32 -3.73349 1.7517 0
M  V30 1335 H 123.661 -0.456529 0.482159 0
M  V30 1336 H 126.191 -0.88644 1.844 0
M  V30 1337 H 126.201 -3.25371 2.46167 0
M  V30 1338 H 124.876 -2.49407 3.3282 0
M  V30 1339 H 123.453 -3.32179 1.69444 0
M  V30 1340 N 125.638 -1.25649 -0.95132 0
M  V30 1341 C 126.866 -1.13343 -1.73092 0
M  V30 1342 C 127.281 0.312434 -1.86197 0
M  V30 1343 O 126.638 1.21465 -1.36207 0
M  V30 1344 C 126.689 -1.78602 -3.14299 0
M  V30 1345 O 126.41 -3.17537 -3.01831 0
M  V30 1346 C 127.911 -1.72119 -4.08522 0
M  V30 1347 H 125.131 -0.395181 -0.542285 0
M  V30 1348 H 127.675 -1.66076 -1.19328 0
M  V30 1349 H 125.83 -1.29832 -3.64996 0
M  V30 1350 H 126.244 -3.49676 -3.90931 0
M  V30 1351 H 127.718 -2.22435 -5.052 0
M  V30 1352 H 128.195 -0.685635 -4.33815 0
M  V30 1353 H 128.801 -2.20393 -3.63741 0
M  V30 1354 N 127.117 1.15442 -1.07289 0
M  V30 1355 C 128.528 1.67803 -0.818475 0
M  V30 1356 C 128.879 1.8489 0.656507 0
M  V30 1357 O 128.004 1.55176 1.50829 0
M  V30 1358 C 128.599 3.04805 -1.47917 0
M  V30 1359 C 127.158 3.54245 -1.27229 0
M  V30 1360 C 126.305 2.29986 -1.54925 0
M  V30 1361 H 129.256 0.996646 -1.23502 0
M  V30 1362 H 129.277 3.69702 -0.90005 0
M  V30 1363 H 128.789 2.92336 -2.55267 0
M  V30 1364 H 126.89 3.71956 -0.21899 0
M  V30 1365 H 127.003 4.35723 -1.99203 0
M  V30 1366 H 125.367 2.35496 -0.970242 0
M  V30 1367 H 126.15 2.20105 -2.63455 0
M  V30 1368 N 128.595 0.856903 1.32268 0
M  V30 1369 C 129.528 0.247937 2.26849 0
M  V30 1370 C 130.506 -0.615382 1.50505 0
M  V30 1371 O 131.69 -0.571689 1.79622 0
M  V30 1372 C 128.817 -0.650093 3.32403 0
M  V30 1373 C 127.863 0.140138 4.2627 0
M  V30 1374 S 128.696 1.51004 5.13769 0
M  V30 1375 C 129.852 0.61778 6.22844 0
M  V30 1376 H 130.085 1.04971 2.78152 0
M  V30 1377 H 127.618 0.654665 1.39834 0
M  V30 1378 H 129.576 -1.16256 3.93694 0
M  V30 1379 H 128.237 -1.4257 2.7988 0
M  V30 1380 H 127.43 -0.543945 5.01056 0
M  V30 1381 H 127.032 0.584267 3.69408 0
M  V30 1382 H 129.324 -0.177053 6.77269 0
M  V30 1383 H 130.267 1.33636 6.95375 0
M  V30 1384 H 130.675 0.191124 5.64176 0
M  V30 1385 N 130.073 -1.45103 0.615059 0
M  V30 1386 C 131.484 -1.85654 0.197383 0
M  V30 1387 C 131.835 -1.51433 -1.24749 0
M  V30 1388 O 130.96 -0.944608 -1.94695 0
M  V30 1389 C 131.555 -3.36972 0.351448 0
M  V30 1390 C 130.114 -3.76398 -0.011593 0
M  V30 1391 C 129.261 -2.69024 0.672394 0
M  V30 1392 H 132.212 -1.35797 0.821263 0
M  V30 1393 H 132.233 -3.78239 -0.414227 0
M  V30 1394 H 131.745 -3.61847 1.40314 0
M  V30 1395 H 129.846 -3.5714 -1.06217 0
M  V30 1396 H 129.959 -4.77532 0.387265 0
M  V30 1397 H 128.323 -2.54465 0.109284 0
M  V30 1398 H 129.106 -2.96735 1.72636 0
M  V30 1399 N 131.551 -0.354651 -1.53558 0
M  V30 1400 C 132.481 0.489091 -2.2832 0
M  V30 1401 C 133.462 1.09324 -1.30316 0
M  V30 1402 O 134.647 1.11255 -1.59173 0
M  V30 1403 C 131.777 1.63456 -3.0643 0
M  V30 1404 C 130.731 1.1582 -4.12031 0
M  V30 1405 C 130.057 2.39305 -4.7816 0
M  V30 1406 C 131.357 0.250731 -5.21698 0
M  V30 1407 H 133.051 -0.134614 -2.99097 0
M  V30 1408 H 130.597 -0.0661826 -1.43848 0
M  V30 1409 H 132.55 2.23136 -3.57475 0
M  V30 1410 H 131.274 2.28533 -2.33325 0
M  V30 1411 H 129.933 0.584146 -3.61916 0
M  V30 1412 H 129.581 3.02814 -4.01637 0
M  V30 1413 H 129.281 2.08109 -5.49513 0
M  V30 1414 H 130.805 2.99691 -5.31994 0
M  V30 1415 H 132.219 0.754695 -5.68311 0
M  V30 1416 H 130.616 0.0301468 -6.00092 0
M  V30 1417 H 131.686 -0.710125 -4.79672 0
M  V30 1418 N 133.029 1.57378 -0.0835403 0
M  V30 1419 C 134.259 1.97975 0.590713 0
M  V30 1420 C 134.667 0.961083 1.62972 0
M  V30 1421 O 134.01 -0.0590879 1.83605 0
M  V30 1422 C 134.072 3.34915 1.3066 0
M  V30 1423 C 133.736 4.55069 0.419698 0
M  V30 1424 C 134.733 5.18868 -0.32749 0
M  V30 1425 C 132.418 5.0114 0.341137 0
M  V30 1426 C 134.412 6.27098 -1.14134 0
M  V30 1427 C 132.099 6.0924 -0.476374 0
M  V30 1428 C 133.097 6.72083 -1.21627 0
M  V30 1429 O 132.785 7.781 -2.02028 0
M  V30 1430 H 132.517 0.655818 0.163947 0
M  V30 1431 H 135.071 2.04807 -0.156021 0
M  V30 1432 H 133.301 3.24733 2.09966 0
M  V30 1433 H 134.99 3.60037 1.87424 0
M  V30 1434 H 135.756 4.84211 -0.276459 0
M  V30 1435 H 131.635 4.51996 0.90668 0
M  V30 1436 H 135.179 6.7608 -1.71935 0
M  V30 1437 H 131.076 6.43329 -0.528927 0
M  V30 1438 H 131.844 7.95034 -1.94586 0
M  V30 1439 N 134.507 -0.190092 1.56449 0
M  V30 1440 C 135.784 -0.935886 1.71757 0
M  V30 1441 C 136.164 -2.01173 0.639726 0
M  V30 1442 O 135.512 -2.25827 -0.348502 0
M  V30 1443 C 135.722 -1.51775 3.1427 0
M  V30 1444 C 137.07 -1.99794 3.74656 0
M  V30 1445 O 138.094 -1.61607 3.1743 0
M  V30 1446 O 136.953 -2.70079 4.751 0
M  V30 1447 H 134.047 -0.439229 0.700719 0
M  V30 1448 H 136.593 -0.179395 1.68749 0
M  V30 1449 H 135.365 -0.742505 3.84191 0
M  V30 1450 H 134.988 -2.33894 3.21527 0
M  V30 1451 N 135.985 -1.50799 -0.457987 0
M  V30 1452 C 136.933 -1.71162 -1.575 0
M  V30 1453 C 137.927 -0.577592 -1.59249 0
M  V30 1454 O 139.133 -0.758443 -1.63241 0
M  V30 1455 H 135.508 -0.540468 -0.522875 0
M  V30 1456 H 137.479 -2.64837 -1.37492 0
M  V30 1457 C 136.228 -1.83496 -2.95338 0
M  V30 1458 H 135.551 -2.70153 -2.94716 0
M  V30 1459 H 136.991 -2.01765 -3.72917 0
M  V30 1460 C 135.45 -0.589694 -3.31699 0
M  V30 1461 O 135.98 0.265163 -4.00824 0
M  V30 1462 N 134.186 -0.439845 -2.87252 0
M  V30 1463 H 133.733 -1.13655 -2.31172 0
M  V30 1464 H 133.691 0.392159 -3.11945 0
M  V30 1465 N 137.463 0.71206 -1.40597 0
M  V30 1466 C 138.395 1.83704 -1.37061 0
M  V30 1467 C 139.408 1.60453 -0.275426 0
M  V30 1468 O 140.597 1.70262 -0.53602 0
M  V30 1469 C 137.697 3.20172 -1.11099 0
M  V30 1470 C 136.87 3.7059 -2.3234 0
M  V30 1471 C 135.929 4.85681 -2.02485 0
M  V30 1472 O 134.955 4.9815 -2.75382 0
M  V30 1473 N 136.157 5.71735 -1.00497 0
M  V30 1474 H 138.922 1.87235 -2.34016 0
M  V30 1475 H 136.483 0.893739 -1.34996 0
M  V30 1476 H 138.475 3.94768 -0.891064 0
M  V30 1477 H 137.045 3.11767 -0.227989 0
M  V30 1478 H 136.265 2.87085 -2.7014 0
M  V30 1479 H 137.553 4.01011 -3.13157 0
M  V30 1480 H 136.951 5.64275 -0.401298 0
M  V30 1481 H 135.508 6.463 -0.844942 0
M  V30 1482 N 138.941 1.26152 0.944643 0
M  V30 1483 C 139.888 1.07408 2.04285 0
M  V30 1484 C 140.858 -0.0198413 1.66088 0
M  V30 1485 O 142.043 0.139264 1.90291 0
M  V30 1486 C 139.183 0.70945 3.37729 0
M  V30 1487 C 138.296 1.87926 3.88983 0
M  V30 1488 C 137.431 1.45807 5.10797 0
M  V30 1489 C 136.47 2.5964 5.54305 0
M  V30 1490 N 135.607 2.18226 6.67324 0
M  V30 1491 H 140.447 2.01389 2.1965 0
M  V30 1492 H 137.984 1.00275 1.07626 0
M  V30 1493 H 139.942 0.478948 4.14442 0
M  V30 1494 H 138.572 -0.193389 3.2222 0
M  V30 1495 H 137.624 2.22279 3.08701 0
M  V30 1496 H 138.936 2.73377 4.17213 0
M  V30 1497 H 138.09 1.18781 5.94959 0
M  V30 1498 H 136.829 0.574414 4.84305 0
M  V30 1499 H 135.834 2.87399 4.68702 0
M  V30 1500 H 137.059 3.48599 5.828 0
M  V30 1501 H 135.005 1.3229 6.42523 0
M  V30 1502 H 134.922 2.97221 6.95123 0
M  V30 1503 H 136.19 1.94403 7.54869 0
M  V30 1504 N 140.419 -1.14872 1.07899 0
M  V30 1505 C 141.382 -2.17986 0.708161 0
M  V30 1506 C 142.382 -1.58775 -0.25442 0
M  V30 1507 O 143.572 -1.74166 -0.034645 0
M  V30 1508 C 140.704 -3.40871 0.0446929 0
M  V30 1509 H 141.897 -2.52306 1.62116 0
M  V30 1510 H 139.45 -1.2943 0.876218 0
M  V30 1511 H 140.185 -3.12124 -0.880281 0
M  V30 1512 H 139.97 -3.8511 0.737091 0
M  V30 1513 H 141.46 -4.17121 -0.19991 0
M  V30 1514 N 141.898 -0.863906 -1.31812 0
M  V30 1515 C 143.314 -0.555004 -1.49639 0
M  V30 1516 C 143.514 0.912266 -1.79666 0
M  V30 1517 O 142.57 1.69479 -1.87171 0
M  V30 1518 C 143.883 -1.44998 -2.63431 0
M  V30 1519 C 145.431 -1.45138 -2.77316 0
M  V30 1520 C 145.906 -2.33179 -3.94197 0
M  V30 1521 N 147.397 -2.31025 -4.01474 0
M  V30 1522 C 148.132 -2.95871 -4.9117 0
M  V30 1523 N 147.628 -3.69863 -5.8581 0
M  V30 1524 N 149.421 -2.85211 -4.84367 0
M  V30 1525 H 141.572 -1.81339 -1.10589 0
M  V30 1526 H 143.835 -0.77505 -0.545895 0
M  V30 1527 H 143.541 -2.49377 -2.48 0
M  V30 1528 H 143.415 -1.14409 -3.59431 0
M  V30 1529 H 145.802 -0.415201 -2.92164 0
M  V30 1530 H 145.883 -1.79747 -1.82001 0
M  V30 1531 H 145.527 -3.3687 -3.80107 0
M  V30 1532 H 145.457 -1.95897 -4.88807 0
M  V30 1533 H 147.948 -1.77238 -3.33759 0
M  V30 1534 H 148.261 -4.16486 -6.50968 0
M  V30 1535 H 146.606 -3.73971 -5.85808 0
M  V30 1536 H 149.797 -2.26948 -4.09405 0
M  V30 1537 H 149.97 -3.36027 -5.54066 0
M  V30 1538 N 143.376 1.44774 -0.622745 0
M  V30 1539 C 144.601 2.06999 -0.128968 0
M  V30 1540 C 145.026 1.4617 1.1839 0
M  V30 1541 O 144.384 0.560007 1.72434 0
M  V30 1542 C 144.432 3.60595 -0.0188351 0
M  V30 1543 O 143.536 3.99398 1.02739 0
M  V30 1544 H 142.877 0.659047 -0.0809544 0
M  V30 1545 H 145.407 1.85784 -0.85705 0
M  V30 1546 H 145.417 4.07627 0.174476 0
M  V30 1547 H 144.092 4.04252 -0.977384 0
M  V30 1548 H 142.669 3.64011 0.809326 0
M  V30 1549 N 144.854 0.36279 1.53368 0
M  V30 1550 C 146.1 -0.228113 2.01513 0
M  V30 1551 C 146.433 -1.48648 1.2497 0
M  V30 1552 O 145.708 -1.91459 0.342616 0
M  V30 1553 C 145.991 -0.522884 3.56284 0
M  V30 1554 C 145.844 0.74892 4.43521 0
M  V30 1555 C 147.163 -1.32461 4.19693 0
M  V30 1556 H 144.282 -0.0814343 0.732487 0
M  V30 1557 H 146.924 0.48713 1.83649 0
M  V30 1558 H 145.074 -1.1322 3.71636 0
M  V30 1559 H 146.746 1.38648 4.39971 0
M  V30 1560 H 144.989 1.36986 4.11603 0
M  V30 1561 H 145.66 0.497667 5.49752 0
M  V30 1562 H 148.136 -0.809203 4.08156 0
M  V30 1563 H 147.012 -1.49961 5.28018 0
M  V30 1564 H 147.273 -2.33232 3.75573 0
M  V30 1565 N 146.332 -1.57332 0.0918853 0
M  V30 1566 C 147.265 -2.09499 -0.904735 0
M  V30 1567 C 148.243 -1.00479 -1.27839 0
M  V30 1568 O 149.427 -1.27954 -1.38419 0
M  V30 1569 C 146.554 -2.56931 -2.2069 0
M  V30 1570 C 145.6 -3.77579 -1.98334 0
M  V30 1571 S 146.433 -5.21317 -1.22428 0
M  V30 1572 C 147.589 -5.72097 -2.53882 0
M  V30 1573 H 147.822 -2.93705 -0.460922 0
M  V30 1574 H 145.355 -1.53923 -0.121332 0
M  V30 1575 H 147.313 -2.84917 -2.95521 0
M  V30 1576 H 145.974 -1.72956 -2.62192 0
M  V30 1577 H 145.167 -4.08824 -2.94752 0
M  V30 1578 H 144.769 -3.5007 -1.31633 0
M  V30 1579 H 147.061 -5.80168 -3.49874 0
M  V30 1580 H 148.004 -6.70654 -2.27219 0
M  V30 1581 H 148.412 -5.00012 -2.62007 0
M  V30 1582 N 147.81 0.181792 -1.56548 0
M  V30 1583 C 148.758 1.24461 -1.965 0
M  V30 1584 C 149.752 1.464 -0.852261 0
M  V30 1585 O 150.958 1.47103 -1.03733 0
M  V30 1586 H 147.333 0.418138 -0.625031 0
M  V30 1587 H 149.304 0.880714 -2.85107 0
M  V30 1588 C 148.053 2.57891 -2.33212 0
M  V30 1589 H 147.376 2.41829 -3.18369 0
M  V30 1590 H 148.816 3.3097 -2.65019 0
M  V30 1591 C 147.275 3.15871 -1.17163 0
M  V30 1592 O 147.805 3.9913 -0.453708 0
M  V30 1593 N 146.011 2.74808 -0.944936 0
M  V30 1594 H 145.558 2.07205 -1.53049 0
M  V30 1595 H 145.516 3.13939 -0.170286 0
M  V30 1596 N 149.288 1.51039 0.449983 0
M  V30 1597 C 150.198 1.74261 1.57067 0
M  V30 1598 C 151.214 0.626363 1.62335 0
M  V30 1599 O 152.39 0.907162 1.79812 0
M  V30 1600 C 149.455 1.85114 2.93144 0
M  V30 1601 C 148.516 3.0893 2.98095 0
M  V30 1602 C 147.749 3.19256 4.27681 0
M  V30 1603 O 147.972 2.35835 5.19363 0
M  V30 1604 O 146.906 4.12144 4.38658 0
M  V30 1605 H 150.732 2.69303 1.40391 0
M  V30 1606 H 148.317 1.35389 0.631688 0
M  V30 1607 H 150.199 1.94311 3.73926 0
M  V30 1608 H 148.874 0.932588 3.09975 0
M  V30 1609 H 147.781 3.0522 2.16314 0
M  V30 1610 H 149.114 4.00433 2.86206 0
M  V30 1611 N 150.766 -0.704594 1.40972 0
M  V30 1612 C 152.006 -1.47691 1.41304 0
M  V30 1613 C 152.37 -1.91992 0.0178582 0
M  V30 1614 O 153.571 -2.68599 -0.103996 0
M  V30 1615 C 151.842 -2.66254 2.38419 0
M  V30 1616 S 153.401 -3.55516 2.57204 0
M  V30 1617 H 150.219 -0.504808 0.500689 0
M  V30 1618 H 152.821 -0.822962 1.77335 0
M  V30 1619 H 151.525 -2.31897 3.38603 0
M  V30 1620 H 151.056 -3.3655 2.03711 0
M  V30 1621 H 153.071 -4.61115 1.83268 0
M  V30 1622 N 152.244 -1.26651 -0.937939 0
M  V30 1623 C 153.154 -1.10276 -2.07066 0
M  V30 1624 C 154.17 -0.0354197 -1.73964 0
M  V30 1625 O 155.346 -0.239816 -1.99967 0
M  V30 1626 C 152.411 -0.740887 -3.38691 0
M  V30 1627 C 151.472 -1.88799 -3.85556 0
M  V30 1628 C 150.705 -1.54329 -5.10899 0
M  V30 1629 O 150.928 -0.446494 -5.6865 0
M  V30 1630 O 149.862 -2.37911 -5.52885 0
M  V30 1631 H 153.688 -2.05309 -2.23789 0
M  V30 1632 H 151.273 -1.05743 -1.0554 0
M  V30 1633 H 153.155 -0.55195 -4.1777 0
M  V30 1634 H 151.83 0.180022 -3.23199 0
M  V30 1635 H 150.737 -2.13191 -3.07409 0
M  V30 1636 H 152.07 -2.78874 -4.05574 0
M  V30 1637 N 153.722 1.14298 -1.08507 0
M  V30 1638 C 155.138 1.37347 -0.812901 0
M  V30 1639 C 155.338 1.93052 0.577325 0
M  V30 1640 O 154.394 2.14389 1.33393 0
M  V30 1641 C 155.707 2.33359 -1.89642 0
M  V30 1642 C 157.255 2.46996 -1.92255 0
M  V30 1643 C 157.73 3.46309 -2.99724 0
M  V30 1644 N 159.221 3.53853 -2.98902 0
M  V30 1645 C 159.956 4.3055 -3.787 0
M  V30 1646 N 159.452 5.10482 -4.6838 0
M  V30 1647 N 161.245 4.25757 -3.66998 0
M  V30 1648 H 153.396 0.764867 -1.9815 0
M  V30 1649 H 155.659 0.398966 -0.859959 0
M  V30 1650 H 155.365 1.99565 -2.89597 0
M  V30 1651 H 155.239 3.33274 -1.76659 0
M  V30 1652 H 157.626 2.80081 -0.929445 0
M  V30 1653 H 157.707 1.47039 -2.09316 0
M  V30 1654 H 157.351 3.13957 -3.99241 0
M  V30 1655 H 157.281 4.46049 -2.79907 0
M  V30 1656 H 159.772 2.96812 -2.33904 0
M  V30 1657 H 160.085 5.66284 -5.25873 0
M  V30 1658 H 158.43 5.09747 -4.72422 0
M  V30 1659 H 161.621 3.62383 -2.96304 0
M  V30 1660 H 161.794 4.85279 -4.29427 0
M  V30 1661 N 155.201 0.870884 1.31352 0
M  V30 1662 C 156.151 0.298889 2.26032 0
M  V30 1663 C 157.135 -0.564595 1.50669 0
M  V30 1664 O 158.327 -0.411323 1.72154 0
M  V30 1665 C 155.456 -0.497842 3.39671 0
M  V30 1666 C 154.542 0.378937 4.22404 0
M  V30 1667 N 154.933 1.47284 4.83881 0
M  V30 1668 C 153.231 0.171535 4.4567 0
M  V30 1669 C 153.932 2.01359 5.45738 0
M  V30 1670 N 152.908 1.31047 5.27568 0
M  V30 1671 H 156.71 1.13494 2.71102 0
M  V30 1672 H 154.224 0.718745 1.45629 0
M  V30 1673 H 156.221 -0.924155 4.06528 0
M  V30 1674 H 154.881 -1.33149 2.96144 0
M  V30 1675 H 155.892 1.85575 4.8351 0
M  V30 1676 H 152.569 -0.626091 4.12779 0
M  V30 1677 H 153.959 2.93143 6.0458 0
M  V30 1678 N 156.679 -1.44442 0.630414 0
M  V30 1679 C 157.925 -2.02351 0.134816 0
M  V30 1680 C 158.258 -1.4947 -1.23986 0
M  V30 1681 O 157.533 -0.678475 -1.82283 0
M  V30 1682 C 157.816 -3.59898 0.120707 0
M  V30 1683 C 157.669 -4.23063 1.52767 0
M  V30 1684 C 158.988 -4.36585 -0.555127 0
M  V30 1685 H 156.107 -0.73527 0.0504646 0
M  V30 1686 H 158.749 -1.72022 0.806751 0
M  V30 1687 H 156.899 -3.85868 -0.451477 0
M  V30 1688 H 158.571 -4.08202 2.14869 0
M  V30 1689 H 156.814 -3.80586 2.08175 0
M  V30 1690 H 157.485 -5.32071 1.46984 0
M  V30 1691 H 159.961 -4.16044 -0.0685429 0
M  V30 1692 H 158.837 -5.46294 -0.534185 0
M  V30 1693 H 159.098 -4.11138 -1.62535 0
M  V30 1694 N 158.157 -0.370918 -1.53173 0
M  V30 1695 C 159.406 0.218249 -2.00516 0
M  V30 1696 C 159.719 1.49429 -1.26215 0
M  V30 1697 O 160.925 2.16239 -1.64174 0
M  V30 1698 C 159.381 0.43948 -3.57207 0
M  V30 1699 C 158.989 -0.822244 -4.4039 0
M  V30 1700 C 160.733 0.986012 -4.1289 0
M  V30 1701 C 158.64 -0.570304 -5.88644 0
M  V30 1702 H 157.57 0.0853333 -0.749156 0
M  V30 1703 H 160.221 -0.490483 -1.76823 0
M  V30 1704 H 158.603 1.20961 -3.77074 0
M  V30 1705 H 159.777 -1.59557 -4.32294 0
M  V30 1706 H 158.092 -1.29238 -3.95836 0
M  V30 1707 H 160.689 1.18991 -5.21292 0
M  V30 1708 H 161.032 1.94972 -3.6782 0
M  V30 1709 H 161.565 0.27592 -3.96842 0
M  V30 1710 H 158.304 -1.50449 -6.38001 0
M  V30 1711 H 157.824 0.164427 -5.99575 0
M  V30 1712 H 159.503 -0.19784 -6.46697 0
M  V30 1713 N 159.635 1.57281 -0.100228 0
M  V30 1714 C 160.882 1.94537 0.562268 0
M  V30 1715 C 161.21 0.982315 1.67871 0
M  V30 1716 O 160.465 0.00280936 1.957 0
M  V30 1717 C 160.764 3.38305 1.15259 0
M  V30 1718 C 160.43 4.50618 0.159409 0
M  V30 1719 C 159.092 4.81066 -0.113741 0
M  V30 1720 C 161.444 5.18615 -0.518461 0
M  V30 1721 C 158.772 5.76835 -1.07137 0
M  V30 1722 C 161.124 6.15412 -1.46459 0
M  V30 1723 C 159.788 6.44262 -1.74592 0
M  V30 1724 H 159.058 0.711863 0.205748 0
M  V30 1725 H 161.705 1.90679 -0.17715 0
M  V30 1726 H 160.01 3.38766 1.96836 0
M  V30 1727 H 161.707 3.64435 1.67297 0
M  V30 1728 H 158.297 4.2689 0.382491 0
M  V30 1729 H 162.481 4.95264 -0.320581 0
M  V30 1730 H 157.737 5.975 -1.29628 0
M  V30 1731 H 161.911 6.67194 -1.99564 0
M  V30 1732 H 159.538 7.1828 -2.48953 0
M  V30 1733 N 161.113 -0.173488 1.56642 0
M  V30 1734 C 162.076 -1.19859 1.95362 0
M  V30 1735 C 163.076 -1.37296 0.83704 0
M  V30 1736 O 164.266 -1.34739 1.10413 0
M  V30 1737 C 161.398 -2.56405 2.24654 0
M  V30 1738 H 162.591 -0.867062 2.87092 0
M  V30 1739 H 160.144 -0.415853 1.50666 0
M  V30 1740 H 160.879 -2.94576 1.35631 0
M  V30 1741 H 160.664 -2.45115 3.06041 0
M  V30 1742 H 162.154 -3.30287 2.5554 0
M  V30 1743 N 162.591 -1.51276 -0.441967 0
M  V30 1744 C 164.007 -1.39349 -0.778083 0
M  V30 1745 C 164.207 -0.472212 -1.95889 0
M  V30 1746 O 163.263 0.0743551 -2.5239 0
M  V30 1747 C 164.576 -2.81292 -1.0628 0
M  V30 1748 C 166.124 -2.9041 -1.16751 0
M  V30 1749 C 166.599 -4.33251 -1.48519 0
M  V30 1750 N 168.09 -4.36336 -1.55453 0
M  V30 1751 C 168.825 -5.43885 -1.81596 0
M  V30 1752 N 168.321 -6.61601 -2.05562 0
M  V30 1753 N 170.114 -5.3136 -1.8334 0
M  V30 1754 H 162.265 -2.09729 0.335774 0
M  V30 1755 H 164.528 -0.943925 0.0878028 0
M  V30 1756 H 164.234 -3.50678 -0.267905 0
M  V30 1757 H 164.108 -3.20334 -1.99163 0
M  V30 1758 H 166.495 -2.21225 -1.95304 0
M  V30 1759 H 166.576 -2.54871 -0.217801 0
M  V30 1760 H 166.22 -5.02984 -0.704958 0
M  V30 1761 H 166.15 -4.66299 -2.44689 0
M  V30 1762 H 168.641 -3.51466 -1.38853 0
M  V30 1763 H 168.954 -7.39361 -2.24867 0
M  V30 1764 H 167.299 -6.64725 -2.02894 0
M  V30 1765 H 170.49 -4.38382 -1.64132 0
M  V30 1766 H 170.663 -6.15258 -2.03377 0
M  V30 1767 N 164.069 0.697108 -1.41344 0
M  V30 1768 C 165.297 1.48593 -1.43972 0
M  V30 1769 C 165.712 1.88747 -0.0445612 0
M  V30 1770 O 165.069 1.56682 0.935785 0
M  V30 1771 C 165.12 2.74946 -2.34706 0
M  V30 1772 O 164.841 2.36484 -3.68791 0
M  V30 1773 C 166.342 3.687 -2.46121 0
M  V30 1774 H 163.562 0.457964 -0.490418 0
M  V30 1775 H 166.106 0.858429 -1.8561 0
M  V30 1776 H 164.261 3.33937 -1.9638 0
M  V30 1777 H 164.675 3.17918 -4.17167 0
M  V30 1778 H 166.149 4.54145 -3.13777 0
M  V30 1779 H 166.626 4.13081 -1.49199 0
M  V30 1780 H 167.232 3.15613 -2.85076 0
M  V30 1781 N 165.547 1.27147 0.931209 0
M  V30 1782 C 166.824 1.0401 1.65654 0
M  V30 1783 C 167.204 -0.426297 2.06751 0
M  V30 1784 O 166.552 -1.40879 1.79904 0
M  V30 1785 C 166.762 1.99834 2.86125 0
M  V30 1786 C 168.11 2.29007 3.57549 0
M  V30 1787 O 169.134 1.97779 2.96246 0
M  V30 1788 O 167.993 2.82222 4.67989 0
M  V30 1789 H 165.087 0.396239 0.725895 0
M  V30 1790 H 167.633 1.38397 0.982056 0
M  V30 1791 H 166.405 2.98744 2.52721 0
M  V30 1792 H 166.028 1.65987 3.61295 0
M  V30 1793 N 167.025 -1.13721 1.09112 0
M  V30 1794 C 167.988 -2.17222 0.731241 0
M  V30 1795 C 168.988 -1.59035 -0.237566 0
M  V30 1796 O 170.178 -1.74192 -0.0161704 0
M  V30 1797 C 167.31 -3.40804 0.0808443 0
M  V30 1798 H 168.503 -2.50573 1.64783 0
M  V30 1799 H 166.056 -1.28493 0.889897 0
M  V30 1800 H 166.791 -3.1304 -0.847127 0
M  V30 1801 H 166.576 -3.84306 0.777896 0
M  V30 1802 H 168.066 -4.1731 -0.155657 0
M  V30 1803 N 168.503 -0.877838 -1.30888 0
M  V30 1804 C 169.78 -0.413052 -1.91189 0
M  V30 1805 C 170.16 1.1056 -1.79832 0
M  V30 1806 O 169.508 1.93771 -1.21099 0
M  V30 1807 C 169.718 -0.903191 -3.3711 0
M  V30 1808 C 171.066 -0.93395 -4.14201 0
M  V30 1809 O 172.09 -0.849373 -3.45925 0
M  V30 1810 O 170.949 -1.05772 -5.36167 0
M  V30 1811 H 168.043 -0.125035 -0.817493 0
M  V30 1812 H 170.589 -0.966269 -1.39504 0
M  V30 1813 H 169.361 -1.94692 -3.39427 0
M  V30 1814 H 168.984 -0.328732 -3.96239 0
M  V30 1815 N 169.982 1.44106 -0.638065 0
M  V30 1816 C 170.945 2.29138 0.0531013 0
M  V30 1817 C 171.945 1.41409 0.765506 0
M  V30 1818 O 173.135 1.63206 0.609046 0
M  V30 1819 C 170.267 3.23144 1.08584 0
M  V30 1820 H 171.46 2.91739 -0.694883 0
M  V30 1821 H 169.013 1.51134 -0.398538 0
M  V30 1822 H 169.748 2.65408 1.86357 0
M  V30 1823 H 169.533 3.87804 0.578852 0
M  V30 1824 H 171.023 3.87004 1.56899 0
M  V30 1825 N 171.46 0.379036 1.52974 0
M  V30 1826 C 172.871 -0.0972525 1.86447 0
M  V30 1827 C 173.222 -1.47027 1.29914 0
M  V30 1828 O 172.347 -2.07135 0.626433 0
M  V30 1829 C 172.942 -0.183248 3.38304 0
M  V30 1830 C 171.501 -0.603812 3.71525 0
M  V30 1831 C 170.648 0.240632 2.76254 0
M  V30 1832 H 173.599 0.597316 1.4703 0
M  V30 1833 H 173.62 -1.00432 3.67006 0
M  V30 1834 H 173.132 0.816191 3.79421 0
M  V30 1835 H 171.233 -1.61099 3.35973 0
M  V30 1836 H 171.346 -0.369086 4.77676 0
M  V30 1837 H 169.71 -0.292548 2.53014 0
M  V30 1838 H 170.493 1.23786 3.20206 0
M  V30 1839 N 172.938 -1.57226 0.108567 0
M  V30 1840 C 174.349 -1.8195 -0.418464 0
M  V30 1841 C 174.7 -1.02508 -1.67292 0
M  V30 1842 O 173.825 -0.258496 -2.14851 0
M  V30 1843 C 174.42 -3.30028 -0.765979 0
M  V30 1844 C 172.979 -3.55469 -1.23769 0
M  V30 1845 C 172.126 -2.7625 -0.241106 0
M  V30 1846 H 175.077 -1.55149 0.33384 0
M  V30 1847 H 175.098 -3.44086 -1.62434 0
M  V30 1848 H 174.61 -3.87821 0.147219 0
M  V30 1849 H 172.711 -3.03022 -2.16814 0
M  V30 1850 H 172.824 -4.6408 -1.19022 0
M  V30 1851 H 171.188 -2.44133 -0.72602 0
M  V30 1852 H 171.971 -3.36797 0.665007 0
M  V30 1853 N 174.416 0.165178 -1.56732 0
M  V30 1854 C 175.827 0.727046 -1.71962 0
M  V30 1855 C 176.178 1.82508 -0.720078 0
M  V30 1856 O 175.303 2.16082 0.117242 0
M  V30 1857 C 175.898 1.32559 -3.11791 0
M  V30 1858 C 174.457 1.83422 -3.28684 0
M  V30 1859 C 173.604 0.715567 -2.67908 0
M  V30 1860 H 176.555 -0.0602896 -1.58585 0
M  V30 1861 H 176.576 2.19533 -3.10782 0
M  V30 1862 H 176.088 0.526195 -3.84516 0
M  V30 1863 H 174.189 2.65986 -2.60926 0
M  V30 1864 H 174.302 1.97543 -4.36478 0
M  V30 1865 H 172.666 1.13758 -2.27884 0
M  V30 1866 H 173.449 -0.0720836 -3.43224 0
M  V30 1867 N 175.894 1.51508 0.433938 0
M  V30 1868 C 177.305 1.56784 1.01369 0
M  V30 1869 C 177.656 0.393349 1.92217 0
M  V30 1870 O 176.781 -0.489441 2.10792 0
M  V30 1871 C 177.376 2.84144 1.8452 0
M  V30 1872 C 175.935 2.9198 2.37539 0
M  V30 1873 C 175.082 2.51482 1.16843 0
M  V30 1874 H 178.033 1.57236 0.215081 0
M  V30 1875 H 178.054 2.68098 2.70007 0
M  V30 1876 H 177.566 3.69607 1.18373 0
M  V30 1877 H 175.667 2.10955 3.0713 0
M  V30 1878 H 175.78 3.95704 2.70103 0
M  V30 1879 H 174.144 2.04758 1.51481 0
M  V30 1880 H 174.927 3.39293 0.523015 0
M  V30 1881 N 177.372 -0.689602 1.41712 0
M  V30 1882 C 178.282 -1.83314 1.46401 0
M  V30 1883 C 179.298 -1.7036 0.35405 0
M  V30 1884 O 180.474 -1.92171 0.602692 0
M  V30 1885 C 177.539 -3.19344 1.34982 0
M  V30 1886 C 176.6 -3.44363 2.56344 0
M  V30 1887 C 175.833 -4.73904 2.45461 0
M  V30 1888 O 176.056 -5.508 1.48241 0
M  V30 1889 O 174.99 -4.99839 3.35328 0
M  V30 1890 H 178.816 -1.82314 2.42889 0
M  V30 1891 H 176.401 -0.843438 1.23315 0
M  V30 1892 H 178.283 -4.00547 1.3092 0
M  V30 1893 H 176.958 -3.21014 0.41612 0
M  V30 1894 H 175.865 -2.63067 2.65982 0
M  V30 1895 H 177.198 -3.47512 3.48563 0
M  V30 1896 N 178.85 -1.27639 -0.924453 0
M  V30 1897 C 180.127 -1.04887 -1.651 0
M  V30 1898 C 180.507 0.415327 -2.06974 0
M  V30 1899 O 179.855 1.39923 -1.80648 0
M  V30 1900 C 180.065 -2.01348 -2.85061 0
M  V30 1901 C 181.413 -2.30899 -3.56329 0
M  V30 1902 O 182.437 -1.99348 -2.95193 0
M  V30 1903 O 181.296 -2.84699 -4.66485 0
M  V30 1904 H 178.39 -0.400083 -0.723784 0
M  V30 1905 H 180.936 -1.38916 -0.974703 0
M  V30 1906 H 179.708 -3.0008 -2.51133 0
M  V30 1907 H 179.331 -1.679 -3.6041 0
M  V30 1908 N 180.328 1.1314 -1.09713 0
M  V30 1909 C 181.574 1.84967 -0.846104 0
M  V30 1910 C 181.929 1.82082 0.621601 0
M  V30 1911 O 181.222 1.2501 1.452 0
M  V30 1912 C 181.416 3.32167 -1.3191 0
M  V30 1913 C 181.245 3.49386 -2.83125 0
M  V30 1914 C 180.015 3.63456 -3.51038 0
M  V30 1915 C 182.213 3.45179 -3.81256 0
M  V30 1916 N 180.195 3.68966 -4.9065 0
M  V30 1917 C 181.566 3.57094 -5.06837 0
M  V30 1918 C 183.621 3.28598 -3.74069 0
M  V30 1919 C 182.324 3.5414 -6.26081 0
M  V30 1920 C 184.35 3.26953 -4.92804 0
M  V30 1921 C 183.712 3.39422 -6.17229 0
M  V30 1922 H 179.811 0.692899 -0.362512 0
M  V30 1923 H 182.395 1.35506 -1.39808 0
M  V30 1924 H 180.566 3.80186 -0.794535 0
M  V30 1925 H 182.298 3.91815 -1.01308 0
M  V30 1926 H 179.053 3.65256 -3.01471 0
M  V30 1927 H 179.477 3.75404 -5.63383 0
M  V30 1928 H 184.119 3.17858 -2.78794 0
M  V30 1929 H 181.837 3.63653 -7.21653 0
M  V30 1930 H 185.423 3.15316 -4.88945 0
M  V30 1931 H 184.303 3.38114 -7.07565 0
M  V30 1932 N 181.806 0.884767 1.30421 0
M  V30 1933 C 182.716 0.355398 2.31892 0
M  V30 1934 C 183.732 -0.542261 1.65335 0
M  V30 1935 O 184.908 -0.435432 1.96637 0
M  V30 1936 C 181.973 -0.421661 3.44126 0
M  V30 1937 C 181.034 0.505727 4.26311 0
M  V30 1938 C 180.267 -0.234343 5.33185 0
M  V30 1939 O 180.49 -1.46045 5.51386 0
M  V30 1940 O 179.424 0.415443 6.00465 0
M  V30 1941 H 183.25 1.19685 2.79122 0
M  V30 1942 H 180.835 0.648596 1.34587 0
M  V30 1943 H 182.717 -0.861641 4.12497 0
M  V30 1944 H 181.392 -1.23942 2.99032 0
M  V30 1945 H 180.299 0.994513 3.60639 0
M  V30 1946 H 181.632 1.28948 4.75009 0
M  V30 1947 N 183.284 -1.43765 0.645699 0
M  V30 1948 C 184.194 -2.34544 -0.0512957 0
M  V30 1949 C 185.21 -1.53455 -0.82022 0
M  V30 1950 O 186.386 -1.86133 -0.769176 0
M  V30 1951 C 183.451 -3.31636 -1.01087 0
M  V30 1952 C 182.512 -4.2863 -0.239712 0
M  V30 1953 C 181.745 -5.21084 -1.15358 0
M  V30 1954 O 181.968 -5.1779 -2.39269 0
M  V30 1955 O 180.902 -5.98593 -0.630038 0
M  V30 1956 H 184.728 -2.95624 0.695718 0
M  V30 1957 H 182.313 -1.43781 0.405882 0
M  V30 1958 H 184.195 -3.9136 -1.56254 0
M  V30 1959 H 182.87 -2.73069 -1.73824 0
M  V30 1960 H 181.777 -3.72408 0.355356 0
M  V30 1961 H 183.11 -4.90157 0.447936 0
M  V30 1962 N 184.763 -0.387143 -1.52771 0
M  V30 1963 C 185.713 0.465942 -2.23188 0
M  V30 1964 C 186.697 1.03138 -1.23496 0
M  V30 1965 O 187.889 0.957845 -1.48843 0
M  V30 1966 C 185.018 1.59384 -3.04059 0
M  V30 1967 C 184.104 1.04024 -4.11144 0
M  V30 1968 N 184.495 0.211416 -5.05358 0
M  V30 1969 C 182.793 1.31295 -4.26237 0
M  V30 1970 C 183.494 -0.0941698 -5.81624 0
M  V30 1971 N 182.47 0.509207 -5.4121 0
M  V30 1972 H 186.272 -0.173856 -2.93385 0
M  V30 1973 H 183.786 -0.19633 -1.61209 0
M  V30 1974 H 185.783 2.21738 -3.53041 0
M  V30 1975 H 184.443 2.23648 -2.35397 0
M  V30 1976 H 185.454 -0.151151 -5.17679 0
M  V30 1977 H 182.131 1.95679 -3.68803 0
M  V30 1978 H 183.521 -0.765572 -6.67524 0
M  V30 1979 N 186.241 1.57166 -0.116904 0
M  V30 1980 C 187.487 1.95412 0.542405 0
M  V30 1981 C 187.82 1.00019 1.66463 0
M  V30 1982 O 187.095 0.0370346 1.94465 0
M  V30 1983 C 187.378 3.43615 1.07708 0
M  V30 1984 C 187.231 4.49781 -0.0415868 0
M  V30 1985 C 188.55 3.93616 1.96861 0
M  V30 1986 H 185.669 0.710543 0.195696 0
M  V30 1987 H 188.311 1.89027 -0.192038 0
M  V30 1988 H 186.461 3.49187 1.70296 0
M  V30 1989 H 188.133 4.56308 -0.676793 0
M  V30 1990 H 186.376 4.28033 -0.705019 0
M  V30 1991 H 187.047 5.50733 0.373717 0
M  V30 1992 H 189.523 3.90335 1.44146 0
M  V30 1993 H 188.399 4.97838 2.3119 0
M  V30 1994 H 188.66 3.34188 2.89432 0
M  V30 1995 N 187.719 -0.156864 1.56817 0
M  V30 1996 C 188.667 -1.21319 1.98455 0
M  V30 1997 C 189.661 -1.45025 0.875444 0
M  V30 1998 O 190.867 -1.45435 1.0606 0
M  V30 1999 H 187.242 -0.408142 0.631605 0
M  V30 2000 H 189.213 -0.835244 2.86472 0
M  V30 2001 C 187.962 -2.54148 2.37285 0
M  V30 2002 H 187.285 -2.36733 3.22176 0
M  V30 2003 H 188.725 -3.26712 2.70251 0
M  V30 2004 C 187.184 -3.13967 1.22173 0
M  V30 2005 O 187.714 -3.98357 0.517149 0
M  V30 2006 N 185.92 -2.7327 0.988536 0
M  V30 2007 H 185.467 -2.04744 1.56326 0
M  V30 2008 H 185.425 -3.13628 0.220209 0
M  V30 2009 N 189.197 -1.51736 -0.425897 0
M  V30 2010 C 190.613 -1.40166 -0.76326 0
M  V30 2011 C 190.813 -0.492962 -1.95377 0
M  V30 2012 O 189.869 0.0475815 -2.52455 0
M  V30 2013 C 191.182 -2.82403 -1.03291 0
M  V30 2014 C 192.73 -2.91632 -1.13665 0
M  V30 2015 C 193.205 -4.34801 -1.43916 0
M  V30 2016 N 194.696 -4.3796 -1.50816 0
M  V30 2017 C 195.431 -5.4578 -1.75817 0
M  V30 2018 N 194.927 -6.63744 -1.98534 0
M  V30 2019 N 196.72 -5.33274 -1.77694 0
M  V30 2020 H 188.871 -2.09361 0.358 0
M  V30 2021 H 191.134 -0.942941 0.0978094 0
M  V30 2022 H 190.84 -3.50943 -0.230696 0
M  V30 2023 H 190.714 -3.22428 -1.95754 0
M  V30 2024 H 193.101 -2.23284 -1.92947 0
M  V30 2025 H 193.182 -2.55088 -0.190756 0
M  V30 2026 H 192.826 -5.03703 -0.65157 0
M  V30 2027 H 192.756 -4.68868 -2.39729 0
M  V30 2028 H 195.247 -3.52919 -1.35118 0
M  V30 2029 H 195.56 -7.41704 -2.17013 0
M  V30 2030 H 193.905 -6.66839 -1.95832 0
M  V30 2031 H 197.096 -4.40098 -1.59473 0
M  V30 2032 H 197.269 -6.1738 -1.9684 0
M  V30 2033 N 190.675 0.682077 -1.42076 0
M  V30 2034 C 191.903 1.47057 -1.4554 0
M  V30 2035 C 192.318 1.8869 -0.0645779 0
M  V30 2036 O 191.675 1.57666 0.919115 0
M  V30 2037 C 191.726 2.72442 -2.37609 0
M  V30 2038 O 191.447 2.32559 -3.71279 0
M  V30 2039 C 192.948 3.66069 -2.50017 0
M  V30 2040 H 190.168 0.452737 -0.495248 0
M  V30 2041 H 192.712 0.838695 -1.8651 0
M  V30 2042 H 190.867 3.31835 -1.9991 0
M  V30 2043 H 191.281 3.13475 -4.20516 0
M  V30 2044 H 192.755 4.50792 -3.18576 0
M  V30 2045 H 193.232 4.11476 -1.53572 0
M  V30 2046 H 193.838 3.12572 -2.88407 0
M  V30 2047 N 192.153 1.28127 0.917671 0
M  V30 2048 C 193.401 1.14825 1.66312 0
M  V30 2049 C 193.722 -0.304379 1.9261 0
M  V30 2050 O 192.992 -1.21149 1.53947 0
M  V30 2051 H 191.572 0.421953 0.616413 0
M  V30 2052 H 194.234 1.608 1.10134 0
M  V30 2053 H 193.33 1.68489 2.62712 0
M  V30 2054 N 193.631 -1.12557 1.10312 0
M  V30 2055 C 194.877 -1.84515 0.855901 0
M  V30 2056 C 195.232 -1.82409 -0.611936 0
M  V30 2057 O 194.525 -1.25778 -1.44535 0
M  V30 2058 C 194.719 -3.31462 1.33669 0
M  V30 2059 C 194.548 -3.47879 2.84974 0
M  V30 2060 C 193.318 -3.61589 3.52961 0
M  V30 2061 C 195.516 -3.43152 3.83081 0
M  V30 2062 N 193.498 -3.66359 4.926 0
M  V30 2063 C 194.869 -3.54401 5.08724 0
M  V30 2064 C 196.924 -3.2661 3.75807 0
M  V30 2065 C 195.627 -3.50815 6.2795 0
M  V30 2066 C 197.653 -3.24335 4.94531 0
M  V30 2067 C 197.015 -3.36144 6.19021 0
M  V30 2068 H 193.114 -0.690967 0.366182 0
M  V30 2069 H 195.698 -1.34763 1.40524 0
M  V30 2070 H 193.869 -3.7976 0.814686 0
M  V30 2071 H 195.601 -3.91272 1.03385 0
M  V30 2072 H 192.356 -3.63652 3.03404 0
M  V30 2073 H 192.78 -3.72411 5.65366 0
M  V30 2074 H 197.422 -3.16375 2.80476 0
M  V30 2075 H 195.14 -3.5982 7.23571 0
M  V30 2076 H 198.726 -3.12719 4.9061 0
M  V30 2077 H 197.606 -3.34357 7.09348 0
M  V30 2078 N 195.109 -0.891671 -1.2995 0
M  V30 2079 C 196.337 -0.52866 -2.00032 0
M  V30 2080 C 196.752 0.884574 -1.66795 0
M  V30 2081 O 196.109 1.5827 -0.908669 0
M  V30 2082 C 196.16 -0.701814 -3.54622 0
M  V30 2083 O 195.881 -2.05942 -3.86678 0
M  V30 2084 C 197.382 -0.342683 -4.41973 0
M  V30 2085 H 194.602 -0.203659 -0.639347 0
M  V30 2086 H 197.146 -1.19881 -1.65677 0
M  V30 2087 H 195.301 -0.0789468 -3.8732 0
M  V30 2088 H 195.715 -2.08291 -4.81368 0
M  V30 2089 H 197.189 -0.514709 -5.49595 0
M  V30 2090 H 197.666 0.71975 -4.33262 0
M  V30 2091 H 198.272 -0.942154 -4.14733 0
M  V30 2092 N 196.587 1.43421 -0.653314 0
M  V30 2093 C 197.52 2.2803 0.0879804 0
M  V30 2094 C 198.498 1.39833 0.82979 0
M  V30 2095 O 199.682 1.69275 0.829341 0
M  V30 2096 C 196.809 3.19247 1.13132 0
M  V30 2097 C 195.855 4.23704 0.487546 0
M  V30 2098 S 196.688 5.30377 -0.738961 0
M  V30 2099 C 197.844 6.25162 0.30384 0
M  V30 2100 H 198.077 2.90554 -0.629739 0
M  V30 2101 H 195.61 1.47934 -0.442156 0
M  V30 2102 H 197.568 3.72346 1.72827 0
M  V30 2103 H 196.229 2.55901 1.82136 0
M  V30 2104 H 195.422 4.87631 1.27407 0
M  V30 2105 H 195.024 3.73983 -0.0352915 0
M  V30 2106 H 197.316 6.67321 1.17 0
M  V30 2107 H 198.259 7.07463 -0.300402 0
M  V30 2108 H 198.667 5.60864 0.63969 0
M  V30 2109 N 198.065 0.39524 1.52563 0
M  V30 2110 C 199.028 -0.425001 2.25225 0
M  V30 2111 C 200.028 -0.985266 1.27079 0
M  V30 2112 O 201.218 -0.866332 1.5113 0
M  V30 2113 C 198.35 -1.59686 3.01186 0
M  V30 2114 H 199.543 0.211233 2.99155 0
M  V30 2115 H 197.096 0.147472 1.55603 0
M  V30 2116 H 197.831 -2.27035 2.31572 0
M  V30 2117 H 197.616 -1.20176 3.73229 0
M  V30 2118 H 199.106 -2.17743 3.5634 0
M  V30 2119 N 199.544 -1.57102 0.125237 0
M  V30 2120 C 200.476 -2.12726 -0.853237 0
M  V30 2121 C 201.489 -1.07145 -1.22571 0
M  V30 2122 O 202.678 -1.34497 -1.17358 0
M  V30 2123 C 199.778 -2.61709 -2.15317 0
M  V30 2124 C 198.951 -3.91456 -1.95143 0
M  V30 2125 C 198.01 -4.25973 -3.08923 0
M  V30 2126 O 197.036 -4.94682 -2.81564 0
M  V30 2127 N 198.238 -3.83795 -4.35524 0
M  V30 2128 H 201.003 -2.97307 -0.377964 0
M  V30 2129 H 198.564 -1.61792 -0.0590011 0
M  V30 2130 H 200.556 -2.81826 -2.90441 0
M  V30 2131 H 199.126 -1.81974 -2.54174 0
M  V30 2132 H 198.346 -3.80185 -1.04177 0
M  V30 2133 H 199.634 -4.76283 -1.78976 0
M  V30 2134 H 199.032 -3.2839 -4.60626 0
M  V30 2135 H 197.589 -4.09008 -5.07499 0
M  V30 2136 N 201.022 0.148545 -1.56898 0
M  V30 2137 C 201.97 1.20265 -1.99096 0
M  V30 2138 C 202.964 1.44559 -0.883123 0
M  V30 2139 O 204.17 1.4487 -1.0683 0
M  V30 2140 H 200.545 0.404786 -0.63376 0
M  V30 2141 H 202.516 0.82004 -2.86911 0
M  V30 2142 C 201.265 2.52886 -2.3863 0
M  V30 2143 H 200.588 2.35021 -3.23427 0
M  V30 2144 H 202.028 3.25274 -2.7198 0
M  V30 2145 C 200.487 3.13315 -1.23837 0
M  V30 2146 O 201.017 3.98077 -0.538268 0
M  V30 2147 N 199.223 2.72742 -1.00301 0
M  V30 2148 H 198.77 2.03912 -1.5741 0
M  V30 2149 H 198.728 3.13507 -0.236838 0
M  V30 2150 N 202.5 1.5196 0.417844 0
M  V30 2151 C 203.447 1.74678 1.50852 0
M  V30 2152 C 204.417 0.588947 1.55308 0
M  V30 2153 O 205.602 0.825544 1.72016 0
M  V30 2154 C 202.742 1.89544 2.88387 0
M  V30 2155 C 201.855 3.17166 2.93309 0
M  V30 2156 C 200.99 3.22513 4.22088 0
M  V30 2157 C 200.029 4.44372 4.20951 0
M  V30 2158 N 199.166 4.47161 5.41287 0
M  V30 2159 H 204.006 2.67768 1.30783 0
M  V30 2160 H 201.543 1.32689 0.63498 0
M  V30 2161 H 203.501 1.96146 3.68216 0
M  V30 2162 H 202.131 0.998424 3.06971 0
M  V30 2163 H 201.183 3.19778 2.06024 0
M  V30 2164 H 202.495 4.07021 2.88332 0
M  V30 2165 H 201.649 3.28139 5.10303 0
M  V30 2166 H 200.388 2.30581 4.29748 0
M  V30 2167 H 199.393 4.38902 3.31127 0
M  V30 2168 H 200.618 5.3759 4.14938 0
M  V30 2169 H 198.564 3.58108 5.49632 0
M  V30 2170 H 198.481 5.3085 5.3827 0
M  V30 2171 H 199.749 4.57005 6.3148 0
M  V30 2172 N 203.978 -0.674533 1.42435 0
M  V30 2173 C 204.908 -1.80009 1.48724 0
M  V30 2174 C 205.889 -1.6659 0.343793 0
M  V30 2175 O 207.074 -1.86007 0.558137 0
M  V30 2176 C 204.204 -3.18306 1.38919 0
M  V30 2177 C 203.158 -3.46461 2.51294 0
M  V30 2178 C 202.484 -4.84335 2.26547 0
M  V30 2179 C 203.784 -3.43328 3.93603 0
M  V30 2180 H 205.478 -1.75004 2.42928 0
M  V30 2181 H 203.024 -0.840533 1.16923 0
M  V30 2182 H 204.977 -3.9678 1.41927 0
M  V30 2183 H 203.701 -3.2399 0.412094 0
M  V30 2184 H 202.36 -2.70348 2.47604 0
M  V30 2185 H 202.008 -4.86669 1.2713 0
M  V30 2186 H 201.708 -5.04136 3.01861 0
M  V30 2187 H 203.232 -5.65094 2.31304 0
M  V30 2188 H 204.646 -4.11772 3.98894 0
M  V30 2189 H 203.043 -3.74664 4.68771 0
M  V30 2190 H 204.113 -2.41897 4.20255 0
M  V30 2191 N 205.456 -1.28612 -0.910864 0
M  V30 2192 C 206.703 -1.15934 -1.66029 0
M  V30 2193 C 207.031 0.291483 -1.92303 0
M  V30 2194 O 206.286 1.22816 -1.52364 0
M  V30 2195 C 206.585 -1.90624 -3.0232 0
M  V30 2196 C 206.251 -3.40405 -2.95695 0
M  V30 2197 C 204.913 -3.81255 -2.93595 0
M  V30 2198 C 207.265 -4.359 -2.85728 0
M  V30 2199 C 204.593 -5.15936 -2.79334 0
M  V30 2200 C 206.945 -5.70657 -2.73007 0
M  V30 2201 C 205.609 -6.10779 -2.69267 0
M  V30 2202 H 204.879 -0.424234 -0.607541 0
M  V30 2203 H 207.526 -1.5942 -1.06101 0
M  V30 2204 H 205.831 -1.39696 -3.6605 0
M  V30 2205 H 207.528 -1.78228 -3.59215 0
M  V30 2206 H 204.118 -3.07927 -2.98125 0
M  V30 2207 H 208.302 -4.053 -2.86436 0
M  V30 2208 H 203.558 -5.46146 -2.74835 0
M  V30 2209 H 207.732 -6.44311 -2.64264 0
M  V30 2210 H 205.359 -7.1509 -2.57974 0
M  V30 2211 N 206.934 1.1197 -1.10907 0
M  V30 2212 C 207.882 2.19927 -0.757303 0
M  V30 2213 C 208.876 1.67564 0.248747 0
M  V30 2214 O 210.082 1.79672 0.108605 0
M  V30 2215 H 206.457 0.716925 -0.226987 0
M  V30 2216 H 208.428 2.46847 -1.67658 0
M  V30 2217 C 207.177 3.47061 -0.210671 0
M  V30 2218 H 206.5 3.87703 -0.976049 0
M  V30 2219 H 207.94 4.24 -0.0026584 0
M  V30 2220 C 206.399 3.19864 1.05777 0
M  V30 2221 O 206.929 3.40049 2.13845 0
M  V30 2222 N 205.135 2.73636 0.978349 0
M  V30 2223 H 204.682 2.5741 0.0988246 0
M  V30 2224 H 204.64 2.55815 1.82773 0
M  V30 2225 N 208.412 0.89855 1.29475 0
M  V30 2226 C 209.359 0.373819 2.27753 0
M  V30 2227 C 210.329 -0.543444 1.56958 0
M  V30 2228 O 211.514 -0.468934 1.84948 0
M  V30 2229 C 208.654 -0.393648 3.42848 0
M  V30 2230 C 207.767 0.554379 4.28428 0
M  V30 2231 C 206.902 -0.230026 5.30702 0
M  V30 2232 C 205.941 0.712599 6.07938 0
M  V30 2233 N 205.078 -0.0373283 7.0209 0
M  V30 2234 H 209.918 1.21699 2.72017 0
M  V30 2235 H 207.455 0.611456 1.33789 0
M  V30 2236 H 209.413 -0.85466 4.08352 0
M  V30 2237 H 208.043 -1.20128 2.99615 0
M  V30 2238 H 207.095 1.13391 3.63107 0
M  V30 2239 H 208.407 1.27597 4.82204 0
M  V30 2240 H 207.561 -0.752288 6.02018 0
M  V30 2241 H 206.3 -0.984758 4.77654 0
M  V30 2242 H 205.305 1.24637 5.35486 0
M  V30 2243 H 206.53 1.46664 6.63074 0
M  V30 2244 H 204.476 -0.774348 6.51414 0
M  V30 2245 H 204.393 0.624374 7.53417 0
M  V30 2246 H 205.661 -0.539891 7.77628 0
M  V30 2247 N 209.89 -1.43072 0.660911 0
M  V30 2248 C 211.139 -2.00942 0.174735 0
M  V30 2249 C 211.452 -1.52797 -1.22117 0
M  V30 2250 O 212.658 -2.02991 -1.80297 0
M  V30 2251 C 211.114 -3.58948 0.261559 0
M  V30 2252 C 210.722 -4.16085 1.66064 0
M  V30 2253 C 212.466 -4.24173 -0.166617 0
M  V30 2254 C 210.373 -5.6641 1.70098 0
M  V30 2255 H 209.303 -0.751483 0.0615631 0
M  V30 2256 H 211.954 -1.63955 0.824069 0
M  V30 2257 H 210.336 -3.93372 -0.455421 0
M  V30 2258 H 211.51 -3.93147 2.40359 0
M  V30 2259 H 209.825 -3.6326 2.03546 0
M  V30 2260 H 212.422 -5.34471 -0.156433 0
M  V30 2261 H 212.765 -3.98647 -1.19943 0
M  V30 2262 H 213.298 -3.94659 0.498875 0
M  V30 2263 H 210.037 -5.96715 2.71315 0
M  V30 2264 H 209.557 -5.91382 1.00139 0
M  V30 2265 H 211.236 -6.30585 1.44816 0
M  V30 2266 N 211.368 -0.403325 -1.52352 0
M  V30 2267 C 212.298 0.416205 -2.29761 0
M  V30 2268 C 213.279 1.05123 -1.33728 0
M  V30 2269 O 214.464 1.06134 -1.62632 0
M  V30 2270 C 211.594 1.53624 -3.11475 0
M  V30 2271 C 210.548 1.02653 -4.15507 0
M  V30 2272 C 209.874 2.23971 -4.85532 0
M  V30 2273 C 211.174 0.08463 -5.22231 0
M  V30 2274 H 212.868 -0.229701 -2.98518 0
M  V30 2275 H 210.414 -0.111913 -1.43564 0
M  V30 2276 H 212.367 2.1165 -3.64393 0
M  V30 2277 H 211.091 2.20994 -2.40477 0
M  V30 2278 H 209.75 0.46871 -3.63591 0
M  V30 2279 H 209.398 2.89883 -4.11068 0
M  V30 2280 H 209.098 1.90521 -5.55856 0
M  V30 2281 H 210.622 2.82614 -5.41259 0
M  V30 2282 H 212.036 0.573509 -5.70424 0
M  V30 2283 H 210.433 -0.160783 -5.99885 0
M  V30 2284 H 211.503 -0.86237 -4.7717 0
M  V30 2285 N 212.846 1.57033 -0.133567 0
M  V30 2286 C 213.793 2.16074 0.811208 0
M  V30 2287 C 214.763 1.08979 1.2535 0
M  V30 2288 O 215.948 1.36958 1.32843 0
M  V30 2289 C 213.088 2.77595 2.05024 0
M  V30 2290 C 212.201 3.99042 1.65498 0
M  V30 2291 C 211.336 4.48603 2.84479 0
M  V30 2292 C 210.375 5.62547 2.41262 0
M  V30 2293 N 209.512 6.06787 3.53206 0
M  V30 2294 H 214.352 2.96477 0.300906 0
M  V30 2295 H 211.889 1.46462 0.136822 0
M  V30 2296 H 213.847 3.11402 2.77642 0
M  V30 2297 H 212.477 1.99859 2.53488 0
M  V30 2298 H 211.529 3.71302 0.826981 0
M  V30 2299 H 212.841 4.81629 1.29748 0
M  V30 2300 H 211.995 4.84395 3.65303 0
M  V30 2301 H 210.734 3.64995 3.23465 0
M  V30 2302 H 209.739 5.26345 1.58874 0
M  V30 2303 H 210.964 6.47931 2.03377 0
M  V30 2304 H 208.91 5.26117 3.91838 0
M  V30 2305 H 208.827 6.84266 3.21427 0
M  V30 2306 H 210.095 6.4722 4.34427 0
M  V30 2307 N 214.325 -0.140222 1.56975 0
M  V30 2308 C 215.288 -1.15689 1.97861 0
M  V30 2309 C 216.288 -1.3549 0.865974 0
M  V30 2310 O 217.478 -1.32367 1.13246 0
M  V30 2311 C 214.61 -2.51582 2.30042 0
M  V30 2312 H 215.803 -0.805971 2.88867 0
M  V30 2313 H 213.356 -0.383801 1.51515 0
M  V30 2314 H 214.091 -2.91632 1.41849 0
M  V30 2315 H 213.876 -2.38569 3.11171 0
M  V30 2316 H 215.366 -3.24792 2.62488 0
M  V30 2317 N 215.803 -1.52179 -0.40978 0
M  V30 2318 C 216.733 -1.78435 -1.5061 0
M  V30 2319 C 217.714 -0.635295 -1.57791 0
M  V30 2320 O 218.899 -0.880823 -1.73076 0
M  V30 2321 C 216.029 -1.93444 -2.88439 0
M  V30 2322 C 214.983 -3.09038 -2.96108 0
M  V30 2323 C 214.309 -3.09268 -4.36185 0
M  V30 2324 C 215.609 -4.48508 -2.67652 0
M  V30 2325 H 217.303 -2.70237 -1.28889 0
M  V30 2326 H 214.849 -1.30036 -0.618605 0
M  V30 2327 H 216.802 -2.10394 -3.65119 0
M  V30 2328 H 215.526 -0.983129 -3.11452 0
M  V30 2329 H 214.185 -2.91837 -2.21872 0
M  V30 2330 H 213.833 -2.11861 -4.56206 0
M  V30 2331 H 213.533 -3.86907 -4.42241 0
M  V30 2332 H 215.057 -3.28348 -5.14801 0
M  V30 2333 H 216.471 -4.65918 -3.34056 0
M  V30 2334 H 214.868 -5.28059 -2.85085 0
M  V30 2335 H 215.938 -4.56649 -1.63095 0
M  V30 2336 N 217.281 0.66697 -1.42791 0
M  V30 2337 C 218.213 1.7925 -1.42836 0
M  V30 2338 C 219.226 1.59496 -0.326333 0
M  V30 2339 O 220.415 1.6847 -0.589916 0
M  V30 2340 C 217.515 3.16476 -1.21229 0
M  V30 2341 C 216.688 3.63011 -2.44013 0
M  V30 2342 C 215.747 4.78993 -2.17834 0
M  V30 2343 O 214.773 4.89137 -2.91091 0
M  V30 2344 N 215.975 5.68248 -1.18635 0
M  V30 2345 H 218.74 1.79695 -2.39854 0
M  V30 2346 H 216.301 0.850338 -1.37771 0
M  V30 2347 H 218.293 3.91734 -1.01621 0
M  V30 2348 H 216.863 3.10884 -0.32706 0
M  V30 2349 H 216.083 2.78346 -2.79137 0
M  V30 2350 H 217.371 3.90845 -3.25757 0
M  V30 2351 H 216.769 5.62712 -0.580615 0
M  V30 2352 H 215.326 6.43285 -1.05013 0
M  V30 2353 N 218.759 1.29093 0.90403 0
M  V30 2354 C 219.984 1.19809 1.69294 0
M  V30 2355 C 220.409 -0.238481 1.86582 0
M  V30 2356 O 219.767 -1.1723 1.383 0
M  V30 2357 C 219.815 1.91202 3.05736 0
M  V30 2358 O 218.919 1.22611 3.93752 0
M  V30 2359 H 218.26 0.415385 0.518027 0
M  V30 2360 H 220.79 1.70586 1.12967 0
M  V30 2361 H 220.8 1.99487 3.55906 0
M  V30 2362 H 219.475 2.95692 2.92471 0
M  V30 2363 H 218.052 1.22554 3.52186 0
M  V30 2364 N 220.237 -1.11381 1.11499 0
M  V30 2365 C 221.514 -1.7955 0.775965 0
M  V30 2366 C 221.894 -1.97859 -0.73588 0
M  V30 2367 O 221.242 -1.56376 -1.66609 0
M  V30 2368 C 221.452 -3.13196 1.53977 0
M  V30 2369 C 222.8 -3.88227 1.71944 0
M  V30 2370 O 223.824 -3.22887 1.50407 0
M  V30 2371 O 222.683 -5.05477 2.07738 0
M  V30 2372 H 219.777 -0.777728 0.28119 0
M  V30 2373 H 222.323 -1.18118 1.21845 0
M  V30 2374 H 221.095 -2.95229 2.56818 0
M  V30 2375 H 220.718 -3.82342 1.09088 0
M  V30 2376 N 221.715 -0.905404 -1.28997 0
M  V30 2377 C 223.131 -0.60233 -1.47798 0
M  V30 2378 C 223.331 0.854645 -1.82478 0
M  V30 2379 O 222.387 1.63439 -1.92468 0
M  V30 2380 C 223.7 -1.53306 -2.58685 0
M  V30 2381 C 225.248 -1.53887 -2.72558 0
M  V30 2382 C 225.723 -2.45602 -3.86579 0
M  V30 2383 N 227.214 -2.43681 -3.93921 0
M  V30 2384 C 227.949 -3.11347 -4.81509 0
M  V30 2385 N 227.445 -3.88313 -5.73746 0
M  V30 2386 N 229.238 -3.00476 -4.75048 0
M  V30 2387 H 221.389 -1.84765 -1.04764 0
M  V30 2388 H 223.652 -0.792025 -0.520961 0
M  V30 2389 H 223.358 -2.57141 -2.39941 0
M  V30 2390 H 223.232 -1.25787 -3.55609 0
M  V30 2391 H 225.619 -0.507941 -2.90696 0
M  V30 2392 H 225.7 -1.85447 -1.76191 0
M  V30 2393 H 225.344 -3.48792 -3.69197 0
M  V30 2394 H 225.274 -2.11349 -4.82327 0
M  V30 2395 H 227.765 -1.87767 -3.27951 0
M  V30 2396 H 228.078 -4.36985 -6.37389 0
M  V30 2397 H 226.423 -3.92419 -5.73614 0
M  V30 2398 H 229.614 -2.39858 -4.01977 0
M  V30 2399 H 229.787 -3.53485 -5.43095 0
M  V30 2400 N 223.193 1.4272 -0.668489 0
M  V30 2401 C 224.123 2.335 -0.000100175 0
M  V30 2402 C 225.104 1.50328 0.795964 0
M  V30 2403 O 226.289 1.78949 0.754385 0
M  V30 2404 C 223.419 3.33874 0.956302 0
M  V30 2405 C 222.373 4.27152 0.269278 0
M  V30 2406 C 221.699 5.17684 1.33818 0
M  V30 2407 C 222.999 5.15373 -0.847805 0
M  V30 2408 H 224.693 2.89639 -0.758244 0
M  V30 2409 H 222.239 1.39269 -0.366079 0
M  V30 2410 H 224.192 3.9629 1.43292 0
M  V30 2411 H 222.916 2.76025 1.74579 0
M  V30 2412 H 221.575 3.66123 -0.187042 0
M  V30 2413 H 221.223 4.56165 2.1195 0
M  V30 2414 H 220.923 5.80918 0.883659 0
M  V30 2415 H 222.447 5.82974 1.81586 0
M  V30 2416 H 223.861 5.7151 -0.452681 0
M  V30 2417 H 222.258 5.87407 -1.22773 0
M  V30 2418 H 223.328 4.5415 -1.69929 0
M  V30 2419 N 224.671 0.411399 1.52136 0
M  V30 2420 C 225.634 -0.401089 2.25663 0
M  V30 2421 C 226.634 -0.971732 1.28117 0
M  V30 2422 O 227.824 -0.850254 1.52041 0
M  V30 2423 C 224.956 -1.56483 3.02863 0
M  V30 2424 H 226.149 0.24295 2.98914 0
M  V30 2425 H 223.702 0.163968 1.55438 0
M  V30 2426 H 224.437 -2.24567 2.33967 0
M  V30 2427 H 224.222 -1.16211 3.74483 0
M  V30 2428 H 225.712 -2.13951 3.58629 0
M  V30 2429 N 226.149 -1.5696 0.141893 0
M  V30 2430 C 227.565 -1.58151 -0.21456 0
M  V30 2431 C 227.765 -1.1559 -1.65049 0
M  V30 2432 O 226.821 -0.853832 -2.37626 0
M  V30 2433 C 228.134 -3.00674 0.0395576 0
M  V30 2434 C 229.682 -3.1299 -0.0245529 0
M  V30 2435 C 230.157 -4.57554 0.202167 0
M  V30 2436 N 231.648 -4.62961 0.148919 0
M  V30 2437 C 232.383 -5.7262 0.298924 0
M  V30 2438 N 231.879 -6.90947 0.50637 0
M  V30 2439 N 233.672 -5.61601 0.236886 0
M  V30 2440 H 225.823 -1.8292 1.07953 0
M  V30 2441 H 228.086 -0.846425 0.42693 0
M  V30 2442 H 227.792 -3.36183 1.03315 0
M  V30 2443 H 227.666 -3.70981 -0.682143 0
M  V30 2444 H 230.053 -2.77326 -1.00869 0
M  V30 2445 H 230.134 -2.4518 0.729396 0
M  V30 2446 H 229.778 -4.93922 1.18338 0
M  V30 2447 H 229.708 -5.23484 -0.572044 0
M  V30 2448 H 232.199 -3.77899 -0.00697015 0
M  V30 2449 H 232.512 -7.7038 0.611076 0
M  V30 2450 H 230.857 -6.92878 0.542628 0
M  V30 2451 H 234.048 -4.68039 0.0756209 0
M  V30 2452 H 234.221 -6.47015 0.357227 0
M  V30 2453 N 227.627 0.131896 -1.57047 0
M  V30 2454 C 228.557 1.16384 -2.02428 0
M  V30 2455 C 229.538 1.43936 -0.90644 0
M  V30 2456 O 230.723 1.54599 -1.17528 0
M  V30 2457 C 227.853 2.49328 -2.4177 0
M  V30 2458 C 226.807 2.36266 -3.56879 0
M  V30 2459 C 226.133 3.74057 -3.8208 0
M  V30 2460 C 227.433 1.834 -4.89042 0
M  V30 2461 H 229.127 0.786433 -2.88887 0
M  V30 2462 H 226.673 0.376855 -1.38981 0
M  V30 2463 H 228.626 3.21759 -2.7212 0
M  V30 2464 H 227.35 2.88934 -1.52266 0
M  V30 2465 H 226.009 1.66286 -3.26718 0
M  V30 2466 H 225.657 4.11125 -2.89803 0
M  V30 2467 H 225.357 3.66174 -4.59554 0
M  V30 2468 H 226.881 4.48012 -4.1487 0
M  V30 2469 H 228.295 2.45636 -5.18011 0
M  V30 2470 H 226.692 1.8637 -5.70426 0
M  V30 2471 H 227.762 0.790662 -4.7841 0
M  V30 2472 N 229.106 1.52395 0.401703 0
M  V30 2473 C 230.069 1.75636 1.47257 0
M  V30 2474 C 231.069 0.62628 1.48103 0
M  V30 2475 O 232.259 0.894227 1.49497 0
M  V30 2476 C 229.391 1.84553 2.86624 0
M  V30 2477 H 230.584 2.71241 1.27938 0
M  V30 2478 H 228.137 1.42923 0.632662 0
M  V30 2479 H 228.872 0.908882 3.11303 0
M  V30 2480 H 228.657 2.66715 2.87412 0
M  V30 2481 H 230.147 2.04251 3.64241 0
M  V30 2482 N 230.584 -0.659388 1.43143 0
M  V30 2483 C 231.532 -1.79374 1.4808 0
M  V30 2484 C 232.526 -1.65639 0.354988 0
M  V30 2485 O 233.732 -1.7206 0.528704 0
M  V30 2486 H 230.107 -0.591705 0.4641 0
M  V30 2487 H 232.078 -1.72329 2.43609 0
M  V30 2488 C 230.827 -3.17606 1.41499 0
M  V30 2489 H 230.15 -3.28809 2.27431 0
M  V30 2490 H 231.59 -3.96951 1.49015 0
M  V30 2491 C 230.049 -3.36642 0.131765 0
M  V30 2492 O 230.579 -3.93461 -0.809386 0
M  V30 2493 N 228.785 -2.90567 0.0439396 0
M  V30 2494 H 228.332 -2.44513 0.810619 0
M  V30 2495 H 228.29 -3.03681 -0.813969 0
M  V30 2496 N 232.062 -1.29571 -0.897171 0
M  V30 2497 C 232.972 -1.16808 -2.03453 0
M  V30 2498 C 233.988 -0.0907471 -1.73763 0
M  V30 2499 O 235.164 -0.303312 -1.99103 0
M  V30 2500 C 232.229 -0.848264 -3.36163 0
M  V30 2501 C 231.29 -2.0097 -3.79354 0
M  V30 2502 C 230.523 -1.70505 -5.05731 0
M  V30 2503 O 230.746 -0.62718 -5.66941 0
M  V30 2504 O 229.68 -2.5538 -5.45036 0
M  V30 2505 H 233.506 -2.12325 -2.17144 0
M  V30 2506 H 231.091 -1.09047 -1.02123 0
M  V30 2507 H 232.973 -0.684581 -4.15802 0
M  V30 2508 H 231.648 0.0771071 -3.23608 0
M  V30 2509 H 230.555 -2.22863 -3.00471 0
M  V30 2510 H 231.888 -2.91636 -3.96496 0
M  V30 2511 N 233.54 1.10788 -1.12088 0
M  V30 2512 C 234.788 1.8231 -0.872205 0
M  V30 2513 C 235.109 1.85419 0.603709 0
M  V30 2514 O 234.379 1.32963 1.43867 0
M  V30 2515 H 232.959 0.675137 -0.319686 0
M  V30 2516 H 235.621 1.34068 -1.41463 0
M  V30 2517 H 234.717 2.85955 -1.25045 0
M  V30 2518 N 235.018 0.912232 1.28515 0
M  V30 2519 C 235.981 0.404223 2.25607 0
M  V30 2520 C 236.981 -0.468602 1.53821 0
M  V30 2521 O 238.171 -0.271873 1.72065 0
M  V30 2522 C 235.303 -0.420653 3.38295 0
M  V30 2523 H 236.496 1.26188 2.7206 0
M  V30 2524 H 234.049 0.691495 1.40171 0
M  V30 2525 H 234.784 -1.29777 2.97201 0
M  V30 2526 H 234.569 0.204935 3.91564 0
M  V30 2527 H 236.059 -0.766971 4.10496 0
M  V30 2528 N 236.496 -1.42363 0.676048 0
M  V30 2529 C 237.736 -2.03392 0.20273 0
M  V30 2530 C 238.1 -1.52306 -1.16906 0
M  V30 2531 O 239.301 -2.05129 -1.73711 0
M  V30 2532 C 237.572 -3.56614 0.236947 0
M  V30 2533 S 239.131 -4.38489 -0.165186 0
M  V30 2534 H 235.949 -0.70611 0.0832418 0
M  V30 2535 H 238.551 -1.74093 0.88948 0
M  V30 2536 H 237.255 -3.91293 1.23767 0
M  V30 2537 H 236.786 -3.90587 -0.469596 0
M  V30 2538 H 238.801 -4.76093 -1.39822 0
M  V30 2539 N 237.974 -0.419461 -1.51915 0
M  V30 2540 C 238.922 0.415502 -2.28859 0
M  V30 2541 C 239.916 1.03674 -1.3397 0
M  V30 2542 O 241.122 0.973757 -1.51387 0
M  V30 2543 H 237.497 0.152786 -0.736315 0
M  V30 2544 H 239.468 -0.254531 -2.97312 0
M  V30 2545 C 238.217 1.51425 -3.12995 0
M  V30 2546 H 237.54 1.04556 -3.85886 0
M  V30 2547 H 238.98 2.07208 -3.6992 0
M  V30 2548 C 237.439 2.48745 -2.27217 0
M  V30 2549 O 237.969 3.52871 -1.9195 0
M  V30 2550 N 236.175 2.19202 -1.90785 0
M  V30 2551 H 235.722 1.34556 -2.19664 0
M  V30 2552 H 235.68 2.84561 -1.33687 0
M  V30 2553 N 239.452 1.56882 -0.150215 0
M  V30 2554 C 240.362 2.20494 0.801222 0
M  V30 2555 C 241.378 1.19019 1.26927 0
M  V30 2556 O 242.554 1.51607 1.32579 0
M  V30 2557 C 239.619 2.81659 2.02161 0
M  V30 2558 C 238.68 3.9827 1.60249 0
M  V30 2559 C 237.913 4.56508 2.7647 0
M  V30 2560 O 238.136 4.13627 3.92771 0
M  V30 2561 O 237.07 5.46719 2.51757 0
M  V30 2562 H 240.896 3.02315 0.289717 0
M  V30 2563 H 238.481 1.49202 0.0769684 0
M  V30 2564 H 240.363 3.20522 2.73576 0
M  V30 2565 H 239.038 2.02849 2.52258 0
M  V30 2566 H 237.945 3.64117 0.858477 0
M  V30 2567 H 239.278 4.78609 1.14864 0
M  V30 2568 N 240.93 -0.123565 1.57115 0
M  V30 2569 C 242.341 -0.681198 1.73829 0
M  V30 2570 C 242.692 -1.80535 0.768214 0
M  V30 2571 O 241.817 -2.16317 -0.0599103 0
M  V30 2572 C 242.412 -1.24246 3.15196 0
M  V30 2573 C 240.971 -1.74643 3.33432 0
M  V30 2574 C 240.118 -0.644284 2.69711 0
M  V30 2575 H 243.069 0.102315 1.5837 0
M  V30 2576 H 243.09 -2.11216 3.16493 0
M  V30 2577 H 242.602 -0.424062 3.85776 0
M  V30 2578 H 240.703 -2.58974 2.67886 0
M  V30 2579 H 240.816 -1.85902 4.41562 0
M  V30 2580 H 239.18 -1.07676 2.3082 0
M  V30 2581 H 239.963 0.163058 3.42913 0
M  V30 2582 N 242.408 -1.52605 -0.393616 0
M  V30 2583 C 243.654 -1.67672 -1.14079 0
M  V30 2584 C 243.987 -0.413121 -1.89755 0
M  V30 2585 O 243.262 0.588952 -1.85369 0
M  V30 2586 C 243.545 -2.9088 -2.12276 0
M  V30 2587 C 243.398 -4.27329 -1.40394 0
M  V30 2588 C 244.717 -3.09628 -3.12759 0
M  V30 2589 H 241.836 -0.610168 -0.413356 0
M  V30 2590 H 244.478 -1.85193 -0.424696 0
M  V30 2591 H 242.628 -2.76073 -2.73342 0
M  V30 2592 H 244.3 -4.53894 -0.82327 0
M  V30 2593 H 242.543 -4.2802 -0.705801 0
M  V30 2594 H 243.214 -5.09615 -2.12123 0
M  V30 2595 H 245.69 -3.23436 -2.61779 0
M  V30 2596 H 244.566 -3.97322 -3.78717 0
M  V30 2597 H 244.827 -2.23637 -3.81365 0
M  V30 2598 N 243.887 0.651787 -1.4349 0
M  V30 2599 C 244.817 1.77621 -1.51569 0
M  V30 2600 C 245.798 1.66022 -0.370253 0
M  V30 2601 O 246.983 1.85095 -0.587658 0
M  V30 2602 C 244.113 3.16056 -1.43966 0
M  V30 2603 C 243.067 3.4242 -2.56774 0
M  V30 2604 C 242.393 4.8067 -2.34223 0
M  V30 2605 C 243.693 3.37023 -3.99015 0
M  V30 2606 H 245.387 1.71117 -2.45681 0
M  V30 2607 H 242.933 0.821825 -1.18246 0
M  V30 2608 H 244.886 3.94472 -1.48221 0
M  V30 2609 H 243.61 3.23293 -0.463586 0
M  V30 2610 H 242.269 2.66375 -2.51873 0
M  V30 2611 H 241.917 4.84585 -1.34856 0
M  V30 2612 H 241.617 4.9927 -3.09844 0
M  V30 2613 H 243.141 5.61342 -2.40265 0
M  V30 2614 H 244.555 4.05374 -4.05395 0
M  V30 2615 H 242.952 3.67159 -4.74673 0
M  V30 2616 H 244.022 2.3518 -4.2405 0
M  V30 2617 N 245.365 1.30045 0.890287 0
M  V30 2618 C 246.781 1.08261 1.17268 0
M  V30 2619 C 246.981 -0.160063 2.00863 0
M  V30 2620 O 246.037 -0.855181 2.37577 0
M  V30 2621 C 247.35 2.34323 1.8845 0
M  V30 2622 C 248.898 2.39735 2.01237 0
M  V30 2623 C 249.373 3.65625 2.7583 0
M  V30 2624 N 250.864 3.66402 2.83379 0
M  V30 2625 C 251.599 4.60498 3.41657 0
M  V30 2626 N 251.095 5.64933 4.01026 0
M  V30 2627 N 252.888 4.48051 3.39421 0
M  V30 2628 H 245.039 2.09777 0.332762 0
M  V30 2629 H 247.302 0.92446 0.209948 0
M  V30 2630 H 247.008 3.2498 1.34465 0
M  V30 2631 H 246.882 2.4256 2.88867 0
M  V30 2632 H 249.269 1.4956 2.54393 0
M  V30 2633 H 249.35 2.35476 0.999232 0
M  V30 2634 H 248.994 4.56156 2.23347 0
M  V30 2635 H 248.924 3.67144 3.77509 0
M  V30 2636 H 251.415 2.90896 2.41222 0
M  V30 2637 H 251.728 6.32841 4.43545 0
M  V30 2638 H 250.073 5.68732 3.99461 0
M  V30 2639 H 253.264 3.65649 2.92264 0
M  V30 2640 H 253.437 5.21565 3.84544 0
M  V30 2641 N 246.843 -1.10192 1.12674 0
M  V30 2642 C 248.259 -1.34235 0.863317 0
M  V30 2643 C 248.459 -1.95062 -0.505277 0
M  V30 2644 O 247.515 -2.19192 -1.25345 0
M  V30 2645 C 248.828 -2.2616 1.98172 0
M  V30 2646 C 250.376 -2.3969 2.0129 0
M  V30 2647 C 250.851 -3.34946 3.1237 0
M  V30 2648 N 252.342 -3.42515 3.11829 0
M  V30 2649 C 253.077 -4.16199 3.94419 0
M  V30 2650 N 252.573 -4.92747 4.87004 0
M  V30 2651 N 254.366 -4.11843 3.82547 0
M  V30 2652 H 246.517 -0.690798 2.00853 0
M  V30 2653 H 248.78 -0.366774 0.874174 0
M  V30 2654 H 248.486 -1.8868 2.96804 0
M  V30 2655 H 248.36 -3.26488 1.88906 0
M  V30 2656 H 250.747 -2.76438 1.03276 0
M  V30 2657 H 250.828 -1.39169 2.14629 0
M  V30 2658 H 250.472 -2.98923 4.10619 0
M  V30 2659 H 250.402 -4.35353 2.96269 0
M  V30 2660 H 252.893 -2.87926 2.44759 0
M  V30 2661 H 253.206 -5.46376 5.46528 0
M  V30 2662 H 251.551 -4.91862 4.91016 0
M  V30 2663 H 254.742 -3.51136 3.0955 0
M  V30 2664 H 254.915 -4.69007 4.47142 0
M  V30 2665 N 248.321 -0.919034 -1.28029 0
M  V30 2666 C 249.567 -0.555757 -1.95036 0
M  V30 2667 C 249.9 0.899198 -1.72128 0
M  V30 2668 O 249.175 1.64023 -1.04531 0
M  V30 2669 C 249.458 -0.872024 -3.49382 0
M  V30 2670 C 249.311 -2.3801 -3.81669 0
M  V30 2671 C 250.63 -0.37185 -4.38526 0
M  V30 2672 H 247.749 -0.203386 -0.708381 0
M  V30 2673 H 250.391 -1.14924 -1.51303 0
M  V30 2674 H 248.541 -0.366946 -3.86763 0
M  V30 2675 H 250.213 -2.9562 -3.54128 0
M  V30 2676 H 248.456 -2.83289 -3.28526 0
M  V30 2677 H 249.127 -2.55192 -4.8947 0
M  V30 2678 H 251.603 -0.804602 -4.08247 0
M  V30 2679 H 250.479 -0.622173 -5.45362 0
M  V30 2680 H 250.74 0.727934 -4.36066 0
M  V30 2681 N 249.799 1.42003 -0.683588 0
M  V30 2682 C 250.762 2.29191 -0.0198243 0
M  V30 2683 C 251.762 1.43773 0.72013 0
M  V30 2684 O 252.952 1.65061 0.556815 0
M  V30 2685 C 250.084 3.26435 0.982487 0
M  V30 2686 H 251.277 2.8938 -0.787345 0
M  V30 2687 H 248.83 1.49789 -0.446418 0
M  V30 2688 H 249.565 2.71203 1.77819 0
M  V30 2689 H 249.35 3.89449 0.455182 0
M  V30 2690 H 250.84 3.918 1.44508 0
M  V30 2691 N 251.277 0.427512 1.51691 0
M  V30 2692 C 252.523 -0.142439 2.02299 0
M  V30 2693 C 252.856 -1.43214 1.31162 0
M  V30 2694 O 252.131 -1.89833 0.423511 0
M  V30 2695 C 252.414 -0.371301 3.58181 0
M  V30 2696 C 252.267 0.936358 4.39946 0
M  V30 2697 C 253.586 -1.14542 4.24933 0
M  V30 2698 H 250.705 -0.0502937 0.735282 0
M  V30 2699 H 253.347 0.564584 1.81418 0
M  V30 2700 H 251.497 -0.973559 3.76104 0
M  V30 2701 H 253.169 1.57184 4.33694 0
M  V30 2702 H 251.412 1.5432 4.05423 0
M  V30 2703 H 252.083 0.730388 5.47147 0
M  V30 2704 H 254.559 -0.635362 4.11221 0
M  V30 2705 H 253.435 -1.27431 5.33903 0
M  V30 2706 H 253.696 -2.17093 3.85127 0
M  V30 2707 N 252.755 -1.56801 0.158532 0
M  V30 2708 C 254.032 -1.88131 -0.535357 0
M  V30 2709 C 254.412 -1.06638 -1.82186 0
M  V30 2710 O 253.76 -0.156533 -2.27963 0
M  V30 2711 C 253.97 -3.39949 -0.789653 0
M  V30 2712 C 255.318 -4.09416 -1.12533 0
M  V30 2713 O 256.342 -3.45194 -0.878622 0
M  V30 2714 O 255.201 -5.22855 -1.59014 0
M  V30 2715 H 252.295 -0.780143 -0.27442 0
M  V30 2716 H 254.841 -1.68564 0.19601 0
M  V30 2717 H 253.613 -3.91115 0.120353 0
M  V30 2718 H 253.236 -3.65084 -1.57479 0
M  V30 2719 N 254.233 0.115231 -1.57178 0
M  V30 2720 C 255.18 1.14115 -2.00615 0
M  V30 2721 C 256.15 1.40939 -0.878941 0
M  V30 2722 O 257.335 1.52741 -1.14345 0
M  V30 2723 C 254.475 2.46156 -2.4187 0
M  V30 2724 C 253.588 2.26236 -3.68024 0
M  V30 2725 C 252.723 3.51534 -3.98243 0
M  V30 2726 C 251.762 3.26787 -5.17568 0
M  V30 2727 N 250.899 4.44298 -5.43639 0
M  V30 2728 H 255.739 0.763743 -2.88047 0
M  V30 2729 H 253.276 0.365615 -1.42484 0
M  V30 2730 H 255.234 3.23189 -2.63827 0
M  V30 2731 H 253.864 2.81783 -1.57475 0
M  V30 2732 H 252.916 1.40102 -3.5366 0
M  V30 2733 H 254.228 2.03929 -4.55208 0
M  V30 2734 H 253.382 4.36984 -4.20868 0
M  V30 2735 H 252.121 3.76876 -3.09541 0
M  V30 2736 H 251.126 2.39729 -4.94783 0
M  V30 2737 H 252.351 3.02812 -6.0785 0
M  V30 2738 H 250.297 4.69754 -4.57895 0
M  V30 2739 H 250.214 4.25109 -6.25154 0
M  V30 2740 H 251.482 5.3087 -5.70786 0
M  V30 2741 N 255.711 1.52812 0.385517 0
M  V30 2742 C 256.951 1.69716 1.13911 0
M  V30 2743 C 257.315 0.42962 1.87132 0
M  V30 2744 O 258.516 0.475071 2.64569 0
M  V30 2745 C 256.787 2.90021 2.0886 0
M  V30 2746 S 258.346 3.27531 2.92009 0
M  V30 2747 H 255.164 0.59739 0.385547 0
M  V30 2748 H 257.766 1.90868 0.423061 0
M  V30 2749 H 256.47 3.80493 1.53797 0
M  V30 2750 H 256.001 2.71213 2.84969 0
M  V30 2751 H 258.016 2.77989 4.11019 0
M  V30 2752 N 257.189 -0.644168 1.43834 0
M  V30 2753 C 258.152 -1.73857 1.49353 0
M  V30 2754 C 259.152 -1.56315 0.377112 0
M  V30 2755 O 260.342 -1.62048 0.639226 0
M  V30 2756 C 257.474 -3.12819 1.35488 0
M  V30 2757 H 258.667 -1.70342 2.46827 0
M  V30 2758 H 256.22 -0.856652 1.30733 0
M  V30 2759 H 256.955 -3.2194 0.390569 0
M  V30 2760 H 256.74 -3.26958 2.16428 0
M  V30 2761 H 258.23 -3.92606 1.42302 0
M  V30 2762 N 258.668 -1.30515 -0.883378 0
M  V30 2763 C 260.084 -1.08881 -1.16692 0
M  V30 2764 C 260.284 0.149409 -2.00945 0
M  V30 2765 O 259.34 0.84257 -2.38027 0
M  V30 2766 C 260.653 -2.35319 -1.87204 0
M  V30 2767 C 262.201 -2.40799 -1.99962 0
M  V30 2768 C 262.676 -3.67083 -2.73887 0
M  V30 2769 N 264.167 -3.679 -2.81432 0
M  V30 2770 C 264.902 -4.62303 -3.3921 0
M  V30 2771 N 264.398 -5.67052 -3.98025 0
M  V30 2772 N 266.191 -4.49845 -3.3704 0
M  V30 2773 H 258.342 -2.09951 -0.321633 0
M  V30 2774 H 260.605 -0.92556 -0.205043 0
M  V30 2775 H 260.311 -3.25689 -1.3274 0
M  V30 2776 H 260.185 -2.44089 -2.87577 0
M  V30 2777 H 262.572 -1.50907 -2.53597 0
M  V30 2778 H 262.653 -2.36003 -0.98673 0
M  V30 2779 H 262.297 -4.57334 -2.20925 0
M  V30 2780 H 262.227 -3.69141 -3.75556 0
M  V30 2781 H 264.718 -2.92171 -2.39676 0
M  V30 2782 H 265.031 -6.35184 -4.40183 0
M  V30 2783 H 263.376 -5.70842 -3.96439 0
M  V30 2784 H 266.567 -3.67194 -2.90321 0
M  V30 2785 H 266.74 -5.23597 -3.81772 0
M  V30 2786 N 260.146 1.09593 -1.13257 0
M  V30 2787 C 261.562 1.33775 -0.870423 0
M  V30 2788 C 261.762 1.95327 0.494926 0
M  V30 2789 O 260.818 2.19853 1.2418 0
M  V30 2790 C 262.131 2.25106 -1.99369 0
M  V30 2791 C 263.679 2.3862 -2.02558 0
M  V30 2792 C 264.154 3.33285 -3.14142 0
M  V30 2793 N 265.645 3.40857 -3.13641 0
M  V30 2794 C 266.38 4.14101 -3.96621 0
M  V30 2795 N 265.876 4.90157 -4.8961 0
M  V30 2796 N 267.669 4.09808 -3.84726 0
M  V30 2797 H 259.82 0.680136 -2.01216 0
M  V30 2798 H 262.083 0.362133 -0.876107 0
M  V30 2799 H 261.789 1.87103 -2.97801 0
M  V30 2800 H 261.663 3.25481 -1.90635 0
M  V30 2801 H 264.05 2.75887 -1.0474 0
M  V30 2802 H 264.131 1.38028 -2.15364 0
M  V30 2803 H 263.775 2.96741 -4.12198 0
M  V30 2804 H 263.705 4.33776 -2.98574 0
M  V30 2805 H 266.196 2.86624 -2.46282 0
M  V30 2806 H 266.509 5.4347 -5.49418 0
M  V30 2807 H 264.854 4.89251 -4.93617 0
M  V30 2808 H 268.045 3.4949 -3.11408 0
M  V30 2809 H 268.218 4.66629 -4.49623 0
M  V30 2810 N 261.624 0.925811 1.2754 0
M  V30 2811 C 262.87 0.566092 1.94739 0
M  V30 2812 C 263.203 -0.890057 1.72603 0
M  V30 2813 O 262.478 -1.63467 1.05399 0
M  V30 2814 C 262.761 0.89054 3.48915 0
M  V30 2815 C 262.614 2.4003 3.80402 0
M  V30 2816 C 263.933 0.395101 4.38323 0
M  V30 2817 H 261.052 0.20714 0.707292 0
M  V30 2818 H 263.694 1.15725 1.50691 0
M  V30 2819 H 261.844 0.387452 3.86563 0
M  V30 2820 H 263.516 2.97494 3.52555 0
M  V30 2821 H 261.759 2.85028 3.2702 0
M  V30 2822 H 262.43 2.57785 4.8811 0
M  V30 2823 H 264.906 0.826241 4.07814 0
M  V30 2824 H 263.782 0.651086 5.45025 0
M  V30 2825 H 264.043 -0.704798 4.36446 0
M  V30 2826 N 263.102 -1.41638 0.69111 0
M  V30 2827 C 264.518 -1.55435 0.362224 0
M  V30 2828 C 264.718 -1.66754 -1.13117 0
M  V30 2829 O 263.774 -1.64348 -1.91692 0
M  V30 2830 C 265.087 -2.79588 1.10684 0
M  V30 2831 C 266.635 -2.9338 1.09075 0
M  V30 2832 C 267.11 -4.20414 1.81703 0
M  V30 2833 N 268.601 -4.27362 1.7865 0
M  V30 2834 C 269.336 -5.24507 2.31689 0
M  V30 2835 N 268.832 -6.27708 2.93179 0
M  V30 2836 N 270.625 -5.16416 2.2197 0
M  V30 2837 H 262.776 -1.32536 1.65976 0
M  V30 2838 H 265.039 -0.639115 0.700168 0
M  V30 2839 H 264.745 -2.77419 2.16175 0
M  V30 2840 H 264.619 -3.70973 0.682545 0
M  V30 2841 H 267.006 -2.95067 0.0441238 0
M  V30 2842 H 267.087 -2.0318 1.55407 0
M  V30 2843 H 266.731 -4.19488 2.86343 0
M  V30 2844 H 266.661 -5.09578 1.32808 0
M  V30 2845 H 269.152 -3.53415 1.33815 0
M  V30 2846 H 269.465 -6.98217 3.31229 0
M  V30 2847 H 267.81 -6.28223 2.97255 0
M  V30 2848 H 271.001 -4.34716 1.73607 0
M  V30 2849 H 271.174 -5.91958 2.63609 0
M  V30 2850 N 264.58 -0.43555 -1.51462 0
M  V30 2851 C 265.512 0.41257 -2.25456 0
M  V30 2852 C 266.525 0.987822 -1.29406 0
M  V30 2853 O 267.714 0.882266 -1.55172 0
M  V30 2854 C 264.814 1.58894 -2.99342 0
M  V30 2855 C 263.987 1.13288 -4.22474 0
M  V30 2856 C 263.046 2.17917 -4.78956 0
M  V30 2857 O 262.072 1.77425 -5.40841 0
M  V30 2858 N 263.274 3.50382 -4.62832 0
M  V30 2859 H 266.039 -0.221603 -2.9888 0
M  V30 2860 H 263.6 -0.264342 -1.59727 0
M  V30 2861 H 265.592 2.28508 -3.34015 0
M  V30 2862 H 264.162 2.12849 -2.28941 0
M  V30 2863 H 263.382 0.263881 -3.93316 0
M  V30 2864 H 264.67 0.805542 -5.02383 0
M  V30 2865 H 264.068 3.86013 -4.13534 0
M  V30 2866 H 262.625 4.15895 -5.01871 0
M  V30 2867 N 266.058 1.56714 -0.166846 0
M  V30 2868 C 267.021 2.16539 0.751232 0
M  V30 2869 C 268.021 1.11228 1.16125 0
M  V30 2870 O 269.211 1.36765 1.07894 0
M  V30 2871 C 266.343 2.74462 2.02196 0
M  V30 2872 H 267.536 2.99013 0.230499 0
M  V30 2873 H 265.089 1.56081 0.0826982 0
M  V30 2874 H 265.824 1.95709 2.58589 0
M  V30 2875 H 265.609 3.51527 1.73698 0
M  V30 2876 H 267.099 3.20489 2.67725 0
M  V30 2877 N 267.536 -0.106894 1.57237 0
M  V30 2878 C 268.466 -1.13148 2.04254 0
M  V30 2879 C 269.447 -1.42476 0.929224 0
M  V30 2880 O 270.632 -1.52709 1.19973 0
M  V30 2881 C 267.762 -2.4545 2.45706 0
M  V30 2882 C 266.716 -2.30558 3.60592 0
M  V30 2883 C 266.042 -3.67931 3.87983 0
M  V30 2884 C 267.342 -1.75597 4.91897 0
M  V30 2885 H 269.036 -0.740374 2.90101 0
M  V30 2886 H 266.582 -0.354696 1.39563 0
M  V30 2887 H 268.535 -3.17389 2.77205 0
M  V30 2888 H 267.259 -2.86475 1.56843 0
M  V30 2889 H 265.918 -1.61067 3.29322 0
M  V30 2890 H 265.566 -4.06462 2.96306 0
M  V30 2891 H 265.266 -3.58817 4.65322 0
M  V30 2892 H 266.79 -4.41356 4.21945 0
M  V30 2893 H 268.204 -2.37364 5.21854 0
M  V30 2894 H 266.601 -1.77272 5.73319 0
M  V30 2895 H 267.671 -0.714451 4.79608 0
M  V30 2896 N 269.014 -1.53014 -0.377408 0
M  V30 2897 C 269.977 -1.77957 -1.44444 0
M  V30 2898 C 270.977 -0.649763 -1.47087 0
M  V30 2899 O 272.167 -0.917897 -1.48055 0
M  V30 2900 C 269.299 -1.89089 -2.83651 0
M  V30 2901 H 270.492 -2.73243 -1.23606 0
M  V30 2902 H 268.045 -1.43912 -0.609844 0
M  V30 2903 H 268.78 -0.958293 -3.09818 0
M  V30 2904 H 268.565 -2.71254 -2.83132 0
M  V30 2905 H 270.055 -2.1002 -3.60945 0
M  V30 2906 N 270.492 0.636531 -1.44174 0
M  V30 2907 C 271.717 1.42847 -1.50364 0
M  V30 2908 C 272.142 1.87665 -0.127867 0
M  V30 2909 O 271.5 1.58408 0.88185 0
M  V30 2910 C 271.548 2.62854 -2.4686 0
M  V30 2911 O 270.652 3.62501 -1.9664 0
M  V30 2912 H 269.993 0.427642 -0.507955 0
M  V30 2913 H 272.523 0.777422 -1.89255 0
M  V30 2914 H 272.533 3.10465 -2.64718 0
M  V30 2915 H 271.208 2.29578 -3.46795 0
M  V30 2916 H 269.785 3.21735 -1.88523 0
M  V30 2917 N 271.97 1.30982 0.876444 0
M  V30 2918 C 273.216 1.20474 1.63138 0
M  V30 2919 C 273.549 -0.238096 1.92735 0
M  V30 2920 O 272.824 -1.1692 1.55435 0
M  V30 2921 C 273.107 2.04244 2.96574 0
M  V30 2922 C 272.96 3.56793 2.73896 0
M  V30 2923 C 274.279 1.88684 3.97601 0
M  V30 2924 H 271.398 0.439001 0.591985 0
M  V30 2925 H 274.04 1.60704 1.01361 0
M  V30 2926 H 272.19 1.70063 3.493 0
M  V30 2927 H 273.862 4.01077 2.27892 0
M  V30 2928 H 272.105 3.80548 2.08245 0
M  V30 2929 H 272.776 4.10706 3.68815 0
M  V30 2930 H 275.252 2.18584 3.54062 0
M  V30 2931 H 274.128 2.4961 4.88862 0
M  V30 2932 H 274.389 0.848343 4.33884 0
M  V30 2933 N 273.449 -1.08991 1.13837 0
M  V30 2934 C 274.674 -1.85551 0.926585 0
M  V30 2935 C 275.099 -1.80782 -0.519566 0
M  V30 2936 O 274.457 -1.18855 -1.36906 0
M  V30 2937 C 274.505 -3.31266 1.42462 0
M  V30 2938 O 273.609 -4.07822 0.612789 0
M  V30 2939 H 272.95 -0.575192 0.331738 0
M  V30 2940 H 275.48 -1.37604 1.51414 0
M  V30 2941 H 275.49 -3.82112 1.43019 0
M  V30 2942 H 274.165 -3.34052 2.47754 0
M  V30 2943 H 272.742 -3.66731 0.675463 0
M  V30 2944 N 274.927 -0.932562 -1.27047 0
M  V30 2945 C 276.173 -0.585913 -1.94778 0
M  V30 2946 C 276.528 0.864142 -1.71902 0
M  V30 2947 O 275.821 1.60894 -1.04037 0
M  V30 2948 C 276.015 -0.853713 -3.47054 0
M  V30 2949 C 275.844 -2.32825 -3.84737 0
M  V30 2950 C 274.614 -2.98184 -4.07939 0
M  V30 2951 C 276.812 -3.30612 -3.93954 0
M  V30 2952 N 274.794 -4.3574 -4.3244 0
M  V30 2953 C 276.165 -4.53395 -4.22887 0
M  V30 2954 C 278.22 -3.25755 -3.76548 0
M  V30 2955 C 276.923 -5.71927 -4.36224 0
M  V30 2956 C 278.949 -4.43604 -3.91113 0
M  V30 2957 C 278.311 -5.65166 -4.20437 0
M  V30 2958 H 274.41 -0.264617 -0.735868 0
M  V30 2959 H 276.994 -1.20019 -1.53309 0
M  V30 2960 H 275.165 -0.268557 -3.8747 0
M  V30 2961 H 276.897 -0.469202 -4.01971 0
M  V30 2962 H 273.652 -2.48835 -4.02961 0
M  V30 2963 H 274.076 -5.06915 -4.48738 0
M  V30 2964 H 278.718 -2.32835 -3.52913 0
M  V30 2965 H 276.436 -6.65308 -4.58683 0
M  V30 2966 H 280.022 -4.41368 -3.79059 0
M  V30 2967 H 278.902 -6.54836 -4.31462 0
M  V30 2968 N 276.405 1.4127 -0.698611 0
M  V30 2969 C 277.682 1.94955 -0.158762 0
M  V30 2970 C 278.062 1.63781 1.33188 0
M  V30 2971 O 277.41 0.946423 2.07979 0
M  V30 2972 C 277.62 3.46044 -0.453309 0
M  V30 2973 C 278.968 4.22872 -0.382707 0
M  V30 2974 O 279.992 3.54076 -0.388396 0
M  V30 2975 O 278.851 5.45407 -0.345463 0
M  V30 2976 H 275.945 0.82683 -0.0167505 0
M  V30 2977 H 278.491 1.50971 -0.77498 0
M  V30 2978 H 277.263 3.62028 -1.48498 0
M  V30 2979 H 276.886 3.97128 0.19373 0
M  V30 2980 N 277.883 0.443576 1.51229 0
M  V30 2981 C 279.111 -0.11929 2.06556 0
M  V30 2982 C 279.526 -1.35921 1.31038 0
M  V30 2983 O 278.883 -1.78675 0.371704 0
M  V30 2984 C 278.934 -0.435228 3.5887 0
M  V30 2985 O 278.655 0.755486 4.31537 0
M  V30 2986 C 280.156 -1.04808 4.30732 0
M  V30 2987 H 277.376 -0.0051584 0.67098 0
M  V30 2988 H 279.92 0.624453 1.94733 0
M  V30 2989 H 278.075 -1.12887 3.70588 0
M  V30 2990 H 278.489 0.483491 5.22267 0
M  V30 2991 H 279.963 -1.2191 5.3837 0
M  V30 2992 H 280.44 -2.03081 3.89429 0
M  V30 2993 H 281.046 -0.393637 4.23474 0
M  V30 2994 N 279.361 -1.56624 0.175154 0
M  V30 2995 C 280.308 -2.18149 -0.753634 0
M  V30 2996 C 281.278 -1.12265 -1.22417 0
M  V30 2997 O 282.463 -1.40432 -1.29165 0
M  V30 2998 C 279.603 -2.82933 -1.97592 0
M  V30 2999 C 278.716 -4.03289 -1.5486 0
M  V30 3000 C 277.851 -4.55988 -2.72485 0
M  V30 3001 C 276.89 -5.68746 -2.26262 0
M  V30 3002 N 276.027 -6.15938 -3.36994 0
M  V30 3003 H 280.867 -2.9717 -0.222195 0
M  V30 3004 H 278.404 -1.46774 -0.0979422 0
M  V30 3005 H 280.362 -3.18653 -2.69288 0
M  V30 3006 H 278.992 -2.06509 -2.481 0
M  V30 3007 H 278.044 -3.73364 -0.728246 0
M  V30 3008 H 279.356 -4.849 -1.16933 0
M  V30 3009 H 278.51 -4.9391 -3.52332 0
M  V30 3010 H 277.249 -3.73443 -3.13674 0
M  V30 3011 H 276.254 -5.30372 -1.44863 0
M  V30 3012 H 277.479 -6.53095 -1.86127 0
M  V30 3013 H 275.425 -5.36321 -3.77751 0
M  V30 3014 H 275.342 -6.92548 -3.03172 0
M  V30 3015 H 276.61 -6.58511 -4.17114 0
M  V30 3016 N 280.839 0.0985539 -1.57292 0
M  V30 3017 C 281.769 1.12064 -2.04851 0
M  V30 3018 C 282.75 1.41981 -0.936767 0
M  V30 3019 O 283.935 1.52071 -1.20781 0
M  V30 3020 C 281.065 2.44144 -2.47004 0
M  V30 3021 C 280.019 2.28643 -3.6181 0
M  V30 3022 C 279.345 3.65869 -3.89929 0
M  V30 3023 C 280.645 1.72986 -4.92822 0
M  V30 3024 H 282.339 0.724979 -2.9049 0
M  V30 3025 H 279.885 0.34729 -1.39749 0
M  V30 3026 H 281.838 3.15914 -2.78884 0
M  V30 3027 H 280.562 2.85639 -1.5836 0
M  V30 3028 H 279.221 1.59318 -3.30172 0
M  V30 3029 H 278.869 4.04885 -2.98458 0
M  V30 3030 H 278.569 3.56344 -4.67218 0
M  V30 3031 H 280.093 4.39112 -4.2428 0
M  V30 3032 H 281.507 2.34593 -5.23105 0
M  V30 3033 H 279.904 1.74229 -5.74251 0
M  V30 3034 H 280.974 0.689007 -4.7998 0
M  V30 3035 N 282.317 1.53212 0.369288 0
M  V30 3036 C 283.566 1.68436 1.10961 0
M  V30 3037 C 283.879 0.440738 1.9057 0
M  V30 3038 O 285.085 0.473446 2.6734 0
M  V30 3039 C 283.541 2.97744 2.0218 0
M  V30 3040 C 283.149 4.29355 1.279 0
M  V30 3041 C 284.893 3.22334 2.76226 0
M  V30 3042 C 282.8 5.49755 2.17999 0
M  V30 3043 H 281.73 0.627568 0.41794 0
M  V30 3044 H 284.381 1.79713 0.370884 0
M  V30 3045 H 282.763 2.8026 2.79768 0
M  V30 3046 H 283.937 4.57458 0.554007 0
M  V30 3047 H 282.252 4.11179 0.657311 0
M  V30 3048 H 284.849 4.09471 3.43857 0
M  V30 3049 H 285.192 2.38238 3.41392 0
M  V30 3050 H 285.725 3.40475 2.05723 0
M  V30 3051 H 282.464 6.36318 1.57417 0
M  V30 3052 H 281.984 5.25937 2.88359 0
M  V30 3053 H 283.663 5.84401 2.77641 0
M  V30 3054 N 283.795 -0.628877 1.44509 0
M  V30 3055 C 284.727 -1.754 1.47538 0
M  V30 3056 C 285.74 -1.58575 0.368506 0
M  V30 3057 O 286.929 -1.66847 0.634376 0
M  V30 3058 C 284.029 -3.1315 1.29577 0
M  V30 3059 C 283.202 -3.56413 2.53551 0
M  V30 3060 C 282.261 -4.7305 2.30457 0
M  V30 3061 O 281.287 -4.81247 3.03957 0
M  V30 3062 N 282.489 -5.64903 1.3366 0
M  V30 3063 H 285.254 -1.73272 2.44534 0
M  V30 3064 H 282.815 -0.813512 1.39977 0
M  V30 3065 H 284.807 -3.88902 1.11971 0
M  V30 3066 H 283.377 -3.09908 0.409371 0
M  V30 3067 H 282.597 -2.70847 2.86419 0
M  V30 3068 H 283.885 -3.82071 3.36005 0
M  V30 3069 H 283.283 -5.60975 0.729604 0
M  V30 3070 H 281.84 -6.40275 1.22032 0
M  V30 3071 N 285.273 -1.31445 -0.869486 0
M  V30 3072 C 286.519 -1.22347 -1.62489 0
M  V30 3073 C 286.874 0.216204 -1.91181 0
M  V30 3074 O 286.167 1.14977 -1.53268 0
M  V30 3075 C 286.361 -2.00145 -2.96102 0
M  V30 3076 C 286.19 -3.51531 -2.80456 0
M  V30 3077 C 284.96 -4.20882 -2.79618 0
M  V30 3078 C 287.158 -4.46471 -2.5528 0
M  V30 3079 N 285.14 -5.58421 -2.55027 0
M  V30 3080 C 286.511 -5.71682 -2.39957 0
M  V30 3081 C 288.566 -4.35892 -2.40629 0
M  V30 3082 C 287.269 -6.87511 -2.11472 0
M  V30 3083 C 289.295 -5.51505 -2.13532 0
M  V30 3084 C 288.657 -6.75707 -1.98998 0
M  V30 3085 H 284.756 -0.502815 -0.598917 0
M  V30 3086 H 287.34 -1.65639 -1.02332 0
M  V30 3087 H 285.511 -1.59221 -3.54264 0
M  V30 3088 H 287.243 -1.83063 -3.60929 0
M  V30 3089 H 283.998 -3.72857 -2.92018 0
M  V30 3090 H 284.422 -6.30841 -2.45701 0
M  V30 3091 H 289.064 -3.40533 -2.50593 0
M  V30 3092 H 286.782 -7.82897 -2.00245 0
M  V30 3093 H 290.368 -5.45238 -2.02995 0
M  V30 3094 H 289.248 -7.63655 -1.78326 0
M  V30 3095 N 286.751 1.08385 -1.14413 0
M  V30 3096 C 287.681 2.17321 -0.854044 0
M  V30 3097 C 288.662 1.69024 0.191049 0
M  V30 3098 O 289.847 1.94141 0.0476779 0
M  V30 3099 C 286.977 3.45719 -0.330983 0
M  V30 3100 C 285.931 4.07409 -1.31155 0
M  V30 3101 C 285.257 5.30762 -0.64778 0
M  V30 3102 C 286.557 4.48665 -2.67388 0
M  V30 3103 H 288.251 2.41845 -1.76498 0
M  V30 3104 H 285.797 1.16233 -0.850051 0
M  V30 3105 H 287.75 4.21241 -0.115645 0
M  V30 3106 H 286.474 3.2075 0.615381 0
M  V30 3107 H 285.133 3.33919 -1.51306 0
M  V30 3108 H 284.781 5.02078 0.304398 0
M  V30 3109 H 284.481 5.72992 -1.30207 0
M  V30 3110 H 286.005 6.08998 -0.441972 0
M  V30 3111 H 287.419 5.15364 -2.51143 0
M  V30 3112 H 285.816 5.01814 -3.29093 0
M  V30 3113 H 286.886 3.60543 -3.24248 0
M  V30 3114 N 288.23 0.939286 1.26551 0
M  V30 3115 C 289.18 0.418284 2.2413 0
M  V30 3116 C 290.164 -0.483935 1.5345 0
M  V30 3117 O 291.356 -0.319489 1.74093 0
M  V30 3118 C 288.485 -0.31709 3.41832 0
M  V30 3119 C 287.571 0.602311 4.19801 0
M  V30 3120 N 287.962 1.72726 4.75394 0
M  V30 3121 C 286.26 0.407534 4.44134 0
M  V30 3122 C 286.961 2.30004 5.34297 0
M  V30 3123 N 285.937 1.58828 5.1988 0
M  V30 3124 H 289.739 1.27705 2.64705 0
M  V30 3125 H 287.253 0.794929 1.41614 0
M  V30 3126 H 289.25 -0.707364 4.10855 0
M  V30 3127 H 287.91 -1.17264 3.02786 0
M  V30 3128 H 288.921 2.10944 4.72994 0
M  V30 3129 H 285.598 -0.406406 4.15517 0
M  V30 3130 H 286.988 3.24778 5.88191 0
M  V30 3131 N 289.708 -1.40897 0.706093 0
M  V30 3132 C 290.936 -2.05373 0.250887 0
M  V30 3133 C 291.351 -1.53172 -1.10381 0
M  V30 3134 O 290.708 -0.684305 -1.69185 0
M  V30 3135 C 290.759 -3.6088 0.211571 0
M  V30 3136 O 290.48 -4.11153 1.51276 0
M  V30 3137 C 291.981 -4.42517 -0.263346 0
M  V30 3138 H 289.201 -0.66115 0.114552 0
M  V30 3139 H 291.745 -1.80479 0.961635 0
M  V30 3140 H 289.9 -3.84777 -0.450073 0
M  V30 3141 H 290.314 -5.05279 1.40689 0
M  V30 3142 H 291.788 -5.51479 -0.239718 0
M  V30 3143 H 292.265 -4.19396 -1.30397 0
M  V30 3144 H 292.871 -4.23708 0.367677 0
M  V30 3145 N 291.186 -0.45159 -1.50991 0
M  V30 3146 C 292.414 0.108334 -2.06616 0
M  V30 3147 C 292.829 1.35224 -1.31757 0
M  V30 3148 O 292.186 1.78475 -0.381174 0
M  V30 3149 C 292.237 0.41619 -3.59096 0
M  V30 3150 O 291.958 -0.778361 -4.3113 0
M  V30 3151 C 293.459 1.02523 -4.31282 0
M  V30 3152 H 290.679 0.00159995 -0.670998 0
M  V30 3153 H 293.223 -0.634771 -1.94399 0
M  V30 3154 H 291.378 1.10921 -3.71181 0
M  V30 3155 H 291.792 -0.511181 -5.22003 0
M  V30 3156 H 293.266 1.19053 -5.39009 0
M  V30 3157 H 293.743 2.01013 -3.905 0
M  V30 3158 H 294.349 0.371173 -4.23677 0
M  V30 3159 N 292.664 1.56529 -0.183458 0
M  V30 3160 C 293.594 2.21549 0.737456 0
M  V30 3161 C 294.575 1.17489 1.23005 0
M  V30 3162 O 295.76 1.45959 1.281 0
M  V30 3163 C 292.89 2.86575 1.96194 0
M  V30 3164 C 291.844 3.96778 1.60473 0
M  V30 3165 C 291.17 4.48911 2.90487 0
M  V30 3166 C 292.47 5.15767 0.823497 0
M  V30 3167 H 294.164 2.98761 0.195453 0
M  V30 3168 H 291.71 1.43702 0.0925686 0
M  V30 3169 H 293.663 3.30739 2.61131 0
M  V30 3170 H 292.387 2.06749 2.52828 0
M  V30 3171 H 291.046 3.53286 0.978997 0
M  V30 3172 H 290.694 3.65862 3.45186 0
M  V30 3173 H 290.394 5.23265 2.67335 0
M  V30 3174 H 291.918 4.95771 3.56432 0
M  V30 3175 H 293.332 5.56549 1.37571 0
M  V30 3176 H 291.729 5.96114 0.690551 0
M  V30 3177 H 292.799 4.84574 -0.177782 0
M  V30 3178 N 294.142 -0.090211 1.57342 0
M  V30 3179 C 295.388 -0.793982 1.86611 0
M  V30 3180 C 295.721 -1.78142 0.773252 0
M  V30 3181 O 294.996 -1.93271 -0.218304 0
M  V30 3182 C 295.279 -1.51839 3.26523 0
M  V30 3183 C 295.132 -0.548609 4.46442 0
M  V30 3184 C 296.451 -2.46779 3.64401 0
M  V30 3185 H 293.57 -0.287186 0.678744 0
M  V30 3186 H 296.212 -0.0575076 1.89913 0
M  V30 3187 H 294.362 -2.14617 3.23839 0
M  V30 3188 H 296.034 0.0725513 4.61243 0
M  V30 3189 H 294.277 0.137614 4.33582 0
M  V30 3190 H 294.948 -1.09271 5.41076 0
M  V30 3191 H 297.424 -1.94089 3.68061 0
M  V30 3192 H 296.3 -2.94479 4.63221 0
M  V30 3193 H 296.561 -3.30758 2.93346 0
M  V30 3194 N 295.62 -1.53406 -0.361157 0
M  V30 3195 C 296.53 -1.83122 -1.4664 0
M  V30 3196 C 297.546 -0.719943 -1.58407 0
M  V30 3197 O 298.722 -1.01046 -1.74218 0
M  V30 3198 C 295.787 -2.01891 -2.81853 0
M  V30 3199 C 294.848 -3.25784 -2.79577 0
M  V30 3200 C 294.081 -3.43648 -4.0834 0
M  V30 3201 O 294.304 -2.65714 -5.0473 0
M  V30 3202 O 293.238 -4.37018 -4.13883 0
M  V30 3203 H 297.064 -2.7703 -1.24451 0
M  V30 3204 H 294.649 -1.38841 -0.551678 0
M  V30 3205 H 296.531 -2.15782 -3.61962 0
M  V30 3206 H 295.206 -1.11173 -3.0401 0
M  V30 3207 H 294.113 -3.17312 -1.98151 0
M  V30 3208 H 295.446 -4.16439 -2.62373 0
M  V30 3209 N 297.098 0.621204 -1.44841 0
M  V30 3210 C 298.326 1.40752 -1.51646 0
M  V30 3211 C 298.741 1.88246 -0.144549 0
M  V30 3212 O 298.098 1.61422 0.851416 0
M  V30 3213 C 298.149 2.62119 -2.4895 0
M  V30 3214 O 297.87 2.16602 -3.80808 0
M  V30 3215 C 299.371 3.55135 -2.65319 0
M  V30 3216 H 296.591 0.431325 -0.514004 0
M  V30 3217 H 299.135 0.758835 -1.899 0
M  V30 3218 H 297.29 3.23058 -2.13805 0
M  V30 3219 H 297.704 2.95358 -4.33433 0
M  V30 3220 H 299.178 4.36874 -3.37409 0
M  V30 3221 H 299.655 4.04592 -1.70886 0
M  V30 3222 H 300.261 3.00058 -3.01405 0
M  V30 3223 N 298.576 1.31904 0.862503 0
M  V30 3224 C 299.506 1.22782 1.98612 0
M  V30 3225 C 300.487 0.113362 1.69722 0
M  V30 3226 O 301.672 0.299218 1.91881 0
M  V30 3227 C 298.802 0.942058 3.34279 0
M  V30 3228 C 297.756 2.0169 3.77499 0
M  V30 3229 C 297.082 1.58369 5.10709 0
M  V30 3230 C 298.382 3.43096 3.93805 0
M  V30 3231 H 300.076 2.16788 2.06502 0
M  V30 3232 H 297.622 1.04366 0.992154 0
M  V30 3233 H 299.575 0.864818 4.1243 0
M  V30 3234 H 298.299 -0.0336603 3.26583 0
M  V30 3235 H 296.958 2.08416 3.01593 0
M  V30 3236 H 296.606 0.595628 4.99461 0
M  V30 3237 H 296.306 2.30279 5.40597 0
M  V30 3238 H 297.83 1.52067 5.91361 0
M  V30 3239 H 299.244 3.39003 4.62331 0
M  V30 3240 H 297.641 4.13288 4.35101 0
M  V30 3241 H 298.711 3.83334 2.96957 0
M  V30 3242 N 300.054 -1.07777 1.14986 0
M  V30 3243 C 301.279 -1.84558 0.946213 0
M  V30 3244 C 301.704 -1.81323 -0.500362 0
M  V30 3245 O 301.062 -1.20301 -1.35637 0
M  V30 3246 C 301.11 -3.29736 1.45968 0
M  V30 3247 O 300.214 -4.07149 0.65601 0
M  V30 3248 H 299.555 -0.571641 0.33782 0
M  V30 3249 H 302.085 -1.35991 1.52865 0
M  V30 3250 H 302.095 -3.80574 1.47063 0
M  V30 3251 H 300.77 -3.31406 2.51283 0
M  V30 3252 H 299.347 -3.65994 0.714322 0
M  V30 3253 N 301.532 -0.945985 -1.26051 0
M  V30 3254 C 302.462 -0.477172 -2.28572 0
M  V30 3255 C 303.443 0.472032 -1.63419 0
M  V30 3256 O 304.628 0.372853 -1.90587 0
M  V30 3257 C 301.758 0.253975 -3.4637 0
M  V30 3258 C 300.712 -0.609135 -4.23643 0
M  V30 3259 C 300.038 0.252252 -5.34105 0
M  V30 3260 C 301.338 -1.8829 -4.8718 0
M  V30 3261 H 303.032 -1.33402 -2.68038 0
M  V30 3262 H 300.578 -0.642904 -1.28852 0
M  V30 3263 H 302.531 0.593016 -4.17207 0
M  V30 3264 H 301.255 1.145 -3.05871 0
M  V30 3265 H 299.914 -0.931138 -3.54578 0
M  V30 3266 H 299.562 1.14278 -4.89846 0
M  V30 3267 H 299.262 -0.32188 -5.86718 0
M  V30 3268 H 300.786 0.586454 -6.07777 0
M  V30 3269 H 302.2 -1.61081 -5.50205 0
M  V30 3270 H 300.597 -2.40199 -5.49931 0
M  V30 3271 H 301.667 -2.59134 -4.09851 0
M  V30 3272 N 303.011 1.40521 -0.713556 0
M  V30 3273 C 304.422 1.83853 -0.324807 0
M  V30 3274 C 304.773 1.59667 1.14021 0
M  V30 3275 O 303.898 1.07649 1.87725 0
M  V30 3276 C 304.493 3.33751 -0.582746 0
M  V30 3277 C 303.052 3.75584 -0.247727 0
M  V30 3278 C 302.199 2.63753 -0.856121 0
M  V30 3279 H 305.15 1.29817 -0.91286 0
M  V30 3280 H 305.171 3.80194 0.152682 0
M  V30 3281 H 304.683 3.51322 -1.64908 0
M  V30 3282 H 302.784 3.63608 0.813624 0
M  V30 3283 H 302.897 4.7373 -0.715307 0
M  V30 3284 H 301.261 2.53108 -0.28432 0
M  V30 3285 H 302.044 2.84137 -1.92668 0
M  V30 3286 N 304.489 0.459591 1.5075 0
M  V30 3287 C 305.422 -0.386257 2.24907 0
M  V30 3288 C 306.4 -1.006 1.27744 0
M  V30 3289 O 307.584 -1.04416 1.56938 0
M  V30 3290 C 304.711 -1.54021 3.01654 0
M  V30 3291 C 303.757 -1.03898 4.13651 0
M  V30 3292 S 304.59 0.0370501 5.35487 0
M  V30 3293 C 305.746 -1.12105 6.15779 0
M  V30 3294 H 305.979 0.243272 2.96303 0
M  V30 3295 H 303.512 0.244339 1.52454 0
M  V30 3296 H 305.47 -2.20163 3.46466 0
M  V30 3297 H 304.131 -2.14121 2.29806 0
M  V30 3298 H 303.324 -1.90254 4.66711 0
M  V30 3299 H 302.926 -0.45545 3.71216 0
M  V30 3300 H 305.218 -2.03501 6.46215 0
M  V30 3301 H 306.161 -0.62995 7.05292 0
M  V30 3302 H 306.569 -1.36967 5.47631 0
M  V30 3303 N 305.967 -1.56429 0.191757 0
M  V30 3304 C 306.897 -2.21937 -0.725696 0
M  V30 3305 C 307.878 -1.1814 -1.2238 0
M  V30 3306 O 309.063 -1.46636 -1.27325 0
M  V30 3307 C 306.193 -2.87611 -1.94672 0
M  V30 3308 C 305.147 -3.97623 -1.58366 0
M  V30 3309 C 304.473 -4.50446 -2.88102 0
M  V30 3310 C 305.773 -5.16197 -0.796133 0
M  V30 3311 H 307.467 -2.98861 -0.179606 0
M  V30 3312 H 305.013 -1.43749 -0.0849464 0
M  V30 3313 H 306.966 -3.3212 -2.59373 0
M  V30 3314 H 305.69 -2.08087 -2.51728 0
M  V30 3315 H 304.349 -3.53801 -0.960247 0
M  V30 3316 H 303.997 -3.67688 -3.43241 0
M  V30 3317 H 303.697 -5.24675 -2.64556 0
M  V30 3318 H 305.221 -4.97654 -3.53798 0
M  V30 3319 H 306.635 -5.57271 -1.34618 0
M  V30 3320 H 305.032 -5.96471 -0.658928 0
M  V30 3321 H 306.102 -4.84473 0.203478 0
M  V30 3322 N 307.445 0.0818655 -1.57387 0
M  V30 3323 C 308.408 1.08265 -2.02018 0
M  V30 3324 C 309.408 1.32183 -0.915664 0
M  V30 3325 O 310.598 1.28073 -1.18081 0
M  V30 3326 C 307.73 2.42871 -2.39221 0
M  V30 3327 H 308.923 0.698204 -2.91659 0
M  V30 3328 H 306.476 0.327303 -1.52835 0
M  V30 3329 H 307.211 2.86167 -1.52575 0
M  V30 3330 H 306.996 2.26855 -3.19811 0
M  V30 3331 H 308.486 3.14826 -2.74362 0
M  V30 3332 N 308.923 1.53595 0.353017 0
M  V30 3333 C 309.886 1.80232 1.41594 0
M  V30 3334 C 310.886 0.673081 1.46035 0
M  V30 3335 O 312.076 0.941335 1.46576 0
M  V30 3336 C 309.208 1.93578 2.80607 0
M  V30 3337 H 310.401 2.75174 1.19244 0
M  V30 3338 H 307.954 1.44864 0.586872 0
M  V30 3339 H 308.689 1.00746 3.08254 0
M  V30 3340 H 308.474 2.75724 2.78781 0
M  V30 3341 H 309.964 2.15735 3.57558 0
M  V30 3342 N 310.401 -0.613514 1.45168 0
M  V30 3343 C 311.631 -1.39743 1.52169 0
M  V30 3344 C 312.039 -1.88596 0.151086 0
M  V30 3345 O 311.382 -1.6251 -0.856521 0
M  V30 3346 C 311.444 -2.64035 2.43979 0
M  V30 3347 C 311.108 -2.36861 3.90827 0
M  V30 3348 C 312.105 -1.97591 4.80889 0
M  V30 3349 C 309.79 -2.49956 4.35692 0
M  V30 3350 C 311.784 -1.71768 6.1382 0
M  V30 3351 C 309.471 -2.23747 5.68665 0
M  V30 3352 C 310.469 -1.84714 6.57548 0
M  V30 3353 O 310.157 -1.58809 7.88058 0
M  V30 3354 H 309.889 -0.434382 0.517966 0
M  V30 3355 H 312.443 -0.75587 1.90986 0
M  V30 3356 H 310.673 -3.3089 2.00122 0
M  V30 3357 H 312.362 -3.26069 2.41731 0
M  V30 3358 H 313.128 -1.87015 4.47493 0
M  V30 3359 H 309.007 -2.79305 3.66756 0
M  V30 3360 H 312.551 -1.41227 6.83155 0
M  V30 3361 H 308.448 -2.33938 6.01617 0
M  V30 3362 H 309.216 -1.7291 8.00028 0
M  V30 3363 N 311.879 -1.3236 -0.855495 0
M  V30 3364 C 312.809 -1.23833 -1.97958 0
M  V30 3365 C 313.79 -0.122361 -1.69659 0
M  V30 3366 O 314.975 -0.30939 -1.9172 0
M  V30 3367 C 312.105 -0.959772 -3.33775 0
M  V30 3368 C 311.059 -2.03689 -3.76424 0
M  V30 3369 C 310.385 -1.61075 -5.09862 0
M  V30 3370 C 311.685 -3.4518 -3.9198 0
M  V30 3371 H 313.379 -2.1788 -2.0535 0
M  V30 3372 H 310.925 -1.04891 -0.986605 0
M  V30 3373 H 312.878 -0.886678 -4.11966 0
M  V30 3374 H 311.602 0.0163404 -3.26596 0
M  V30 3375 H 310.261 -2.10012 -3.00484 0
M  V30 3376 H 309.909 -0.622107 -4.99138 0
M  V30 3377 H 309.609 -2.33143 -5.39368 0
M  V30 3378 H 311.133 -1.55201 -5.90546 0
M  V30 3379 H 312.547 -3.4145 -4.60526 0
M  V30 3380 H 310.944 -4.1559 -4.32903 0
M  V30 3381 H 312.014 -3.84903 -2.94919 0
M  V30 3382 N 313.357 1.07166 -1.15556 0
M  V30 3383 C 314.634 1.76546 -0.842069 0
M  V30 3384 C 315.014 2.00453 0.661939 0
M  V30 3385 O 314.362 1.62452 1.60691 0
M  V30 3386 C 314.572 3.07266 -1.65495 0
M  V30 3387 C 315.92 3.81578 -1.86234 0
M  V30 3388 O 316.944 3.17083 -1.62287 0
M  V30 3389 O 315.803 4.97419 -2.26355 0
M  V30 3390 H 312.897 0.766756 -0.309862 0
M  V30 3391 H 315.443 1.13514 -1.26145 0
M  V30 3392 H 314.215 2.85494 -2.67598 0
M  V30 3393 H 313.838 3.7803 -1.23203 0
M  V30 3394 N 314.835 0.952656 1.25548 0
M  V30 3395 C 315.798 0.475794 2.24207 0
M  V30 3396 C 316.798 -0.419428 1.55234 0
M  V30 3397 O 317.988 -0.216994 1.72843 0
M  V30 3398 C 315.12 -0.312814 3.39462 0
M  V30 3399 H 316.313 1.34779 2.67908 0
M  V30 3400 H 313.866 0.735739 1.37901 0
M  V30 3401 H 314.601 -1.20257 3.01179 0
M  V30 3402 H 314.386 0.329404 3.90714 0
M  V30 3403 H 315.876 -0.635986 4.12729 0
M  V30 3404 N 316.313 -1.40141 0.720998 0
M  V30 3405 C 317.243 -2.33339 0.0867621 0
M  V30 3406 C 318.224 -1.53178 -0.739622 0
M  V30 3407 O 319.409 -1.81625 -0.687449 0
M  V30 3408 C 316.539 -3.37194 -0.831728 0
M  V30 3409 C 315.493 -4.27857 -0.110558 0
M  V30 3410 C 314.819 -5.22294 -1.14513 0
M  V30 3411 C 316.119 -5.11872 1.0385 0
M  V30 3412 H 317.813 -2.86626 0.865219 0
M  V30 3413 H 315.359 -1.37814 0.417516 0
M  V30 3414 H 317.312 -4.01335 -1.28485 0
M  V30 3415 H 316.036 -2.82314 -1.64214 0
M  V30 3416 H 314.695 -3.65176 0.322797 0
M  V30 3417 H 314.343 -4.63717 -1.94874 0
M  V30 3418 H 314.043 -5.83797 -0.667446 0
M  V30 3419 H 315.567 -5.89312 -1.59824 0
M  V30 3420 H 316.981 -5.69436 0.664482 0
M  V30 3421 H 315.378 -5.82445 1.4449 0
M  V30 3422 H 316.448 -4.4753 1.86668 0
M  V30 3423 N 317.792 -0.46758 -1.50504 0
M  V30 3424 C 318.724 0.364655 -2.26281 0
M  V30 3425 C 319.737 0.960151 -1.31472 0
M  V30 3426 O 320.926 0.849153 -1.57008 0
M  V30 3427 C 318.026 1.52509 -3.02645 0
M  V30 3428 C 317.199 1.04302 -4.24782 0
M  V30 3429 C 316.258 2.07709 -4.8347 0
M  V30 3430 O 315.284 1.65913 -5.44483 0
M  V30 3431 N 316.486 3.40485 -4.70159 0
M  V30 3432 H 319.251 -0.28495 -2.98342 0
M  V30 3433 H 316.812 -0.298163 -1.59131 0
M  V30 3434 H 318.804 2.21371 -3.38787 0
M  V30 3435 H 317.374 2.07945 -2.33404 0
M  V30 3436 H 316.594 0.180393 -3.93787 0
M  V30 3437 H 317.882 0.698798 -5.03978 0
M  V30 3438 H 317.28 3.77155 -4.21629 0
M  V30 3439 H 315.837 4.05156 -5.1058 0
M  V30 3440 N 319.27 1.56325 -0.20005 0
M  V30 3441 C 320.498 2.02105 0.442874 0
M  V30 3442 C 320.913 1.08014 1.5485 0
M  V30 3443 O 320.27 0.0858797 1.82298 0
M  V30 3444 C 320.321 3.47549 0.994583 0
M  V30 3445 O 320.042 4.38049 -0.0669322 0
M  V30 3446 C 321.543 4.0887 1.7129 0
M  V30 3447 H 318.763 0.661807 0.110691 0
M  V30 3448 H 321.307 2.02134 -0.310207 0
M  V30 3449 H 319.462 3.48204 1.69803 0
M  V30 3450 H 319.876 5.23368 0.344462 0
M  V30 3451 H 321.35 5.12475 2.05118 0
M  V30 3452 H 321.827 3.52615 2.61838 0
M  V30 3453 H 322.433 4.12002 1.05518 0
M  V30 3454 N 320.748 -0.0735177 1.57428 0
M  V30 3455 C 321.678 -1.0879 2.06608 0
M  V30 3456 C 322.659 -1.40473 0.959237 0
M  V30 3457 O 323.844 -1.5013 1.23185 0
M  V30 3458 C 320.974 -2.40183 2.50857 0
M  V30 3459 C 319.928 -2.22858 3.65402 0
M  V30 3460 C 319.254 -3.59619 3.957 0
M  V30 3461 C 320.554 -1.65123 4.95511 0
M  V30 3462 H 322.248 -0.678673 2.91607 0
M  V30 3463 H 319.794 -0.325013 1.40284 0
M  V30 3464 H 321.747 -3.11437 2.83874 0
M  V30 3465 H 320.471 -2.83083 1.62885 0
M  V30 3466 H 319.13 -1.54045 3.32664 0
M  V30 3467 H 318.778 -4.00086 3.04861 0
M  V30 3468 H 318.478 -3.48866 4.72828 0
M  V30 3469 H 320.002 -4.32306 4.31212 0
M  V30 3470 H 321.416 -2.26241 5.26771 0
M  V30 3471 H 319.813 -1.65071 5.7695 0
M  V30 3472 H 320.883 -0.612559 4.81015 0
M  V30 3473 N 322.226 -1.5378 -0.344866 0
M  V30 3474 C 323.173 -1.81676 -1.42346 0
M  V30 3475 C 324.143 -0.662376 -1.52321 0
M  V30 3476 O 325.328 -0.906675 -1.67881 0
M  V30 3477 C 322.468 -2.03087 -2.79015 0
M  V30 3478 C 321.581 -3.30799 -2.77842 0
M  V30 3479 C 320.716 -3.42285 -4.0622 0
M  V30 3480 C 319.755 -4.6395 -3.9927 0
M  V30 3481 N 318.892 -4.72477 -5.19336 0
M  V30 3482 H 323.732 -2.73703 -1.17858 0
M  V30 3483 H 321.269 -1.35568 -0.570949 0
M  V30 3484 H 323.227 -2.1349 -3.58438 0
M  V30 3485 H 321.857 -1.14375 -3.01858 0
M  V30 3486 H 320.909 -3.29244 -1.90533 0
M  V30 3487 H 322.221 -4.20314 -2.68584 0
M  V30 3488 H 321.375 -3.52113 -4.94066 0
M  V30 3489 H 320.114 -2.50823 -4.18258 0
M  V30 3490 H 319.119 -4.54201 -3.09809 0
M  V30 3491 H 320.344 -5.56775 -3.88817 0
M  V30 3492 H 318.29 -3.83924 -5.3192 0
M  V30 3493 H 318.207 -5.55927 -5.12329 0
M  V30 3494 H 319.475 -4.86613 -6.08957 0
M  V30 3495 N 323.704 0.605807 -1.45491 0
M  V30 3496 C 324.952 1.36207 -1.49305 0
M  V30 3497 C 325.273 1.94519 -0.136863 0
M  V30 3498 O 324.543 1.77261 0.833983 0
M  V30 3499 H 323.123 0.50565 -0.549843 0
M  V30 3500 H 325.785 0.711239 -1.81459 0
M  V30 3501 H 324.881 2.18058 -2.23287 0
M  V30 3502 N 325.182 1.32811 0.848464 0
M  V30 3503 C 326.129 1.22265 1.95755 0
M  V30 3504 C 327.099 0.103413 1.65778 0
M  V30 3505 O 328.284 0.280033 1.88734 0
M  V30 3506 C 325.424 0.958014 3.31536 0
M  V30 3507 C 324.537 2.16262 3.73971 0
M  V30 3508 C 323.672 1.83295 4.98575 0
M  V30 3509 C 322.711 3.00041 5.33518 0
M  V30 3510 N 321.848 2.67125 6.49299 0
M  V30 3511 H 326.688 2.17128 2.04107 0
M  V30 3512 H 324.225 1.07982 0.998913 0
M  V30 3513 H 326.183 0.785052 4.09747 0
M  V30 3514 H 324.813 0.046159 3.22767 0
M  V30 3515 H 323.865 2.44565 2.91362 0
M  V30 3516 H 325.177 3.03572 3.95785 0
M  V30 3517 H 324.331 1.62586 5.84509 0
M  V30 3518 H 323.07 0.932078 4.7871 0
M  V30 3519 H 322.075 3.21374 4.46093 0
M  V30 3520 H 323.3 3.90869 5.55336 0
M  V30 3521 H 321.246 1.79586 6.3094 0
M  V30 3522 H 321.163 3.47965 6.71161 0
M  V30 3523 H 322.431 2.49861 7.3837 0
M  V30 3524 N 326.66 -1.06551 1.16123 0
M  V30 3525 C 327.909 -1.78687 0.935622 0
M  V30 3526 C 328.222 -1.88056 -0.538001 0
M  V30 3527 O 329.428 -2.56794 -0.88143 0
M  V30 3528 C 327.884 -3.21143 1.62466 0
M  V30 3529 C 327.492 -3.19949 3.13587 0
M  V30 3530 C 329.236 -3.9783 1.48092 0
M  V30 3531 C 327.143 -4.57108 3.75241 0
M  V30 3532 H 326.073 -0.669712 0.346412 0
M  V30 3533 H 328.724 -1.19534 1.39226 0
M  V30 3534 H 327.106 -3.80539 1.09572 0
M  V30 3535 H 328.28 -2.70151 3.73303 0
M  V30 3536 H 326.595 -2.5676 3.27816 0
M  V30 3537 H 329.192 -4.99217 1.91538 0
M  V30 3538 H 329.535 -4.14078 0.429507 0
M  V30 3539 H 330.068 -3.4495 1.98127 0
M  V30 3540 H 326.807 -4.46065 4.80319 0
M  V30 3541 H 326.327 -5.07111 3.20309 0
M  V30 3542 H 328.006 -5.26069 3.76644 0
M  V30 3543 N 328.138 -0.959301 -1.25041 0
M  V30 3544 C 329.549 -0.65667 -1.74771 0
M  V30 3545 C 329.9 0.827852 -1.77879 0
M  V30 3546 O 329.025 1.64783 -1.40269 0
M  V30 3547 C 329.62 -1.1853 -3.1739 0
M  V30 3548 C 328.179 -0.932734 -3.6466 0
M  V30 3549 C 327.326 -1.32558 -2.43564 0
M  V30 3550 H 330.277 -1.13558 -1.10862 0
M  V30 3551 H 330.298 -0.547582 -3.76539 0
M  V30 3552 H 329.81 -2.26576 -3.15095 0
M  V30 3553 H 327.911 0.13257 -3.72364 0
M  V30 3554 H 328.024 -1.57248 -4.52559 0
M  V30 3555 H 326.388 -0.743956 -2.43593 0
M  V30 3556 H 327.171 -2.41537 -2.43957 0
M  V30 3557 N 329.616 1.39756 -0.72842 0
M  V30 3558 C 330.844 2.04948 -0.283528 0
M  V30 3559 C 331.259 1.54908 1.0793 0
M  V30 3560 O 330.616 0.711135 1.68075 0
M  V30 3561 C 330.667 3.60498 -0.268957 0
M  V30 3562 O 330.388 4.08695 -1.57798 0
M  V30 3563 C 331.889 4.4288 0.192912 0
M  V30 3564 H 329.109 0.659243 -0.125056 0
M  V30 3565 H 331.653 1.78927 -0.990226 0
M  V30 3566 H 329.808 3.85444 0.388801 0
M  V30 3567 H 330.222 5.02977 -1.48709 0
M  V30 3568 H 331.696 5.51791 0.151952 0
M  V30 3569 H 332.173 4.21418 1.23708 0
M  V30 3570 H 332.779 4.23069 -0.435039 0
M  V30 3571 N 331.094 0.475555 1.50254 0
M  V30 3572 C 332.024 -0.30611 2.31485 0
M  V30 3573 C 333.005 -0.986228 1.38591 0
M  V30 3574 O 334.19 -0.982541 1.67511 0
M  V30 3575 C 331.32 -1.38588 3.1845 0
M  V30 3576 C 330.274 -0.827115 4.19932 0
M  V30 3577 C 329.6 -2.00551 4.95665 0
M  V30 3578 C 330.9 0.16463 5.2204 0
M  V30 3579 H 332.594 0.371866 2.97082 0
M  V30 3580 H 330.14 0.180282 1.42867 0
M  V30 3581 H 332.093 -1.94023 3.74076 0
M  V30 3582 H 330.817 -2.09269 2.50747 0
M  V30 3583 H 329.476 -0.294702 3.65414 0
M  V30 3584 H 329.124 -2.6994 4.2443 0
M  V30 3585 H 328.824 -1.63784 5.64313 0
M  V30 3586 H 330.348 -2.56468 5.54127 0
M  V30 3587 H 331.762 -0.300699 5.72511 0
M  V30 3588 H 330.159 0.446813 5.98434 0
M  V30 3589 H 331.229 1.08905 4.72512 0
M  V30 3590 N 332.573 -1.56217 0.208337 0
M  V30 3591 C 333.822 -1.97124 -0.427204 0
M  V30 3592 C 334.135 -1.09859 -1.61835 0
M  V30 3593 O 335.341 -1.40606 -2.32255 0
M  V30 3594 C 333.797 -3.50633 -0.811442 0
M  V30 3595 C 333.405 -4.46582 0.35615 0
M  V30 3596 C 335.149 -4.00282 -1.41332 0
M  V30 3597 C 333.056 -5.91379 -0.0497852 0
M  V30 3598 H 331.986 -0.736086 -0.163381 0
M  V30 3599 H 334.637 -1.8099 0.302456 0
M  V30 3600 H 333.019 -3.62319 -1.59815 0
M  V30 3601 H 334.193 -4.46636 1.1337 0
M  V30 3602 H 332.508 -4.07202 0.870396 0
M  V30 3603 H 335.105 -5.0595 -1.72972 0
M  V30 3604 H 335.448 -3.45359 -2.32449 0
M  V30 3605 H 335.981 -3.91764 -0.690323 0
M  V30 3606 H 332.72 -6.50255 0.827529 0
M  V30 3607 H 332.24 -5.94549 -0.791926 0
M  V30 3608 H 333.919 -6.45209 -0.481042 0
M  V30 3609 N 334.051 0.0651679 -1.57465 0
M  V30 3610 C 335.328 0.79644 -1.78651 0
M  V30 3611 C 335.708 1.95454 -0.797566 0
M  V30 3612 O 335.056 2.27882 0.167946 0
M  V30 3613 C 335.266 1.26322 -3.25337 0
M  V30 3614 C 336.614 1.6939 -3.89348 0
M  V30 3615 O 337.638 1.35872 -3.29268 0
M  V30 3616 O 336.497 2.31471 -4.95059 0
M  V30 3617 H 333.591 0.382157 -0.733407 0
M  V30 3618 H 336.137 0.0447311 -1.69641 0
M  V30 3619 H 334.909 0.434859 -3.88876 0
M  V30 3620 H 334.532 2.07604 -3.39096 0
M  V30 3621 N 335.529 1.53961 0.336706 0
M  V30 3622 C 336.945 1.44378 0.680241 0
M  V30 3623 C 337.145 0.606034 1.9217 0
M  V30 3624 O 336.201 0.099688 2.52303 0
M  V30 3625 C 337.514 2.87945 0.8665 0
M  V30 3626 C 339.062 2.97763 0.964682 0
M  V30 3627 C 339.537 4.42453 1.18321 0
M  V30 3628 N 341.028 4.46008 1.25025 0
M  V30 3629 C 341.763 5.55102 1.43697 0
M  V30 3630 N 341.259 6.7419 1.59498 0
M  V30 3631 N 343.052 5.42727 1.463 0
M  V30 3632 H 335.203 2.06918 -0.479455 0
M  V30 3633 H 337.466 0.935634 -0.152619 0
M  V30 3634 H 337.172 3.51691 0.0256937 0
M  V30 3635 H 337.046 3.33293 1.76623 0
M  V30 3636 H 339.433 2.34153 1.796 0
M  V30 3637 H 339.514 2.55766 0.041708 0
M  V30 3638 H 339.158 5.06645 0.356788 0
M  V30 3639 H 339.088 4.82048 2.11985 0
M  V30 3640 H 341.579 3.60196 1.14312 0
M  V30 3641 H 341.892 7.53095 1.734 0
M  V30 3642 H 340.237 6.77123 1.56621 0
M  V30 3643 H 343.428 4.48647 1.33543 0
M  V30 3644 H 343.601 6.27806 1.6051 0
M  V30 3645 N 337.007 -0.598083 1.45811 0
M  V30 3646 C 337.94 -1.7223 1.49706 0
M  V30 3647 C 338.918 -1.58732 0.352535 0
M  V30 3648 O 340.102 -1.80162 0.554438 0
M  V30 3649 C 337.229 -3.10148 1.3611 0
M  V30 3650 C 336.275 -3.42209 2.54549 0
M  V30 3651 S 337.108 -3.35989 4.16979 0
M  V30 3652 C 338.264 -4.76471 4.05865 0
M  V30 3653 H 338.497 -1.68665 2.44826 0
M  V30 3654 H 336.03 -0.775541 1.33509 0
M  V30 3655 H 337.988 -3.8972 1.28953 0
M  V30 3656 H 336.649 -3.11219 0.424451 0
M  V30 3657 H 335.842 -4.42652 2.40988 0
M  V30 3658 H 335.444 -2.70173 2.58617 0
M  V30 3659 H 337.736 -5.665 3.71596 0
M  V30 3660 H 338.679 -4.95089 5.06253 0
M  V30 3661 H 339.087 -4.52599 3.37364 0
M  V30 3662 N 338.485 -1.33259 -0.841409 0
M  V30 3663 C 339.415 -1.25926 -1.96634 0
M  V30 3664 C 340.396 -0.140349 -1.6952 0
M  V30 3665 O 341.581 -0.329707 -1.91381 0
M  V30 3666 C 338.711 -0.99512 -3.32738 0
M  V30 3667 C 337.665 -2.0767 -3.74242 0
M  V30 3668 C 336.991 -1.66474 -5.08125 0
M  V30 3669 C 338.291 -3.49318 -3.88297 0
M  V30 3670 H 339.985 -2.20046 -2.03027 0
M  V30 3671 H 337.531 -1.05931 -0.975425 0
M  V30 3672 H 339.484 -0.930323 -4.11002 0
M  V30 3673 H 338.208 -0.0183004 -3.26595 0
M  V30 3674 H 336.867 -2.13187 -2.98239 0
M  V30 3675 H 336.515 -0.675012 -4.9845 0
M  V30 3676 H 336.215 -2.3885 -5.36865 0
M  V30 3677 H 337.739 -1.61455 -5.88867 0
M  V30 3678 H 339.153 -3.46316 -4.56879 0
M  V30 3679 H 337.55 -4.20158 -4.28471 0
M  V30 3680 H 338.62 -3.8801 -2.9082 0
M  V30 3681 N 339.963 1.05934 -1.16686 0
M  V30 3682 C 341.209 1.79065 -0.95203 0
M  V30 3683 C 341.542 1.87147 0.518629 0
M  V30 3684 O 340.817 1.36574 1.38484 0
M  V30 3685 C 341.1 3.23359 -1.58464 0
M  V30 3686 C 340.953 3.23336 -3.12689 0
M  V30 3687 C 342.272 4.21004 -1.28232 0
M  V30 3688 H 339.391 0.65005 -0.34728 0
M  V30 3689 H 342.033 1.23868 -1.44072 0
M  V30 3690 H 340.183 3.70493 -1.16908 0
M  V30 3691 H 341.855 2.84336 -3.6325 0
M  V30 3692 H 340.098 2.61886 -3.4583 0
M  V30 3693 H 340.769 4.25144 -3.52075 0
M  V30 3694 H 343.245 3.8233 -1.64203 0
M  V30 3695 H 342.121 5.20225 -1.75092 0
M  V30 3696 H 342.382 4.41639 -0.201791 0
M  V30 3697 N 341.441 0.965919 1.2453 0
M  V30 3698 C 342.666 0.643971 1.97149 0
M  V30 3699 C 343.091 -0.779487 1.71189 0
M  V30 3700 O 342.449 -1.5288 0.974553 0
M  V30 3701 C 342.497 0.922557 3.48599 0
M  V30 3702 O 341.601 0.00707672 4.12399 0
M  V30 3703 H 340.942 0.243647 0.617683 0
M  V30 3704 H 343.472 1.29558 1.58353 0
M  V30 3705 H 343.482 0.853373 3.98976 0
M  V30 3706 H 342.157 1.95996 3.66822 0
M  V30 3707 H 340.734 0.12943 3.72675 0
M  V30 3708 N 342.919 -1.39368 0.735821 0
M  V30 3709 C 344.144 -2.05319 0.293052 0
M  V30 3710 C 344.569 -1.55115 -1.064 0
M  V30 3711 O 343.927 -0.695261 -1.67439 0
M  V30 3712 C 343.975 -3.59305 0.305323 0
M  V30 3713 O 343.079 -4.06299 -0.706761 0
M  V30 3714 H 342.42 -0.650529 0.13307 0
M  V30 3715 H 344.95 -1.78386 1.00197 0
M  V30 3716 H 344.96 -4.07724 0.149997 0
M  V30 3717 H 343.635 -3.95207 1.29553 0
M  V30 3718 H 342.212 -3.69292 -0.517504 0
M  V30 3719 N 344.397 -0.483516 -1.5 0
M  V30 3720 C 345.345 0.318061 -2.30415 0
M  V30 3721 C 346.339 0.978988 -1.38247 0
M  V30 3722 O 347.545 0.908673 -1.55381 0
M  V30 3723 H 343.92 0.121419 -0.742133 0
M  V30 3724 H 345.891 -0.380403 -2.95965 0
M  V30 3725 C 344.64 1.38013 -3.19136 0
M  V30 3726 H 343.963 0.880952 -3.89973 0
M  V30 3727 H 345.403 1.91332 -3.78375 0
M  V30 3728 C 343.862 2.38884 -2.37563 0
M  V30 3729 O 344.392 3.44412 -2.06744 0
M  V30 3730 N 342.598 2.10912 -1.99911 0
M  V30 3731 H 342.145 1.25118 -2.25174 0
M  V30 3732 H 342.103 2.78635 -1.45636 0
M  V30 3733 N 345.875 1.56104 -0.216619 0
M  V30 3734 C 347.103 2.02563 0.421413 0
M  V30 3735 C 347.518 1.0965 1.53695 0
M  V30 3736 O 346.875 0.10521 1.82196 0
M  V30 3737 C 346.926 3.48584 0.957665 0
M  V30 3738 O 346.647 4.37953 -0.113389 0
M  V30 3739 C 348.148 4.10664 1.66943 0
M  V30 3740 H 345.368 0.662944 0.103665 0
M  V30 3741 H 347.912 2.01793 -0.331629 0
M  V30 3742 H 346.067 3.49985 1.661 0
M  V30 3743 H 346.481 5.23704 0.288932 0
M  V30 3744 H 347.955 5.14622 1.99671 0
M  V30 3745 H 348.432 3.55373 2.58083 0
M  V30 3746 H 349.038 4.13098 1.01142 0
M  V30 3747 N 347.353 -0.0568162 1.57498 0
M  V30 3748 C 348.3 -1.06591 2.04712 0
M  V30 3749 C 349.27 -1.3758 0.930644 0
M  V30 3750 O 350.455 -1.48392 1.19935 0
M  V30 3751 C 347.595 -2.3701 2.50839 0
M  V30 3752 C 346.708 -2.12421 3.76167 0
M  V30 3753 C 345.843 -3.36511 4.11015 0
M  V30 3754 C 344.882 -3.07353 5.2934 0
M  V30 3755 N 344.019 -4.23816 5.59754 0
M  V30 3756 H 348.859 -0.65631 2.90683 0
M  V30 3757 H 346.396 -0.312481 1.43743 0
M  V30 3758 H 348.354 -3.13175 2.7564 0
M  V30 3759 H 346.984 -2.75744 1.67825 0
M  V30 3760 H 346.036 -1.2688 3.58616 0
M  V30 3761 H 347.348 -1.86894 4.62463 0
M  V30 3762 H 346.502 -4.21062 4.36797 0
M  V30 3763 H 345.241 -3.65128 3.23315 0
M  V30 3764 H 344.246 -2.212 5.03339 0
M  V30 3765 H 345.471 -2.80043 6.1867 0
M  V30 3766 H 343.417 -4.52436 4.75014 0
M  V30 3767 H 343.334 -4.01614 6.40501 0
M  V30 3768 H 344.602 -5.0932 5.90096 0
M  V30 3769 N 348.832 -1.54138 -0.328536 0
M  V30 3770 C 350.06 -1.76062 -1.08673 0
M  V30 3771 C 350.475 -0.506852 -1.81869 0
M  V30 3772 O 349.832 0.522223 -1.74869 0
M  V30 3773 C 349.883 -2.95054 -2.08866 0
M  V30 3774 O 349.604 -4.15583 -1.38644 0
M  V30 3775 C 351.105 -3.2915 -2.96943 0
M  V30 3776 H 348.325 -0.587889 -0.323461 0
M  V30 3777 H 350.869 -2.0101 -0.376175 0
M  V30 3778 H 349.024 -2.72394 -2.75464 0
M  V30 3779 H 349.438 -4.82481 -2.05699 0
M  V30 3780 H 350.912 -4.15723 -3.63151 0
M  V30 3781 H 351.389 -2.461 -3.63774 0
M  V30 3782 H 351.995 -3.53871 -2.35914 0
M  V30 3783 N 350.31 0.590341 -1.46126 0
M  V30 3784 C 351.558 1.34616 -1.50742 0
M  V30 3785 C 351.879 1.94363 -0.157486 0
M  V30 3786 O 351.149 1.78136 0.815136 0
M  V30 3787 H 349.729 0.499789 -0.555175 0
M  V30 3788 H 352.391 0.691953 -1.82203 0
M  V30 3789 H 351.487 2.15678 -2.25587 0
M  V30 3790 N 351.788 1.33704 0.83433 0
M  V30 3791 C 352.751 1.24244 1.92603 0
M  V30 3792 C 353.751 0.160383 1.59998 0
M  V30 3793 O 354.941 0.412228 1.69252 0
M  V30 3794 C 352.073 0.91555 3.28376 0
M  V30 3795 H 353.266 2.21287 2.02416 0
M  V30 3796 H 350.819 1.17827 1.02696 0
M  V30 3797 H 351.554 -0.0521886 3.24258 0
M  V30 3798 H 351.339 1.69811 3.53422 0
M  V30 3799 H 352.829 0.874231 4.08347 0
M  V30 3800 N 353.266 -1.05314 1.17247 0
M  V30 3801 C 354.229 -2.112 0.890357 0
M  V30 3802 C 355.229 -1.60359 -0.118943 0
M  V30 3803 O 356.419 -1.73833 0.113086 0
M  V30 3804 C 353.551 -3.39266 0.333422 0
M  V30 3805 H 354.744 -2.37659 1.82916 0
M  V30 3806 H 352.297 -1.21538 0.982758 0
M  V30 3807 H 353.032 -3.18462 -0.612587 0
M  V30 3808 H 352.817 -3.77477 1.06082 0
M  V30 3809 H 354.307 -4.17315 0.154322 0
M  V30 3810 N 354.744 -0.972509 -1.24016 0
M  V30 3811 C 355.992 -0.635776 -1.91839 0
M  V30 3812 C 356.313 0.832312 -1.76345 0
M  V30 3813 O 355.583 1.5946 -1.13795 0
M  V30 3814 H 354.163 -0.232157 -0.710009 0
M  V30 3815 H 356.825 -1.23462 -1.50809 0
M  V30 3816 H 355.921 -0.880545 -2.99421 0
M  V30 3817 N 356.222 1.38976 -0.743202 0
M  V30 3818 C 357.185 2.28901 -0.117014 0
M  V30 3819 C 358.185 1.46698 0.658503 0
M  V30 3820 O 359.375 1.67274 0.486305 0
M  V30 3821 C 356.507 3.30309 0.84315 0
M  V30 3822 H 357.7 2.8578 -0.909373 0
M  V30 3823 H 355.253 1.47761 -0.509547 0
M  V30 3824 H 355.988 2.785 1.66157 0
M  V30 3825 H 355.773 3.91029 0.289594 0
M  V30 3826 H 357.263 3.97577 1.2776 0
M  V30 3827 N 357.7 0.491464 1.49741 0
M  V30 3828 C 358.61 -0.296835 2.32715 0
M  V30 3829 C 359.626 -0.976536 1.44013 0
M  V30 3830 O 360.802 -0.960023 1.77047 0
M  V30 3831 C 357.867 -1.35288 3.19215 0
M  V30 3832 C 356.928 -0.687632 4.23757 0
M  V30 3833 C 356.161 -1.69336 5.06123 0
M  V30 3834 O 356.384 -2.92219 4.89861 0
M  V30 3835 O 355.318 -1.25394 5.88693 0
M  V30 3836 H 359.144 0.382048 3.01287 0
M  V30 3837 H 356.729 0.252953 1.47243 0
M  V30 3838 H 358.611 -1.96411 3.72828 0
M  V30 3839 H 357.286 -2.01487 2.53347 0
M  V30 3840 H 356.193 -0.0369159 3.74082 0
M  V30 3841 H 357.526 -0.0682566 4.92153 0
M  V30 3842 N 359.178 -1.55987 0.224894 0
M  V30 3843 C 360.141 -2.19178 -0.670348 0
M  V30 3844 C 361.141 -1.15461 -1.11917 0
M  V30 3845 O 362.331 -1.40675 -1.02743 0
M  V30 3846 C 359.463 -2.81777 -1.9187 0
M  V30 3847 H 360.656 -2.99662 -0.119364 0
M  V30 3848 H 358.209 -1.5628 -0.0247128 0
M  V30 3849 H 358.944 -2.05172 -2.51147 0
M  V30 3850 H 358.729 -3.57732 -1.60531 0
M  V30 3851 H 360.219 -3.30205 -2.55645 0
M  V30 3852 N 360.656 0.0484629 -1.57525 0
M  V30 3853 C 361.586 1.0549 -2.08313 0
M  V30 3854 C 362.567 1.38929 -0.981463 0
M  V30 3855 O 363.752 1.48151 -1.25558 0
M  V30 3856 C 360.882 2.36162 -2.54646 0
M  V30 3857 C 359.836 2.17016 -3.68901 0
M  V30 3858 C 359.162 3.53278 -4.01371 0
M  V30 3859 C 360.462 1.57219 -4.98076 0
M  V30 3860 H 362.156 0.632195 -2.92649 0
M  V30 3861 H 359.702 0.302654 -1.40784 0
M  V30 3862 H 361.655 3.06882 -2.88793 0
M  V30 3863 H 360.379 2.80456 -1.67368 0
M  V30 3864 H 359.038 1.48733 -3.35073 0
M  V30 3865 H 358.686 3.95185 -3.11188 0
M  V30 3866 H 358.386 3.41299 -4.78318 0
M  V30 3867 H 359.91 4.25391 -4.38035 0
M  V30 3868 H 361.324 2.17832 -5.30304 0
M  V30 3869 H 359.721 1.55871 -5.79503 0
M  V30 3870 H 360.791 0.535956 -4.81929 0
M  V30 3871 N 362.134 1.5431 0.320358 0
M  V30 3872 C 363.359 1.76954 1.08175 0
M  V30 3873 C 363.784 0.518193 1.80821 0
M  V30 3874 O 363.142 -0.530411 1.73368 0
M  V30 3875 C 363.19 2.96451 2.05303 0
M  V30 3876 O 362.294 2.68221 3.13259 0
M  V30 3877 H 361.635 0.586275 0.311733 0
M  V30 3878 H 364.165 2.01342 0.363676 0
M  V30 3879 H 364.175 3.23887 2.48116 0
M  V30 3880 H 362.85 3.87196 1.51829 0
M  V30 3881 H 361.427 2.51744 2.75099 0
M  V30 3882 N 363.613 -0.582584 1.46437 0
M  V30 3883 C 364.543 -1.70187 1.59871 0
M  V30 3884 C 365.524 -1.64066 0.449042 0
M  V30 3885 O 366.709 -1.82081 0.6753 0
M  V30 3886 C 363.839 -3.08827 1.58881 0
M  V30 3887 C 362.793 -3.29779 2.72819 0
M  V30 3888 C 362.119 -4.68947 2.5689 0
M  V30 3889 C 363.419 -3.17601 4.1464 0
M  V30 3890 H 365.113 -1.592 2.53566 0
M  V30 3891 H 362.659 -0.764472 1.22032 0
M  V30 3892 H 364.612 -3.86951 1.66873 0
M  V30 3893 H 363.336 -3.20713 0.617306 0
M  V30 3894 H 361.995 -2.54054 2.64296 0
M  V30 3895 H 361.643 -4.77599 1.57823 0
M  V30 3896 H 361.343 -4.83919 3.33312 0
M  V30 3897 H 362.867 -5.4924 2.66773 0
M  V30 3898 H 364.281 -3.8557 4.24274 0
M  V30 3899 H 362.678 -3.44094 4.9165 0
M  V30 3900 H 363.748 -2.14681 4.34788 0
M  V30 3901 N 365.091 -1.34144 -0.827227 0
M  V30 3902 C 366.021 -1.28005 -1.95287 0
M  V30 3903 C 367.002 -0.158321 -1.69362 0
M  V30 3904 O 368.187 -0.349987 -1.9102 0
M  V30 3905 C 365.317 -1.03036 -3.31664 0
M  V30 3906 C 364.271 -2.11628 -3.72019 0
M  V30 3907 C 363.597 -1.71854 -5.0633 0
M  V30 3908 C 364.897 -3.53417 -3.8457 0
M  V30 3909 H 366.591 -2.22187 -2.00682 0
M  V30 3910 H 364.137 -1.0696 -0.964135 0
M  V30 3911 H 366.09 -0.973863 -4.09993 0
M  V30 3912 H 364.814 -0.0529391 -3.26557 0
M  V30 3913 H 363.473 -2.16339 -2.95961 0
M  V30 3914 H 363.121 -0.727841 -4.97706 0
M  V30 3915 H 362.821 -2.44531 -5.34302 0
M  V30 3916 H 364.345 -1.67692 -5.87122 0
M  V30 3917 H 365.759 -3.51142 -4.5318 0
M  V30 3918 H 364.156 -4.24679 -4.2399 0
M  V30 3919 H 365.226 -3.91072 -2.86689 0
M  V30 3920 N 366.569 1.04691 -1.17803 0
M  V30 3921 C 367.499 2.14494 -0.92275 0
M  V30 3922 C 368.48 1.69546 0.137179 0
M  V30 3923 O 369.665 1.94195 -0.0141108 0
M  V30 3924 C 366.795 3.44491 -0.440803 0
M  V30 3925 C 365.749 4.03031 -1.4405 0
M  V30 3926 C 365.075 5.28432 -0.81631 0
M  V30 3927 C 366.375 4.39932 -2.81527 0
M  V30 3928 H 368.069 2.36107 -1.84103 0
M  V30 3929 H 365.615 1.1347 -0.886599 0
M  V30 3930 H 367.568 4.2066 -0.249602 0
M  V30 3931 H 366.292 3.22546 0.513025 0
M  V30 3932 H 364.951 3.28937 -1.61853 0
M  V30 3933 H 364.599 5.02792 0.144511 0
M  V30 3934 H 364.299 5.68559 -1.48371 0
M  V30 3935 H 365.823 6.07284 -0.635496 0
M  V30 3936 H 367.237 5.07113 -2.67412 0
M  V30 3937 H 365.634 4.9109 -3.44892 0
M  V30 3938 H 366.704 3.50045 -3.35554 0
M  V30 3939 N 368.047 0.979072 1.23499 0
M  V30 3940 C 368.994 0.517904 2.24914 0
M  V30 3941 C 369.964 -0.442525 1.60097 0
M  V30 3942 O 371.149 -0.350365 1.87556 0
M  V30 3943 C 368.289 -0.174813 3.44657 0
M  V30 3944 C 367.402 0.825721 4.24035 0
M  V30 3945 C 366.537 0.107946 5.3109 0
M  V30 3946 C 365.576 1.09778 6.02175 0
M  V30 3947 N 364.713 0.40925 7.00906 0
M  V30 3948 H 369.553 1.38751 2.63727 0
M  V30 3949 H 367.09 0.695303 1.2963 0
M  V30 3950 H 369.048 -0.593233 4.12961 0
M  V30 3951 H 367.678 -1.0083 3.06648 0
M  V30 3952 H 366.73 1.36253 3.55161 0
M  V30 3953 H 368.042 1.58005 4.73113 0
M  V30 3954 H 367.196 -0.367904 6.05583 0
M  V30 3955 H 365.935 -0.678994 4.8295 0
M  V30 3956 H 364.94 1.5844 5.26476 0
M  V30 3957 H 366.165 1.88536 6.52404 0
M  V30 3958 H 364.111 -0.358506 6.5502 0
M  V30 3959 H 364.028 1.10226 7.47921 0
M  V30 3960 H 365.296 -0.0442557 7.79487 0
M  V30 3961 N 369.525 -1.3858 0.750561 0
M  V30 3962 C 370.941 -1.53759 0.427824 0
M  V30 3963 C 371.141 -1.71401 -1.05943 0
M  V30 3964 O 370.197 -1.72331 -1.84549 0
M  V30 3965 C 371.51 -2.74642 1.22443 0
M  V30 3966 C 373.058 -2.88489 1.2142 0
M  V30 3967 C 373.533 -4.12329 1.9937 0
M  V30 3968 N 375.024 -4.194 1.96616 0
M  V30 3969 C 375.759 -5.14209 2.53727 0
M  V30 3970 N 375.255 -6.14709 3.19539 0
M  V30 3971 N 377.048 -5.06537 2.43673 0
M  V30 3972 H 369.199 -1.25377 1.71447 0
M  V30 3973 H 371.462 -0.608844 0.726645 0
M  V30 3974 H 371.168 -2.68 2.27747 0
M  V30 3975 H 371.042 -3.67745 0.839273 0
M  V30 3976 H 373.429 -2.94614 0.169232 0
M  V30 3977 H 373.51 -1.96406 1.63885 0
M  V30 3978 H 373.154 -4.06966 3.03877 0
M  V30 3979 H 373.084 -5.03486 1.54302 0
M  V30 3980 H 375.575 -3.47421 1.48684 0
M  V30 3981 H 375.888 -6.8354 3.60545 0
M  V30 3982 H 374.233 -6.1505 3.23633 0
M  V30 3983 H 377.424 -4.26962 1.91889 0
M  V30 3984 H 377.597 -5.80245 2.88479 0
M  V30 3985 N 371.003 -0.499398 -1.49478 0
M  V30 3986 C 372.414 -0.051215 -1.8663 0
M  V30 3987 C 372.765 1.36238 -1.41186 0
M  V30 3988 O 371.89 2.01502 -0.789051 0
M  V30 3989 C 372.485 -0.0861651 -3.3869 0
M  V30 3990 C 371.044 0.30667 -3.75149 0
M  V30 3991 C 370.191 -0.459397 -2.73468 0
M  V30 3992 H 373.142 -0.712264 -1.41818 0
M  V30 3993 H 373.163 0.709507 -3.73826 0
M  V30 3994 H 372.675 -1.11512 -3.71735 0
M  V30 3995 H 370.776 1.33892 -3.47712 0
M  V30 3996 H 370.889 -0.0116669 -4.79099 0
M  V30 3997 H 369.253 0.0905645 -2.54539 0
M  V30 3998 H 370.036 -1.4884 -3.09357 0
M  V30 3999 N 372.481 1.55866 -0.233164 0
M  V30 4000 C 373.727 1.99643 0.389148 0
M  V30 4001 C 374.082 1.11836 1.56558 0
M  V30 4002 O 373.375 0.170848 1.90837 0
M  V30 4003 C 373.569 3.46856 0.861724 0
M  V30 4004 C 373.398 4.48904 -0.267376 0
M  V30 4005 C 372.168 4.99888 -0.737577 0
M  V30 4006 C 374.366 5.02624 -1.08966 0
M  V30 4007 N 372.348 5.8566 -1.84052 0
M  V30 4008 C 373.719 5.85434 -2.04125 0
M  V30 4009 C 375.774 4.84959 -1.12779 0
M  V30 4010 C 374.477 6.52466 -3.02789 0
M  V30 4011 C 376.503 5.52759 -2.10266 0
M  V30 4012 C 375.865 6.35346 -3.04162 0
M  V30 4013 H 371.964 0.774402 0.108742 0
M  V30 4014 H 374.548 1.91572 -0.347596 0
M  V30 4015 H 372.719 3.55352 1.5678 0
M  V30 4016 H 374.451 3.77531 1.45783 0
M  V30 4017 H 371.206 4.7249 -0.324122 0
M  V30 4018 H 371.63 6.33246 -2.39434 0
M  V30 4019 H 376.272 4.20751 -0.415749 0
M  V30 4020 H 373.99 7.15849 -3.74948 0
M  V30 4021 H 377.576 5.41051 -2.13905 0
M  V30 4022 H 376.456 6.86883 -3.78366 0
M  V30 4023 N 373.959 -0.0401083 1.57549 0
M  V30 4024 C 375.236 -0.767917 1.79896 0
M  V30 4025 C 375.616 -1.9416 0.82856 0
M  V30 4026 O 374.964 -2.2812 -0.131671 0
M  V30 4027 C 375.174 -1.2113 3.27305 0
M  V30 4028 C 376.522 -1.63175 3.91994 0
M  V30 4029 O 377.546 -1.30616 3.31388 0
M  V30 4030 O 376.405 -2.23565 4.98679 0
M  V30 4031 H 373.499 -0.370441 0.739393 0
M  V30 4032 H 376.045 -0.017737 1.69691 0
M  V30 4033 H 374.817 -0.372937 3.89519 0
M  V30 4034 H 374.44 -2.02183 3.42356 0
M  V30 4035 N 375.437 -1.54477 -0.31217 0
M  V30 4036 C 376.848 -1.64344 -0.885891 0
M  V30 4037 C 377.199 -0.54485 -1.88483 0
M  V30 4038 O 376.324 0.320387 -2.14015 0
M  V30 4039 C 376.919 -2.97908 -1.61357 0
M  V30 4040 C 375.478 -3.09933 -2.13585 0
M  V30 4041 C 374.625 -2.59971 -0.964897 0
M  V30 4042 H 377.576 -1.58448 -0.0894528 0
M  V30 4043 H 377.597 -2.88706 -2.47848 0
M  V30 4044 H 377.109 -3.77845 -0.886277 0
M  V30 4045 H 375.21 -2.34694 -2.89395 0
M  V30 4046 H 375.323 -4.15916 -2.37804 0
M  V30 4047 H 373.687 -2.16147 -1.34731 0
M  V30 4048 H 374.47 -3.42376 -0.251742 0
M  V30 4049 N 376.915 0.57481 -1.46744 0
M  V30 4050 C 377.878 1.66533 -1.57478 0
M  V30 4051 C 378.878 1.54338 -0.451263 0
M  V30 4052 O 380.068 1.58814 -0.715813 0
M  V30 4053 C 377.2 3.05999 -1.50259 0
M  V30 4054 H 378.393 1.58372 -2.54673 0
M  V30 4055 H 375.946 0.793301 -1.34672 0
M  V30 4056 H 376.681 3.19709 -0.543725 0
M  V30 4057 H 376.466 3.16259 -2.31781 0
M  V30 4058 H 377.956 3.8537 -1.60872 0
M  V30 4059 N 378.394 1.34581 0.820102 0
M  V30 4060 C 379.64 1.27285 1.57881 0
M  V30 4061 C 379.973 -0.156137 1.93571 0
M  V30 4062 O 379.248 -1.10222 1.60254 0
M  V30 4063 C 379.531 2.16639 2.87645 0
M  V30 4064 C 379.384 3.68088 2.58517 0
M  V30 4065 C 380.703 2.05378 3.8924 0
M  V30 4066 H 377.822 0.463714 0.572833 0
M  V30 4067 H 380.464 1.64859 0.944539 0
M  V30 4068 H 378.614 1.84725 3.41773 0
M  V30 4069 H 380.286 4.10382 2.10676 0
M  V30 4070 H 378.529 3.89038 1.91917 0
M  V30 4071 H 379.2 4.2598 3.51063 0
M  V30 4072 H 381.676 2.33404 3.44473 0
M  V30 4073 H 380.552 2.7012 4.77835 0
M  V30 4074 H 380.813 1.0316 4.29896 0
M  V30 4075 N 379.872 -1.04064 1.18357 0
M  V30 4076 C 381.12 -1.76915 0.977013 0
M  V30 4077 C 381.441 -1.88624 -0.494577 0
M  V30 4078 O 380.711 -1.41125 -1.3587 0
M  V30 4079 H 379.291 -0.65535 0.358504 0
M  V30 4080 H 381.953 -1.25592 1.49039 0
M  V30 4081 H 381.049 -2.78178 1.41504 0
M  V30 4082 N 381.35 -0.985608 -1.22978 0
M  V30 4083 C 382.596 -0.65836 -1.91816 0
M  V30 4084 C 382.929 0.806692 -1.76653 0
M  V30 4085 O 382.204 1.58252 -1.13078 0
M  V30 4086 C 382.487 -1.056 -3.44268 0
M  V30 4087 C 382.34 -2.57906 -3.68516 0
M  V30 4088 C 383.659 -0.603781 -4.35939 0
M  V30 4089 H 380.778 -0.24065 -0.696604 0
M  V30 4090 H 383.42 -1.22783 -1.44998 0
M  V30 4091 H 381.57 -0.571445 -3.84274 0
M  V30 4092 H 383.242 -3.13976 -3.3796 0
M  V30 4093 H 381.485 -3.00305 -3.13048 0
M  V30 4094 H 382.156 -2.80779 -4.75255 0
M  V30 4095 H 384.632 -1.01987 -4.03408 0
M  V30 4096 H 383.508 -0.910383 -5.41298 0
M  V30 4097 H 383.769 0.495761 -4.39312 0
M  V30 4098 N 382.828 1.3818 -0.7579 0
M  V30 4099 C 383.758 2.33027 -0.148597 0
M  V30 4100 C 384.739 1.55085 0.69875 0
M  V30 4101 O 385.924 1.83384 0.639053 0
M  V30 4102 C 383.054 3.3928 0.742034 0
M  V30 4103 C 382.008 4.28 -0.00291946 0
M  V30 4104 C 381.334 5.25146 1.00625 0
M  V30 4105 C 382.634 5.08938 -1.17385 0
M  V30 4106 H 384.328 2.84231 -0.940909 0
M  V30 4107 H 381.874 1.36659 -0.453908 0
M  V30 4108 H 383.827 4.046 1.17799 0
M  V30 4109 H 382.551 2.86569 1.56671 0
M  V30 4110 H 381.21 3.64192 -0.419504 0
M  V30 4111 H 380.858 4.68721 1.8251 0
M  V30 4112 H 380.558 5.85361 0.512428 0
M  V30 4113 H 382.082 5.93342 1.44143 0
M  V30 4114 H 383.496 5.67474 -0.815224 0
M  V30 4115 H 381.893 5.7841 -1.59882 0
M  V30 4116 H 382.963 4.42424 -1.98468 0
M  V30 4117 N 384.306 0.507319 1.49211 0
M  V30 4118 C 385.531 -0.033725 2.07373 0
M  V30 4119 C 385.956 -1.29485 1.36437 0
M  V30 4120 O 385.314 -1.76294 0.423087 0
M  V30 4121 C 385.362 -0.263945 3.59633 0
M  V30 4122 O 384.466 -1.33737 3.90113 0
M  V30 4123 H 383.807 0.0290331 0.663365 0
M  V30 4124 H 386.337 0.708749 1.91932 0
M  V30 4125 H 386.347 -0.493536 4.05004 0
M  V30 4126 H 385.022 0.657424 4.10671 0
M  V30 4127 H 383.599 -1.09224 3.56545 0
M  V30 4128 N 385.784 -1.5574 0.241426 0
M  V30 4129 C 386.734 -2.17803 -0.674233 0
M  V30 4130 C 387.718 -1.13225 -1.14319 0
M  V30 4131 O 388.91 -1.39153 -1.09387 0
M  V30 4132 C 386.039 -2.87682 -1.87333 0
M  V30 4133 C 385.125 -3.99509 -1.42313 0
M  V30 4134 N 385.516 -5.01115 -0.686798 0
M  V30 4135 C 383.814 -4.11964 -1.70885 0
M  V30 4136 C 384.515 -5.79922 -0.454456 0
M  V30 4137 N 383.491 -5.34001 -1.01705 0
M  V30 4138 H 387.293 -2.93718 -0.103447 0
M  V30 4139 H 384.807 -1.62342 0.0435095 0
M  V30 4140 H 386.804 -3.3057 -2.54026 0
M  V30 4141 H 385.464 -2.13269 -2.4484 0
M  V30 4142 H 386.475 -5.16799 -0.337459 0
M  V30 4143 H 383.152 -3.48718 -2.2957 0
M  V30 4144 H 384.542 -6.71768 0.132992 0
M  V30 4145 N 387.262 0.0317525 -1.57568 0
M  V30 4146 C 388.21 1.05165 -2.07468 0
M  V30 4147 C 389.204 1.3761 -0.98792 0
M  V30 4148 O 390.41 1.36546 -1.17282 0
M  V30 4149 H 386.785 0.35666 -0.66204 0
M  V30 4150 H 388.756 0.604958 -2.92203 0
M  V30 4151 C 387.505 2.34488 -2.56731 0
M  V30 4152 H 386.828 2.10383 -3.39969 0
M  V30 4153 H 388.268 3.04203 -2.95358 0
M  V30 4154 C 386.727 3.03266 -1.46736 0
M  V30 4155 O 387.257 3.92988 -0.832069 0
M  V30 4156 N 385.463 2.6455 -1.20256 0
M  V30 4157 H 385.01 1.91674 -1.72102 0
M  V30 4158 H 384.968 3.10886 -0.468737 0
M  V30 4159 N 388.74 1.54641 0.303973 0
M  V30 4160 C 389.687 1.85386 1.37479 0
M  V30 4161 C 390.657 0.702528 1.50512 0
M  V30 4162 O 391.842 0.950867 1.65418 0
M  V30 4163 C 388.982 2.10413 2.73533 0
M  V30 4164 C 388.095 3.38049 2.68974 0
M  V30 4165 C 387.23 3.52934 3.97002 0
M  V30 4166 C 386.269 4.74373 3.86829 0
M  V30 4167 N 385.406 4.8608 5.06627 0
M  V30 4168 H 390.246 2.76732 1.1056 0
M  V30 4169 H 387.783 1.37034 0.534805 0
M  V30 4170 H 389.741 2.22919 3.52652 0
M  V30 4171 H 388.371 1.22338 2.98719 0
M  V30 4172 H 387.423 3.3418 1.81736 0
M  V30 4173 H 388.735 4.27288 2.57346 0
M  V30 4174 H 387.889 3.65088 4.84557 0
M  V30 4175 H 386.628 2.61824 4.1146 0
M  V30 4176 H 385.633 4.62255 2.97658 0
M  V30 4177 H 386.858 5.66888 3.73918 0
M  V30 4178 H 384.804 3.97891 5.21554 0
M  V30 4179 H 384.721 5.69315 4.9741 0
M  V30 4180 H 385.989 5.02587 5.95841 0
M  V30 4181 N 390.218 -0.567019 1.47046 0
M  V30 4182 C 391.629 -1.14916 1.47143 0
M  V30 4183 C 391.98 -1.94954 0.220767 0
M  V30 4184 O 391.105 -2.05602 -0.67505 0
M  V30 4185 C 391.7 -2.09069 2.666 0
M  V30 4186 C 390.259 -2.62575 2.69687 0
M  V30 4187 C 389.406 -1.38755 2.40088 0
M  V30 4188 H 392.357 -0.354126 1.54699 0
M  V30 4189 H 392.378 -2.92789 2.43011 0
M  V30 4190 H 391.89 -1.50789 3.57609 0
M  V30 4191 H 389.991 -3.24681 1.82792 0
M  V30 4192 H 390.104 -3.04239 3.70102 0
M  V30 4193 H 388.468 -1.69098 1.90468 0
M  V30 4194 H 389.251 -0.822822 3.33293 0
M  V30 4195 N 391.696 -1.35014 -0.812953 0
M  V30 4196 C 392.921 -1.31187 -1.60639 0
M  V30 4197 C 393.346 0.109382 -1.87782 0
M  V30 4198 O 392.704 1.07424 -1.46047 0
M  V30 4199 C 392.752 -2.11809 -2.91838 0
M  V30 4200 O 391.856 -1.49444 -3.8437 0
M  V30 4201 H 391.197 -0.450084 -0.488181 0
M  V30 4202 H 393.727 -1.77963 -1.00947 0
M  V30 4203 H 393.737 -2.23531 -3.41318 0
M  V30 4204 H 392.412 -3.15137 -2.71407 0
M  V30 4205 H 390.989 -1.46524 -3.42907 0
M  V30 4206 N 393.175 1.03435 -1.18907 0
M  V30 4207 C 394.122 2.11591 -0.921837 0
M  V30 4208 C 395.092 1.65499 0.141226 0
M  V30 4209 O 396.277 1.908 0.000242829 0
M  V30 4210 C 393.417 3.42012 -0.460616 0
M  V30 4211 C 392.53 4.01682 -1.58982 0
M  V30 4212 C 391.665 5.20091 -1.08069 0
M  V30 4213 C 390.704 5.71805 -2.18416 0
M  V30 4214 N 389.841 6.81494 -1.68849 0
M  V30 4215 H 394.681 2.33787 -1.8479 0
M  V30 4216 H 392.218 1.1467 -0.921373 0
M  V30 4217 H 394.176 4.16834 -0.174642 0
M  V30 4218 H 392.806 3.19944 0.428467 0
M  V30 4219 H 391.858 3.24127 -1.99113 0
M  V30 4220 H 393.17 4.36084 -2.4214 0
M  V30 4221 H 392.324 6.02051 -0.749615 0
M  V30 4222 H 391.063 4.87209 -0.218771 0
M  V30 4223 H 390.068 4.88461 -2.5236 0
M  V30 4224 H 391.293 6.06728 -3.05054 0
M  V30 4225 H 389.239 6.50475 -0.849572 0
M  V30 4226 H 389.156 7.14994 -2.45601 0
M  V30 4227 H 390.424 7.67063 -1.38689 0
M  V30 4228 N 394.653 0.992116 1.22453 0
M  V30 4229 C 395.583 0.561677 2.26644 0
M  V30 4230 C 396.564 -0.411055 1.65059 0
M  V30 4231 O 397.749 -0.301861 1.9184 0
M  V30 4232 C 394.879 -0.125247 3.47074 0
M  V30 4233 C 393.833 0.765948 4.21091 0
M  V30 4234 C 393.159 -0.0538484 5.34673 0
M  V30 4235 C 394.459 2.06242 4.79856 0
M  V30 4236 H 396.153 1.43259 2.62902 0
M  V30 4237 H 393.699 0.690283 1.26377 0
M  V30 4238 H 395.652 -0.437764 4.1912 0
M  V30 4239 H 394.376 -1.03069 3.0991 0
M  V30 4240 H 393.035 1.0621 3.50878 0
M  V30 4241 H 392.683 -0.960188 4.9375 0
M  V30 4242 H 392.383 0.539415 5.85119 0
M  V30 4243 H 393.907 -0.360477 6.09535 0
M  V30 4244 H 395.321 1.8139 5.43848 0
M  V30 4245 H 393.718 2.60444 5.40638 0
M  V30 4246 H 394.788 2.74167 3.99951 0
M  V30 4247 N 396.131 -1.37776 0.765217 0
M  V30 4248 C 397.542 -1.82521 0.392819 0
M  V30 4249 C 397.893 -1.63789 -1.08017 0
M  V30 4250 O 397.018 -1.14542 -1.83601 0
M  V30 4251 C 397.613 -3.31358 0.706214 0
M  V30 4252 C 396.172 -3.74406 0.386952 0
M  V30 4253 C 395.319 -2.60394 0.953422 0
M  V30 4254 H 398.27 -1.2634 0.960412 0
M  V30 4255 H 398.291 -3.80498 -0.0114706 0
M  V30 4256 H 397.803 -3.44959 1.77833 0
M  V30 4257 H 395.904 -3.66377 -0.678112 0
M  V30 4258 H 396.017 -4.70749 0.890636 0
M  V30 4259 H 394.381 -2.51878 0.378064 0
M  V30 4260 H 395.164 -2.76791 2.03081 0
M  V30 4261 N 397.609 -0.515225 -1.4894 0
M  V30 4262 C 398.857 0.0241671 -2.02086 0
M  V30 4263 C 399.178 1.3616 -1.3959 0
M  V30 4264 O 398.448 1.87841 -0.556121 0
M  V30 4265 H 397.028 0.0119203 -0.746905 0
M  V30 4266 H 399.69 -0.675702 -1.82812 0
M  V30 4267 H 398.786 0.143385 -3.1177 0
M  V30 4268 N 399.087 1.5561 -0.249682 0
M  V30 4269 C 400.312 2.03865 0.381305 0
M  V30 4270 C 400.737 1.12769 1.50548 0
M  V30 4271 O 400.095 0.121189 1.80895 0
M  V30 4272 C 400.143 3.50101 0.863816 0
M  V30 4273 O 399.247 3.62132 1.97318 0
M  V30 4274 H 398.588 0.658827 0.0827194 0
M  V30 4275 H 401.118 2.01105 -0.376552 0
M  V30 4276 H 401.128 3.90975 1.1663 0
M  V30 4277 H 399.803 4.1588 0.0411816 0
M  V30 4278 H 398.38 3.33155 1.67517 0
M  V30 4279 N 400.565 -0.0233959 1.57583 0
M  V30 4280 C 401.976 -0.56927 1.77809 0
M  V30 4281 C 402.327 -1.75284 0.881472 0
M  V30 4282 O 401.452 -2.1626 0.0777805 0
M  V30 4283 C 402.047 -1.03949 3.22459 0
M  V30 4284 C 400.606 -1.53084 3.43864 0
M  V30 4285 C 399.753 -0.471454 2.73263 0
M  V30 4286 H 402.704 0.202825 1.57399 0
M  V30 4287 H 402.725 -1.90661 3.29285 0
M  V30 4288 H 402.237 -0.177865 3.87692 0
M  V30 4289 H 400.338 -2.41414 2.83814 0
M  V30 4290 H 400.451 -1.57443 4.52491 0
M  V30 4291 H 398.815 -0.927788 2.37201 0
M  V30 4292 H 399.598 0.380808 3.41181 0
M  V30 4293 N 402.043 -1.548 -0.295768 0
M  V30 4294 C 402.973 -1.89115 -1.36959 0
M  V30 4295 C 403.954 -0.75059 -1.52644 0
M  V30 4296 O 405.139 -1.00678 -1.66065 0
M  V30 4297 C 402.269 -2.14307 -2.73295 0
M  V30 4298 C 401.223 -3.30151 -2.72368 0
M  V30 4299 C 400.549 -3.40772 -4.12042 0
M  V30 4300 C 401.849 -4.67126 -2.33646 0
M  V30 4301 H 403.543 -2.79053 -1.08488 0
M  V30 4302 H 401.089 -1.34266 -0.520443 0
M  V30 4303 H 403.042 -2.36898 -3.48507 0
M  V30 4304 H 401.766 -1.21145 -3.03301 0
M  V30 4305 H 400.425 -3.0749 -1.99613 0
M  V30 4306 H 400.073 -2.45117 -4.39234 0
M  V30 4307 H 399.773 -4.18645 -4.12322 0
M  V30 4308 H 401.297 -3.6563 -4.89027 0
M  V30 4309 H 402.711 -4.89414 -2.98575 0
M  V30 4310 H 401.108 -5.47751 -2.45129 0
M  V30 4311 H 402.178 -4.67489 -1.28772 0
M  V30 4312 N 403.521 0.559213 -1.47345 0
M  V30 4313 C 404.77 1.31281 -1.53128 0
M  V30 4314 C 405.083 1.94602 -0.197344 0
M  V30 4315 O 406.289 2.71173 -0.133154 0
M  V30 4316 C 404.745 2.38051 -2.69925 0
M  V30 4317 C 404.353 1.8093 -4.0984 0
M  V30 4318 C 406.097 3.14604 -2.84999 0
M  V30 4319 C 404.004 2.85468 -5.1794 0
M  V30 4320 H 402.934 0.493614 -0.569966 0
M  V30 4321 H 405.585 0.594155 -1.73615 0
M  V30 4322 H 403.967 3.12822 -2.42814 0
M  V30 4323 H 405.141 1.12544 -4.46845 0
M  V30 4324 H 403.456 1.16967 -3.99634 0
M  V30 4325 H 406.053 3.92666 -3.62929 0
M  V30 4326 H 406.396 3.68665 -1.93369 0
M  V30 4327 H 406.929 2.46945 -3.1187 0
M  V30 4328 H 403.668 2.36264 -6.1144 0
M  V30 4329 H 403.188 3.52269 -4.85455 0
M  V30 4330 H 404.867 3.48996 -5.44803 0
M  V30 4331 N 404.999 1.35443 0.805782 0
M  V30 4332 C 405.929 1.31095 1.93226 0
M  V30 4333 C 406.91 0.185244 1.69088 0
M  V30 4334 O 408.095 0.380332 1.90439 0
M  V30 4335 C 405.225 1.08299 3.29983 0
M  V30 4336 C 404.179 2.17519 3.68605 0
M  V30 4337 C 403.505 1.79887 5.03532 0
M  V30 4338 C 404.805 3.5949 3.78898 0
M  V30 4339 H 406.499 2.25352 1.97122 0
M  V30 4340 H 404.045 1.0848 0.946996 0
M  V30 4341 H 405.998 1.03897 4.08391 0
M  V30 4342 H 404.722 0.104885 3.26432 0
M  V30 4343 H 403.381 2.2102 2.92482 0
M  V30 4344 H 403.029 0.80693 4.96485 0
M  V30 4345 H 402.729 2.53001 5.30344 0
M  V30 4346 H 404.253 1.77011 5.84379 0
M  V30 4347 H 405.667 3.58307 4.47536 0
M  V30 4348 H 404.064 4.31371 4.1718 0
M  V30 4349 H 405.134 3.95584 2.80431 0
M  V30 4350 N 406.477 -1.02803 1.19454 0
M  V30 4351 C 407.726 -1.7562 0.991996 0
M  V30 4352 C 408.039 -1.89672 -0.477901 0
M  V30 4353 O 409.245 -2.59468 -0.799287 0
M  V30 4354 C 407.701 -3.15812 1.72601 0
M  V30 4355 C 407.309 -3.0981 3.23607 0
M  V30 4356 C 409.053 -3.92918 1.60674 0
M  V30 4357 C 406.96 -4.44939 3.89594 0
M  V30 4358 H 405.89 -0.658352 0.367543 0
M  V30 4359 H 408.541 -1.15044 1.42959 0
M  V30 4360 H 406.923 -3.7686 1.21624 0
M  V30 4361 H 408.097 -2.58138 3.81709 0
M  V30 4362 H 406.412 -2.46201 3.35819 0
M  V30 4363 H 409.009 -4.9287 2.07323 0
M  V30 4364 H 409.352 -4.12502 0.561025 0
M  V30 4365 H 409.885 -3.38472 2.09001 0
M  V30 4366 H 406.624 -4.30559 4.94267 0
M  V30 4367 H 406.144 -4.96664 3.36281 0
M  V30 4368 H 407.823 -5.1382 3.93189 0
M  V30 4369 N 407.956 -0.998596 -1.21925 0
M  V30 4370 C 408.919 -0.558679 -2.22287 0
M  V30 4371 C 409.919 0.361525 -1.56683 0
M  V30 4372 O 411.109 0.152695 -1.73529 0
M  V30 4373 C 408.241 0.18661 -3.40389 0
M  V30 4374 H 409.434 -1.4463 -2.62721 0
M  V30 4375 H 406.987 -0.786413 -1.35075 0
M  V30 4376 H 407.722 1.08996 -3.05435 0
M  V30 4377 H 407.507 -0.474188 -3.89222 0
M  V30 4378 H 408.997 0.482367 -4.14805 0
M  V30 4379 N 409.434 1.37368 -0.772513 0
M  V30 4380 C 410.659 2.0447 -0.347386 0
M  V30 4381 C 411.084 1.57882 1.0225 0
M  V30 4382 O 410.442 0.73941 1.65537 0
M  V30 4383 C 410.49 3.58369 -0.400479 0
M  V30 4384 O 409.594 4.0803 0.598789 0
M  V30 4385 H 408.935 0.646773 -0.15027 0
M  V30 4386 H 411.465 1.75667 -1.04892 0
M  V30 4387 H 411.475 4.07183 -0.258045 0
M  V30 4388 H 410.15 3.91633 -1.39986 0
M  V30 4389 H 408.727 3.70534 0.419411 0
M  V30 4390 N 410.912 0.523116 1.48665 0
M  V30 4391 C 412.137 -0.0117284 2.07397 0
M  V30 4392 C 412.562 -1.28031 1.37803 0
M  V30 4393 O 411.92 -1.75836 0.441762 0
M  V30 4394 C 411.968 -0.225786 3.59892 0
M  V30 4395 O 411.072 -1.29592 3.91509 0
M  V30 4396 H 410.413 0.0360673 0.66302 0
M  V30 4397 H 412.943 0.729066 1.9117 0
M  V30 4398 H 412.953 -0.450552 4.05505 0
M  V30 4399 H 411.628 0.700944 4.09951 0
M  V30 4400 H 410.205 -1.05436 3.57684 0
M  V30 4401 N 412.39 -1.55475 0.257931 0
M  V30 4402 C 413.638 -1.98813 -0.363009 0
M  V30 4403 C 413.959 -1.14757 -1.57657 0
M  V30 4404 O 413.229 -0.232956 -1.9451 0
M  V30 4405 H 411.809 -0.734308 -0.137113 0
M  V30 4406 H 414.471 -1.9156 0.359281 0
M  V30 4407 H 413.567 -3.04941 -0.664634 0
M  V30 4408 N 413.868 0.0150385 -1.57593 0
M  V30 4409 C 415.279 0.559832 -1.78109 0
M  V30 4410 C 415.63 1.74814 -0.890756 0
M  V30 4411 O 414.755 2.16216 -0.0892482 0
M  V30 4412 C 415.35 1.02238 -3.23006 0
M  V30 4413 C 413.909 1.51258 -3.44671 0
M  V30 4414 C 413.056 0.456955 -2.73509 0
M  V30 4415 H 416.007 -0.211169 -1.57289 0
M  V30 4416 H 416.028 1.88912 -3.30292 0
M  V30 4417 H 415.54 0.157302 -3.87781 0
M  V30 4418 H 413.641 2.39905 -2.8509 0
M  V30 4419 H 413.754 1.55042 -4.5332 0
M  V30 4420 H 412.118 0.915196 -2.37689 0
M  V30 4421 H 412.901 -0.398896 -3.40975 0
M  V30 4422 N 415.346 1.54954 0.287554 0
M  V30 4423 C 416.571 1.79209 1.04397 0
M  V30 4424 C 416.996 0.556431 1.79682 0
M  V30 4425 O 416.354 -0.493518 1.74454 0
M  V30 4426 C 416.402 3.00739 1.98969 0
M  V30 4427 O 415.506 2.74805 3.075 0
M  V30 4428 H 414.847 0.592755 0.299227 0
M  V30 4429 H 417.377 2.02068 0.320886 0
M  V30 4430 H 417.387 3.29077 2.4119 0
M  V30 4431 H 416.062 3.90329 1.43582 0
M  V30 4432 H 414.639 2.57523 2.69697 0
M  V30 4433 N 416.824 -0.551391 1.4764 0
M  V30 4434 C 418.049 -1.33837 1.58437 0
M  V30 4435 C 418.474 -1.866 0.237063 0
M  V30 4436 O 417.832 -1.6328 -0.787994 0
M  V30 4437 C 417.88 -2.48014 2.61766 0
M  V30 4438 O 416.984 -3.50419 2.1744 0
M  V30 4439 H 416.325 -0.397299 0.532024 0
M  V30 4440 H 418.855 -0.665759 1.93465 0
M  V30 4441 H 418.865 -2.94503 2.82369 0
M  V30 4442 H 417.54 -2.08969 3.5959 0
M  V30 4443 H 416.117 -3.10196 2.06961 0
M  V30 4444 N 418.302 -1.35869 -0.798587 0
M  V30 4445 C 419.527 -1.32883 -1.59238 0
M  V30 4446 C 419.952 0.0894587 -1.87887 0
M  V30 4447 O 419.31 1.05869 -1.47178 0
M  V30 4448 C 419.358 -2.14892 -2.89575 0
M  V30 4449 O 418.462 -1.53512 -3.82763 0
M  V30 4450 H 417.803 -0.455236 -0.48338 0
M  V30 4451 H 420.333 -1.79024 -0.990539 0
M  V30 4452 H 420.343 -2.27139 -3.38928 0
M  V30 4453 H 419.018 -3.17998 -2.68049 0
M  V30 4454 H 417.595 -1.50153 -3.41334 0
M  V30 4455 N 419.78 1.02168 -1.19998 0
M  V30 4456 C 421.026 1.75945 -1.00852 0
M  V30 4457 C 421.359 1.88702 0.458828 0
M  V30 4458 O 420.634 1.40911 1.34069 0
M  V30 4459 C 420.917 3.18154 -1.68671 0
M  V30 4460 C 420.77 3.13224 -3.22817 0
M  V30 4461 C 422.089 4.16711 -1.41561 0
M  V30 4462 H 419.208 0.638673 -0.367785 0
M  V30 4463 H 421.85 1.19222 -1.4794 0
M  V30 4464 H 420 3.66586 -1.28636 0
M  V30 4465 H 421.672 2.72635 -3.72112 0
M  V30 4466 H 419.915 2.50751 -3.53986 0
M  V30 4467 H 420.586 4.13728 -3.65422 0
M  V30 4468 H 423.062 3.76913 -1.76284 0
M  V30 4469 H 421.938 5.14391 -1.91553 0
M  V30 4470 H 422.199 4.40774 -0.342193 0
M  V30 4471 N 421.258 1.00505 1.21394 0
M  V30 4472 C 422.505 0.687774 1.90462 0
M  V30 4473 C 422.833 -0.78147 1.7811 0
M  V30 4474 O 422.088 -1.58208 1.1519 0
M  V30 4475 C 422.387 1.0546 3.41486 0
M  V30 4476 C 422.053 2.51812 3.74034 0
M  V30 4477 C 420.715 2.91804 3.82628 0
M  V30 4478 C 423.067 3.46614 3.8924 0
M  V30 4479 C 420.395 4.2556 4.03876 0
M  V30 4480 C 422.747 4.80044 4.11995 0
M  V30 4481 C 421.411 5.19759 4.18816 0
M  V30 4482 H 420.681 0.251674 0.696951 0
M  V30 4483 H 423.328 1.26349 1.43903 0
M  V30 4484 H 421.633 0.397133 3.89782 0
M  V30 4485 H 423.33 0.786976 3.93202 0
M  V30 4486 H 419.92 2.1982 3.67936 0
M  V30 4487 H 424.104 3.16883 3.81967 0
M  V30 4488 H 419.36 4.55901 4.07387 0
M  V30 4489 H 423.534 5.53439 4.22704 0
M  V30 4490 H 421.161 6.23418 4.35033 0
M  V30 4491 N 422.737 -1.36956 0.779787 0
M  V30 4492 C 424.148 -1.82094 0.412156 0
M  V30 4493 C 424.499 -1.64926 -1.06273 0
M  V30 4494 O 423.624 -1.16483 -1.82375 0
M  V30 4495 C 424.219 -3.3059 0.741319 0
M  V30 4496 C 422.778 -3.73974 0.426641 0
M  V30 4497 C 421.925 -2.59368 0.980987 0
M  V30 4498 H 424.876 -1.25314 0.973758 0
M  V30 4499 H 424.897 -3.80489 0.028887 0
M  V30 4500 H 424.409 -3.43054 1.81482 0
M  V30 4501 H 422.51 -3.67076 -0.639215 0
M  V30 4502 H 422.623 -4.69778 0.940515 0
M  V30 4503 H 420.987 -2.51463 0.404757 0
M  V30 4504 H 421.77 -2.74621 2.06005 0
M  V30 4505 N 424.215 -0.530993 -1.48385 0
M  V30 4506 C 425.443 -0.00134122 -2.069 0
M  V30 4507 C 425.858 1.2805 -1.3874 0
M  V30 4508 O 425.215 1.76204 -0.475244 0
M  V30 4509 C 425.266 0.225256 -3.60798 0
M  V30 4510 O 424.987 -1.0058 -4.26398 0
M  V30 4511 C 426.488 0.795172 -4.3611 0
M  V30 4512 H 423.708 -0.0339704 -0.67014 0
M  V30 4513 H 426.252 -0.736926 -1.90761 0
M  V30 4514 H 424.407 0.910891 -3.76539 0
M  V30 4515 H 424.821 -0.787165 -5.1856 0
M  V30 4516 H 426.295 0.903143 -5.44562 0
M  V30 4517 H 426.772 1.80031 -4.00606 0
M  V30 4518 H 427.378 0.146069 -4.25049 0
M  V30 4519 N 425.693 1.55336 -0.266172 0
M  V30 4520 C 426.918 2.04258 0.359661 0
M  V30 4521 C 427.343 1.14359 1.49344 0
M  V30 4522 O 426.701 0.140369 1.80756 0
M  V30 4523 C 426.749 3.50997 0.826635 0
M  V30 4524 O 425.853 3.64204 1.93466 0
M  V30 4525 H 425.194 0.659668 0.075727 0
M  V30 4526 H 427.724 2.00694 -0.39786 0
M  V30 4527 H 427.734 3.9219 1.12477 0
M  V30 4528 H 426.409 4.159 -0.00293032 0
M  V30 4529 H 424.986 3.34913 1.63974 0
M  V30 4530 N 427.171 -0.0066808 1.57599 0
M  V30 4531 C 428.587 -0.36267 1.55425 0
M  V30 4532 C 428.787 -1.75209 0.995187 0
M  V30 4533 O 427.843 -2.44616 0.626058 0
M  V30 4534 C 429.156 -0.244017 2.99708 0
M  V30 4535 C 430.704 -0.319451 3.11366 0
M  V30 4536 C 431.179 -0.229998 4.57422 0
M  V30 4537 N 432.67 -0.288105 4.62303 0
M  V30 4538 C 433.405 -0.242127 5.72889 0
M  V30 4539 N 432.901 -0.147133 6.92644 0
M  V30 4540 N 434.694 -0.293502 5.61333 0
M  V30 4541 H 426.845 0.902314 1.92281 0
M  V30 4542 H 429.108 0.34525 0.882896 0
M  V30 4543 H 428.814 0.711678 3.44424 0
M  V30 4544 H 428.688 -1.02877 3.629 0
M  V30 4545 H 431.075 -1.26559 2.66584 0
M  V30 4546 H 431.156 0.495055 2.50964 0
M  V30 4547 H 430.8 0.712566 5.02877 0
M  V30 4548 H 430.73 -1.0629 5.15761 0
M  V30 4549 H 433.221 -0.363126 3.76151 0
M  V30 4550 H 433.534 -0.117763 7.7271 0
M  V30 4551 H 431.879 -0.112857 6.94908 0
M  V30 4552 H 435.07 -0.365864 4.66668 0
M  V30 4553 H 435.243 -0.254204 6.47501 0
M  V30 4554 N 428.649 -1.55105 -0.279332 0
M  V30 4555 C 430.065 -1.46803 -0.626187 0
M  V30 4556 C 430.265 -0.676939 -1.89789 0
M  V30 4557 O 429.321 -0.19326 -2.51759 0
M  V30 4558 C 430.634 -2.90962 -0.759034 0
M  V30 4559 C 432.182 -3.01138 -0.853504 0
M  V30 4560 C 432.657 -4.46539 -1.01818 0
M  V30 4561 N 434.148 -4.50341 -1.08386 0
M  V30 4562 C 434.883 -5.60053 -1.22996 0
M  V30 4563 N 434.379 -6.79645 -1.34366 0
M  V30 4564 N 436.172 -5.47783 -1.26056 0
M  V30 4565 H 428.323 -2.04996 0.555921 0
M  V30 4566 H 430.586 -0.929325 0.187239 0
M  V30 4567 H 430.292 -3.51544 0.104852 0
M  V30 4568 H 430.166 -3.39619 -1.64131 0
M  V30 4569 H 432.553 -2.40658 -1.70786 0
M  V30 4570 H 432.634 -2.55745 0.0532466 0
M  V30 4571 H 432.278 -5.0762 -0.168504 0
M  V30 4572 H 432.208 -4.89583 -1.93948 0
M  V30 4573 H 434.699 -3.64191 -1.00864 0
M  V30 4574 H 435.012 -7.59012 -1.4533 0
M  V30 4575 H 433.357 -6.82469 -1.31382 0
M  V30 4576 H 436.548 -4.53294 -1.168 0
M  V30 4577 H 436.721 -6.33331 -1.37098 0
M  V30 4578 N 430.127 0.543554 -1.4793 0
M  V30 4579 C 431.077 1.64527 -1.57844 0
M  V30 4580 C 432.061 1.54869 -0.436408 0
M  V30 4581 O 433.253 1.63119 -0.687101 0
M  V30 4582 C 430.382 3.03281 -1.6086 0
M  V30 4583 C 429.468 3.18093 -2.80495 0
M  V30 4584 N 429.859 3.02923 -4.05057 0
M  V30 4585 C 428.157 3.49121 -2.77543 0
M  V30 4586 C 428.858 3.20791 -4.85251 0
M  V30 4587 N 427.834 3.47749 -4.17818 0
M  V30 4588 H 431.636 1.51388 -2.5191 0
M  V30 4589 H 429.15 0.748671 -1.44113 0
M  V30 4590 H 431.147 3.82403 -1.66054 0
M  V30 4591 H 429.807 3.17521 -0.678996 0
M  V30 4592 H 430.818 2.79966 -4.35705 0
M  V30 4593 H 427.495 3.69804 -1.93781 0
M  V30 4594 H 428.885 3.13915 -5.9406 0
M  V30 4595 N 431.605 1.3629 0.791371 0
M  V30 4596 C 433.021 1.16661 1.08914 0
M  V30 4597 C 433.221 -0.0106266 2.01497 0
M  V30 4598 O 432.277 -0.676596 2.43266 0
M  V30 4599 C 433.59 2.47656 1.70549 0
M  V30 4600 C 435.138 2.54002 1.82899 0
M  V30 4601 C 435.613 3.85078 2.47949 0
M  V30 4602 N 437.104 3.86413 2.5542 0
M  V30 4603 C 437.839 4.84572 3.06557 0
M  V30 4604 N 437.335 5.93124 3.58016 0
M  V30 4605 N 439.128 4.71994 3.05251 0
M  V30 4606 H 431.279 2.11668 0.176238 0
M  V30 4607 H 433.542 0.937486 0.140796 0
M  V30 4608 H 433.248 3.34059 1.09989 0
M  V30 4609 H 433.122 2.63319 2.70079 0
M  V30 4610 H 435.509 1.68018 2.42598 0
M  V30 4611 H 435.59 2.42239 0.821808 0
M  V30 4612 H 435.234 4.71467 1.88895 0
M  V30 4613 H 435.164 3.94135 3.49235 0
M  V30 4614 H 437.655 3.07988 2.18979 0
M  V30 4615 H 437.968 6.63999 3.95381 0
M  V30 4616 H 436.313 5.96796 3.56173 0
M  V30 4617 H 439.504 3.86321 2.64336 0
M  V30 4618 H 439.677 5.48653 3.44796 0
M  V30 4619 N 433.083 -1.0153 1.20538 0
M  V30 4620 C 434.33 -1.75149 1.01633 0
M  V30 4621 C 434.658 -1.89189 -0.451399 0
M  V30 4622 O 433.913 -1.41551 -1.35136 0
M  V30 4623 C 434.212 -3.17213 1.64654 0
M  V30 4624 C 433.878 -3.23146 3.14464 0
M  V30 4625 C 432.54 -3.24472 3.55347 0
M  V30 4626 C 434.892 -3.21207 4.10458 0
M  V30 4627 C 432.22 -3.21532 4.90748 0
M  V30 4628 C 434.572 -3.19808 5.45807 0
M  V30 4629 C 433.236 -3.19439 5.86102 0
M  V30 4630 H 432.506 -0.640914 0.3719 0
M  V30 4631 H 435.153 -1.19071 1.49981 0
M  V30 4632 H 433.458 -3.76457 1.08571 0
M  V30 4633 H 435.155 -3.72871 1.4754 0
M  V30 4634 H 431.745 -3.2285 2.81897 0
M  V30 4635 H 435.929 -3.19351 3.79906 0
M  V30 4636 H 431.185 -3.19578 5.21229 0
M  V30 4637 H 435.359 -3.1726 6.19935 0
M  V30 4638 H 432.986 -3.16915 6.90991 0
M  V30 4639 N 434.561 -1.01147 -1.20859 0
M  V30 4640 C 435.807 -0.708598 -1.90658 0
M  V30 4641 C 436.162 0.753069 -1.7705 0
M  V30 4642 O 435.455 1.53952 -1.14059 0
M  V30 4643 C 435.649 -1.0727 -3.40922 0
M  V30 4644 C 435.478 -2.56821 -3.69152 0
M  V30 4645 C 434.248 -3.23524 -3.8815 0
M  V30 4646 C 436.446 -3.54997 -3.72131 0
M  V30 4647 N 434.428 -4.62359 -4.03853 0
M  V30 4648 C 435.799 -4.79371 -3.93196 0
M  V30 4649 C 437.854 -3.49042 -3.55069 0
M  V30 4650 C 436.557 -5.98512 -3.98969 0
M  V30 4651 C 438.583 -4.67579 -3.6211 0
M  V30 4652 C 437.945 -5.9076 -3.83643 0
M  V30 4653 H 434.044 -0.31088 -0.71755 0
M  V30 4654 H 436.628 -1.29526 -1.45366 0
M  V30 4655 H 434.799 -0.51443 -3.84978 0
M  V30 4656 H 436.531 -0.723891 -3.98173 0
M  V30 4657 H 433.286 -2.73958 -3.86321 0
M  V30 4658 H 433.71 -5.34427 -4.15592 0
M  V30 4659 H 438.352 -2.54808 -3.37391 0
M  V30 4660 H 436.07 -6.93132 -4.15444 0
M  V30 4661 H 439.656 -4.64581 -3.50222 0
M  V30 4662 H 438.536 -6.8095 -3.88944 0
M  V30 4663 N 436.039 1.36541 -0.78704 0
M  V30 4664 C 436.971 2.28761 -0.141773 0
M  V30 4665 C 437.984 1.49365 0.647599 0
M  V30 4666 O 439.173 1.71836 0.483173 0
M  V30 4667 C 436.273 3.28771 0.822368 0
M  V30 4668 C 435.446 4.3732 0.0835594 0
M  V30 4669 C 434.505 5.17307 0.963296 0
M  V30 4670 O 433.531 5.67638 0.421419 0
M  V30 4671 N 434.733 5.33515 2.28784 0
M  V30 4672 H 437.498 2.84777 -0.933919 0
M  V30 4673 H 435.059 1.48682 -0.640735 0
M  V30 4674 H 437.051 3.79169 1.41468 0
M  V30 4675 H 435.621 2.73412 1.5154 0
M  V30 4676 H 434.841 3.88118 -0.689809 0
M  V30 4677 H 436.129 5.0701 -0.426358 0
M  V30 4678 H 435.527 4.94234 2.75226 0
M  V30 4679 H 434.084 5.87165 2.82985 0
M  V30 4680 N 437.518 0.538854 1.48102 0
M  V30 4681 C 438.743 0.0102694 2.07397 0
M  V30 4682 C 439.168 -1.26562 1.39153 0
M  V30 4683 O 438.526 -1.75357 0.460387 0
M  V30 4684 C 438.574 -0.187602 3.60112 0
M  V30 4685 O 437.678 -1.25432 3.92862 0
M  V30 4686 H 437.019 0.0430975 0.6626 0
M  V30 4687 H 439.549 0.749301 1.90385 0
M  V30 4688 H 439.559 -0.407517 4.0596 0
M  V30 4689 H 438.234 0.744386 4.09184 0
M  V30 4690 H 436.811 -1.01636 3.58782 0
M  V30 4691 N 438.996 -1.55193 0.274407 0
M  V30 4692 C 439.928 -2.1989 -0.646595 0
M  V30 4693 C 440.941 -1.1834 -1.11801 0
M  V30 4694 O 442.13 -1.4507 -1.04004 0
M  V30 4695 C 439.23 -2.8104 -1.89393 0
M  V30 4696 C 438.403 -4.08274 -1.56943 0
M  V30 4697 C 437.462 -4.53478 -2.66916 0
M  V30 4698 O 436.488 -5.19267 -2.33132 0
M  V30 4699 N 437.69 -4.2356 -3.9696 0
M  V30 4700 H 440.455 -2.99556 -0.0928686 0
M  V30 4701 H 438.016 -1.61618 0.0954783 0
M  V30 4702 H 440.008 -3.08226 -2.62257 0
M  V30 4703 H 438.578 -2.05372 -2.35672 0
M  V30 4704 H 437.798 -3.88384 -0.674655 0
M  V30 4705 H 439.086 -4.91173 -1.32764 0
M  V30 4706 H 438.484 -3.70799 -4.27229 0
M  V30 4707 H 437.041 -4.55518 -4.66205 0
M  V30 4708 N 440.474 -0.00167713 -1.576 0
M  V30 4709 C 441.404 0.988091 -2.11563 0
M  V30 4710 C 442.385 1.35736 -1.02517 0
M  V30 4711 O 443.57 1.44082 -1.30208 0
M  V30 4712 C 440.7 2.27941 -2.62031 0
M  V30 4713 C 439.654 2.0517 -3.75619 0
M  V30 4714 C 438.98 3.4033 -4.12407 0
M  V30 4715 C 440.28 1.41294 -5.02825 0
M  V30 4716 H 441.974 0.538771 -2.94513 0
M  V30 4717 H 439.52 0.257712 -1.41675 0
M  V30 4718 H 441.473 2.97539 -2.9841 0
M  V30 4719 H 440.197 2.74989 -1.76205 0
M  V30 4720 H 438.856 1.37998 -3.39635 0
M  V30 4721 H 438.504 3.85085 -3.23603 0
M  V30 4722 H 438.204 3.25909 -4.88935 0
M  V30 4723 H 439.728 4.1124 -4.51347 0
M  V30 4724 H 441.142 2.00851 -5.36965 0
M  V30 4725 H 439.539 1.37356 -5.84169 0
M  V30 4726 H 440.609 0.382362 -4.8339 0
M  V30 4727 N 441.952 1.55251 0.271103 0
M  V30 4728 C 443.177 1.80306 1.02491 0
M  V30 4729 C 443.602 0.575457 1.79081 0
M  V30 4730 O 442.96 -0.474987 1.74967 0
M  V30 4731 C 443.008 3.02832 1.95768 0
M  V30 4732 O 442.112 2.78051 3.04568 0
M  V30 4733 H 441.453 0.595896 0.292923 0
M  V30 4734 H 443.983 2.02397 0.299436 0
M  V30 4735 H 443.993 3.31616 2.37686 0
M  V30 4736 H 442.668 3.9183 1.39434 0
M  V30 4737 H 441.245 2.60369 2.66951 0
M  V30 4738 N 443.43 -0.535701 1.48216 0
M  V30 4739 C 444.67 -1.30238 1.57536 0
M  V30 4740 C 445.034 -1.90479 0.241229 0
M  V30 4741 O 446.235 -2.67983 0.20938 0
M  V30 4742 C 444.506 -2.3669 2.67792 0
M  V30 4743 S 446.065 -3.23159 2.9684 0
M  V30 4744 H 442.883 -0.443093 0.556048 0
M  V30 4745 H 445.485 -0.610937 1.85709 0
M  V30 4746 H 444.189 -1.90905 3.63296 0
M  V30 4747 H 443.72 -3.10548 2.41502 0
M  V30 4748 H 445.735 -4.36647 2.35699 0
M  V30 4749 N 444.908 -1.36708 -0.784132 0
M  V30 4750 C 445.838 -1.34153 -1.91116 0
M  V30 4751 C 446.819 -0.212121 -1.68772 0
M  V30 4752 O 448.004 -0.410581 -1.8981 0
M  V30 4753 C 445.134 -1.13535 -3.28218 0
M  V30 4754 C 444.088 -2.23356 -3.65097 0
M  V30 4755 C 443.414 -1.87875 -5.00607 0
M  V30 4756 C 444.714 -3.65473 -3.73131 0
M  V30 4757 H 446.408 -2.28459 -1.93512 0
M  V30 4758 H 443.954 -1.09973 -0.929618 0
M  V30 4759 H 445.907 -1.10381 -4.06687 0
M  V30 4760 H 444.631 -0.156804 -3.26223 0
M  V30 4761 H 443.29 -2.25645 -2.88929 0
M  V30 4762 H 442.938 -0.885814 -4.95139 0
M  V30 4763 H 442.638 -2.61406 -5.26252 0
M  V30 4764 H 444.162 -1.86286 -5.81489 0
M  V30 4765 H 445.576 -3.65382 -4.41779 0
M  V30 4766 H 443.973 -4.37953 -4.10265 0
M  V30 4767 H 445.043 -3.99995 -2.74102 0
M  V30 4768 N 446.386 1.0089 -1.21074 0
M  V30 4769 C 447.634 1.74262 -1.02358 0
M  V30 4770 C 447.955 1.89869 0.444393 0
M  V30 4771 O 447.225 1.44677 1.32081 0
M  V30 4772 H 445.805 0.645615 -0.375754 0
M  V30 4773 H 448.467 1.21596 -1.52317 0
M  V30 4774 H 447.563 2.74328 -1.4883 0
M  V30 4775 N 447.864 1.01787 1.20321 0
M  V30 4776 C 448.811 0.589197 2.23153 0
M  V30 4777 C 449.781 -0.391367 1.61423 0
M  V30 4778 O 450.966 -0.290518 1.88575 0
M  V30 4779 C 448.106 -0.0650747 3.45039 0
M  V30 4780 C 447.219 0.960207 4.21194 0
M  V30 4781 C 446.354 0.276854 5.30478 0
M  V30 4782 C 445.393 1.2888 5.98378 0
M  V30 4783 N 444.53 0.632031 6.99249 0
M  V30 4784 H 449.37 1.47071 2.59179 0
M  V30 4785 H 446.907 0.736192 1.27352 0
M  V30 4786 H 448.865 -0.461552 4.14639 0
M  V30 4787 H 447.495 -0.910233 3.09701 0
M  V30 4788 H 446.547 1.47484 3.50646 0
M  V30 4789 H 447.859 1.72977 4.67847 0
M  V30 4790 H 447.013 -0.175056 6.06447 0
M  V30 4791 H 445.752 -0.525004 4.84866 0
M  V30 4792 H 444.757 1.75109 5.21169 0
M  V30 4793 H 445.982 2.09196 6.46076 0
M  V30 4794 H 443.928 -0.149935 6.55829 0
M  V30 4795 H 443.845 1.33964 7.44036 0
M  V30 4796 H 445.113 0.203755 7.79234 0
M  V30 4797 N 449.342 -1.36122 0.79427 0
M  V30 4798 C 450.588 -1.99406 0.369452 0
M  V30 4799 C 450.921 -1.62886 -1.05743 0
M  V30 4800 O 450.196 -0.886053 -1.73145 0
M  V30 4801 C 450.479 -3.56046 0.538833 0
M  V30 4802 C 450.332 -4.02404 2.00976 0
M  V30 4803 C 451.651 -4.40079 -0.0431359 0
M  V30 4804 H 448.77 -0.724397 0.135712 0
M  V30 4805 H 451.412 -1.61461 1.00151 0
M  V30 4806 H 449.562 -3.885 0.000771004 0
M  V30 4807 H 451.234 -3.80415 2.60926 0
M  V30 4808 H 449.477 -3.53765 2.51063 0
M  V30 4809 H 450.148 -5.11344 2.07922 0
M  V30 4810 H 452.624 -4.14013 0.416228 0
M  V30 4811 H 451.5 -5.48799 0.105374 0
M  V30 4812 H 451.761 -4.27264 -1.13571 0
M  V30 4813 N 450.82 -0.546701 -1.47814 0
M  V30 4814 C 452.069 -0.0166497 -2.01693 0
M  V30 4815 C 452.382 1.33721 -1.42752 0
M  V30 4816 O 453.588 1.95658 -1.8823 0
M  V30 4817 C 452.044 0.0206769 -3.59894 0
M  V30 4818 C 451.652 -1.3293 -4.27824 0
M  V30 4819 C 453.396 0.498674 -4.21561 0
M  V30 4820 C 451.303 -1.25165 -5.78003 0
M  V30 4821 H 450.233 -0.0024541 -0.753996 0
M  V30 4822 H 452.884 -0.692984 -1.69912 0
M  V30 4823 H 451.266 0.76244 -3.88591 0
M  V30 4824 H 452.44 -2.08795 -4.10781 0
M  V30 4825 H 450.755 -1.74438 -3.78101 0
M  V30 4826 H 453.352 0.575 -5.31599 0
M  V30 4827 H 453.695 1.5083 -3.88016 0
M  V30 4828 H 454.228 -0.18791 -3.97356 0
M  V30 4829 H 450.967 -2.23695 -6.1615 0
M  V30 4830 H 450.487 -0.53464 -5.97412 0
M  V30 4831 H 452.166 -0.949299 -6.39998 0
M  V30 4832 N 452.299 1.55045 -0.282633 0
M  V30 4833 C 453.71 1.85473 0.213655 0
M  V30 4834 C 454.061 1.20465 1.54863 0
M  V30 4835 O 453.186 0.495676 2.10647 0
M  V30 4836 C 453.781 3.36496 0.394445 0
M  V30 4837 C 452.34 3.67022 0.834961 0
M  V30 4838 C 451.487 2.77218 -0.0674081 0
M  V30 4839 H 454.438 1.50478 -0.504202 0
M  V30 4840 H 454.459 3.60007 1.23186 0
M  V30 4841 H 453.971 3.83782 -0.577326 0
M  V30 4842 H 452.072 3.25241 1.81794 0
M  V30 4843 H 452.185 4.74433 0.667075 0
M  V30 4844 H 450.549 2.5069 0.450196 0
M  V30 4845 H 451.332 3.2732 -1.0352 0
M  V30 4846 N 453.777 0.010035 1.57597 0
M  V30 4847 C 455.023 -0.673697 1.91283 0
M  V30 4848 C 455.356 -1.72863 0.884979 0
M  V30 4849 O 454.631 -1.94268 -0.0949487 0
M  V30 4850 C 454.914 -1.30766 3.35518 0
M  V30 4851 C 454.767 -0.263578 4.49027 0
M  V30 4852 C 456.086 -2.23105 3.79358 0
M  V30 4853 H 453.205 -0.243439 0.695634 0
M  V30 4854 H 455.847 0.0633864 1.89894 0
M  V30 4855 H 453.997 -1.93588 3.36832 0
M  V30 4856 H 455.669 0.365738 4.59848 0
M  V30 4857 H 453.912 0.413077 4.31829 0
M  V30 4858 H 454.583 -0.746398 5.4693 0
M  V30 4859 H 457.059 -1.70289 3.79659 0
M  V30 4860 H 455.935 -2.64424 4.81011 0
M  V30 4861 H 456.196 -3.11433 3.13787 0
M  V30 4862 N 455.255 -1.55392 -0.262866 0
M  V30 4863 C 456.218 -1.88181 -1.30846 0
M  V30 4864 C 457.218 -0.757079 -1.41862 0
M  V30 4865 O 458.408 -1.02519 -1.40838 0
M  V30 4866 C 455.54 -2.09609 -2.68844 0
M  V30 4867 H 456.733 -2.81659 -1.02997 0
M  V30 4868 H 454.286 -1.48039 -0.501414 0
M  V30 4869 H 455.021 -1.18547 -3.01856 0
M  V30 4870 H 454.806 -2.91508 -2.62231 0
M  V30 4871 H 456.296 -2.36215 -3.44372 0
M  V30 4872 N 456.733 0.527833 -1.48498 0
M  V30 4873 C 457.961 1.30823 -1.6029 0
M  V30 4874 C 458.376 1.86945 -0.263974 0
M  V30 4875 O 457.733 1.6651 0.747034 0
M  V30 4876 C 457.784 2.45756 -2.65116 0
M  V30 4877 O 457.505 1.91946 -3.93813 0
M  V30 4878 C 459.006 3.37543 -2.87367 0
M  V30 4879 H 456.226 0.397763 -0.540394 0
M  V30 4880 H 458.77 0.636529 -1.94341 0
M  V30 4881 H 456.925 3.08806 -2.33917 0
M  V30 4882 H 457.339 2.67195 -4.51339 0
M  V30 4883 H 458.813 4.14532 -3.6451 0
M  V30 4884 H 459.29 3.92905 -1.9627 0
M  V30 4885 H 459.896 2.80283 -3.19878 0
M  V30 4886 N 458.211 1.37122 0.776871 0
M  V30 4887 C 459.161 1.28989 1.88005 0
M  V30 4888 C 460.145 0.178765 1.59904 0
M  V30 4889 O 461.337 0.412705 1.72121 0
M  V30 4890 C 458.466 1.09402 3.25402 0
M  V30 4891 C 457.552 2.25036 3.59471 0
M  V30 4892 N 457.943 3.50407 3.64759 0
M  V30 4893 C 456.241 2.17078 3.89607 0
M  V30 4894 C 456.942 4.26628 3.95428 0
M  V30 4895 N 455.918 3.55709 4.11062 0
M  V30 4896 H 459.72 2.2394 1.90337 0
M  V30 4897 H 457.234 1.30021 0.973052 0
M  V30 4898 H 459.231 1.01661 4.04315 0
M  V30 4899 H 457.891 0.153632 3.24336 0
M  V30 4900 H 458.902 3.8438 3.47091 0
M  V30 4901 H 455.579 1.31067 3.96393 0
M  V30 4902 H 456.969 5.35107 4.06338 0
M  V30 4903 N 459.689 -1.00246 1.21608 0
M  V30 4904 C 460.619 -2.10921 1.00172 0
M  V30 4905 C 461.6 -1.69938 -0.0741587 0
M  V30 4906 O 462.785 -1.94009 0.0861753 0
M  V30 4907 C 459.915 -3.42618 0.568355 0
M  V30 4908 C 458.869 -3.97407 1.58909 0
M  V30 4909 C 458.195 -5.25038 1.01187 0
M  V30 4910 C 459.495 -4.2918 2.97661 0
M  V30 4911 H 461.189 -2.29112 1.92739 0
M  V30 4912 H 458.735 -1.10101 0.928102 0
M  V30 4913 H 460.688 -4.19444 0.405555 0
M  V30 4914 H 459.412 -3.24227 -0.392961 0
M  V30 4915 H 458.071 -3.22703 1.73949 0
M  V30 4916 H 457.719 -5.02982 0.0421965 0
M  V30 4917 H 457.419 -5.62661 1.6937 0
M  V30 4918 H 458.943 -6.04507 0.860448 0
M  V30 4919 H 460.357 -4.96839 2.86049 0
M  V30 4920 H 458.754 -4.77952 3.6288 0
M  V30 4921 H 459.824 -3.3735 3.48315 0
M  V30 4922 N 461.167 -1.02423 -1.1978 0
M  V30 4923 C 462.097 -0.62157 -2.25075 0
M  V30 4924 C 463.078 0.367148 -1.6609 0
M  V30 4925 O 464.263 0.250892 -1.92573 0
M  V30 4926 C 461.393 0.0331826 -3.47284 0
M  V30 4927 C 460.347 -0.877323 -4.18912 0
M  V30 4928 C 459.673 -0.0879296 -5.34628 0
M  V30 4929 C 460.973 -2.18892 -4.74219 0
M  V30 4930 H 462.667 -1.50179 -2.59011 0
M  V30 4931 H 460.213 -0.723547 -1.24502 0
M  V30 4932 H 462.166 0.326488 -4.20133 0
M  V30 4933 H 460.89 0.948164 -3.12534 0
M  V30 4934 H 459.549 -1.15475 -3.47938 0
M  V30 4935 H 459.197 0.828941 -4.96123 0
M  V30 4936 H 458.897 -0.694359 -5.83483 0
M  V30 4937 H 460.421 0.198743 -6.10276 0
M  V30 4938 H 461.835 -1.95746 -5.38847 0
M  V30 4939 H 460.232 -2.74686 -5.33542 0
M  V30 4940 H 461.302 -2.84674 -3.92541 0
M  V30 4941 N 462.645 1.35699 -0.801477 0
M  V30 4942 C 463.593 2.3177 -0.196317 0
M  V30 4943 C 464.587 1.56388 0.651081 0
M  V30 4944 O 465.793 1.71557 0.544815 0
M  V30 4945 H 462.168 0.750669 -0.0447189 0
M  V30 4946 H 464.139 2.8036 -1.02181 0
M  V30 4947 C 462.888 3.41671 0.644702 0
M  V30 4948 H 462.211 3.998 0.0019921 0
M  V30 4949 H 463.651 4.11184 1.0346 0
M  V30 4950 C 462.11 2.84271 1.80808 0
M  V30 4951 O 462.64 2.77408 2.9053 0
M  V30 4952 N 460.846 2.41391 1.61799 0
M  V30 4953 H 460.393 2.47173 0.725493 0
M  V30 4954 H 460.351 2.03334 2.39797 0
M  V30 4955 N 464.123 0.554532 1.47522 0
M  V30 4956 C 465.071 -0.207765 2.3167 0
M  V30 4957 C 466.065 -0.911914 1.4276 0
M  V30 4958 O 467.271 -0.833504 1.59539 0
M  V30 4959 H 463.646 -0.0858726 0.747081 0
M  V30 4960 H 465.617 0.521178 2.93813 0
M  V30 4961 C 464.366 -1.2263 3.25357 0
M  V30 4962 H 463.689 -0.693887 3.93732 0
M  V30 4963 H 465.129 -1.73062 3.87073 0
M  V30 4964 C 463.588 -2.27278 2.4869 0
M  V30 4965 O 464.118 -3.34156 2.22941 0
M  V30 4966 N 462.324 -2.01134 2.09746 0
M  V30 4967 H 461.871 -1.14232 2.30887 0
M  V30 4968 H 461.829 -2.71369 1.58765 0
M  V30 4969 N 465.601 -1.54893 0.290851 0
M  V30 4970 C 466.849 -1.99538 -0.320756 0
M  V30 4971 C 467.17 -1.18075 -1.55188 0
M  V30 4972 O 466.44 -0.274162 -1.93972 0
M  V30 4973 H 465.02 -0.737052 -0.121507 0
M  V30 4974 H 467.682 -1.90755 0.399832 0
M  V30 4975 H 466.778 -3.06282 -0.599802 0
M  V30 4976 N 467.08 -0.0183926 -1.57589 0
M  V30 4977 C 468.305 0.676634 -1.96052 0
M  V30 4978 C 468.73 1.6548 -0.894307 0
M  V30 4979 O 468.088 1.80712 0.145849 0
M  V30 4980 C 468.136 1.36872 -3.33614 0
M  V30 4981 O 467.24 2.48372 -3.29219 0
M  V30 4982 H 466.581 0.1786 -0.63953 0
M  V30 4983 H 469.111 -0.077056 -2.04455 0
M  V30 4984 H 469.121 1.72797 -3.69601 0
M  V30 4985 H 467.796 0.651636 -4.10763 0
M  V30 4986 H 466.373 2.14639 -3.04934 0
M  V30 4987 N 468.558 1.5553 0.254621 0
M  V30 4988 C 469.806 1.7665 0.981793 0
M  V30 4989 C 470.127 0.580963 1.86145 0
M  V30 4990 O 469.397 -0.403537 1.91699 0
M  V30 4991 H 467.977 0.651475 0.365498 0
M  V30 4992 H 470.639 1.92958 0.274426 0
M  V30 4993 H 469.735 2.67486 1.60802 0
M  V30 4994 N 470.036 -0.519951 1.48776 0
M  V30 4995 C 471.282 -1.27711 1.57536 0
M  V30 4996 C 471.615 -1.92547 0.252866 0
M  V30 4997 O 470.89 -1.7979 -0.742021 0
M  V30 4998 C 471.173 -2.35875 2.72094 0
M  V30 4999 C 471.026 -1.75664 4.1408 0
M  V30 5000 C 472.345 -3.37575 2.82367 0
M  V30 5001 H 469.464 -0.462971 0.573434 0
M  V30 5002 H 472.106 -0.578194 1.80989 0
M  V30 5003 H 470.256 -2.95488 2.52228 0
M  V30 5004 H 471.928 -1.20025 4.45412 0
M  V30 5005 H 470.171 -1.06154 4.20611 0
M  V30 5006 H 470.842 -2.54029 4.90075 0
M  V30 5007 H 473.318 -2.87929 3.00393 0
M  V30 5008 H 472.194 -4.1064 3.64233 0
M  V30 5009 H 472.455 -3.98743 1.90936 0
M  V30 5010 N 471.514 -1.37532 -0.769588 0
M  V30 5011 C 472.762 -1.32597 -1.5252 0
M  V30 5012 C 473.083 0.0884294 -1.94799 0
M  V30 5013 O 472.353 1.03289 -1.66458 0
M  V30 5014 H 470.933 -0.487846 -0.565699 0
M  V30 5015 H 473.595 -1.72044 -0.915806 0
M  V30 5016 H 472.691 -1.96643 -2.42359 0
M  V30 5017 N 472.992 0.995999 -1.22138 0
M  V30 5018 C 474.238 1.73767 -1.04561 0
M  V30 5019 C 474.571 1.89633 0.418698 0
M  V30 5020 O 473.846 1.43723 1.3105 0
M  V30 5021 C 474.129 3.14505 -1.75382 0
M  V30 5022 C 473.982 3.06306 -3.29388 0
M  V30 5023 C 475.301 4.13615 -1.50369 0
M  V30 5024 H 472.42 0.630728 -0.38125 0
M  V30 5025 H 475.062 1.16057 -1.50435 0
M  V30 5026 H 473.212 3.63775 -1.36383 0
M  V30 5027 H 474.884 2.64681 -3.77812 0
M  V30 5028 H 473.127 2.43186 -3.59226 0
M  V30 5029 H 473.798 4.05884 -3.74116 0
M  V30 5030 H 476.274 3.73089 -1.84239 0
M  V30 5031 H 475.15 5.10212 -2.02421 0
M  V30 5032 H 475.411 4.39949 -0.435611 0
M  V30 5033 N 474.47 1.03057 1.19235 0
M  V30 5034 C 475.4 0.633497 2.24742 0
M  V30 5035 C 476.381 -0.358335 1.66283 0
M  V30 5036 O 477.566 -0.240676 1.92703 0
M  V30 5037 C 474.696 -0.0147648 3.47297 0
M  V30 5038 C 473.65 0.899527 4.18441 0
M  V30 5039 C 472.976 0.116281 5.34574 0
M  V30 5040 C 474.276 2.21404 4.73051 0
M  V30 5041 H 475.97 1.5155 2.58211 0
M  V30 5042 H 473.516 0.73014 1.24117 0
M  V30 5043 H 475.469 -0.304202 4.20301 0
M  V30 5044 H 474.193 -0.931577 3.13032 0
M  V30 5045 H 472.852 1.17319 3.47321 0
M  V30 5046 H 472.5 -0.802619 4.96555 0
M  V30 5047 H 472.2 0.725293 5.83107 0
M  V30 5048 H 473.724 -0.166376 6.10373 0
M  V30 5049 H 475.138 1.98601 5.37802 0
M  V30 5050 H 473.535 2.77512 5.32078 0
M  V30 5051 H 474.605 2.86752 3.91026 0
M  V30 5052 N 475.948 -1.35272 0.808662 0
M  V30 5053 C 476.88 -2.28507 0.178149 0
M  V30 5054 C 477.893 -1.50377 -0.623754 0
M  V30 5055 O 479.082 -1.72583 -0.455774 0
M  V30 5056 C 476.182 -3.30038 -0.769959 0
M  V30 5057 C 475.355 -4.37398 -0.0139749 0
M  V30 5058 C 474.414 -5.18775 -0.880875 0
M  V30 5059 O 473.44 -5.68236 -0.331059 0
M  V30 5060 N 474.642 -5.37087 -2.20267 0
M  V30 5061 H 477.407 -2.83255 0.979106 0
M  V30 5062 H 474.968 -1.47643 0.664308 0
M  V30 5063 H 476.96 -3.81371 -1.35418 0
M  V30 5064 H 475.53 -2.75789 -1.47171 0
M  V30 5065 H 474.75 -3.86971 0.751468 0
M  V30 5066 H 476.038 -5.06268 0.506965 0
M  V30 5067 H 475.436 -4.9855 -2.67328 0
M  V30 5068 H 473.993 -5.91593 -2.73608 0
M  V30 5069 N 477.426 -0.562348 -1.47226 0
M  V30 5070 C 478.666 -0.0426374 -2.04356 0
M  V30 5071 C 479.03 1.28487 -1.42671 0
M  V30 5072 O 480.231 1.89259 -1.90878 0
M  V30 5073 C 478.502 0.0433826 -3.57374 0
M  V30 5074 S 480.061 0.508472 -4.35844 0
M  V30 5075 H 476.879 -0.0276234 -0.710463 0
M  V30 5076 H 479.481 -0.750245 -1.80531 0
M  V30 5077 H 478.185 -0.927072 -3.99792 0
M  V30 5078 H 477.716 0.774387 -3.85703 0
M  V30 5079 H 479.731 1.76719 -4.63665 0
M  V30 5080 N 478.904 1.54736 -0.299062 0
M  V30 5081 C 479.834 2.26409 0.571085 0
M  V30 5082 C 480.815 1.2629 1.13951 0
M  V30 5083 O 482 1.55059 1.16921 0
M  V30 5084 C 479.13 3.00338 1.74396 0
M  V30 5085 C 478.084 4.07588 1.30599 0
M  V30 5086 C 477.41 4.69222 2.56387 0
M  V30 5087 C 478.71 5.20455 0.438645 0
M  V30 5088 H 480.404 2.99388 -0.0266991 0
M  V30 5089 H 477.95 1.43993 -0.0142812 0
M  V30 5090 H 479.903 3.49198 2.35878 0
M  V30 5091 H 478.627 2.24934 2.36796 0
M  V30 5092 H 477.286 3.59575 0.71424 0
M  V30 5093 H 476.934 3.9046 3.17097 0
M  V30 5094 H 476.634 5.41653 2.27784 0
M  V30 5095 H 478.158 5.20844 3.18675 0
M  V30 5096 H 479.572 5.65221 0.959085 0
M  V30 5097 H 477.969 5.99594 0.246466 0
M  V30 5098 H 479.039 4.8192 -0.536738 0
M  V30 5099 N 480.382 0.0267497 1.57577 0
M  V30 5100 C 481.292 -0.971633 2.13533 0
M  V30 5101 C 482.308 -1.35868 1.08701 0
M  V30 5102 O 483.484 -1.44058 1.40746 0
M  V30 5103 C 480.549 -2.23622 2.64941 0
M  V30 5104 C 479.61 -1.90982 3.8448 0
M  V30 5105 C 478.843 -3.11411 4.33427 0
M  V30 5106 O 479.066 -4.23992 3.81558 0
M  V30 5107 O 478 -2.93848 5.25297 0
M  V30 5108 H 481.826 -0.525853 2.99113 0
M  V30 5109 H 479.411 -0.193712 1.48139 0
M  V30 5110 H 481.293 -2.97864 2.98086 0
M  V30 5111 H 479.968 -2.67386 1.82446 0
M  V30 5112 H 478.875 -1.14132 3.56265 0
M  V30 5113 H 480.208 -1.52036 4.6813 0
M  V30 5114 N 481.861 -1.55662 -0.24637 0
M  V30 5115 C 482.811 -1.86753 -1.30795 0
M  V30 5116 C 483.795 -0.728445 -1.43466 0
M  V30 5117 O 484.987 -0.99038 -1.46699 0
M  V30 5118 C 482.116 -2.16618 -2.66329 0
M  V30 5119 C 481.202 -3.36855 -2.57661 0
M  V30 5120 N 481.593 -4.56111 -2.18624 0
M  V30 5121 C 479.891 -3.39976 -2.88673 0
M  V30 5122 C 480.592 -5.38247 -2.20601 0
M  V30 5123 N 479.568 -4.77322 -2.60124 0
M  V30 5124 H 483.37 -2.76486 -0.996642 0
M  V30 5125 H 480.884 -1.55896 -0.454994 0
M  V30 5126 H 482.881 -2.37057 -3.42942 0
M  V30 5127 H 481.541 -1.28185 -2.98327 0
M  V30 5128 H 482.552 -4.81726 -1.9016 0
M  V30 5129 H 479.229 -2.61815 -3.25206 0
M  V30 5130 H 480.619 -6.43657 -1.92756 0
M  V30 5131 N 483.339 0.512053 -1.4905 0
M  V30 5132 C 484.272 1.63209 -1.59493 0
M  V30 5133 C 485.25 1.56407 -0.444481 0
M  V30 5134 O 486.434 1.76623 -0.658535 0
M  V30 5135 C 483.561 3.01685 -1.53961 0
M  V30 5136 C 482.607 3.26786 -2.74068 0
M  V30 5137 S 483.44 3.11107 -4.35859 0
M  V30 5138 C 484.596 4.51997 -4.32954 0
M  V30 5139 H 484.829 1.54104 -2.54243 0
M  V30 5140 H 482.362 0.696382 -1.37804 0
M  V30 5141 H 484.32 3.81538 -1.51455 0
M  V30 5142 H 482.981 3.08215 -0.605178 0
M  V30 5143 H 482.174 4.27849 -2.66386 0
M  V30 5144 H 481.776 2.54635 -2.73928 0
M  V30 5145 H 484.068 5.43871 -4.03993 0
M  V30 5146 H 485.011 4.64731 -5.34257 0
M  V30 5147 H 485.419 4.32159 -3.63178 0
M  V30 5148 N 484.817 1.37938 0.762283 0
M  V30 5149 C 486.066 1.32989 1.51647 0
M  V30 5150 C 486.379 -0.0802922 1.95435 0
M  V30 5151 O 487.585 -0.252295 2.70325 0
M  V30 5152 C 486.041 2.33485 2.73885 0
M  V30 5153 C 485.649 3.80079 2.37157 0
M  V30 5154 C 487.393 2.37563 3.51801 0
M  V30 5155 C 485.3 4.72283 3.55954 0
M  V30 5156 H 484.23 0.494301 0.56937 0
M  V30 5157 H 486.881 1.63448 0.834083 0
M  V30 5158 H 485.263 1.96056 3.44061 0
M  V30 5159 H 486.437 4.26398 1.74704 0
M  V30 5160 H 484.752 3.79037 1.72395 0
M  V30 5161 H 487.349 3.0365 4.40114 0
M  V30 5162 H 487.692 1.39199 3.92338 0
M  V30 5163 H 488.225 2.73747 2.8863 0
M  V30 5164 H 484.964 5.7181 3.2049 0
M  V30 5165 H 484.484 4.30663 4.1748 0
M  V30 5166 H 486.163 4.89876 4.22647 0
M  V30 5167 N 486.295 -0.989507 1.22664 0
M  V30 5168 C 487.543 -1.72612 1.05117 0
M  V30 5169 C 487.864 -1.90552 -0.414131 0
M  V30 5170 O 487.134 -1.4676 -1.29762 0
M  V30 5171 H 485.714 -0.639555 0.385977 0
M  V30 5172 H 488.376 -1.19158 1.54232 0
M  V30 5173 H 487.472 -2.71926 1.53175 0
M  V30 5174 N 487.773 -1.03688 -1.18687 0
M  V30 5175 C 488.736 -0.629115 -2.20397 0
M  V30 5176 C 489.736 0.311495 -1.57754 0
M  V30 5177 O 490.926 0.0974107 -1.73927 0
M  V30 5178 C 488.058 0.0782231 -3.4081 0
M  V30 5179 H 489.251 -1.52915 -2.57987 0
M  V30 5180 H 486.804 -0.828988 -1.32505 0
M  V30 5181 H 487.539 0.992233 -3.08748 0
M  V30 5182 H 487.324 -0.597776 -3.87517 0
M  V30 5183 H 488.814 0.350156 -4.16129 0
M  V30 5184 N 489.251 1.34841 -0.815825 0
M  V30 5185 C 490.497 1.98793 -0.401129 0
M  V30 5186 C 490.83 1.64548 1.03139 0
M  V30 5187 O 490.105 0.913487 1.71714 0
M  V30 5188 C 490.388 3.55143 -0.595409 0
M  V30 5189 C 490.241 3.99155 -2.07352 0
M  V30 5190 C 491.56 4.40092 -0.0268823 0
M  V30 5191 H 488.679 0.722146 -0.14722 0
M  V30 5192 H 491.321 1.59847 -1.02707 0
M  V30 5193 H 489.471 3.8845 -0.0625779 0
M  V30 5194 H 491.143 3.76216 -2.66945 0
M  V30 5195 H 489.386 3.49726 -2.56659 0
M  V30 5196 H 490.057 5.07971 -2.1603 0
M  V30 5197 H 492.533 4.13298 -0.482042 0
M  V30 5198 H 491.409 5.48562 -0.19267 0
M  V30 5199 H 491.67 4.29016 1.06759 0
M  V30 5200 N 490.729 0.570148 1.46925 0
M  V30 5201 C 492.145 0.23087 1.57921 0
M  V30 5202 C 492.345 -1.26676 1.56702 0
M  V30 5203 O 491.401 -2.04774 1.47729 0
M  V30 5204 C 492.714 0.868973 2.8787 0
M  V30 5205 C 494.262 0.841397 3.01479 0
M  V30 5206 C 494.737 1.45881 4.34146 0
M  V30 5207 N 496.228 1.42258 4.40814 0
M  V30 5208 C 496.963 1.8698 5.42057 0
M  V30 5209 N 496.459 2.39618 6.50042 0
M  V30 5210 N 498.252 1.77972 5.33181 0
M  V30 5211 H 490.403 1.54301 1.45962 0
M  V30 5212 H 492.666 0.644224 0.69547 0
M  V30 5213 H 492.372 1.922 2.94537 0
M  V30 5214 H 492.246 0.369682 3.75384 0
M  V30 5215 H 494.633 -0.202973 2.94401 0
M  V30 5216 H 494.714 1.37858 2.15474 0
M  V30 5217 H 494.358 2.50231 4.4198 0
M  V30 5218 H 494.288 0.896958 5.18905 0
M  V30 5219 H 496.779 1.03768 3.63374 0
M  V30 5220 H 497.092 2.71633 7.23488 0
M  V30 5221 H 495.437 2.43636 6.50897 0
M  V30 5222 H 498.628 1.36617 4.4772 0
M  V30 5223 H 498.801 2.13143 6.11943 0
M  V30 5224 N 492.207 -1.54576 0.307264 0
M  V30 5225 C 493.432 -2.05139 -0.305379 0
M  V30 5226 C 493.857 -1.18278 -1.46259 0
M  V30 5227 O 493.215 -0.188243 -1.8032 0
M  V30 5228 C 493.263 -3.53066 -0.733283 0
M  V30 5229 O 492.367 -3.69206 -1.83741 0
M  V30 5230 H 491.708 -0.661444 -0.0582105 0
M  V30 5231 H 494.238 -1.99569 0.450931 0
M  V30 5232 H 494.248 -3.95034 -1.02039 0
M  V30 5233 H 492.923 -4.15746 0.113198 0
M  V30 5234 H 491.5 -3.39143 -1.55037 0
M  V30 5235 N 493.685 -0.035106 -1.57561 0
M  V30 5236 C 494.632 0.94474 -2.10578 0
M  V30 5237 C 495.602 1.3192 -1.00927 0
M  V30 5238 O 496.787 1.41147 -1.28382 0
M  V30 5239 C 493.927 2.21982 -2.64231 0
M  V30 5240 C 493.04 1.90128 -3.87911 0
M  V30 5241 C 492.175 3.11975 -4.29936 0
M  V30 5242 C 491.214 2.75968 -5.46359 0
M  V30 5243 N 490.351 3.90459 -5.83512 0
M  V30 5244 H 495.191 0.485717 -2.94015 0
M  V30 5245 H 492.728 0.228143 -1.4532 0
M  V30 5246 H 494.686 2.96572 -2.9343 0
M  V30 5247 H 493.316 2.6549 -1.83616 0
M  V30 5248 H 492.368 1.05755 -3.65404 0
M  V30 5249 H 493.68 1.59613 -4.72573 0
M  V30 5250 H 492.834 3.9488 -4.60603 0
M  V30 5251 H 491.573 3.45657 -3.44053 0
M  V30 5252 H 490.578 1.91478 -5.1538 0
M  V30 5253 H 491.803 2.43497 -6.33945 0
M  V30 5254 H 489.749 4.23971 -5.00584 0
M  V30 5255 H 489.666 3.63588 -6.62827 0
M  V30 5256 H 490.934 4.7405 -6.18787 0
M  V30 5257 N 495.163 1.55791 0.238111 0
M  V30 5258 C 496.409 1.78297 0.966337 0
M  V30 5259 C 496.742 0.601903 1.84637 0
M  V30 5260 O 496.017 -0.399499 1.90353 0
M  V30 5261 C 496.3 3.10758 1.81939 0
M  V30 5262 C 496.153 4.39283 0.966958 0
M  V30 5263 C 497.472 3.39519 2.80027 0
M  V30 5264 H 494.591 0.648654 0.349882 0
M  V30 5265 H 497.233 1.88525 0.236253 0
M  V30 5266 H 495.383 3.02168 2.44185 0
M  V30 5267 H 497.055 4.59873 0.362514 0
M  V30 5268 H 495.298 4.32948 0.271669 0
M  V30 5269 H 495.969 5.28368 1.59784 0
M  V30 5270 H 498.445 3.48128 2.27917 0
M  V30 5271 H 497.321 4.33402 3.36829 0
M  V30 5272 H 497.582 2.60864 3.56934 0
M  V30 5273 N 496.642 -0.504142 1.49319 0
M  V30 5274 C 497.572 -1.61473 1.68667 0
M  V30 5275 C 498.553 -1.61455 0.535378 0
M  V30 5276 O 499.738 -1.78245 0.770868 0
M  V30 5277 C 496.868 -2.99971 1.75028 0
M  V30 5278 C 495.822 -3.14854 2.89916 0
M  V30 5279 C 495.148 -4.54671 2.81387 0
M  V30 5280 C 496.448 -2.95176 4.30893 0
M  V30 5281 H 498.142 -1.45535 2.61648 0
M  V30 5282 H 495.688 -0.698711 1.25913 0
M  V30 5283 H 497.641 -3.77562 1.8715 0
M  V30 5284 H 496.365 -3.1699 0.786441 0
M  V30 5285 H 495.024 -2.39687 2.77391 0
M  V30 5286 H 494.672 -4.68562 1.82917 0
M  V30 5287 H 494.372 -4.6557 3.58494 0
M  V30 5288 H 495.896 -5.34327 2.95512 0
M  V30 5289 H 497.31 -3.62538 4.44116 0
M  V30 5290 H 495.707 -3.17549 5.09198 0
M  V30 5291 H 496.777 -1.91332 4.45556 0
M  V30 5292 N 498.12 -1.38341 -0.754957 0
M  V30 5293 C 499.03 -1.3769 -1.89944 0
M  V30 5294 C 500.046 -0.274194 -1.71826 0
M  V30 5295 O 501.222 -0.512391 -1.94773 0
M  V30 5296 C 498.287 -1.19938 -3.25293 0
M  V30 5297 C 497.348 -2.40001 -3.55946 0
M  V30 5298 C 496.581 -2.23087 -4.84838 0
M  V30 5299 O 496.804 -1.22386 -5.57116 0
M  V30 5300 O 495.738 -3.11646 -5.14937 0
M  V30 5301 H 499.564 -2.3412 -1.93446 0
M  V30 5302 H 497.149 -1.19246 -0.900044 0
M  V30 5303 H 499.031 -1.12093 -4.06218 0
M  V30 5304 H 497.706 -0.265919 -3.22606 0
M  V30 5305 H 496.613 -2.53421 -2.75188 0
M  V30 5306 H 497.946 -3.31973 -3.63394 0
M  V30 5307 N 499.598 0.982988 -1.23187 0
M  V30 5308 C 500.847 1.71817 -1.05649 0
M  V30 5309 C 501.16 1.91315 0.407176 0
M  V30 5310 O 502.366 2.62256 0.702436 0
M  V30 5311 C 500.822 3.09188 -1.84203 0
M  V30 5312 C 500.43 2.97586 -3.34882 0
M  V30 5313 C 502.174 3.86684 -1.75146 0
M  V30 5314 C 500.081 4.30173 -4.05839 0
M  V30 5315 H 499.011 0.644258 -0.391724 0
M  V30 5316 H 501.662 1.09659 -1.4713 0
M  V30 5317 H 500.044 3.72087 -1.35527 0
M  V30 5318 H 501.218 2.43793 -3.91026 0
M  V30 5319 H 499.533 2.33567 -3.44725 0
M  V30 5320 H 502.13 4.84836 -2.25473 0
M  V30 5321 H 502.473 4.10136 -0.713737 0
M  V30 5322 H 503.006 3.30482 -2.21419 0
M  V30 5323 H 499.745 4.11918 -5.09906 0
M  V30 5324 H 499.265 4.83841 -3.54482 0
M  V30 5325 H 500.944 4.98873 -4.11989 0
M  V30 5326 N 501.076 1.04316 1.18135 0
M  V30 5327 C 502.026 0.606731 2.19779 0
M  V30 5328 C 503.01 -0.352144 1.56999 0
M  V30 5329 O 504.202 -0.170795 1.76174 0
M  V30 5330 C 501.331 -0.0262443 3.4329 0
M  V30 5331 C 500.417 0.955928 4.13186 0
M  V30 5332 N 500.808 2.12395 4.59045 0
M  V30 5333 C 499.106 0.782473 4.39082 0
M  V30 5334 C 499.807 2.74458 5.12882 0
M  V30 5335 N 498.783 2.02316 5.04548 0
M  V30 5336 H 502.585 1.49679 2.5293 0
M  V30 5337 H 500.099 0.912088 1.34368 0
M  V30 5338 H 502.096 -0.356617 4.15372 0
M  V30 5339 H 500.756 -0.911811 3.11635 0
M  V30 5340 H 501.767 2.50272 4.53414 0
M  V30 5341 H 498.444 -0.0527906 4.17467 0
M  V30 5342 H 499.834 3.73459 5.5855 0
M  V30 5343 N 502.554 -1.34406 0.822964 0
M  V30 5344 C 503.779 -2.0304 0.423034 0
M  V30 5345 C 504.204 -1.61568 -0.963196 0
M  V30 5346 O 503.562 -0.800339 -1.62678 0
M  V30 5347 C 503.61 -3.56636 0.53321 0
M  V30 5348 O 502.714 -4.09971 -0.446939 0
M  V30 5349 H 502.055 -0.64075 0.174171 0
M  V30 5350 H 504.585 -1.71653 1.11339 0
M  V30 5351 H 504.595 -4.05945 0.408991 0
M  V30 5352 H 503.27 -3.86168 1.54425 0
M  V30 5353 H 501.847 -3.71835 -0.281601 0
M  V30 5354 N 504.032 -0.577932 -1.46621 0
M  V30 5355 C 504.982 0.178869 -2.27297 0
M  V30 5356 C 505.966 0.866279 -1.35589 0
M  V30 5357 O 507.158 0.761163 -1.59798 0
M  V30 5358 C 504.287 1.19499 -3.2183 0
M  V30 5359 C 503.373 0.50994 -4.21023 0
M  V30 5360 N 503.764 -0.43177 -5.03954 0
M  V30 5361 C 502.062 0.761287 -4.39455 0
M  V30 5362 C 502.763 -0.831693 -5.75724 0
M  V30 5363 N 501.739 -0.181897 -5.43296 0
M  V30 5364 H 505.541 -0.544859 -2.88805 0
M  V30 5365 H 503.055 -0.399373 -1.57413 0
M  V30 5366 H 505.052 1.75131 -3.78332 0
M  V30 5367 H 503.712 1.91959 -2.61881 0
M  V30 5368 H 504.723 -0.807045 -5.11573 0
M  V30 5369 H 501.4 1.47282 -3.90659 0
M  V30 5370 H 502.79 -1.6067 -6.52407 0
M  V30 5371 N 505.51 1.54411 -0.315457 0
M  V30 5372 C 506.757 2.00419 0.289543 0
M  V30 5373 C 507.085 1.20373 1.52776 0
M  V30 5374 O 506.34 0.271769 1.93804 0
M  V30 5375 C 506.639 3.50936 0.676652 0
M  V30 5376 C 506.305 4.48532 -0.461472 0
M  V30 5377 C 504.967 4.74936 -0.773879 0
M  V30 5378 C 507.319 5.06567 -1.22637 0
M  V30 5379 C 504.647 5.56634 -1.85405 0
M  V30 5380 C 506.999 5.89441 -2.29657 0
M  V30 5381 C 505.663 6.1415 -2.61488 0
M  V30 5382 H 504.933 0.733386 0.105951 0
M  V30 5383 H 507.58 1.86434 -0.437554 0
M  V30 5384 H 505.885 3.62606 1.48405 0
M  V30 5385 H 507.582 3.83971 1.15618 0
M  V30 5386 H 504.172 4.28096 -0.207893 0
M  V30 5387 H 508.356 4.86157 -0.998271 0
M  V30 5388 H 503.612 5.74012 -2.10523 0
M  V30 5389 H 507.786 6.33432 -2.89374 0
M  V30 5390 H 505.413 6.77245 -3.45317 0
M  V30 5391 N 506.988 0.0434614 1.5754 0
M  V30 5392 C 508.399 -0.493343 1.80064 0
M  V30 5393 C 508.75 -1.71388 0.955023 0
M  V30 5394 O 507.875 -2.15736 0.169434 0
M  V30 5395 C 508.47 -0.90179 3.26578 0
M  V30 5396 C 507.029 -1.38362 3.50047 0
M  V30 5397 C 506.176 -0.355129 2.75017 0
M  V30 5398 H 509.127 0.2694 1.56397 0
M  V30 5399 H 509.148 -1.76523 3.37075 0
M  V30 5400 H 508.66 -0.013271 3.88098 0
M  V30 5401 H 506.761 -2.29159 2.93798 0
M  V30 5402 H 506.874 -1.3811 4.58762 0
M  V30 5403 H 505.238 -0.826348 2.40922 0
M  V30 5404 H 506.021 0.525172 3.39259 0
M  V30 5405 N 508.466 -1.55915 -0.229846 0
M  V30 5406 C 509.416 -1.8813 -1.28807 0
M  V30 5407 C 510.4 -0.743621 -1.42685 0
M  V30 5408 O 511.592 -1.00588 -1.4564 0
M  V30 5409 C 508.721 -2.19431 -2.64017 0
M  V30 5410 C 507.807 -3.39569 -2.54074 0
M  V30 5411 N 508.198 -4.58404 -2.13774 0
M  V30 5412 C 506.496 -3.43019 -2.85051 0
M  V30 5413 C 507.197 -5.40557 -2.1488 0
M  V30 5414 N 506.173 -4.80054 -2.55047 0
M  V30 5415 H 509.975 -2.77527 -0.967261 0
M  V30 5416 H 507.489 -1.5637 -0.438433 0
M  V30 5417 H 509.486 -2.40681 -3.40409 0
M  V30 5418 H 508.146 -1.31341 -2.9695 0
M  V30 5419 H 509.157 -4.83716 -1.8504 0
M  V30 5420 H 505.834 -2.65249 -3.22411 0
M  V30 5421 H 507.224 -6.45666 -1.85918 0
M  V30 5422 N 509.944 0.496216 -1.49584 0
M  V30 5423 C 510.891 1.59722 -1.66606 0
M  V30 5424 C 511.861 1.58158 -0.507477 0
M  V30 5425 O 513.046 1.76072 -0.735076 0
M  V30 5426 C 510.186 2.97844 -1.74308 0
M  V30 5427 C 509.299 3.09388 -3.01502 0
M  V30 5428 C 508.434 4.38271 -3.00153 0
M  V30 5429 C 507.473 4.43466 -4.21906 0
M  V30 5430 N 506.61 5.63784 -4.1844 0
M  V30 5431 H 511.45 1.44515 -2.60613 0
M  V30 5432 H 508.987 0.703048 -1.29212 0
M  V30 5433 H 510.945 3.77907 -1.76754 0
M  V30 5434 H 509.575 3.11743 -0.837619 0
M  V30 5435 H 508.627 2.22357 -3.08645 0
M  V30 5436 H 509.939 3.09085 -3.91494 0
M  V30 5437 H 509.093 5.2666 -3.01188 0
M  V30 5438 H 507.832 4.41146 -2.07947 0
M  V30 5439 H 506.837 3.53478 -4.21109 0
M  V30 5440 H 508.062 4.42303 -5.1531 0
M  V30 5441 H 506.008 5.67491 -3.29074 0
M  V30 5442 H 505.925 5.65118 -5.02173 0
M  V30 5443 H 507.193 6.54367 -4.23585 0
M  V30 5444 N 511.423 1.38739 0.74761 0
M  V30 5445 C 512.834 1.31507 1.32524 0
M  V30 5446 C 513.185 -0.0263963 1.96182 0
M  V30 5447 O 512.31 -0.92849 1.95469 0
M  V30 5448 C 512.905 2.38162 2.40966 0
M  V30 5449 C 511.464 2.34489 2.94434 0
M  V30 5450 C 510.611 2.20712 1.67873 0
M  V30 5451 H 513.562 1.4901 0.546043 0
M  V30 5452 H 513.583 2.04222 3.21051 0
M  V30 5453 H 513.095 3.35783 1.94605 0
M  V30 5454 H 511.196 1.40467 3.45108 0
M  V30 5455 H 511.309 3.28861 3.48407 0
M  V30 5456 H 509.673 1.67667 1.91729 0
M  V30 5457 H 510.456 3.20285 1.23582 0
M  V30 5458 N 512.901 -0.976442 1.23707 0
M  V30 5459 C 514.15 -1.71254 1.06559 0
M  V30 5460 C 514.463 -1.91528 -0.397024 0
M  V30 5461 O 515.669 -2.62625 -0.688518 0
M  V30 5462 C 514.125 -3.08207 1.8584 0
M  V30 5463 C 513.733 -2.95806 3.36456 0
M  V30 5464 C 515.477 -3.85749 1.77194 0
M  V30 5465 C 513.384 -4.28015 4.08114 0
M  V30 5466 H 512.314 -0.642171 0.395136 0
M  V30 5467 H 514.965 -1.08877 1.4771 0
M  V30 5468 H 513.347 -3.71363 1.37498 0
M  V30 5469 H 514.521 -2.41716 3.92314 0
M  V30 5470 H 512.836 -2.31736 3.45959 0
M  V30 5471 H 515.433 -4.83633 2.28041 0
M  V30 5472 H 515.776 -4.09752 0.735477 0
M  V30 5473 H 516.309 -3.29303 2.23169 0
M  V30 5474 H 513.048 -4.09208 5.12083 0
M  V30 5475 H 512.568 -4.81955 3.57043 0
M  V30 5476 H 514.247 -4.96681 4.14629 0
M  V30 5477 N 514.379 -1.04941 -1.1758 0
M  V30 5478 C 515.628 -0.753124 -1.87112 0
M  V30 5479 C 515.941 0.722507 -1.81767 0
M  V30 5480 O 517.147 1.13265 -2.46746 0
M  V30 5481 C 515.603 -1.29695 -3.35719 0
M  V30 5482 C 515.211 -2.80184 -3.49572 0
M  V30 5483 C 516.955 -1.07759 -4.10595 0
M  V30 5484 C 514.862 -3.2788 -4.92187 0
M  V30 5485 H 513.792 -0.278034 -0.700866 0
M  V30 5486 H 516.443 -1.26637 -1.32798 0
M  V30 5487 H 514.825 -0.711522 -3.89555 0
M  V30 5488 H 515.999 -3.44561 -3.05965 0
M  V30 5489 H 514.314 -3.00632 -2.88113 0
M  V30 5490 H 516.911 -1.40899 -5.15802 0
M  V30 5491 H 517.254 -0.0152302 -4.16297 0
M  V30 5492 H 517.787 -1.62809 -3.62957 0
M  V30 5493 H 514.526 -4.33535 -4.91658 0
M  V30 5494 H 514.046 -2.68245 -5.36475 0
M  V30 5495 H 515.725 -3.22412 -5.60945 0
M  V30 5496 N 515.857 1.33968 -0.830081 0
M  V30 5497 C 516.787 2.31911 -0.271911 0
M  V30 5498 C 517.768 1.58571 0.61556 0
M  V30 5499 O 518.953 1.86514 0.540946 0
M  V30 5500 C 516.083 3.42737 0.561146 0
M  V30 5501 C 515.037 4.27383 -0.229789 0
M  V30 5502 C 514.363 5.29742 0.726463 0
M  V30 5503 C 515.663 5.02 -1.44197 0
M  V30 5504 H 517.357 2.78844 -1.09025 0
M  V30 5505 H 514.903 1.34061 -0.52571 0
M  V30 5506 H 516.856 4.10276 0.961867 0
M  V30 5507 H 515.58 2.94471 1.41261 0
M  V30 5508 H 514.239 3.61456 -0.611964 0
M  V30 5509 H 513.887 4.77736 1.57408 0
M  V30 5510 H 513.587 5.87255 0.20142 0
M  V30 5511 H 515.111 6.00149 1.12489 0
M  V30 5512 H 516.525 5.62355 -1.11488 0
M  V30 5513 H 514.922 5.69122 -1.90317 0
M  V30 5514 H 515.992 4.31281 -2.2164 0
M  V30 5515 N 517.335 0.585699 1.46312 0
M  V30 5516 C 518.584 0.0701192 2.01578 0
M  V30 5517 C 518.897 -1.29889 1.46247 0
M  V30 5518 O 520.103 -1.90598 1.93351 0
M  V30 5519 C 518.559 0.0747499 3.59822 0
M  V30 5520 C 518.167 1.44226 4.24149 0
M  V30 5521 C 519.911 -0.38673 4.22735 0
M  V30 5522 C 517.818 1.40446 5.74481 0
M  V30 5523 H 516.748 0.0224441 0.753666 0
M  V30 5524 H 519.399 0.737789 1.68015 0
M  V30 5525 H 517.781 -0.659144 3.90476 0
M  V30 5526 H 518.955 2.19612 4.05101 0
M  V30 5527 H 517.27 1.84401 3.73343 0
M  V30 5528 H 519.867 -0.433853 5.32937 0
M  V30 5529 H 520.21 -1.40489 3.91878 0
M  V30 5530 H 520.743 0.293195 3.96718 0
M  V30 5531 H 517.482 2.39952 6.10003 0
M  V30 5532 H 517.002 0.692845 5.95785 0
M  V30 5533 H 518.681 1.11865 6.37256 0
M  V30 5534 N 518.813 -1.54241 0.323641 0
M  V30 5535 C 520.061 -2.00174 -0.278359 0
M  V30 5536 C 520.382 -1.2134 -1.52648 0
M  V30 5537 O 519.652 -0.315244 -1.93347 0
M  V30 5538 H 518.232 -0.739463 -0.105845 0
M  V30 5539 H 520.894 -1.89864 0.440204 0
M  V30 5540 H 519.99 -3.07486 -0.5347 0
M  V30 5541 N 520.291 -0.0518155 -1.57515 0
M  V30 5542 C 521.537 0.616839 -1.93821 0
M  V30 5543 C 521.892 1.68413 -0.930307 0
M  V30 5544 O 521.185 1.91534 0.0504231 0
M  V30 5545 C 521.379 1.25607 -3.34601 0
M  V30 5546 C 521.208 0.252222 -4.48992 0
M  V30 5547 C 519.978 -0.156031 -5.05059 0
M  V30 5548 C 522.176 -0.502613 -5.11838 0
M  V30 5549 N 520.158 -1.15267 -6.02981 0
M  V30 5550 C 521.529 -1.35232 -6.05072 0
M  V30 5551 C 523.584 -0.560855 -4.94731 0
M  V30 5552 C 522.287 -2.25505 -6.83037 0
M  V30 5553 C 524.313 -1.45102 -5.73323 0
M  V30 5554 C 523.675 -2.28845 -6.6619 0
M  V30 5555 H 519.774 0.197344 -0.75669 0
M  V30 5556 H 522.358 -0.124297 -1.94303 0
M  V30 5557 H 520.529 1.96723 -3.34895 0
M  V30 5558 H 522.261 1.88358 -3.58195 0
M  V30 5559 H 519.016 0.22306 -4.73074 0
M  V30 5560 H 519.44 -1.64791 -6.56638 0
M  V30 5561 H 524.082 0.0723639 -4.22738 0
M  V30 5562 H 521.8 -2.89872 -7.54321 0
M  V30 5563 H 525.386 -1.50066 -5.62113 0
M  V30 5564 H 524.266 -2.96608 -7.25943 0
M  V30 5565 N 521.769 1.56035 0.221574 0
M  V30 5566 C 522.717 1.93269 1.29421 0
M  V30 5567 C 523.711 0.814727 1.48521 0
M  V30 5568 O 524.917 0.999559 1.49696 0
M  V30 5569 H 521.292 0.614188 0.43391 0
M  V30 5570 H 523.263 2.82773 0.952987 0
M  V30 5571 C 522.012 2.26573 2.63742 0
M  V30 5572 H 521.335 3.12112 2.49853 0
M  V30 5573 H 522.775 2.5651 3.37607 0
M  V30 5574 C 521.234 1.09086 3.1875 0
M  V30 5575 O 521.764 0.351985 4.00155 0
M  V30 5576 N 519.97 0.874693 2.77124 0
M  V30 5577 H 519.517 1.47726 2.11033 0
M  V30 5578 H 519.475 0.0903349 3.1427 0
M  V30 5579 N 523.247 -0.488276 1.49845 0
M  V30 5580 C 524.475 -1.26527 1.63702 0
M  V30 5581 C 524.89 -1.8618 0.313447 0
M  V30 5582 O 524.247 -1.68432 -0.702624 0
M  V30 5583 C 524.298 -2.3864 2.71538 0
M  V30 5584 O 524.019 -1.81437 3.98763 0
M  V30 5585 C 525.52 -3.29805 2.96215 0
M  V30 5586 H 522.74 -0.383295 0.55075 0
M  V30 5587 H 525.284 -0.584779 1.95961 0
M  V30 5588 H 523.439 -3.02496 2.42023 0
M  V30 5589 H 523.853 -2.55135 4.58265 0
M  V30 5590 H 525.327 -4.04722 3.75372 0
M  V30 5591 H 525.804 -3.87563 2.06619 0
M  V30 5592 H 526.41 -2.71703 3.27196 0
M  V30 5593 N 524.725 -1.39134 -0.740242 0
M  V30 5594 C 525.973 -1.35803 -1.49673 0
M  V30 5595 C 526.294 0.0470897 -1.94943 0
M  V30 5596 O 525.564 0.997347 -1.68611 0
M  V30 5597 H 524.144 -0.499736 -0.555224 0
M  V30 5598 H 526.806 -1.73947 -0.879107 0
M  V30 5599 H 525.902 -2.0174 -2.38133 0
M  V30 5600 N 526.204 0.969867 -1.24223 0
M  V30 5601 C 527.167 2.04564 -1.03373 0
M  V30 5602 C 528.167 1.60798 0.00819206 0
M  V30 5603 O 529.357 1.72641 -0.232567 0
M  V30 5604 C 526.489 3.36163 -0.566343 0
M  V30 5605 H 527.682 2.24494 -1.98853 0
M  V30 5606 H 525.235 1.1448 -1.06415 0
M  V30 5607 H 525.97 3.21925 0.391751 0
M  V30 5608 H 525.755 3.69273 -1.31834 0
M  V30 5609 H 527.245 4.1526 -0.441435 0
M  V30 5610 N 527.682 1.05563 1.17022 0
M  V30 5611 C 528.612 0.681026 2.23348 0
M  V30 5612 C 529.593 -0.322983 1.67005 0
M  V30 5613 O 530.778 -0.199746 1.9317 0
M  V30 5614 C 527.908 0.0589053 3.4725 0
M  V30 5615 C 526.862 0.988082 4.16438 0
M  V30 5616 C 526.188 0.229646 5.34207 0
M  V30 5617 C 527.488 2.31388 4.68249 0
M  V30 5618 H 529.182 1.56993 2.54938 0
M  V30 5619 H 526.728 0.756302 1.2254 0
M  V30 5620 H 528.681 -0.214982 4.20851 0
M  V30 5621 H 527.405 -0.864968 3.14938 0
M  V30 5622 H 526.064 1.24659 3.44754 0
M  V30 5623 H 525.712 -0.697111 4.98146 0
M  V30 5624 H 525.412 0.848815 5.81437 0
M  V30 5625 H 526.936 -0.0368694 6.10589 0
M  V30 5626 H 528.35 2.09964 5.33468 0
M  V30 5627 H 526.747 2.88736 5.26072 0
M  V30 5628 H 527.817 2.94982 3.84855 0
M  V30 5629 N 529.16 -1.33526 0.837174 0
M  V30 5630 C 530.406 -1.9813 0.432704 0
M  V30 5631 C 530.739 -1.66168 -1.00508 0
M  V30 5632 O 530.014 -0.94069 -1.70239 0
M  V30 5633 C 530.297 -3.54151 0.651834 0
M  V30 5634 C 530.15 -3.95806 2.13676 0
M  V30 5635 C 531.469 -4.39993 0.0968937 0
M  V30 5636 H 528.588 -0.719713 0.15869 0
M  V30 5637 H 531.23 -1.58193 1.05237 0
M  V30 5638 H 529.38 -3.88301 0.124369 0
M  V30 5639 H 531.052 -3.71921 2.72896 0
M  V30 5640 H 529.295 -3.45599 2.62191 0
M  V30 5641 H 529.966 -5.0447 2.24084 0
M  V30 5642 H 532.442 -4.12479 0.547733 0
M  V30 5643 H 531.318 -5.48186 0.279917 0
M  V30 5644 H 531.579 -4.3066 -0.9992 0
M  V30 5645 N 530.638 -0.59345 -1.46 0
M  V30 5646 C 531.601 0.123538 -2.28867 0
M  V30 5647 C 532.601 0.808628 -1.38989 0
M  V30 5648 O 533.791 0.658945 -1.61256 0
M  V30 5649 C 530.923 1.1847 -3.19653 0
M  V30 5650 H 532.116 -0.604843 -2.93737 0
M  V30 5651 H 529.669 -0.351875 -1.52288 0
M  V30 5652 H 530.404 1.94431 -2.59552 0
M  V30 5653 H 530.189 0.69783 -3.8584 0
M  V30 5654 H 531.679 1.68726 -3.81997 0
M  V30 5655 N 532.116 1.54067 -0.331816 0
M  V30 5656 C 533.356 2.02625 0.26876 0
M  V30 5657 C 533.72 1.21462 1.48697 0
M  V30 5658 O 534.921 1.59863 2.16096 0
M  V30 5659 C 533.192 3.52554 0.586577 0
M  V30 5660 S 534.751 4.23035 1.16563 0
M  V30 5661 H 531.569 0.706395 0.0807862 0
M  V30 5662 H 534.171 1.89844 -0.466856 0
M  V30 5663 H 532.875 4.09242 -0.308046 0
M  V30 5664 H 532.406 3.69432 1.35217 0
M  V30 5665 H 534.421 4.31382 2.45203 0
M  V30 5666 N 533.594 0.0601682 1.57485 0
M  V30 5667 C 534.544 -0.920969 2.08572 0
M  V30 5668 C 535.528 -1.26617 0.992827 0
M  V30 5669 O 536.72 -1.24708 1.25606 0
M  V30 5670 C 533.849 -2.19267 2.64153 0
M  V30 5671 C 532.935 -1.87447 3.80427 0
M  V30 5672 N 533.326 -1.26025 4.89848 0
M  V30 5673 C 531.624 -2.17265 3.89502 0
M  V30 5674 C 532.325 -1.12036 5.70809 0
M  V30 5675 N 531.301 -1.62624 5.18705 0
M  V30 5676 H 535.103 -0.441561 2.90564 0
M  V30 5677 H 532.617 -0.144043 1.6176 0
M  V30 5678 H 534.614 -2.90462 2.99061 0
M  V30 5679 H 533.274 -2.67806 1.83603 0
M  V30 5680 H 534.285 -0.931336 5.09457 0
M  V30 5681 H 530.962 -2.68262 3.19909 0
M  V30 5682 H 532.352 -0.642783 6.68818 0
M  V30 5683 N 535.072 -1.5615 -0.213296 0
M  V30 5684 C 536.318 -1.79812 -0.937849 0
M  V30 5685 C 536.651 -0.631201 -1.83656 0
M  V30 5686 O 535.926 0.369165 -1.90964 0
M  V30 5687 C 536.209 -3.13613 -1.76972 0
M  V30 5688 C 536.062 -4.40766 -0.89695 0
M  V30 5689 C 537.381 -3.43931 -2.7459 0
M  V30 5690 H 534.5 -0.654138 -0.339518 0
M  V30 5691 H 537.142 -1.88877 -0.20623 0
M  V30 5692 H 535.292 -3.06015 -2.39347 0
M  V30 5693 H 536.964 -4.60392 -0.289306 0
M  V30 5694 H 535.207 -4.33326 -0.202756 0
M  V30 5695 H 535.878 -5.30843 -1.51358 0
M  V30 5696 H 538.354 -3.5171 -2.22349 0
M  V30 5697 H 537.23 -4.38706 -3.29891 0
M  V30 5698 H 537.491 -2.6651 -3.52739 0
M  V30 5699 N 536.55 0.480323 -1.50102 0
M  V30 5700 C 537.775 1.26126 -1.64642 0
M  V30 5701 C 538.2 1.85257 -0.325823 0
M  V30 5702 O 537.558 1.66854 0.709194 0
M  V30 5703 C 537.606 2.35243 -2.73301 0
M  V30 5704 O 536.71 3.39646 -2.33911 0
M  V30 5705 H 536.051 0.371463 -0.550374 0
M  V30 5706 H 538.581 0.572696 -1.96421 0
M  V30 5707 H 538.591 2.80695 -2.96098 0
M  V30 5708 H 537.266 1.91574 -3.6915 0
M  V30 5709 H 535.843 2.99969 -2.21525 0
M  V30 5710 N 538.028 1.39524 0.732853 0
M  V30 5711 C 539.274 1.37068 1.49467 0
M  V30 5712 C 539.607 -0.0327166 1.94172 0
M  V30 5713 O 538.882 -0.998071 1.66939 0
M  V30 5714 C 539.165 2.34494 2.73285 0
M  V30 5715 C 539.018 3.83784 2.34585 0
M  V30 5716 C 540.337 2.29717 3.75391 0
M  V30 5717 H 537.456 0.499206 0.542183 0
M  V30 5718 H 540.098 1.70532 0.837783 0
M  V30 5719 H 538.248 2.06087 3.29333 0
M  V30 5720 H 539.92 4.22949 1.84151 0
M  V30 5721 H 538.163 4.00455 1.66787 0
M  V30 5722 H 538.834 4.47444 3.23262 0
M  V30 5723 H 541.31 2.54839 3.28932 0
M  V30 5724 H 540.186 2.99962 4.59689 0
M  V30 5725 H 540.447 1.30291 4.22465 0
M  V30 5726 N 539.506 -0.963266 1.24736 0
M  V30 5727 C 540.439 -2.05758 0.986852 0
M  V30 5728 C 541.417 -1.62398 -0.0809272 0
M  V30 5729 O 542.601 -1.88414 0.0569347 0
M  V30 5730 C 539.728 -3.35135 0.490095 0
M  V30 5731 C 538.774 -3.97451 1.54709 0
M  V30 5732 S 539.607 -4.34519 3.12976 0
M  V30 5733 C 540.763 -5.67026 2.65014 0
M  V30 5734 H 540.996 -2.27539 1.91346 0
M  V30 5735 H 538.529 -1.10176 1.08169 0
M  V30 5736 H 540.487 -4.09962 0.21012 0
M  V30 5737 H 539.148 -3.11335 -0.415873 0
M  V30 5738 H 538.341 -4.90704 1.15003 0
M  V30 5739 H 537.943 -3.29071 1.77731 0
M  V30 5740 H 540.235 -6.44748 2.08102 0
M  V30 5741 H 541.178 -6.11594 3.56873 0
M  V30 5742 H 541.586 -5.25847 2.05294 0
M  V30 5743 N 540.985 -1.06182 -1.16461 0
M  V30 5744 C 541.895 -0.682671 -2.24448 0
M  V30 5745 C 542.911 0.30078 -1.71381 0
M  V30 5746 O 544.087 0.150376 -2.00838 0
M  V30 5747 C 541.152 -0.0737202 -3.46622 0
M  V30 5748 C 540.213 -1.10889 -4.14731 0
M  V30 5749 C 539.446 -0.528908 -5.31073 0
M  V30 5750 O 539.669 0.65868 -5.66584 0
M  V30 5751 O 538.603 -1.26805 -5.88391 0
M  V30 5752 H 542.429 -1.58291 -2.59187 0
M  V30 5753 H 540.014 -0.834013 -1.23954 0
M  V30 5754 H 541.896 0.264192 -4.20571 0
M  V30 5755 H 540.571 0.800015 -3.13658 0
M  V30 5756 H 539.478 -1.49896 -3.42756 0
M  V30 5757 H 540.811 -1.95412 -4.51747 0
M  V30 5758 N 542.463 1.3308 -0.844243 0
M  V30 5759 C 543.693 2.01515 -0.455541 0
M  V30 5760 C 544.101 1.63655 0.949406 0
M  V30 5761 O 543.444 0.84848 1.62931 0
M  V30 5762 C 543.506 3.55967 -0.502801 0
M  V30 5763 C 543.17 4.17222 -1.86481 0
M  V30 5764 C 544.167 4.36205 -2.8288 0
M  V30 5765 C 541.852 4.53528 -2.15911 0
M  V30 5766 C 543.846 4.90649 -4.06869 0
M  V30 5767 C 541.533 5.07679 -3.40155 0
M  V30 5768 C 542.531 5.26186 -4.35451 0
M  V30 5769 O 542.219 5.79183 -5.57496 0
M  V30 5770 H 541.951 0.65199 -0.178565 0
M  V30 5771 H 544.505 1.70867 -1.1399 0
M  V30 5772 H 542.735 3.85965 0.23836 0
M  V30 5773 H 544.424 4.05688 -0.131169 0
M  V30 5774 H 545.19 4.085 -2.61444 0
M  V30 5775 H 541.069 4.38414 -1.42528 0
M  V30 5776 H 544.613 5.0501 -4.81259 0
M  V30 5777 H 540.51 5.34815 -3.61446 0
M  V30 5778 H 541.278 5.97591 -5.5931 0
M  V30 5779 N 543.941 0.601185 1.45683 0
M  V30 5780 C 545.187 0.0940202 2.02582 0
M  V30 5781 C 545.52 -1.26972 1.46941 0
M  V30 5782 O 544.795 -1.83613 0.641612 0
M  V30 5783 C 545.078 0.0481715 3.60068 0
M  V30 5784 C 544.931 1.44212 4.26055 0
M  V30 5785 C 546.25 -0.642975 4.35378 0
M  V30 5786 H 543.369 0.0356404 0.736138 0
M  V30 5787 H 546.011 0.771929 1.73612 0
M  V30 5788 H 544.161 -0.529128 3.8488 0
M  V30 5789 H 545.833 2.06601 4.12449 0
M  V30 5790 H 544.076 2.00465 3.84703 0
M  V30 5791 H 544.747 1.36234 5.34925 0
M  V30 5792 H 547.223 -0.152351 4.15821 0
M  V30 5793 H 546.099 -0.644141 5.45107 0
M  V30 5794 H 546.36 -1.70785 4.0778 0
M  V30 5795 N 545.419 -1.53889 0.339982 0
M  V30 5796 C 546.647 -2.05271 -0.259114 0
M  V30 5797 C 547.062 -1.21517 -1.44496 0
M  V30 5798 O 546.419 -0.24966 -1.80784 0
M  V30 5799 C 546.47 -3.55092 -0.677634 0
M  V30 5800 O 546.191 -4.35667 0.461051 0
M  V30 5801 C 547.692 -4.22631 -1.33782 0
M  V30 5802 H 544.912 -0.669085 -0.0506566 0
M  V30 5803 H 547.456 -1.9852 0.490935 0
M  V30 5804 H 545.611 -3.62077 -1.37763 0
M  V30 5805 H 546.025 -5.24343 0.128144 0
M  V30 5806 H 547.499 -5.28861 -1.58145 0
M  V30 5807 H 547.976 -3.74758 -2.29027 0
M  V30 5808 H 548.582 -4.19829 -0.679957 0
M  V30 5809 N 546.897 -0.0685191 -1.57451 0
M  V30 5810 C 547.86 0.885173 -2.11417 0
M  V30 5811 C 548.86 1.22853 -1.03748 0
M  V30 5812 O 550.05 1.16235 -1.2975 0
M  V30 5813 C 547.182 2.18964 -2.61281 0
M  V30 5814 H 548.375 0.417034 -2.96986 0
M  V30 5815 H 545.928 0.18014 -1.55258 0
M  V30 5816 H 546.663 2.70321 -1.79156 0
M  V30 5817 H 546.448 1.9534 -3.39977 0
M  V30 5818 H 547.938 2.87242 -3.0312 0
M  V30 5819 N 548.375 1.56261 0.205012 0
M  V30 5820 C 549.621 1.80306 0.9283 0
M  V30 5821 C 549.954 0.640932 1.83319 0
M  V30 5822 O 549.229 -0.359032 1.91158 0
M  V30 5823 C 549.512 3.14547 1.75306 0
M  V30 5824 C 549.365 4.41236 0.873562 0
M  V30 5825 C 550.684 3.45382 2.72762 0
M  V30 5826 H 547.803 0.655929 0.336044 0
M  V30 5827 H 550.445 1.88984 0.196211 0
M  V30 5828 H 548.595 3.0728 2.37721 0
M  V30 5829 H 550.267 4.60539 0.264887 0
M  V30 5830 H 548.51 4.33427 0.179773 0
M  V30 5831 H 549.181 5.31639 1.48541 0
M  V30 5832 H 551.657 3.52884 2.20481 0
M  V30 5833 H 550.533 4.40449 3.2756 0
M  V30 5834 H 550.794 2.68377 3.51321 0
M  V30 5835 N 549.853 -0.472356 1.50355 0
M  V30 5836 C 551.099 -1.22634 1.6152 0
M  V30 5837 C 551.432 -1.91645 0.313995 0
M  V30 5838 O 550.707 -1.82059 -0.684446 0
M  V30 5839 C 550.99 -2.27099 2.7946 0
M  V30 5840 C 550.843 -1.62402 4.19459 0
M  V30 5841 C 552.162 -3.28421 2.92964 0
M  V30 5842 H 549.281 -0.444494 0.587873 0
M  V30 5843 H 551.923 -0.520321 1.82737 0
M  V30 5844 H 550.073 -2.87314 2.61501 0
M  V30 5845 H 551.745 -1.05793 4.49005 0
M  V30 5846 H 549.988 -0.927184 4.23776 0
M  V30 5847 H 550.659 -2.38309 4.97909 0
M  V30 5848 H 553.135 -2.78227 3.09401 0
M  V30 5849 H 552.011 -3.98845 3.77113 0
M  V30 5850 H 552.272 -3.92467 2.03525 0
M  V30 5851 N 551.331 -1.39911 -0.725443 0
M  V30 5852 C 552.571 -1.39096 -1.49772 0
M  V30 5853 C 552.935 0.0106452 -1.91997 0
M  V30 5854 O 554.136 0.143859 -2.68415 0
M  V30 5855 C 552.407 -2.34441 -2.69764 0
M  V30 5856 S 553.966 -2.51898 -3.59295 0
M  V30 5857 H 550.784 -0.49314 -0.512186 0
M  V30 5858 H 553.386 -1.76093 -0.849197 0
M  V30 5859 H 552.09 -3.35123 -2.36898 0
M  V30 5860 H 551.621 -1.98692 -3.39537 0
M  V30 5861 H 553.636 -1.76402 -4.63785 0
M  V30 5862 N 552.809 0.956637 -1.25245 0
M  V30 5863 C 553.739 2.07058 -1.07931 0
M  V30 5864 C 554.72 1.70096 0.0110361 0
M  V30 5865 O 555.905 1.93555 -0.158121 0
M  V30 5866 C 553.035 3.40272 -0.695124 0
M  V30 5867 C 551.989 3.91235 -1.73549 0
M  V30 5868 C 551.315 5.20921 -1.20604 0
M  V30 5869 C 552.615 4.17837 -3.13385 0
M  V30 5870 H 554.309 2.218 -2.01109 0
M  V30 5871 H 551.855 1.06581 -0.968326 0
M  V30 5872 H 553.808 4.1765 -0.560949 0
M  V30 5873 H 552.532 3.25462 0.272355 0
M  V30 5874 H 551.191 3.16025 -1.85807 0
M  V30 5875 H 550.839 5.02479 -0.228846 0
M  V30 5876 H 550.539 5.55987 -1.90136 0
M  V30 5877 H 552.063 6.00897 -1.08421 0
M  V30 5878 H 553.477 4.8588 -3.04292 0
M  V30 5879 H 551.874 4.64154 -3.80369 0
M  V30 5880 H 552.944 3.2419 -3.60595 0
M  V30 5881 N 554.287 1.06798 1.15896 0
M  V30 5882 C 555.535 0.786211 1.8618 0
M  V30 5883 C 555.856 -0.689547 1.82401 0
M  V30 5884 O 555.126 -1.49913 1.26107 0
M  V30 5885 H 553.706 0.287843 0.689315 0
M  V30 5886 H 556.368 1.35055 1.40521 0
M  V30 5887 H 555.464 1.1157 2.91477 0
M  V30 5888 N 555.766 -1.3263 0.851289 0
M  V30 5889 C 557.013 -1.97368 0.453023 0
M  V30 5890 C 557.341 -1.67384 -0.990596 0
M  V30 5891 O 556.596 -0.952665 -1.70947 0
M  V30 5892 C 556.895 -3.51713 0.635015 0
M  V30 5893 C 556.561 -4.01676 2.04859 0
M  V30 5894 C 555.223 -4.15031 2.43522 0
M  V30 5895 C 557.575 -4.28206 2.97135 0
M  V30 5896 C 554.903 -4.52257 3.73739 0
M  V30 5897 C 557.255 -4.66889 4.26846 0
M  V30 5898 C 555.919 -4.7845 4.65448 0
M  V30 5899 H 555.189 -0.722219 0.165773 0
M  V30 5900 H 557.836 -1.58092 1.0807 0
M  V30 5901 H 556.141 -3.91726 -0.0759081 0
M  V30 5902 H 557.838 -3.99823 0.306964 0
M  V30 5903 H 554.428 -3.91764 1.73836 0
M  V30 5904 H 558.612 -4.174 2.68498 0
M  V30 5905 H 553.868 -4.59402 4.03435 0
M  V30 5906 H 558.042 -4.86372 4.98413 0
M  V30 5907 H 555.669 -5.07052 5.66395 0
M  V30 5908 N 557.244 -0.608902 -1.45362 0
M  V30 5909 C 558.655 -0.189511 -1.85736 0
M  V30 5910 C 559.006 1.2539 -1.50903 0
M  V30 5911 O 558.131 1.95094 -0.936347 0
M  V30 5912 C 558.726 -0.33716 -3.37118 0
M  V30 5913 C 557.285 0.0275487 -3.7639 0
M  V30 5914 C 556.432 -0.660983 -2.69307 0
M  V30 5915 H 559.383 -0.815499 -1.36144 0
M  V30 5916 H 559.404 0.430257 -3.7806 0
M  V30 5917 H 558.916 -1.38779 -3.62439 0
M  V30 5918 H 557.017 1.0773 -3.56686 0
M  V30 5919 H 557.13 -0.367018 -4.77692 0
M  V30 5920 H 555.494 -0.0984958 -2.54509 0
M  V30 5921 H 556.277 -1.71377 -2.97464 0
M  V30 5922 N 558.722 1.53707 -0.348139 0
M  V30 5923 C 559.652 2.28111 0.498766 0
M  V30 5924 C 560.633 1.29851 1.09876 0
M  V30 5925 O 561.818 1.587 1.11928 0
M  V30 5926 C 558.948 3.05735 1.64753 0
M  V30 5927 C 557.902 4.11537 1.17565 0
M  V30 5928 C 557.228 4.77142 2.4133 0
M  V30 5929 C 558.528 5.21587 0.272844 0
M  V30 5930 H 560.222 2.99152 -0.121934 0
M  V30 5931 H 557.768 1.43875 -0.0600842 0
M  V30 5932 H 559.721 3.56526 2.24649 0
M  V30 5933 H 558.445 2.32354 2.2952 0
M  V30 5934 H 557.104 3.61665 0.599483 0
M  V30 5935 H 556.752 4.0035 3.04514 0
M  V30 5936 H 556.452 5.48626 2.10436 0
M  V30 5937 H 557.976 5.30719 3.01943 0
M  V30 5938 H 559.39 5.67986 0.778779 0
M  V30 5939 H 557.787 6.00074 0.0555849 0
M  V30 5940 H 558.857 4.79969 -0.689785 0
M  V30 5941 N 560.2 0.0768682 1.57412 0
M  V30 5942 C 561.13 -0.886026 2.16037 0
M  V30 5943 C 562.111 -1.30691 1.08876 0
M  V30 5944 O 563.296 -1.37705 1.36934 0
M  V30 5945 C 560.426 -2.1518 2.72608 0
M  V30 5946 C 559.38 -1.87015 3.8498 0
M  V30 5947 C 558.706 -3.20266 4.28175 0
M  V30 5948 C 560.006 -1.17143 5.08994 0
M  V30 5949 H 561.7 -0.397642 2.96748 0
M  V30 5950 H 559.246 -0.189823 1.42743 0
M  V30 5951 H 561.199 -2.82962 3.12266 0
M  V30 5952 H 559.923 -2.66269 1.89125 0
M  V30 5953 H 558.582 -1.21636 3.45833 0
M  V30 5954 H 558.23 -3.69207 3.41607 0
M  V30 5955 H 557.93 -3.0221 5.03927 0
M  V30 5956 H 559.454 -3.89237 4.70454 0
M  V30 5957 H 560.868 -1.75003 5.45937 0
M  V30 5958 H 559.265 -1.09328 5.90057 0
M  V30 5959 H 560.335 -0.151295 4.84664 0
M  V30 5960 N 561.678 -1.56367 -0.196722 0
M  V30 5961 C 562.906 -1.84639 -0.933608 0
M  V30 5962 C 563.321 -0.659164 -1.76919 0
M  V30 5963 O 562.678 0.372142 -1.78665 0
M  V30 5964 C 562.729 -3.11694 -1.83109 0
M  V30 5965 O 562.45 -4.25838 -1.02924 0
M  V30 5966 C 563.951 -3.53132 -2.67979 0
M  V30 5967 H 561.171 -0.613188 -0.272473 0
M  V30 5968 H 563.715 -2.03475 -0.204465 0
M  V30 5969 H 561.87 -2.94759 -2.51387 0
M  V30 5970 H 562.284 -4.98178 -1.64069 0
M  V30 5971 H 563.758 -4.45005 -3.26611 0
M  V30 5972 H 564.235 -2.76045 -3.41608 0
M  V30 5973 H 564.841 -3.72592 -2.05074 0
M  V30 5974 N 563.156 0.464375 -1.50603 0
M  V30 5975 C 564.402 1.21776 -1.62168 0
M  V30 5976 C 564.735 1.91476 -0.324154 0
M  V30 5977 O 564.01 1.8242 0.674782 0
M  V30 5978 C 564.293 2.25614 -2.80661 0
M  V30 5979 C 564.146 1.60175 -4.20314 0
M  V30 5980 C 565.465 3.26862 -2.94702 0
M  V30 5981 H 562.584 0.44137 -0.590222 0
M  V30 5982 H 565.226 0.510623 -1.8301 0
M  V30 5983 H 563.376 2.85923 -2.63021 0
M  V30 5984 H 565.048 1.03411 -4.4956 0
M  V30 5985 H 563.291 0.904697 -4.24261 0
M  V30 5986 H 563.962 2.35665 -4.99165 0
M  V30 5987 H 566.438 2.76582 -3.10872 0
M  V30 5988 H 565.314 3.96839 -3.79223 0
M  V30 5989 H 565.575 3.91382 -2.05603 0
M  V30 5990 N 564.634 1.40294 0.718013 0
M  V30 5991 C 565.911 1.2894 1.47084 0
M  V30 5992 C 566.291 -0.0933625 2.10893 0
M  V30 5993 O 565.639 -1.10598 1.99951 0
M  V30 5994 C 565.849 2.4264 2.50852 0
M  V30 5995 C 567.197 2.8276 3.16752 0
M  V30 5996 O 568.221 2.42215 2.61171 0
M  V30 5997 O 567.08 3.528 4.17366 0
M  V30 5998 H 564.174 0.506236 0.653952 0
M  V30 5999 H 566.72 1.52208 0.750394 0
M  V30 6000 H 565.492 3.35009 2.022 0
M  V30 6001 H 565.115 2.21129 3.30435 0
M  V30 6002 N 566.112 -0.949982 1.2575 0
M  V30 6003 C 567.36 -1.6918 1.10555 0
M  V30 6004 C 567.681 -1.91773 -0.353298 0
M  V30 6005 O 566.951 -1.50814 -1.25027 0
M  V30 6006 H 565.531 -0.626952 0.406129 0
M  V30 6007 H 568.193 -1.1419 1.57945 0
M  V30 6008 H 567.289 -2.66915 1.61749 0
M  V30 6009 N 567.59 -1.07411 -1.15328 0
M  V30 6010 C 569.001 -0.820261 -1.67716 0
M  V30 6011 C 569.352 0.654539 -1.8496 0
M  V30 6012 O 568.477 1.50664 -1.55337 0
M  V30 6013 C 569.072 -1.48242 -3.04647 0
M  V30 6014 C 567.631 -1.27606 -3.5411 0
M  V30 6015 C 566.778 -1.5517 -2.29821 0
M  V30 6016 H 569.729 -1.23608 -0.995332 0
M  V30 6017 H 569.75 -0.903984 -3.69606 0
M  V30 6018 H 569.262 -2.55578 -2.92064 0
M  V30 6019 H 567.363 -0.222948 -3.71932 0
M  V30 6020 H 567.476 -1.99667 -4.35511 0
M  V30 6021 H 565.84 -0.972747 -2.35393 0
M  V30 6022 H 566.623 -2.63689 -2.19824 0
M  V30 6023 N 569.068 1.32177 -0.85831 0
M  V30 6024 C 570.484 1.49873 -0.548656 0
M  V30 6025 C 570.684 1.79278 0.919874 0
M  V30 6026 O 569.74 1.86451 1.70271 0
M  V30 6027 C 571.053 2.64043 -1.4388 0
M  V30 6028 C 572.601 2.77928 -1.43961 0
M  V30 6029 C 573.076 3.95182 -2.31506 0
M  V30 6030 N 574.567 4.0245 -2.29321 0
M  V30 6031 C 575.302 4.9242 -2.93786 0
M  V30 6032 N 574.798 5.87373 -3.67376 0
M  V30 6033 N 576.591 4.85572 -2.83155 0
M  V30 6034 H 568.742 1.11357 -1.80868 0
M  V30 6035 H 571.005 0.549175 -0.772729 0
M  V30 6036 H 570.711 2.49055 -2.48324 0
M  V30 6037 H 570.585 3.59912 -1.12885 0
M  V30 6038 H 572.972 2.92338 -0.402813 0
M  V30 6039 H 573.053 1.82762 -1.78974 0
M  V30 6040 H 572.697 3.81531 -3.35256 0
M  V30 6041 H 572.627 4.89633 -1.93823 0
M  V30 6042 H 575.118 3.34507 -1.75822 0
M  V30 6043 H 575.431 6.52728 -4.13722 0
M  V30 6044 H 573.776 5.87388 -3.71484 0
M  V30 6045 H 576.967 4.10363 -2.25211 0
M  V30 6046 H 577.14 5.55486 -3.33676 0
M  V30 6047 N 570.547 0.616602 1.45037 0
M  V30 6048 C 571.795 0.115103 2.01772 0
M  V30 6049 C 572.116 -1.2622 1.48639 0
M  V30 6050 O 571.386 -1.83563 0.684199 0
M  V30 6051 H 569.966 0.0395607 0.745952 0
M  V30 6052 H 572.628 0.800032 1.77723 0
M  V30 6053 H 571.724 0.0717274 3.12018 0
M  V30 6054 N 572.025 -1.5352 0.356285 0
M  V30 6055 C 573.302 -1.93405 -0.292223 0
M  V30 6056 C 573.682 -1.28901 -1.67176 0
M  V30 6057 O 573.03 -0.444632 -2.24132 0
M  V30 6058 C 573.24 -3.47223 -0.35175 0
M  V30 6059 C 574.588 -4.20389 -0.596534 0
M  V30 6060 O 575.612 -3.53554 -0.433344 0
M  V30 6061 O 574.471 -5.3881 -0.913589 0
M  V30 6062 H 571.565 -0.808666 -0.173172 0
M  V30 6063 H 574.111 -1.64713 0.408391 0
M  V30 6064 H 572.883 -3.86423 0.615841 0
M  V30 6065 H 572.506 -3.8212 -1.09864 0
M  V30 6066 N 573.503 -0.0852151 -1.57369 0
M  V30 6067 C 574.749 0.581666 -1.94279 0
M  V30 6068 C 575.082 1.68444 -0.966446 0
M  V30 6069 O 574.357 1.945 0.00215277 0
M  V30 6070 C 574.64 1.14609 -3.41375 0
M  V30 6071 C 574.493 0.0490414 -4.49773 0
M  V30 6072 C 575.812 2.04751 -3.8957 0
M  V30 6073 H 572.931 0.209972 -0.706456 0
M  V30 6074 H 575.573 -0.153915 -1.89376 0
M  V30 6075 H 573.723 1.77297 -3.45685 0
M  V30 6076 H 575.395 -0.584721 -4.57579 0
M  V30 6077 H 573.638 -0.618638 -4.29366 0
M  V30 6078 H 574.309 0.484601 -5.49869 0
M  V30 6079 H 576.785 1.51981 -3.87351 0
M  V30 6080 H 575.661 2.41173 -4.93079 0
M  V30 6081 H 575.922 2.96107 -3.28288 0
M  V30 6082 N 574.981 1.5647 0.188427 0
M  V30 6083 C 576.258 1.71857 0.934058 0
M  V30 6084 C 576.638 0.641867 2.01105 0
M  V30 6085 O 575.986 -0.346098 2.25864 0
M  V30 6086 C 576.196 3.14431 1.5144 0
M  V30 6087 C 577.544 3.74869 1.99396 0
M  V30 6088 O 578.568 3.17601 1.61269 0
M  V30 6089 O 577.427 4.75387 2.69573 0
M  V30 6090 H 574.521 0.701186 0.438483 0
M  V30 6091 H 577.067 1.68768 0.177599 0
M  V30 6092 H 575.839 3.8427 0.738416 0
M  V30 6093 H 575.462 3.21775 2.33552 0
M  V30 6094 N 576.459 -0.456382 1.50847 0
M  V30 6095 C 577.736 -1.21739 1.53098 0
M  V30 6096 C 578.116 -2.09179 0.284132 0
M  V30 6097 O 577.464 -2.16466 -0.731773 0
M  V30 6098 C 577.674 -2.03573 2.83477 0
M  V30 6099 C 579.022 -2.61264 3.34703 0
M  V30 6100 O 580.046 -2.13802 2.84898 0
M  V30 6101 O 578.905 -3.47779 4.21559 0
M  V30 6102 H 575.999 -0.553219 0.614718 0
M  V30 6103 H 578.545 -0.467003 1.63148 0
M  V30 6104 H 577.317 -1.39232 3.65691 0
M  V30 6105 H 576.94 -2.85716 2.76499 0
M  V30 6106 N 577.937 -1.40673 -0.710563 0
M  V30 6107 C 579.348 -1.34975 -1.28991 0
M  V30 6108 C 579.699 -0.0256272 -1.96183 0
M  V30 6109 O 578.824 0.876339 -1.97862 0
M  V30 6110 C 579.419 -2.44467 -2.34567 0
M  V30 6111 C 577.978 -2.42213 -2.88114 0
M  V30 6112 C 577.125 -2.25085 -1.61963 0
M  V30 6113 H 580.076 -1.50406 -0.506343 0
M  V30 6114 H 580.097 -2.12663 -3.15523 0
M  V30 6115 H 579.609 -3.40825 -1.85634 0
M  V30 6116 H 577.71 -1.49568 -3.41263 0
M  V30 6117 H 577.823 -3.37983 -3.39565 0
M  V30 6118 H 576.187 -1.72691 -1.87216 0
M  V30 6119 H 576.97 -3.23449 -1.15047 0
M  V30 6120 N 579.415 0.9433 -1.26252 0
M  V30 6121 C 580.345 2.05902 -1.10122 0
M  V30 6122 C 581.326 1.70099 -0.00700552 0
M  V30 6123 O 582.511 1.93377 -0.178641 0
M  V30 6124 C 579.641 3.39516 -0.731175 0
M  V30 6125 C 578.595 3.89372 -1.77688 0
M  V30 6126 C 577.921 5.19613 -1.26122 0
M  V30 6127 C 579.221 4.14489 -3.17799 0
M  V30 6128 H 580.915 2.19655 -2.03451 0
M  V30 6129 H 578.461 1.05548 -0.979576 0
M  V30 6130 H 580.414 4.17031 -0.605215 0
M  V30 6131 H 579.138 3.25733 0.23782 0
M  V30 6132 H 577.797 3.14036 -1.89148 0
M  V30 6133 H 577.445 5.02208 -0.282128 0
M  V30 6134 H 577.145 5.53939 -1.96023 0
M  V30 6135 H 578.669 5.99713 -1.14789 0
M  V30 6136 H 580.083 4.82625 -3.09428 0
M  V30 6137 H 578.48 4.60094 -3.85271 0
M  V30 6138 H 579.55 3.20347 -3.64014 0
M  V30 6139 N 580.893 1.08022 1.14757 0
M  V30 6140 C 581.823 0.728248 2.21853 0
M  V30 6141 C 582.804 -0.287486 1.67653 0
M  V30 6142 O 583.989 -0.158727 1.9355 0
M  V30 6143 C 581.119 0.132549 3.47047 0
M  V30 6144 C 580.073 1.07619 4.14249 0
M  V30 6145 C 579.399 0.342907 5.33599 0
M  V30 6146 C 580.699 2.41268 4.63235 0
M  V30 6147 H 582.393 1.62365 2.51551 0
M  V30 6148 H 579.939 0.782125 1.20908 0
M  V30 6149 H 581.892 -0.125665 4.21213 0
M  V30 6150 H 580.616 -0.797971 3.16702 0
M  V30 6151 H 579.275 1.31944 3.42033 0
M  V30 6152 H 578.923 -0.59129 4.99513 0
M  V30 6153 H 578.623 0.971955 5.79506 0
M  V30 6154 H 580.147 0.0926538 6.1053 0
M  V30 6155 H 581.561 2.21232 5.28894 0
M  V30 6156 H 579.958 2.9983 5.19829 0
M  V30 6157 H 581.028 3.03079 3.78512 0
M  V30 6158 N 582.371 -1.3172 0.865308 0
M  V30 6159 C 583.648 -1.91574 0.394789 0
M  V30 6160 C 584.028 -1.78769 -1.12271 0
M  V30 6161 O 583.376 -1.19245 -1.94918 0
M  V30 6162 C 583.586 -3.37957 0.870982 0
M  V30 6163 C 584.934 -4.15073 0.894384 0
M  V30 6164 O 585.958 -3.4672 0.816325 0
M  V30 6165 O 584.817 -5.37151 1.00651 0
M  V30 6166 H 581.911 -0.818649 0.117229 0
M  V30 6167 H 584.457 -1.4042 0.952913 0
M  V30 6168 H 583.229 -3.41269 1.91444 0
M  V30 6169 H 582.852 -3.96534 0.290907 0
M  V30 6170 N 583.85 -0.624285 -1.44708 0
M  V30 6171 C 584.783 0.133905 -2.27807 0
M  V30 6172 C 585.76 0.857794 -1.38133 0
M  V30 6173 O 586.945 0.863277 -1.6757 0
M  V30 6174 C 584.072 1.19541 -3.16903 0
M  V30 6175 C 583.118 0.572813 -4.22636 0
M  V30 6176 S 583.951 -0.631953 -5.31758 0
M  V30 6177 C 585.106 0.429733 -6.24423 0
M  V30 6178 H 585.34 -0.571072 -2.91764 0
M  V30 6179 H 582.873 -0.412261 -1.48794 0
M  V30 6180 H 584.831 1.80293 -3.68788 0
M  V30 6181 H 583.492 1.87255 -2.5218 0
M  V30 6182 H 582.685 1.37205 -4.84965 0
M  V30 6183 H 582.287 0.0400641 -3.73979 0
M  V30 6184 H 584.579 1.30421 -6.64828 0
M  V30 6185 H 585.522 -0.157804 -7.07924 0
M  V30 6186 H 585.93 0.75256 -5.59461 0
M  V30 6187 N 585.328 1.53329 -0.364422 0
M  V30 6188 C 586.275 2.25698 0.482607 0
M  V30 6189 C 587.245 1.26325 1.07848 0
M  V30 6190 O 588.43 1.55104 1.11119 0
M  V30 6191 C 585.57 3.04873 1.61699 0
M  V30 6192 C 584.683 4.19135 1.0464 0
M  V30 6193 C 583.818 4.85754 2.14979 0
M  V30 6194 C 582.857 5.9205 1.5538 0
M  V30 6195 N 581.994 6.52365 2.59547 0
M  V30 6196 H 586.834 2.97666 -0.141032 0
M  V30 6197 H 584.371 1.46875 -0.0813692 0
M  V30 6198 H 586.329 3.49051 2.28516 0
M  V30 6199 H 584.959 2.35162 2.2113 0
M  V30 6200 H 584.011 3.79451 0.268553 0
M  V30 6201 H 585.323 4.95525 0.570653 0
M  V30 6202 H 584.477 5.3311 2.89619 0
M  V30 6203 H 583.216 4.08834 2.65906 0
M  V30 6204 H 582.221 5.44058 0.792549 0
M  V30 6205 H 583.446 6.7089 1.0528 0
M  V30 6206 H 581.392 5.78298 3.09689 0
M  V30 6207 H 581.309 7.2429 2.16655 0
M  V30 6208 H 582.577 7.0437 3.33892 0
M  V30 6209 N 586.806 0.0935595 1.57322 0
M  V30 6210 C 588.034 -0.578934 1.98635 0
M  V30 6211 C 588.449 -1.61819 0.972626 0
M  V30 6212 O 587.806 -1.82461 -0.0379638 0
M  V30 6213 C 587.857 -1.22802 3.40003 0
M  V30 6214 O 587.578 -0.230334 4.37494 0
M  V30 6215 C 589.079 -1.98627 3.96311 0
M  V30 6216 H 586.299 -0.155324 0.652775 0
M  V30 6217 H 588.843 0.172393 2.03772 0
M  V30 6218 H 586.998 -1.93029 3.35885 0
M  V30 6219 H 587.412 -0.698649 5.19826 0
M  V30 6220 H 588.886 -2.39405 4.97382 0
M  V30 6221 H 589.363 -2.85151 3.34044 0
M  V30 6222 H 589.969 -1.3322 4.03897 0
M  V30 6223 N 588.284 -1.56567 -0.180126 0
M  V30 6224 C 589.695 -1.7126 -0.743422 0
M  V30 6225 C 590.046 -0.70263 -1.83187 0
M  V30 6226 O 589.171 0.137856 -2.1596 0
M  V30 6227 C 589.766 -3.10512 -1.35528 0
M  V30 6228 C 588.325 -3.26919 -1.8655 0
M  V30 6229 C 587.472 -2.67213 -0.741099 0
M  V30 6230 H 590.423 -1.58636 0.0451543 0
M  V30 6231 H 590.444 -3.08673 -2.22489 0
M  V30 6232 H 589.956 -3.83997 -0.562862 0
M  V30 6233 H 588.057 -2.58376 -2.68464 0
M  V30 6234 H 588.17 -4.34574 -2.01699 0
M  V30 6235 H 586.534 -2.26788 -1.15927 0
M  V30 6236 H 587.317 -3.43277 0.0393291 0
M  V30 6237 N 589.762 0.448376 -1.51087 0
M  V30 6238 C 591.008 1.20049 -1.6345 0
M  V30 6239 C 591.341 1.91121 -0.344444 0
M  V30 6240 O 590.616 1.83125 0.655396 0
M  V30 6241 C 590.899 2.22624 -2.83038 0
M  V30 6242 C 590.752 1.55708 -4.21989 0
M  V30 6243 C 592.071 3.23718 -2.98152 0
M  V30 6244 H 589.19 0.435085 -0.59487 0
M  V30 6245 H 591.832 0.491183 -1.83541 0
M  V30 6246 H 589.982 2.83117 -2.66039 0
M  V30 6247 H 591.654 0.986367 -4.50631 0
M  V30 6248 H 589.897 0.859647 -4.25197 0
M  V30 6249 H 590.568 2.30357 -5.01637 0
M  V30 6250 H 593.044 2.73269 -3.13788 0
M  V30 6251 H 591.92 3.92795 -3.83411 0
M  V30 6252 H 592.181 3.89179 -2.09743 0
M  V30 6253 N 591.24 1.41047 0.703093 0
M  V30 6254 C 592.17 1.45067 1.82969 0
M  V30 6255 C 593.151 0.31016 1.67248 0
M  V30 6256 O 594.336 0.520548 1.87093 0
M  V30 6257 C 591.466 1.32478 3.2104 0
M  V30 6258 C 590.42 2.44262 3.51454 0
M  V30 6259 C 589.746 2.16742 4.88801 0
M  V30 6260 C 591.046 3.86606 3.51189 0
M  V30 6261 H 592.74 2.39353 1.79863 0
M  V30 6262 H 590.286 1.15206 0.863919 0
M  V30 6263 H 592.239 1.33904 3.99559 0
M  V30 6264 H 590.963 0.346735 3.24754 0
M  V30 6265 H 589.622 2.42107 2.75282 0
M  V30 6266 H 589.27 1.17299 4.89132 0
M  V30 6267 H 588.97 2.91643 5.10116 0
M  V30 6268 H 590.494 2.19872 5.69639 0
M  V30 6269 H 591.908 3.90517 4.19725 0
M  V30 6270 H 590.305 4.61128 3.84033 0
M  V30 6271 H 591.375 4.15296 2.50315 0
M  V30 6272 N 592.718 -0.936591 1.26751 0
M  V30 6273 C 593.965 -1.68331 1.12566 0
M  V30 6274 C 594.293 -1.91677 -0.330168 0
M  V30 6275 O 593.548 -1.49859 -1.2586 0
M  V30 6276 C 593.847 -3.06099 1.84494 0
M  V30 6277 C 593.513 -3.02493 3.34378 0
M  V30 6278 C 592.175 -3.01217 3.75262 0
M  V30 6279 C 594.527 -2.94453 4.30055 0
M  V30 6280 C 591.855 -2.89672 5.10203 0
M  V30 6281 C 594.207 -2.84449 5.65041 0
M  V30 6282 C 592.871 -2.81518 6.0523 0
M  V30 6283 H 592.141 -0.615965 0.411907 0
M  V30 6284 H 594.788 -1.09292 1.5725 0
M  V30 6285 H 593.093 -3.6879 1.32292 0
M  V30 6286 H 594.79 -3.62733 1.70955 0
M  V30 6287 H 591.38 -3.04269 3.01858 0
M  V30 6288 H 595.564 -2.94544 3.99447 0
M  V30 6289 H 590.82 -2.85783 5.40498 0
M  V30 6290 H 594.994 -2.77192 6.38856 0
M  V30 6291 H 592.621 -2.72329 7.09747 0
M  V30 6292 N 594.196 -1.08629 -1.14182 0
M  V30 6293 C 595.442 -0.818556 -1.85546 0
M  V30 6294 C 595.775 0.654076 -1.82854 0
M  V30 6295 O 595.05 1.48099 -1.26083 0
M  V30 6296 C 595.333 -1.34397 -3.3408 0
M  V30 6297 C 595.186 -2.8821 -3.45333 0
M  V30 6298 C 596.505 -0.971069 -4.29253 0
M  V30 6299 H 593.624 -0.298821 -0.673702 0
M  V30 6300 H 596.266 -1.34629 -1.34071 0
M  V30 6301 H 594.416 -0.895064 -3.78049 0
M  V30 6302 H 596.088 -3.41488 -3.10134 0
M  V30 6303 H 594.331 -3.25756 -2.86471 0
M  V30 6304 H 595.002 -3.20047 -4.49749 0
M  V30 6305 H 597.478 -1.35809 -3.93313 0
M  V30 6306 H 596.354 -1.36586 -5.31635 0
M  V30 6307 H 596.615 0.121659 -4.41933 0
M  V30 6308 N 595.674 1.31259 -0.872281 0
M  V30 6309 C 596.923 1.95893 -0.480493 0
M  V30 6310 C 597.236 1.697 0.972688 0
M  V30 6311 O 598.442 2.28214 1.47073 0
M  V30 6312 C 596.898 3.50705 -0.808342 0
M  V30 6313 C 596.506 3.85735 -2.27844 0
M  V30 6314 C 598.25 4.21719 -0.485136 0
M  V30 6315 C 596.157 5.33668 -2.54858 0
M  V30 6316 H 595.087 0.733182 -0.175955 0
M  V30 6317 H 597.738 1.49396 -1.0655 0
M  V30 6318 H 596.12 3.95706 -0.152558 0
M  V30 6319 H 597.294 3.51686 -2.97748 0
M  V30 6320 H 595.609 3.27792 -2.56791 0
M  V30 6321 H 598.206 5.30559 -0.664166 0
M  V30 6322 H 598.549 4.12316 0.574592 0
M  V30 6323 H 599.082 3.82359 -1.09756 0
M  V30 6324 H 595.821 5.48109 -3.59523 0
M  V30 6325 H 595.341 5.69061 -1.8955 0
M  V30 6326 H 597.02 6.00958 -2.39706 0
M  V30 6327 N 597.152 0.631951 1.44375 0
M  V30 6328 C 598.4 0.136497 2.01639 0
M  V30 6329 C 598.721 -1.24637 1.49969 0
M  V30 6330 O 597.991 -1.82827 0.70363 0
M  V30 6331 H 596.571 0.0474703 0.74549 0
M  V30 6332 H 599.233 0.818837 1.76865 0
M  V30 6333 H 598.329 0.104817 3.11924 0
M  V30 6334 N 598.631 -1.53133 0.372548 0
M  V30 6335 C 599.563 -2.23557 -0.505444 0
M  V30 6336 C 600.576 -1.25211 -1.04049 0
M  V30 6337 O 601.765 -1.51391 -0.945675 0
M  V30 6338 C 598.865 -2.92516 -1.71136 0
M  V30 6339 C 598.038 -4.17428 -1.30661 0
M  V30 6340 C 597.097 -4.69535 -2.37536 0
M  V30 6341 O 596.123 -5.33042 -1.99637 0
M  V30 6342 N 597.325 -4.47947 -3.6922 0
M  V30 6343 H 600.09 -2.9954 0.0978259 0
M  V30 6344 H 597.651 -1.60684 0.198068 0
M  V30 6345 H 599.643 -3.24281 -2.42124 0
M  V30 6346 H 598.213 -2.19944 -2.22134 0
M  V30 6347 H 597.433 -3.91888 -0.426292 0
M  V30 6348 H 598.721 -4.98622 -1.01259 0
M  V30 6349 H 598.119 -3.97219 -4.02783 0
M  V30 6350 H 596.676 -4.84245 -4.36292 0
M  V30 6351 N 600.109 -0.101901 -1.5727 0
M  V30 6352 C 601.057 0.872034 -2.15635 0
M  V30 6353 C 602.051 1.28742 -1.10099 0
M  V30 6354 O 603.257 1.26116 -1.28432 0
M  V30 6355 H 599.632 0.299269 -0.689886 0
M  V30 6356 H 601.603 0.355137 -2.96279 0
M  V30 6357 C 600.352 2.11886 -2.7568 0
M  V30 6358 H 599.675 1.80813 -3.56576 0
M  V30 6359 H 601.115 2.78077 -3.20077 0
M  V30 6360 C 599.574 2.89739 -1.7191 0
M  V30 6361 O 600.104 3.84522 -1.16213 0
M  V30 6362 N 598.31 2.53407 -1.42245 0
M  V30 6363 H 597.857 1.76398 -1.87727 0
M  V30 6364 H 597.815 3.05795 -0.730529 0
M  V30 6365 N 601.587 1.56661 0.17182 0
M  V30 6366 C 602.812 1.86459 0.908165 0
M  V30 6367 C 603.237 0.688181 1.75059 0
M  V30 6368 O 602.595 -0.362753 1.77634 0
M  V30 6369 C 602.643 3.14669 1.76112 0
M  V30 6370 O 601.747 2.96858 2.86268 0
M  V30 6371 H 601.088 0.613318 0.254434 0
M  V30 6372 H 603.618 2.03892 0.170113 0
M  V30 6373 H 603.628 3.46061 2.16115 0
M  V30 6374 H 602.303 3.99905 1.14233 0
M  V30 6375 H 600.88 2.76819 2.49852 0
M  V30 6376 N 603.065 -0.440357 1.51323 0
M  V30 6377 C 603.995 -1.54174 1.75364 0
M  V30 6378 C 604.976 -1.59039 0.603375 0
M  V30 6379 O 606.161 -1.74815 0.845774 0
M  V30 6380 C 603.291 -2.92277 1.87593 0
M  V30 6381 C 602.245 -3.02274 3.03009 0
M  V30 6382 C 601.571 -4.42327 3.00418 0
M  V30 6383 C 602.871 -2.76634 4.43024 0
M  V30 6384 H 604.565 -1.34307 2.67585 0
M  V30 6385 H 602.111 -0.644678 1.28763 0
M  V30 6386 H 604.064 -3.69284 2.02995 0
M  V30 6387 H 602.788 -3.13369 0.920179 0
M  V30 6388 H 601.447 -2.27706 2.87307 0
M  V30 6389 H 601.095 -4.60382 2.02626 0
M  V30 6390 H 600.795 -4.49946 3.77918 0
M  V30 6391 H 602.319 -5.21312 3.17909 0
M  V30 6392 H 603.733 -3.43376 4.59093 0
M  V30 6393 H 602.13 -2.95666 5.22208 0
M  V30 6394 H 603.2 -1.72262 4.5327 0
M  V30 6395 N 604.543 -1.41418 -0.695603 0
M  V30 6396 C 605.475 -1.39195 -1.82092 0
M  V30 6397 C 606.488 -0.294132 -1.60121 0
M  V30 6398 O 607.677 -0.555854 -1.69625 0
M  V30 6399 C 604.777 -1.14828 -3.18854 0
M  V30 6400 C 603.95 -2.36649 -3.67853 0
M  V30 6401 C 603.009 -2.08139 -4.83285 0
M  V30 6402 O 602.035 -2.81177 -4.94902 0
M  V30 6403 N 603.237 -1.07162 -5.70523 0
M  V30 6404 H 606.002 -2.36185 -1.84491 0
M  V30 6405 H 603.563 -1.3603 -0.877923 0
M  V30 6406 H 605.555 -0.937075 -3.93702 0
M  V30 6407 H 604.125 -0.264358 -3.1148 0
M  V30 6408 H 603.345 -2.73472 -2.83913 0
M  V30 6409 H 604.633 -3.17816 -3.97329 0
M  V30 6410 H 604.031 -0.467124 -5.63768 0
M  V30 6411 H 602.588 -0.920311 -6.4527 0
M  V30 6412 N 606.021 0.929856 -1.27246 0
M  V30 6413 C 607.261 1.6919 -1.14691 0
M  V30 6414 C 607.625 1.896 0.302621 0
M  V30 6415 O 608.826 2.63102 0.550543 0
M  V30 6416 C 607.097 3.02291 -1.9067 0
M  V30 6417 S 608.656 3.93436 -1.94303 0
M  V30 6418 H 605.474 0.581248 -0.409477 0
M  V30 6419 H 608.076 1.10722 -1.61124 0
M  V30 6420 H 606.78 2.85125 -2.95181 0
M  V30 6421 H 606.311 3.65813 -1.44723 0
M  V30 6422 H 608.326 4.85224 -1.0379 0
M  V30 6423 N 607.499 1.09233 1.13605 0
M  V30 6424 C 608.449 0.6994 2.17008 0
M  V30 6425 C 609.433 -0.285238 1.58352 0
M  V30 6426 O 610.625 -0.09592 1.7674 0
M  V30 6427 C 607.754 0.11938 3.43092 0
M  V30 6428 C 606.84 1.13031 4.0876 0
M  V30 6429 N 607.231 2.31673 4.49623 0
M  V30 6430 C 605.529 0.967999 4.35369 0
M  V30 6431 C 606.23 2.95964 5.00779 0
M  V30 6432 N 605.206 2.23534 4.95513 0
M  V30 6433 H 609.008 1.60272 2.46354 0
M  V30 6434 H 606.522 0.968257 1.30378 0
M  V30 6435 H 608.519 -0.180122 4.16511 0
M  V30 6436 H 607.179 -0.778816 3.15221 0
M  V30 6437 H 608.19 2.69277 4.42391 0
M  V30 6438 H 604.867 0.124319 4.17315 0
M  V30 6439 H 606.257 3.96813 5.42208 0
M  V30 6440 N 608.977 -1.30795 0.87923 0
M  V30 6441 C 610.388 -1.78535 0.546093 0
M  V30 6442 C 610.739 -1.72354 -0.937467 0
M  V30 6443 O 609.864 -1.2969 -1.73233 0
M  V30 6444 C 610.459 -3.24181 0.9845 0
M  V30 6445 C 609.018 -3.69779 0.702871 0
M  V30 6446 C 608.165 -2.51377 1.17068 0
M  V30 6447 H 611.116 -1.17746 1.06403 0
M  V30 6448 H 611.137 -3.79227 0.311045 0
M  V30 6449 H 610.649 -3.28647 2.06429 0
M  V30 6450 H 608.75 -3.70806 -0.365166 0
M  V30 6451 H 608.863 -4.61507 1.28639 0
M  V30 6452 H 607.227 -2.47768 0.590172 0
M  V30 6453 H 608.01 -2.58584 2.25808 0
M  V30 6454 N 610.455 -0.639598 -1.44038 0
M  V30 6455 C 611.365 0.0612377 -2.3452 0
M  V30 6456 C 612.381 0.826717 -1.53106 0
M  V30 6457 O 613.557 0.777059 -1.85806 0
M  V30 6458 C 610.622 1.02492 -3.31204 0
M  V30 6459 C 609.683 0.25788 -4.28525 0
M  V30 6460 C 608.916 1.17566 -5.2059 0
M  V30 6461 O 609.139 2.41461 -5.16771 0
M  V30 6462 O 608.073 0.655407 -5.98321 0
M  V30 6463 H 611.899 -0.68318 -2.95916 0
M  V30 6464 H 609.484 -0.399784 -1.43952 0
M  V30 6465 H 611.366 1.57911 -3.90694 0
M  V30 6466 H 610.041 1.7498 -2.7233 0
M  V30 6467 H 608.948 -0.339566 -3.72556 0
M  V30 6468 H 610.281 -0.427154 -4.90343 0
M  V30 6469 N 611.933 1.52934 -0.380664 0
M  V30 6470 C 612.896 2.24809 0.446473 0
M  V30 6471 C 613.896 1.26133 0.997347 0
M  V30 6472 O 615.086 1.50297 0.880714 0
M  V30 6473 C 612.218 2.99649 1.62553 0
M  V30 6474 H 613.411 2.99343 -0.182677 0
M  V30 6475 H 610.964 1.55736 -0.132618 0
M  V30 6476 H 611.699 2.29395 2.29235 0
M  V30 6477 H 611.484 3.72066 1.23732 0
M  V30 6478 H 612.974 3.54246 2.21133 0
M  V30 6479 N 613.412 0.11024 1.57214 0
M  V30 6480 C 614.345 -0.880224 2.1054 0
M  V30 6481 C 615.323 -1.26658 1.01964 0
M  V30 6482 O 616.507 -1.36917 1.29561 0
M  V30 6483 C 613.634 -2.17676 2.59489 0
M  V30 6484 C 612.68 -1.93914 3.79868 0
M  V30 6485 S 613.513 -1.16336 5.2271 0
M  V30 6486 C 614.669 -2.47188 5.75021 0
M  V30 6487 H 614.902 -0.426614 2.94223 0
M  V30 6488 H 612.435 -0.10336 1.54054 0
M  V30 6489 H 614.393 -2.92175 2.88347 0
M  V30 6490 H 613.054 -2.60156 1.76005 0
M  V30 6491 H 612.247 -2.8996 4.12236 0
M  V30 6492 H 611.849 -1.27539 3.51582 0
M  V30 6493 H 614.141 -3.43079 5.84211 0
M  V30 6494 H 615.084 -2.19377 6.7326 0
M  V30 6495 H 615.492 -2.56154 5.03036 0
M  V30 6496 N 614.89 -1.56749 -0.16351 0
M  V30 6497 C 615.8 -2.00255 -1.2221 0
M  V30 6498 C 616.816 -0.915194 -1.47987 0
M  V30 6499 O 617.992 -1.22342 -1.59982 0
M  V30 6500 C 615.057 -2.36035 -2.53946 0
M  V30 6501 C 614.118 -3.58637 -2.35962 0
M  V30 6502 C 613.351 -3.92701 -3.61416 0
M  V30 6503 O 613.574 -3.27632 -4.66919 0
M  V30 6504 O 612.508 -4.86019 -3.55062 0
M  V30 6505 H 616.334 -2.90586 -0.882794 0
M  V30 6506 H 613.919 -1.44721 -0.370978 0
M  V30 6507 H 615.801 -2.59982 -3.31643 0
M  V30 6508 H 614.476 -1.48863 -2.8744 0
M  V30 6509 H 613.383 -3.39898 -1.5627 0
M  V30 6510 H 614.716 -4.46374 -2.0739 0
M  V30 6511 N 616.368 0.432326 -1.51554 0
M  V30 6512 C 617.645 1.19288 -1.55015 0
M  V30 6513 C 618.025 2.08701 -0.317375 0
M  V30 6514 O 617.373 2.17602 0.697243 0
M  V30 6515 C 617.583 1.99037 -2.86679 0
M  V30 6516 C 618.931 2.55907 -3.38817 0
M  V30 6517 O 619.955 2.09243 -2.88263 0
M  V30 6518 O 618.814 3.41029 -4.27038 0
M  V30 6519 H 615.908 0.543369 -0.623441 0
M  V30 6520 H 618.454 0.440988 -1.6387 0
M  V30 6521 H 617.226 1.33397 -3.6786 0
M  V30 6522 H 616.849 2.81281 -2.8101 0
M  V30 6523 N 617.846 1.41785 0.688094 0
M  V30 6524 C 619.093 1.41544 1.44816 0
M  V30 6525 C 619.421 0.0271746 1.94481 0
M  V30 6526 O 618.676 -0.962235 1.7041 0
M  V30 6527 C 618.975 2.37532 2.67046 0
M  V30 6528 C 618.641 3.84209 2.35996 0
M  V30 6529 C 617.303 4.24165 2.27239 0
M  V30 6530 C 619.655 4.76785 2.10536 0
M  V30 6531 C 616.983 5.54695 1.91128 0
M  V30 6532 C 619.335 6.07644 1.75931 0
M  V30 6533 C 617.999 6.46613 1.65675 0
M  V30 6534 H 617.269 0.517945 0.529919 0
M  V30 6535 H 619.916 1.74635 0.785797 0
M  V30 6536 H 618.221 1.9772 3.38251 0
M  V30 6537 H 619.918 2.34615 3.25203 0
M  V30 6538 H 616.508 3.52567 2.4371 0
M  V30 6539 H 620.692 4.46714 2.16242 0
M  V30 6540 H 615.948 5.83762 1.81746 0
M  V30 6541 H 620.122 6.78874 1.55252 0
M  V30 6542 H 617.749 7.47668 1.37463 0
M  V30 6543 N 619.324 -0.923095 1.27737 0
M  V30 6544 C 620.74 -1.19985 1.05241 0
M  V30 6545 C 620.94 -2.00391 -0.21113 0
M  V30 6546 O 619.996 -2.35324 -0.915366 0
M  V30 6547 C 621.309 -1.94352 2.29451 0
M  V30 6548 C 622.857 -2.07273 2.34536 0
M  V30 6549 C 623.332 -2.85046 3.58487 0
M  V30 6550 N 624.823 -2.92612 3.59072 0
M  V30 6551 C 625.558 -3.53266 4.51654 0
M  V30 6552 N 625.054 -4.15274 5.54545 0
M  V30 6553 N 626.847 -3.50714 4.39268 0
M  V30 6554 H 618.998 -0.386042 2.08862 0
M  V30 6555 H 621.261 -0.233407 0.918817 0
M  V30 6556 H 620.967 -1.42692 3.21453 0
M  V30 6557 H 620.841 -2.94947 2.3513 0
M  V30 6558 H 623.228 -2.58117 1.43037 0
M  V30 6559 H 623.309 -1.05884 2.32857 0
M  V30 6560 H 622.953 -2.34884 4.50324 0
M  V30 6561 H 622.883 -3.8673 3.57418 0
M  V30 6562 H 625.374 -2.48547 2.84663 0
M  V30 6563 H 625.687 -4.59507 6.21348 0
M  V30 6564 H 624.032 -4.13806 5.58382 0
M  V30 6565 H 627.223 -3.01475 3.58093 0
M  V30 6566 H 627.396 -3.97693 5.1161 0
M  V30 6567 N 620.802 -1.09834 -1.13024 0
M  V30 6568 C 621.712 -0.753731 -2.22162 0
M  V30 6569 C 622.728 0.246105 -1.72251 0
M  V30 6570 O 623.904 0.0864051 -2.01215 0
M  V30 6571 C 620.969 -0.183958 -3.46212 0
M  V30 6572 C 620.03 -1.24028 -4.10993 0
M  V30 6573 C 619.263 -0.697597 -5.29121 0
M  V30 6574 O 619.486 0.478092 -5.68393 0
M  V30 6575 O 618.42 -1.4546 -5.84059 0
M  V30 6576 H 622.246 -1.66456 -2.5402 0
M  V30 6577 H 619.831 -0.873026 -1.21238 0
M  V30 6578 H 621.713 0.130257 -4.21199 0
M  V30 6579 H 620.388 0.699823 -3.16045 0
M  V30 6580 H 619.295 -1.60725 -3.37814 0
M  V30 6581 H 620.628 -2.09685 -4.45301 0
M  V30 6582 N 622.28 1.30327 -0.886154 0
M  V30 6583 C 623.227 2.28099 -0.352069 0
M  V30 6584 C 624.197 1.56433 0.558397 0
M  V30 6585 O 625.382 1.84492 0.486561 0
M  V30 6586 C 622.522 3.42456 0.426346 0
M  V30 6587 C 621.635 4.28938 -0.513472 0
M  V30 6588 C 620.77 5.30458 0.280657 0
M  V30 6589 C 619.809 6.0859 -0.654556 0
M  V30 6590 N 618.946 7.02022 0.104322 0
M  V30 6591 H 623.786 2.73166 -1.19097 0
M  V30 6592 H 621.323 1.34367 -0.598662 0
M  V30 6593 H 623.281 4.07518 0.893587 0
M  V30 6594 H 621.911 2.98455 1.22981 0
M  V30 6595 H 620.963 3.64173 -1.09921 0
M  V30 6596 H 622.275 4.83399 -1.2299 0
M  V30 6597 H 621.429 6.01273 0.8097 0
M  V30 6598 H 620.168 4.76693 1.03029 0
M  V30 6599 H 619.173 5.36651 -1.19522 0
M  V30 6600 H 620.398 6.64443 -1.4033 0
M  V30 6601 H 618.344 6.50645 0.836472 0
M  V30 6602 H 618.261 7.53979 -0.552453 0
M  V30 6603 H 619.529 7.77077 0.614069 0
M  V30 6604 N 623.758 0.647228 1.43697 0
M  V30 6605 C 625.007 0.155552 2.01099 0
M  V30 6606 C 625.32 -1.23569 1.51624 0
M  V30 6607 O 626.526 -1.82226 2.01261 0
M  V30 6608 C 624.982 0.227296 3.59182 0
M  V30 6609 C 624.59 1.62086 4.17651 0
M  V30 6610 C 626.334 -0.207085 4.23995 0
M  V30 6611 C 624.241 1.64685 5.68008 0
M  V30 6612 H 623.171 0.0543895 0.752036 0
M  V30 6613 H 625.822 0.808386 1.64734 0
M  V30 6614 H 624.204 -0.492937 3.9292 0
M  V30 6615 H 625.378 2.36597 3.95422 0
M  V30 6616 H 623.693 2.0007 3.65186 0
M  V30 6617 H 626.29 -0.207426 5.34298 0
M  V30 6618 H 626.633 -1.23742 3.97484 0
M  V30 6619 H 627.166 0.461193 3.95118 0
M  V30 6620 H 623.905 2.65608 5.99277 0
M  V30 6621 H 623.425 0.944914 5.9231 0
M  V30 6622 H 625.104 1.38792 6.31938 0
M  V30 6623 N 625.236 -1.5273 0.388769 0
M  V30 6624 C 626.652 -1.59553 0.0387049 0
M  V30 6625 C 626.852 -1.40278 -1.44652 0
M  V30 6626 O 625.908 -1.21951 -2.21098 0
M  V30 6627 C 627.221 -2.9625 0.515409 0
M  V30 6628 C 628.769 -3.09426 0.471621 0
M  V30 6629 C 629.244 -4.48572 0.924505 0
M  V30 6630 N 630.735 -4.54754 0.880496 0
M  V30 6631 C 631.47 -5.60653 1.20234 0
M  V30 6632 N 630.966 -6.74198 1.59463 0
M  V30 6633 N 632.759 -5.50755 1.12363 0
M  V30 6634 H 624.91 -1.63508 1.35569 0
M  V30 6635 H 627.173 -0.768097 0.555636 0
M  V30 6636 H 626.879 -3.15569 1.5527 0
M  V30 6637 H 626.753 -3.77102 -0.085792 0
M  V30 6638 H 629.14 -2.89804 -0.556588 0
M  V30 6639 H 629.221 -2.30528 1.10862 0
M  V30 6640 H 628.865 -4.68936 1.95094 0
M  V30 6641 H 628.795 -5.25935 0.264524 0
M  V30 6642 H 631.286 -3.73237 0.591815 0
M  V30 6643 H 631.599 -7.5097 1.82385 0
M  V30 6644 H 629.944 -6.75531 1.63349 0
M  V30 6645 H 633.135 -4.6093 0.816169 0
M  V30 6646 H 633.308 -6.33184 1.37777 0
M  V30 6647 N 626.714 -0.118576 -1.57153 0
M  V30 6648 C 627.677 0.817464 -2.14127 0
M  V30 6649 C 628.677 1.1949 -1.07604 0
M  V30 6650 O 629.867 1.12048 -1.33382 0
M  V30 6651 C 626.999 2.10541 -2.68115 0
M  V30 6652 H 628.192 0.322339 -2.98163 0
M  V30 6653 H 625.745 0.130655 -1.55753 0
M  V30 6654 H 626.48 2.64485 -1.87665 0
M  V30 6655 H 626.265 1.84425 -3.4602 0
M  V30 6656 H 627.755 2.77453 -3.12105 0
M  V30 6657 N 628.193 1.56834 0.155195 0
M  V30 6658 C 629.103 2.009 1.21146 0
M  V30 6659 C 630.119 0.923029 1.475 0
M  V30 6660 O 631.295 1.23189 1.59331 0
M  V30 6661 C 628.36 2.37378 2.52691 0
M  V30 6662 C 627.421 3.59883 2.34057 0
M  V30 6663 C 626.654 3.94612 3.59329 0
M  V30 6664 O 626.877 3.30104 4.65175 0
M  V30 6665 O 625.811 4.87895 3.52479 0
M  V30 6666 H 629.637 2.9105 0.867371 0
M  V30 6667 H 627.222 1.44916 0.363298 0
M  V30 6668 H 629.104 2.61737 3.3026 0
M  V30 6669 H 627.779 1.50385 2.86646 0
M  V30 6670 H 626.686 3.40722 1.54465 0
M  V30 6671 H 628.019 4.47468 2.0502 0
M  V30 6672 N 629.671 -0.424282 1.51781 0
M  V30 6673 C 630.619 -1.53649 1.74628 0
M  V30 6674 C 631.613 -1.57923 0.612922 0
M  V30 6675 O 632.819 -1.61511 0.794618 0
M  V30 6676 H 629.194 -0.510706 0.551981 0
M  V30 6677 H 631.165 -1.31558 2.67834 0
M  V30 6678 C 629.914 -2.91177 1.9003 0
M  V30 6679 H 629.237 -2.88625 2.76651 0
M  V30 6680 H 630.677 -3.6833 2.10021 0
M  V30 6681 C 629.136 -3.30303 0.663435 0
M  V30 6682 O 629.666 -4.01315 -0.175812 0
M  V30 6683 N 627.872 -2.86201 0.503723 0
M  V30 6684 H 627.419 -2.28583 1.18776 0
M  V30 6685 H 627.377 -3.12741 -0.322575 0
M  V30 6686 N 631.149 -1.42148 -0.680565 0
M  V30 6687 C 632.374 -1.45901 -1.47403 0
M  V30 6688 C 632.799 -0.0700985 -1.87969 0
M  V30 6689 O 632.157 0.930145 -1.55621 0
M  V30 6690 C 632.205 -2.38661 -2.70321 0
M  V30 6691 O 631.309 -1.85399 -3.68376 0
M  V30 6692 H 630.65 -0.494565 -0.443059 0
M  V30 6693 H 633.18 -1.86774 -0.835251 0
M  V30 6694 H 633.19 -2.55046 -3.18458 0
M  V30 6695 H 631.865 -3.39571 -2.40134 0
M  V30 6696 H 630.442 -1.78541 -3.2738 0
M  V30 6697 N 632.627 0.916307 -1.28225 0
M  V30 6698 C 633.557 2.0352 -1.14464 0
M  V30 6699 C 634.538 1.70045 -0.0430844 0
M  V30 6700 O 635.723 1.92954 -0.219619 0
M  V30 6701 C 632.853 3.37889 -0.803027 0
M  V30 6702 C 631.807 3.85516 -1.85908 0
M  V30 6703 C 631.133 5.1682 -1.37116 0
M  V30 6704 C 632.433 4.07655 -3.26519 0
M  V30 6705 H 634.127 2.1529 -2.08064 0
M  V30 6706 H 631.673 1.03446 -1.00174 0
M  V30 6707 H 633.626 4.15654 -0.693537 0
M  V30 6708 H 632.35 3.26164 0.168674 0
M  V30 6709 H 631.009 3.09953 -1.95767 0
M  V30 6710 H 630.657 5.01497 -0.38859 0
M  V30 6711 H 630.357 5.49657 -2.07728 0
M  V30 6712 H 631.881 5.97143 -1.27484 0
M  V30 6713 H 633.295 4.75953 -3.19596 0
M  V30 6714 H 631.692 4.51818 -3.94943 0
M  V30 6715 H 632.762 3.12553 -3.70727 0
M  V30 6716 N 634.105 1.10431 1.1244 0
M  V30 6717 C 635.351 0.847972 1.84221 0
M  V30 6718 C 635.684 -0.624903 1.83871 0
M  V30 6719 O 634.959 -1.46074 1.28423 0
M  V30 6720 C 635.242 1.39695 3.319 0
M  V30 6721 C 635.095 2.93668 3.40704 0
M  V30 6722 C 636.414 1.03924 4.27654 0
M  V30 6723 H 633.533 0.309502 0.668863 0
M  V30 6724 H 636.175 1.36745 1.31912 0
M  V30 6725 H 634.325 0.955095 3.76577 0
M  V30 6726 H 635.997 3.46379 3.04662 0
M  V30 6727 H 634.24 3.30272 2.81252 0
M  V30 6728 H 634.911 3.27162 4.446 0
M  V30 6729 H 637.387 1.42049 3.91102 0
M  V30 6730 H 636.263 1.45027 5.29394 0
M  V30 6731 H 636.524 -0.051336 4.4207 0
M  V30 6732 N 635.583 -1.29855 0.893053 0
M  V30 6733 C 636.829 -1.96116 0.516349 0
M  V30 6734 C 637.162 -1.70281 -0.933695 0
M  V30 6735 O 636.437 -1.01205 -1.66096 0
M  V30 6736 C 636.72 -3.51068 0.801455 0
M  V30 6737 C 636.573 -3.86387 2.30272 0
M  V30 6738 C 637.892 -4.39186 0.283423 0
M  V30 6739 H 635.011 -0.712335 0.189072 0
M  V30 6740 H 637.653 -1.53587 1.11852 0
M  V30 6741 H 635.803 -3.87424 0.288949 0
M  V30 6742 H 637.475 -3.60012 2.88425 0
M  V30 6743 H 635.718 -3.34167 2.76613 0
M  V30 6744 H 636.389 -4.94512 2.45279 0
M  V30 6745 H 638.865 -4.09785 0.722187 0
M  V30 6746 H 637.741 -5.46505 0.512169 0
M  V30 6747 H 638.002 -4.34511 -0.815643 0
M  V30 6748 N 637.061 -0.65484 -1.43351 0
M  V30 6749 C 638.307 -0.169142 -2.02093 0
M  V30 6750 C 638.64 1.21431 -1.51553 0
M  V30 6751 O 637.915 1.81105 -0.709317 0
M  V30 6752 C 638.198 -0.181775 -3.59641 0
M  V30 6753 C 638.051 -1.59926 -4.20409 0
M  V30 6754 C 639.37 0.480945 -4.37464 0
M  V30 6755 H 636.489 -0.0629371 -0.734308 0
M  V30 6756 H 639.131 -0.835833 -1.70628 0
M  V30 6757 H 637.281 0.385918 -3.86578 0
M  V30 6758 H 638.953 -2.21766 -4.04497 0
M  V30 6759 H 637.196 -2.14605 -3.76998 0
M  V30 6760 H 637.867 -1.55994 -5.295 0
M  V30 6761 H 640.343 -0.00208273 -4.161 0
M  V30 6762 H 639.219 0.441384 -5.47122 0
M  V30 6763 H 639.48 1.55533 -4.13838 0
M  V30 6764 N 638.539 1.52521 -0.396863 0
M  V30 6765 C 639.787 2.01274 0.182536 0
M  V30 6766 C 640.108 1.28485 1.46685 0
M  V30 6767 O 639.378 0.407134 1.91623 0
M  V30 6768 H 637.958 0.743671 0.0704442 0
M  V30 6769 H 640.62 1.87547 -0.530289 0
M  V30 6770 H 639.716 3.09687 0.387385 0
M  V30 6771 N 640.017 0.126909 1.57088 0
M  V30 6772 C 641.265 -0.528123 1.95078 0
M  V30 6773 C 641.586 -1.66708 1.0116 0
M  V30 6774 O 640.856 -1.95777 0.0693527 0
M  V30 6775 H 639.436 -0.198087 0.720257 0
M  V30 6776 H 642.098 0.197703 1.93895 0
M  V30 6777 H 641.194 -0.917507 2.98309 0
M  V30 6778 N 641.495 -1.56914 -0.146875 0
M  V30 6779 C 642.458 -1.97368 -1.16526 0
M  V30 6780 C 643.458 -0.860223 -1.35856 0
M  V30 6781 O 644.648 -1.12684 -1.32846 0
M  V30 6782 C 641.78 -2.28974 -2.52555 0
M  V30 6783 H 642.973 -2.88523 -0.818209 0
M  V30 6784 H 640.526 -1.5135 -0.390221 0
M  V30 6785 H 641.261 -1.40611 -2.92231 0
M  V30 6786 H 641.046 -3.10157 -2.39886 0
M  V30 6787 H 642.536 -2.61109 -3.25902 0
M  V30 6788 N 642.974 0.416227 -1.52004 0
M  V30 6789 C 644.251 1.17637 -1.56272 0
M  V30 6790 C 644.631 2.08352 -0.339493 0
M  V30 6791 O 643.979 2.1833 0.674124 0
M  V30 6792 C 644.189 1.95986 -2.88774 0
M  V30 6793 C 645.537 2.52299 -3.41512 0
M  V30 6794 O 646.561 2.06174 -2.90467 0
M  V30 6795 O 645.42 3.3648 -4.30631 0
M  V30 6796 H 642.514 0.536726 -0.629169 0
M  V30 6797 H 645.06 0.423583 -1.64329 0
M  V30 6798 H 643.832 1.29487 -3.69254 0
M  V30 6799 H 643.455 2.78285 -2.83978 0
M  V30 6800 N 644.452 1.42507 0.673017 0
M  V30 6801 C 645.729 1.33554 1.42908 0
M  V30 6802 C 646.109 -0.0262211 2.11084 0
M  V30 6803 O 645.457 -1.04181 2.03368 0
M  V30 6804 C 645.667 2.50498 2.43006 0
M  V30 6805 C 647.015 2.92694 3.07596 0
M  V30 6806 O 648.039 2.50401 2.53333 0
M  V30 6807 O 646.898 3.65899 4.05931 0
M  V30 6808 H 643.992 0.526785 0.637516 0
M  V30 6809 H 646.538 1.54518 0.701591 0
M  V30 6810 H 645.31 3.41272 1.9144 0
M  V30 6811 H 644.933 2.3153 3.23233 0
M  V30 6812 N 645.93 -0.909495 1.28709 0
M  V30 6813 C 646.878 -2.03381 1.12866 0
M  V30 6814 C 647.872 -1.69335 0.0468074 0
M  V30 6815 O 649.078 -1.78819 0.205891 0
M  V30 6816 H 645.453 -0.666452 0.348348 0
M  V30 6817 H 647.424 -2.13885 2.08077 0
M  V30 6818 C 646.173 -3.38092 0.811742 0
M  V30 6819 H 645.496 -3.64786 1.63619 0
M  V30 6820 H 646.936 -4.17477 0.740869 0
M  V30 6821 C 645.395 -3.33395 -0.484679 0
M  V30 6822 O 645.925 -3.72089 -1.5137 0
M  V30 6823 N 644.131 -2.86491 -0.486961 0
M  V30 6824 H 643.678 -2.55199 0.350877 0
M  V30 6825 H 643.636 -2.83731 -1.3544 0
M  V30 6826 N 647.408 -1.11026 -1.11852 0
M  V30 6827 C 648.338 -0.786812 -2.19844 0
M  V30 6828 C 649.319 0.242935 -1.68356 0
M  V30 6829 O 650.504 0.107355 -1.93903 0
M  V30 6830 C 647.634 -0.224516 -3.46574 0
M  V30 6831 C 646.588 -1.18564 -4.1125 0
M  V30 6832 C 645.914 -0.484261 -5.32503 0
M  V30 6833 C 647.214 -2.53465 -4.56676 0
M  V30 6834 H 648.908 -1.68978 -2.47158 0
M  V30 6835 H 646.454 -0.813906 -1.18792 0
M  V30 6836 H 648.407 0.0139435 -4.21398 0
M  V30 6837 H 647.131 0.713722 -3.18706 0
M  V30 6838 H 645.79 -1.40966 -3.38414 0
M  V30 6839 H 645.438 0.458646 -5.00905 0
M  V30 6840 H 645.138 -1.12526 -5.76725 0
M  V30 6841 H 646.662 -0.254492 -6.10069 0
M  V30 6842 H 648.076 -2.35177 -5.22843 0
M  V30 6843 H 646.473 -3.13507 -5.11697 0
M  V30 6844 H 647.543 -3.13008 -3.70343 0
M  V30 6845 N 648.886 1.2938 -0.899927 0
M  V30 6846 C 650.302 1.48052 -0.596059 0
M  V30 6847 C 650.502 1.82114 0.862372 0
M  V30 6848 O 649.558 1.91774 1.64253 0
M  V30 6849 C 650.871 2.59332 -1.52208 0
M  V30 6850 C 652.419 2.73208 -1.5273 0
M  V30 6851 C 652.894 3.87617 -2.43961 0
M  V30 6852 N 654.385 3.9495 -2.42009 0
M  V30 6853 C 655.12 4.82824 -3.09303 0
M  V30 6854 N 654.616 5.75387 -3.85877 0
M  V30 6855 N 656.409 4.76317 -2.98459 0
M  V30 6856 H 648.56 1.05546 -1.8432 0
M  V30 6857 H 650.823 0.524314 -0.78981 0
M  V30 6858 H 650.529 2.41029 -2.56121 0
M  V30 6859 H 650.403 3.56139 -1.24278 0
M  V30 6860 H 652.79 2.90908 -0.495614 0
M  V30 6861 H 652.871 1.76975 -1.84698 0
M  V30 6862 H 652.515 3.70672 -3.47224 0
M  V30 6863 H 652.445 4.83218 -2.09303 0
M  V30 6864 H 654.936 3.28744 -1.86375 0
M  V30 6865 H 655.249 6.39235 -4.34279 0
M  V30 6866 H 653.594 5.75272 -3.89984 0
M  V30 6867 H 656.785 4.0299 -2.38152 0
M  V30 6868 H 656.958 5.44589 -3.51179 0
M  V30 6869 N 650.364 0.662433 1.43002 0
M  V30 6870 C 651.613 0.176873 2.00923 0
M  V30 6871 C 651.926 -1.21954 1.52927 0
M  V30 6872 O 653.132 -1.80081 2.03182 0
M  V30 6873 C 651.588 0.265379 3.5892 0
M  V30 6874 C 651.196 1.66507 4.15908 0
M  V30 6875 C 652.94 -0.162103 4.2419 0
M  V30 6876 C 650.847 1.707 5.66229 0
M  V30 6877 H 649.777 0.0623627 0.751417 0
M  V30 6878 H 652.428 0.825813 1.63868 0
M  V30 6879 H 650.81 -0.451235 3.93421 0
M  V30 6880 H 651.984 2.40777 3.92891 0
M  V30 6881 H 650.299 2.03932 3.63044 0
M  V30 6882 H 652.896 -0.150745 5.34487 0
M  V30 6883 H 653.239 -1.19519 3.98774 0
M  V30 6884 H 653.772 0.503075 3.94606 0
M  V30 6885 H 650.511 2.7195 5.96426 0
M  V30 6886 H 650.031 1.00768 5.91275 0
M  V30 6887 H 651.71 1.45487 6.3043 0
M  V30 6888 N 651.842 -1.52309 0.404946 0
M  V30 6889 C 653.067 -2.06666 -0.1743 0
M  V30 6890 C 653.492 -1.27341 -1.38441 0
M  V30 6891 O 652.85 -0.302539 -1.78758 0
M  V30 6892 C 652.898 -3.57014 -0.507262 0
M  V30 6893 O 652.002 -3.80144 -1.59889 0
M  V30 6894 H 651.343 -0.663807 -0.0160273 0
M  V30 6895 H 653.873 -1.96297 0.576937 0
M  V30 6896 H 653.883 -4.00724 -0.767098 0
M  V30 6897 H 652.558 -4.14184 0.377368 0
M  V30 6898 H 651.135 -3.48316 -1.33155 0
M  V30 6899 N 653.32 -0.135238 -1.57019 0
M  V30 6900 C 654.267 0.808908 -2.1616 0
M  V30 6901 C 655.237 1.25234 -1.09113 0
M  V30 6902 O 656.422 1.32697 -1.37099 0
M  V30 6903 C 653.562 2.04729 -2.77813 0
M  V30 6904 C 652.675 1.65074 -3.99218 0
M  V30 6905 C 651.81 2.84002 -4.48906 0
M  V30 6906 C 650.849 2.40663 -5.62803 0
M  V30 6907 N 649.986 3.5256 -6.07162 0
M  V30 6908 H 654.826 0.297751 -2.96509 0
M  V30 6909 H 652.363 0.135264 -1.46477 0
M  V30 6910 H 654.321 2.7731 -3.11697 0
M  V30 6911 H 652.951 2.53275 -2.00128 0
M  V30 6912 H 652.003 0.823029 -3.7139 0
M  V30 6913 H 653.315 1.29236 -4.81767 0
M  V30 6914 H 652.469 3.64788 -4.84783 0
M  V30 6915 H 651.208 3.23076 -3.65339 0
M  V30 6916 H 650.213 1.58314 -5.26514 0
M  V30 6917 H 651.438 2.02687 -6.48147 0
M  V30 6918 H 649.384 3.91278 -5.26534 0
M  V30 6919 H 649.301 3.20699 -6.84608 0
M  V30 6920 H 650.569 4.33738 -6.47682 0
M  V30 6921 N 654.798 1.5699 0.138552 0
M  V30 6922 C 655.761 1.97984 1.15478 0
M  V30 6923 C 656.761 0.867416 1.35398 0
M  V30 6924 O 657.951 1.13387 1.32246 0
M  V30 6925 C 655.083 2.3031 2.51337 0
M  V30 6926 H 656.276 2.88953 0.802896 0
M  V30 6927 H 653.829 1.51555 0.382189 0
M  V30 6928 H 654.564 1.42159 2.91481 0
M  V30 6929 H 654.349 3.11425 2.38237 0
M  V30 6930 H 655.839 2.62834 3.24512 0
M  V30 6931 N 656.276 -0.40816 1.52223 0
M  V30 6932 C 657.223 -1.49737 1.75635 0
M  V30 6933 C 658.193 -1.5493 0.598824 0
M  V30 6934 O 659.378 -1.71487 0.83648 0
M  V30 6935 C 656.518 -2.87174 1.91376 0
M  V30 6936 C 655.631 -2.91283 3.19027 0
M  V30 6937 C 654.766 -4.20026 3.25195 0
M  V30 6938 C 653.805 -4.18113 4.47044 0
M  V30 6939 N 652.942 -5.38429 4.50598 0
M  V30 6940 H 657.782 -1.29075 2.68596 0
M  V30 6941 H 655.319 -0.626518 1.33091 0
M  V30 6942 H 657.277 -3.66959 1.98486 0
M  V30 6943 H 655.907 -3.06329 1.01795 0
M  V30 6944 H 654.959 -2.03984 3.21084 0
M  V30 6945 H 656.271 -2.85734 4.08849 0
M  V30 6946 H 655.425 -5.08204 3.31382 0
M  V30 6947 H 654.164 -4.28271 2.33313 0
M  V30 6948 H 653.169 -3.28325 4.41002 0
M  V30 6949 H 654.394 -4.11507 5.40221 0
M  V30 6950 H 652.34 -5.4734 3.616 0
M  V30 6951 H 652.257 -5.34879 5.34266 0
M  V30 6952 H 653.525 -6.28557 4.61016 0
M  V30 6953 N 657.755 -1.42862 -0.66545 0
M  V30 6954 C 658.702 -1.4707 -1.77874 0
M  V30 6955 C 659.672 -0.321654 -1.62956 0
M  V30 6956 O 660.857 -0.52707 -1.83376 0
M  V30 6957 C 657.997 -1.38788 -3.15962 0
M  V30 6958 C 657.11 -2.63801 -3.42101 0
M  V30 6959 C 656.245 -2.47594 -4.69969 0
M  V30 6960 C 655.284 -3.67936 -4.89172 0
M  V30 6961 N 654.421 -3.50614 -6.08288 0
M  V30 6962 H 659.261 -2.42204 -1.73613 0
M  V30 6963 H 656.798 -1.20239 -0.847401 0
M  V30 6964 H 658.756 -1.31982 -3.95773 0
M  V30 6965 H 657.386 -0.472431 -3.19324 0
M  V30 6966 H 656.438 -2.80935 -2.56475 0
M  V30 6967 H 657.75 -3.53228 -3.52181 0
M  V30 6968 H 656.904 -2.38427 -5.57886 0
M  V30 6969 H 655.643 -1.55672 -4.62188 0
M  V30 6970 H 654.648 -3.77525 -3.99694 0
M  V30 6971 H 655.873 -4.60851 -4.98792 0
M  V30 6972 H 653.819 -2.61417 -6.01662 0
M  V30 6973 H 653.736 -4.33634 -6.19272 0
M  V30 6974 H 655.004 -3.45276 -6.98859 0
M  V30 6975 N 659.233 0.902656 -1.29189 0
M  V30 6976 C 660.18 2.00643 -1.14066 0
M  V30 6977 C 661.15 1.66064 -0.0347756 0
M  V30 6978 O 662.335 1.8973 -0.201752 0
M  V30 6979 C 659.475 3.35214 -0.820104 0
M  V30 6980 C 658.588 3.82594 -2.00614 0
M  V30 6981 C 657.723 5.05727 -1.62522 0
M  V30 6982 C 656.762 5.45469 -2.77724 0
M  V30 6983 N 655.899 6.59789 -2.40048 0
M  V30 6984 H 660.739 2.1291 -2.08502 0
M  V30 6985 H 658.276 1.04271 -1.03759 0
M  V30 6986 H 660.234 4.12643 -0.614949 0
M  V30 6987 H 658.864 3.22682 0.0873452 0
M  V30 6988 H 657.916 3.01226 -2.32308 0
M  V30 6989 H 659.228 4.07999 -2.86946 0
M  V30 6990 H 658.382 5.90732 -1.38277 0
M  V30 6991 H 657.121 4.82155 -0.733333 0
M  V30 6992 H 656.126 4.59 -3.02653 0
M  V30 6993 H 657.351 5.71024 -3.67572 0
M  V30 6994 H 655.297 6.37826 -1.53343 0
M  V30 6995 H 655.214 6.84975 -3.19914 0
M  V30 6996 H 656.482 7.4807 -2.19116 0
M  V30 6997 N 660.711 1.11618 1.11262 0
M  V30 6998 C 661.936 0.889013 1.8738 0
M  V30 6999 C 662.361 -0.555884 1.79698 0
M  V30 7000 O 661.719 -1.39272 1.16073 0
M  V30 7001 C 661.767 1.35759 3.34069 0
M  V30 7002 O 660.871 0.530499 4.08974 0
M  V30 7003 H 660.212 0.320082 0.581759 0
M  V30 7004 H 662.742 1.48611 1.40627 0
M  V30 7005 H 662.752 1.35291 3.84916 0
M  V30 7006 H 661.427 2.40973 3.38976 0
M  V30 7007 H 660.004 0.601439 3.68018 0
M  V30 7008 N 662.189 -1.289 0.906776 0
M  V30 7009 C 663.099 -2.31256 0.394707 0
M  V30 7010 C 664.115 -1.66231 -0.514121 0
M  V30 7011 O 665.291 -1.97347 -0.401994 0
M  V30 7012 C 662.356 -3.44792 -0.363191 0
M  V30 7013 C 661.417 -4.25391 0.578012 0
M  V30 7014 C 660.65 -5.33506 -0.143811 0
M  V30 7015 O 660.873 -5.53786 -1.36665 0
M  V30 7016 O 659.807 -5.99673 0.5173 0
M  V30 7017 H 663.633 -2.77051 1.24405 0
M  V30 7018 H 661.218 -1.33466 0.671346 0
M  V30 7019 H 663.1 -4.139 -0.791503 0
M  V30 7020 H 661.775 -3.01093 -1.18848 0
M  V30 7021 H 660.682 -3.58899 1.05558 0
M  V30 7022 H 662.015 -4.72752 1.36992 0
M  V30 7023 N 663.667 -0.670007 -1.42649 0
M  V30 7024 C 664.915 -0.18991 -2.01206 0
M  V30 7025 C 665.236 1.20617 -1.53221 0
M  V30 7026 O 664.506 1.80898 -0.751856 0
M  V30 7027 H 663.086 -0.0672189 -0.743969 0
M  V30 7028 H 665.748 -0.865442 -1.74631 0
M  V30 7029 H 664.844 -0.187481 -3.11536 0
M  V30 7030 N 665.145 1.52092 -0.413018 0
M  V30 7031 C 666.075 2.30021 0.401567 0
M  V30 7032 C 667.056 1.34395 1.04269 0
M  V30 7033 O 668.241 1.63304 1.05097 0
M  V30 7034 C 665.371 3.12447 1.51638 0
M  V30 7035 C 664.325 4.16153 1.00005 0
M  V30 7036 C 663.651 4.86948 2.20875 0
M  V30 7037 C 664.951 5.22275 0.0513757 0
M  V30 7038 H 666.645 2.98365 -0.248704 0
M  V30 7039 H 664.191 1.4349 -0.121052 0
M  V30 7040 H 666.144 3.65733 2.09326 0
M  V30 7041 H 664.868 2.41879 2.19458 0
M  V30 7042 H 663.527 3.63882 0.445549 0
M  V30 7043 H 663.175 4.12905 2.8726 0
M  V30 7044 H 662.875 5.57057 1.86978 0
M  V30 7045 H 664.399 5.43048 2.79162 0
M  V30 7046 H 665.813 5.70778 0.537176 0
M  V30 7047 H 664.21 5.9977 -0.198977 0
M  V30 7048 H 665.28 4.76611 -0.892736 0
M  V30 7049 N 666.623 0.143563 1.56945 0
M  V30 7050 C 667.851 -0.515447 2.00377 0
M  V30 7051 C 668.266 -1.58643 1.02361 0
M  V30 7052 O 667.623 -1.82489 0.0201039 0
M  V30 7053 C 667.674 -1.11923 3.43737 0
M  V30 7054 O 667.395 -0.0910318 4.38005 0
M  V30 7055 C 668.896 -1.85918 4.02429 0
M  V30 7056 H 666.116 -0.134478 0.657386 0
M  V30 7057 H 668.66 0.237135 2.0312 0
M  V30 7058 H 666.815 -1.82245 3.41856 0
M  V30 7059 H 667.229 -0.532916 5.21786 0
M  V30 7060 H 668.703 -2.2346 5.04747 0
M  V30 7061 H 669.18 -2.7438 3.42947 0
M  V30 7062 H 669.786 -1.20303 4.07931 0
M  V30 7063 N 668.101 -1.57061 -0.130224 0
M  V30 7064 C 669.033 -1.96147 -1.18571 0
M  V30 7065 C 670.046 -0.859347 -1.38272 0
M  V30 7066 O 671.235 -1.13769 -1.37545 0
M  V30 7067 C 668.335 -2.23484 -2.54771 0
M  V30 7068 C 667.508 -3.54786 -2.55824 0
M  V30 7069 C 666.567 -3.70467 -3.73686 0
M  V30 7070 O 665.593 -4.42693 -3.57787 0
M  V30 7071 N 666.795 -3.08389 -4.91809 0
M  V30 7072 H 669.56 -2.87295 -0.853333 0
M  V30 7073 H 667.121 -1.58714 -0.319621 0
M  V30 7074 H 669.113 -2.312 -3.32158 0
M  V30 7075 H 667.683 -1.38518 -2.80235 0
M  V30 7076 H 666.903 -3.5836 -1.64232 0
M  V30 7077 H 668.191 -4.4111 -2.53573 0
M  V30 7078 H 667.589 -2.49656 -5.0763 0
M  V30 7079 H 666.146 -3.21642 -5.66912 0
M  V30 7080 N 669.579 0.400081 -1.52437 0
M  V30 7081 C 670.804 1.17221 -1.71096 0
M  V30 7082 C 671.229 1.83269 -0.423565 0
M  V30 7083 O 670.587 1.70378 0.619751 0
M  V30 7084 C 670.635 2.20425 -2.85386 0
M  V30 7085 O 669.739 3.26769 -2.51586 0
M  V30 7086 H 669.08 0.341766 -0.569291 0
M  V30 7087 H 671.61 0.467772 -1.99181 0
M  V30 7088 H 671.62 2.64605 -3.10561 0
M  V30 7089 H 670.295 1.71737 -3.78786 0
M  V30 7090 H 668.872 2.87804 -2.37114 0
M  V30 7091 N 671.057 1.43213 0.657864 0
M  V30 7092 C 671.99 1.42456 1.78273 0
M  V30 7093 C 672.968 0.286598 1.60054 0
M  V30 7094 O 674.152 0.479467 1.823 0
M  V30 7095 C 671.279 1.23169 3.15511 0
M  V30 7096 C 670.325 2.40181 3.52442 0
M  V30 7097 S 671.158 4.02729 3.52944 0
M  V30 7098 C 672.314 3.85816 4.92846 0
M  V30 7099 H 672.547 2.37642 1.78644 0
M  V30 7100 H 670.08 1.30188 0.830084 0
M  V30 7101 H 672.038 1.12728 3.94719 0
M  V30 7102 H 670.699 0.295398 3.12708 0
M  V30 7103 H 669.892 2.22478 4.52239 0
M  V30 7104 H 669.494 2.47224 2.80636 0
M  V30 7105 H 671.786 3.47853 5.81381 0
M  V30 7106 H 672.729 4.85348 5.15599 0
M  V30 7107 H 673.137 3.18361 4.66162 0
M  V30 7108 N 672.536 -0.895792 1.29666 0
M  V30 7109 C 673.782 -1.64908 1.18039 0
M  V30 7110 C 674.115 -1.9236 -0.266682 0
M  V30 7111 O 673.39 -1.53682 -1.19214 0
M  V30 7112 C 673.673 -2.99574 1.99819 0
M  V30 7113 C 673.526 -2.79163 3.52687 0
M  V30 7114 C 674.845 -4.00358 1.82761 0
M  V30 7115 H 671.964 -0.598437 0.430165 0
M  V30 7116 H 674.606 -1.03736 1.59182 0
M  V30 7117 H 672.756 -3.51786 1.64859 0
M  V30 7118 H 674.428 -2.33821 3.9765 0
M  V30 7119 H 672.671 -2.13871 3.77414 0
M  V30 7120 H 673.342 -3.74871 4.05186 0
M  V30 7121 H 675.818 -3.57268 2.13304 0
M  V30 7122 H 674.694 -4.92514 2.42325 0
M  V30 7123 H 674.955 -4.35096 0.783839 0
M  V30 7124 N 674.014 -1.12206 -1.10668 0
M  V30 7125 C 675.291 -0.787382 -1.79052 0
M  V30 7126 C 675.671 0.723267 -1.98323 0
M  V30 7127 O 675.019 1.6561 -1.57434 0
M  V30 7128 C 675.229 -1.55968 -3.1221 0
M  V30 7129 C 676.577 -1.74413 -3.87125 0
M  V30 7130 O 677.601 -1.5246 -3.21923 0
M  V30 7131 O 676.46 -2.10952 -5.04144 0
M  V30 7132 H 673.554 -0.286137 -0.775922 0
M  V30 7133 H 676.1 -1.22595 -1.1734 0
M  V30 7134 H 674.872 -2.58692 -2.93588 0
M  V30 7135 H 674.495 -1.1152 -3.8164 0
M  V30 7136 N 675.492 1.28418 -0.913599 0
M  V30 7137 C 676.908 1.47411 -0.611728 0
M  V30 7138 C 677.108 1.83018 0.843008 0
M  V30 7139 O 676.164 1.93505 1.6221 0
M  V30 7140 C 677.477 2.57703 -1.5495 0
M  V30 7141 C 679.025 2.71572 -1.5562 0
M  V30 7142 C 679.5 3.85008 -2.48058 0
M  V30 7143 N 680.991 3.92361 -2.46184 0
M  V30 7144 C 681.726 4.79516 -3.14407 0
M  V30 7145 N 681.222 5.71262 -3.91958 0
M  V30 7146 N 683.015 4.73125 -3.03495 0
M  V30 7147 H 675.166 1.03585 -1.85429 0
M  V30 7148 H 677.429 0.515907 -0.795326 0
M  V30 7149 H 677.135 2.38298 -2.58663 0
M  V30 7150 H 677.009 3.54801 -1.28048 0
M  V30 7151 H 679.396 2.90366 -0.526441 0
M  V30 7152 H 679.477 1.75006 -1.86565 0
M  V30 7153 H 679.121 3.66969 -3.51136 0
M  V30 7154 H 679.051 4.80971 -2.14416 0
M  V30 7155 H 681.542 3.26749 -1.89851 0
M  V30 7156 H 681.855 6.34593 -4.41034 0
M  V30 7157 H 680.2 5.71103 -3.96063 0
M  V30 7158 H 683.391 4.00442 -2.42413 0
M  V30 7159 H 683.564 5.40834 -3.56935 0
M  V30 7160 N 676.97 0.677563 1.42291 0
M  V30 7161 C 678.21 0.204894 2.0337 0
M  V30 7162 C 678.574 -1.16744 1.5243 0
M  V30 7163 O 679.775 -1.73492 2.05314 0
M  V30 7164 C 678.046 0.240742 3.56588 0
M  V30 7165 S 679.605 -0.16052 4.38506 0
M  V30 7166 H 676.423 0.0839932 0.706021 0
M  V30 7167 H 679.025 0.891332 1.73999 0
M  V30 7168 H 677.729 1.24184 3.91161 0
M  V30 7169 H 677.26 -0.465439 3.90637 0
M  V30 7170 H 679.275 -1.39315 4.76241 0
M  V30 7171 N 678.448 -1.51871 0.421078 0
M  V30 7172 C 679.697 -2.01125 -0.152206 0
M  V30 7173 C 680.01 -1.3106 -1.45199 0
M  V30 7174 O 681.216 -1.71195 -2.10724 0
M  V30 7175 C 679.672 -3.58458 -0.3218 0
M  V30 7176 C 679.28 -4.37448 0.96659 0
M  V30 7177 C 681.024 -4.15908 -0.84973 0
M  V30 7178 C 678.931 -5.86451 0.763529 0
M  V30 7179 H 677.861 -0.751556 -0.0606565 0
M  V30 7180 H 680.512 -1.75115 0.548354 0
M  V30 7181 H 678.894 -3.80847 -1.08498 0
M  V30 7182 H 680.068 -4.26814 1.73684 0
M  V30 7183 H 678.383 -3.91373 1.42183 0
M  V30 7184 H 680.98 -5.24922 -1.01788 0
M  V30 7185 H 681.323 -3.74031 -1.82774 0
M  V30 7186 H 681.856 -3.97535 -0.145297 0
M  V30 7187 H 678.595 -6.3271 1.71344 0
M  V30 7188 H 678.115 -5.99791 0.0327889 0
M  V30 7189 H 679.794 -6.45697 0.410354 0
M  V30 7190 N 679.926 -0.151884 -1.56866 0
M  V30 7191 C 680.858 0.817008 -2.14144 0
M  V30 7192 C 681.871 1.20735 -1.0921 0
M  V30 7193 O 683.06 1.15058 -1.36469 0
M  V30 7194 C 680.16 2.10844 -2.65326 0
M  V30 7195 C 679.333 1.88471 -3.94712 0
M  V30 7196 C 678.392 3.01649 -4.31155 0
M  V30 7197 O 677.418 2.73127 -4.9939 0
M  V30 7198 N 678.62 4.28947 -3.91132 0
M  V30 7199 H 681.385 0.327448 -2.97906 0
M  V30 7200 H 678.946 0.0315313 -1.61869 0
M  V30 7201 H 680.938 2.85616 -2.86715 0
M  V30 7202 H 679.508 2.51049 -1.86262 0
M  V30 7203 H 678.728 0.977088 -3.81899 0
M  V30 7204 H 680.016 1.70866 -4.79252 0
M  V30 7205 H 679.414 4.54986 -3.36161 0
M  V30 7206 H 677.971 5.00484 -4.17563 0
M  V30 7207 N 681.404 1.57128 0.121893 0
M  V30 7208 C 682.681 1.75664 0.860327 0
M  V30 7209 C 683.061 0.726585 1.98202 0
M  V30 7210 O 682.409 -0.24999 2.27128 0
M  V30 7211 C 682.619 3.20571 1.37968 0
M  V30 7212 C 683.967 3.82988 1.83317 0
M  V30 7213 O 684.991 3.24156 1.47654 0
M  V30 7214 O 683.85 4.86393 2.49168 0
M  V30 7215 H 680.944 0.719153 0.408348 0
M  V30 7216 H 683.49 1.6937 0.105859 0
M  V30 7217 H 682.262 3.87056 0.57477 0
M  V30 7218 H 681.885 3.31392 2.19694 0
M  V30 7219 N 682.882 -0.391992 1.52647 0
M  V30 7220 C 683.792 -1.503 1.80131 0
M  V30 7221 C 684.808 -1.59825 0.687882 0
M  V30 7222 O 685.984 -1.76218 0.975149 0
M  V30 7223 C 683.049 -2.85863 1.96171 0
M  V30 7224 C 682.11 -2.86084 3.20085 0
M  V30 7225 C 681.343 -4.15181 3.35351 0
M  V30 7226 O 681.566 -5.09981 2.55491 0
M  V30 7227 O 680.5 -4.22603 4.28591 0
M  V30 7228 H 684.326 -1.30007 2.74466 0
M  V30 7229 H 681.911 -0.579539 1.37701 0
M  V30 7230 H 683.793 -3.66236 2.08445 0
M  V30 7231 H 682.468 -3.06189 1.05025 0
M  V30 7232 H 681.375 -2.04504 3.13256 0
M  V30 7233 H 682.708 -2.7071 4.11068 0
M  V30 7234 N 684.36 -1.4356 -0.65026 0
M  V30 7235 C 685.609 -1.44619 -1.406 0
M  V30 7236 C 685.922 -0.0752645 -1.95455 0
M  V30 7237 O 687.128 0.0366832 -2.71475 0
M  V30 7238 C 685.584 -2.54511 -2.54465 0
M  V30 7239 C 685.192 -3.97723 -2.06204 0
M  V30 7240 C 686.936 -2.64768 -3.31811 0
M  V30 7241 C 684.843 -4.99075 -3.17298 0
M  V30 7242 H 683.773 -0.537983 -0.52829 0
M  V30 7243 H 686.424 -1.69559 -0.701561 0
M  V30 7244 H 684.806 -2.22777 -3.27393 0
M  V30 7245 H 685.98 -4.38932 -1.40267 0
M  V30 7246 H 684.295 -3.91538 -1.41729 0
M  V30 7247 H 686.892 -3.37664 -4.14593 0
M  V30 7248 H 687.235 -1.69936 -3.80036 0
M  V30 7249 H 687.768 -2.95817 -2.65964 0
M  V30 7250 H 684.507 -5.95469 -2.74038 0
M  V30 7251 H 684.027 -4.62476 -3.81937 0
M  V30 7252 H 685.706 -5.21913 -3.82382 0
M  V30 7253 N 685.838 0.888903 -1.30139 0
M  V30 7254 C 687.084 1.6428 -1.18912 0
M  V30 7255 C 687.417 1.92499 0.256477 0
M  V30 7256 O 686.692 1.54312 1.18397 0
M  V30 7257 C 686.975 2.9851 -2.01405 0
M  V30 7258 C 686.828 2.77288 -3.54163 0
M  V30 7259 C 688.147 3.99383 -1.84882 0
M  V30 7260 H 685.266 0.596148 -0.433333 0
M  V30 7261 H 687.908 1.0289 -1.5973 0
M  V30 7262 H 686.058 3.50907 -1.66722 0
M  V30 7263 H 687.73 2.31709 -3.98884 0
M  V30 7264 H 685.973 2.11867 -3.78543 0
M  V30 7265 H 686.644 3.72717 -4.07168 0
M  V30 7266 H 689.12 3.56132 -2.15196 0
M  V30 7267 H 687.996 4.91222 -2.44934 0
M  V30 7268 H 688.257 4.34674 -0.806902 0
M  V30 7269 N 687.317 1.12792 1.10072 0
M  V30 7270 C 688.594 0.796867 1.78632 0
M  V30 7271 C 688.974 -0.712739 1.98704 0
M  V30 7272 O 688.322 -1.64773 1.5831 0
M  V30 7273 C 688.532 1.57622 3.11378 0
M  V30 7274 C 689.88 1.76463 3.86194 0
M  V30 7275 O 690.904 1.54165 3.2111 0
M  V30 7276 O 689.763 2.13623 5.03018 0
M  V30 7277 H 686.857 0.290248 0.774394 0
M  V30 7278 H 689.403 1.23215 1.16688 0
M  V30 7279 H 688.175 2.60246 2.92212 0
M  V30 7280 H 687.798 1.13543 3.81043 0
M  V30 7281 N 688.795 -1.27931 0.920396 0
M  V30 7282 C 690.042 -1.94689 0.557007 0
M  V30 7283 C 690.37 -1.724 -0.900476 0
M  V30 7284 O 689.625 -1.04194 -1.65657 0
M  V30 7285 C 689.924 -3.47853 0.820558 0
M  V30 7286 C 689.59 -3.90252 2.25863 0
M  V30 7287 C 688.252 -4.01539 2.65179 0
M  V30 7288 C 690.604 -4.11853 3.19415 0
M  V30 7289 C 687.932 -4.3181 3.97187 0
M  V30 7290 C 690.284 -4.43606 4.50995 0
M  V30 7291 C 688.948 -4.53105 4.90155 0
M  V30 7292 H 688.218 -0.712416 0.203823 0
M  V30 7293 H 690.865 -1.52142 1.16298 0
M  V30 7294 H 689.17 -3.91578 0.131844 0
M  V30 7295 H 690.867 -3.97634 0.51847 0
M  V30 7296 H 687.457 -3.81999 1.94358 0
M  V30 7297 H 691.641 -4.0258 2.90246 0
M  V30 7298 H 686.897 -4.37371 4.2722 0
M  V30 7299 H 691.071 -4.59268 5.23494 0
M  V30 7300 H 688.698 -4.76315 5.92476 0
M  V30 7301 N 690.273 -0.685099 -1.4193 0
M  V30 7302 C 691.203 -0.0273506 -2.33484 0
M  V30 7303 C 692.184 0.778366 -1.51246 0
M  V30 7304 O 693.369 0.733449 -1.79817 0
M  V30 7305 C 690.499 0.917272 -3.34968 0
M  V30 7306 C 689.453 0.21941 -4.27437 0
M  V30 7307 C 688.779 1.27768 -5.1921 0
M  V30 7308 C 690.079 -0.907894 -5.14349 0
M  V30 7309 H 691.773 -0.791994 -2.88735 0
M  V30 7310 H 689.319 -0.382308 -1.38832 0
M  V30 7311 H 691.272 1.38657 -3.97935 0
M  V30 7312 H 689.996 1.71346 -2.78043 0
M  V30 7313 H 688.655 -0.229757 -3.65879 0
M  V30 7314 H 688.303 2.06612 -4.58607 0
M  V30 7315 H 688.003 0.815803 -5.81909 0
M  V30 7316 H 689.527 1.7477 -5.85054 0
M  V30 7317 H 690.941 -0.519348 -5.70943 0
M  V30 7318 H 689.338 -1.2962 -5.85934 0
M  V30 7319 H 690.408 -1.75218 -4.52136 0
M  V30 7320 N 691.751 1.51645 -0.429126 0
M  V30 7321 C 692.979 2.06433 0.138994 0
M  V30 7322 C 693.394 1.29735 1.37165 0
M  V30 7323 O 692.751 0.354638 1.79021 0
M  V30 7324 C 692.802 3.58439 0.469452 0
M  V30 7325 O 692.523 4.32238 -0.714273 0
M  V30 7326 C 694.024 4.29712 1.08914 0
M  V30 7327 H 691.244 0.6709 0.0115608 0
M  V30 7328 H 693.788 1.9532 -0.605843 0
M  V30 7329 H 691.943 3.69494 1.16419 0
M  V30 7330 H 692.357 5.22704 -0.433633 0
M  V30 7331 H 693.831 5.37182 1.27042 0
M  V30 7332 H 694.308 3.87473 2.06788 0
M  V30 7333 H 694.914 4.2308 0.434028 0
M  V30 7334 N 693.229 0.160201 1.56784 0
M  V30 7335 C 694.477 -0.486625 1.96154 0
M  V30 7336 C 694.798 -1.64525 1.04673 0
M  V30 7337 O 694.068 -1.95586 0.110864 0
M  V30 7338 H 692.648 -0.182764 0.724297 0
M  V30 7339 H 695.31 0.238787 1.93432 0
M  V30 7340 H 694.406 -0.854025 3.00188 0
M  V30 7341 N 694.707 -1.5719 -0.113559 0
M  V30 7342 C 695.953 -1.85412 -0.821597 0
M  V30 7343 C 696.286 -0.746722 -1.7927 0
M  V30 7344 O 695.561 0.246971 -1.92926 0
M  V30 7345 C 695.844 -3.24233 -1.56669 0
M  V30 7346 C 695.697 -4.45578 -0.614823 0
M  V30 7347 C 697.016 -3.60697 -2.52161 0
M  V30 7348 H 694.135 -0.674406 -0.29723 0
M  V30 7349 H 696.777 -1.89807 -0.085694 0
M  V30 7350 H 694.927 -3.20617 -2.19401 0
M  V30 7351 H 696.599 -4.613 0.00407137 0
M  V30 7352 H 694.842 -4.33738 0.0732332 0
M  V30 7353 H 695.513 -5.39395 -1.17292 0
M  V30 7354 H 697.989 -3.65139 -1.99532 0
M  V30 7355 H 696.865 -4.58798 -3.01323 0
M  V30 7356 H 697.126 -2.88403 -3.35076 0
M  V30 7357 N 696.185 0.383891 -1.52853 0
M  V30 7358 C 697.115 1.47559 -1.80965 0
M  V30 7359 C 698.096 1.5669 -0.661986 0
M  V30 7360 O 699.281 1.71556 -0.910072 0
M  V30 7361 C 696.411 2.85114 -1.98312 0
M  V30 7362 C 695.365 2.9082 -3.14019 0
M  V30 7363 C 694.691 4.30873 -3.16627 0
M  V30 7364 C 695.991 2.60001 -4.52986 0
M  V30 7365 H 697.685 1.24283 -2.72386 0
M  V30 7366 H 695.231 0.596445 -1.31067 0
M  V30 7367 H 697.184 3.61496 -2.16561 0
M  V30 7368 H 695.908 3.09738 -1.03585 0
M  V30 7369 H 694.567 2.16886 -2.9556 0
M  V30 7370 H 694.215 4.52545 -2.19573 0
M  V30 7371 H 693.915 4.3561 -3.94357 0
M  V30 7372 H 695.439 5.09154 -3.37038 0
M  V30 7373 H 696.853 3.261 -4.71521 0
M  V30 7374 H 695.25 2.76081 -5.32822 0
M  V30 7375 H 696.32 1.5532 -4.59351 0
M  V30 7376 N 697.663 1.43903 0.642637 0
M  V30 7377 C 698.891 1.4954 1.42988 0
M  V30 7378 C 699.306 0.116588 1.8844 0
M  V30 7379 O 698.663 -0.875285 1.60141 0
M  V30 7380 C 698.714 2.45031 2.65785 0
M  V30 7381 O 698.435 3.77551 2.22232 0
M  V30 7382 C 699.936 2.60017 3.59035 0
M  V30 7383 H 697.156 0.507544 0.438907 0
M  V30 7384 H 699.7 1.88752 0.786942 0
M  V30 7385 H 697.855 2.08985 3.26196 0
M  V30 7386 H 698.269 4.29001 3.01759 0
M  V30 7387 H 699.743 3.30887 4.41835 0
M  V30 7388 H 700.22 1.64861 4.07084 0
M  V30 7389 H 700.826 2.96918 3.045 0
M  V30 7390 N 699.141 -0.881989 1.30609 0
M  V30 7391 C 700.557 -1.16576 1.09005 0
M  V30 7392 C 700.757 -2.00961 -0.14727 0
M  V30 7393 O 699.813 -2.38117 -0.840036 0
M  V30 7394 C 701.126 -1.86954 2.35518 0
M  V30 7395 C 702.674 -1.99706 2.41011 0
M  V30 7396 C 703.149 -2.73497 3.67374 0
M  V30 7397 N 704.64 -2.8104 3.68199 0
M  V30 7398 C 705.375 -3.38718 4.62664 0
M  V30 7399 N 704.871 -3.97421 5.67475 0
M  V30 7400 N 706.664 -3.36561 4.50203 0
M  V30 7401 H 698.815 -0.319398 2.09985 0
M  V30 7402 H 701.078 -0.204058 0.925778 0
M  V30 7403 H 700.784 -1.32393 3.2583 0
M  V30 7404 H 700.658 -2.87317 2.44395 0
M  V30 7405 H 703.045 -2.53436 1.51176 0
M  V30 7406 H 703.126 -0.984218 2.36108 0
M  V30 7407 H 702.77 -2.20438 4.57569 0
M  V30 7408 H 702.7 -3.75163 3.6954 0
M  V30 7409 H 705.191 -2.39365 2.92426 0
M  V30 7410 H 705.504 -4.39507 6.35652 0
M  V30 7411 H 703.849 -3.95832 5.71264 0
M  V30 7412 H 707.04 -2.8993 3.67503 0
M  V30 7413 H 707.213 -3.81215 5.24003 0
M  V30 7414 N 700.619 -1.13374 -1.09472 0
M  V30 7415 C 701.582 -0.813639 -2.14272 0
M  V30 7416 C 702.582 0.176677 -1.59826 0
M  V30 7417 O 703.772 -0.0503441 -1.74127 0
M  V30 7418 C 700.904 -0.210897 -3.40247 0
M  V30 7419 H 702.097 -1.74229 -2.44099 0
M  V30 7420 H 699.65 -0.938304 -1.25002 0
M  V30 7421 H 700.385 0.726998 -3.16046 0
M  V30 7422 H 700.17 -0.924048 -3.81056 0
M  V30 7423 H 701.66 -0.00377603 -4.176 0
M  V30 7424 N 702.098 1.27442 -0.927168 0
M  V30 7425 C 703.008 2.30599 -0.431448 0
M  V30 7426 C 704.024 1.67028 0.48761 0
M  V30 7427 O 705.2 1.97962 0.370546 0
M  V30 7428 C 702.265 3.45327 0.308292 0
M  V30 7429 C 701.326 4.24418 -0.645615 0
M  V30 7430 C 700.559 5.33667 0.0589164 0
M  V30 7431 O 700.782 5.5589 1.27838 0
M  V30 7432 O 699.716 5.98774 -0.612638 0
M  V30 7433 H 703.542 2.75036 -1.28797 0
M  V30 7434 H 701.127 1.32382 -0.692495 0
M  V30 7435 H 703.009 4.15107 0.725555 0
M  V30 7436 H 701.684 3.02945 1.14043 0
M  V30 7437 H 700.591 3.57174 -1.11255 0
M  V30 7438 H 701.924 4.70512 -1.44496 0
M  V30 7439 N 703.576 0.692616 1.41565 0
M  V30 7440 C 704.824 0.221896 2.00878 0
M  V30 7441 C 705.145 -1.18164 1.5512 0
M  V30 7442 O 704.415 -1.79679 0.78054 0
M  V30 7443 H 702.995 0.0790463 0.742806 0
M  V30 7444 H 705.657 0.893115 1.73232 0
M  V30 7445 H 704.753 0.23702 3.11199 0
M  V30 7446 N 705.054 -1.51416 0.437162 0
M  V30 7447 C 706.004 -2.24599 -0.392311 0
M  V30 7448 C 706.988 -1.2682 -0.990221 0
M  V30 7449 O 708.18 -1.51912 -0.908391 0
M  V30 7450 C 705.309 -3.09134 -1.49301 0
M  V30 7451 C 704.395 -4.14342 -0.904503 0
M  V30 7452 N 704.786 -5.0578 -0.0451511 0
M  V30 7453 C 703.084 -4.30323 -1.1721 0
M  V30 7454 C 703.785 -5.81 0.285344 0
M  V30 7455 N 702.761 -5.42591 -0.330993 0
M  V30 7456 H 706.563 -2.92655 0.270221 0
M  V30 7457 H 704.077 -1.60476 0.249226 0
M  V30 7458 H 706.074 -3.6014 -2.10011 0
M  V30 7459 H 704.734 -2.42622 -2.15788 0
M  V30 7460 H 705.745 -5.16903 0.321271 0
M  V30 7461 H 702.422 -3.75037 -1.83448 0
M  V30 7462 H 703.812 -6.64646 0.984626 0
M  V30 7463 N 706.532 -0.168513 -1.56696 0
M  V30 7464 C 707.465 0.801477 -2.13662 0
M  V30 7465 C 708.443 1.22786 -1.06594 0
M  V30 7466 O 709.627 1.32014 -1.34554 0
M  V30 7467 C 706.754 2.07896 -2.6739 0
M  V30 7468 C 705.8 1.79681 -3.86803 0
M  V30 7469 S 706.633 0.968556 -5.26668 0
M  V30 7470 C 707.789 2.25676 -5.83799 0
M  V30 7471 H 708.022 0.317121 -2.95604 0
M  V30 7472 H 705.555 0.0461132 -1.54331 0
M  V30 7473 H 707.513 2.81272 -2.98992 0
M  V30 7474 H 706.174 2.53445 -1.85539 0
M  V30 7475 H 705.367 2.74461 -4.22714 0
M  V30 7476 H 704.969 1.14402 -3.56073 0
M  V30 7477 H 707.261 3.2116 -5.96542 0
M  V30 7478 H 708.204 1.94238 -6.80939 0
M  V30 7479 H 708.612 2.37308 -5.12197 0
M  V30 7480 N 708.01 1.57248 0.105221 0
M  V30 7481 C 709.258 1.85204 0.808951 0
M  V30 7482 C 709.579 0.75574 1.7976 0
M  V30 7483 O 708.849 -0.218984 1.94672 0
M  V30 7484 H 707.429 0.683346 0.301739 0
M  V30 7485 H 710.091 1.94695 0.0892605 0
M  V30 7486 H 709.187 2.81595 1.34575 0
M  V30 7487 N 709.488 -0.375779 1.53054 0
M  V30 7488 C 710.713 -1.14484 1.7294 0
M  V30 7489 C 711.138 -1.82572 0.452668 0
M  V30 7490 O 710.496 -1.71343 -0.592567 0
M  V30 7491 C 710.544 -2.15857 2.88857 0
M  V30 7492 O 709.648 -3.22725 2.56753 0
M  V30 7493 H 708.989 -0.332666 0.574656 0
M  V30 7494 H 711.519 -0.436025 1.999 0
M  V30 7495 H 711.529 -2.59631 3.14731 0
M  V30 7496 H 710.204 -1.65689 3.81471 0
M  V30 7497 H 708.781 -2.83996 2.41663 0
M  V30 7498 N 710.966 -1.44241 -0.634997 0
M  V30 7499 C 711.876 -1.53293 -1.77591 0
M  V30 7500 C 712.892 -0.418831 -1.68884 0
M  V30 7501 O 714.068 -0.675619 -1.8973 0
M  V30 7502 C 711.133 -1.47075 -3.13958 0
M  V30 7503 C 710.194 -2.69304 -3.34326 0
M  V30 7504 C 709.427 -2.63374 -4.64187 0
M  V30 7505 O 709.65 -1.69161 -5.44739 0
M  V30 7506 O 708.584 -3.54166 -4.86673 0
M  V30 7507 H 712.41 -2.49673 -1.72908 0
M  V30 7508 H 709.995 -1.26445 -0.795745 0
M  V30 7509 H 711.877 -1.46117 -3.95257 0
M  V30 7510 H 710.552 -0.538373 -3.19192 0
M  V30 7511 H 709.459 -2.75831 -2.52721 0
M  V30 7512 H 710.792 -3.61576 -3.33951 0
M  V30 7513 N 712.444 0.87505 -1.31075 0
M  V30 7514 C 713.855 1.4433 -1.18431 0
M  V30 7515 C 714.206 1.9506 0.211189 0
M  V30 7516 O 713.331 1.85847 1.10859 0
M  V30 7517 C 713.926 2.62341 -2.14389 0
M  V30 7518 C 712.485 3.15225 -2.05694 0
M  V30 7519 C 711.632 1.87929 -2.03907 0
M  V30 7520 H 714.583 0.684061 -1.432 0
M  V30 7521 H 714.604 3.3887 -1.73053 0
M  V30 7522 H 714.116 2.25388 -3.15946 0
M  V30 7523 H 712.217 3.56812 -1.07314 0
M  V30 7524 H 712.33 3.77853 -2.94558 0
M  V30 7525 H 710.694 2.06679 -1.48849 0
M  V30 7526 H 711.477 1.53221 -3.07211 0
M  V30 7527 N 713.922 1.13953 1.08869 0
M  V30 7528 C 715.338 0.878924 1.33218 0
M  V30 7529 C 715.538 -0.482478 1.95638 0
M  V30 7530 O 714.594 -1.22778 2.2064 0
M  V30 7531 C 715.907 2.00798 2.23832 0
M  V30 7532 C 717.455 2.04073 2.37325 0
M  V30 7533 C 717.93 3.16258 3.31278 0
M  V30 7534 N 719.421 3.15805 3.38853 0
M  V30 7535 C 720.156 3.99249 4.11567 0
M  V30 7536 N 719.652 4.92721 4.87029 0
M  V30 7537 N 721.445 3.87327 4.0735 0
M  V30 7538 H 713.596 2.01645 0.66731 0
M  V30 7539 H 715.859 0.878395 0.356547 0
M  V30 7540 H 715.565 2.98986 1.85203 0
M  V30 7541 H 715.439 1.92704 3.24261 0
M  V30 7542 H 717.826 1.06495 2.75214 0
M  V30 7543 H 717.907 2.16239 1.36654 0
M  V30 7544 H 717.551 4.14079 2.9411 0
M  V30 7545 H 717.481 3.0133 4.31866 0
M  V30 7546 H 719.972 2.48102 2.8505 0
M  V30 7547 H 720.285 5.52867 5.39961 0
M  V30 7548 H 718.63 4.96723 4.86098 0
M  V30 7549 H 721.821 3.13627 3.475 0
M  V30 7550 H 721.994 4.52585 4.63757 0
M  V30 7551 N 715.4 -1.26948 0.933913 0
M  V30 7552 C 716.677 -1.89212 0.495784 0
M  V30 7553 C 717.057 -1.84469 -1.02637 0
M  V30 7554 O 716.405 -1.29409 -1.88323 0
M  V30 7555 C 716.615 -3.32865 1.0489 0
M  V30 7556 C 717.963 -4.09749 1.11315 0
M  V30 7557 O 718.987 -3.41905 0.998966 0
M  V30 7558 O 717.846 -5.31061 1.28983 0
M  V30 7559 H 714.94 -0.811284 0.160459 0
M  V30 7560 H 717.486 -1.35171 1.02601 0
M  V30 7561 H 716.258 -3.30642 2.09265 0
M  V30 7562 H 715.881 -3.94435 0.500692 0
M  V30 7563 N 716.879 -0.700114 -1.41195 0
M  V30 7564 C 717.811 0.00155823 -2.292 0
M  V30 7565 C 718.824 0.739736 -1.45023 0
M  V30 7566 O 720.013 0.589684 -1.68478 0
M  V30 7567 C 717.113 1.02635 -3.22985 0
M  V30 7568 C 716.286 0.356871 -4.35942 0
M  V30 7569 C 715.345 1.28491 -5.10271 0
M  V30 7570 O 714.371 0.775562 -5.63892 0
M  V30 7571 N 715.573 2.61699 -5.18164 0
M  V30 7572 H 718.338 -0.754008 -2.9006 0
M  V30 7573 H 715.899 -0.546504 -1.52397 0
M  V30 7574 H 717.891 1.64902 -3.6958 0
M  V30 7575 H 716.461 1.68341 -2.63401 0
M  V30 7576 H 715.681 -0.445753 -3.91672 0
M  V30 7577 H 716.969 -0.108469 -5.08684 0
M  V30 7578 H 716.367 3.05594 -4.76056 0
M  V30 7579 H 714.924 3.19149 -5.6832 0
M  V30 7580 N 718.357 1.51182 -0.445186 0
M  V30 7581 C 719.634 1.9478 0.178965 0
M  V30 7582 C 720.014 1.38428 1.59376 0
M  V30 7583 O 719.362 0.574552 2.21159 0
M  V30 7584 C 719.572 3.48683 0.148711 0
M  V30 7585 C 720.92 4.23152 0.35042 0
M  V30 7586 O 721.944 3.55479 0.226474 0
M  V30 7587 O 720.803 5.4322 0.597893 0
M  V30 7588 H 717.897 0.817387 0.12573 0
M  V30 7589 H 720.443 1.62051 -0.503729 0
M  V30 7590 H 719.215 3.82176 -0.84009 0
M  V30 7591 H 718.838 3.87875 0.873979 0
M  V30 7592 N 719.835 0.176821 1.56605 0
M  V30 7593 C 720.798 -0.737429 2.17013 0
M  V30 7594 C 721.798 -1.15414 1.11965 0
M  V30 7595 O 722.988 -1.0702 1.37449 0
M  V30 7596 C 720.12 -2.00445 2.75744 0
M  V30 7597 H 721.313 -0.211455 2.99154 0
M  V30 7598 H 718.866 -0.0727582 1.56131 0
M  V30 7599 H 719.601 -2.57338 1.97352 0
M  V30 7600 H 719.386 -1.71456 3.52626 0
M  V30 7601 H 720.876 -2.65679 3.22187 0
M  V30 7602 N 721.313 -1.57302 -0.09688 0
M  V30 7603 C 722.223 -2.05258 -1.13606 0
M  V30 7604 C 723.239 -0.977137 -1.43972 0
M  V30 7605 O 724.415 -1.29018 -1.54649 0
M  V30 7606 C 721.48 -2.46593 -2.43706 0
M  V30 7607 C 720.541 -3.68322 -2.20538 0
M  V30 7608 C 719.774 -4.07676 -3.44435 0
M  V30 7609 O 719.997 -3.47141 -4.52603 0
M  V30 7610 O 718.931 -5.00641 -3.34129 0
M  V30 7611 H 722.757 -2.94069 -0.758752 0
M  V30 7612 H 720.342 -1.46164 -0.309263 0
M  V30 7613 H 722.224 -2.73814 -3.20318 0
M  V30 7614 H 720.899 -1.6092 -2.80867 0
M  V30 7615 H 719.806 -3.4622 -1.41713 0
M  V30 7616 H 721.139 -4.54769 -1.88271 0
M  V30 7617 N 722.791 0.367657 -1.53252 0
M  V30 7618 C 723.738 1.45028 -1.79543 0
M  V30 7619 C 724.708 1.53288 -0.63969 0
M  V30 7620 O 725.893 1.69209 -0.881653 0
M  V30 7621 C 723.033 2.82 -1.98923 0
M  V30 7622 C 722.146 2.82722 -3.26638 0
M  V30 7623 C 721.281 4.11257 -3.36216 0
M  V30 7624 C 720.32 4.06113 -4.57972 0
M  V30 7625 N 719.457 5.26293 -4.64715 0
M  V30 7626 H 724.297 1.21908 -2.71923 0
M  V30 7627 H 721.834 0.591011 -1.34705 0
M  V30 7628 H 723.792 3.61568 -2.08146 0
M  V30 7629 H 722.422 3.03523 -1.09881 0
M  V30 7630 H 721.474 1.95399 -3.26379 0
M  V30 7631 H 722.786 2.74794 -4.16281 0
M  V30 7632 H 721.94 4.99239 -3.44739 0
M  V30 7633 H 720.679 4.21935 -2.44586 0
M  V30 7634 H 719.684 3.16517 -4.49552 0
M  V30 7635 H 720.909 3.97039 -5.50942 0
M  V30 7636 H 718.855 5.37561 -3.75985 0
M  V30 7637 H 718.772 5.20526 -5.4826 0
M  V30 7638 H 720.04 6.16113 -4.77519 0
M  V30 7639 N 724.269 1.44576 0.627338 0
M  V30 7640 C 725.216 1.51734 1.73912 0
M  V30 7641 C 726.186 0.364745 1.62046 0
M  V30 7642 O 727.371 0.575503 1.81914 0
M  V30 7643 C 724.511 1.47116 3.12171 0
M  V30 7644 C 723.624 2.72778 3.34986 0
M  V30 7645 C 722.759 2.59968 4.63239 0
M  V30 7646 C 721.798 3.80776 4.79245 0
M  V30 7647 N 720.935 3.66618 5.98778 0
M  V30 7648 H 725.775 2.46722 1.6713 0
M  V30 7649 H 723.312 1.22444 0.815224 0
M  V30 7650 H 725.27 1.42429 3.92135 0
M  V30 7651 H 723.9 0.556928 3.17959 0
M  V30 7652 H 722.952 2.87637 2.48936 0
M  V30 7653 H 724.264 3.62441 3.42692 0
M  V30 7654 H 723.418 2.53135 5.51369 0
M  V30 7655 H 722.157 1.67872 4.57898 0
M  V30 7656 H 721.162 3.87989 3.89544 0
M  V30 7657 H 722.387 4.73913 4.86398 0
M  V30 7658 H 720.333 2.77277 5.9452 0
M  V30 7659 H 720.25 4.499 6.07557 0
M  V30 7660 H 721.518 3.63684 6.89459 0
M  V30 7661 N 725.747 -0.868086 1.31537 0
M  V30 7662 C 726.694 -1.97548 1.19346 0
M  V30 7663 C 727.664 -1.65913 0.0787922 0
M  V30 7664 O 728.849 -1.89129 0.251985 0
M  V30 7665 C 725.989 -3.32922 0.908692 0
M  V30 7666 C 725.102 -3.77141 2.10687 0
M  V30 7667 C 724.237 -5.01241 1.75873 0
M  V30 7668 C 723.276 -5.37914 2.92088 0
M  V30 7669 N 722.413 -6.53192 2.57457 0
M  V30 7670 H 727.253 -2.07307 2.14074 0
M  V30 7671 H 724.79 -1.01483 1.06487 0
M  V30 7672 H 726.748 -4.10867 0.724138 0
M  V30 7673 H 725.378 -3.228 -0.0017611 0
M  V30 7674 H 724.43 -2.94961 2.40213 0
M  V30 7675 H 725.742 -4.00248 2.97663 0
M  V30 7676 H 724.896 -5.86858 1.53891 0
M  V30 7677 H 723.635 -4.80041 0.86091 0
M  V30 7678 H 722.64 -4.50814 3.14717 0
M  V30 7679 H 723.865 -5.61077 3.82582 0
M  V30 7680 H 721.811 -6.33536 1.702 0
M  V30 7681 H 721.728 -6.76252 3.37963 0
M  V30 7682 H 722.996 -7.41997 2.38873 0
M  V30 7683 N 727.225 -1.14528 -1.08264 0
M  V30 7684 C 728.172 -0.833556 -2.15222 0
M  V30 7685 C 729.142 0.209539 -1.64773 0
M  V30 7686 O 730.327 0.0791388 -1.90636 0
M  V30 7687 C 727.467 -0.318799 -3.43624 0
M  V30 7688 C 726.58 -1.42237 -4.07913 0
M  V30 7689 C 725.715 -0.864704 -5.24115 0
M  V30 7690 C 724.754 -1.94585 -5.80347 0
M  V30 7691 N 723.891 -1.40525 -6.87893 0
M  V30 7692 H 728.731 -1.74965 -2.41228 0
M  V30 7693 H 726.268 -0.873169 -1.18381 0
M  V30 7694 H 728.226 -0.00213088 -4.172 0
M  V30 7695 H 726.856 0.560397 -3.17898 0
M  V30 7696 H 725.908 -1.8554 -3.32083 0
M  V30 7697 H 727.22 -2.23901 -4.45724 0
M  V30 7698 H 726.374 -0.500025 -6.04636 0
M  V30 7699 H 725.113 -0.0171219 -4.87697 0
M  V30 7700 H 724.118 -2.31946 -4.98479 0
M  V30 7701 H 725.343 -2.79704 -6.18823 0
M  V30 7702 H 723.289 -0.579873 -6.53432 0
M  V30 7703 H 723.206 -2.15825 -7.24538 0
M  V30 7704 H 724.474 -1.06852 -7.72142 0
M  V30 7705 N 728.703 1.26451 -0.940633 0
M  V30 7706 C 730.114 1.75726 -0.630653 0
M  V30 7707 C 730.465 1.76631 0.854167 0
M  V30 7708 O 729.59 1.37807 1.66848 0
M  V30 7709 C 730.185 3.19114 -1.13805 0
M  V30 7710 C 728.744 3.66005 -0.878497 0
M  V30 7711 C 727.891 2.45505 -1.28928 0
M  V30 7712 H 730.842 1.12535 -1.119 0
M  V30 7713 H 730.863 3.77311 -0.491625 0
M  V30 7714 H 730.375 3.18424 -2.21874 0
M  V30 7715 H 728.476 3.72126 0.187833 0
M  V30 7716 H 728.589 4.54844 -1.50512 0
M  V30 7717 H 726.953 2.4467 -0.707713 0
M  V30 7718 H 727.736 2.47516 -2.37888 0
M  V30 7719 N 730.181 0.707592 1.40822 0
M  V30 7720 C 731.597 0.38034 1.55002 0
M  V30 7721 C 731.797 -1.11163 1.68062 0
M  V30 7722 O 730.853 -1.89761 1.66574 0
M  V30 7723 C 732.166 1.1394 2.78277 0
M  V30 7724 C 733.714 1.12492 2.92087 0
M  V30 7725 C 734.189 1.86597 4.18265 0
M  V30 7726 N 735.68 1.83626 4.25248 0
M  V30 7727 C 736.415 2.37794 5.21768 0
M  V30 7728 N 735.911 3.00485 6.24244 0
M  V30 7729 N 737.704 2.27982 5.13791 0
M  V30 7730 H 729.855 1.67511 1.3059 0
M  V30 7731 H 732.118 0.707579 0.630901 0
M  V30 7732 H 731.824 2.19398 2.74877 0
M  V30 7733 H 731.698 0.725793 3.70151 0
M  V30 7734 H 734.085 0.0785564 2.94995 0
M  V30 7735 H 734.166 1.57768 2.01353 0
M  V30 7736 H 733.81 2.91219 4.16118 0
M  V30 7737 H 733.74 1.38746 5.07993 0
M  V30 7738 H 736.231 1.3793 3.51829 0
M  V30 7739 H 736.544 3.39355 6.94304 0
M  V30 7740 H 734.889 3.04567 6.24711 0
M  V30 7741 H 738.08 1.78669 4.3266 0
M  V30 7742 H 738.253 2.70499 5.88841 0
M  V30 7743 N 731.66 -1.50943 0.453197 0
M  V30 7744 C 732.937 -1.94872 -0.168633 0
M  V30 7745 C 733.317 -1.39272 -1.5864 0
M  V30 7746 O 732.665 -0.586272 -2.20851 0
M  V30 7747 C 732.875 -3.48757 -0.130217 0
M  V30 7748 C 734.223 -4.23331 -0.327975 0
M  V30 7749 O 735.247 -3.55594 -0.207619 0
M  V30 7750 O 734.106 -5.43529 -0.569077 0
M  V30 7751 H 731.2 -0.818042 -0.121394 0
M  V30 7752 H 733.746 -1.61782 0.512316 0
M  V30 7753 H 732.518 -3.81725 0.860346 0
M  V30 7754 H 732.141 -3.88333 -0.853397 0
M  V30 7755 N 733.138 -0.185124 -1.56509 0
M  V30 7756 C 734.384 0.456934 -1.97585 0
M  V30 7757 C 734.717 1.61957 -1.07161 0
M  V30 7758 O 733.992 1.9412 -0.121546 0
M  V30 7759 C 734.275 0.926666 -3.47973 0
M  V30 7760 C 734.128 -0.237097 -4.49175 0
M  V30 7761 C 735.447 1.79561 -4.01803 0
M  V30 7762 H 732.566 0.164619 -0.71838 0
M  V30 7763 H 735.208 -0.274039 -1.88013 0
M  V30 7764 H 733.358 1.54954 -3.56261 0
M  V30 7765 H 735.03 -0.87454 -4.52934 0
M  V30 7766 H 733.273 -0.890446 -4.24563 0
M  V30 7767 H 733.944 0.133924 -5.51838 0
M  V30 7768 H 736.42 1.27039 -3.96232 0
M  V30 7769 H 735.296 2.09327 -5.07418 0
M  V30 7770 H 735.557 2.74629 -3.46455 0
M  V30 7771 N 734.616 1.57351 0.0885366 0
M  V30 7772 C 735.579 2.01557 1.09121 0
M  V30 7773 C 736.579 0.910052 1.3257 0
M  V30 7774 O 737.769 1.17537 1.28572 0
M  V30 7775 C 734.901 2.38189 2.43883 0
M  V30 7776 H 736.094 2.91361 0.710562 0
M  V30 7777 H 733.647 1.52694 0.333779 0
M  V30 7778 H 734.382 1.5136 2.86811 0
M  V30 7779 H 734.167 3.18846 2.28209 0
M  V30 7780 H 735.657 2.73025 3.15986 0
M  V30 7781 N 736.094 -0.359525 1.53444 0
M  V30 7782 C 737.51 -0.701599 1.43352 0
M  V30 7783 C 737.71 -1.93049 0.577439 0
M  V30 7784 O 736.766 -2.52423 0.0622224 0
M  V30 7785 C 738.079 -0.90915 2.86627 0
M  V30 7786 C 739.627 -1.00878 2.96298 0
M  V30 7787 C 740.102 -1.24876 4.40647 0
M  V30 7788 N 741.593 -1.31632 4.44103 0
M  V30 7789 C 742.328 -1.51922 5.52908 0
M  V30 7790 N 741.824 -1.69489 6.71748 0
M  V30 7791 N 743.617 -1.54341 5.40496 0
M  V30 7792 H 735.768 0.448685 2.07607 0
M  V30 7793 H 738.031 0.138713 0.937797 0
M  V30 7794 H 737.737 -0.0778997 3.51614 0
M  V30 7795 H 737.611 -1.81551 3.30634 0
M  V30 7796 H 739.998 -1.83057 2.31461 0
M  V30 7797 H 740.079 -0.0796721 2.55676 0
M  V30 7798 H 739.723 -0.431961 5.0606 0
M  V30 7799 H 739.653 -2.19118 4.78848 0
M  V30 7800 H 742.144 -1.19646 3.5846 0
M  V30 7801 H 742.457 -1.84561 7.50438 0
M  V30 7802 H 740.802 -1.66655 6.74723 0
M  V30 7803 H 743.993 -1.40188 4.46615 0
M  V30 7804 H 744.166 -1.69812 6.25354 0
M  V30 7805 N 737.572 -1.44907 -0.619662 0
M  V30 7806 C 738.988 -1.29046 -0.939107 0
M  V30 7807 C 739.188 -0.23462 -2.00129 0
M  V30 7808 O 738.244 0.37558 -2.49691 0
M  V30 7809 C 739.557 -2.66567 -1.39149 0
M  V30 7810 C 741.105 -2.74368 -1.50635 0
M  V30 7811 C 741.58 -4.12386 -1.99253 0
M  V30 7812 N 743.071 -4.1462 -2.06506 0
M  V30 7813 C 743.806 -5.18272 -2.4532 0
M  V30 7814 N 743.302 -6.32278 -2.83189 0
M  V30 7815 N 745.095 -5.05628 -2.45554 0
M  V30 7816 H 737.246 -2.12239 0.0826135 0
M  V30 7817 H 739.509 -0.947652 -0.0256829 0
M  V30 7818 H 739.215 -3.4496 -0.685254 0
M  V30 7819 H 739.089 -2.94224 -2.36034 0
M  V30 7820 H 741.476 -1.96287 -2.20353 0
M  V30 7821 H 741.557 -2.50439 -0.520963 0
M  V30 7822 H 741.201 -4.90947 -1.30127 0
M  V30 7823 H 741.131 -4.33699 -2.98684 0
M  V30 7824 H 743.622 -3.32343 -1.79878 0
M  V30 7825 H 743.935 -7.07172 -3.11652 0
M  V30 7826 H 742.28 -6.35699 -2.80913 0
M  V30 7827 H 745.471 -4.15613 -2.15367 0
M  V30 7828 H 745.644 -5.86529 -2.75478 0
M  V30 7829 N 739.05 0.861098 -1.31996 0
M  V30 7830 C 740.327 1.59788 -1.12814 0
M  V30 7831 C 740.707 2.08753 0.313882 0
M  V30 7832 O 740.055 1.87258 1.30946 0
M  V30 7833 C 740.265 2.74901 -2.15012 0
M  V30 7834 C 741.613 3.44643 -2.48004 0
M  V30 7835 O 742.637 2.85119 -2.13508 0
M  V30 7836 O 741.496 4.52044 -3.07113 0
M  V30 7837 H 738.59 0.703408 -0.434909 0
M  V30 7838 H 741.136 0.905788 -1.43505 0
M  V30 7839 H 739.908 2.36198 -3.11971 0
M  V30 7840 H 739.531 3.51792 -1.85279 0
M  V30 7841 N 740.528 1.15101 1.07655 0
M  V30 7842 C 741.458 0.867864 2.16773 0
M  V30 7843 C 742.439 -0.180283 1.69142 0
M  V30 7844 O 743.624 -0.0353152 1.94168 0
M  V30 7845 C 740.754 0.35299 3.45501 0
M  V30 7846 C 739.708 1.33746 4.06566 0
M  V30 7847 C 739.034 0.681562 5.30338 0
M  V30 7848 C 740.334 2.7024 4.46954 0
M  V30 7849 H 742.028 1.78034 2.40716 0
M  V30 7850 H 739.574 0.857435 1.15689 0
M  V30 7851 H 741.527 0.142465 4.21159 0
M  V30 7852 H 740.251 -0.594945 3.21135 0
M  V30 7853 H 738.91 1.53429 3.32949 0
M  V30 7854 H 738.558 -0.272422 5.02262 0
M  V30 7855 H 738.258 1.33853 5.72151 0
M  V30 7856 H 739.782 0.48074 6.08705 0
M  V30 7857 H 741.196 2.5442 5.13754 0
M  V30 7858 H 739.593 3.32282 4.99709 0
M  V30 7859 H 740.663 3.26537 3.58471 0
M  V30 7860 N 742.006 -1.2595 0.947325 0
M  V30 7861 C 742.969 -2.24407 0.466285 0
M  V30 7862 C 743.969 -1.55054 -0.426005 0
M  V30 7863 O 745.159 -1.7275 -0.224319 0
M  V30 7864 C 742.291 -3.39326 -0.327201 0
M  V30 7865 H 743.484 -2.68477 1.33642 0
M  V30 7866 H 741.037 -1.38211 0.729887 0
M  V30 7867 H 741.772 -3.00667 -1.21532 0
M  V30 7868 H 741.557 -3.9085 0.312839 0
M  V30 7869 H 743.047 -4.12455 -0.653477 0
M  V30 7870 N 743.484 -0.715051 -1.40445 0
M  V30 7871 C 744.731 -0.254328 -2.00897 0
M  V30 7872 C 745.059 1.15228 -1.56693 0
M  V30 7873 O 744.314 1.7958 -0.777786 0
M  V30 7874 C 744.613 -0.281791 -3.56287 0
M  V30 7875 C 744.279 -1.63862 -4.20071 0
M  V30 7876 C 742.941 -2.01003 -4.37208 0
M  V30 7877 C 745.293 -2.53039 -4.55654 0
M  V30 7878 C 742.621 -3.26869 -4.8721 0
M  V30 7879 C 744.973 -3.78256 -5.07055 0
M  V30 7880 C 743.637 -4.15515 -5.22401 0
M  V30 7881 H 742.907 -0.0930652 -0.735133 0
M  V30 7882 H 745.554 -0.917977 -1.68064 0
M  V30 7883 H 743.859 0.465428 -3.89026 0
M  V30 7884 H 745.556 0.0925158 -4.00893 0
M  V30 7885 H 742.146 -1.33979 -4.07121 0
M  V30 7886 H 746.33 -2.2562 -4.42051 0
M  V30 7887 H 741.586 -3.55706 -4.97276 0
M  V30 7888 H 745.76 -4.47528 -5.33565 0
M  V30 7889 H 743.387 -5.13114 -5.60909 0
M  V30 7890 N 744.962 1.50701 -0.461195 0
M  V30 7891 C 745.872 2.32069 0.343661 0
M  V30 7892 C 746.888 1.42016 1.00535 0
M  V30 7893 O 748.064 1.75077 0.995498 0
M  V30 7894 C 745.129 3.16424 1.41692 0
M  V30 7895 C 744.19 4.22286 0.772869 0
M  V30 7896 C 743.423 5.02609 1.79499 0
M  V30 7897 O 743.646 4.83874 3.0203 0
M  V30 7898 O 742.58 5.86047 1.3723 0
M  V30 7899 H 746.406 3.01996 -0.321268 0
M  V30 7900 H 743.991 1.47723 -0.223235 0
M  V30 7901 H 745.873 3.68795 2.03883 0
M  V30 7902 H 744.548 2.49236 2.0655 0
M  V30 7903 H 743.455 3.73931 0.112277 0
M  V30 7904 H 744.788 4.91915 0.167399 0
M  V30 7905 N 746.441 0.193421 1.56409 0
M  V30 7906 C 747.687 -0.446449 1.97825 0
M  V30 7907 C 748.02 -1.61386 1.08019 0
M  V30 7908 O 747.295 -1.94053 0.131839 0
M  V30 7909 C 747.578 -0.908199 3.48459 0
M  V30 7910 C 747.431 0.260914 4.49043 0
M  V30 7911 C 748.75 -1.77428 4.0275 0
M  V30 7912 H 745.869 -0.160807 0.719243 0
M  V30 7913 H 748.511 0.284006 1.87865 0
M  V30 7914 H 746.661 -1.53062 3.57077 0
M  V30 7915 H 748.333 0.898548 4.52464 0
M  V30 7916 H 746.576 0.912949 4.24085 0
M  V30 7917 H 747.247 -0.104657 5.51901 0
M  V30 7918 H 749.723 -1.24936 3.96901 0
M  V30 7919 H 748.599 -2.06633 5.08521 0
M  V30 7920 H 748.86 -2.72788 3.47907 0
M  V30 7921 N 747.919 -1.57396 -0.0801906 0
M  V30 7922 C 749.33 -1.75642 -0.633002 0
M  V30 7923 C 749.681 -0.817708 -1.78348 0
M  V30 7924 O 748.806 0.000233743 -2.164 0
M  V30 7925 C 749.401 -3.18502 -1.15507 0
M  V30 7926 C 747.96 -3.38121 -1.65381 0
M  V30 7927 C 747.107 -2.71386 -0.569661 0
M  V30 7928 H 750.058 -1.58027 0.145949 0
M  V30 7929 H 750.079 -3.22198 -2.02408 0
M  V30 7930 H 749.591 -3.86799 -0.317515 0
M  V30 7931 H 747.692 -2.74926 -2.51488 0
M  V30 7932 H 747.805 -4.46521 -1.73654 0
M  V30 7933 H 746.169 -2.33702 -1.0127 0
M  V30 7934 H 746.952 -3.42332 0.257561 0
M  V30 7935 N 749.397 0.351382 -1.53633 0
M  V30 7936 C 750.307 1.45471 -1.84052 0
M  V30 7937 C 751.323 1.57945 -0.730015 0
M  V30 7938 O 752.499 1.73571 -1.02153 0
M  V30 7939 C 749.564 2.80562 -2.03681 0
M  V30 7940 C 748.625 2.77497 -3.27558 0
M  V30 7941 C 747.858 4.06144 -3.46241 0
M  V30 7942 O 748.081 5.03028 -2.68922 0
M  V30 7943 O 747.015 4.11092 -4.39645 0
M  V30 7944 H 750.841 1.22684 -2.77817 0
M  V30 7945 H 748.426 0.542827 -1.3919 0
M  V30 7946 H 750.308 3.6058 -2.18082 0
M  V30 7947 H 748.983 3.03296 -1.13106 0
M  V30 7948 H 747.89 1.96126 -3.18568 0
M  V30 7949 H 749.223 2.59716 -4.18101 0
M  V30 7950 N 750.875 1.45233 0.611969 0
M  V30 7951 C 752.291 1.29542 0.932251 0
M  V30 7952 C 752.491 0.24523 2.00002 0
M  V30 7953 O 751.547 -0.362333 2.49887 0
M  V30 7954 C 752.86 2.67301 1.37733 0
M  V30 7955 C 754.408 2.75163 1.49178 0
M  V30 7956 C 754.883 4.13437 1.97064 0
M  V30 7957 N 756.374 4.15709 2.04304 0
M  V30 7958 C 757.109 5.19566 2.42568 0
M  V30 7959 N 756.605 6.33771 2.79832 0
M  V30 7960 N 758.398 5.06923 2.42869 0
M  V30 7961 H 750.549 2.12192 -0.0938679 0
M  V30 7962 H 752.812 0.947775 0.0206569 0
M  V30 7963 H 752.518 3.45318 0.666951 0
M  V30 7964 H 752.392 2.95472 2.3447 0
M  V30 7965 H 754.779 1.97453 2.19309 0
M  V30 7966 H 754.86 2.50712 0.507674 0
M  V30 7967 H 754.504 4.91631 1.27521 0
M  V30 7968 H 754.434 4.35277 2.9638 0
M  V30 7969 H 756.925 3.33293 1.78113 0
M  V30 7970 H 757.238 7.08815 3.07898 0
M  V30 7971 H 755.583 6.37179 2.77538 0
M  V30 7972 H 758.774 4.1675 2.1316 0
M  V30 7973 H 758.947 5.87981 2.72364 0
M  V30 7974 N 752.353 -0.854086 1.3245 0
M  V30 7975 C 753.601 -1.60513 1.228 0
M  V30 7976 C 753.922 -1.93865 -0.210073 0
M  V30 7977 O 753.192 -1.59673 -1.13496 0
M  V30 7978 H 751.772 -0.595099 0.451516 0
M  V30 7979 H 754.434 -1.0216 1.6598 0
M  V30 7980 H 753.53 -2.54182 1.81102 0
M  V30 7981 N 753.831 -1.1567 -1.07043 0
M  V30 7982 C 755.056 -0.957946 -1.83952 0
M  V30 7983 C 755.481 0.488807 -1.81638 0
M  V30 7984 O 754.839 1.34869 -1.21162 0
M  V30 7985 C 754.887 -1.48064 -3.288 0
M  V30 7986 O 753.991 -0.681921 -4.06723 0
M  V30 7987 H 753.332 -0.341453 -0.569479 0
M  V30 7988 H 755.862 -1.53728 -1.35015 0
M  V30 7989 H 755.872 -1.49484 -3.7963 0
M  V30 7990 H 754.547 -2.53388 -3.29799 0
M  V30 7991 H 753.124 -0.737612 -3.65532 0
M  V30 7992 N 755.309 1.25446 -0.953992 0
M  V30 7993 C 756.725 1.4539 -0.658316 0
M  V30 7994 C 756.925 1.85607 0.784356 0
M  V30 7995 O 755.981 1.98568 1.55972 0
M  V30 7996 C 757.294 2.52643 -1.6307 0
M  V30 7997 C 758.842 2.66484 -1.64181 0
M  V30 7998 C 759.317 3.76921 -2.60182 0
M  V30 7999 N 760.808 3.84331 -2.58542 0
M  V30 8000 C 761.543 4.69271 -3.29503 0
M  V30 8001 N 761.039 5.58503 -4.09934 0
M  V30 8002 N 762.832 4.6323 -3.18393 0
M  V30 8003 H 754.983 0.976337 -1.8863 0
M  V30 8004 H 757.246 0.490343 -0.811337 0
M  V30 8005 H 756.952 2.29949 -2.66114 0
M  V30 8006 H 756.826 3.50547 -1.39271 0
M  V30 8007 H 759.213 2.88545 -0.618552 0
M  V30 8008 H 759.294 1.68982 -1.92038 0
M  V30 8009 H 758.938 3.55612 -3.62633 0
M  V30 8010 H 758.868 4.73906 -2.29609 0
M  V30 8011 H 761.359 3.20544 -2.0015 0
M  V30 8012 H 761.672 6.20241 -4.61 0
M  V30 8013 H 760.017 5.58214 -4.14032 0
M  V30 8014 H 763.208 3.92527 -2.5503 0
M  V30 8015 H 763.381 5.29204 -3.73961 0
M  V30 8016 N 756.787 0.722489 1.40064 0
M  V30 8017 C 758.198 0.336507 1.83642 0
M  V30 8018 C 758.549 -1.13002 1.6039 0
M  V30 8019 O 757.674 -1.87036 1.08842 0
M  V30 8020 C 758.269 0.603985 3.33373 0
M  V30 8021 C 756.828 0.271637 3.75419 0
M  V30 8022 C 755.975 0.872898 2.63203 0
M  V30 8023 H 758.926 0.921108 1.29233 0
M  V30 8024 H 758.947 -0.128471 3.80283 0
M  V30 8025 H 758.459 1.67141 3.50265 0
M  V30 8026 H 756.56 -0.790455 3.64119 0
M  V30 8027 H 756.673 0.745457 4.73265 0
M  V30 8028 H 755.037 0.300431 2.52922 0
M  V30 8029 H 755.82 1.94473 2.82905 0
M  V30 8030 N 758.265 -1.50454 0.469181 0
M  V30 8031 C 759.228 -2.2703 -0.314643 0
M  V30 8032 C 760.228 -1.31734 -0.922111 0
M  V30 8033 O 761.418 -1.55176 -0.791588 0
M  V30 8034 C 758.55 -3.08616 -1.44806 0
M  V30 8035 H 759.743 -2.97769 0.356892 0
M  V30 8036 H 757.296 -1.54698 0.223191 0
M  V30 8037 H 758.031 -2.42369 -2.1547 0
M  V30 8038 H 757.816 -3.78647 -1.01829 0
M  V30 8039 H 759.306 -3.66536 -2.00103 0
M  V30 8040 N 759.743 -0.201713 -1.56304 0
M  V30 8041 C 760.968 0.443815 -2.02596 0
M  V30 8042 C 761.393 1.53945 -1.08086 0
M  V30 8043 O 760.751 1.81182 -0.0655056 0
M  V30 8044 C 760.799 0.971066 -3.47279 0
M  V30 8045 O 759.903 2.0836 -3.55893 0
M  V30 8046 H 759.244 0.10294 -0.655972 0
M  V30 8047 H 761.774 -0.314533 -2.02168 0
M  V30 8048 H 761.784 1.28598 -3.87204 0
M  V30 8049 H 760.459 0.169048 -4.15556 0
M  V30 8050 H 759.036 1.77683 -3.27846 0
M  V30 8051 N 761.222 1.57436 0.0718424 0
M  V30 8052 C 762.633 1.75975 0.623678 0
M  V30 8053 C 762.984 0.827155 1.77912 0
M  V30 8054 O 762.109 0.0112425 2.16397 0
M  V30 8055 C 762.704 3.1911 1.13816 0
M  V30 8056 C 761.263 3.38994 1.63586 0
M  V30 8057 C 760.41 2.71684 0.555261 0
M  V30 8058 H 763.361 1.57948 -0.154328 0
M  V30 8059 H 763.382 3.23267 2.00696 0
M  V30 8060 H 762.894 3.86962 0.296998 0
M  V30 8061 H 760.995 2.76256 2.50027 0
M  V30 8062 H 761.108 4.47436 1.71283 0
M  V30 8063 H 759.472 2.34236 1.00029 0
M  V30 8064 H 760.255 3.42191 -0.275712 0
M  V30 8065 N 762.7 -0.34323 1.53817 0
M  V30 8066 C 763.663 -1.40444 1.8113 0
M  V30 8067 C 764.663 -1.45604 0.682366 0
M  V30 8068 O 765.853 -1.45974 0.950649 0
M  V30 8069 C 762.985 -2.79369 1.95361 0
M  V30 8070 H 764.178 -1.17489 2.75928 0
M  V30 8071 H 761.731 -0.577636 1.45234 0
M  V30 8072 H 762.466 -3.07607 1.02707 0
M  V30 8073 H 762.251 -2.7702 2.77493 0
M  V30 8074 H 763.741 -3.56178 2.18008 0
M  V30 8075 N 764.178 -1.45556 -0.604258 0
M  V30 8076 C 765.141 -1.54091 -1.69672 0
M  V30 8077 C 766.141 -0.420076 -1.55216 0
M  V30 8078 O 767.331 -0.683671 -1.60224 0
M  V30 8079 C 764.463 -1.44063 -3.08964 0
M  V30 8080 H 765.656 -2.51431 -1.6347 0
M  V30 8081 H 763.209 -1.33046 -0.820273 0
M  V30 8082 H 763.944 -0.479201 -3.2074 0
M  V30 8083 H 763.729 -2.25362 -3.20865 0
M  V30 8084 H 765.219 -1.53075 -3.88533 0
M  V30 8085 N 765.656 0.84705 -1.32902 0
M  V30 8086 C 766.603 1.95624 -1.22473 0
M  V30 8087 C 767.573 1.65767 -0.105178 0
M  V30 8088 O 768.758 1.88704 -0.282042 0
M  V30 8089 C 765.898 3.31434 -0.961542 0
M  V30 8090 C 765.011 3.73741 -2.1666 0
M  V30 8091 C 764.146 4.98379 -1.83825 0
M  V30 8092 C 763.185 5.33199 -3.00609 0
M  V30 8093 N 762.322 6.49014 -2.67816 0
M  V30 8094 H 767.162 2.03875 -2.17345 0
M  V30 8095 H 764.699 0.997764 -1.08088 0
M  V30 8096 H 766.657 4.09663 -0.789411 0
M  V30 8097 H 765.287 3.22762 -0.0495938 0
M  V30 8098 H 764.339 2.91102 -2.44875 0
M  V30 8099 H 765.651 3.95462 -3.03993 0
M  V30 8100 H 764.805 5.84336 -1.63208 0
M  V30 8101 H 763.544 4.78611 -0.937172 0
M  V30 8102 H 762.549 4.4575 -3.21849 0
M  V30 8103 H 763.774 5.5492 -3.9146 0
M  V30 8104 H 761.72 6.30748 -1.80258 0
M  V30 8105 H 761.637 6.7079 -3.48679 0
M  V30 8106 H 762.905 7.38103 -2.50647 0
M  V30 8107 N 767.134 1.16236 1.06428 0
M  V30 8108 C 768.064 0.890807 2.1584 0
M  V30 8109 C 769.045 -0.162333 1.69324 0
M  V30 8110 O 770.23 -0.0147191 1.94194 0
M  V30 8111 C 767.36 0.389615 3.45108 0
M  V30 8112 C 766.314 1.38051 4.05125 0
M  V30 8113 C 765.64 0.737773 5.29586 0
M  V30 8114 C 766.94 2.74965 4.44062 0
M  V30 8115 H 768.634 1.80577 2.38814 0
M  V30 8116 H 766.18 0.869657 1.14774 0
M  V30 8117 H 768.133 0.187127 4.20984 0
M  V30 8118 H 766.857 -0.560851 3.21748 0
M  V30 8119 H 765.516 1.56952 3.31303 0
M  V30 8120 H 765.164 -0.219135 5.02522 0
M  V30 8121 H 764.864 1.39914 5.70699 0
M  V30 8122 H 766.388 0.545275 6.0816 0
M  V30 8123 H 767.802 2.59855 5.11027 0
M  V30 8124 H 766.199 3.37563 4.96156 0
M  V30 8125 H 767.269 3.30321 3.54987 0
M  V30 8126 N 768.612 -1.24939 0.960631 0
M  V30 8127 C 770.023 -1.74701 0.658529 0
M  V30 8128 C 770.374 -1.77967 -0.825959 0
M  V30 8129 O 769.499 -1.40444 -1.64634 0
M  V30 8130 C 770.094 -3.17263 1.18867 0
M  V30 8131 C 768.653 -3.64561 0.936614 0
M  V30 8132 C 767.8 -2.43423 1.32817 0
M  V30 8133 H 770.751 -1.10741 1.13676 0
M  V30 8134 H 770.772 -3.76481 0.551589 0
M  V30 8135 H 770.284 -3.14854 2.26912 0
M  V30 8136 H 768.385 -3.72378 -0.128608 0
M  V30 8137 H 768.498 -4.52392 1.57729 0
M  V30 8138 H 766.862 -2.43513 0.746548 0
M  V30 8139 H 767.645 -2.437 2.41796 0
M  V30 8140 N 770.09 -0.729906 -1.39679 0
M  V30 8141 C 771.053 -0.0951668 -2.29002 0
M  V30 8142 C 772.053 0.672471 -1.46063 0
M  V30 8143 O 773.243 0.502245 -1.66803 0
M  V30 8144 C 770.375 0.874631 -3.29489 0
M  V30 8145 H 771.568 -0.882062 -2.86635 0
M  V30 8146 H 769.121 -0.495424 -1.4824 0
M  V30 8147 H 769.856 1.68807 -2.76902 0
M  V30 8148 H 769.641 0.326893 -3.90735 0
M  V30 8149 H 771.131 1.31548 -3.96339 0
M  V30 8150 N 771.568 1.50203 -0.477153 0
M  V30 8151 C 772.793 2.07263 0.0754986 0
M  V30 8152 C 773.218 1.33801 1.32208 0
M  V30 8153 O 772.576 0.387482 1.77111 0
M  V30 8154 C 772.624 3.59028 0.336348 0
M  V30 8155 O 771.728 3.87339 1.4157 0
M  V30 8156 H 771.069 0.663815 -0.015662 0
M  V30 8157 H 773.599 1.93321 -0.669936 0
M  V30 8158 H 773.609 4.03927 0.575034 0
M  V30 8159 H 772.284 4.11912 -0.574551 0
M  V30 8160 H 770.861 3.54272 1.16385 0
M  V30 8161 N 773.046 0.209999 1.56195 0
M  V30 8162 C 774.457 -0.299943 1.84275 0
M  V30 8163 C 774.808 -1.60314 1.1311 0
M  V30 8164 O 773.933 -2.1273 0.396874 0
M  V30 8165 C 774.528 -0.550986 3.3429 0
M  V30 8166 C 773.087 -1.00526 3.62728 0
M  V30 8167 C 772.234 -0.0619828 2.77231 0
M  V30 8168 H 775.185 0.433458 1.52666 0
M  V30 8169 H 775.206 -1.39846 3.53869 0
M  V30 8170 H 774.718 0.397669 3.86057 0
M  V30 8171 H 772.819 -1.96768 3.16407 0
M  V30 8172 H 772.932 -0.887664 4.70805 0
M  V30 8173 H 771.296 -0.566648 2.48317 0
M  V30 8174 H 772.079 0.881383 3.31793 0
M  V30 8175 N 774.524 -1.57472 -0.0634922 0
M  V30 8176 C 775.749 -1.92273 -0.77756 0
M  V30 8177 C 776.174 -0.807141 -1.69902 0
M  V30 8178 O 775.532 0.239523 -1.79711 0
M  V30 8179 C 775.58 -3.26054 -1.54017 0
M  V30 8180 O 774.684 -3.15873 -2.65138 0
M  V30 8181 H 774.025 -0.629389 -0.211579 0
M  V30 8182 H 776.555 -2.04579 -0.0292523 0
M  V30 8183 H 776.565 -3.60127 -1.91763 0
M  V30 8184 H 775.24 -4.06824 -0.864128 0
M  V30 8185 H 773.817 -2.93373 -2.30189 0
M  V30 8186 N 776.003 0.335068 -1.53997 0
M  V30 8187 C 777.251 1.07223 -1.71312 0
M  V30 8188 C 777.572 1.88911 -0.483486 0
M  V30 8189 O 776.842 1.89344 0.50257 0
M  V30 8190 H 775.422 0.398846 -0.63161 0
M  V30 8191 H 778.084 0.374288 -1.91272 0
M  V30 8192 H 777.18 1.7448 -2.58772 0
M  V30 8193 N 777.481 1.45874 0.596531 0
M  V30 8194 C 778.706 1.54247 1.38646 0
M  V30 8195 C 779.131 0.179571 1.87241 0
M  V30 8196 O 778.489 -0.837831 1.6078 0
M  V30 8197 C 778.537 2.54015 2.55946 0
M  V30 8198 O 777.641 2.06561 3.5694 0
M  V30 8199 H 776.982 0.519555 0.413471 0
M  V30 8200 H 779.512 1.91327 0.724936 0
M  V30 8201 H 779.522 2.73179 3.03047 0
M  V30 8202 H 778.197 3.52994 2.19928 0
M  V30 8203 H 776.774 1.97324 3.16414 0
M  V30 8204 N 778.959 -0.83999 1.33349 0
M  V30 8205 C 779.869 -1.98182 1.25543 0
M  V30 8206 C 780.885 -1.73204 0.166208 0
M  V30 8207 O 782.061 -1.97596 0.389589 0
M  V30 8208 C 779.126 -3.32157 0.993614 0
M  V30 8209 C 778.187 -3.70258 2.17273 0
M  V30 8210 C 777.42 -4.9784 1.92331 0
M  V30 8211 O 777.643 -5.63679 0.873074 0
M  V30 8212 O 776.577 -5.33418 2.78835 0
M  V30 8213 H 780.403 -2.07708 2.21565 0
M  V30 8214 H 777.988 -0.972852 1.13384 0
M  V30 8215 H 779.87 -4.12433 0.864711 0
M  V30 8216 H 778.545 -3.23637 0.0636596 0
M  V30 8217 H 777.452 -2.90497 2.35716 0
M  V30 8218 H 778.785 -3.83442 3.08598 0
M  V30 8219 N 780.437 -1.16799 -1.0581 0
M  V30 8220 C 781.714 -0.862616 -1.75551 0
M  V30 8221 C 782.094 0.6385 -2.01212 0
M  V30 8222 O 781.442 1.58784 -1.64317 0
M  V30 8223 C 781.652 -1.6907 -3.05314 0
M  V30 8224 C 783 -1.90675 -3.79379 0
M  V30 8225 O 784.024 -1.65976 -3.15167 0
M  V30 8226 O 782.883 -2.32145 -4.94743 0
M  V30 8227 H 779.977 -0.318789 -0.763088 0
M  V30 8228 H 782.523 -1.27461 -1.12034 0
M  V30 8229 H 781.295 -2.70912 -2.82352 0
M  V30 8230 H 780.918 -1.27606 -3.76567 0
M  V30 8231 N 781.915 1.24427 -0.967243 0
M  V30 8232 C 782.845 2.2773 -0.515899 0
M  V30 8233 C 783.826 1.64197 0.444227 0
M  V30 8234 O 785.011 1.91193 0.340451 0
M  V30 8235 C 782.141 3.46751 0.195149 0
M  V30 8236 C 781.095 4.22548 -0.680953 0
M  V30 8237 C 780.421 5.34456 0.161561 0
M  V30 8238 C 781.721 4.83914 -1.96532 0
M  V30 8239 H 783.415 2.65735 -1.37933 0
M  V30 8240 H 780.961 1.27742 -0.664681 0
M  V30 8241 H 782.914 4.18153 0.522117 0
M  V30 8242 H 781.638 3.07771 1.09292 0
M  V30 8243 H 780.297 3.52946 -0.991186 0
M  V30 8244 H 779.945 4.91716 1.05947 0
M  V30 8245 H 779.645 5.86087 -0.421418 0
M  V30 8246 H 781.169 6.08685 0.483211 0
M  V30 8247 H 782.583 5.47392 -1.70396 0
M  V30 8248 H 780.98 5.45775 -2.49499 0
M  V30 8249 H 782.05 4.05393 -2.66053 0
M  V30 8250 N 783.393 0.737304 1.3929 0
M  V30 8251 C 784.618 0.295237 2.05288 0
M  V30 8252 C 785.043 -1.06235 1.55228 0
M  V30 8253 O 784.401 -1.67365 0.697043 0
M  V30 8254 C 784.449 0.309146 3.59272 0
M  V30 8255 O 783.553 -0.702437 4.06374 0
M  V30 8256 H 782.894 0.133762 0.650387 0
M  V30 8257 H 785.424 1.00387 1.78279 0
M  V30 8258 H 785.434 0.154336 4.07708 0
M  V30 8259 H 784.109 1.29974 3.95069 0
M  V30 8260 H 782.686 -0.513574 3.69346 0
M  V30 8261 N 784.871 -1.49948 0.485112 0
M  V30 8262 C 786.096 -2.073 -0.0645059 0
M  V30 8263 C 786.521 -1.345 -1.31497 0
M  V30 8264 O 785.879 -0.39687 -1.76903 0
M  V30 8265 C 785.927 -3.59201 -0.317304 0
M  V30 8266 O 785.031 -3.88085 -1.39514 0
M  V30 8267 H 784.372 -0.663723 0.0191822 0
M  V30 8268 H 786.902 -1.92963 0.680179 0
M  V30 8269 H 786.912 -4.04227 -0.553604 0
M  V30 8270 H 785.587 -4.11602 0.596387 0
M  V30 8271 H 784.164 -3.54885 -1.14504 0
M  V30 8272 N 786.349 -0.21828 -1.56081 0
M  V30 8273 C 787.595 0.414921 -1.9851 0
M  V30 8274 C 787.928 1.59648 -1.10573 0
M  V30 8275 O 787.203 1.93818 -0.162695 0
M  V30 8276 C 787.486 0.852647 -3.4986 0
M  V30 8277 C 787.339 -0.33232 -4.48571 0
M  V30 8278 C 788.658 1.70998 -4.05521 0
M  V30 8279 H 785.777 0.149344 -0.72171 0
M  V30 8280 H 788.419 -0.313858 -1.8739 0
M  V30 8281 H 786.569 1.47362 -3.59467 0
M  V30 8282 H 788.241 -0.970418 -4.50977 0
M  V30 8283 H 786.484 -0.980302 -4.22578 0
M  V30 8284 H 787.155 0.0168407 -5.51997 0
M  V30 8285 H 789.631 1.18606 -3.98838 0
M  V30 8286 H 788.507 1.98517 -5.11744 0
M  V30 8287 H 788.768 2.67219 -3.52202 0
M  V30 8288 N 787.827 1.57504 0.0551401 0
M  V30 8289 C 789.052 1.92682 0.767352 0
M  V30 8290 C 789.477 0.81614 1.69472 0
M  V30 8291 O 788.835 -0.229989 1.79835 0
M  V30 8292 C 788.883 3.26866 1.52286 0
M  V30 8293 O 787.987 3.17274 2.63459 0
M  V30 8294 H 787.328 0.630502 0.208238 0
M  V30 8295 H 789.858 2.04592 0.0184026 0
M  V30 8296 H 789.868 3.61138 1.8985 0
M  V30 8297 H 788.543 4.07276 0.842541 0
M  V30 8298 H 787.12 2.94589 2.2863 0
M  V30 8299 N 789.305 -0.326896 1.54172 0
M  V30 8300 C 790.53 -1.08924 1.76494 0
M  V30 8301 C 790.955 -1.81039 0.510523 0
M  V30 8302 O 790.313 -1.73141 -0.537756 0
M  V30 8303 C 790.361 -2.06558 2.95578 0
M  V30 8304 O 789.465 -3.14394 2.6689 0
M  V30 8305 H 788.806 -0.314216 0.584948 0
M  V30 8306 H 791.336 -0.372207 2.01186 0
M  V30 8307 H 791.346 -2.49487 3.22832 0
M  V30 8308 H 790.021 -1.53469 3.86549 0
M  V30 8309 H 788.598 -2.76164 2.50576 0
M  V30 8310 N 790.784 -1.46188 -0.588786 0
M  V30 8311 C 792.009 -1.5498 -1.37826 0
M  V30 8312 C 792.434 -0.189498 -1.87143 0
M  V30 8313 O 791.792 0.829293 -1.61222 0
M  V30 8314 C 791.84 -2.55369 -2.54596 0
M  V30 8315 O 790.944 -2.08452 -3.55839 0
M  V30 8316 H 790.285 -0.521741 -0.41071 0
M  V30 8317 H 792.815 -1.91708 -0.714779 0
M  V30 8318 H 792.825 -2.74782 -3.01594 0
M  V30 8319 H 791.5 -3.54155 -2.18052 0
M  V30 8320 H 790.077 -1.98999 -3.15363 0
M  V30 8321 N 792.262 0.832906 -1.33792 0
M  V30 8322 C 793.673 1.40489 -1.22963 0
M  V30 8323 C 794.024 1.95633 0.149026 0
M  V30 8324 O 793.149 1.8928 1.04891 0
M  V30 8325 C 793.744 2.55387 -2.22627 0
M  V30 8326 C 792.303 3.08522 -2.15618 0
M  V30 8327 C 791.45 1.81347 -2.09782 0
M  V30 8328 H 794.401 0.638156 -1.45304 0
M  V30 8329 H 794.422 3.33193 -1.83746 0
M  V30 8330 H 793.934 2.15222 -3.22957 0
M  V30 8331 H 792.035 3.53217 -1.18611 0
M  V30 8332 H 792.148 3.6829 -3.0643 0
M  V30 8333 H 790.512 2.01839 -1.55349 0
M  V30 8334 H 791.295 1.43369 -3.1193 0
M  V30 8335 N 793.74 1.17359 1.05189 0
M  V30 8336 C 794.968 0.986529 1.81866 0
M  V30 8337 C 795.383 -0.46522 1.82979 0
M  V30 8338 O 794.74 -1.32305 1.25705 0
M  V30 8339 C 794.791 1.52021 3.27982 0
M  V30 8340 O 794.512 2.91511 3.27037 0
M  V30 8341 C 796.013 1.37774 4.21347 0
M  V30 8342 H 793.233 0.349021 0.573084 0
M  V30 8343 H 795.777 1.55648 1.32643 0
M  V30 8344 H 793.932 0.992287 3.74476 0
M  V30 8345 H 794.346 3.16178 4.18488 0
M  V30 8346 H 795.82 1.7993 5.21852 0
M  V30 8347 H 796.297 0.32483 4.37997 0
M  V30 8348 H 796.903 1.89583 3.80708 0
M  V30 8349 N 795.218 -1.23913 0.973828 0
M  V30 8350 C 796.443 -1.96735 0.656511 0
M  V30 8351 C 796.868 -1.71682 -0.768571 0
M  V30 8352 O 796.226 -0.984267 -1.52256 0
M  V30 8353 C 796.274 -3.48004 0.944735 0
M  V30 8354 O 795.378 -4.12387 0.0333357 0
M  V30 8355 H 794.719 -0.616119 0.247575 0
M  V30 8356 H 797.249 -1.57525 1.30564 0
M  V30 8357 H 797.259 -3.98424 0.87876 0
M  V30 8358 H 795.934 -3.65567 1.98328 0
M  V30 8359 H 794.511 -3.72585 0.153157 0
M  V30 8360 N 796.696 -0.74468 -1.38897 0
M  V30 8361 C 797.921 -0.306119 -2.05128 0
M  V30 8362 C 798.346 1.0541 -1.55789 0
M  V30 8363 O 797.704 1.66993 -0.705909 0
M  V30 8364 C 797.752 -0.328195 -3.59103 0
M  V30 8365 O 796.856 0.680876 -4.06741 0
M  V30 8366 H 796.197 -0.137209 -0.649669 0
M  V30 8367 H 798.727 -1.01331 -1.77745 0
M  V30 8368 H 798.737 -0.175956 -4.0762 0
M  V30 8369 H 797.412 -1.32067 -3.94374 0
M  V30 8370 H 795.989 0.49398 -3.69614 0
M  V30 8371 N 798.174 1.49689 -0.493057 0
M  V30 8372 C 799.585 1.8665 -0.0433032 0
M  V30 8373 C 799.936 1.40607 1.36836 0
M  V30 8374 O 799.061 0.780503 2.01834 0
M  V30 8375 C 799.656 3.38724 -0.0718069 0
M  V30 8376 C 798.215 3.75015 0.32257 0
M  V30 8377 C 797.362 2.7366 -0.4478 0
M  V30 8378 H 800.313 1.42119 -0.706246 0
M  V30 8379 H 800.334 3.73522 0.725347 0
M  V30 8380 H 799.846 3.72204 -1.09935 0
M  V30 8381 H 797.947 3.47142 1.35364 0
M  V30 8382 H 798.06 4.79099 0.00864259 0
M  V30 8383 H 796.424 2.54498 0.101354 0
M  V30 8384 H 797.207 3.09985 -1.47527 0
M  V30 8385 N 799.652 0.226554 1.55963 0
M  V30 8386 C 800.599 -0.681504 2.20509 0
M  V30 8387 C 801.569 -1.1866 1.16229 0
M  V30 8388 O 802.754 -1.24478 1.44602 0
M  V30 8389 C 799.894 -1.88183 2.89277 0
M  V30 8390 C 799.007 -1.41517 4.08163 0
M  V30 8391 C 798.142 -2.57346 4.647 0
M  V30 8392 C 797.181 -2.07441 5.75877 0
M  V30 8393 N 796.318 -3.16561 6.26685 0
M  V30 8394 H 801.158 -0.124372 2.9774 0
M  V30 8395 H 798.695 -0.0496333 1.47016 0
M  V30 8396 H 800.653 -2.58666 3.27335 0
M  V30 8397 H 799.283 -2.41177 2.14555 0
M  V30 8398 H 798.335 -0.605099 3.75557 0
M  V30 8399 H 799.647 -1.00928 4.88482 0
M  V30 8400 H 798.801 -3.35903 5.05227 0
M  V30 8401 H 797.54 -3.01227 3.83554 0
M  V30 8402 H 796.545 -1.27347 5.34848 0
M  V30 8403 H 797.77 -1.64554 6.58862 0
M  V30 8404 H 795.716 -3.59914 5.48451 0
M  V30 8405 H 795.633 -2.80239 7.02141 0
M  V30 8406 H 796.901 -3.95238 6.71868 0
M  V30 8407 N 801.13 -1.57531 -0.0467866 0
M  V30 8408 C 802.358 -1.92696 -0.753371 0
M  V30 8409 C 802.773 -0.824792 -1.69831 0
M  V30 8410 O 802.13 0.200155 -1.81399 0
M  V30 8411 C 802.181 -3.27728 -1.52566 0
M  V30 8412 O 801.902 -4.3371 -0.618674 0
M  V30 8413 C 803.403 -3.77066 -2.33101 0
M  V30 8414 H 800.623 -0.636367 -0.212788 0
M  V30 8415 H 803.167 -2.04498 -0.00959361 0
M  V30 8416 H 801.322 -3.17378 -2.22148 0
M  V30 8417 H 801.736 -5.11548 -1.15839 0
M  V30 8418 H 803.21 -4.74109 -2.82709 0
M  V30 8419 H 803.687 -3.07348 -3.13741 0
M  V30 8420 H 804.293 -3.90442 -1.68628 0
M  V30 8421 N 802.608 0.318715 -1.54344 0
M  V30 8422 C 803.555 1.39242 -1.84066 0
M  V30 8423 C 804.525 1.51175 -0.688134 0
M  V30 8424 O 805.71 1.66318 -0.935039 0
M  V30 8425 C 802.85 2.75528 -2.07794 0
M  V30 8426 C 801.963 2.72187 -3.35467 0
M  V30 8427 C 801.098 4.00352 -3.4913 0
M  V30 8428 C 800.137 3.91338 -4.7066 0
M  V30 8429 N 799.274 5.11242 -4.81224 0
M  V30 8430 H 804.114 1.13196 -2.75664 0
M  V30 8431 H 801.651 0.547857 -1.36517 0
M  V30 8432 H 803.609 3.54763 -2.19543 0
M  V30 8433 H 802.239 2.99873 -1.19482 0
M  V30 8434 H 801.291 1.84917 -3.3243 0
M  V30 8435 H 802.603 2.61411 -4.24812 0
M  V30 8436 H 801.757 4.88019 -3.60448 0
M  V30 8437 H 800.496 4.1394 -2.57886 0
M  V30 8438 H 799.501 3.02055 -4.59394 0
M  V30 8439 H 800.726 3.7931 -5.63294 0
M  V30 8440 H 798.672 5.25327 -3.92897 0
M  V30 8441 H 798.589 5.0282 -5.64543 0
M  V30 8442 H 799.857 6.0061 -4.96879 0
M  V30 8443 N 804.086 1.46499 0.581025 0
M  V30 8444 C 805.332 1.52121 1.34116 0
M  V30 8445 C 805.665 0.173031 1.93428 0
M  V30 8446 O 804.94 -0.815729 1.76568 0
M  V30 8447 C 805.223 2.62108 2.46924 0
M  V30 8448 C 805.076 4.06462 1.92636 0
M  V30 8449 C 806.395 2.68167 3.48962 0
M  V30 8450 H 803.514 0.5538 0.486287 0
M  V30 8451 H 806.156 1.78443 0.652538 0
M  V30 8452 H 804.306 2.39794 3.05665 0
M  V30 8453 H 805.978 4.40068 1.3834 0
M  V30 8454 H 804.221 4.15862 1.23455 0
M  V30 8455 H 804.892 4.79152 2.74076 0
M  V30 8456 H 807.368 2.8823 3.00104 0
M  V30 8457 H 806.244 3.46942 4.2535 0
M  V30 8458 H 806.505 1.74284 4.06297 0
M  V30 8459 N 805.565 -0.825799 1.34232 0
M  V30 8460 C 806.793 -1.61363 1.29497 0
M  V30 8461 C 807.208 -1.88341 -0.131536 0
M  V30 8462 O 806.565 -1.47279 -1.07773 0
M  V30 8463 C 806.616 -2.95623 2.08061 0
M  V30 8464 O 806.337 -2.69824 3.45147 0
M  V30 8465 C 807.838 -3.90032 2.10688 0
M  V30 8466 H 805.058 -0.501676 0.445603 0
M  V30 8467 H 807.602 -1.02767 1.76803 0
M  V30 8468 H 805.757 -3.50785 1.64404 0
M  V30 8469 H 806.171 -3.55412 3.85723 0
M  V30 8470 H 807.645 -4.81411 2.70087 0
M  V30 8471 H 808.122 -4.25188 1.10052 0
M  V30 8472 H 808.728 -3.40807 2.54422 0
M  V30 8473 N 807.043 -1.17915 -1.04565 0
M  V30 8474 C 808.271 -0.99616 -1.8134 0
M  V30 8475 C 808.686 0.455509 -1.83223 0
M  V30 8476 O 808.043 1.31636 -1.26405 0
M  V30 8477 C 808.094 -1.53758 -3.27171 0
M  V30 8478 O 807.815 -2.93241 -3.25486 0
M  V30 8479 C 809.316 -1.40007 -4.2061 0
M  V30 8480 H 806.536 -0.352055 -0.571225 0
M  V30 8481 H 809.08 -1.56349 -1.31815 0
M  V30 8482 H 807.235 -1.01213 -3.73945 0
M  V30 8483 H 807.649 -3.18392 -4.16805 0
M  V30 8484 H 809.123 -1.82695 -5.2089 0
M  V30 8485 H 809.6 -0.348054 -4.37819 0
M  V30 8486 H 810.206 -1.916 -3.79697 0
M  V30 8487 N 808.521 1.23394 -0.980386 0
M  V30 8488 C 809.767 1.92094 -0.650223 0
M  V30 8489 C 810.1 1.76309 0.814173 0
M  V30 8490 O 809.375 1.12406 1.5873 0
M  V30 8491 C 809.658 3.44713 -1.04139 0
M  V30 8492 C 809.511 3.69606 -2.56342 0
M  V30 8493 C 810.83 4.36191 -0.585296 0
M  V30 8494 H 807.949 0.697618 -0.237695 0
M  V30 8495 H 810.591 1.45517 -1.22167 0
M  V30 8496 H 808.741 3.84513 -0.55515 0
M  V30 8497 H 810.413 3.39288 -3.1254 0
M  V30 8498 H 808.656 3.14318 -2.98976 0
M  V30 8499 H 809.327 4.76441 -2.78762 0
M  V30 8500 H 811.803 4.03836 -1.00276 0
M  V30 8501 H 810.679 5.41679 -0.887428 0
M  V30 8502 H 810.94 4.39097 0.51438 0
M  V30 8503 N 809.999 0.752036 1.385 0
M  V30 8504 C 811.227 0.318274 2.04437 0
M  V30 8505 C 811.642 -1.05285 1.56718 0
M  V30 8506 O 810.999 -1.66844 0.73956 0
M  V30 8507 C 811.05 0.330106 3.5999 0
M  V30 8508 O 810.771 1.64712 4.05957 0
M  V30 8509 C 812.272 -0.117713 4.43144 0
M  V30 8510 H 809.492 0.136228 0.657026 0
M  V30 8511 H 812.036 1.02045 1.7722 0
M  V30 8512 H 810.191 -0.323323 3.86048 0
M  V30 8513 H 810.605 1.57225 5.0038 0
M  V30 8514 H 812.079 -0.0582735 5.51969 0
M  V30 8515 H 812.556 -1.16538 4.23457 0
M  V30 8516 H 813.162 0.506784 4.2227 0
M  V30 8517 N 811.477 -1.49425 0.500989 0
M  V30 8518 C 812.702 -2.07356 -0.0425154 0
M  V30 8519 C 813.127 -1.35887 -1.30063 0
M  V30 8520 O 812.485 -0.41561 -1.76472 0
M  V30 8521 C 812.533 -3.59518 -0.279188 0
M  V30 8522 O 811.637 -3.89542 -1.3539 0
M  V30 8523 H 810.978 -0.663482 0.0262207 0
M  V30 8524 H 813.508 -1.92231 0.700607 0
M  V30 8525 H 813.518 -4.04791 -0.5107 0
M  V30 8526 H 812.193 -4.10946 0.640009 0
M  V30 8527 H 810.77 -3.56079 -1.10734 0
M  V30 8528 N 812.955 -0.234822 -1.55841 0
M  V30 8529 C 813.918 0.656378 -2.196 0
M  V30 8530 C 814.918 1.11179 -1.16171 0
M  V30 8531 O 816.108 1.01845 -1.41326 0
M  V30 8532 C 813.24 1.90072 -2.82993 0
M  V30 8533 H 814.433 0.100281 -2.99732 0
M  V30 8534 H 811.986 0.0147613 -1.56293 0
M  V30 8535 H 812.721 2.49836 -2.06767 0
M  V30 8536 H 812.506 1.5825 -3.58747 0
M  V30 8537 H 813.996 2.53538 -3.31826 0
M  V30 8538 N 814.433 1.57553 0.0384317 0
M  V30 8539 C 815.365 2.02726 1.06934 0
M  V30 8540 C 816.378 0.938502 1.33026 0
M  V30 8541 O 817.567 1.21595 1.30678 0
M  V30 8542 C 814.667 2.37958 2.41308 0
M  V30 8543 C 813.84 3.69098 2.34703 0
M  V30 8544 C 812.899 3.91623 3.51451 0
M  V30 8545 O 811.925 4.628 3.31368 0
M  V30 8546 N 813.127 3.36538 4.72993 0
M  V30 8547 H 815.892 2.91781 0.684381 0
M  V30 8548 H 813.453 1.60307 0.226542 0
M  V30 8549 H 815.445 2.50172 3.18113 0
M  V30 8550 H 814.015 1.54621 2.71682 0
M  V30 8551 H 813.235 3.67325 1.43059 0
M  V30 8552 H 814.523 4.55144 2.27424 0
M  V30 8553 H 813.921 2.78828 4.92211 0
M  V30 8554 H 812.478 3.54148 5.47195 0
M  V30 8555 N 815.911 -0.310526 1.54511 0
M  V30 8556 C 816.858 -1.38264 1.84802 0
M  V30 8557 C 817.828 -1.50808 0.696141 0
M  V30 8558 O 819.013 -1.6582 0.943846 0
M  V30 8559 C 816.153 -2.74422 2.09252 0
M  V30 8560 C 815.266 -2.70405 3.36906 0
M  V30 8561 C 814.401 -3.98495 3.51248 0
M  V30 8562 C 813.44 -3.88836 4.72729 0
M  V30 8563 N 812.577 -5.08683 4.83928 0
M  V30 8564 H 817.417 -1.11732 2.76261 0
M  V30 8565 H 814.954 -0.540609 1.36806 0
M  V30 8566 H 816.912 -3.53593 2.21422 0
M  V30 8567 H 815.542 -2.99235 1.2107 0
M  V30 8568 H 814.594 -1.83151 3.33406 0
M  V30 8569 H 815.906 -2.59155 4.26193 0
M  V30 8570 H 815.06 -4.861 3.63031 0
M  V30 8571 H 813.799 -4.12567 2.60077 0
M  V30 8572 H 812.804 -2.99615 4.60989 0
M  V30 8573 H 814.029 -3.76318 5.65298 0
M  V30 8574 H 811.975 -5.23236 3.95677 0
M  V30 8575 H 811.892 -4.99819 5.67201 0
M  V30 8576 H 813.16 -5.97966 5.00057 0
M  V30 8577 N 817.389 -1.46805 -0.573248 0
M  V30 8578 C 818.614 -1.56433 -1.36175 0
M  V30 8579 C 819.039 -0.209336 -1.86932 0
M  V30 8580 O 818.397 0.812146 -1.62092 0
M  V30 8581 C 818.445 -2.58055 -2.51873 0
M  V30 8582 O 817.549 -2.12214 -3.53609 0
M  V30 8583 H 816.89 -0.526068 -0.405153 0
M  V30 8584 H 819.42 -1.92456 -0.694405 0
M  V30 8585 H 819.43 -2.77966 -2.98662 0
M  V30 8586 H 818.105 -3.56448 -2.14284 0
M  V30 8587 H 816.682 -2.02333 -3.13234 0
M  V30 8588 N 818.867 0.818669 -1.34668 0
M  V30 8589 C 820.092 1.61193 -1.30505 0
M  V30 8590 C 820.517 1.87734 0.117341 0
M  V30 8591 O 819.875 1.45591 1.08042 0
M  V30 8592 C 819.923 2.92733 -2.1057 0
M  V30 8593 O 819.027 3.85 -1.47813 0
M  V30 8594 H 818.368 0.490085 -0.44801 0
M  V30 8595 H 820.898 1.01701 -1.77534 0
M  V30 8596 H 820.908 3.42262 -2.22082 0
M  V30 8597 H 819.583 2.7274 -3.13984 0
M  V30 8598 H 818.16 3.43525 -1.45069 0
M  V30 8599 N 820.346 1.18468 1.03938 0
M  V30 8600 C 821.278 0.870615 2.12021 0
M  V30 8601 C 822.291 -0.132318 1.62261 0
M  V30 8602 O 823.48 0.0956901 1.78243 0
M  V30 8603 C 820.58 0.279727 3.37744 0
M  V30 8604 C 819.753 1.32863 4.16733 0
M  V30 8605 C 818.812 0.753204 5.20781 0
M  V30 8606 O 817.838 1.42825 5.5099 0
M  V30 8607 N 819.04 -0.448664 5.78764 0
M  V30 8608 H 821.805 1.80091 2.39556 0
M  V30 8609 H 819.366 1.08524 1.20142 0
M  V30 8610 H 821.358 -0.118829 4.04526 0
M  V30 8611 H 819.928 -0.554621 3.07641 0
M  V30 8612 H 819.148 1.90245 3.45254 0
M  V30 8613 H 820.436 2.03574 4.66299 0
M  V30 8614 H 819.834 -1.01481 5.56523 0
M  V30 8615 H 818.391 -0.789125 6.47005 0
M  V30 8616 N 821.824 -1.22873 0.986916 0
M  V30 8617 C 823.073 -1.90772 0.654911 0
M  V30 8618 C 823.386 -1.77768 -0.81595 0
M  V30 8619 O 824.592 -2.40529 -1.25929 0
M  V30 8620 C 823.048 -3.42003 1.12081 0
M  V30 8621 C 822.656 -3.63655 2.61647 0
M  V30 8622 C 824.4 -4.15638 0.862854 0
M  V30 8623 C 822.307 -5.08555 3.01871 0
M  V30 8624 H 821.237 -0.714362 0.241252 0
M  V30 8625 H 823.888 -1.39196 1.19568 0
M  V30 8626 H 822.27 -3.92725 0.508207 0
M  V30 8627 H 823.444 -3.2345 3.28202 0
M  V30 8628 H 821.759 -3.03341 2.8526 0
M  V30 8629 H 824.356 -5.22425 1.13915 0
M  V30 8630 H 824.699 -4.15814 -0.201036 0
M  V30 8631 H 825.232 -3.70924 1.43736 0
M  V30 8632 H 821.971 -5.13514 4.07411 0
M  V30 8633 H 821.491 -5.49684 2.40015 0
M  V30 8634 H 823.17 -5.76936 2.92839 0
M  V30 8635 N 823.302 -0.75937 -1.38099 0
M  V30 8636 C 824.55 -0.317485 -1.99591 0
M  V30 8637 C 824.871 1.10628 -1.60581 0
M  V30 8638 O 824.141 1.7575 -0.865378 0
M  V30 8639 H 822.721 -0.114397 -0.738189 0
M  V30 8640 H 825.383 -0.974749 -1.68774 0
M  V30 8641 H 824.479 -0.385227 -3.09713 0
M  V30 8642 N 824.78 1.49157 -0.508906 0
M  V30 8643 C 826.005 2.07376 0.0315182 0
M  V30 8644 C 826.43 1.36575 1.2934 0
M  V30 8645 O 825.788 0.424963 1.76249 0
M  V30 8646 C 825.836 3.59661 0.260118 0
M  V30 8647 O 824.94 3.90255 1.33322 0
M  V30 8648 H 824.281 0.663334 -0.029739 0
M  V30 8649 H 826.811 1.91857 -0.710791 0
M  V30 8650 H 826.821 4.05056 0.489225 0
M  V30 8651 H 825.496 4.10601 -0.661794 0
M  V30 8652 H 824.073 3.56661 1.08844 0
M  V30 8653 N 826.258 0.243083 1.55714 0
M  V30 8654 C 827.483 -0.389944 2.03701 0
M  V30 8655 C 827.908 -1.51025 1.12129 0
M  V30 8656 O 827.266 -1.80944 0.11352 0
M  V30 8657 C 827.314 -0.878649 3.49731 0
M  V30 8658 O 826.418 -1.98851 3.61292 0
M  V30 8659 H 825.759 -0.0855115 0.658471 0
M  V30 8660 H 828.289 0.368023 2.01263 0
M  V30 8661 H 828.299 -1.18287 3.90477 0
M  V30 8662 H 826.974 -0.0588107 4.15858 0
M  V30 8663 H 825.551 -1.68928 3.32442 0
M  V30 8664 N 827.736 -1.57571 -0.0300757 0
M  V30 8665 C 828.668 -2.0329 -1.05857 0
M  V30 8666 C 829.681 -0.945543 -1.32527 0
M  V30 8667 O 830.87 -1.22287 -1.30032 0
M  V30 8668 C 827.97 -2.39234 -2.40042 0
M  V30 8669 C 827.143 -3.70337 -2.32743 0
M  V30 8670 C 826.202 -3.93482 -3.49369 0
M  V30 8671 O 825.228 -4.64551 -3.28909 0
M  V30 8672 N 826.43 -3.39042 -4.71201 0
M  V30 8673 H 829.195 -2.9214 -0.668897 0
M  V30 8674 H 826.756 -1.60425 -0.218038 0
M  V30 8675 H 828.748 -2.51856 -3.16782 0
M  V30 8676 H 827.318 -1.5606 -2.70858 0
M  V30 8677 H 826.538 -3.68079 -1.41109 0
M  V30 8678 H 827.826 -4.56343 -2.25007 0
M  V30 8679 H 827.224 -2.81434 -4.90725 0
M  V30 8680 H 825.781 -3.57045 -5.45309 0
M  V30 8681 N 829.214 0.302327 -1.54673 0
M  V30 8682 C 830.144 1.37759 -1.88533 0
M  V30 8683 C 831.125 1.52961 -0.744113 0
M  V30 8684 O 832.31 1.6649 -0.999731 0
M  V30 8685 C 829.44 2.74201 -2.13146 0
M  V30 8686 C 828.394 2.73765 -3.28993 0
M  V30 8687 C 827.72 4.13483 -3.39022 0
M  V30 8688 C 829.02 2.35624 -4.66132 0
M  V30 8689 H 830.714 1.0967 -2.78591 0
M  V30 8690 H 828.26 0.52613 -1.34044 0
M  V30 8691 H 830.213 3.49508 -2.35419 0
M  V30 8692 H 828.937 3.03812 -1.19858 0
M  V30 8693 H 827.596 2.00914 -3.06642 0
M  V30 8694 H 827.244 4.40269 -2.43253 0
M  V30 8695 H 826.944 4.14093 -4.16894 0
M  V30 8696 H 828.468 4.90572 -3.63553 0
M  V30 8697 H 829.882 3.00647 -4.88143 0
M  V30 8698 H 828.279 2.47449 -5.46707 0
M  V30 8699 H 829.349 1.30753 -4.66939 0
M  V30 8700 N 830.692 1.47107 0.565454 0
M  V30 8701 C 831.622 1.61846 1.68309 0
M  V30 8702 C 832.603 0.468159 1.63531 0
M  V30 8703 O 833.788 0.696504 1.8128 0
M  V30 8704 C 830.918 1.62474 3.06952 0
M  V30 8705 C 829.872 2.76649 3.26572 0
M  V30 8706 C 829.198 2.62345 4.65917 0
M  V30 8707 C 830.498 4.18319 3.12741 0
M  V30 8708 H 832.192 2.55407 1.5623 0
M  V30 8709 H 829.738 1.22916 0.750179 0
M  V30 8710 H 831.691 1.71378 3.84977 0
M  V30 8711 H 830.415 0.654692 3.19971 0
M  V30 8712 H 829.074 2.67242 2.50952 0
M  V30 8713 H 828.722 1.63386 4.75725 0
M  V30 8714 H 828.422 3.38936 4.79996 0
M  V30 8715 H 829.946 2.73165 5.46089 0
M  V30 8716 H 831.36 4.28745 3.80593 0
M  V30 8717 H 829.757 4.95632 3.38333 0
M  V30 8718 H 830.827 4.37263 2.09592 0
M  V30 8719 N 832.17 -0.811516 1.35101 0
M  V30 8720 C 833.117 -1.92308 1.27617 0
M  V30 8721 C 834.087 -1.6543 0.149091 0
M  V30 8722 O 835.272 -1.8789 0.331974 0
M  V30 8723 C 832.412 -3.28768 1.04908 0
M  V30 8724 C 831.525 -3.67865 2.26493 0
M  V30 8725 C 830.66 -4.9333 1.96974 0
M  V30 8726 C 829.699 -5.25041 3.1464 0
M  V30 8727 N 828.836 -6.41685 2.84929 0
M  V30 8728 H 833.676 -1.98041 2.22674 0
M  V30 8729 H 831.213 -0.968755 1.10696 0
M  V30 8730 H 833.171 -4.07426 0.897749 0
M  V30 8731 H 831.801 -3.22517 0.135151 0
M  V30 8732 H 830.853 -2.84507 2.52507 0
M  V30 8733 H 832.165 -3.87263 3.14371 0
M  V30 8734 H 831.319 -5.79803 1.78643 0
M  V30 8735 H 830.058 -4.75958 1.06374 0
M  V30 8736 H 829.063 -4.3706 3.33554 0
M  V30 8737 H 830.288 -5.44346 4.06035 0
M  V30 8738 H 828.234 -6.25747 1.96918 0
M  V30 8739 H 828.151 -6.6131 3.66341 0
M  V30 8740 H 829.419 -7.31198 2.70128 0
M  V30 8741 N 833.648 -1.19017 -1.03309 0
M  V30 8742 C 835.064 -0.941483 -1.28873 0
M  V30 8743 C 835.264 0.388587 -1.97718 0
M  V30 8744 O 834.32 1.12111 -2.26246 0
M  V30 8745 C 835.633 -2.11249 -2.13996 0
M  V30 8746 C 837.181 -2.15164 -2.27318 0
M  V30 8747 C 837.656 -3.31704 -3.15811 0
M  V30 8748 N 839.147 -3.31613 -3.23399 0
M  V30 8749 C 839.882 -4.18431 -3.9205 0
M  V30 8750 N 839.378 -5.15397 -4.62966 0
M  V30 8751 N 841.171 -4.06321 -3.88406 0
M  V30 8752 H 833.322 -2.04599 -0.570343 0
M  V30 8753 H 835.585 -0.894406 -0.314232 0
M  V30 8754 H 835.291 -3.07482 -1.70727 0
M  V30 8755 H 835.165 -2.07955 -3.14697 0
M  V30 8756 H 837.552 -1.19504 -2.6982 0
M  V30 8757 H 837.633 -2.22513 -1.26182 0
M  V30 8758 H 837.277 -4.2764 -2.74019 0
M  V30 8759 H 837.207 -3.21592 -4.16997 0
M  V30 8760 H 839.698 -2.6142 -2.72888 0
M  V30 8761 H 840.011 -5.78 -5.12968 0
M  V30 8762 H 838.356 -5.19349 -4.61846 0
M  V30 8763 H 841.547 -3.29849 -3.3214 0
M  V30 8764 H 841.72 -4.74196 -4.41635 0
M  V30 8765 N 835.127 1.22348 -0.993418 0
M  V30 8766 C 836.077 2.221 -0.515333 0
M  V30 8767 C 837.061 1.55409 0.416762 0
M  V30 8768 O 838.253 1.75317 0.243497 0
M  V30 8769 C 835.382 3.42888 0.168173 0
M  V30 8770 C 834.468 4.16786 -0.784257 0
M  V30 8771 N 834.859 4.67435 -1.93231 0
M  V30 8772 C 833.157 4.41942 -0.600243 0
M  V30 8773 C 833.858 5.23792 -2.53016 0
M  V30 8774 N 832.834 5.12483 -1.8128 0
M  V30 8775 H 836.636 2.58902 -1.39093 0
M  V30 8776 H 834.15 1.38024 -0.855747 0
M  V30 8777 H 836.147 4.13542 0.528069 0
M  V30 8778 H 834.807 3.07598 1.03989 0
M  V30 8779 H 835.818 4.63375 -2.31309 0
M  V30 8780 H 832.495 4.16891 0.225369 0
M  V30 8781 H 833.885 5.73515 -3.50043 0
M  V30 8782 N 836.605 0.766683 1.37694 0
M  V30 8783 C 837.851 0.329201 2.0011 0
M  V30 8784 C 838.184 -1.09004 1.60723 0
M  V30 8785 O 837.459 -1.74895 0.850989 0
M  V30 8786 C 837.742 0.466989 3.57059 0
M  V30 8787 C 837.595 1.92828 4.06371 0
M  V30 8788 C 838.914 -0.131792 4.39903 0
M  V30 8789 H 836.033 0.12109 0.726984 0
M  V30 8790 H 838.675 0.968779 1.63446 0
M  V30 8791 H 836.825 -0.0775023 3.88423 0
M  V30 8792 H 838.497 2.53208 3.85595 0
M  V30 8793 H 836.74 2.43884 3.58752 0
M  V30 8794 H 837.411 1.97577 5.15429 0
M  V30 8795 H 839.887 0.332731 4.14768 0
M  V30 8796 H 838.763 -0.005217 5.489 0
M  V30 8797 H 839.024 -1.22156 4.24889 0
M  V30 8798 N 838.083 -1.48885 0.516809 0
M  V30 8799 C 839.015 -2.27357 -0.290061 0
M  V30 8800 C 840.028 -1.34558 -0.916406 0
M  V30 8801 O 841.217 -1.59715 -0.797073 0
M  V30 8802 C 838.317 -3.07496 -1.42476 0
M  V30 8803 C 837.49 -4.27982 -0.902793 0
M  V30 8804 C 836.549 -4.90038 -1.91701 0
M  V30 8805 O 835.575 -5.49643 -1.47922 0
M  V30 8806 N 836.777 -4.811 -3.24843 0
M  V30 8807 H 839.542 -2.97244 0.382884 0
M  V30 8808 H 837.103 -1.58064 0.35032 0
M  V30 8809 H 839.095 -3.45882 -2.10113 0
M  V30 8810 H 837.665 -2.40115 -2.00159 0
M  V30 8811 H 836.885 -3.94167 -0.0508272 0
M  V30 8812 H 838.173 -5.06003 -0.532723 0
M  V30 8813 H 837.571 -4.33801 -3.63088 0
M  V30 8814 H 836.128 -5.23625 -3.8815 0
M  V30 8815 N 839.561 -0.251338 -1.55583 0
M  V30 8816 C 840.977 0.103409 -1.59265 0
M  V30 8817 C 841.177 1.56559 -1.26852 0
M  V30 8818 O 840.233 2.31071 -1.01796 0
M  V30 8819 C 841.546 -0.249781 -2.99661 0
M  V30 8820 C 843.094 -0.194442 -3.12395 0
M  V30 8821 C 843.569 -0.521728 -4.55019 0
M  V30 8822 N 845.06 -0.472393 -4.60785 0
M  V30 8823 C 845.795 -0.698737 -5.69127 0
M  V30 8824 N 845.291 -0.988443 -6.85713 0
M  V30 8825 N 847.084 -0.629143 -5.58568 0
M  V30 8826 H 839.235 -1.20484 -1.74921 0
M  V30 8827 H 841.498 -0.485092 -0.814488 0
M  V30 8828 H 841.204 -1.26577 -3.28133 0
M  V30 8829 H 841.078 0.420973 -3.74844 0
M  V30 8830 H 843.465 0.812229 -2.83702 0
M  V30 8831 H 843.546 -0.899111 -2.39478 0
M  V30 8832 H 843.19 -1.52597 -4.84434 0
M  V30 8833 H 843.12 0.204468 -5.26203 0
M  V30 8834 H 845.611 -0.257386 -3.77022 0
M  V30 8835 H 845.924 -1.14846 -7.64219 0
M  V30 8836 H 844.269 -1.02596 -6.87386 0
M  V30 8837 H 847.46 -0.402826 -4.66364 0
M  V30 8838 H 847.633 -0.808935 -6.42931 0
M  V30 8839 N 841.039 1.57585 0.0217189 0
M  V30 8840 C 842.267 1.93871 0.722619 0
M  V30 8841 C 842.682 0.851706 1.68498 0
M  V30 8842 O 842.039 -0.17127 1.81695 0
M  V30 8843 C 842.09 3.30114 1.47333 0
M  V30 8844 O 841.811 4.34639 0.549597 0
M  V30 8845 C 843.312 3.80727 2.27072 0
M  V30 8846 H 840.532 0.639671 0.202637 0
M  V30 8847 H 843.076 2.04487 -0.0229414 0
M  V30 8848 H 841.231 3.20872 2.17071 0
M  V30 8849 H 841.645 5.13326 1.07686 0
M  V30 8850 H 843.119 4.78547 2.75131 0
M  V30 8851 H 843.596 3.12301 3.08812 0
M  V30 8852 H 844.202 3.93075 1.62395 0
M  V30 8853 N 842.517 -0.29412 1.54831 0
M  V30 8854 C 843.427 -1.3854 1.89325 0
M  V30 8855 C 844.443 -1.55127 0.788133 0
M  V30 8856 O 845.619 -1.6966 1.08524 0
M  V30 8857 C 842.684 -2.72809 2.13954 0
M  V30 8858 C 841.745 -2.65148 3.37631 0
M  V30 8859 C 840.978 -3.93014 3.61076 0
M  V30 8860 O 841.201 -4.927 2.87406 0
M  V30 8861 O 840.135 -3.94491 4.54599 0
M  V30 8862 H 843.961 -1.12289 2.82179 0
M  V30 8863 H 841.546 -0.490793 1.41108 0
M  V30 8864 H 843.428 -3.52238 2.31315 0
M  V30 8865 H 842.103 -2.9889 1.24285 0
M  V30 8866 H 841.01 -1.84168 3.25627 0
M  V30 8867 H 842.343 -2.4402 4.27452 0
M  V30 8868 N 843.995 -1.47404 -0.557645 0
M  V30 8869 C 844.958 -1.59411 -1.64684 0
M  V30 8870 C 845.958 -0.469244 -1.53801 0
M  V30 8871 O 847.148 -0.734298 -1.57967 0
M  V30 8872 C 844.28 -1.5382 -3.04224 0
M  V30 8873 H 845.473 -2.56504 -1.55389 0
M  V30 8874 H 843.026 -1.35588 -0.777531 0
M  V30 8875 H 843.761 -0.581 -3.19053 0
M  V30 8876 H 843.546 -2.35456 -3.13533 0
M  V30 8877 H 845.036 -1.65358 -3.83466 0
M  V30 8878 N 845.473 0.80434 -1.35529 0
M  V30 8879 C 846.719 1.56385 -1.29118 0
M  V30 8880 C 847.052 1.9374 0.133536 0
M  V30 8881 O 846.327 1.6153 1.08344 0
M  V30 8882 C 846.61 2.85097 -2.19981 0
M  V30 8883 C 846.463 2.54204 -3.7108 0
M  V30 8884 C 847.782 3.86817 -2.09907 0
M  V30 8885 H 844.901 0.567382 -0.470368 0
M  V30 8886 H 847.543 0.925235 -1.6595 0
M  V30 8887 H 845.693 3.39594 -1.88701 0
M  V30 8888 H 847.365 2.05872 -4.12813 0
M  V30 8889 H 845.608 1.87364 -3.91251 0
M  V30 8890 H 846.279 3.46068 -4.30048 0
M  V30 8891 H 848.755 3.41725 -2.37409 0
M  V30 8892 H 847.631 4.7465 -2.75678 0
M  V30 8893 H 847.892 4.28663 -1.08171 0
M  V30 8894 N 846.951 1.19563 1.02676 0
M  V30 8895 C 847.881 0.959024 2.12897 0
M  V30 8896 C 848.862 -0.108382 1.69754 0
M  V30 8897 O 850.047 0.0470698 1.94143 0
M  V30 8898 C 847.177 0.499211 3.43693 0
M  V30 8899 C 846.131 1.5087 4.00528 0
M  V30 8900 C 845.457 0.905884 5.2697 0
M  V30 8901 C 846.757 2.88954 4.3509 0
M  V30 8902 H 848.451 1.88084 2.32948 0
M  V30 8903 H 845.997 0.905731 1.11949 0
M  V30 8904 H 847.95 0.320965 4.20176 0
M  V30 8905 H 846.674 -0.458205 3.2337 0
M  V30 8906 H 845.333 1.67413 3.26142 0
M  V30 8907 H 844.981 -0.0591506 5.02965 0
M  V30 8908 H 844.681 1.58 5.65959 0
M  V30 8909 H 846.205 0.73848 6.06118 0
M  V30 8910 H 847.619 2.75981 5.02501 0
M  V30 8911 H 846.016 3.53177 4.85166 0
M  V30 8912 H 847.086 3.41447 3.44299 0
M  V30 8913 N 848.429 -1.21819 0.999893 0
M  V30 8914 C 849.657 -1.94758 0.698359 0
M  V30 8915 C 850.072 -1.73771 -0.738183 0
M  V30 8916 O 849.429 -1.04113 -1.49889 0
M  V30 8917 C 849.48 -3.47292 1.00353 0
M  V30 8918 O 849.201 -3.67579 2.38363 0
M  V30 8919 C 850.702 -4.37403 0.72068 0
M  V30 8920 H 847.922 -0.619512 0.257771 0
M  V30 8921 H 850.466 -1.54778 1.33656 0
M  V30 8922 H 848.621 -3.85213 0.411018 0
M  V30 8923 H 849.035 -4.61719 2.48829 0
M  V30 8924 H 850.509 -5.43151 0.984422 0
M  V30 8925 H 850.986 -4.3784 -0.345309 0
M  V30 8926 H 851.592 -4.05119 1.29456 0
M  V30 8927 N 849.908 -0.773975 -1.37286 0
M  V30 8928 C 850.858 -0.135245 -2.27599 0
M  V30 8929 C 851.842 0.671691 -1.46209 0
M  V30 8930 O 853.034 0.534299 -1.68743 0
M  V30 8931 C 850.163 0.741298 -3.35201 0
M  V30 8932 C 849.249 -0.0735896 -4.24036 0
M  V30 8933 N 849.64 -1.12035 -4.93236 0
M  V30 8934 C 847.938 0.150038 -4.45748 0
M  V30 8935 C 848.639 -1.61512 -5.58828 0
M  V30 8936 N 847.615 -0.926922 -5.35639 0
M  V30 8937 H 851.417 -0.936646 -2.78575 0
M  V30 8938 H 848.931 -0.611944 -1.50429 0
M  V30 8939 H 850.928 1.21468 -3.98812 0
M  V30 8940 H 849.588 1.54142 -2.8578 0
M  V30 8941 H 850.599 -1.50253 -4.95625 0
M  V30 8942 H 847.276 0.921891 -4.07195 0
M  V30 8943 H 848.666 -2.48818 -6.24131 0
M  V30 8944 N 851.386 1.48609 -0.524698 0
M  V30 8945 C 852.333 2.29539 0.240956 0
M  V30 8946 C 853.303 1.37033 0.938681 0
M  V30 8947 O 854.488 1.65996 0.940737 0
M  V30 8948 C 851.628 3.20278 1.28514 0
M  V30 8949 C 850.741 4.27858 0.596798 0
M  V30 8950 C 849.876 5.05784 1.62346 0
M  V30 8951 C 848.915 6.05173 0.918287 0
M  V30 8952 N 848.052 6.76176 1.89025 0
M  V30 8953 H 852.892 2.945 -0.455368 0
M  V30 8954 H 850.429 1.45188 -0.236403 0
M  V30 8955 H 852.387 3.71281 1.90279 0
M  V30 8956 H 851.017 2.57251 1.94992 0
M  V30 8957 H 850.069 3.80162 -0.134668 0
M  V30 8958 H 851.381 4.98782 0.0428506 0
M  V30 8959 H 850.535 5.60775 2.31553 0
M  V30 8960 H 849.274 4.34687 2.2113 0
M  V30 8961 H 848.279 5.49391 0.21212 0
M  V30 8962 H 849.504 6.78265 0.336633 0
M  V30 8963 H 847.45 6.07834 2.46726 0
M  V30 8964 H 847.367 7.43157 1.3876 0
M  V30 8965 H 848.635 7.35759 2.57446 0
M  V30 8966 N 852.864 0.259585 1.55447 0
M  V30 8967 C 853.796 -0.667548 2.19263 0
M  V30 8968 C 854.809 -1.12925 1.17268 0
M  V30 8969 O 855.998 -1.05384 1.44071 0
M  V30 8970 C 853.098 -1.92066 2.7922 0
M  V30 8971 C 852.271 -1.60832 4.06758 0
M  V30 8972 C 851.33 -2.71231 4.50911 0
M  V30 8973 O 850.356 -2.38077 5.17019 0
M  V30 8974 N 851.558 -4.00984 4.19752 0
M  V30 8975 H 854.323 -0.121449 2.99454 0
M  V30 8976 H 851.884 0.0800519 1.61702 0
M  V30 8977 H 853.876 -2.65186 3.0571 0
M  V30 8978 H 852.446 -2.37621 2.03113 0
M  V30 8979 H 851.666 -0.711685 3.87722 0
M  V30 8980 H 852.954 -1.37445 4.89884 0
M  V30 8981 H 852.352 -4.30748 3.66706 0
M  V30 8982 H 850.909 -4.7053 4.51048 0
M  V30 8983 N 854.342 -1.57594 -0.0133615 0
M  V30 8984 C 855.305 -2.06534 -0.993799 0
M  V30 8985 C 856.305 -0.972267 -1.28077 0
M  V30 8986 O 857.495 -1.23537 -1.22818 0
M  V30 8987 C 854.627 -2.49554 -2.3224 0
M  V30 8988 H 855.82 -2.94419 -0.570741 0
M  V30 8989 H 853.373 -1.54113 -0.260546 0
M  V30 8990 H 854.108 -1.64872 -2.79263 0
M  V30 8991 H 853.893 -3.29371 -2.12737 0
M  V30 8992 H 855.383 -2.8779 -3.026 0
M  V30 8993 N 855.82 0.285905 -1.54985 0
M  V30 8994 C 856.752 1.37505 -1.83371 0
M  V30 8995 C 857.765 1.46138 -0.717454 0
M  V30 8996 O 858.954 1.48186 -0.995142 0
M  V30 8997 C 856.054 2.7575 -1.97016 0
M  V30 8998 C 855.227 2.89866 -3.27561 0
M  V30 8999 C 854.286 4.08704 -3.31433 0
M  V30 9000 O 853.312 4.00073 -4.04883 0
M  V30 9001 N 854.514 5.20062 -2.57907 0
M  V30 9002 H 857.279 1.13505 -2.77375 0
M  V30 9003 H 854.84 0.476006 -1.54744 0
M  V30 9004 H 856.832 3.5352 -1.96991 0
M  V30 9005 H 855.402 2.9263 -1.09938 0
M  V30 9006 H 854.622 1.99085 -3.40234 0
M  V30 9007 H 855.91 2.96219 -4.13681 0
M  V30 9008 H 855.308 5.29958 -1.97891 0
M  V30 9009 H 853.865 5.96111 -2.63619 0
M  V30 9010 N 857.298 1.47698 0.54982 0
M  V30 9011 C 858.261 1.60282 1.63837 0
M  V30 9012 C 859.261 0.477394 1.5355 0
M  V30 9013 O 860.451 0.742665 1.57576 0
M  V30 9014 C 857.583 1.55431 3.03404 0
M  V30 9015 H 858.776 2.57325 1.54026 0
M  V30 9016 H 856.329 1.35999 0.770329 0
M  V30 9017 H 857.064 0.597912 3.1874 0
M  V30 9018 H 856.849 2.37116 3.12279 0
M  V30 9019 H 858.339 1.6739 3.82584 0
M  V30 9020 N 858.776 -0.797141 1.35954 0
M  V30 9021 C 859.708 -1.91782 1.25509 0
M  V30 9022 C 860.721 -1.61843 0.176271 0
M  V30 9023 O 861.91 -1.73235 0.430343 0
M  V30 9024 C 859.01 -3.26396 0.912073 0
M  V30 9025 C 858.183 -3.84171 2.0912 0
M  V30 9026 C 857.242 -4.9721 1.72246 0
M  V30 9027 O 856.268 -5.14136 2.44239 0
M  V30 9028 N 857.47 -5.76831 0.651611 0
M  V30 9029 H 860.235 -2.01266 2.22063 0
M  V30 9030 H 857.796 -0.975033 1.29247 0
M  V30 9031 H 859.788 -3.99499 0.646707 0
M  V30 9032 H 858.358 -3.12579 0.0359079 0
M  V30 9033 H 857.578 -3.03148 2.51982 0
M  V30 9034 H 858.866 -4.19503 2.87914 0
M  V30 9035 H 858.264 -5.65675 0.0536678 0
M  V30 9036 H 856.821 -6.50272 0.44605 0
M  V30 9037 N 860.254 -1.20106 -1.0204 0
M  V30 9038 C 861.501 -1.00889 -1.75578 0
M  V30 9039 C 861.829 0.459415 -1.88996 0
M  V30 9040 O 861.084 1.35735 -1.40977 0
M  V30 9041 C 861.383 -1.63308 -3.17908 0
M  V30 9042 C 861.049 -3.13091 -3.24476 0
M  V30 9043 C 859.711 -3.53968 -3.25976 0
M  V30 9044 C 862.063 -4.09093 -3.22944 0
M  V30 9045 C 859.391 -4.89381 -3.2361 0
M  V30 9046 C 861.743 -5.44447 -3.22119 0
M  V30 9047 C 860.407 -5.84742 -3.2192 0
M  V30 9048 H 859.677 -0.36918 -0.642485 0
M  V30 9049 H 862.324 -1.49475 -1.19706 0
M  V30 9050 H 860.629 -1.06974 -3.76914 0
M  V30 9051 H 862.326 -1.45958 -3.73493 0
M  V30 9052 H 858.916 -2.80526 -3.24042 0
M  V30 9053 H 863.1 -3.78549 -3.20958 0
M  V30 9054 H 858.356 -5.1987 -3.21785 0
M  V30 9055 H 862.53 -6.18584 -3.19885 0
M  V30 9056 H 860.157 -6.89642 -3.19841 0
M  V30 9057 N 861.732 1.21287 -1.00634 0
M  V30 9058 C 862.695 2.21927 -0.572821 0
M  V30 9059 C 863.695 1.5691 0.351541 0
M  V30 9060 O 864.885 1.73623 0.141643 0
M  V30 9061 C 862.017 3.40501 0.164932 0
M  V30 9062 H 863.21 2.61795 -1.463 0
M  V30 9063 H 860.763 1.34571 -0.794998 0
M  V30 9064 H 861.498 3.06123 1.07049 0
M  V30 9065 H 861.283 3.88912 -0.498962 0
M  V30 9066 H 862.773 4.15103 0.455945 0
M  V30 9067 N 863.21 0.781244 1.36873 0
M  V30 9068 C 864.173 0.180094 2.28491 0
M  V30 9069 C 865.173 -0.617798 1.48458 0
M  V30 9070 O 866.363 -0.439991 1.68552 0
M  V30 9071 C 863.495 -0.751741 3.32508 0
M  V30 9072 H 864.688 0.987837 2.83164 0
M  V30 9073 H 862.241 0.550102 1.463 0
M  V30 9074 H 862.976 -1.58413 2.82977 0
M  V30 9075 H 862.761 -0.181649 3.91679 0
M  V30 9076 H 864.251 -1.16748 4.00949 0
M  V30 9077 N 864.689 -1.48329 0.532571 0
M  V30 9078 C 865.936 -2.025 -0.000582356 0
M  V30 9079 C 866.264 -1.40942 -1.34036 0
M  V30 9080 O 865.519 -0.545545 -1.87942 0
M  V30 9081 C 865.818 -3.57 -0.168943 0
M  V30 9082 C 865.484 -4.37357 1.0968 0
M  V30 9083 C 864.146 -4.59033 1.44369 0
M  V30 9084 C 866.498 -4.83882 1.93669 0
M  V30 9085 C 863.826 -5.24481 2.62939 0
M  V30 9086 C 866.178 -5.50637 3.11419 0
M  V30 9087 C 864.842 -5.70551 3.46451 0
M  V30 9088 H 864.112 -0.741 -0.000213099 0
M  V30 9089 H 866.759 -1.78282 0.699117 0
M  V30 9090 H 865.064 -3.80072 -0.951429 0
M  V30 9091 H 866.761 -3.9654 -0.596422 0
M  V30 9092 H 863.351 -4.20748 0.816655 0
M  V30 9093 H 867.535 -4.66936 1.6818 0
M  V30 9094 H 862.791 -5.38096 2.9028 0
M  V30 9095 H 866.965 -5.85655 3.76803 0
M  V30 9096 H 864.592 -6.21037 4.38425 0
M  V30 9097 N 866.167 -0.267825 -1.55308 0
M  V30 9098 C 867.097 0.616585 -2.25212 0
M  V30 9099 C 868.078 1.16472 -1.23969 0
M  V30 9100 O 869.263 1.20021 -1.52672 0
M  V30 9101 C 866.393 1.80412 -2.96764 0
M  V30 9102 C 865.347 1.38784 -4.04874 0
M  V30 9103 C 864.673 2.65789 -4.63961 0
M  V30 9104 C 865.973 0.543415 -5.19465 0
M  V30 9105 H 867.667 0.0336257 -2.99381 0
M  V30 9106 H 865.213 0.0147328 -1.43992 0
M  V30 9107 H 867.166 2.42866 -3.44375 0
M  V30 9108 H 865.89 2.4128 -2.20118 0
M  V30 9109 H 864.549 0.786541 -3.58063 0
M  V30 9110 H 864.197 3.24899 -3.83992 0
M  V30 9111 H 863.897 2.38651 -5.36954 0
M  V30 9112 H 865.421 3.29104 -5.14318 0
M  V30 9113 H 866.835 1.07277 -5.63174 0
M  V30 9114 H 865.232 0.367219 -5.98975 0
M  V30 9115 H 866.302 -0.439534 -4.82904 0
M  V30 9116 N 867.645 1.57599 0.00500368 0
M  V30 9117 C 868.592 2.08106 0.998025 0
M  V30 9118 C 869.562 0.975374 1.34446 0
M  V30 9119 O 870.747 1.24749 1.44369 0
M  V30 9120 C 867.887 2.58496 2.28635 0
M  V30 9121 C 867 3.82947 1.99939 0
M  V30 9122 C 866.135 4.21857 3.22816 0
M  V30 9123 C 865.174 5.39159 2.89783 0
M  V30 9124 N 864.311 5.73386 4.05183 0
M  V30 9125 H 869.151 2.92684 0.560385 0
M  V30 9126 H 866.688 1.44692 0.265053 0
M  V30 9127 H 868.646 2.85787 3.03943 0
M  V30 9128 H 867.276 1.768 2.70077 0
M  V30 9129 H 866.328 3.62594 1.1502 0
M  V30 9130 H 867.64 4.68358 1.71588 0
M  V30 9131 H 866.794 4.50404 4.06474 0
M  V30 9132 H 865.533 3.35145 3.54301 0
M  V30 9133 H 864.538 5.1034 2.04532 0
M  V30 9134 H 865.763 6.27543 2.59551 0
M  V30 9135 H 863.709 4.89632 4.36574 0
M  V30 9136 H 863.626 6.53359 3.80339 0
M  V30 9137 H 864.894 6.06522 4.89644 0
M  V30 9138 N 869.123 -0.277682 1.55134 0
M  V30 9139 C 870.055 -1.36531 1.84098 0
M  V30 9140 C 871.068 -1.45756 0.725194 0
M  V30 9141 O 872.257 -1.47656 1.00299 0
M  V30 9142 C 869.357 -2.74701 1.98476 0
M  V30 9143 C 868.53 -2.88125 3.29094 0
M  V30 9144 C 867.589 -4.0694 3.33596 0
M  V30 9145 O 866.615 -3.9792 4.06999 0
M  V30 9146 N 867.817 -5.18687 2.60661 0
M  V30 9147 H 870.582 -1.12032 2.77973 0
M  V30 9148 H 868.143 -0.467793 1.54995 0
M  V30 9149 H 870.135 -3.52471 1.98863 0
M  V30 9150 H 868.705 -2.92043 1.11488 0
M  V30 9151 H 867.925 -1.97277 3.41285 0
M  V30 9152 H 869.213 -2.94021 4.15246 0
M  V30 9153 H 868.611 -5.28901 2.00699 0
M  V30 9154 H 867.168 -5.94705 2.66776 0
M  V30 9155 N 870.601 -1.47988 -0.541979 0
M  V30 9156 C 871.549 -1.62044 -1.66867 0
M  V30 9157 C 872.543 -0.487217 -1.62242 0
M  V30 9158 O 873.749 -0.66554 -1.67244 0
M  V30 9159 H 870.124 -0.51024 -0.552412 0
M  V30 9160 H 872.095 -2.56695 -1.52153 0
M  V30 9161 C 870.844 -1.66615 -3.0518 0
M  V30 9162 H 870.167 -2.5317 -3.09427 0
M  V30 9163 H 871.607 -1.80496 -3.83663 0
M  V30 9164 C 870.066 -0.402421 -3.34488 0
M  V30 9165 O 870.596 0.48992 -3.98701 0
M  V30 9166 N 868.802 -0.277778 -2.89269 0
M  V30 9167 H 868.349 -1.00488 -2.37192 0
M  V30 9168 H 868.307 0.566784 -3.09249 0
M  V30 9169 N 872.079 0.78992 -1.36375 0
M  V30 9170 C 873.012 1.90907 -1.25019 0
M  V30 9171 C 873.99 1.62043 -0.134463 0
M  V30 9172 O 875.174 1.86008 -0.305506 0
M  V30 9173 C 872.301 3.25716 -0.928822 0
M  V30 9174 C 871.347 3.73511 -2.05892 0
M  V30 9175 S 872.18 3.89332 -3.6767 0
M  V30 9176 C 873.336 5.27017 -3.37645 0
M  V30 9177 H 873.569 2.00247 -2.19746 0
M  V30 9178 H 871.102 0.949097 -1.21785 0
M  V30 9179 H 873.06 4.03586 -0.750219 0
M  V30 9180 H 871.721 3.141 0.000658424 0
M  V30 9181 H 870.914 4.71195 -1.78862 0
M  V30 9182 H 870.516 3.02688 -2.19672 0
M  V30 9183 H 872.808 6.1158 -2.91507 0
M  V30 9184 H 873.751 5.5905 -4.3459 0
M  V30 9185 H 874.159 4.94093 -2.73006 0
M  V30 9186 N 873.557 1.20646 1.01402 0
M  V30 9187 C 874.487 0.98155 2.11867 0
M  V30 9188 C 875.468 -0.0903712 1.6986 0
M  V30 9189 O 876.653 0.0676586 1.94082 0
M  V30 9190 C 873.783 0.535636 3.43145 0
M  V30 9191 C 872.737 1.55109 3.98905 0
M  V30 9192 C 872.063 0.961725 5.2598 0
M  V30 9193 C 873.363 2.93552 4.32001 0
M  V30 9194 H 875.057 1.90544 2.3094 0
M  V30 9195 H 872.603 0.917554 1.10982 0
M  V30 9196 H 874.556 0.365512 4.19812 0
M  V30 9197 H 873.28 -0.423882 3.23838 0
M  V30 9198 H 871.939 1.70862 3.24348 0
M  V30 9199 H 871.587 -0.00580108 5.03 0
M  V30 9200 H 871.287 1.63993 5.64252 0
M  V30 9201 H 872.811 0.802726 6.053 0
M  V30 9202 H 874.225 2.81295 4.99546 0
M  V30 9203 H 872.622 3.58303 4.81393 0
M  V30 9204 H 873.692 3.4508 3.40658 0
M  V30 9205 N 875.035 -1.20752 1.01276 0
M  V30 9206 C 876.281 -1.90302 0.700924 0
M  V30 9207 C 876.614 -1.78406 -0.767142 0
M  V30 9208 O 875.889 -1.16575 -1.55694 0
M  V30 9209 C 876.172 -3.41831 1.13242 0
M  V30 9210 C 876.025 -3.6268 2.66051 0
M  V30 9211 C 877.344 -4.34486 0.700738 0
M  V30 9212 H 874.463 -0.69107 0.256107 0
M  V30 9213 H 877.105 -1.42227 1.25982 0
M  V30 9214 H 875.255 -3.82906 0.656902 0
M  V30 9215 H 876.927 -3.30882 3.21426 0
M  V30 9216 H 875.17 -3.06281 3.07204 0
M  V30 9217 H 875.841 -4.68882 2.91296 0
M  V30 9218 H 878.317 -4.01036 1.10948 0
M  V30 9219 H 877.193 -5.39136 1.03073 0
M  V30 9220 H 877.454 -4.40307 -0.39778 0
M  V30 9221 N 876.513 -0.788492 -1.36457 0
M  V30 9222 C 877.929 -0.470063 -1.52521 0
M  V30 9223 C 878.129 1.01176 -1.74258 0
M  V30 9224 O 877.185 1.79726 -1.77355 0
M  V30 9225 C 878.498 -1.2997 -2.71161 0
M  V30 9226 C 880.046 -1.2933 -2.85031 0
M  V30 9227 C 880.521 -2.10665 -4.06674 0
M  V30 9228 N 882.012 -2.08107 -4.13819 0
M  V30 9229 C 882.747 -2.6781 -5.07016 0
M  V30 9230 N 882.243 -3.36369 -6.05663 0
M  V30 9231 N 884.036 -2.57549 -4.99625 0
M  V30 9232 H 876.187 -1.7484 -1.20602 0
M  V30 9233 H 878.45 -0.743159 -0.588574 0
M  V30 9234 H 878.156 -2.35051 -2.61618 0
M  V30 9235 H 878.03 -0.940367 -3.6529 0
M  V30 9236 H 880.417 -0.250414 -2.94036 0
M  V30 9237 H 880.498 -1.69239 -1.91812 0
M  V30 9238 H 880.142 -3.14984 -3.98431 0
M  V30 9239 H 880.072 -1.68128 -4.9904 0
M  V30 9240 H 882.563 -1.58208 -3.43189 0
M  V30 9241 H 882.876 -3.79258 -6.73338 0
M  V30 9242 H 881.221 -3.40471 -6.05891 0
M  V30 9243 H 884.412 -2.0359 -4.21508 0
M  V30 9244 H 884.585 -3.0437 -5.72069 0
M  V30 9245 N 877.991 1.48044 -0.54043 0
M  V30 9246 C 878.938 2.29781 0.216597 0
M  V30 9247 C 879.908 1.38021 0.924094 0
M  V30 9248 O 881.093 1.66985 0.923078 0
M  V30 9249 C 878.233 3.21623 1.2511 0
M  V30 9250 C 877.346 4.28467 0.551384 0
M  V30 9251 C 876.481 5.07477 1.56972 0
M  V30 9252 C 875.52 6.06113 0.854048 0
M  V30 9253 N 874.657 6.78143 1.81842 0
M  V30 9254 H 879.497 2.94001 -0.486578 0
M  V30 9255 H 877.034 1.44929 -0.251789 0
M  V30 9256 H 878.992 3.73279 1.8633 0
M  V30 9257 H 877.622 2.59305 1.92252 0
M  V30 9258 H 876.674 3.79997 -0.174982 0
M  V30 9259 H 877.986 4.98799 -0.0100542 0
M  V30 9260 H 877.14 5.63199 2.25592 0
M  V30 9261 H 875.879 4.37008 2.16507 0
M  V30 9262 H 874.884 5.49585 0.153838 0
M  V30 9263 H 876.109 6.78584 0.264675 0
M  V30 9264 H 874.055 6.10417 2.40265 0
M  V30 9265 H 873.972 7.44587 1.3087 0
M  V30 9266 H 875.24 7.38448 2.49628 0
M  V30 9267 N 879.47 0.276058 1.55163 0
M  V30 9268 C 880.433 -0.597924 2.21263 0
M  V30 9269 C 881.433 -1.0806 1.19078 0
M  V30 9270 O 882.623 -0.980626 1.43977 0
M  V30 9271 C 879.755 -1.82503 2.87933 0
M  V30 9272 H 880.948 -0.0207769 2.99893 0
M  V30 9273 H 878.501 0.0266823 1.56277 0
M  V30 9274 H 879.236 -2.44266 2.13318 0
M  V30 9275 H 879.021 -1.48683 3.62816 0
M  V30 9276 H 880.511 -2.44651 3.38431 0
M  V30 9277 N 880.948 -1.576 0.00335426 0
M  V30 9278 C 881.878 -2.11668 -0.985839 0
M  V30 9279 C 882.859 -1.02661 -1.35627 0
M  V30 9280 O 884.044 -1.30361 -1.43943 0
M  V30 9281 C 881.174 -2.62273 -2.27662 0
M  V30 9282 C 880.128 -3.75837 -2.0477 0
M  V30 9283 C 879.454 -4.12769 -3.39891 0
M  V30 9284 C 880.754 -5.02975 -1.40759 0
M  V30 9285 H 882.448 -2.9457 -0.535637 0
M  V30 9286 H 879.994 -1.41702 -0.256204 0
M  V30 9287 H 881.947 -2.98727 -2.97221 0
M  V30 9288 H 880.671 -1.76498 -2.74802 0
M  V30 9289 H 879.33 -3.39782 -1.37636 0
M  V30 9290 H 878.978 -3.24013 -3.8474 0
M  V30 9291 H 878.678 -4.89281 -3.25389 0
M  V30 9292 H 880.202 -4.51784 -4.1076 0
M  V30 9293 H 881.616 -5.37179 -2.00279 0
M  V30 9294 H 880.013 -5.84315 -1.36734 0
M  V30 9295 H 881.083 -4.83431 -0.377218 0
M  V30 9296 N 882.426 0.269451 -1.5528 0
M  V30 9297 C 883.837 0.840233 -1.66724 0
M  V30 9298 C 884.188 1.86909 -0.596621 0
M  V30 9299 O 883.313 2.14817 0.261246 0
M  V30 9300 C 883.908 1.5308 -3.02245 0
M  V30 9301 C 882.467 2.04957 -3.15705 0
M  V30 9302 C 881.614 0.892838 -2.62533 0
M  V30 9303 H 884.565 0.0457236 -1.58634 0
M  V30 9304 H 884.586 2.39792 -2.95432 0
M  V30 9305 H 884.098 0.781741 -3.80145 0
M  V30 9306 H 882.199 2.82813 -2.42585 0
M  V30 9307 H 882.312 2.26244 -4.22316 0
M  V30 9308 H 880.676 1.28719 -2.19781 0
M  V30 9309 H 881.459 0.157229 -3.4294 0
M  V30 9310 N 883.904 1.48273 0.534124 0
M  V30 9311 C 885.315 1.49667 1.1161 0
M  V30 9312 C 885.666 0.264139 1.94414 0
M  V30 9313 O 884.791 -0.629084 2.07054 0
M  V30 9314 C 885.386 2.71191 2.03079 0
M  V30 9315 C 883.945 2.7547 2.56502 0
M  V30 9316 C 883.092 2.43119 1.33373 0
M  V30 9317 H 886.043 1.55449 0.319578 0
M  V30 9318 H 886.064 2.49473 2.87304 0
M  V30 9319 H 885.576 3.60879 1.42785 0
M  V30 9320 H 883.677 1.89979 3.20529 0
M  V30 9321 H 883.79 3.76787 2.95919 0
M  V30 9322 H 882.154 1.94187 1.64813 0
M  V30 9323 H 882.937 3.35044 0.748375 0
M  V30 9324 N 885.382 -0.782676 1.36792 0
M  V30 9325 C 886.63 -1.53778 1.31136 0
M  V30 9326 C 886.951 -1.94706 -0.107014 0
M  V30 9327 O 886.221 -1.65465 -1.04872 0
M  V30 9328 H 884.801 -0.570328 0.482426 0
M  V30 9329 H 887.463 -0.932181 1.71162 0
M  V30 9330 H 886.559 -2.44224 1.94321 0
M  V30 9331 N 886.86 -1.21182 -1.00761 0
M  V30 9332 C 888.088 -1.05335 -1.78079 0
M  V30 9333 C 888.503 0.396988 -1.84579 0
M  V30 9334 O 887.86 1.27548 -1.30529 0
M  V30 9335 C 887.911 -1.64089 -3.22113 0
M  V30 9336 O 887.632 -3.03448 -3.15992 0
M  V30 9337 C 889.133 -1.53318 -4.15943 0
M  V30 9338 H 886.353 -0.37005 -0.559736 0
M  V30 9339 H 888.897 -1.60463 -1.26775 0
M  V30 9340 H 887.052 -1.13059 -3.70535 0
M  V30 9341 H 887.466 -3.31492 -4.06465 0
M  V30 9342 H 888.94 -1.99174 -5.14814 0
M  V30 9343 H 889.417 -0.487166 -4.3649 0
M  V30 9344 H 890.023 -2.03582 -3.73409 0
M  V30 9345 N 888.338 1.20213 -1.01915 0
M  V30 9346 C 889.563 1.94163 -0.729076 0
M  V30 9347 C 889.988 1.74416 0.704323 0
M  V30 9348 O 889.346 1.0401 1.48498 0
M  V30 9349 C 889.394 3.44258 -1.07324 0
M  V30 9350 O 888.498 4.11979 -0.186367 0
M  V30 9351 H 887.839 0.606506 -0.270272 0
M  V30 9352 H 890.369 1.52571 -1.3632 0
M  V30 9353 H 890.379 3.94888 -1.02603 0
M  V30 9354 H 889.054 3.57954 -2.11759 0
M  V30 9355 H 887.631 3.7176 -0.291334 0
M  V30 9356 N 889.816 0.795718 1.36037 0
M  V30 9357 C 891.041 0.38204 2.03851 0
M  V30 9358 C 891.466 -0.995553 1.59594 0
M  V30 9359 O 890.824 -1.64258 0.767401 0
M  V30 9360 C 890.872 0.461248 3.57638 0
M  V30 9361 O 889.976 -0.529448 4.08987 0
M  V30 9362 H 889.317 0.161227 0.644129 0
M  V30 9363 H 891.847 1.07858 1.73861 0
M  V30 9364 H 891.857 0.32712 4.06687 0
M  V30 9365 H 890.532 1.46613 3.89201 0
M  V30 9366 H 889.109 -0.35646 3.71192 0
M  V30 9367 N 891.294 -1.47756 0.548274 0
M  V30 9368 C 892.534 -2.04387 0.0231354 0
M  V30 9369 C 892.898 -1.41438 -1.29843 0
M  V30 9370 O 894.099 -1.89064 -1.91072 0
M  V30 9371 C 892.37 -3.57316 -0.077482 0
M  V30 9372 S 893.929 -4.35339 -0.550038 0
M  V30 9373 H 890.747 -0.710694 0.0208428 0
M  V30 9374 H 893.349 -1.81239 0.732984 0
M  V30 9375 H 892.053 -4.00658 0.88888 0
M  V30 9376 H 891.584 -3.84947 -0.811157 0
M  V30 9377 H 893.599 -4.61957 -1.81135 0
M  V30 9378 N 892.772 -0.284283 -1.55015 0
M  V30 9379 C 893.702 0.592663 -2.25853 0
M  V30 9380 C 894.683 1.15151 -1.25197 0
M  V30 9381 O 895.868 1.18395 -1.53936 0
M  V30 9382 C 892.998 1.77254 -2.98661 0
M  V30 9383 C 891.952 1.34482 -4.06323 0
M  V30 9384 C 891.278 2.60853 -4.66754 0
M  V30 9385 C 892.578 0.488288 -5.20013 0
M  V30 9386 H 894.272 0.00187041 -2.994 0
M  V30 9387 H 891.818 -0.000540402 -1.44 0
M  V30 9388 H 893.771 2.39199 -3.46932 0
M  V30 9389 H 892.495 2.38931 -2.22664 0
M  V30 9390 H 891.154 0.748519 -3.58877 0
M  V30 9391 H 890.802 3.20808 -3.87416 0
M  V30 9392 H 890.502 2.32942 -5.39455 0
M  V30 9393 H 892.026 3.23631 -5.1778 0
M  V30 9394 H 893.44 1.01298 -5.6428 0
M  V30 9395 H 891.837 0.303669 -5.99331 0
M  V30 9396 H 892.907 -0.490727 -4.8241 0
M  V30 9397 N 894.251 1.57596 -0.0117121 0
M  V30 9398 C 895.498 1.91071 0.670667 0
M  V30 9399 C 895.826 0.886457 1.73125 0
M  V30 9400 O 895.081 -0.107135 1.95407 0
M  V30 9401 C 895.38 3.31296 1.34082 0
M  V30 9402 C 895.046 4.49011 0.412305 0
M  V30 9403 C 893.708 4.80945 0.156691 0
M  V30 9404 C 896.06 5.20709 -0.226294 0
M  V30 9405 C 893.388 5.81943 -0.745619 0
M  V30 9406 C 895.74 6.22668 -1.11655 0
M  V30 9407 C 894.404 6.53053 -1.38123 0
M  V30 9408 H 893.674 0.69918 0.245415 0
M  V30 9409 H 896.321 1.91373 -0.0697511 0
M  V30 9410 H 894.626 3.27174 2.15557 0
M  V30 9411 H 896.323 3.54461 1.87506 0
M  V30 9412 H 892.913 4.24067 0.621705 0
M  V30 9413 H 897.097 4.96282 -0.0418456 0
M  V30 9414 H 892.353 6.03839 -0.958566 0
M  V30 9415 H 896.527 6.77351 -1.61767 0
M  V30 9416 H 894.154 7.31132 -2.08208 0
M  V30 9417 N 895.729 -0.261212 1.5542 0
M  V30 9418 C 896.975 -0.992699 1.76843 0
M  V30 9419 C 897.308 -1.8551 0.574428 0
M  V30 9420 O 896.583 -1.89739 -0.427713 0
M  V30 9421 C 896.866 -1.86532 3.08022 0
M  V30 9422 C 896.719 -1.03206 4.378 0
M  V30 9423 C 898.038 -2.85036 3.35324 0
M  V30 9424 H 895.157 -0.359473 0.643388 0
M  V30 9425 H 897.799 -0.264214 1.88154 0
M  V30 9426 H 895.949 -2.48644 2.9851 0
M  V30 9427 H 897.621 -0.430743 4.59285 0
M  V30 9428 H 895.864 -0.335911 4.32497 0
M  V30 9429 H 896.535 -1.6761 5.25938 0
M  V30 9430 H 899.011 -2.3306 3.44706 0
M  V30 9431 H 897.887 -3.43226 4.28354 0
M  V30 9432 H 898.148 -3.60768 2.55537 0
M  V30 9433 N 897.207 -1.48554 -0.526253 0
M  V30 9434 C 898.618 -1.50256 -1.10815 0
M  V30 9435 C 898.969 -0.274445 -1.94271 0
M  V30 9436 O 898.094 0.618094 -2.07385 0
M  V30 9437 C 898.689 -2.72264 -2.01638 0
M  V30 9438 C 897.248 -2.76826 -2.55038 0
M  V30 9439 C 896.395 -2.43823 -1.32081 0
M  V30 9440 H 899.346 -1.55616 -0.31133 0
M  V30 9441 H 899.367 -2.50993 -2.85977 0
M  V30 9442 H 898.879 -3.61632 -1.4087 0
M  V30 9443 H 896.98 -1.91676 -3.19517 0
M  V30 9444 H 897.093 -3.78351 -2.93917 0
M  V30 9445 H 895.457 -1.95058 -1.63781 0
M  V30 9446 H 896.24 -3.35436 -0.730596 0
M  V30 9447 N 898.685 0.775411 -1.37205 0
M  V30 9448 C 899.934 1.52909 -1.31536 0
M  V30 9449 C 900.247 1.9535 0.0989374 0
M  V30 9450 O 901.453 2.70072 0.278079 0
M  V30 9451 C 899.909 2.761 -2.30861 0
M  V30 9452 C 899.517 2.40773 -3.77799 0
M  V30 9453 C 901.261 3.54052 -2.34195 0
M  V30 9454 C 899.168 3.60444 -4.68865 0
M  V30 9455 H 898.098 0.574061 -0.488845 0
M  V30 9456 H 900.749 0.849642 -1.62645 0
M  V30 9457 H 899.131 3.45916 -1.92764 0
M  V30 9458 H 900.305 1.78764 -4.24712 0
M  V30 9459 H 898.62 1.76004 -3.77375 0
M  V30 9460 H 901.217 4.42992 -2.99437 0
M  V30 9461 H 901.56 3.93649 -1.35449 0
M  V30 9462 H 902.093 2.91229 -2.7098 0
M  V30 9463 H 898.832 3.25932 -5.68725 0
M  V30 9464 H 898.352 4.21571 -4.26659 0
M  V30 9465 H 900.031 4.27302 -4.85821 0
M  V30 9466 N 900.163 1.21714 1.00117 0
M  V30 9467 C 901.388 1.06357 1.78054 0
M  V30 9468 C 901.813 -0.382075 1.84179 0
M  V30 9469 O 901.171 -1.27575 1.28819 0
M  V30 9470 C 901.219 1.66982 3.19608 0
M  V30 9471 O 900.323 0.917892 4.02055 0
M  V30 9472 H 899.664 0.374074 0.548602 0
M  V30 9473 H 902.194 1.61338 1.25822 0
M  V30 9474 H 902.204 1.71363 3.70268 0
M  V30 9475 H 900.879 2.72185 3.14465 0
M  V30 9476 H 899.456 0.949473 3.6061 0
M  V30 9477 N 901.641 -1.19671 1.02551 0
M  V30 9478 C 902.866 -1.93774 0.739363 0
M  V30 9479 C 903.291 -1.74787 -0.695064 0
M  V30 9480 O 902.649 -1.04796 -1.47944 0
M  V30 9481 C 902.697 -3.43684 1.09149 0
M  V30 9482 O 901.801 -4.11874 0.208213 0
M  V30 9483 H 901.142 -0.605064 0.273484 0
M  V30 9484 H 903.672 -1.51846 1.37128 0
M  V30 9485 H 903.682 -3.94339 1.04695 0
M  V30 9486 H 902.357 -3.56826 2.13654 0
M  V30 9487 H 900.934 -3.716 0.311045 0
M  V30 9488 N 903.119 -0.802921 -1.35613 0
M  V30 9489 C 904.029 -0.212177 -2.33639 0
M  V30 9490 C 905.045 0.642871 -1.61689 0
M  V30 9491 O 906.221 0.555485 -1.93588 0
M  V30 9492 C 903.286 0.632406 -3.40883 0
M  V30 9493 C 902.347 -0.242708 -4.28613 0
M  V30 9494 C 901.58 0.56166 -5.30736 0
M  V30 9495 O 901.803 1.79664 -5.41366 0
M  V30 9496 O 900.737 -0.0455387 -6.01883 0
M  V30 9497 H 904.563 -1.023 -2.85952 0
M  V30 9498 H 902.148 -0.564636 -1.38319 0
M  V30 9499 H 904.03 1.11358 -4.0642 0
M  V30 9500 H 902.705 1.42089 -2.90848 0
M  V30 9501 H 901.612 -0.77094 -3.6607 0
M  V30 9502 H 902.945 -0.995046 -4.82037 0
M  V30 9503 N 904.597 1.47463 -0.556102 0
M  V30 9504 C 906.008 1.86298 -0.122429 0
M  V30 9505 C 906.359 1.46285 1.30749 0
M  V30 9506 O 905.484 0.865405 1.98342 0
M  V30 9507 C 906.079 3.38115 -0.215407 0
M  V30 9508 C 904.638 3.76046 0.163223 0
M  V30 9509 C 903.785 2.71515 -0.563466 0
M  V30 9510 H 906.736 1.38996 -0.765888 0
M  V30 9511 H 906.757 3.76263 0.566271 0
M  V30 9512 H 906.269 3.67207 -1.25622 0
M  V30 9513 H 904.37 3.5257 1.20519 0
M  V30 9514 H 904.483 4.78705 -0.194568 0
M  V30 9515 H 902.847 2.54699 -0.00667879 0
M  V30 9516 H 903.63 3.03449 -1.60542 0
M  V30 9517 N 906.075 0.2925 1.54862 0
M  V30 9518 C 907.486 -0.201841 1.85606 0
M  V30 9519 C 907.837 -1.54093 1.21449 0
M  V30 9520 O 906.962 -2.10327 0.509079 0
M  V30 9521 C 907.557 -0.373011 3.3674 0
M  V30 9522 C 906.116 -0.811574 3.67547 0
M  V30 9523 C 905.263 0.0850583 2.7717 0
M  V30 9524 H 908.214 0.513774 1.50153 0
M  V30 9525 H 908.235 -1.20892 3.60785 0
M  V30 9526 H 907.747 0.601751 3.83407 0
M  V30 9527 H 905.848 -1.79719 3.26392 0
M  V30 9528 H 905.961 -0.636853 4.74848 0
M  V30 9529 H 904.325 -0.434224 2.50971 0
M  V30 9530 H 905.108 1.05602 3.26654 0
M  V30 9531 N 907.553 -1.57587 0.0200696 0
M  V30 9532 C 908.463 -2.13119 -0.980676 0
M  V30 9533 C 909.479 -1.08124 -1.36328 0
M  V30 9534 O 910.655 -1.40134 -1.44653 0
M  V30 9535 C 907.72 -2.63991 -2.24743 0
M  V30 9536 C 906.781 -3.83667 -1.9261 0
M  V30 9537 C 906.014 -4.32103 -3.13246 0
M  V30 9538 O 906.237 -3.79758 -4.25606 0
M  V30 9539 O 905.171 -5.24047 -2.96072 0
M  V30 9540 H 908.997 -2.98887 -0.538528 0
M  V30 9541 H 906.582 -1.48055 -0.19999 0
M  V30 9542 H 908.464 -2.9682 -2.99125 0
M  V30 9543 H 907.139 -1.81311 -2.68157 0
M  V30 9544 H 906.046 -3.55778 -1.15641 0
M  V30 9545 H 907.379 -4.67482 -1.54019 0
M  V30 9546 N 909.032 0.252966 -1.55557 0
M  V30 9547 C 909.942 1.33472 -1.92931 0
M  V30 9548 C 910.958 1.52983 -0.828985 0
M  V30 9549 O 912.134 1.66723 -1.12984 0
M  V30 9550 C 909.199 2.6704 -2.21112 0
M  V30 9551 C 908.26 2.56103 -3.44542 0
M  V30 9552 C 907.493 3.83302 -3.71369 0
M  V30 9553 O 907.716 4.84907 -3.00368 0
M  V30 9554 O 906.65 3.823 -4.64898 0
M  V30 9555 H 910.476 1.04768 -2.85057 0
M  V30 9556 H 908.061 0.453208 -1.4236 0
M  V30 9557 H 909.943 3.45981 -2.40572 0
M  V30 9558 H 908.618 2.95489 -1.32166 0
M  V30 9559 H 907.525 1.7547 -3.30396 0
M  V30 9560 H 908.858 2.32601 -4.33772 0
M  V30 9561 N 910.51 1.48831 0.518367 0
M  V30 9562 C 911.758 1.57128 1.27103 0
M  V30 9563 C 912.079 0.252098 1.93364 0
M  V30 9564 O 911.349 -0.727281 1.819 0
M  V30 9565 H 909.929 0.578891 0.472116 0
M  V30 9566 H 912.591 1.85361 0.602262 0
M  V30 9567 H 911.687 2.35838 2.04418 0
M  V30 9568 N 911.988 -0.768124 1.37614 0
M  V30 9569 C 912.898 -1.91249 1.35871 0
M  V30 9570 C 913.914 -1.7208 0.257786 0
M  V30 9571 O 915.09 -1.95253 0.493782 0
M  V30 9572 C 912.155 -3.26423 1.16829 0
M  V30 9573 C 911.216 -3.5822 2.36594 0
M  V30 9574 C 910.449 -4.86945 2.1845 0
M  V30 9575 O 910.672 -5.58258 1.17064 0
M  V30 9576 O 909.606 -5.17888 3.06718 0
M  V30 9577 H 913.432 -1.95671 2.32264 0
M  V30 9578 H 911.017 -0.911382 1.18382 0
M  V30 9579 H 912.899 -4.07269 1.08212 0
M  V30 9580 H 911.574 -3.22845 0.235123 0
M  V30 9581 H 910.481 -2.77594 2.50783 0
M  V30 9582 H 911.814 -3.66545 3.2849 0
M  V30 9583 N 913.466 -1.22244 -0.994698 0
M  V30 9584 C 914.413 -0.990906 -2.08446 0
M  V30 9585 C 915.383 0.086737 -1.65873 0
M  V30 9586 O 916.568 -0.0624882 -1.90698 0
M  V30 9587 C 913.708 -0.572813 -3.40313 0
M  V30 9588 C 912.821 -1.72103 -3.96238 0
M  V30 9589 C 911.956 -1.2511 -5.16257 0
M  V30 9590 C 910.995 -2.37098 -5.64315 0
M  V30 9591 N 910.132 -1.91164 -6.75574 0
M  V30 9592 H 914.972 -1.92377 -2.27585 0
M  V30 9593 H 912.509 -0.958576 -1.11578 0
M  V30 9594 H 914.467 -0.311594 -4.16035 0
M  V30 9595 H 913.097 0.323044 -3.21179 0
M  V30 9596 H 912.149 -2.09662 -3.17405 0
M  V30 9597 H 913.461 -2.56347 -4.27888 0
M  V30 9598 H 912.615 -0.947152 -5.99261 0
M  V30 9599 H 911.354 -0.378836 -4.86226 0
M  V30 9600 H 910.359 -2.68283 -4.799 0
M  V30 9601 H 911.584 -3.24837 -5.96371 0
M  V30 9602 H 909.53 -1.06298 -6.47331 0
M  V30 9603 H 909.447 -2.68975 -7.06533 0
M  V30 9604 H 910.715 -1.63833 -7.62088 0
M  V30 9605 N 914.944 1.19125 -1.03184 0
M  V30 9606 C 915.854 2.26112 -0.625329 0
M  V30 9607 C 916.87 1.7056 0.344298 0
M  V30 9608 O 918.046 2.0039 0.20144 0
M  V30 9609 C 915.111 3.46697 0.0145169 0
M  V30 9610 C 914.172 4.17419 -1.00299 0
M  V30 9611 C 913.405 5.32247 -0.393581 0
M  V30 9612 O 913.628 5.64724 0.802659 0
M  V30 9613 O 912.562 5.91428 -1.1179 0
M  V30 9614 H 916.388 2.63131 -1.51643 0
M  V30 9615 H 913.973 1.26036 -0.802197 0
M  V30 9616 H 915.855 4.19762 0.371139 0
M  V30 9617 H 914.53 3.11521 0.879581 0
M  V30 9618 H 913.437 3.4646 -1.41125 0
M  V30 9619 H 914.77 4.56573 -1.83852 0
M  V30 9620 N 916.422 0.810101 1.35185 0
M  V30 9621 C 917.699 0.315235 1.93043 0
M  V30 9622 C 918.079 -1.19567 1.73974 0
M  V30 9623 O 917.427 -1.99682 1.11083 0
M  V30 9624 C 917.637 0.730492 3.41269 0
M  V30 9625 C 918.985 0.721985 4.18417 0
M  V30 9626 O 920.009 0.672258 3.49799 0
M  V30 9627 O 918.868 0.783535 5.40854 0
M  V30 9628 H 915.962 0.0832774 0.822796 0
M  V30 9629 H 918.508 0.894034 1.4424 0
M  V30 9630 H 917.28 1.77169 3.48894 0
M  V30 9631 H 916.903 0.12669 3.97398 0
M  V30 9632 N 917.9 -1.47166 0.563914 0
M  V30 9633 C 918.83 -2.32894 -0.168148 0
M  V30 9634 C 919.811 -1.44202 -0.902214 0
M  V30 9635 O 920.996 -1.73048 -0.881365 0
M  V30 9636 C 918.126 -3.26116 -1.19439 0
M  V30 9637 C 917.08 -4.24101 -0.576363 0
M  V30 9638 C 916.406 -5.06696 -1.70772 0
M  V30 9639 C 917.706 -5.20142 0.47425 0
M  V30 9640 H 919.4 -2.9435 0.547573 0
M  V30 9641 H 916.946 -1.41545 0.264778 0
M  V30 9642 H 918.899 -3.84935 -1.71474 0
M  V30 9643 H 917.623 -2.62728 -1.94014 0
M  V30 9644 H 916.282 -3.66519 -0.0772534 0
M  V30 9645 H 915.93 -4.39707 -2.44268 0
M  V30 9646 H 915.63 -5.7304 -1.29994 0
M  V30 9647 H 917.154 -5.68375 -2.2312 0
M  V30 9648 H 918.568 -5.73286 0.0397035 0
M  V30 9649 H 916.965 -5.94726 0.801287 0
M  V30 9650 H 918.035 -4.65214 1.36764 0
M  V30 9651 N 919.378 -0.300708 -1.54705 0
M  V30 9652 C 920.794 0.0526874 -1.59513 0
M  V30 9653 C 920.994 1.52444 -1.31769 0
M  V30 9654 O 920.05 2.27716 -1.09096 0
M  V30 9655 C 921.363 -0.344989 -2.98714 0
M  V30 9656 C 922.911 -0.29373 -3.11619 0
M  V30 9657 C 923.386 -0.666225 -4.53129 0
M  V30 9658 N 924.877 -0.618749 -4.59049 0
M  V30 9659 C 925.612 -0.879447 -5.66616 0
M  V30 9660 N 925.108 -1.2061 -6.82221 0
M  V30 9661 N 926.901 -0.806528 -5.56284 0
M  V30 9662 H 919.052 -1.25988 -1.71 0
M  V30 9663 H 921.315 -0.510758 -0.798643 0
M  V30 9664 H 921.021 -1.36953 -3.2394 0
M  V30 9665 H 920.895 0.301507 -3.75993 0
M  V30 9666 H 923.282 0.72156 -2.86142 0
M  V30 9667 H 923.363 -0.974844 -2.36496 0
M  V30 9668 H 923.007 -1.67932 -4.79334 0
M  V30 9669 H 922.937 0.0369575 -5.26587 0
M  V30 9670 H 925.428 -0.377202 -3.76013 0
M  V30 9671 H 925.741 -1.391 -7.60178 0
M  V30 9672 H 924.086 -1.24413 -6.83774 0
M  V30 9673 H 927.277 -0.550993 -4.64846 0
M  V30 9674 H 927.45 -1.01307 -6.40032 0
M  V30 9675 N 920.856 1.57574 -0.0284266 0
M  V30 9676 C 922.102 1.92056 0.651327 0
M  V30 9677 C 922.435 0.905092 1.71819 0
M  V30 9678 O 921.71 -0.0722703 1.94366 0
M  V30 9679 C 921.993 3.37021 1.26841 0
M  V30 9680 C 921.846 4.49304 0.211157 0
M  V30 9681 C 923.165 3.81936 2.18662 0
M  V30 9682 H 920.284 0.698428 0.235304 0
M  V30 9683 H 922.926 1.89807 -0.0855435 0
M  V30 9684 H 921.076 3.39068 1.89644 0
M  V30 9685 H 922.748 4.5939 -0.419379 0
M  V30 9686 H 920.991 4.31317 -0.463445 0
M  V30 9687 H 921.662 5.47764 0.682518 0
M  V30 9688 H 924.138 3.8162 1.65847 0
M  V30 9689 H 923.014 4.84064 2.58792 0
M  V30 9690 H 923.275 3.174 3.07749 0
M  V30 9691 N 922.334 -0.244713 1.55689 0
M  V30 9692 C 923.266 -1.32595 1.86952 0
M  V30 9693 C 924.279 -1.44185 0.755948 0
M  V30 9694 O 925.468 -1.45496 1.03408 0
M  V30 9695 C 922.568 -2.70429 2.04258 0
M  V30 9696 C 921.741 -2.8108 3.35131 0
M  V30 9697 C 920.8 -3.99773 3.42152 0
M  V30 9698 O 919.826 -3.89197 4.15348 0
M  V30 9699 N 921.028 -5.13041 2.71604 0
M  V30 9700 H 923.793 -1.06111 2.80287 0
M  V30 9701 H 921.354 -0.434811 1.55952 0
M  V30 9702 H 923.346 -3.48173 2.06295 0
M  V30 9703 H 921.916 -2.89612 1.17658 0
M  V30 9704 H 921.136 -1.89994 3.45392 0
M  V30 9705 H 922.424 -2.85147 4.21389 0
M  V30 9706 H 921.822 -5.24525 2.11872 0
M  V30 9707 H 920.379 -5.88912 2.79331 0
M  V30 9708 N 923.813 -1.49104 -0.510467 0
M  V30 9709 C 924.743 -1.67981 -1.62187 0
M  V30 9710 C 925.724 -0.528529 -1.6168 0
M  V30 9711 O 926.909 -0.763305 -1.7857 0
M  V30 9712 C 924.039 -1.73755 -3.0071 0
M  V30 9713 C 922.993 -2.88579 -3.1608 0
M  V30 9714 C 922.319 -2.79457 -4.5586 0
M  V30 9715 C 923.619 -4.29638 -2.97 0
M  V30 9716 H 925.313 -2.61029 -1.46643 0
M  V30 9717 H 922.859 -1.25615 -0.704042 0
M  V30 9718 H 924.812 -1.85548 -3.78352 0
M  V30 9719 H 923.536 -0.772996 -3.17321 0
M  V30 9720 H 922.195 -2.76372 -2.40861 0
M  V30 9721 H 921.843 -1.80929 -4.69333 0
M  V30 9722 H 921.543 -3.56518 -4.67086 0
M  V30 9723 H 923.067 -2.93245 -5.35574 0
M  V30 9724 H 924.481 -4.42575 -3.64418 0
M  V30 9725 H 922.878 -5.07847 -3.19704 0
M  V30 9726 H 923.948 -4.44741 -1.93219 0
M  V30 9727 N 925.291 0.760815 -1.38019 0
M  V30 9728 C 926.238 1.8744 -1.34666 0
M  V30 9729 C 927.208 1.64762 -0.210386 0
M  V30 9730 O 928.393 1.86528 -0.401479 0
M  V30 9731 C 925.533 3.24648 -1.17037 0
M  V30 9732 C 924.646 3.59206 -2.3999 0
M  V30 9733 C 923.781 4.8568 -2.15148 0
M  V30 9734 C 922.82 5.13002 -3.3391 0
M  V30 9735 N 921.957 6.30668 -3.08549 0
M  V30 9736 H 926.797 1.8964 -2.29871 0
M  V30 9737 H 924.334 0.927004 -1.14215 0
M  V30 9738 H 926.292 4.03814 -1.04834 0
M  V30 9739 H 924.922 3.21793 -0.254758 0
M  V30 9740 H 923.974 2.74939 -2.62893 0
M  V30 9741 H 925.286 3.75328 -3.28527 0
M  V30 9742 H 924.44 5.72773 -2.00039 0
M  V30 9743 H 923.179 4.71682 -1.23965 0
M  V30 9744 H 922.184 4.2438 -3.49545 0
M  V30 9745 H 923.409 5.28901 -4.25958 0
M  V30 9746 H 921.355 6.18008 -2.20006 0
M  V30 9747 H 921.272 6.47257 -3.90633 0
M  V30 9748 H 922.54 7.20669 -2.9708 0
M  V30 9749 N 926.769 1.22769 0.988202 0
M  V30 9750 C 928.185 0.988665 1.2529 0
M  V30 9751 C 928.385 -0.314938 1.99024 0
M  V30 9752 O 927.441 -1.03637 2.30251 0
M  V30 9753 C 928.754 2.19046 2.06009 0
M  V30 9754 C 930.302 2.23452 2.19176 0
M  V30 9755 C 930.777 3.43196 3.03283 0
M  V30 9756 N 932.268 3.43387 3.10869 0
M  V30 9757 C 933.003 4.32693 3.7625 0
M  V30 9758 N 932.499 5.32224 4.43519 0
M  V30 9759 N 934.292 4.20457 3.73058 0
M  V30 9760 H 926.443 2.06575 0.494014 0
M  V30 9761 H 928.706 0.905452 0.28082 0
M  V30 9762 H 928.412 3.13607 1.59197 0
M  V30 9763 H 928.286 2.19492 3.06763 0
M  V30 9764 H 930.673 1.29436 2.65199 0
M  V30 9765 H 930.754 2.27042 1.17836 0
M  V30 9766 H 930.398 4.37515 2.57959 0
M  V30 9767 H 930.328 3.36847 4.04774 0
M  V30 9768 H 932.819 2.71368 2.62998 0
M  V30 9769 H 933.132 5.9664 4.91163 0
M  V30 9770 H 931.477 5.36133 4.42252 0
M  V30 9771 H 934.668 3.41949 3.19669 0
M  V30 9772 H 934.841 4.90261 4.23731 0
M  V30 9773 N 928.247 -1.18576 1.03814 0
M  V30 9774 C 929.197 -2.20034 0.597409 0
M  V30 9775 C 930.181 -1.56849 -0.358796 0
M  V30 9776 O 931.373 -1.761 -0.178262 0
M  V30 9777 C 928.502 -3.43276 -0.0407965 0
M  V30 9778 C 927.588 -4.13588 0.938404 0
M  V30 9779 N 927.979 -4.59941 2.10447 0
M  V30 9780 C 926.277 -4.3941 0.763853 0
M  V30 9781 C 926.978 -5.1404 2.72282 0
M  V30 9782 N 925.954 -5.05401 2.00176 0
M  V30 9783 H 929.756 -2.53562 1.48606 0
M  V30 9784 H 927.27 -1.34753 0.906384 0
M  V30 9785 H 929.267 -4.15217 -0.374222 0
M  V30 9786 H 927.927 -3.11245 -0.925014 0
M  V30 9787 H 928.938 -4.54471 2.48347 0
M  V30 9788 H 925.615 -4.1744 -0.0704869 0
M  V30 9789 H 927.005 -5.60128 3.71088 0
M  V30 9790 N 929.725 -0.817259 -1.34754 0
M  V30 9791 C 930.675 -0.207585 -2.27053 0
M  V30 9792 C 931.659 0.624836 -1.48272 0
M  V30 9793 O 932.851 0.480344 -1.70358 0
M  V30 9794 C 929.98 0.634281 -3.3739 0
M  V30 9795 C 929.066 -0.208456 -4.23587 0
M  V30 9796 N 929.457 -1.2767 -4.89422 0
M  V30 9797 C 927.755 0.00815096 -4.45999 0
M  V30 9798 C 928.456 -1.79209 -5.53407 0
M  V30 9799 N 927.432 -1.09686 -5.32419 0
M  V30 9800 H 931.234 -1.0248 -2.75454 0
M  V30 9801 H 928.748 -0.659492 -1.48406 0
M  V30 9802 H 930.745 1.08718 -4.02475 0
M  V30 9803 H 929.405 1.44972 -2.90539 0
M  V30 9804 H 930.416 -1.65945 -4.90594 0
M  V30 9805 H 927.093 0.791879 -4.09921 0
M  V30 9806 H 928.483 -2.68548 -6.15899 0
M  V30 9807 N 931.203 1.46865 -0.571711 0
M  V30 9808 C 932.614 1.86158 -0.142181 0
M  V30 9809 C 932.965 1.47663 1.2919 0
M  V30 9810 O 932.09 0.886393 1.97413 0
M  V30 9811 C 932.685 3.37867 -0.251256 0
M  V30 9812 C 931.244 3.76198 0.123329 0
M  V30 9813 C 930.391 2.70902 -0.592232 0
M  V30 9814 H 933.342 1.38176 -0.780587 0
M  V30 9815 H 933.363 3.76842 0.526331 0
M  V30 9816 H 932.875 3.65853 -1.2951 0
M  V30 9817 H 930.976 3.53829 1.16773 0
M  V30 9818 H 931.089 4.78471 -0.24533 0
M  V30 9819 H 929.453 2.54678 -0.0336927 0
M  V30 9820 H 930.236 3.01729 -1.63751 0
M  V30 9821 N 932.681 0.308908 1.54543 0
M  V30 9822 C 933.906 -0.303196 2.05172 0
M  V30 9823 C 934.331 -1.46133 1.18434 0
M  V30 9824 O 933.689 -1.803 0.190162 0
M  V30 9825 C 933.737 -0.729526 3.53143 0
M  V30 9826 O 932.841 -1.83348 3.69401 0
M  V30 9827 H 932.182 -0.0575066 0.661505 0
M  V30 9828 H 934.712 0.453055 1.99521 0
M  V30 9829 H 934.722 -1.01619 3.95143 0
M  V30 9830 H 933.397 0.117622 4.15734 0
M  V30 9831 H 931.974 -1.54676 3.39308 0
M  V30 9832 N 934.159 -1.57557 0.0367827 0
M  V30 9833 C 935.384 -1.96828 -0.653707 0
M  V30 9834 C 935.809 -0.913559 -1.64425 0
M  V30 9835 O 935.167 0.124749 -1.8087 0
M  V30 9836 C 935.215 -3.35189 -1.32969 0
M  V30 9837 O 934.319 -3.32095 -2.44513 0
M  V30 9838 H 933.66 -0.64157 -0.171124 0
M  V30 9839 H 936.19 -2.04351 0.100912 0
M  V30 9840 H 936.2 -3.71593 -1.68472 0
M  V30 9841 H 934.875 -4.11496 -0.603654 0
M  V30 9842 H 933.452 -3.07418 -2.11065 0
M  V30 9843 N 935.637 0.236453 -1.55816 0
M  V30 9844 C 937.048 0.80468 -1.68469 0
M  V30 9845 C 937.399 1.85601 -0.636133 0
M  V30 9846 O 936.524 2.15323 0.215622 0
M  V30 9847 C 937.119 1.46634 -3.05424 0
M  V30 9848 C 935.678 1.98214 -3.19981 0
M  V30 9849 C 934.825 0.83695 -2.64368 0
M  V30 9850 H 937.776 0.0120647 -1.58695 0
M  V30 9851 H 937.797 2.33472 -3.00451 0
M  V30 9852 H 937.309 0.700931 -3.81718 0
M  V30 9853 H 935.41 2.77604 -2.4853 0
M  V30 9854 H 935.523 2.17235 -4.2702 0
M  V30 9855 H 933.887 1.24028 -2.22462 0
M  V30 9856 H 934.67 0.084451 -3.43196 0
M  V30 9857 N 937.115 1.49373 0.502552 0
M  V30 9858 C 938.045 1.68839 1.61294 0
M  V30 9859 C 939.026 0.537096 1.61398 0
M  V30 9860 O 940.211 0.772764 1.78163 0
M  V30 9861 C 937.341 1.75347 2.99784 0
M  V30 9862 C 936.295 2.90251 3.14545 0
M  V30 9863 C 935.621 2.8187 4.54371 0
M  V30 9864 C 936.921 4.31207 2.94717 0
M  V30 9865 H 938.615 2.61803 1.45257 0
M  V30 9866 H 936.161 1.25987 0.697371 0
M  V30 9867 H 938.114 1.87552 3.77362 0
M  V30 9868 H 936.838 0.789814 3.16906 0
M  V30 9869 H 935.497 2.77646 2.39392 0
M  V30 9870 H 935.145 1.83416 4.68367 0
M  V30 9871 H 934.845 3.5899 4.65188 0
M  V30 9872 H 936.369 2.96081 5.34012 0
M  V30 9873 H 937.783 4.44501 3.62065 0
M  V30 9874 H 936.18 5.09536 3.17007 0
M  V30 9875 H 937.25 4.45759 1.90857 0
M  V30 9876 N 938.594 -0.753485 1.38421 0
M  V30 9877 C 940.005 -1.33081 1.30944 0
M  V30 9878 C 940.356 -1.96169 -0.0347124 0
M  V30 9879 O 939.481 -1.95073 -0.936768 0
M  V30 9880 C 940.076 -2.41973 2.37138 0
M  V30 9881 C 938.635 -2.95426 2.33239 0
M  V30 9882 C 937.782 -1.68808 2.19998 0
M  V30 9883 H 940.733 -0.552354 1.48777 0
M  V30 9884 H 940.754 -3.21913 2.02859 0
M  V30 9885 H 940.266 -1.96027 3.34956 0
M  V30 9886 H 938.367 -3.45701 1.39003 0
M  V30 9887 H 938.48 -3.49798 3.27381 0
M  V30 9888 H 936.844 -1.92438 1.66852 0
M  V30 9889 H 937.627 -1.24939 3.19758 0
M  V30 9890 N 940.072 -1.23292 -0.981677 0
M  V30 9891 C 941.32 -1.06214 -1.71939 0
M  V30 9892 C 941.641 0.401989 -1.90812 0
M  V30 9893 O 940.911 1.28825 -1.47584 0
M  V30 9894 H 939.491 -0.390042 -0.637084 0
M  V30 9895 H 942.153 -1.54988 -1.18173 0
M  V30 9896 H 941.249 -1.54904 -2.70945 0
M  V30 9897 N 941.55 1.18024 -1.04442 0
M  V30 9898 C 942.775 1.92573 -0.770097 0
M  V30 9899 C 943.2 1.75871 0.667169 0
M  V30 9900 O 942.558 1.07136 1.46258 0
M  V30 9901 C 942.606 3.41904 -1.14602 0
M  V30 9902 O 941.71 4.11491 -0.273712 0
M  V30 9903 H 941.051 0.600636 -0.283076 0
M  V30 9904 H 943.581 1.49645 -1.39526 0
M  V30 9905 H 943.591 3.92623 -1.10956 0
M  V30 9906 H 942.266 3.53382 -2.19304 0
M  V30 9907 H 940.843 3.71059 -0.370124 0
M  V30 9908 N 943.028 0.824394 1.34319 0
M  V30 9909 C 943.975 0.245282 2.29493 0
M  V30 9910 C 944.945 -0.630762 1.53657 0
M  V30 9911 O 946.13 -0.572094 1.82021 0
M  V30 9912 C 943.27 -0.585631 3.40095 0
M  V30 9913 C 942.383 0.312821 4.30866 0
M  V30 9914 C 941.518 -0.527801 5.28571 0
M  V30 9915 C 940.557 0.369946 6.10981 0
M  V30 9916 N 939.694 -0.43169 7.00772 0
M  V30 9917 H 944.534 1.06225 2.78425 0
M  V30 9918 H 942.071 0.53533 1.37013 0
M  V30 9919 H 944.029 -1.08271 4.02906 0
M  V30 9920 H 942.659 -1.3677 2.92393 0
M  V30 9921 H 941.711 0.928129 3.68904 0
M  V30 9922 H 943.023 1.00306 4.8861 0
M  V30 9923 H 942.177 -1.0893 5.96841 0
M  V30 9924 H 940.916 -1.25154 4.71368 0
M  V30 9925 H 939.921 0.943577 5.41643 0
M  V30 9926 H 941.146 1.09182 6.70266 0
M  V30 9927 H 939.092 -1.13908 6.46035 0
M  V30 9928 H 939.009 0.200133 7.55735 0
M  V30 9929 H 940.277 -0.975894 7.73367 0
M  V30 9930 N 944.506 -1.46559 0.579492 0
M  V30 9931 C 945.734 -2.06784 0.0693648 0
M  V30 9932 C 946.149 -1.42875 -1.23419 0
M  V30 9933 O 945.506 -0.532919 -1.74546 0
M  V30 9934 C 945.557 -3.61343 -0.106511 0
M  V30 9935 O 945.278 -4.22861 1.14545 0
M  V30 9936 C 946.779 -4.38489 -0.651359 0
M  V30 9937 H 943.999 -0.66866 0.0559848 0
M  V30 9938 H 946.543 -1.88235 0.799245 0
M  V30 9939 H 944.698 -3.7933 -0.786601 0
M  V30 9940 H 945.112 -5.15691 0.95723 0
M  V30 9941 H 946.586 -5.47237 -0.723615 0
M  V30 9942 H 947.063 -4.06309 -1.66763 0
M  V30 9943 H 947.669 -4.253 -0.0062433 0
M  V30 9944 N 945.984 -0.3171 -1.54377 0
M  V30 9945 C 947.209 0.292311 -2.0533 0
M  V30 9946 C 947.634 1.45503 -1.19207 0
M  V30 9947 O 946.992 1.80197 -0.199721 0
M  V30 9948 C 947.04 0.710787 -3.53525 0
M  V30 9949 O 946.144 1.81387 -3.70368 0
M  V30 9950 H 945.485 0.0539976 -0.661801 0
M  V30 9951 H 948.015 -0.463629 -1.99278 0
M  V30 9952 H 948.025 0.995216 -3.95676 0
M  V30 9953 H 946.7 -0.139668 -4.15665 0
M  V30 9954 H 945.277 1.52875 -3.40123 0
M  V30 9955 N 947.462 1.57535 -0.0451378 0
M  V30 9956 C 948.409 2.11176 0.931313 0
M  V30 9957 C 949.379 1.01765 1.31275 0
M  V30 9958 O 950.564 1.29279 1.40327 0
M  V30 9959 C 947.704 2.65639 2.20295 0
M  V30 9960 C 946.817 3.89114 1.87654 0
M  V30 9961 C 945.952 4.31914 3.09232 0
M  V30 9962 C 944.991 5.48105 2.72484 0
M  V30 9963 N 944.128 5.85986 3.86736 0
M  V30 9964 H 948.968 2.94318 0.466986 0
M  V30 9965 H 946.505 1.45462 0.218886 0
M  V30 9966 H 948.463 2.95312 2.94697 0
M  V30 9967 H 947.093 1.85303 2.64316 0
M  V30 9968 H 946.145 3.6607 1.03427 0
M  V30 9969 H 947.457 4.7358 1.56601 0
M  V30 9970 H 946.611 4.63108 3.91939 0
M  V30 9971 H 945.35 3.46247 3.43459 0
M  V30 9972 H 944.355 5.16589 1.88192 0
M  V30 9973 H 945.58 6.35482 2.39455 0
M  V30 9974 H 943.526 5.03273 4.20775 0
M  V30 9975 H 943.443 6.65129 3.5936 0
M  V30 9976 H 944.711 6.21793 4.701 0
M  V30 9977 N 948.94 -0.228186 1.55939 0
M  V30 9978 C 950.356 -0.577583 1.48782 0
M  V30 9979 C 950.556 -1.87461 0.738972 0
M  V30 9980 O 949.612 -2.50988 0.275929 0
M  V30 9981 C 950.925 -0.662961 2.93301 0
M  V30 9982 C 952.473 -0.754035 3.03782 0
M  V30 9983 C 952.948 -0.870815 4.49645 0
M  V30 9984 N 954.439 -0.935208 4.53661 0
M  V30 9985 C 955.174 -1.04516 5.63794 0
M  V30 9986 N 954.67 -1.11948 6.83696 0
M  V30 9987 N 956.463 -1.07978 5.51631 0
M  V30 9988 H 948.614 0.623018 2.03057 0
M  V30 9989 H 950.877 0.217692 0.922667 0
M  V30 9990 H 950.583 0.220375 3.51009 0
M  V30 9991 H 950.457 -1.52876 3.44831 0
M  V30 9992 H 952.844 -1.62782 2.46143 0
M  V30 9993 H 952.925 0.137301 2.55431 0
M  V30 9994 H 952.569 -0.0015186 5.079 0
M  V30 9995 H 952.499 -1.77747 4.95695 0
M  V30 9996 H 954.99 -0.88836 3.6731 0
M  V30 9997 H 955.303 -1.20297 7.6338 0
M  V30 9998 H 953.648 -1.08873 6.8642 0
M  V30 9999 H 956.839 -1.01833 4.56889 0
M  V30 10000 H 957.012 -1.16202 6.37496 0
M  V30 10001 N 950.418 -1.49637 -0.494624 0
M  V30 10002 C 951.829 -1.52573 -1.07603 0
M  V30 10003 C 952.18 -0.315591 -1.93645 0
M  V30 10004 O 951.305 0.573966 -2.08649 0
M  V30 10005 C 951.9 -2.7648 -1.95817 0
M  V30 10006 C 950.459 -2.82173 -2.49109 0
M  V30 10007 C 949.606 -2.4657 -1.2688 0
M  V30 10008 H 952.557 -1.56242 -0.278251 0
M  V30 10009 H 952.578 -2.57003 -2.80588 0
M  V30 10010 H 952.09 -3.64538 -1.33167 0
M  V30 10011 H 950.191 -1.9841 -3.15379 0
M  V30 10012 H 950.304 -3.84501 -2.85825 0
M  V30 10013 H 948.668 -1.98489 -1.59607 0
M  V30 10014 H 949.451 -3.3691 -0.659281 0
M  V30 10015 N 951.896 0.746133 -1.38819 0
M  V30 10016 C 952.843 1.86001 -1.36647 0
M  V30 10017 C 953.813 1.6453 -0.227849 0
M  V30 10018 O 954.998 1.86092 -0.421241 0
M  V30 10019 C 952.138 3.23388 -1.20474 0
M  V30 10020 C 951.251 3.5664 -2.43786 0
M  V30 10021 C 950.386 4.8337 -2.20287 0
M  V30 10022 C 949.425 5.09431 -3.39332 0
M  V30 10023 N 948.562 6.2736 -3.1522 0
M  V30 10024 H 953.402 1.87192 -2.31869 0
M  V30 10025 H 950.939 0.914838 -1.15192 0
M  V30 10026 H 952.897 4.02679 -1.09112 0
M  V30 10027 H 951.527 3.21505 -0.288874 0
M  V30 10028 H 950.579 2.72135 -2.65794 0
M  V30 10029 H 951.891 3.71823 -3.3249 0
M  V30 10030 H 951.045 5.70619 -2.06103 0
M  V30 10031 H 949.784 4.70341 -1.28961 0
M  V30 10032 H 948.789 4.20648 -3.54027 0
M  V30 10033 H 950.014 5.24354 -4.31544 0
M  V30 10034 H 947.96 6.15639 -2.26549 0
M  V30 10035 H 947.877 6.43078 -3.97476 0
M  V30 10036 H 949.145 7.17477 -3.04707 0
M  V30 10037 N 953.375 1.23811 0.975125 0
M  V30 10038 C 954.624 1.06741 1.71141 0
M  V30 10039 C 954.937 -0.394986 1.9157 0
M  V30 10040 O 956.143 -0.685723 2.62698 0
M  V30 10041 C 954.599 1.86168 3.08009 0
M  V30 10042 C 954.207 3.36771 2.95448 0
M  V30 10043 C 955.951 1.77604 3.85561 0
M  V30 10044 C 953.858 4.0857 4.2758 0
M  V30 10045 H 952.788 0.395819 0.64175 0
M  V30 10046 H 955.439 1.47825 1.0872 0
M  V30 10047 H 953.821 1.37893 3.71216 0
M  V30 10048 H 954.995 3.92571 2.41298 0
M  V30 10049 H 953.31 3.46205 2.31368 0
M  V30 10050 H 955.907 2.28556 4.83391 0
M  V30 10051 H 956.25 0.739837 4.09673 0
M  V30 10052 H 956.783 2.23519 3.29065 0
M  V30 10053 H 953.522 5.12518 4.08663 0
M  V30 10054 H 953.042 3.57556 4.81574 0
M  V30 10055 H 954.721 4.15157 4.9624 0
M  V30 10056 N 954.853 -1.17469 1.05066 0
M  V30 10057 C 955.8 -2.21443 0.650512 0
M  V30 10058 C 956.77 -1.62441 -0.346702 0
M  V30 10059 O 957.955 -1.89305 -0.238404 0
M  V30 10060 C 955.095 -3.45087 0.0301014 0
M  V30 10061 C 954.208 -4.18385 1.07599 0
M  V30 10062 C 953.343 -5.29513 0.423038 0
M  V30 10063 C 952.382 -5.94596 1.45333 0
M  V30 10064 N 951.519 -6.97241 0.824623 0
M  V30 10065 H 956.359 -2.55025 1.54163 0
M  V30 10066 H 953.896 -1.25274 0.771032 0
M  V30 10067 H 955.854 -4.15754 -0.347032 0
M  V30 10068 H 954.484 -3.12093 -0.824481 0
M  V30 10069 H 953.536 -3.46446 1.57097 0
M  V30 10070 H 954.848 -4.62899 1.85813 0
M  V30 10071 H 954.002 -6.067 -0.00774975 0
M  V30 10072 H 952.741 -4.86129 -0.391092 0
M  V30 10073 H 951.746 -5.16142 1.89415 0
M  V30 10074 H 952.971 -6.40061 2.26934 0
M  V30 10075 H 950.917 -6.55993 0.0309804 0
M  V30 10076 H 950.834 -7.40059 1.54432 0
M  V30 10077 H 952.102 -7.78375 0.418567 0
M  V30 10078 N 956.331 -0.831506 -1.3388 0
M  V30 10079 C 957.577 -0.424302 -1.98312 0
M  V30 10080 C 957.91 1.01211 -1.65741 0
M  V30 10081 O 957.185 1.70636 -0.933464 0
M  V30 10082 C 957.468 -0.636815 -3.54424 0
M  V30 10083 C 957.321 -2.11997 -3.96708 0
M  V30 10084 C 958.64 -0.0782411 -4.4003 0
M  V30 10085 H 955.759 -0.155637 -0.720379 0
M  V30 10086 H 958.401 -1.04566 -1.58638 0
M  V30 10087 H 956.551 -0.107907 -3.8835 0
M  V30 10088 H 958.223 -2.71317 -3.73075 0
M  V30 10089 H 956.466 -2.60723 -3.46707 0
M  V30 10090 H 957.137 -2.21944 -5.05416 0
M  V30 10091 H 959.613 -0.530243 -4.12708 0
M  V30 10092 H 958.489 -0.256676 -5.483 0
M  V30 10093 H 958.75 1.01745 -4.30233 0
M  V30 10094 N 957.809 1.4625 -0.587256 0
M  V30 10095 C 959.034 2.07252 -0.0784517 0
M  V30 10096 C 959.459 1.43239 1.21919 0
M  V30 10097 O 958.817 0.517791 1.73749 0
M  V30 10098 C 958.865 3.60534 0.0691037 0
M  V30 10099 O 957.969 3.96773 1.12448 0
M  V30 10100 H 957.31 0.660825 -0.064859 0
M  V30 10101 H 959.84 1.87819 -0.811491 0
M  V30 10102 H 959.85 4.0708 0.273826 0
M  V30 10103 H 958.525 4.06516 -0.878514 0
M  V30 10104 H 957.102 3.6193 0.897852 0
M  V30 10105 N 959.287 0.325282 1.54207 0
M  V30 10106 C 960.217 -0.532574 2.27345 0
M  V30 10107 C 961.198 -1.11791 1.28206 0
M  V30 10108 O 962.383 -1.14272 1.57021 0
M  V30 10109 C 959.513 -1.69274 3.03255 0
M  V30 10110 C 958.467 -1.23662 4.09746 0
M  V30 10111 C 957.793 -2.48386 4.73506 0
M  V30 10112 C 959.093 -0.350244 5.21124 0
M  V30 10113 H 960.787 0.0775108 2.993 0
M  V30 10114 H 958.333 0.0387193 1.43948 0
M  V30 10115 H 960.286 -2.29917 3.53152 0
M  V30 10116 H 959.01 -2.32944 2.28921 0
M  V30 10117 H 957.669 -0.653106 3.60735 0
M  V30 10118 H 957.317 -3.10424 3.95786 0
M  V30 10119 H 957.017 -2.18558 5.45441 0
M  V30 10120 H 958.541 -3.09789 5.26178 0
M  V30 10121 H 959.955 -0.863011 5.66767 0
M  V30 10122 H 958.352 -0.14466 5.99926 0
M  V30 10123 H 959.422 0.618457 4.8094 0
M  V30 10124 N 960.765 -1.57509 0.0534917 0
M  V30 10125 C 962.014 -1.91959 -0.619244 0
M  V30 10126 C 962.327 -0.933882 -1.71866 0
M  V30 10127 O 963.533 -1.17052 -2.44972 0
M  V30 10128 C 961.989 -3.40938 -1.15278 0
M  V30 10129 C 961.597 -4.47919 -0.085348 0
M  V30 10130 C 963.341 -3.84419 -1.80063 0
M  V30 10131 C 961.248 -5.88014 -0.631897 0
M  V30 10132 H 960.178 -0.71642 -0.235072 0
M  V30 10133 H 962.829 -1.83089 0.122758 0
M  V30 10134 H 961.211 -3.44821 -1.94717 0
M  V30 10135 H 962.385 -4.55629 0.688374 0
M  V30 10136 H 960.7 -4.13793 0.465178 0
M  V30 10137 H 963.297 -4.86457 -2.21954 0
M  V30 10138 H 963.64 -3.20791 -2.65328 0
M  V30 10139 H 964.173 -3.83062 -1.07275 0
M  V30 10140 H 960.912 -6.55244 0.183175 0
M  V30 10141 H 960.432 -5.83861 -1.37355 0
M  V30 10142 H 962.111 -6.37336 -1.11407 0
M  V30 10143 N 962.243 0.219913 -1.56058 0
M  V30 10144 C 963.468 0.965073 -1.83579 0
M  V30 10145 C 963.893 1.77092 -0.634024 0
M  V30 10146 O 963.251 1.76434 0.417205 0
M  V30 10147 C 963.299 1.85705 -3.09105 0
M  V30 10148 O 962.403 2.95261 -2.87914 0
M  V30 10149 H 961.744 0.273173 -0.605204 0
M  V30 10150 H 964.274 0.23273 -2.03272 0
M  V30 10151 H 964.284 2.26655 -3.39252 0
M  V30 10152 H 962.959 1.26476 -3.96203 0
M  V30 10153 H 961.536 2.58246 -2.69005 0
M  V30 10154 N 963.721 1.49897 0.486681 0
M  V30 10155 C 964.653 1.63755 1.60365 0
M  V30 10156 C 965.666 0.519614 1.54285 0
M  V30 10157 O 966.855 0.792219 1.59957 0
M  V30 10158 C 963.955 1.59153 2.99205 0
M  V30 10159 C 963.128 2.8672 3.30319 0
M  V30 10160 C 962.187 2.74974 4.48638 0
M  V30 10161 O 961.213 3.48922 4.49714 0
M  V30 10162 N 962.415 1.87479 5.49392 0
M  V30 10163 H 965.18 2.60094 1.48899 0
M  V30 10164 H 962.741 1.47166 0.674825 0
M  V30 10165 H 964.733 1.4893 3.76301 0
M  V30 10166 H 963.303 0.706133 3.0452 0
M  V30 10167 H 962.523 3.11188 2.41983 0
M  V30 10168 H 963.811 3.71262 3.47911 0
M  V30 10169 H 963.209 1.26684 5.51333 0
M  V30 10170 H 961.766 1.83169 6.25534 0
M  V30 10171 N 965.199 -0.738761 1.39212 0
M  V30 10172 C 966.447 -1.49529 1.35962 0
M  V30 10173 C 966.768 -1.94948 -0.0450152 0
M  V30 10174 O 966.038 -1.68717 -0.995552 0
M  V30 10175 H 964.618 -0.554692 0.500326 0
M  V30 10176 H 967.28 -0.877255 1.74041 0
M  V30 10177 H 966.376 -2.37919 2.01993 0
M  V30 10178 N 966.677 -1.24326 -0.968545 0
M  V30 10179 C 967.954 -0.990459 -1.68669 0
M  V30 10180 C 968.334 0.487487 -2.05394 0
M  V30 10181 O 967.682 1.46158 -1.75642 0
M  V30 10182 C 967.892 -1.91251 -2.91931 0
M  V30 10183 C 969.24 -2.18291 -3.6419 0
M  V30 10184 O 970.264 -1.88897 -3.01987 0
M  V30 10185 O 969.123 -2.68204 -4.76161 0
M  V30 10186 H 966.217 -0.374515 -0.737338 0
M  V30 10187 H 968.763 -1.35421 -1.02271 0
M  V30 10188 H 967.535 -2.9111 -2.61478 0
M  V30 10189 H 967.158 -1.55188 -3.66064 0
M  V30 10190 N 968.156 1.1691 -1.05688 0
M  V30 10191 C 969.384 1.91204 -0.790485 0
M  V30 10192 C 969.799 1.77095 0.654434 0
M  V30 10193 O 969.156 1.11146 1.44751 0
M  V30 10194 C 969.207 3.42108 -1.16808 0
M  V30 10195 O 968.928 3.55788 -2.55629 0
M  V30 10196 C 970.429 4.33466 -0.92855 0
M  V30 10197 H 967.649 0.606508 -0.287035 0
M  V30 10198 H 970.193 1.48225 -1.40888 0
M  V30 10199 H 968.348 3.82814 -0.59434 0
M  V30 10200 H 968.762 4.49321 -2.70575 0
M  V30 10201 H 970.236 5.37836 -1.24245 0
M  V30 10202 H 970.713 4.38989 0.136016 0
M  V30 10203 H 971.319 3.98481 -1.48638 0
M  V30 10204 N 969.634 0.838594 1.33437 0
M  V30 10205 C 970.597 0.276843 2.27522 0
M  V30 10206 C 971.597 -0.554275 1.50945 0
M  V30 10207 O 972.787 -0.368107 1.70266 0
M  V30 10208 C 969.919 -0.610036 3.35397 0
M  V30 10209 H 971.112 1.10705 2.78719 0
M  V30 10210 H 968.665 0.611657 1.43835 0
M  V30 10211 H 969.4 -1.46269 2.89441 0
M  V30 10212 H 969.185 -0.0153615 3.92097 0
M  V30 10213 H 970.675 -0.996368 4.05539 0
M  V30 10214 N 971.112 -1.45937 0.595003 0
M  V30 10215 C 972.36 -2.01921 0.0851368 0
M  V30 10216 C 972.681 -1.46748 -1.28413 0
M  V30 10217 O 971.951 -0.656873 -1.84559 0
M  V30 10218 H 970.531 -0.746457 0.0284826 0
M  V30 10219 H 973.193 -1.78891 0.773561 0
M  V30 10220 H 972.289 -3.1209 0.0254002 0
M  V30 10221 N 972.59 -0.333456 -1.54032 0
M  V30 10222 C 973.838 0.265608 -2.00347 0
M  V30 10223 C 974.159 1.51873 -1.2231 0
M  V30 10224 O 973.429 1.93142 -0.327549 0
M  V30 10225 H 972.009 0.101135 -0.740122 0
M  V30 10226 H 974.671 -0.452285 -1.8958 0
M  V30 10227 H 973.767 0.51511 -3.0782 0
M  V30 10228 N 974.068 1.57479 -0.061844 0
M  V30 10229 C 975.479 1.80627 0.472295 0
M  V30 10230 C 975.83 0.97496 1.70261 0
M  V30 10231 O 974.955 0.1946 2.15523 0
M  V30 10232 C 975.55 3.27608 0.863616 0
M  V30 10233 C 974.109 3.51638 1.34267 0
M  V30 10234 C 973.256 2.75412 0.323009 0
M  V30 10235 H 976.207 1.56072 -0.287634 0
M  V30 10236 H 976.228 3.39113 1.72577 0
M  V30 10237 H 975.74 3.88087 -0.0320226 0
M  V30 10238 H 973.841 2.96452 2.25714 0
M  V30 10239 H 973.954 4.60342 1.32747 0
M  V30 10240 H 972.318 2.4187 0.798175 0
M  V30 10241 H 973.101 3.38623 -0.564729 0
M  V30 10242 N 975.546 -0.211634 1.56173 0
M  V30 10243 C 976.786 -0.941505 1.81425 0
M  V30 10244 C 977.15 -1.8113 0.636862 0
M  V30 10245 O 978.351 -2.57568 0.768907 0
M  V30 10246 C 976.622 -1.75002 3.11623 0
M  V30 10247 S 978.181 -2.53418 3.58225 0
M  V30 10248 H 974.999 -0.316088 0.636875 0
M  V30 10249 H 977.601 -0.206244 1.94409 0
M  V30 10250 H 976.305 -1.10136 3.95346 0
M  V30 10251 H 975.836 -2.5274 3.01473 0
M  V30 10252 H 977.851 -3.77234 3.22349 0
M  V30 10253 N 977.024 -1.50153 -0.478725 0
M  V30 10254 C 977.987 -1.67916 -1.56003 0
M  V30 10255 C 978.987 -0.550111 -1.51097 0
M  V30 10256 O 980.177 -0.817001 -1.53853 0
M  V30 10257 C 977.309 -1.6973 -2.95643 0
M  V30 10258 H 978.502 -2.6438 -1.41573 0
M  V30 10259 H 976.055 -1.39519 -0.704565 0
M  V30 10260 H 976.79 -0.749306 -3.15525 0
M  V30 10261 H 976.575 -2.51745 -3.00611 0
M  V30 10262 H 978.065 -1.85453 -3.74162 0
M  V30 10263 N 978.502 0.731368 -1.39602 0
M  V30 10264 C 979.913 1.30981 -1.33045 0
M  V30 10265 C 980.264 1.962 0.00349918 0
M  V30 10266 O 979.389 1.96539 0.905615 0
M  V30 10267 C 979.984 2.3817 -2.40958 0
M  V30 10268 C 978.543 2.91678 -2.3791 0
M  V30 10269 C 977.69 1.65286 -2.22656 0
M  V30 10270 H 980.641 0.528615 -1.49637 0
M  V30 10271 H 980.662 3.18645 -2.07955 0
M  V30 10272 H 980.174 1.90673 -3.38032 0
M  V30 10273 H 978.275 3.43446 -1.44485 0
M  V30 10274 H 978.388 3.44545 -3.32904 0
M  V30 10275 H 976.752 1.89759 -1.69893 0
M  V30 10276 H 977.535 1.19836 -3.21705 0
M  V30 10277 N 979.98 1.24838 0.961938 0
M  V30 10278 C 981.205 1.11967 1.7458 0
M  V30 10279 C 981.63 -0.323287 1.85301 0
M  V30 10280 O 980.988 -1.23412 1.32812 0
M  V30 10281 C 981.036 1.77066 3.14134 0
M  V30 10282 O 980.14 1.04534 3.98932 0
M  V30 10283 H 979.481 0.391338 0.536424 0
M  V30 10284 H 982.011 1.65259 1.20626 0
M  V30 10285 H 982.021 1.83056 3.64629 0
M  V30 10286 H 980.696 2.82052 3.05646 0
M  V30 10287 H 979.273 1.06372 3.57407 0
M  V30 10288 N 981.458 -1.16348 1.06306 0
M  V30 10289 C 982.39 -2.20316 0.631929 0
M  V30 10290 C 983.403 -1.59819 -0.310133 0
M  V30 10291 O 984.592 -1.78213 -0.101103 0
M  V30 10292 C 981.692 -3.3877 -0.0937645 0
M  V30 10293 C 980.865 -4.28826 0.861816 0
M  V30 10294 C 979.924 -5.25908 0.175346 0
M  V30 10295 O 978.95 -5.63363 0.813039 0
M  V30 10296 N 980.152 -5.70307 -1.08305 0
M  V30 10297 H 982.917 -2.57925 1.52626 0
M  V30 10298 H 980.478 -1.31358 0.946392 0
M  V30 10299 H 982.47 -4.00759 -0.563412 0
M  V30 10300 H 981.04 -2.99666 -0.889904 0
M  V30 10301 H 980.26 -3.64098 1.51083 0
M  V30 10302 H 981.548 -4.85875 1.51007 0
M  V30 10303 H 980.946 -5.4197 -1.62127 0
M  V30 10304 H 979.503 -6.34387 -1.49656 0
M  V30 10305 N 982.937 -0.845659 -1.3299 0
M  V30 10306 C 984.185 -0.443774 -1.97168 0
M  V30 10307 C 984.506 1.00192 -1.67292 0
M  V30 10308 O 983.776 1.69891 -0.975397 0
M  V30 10309 H 982.356 -0.161111 -0.729419 0
M  V30 10310 H 985.018 -1.08011 -1.62233 0
M  V30 10311 H 984.114 -0.581414 -3.06637 0
M  V30 10312 N 984.415 1.45619 -0.602734 0
M  V30 10313 C 985.64 2.07157 -0.100429 0
M  V30 10314 C 986.065 1.44524 1.20393 0
M  V30 10315 O 985.423 0.536191 1.7319 0
M  V30 10316 C 985.471 3.60587 0.0308604 0
M  V30 10317 O 984.575 3.97944 1.08234 0
M  V30 10318 H 983.916 0.6601 -0.0718643 0
M  V30 10319 H 986.446 1.86948 -0.831366 0
M  V30 10320 H 986.456 4.07348 0.230634 0
M  V30 10321 H 985.131 4.05561 -0.921581 0
M  V30 10322 H 983.708 3.62862 0.859414 0
M  V30 10323 N 985.893 0.34162 1.53853 0
M  V30 10324 C 986.856 -0.503541 2.236 0
M  V30 10325 C 987.856 -1.02912 1.23554 0
M  V30 10326 O 989.046 -0.918678 1.48007 0
M  V30 10327 C 986.178 -1.70126 2.95415 0
M  V30 10328 H 987.371 0.106437 2.99711 0
M  V30 10329 H 984.924 0.0929408 1.56023 0
M  V30 10330 H 985.659 -2.34999 2.23486 0
M  V30 10331 H 985.444 -1.33161 3.68796 0
M  V30 10332 H 986.934 -2.30077 3.48503 0
M  V30 10333 N 987.371 -1.57444 0.0701946 0
M  V30 10334 C 988.782 -1.80875 -0.462709 0
M  V30 10335 C 989.133 -0.983975 -1.69742 0
M  V30 10336 O 988.258 -0.206027 -2.15417 0
M  V30 10337 C 988.853 -3.28062 -0.84623 0
M  V30 10338 C 987.412 -3.52345 -1.32401 0
M  V30 10339 C 986.559 -2.7558 -0.308399 0
M  V30 10340 H 989.51 -1.55917 0.295907 0
M  V30 10341 H 989.531 -3.40023 -1.70776 0
M  V30 10342 H 989.043 -3.88064 0.0526033 0
M  V30 10343 H 987.144 -2.97645 -2.24139 0
M  V30 10344 H 987.257 -4.6104 -1.30304 0
M  V30 10345 H 985.621 -2.4229 -0.785337 0
M  V30 10346 H 986.404 -3.38319 0.582679 0
M  V30 10347 N 988.849 0.203349 -1.56283 0
M  V30 10348 C 989.759 1.27266 -1.9708 0
M  V30 10349 C 990.775 1.50268 -0.877236 0
M  V30 10350 O 991.951 1.63044 -1.18231 0
M  V30 10351 C 989.016 2.59871 -2.29495 0
M  V30 10352 C 988.077 2.45012 -3.52516 0
M  V30 10353 C 987.31 3.71293 -3.83376 0
M  V30 10354 O 987.533 4.75106 -3.15643 0
M  V30 10355 O 986.467 3.67316 -4.76826 0
M  V30 10356 H 990.293 0.956461 -2.88246 0
M  V30 10357 H 987.878 0.407688 -1.4373 0
M  V30 10358 H 989.76 3.38152 -2.51458 0
M  V30 10359 H 988.435 2.91135 -1.415 0
M  V30 10360 H 987.342 1.6487 -3.35811 0
M  V30 10361 H 988.675 2.18683 -4.40952 0
M  V30 10362 N 990.327 1.50405 0.470755 0
M  V30 10363 C 991.29 1.68741 1.5511 0
M  V30 10364 C 992.29 0.558116 1.50804 0
M  V30 10365 O 993.48 0.825149 1.53418 0
M  V30 10366 C 990.612 1.71295 2.94739 0
M  V30 10367 H 991.805 2.65127 1.40169 0
M  V30 10368 H 989.358 1.39891 0.697156 0
M  V30 10369 H 990.093 0.766029 3.15123 0
M  V30 10370 H 989.878 2.53336 2.99271 0
M  V30 10371 H 991.368 1.87434 3.73173 0
M  V30 10372 N 991.805 -0.723954 1.39988 0
M  V30 10373 C 992.768 -1.81973 1.3935 0
M  V30 10374 C 993.768 -1.58187 0.288702 0
M  V30 10375 O 994.958 -1.65383 0.547181 0
M  V30 10376 C 992.09 -3.19937 1.177 0
M  V30 10377 H 993.283 -1.83939 2.36868 0
M  V30 10378 H 990.836 -0.928742 1.25714 0
M  V30 10379 H 991.571 -3.23625 0.209093 0
M  V30 10380 H 991.356 -3.386 1.97719 0
M  V30 10381 H 992.846 -3.99981 1.20022 0
M  V30 10382 N 993.283 -1.25346 -0.955304 0
M  V30 10383 C 994.531 -1.09837 -1.69647 0
M  V30 10384 C 994.852 0.361425 -1.91621 0
M  V30 10385 O 994.122 1.25666 -1.50283 0
M  V30 10386 H 992.702 -0.403467 -0.628668 0
M  V30 10387 H 995.364 -1.57459 -1.14859 0
M  V30 10388 H 994.46 -1.60616 -2.67598 0
M  V30 10389 N 994.761 1.15782 -1.06922 0
M  V30 10390 C 996.009 1.86097 -0.788192 0
M  V30 10391 C 996.33 1.82475 0.687606 0
M  V30 10392 O 995.6 1.26266 1.49778 0
M  V30 10393 H 994.18 0.689008 -0.288577 0
M  V30 10394 H 996.842 1.40377 -1.35205 0
M  V30 10395 H 995.938 2.91358 -1.1188 0
M  V30 10396 N 996.239 0.8527 1.3254 0
M  V30 10397 C 997.186 0.293905 2.28921 0
M  V30 10398 C 998.156 -0.598027 1.54961 0
M  V30 10399 O 999.341 -0.533355 1.83194 0
M  V30 10400 C 996.481 -0.513361 3.4126 0
M  V30 10401 C 995.594 0.404144 4.30105 0
M  V30 10402 C 994.729 -0.415564 5.29572 0
M  V30 10403 C 993.768 0.499461 6.10059 0
M  V30 10404 N 992.905 -0.282949 7.0153 0
M  V30 10405 H 997.745 1.12107 2.76109 0
M  V30 10406 H 995.282 0.564272 1.35847 0
M  V30 10407 H 997.24 -0.997008 4.05112 0
M  V30 10408 H 995.87 -1.30537 2.95229 0
M  V30 10409 H 994.922 1.00617 3.66852 0
M  V30 10410 H 996.234 1.10648 4.86373 0
M  V30 10411 H 995.388 -0.962458 5.99017 0
M  V30 10412 H 994.127 -1.15127 4.73917 0
M  V30 10413 H 993.132 1.05825 5.39519 0
M  V30 10414 H 994.357 1.23375 6.67799 0
M  V30 10415 H 992.303 -1.00179 6.48306 0
M  V30 10416 H 992.22 0.36039 7.55141 0
M  V30 10417 H 993.488 -0.811632 7.75263 0
M  V30 10418 N 997.718 -1.45297 0.610449 0
M  V30 10419 C 999.129 -1.85715 0.191488 0
M  V30 10420 C 999.48 -1.51036 -1.25229 0
M  V30 10421 O 998.605 -0.938422 -1.94994 0
M  V30 10422 C 999.2 -3.37082 0.340747 0
M  V30 10423 C 997.759 -3.76393 -0.0235433 0
M  V30 10424 C 996.906 -2.69237 0.663849 0
M  V30 10425 H 999.857 -1.36058 0.816948 0
M  V30 10426 H 999.878 -3.78105 -0.426233 0
M  V30 10427 H 999.39 -3.62291 1.39164 0
M  V30 10428 H 997.491 -3.56801 -1.07351 0
M  V30 10429 H 997.604 -4.77653 0.372102 0
M  V30 10430 H 995.968 -2.54499 0.101204 0
M  V30 10431 H 996.751 -2.97281 1.71694 0
M  V30 10432 N 999.196 -0.349774 -1.5367 0
M  V30 10433 C 1000.44 0.245862 -2.00196 0
M  V30 10434 C 1000.76 1.51154 -1.24144 0
M  V30 10435 O 1001.96 2.18481 -1.61178 0
M  V30 10436 C 1000.42 0.488665 -3.56567 0
M  V30 10437 C 1000.03 -0.761475 -4.41481 0
M  V30 10438 C 1001.77 1.04282 -4.11492 0
M  V30 10439 C 999.679 -0.489128 -5.89374 0
M  V30 10440 H 998.609 0.0956493 -0.747909 0
M  V30 10441 H 1001.26 -0.466068 -1.77483 0
M  V30 10442 H 999.642 1.26145 -3.75371 0
M  V30 10443 H 1000.82 -1.53585 -4.34452 0
M  V30 10444 H 999.131 -1.23771 -3.9758 0
M  V30 10445 H 1001.73 1.26164 -5.19603 0
M  V30 10446 H 1002.07 2.00023 -3.65098 0
M  V30 10447 H 1002.6 0.330582 -3.96424 0
M  V30 10448 H 999.343 -1.41643 -6.40014 0
M  V30 10449 H 998.863 0.247039 -5.99291 0
M  V30 10450 H 1000.54 -0.1087 -6.46909 0
M  V30 10451 N 1000.67 1.57404 -0.0785433 0
M  V30 10452 C 1001.9 1.98074 0.597862 0
M  V30 10453 C 1002.32 0.95714 1.6274 0
M  V30 10454 O 1001.67 -0.0553728 1.82416 0
M  V30 10455 C 1001.72 3.38815 1.26041 0
M  V30 10456 O 1001.45 4.37254 0.27207 0
M  V30 10457 C 1002.95 3.94397 2.024 0
M  V30 10458 H 1000.17 0.651263 0.161546 0
M  V30 10459 H 1002.71 2.03927 -0.152941 0
M  V30 10460 H 1000.87 3.34028 1.96225 0
M  V30 10461 H 1001.28 5.19136 0.74822 0
M  V30 10462 H 1002.75 4.95075 2.4414 0
M  V30 10463 H 1003.23 3.31308 2.88326 0
M  V30 10464 H 1003.84 4.02607 1.37068 0
M  V30 10465 N 1002.15 -0.195058 1.56388 0
M  V30 10466 C 1003.08 -1.26978 1.8961 0
M  V30 10467 C 1004.06 -1.43946 0.756199 0
M  V30 10468 O 1005.25 -1.59335 1.0072 0
M  V30 10469 C 1002.37 -2.63638 2.12632 0
M  V30 10470 C 1001.42 -2.6354 3.35334 0
M  V30 10471 S 1002.25 -2.1497 4.90457 0
M  V30 10472 C 1003.41 -3.53454 5.16547 0
M  V30 10473 H 1003.64 -0.986091 2.8047 0
M  V30 10474 H 1001.17 -0.398552 1.49167 0
M  V30 10475 H 1003.13 -3.42304 2.26579 0
M  V30 10476 H 1001.79 -2.89218 1.22522 0
M  V30 10477 H 1000.99 -3.64027 3.48569 0
M  V30 10478 H 1000.59 -1.92956 3.20381 0
M  V30 10479 H 1002.88 -4.49318 5.0707 0
M  V30 10480 H 1003.82 -3.45113 6.18306 0
M  V30 10481 H 1004.23 -3.48368 4.44185 0
M  V30 10482 N 1003.63 -1.50653 -0.462772 0
M  V30 10483 C 1004.86 -1.65826 -1.23731 0
M  V30 10484 C 1005.27 -0.345002 -1.85621 0
M  V30 10485 O 1004.63 0.673935 -1.69601 0
M  V30 10486 C 1004.68 -2.7555 -2.33997 0
M  V30 10487 O 1004.4 -4.01785 -1.74643 0
M  V30 10488 C 1005.9 -3.0177 -3.2473 0
M  V30 10489 H 1003.12 -0.557177 -0.373892 0
M  V30 10490 H 1005.67 -1.96925 -0.551434 0
M  V30 10491 H 1003.82 -2.47122 -2.98345 0
M  V30 10492 H 1004.24 -4.62529 -2.4732 0
M  V30 10493 H 1005.71 -3.82188 -3.98292 0
M  V30 10494 H 1006.19 -2.13167 -3.84001 0
M  V30 10495 H 1006.79 -3.31761 -2.66111 0
M  V30 10496 N 1005.11 0.71652 -1.4037 0
M  V30 10497 C 1006.04 1.84345 -1.43315 0
M  V30 10498 C 1007.02 1.67537 -0.294186 0
M  V30 10499 O 1008.2 1.87582 -0.502671 0
M  V30 10500 C 1005.33 3.2229 -1.29408 0
M  V30 10501 C 1004.29 3.53769 -2.40897 0
M  V30 10502 C 1003.61 4.90847 -2.12068 0
M  V30 10503 C 1004.91 3.54862 -3.83237 0
M  V30 10504 H 1006.61 1.82138 -2.37626 0
M  V30 10505 H 1004.15 0.874873 -1.14376 0
M  V30 10506 H 1006.11 4.00819 -1.30085 0
M  V30 10507 H 1004.83 3.2507 -0.31573 0
M  V30 10508 H 1003.49 2.77579 -2.39469 0
M  V30 10509 H 1003.14 4.90229 -1.12626 0
M  V30 10510 H 1002.84 5.12875 -2.86762 0
M  V30 10511 H 1004.36 5.71711 -2.14426 0
M  V30 10512 H 1005.78 4.23432 -3.86494 0
M  V30 10513 H 1004.17 3.88416 -4.57442 0
M  V30 10514 H 1005.24 2.54266 -4.12888 0
M  V30 10515 N 1006.59 1.25851 0.948643 0
M  V30 10516 C 1007.83 1.10735 1.69062 0
M  V30 10517 C 1008.16 -0.351257 1.9181 0
M  V30 10518 O 1007.43 -1.24867 1.50947 0
M  V30 10519 H 1006.01 0.406796 0.626519 0
M  V30 10520 H 1008.67 1.58066 1.14022 0
M  V30 10521 H 1007.76 1.62033 2.66743 0
M  V30 10522 N 1008.06 -1.15214 1.07534 0
M  V30 10523 C 1009 -2.19634 0.655261 0
M  V30 10524 C 1010.01 -1.60139 -0.293165 0
M  V30 10525 O 1011.2 -1.78311 -0.0821957 0
M  V30 10526 C 1008.3 -3.38851 -0.0578281 0
M  V30 10527 C 1007.47 -4.27888 0.90725 0
M  V30 10528 C 1006.53 -5.25692 0.231115 0
M  V30 10529 O 1005.56 -5.62469 0.872746 0
M  V30 10530 N 1006.76 -5.71424 -1.0225 0
M  V30 10531 H 1009.52 -2.56292 1.55353 0
M  V30 10532 H 1007.08 -1.30347 0.960271 0
M  V30 10533 H 1009.08 -4.01334 -0.520874 0
M  V30 10534 H 1007.65 -3.00593 -0.858071 0
M  V30 10535 H 1006.87 -3.62475 1.54937 0
M  V30 10536 H 1008.15 -4.84246 1.56151 0
M  V30 10537 H 1007.55 -5.43659 -1.56369 0
M  V30 10538 H 1006.11 -6.35938 -1.42919 0
M  V30 10539 N 1009.54 -0.859717 -1.32086 0
M  V30 10540 C 1010.51 -0.313005 -2.27053 0
M  V30 10541 C 1011.51 0.530191 -1.51808 0
M  V30 10542 O 1012.7 0.340972 -1.7083 0
M  V30 10543 C 1009.83 0.5566 -3.36325 0
M  V30 10544 H 1011.02 -1.15125 -2.76923 0
M  V30 10545 H 1008.57 -0.634463 -1.42843 0
M  V30 10546 H 1009.31 1.41645 -2.91731 0
M  V30 10547 H 1009.09 -0.0470197 -3.92072 0
M  V30 10548 H 1010.58 0.931725 -4.07073 0
M  V30 10549 N 1011.02 1.44971 -0.618145 0
M  V30 10550 C 1012.25 2.07039 -0.122395 0
M  V30 10551 C 1012.67 1.45793 1.18853 0
M  V30 10552 O 1012.03 0.55453 1.72611 0
M  V30 10553 C 1012.08 3.60599 -0.0073864 0
M  V30 10554 O 1011.18 3.99069 1.04007 0
M  V30 10555 H 1010.52 0.6593 -0.0788615 0
M  V30 10556 H 1013.05 1.86055 -0.851147 0
M  V30 10557 H 1013.06 4.07569 0.187417 0
M  V30 10558 H 1011.74 4.04561 -0.964544 0
M  V30 10559 H 1010.31 3.63753 0.820879 0
M  V30 10560 N 1012.5 0.357919 1.53482 0
M  V30 10561 C 1013.46 -0.479797 2.24122 0
M  V30 10562 C 1014.46 -1.01596 1.24639 0
M  V30 10563 O 1015.65 -0.902928 1.48973 0
M  V30 10564 C 1012.78 -1.66983 2.97203 0
M  V30 10565 H 1013.98 0.138219 2.99581 0
M  V30 10566 H 1011.53 0.109484 1.55916 0
M  V30 10567 H 1012.26 -2.32615 2.25966 0
M  V30 10568 H 1012.05 -1.29242 3.70188 0
M  V30 10569 H 1013.54 -2.26367 3.50924 0
M  V30 10570 N 1013.98 -1.5736 0.0868897 0
M  V30 10571 C 1015.22 -1.9367 -0.577598 0
M  V30 10572 C 1015.55 -0.968844 -1.69229 0
M  V30 10573 O 1014.82 -0.0195061 -1.9589 0
M  V30 10574 H 1013.4 -0.714983 -0.216353 0
M  V30 10575 H 1016.06 -1.94335 0.148294 0
M  V30 10576 H 1015.15 -2.95877 -0.993128 0
M  V30 10577 N 1015.45 0.186762 -1.56489 0
M  V30 10578 C 1016.42 1.21511 -1.94339 0
M  V30 10579 C 1017.42 1.38001 -0.82537 0
M  V30 10580 O 1018.61 1.3567 -1.09266 0
M  V30 10581 C 1015.74 2.583 -2.22472 0
M  V30 10582 H 1016.93 0.891371 -2.86347 0
M  V30 10583 H 1014.49 0.428612 -1.50308 0
M  V30 10584 H 1015.22 2.95715 -1.33129 0
M  V30 10585 H 1015.01 2.47701 -3.03951 0
M  V30 10586 H 1016.5 3.32441 -2.5273 0
M  V30 10587 N 1016.93 1.50896 0.454776 0
M  V30 10588 C 1017.88 1.70947 1.55067 0
M  V30 10589 C 1018.85 0.550899 1.56698 0
M  V30 10590 O 1020.03 0.783352 1.73978 0
M  V30 10591 C 1017.17 1.82455 2.92924 0
M  V30 10592 C 1016.29 3.09919 3.00956 0
M  V30 10593 C 1015.42 3.12125 4.29827 0
M  V30 10594 C 1014.46 4.33975 4.31662 0
M  V30 10595 N 1013.6 4.33828 5.5203 0
M  V30 10596 H 1018.44 2.645 1.37273 0
M  V30 10597 H 1015.98 1.31101 0.667148 0
M  V30 10598 H 1017.93 1.87108 3.72889 0
M  V30 10599 H 1016.56 0.92327 3.09315 0
M  V30 10600 H 1015.62 3.14659 2.13761 0
M  V30 10601 H 1016.93 3.99869 2.98172 0
M  V30 10602 H 1016.08 3.15598 5.18154 0
M  V30 10603 H 1014.82 2.20033 4.35243 0
M  V30 10604 H 1013.83 4.30697 3.41731 0
M  V30 10605 H 1015.05 5.27312 4.27924 0
M  V30 10606 H 1013 3.44598 5.58201 0
M  V30 10607 H 1012.91 5.17566 5.51055 0
M  V30 10608 H 1014.18 4.4147 6.42437 0
M  V30 10609 N 1018.41 -0.709066 1.40748 0
M  V30 10610 C 1019.32 -1.85314 1.43861 0
M  V30 10611 C 1020.34 -1.70832 0.330539 0
M  V30 10612 O 1021.51 -1.92983 0.576152 0
M  V30 10613 C 1018.58 -3.21174 1.30568 0
M  V30 10614 C 1017.64 -3.47863 2.51574 0
M  V30 10615 C 1016.87 -4.77241 2.38906 0
M  V30 10616 O 1017.09 -5.52791 1.40636 0
M  V30 10617 O 1016.03 -5.04413 3.28407 0
M  V30 10618 H 1019.85 -1.85644 2.40354 0
M  V30 10619 H 1017.44 -0.860352 1.2214 0
M  V30 10620 H 1019.32 -4.02313 1.25388 0
M  V30 10621 H 1018 -3.21557 0.371841 0
M  V30 10622 H 1016.9 -2.66708 2.62331 0
M  V30 10623 H 1018.24 -3.52283 3.43741 0
M  V30 10624 N 1019.89 -1.26353 -0.941956 0
M  V30 10625 C 1020.82 -1.10341 -2.05784 0
M  V30 10626 C 1021.8 -0.00881565 -1.70098 0
M  V30 10627 O 1022.99 -0.180699 -1.93357 0
M  V30 10628 C 1020.12 -0.734788 -3.39438 0
M  V30 10629 C 1019.07 -1.78103 -3.89183 0
M  V30 10630 C 1018.4 -1.26675 -5.19478 0
M  V30 10631 C 1019.7 -3.1824 -4.14151 0
M  V30 10632 H 1021.39 -2.03684 -2.19438 0
M  V30 10633 H 1018.94 -0.980698 -1.05443 0
M  V30 10634 H 1020.89 -0.609653 -4.16967 0
M  V30 10635 H 1019.61 0.234354 -3.25758 0
M  V30 10636 H 1018.27 -1.89482 -3.13835 0
M  V30 10637 H 1017.92 -0.287472 -5.02178 0
M  V30 10638 H 1017.62 -1.96612 -5.53731 0
M  V30 10639 H 1019.14 -1.15427 -5.99591 0
M  V30 10640 H 1020.56 -3.09942 -4.82296 0
M  V30 10641 H 1018.95 -3.8576 -4.59684 0
M  V30 10642 H 1020.02 -3.64354 -3.19959 0
M  V30 10643 N 1021.37 1.14642 -1.08144 0
M  V30 10644 C 1022.6 1.89484 -0.830864 0
M  V30 10645 C 1023.01 1.78443 0.616722 0
M  V30 10646 O 1022.37 1.14191 1.42361 0
M  V30 10647 C 1022.42 3.39554 -1.24039 0
M  V30 10648 O 1022.14 3.50286 -2.63119 0
M  V30 10649 C 1023.64 4.31399 -1.02029 0
M  V30 10650 H 1020.86 0.600283 -0.299835 0
M  V30 10651 H 1023.4 1.45204 -1.44001 0
M  V30 10652 H 1021.56 3.81467 -0.675407 0
M  V30 10653 H 1021.97 4.43481 -2.80045 0
M  V30 10654 H 1023.45 5.35079 -1.35625 0
M  V30 10655 H 1023.92 4.39179 0.0428697 0
M  V30 10656 H 1024.53 3.95238 -1.57057 0
M  V30 10657 N 1022.85 0.866709 1.31628 0
M  V30 10658 C 1024.09 0.475086 1.96437 0
M  V30 10659 C 1024.41 -0.975179 1.68865 0
M  V30 10660 O 1023.68 -1.68317 1.0023 0
M  V30 10661 H 1022.26 0.172695 0.726764 0
M  V30 10662 H 1024.93 1.10578 1.60494 0
M  V30 10663 H 1024.02 0.630123 3.05673 0
M  V30 10664 N 1024.32 -1.44642 0.625825 0
M  V30 10665 C 1025.25 -2.33397 -0.0692188 0
M  V30 10666 C 1026.23 -1.47898 -0.840241 0
M  V30 10667 O 1027.42 -1.7663 -0.807176 0
M  V30 10668 C 1024.55 -3.30888 -1.055 0
M  V30 10669 C 1023.5 -4.26164 -0.395968 0
M  V30 10670 C 1022.83 -5.13483 -1.49128 0
M  V30 10671 C 1024.13 -5.17663 0.694433 0
M  V30 10672 H 1025.82 -2.91763 0.671925 0
M  V30 10673 H 1023.37 -1.40294 0.324573 0
M  V30 10674 H 1025.32 -3.91861 -1.54993 0
M  V30 10675 H 1024.05 -2.7072 -1.82696 0
M  V30 10676 H 1022.71 -3.66516 0.0782691 0
M  V30 10677 H 1022.35 -4.49672 -2.25399 0
M  V30 10678 H 1022.05 -5.78038 -1.05573 0
M  V30 10679 H 1023.58 -5.77327 -1.98813 0
M  V30 10680 H 1024.99 -5.72602 0.282818 0
M  V30 10681 H 1023.39 -5.90793 1.05281 0
M  V30 10682 H 1024.46 -4.58994 1.56372 0
M  V30 10683 N 1025.8 -0.366053 -1.5329 0
M  V30 10684 C 1026.73 0.47211 -2.28677 0
M  V30 10685 C 1027.71 1.08353 -1.31125 0
M  V30 10686 O 1028.9 1.10069 -1.59995 0
M  V30 10687 C 1026.03 1.61174 -3.07637 0
M  V30 10688 C 1024.98 1.12755 -4.12881 0
M  V30 10689 C 1024.31 2.35745 -4.79925 0
M  V30 10690 C 1025.61 0.211954 -5.2187 0
M  V30 10691 H 1027.3 -0.156838 -2.98989 0
M  V30 10692 H 1024.85 -0.0768709 -1.43795 0
M  V30 10693 H 1026.8 2.20473 -3.59123 0
M  V30 10694 H 1025.52 2.26793 -2.35016 0
M  V30 10695 H 1024.18 0.557234 -3.6234 0
M  V30 10696 H 1023.83 2.99821 -4.03877 0
M  V30 10697 H 1023.53 2.04019 -5.51044 0
M  V30 10698 H 1025.06 2.95729 -5.34207 0
M  V30 10699 H 1026.47 0.71244 -5.68856 0
M  V30 10700 H 1024.87 -0.0144501 -6.00098 0
M  V30 10701 H 1025.94 -0.745753 -4.79131 0
M  V30 10702 N 1027.28 1.57312 -0.0952337 0
M  V30 10703 C 1028.51 1.98697 0.57682 0
M  V30 10704 C 1028.92 0.974347 1.61716 0
M  V30 10705 O 1028.28 -0.036022 1.82464 0
M  V30 10706 C 1028.33 3.40133 1.2244 0
M  V30 10707 O 1028.05 4.37518 0.225678 0
M  V30 10708 C 1029.55 3.96522 1.98205 0
M  V30 10709 H 1026.77 0.65294 0.154629 0
M  V30 10710 H 1029.32 2.03754 -0.174562 0
M  V30 10711 H 1027.47 3.3609 1.92671 0
M  V30 10712 H 1027.89 5.199 0.693116 0
M  V30 10713 H 1029.36 4.97637 2.38875 0
M  V30 10714 H 1029.84 3.34347 2.84796 0
M  V30 10715 H 1030.44 4.04038 1.3279 0
M  V30 10716 N 1028.76 -0.17846 1.56586 0
M  V30 10717 C 1029.99 -0.911996 1.85715 0
M  V30 10718 C 1030.4 -1.76138 0.679766 0
M  V30 10719 O 1029.76 -1.79088 -0.351266 0
M  V30 10720 C 1029.81 -1.79459 3.1381 0
M  V30 10721 O 1029.53 -0.979476 4.2701 0
M  V30 10722 C 1031.03 -2.6384 3.56235 0
M  V30 10723 H 1028.25 -0.265299 0.616326 0
M  V30 10724 H 1030.79 -0.180704 2.037 0
M  V30 10725 H 1028.95 -2.4793 2.97673 0
M  V30 10726 H 1029.36 -1.58244 5.00059 0
M  V30 10727 H 1030.84 -3.21396 4.48786 0
M  V30 10728 H 1031.31 -3.38363 2.80013 0
M  V30 10729 H 1031.92 -2.00712 3.7496 0
M  V30 10730 N 1030.24 -1.51135 -0.446768 0
M  V30 10731 C 1031.2 -1.71187 -1.52406 0
M  V30 10732 C 1032.2 -0.582037 -1.49897 0
M  V30 10733 O 1033.39 -0.849452 -1.52085 0
M  V30 10734 C 1030.52 -1.75962 -2.91976 0
M  V30 10735 H 1031.71 -2.67324 -1.35934 0
M  V30 10736 H 1029.27 -1.40982 -0.674813 0
M  V30 10737 H 1030 -0.816065 -3.13864 0
M  V30 10738 H 1029.79 -2.58065 -2.95203 0
M  V30 10739 H 1031.28 -1.93347 -3.70144 0
M  V30 10740 N 1031.71 0.701592 -1.41122 0
M  V30 10741 C 1032.66 1.81559 -1.42495 0
M  V30 10742 C 1033.63 1.63722 -0.280078 0
M  V30 10743 O 1034.82 1.84658 -0.480231 0
M  V30 10744 C 1031.96 3.19392 -1.30702 0
M  V30 10745 C 1031.07 3.48704 -2.55009 0
M  V30 10746 C 1030.2 4.76118 -2.35554 0
M  V30 10747 C 1029.24 4.98378 -3.55367 0
M  V30 10748 N 1028.38 6.17014 -3.3502 0
M  V30 10749 H 1033.22 1.7972 -2.37707 0
M  V30 10750 H 1030.76 0.877727 -1.18044 0
M  V30 10751 H 1032.71 3.99004 -1.21867 0
M  V30 10752 H 1031.34 3.20423 -0.391012 0
M  V30 10753 H 1030.4 2.63542 -2.74317 0
M  V30 10754 H 1031.71 3.61057 -3.44151 0
M  V30 10755 H 1030.86 5.63774 -2.24152 0
M  V30 10756 H 1029.6 4.66 -1.43859 0
M  V30 10757 H 1028.61 4.09172 -3.6723 0
M  V30 10758 H 1029.83 5.10359 -4.48007 0
M  V30 10759 H 1027.78 6.0812 -2.4602 0
M  V30 10760 H 1027.69 6.30107 -4.17733 0
M  V30 10761 H 1028.96 7.0742 -3.27379 0
M  V30 10762 N 1033.19 1.2685 0.935242 0
M  V30 10763 C 1034.42 1.15645 1.72165 0
M  V30 10764 C 1034.84 -0.283909 1.85945 0
M  V30 10765 O 1034.2 -1.20567 1.354 0
M  V30 10766 C 1034.25 1.83689 3.10307 0
M  V30 10767 O 1033.35 1.12972 3.96625 0
M  V30 10768 H 1032.69 0.402629 0.528002 0
M  V30 10769 H 1035.22 1.67781 1.17093 0
M  V30 10770 H 1035.23 1.90749 3.60664 0
M  V30 10771 H 1033.91 2.88472 2.99595 0
M  V30 10772 H 1032.48 1.13929 3.5507 0
M  V30 10773 N 1034.67 -1.14067 1.0875 0
M  V30 10774 C 1035.9 -1.89582 0.841038 0
M  V30 10775 C 1036.32 -1.78226 -0.601436 0
M  V30 10776 O 1035.68 -1.12491 -1.42181 0
M  V30 10777 C 1035.73 -3.37415 1.27213 0
M  V30 10778 O 1034.83 -4.10191 0.426246 0
M  V30 10779 H 1034.17 -0.589716 0.305173 0
M  V30 10780 H 1036.7 -1.44364 1.44984 0
M  V30 10781 H 1036.71 -3.88234 1.25451 0
M  V30 10782 H 1035.39 -3.44999 2.32268 0
M  V30 10783 H 1033.96 -3.69429 0.507585 0
M  V30 10784 N 1036.15 -0.873678 -1.31166 0
M  V30 10785 C 1037.37 -0.500242 -2.01277 0
M  V30 10786 C 1037.8 0.900811 -1.65127 0
M  V30 10787 O 1037.16 1.59504 -0.861862 0
M  V30 10788 C 1037.2 -0.668976 -3.5434 0
M  V30 10789 O 1036.31 0.290096 -4.11378 0
M  V30 10790 H 1035.65 -0.198507 -0.633633 0
M  V30 10791 H 1038.18 -1.17811 -1.67277 0
M  V30 10792 H 1038.19 -0.563673 -4.04088 0
M  V30 10793 H 1036.86 -1.69055 -3.79991 0
M  V30 10794 H 1035.44 0.139437 -3.72639 0
M  V30 10795 N 1037.63 1.44308 -0.633487 0
M  V30 10796 C 1038.85 2.06897 -0.144347 0
M  V30 10797 C 1039.28 1.47045 1.173 0
M  V30 10798 O 1038.63 0.572806 1.72013 0
M  V30 10799 C 1038.68 3.60571 -0.0456324 0
M  V30 10800 O 1037.79 4.0015 0.997682 0
M  V30 10801 H 1037.13 0.658427 -0.0858499 0
M  V30 10802 H 1039.66 1.85142 -0.870833 0
M  V30 10803 H 1039.67 4.07745 0.144178 0
M  V30 10804 H 1038.34 4.03515 -1.0074 0
M  V30 10805 H 1036.92 3.64603 0.782252 0
M  V30 10806 N 1039.1 0.374177 1.53094 0
M  V30 10807 C 1040.01 -0.475935 2.29722 0
M  V30 10808 C 1041.03 -1.085 1.36029 0
M  V30 10809 O 1042.21 -1.09408 1.69091 0
M  V30 10810 C 1039.27 -1.59572 3.07795 0
M  V30 10811 C 1038.33 -1.01332 4.17169 0
M  V30 10812 C 1037.57 -2.07975 4.9151 0
M  V30 10813 O 1037.79 -3.29232 4.65793 0
M  V30 10814 O 1036.72 -1.7055 5.77232 0
M  V30 10815 H 1040.55 0.147877 3.0334 0
M  V30 10816 H 1038.13 0.138312 1.48758 0
M  V30 10817 H 1040.02 -2.24658 3.5652 0
M  V30 10818 H 1038.69 -2.20478 2.37005 0
M  V30 10819 H 1037.6 -0.326133 3.72676 0
M  V30 10820 H 1038.93 -0.4487 4.90151 0
M  V30 10821 N 1040.58 -1.57259 0.103575 0
M  V30 10822 C 1041.83 -1.94272 -0.557024 0
M  V30 10823 C 1042.15 -0.986739 -1.68192 0
M  V30 10824 O 1041.42 -0.0402818 -1.95859 0
M  V30 10825 H 1040 -0.717237 -0.208757 0
M  V30 10826 H 1042.66 -1.94167 0.168898 0
M  V30 10827 H 1041.76 -2.96914 -0.961691 0
M  V30 10828 N 1042.06 0.170153 -1.56679 0
M  V30 10829 C 1043.31 0.884841 -1.817 0
M  V30 10830 C 1043.63 1.82731 -0.680763 0
M  V30 10831 O 1042.9 1.936 0.299294 0
M  V30 10832 H 1041.48 0.329738 -0.670285 0
M  V30 10833 H 1044.14 0.169691 -1.9416 0
M  V30 10834 H 1043.24 1.46104 -2.7579 0
M  V30 10835 N 1043.54 1.5137 0.438746 0
M  V30 10836 C 1044.78 1.64211 1.19006 0
M  V30 10837 C 1045.12 0.356607 1.90898 0
M  V30 10838 O 1044.39 -0.643722 1.83539 0
M  V30 10839 C 1044.68 2.8445 2.20817 0
M  V30 10840 C 1044.53 4.22972 1.53018 0
M  V30 10841 C 1045.85 3.00207 3.21813 0
M  V30 10842 H 1042.97 0.597628 0.431288 0
M  V30 10843 H 1045.61 1.8385 0.479487 0
M  V30 10844 H 1043.76 2.67836 2.81418 0
M  V30 10845 H 1045.43 4.5125 0.957654 0
M  V30 10846 H 1043.67 4.25736 0.832556 0
M  V30 10847 H 1044.34 5.03094 2.27158 0
M  V30 10848 H 1046.82 3.15522 2.71266 0
M  V30 10849 H 1045.7 3.85904 3.90345 0
M  V30 10850 H 1045.96 2.12216 3.87836 0
M  V30 10851 N 1045.02 -0.694098 1.41492 0
M  V30 10852 C 1046.24 -1.48789 1.44488 0
M  V30 10853 C 1046.67 -1.88028 0.0521588 0
M  V30 10854 O 1046.02 -1.54727 -0.944952 0
M  V30 10855 C 1046.07 -2.72586 2.3607 0
M  V30 10856 O 1045.18 -3.70128 1.81876 0
M  V30 10857 H 1044.52 -0.447758 0.490315 0
M  V30 10858 H 1047.05 -0.853036 1.85969 0
M  V30 10859 H 1047.06 -3.20877 2.51995 0
M  V30 10860 H 1045.73 -2.43363 3.37264 0
M  V30 10861 H 1044.31 -3.29069 1.75408 0
M  V30 10862 N 1046.49 -1.27344 -0.928501 0
M  V30 10863 C 1047.46 -1.10043 -2.01055 0
M  V30 10864 C 1048.46 -0.0446793 -1.60738 0
M  V30 10865 O 1049.65 -0.289202 -1.71783 0
M  V30 10866 C 1046.78 -0.676559 -3.34119 0
M  V30 10867 H 1047.97 -2.06126 -2.17835 0
M  V30 10868 H 1045.53 -1.10121 -1.10919 0
M  V30 10869 H 1046.26 0.285697 -3.23039 0
M  V30 10870 H 1046.05 -1.43903 -3.64739 0
M  V30 10871 H 1047.54 -0.577725 -4.13584 0
M  V30 10872 N 1047.97 1.13488 -1.09353 0
M  V30 10873 C 1049.2 1.89133 -0.85108 0
M  V30 10874 C 1049.62 1.78542 0.591976 0
M  V30 10875 O 1048.98 1.13243 1.41583 0
M  V30 10876 C 1049.03 3.36736 -1.29001 0
M  V30 10877 O 1048.13 4.09959 -0.447993 0
M  V30 10878 H 1047.47 0.58809 -0.308296 0
M  V30 10879 H 1050 1.43593 -1.45747 0
M  V30 10880 H 1050.01 3.87564 -1.27508 0
M  V30 10881 H 1048.69 3.43762 -2.34095 0
M  V30 10882 H 1047.27 3.69155 -0.52717 0
M  V30 10883 N 1049.45 0.880621 1.30701 0
M  V30 10884 C 1050.86 0.547993 1.78477 0
M  V30 10885 C 1051.21 -0.935633 1.72454 0
M  V30 10886 O 1050.34 -1.73094 1.29874 0
M  V30 10887 C 1050.93 0.98795 3.24076 0
M  V30 10888 C 1049.49 0.706805 3.69704 0
M  V30 10889 C 1048.64 1.17335 2.51252 0
M  V30 10890 H 1051.59 1.06528 1.17633 0
M  V30 10891 H 1051.61 0.31508 3.79193 0
M  V30 10892 H 1051.12 2.06778 3.28427 0
M  V30 10893 H 1049.22 -0.36122 3.70845 0
M  V30 10894 H 1049.34 1.2913 4.6137 0
M  V30 10895 H 1047.7 0.592808 2.47705 0
M  V30 10896 H 1048.48 2.26083 2.58343 0
M  V30 10897 N 1050.93 -1.4397 0.641131 0
M  V30 10898 C 1052.18 -2.02246 0.14985 0
M  V30 10899 C 1052.51 -1.50387 -1.22871 0
M  V30 10900 O 1051.78 -0.692003 -1.81773 0
M  V30 10901 C 1052.07 -3.59798 0.147449 0
M  V30 10902 C 1051.92 -4.21916 1.55907 0
M  V30 10903 C 1053.24 -4.36985 -0.522667 0
M  V30 10904 H 1050.36 -0.734875 0.0559274 0
M  V30 10905 H 1053 -1.71418 0.819513 0
M  V30 10906 H 1051.15 -3.86193 -0.422789 0
M  V30 10907 H 1052.82 -4.06594 2.17896 0
M  V30 10908 H 1051.06 -3.79028 2.10998 0
M  V30 10909 H 1051.74 -5.30964 1.50934 0
M  V30 10910 H 1054.21 -4.16083 -0.0376226 0
M  V30 10911 H 1053.09 -5.46676 -0.493572 0
M  V30 10912 H 1053.35 -4.12335 -1.59475 0
M  V30 10913 N 1052.41 -0.382291 -1.52893 0
M  V30 10914 C 1053.82 0.0932841 -1.86467 0
M  V30 10915 C 1054.17 1.4675 -1.30226 0
M  V30 10916 O 1053.29 2.07001 -0.63084 0
M  V30 10917 C 1053.89 0.176048 -3.38342 0
M  V30 10918 C 1052.45 0.595904 -3.71653 0
M  V30 10919 C 1051.6 -0.246511 -2.76202 0
M  V30 10920 H 1054.55 -0.600443 -1.46903 0
M  V30 10921 H 1054.57 0.996512 -3.67219 0
M  V30 10922 H 1054.08 -0.824264 -3.79246 0
M  V30 10923 H 1052.18 1.60384 -3.36315 0
M  V30 10924 H 1052.29 0.358919 -4.77754 0
M  V30 10925 H 1050.66 0.287162 -2.53076 0
M  V30 10926 H 1051.44 -1.24467 -3.19942 0
M  V30 10927 N 1053.89 1.57202 -0.111913 0
M  V30 10928 C 1055.11 1.99723 0.559054 0
M  V30 10929 C 1055.54 0.990968 1.59879 0
M  V30 10930 O 1054.89 -0.038311 1.8126 0
M  V30 10931 C 1054.94 3.41151 1.16826 0
M  V30 10932 O 1054.05 3.43383 2.2839 0
M  V30 10933 H 1053.39 0.649004 0.140319 0
M  V30 10934 H 1055.92 2.03637 -0.198295 0
M  V30 10935 H 1055.93 3.79208 1.50551 0
M  V30 10936 H 1054.6 4.13907 0.406637 0
M  V30 10937 H 1053.18 3.17138 1.96158 0
M  V30 10938 N 1055.36 -0.161842 1.56767 0
M  V30 10939 C 1056.61 -0.878224 1.82798 0
M  V30 10940 C 1056.94 -1.81481 0.691242 0
M  V30 10941 O 1056.22 -1.92075 -0.30618 0
M  V30 10942 C 1056.5 -1.66565 3.19262 0
M  V30 10943 C 1056.35 -0.751551 4.43477 0
M  V30 10944 C 1057.67 -2.63134 3.52773 0
M  V30 10945 H 1054.79 -0.317828 0.664947 0
M  V30 10946 H 1057.43 -0.14402 1.89453 0
M  V30 10947 H 1055.58 -2.29157 3.13719 0
M  V30 10948 H 1057.26 -0.137783 4.61094 0
M  V30 10949 H 1055.5 -0.0601785 4.33758 0
M  V30 10950 H 1056.17 -1.33823 5.35533 0
M  V30 10951 H 1058.65 -2.10666 3.5883 0
M  V30 10952 H 1057.52 -3.15289 4.49315 0
M  V30 10953 H 1057.78 -3.43786 2.77963 0
M  V30 10954 N 1056.84 -1.516 -0.430713 0
M  V30 10955 C 1058.09 -1.6484 -1.18134 0
M  V30 10956 C 1058.42 -0.366725 -1.90706 0
M  V30 10957 O 1057.7 0.63398 -1.83878 0
M  V30 10958 C 1057.98 -2.85617 -2.19306 0
M  V30 10959 C 1057.83 -4.23778 -1.50773 0
M  V30 10960 C 1059.15 -3.01909 -3.20217 0
M  V30 10961 H 1056.27 -0.599907 -0.428113 0
M  V30 10962 H 1058.91 -1.84102 -0.46973 0
M  V30 10963 H 1057.06 -2.69325 -2.79993 0
M  V30 10964 H 1058.73 -4.51752 -0.93371 0
M  V30 10965 H 1056.98 -4.26171 -0.809966 0
M  V30 10966 H 1057.65 -5.04291 -2.24487 0
M  V30 10967 H 1060.12 -3.16956 -2.69589 0
M  V30 10968 H 1059 -3.87968 -3.88293 0
M  V30 10969 H 1059.26 -2.1427 -3.86705 0
M  V30 10970 N 1058.32 0.686584 -1.41858 0
M  V30 10971 C 1059.54 1.4802 -1.45275 0
M  V30 10972 C 1059.97 1.87997 -0.0621297 0
M  V30 10973 O 1059.33 1.55226 0.936733 0
M  V30 10974 C 1059.38 2.7133 -2.37513 0
M  V30 10975 O 1058.48 3.69159 -1.83836 0
M  V30 10976 H 1057.82 0.445152 -0.492682 0
M  V30 10977 H 1060.35 0.843161 -1.86419 0
M  V30 10978 H 1060.36 3.19537 -2.53693 0
M  V30 10979 H 1059.04 2.41571 -3.3855 0
M  V30 10980 H 1057.61 3.28134 -1.77151 0
M  V30 10981 N 1059.8 1.27835 0.921735 0
M  V30 10982 C 1061.02 1.17465 1.70929 0
M  V30 10983 C 1061.45 -0.264171 1.86236 0
M  V30 10984 O 1060.81 -1.19124 1.36671 0
M  V30 10985 C 1060.85 1.8697 3.08342 0
M  V30 10986 O 1059.96 1.17173 3.95404 0
M  V30 10987 H 1059.3 0.408206 0.523702 0
M  V30 10988 H 1061.83 1.69013 1.15307 0
M  V30 10989 H 1061.84 1.94564 3.58621 0
M  V30 10990 H 1060.51 2.91633 2.96518 0
M  V30 10991 H 1059.09 1.17688 3.53842 0
M  V30 10992 N 1061.28 -1.12907 1.09954 0
M  V30 10993 C 1062.5 -1.88679 0.861099 0
M  V30 10994 C 1062.93 -1.78853 -0.582499 0
M  V30 10995 O 1062.28 -1.13992 -1.4098 0
M  V30 10996 C 1062.33 -3.36047 1.30785 0
M  V30 10997 O 1061.44 -4.09716 0.469728 0
M  V30 10998 H 1060.78 -0.586447 0.31141 0
M  V30 10999 H 1063.31 -1.42818 1.46507 0
M  V30 11000 H 1063.32 -3.86882 1.29562 0
M  V30 11001 H 1061.99 -3.42516 2.35914 0
M  V30 11002 H 1060.57 -3.6887 0.54674 0
M  V30 11003 N 1062.75 -0.88754 -1.30232 0
M  V30 11004 C 1063.98 -0.522306 -2.00199 0
M  V30 11005 C 1064.4 0.889866 -1.66514 0
M  V30 11006 O 1063.75 1.58558 -0.903639 0
M  V30 11007 C 1063.8 -0.690551 -3.54843 0
M  V30 11008 O 1063.53 -2.04713 -3.8733 0
M  V30 11009 C 1065.03 -0.328649 -4.4208 0
M  V30 11010 H 1062.25 -0.201628 -0.63999 0
M  V30 11011 H 1064.79 -1.19355 -1.66056 0
M  V30 11012 H 1062.95 -0.0666493 -3.87343 0
M  V30 11013 H 1063.36 -2.06762 -4.82027 0
M  V30 11014 H 1064.83 -0.497257 -5.49756 0
M  V30 11015 H 1065.31 0.733502 -4.33032 0
M  V30 11016 H 1065.92 -0.928982 -4.1503 0
M  V30 11017 N 1064.23 1.43628 -0.648757 0
M  V30 11018 C 1065.2 2.29172 0.0360713 0
M  V30 11019 C 1066.2 1.41974 0.754976 0
M  V30 11020 O 1067.39 1.63654 0.5969 0
M  V30 11021 C 1064.52 3.23942 1.0618 0
M  V30 11022 H 1065.71 2.91214 -0.716544 0
M  V30 11023 H 1063.26 1.50833 -0.409759 0
M  V30 11024 H 1064 2.66786 1.8438 0
M  V30 11025 H 1063.78 3.88223 0.550016 0
M  V30 11026 H 1065.27 3.8816 1.54019 0
M  V30 11027 N 1065.71 0.390394 1.52688 0
M  V30 11028 C 1067.12 -0.083394 1.86514 0
M  V30 11029 C 1067.47 -1.46057 1.31003 0
M  V30 11030 O 1066.6 -2.06663 0.641809 0
M  V30 11031 C 1067.19 -0.158102 3.38431 0
M  V30 11032 C 1065.75 -0.576186 3.71964 0
M  V30 11033 C 1064.9 0.261156 2.76068 0
M  V30 11034 H 1067.85 0.608226 1.46582 0
M  V30 11035 H 1067.87 -0.977023 3.67742 0
M  V30 11036 H 1067.38 0.844365 3.78803 0
M  V30 11037 H 1065.48 -1.58598 3.37161 0
M  V30 11038 H 1065.6 -0.333577 4.77937 0
M  V30 11039 H 1063.96 -0.273737 2.53225 0
M  V30 11040 H 1064.74 1.26162 3.19277 0
M  V30 11041 N 1067.19 -1.57141 0.120249 0
M  V30 11042 C 1068.41 -2.00017 -0.548454 0
M  V30 11043 C 1068.84 -0.999433 -1.59352 0
M  V30 11044 O 1068.2 0.0286978 -1.81277 0
M  V30 11045 C 1068.24 -3.41766 -1.15015 0
M  V30 11046 O 1067.35 -3.44589 -2.26566 0
M  V30 11047 H 1066.69 -0.649739 -0.136875 0
M  V30 11048 H 1069.22 -2.03529 0.209092 0
M  V30 11049 H 1069.23 -3.80001 -1.48537 0
M  V30 11050 H 1067.9 -4.14117 -0.384681 0
M  V30 11051 H 1066.48 -3.18174 -1.94473 0
M  V30 11052 N 1068.67 0.153526 -1.5685 0
M  V30 11053 C 1069.63 1.17362 -1.96873 0
M  V30 11054 C 1070.63 1.36219 -0.854456 0
M  V30 11055 O 1071.82 1.33322 -1.1212 0
M  V30 11056 C 1068.95 2.53523 -2.27901 0
M  V30 11057 H 1070.14 0.830432 -2.88173 0
M  V30 11058 H 1067.7 0.396633 -1.51184 0
M  V30 11059 H 1068.43 2.92824 -1.39371 0
M  V30 11060 H 1068.22 2.41198 -3.09137 0
M  V30 11061 H 1069.71 3.27006 -2.59725 0
M  V30 11062 N 1070.14 1.51827 0.422667 0
M  V30 11063 C 1071.07 1.77152 1.52117 0
M  V30 11064 C 1072.06 0.621895 1.58324 0
M  V30 11065 O 1073.24 0.866118 1.73816 0
M  V30 11066 C 1070.37 1.90991 2.90068 0
M  V30 11067 C 1069.32 3.06516 2.98717 0
M  V30 11068 C 1068.65 3.05559 4.38791 0
M  V30 11069 C 1069.95 4.46223 2.71445 0
M  V30 11070 H 1071.64 2.69135 1.31175 0
M  V30 11071 H 1069.19 1.29507 0.629607 0
M  V30 11072 H 1071.14 2.07291 3.6689 0
M  V30 11073 H 1069.87 0.956688 3.12274 0
M  V30 11074 H 1068.53 2.89945 2.24338 0
M  V30 11075 H 1068.17 2.07985 4.57986 0
M  V30 11076 H 1067.87 3.83144 4.45505 0
M  V30 11077 H 1069.4 3.23971 5.17566 0
M  V30 11078 H 1070.81 4.63069 3.37994 0
M  V30 11079 H 1069.21 5.25623 2.89552 0
M  V30 11080 H 1070.28 4.5525 1.6696 0
M  V30 11081 N 1071.62 -0.679052 1.4222 0
M  V30 11082 C 1072.57 -1.78522 1.41824 0
M  V30 11083 C 1073.56 -1.58262 0.290179 0
M  V30 11084 O 1074.75 -1.68813 0.532092 0
M  V30 11085 C 1071.88 -3.16952 1.31895 0
M  V30 11086 C 1070.96 -3.42849 2.4963 0
M  V30 11087 N 1071.35 -3.39354 3.75063 0
M  V30 11088 C 1069.65 -3.73468 2.43799 0
M  V30 11089 C 1070.35 -3.64617 4.53243 0
M  V30 11090 N 1069.33 -3.85174 3.83591 0
M  V30 11091 H 1073.13 -1.74206 2.36705 0
M  V30 11092 H 1070.65 -0.879719 1.36509 0
M  V30 11093 H 1072.64 -3.96214 1.29693 0
M  V30 11094 H 1071.3 -3.22467 0.380127 0
M  V30 11095 H 1072.31 -3.19354 4.07718 0
M  V30 11096 H 1068.99 -3.86254 1.58474 0
M  V30 11097 H 1070.38 -3.67912 5.62219 0
M  V30 11098 N 1073.1 -1.28322 -0.914942 0
M  V30 11099 C 1074.33 -1.18254 -1.69775 0
M  V30 11100 C 1074.74 0.258978 -1.87015 0
M  V30 11101 O 1074.1 1.17514 -1.3963 0
M  V30 11102 C 1074.15 -1.8753 -3.09054 0
M  V30 11103 O 1073.87 -3.26051 -2.92613 0
M  V30 11104 C 1075.37 -1.83749 -4.03424 0
M  V30 11105 H 1072.59 -0.41055 -0.530744 0
M  V30 11106 H 1075.14 -1.69425 -1.14523 0
M  V30 11107 H 1073.29 -1.40233 -3.61128 0
M  V30 11108 H 1073.71 -3.60729 -3.80756 0
M  V30 11109 H 1075.18 -2.36813 -4.98622 0
M  V30 11110 H 1075.66 -0.809601 -4.31674 0
M  V30 11111 H 1076.26 -2.3072 -3.57279 0
M  V30 11112 N 1074.58 1.12322 -1.10551 0
M  V30 11113 C 1075.51 2.20176 -0.777486 0
M  V30 11114 C 1076.49 1.68252 0.250069 0
M  V30 11115 O 1077.67 1.93856 0.115574 0
M  V30 11116 C 1074.8 3.46666 -0.209822 0
M  V30 11117 C 1073.76 4.11749 -1.1682 0
M  V30 11118 C 1073.08 5.32703 -0.461684 0
M  V30 11119 C 1074.38 4.57746 -2.51527 0
M  V30 11120 H 1076.08 2.47872 -1.67928 0
M  V30 11121 H 1073.62 1.19136 -0.808863 0
M  V30 11122 H 1075.58 4.21388 0.0318068 0
M  V30 11123 H 1074.3 3.18401 0.727226 0
M  V30 11124 H 1072.96 3.39009 -1.3953 0
M  V30 11125 H 1072.61 5.00706 0.479875 0
M  V30 11126 H 1072.31 5.77197 -1.1008 0
M  V30 11127 H 1073.83 6.10172 -0.228629 0
M  V30 11128 H 1075.25 5.23835 -2.32958 0
M  V30 11129 H 1073.64 5.13021 -3.11335 0
M  V30 11130 H 1074.71 3.71667 -3.11435 0
M  V30 11131 N 1076.06 0.894434 1.2976 0
M  V30 11132 C 1076.99 0.325525 2.26877 0
M  V30 11133 C 1078 -0.525218 1.54095 0
M  V30 11134 O 1079.19 -0.343231 1.75169 0
M  V30 11135 C 1076.29 -0.554952 3.34325 0
M  V30 11136 C 1075.46 0.268868 4.36573 0
M  V30 11137 C 1074.52 -0.543601 5.23385 0
M  V30 11138 O 1073.55 0.0370454 5.69188 0
M  V30 11139 N 1074.75 -1.85079 5.50205 0
M  V30 11140 H 1077.52 1.16021 2.76332 0
M  V30 11141 H 1075.08 0.758382 1.43039 0
M  V30 11142 H 1077.07 -1.10476 3.89329 0
M  V30 11143 H 1075.64 -1.29031 2.84727 0
M  V30 11144 H 1074.86 1.0001 3.81302 0
M  V30 11145 H 1076.15 0.833248 5.01931 0
M  V30 11146 H 1075.54 -2.34533 5.14792 0
M  V30 11147 H 1074.1 -2.34784 6.08046 0
M  V30 11148 N 1077.53 -1.43282 0.656365 0
M  V30 11149 C 1078.76 -2.06641 0.177245 0
M  V30 11150 C 1079.18 -1.48893 -1.14946 0
M  V30 11151 O 1078.54 -0.600099 -1.7108 0
M  V30 11152 C 1078.59 -3.60453 0.10299 0
M  V30 11153 O 1077.69 -4.01687 -0.933895 0
M  V30 11154 H 1077.04 -0.656978 0.096314 0
M  V30 11155 H 1079.57 -1.83733 0.900178 0
M  V30 11156 H 1079.58 -4.07923 -0.079291 0
M  V30 11157 H 1078.25 -4.01861 1.07147 0
M  V30 11158 H 1076.83 -3.65801 -0.724148 0
M  V30 11159 N 1079.01 -0.398486 -1.52479 0
M  V30 11160 C 1080.43 -0.0488635 -1.59525 0
M  V30 11161 C 1080.63 1.43756 -1.41197 0
M  V30 11162 O 1079.69 2.20317 -1.23357 0
M  V30 11163 C 1081 -0.534262 -2.95916 0
M  V30 11164 C 1082.55 -0.491314 -3.0912 0
M  V30 11165 C 1083.02 -0.953049 -4.47974 0
M  V30 11166 N 1084.51 -0.909434 -4.54184 0
M  V30 11167 C 1085.25 -1.23801 -5.59876 0
M  V30 11168 N 1084.74 -1.63752 -6.73169 0
M  V30 11169 N 1086.54 -1.15867 -5.50028 0
M  V30 11170 H 1078.69 -1.36608 -1.62641 0
M  V30 11171 H 1080.95 -0.560515 -0.764544 0
M  V30 11172 H 1080.66 -1.57277 -3.14574 0
M  V30 11173 H 1080.53 0.0617787 -3.77149 0
M  V30 11174 H 1082.92 0.538123 -2.90152 0
M  V30 11175 H 1083 -1.12327 -2.29818 0
M  V30 11176 H 1082.64 -1.98076 -4.67684 0
M  V30 11177 H 1082.57 -0.298007 -5.25756 0
M  V30 11178 H 1085.06 -0.615569 -3.72853 0
M  V30 11179 H 1085.38 -1.87163 -7.49793 0
M  V30 11180 H 1083.72 -1.67647 -6.74477 0
M  V30 11181 H 1086.91 -0.845502 -4.60401 0
M  V30 11182 H 1087.09 -1.41805 -6.32294 0
M  V30 11183 N 1080.49 1.57075 -0.12858 0
M  V30 11184 C 1081.42 2.18833 0.814519 0
M  V30 11185 C 1082.4 1.13114 1.2704 0
M  V30 11186 O 1083.59 1.41387 1.33129 0
M  V30 11187 C 1080.72 2.79535 2.06101 0
M  V30 11188 C 1079.67 3.9092 1.74257 0
M  V30 11189 C 1079 4.38473 3.06015 0
M  V30 11190 C 1080.3 5.1257 1.00345 0
M  V30 11191 H 1081.99 2.97895 0.299862 0
M  V30 11192 H 1079.54 1.4329 0.14279 0
M  V30 11193 H 1081.49 3.21401 2.72543 0
M  V30 11194 H 1080.21 1.97777 2.59907 0
M  V30 11195 H 1078.87 3.49645 1.102 0
M  V30 11196 H 1078.52 3.53561 3.57776 0
M  V30 11197 H 1078.22 5.13591 2.85479 0
M  V30 11198 H 1079.75 4.82997 3.7356 0
M  V30 11199 H 1081.16 5.51395 1.56959 0
M  V30 11200 H 1079.56 5.93333 0.898693 0
M  V30 11201 H 1080.63 4.84899 -0.0081335 0
M  V30 11202 N 1081.97 -0.145205 1.5693 0
M  V30 11203 C 1083.22 -0.858786 1.83719 0
M  V30 11204 C 1083.55 -1.80738 0.710452 0
M  V30 11205 O 1082.82 -1.92389 -0.285791 0
M  V30 11206 C 1083.11 -1.6317 3.2101 0
M  V30 11207 C 1082.96 -0.704472 4.44249 0
M  V30 11208 C 1084.28 -2.59377 3.55544 0
M  V30 11209 H 1081.4 -0.310757 0.66828 0
M  V30 11210 H 1084.04 -0.123918 1.89595 0
M  V30 11211 H 1082.19 -2.25816 3.16132 0
M  V30 11212 H 1083.86 -0.08887 4.61214 0
M  V30 11213 H 1082.1 -0.0141693 4.33798 0
M  V30 11214 H 1082.78 -1.28135 5.36922 0
M  V30 11215 H 1085.25 -2.06848 3.61044 0
M  V30 11216 H 1084.13 -3.10506 4.52634 0
M  V30 11217 H 1084.39 -3.40819 2.81594 0
M  V30 11218 N 1083.45 -1.52049 -0.414609 0
M  V30 11219 C 1084.41 -1.74382 -1.4874 0
M  V30 11220 C 1085.41 -0.613701 -1.48628 0
M  V30 11221 O 1086.6 -0.88152 -1.50249 0
M  V30 11222 C 1083.73 -1.82116 -2.88178 0
M  V30 11223 H 1084.93 -2.70147 -1.30233 0
M  V30 11224 H 1082.48 -1.42382 -0.644756 0
M  V30 11225 H 1083.21 -0.882457 -3.12063 0
M  V30 11226 H 1083 -2.64268 -2.89663 0
M  V30 11227 H 1084.49 -2.01155 -3.65959 0
M  V30 11228 N 1084.93 0.6715 -1.42579 0
M  V30 11229 C 1086.15 1.45972 -1.46628 0
M  V30 11230 C 1086.57 1.88636 -0.0785986 0
M  V30 11231 O 1085.93 1.58345 0.907372 0
M  V30 11232 C 1085.98 2.70668 -2.39627 0
M  V30 11233 O 1085.7 2.29793 -3.72997 0
M  V30 11234 C 1087.2 3.64201 -2.52731 0
M  V30 11235 H 1084.42 0.449044 -0.498598 0
M  V30 11236 H 1086.96 0.824811 -1.87129 0
M  V30 11237 H 1085.12 3.3034 -2.02371 0
M  V30 11238 H 1085.53 3.10341 -4.22834 0
M  V30 11239 H 1087.01 4.48412 -3.21918 0
M  V30 11240 H 1087.48 4.10323 -1.56626 0
M  V30 11241 H 1088.09 3.1042 -2.90722 0
M  V30 11242 N 1086.4 1.28806 0.908124 0
M  V30 11243 C 1087.63 1.19271 1.69674 0
M  V30 11244 C 1088.05 -0.244403 1.86505 0
M  V30 11245 O 1087.41 -1.17668 1.37927 0
M  V30 11246 C 1087.46 1.9023 3.06341 0
M  V30 11247 O 1086.56 1.2136 3.94139 0
M  V30 11248 H 1085.9 0.413738 0.519343 0
M  V30 11249 H 1088.43 1.70227 1.13508 0
M  V30 11250 H 1088.44 1.98356 3.56537 0
M  V30 11251 H 1087.12 2.94762 2.93408 0
M  V30 11252 H 1085.7 1.21435 3.52573 0
M  V30 11253 N 1087.88 -1.11734 1.11145 0
M  V30 11254 C 1089.29 -1.64928 0.874959 0
M  V30 11255 C 1089.64 -1.87012 -0.593375 0
M  V30 11256 O 1088.77 -1.60206 -1.45475 0
M  V30 11257 C 1089.36 -2.99608 1.58178 0
M  V30 11258 C 1087.92 -3.49723 1.39179 0
M  V30 11259 C 1087.07 -2.24595 1.62642 0
M  V30 11260 H 1090.02 -0.954154 1.26813 0
M  V30 11261 H 1090.04 -3.66434 1.02501 0
M  V30 11262 H 1089.55 -2.83504 2.65042 0
M  V30 11263 H 1087.65 -3.70998 0.345111 0
M  V30 11264 H 1087.77 -4.28711 2.13878 0
M  V30 11265 H 1086.13 -2.32067 1.04961 0
M  V30 11266 H 1086.91 -2.11036 2.70774 0
M  V30 11267 N 1089.36 -0.901303 -1.29284 0
M  V30 11268 C 1090.61 -0.527 -1.95108 0
M  V30 11269 C 1090.93 0.930065 -1.71391 0
M  V30 11270 O 1090.2 1.65601 -1.04658 0
M  V30 11271 H 1088.78 -0.191903 -0.721929 0
M  V30 11272 H 1091.44 -1.14795 -1.57506 0
M  V30 11273 H 1090.54 -0.710945 -3.03895 0
M  V30 11274 N 1090.84 1.42931 -0.663954 0
M  V30 11275 C 1092.06 2.06544 -0.188201 0
M  V30 11276 C 1092.49 1.495 1.14155 0
M  V30 11277 O 1091.85 0.609164 1.7076 0
M  V30 11278 C 1091.89 3.60393 -0.122105 0
M  V30 11279 O 1091 4.02176 0.91258 0
M  V30 11280 H 1090.34 0.656458 -0.0997967 0
M  V30 11281 H 1092.87 1.83253 -0.909909 0
M  V30 11282 H 1092.88 4.07959 0.0576568 0
M  V30 11283 H 1091.55 4.01287 -1.09276 0
M  V30 11284 H 1090.13 3.6618 0.704738 0
M  V30 11285 N 1092.32 0.406567 1.52266 0
M  V30 11286 C 1093.54 -0.172101 2.06685 0
M  V30 11287 C 1093.97 -1.38306 1.27488 0
M  V30 11288 O 1093.32 -1.78726 0.304441 0
M  V30 11289 C 1093.37 -0.503463 3.57068 0
M  V30 11290 O 1092.48 -1.59485 3.80314 0
M  V30 11291 H 1091.82 -0.0153209 0.663823 0
M  V30 11292 H 1094.35 0.579025 1.96236 0
M  V30 11293 H 1094.36 -0.762833 4.00805 0
M  V30 11294 H 1093.03 0.381775 4.14144 0
M  V30 11295 H 1091.61 -1.32784 3.48458 0
M  V30 11296 N 1093.79 -1.57004 0.136909 0
M  V30 11297 C 1094.72 -2.19262 -0.802902 0
M  V30 11298 C 1095.71 -1.13786 -1.26439 0
M  V30 11299 O 1096.89 -1.42091 -1.32377 0
M  V30 11300 C 1094.02 -2.80624 -2.04615 0
M  V30 11301 C 1092.97 -3.91839 -1.72181 0
M  V30 11302 C 1092.3 -4.4009 -3.03686 0
M  V30 11303 C 1093.6 -5.13095 -0.976249 0
M  V30 11304 H 1095.29 -2.98049 -0.28406 0
M  V30 11305 H 1092.84 -1.43364 -0.135189 0
M  V30 11306 H 1094.79 -3.22842 -2.70834 0
M  V30 11307 H 1093.52 -1.99153 -2.58855 0
M  V30 11308 H 1092.18 -3.50224 -1.08344 0
M  V30 11309 H 1091.82 -3.55454 -3.55896 0
M  V30 11310 H 1091.52 -5.15098 -2.82751 0
M  V30 11311 H 1093.05 -4.84971 -3.70993 0
M  V30 11312 H 1094.46 -5.5222 -1.54033 0
M  V30 11313 H 1092.86 -5.93801 -0.867214 0
M  V30 11314 H 1093.93 -4.84888 0.0338488 0
M  V30 11315 N 1095.27 0.136881 -1.57004 0
M  V30 11316 C 1096.68 0.695911 -1.73245 0
M  V30 11317 C 1097.03 1.8118 -0.75288 0
M  V30 11318 O 1096.16 2.16258 0.0782477 0
M  V30 11319 C 1096.75 1.26914 -3.14131 0
M  V30 11320 C 1095.31 1.77463 -3.31939 0
M  V30 11321 C 1094.46 0.667128 -2.69156 0
M  V30 11322 H 1097.41 -0.0888841 -1.58451 0
M  V30 11323 H 1097.43 2.13892 -3.14691 0
M  V30 11324 H 1096.94 0.456754 -3.85403 0
M  V30 11325 H 1095.05 2.61236 -2.65681 0
M  V30 11326 H 1095.16 1.89638 -4.39971 0
M  V30 11327 H 1093.52 1.09629 -2.29899 0
M  V30 11328 H 1094.31 -0.13398 -3.43038 0
M  V30 11329 N 1096.75 1.52266 0.40654 0
M  V30 11330 C 1098 1.66123 1.15097 0
M  V30 11331 C 1098.32 0.394836 1.90961 0
M  V30 11332 O 1097.59 -0.590349 1.86793 0
M  V30 11333 H 1096.17 0.612317 0.427875 0
M  V30 11334 H 1098.83 1.89318 0.463106 0
M  V30 11335 H 1097.93 2.50351 1.86361 0
M  V30 11336 N 1098.23 -0.663929 1.42933 0
M  V30 11337 C 1099.19 -1.75899 1.46943 0
M  V30 11338 C 1100.19 -1.5682 0.355535 0
M  V30 11339 O 1101.38 -1.62914 0.616833 0
M  V30 11340 C 1098.51 -3.14657 1.31164 0
M  V30 11341 H 1099.71 -1.73727 2.44456 0
M  V30 11342 H 1097.26 -0.874587 1.2954 0
M  V30 11343 H 1097.99 -3.22447 0.346165 0
M  V30 11344 H 1097.78 -3.29909 2.11902 0
M  V30 11345 H 1099.27 -3.9453 1.36878 0
M  V30 11346 N 1099.71 -1.29285 -0.901281 0
M  V30 11347 C 1100.93 -1.20048 -1.68511 0
M  V30 11348 C 1101.35 0.239128 -1.8728 0
M  V30 11349 O 1100.71 1.16027 -1.40869 0
M  V30 11350 C 1100.76 -1.90798 -3.07048 0
M  V30 11351 O 1100.48 -3.29137 -2.89138 0
M  V30 11352 C 1101.98 -1.88017 -4.01453 0
M  V30 11353 H 1099.2 -0.416157 -0.52636 0
M  V30 11354 H 1101.74 -1.7063 -1.12719 0
M  V30 11355 H 1099.9 -1.44055 -3.5962 0
M  V30 11356 H 1100.31 -3.64747 -3.76908 0
M  V30 11357 H 1101.79 -2.42088 -4.96082 0
M  V30 11358 H 1102.26 -0.855341 -4.30791 0
M  V30 11359 H 1102.87 -2.34497 -3.54812 0
M  V30 11360 N 1101.18 1.11143 -1.11736 0
M  V30 11361 C 1102.41 1.87285 -0.891007 0
M  V30 11362 C 1102.83 1.79758 0.553971 0
M  V30 11363 O 1102.19 1.16221 1.39149 0
M  V30 11364 C 1102.24 3.33924 -1.36114 0
M  V30 11365 O 1101.34 4.08917 -0.534851 0
M  V30 11366 H 1100.69 0.581418 -0.320701 0
M  V30 11367 H 1103.22 1.40469 -1.4876 0
M  V30 11368 H 1103.23 3.84772 -1.35701 0
M  V30 11369 H 1101.9 3.38719 -2.41334 0
M  V30 11370 H 1100.48 3.67954 -0.605355 0
M  V30 11371 N 1102.66 0.908147 1.28804 0
M  V30 11372 C 1103.63 0.397058 2.25735 0
M  V30 11373 C 1104.63 -0.473483 1.53671 0
M  V30 11374 O 1105.82 -0.277335 1.71978 0
M  V30 11375 C 1102.95 -0.431392 3.38159 0
M  V30 11376 H 1104.14 1.25323 2.72459 0
M  V30 11377 H 1101.69 0.687041 1.4039 0
M  V30 11378 H 1102.43 -1.3072 2.96787 0
M  V30 11379 H 1102.21 0.192502 3.91627 0
M  V30 11380 H 1103.7 -0.78 4.10251 0
M  V30 11381 N 1104.14 -1.42577 0.671525 0
M  V30 11382 C 1105.37 -2.06442 0.199152 0
M  V30 11383 C 1105.79 -1.50104 -1.1336 0
M  V30 11384 O 1105.15 -0.618211 -1.70434 0
M  V30 11385 C 1105.2 -3.60323 0.141215 0
M  V30 11386 O 1104.3 -4.02655 -0.891238 0
M  V30 11387 H 1103.64 -0.655919 0.103277 0
M  V30 11388 H 1106.17 -1.82768 0.919614 0
M  V30 11389 H 1106.18 -4.07984 -0.0360209 0
M  V30 11390 H 1104.86 -4.00702 1.11403 0
M  V30 11391 H 1103.43 -3.66549 -0.685309 0
M  V30 11392 N 1105.62 -0.414636 -1.52048 0
M  V30 11393 C 1106.84 0.161137 -2.06773 0
M  V30 11394 C 1107.27 1.37628 -1.2822 0
M  V30 11395 O 1106.63 1.78562 -0.313915 0
M  V30 11396 C 1106.67 0.48452 -3.5733 0
M  V30 11397 O 1105.78 1.57466 -3.81154 0
M  V30 11398 H 1105.12 0.0118003 -0.663895 0
M  V30 11399 H 1107.65 -0.589424 -1.95926 0
M  V30 11400 H 1107.66 0.741567 -4.01204 0
M  V30 11401 H 1106.33 -0.403733 -4.13936 0
M  V30 11402 H 1104.91 1.30935 -3.49157 0
M  V30 11403 N 1107.1 1.56929 -0.145233 0
M  V30 11404 C 1108.03 2.19685 0.791263 0
M  V30 11405 C 1109.01 1.14455 1.25833 0
M  V30 11406 O 1110.19 1.42791 1.31622 0
M  V30 11407 C 1107.32 2.81705 2.03124 0
M  V30 11408 C 1106.28 3.92746 1.70101 0
M  V30 11409 C 1105.6 4.41694 3.01347 0
M  V30 11410 C 1106.9 5.13606 0.949025 0
M  V30 11411 H 1108.6 2.98196 0.26825 0
M  V30 11412 H 1106.14 1.43434 0.127584 0
M  V30 11413 H 1108.1 3.24273 2.69119 0
M  V30 11414 H 1106.82 2.00523 2.57795 0
M  V30 11415 H 1105.48 3.50794 1.06486 0
M  V30 11416 H 1105.13 3.57336 3.54006 0
M  V30 11417 H 1104.83 5.1659 2.80016 0
M  V30 11418 H 1106.35 4.86931 3.68416 0
M  V30 11419 H 1107.76 5.53029 1.51102 0
M  V30 11420 H 1106.16 5.94252 0.835711 0
M  V30 11421 H 1107.23 4.84863 -0.0595631 0
M  V30 11422 N 1108.58 -0.128553 1.57075 0
M  V30 11423 C 1109.51 -1.15953 2.02675 0
M  V30 11424 C 1110.49 -1.43743 0.909501 0
M  V30 11425 O 1111.67 -1.54348 1.17857 0
M  V30 11426 C 1108.8 -2.48813 2.423 0
M  V30 11427 C 1107.76 -2.35506 3.57381 0
M  V30 11428 C 1107.08 -3.73243 3.82875 0
M  V30 11429 C 1108.38 -1.82359 4.89431 0
M  V30 11430 H 1110.08 -0.780283 2.89054 0
M  V30 11431 H 1107.62 -0.373896 1.39061 0
M  V30 11432 H 1109.57 -3.21179 2.72804 0
M  V30 11433 H 1108.3 -2.88609 1.52881 0
M  V30 11434 H 1106.96 -1.6559 3.27071 0
M  V30 11435 H 1106.61 -4.10507 2.90677 0
M  V30 11436 H 1106.31 -3.65195 4.60333 0
M  V30 11437 H 1107.83 -4.47128 4.15823 0
M  V30 11438 H 1109.24 -2.44533 5.18533 0
M  V30 11439 H 1107.64 -1.85156 5.70822 0
M  V30 11440 H 1108.71 -0.780478 4.78578 0
M  V30 11441 N 1110.05 -1.5248 -0.398459 0
M  V30 11442 C 1110.99 -1.72826 -1.50545 0
M  V30 11443 C 1112 -0.608683 -1.50993 0
M  V30 11444 O 1113.19 -0.88413 -1.55066 0
M  V30 11445 C 1110.29 -1.76327 -2.89417 0
M  V30 11446 C 1109.46 -3.05491 -3.1304 0
M  V30 11447 C 1108.52 -3.00663 -4.31843 0
M  V30 11448 O 1107.55 -3.74548 -4.28605 0
M  V30 11449 N 1108.75 -2.19191 -5.37527 0
M  V30 11450 H 1111.51 -2.68333 -1.33482 0
M  V30 11451 H 1109.07 -1.5085 -0.587875 0
M  V30 11452 H 1111.07 -1.70616 -3.66977 0
M  V30 11453 H 1109.64 -0.882476 -2.99885 0
M  V30 11454 H 1108.86 -3.24767 -2.23428 0
M  V30 11455 H 1110.14 -3.90915 -3.25673 0
M  V30 11456 H 1109.54 -1.58613 -5.43009 0
M  V30 11457 H 1108.1 -2.19328 -6.1379 0
M  V30 11458 N 1111.53 0.65634 -1.43283 0
M  V30 11459 C 1112.78 1.41347 -1.44449 0
M  V30 11460 C 1113.1 1.94879 -0.0687217 0
M  V30 11461 O 1112.37 1.74235 0.895492 0
M  V30 11462 H 1110.95 0.524578 -0.531815 0
M  V30 11463 H 1113.61 0.774292 -1.7886 0
M  V30 11464 H 1112.71 2.25737 -2.15521 0
M  V30 11465 N 1113.01 1.29761 0.894412 0
M  V30 11466 C 1113.94 1.17902 2.01547 0
M  V30 11467 C 1114.92 0.0719402 1.69948 0
M  V30 11468 O 1116.11 0.252338 1.92554 0
M  V30 11469 C 1113.24 0.860262 3.36477 0
M  V30 11470 C 1112.19 1.92424 3.82305 0
M  V30 11471 C 1111.52 1.45868 5.14419 0
M  V30 11472 C 1112.82 3.33391 4.02054 0
M  V30 11473 H 1114.51 2.11688 2.11727 0
M  V30 11474 H 1112.06 1.01916 1.01731 0
M  V30 11475 H 1114.01 0.763987 4.14417 0
M  V30 11476 H 1112.73 -0.113289 3.26403 0
M  V30 11477 H 1111.39 2.00999 3.06586 0
M  V30 11478 H 1111.04 0.473654 5.00765 0
M  V30 11479 H 1110.74 2.17028 5.46052 0
M  V30 11480 H 1112.26 1.37601 5.94894 0
M  V30 11481 H 1113.68 3.27628 4.7046 0
M  V30 11482 H 1112.07 4.02555 4.4505 0
M  V30 11483 H 1113.14 3.75978 3.06216 0
M  V30 11484 N 1114.49 -1.10549 1.12324 0
M  V30 11485 C 1115.71 -1.8681 0.900927 0
M  V30 11486 C 1116.14 -1.80049 -0.54443 0
M  V30 11487 O 1115.5 -1.16957 -1.38531 0
M  V30 11488 C 1115.54 -3.33197 1.37883 0
M  V30 11489 O 1114.65 -4.08628 0.556529 0
M  V30 11490 H 1113.99 -0.579709 0.32378 0
M  V30 11491 H 1116.52 -1.39678 1.49503 0
M  V30 11492 H 1116.53 -3.84047 1.37739 0
M  V30 11493 H 1115.2 -3.37435 2.43127 0
M  V30 11494 H 1113.78 -3.67627 0.62486 0
M  V30 11495 N 1115.97 -0.914965 -1.28321 0
M  V30 11496 C 1117.21 -0.548749 -1.94923 0
M  V30 11497 C 1117.54 0.907776 -1.72016 0
M  V30 11498 O 1116.8 1.66097 -1.03491 0
M  V30 11499 C 1117.09 -0.805805 -3.48198 0
M  V30 11500 C 1116.76 -2.24207 -3.91206 0
M  V30 11501 C 1115.42 -2.63475 -4.02659 0
M  V30 11502 C 1117.77 -3.17667 -4.13204 0
M  V30 11503 C 1115.1 -3.95353 -4.3349 0
M  V30 11504 C 1117.45 -4.4911 -4.45514 0
M  V30 11505 C 1116.12 -4.8823 -4.55179 0
M  V30 11506 H 1115.39 -0.200801 -0.713274 0
M  V30 11507 H 1118.04 -1.15652 -1.52633 0
M  V30 11508 H 1116.34 -0.115244 -3.9163 0
M  V30 11509 H 1118.04 -0.501609 -3.9785 0
M  V30 11510 H 1114.63 -1.92737 -3.82819 0
M  V30 11511 H 1118.81 -2.88537 -4.03807 0
M  V30 11512 H 1114.07 -4.25362 -4.39178 0
M  V30 11513 H 1118.24 -5.21542 -4.61483 0
M  V30 11514 H 1115.87 -5.90451 -4.78823 0
M  V30 11515 N 1117.44 1.42219 -0.679077 0
M  V30 11516 C 1118.67 2.06333 -0.210097 0
M  V30 11517 C 1119.09 1.50703 1.12562 0
M  V30 11518 O 1118.45 0.627241 1.70104 0
M  V30 11519 C 1118.5 3.60243 -0.160322 0
M  V30 11520 O 1117.6 4.03122 0.869872 0
M  V30 11521 H 1116.94 0.655362 -0.106754 0
M  V30 11522 H 1119.47 1.82278 -0.929294 0
M  V30 11523 H 1119.48 4.07997 0.014384 0
M  V30 11524 H 1118.16 4.00106 -1.13526 0
M  V30 11525 H 1116.74 3.66907 0.66586 0
M  V30 11526 N 1118.92 0.422693 1.51826 0
M  V30 11527 C 1119.85 -0.386913 2.30272 0
M  V30 11528 C 1120.83 -1.03411 1.35056 0
M  V30 11529 O 1122.02 -1.04055 1.6397 0
M  V30 11530 C 1119.15 -1.49645 3.13407 0
M  V30 11531 C 1118.1 -0.973532 4.16781 0
M  V30 11532 C 1117.43 -2.1777 4.88344 0
M  V30 11533 C 1118.73 -0.0181194 5.22297 0
M  V30 11534 H 1120.42 0.267697 2.98201 0
M  V30 11535 H 1117.97 0.130186 1.4341 0
M  V30 11536 H 1119.92 -2.06993 3.67059 0
M  V30 11537 H 1118.64 -2.17914 2.43272 0
M  V30 11538 H 1117.3 -0.42237 3.64159 0
M  V30 11539 H 1116.95 -2.84625 4.14726 0
M  V30 11540 H 1116.65 -1.83427 5.58237 0
M  V30 11541 H 1118.18 -2.75699 5.44814 0
M  V30 11542 H 1119.59 -0.500822 5.71108 0
M  V30 11543 H 1117.99 0.237163 5.99631 0
M  V30 11544 H 1119.06 0.923065 4.76033 0
M  V30 11545 N 1120.4 -1.5685 0.153553 0
M  V30 11546 C 1121.33 -2.14231 -0.814729 0
M  V30 11547 C 1122.34 -1.09339 -1.20619 0
M  V30 11548 O 1123.53 -1.36592 -1.14913 0
M  V30 11549 C 1120.63 -2.6555 -2.10562 0
M  V30 11550 C 1119.81 -3.94912 -1.8805 0
M  V30 11551 C 1118.87 -4.31476 -3.0119 0
M  V30 11552 O 1117.89 -4.9968 -2.72596 0
M  V30 11553 N 1119.09 -3.91588 -4.28531 0
M  V30 11554 H 1121.86 -2.9794 -0.324277 0
M  V30 11555 H 1119.42 -1.61873 -0.0298087 0
M  V30 11556 H 1121.41 -2.87019 -2.85311 0
M  V30 11557 H 1119.98 -1.86529 -2.5085 0
M  V30 11558 H 1119.2 -3.82002 -0.973024 0
M  V30 11559 H 1120.49 -4.79433 -1.70356 0
M  V30 11560 H 1119.89 -3.36645 -4.54628 0
M  V30 11561 H 1118.44 -4.18095 -5.00039 0
M  V30 11562 N 1121.88 0.120221 -1.57141 0
M  V30 11563 C 1123.15 0.858458 -1.75755 0
M  V30 11564 C 1123.53 1.98124 -0.728693 0
M  V30 11565 O 1122.88 2.27155 0.247573 0
M  V30 11566 C 1123.09 1.37627 -3.20718 0
M  V30 11567 C 1124.44 1.82909 -3.83183 0
M  V30 11568 O 1125.46 1.47309 -3.24312 0
M  V30 11569 O 1124.32 2.4865 -4.86657 0
M  V30 11570 H 1121.42 0.407583 -0.719587 0
M  V30 11571 H 1123.96 0.104057 -1.69381 0
M  V30 11572 H 1122.74 0.570651 -3.87117 0
M  V30 11573 H 1122.36 2.19341 -3.31625 0
M  V30 11574 N 1123.36 1.52689 0.390367 0
M  V30 11575 C 1124.61 1.6689 1.13272 0
M  V30 11576 C 1124.92 0.414433 1.91159 0
M  V30 11577 O 1126.12 0.436559 2.67967 0
M  V30 11578 C 1124.58 2.94929 2.06264 0
M  V30 11579 C 1124.19 4.27551 1.33805 0
M  V30 11580 C 1125.93 3.18497 2.80642 0
M  V30 11581 C 1123.84 5.46698 2.25554 0
M  V30 11582 H 1122.77 0.621749 0.426549 0
M  V30 11583 H 1125.42 1.79185 0.395615 0
M  V30 11584 H 1123.8 2.76378 2.83604 0
M  V30 11585 H 1124.98 4.56651 0.616997 0
M  V30 11586 H 1123.29 4.10234 0.713913 0
M  V30 11587 H 1125.89 4.04693 3.49467 0
M  V30 11588 H 1126.23 2.33511 3.44642 0
M  V30 11589 H 1126.76 3.37607 2.10395 0
M  V30 11590 H 1123.5 6.34088 1.66171 0
M  V30 11591 H 1123.02 5.21913 2.95579 0
M  V30 11592 H 1124.7 5.80519 2.85668 0
M  V30 11593 N 1124.83 -0.648732 1.43629 0
M  V30 11594 C 1126.06 -1.44117 1.49148 0
M  V30 11595 C 1126.48 -1.87767 0.111952 0
M  V30 11596 O 1125.84 -1.57655 -0.895249 0
M  V30 11597 C 1125.89 -2.64938 2.44623 0
M  V30 11598 O 1124.99 -3.64155 1.93559 0
M  V30 11599 H 1124.34 -0.431933 0.504312 0
M  V30 11600 H 1126.87 -0.793439 1.88589 0
M  V30 11601 H 1126.88 -3.12698 2.62076 0
M  V30 11602 H 1125.55 -2.3251 3.44836 0
M  V30 11603 H 1124.13 -3.23322 1.85789 0
M  V30 11604 N 1126.31 -1.30234 -0.887518 0
M  V30 11605 C 1127.54 -1.21955 -1.67755 0
M  V30 11606 C 1127.96 0.214701 -1.86871 0
M  V30 11607 O 1127.32 1.15459 -1.39782 0
M  V30 11608 C 1127.37 -1.95079 -3.03276 0
M  V30 11609 O 1126.47 -1.27615 -3.92158 0
M  V30 11610 H 1125.81 -0.421948 -0.512695 0
M  V30 11611 H 1128.34 -1.72011 -1.10785 0
M  V30 11612 H 1128.35 -2.04004 -3.53336 0
M  V30 11613 H 1127.03 -2.99392 -2.88682 0
M  V30 11614 H 1125.61 -1.27029 -3.50597 0
M  V30 11615 N 1127.79 1.09952 -1.12909 0
M  V30 11616 C 1128.74 2.16436 -0.801514 0
M  V30 11617 C 1129.71 1.64444 0.233976 0
M  V30 11618 O 1130.89 1.90497 0.10743 0
M  V30 11619 C 1128.03 3.4406 -0.267753 0
M  V30 11620 C 1127.15 4.09979 -1.36165 0
M  V30 11621 C 1126.28 5.25341 -0.786803 0
M  V30 11622 C 1125.32 5.83172 -1.85948 0
M  V30 11623 N 1124.46 6.89904 -1.30298 0
M  V30 11624 H 1129.3 2.43799 -1.71365 0
M  V30 11625 H 1126.83 1.19665 -0.855499 0
M  V30 11626 H 1128.79 4.17157 0.0598031 0
M  V30 11627 H 1127.42 3.17031 0.607528 0
M  V30 11628 H 1126.47 3.34801 -1.8059 0
M  V30 11629 H 1127.79 4.48999 -2.17259 0
M  V30 11630 H 1126.94 6.05312 -0.410211 0
M  V30 11631 H 1125.68 4.87669 0.055279 0
M  V30 11632 H 1124.68 5.01867 -2.24521 0
M  V30 11633 H 1125.91 6.22907 -2.70487 0
M  V30 11634 H 1123.85 6.54221 -0.482806 0
M  V30 11635 H 1123.77 7.27662 -2.05046 0
M  V30 11636 H 1125.04 7.73643 -0.953779 0
M  V30 11637 N 1129.27 0.921757 1.27833 0
M  V30 11638 C 1130.5 0.575202 1.98744 0
M  V30 11639 C 1130.91 -0.845405 1.68815 0
M  V30 11640 O 1130.27 -1.56106 0.94536 0
M  V30 11641 C 1130.32 0.784389 3.52888 0
M  V30 11642 O 1130.04 2.1491 3.81766 0
M  V30 11643 C 1131.54 0.445744 4.41053 0
M  V30 11644 H 1128.76 0.218525 0.634419 0
M  V30 11645 H 1131.31 1.23715 1.62834 0
M  V30 11646 H 1129.46 0.169323 3.8703 0
M  V30 11647 H 1129.87 2.19469 4.76375 0
M  V30 11648 H 1131.35 0.64284 5.48244 0
M  V30 11649 H 1131.83 -0.618433 4.34824 0
M  V30 11650 H 1132.43 1.03869 4.12421 0
M  V30 11651 N 1130.75 -1.41857 0.686609 0
M  V30 11652 C 1131.97 -2.06219 0.221037 0
M  V30 11653 C 1132.4 -1.51298 -1.11762 0
M  V30 11654 O 1131.75 -0.636253 -1.69769 0
M  V30 11655 C 1131.8 -3.60153 0.179425 0
M  V30 11656 O 1130.91 -4.03577 -0.848481 0
M  V30 11657 H 1130.25 -0.654787 0.110228 0
M  V30 11658 H 1132.78 -1.81783 0.938948 0
M  V30 11659 H 1132.79 -4.07999 0.00725332 0
M  V30 11660 H 1131.46 -3.99498 1.15647 0
M  V30 11661 H 1130.04 -3.67255 -0.646393 0
M  V30 11662 N 1132.22 -0.430739 -1.51599 0
M  V30 11663 C 1133.47 0.137657 -2.01631 0
M  V30 11664 C 1133.79 1.43787 -1.31721 0
M  V30 11665 O 1133.06 1.90668 -0.449717 0
M  V30 11666 H 1131.64 0.0538611 -0.745056 0
M  V30 11667 H 1134.31 -0.571935 -1.86319 0
M  V30 11668 H 1133.4 0.318305 -3.10473 0
M  V30 11669 N 1133.7 1.56767 -0.161869 0
M  V30 11670 C 1134.63 2.20511 0.767918 0
M  V30 11671 C 1135.61 1.15783 1.24612 0
M  V30 11672 O 1136.8 1.44179 1.301 0
M  V30 11673 C 1133.93 2.83844 2.00125 0
M  V30 11674 C 1132.88 3.94528 1.65926 0
M  V30 11675 C 1132.21 4.44866 2.96646 0
M  V30 11676 C 1133.51 5.14583 0.894497 0
M  V30 11677 H 1135.2 2.98464 0.236607 0
M  V30 11678 H 1132.75 1.43561 0.112363 0
M  V30 11679 H 1134.7 3.27109 2.65664 0
M  V30 11680 H 1133.43 2.03246 2.55654 0
M  V30 11681 H 1132.08 3.51904 1.02759 0
M  V30 11682 H 1131.73 3.61071 3.50196 0
M  V30 11683 H 1131.43 5.19531 2.74521 0
M  V30 11684 H 1132.96 4.90812 3.6323 0
M  V30 11685 H 1134.37 5.54601 1.45228 0
M  V30 11686 H 1132.77 5.95105 0.772636 0
M  V30 11687 H 1133.84 4.84773 -0.110986 0
M  V30 11688 N 1135.18 -0.111886 1.57202 0
M  V30 11689 C 1136.59 -0.668261 1.74331 0
M  V30 11690 C 1136.94 -1.79959 0.781609 0
M  V30 11691 O 1136.07 -2.16356 -0.043833 0
M  V30 11692 C 1136.66 -1.219 3.1611 0
M  V30 11693 C 1135.22 -1.7216 3.34721 0
M  V30 11694 C 1134.37 -0.624223 2.70183 0
M  V30 11695 H 1137.32 0.114081 1.58289 0
M  V30 11696 H 1137.34 -2.08858 3.18054 0
M  V30 11697 H 1136.85 -0.395381 3.86081 0
M  V30 11698 H 1134.95 -2.56976 2.69803 0
M  V30 11699 H 1135.07 -1.82615 4.42932 0
M  V30 11700 H 1133.43 -1.05958 2.31614 0
M  V30 11701 H 1134.21 0.188537 3.42782 0
M  V30 11702 N 1136.66 -1.52894 -0.382264 0
M  V30 11703 C 1137.62 -1.77497 -1.45008 0
M  V30 11704 C 1138.62 -0.64509 -1.47293 0
M  V30 11705 O 1139.81 -0.913192 -1.48346 0
M  V30 11706 C 1136.94 -1.88188 -2.8425 0
M  V30 11707 H 1138.14 -2.72849 -1.24473 0
M  V30 11708 H 1135.69 -1.43717 -0.61441 0
M  V30 11709 H 1136.42 -0.948451 -3.10121 0
M  V30 11710 H 1136.21 -2.70353 -2.83992 0
M  V30 11711 H 1137.7 -2.08873 -3.6161 0
M  V30 11712 N 1138.14 0.641106 -1.43971 0
M  V30 11713 C 1139.09 1.77474 -1.50352 0
M  V30 11714 C 1140.08 1.65173 -0.376052 0
M  V30 11715 O 1141.29 1.71373 -0.550572 0
M  V30 11716 H 1137.66 0.585747 -0.471597 0
M  V30 11717 H 1139.63 1.69213 -2.45784 0
M  V30 11718 C 1138.38 3.15778 -1.45532 0
M  V30 11719 H 1137.7 3.25886 -2.316 0
M  V30 11720 H 1139.14 3.95022 -1.54058 0
M  V30 11721 C 1137.6 3.36447 -0.174624 0
M  V30 11722 O 1138.13 3.9446 0.759215 0
M  V30 11723 N 1136.34 2.90487 -0.0809383 0
M  V30 11724 H 1135.89 2.43461 -0.841691 0
M  V30 11725 H 1135.84 3.04693 0.775231 0
M  V30 11726 N 1139.62 1.30703 0.880598 0
M  V30 11727 C 1141.03 1.17818 1.4483 0
M  V30 11728 C 1141.38 -0.219456 1.94969 0
M  V30 11729 O 1140.5 -1.11646 1.85375 0
M  V30 11730 C 1141.1 2.13275 2.63247 0
M  V30 11731 C 1139.66 2.04356 3.16094 0
M  V30 11732 C 1138.8 2.03108 1.88792 0
M  V30 11733 H 1141.75 1.42909 0.690125 0
M  V30 11734 H 1141.78 1.71615 3.39601 0
M  V30 11735 H 1141.29 3.14988 2.26725 0
M  V30 11736 H 1139.39 1.058 3.57263 0
M  V30 11737 H 1139.5 2.92953 3.79098 0
M  V30 11738 H 1137.87 1.47971 2.07308 0
M  V30 11739 H 1138.65 3.06558 1.54521 0
M  V30 11740 N 1141.09 -1.09351 1.1349 0
M  V30 11741 C 1142.32 -1.85844 0.92069 0
M  V30 11742 C 1142.74 -1.80616 -0.525303 0
M  V30 11743 O 1142.1 -1.1842 -1.37282 0
M  V30 11744 C 1142.15 -3.31716 1.4141 0
M  V30 11745 O 1141.25 -4.08014 0.599838 0
M  V30 11746 H 1140.59 -0.576242 0.32991 0
M  V30 11747 H 1143.12 -1.38084 1.50976 0
M  V30 11748 H 1143.13 -3.82564 1.41805 0
M  V30 11749 H 1141.81 -3.34837 2.46692 0
M  V30 11750 H 1140.39 -3.66944 0.663816 0
M  V30 11751 N 1142.57 -0.928524 -1.27343 0
M  V30 11752 C 1143.98 -0.613856 -1.7632 0
M  V30 11753 C 1144.33 0.870983 -1.75808 0
M  V30 11754 O 1143.46 1.68155 -1.36209 0
M  V30 11755 C 1144.05 -1.10755 -3.20186 0
M  V30 11756 C 1142.61 -0.843532 -3.66826 0
M  V30 11757 C 1141.76 -1.26579 -2.46724 0
M  V30 11758 H 1144.71 -1.10821 -1.13598 0
M  V30 11759 H 1144.73 -0.455598 -3.77763 0
M  V30 11760 H 1144.24 -2.18825 -3.20526 0
M  V30 11761 H 1142.34 0.223334 -3.7193 0
M  V30 11762 H 1142.46 -1.46165 -4.56259 0
M  V30 11763 H 1140.82 -0.684334 -2.45334 0
M  V30 11764 H 1141.6 -2.35516 -2.49774 0
M  V30 11765 N 1144.05 1.41491 -0.694123 0
M  V30 11766 C 1145.3 2.00854 -0.224033 0
M  V30 11767 C 1145.62 1.55246 1.17999 0
M  V30 11768 O 1144.89 0.782452 1.79595 0
M  V30 11769 H 1143.47 0.742721 -0.0798368 0
M  V30 11770 H 1146.13 1.73137 -0.894958 0
M  V30 11771 H 1145.23 3.11173 -0.240332 0
M  V30 11772 N 1145.53 0.438773 1.51369 0
M  V30 11773 C 1146.94 -0.0240139 1.86685 0
M  V30 11774 C 1147.29 -1.41816 1.35583 0
M  V30 11775 O 1146.41 -2.04517 0.707232 0
M  V30 11776 C 1147.01 -0.0503527 3.38763 0
M  V30 11777 C 1145.57 -0.457556 3.73609 0
M  V30 11778 C 1144.72 0.348852 2.75097 0
M  V30 11779 H 1147.67 0.654552 1.44573 0
M  V30 11780 H 1147.69 -0.859534 3.70665 0
M  V30 11781 H 1147.2 0.964451 3.75925 0
M  V30 11782 H 1145.3 -1.47791 3.42036 0
M  V30 11783 H 1145.41 -0.181357 4.78757 0
M  V30 11784 H 1143.78 -0.193037 2.53967 0
M  V30 11785 H 1144.56 1.36256 3.15102 0
M  V30 11786 N 1147.01 -1.56678 0.170181 0
M  V30 11787 C 1147.97 -2.16698 -0.746622 0
M  V30 11788 C 1148.97 -1.11475 -1.15888 0
M  V30 11789 O 1150.16 -1.36994 -1.07602 0
M  V30 11790 C 1147.29 -2.74892 -2.01612 0
M  V30 11791 H 1148.48 -2.99061 -0.224135 0
M  V30 11792 H 1146.04 -1.56098 -0.0793761 0
M  V30 11793 H 1146.77 -1.96259 -2.58172 0
M  V30 11794 H 1146.56 -3.51896 -1.72949 0
M  V30 11795 H 1148.05 -3.21058 -2.67042 0
M  V30 11796 N 1148.48 0.103547 -1.57259 0
M  V30 11797 C 1149.89 0.659006 -1.74683 0
M  V30 11798 C 1150.25 1.79542 -0.791142 0
M  V30 11799 O 1149.37 2.16376 0.0323585 0
M  V30 11800 C 1149.97 1.20222 -3.16752 0
M  V30 11801 C 1148.52 1.70382 -3.35629 0
M  V30 11802 C 1147.67 0.609886 -2.7051 0
M  V30 11803 H 1150.62 -0.122474 -1.58227 0
M  V30 11804 H 1150.64 2.07169 -3.19157 0
M  V30 11805 H 1150.16 0.374901 -3.86285 0
M  V30 11806 H 1148.26 2.55542 -2.71162 0
M  V30 11807 H 1148.37 1.80263 -4.43894 0
M  V30 11808 H 1146.73 1.04728 -2.32173 0
M  V30 11809 H 1147.52 -0.206713 -3.42677 0
M  V30 11810 N 1149.96 1.53094 0.37415 0
M  V30 11811 C 1150.89 1.75199 1.47776 0
M  V30 11812 C 1151.91 0.632627 1.50006 0
M  V30 11813 O 1153.1 0.908688 1.5364 0
M  V30 11814 C 1150.2 1.80909 2.86575 0
M  V30 11815 C 1149.37 3.10432 3.08141 0
M  V30 11816 C 1148.43 3.07495 4.27005 0
M  V30 11817 O 1147.45 3.81319 4.22592 0
M  V30 11818 N 1148.66 2.27715 5.33972 0
M  V30 11819 H 1151.42 2.70423 1.29196 0
M  V30 11820 H 1148.98 1.51766 0.563802 0
M  V30 11821 H 1150.97 1.76432 3.64217 0
M  V30 11822 H 1149.54 0.930074 2.98443 0
M  V30 11823 H 1148.76 3.2828 2.18233 0
M  V30 11824 H 1150.05 3.96047 3.19413 0
M  V30 11825 H 1149.45 1.67231 5.40417 0
M  V30 11826 H 1148.01 2.29065 6.10223 0
M  V30 11827 N 1151.44 -0.633461 1.44309 0
M  V30 11828 C 1152.4 -1.72743 1.50641 0
M  V30 11829 C 1153.4 -1.56031 0.388718 0
M  V30 11830 O 1154.59 -1.61568 0.651251 0
M  V30 11831 C 1151.72 -3.11804 1.37809 0
M  V30 11832 H 1152.92 -1.68503 2.48086 0
M  V30 11833 H 1150.47 -0.846912 1.31366 0
M  V30 11834 H 1151.21 -3.2164 0.414483 0
M  V30 11835 H 1150.99 -3.2534 2.18852 0
M  V30 11836 H 1152.48 -3.91538 1.45216 0
M  V30 11837 N 1152.92 -1.31168 -0.873655 0
M  V30 11838 C 1154.15 -1.23595 -1.65927 0
M  V30 11839 C 1154.56 0.199349 -1.87745 0
M  V30 11840 O 1153.92 1.13013 -1.43298 0
M  V30 11841 C 1153.97 -1.97268 -3.02932 0
M  V30 11842 O 1153.69 -3.35196 -2.82091 0
M  V30 11843 C 1155.19 -1.9649 -3.97374 0
M  V30 11844 H 1152.41 -0.427228 -0.517414 0
M  V30 11845 H 1154.96 -1.72983 -1.09074 0
M  V30 11846 H 1153.11 -1.51651 -3.56484 0
M  V30 11847 H 1153.52 -3.7266 -3.69087 0
M  V30 11848 H 1155 -2.52557 -4.90835 0
M  V30 11849 H 1155.48 -0.946525 -4.28879 0
M  V30 11850 H 1156.08 -2.4197 -3.49758 0
M  V30 11851 N 1154.4 1.08748 -1.14068 0
M  V30 11852 C 1155.62 1.85353 -0.930532 0
M  V30 11853 C 1156.05 1.80892 0.515717 0
M  V30 11854 O 1155.4 1.19146 1.36652 0
M  V30 11855 C 1155.45 3.30962 -1.43167 0
M  V30 11856 O 1154.56 4.0769 -0.621468 0
M  V30 11857 H 1153.9 0.574485 -0.332962 0
M  V30 11858 H 1156.43 1.37282 -1.51707 0
M  V30 11859 H 1156.44 3.81807 -1.43832 0
M  V30 11860 H 1155.11 3.33524 -2.48464 0
M  V30 11861 H 1153.69 3.66587 -0.683267 0
M  V30 11862 N 1155.87 0.935264 1.26849 0
M  V30 11863 C 1157.12 0.580548 1.94313 0
M  V30 11864 C 1157.45 -0.877205 1.73259 0
M  V30 11865 O 1156.73 -1.62679 1.06611 0
M  V30 11866 C 1157.01 0.916445 3.48243 0
M  V30 11867 C 1156.86 2.42851 3.78607 0
M  V30 11868 C 1158.18 0.427665 4.38017 0
M  V30 11869 H 1155.3 0.21239 0.705733 0
M  V30 11870 H 1157.94 1.16841 1.49827 0
M  V30 11871 H 1156.09 0.416169 3.86265 0
M  V30 11872 H 1157.77 3.00106 3.50335 0
M  V30 11873 H 1156.01 2.8745 3.24892 0
M  V30 11874 H 1156.68 2.61405 4.8618 0
M  V30 11875 H 1159.16 0.856525 4.07189 0
M  V30 11876 H 1158.03 0.691571 5.44526 0
M  V30 11877 H 1158.29 -0.672344 4.36958 0
M  V30 11878 N 1157.35 -1.41121 0.701616 0
M  V30 11879 C 1158.3 -2.30765 0.040121 0
M  V30 11880 C 1159.27 -1.47436 -0.764975 0
M  V30 11881 O 1160.45 -1.76209 -0.731775 0
M  V30 11882 C 1157.59 -3.33535 -0.885903 0
M  V30 11883 C 1156.71 -4.3194 -0.0717765 0
M  V30 11884 C 1155.84 -5.21779 -0.995996 0
M  V30 11885 C 1154.88 -6.11849 -0.175133 0
M  V30 11886 N 1154.02 -6.94151 -1.05348 0
M  V30 11887 H 1158.86 -2.86772 0.810312 0
M  V30 11888 H 1156.4 -1.41233 0.411301 0
M  V30 11889 H 1158.35 -3.91675 -1.4369 0
M  V30 11890 H 1156.98 -2.79065 -1.62243 0
M  V30 11891 H 1156.04 -3.75698 0.596221 0
M  V30 11892 H 1157.35 -4.95597 0.56435 0
M  V30 11893 H 1156.5 -5.84782 -1.61601 0
M  V30 11894 H 1155.24 -4.58363 -1.66597 0
M  V30 11895 H 1154.25 -5.4789 0.457916 0
M  V30 11896 H 1155.47 -6.77322 0.491133 0
M  V30 11897 H 1153.42 -6.33338 -1.70936 0
M  V30 11898 H 1153.33 -7.54518 -0.473065 0
M  V30 11899 H 1154.6 -7.61617 -1.66012 0
M  V30 11900 N 1158.83 -0.446794 -1.51134 0
M  V30 11901 C 1159.76 0.350229 -2.30858 0
M  V30 11902 C 1160.74 1.0125 -1.36684 0
M  V30 11903 O 1161.93 1.01433 -1.65605 0
M  V30 11904 C 1159.06 1.4464 -3.15748 0
M  V30 11905 C 1158.01 0.907102 -4.18277 0
M  V30 11906 C 1157.34 2.09974 -4.91747 0
M  V30 11907 C 1158.64 -0.0649758 -5.2226 0
M  V30 11908 H 1160.33 -0.315105 -2.97737 0
M  V30 11909 H 1157.88 -0.152985 -1.43185 0
M  V30 11910 H 1159.83 2.01127 -3.70305 0
M  V30 11911 H 1158.55 2.14016 -2.46708 0
M  V30 11912 H 1157.21 0.364382 -3.64785 0
M  V30 11913 H 1156.86 2.77991 -4.19202 0
M  V30 11914 H 1156.56 1.74523 -5.61084 0
M  V30 11915 H 1158.08 2.66996 -5.49131 0
M  V30 11916 H 1159.5 0.4099 -5.71833 0
M  V30 11917 H 1157.9 -0.332529 -5.99178 0
M  V30 11918 H 1158.97 -0.998681 -4.74504 0
M  V30 11919 N 1160.31 1.56586 -0.178487 0
M  V30 11920 C 1161.72 1.83633 0.337009 0
M  V30 11921 C 1162.07 1.09857 1.6256 0
M  V30 11922 O 1161.2 0.353933 2.13486 0
M  V30 11923 C 1161.79 3.33112 0.618225 0
M  V30 11924 C 1160.35 3.60629 1.07814 0
M  V30 11925 C 1159.5 2.7705 0.117825 0
M  V30 11926 H 1162.45 1.53508 -0.402612 0
M  V30 11927 H 1162.47 3.5098 1.46947 0
M  V30 11928 H 1161.98 3.8678 -0.319808 0
M  V30 11929 H 1160.08 3.12378 2.03103 0
M  V30 11930 H 1160.19 4.68921 0.982339 0
M  V30 11931 H 1158.56 2.47125 0.616563 0
M  V30 11932 H 1159.34 3.33501 -0.814356 0
M  V30 11933 N 1161.79 -0.095206 1.57312 0
M  V30 11934 C 1163.01 -0.81227 1.90289 0
M  V30 11935 C 1163.43 -1.72287 0.772178 0
M  V30 11936 O 1162.79 -1.80698 -0.255841 0
M  V30 11937 C 1162.84 -1.62572 3.22882 0
M  V30 11938 O 1162.56 -0.75175 4.31602 0
M  V30 11939 C 1164.06 -2.44585 3.6972 0
M  V30 11940 H 1161.28 -0.232256 0.629522 0
M  V30 11941 H 1163.82 -0.0724733 2.04372 0
M  V30 11942 H 1161.98 -2.31803 3.10397 0
M  V30 11943 H 1162.39 -1.31514 5.07744 0
M  V30 11944 H 1163.87 -2.97155 4.65191 0
M  V30 11945 H 1164.34 -3.23044 2.97555 0
M  V30 11946 H 1164.95 -1.80554 3.85072 0
M  V30 11947 N 1163.26 -1.53291 -0.366026 0
M  V30 11948 C 1164.68 -1.61144 -0.942849 0
M  V30 11949 C 1165.03 -0.478571 -1.90274 0
M  V30 11950 O 1164.15 0.395069 -2.12763 0
M  V30 11951 C 1164.75 -2.92081 -1.71681 0
M  V30 11952 C 1163.31 -3.0227 -2.24298 0
M  V30 11953 C 1162.45 -2.56436 -1.05526 0
M  V30 11954 H 1165.4 -1.58038 -0.144835 0
M  V30 11955 H 1165.42 -2.79858 -2.57798 0
M  V30 11956 H 1164.94 -3.74513 -1.01793 0
M  V30 11957 H 1163.04 -2.24425 -2.97429 0
M  V30 11958 H 1163.15 -4.07341 -2.5221 0
M  V30 11959 H 1161.51 -2.11301 -1.42211 0
M  V30 11960 H 1162.3 -3.41285 -0.371376 0
M  V30 11961 N 1164.74 0.6258 -1.44643 0
M  V30 11962 C 1165.68 1.75056 -1.46392 0
M  V30 11963 C 1166.65 1.59376 -0.322179 0
M  V30 11964 O 1167.84 1.81187 -0.519956 0
M  V30 11965 C 1164.96 3.12689 -1.30166 0
M  V30 11966 C 1164.01 3.47005 -2.47972 0
M  V30 11967 S 1164.84 3.43885 -4.10491 0
M  V30 11968 C 1166 4.84129 -3.96698 0
M  V30 11969 H 1166.23 1.73306 -2.41562 0
M  V30 11970 H 1163.77 0.800879 -1.32005 0
M  V30 11971 H 1165.72 3.9211 -1.21492 0
M  V30 11972 H 1164.38 3.11972 -0.364982 0
M  V30 11973 H 1163.58 4.47171 -2.32496 0
M  V30 11974 H 1163.18 2.75059 -2.53414 0
M  V30 11975 H 1165.47 5.73488 -3.60718 0
M  V30 11976 H 1166.41 5.0466 -4.96713 0
M  V30 11977 H 1166.82 4.58954 -3.28666 0
M  V30 11978 N 1166.22 1.31629 0.866686 0
M  V30 11979 C 1167.15 1.15377 1.98042 0
M  V30 11980 C 1168.17 0.0919633 1.6254 0
M  V30 11981 O 1169.35 0.339775 1.75236 0
M  V30 11982 C 1166.45 0.741295 3.30693 0
M  V30 11983 C 1165.63 1.88882 3.94516 0
M  V30 11984 C 1164.69 1.46186 5.05486 0
M  V30 11985 O 1163.71 2.17202 5.26129 0
M  V30 11986 N 1164.91 0.351096 5.79437 0
M  V30 11987 H 1167.68 2.11309 2.12529 0
M  V30 11988 H 1165.24 1.24007 1.04085 0
M  V30 11989 H 1167.23 0.438313 4.02319 0
M  V30 11990 H 1165.8 -0.12651 3.12344 0
M  V30 11991 H 1165.02 2.35894 3.15828 0
M  V30 11992 H 1166.31 2.65734 4.33892 0
M  V30 11993 H 1165.71 -0.240245 5.6519 0
M  V30 11994 H 1164.27 0.107663 6.51711 0
M  V30 11995 N 1167.7 -1.08142 1.14644 0
M  V30 11996 C 1168.92 -1.84857 0.940349 0
M  V30 11997 C 1169.35 -1.81163 -0.506117 0
M  V30 11998 O 1168.71 -1.19869 -1.36019 0
M  V30 11999 C 1168.76 -3.30198 1.4492 0
M  V30 12000 O 1167.86 -4.07355 0.64308 0
M  V30 12001 H 1167.2 -0.572711 0.336003 0
M  V30 12002 H 1169.73 -1.36475 1.52432 0
M  V30 12003 H 1169.74 -3.81039 1.45854 0
M  V30 12004 H 1168.42 -3.32202 2.50229 0
M  V30 12005 H 1166.99 -3.66219 0.702698 0
M  V30 12006 N 1169.18 -0.941978 -1.26351 0
M  V30 12007 C 1170.11 -0.469913 -2.28723 0
M  V30 12008 C 1171.09 0.477218 -1.63269 0
M  V30 12009 O 1172.27 0.378902 -1.90468 0
M  V30 12010 C 1169.4 0.264971 -3.46288 0
M  V30 12011 C 1168.36 -0.595682 -4.23834 0
M  V30 12012 C 1167.68 0.269208 -5.34022 0
M  V30 12013 C 1168.98 -1.86743 -4.87775 0
M  V30 12014 H 1170.68 -1.32551 -2.6846 0
M  V30 12015 H 1168.22 -0.638809 -1.29055 0
M  V30 12016 H 1170.18 0.606259 -4.17016 0
M  V30 12017 H 1168.9 1.15471 -3.05506 0
M  V30 12018 H 1167.56 -0.919875 -3.54872 0
M  V30 12019 H 1167.21 1.15832 -4.89481 0
M  V30 12020 H 1166.91 -0.30325 -5.86817 0
M  V30 12021 H 1168.43 0.605748 -6.07588 0
M  V30 12022 H 1169.85 -1.59333 -5.50714 0
M  V30 12023 H 1168.24 -2.38452 -5.50691 0
M  V30 12024 H 1169.31 -2.57831 -4.10671 0
M  V30 12025 N 1170.66 1.40747 -0.709091 0
M  V30 12026 C 1171.9 2.00606 -0.245324 0
M  V30 12027 C 1172.22 1.56489 1.16346 0
M  V30 12028 O 1171.49 0.801456 1.78755 0
M  V30 12029 H 1170.07 0.741833 -0.0877098 0
M  V30 12030 H 1172.74 1.72178 -0.913271 0
M  V30 12031 H 1171.83 3.10901 -0.273322 0
M  V30 12032 N 1172.13 0.454803 1.50895 0
M  V30 12033 C 1173.1 -0.336293 2.26719 0
M  V30 12034 C 1174.1 -0.93464 1.30848 0
M  V30 12035 O 1175.29 -0.80636 1.54413 0
M  V30 12036 C 1172.42 -1.47744 3.07221 0
M  V30 12037 H 1173.61 0.328462 2.98096 0
M  V30 12038 H 1171.16 0.208419 1.54904 0
M  V30 12039 H 1171.9 -2.17773 2.40302 0
M  V30 12040 H 1171.68 -1.05438 3.77658 0
M  V30 12041 H 1173.17 -2.03592 3.6461 0
M  V30 12042 N 1173.61 -1.56489 0.186789 0
M  V30 12043 C 1174.86 -1.96517 -0.45433 0
M  V30 12044 C 1175.17 -1.07618 -1.63333 0
M  V30 12045 O 1176.38 -1.37392 -2.3417 0
M  V30 12046 C 1174.84 -3.49482 -0.859685 0
M  V30 12047 C 1174.44 -4.47031 0.294572 0
M  V30 12048 C 1176.19 -3.98296 -1.46835 0
M  V30 12049 C 1174.09 -5.91254 -0.131279 0
M  V30 12050 H 1173.02 -0.733765 -0.17351 0
M  V30 12051 H 1175.68 -1.8139 0.277485 0
M  V30 12052 H 1174.06 -3.60082 -1.64793 0
M  V30 12053 H 1175.23 -4.48156 1.07205 0
M  V30 12054 H 1173.55 -4.08362 0.814197 0
M  V30 12055 H 1176.14 -5.03518 -1.79928 0
M  V30 12056 H 1176.49 -3.42123 -2.37186 0
M  V30 12057 H 1177.02 -3.90776 -0.744247 0
M  V30 12058 H 1173.76 -6.51334 0.737839 0
M  V30 12059 H 1173.28 -5.93401 -0.873786 0
M  V30 12060 H 1174.96 -6.44485 -0.569913 0
M  V30 12061 N 1175.09 0.086862 -1.5736 0
M  V30 12062 C 1176.32 0.802167 -1.90717 0
M  V30 12063 C 1176.73 1.71875 -0.781304 0
M  V30 12064 O 1176.09 1.80831 0.246255 0
M  V30 12065 C 1176.14 1.60858 -3.23739 0
M  V30 12066 O 1175.86 0.728851 -4.31995 0
M  V30 12067 C 1177.36 2.42621 -3.71012 0
M  V30 12068 H 1174.58 0.228914 -0.630745 0
M  V30 12069 H 1177.13 0.061634 -2.04407 0
M  V30 12070 H 1175.28 2.30153 -3.11622 0
M  V30 12071 H 1175.7 1.2882 -5.08435 0
M  V30 12072 H 1177.17 2.94683 -4.66761 0
M  V30 12073 H 1177.65 3.21462 -2.99264 0
M  V30 12074 H 1178.25 1.78509 -3.86024 0
M  V30 12075 N 1176.57 1.53483 0.357892 0
M  V30 12076 C 1177.8 1.73956 1.12013 0
M  V30 12077 C 1178.21 0.472053 1.82803 0
M  V30 12078 O 1177.57 -0.555499 1.7384 0
M  V30 12079 C 1177.62 2.91015 2.14459 0
M  V30 12080 O 1177.34 4.12862 1.4655 0
M  V30 12081 C 1178.84 3.23423 3.0317 0
M  V30 12082 H 1176.06 0.58161 0.334621 0
M  V30 12083 H 1178.6 2.00256 0.414467 0
M  V30 12084 H 1176.76 2.67087 2.80612 0
M  V30 12085 H 1177.17 4.78468 2.14869 0
M  V30 12086 H 1178.65 4.08717 3.71018 0
M  V30 12087 H 1179.12 2.39114 3.68404 0
M  V30 12088 H 1179.73 3.49305 2.42624 0
M  V30 12089 N 1178.05 -0.61812 1.44973 0
M  V30 12090 C 1179.29 -1.37468 1.48145 0
M  V30 12091 C 1179.61 -1.94628 0.120366 0
M  V30 12092 O 1178.88 -1.76548 -0.848982 0
M  V30 12093 H 1177.46 -0.510293 0.545536 0
M  V30 12094 H 1180.13 -0.726598 1.8085 0
M  V30 12095 H 1179.22 -2.19944 2.2143 0
M  V30 12096 N 1179.52 -1.32087 -0.859693 0
M  V30 12097 C 1180.75 -1.25348 -1.64607 0
M  V30 12098 C 1181.17 0.179425 -1.87945 0
M  V30 12099 O 1180.52 1.11487 -1.44489 0
M  V30 12100 C 1180.57 -2.0047 -3.00822 0
M  V30 12101 O 1180.3 -3.38169 -2.7852 0
M  V30 12102 C 1181.8 -2.00694 -3.95268 0
M  V30 12103 H 1179.02 -0.432692 -0.512854 0
M  V30 12104 H 1181.56 -1.7413 -1.07234 0
M  V30 12105 H 1179.72 -1.55423 -3.54855 0
M  V30 12106 H 1180.13 -3.76553 -3.65113 0
M  V30 12107 H 1181.6 -2.57748 -4.88129 0
M  V30 12108 H 1182.08 -0.99196 -4.27851 0
M  V30 12109 H 1182.69 -2.45666 -3.47172 0
M  V30 12110 N 1181 1.07532 -1.15215 0
M  V30 12111 C 1182.23 1.84356 -0.950139 0
M  V30 12112 C 1182.65 1.81429 0.496502 0
M  V30 12113 O 1182.01 1.20589 1.35381 0
M  V30 12114 C 1182.06 3.29425 -1.46669 0
M  V30 12115 O 1181.16 4.07008 -0.664674 0
M  V30 12116 H 1180.5 0.570921 -0.339036 0
M  V30 12117 H 1183.03 1.35665 -1.53154 0
M  V30 12118 H 1183.04 3.8026 -1.47873 0
M  V30 12119 H 1181.72 3.3087 -2.51988 0
M  V30 12120 H 1180.29 3.65841 -0.72211 0
M  V30 12121 N 1182.48 0.948665 1.2585 0
M  V30 12122 C 1183.71 0.617229 1.97479 0
M  V30 12123 C 1184.12 -0.809406 1.7057 0
M  V30 12124 O 1183.48 -1.54066 0.97826 0
M  V30 12125 C 1183.53 0.859065 3.51144 0
M  V30 12126 O 1183.25 2.2296 3.77121 0
M  V30 12127 C 1184.75 0.539197 4.40009 0
M  V30 12128 H 1181.97 0.231933 0.629641 0
M  V30 12129 H 1184.52 1.27141 1.60173 0
M  V30 12130 H 1182.67 0.25138 3.86584 0
M  V30 12131 H 1183.09 2.29524 4.71613 0
M  V30 12132 H 1184.56 0.758986 5.46757 0
M  V30 12133 H 1185.04 -0.526062 4.36038 0
M  V30 12134 H 1185.64 1.12594 4.10125 0
M  V30 12135 N 1183.96 -1.40369 0.716545 0
M  V30 12136 C 1185.21 -2.00101 0.253452 0
M  V30 12137 C 1185.52 -1.57471 -1.16027 0
M  V30 12138 O 1186.73 -2.09909 -1.72193 0
M  V30 12139 C 1185.18 -3.57645 0.402213 0
M  V30 12140 C 1184.79 -4.09248 1.82264 0
M  V30 12141 C 1186.53 -4.245 -3.88526e-05 0
M  V30 12142 C 1184.44 -5.59299 1.92193 0
M  V30 12143 H 1183.37 -0.748488 0.0910047 0
M  V30 12144 H 1186.02 -1.60595 0.887772 0
M  V30 12145 H 1184.4 -3.94857 -0.300706 0
M  V30 12146 H 1185.58 -3.83412 2.55601 0
M  V30 12147 H 1183.89 -3.54993 2.17644 0
M  V30 12148 H 1186.49 -5.34673 0.0534202 0
M  V30 12149 H 1186.83 -4.03046 -1.04208 0
M  V30 12150 H 1187.37 -3.92398 0.65336 0
M  V30 12151 H 1184.11 -5.85608 2.94522 0
M  V30 12152 H 1183.63 -5.86997 1.23268 0
M  V30 12153 H 1185.3 -6.24416 1.6945 0
M  V30 12154 N 1185.44 -0.462799 -1.50652 0
M  V30 12155 C 1186.68 0.0951853 -2.02576 0
M  V30 12156 C 1187.02 1.40113 -1.34469 0
M  V30 12157 O 1186.29 1.88793 -0.467702 0
M  V30 12158 C 1186.57 0.287603 -3.5895 0
M  V30 12159 C 1186.43 -1.03878 -4.37641 0
M  V30 12160 C 1187.75 1.04593 -4.27491 0
M  V30 12161 H 1184.86 0.0331191 -0.736255 0
M  V30 12162 H 1187.51 -0.606772 -1.80051 0
M  V30 12163 H 1185.66 0.885514 -3.78274 0
M  V30 12164 H 1187.33 -1.67263 -4.29908 0
M  V30 12165 H 1185.57 -1.6374 -4.01711 0
M  V30 12166 H 1186.24 -0.857889 -5.45293 0
M  V30 12167 H 1188.72 0.539213 -4.12591 0
M  V30 12168 H 1187.59 1.14935 -5.36732 0
M  V30 12169 H 1187.86 2.08045 -3.90089 0
M  V30 12170 N 1186.91 1.56388 -0.195085 0
M  V30 12171 C 1188.33 1.58788 0.160758 0
M  V30 12172 C 1188.53 1.21125 1.61031 0
M  V30 12173 O 1187.59 0.933994 2.34591 0
M  V30 12174 C 1188.9 3.00366 -0.141588 0
M  V30 12175 C 1190.45 3.12893 -0.0816947 0
M  V30 12176 C 1190.92 4.56604 -0.35735 0
M  V30 12177 N 1192.41 4.62188 -0.305968 0
M  V30 12178 C 1193.15 5.71276 -0.493108 0
M  V30 12179 N 1192.64 6.8883 -0.740595 0
M  V30 12180 N 1194.44 5.60473 -0.427365 0
M  V30 12181 H 1186.59 1.79151 -1.14099 0
M  V30 12182 H 1188.85 0.831446 -0.455413 0
M  V30 12183 H 1188.56 3.32483 -1.14666 0
M  V30 12184 H 1188.43 3.73082 0.555834 0
M  V30 12185 H 1190.82 2.80589 0.913978 0
M  V30 12186 H 1190.9 2.42564 -0.812193 0
M  V30 12187 H 1190.54 4.8962 -1.35034 0
M  V30 12188 H 1190.47 5.25124 0.394036 0
M  V30 12189 H 1192.96 3.77705 -0.121298 0
M  V30 12190 H 1193.28 7.67862 -0.872201 0
M  V30 12191 H 1191.62 6.90637 -0.777488 0
M  V30 12192 H 1194.81 4.67513 -0.234436 0
M  V30 12193 H 1194.99 6.45429 -0.576627 0
M  V30 12194 N 1188.39 -0.0785156 1.57404 0
M  V30 12195 C 1189.62 -0.792042 1.9114 0
M  V30 12196 C 1190.04 -1.71458 0.790408 0
M  V30 12197 O 1189.39 -1.80959 -0.236662 0
M  V30 12198 C 1189.44 -1.59138 3.24588 0
M  V30 12199 O 1189.16 -0.705931 4.32375 0
M  V30 12200 C 1190.67 -2.4065 3.72293 0
M  V30 12201 H 1187.89 -0.225566 0.63195 0
M  V30 12202 H 1190.43 -0.0507929 2.04437 0
M  V30 12203 H 1188.58 -2.28498 3.12838 0
M  V30 12204 H 1189 -1.26121 5.09111 0
M  V30 12205 H 1190.47 -2.92204 4.68317 0
M  V30 12206 H 1190.95 -3.1987 3.00965 0
M  V30 12207 H 1191.56 -1.7646 3.86965 0
M  V30 12208 N 1189.87 -1.5367 -0.349747 0
M  V30 12209 C 1191.12 -1.69835 -1.08807 0
M  V30 12210 C 1191.43 -0.46497 -1.89993 0
M  V30 12211 O 1192.64 -0.507452 -2.66716 0
M  V30 12212 C 1191.09 -3.00294 -1.98372 0
M  V30 12213 C 1190.7 -4.30949 -1.22422 0
M  V30 12214 C 1192.45 -3.25826 -2.72099 0
M  V30 12215 C 1190.35 -5.52486 -2.1098 0
M  V30 12216 H 1189.28 -0.63284 -0.409915 0
M  V30 12217 H 1191.93 -1.80171 -0.347968 0
M  V30 12218 H 1190.32 -2.838 -2.76176 0
M  V30 12219 H 1191.49 -4.58126 -0.495707 0
M  V30 12220 H 1189.81 -4.11983 -0.604896 0
M  V30 12221 H 1192.4 -4.13817 -3.38615 0
M  V30 12222 H 1192.75 -2.42566 -3.3833 0
M  V30 12223 H 1193.28 -3.43067 -2.0137 0
M  V30 12224 H 1190.02 -6.38271 -1.49301 0
M  V30 12225 H 1189.54 -5.29566 -2.81638 0
M  V30 12226 H 1191.22 -5.87889 -2.70176 0
M  V30 12227 N 1191.35 0.610423 -1.45298 0
M  V30 12228 C 1192.76 1.19234 -1.43667 0
M  V30 12229 C 1193.11 1.95523 -0.162794 0
M  V30 12230 O 1192.24 2.03507 0.735789 0
M  V30 12231 C 1192.83 2.16892 -2.60276 0
M  V30 12232 C 1191.39 2.70465 -2.61774 0
M  V30 12233 C 1190.54 1.45821 -2.35863 0
M  V30 12234 H 1193.49 0.399895 -1.53579 0
M  V30 12235 H 1193.51 2.99875 -2.34212 0
M  V30 12236 H 1193.02 1.61339 -3.52975 0
M  V30 12237 H 1191.12 3.29965 -1.73072 0
M  V30 12238 H 1191.23 3.15092 -3.60907 0
M  V30 12239 H 1189.6 1.74678 -1.85364 0
M  V30 12240 H 1190.38 0.921403 -3.30704 0
M  V30 12241 N 1192.83 1.32541 0.852676 0
M  V30 12242 C 1194.07 1.23397 1.60938 0
M  V30 12243 C 1194.41 -0.203294 1.93133 0
M  V30 12244 O 1193.68 -1.14097 1.57519 0
M  V30 12245 C 1193.96 2.0956 2.92842 0
M  V30 12246 C 1193.82 3.61675 2.67416 0
M  V30 12247 C 1195.14 1.95825 3.94133 0
M  V30 12248 H 1192.25 0.449608 0.583971 0
M  V30 12249 H 1194.9 1.62507 0.98446 0
M  V30 12250 H 1193.05 1.76336 3.46176 0
M  V30 12251 H 1194.72 4.05122 2.20621 0
M  V30 12252 H 1192.96 3.84242 2.01347 0
M  V30 12253 H 1193.63 4.17292 3.61347 0
M  V30 12254 H 1196.11 2.24935 3.50062 0
M  V30 12255 H 1194.98 2.58387 4.8428 0
M  V30 12256 H 1195.25 0.926466 4.32284 0
M  V30 12257 N 1194.3 -1.0692 1.15784 0
M  V30 12258 C 1195.27 -2.12407 0.861167 0
M  V30 12259 C 1196.27 -1.6018 -0.141031 0
M  V30 12260 O 1197.46 -1.73972 0.0891192 0
M  V30 12261 C 1194.59 -3.39693 0.286636 0
M  V30 12262 H 1195.78 -2.40157 1.79623 0
M  V30 12263 H 1193.34 -1.22881 0.965916 0
M  V30 12264 H 1194.07 -3.17587 -0.656417 0
M  V30 12265 H 1193.86 -3.78903 1.0087 0
M  V30 12266 H 1195.35 -4.17488 0.0967971 0
M  V30 12267 N 1195.78 -0.955326 -1.25345 0
M  V30 12268 C 1197.01 -0.627693 -1.97149 0
M  V30 12269 C 1197.43 0.800349 -1.70997 0
M  V30 12270 O 1196.78 1.53545 -0.986417 0
M  V30 12271 C 1196.83 -0.877675 -3.50684 0
M  V30 12272 O 1196.55 -2.24957 -3.75934 0
M  V30 12273 C 1198.06 -0.562524 -4.39716 0
M  V30 12274 H 1195.28 -0.235269 -0.628402 0
M  V30 12275 H 1197.82 -1.27989 -1.59496 0
M  V30 12276 H 1195.97 -0.271878 -3.86445 0
M  V30 12277 H 1196.39 -2.32022 -4.70389 0
M  V30 12278 H 1197.86 -0.787972 -5.46347 0
M  V30 12279 H 1198.34 0.50293 -4.36311 0
M  V30 12280 H 1198.95 -1.14767 -4.09522 0
M  V30 12281 N 1197.26 1.39987 -0.723979 0
M  V30 12282 C 1198.49 2.05037 -0.27702 0
M  V30 12283 C 1198.9 1.54565 1.08421 0
M  V30 12284 O 1198.26 0.705795 1.683 0
M  V30 12285 C 1198.31 3.60582 -0.25751 0
M  V30 12286 O 1198.03 4.09194 -1.565 0
M  V30 12287 C 1199.53 4.42817 0.206972 0
M  V30 12288 H 1196.75 0.659637 -0.122963 0
M  V30 12289 H 1199.3 1.7924 -0.98454 0
M  V30 12290 H 1197.45 3.85319 0.401037 0
M  V30 12291 H 1197.87 5.03447 -1.47112 0
M  V30 12292 H 1199.34 5.5174 0.16947 0
M  V30 12293 H 1199.82 4.21023 1.25045 0
M  V30 12294 H 1200.42 4.23205 -0.421604 0
M  V30 12295 N 1198.74 0.470782 1.50404 0
M  V30 12296 C 1199.67 -0.313458 2.31386 0
M  V30 12297 C 1200.65 -0.990623 1.38278 0
M  V30 12298 O 1201.84 -0.987854 1.67198 0
M  V30 12299 C 1198.97 -1.39599 3.18009 0
M  V30 12300 C 1197.92 -0.840443 4.19667 0
M  V30 12301 C 1197.25 -2.02124 4.95025 0
M  V30 12302 C 1198.55 0.148055 5.2209 0
M  V30 12303 H 1200.24 0.362432 2.97198 0
M  V30 12304 H 1197.79 0.175745 1.42924 0
M  V30 12305 H 1199.74 -1.9521 3.73458 0
M  V30 12306 H 1198.46 -2.10064 2.50081 0
M  V30 12307 H 1197.12 -0.306302 3.65318 0
M  V30 12308 H 1196.77 -2.71286 4.23571 0
M  V30 12309 H 1196.47 -1.65574 5.6379 0
M  V30 12310 H 1197.99 -2.58226 5.5331 0
M  V30 12311 H 1199.41 -0.318874 5.72413 0
M  V30 12312 H 1197.8 0.427811 5.98573 0
M  V30 12313 H 1198.87 1.07404 4.72855 0
M  V30 12314 N 1200.22 -1.56282 0.203376 0
M  V30 12315 C 1201.44 -2.02643 -0.441658 0
M  V30 12316 C 1201.87 -1.0825 -1.5383 0
M  V30 12317 O 1201.23 -0.0674337 -1.81175 0
M  V30 12318 C 1201.27 -3.47382 -0.967369 0
M  V30 12319 O 1200.38 -3.56115 -2.07981 0
M  V30 12320 H 1199.72 -0.656081 -0.102242 0
M  V30 12321 H 1202.25 -2.02134 0.316684 0
M  V30 12322 H 1202.26 -3.8734 -1.28186 0
M  V30 12323 H 1200.93 -4.15574 -0.164625 0
M  V30 12324 H 1199.51 -3.28035 -1.77334 0
M  V30 12325 N 1201.7 0.070167 -1.57444 0
M  V30 12326 C 1202.92 0.785703 -1.91941 0
M  V30 12327 C 1203.35 1.70243 -0.799932 0
M  V30 12328 O 1202.7 1.79608 0.247139 0
M  V30 12329 C 1202.75 1.55398 -3.25398 0
M  V30 12330 O 1201.86 2.66475 -3.14746 0
M  V30 12331 H 1201.2 0.214245 -0.628486 0
M  V30 12332 H 1203.73 0.0379243 -2.04565 0
M  V30 12333 H 1203.74 1.93287 -3.5931 0
M  V30 12334 H 1202.41 0.881366 -4.06454 0
M  V30 12335 H 1200.99 2.3143 -2.92394 0
M  V30 12336 N 1203.17 1.53854 0.341593 0
M  V30 12337 C 1204.1 1.84966 1.42513 0
M  V30 12338 C 1205.08 0.704944 1.54805 0
M  V30 12339 O 1206.27 0.957036 1.68981 0
M  V30 12340 C 1203.4 2.06099 2.79536 0
M  V30 12341 C 1202.35 3.21919 2.82049 0
M  V30 12342 C 1201.68 3.28389 4.21977 0
M  V30 12343 C 1202.98 4.59984 2.4741 0
M  V30 12344 H 1204.67 2.7571 1.16724 0
M  V30 12345 H 1202.22 1.32662 0.560073 0
M  V30 12346 H 1204.17 2.26448 3.55386 0
M  V30 12347 H 1202.9 1.12087 3.06764 0
M  V30 12348 H 1201.56 3.01429 2.08653 0
M  V30 12349 H 1201.2 2.3197 4.46317 0
M  V30 12350 H 1200.9 4.0622 4.24569 0
M  V30 12351 H 1202.43 3.50951 4.99666 0
M  V30 12352 H 1203.84 4.80334 3.12973 0
M  V30 12353 H 1202.24 5.40233 2.61282 0
M  V30 12354 H 1203.31 4.6346 1.42594 0
M  V30 12355 N 1204.65 -0.602709 1.4562 0
M  V30 12356 C 1205.9 -1.35889 1.49595 0
M  V30 12357 C 1206.22 -1.9449 0.141002 0
M  V30 12358 O 1205.49 -1.77438 -0.830209 0
M  V30 12359 H 1204.07 -0.504478 0.550918 0
M  V30 12360 H 1206.73 -0.707376 1.8161 0
M  V30 12361 H 1205.83 -2.17583 2.2375 0
M  V30 12362 N 1206.13 -1.32992 -0.845635 0
M  V30 12363 C 1207.09 -1.22607 -1.9365 0
M  V30 12364 C 1208.09 -0.146812 -1.60128 0
M  V30 12365 O 1209.28 -0.397863 -1.69596 0
M  V30 12366 C 1206.41 -0.887677 -3.2914 0
M  V30 12367 H 1207.61 -2.19563 -2.04285 0
M  V30 12368 H 1205.16 -1.16952 -1.03691 0
M  V30 12369 H 1205.9 0.0796777 -3.24202 0
M  V30 12370 H 1205.68 -1.66808 -3.54849 0
M  V30 12371 H 1207.17 -0.83958 -4.09073 0
M  V30 12372 N 1207.61 1.06304 -1.1635 0
M  V30 12373 C 1208.84 1.82799 -0.96913 0
M  V30 12374 C 1209.25 1.82526 0.482659 0
M  V30 12375 O 1208.61 1.24437 1.33498 0
M  V30 12376 C 1208.66 3.29417 -1.48884 0
M  V30 12377 O 1208.38 3.29803 -2.88377 0
M  V30 12378 C 1209.88 4.22642 -1.33748 0
M  V30 12379 H 1207.1 0.576388 -0.343537 0
M  V30 12380 H 1209.64 1.34122 -1.54375 0
M  V30 12381 H 1207.8 3.75406 -0.956509 0
M  V30 12382 H 1208.21 4.21486 -3.1217 0
M  V30 12383 H 1209.69 5.23545 -1.74942 0
M  V30 12384 H 1210.16 4.38287 -0.283021 0
M  V30 12385 H 1210.77 3.82499 -1.85942 0
M  V30 12386 N 1209.09 0.96196 1.24836 0
M  V30 12387 C 1210.5 0.660388 1.7463 0
M  V30 12388 C 1210.85 -0.824064 1.78055 0
M  V30 12389 O 1209.97 -1.64485 1.40619 0
M  V30 12390 C 1210.57 1.19205 3.17137 0
M  V30 12391 C 1209.13 0.940493 3.64461 0
M  V30 12392 C 1208.27 1.33076 2.43282 0
M  V30 12393 H 1211.22 1.13794 1.1062 0
M  V30 12394 H 1211.25 0.555595 3.76422 0
M  V30 12395 H 1210.76 2.27247 3.14612 0
M  V30 12396 H 1208.86 -0.124645 3.72391 0
M  V30 12397 H 1208.97 1.5821 4.52224 0
M  V30 12398 H 1207.34 0.749139 2.43434 0
M  V30 12399 H 1208.12 2.42055 2.43442 0
M  V30 12400 N 1210.56 -1.39601 0.731392 0
M  V30 12401 C 1211.81 -2.0019 0.277208 0
M  V30 12402 C 1212.13 -1.5832 -1.13841 0
M  V30 12403 O 1211.4 -0.829793 -1.77458 0
M  V30 12404 H 1209.98 -0.740344 0.0995006 0
M  V30 12405 H 1212.64 -1.70704 0.940547 0
M  V30 12406 H 1211.74 -3.10427 0.322749 0
M  V30 12407 N 1212.04 -0.478751 -1.50152 0
M  V30 12408 C 1213.29 0.0734397 -2.01967 0
M  V30 12409 C 1213.61 1.39523 -1.36229 0
M  V30 12410 O 1212.88 1.89141 -0.510149 0
M  V30 12411 H 1211.46 0.0301305 -0.746392 0
M  V30 12412 H 1214.12 -0.630921 -1.84406 0
M  V30 12413 H 1213.22 0.21937 -3.11328 0
M  V30 12414 N 1213.52 1.56172 -0.211661 0
M  V30 12415 C 1214.47 2.19849 0.702515 0
M  V30 12416 C 1215.44 1.15091 1.19763 0
M  V30 12417 O 1216.62 1.43408 1.25852 0
M  V30 12418 C 1213.76 2.87468 1.90935 0
M  V30 12419 C 1212.88 4.06794 1.45406 0
M  V30 12420 C 1212.01 4.62224 2.61769 0
M  V30 12421 C 1211.05 5.73872 2.12926 0
M  V30 12422 N 1210.19 6.23635 3.22526 0
M  V30 12423 H 1215.03 2.97608 0.152777 0
M  V30 12424 H 1212.56 1.46962 0.0636596 0
M  V30 12425 H 1214.52 3.24851 2.61777 0
M  V30 12426 H 1213.15 2.12244 2.43213 0
M  V30 12427 H 1212.2 3.74962 0.640907 0
M  V30 12428 H 1213.52 4.87497 1.05584 0
M  V30 12429 H 1212.67 5.01999 3.40709 0
M  V30 12430 H 1211.41 3.80662 3.04873 0
M  V30 12431 H 1210.41 5.33609 1.32445 0
M  V30 12432 H 1211.64 6.57262 1.70833 0
M  V30 12433 H 1209.58 5.44991 3.65131 0
M  V30 12434 H 1209.5 6.99435 2.86926 0
M  V30 12435 H 1210.77 6.68066 4.01631 0
M  V30 12436 N 1215 -0.0618163 1.57479 0
M  V30 12437 C 1216.41 -0.612461 1.76368 0
M  V30 12438 C 1216.76 -1.77381 0.838466 0
M  V30 12439 O 1215.89 -2.16386 0.0250211 0
M  V30 12440 C 1216.48 -1.11782 3.19829 0
M  V30 12441 C 1215.04 -1.61424 3.40028 0
M  V30 12442 C 1214.19 -0.53795 2.72032 0
M  V30 12443 H 1217.14 0.164382 1.57846 0
M  V30 12444 H 1217.16 -1.98634 3.24538 0
M  V30 12445 H 1216.67 -0.272353 3.87143 0
M  V30 12446 H 1214.77 -2.48263 2.77842 0
M  V30 12447 H 1214.88 -1.68431 4.48517 0
M  V30 12448 H 1213.25 -0.985355 2.34868 0
M  V30 12449 H 1214.03 0.297495 3.42009 0
M  V30 12450 N 1216.48 -1.54033 -0.333429 0
M  V30 12451 C 1217.7 -1.75716 -1.09232 0
M  V30 12452 C 1218.12 -0.501076 -1.82029 0
M  V30 12453 O 1217.48 0.527772 -1.74702 0
M  V30 12454 C 1217.53 -2.9439 -2.09802 0
M  V30 12455 O 1217.25 -4.15141 -1.39963 0
M  V30 12456 C 1218.75 -3.28206 -2.97987 0
M  V30 12457 H 1215.97 -0.586859 -0.325326 0
M  V30 12458 H 1218.51 -2.0089 -0.382555 0
M  V30 12459 H 1216.67 -2.71518 -2.76327 0
M  V30 12460 H 1217.08 -4.81826 -2.0723 0
M  V30 12461 H 1218.56 -4.14568 -3.64469 0
M  V30 12462 H 1219.03 -2.44944 -3.64553 0
M  V30 12463 H 1219.64 -3.5312 -2.37036 0
M  V30 12464 N 1217.95 0.594978 -1.45938 0
M  V30 12465 C 1218.92 1.68688 -1.55168 0
M  V30 12466 C 1219.92 1.54945 -0.429951 0
M  V30 12467 O 1221.11 1.59785 -0.693859 0
M  V30 12468 C 1218.24 3.0804 -1.46027 0
M  V30 12469 H 1219.43 1.61866 -2.52467 0
M  V30 12470 H 1216.99 0.811785 -1.33565 0
M  V30 12471 H 1217.72 3.20428 -0.499614 0
M  V30 12472 H 1217.51 3.19423 -2.27401 0
M  V30 12473 H 1219 3.8755 -1.55546 0
M  V30 12474 N 1219.43 1.33438 0.838571 0
M  V30 12475 C 1220.68 1.24259 1.58879 0
M  V30 12476 C 1220.99 -0.189957 1.94675 0
M  V30 12477 O 1222.2 -0.40376 2.68481 0
M  V30 12478 C 1220.66 2.1773 2.86569 0
M  V30 12479 C 1220.26 3.66156 2.58135 0
M  V30 12480 C 1222.01 2.17424 3.64591 0
M  V30 12481 C 1219.92 4.5154 3.81923 0
M  V30 12482 H 1218.85 0.461534 0.59624 0
M  V30 12483 H 1221.5 1.58504 0.924588 0
M  V30 12484 H 1219.88 1.76418 3.54532 0
M  V30 12485 H 1221.05 4.1591 1.98382 0
M  V30 12486 H 1219.37 3.68754 1.93416 0
M  V30 12487 H 1221.96 2.78446 4.56478 0
M  V30 12488 H 1222.31 1.16939 3.99539 0
M  V30 12489 H 1222.84 2.571 3.03553 0
M  V30 12490 H 1219.58 5.52902 3.52107 0
M  V30 12491 H 1219.1 4.06529 4.41015 0
M  V30 12492 H 1220.78 4.65359 4.495 0
M  V30 12493 N 1220.91 -1.05686 1.16912 0
M  V30 12494 C 1221.86 -2.11584 0.849483 0
M  V30 12495 C 1222.84 -1.59959 -0.173774 0
M  V30 12496 O 1224.04 -1.76978 0.0279436 0
M  V30 12497 C 1221.17 -3.41417 0.359079 0
M  V30 12498 C 1220.25 -3.99852 1.41347 0
M  V30 12499 N 1220.64 -4.32317 2.62557 0
M  V30 12500 C 1218.94 -4.27531 1.27017 0
M  V30 12501 C 1219.64 -4.7885 3.30269 0
M  V30 12502 N 1218.62 -4.78664 2.57647 0
M  V30 12503 H 1222.42 -2.34539 1.77112 0
M  V30 12504 H 1219.93 -1.23286 1.05708 0
M  V30 12505 H 1221.93 -4.1675 0.111666 0
M  V30 12506 H 1220.59 -3.19897 -0.556413 0
M  V30 12507 H 1221.6 -4.22472 2.99563 0
M  V30 12508 H 1218.28 -4.15423 0.415924 0
M  V30 12509 H 1219.67 -5.13123 4.33768 0
M  V30 12510 N 1222.39 -0.968567 -1.24324 0
M  V30 12511 C 1223.32 -0.457247 -2.24593 0
M  V30 12512 C 1224.33 0.434483 -1.56895 0
M  V30 12513 O 1225.52 0.240519 -1.76872 0
M  V30 12514 C 1222.62 0.359086 -3.36992 0
M  V30 12515 C 1221.8 -0.522945 -4.34263 0
M  V30 12516 C 1220.85 0.237528 -5.25664 0
M  V30 12517 O 1219.88 -0.368835 -5.68004 0
M  V30 12518 N 1221.08 1.52686 -5.6006 0
M  V30 12519 H 1223.85 -1.31934 -2.69098 0
M  V30 12520 H 1221.41 -0.840488 -1.38374 0
M  V30 12521 H 1223.4 0.87589 -3.95108 0
M  V30 12522 H 1221.97 1.12212 -2.91766 0
M  V30 12523 H 1221.19 -1.22071 -3.74823 0
M  V30 12524 H 1222.48 -1.12447 -4.96219 0
M  V30 12525 H 1221.88 2.0412 -5.2759 0
M  V30 12526 H 1220.43 1.98934 -6.207 0
M  V30 12527 N 1223.87 1.39211 -0.738786 0
M  V30 12528 C 1224.8 2.33209 -0.11647 0
M  V30 12529 C 1225.78 1.54108 0.720056 0
M  V30 12530 O 1226.96 1.82486 0.664264 0
M  V30 12531 C 1224.09 3.38226 0.78872 0
M  V30 12532 C 1223.05 4.27963 0.0560636 0
M  V30 12533 C 1222.37 5.2371 1.07852 0
M  V30 12534 C 1223.67 5.10508 -1.1036 0
M  V30 12535 H 1225.37 2.85501 -0.901649 0
M  V30 12536 H 1222.91 1.37272 -0.435032 0
M  V30 12537 H 1224.87 4.02938 1.23364 0
M  V30 12538 H 1223.59 2.84382 1.60606 0
M  V30 12539 H 1222.25 3.64735 -0.369274 0
M  V30 12540 H 1221.9 4.66161 1.88953 0
M  V30 12541 H 1221.6 5.846 0.593048 0
M  V30 12542 H 1223.12 5.91299 1.52307 0
M  V30 12543 H 1224.53 5.68544 -0.736943 0
M  V30 12544 H 1222.93 5.80558 -1.51895 0
M  V30 12545 H 1224 4.45117 -1.92352 0
M  V30 12546 N 1225.34 0.486708 1.49896 0
M  V30 12547 C 1226.27 -0.288898 2.31706 0
M  V30 12548 C 1227.26 -0.975901 1.3932 0
M  V30 12549 O 1228.44 -0.970065 1.68236 0
M  V30 12550 C 1225.57 -1.36218 3.19471 0
M  V30 12551 C 1224.52 -0.795884 4.20535 0
M  V30 12552 C 1223.85 -1.96862 4.97141 0
M  V30 12553 C 1225.15 0.203421 5.21904 0
M  V30 12554 H 1226.84 0.393934 2.96797 0
M  V30 12555 H 1224.39 0.190894 1.42729 0
M  V30 12556 H 1226.34 -1.91238 3.75508 0
M  V30 12557 H 1225.07 -2.074 2.52295 0
M  V30 12558 H 1223.73 -0.267538 3.65622 0
M  V30 12559 H 1223.37 -2.66779 4.26425 0
M  V30 12560 H 1223.07 -1.59585 5.65514 0
M  V30 12561 H 1224.6 -2.52343 5.56017 0
M  V30 12562 H 1226.01 -0.258144 5.72719 0
M  V30 12563 H 1224.41 0.491273 5.98086 0
M  V30 12564 H 1225.48 1.12414 4.7169 0
M  V30 12565 N 1226.82 -1.56058 0.219941 0
M  V30 12566 C 1228.05 -2.02652 -0.417101 0
M  V30 12567 C 1228.47 -1.09977 -1.53461 0
M  V30 12568 O 1227.82 -0.109088 -1.82174 0
M  V30 12569 C 1227.87 -3.48787 -0.950244 0
M  V30 12570 O 1227.6 -4.37928 0.12271 0
M  V30 12571 C 1229.1 -4.11018 -1.66069 0
M  V30 12572 H 1226.32 -0.663163 -0.102254 0
M  V30 12573 H 1228.86 -2.01722 0.335923 0
M  V30 12574 H 1227.02 -3.50338 -1.65355 0
M  V30 12575 H 1227.43 -5.23764 -0.277785 0
M  V30 12576 H 1228.9 -5.15046 -1.98575 0
M  V30 12577 H 1229.38 -3.55921 -2.57326 0
M  V30 12578 H 1229.99 -4.13313 -1.00263 0
M  V30 12579 N 1228.3 0.053464 -1.57509 0
M  V30 12580 C 1229.25 1.08014 -2.05999 0
M  V30 12581 C 1230.24 1.38958 -0.968862 0
M  V30 12582 O 1231.45 1.3815 -1.15389 0
M  V30 12583 H 1227.82 0.36575 -0.657062 0
M  V30 12584 H 1229.8 0.645169 -2.91342 0
M  V30 12585 C 1228.54 2.38004 -2.53475 0
M  V30 12586 H 1227.87 2.15048 -3.37038 0
M  V30 12587 H 1229.31 3.08244 -2.91138 0
M  V30 12588 C 1227.77 3.05259 -1.42543 0
M  V30 12589 O 1228.3 3.94097 -0.777832 0
M  V30 12590 N 1226.5 2.66182 -1.16599 0
M  V30 12591 H 1226.05 1.94027 -1.69444 0
M  V30 12592 H 1226.01 3.11503 -0.42585 0
M  V30 12593 N 1229.78 1.54207 0.325255 0
M  V30 12594 C 1231.03 1.71991 1.0613 0
M  V30 12595 C 1231.35 0.495505 1.88599 0
M  V30 12596 O 1230.62 -0.490504 1.8966 0
M  V30 12597 H 1229.2 0.634137 0.394816 0
M  V30 12598 H 1231.86 1.91507 0.362101 0
M  V30 12599 H 1230.96 2.59878 1.72829 0
M  V30 12600 N 1231.26 -0.58723 1.46251 0
M  V30 12601 C 1232.51 -1.34294 1.51028 0
M  V30 12602 C 1232.83 -1.94329 0.161623 0
M  V30 12603 O 1232.1 -1.78309 -0.811342 0
M  V30 12604 H 1230.68 -0.498607 0.556238 0
M  V30 12605 H 1233.34 -0.688074 1.8235 0
M  V30 12606 H 1232.43 -2.15197 2.26045 0
M  V30 12607 N 1232.74 -1.33881 -0.831482 0
M  V30 12608 C 1233.67 -1.27384 -1.95693 0
M  V30 12609 C 1234.65 -0.152943 -1.69411 0
M  V30 12610 O 1235.83 -0.34392 -1.9113 0
M  V30 12611 C 1232.96 -1.01982 -3.31989 0
M  V30 12612 C 1231.92 -2.10445 -3.72689 0
M  V30 12613 C 1231.24 -1.70245 -5.06873 0
M  V30 12614 C 1232.54 -3.52194 -3.8569 0
M  V30 12615 H 1234.24 -2.21549 -2.01386 0
M  V30 12616 H 1231.78 -1.06653 -0.967526 0
M  V30 12617 H 1233.73 -0.960841 -4.103 0
M  V30 12618 H 1232.46 -0.0425709 -3.26572 0
M  V30 12619 H 1231.12 -2.15398 -2.96647 0
M  V30 12620 H 1230.77 -0.712036 -4.97935 0
M  V30 12621 H 1230.47 -2.42834 -5.35075 0
M  V30 12622 H 1231.99 -1.65827 -5.87651 0
M  V30 12623 H 1233.4 -3.49701 -4.54293 0
M  V30 12624 H 1231.8 -4.23331 -4.25336 0
M  V30 12625 H 1232.87 -3.9016 -2.87929 0
M  V30 12626 N 1234.21 1.05064 -1.1747 0
M  V30 12627 C 1235.18 2.1101 -0.89485 0
M  V30 12628 C 1236.18 1.60384 0.11553 0
M  V30 12629 O 1237.37 1.73808 -0.116785 0
M  V30 12630 C 1234.5 3.39194 -0.340642 0
M  V30 12631 H 1235.69 2.37269 -1.83421 0
M  V30 12632 H 1233.24 1.21329 -0.985343 0
M  V30 12633 H 1233.98 3.18591 0.605808 0
M  V30 12634 H 1233.76 3.77251 -1.06885 0
M  V30 12635 H 1235.25 4.17281 -0.163204 0
M  V30 12636 N 1235.69 0.975146 1.23809 0
M  V30 12637 C 1236.64 0.510761 2.25077 0
M  V30 12638 C 1237.61 -0.447605 1.59955 0
M  V30 12639 O 1238.79 -0.356318 1.87443 0
M  V30 12640 C 1235.93 -0.185755 3.446 0
M  V30 12641 C 1235.05 0.812254 4.24295 0
M  V30 12642 C 1234.18 0.0910835 5.31122 0
M  V30 12643 C 1233.22 1.07866 6.02521 0
M  V30 12644 N 1232.36 0.386995 7.01033 0
M  V30 12645 H 1237.2 1.37913 2.64166 0
M  V30 12646 H 1234.73 0.691184 1.2985 0
M  V30 12647 H 1236.69 -0.606341 4.1277 0
M  V30 12648 H 1235.32 -1.01803 3.06327 0
M  V30 12649 H 1234.37 1.35125 3.55592 0
M  V30 12650 H 1235.69 1.56502 4.73612 0
M  V30 12651 H 1234.84 -0.387129 6.05464 0
M  V30 12652 H 1233.58 -0.694324 4.82732 0
M  V30 12653 H 1232.58 1.56767 5.26976 0
M  V30 12654 H 1233.81 1.86464 6.52999 0
M  V30 12655 H 1231.76 -0.3793 6.54903 0
M  V30 12656 H 1231.67 1.0785 7.48268 0
M  V30 12657 H 1232.94 -0.0690036 7.79469 0
M  V30 12658 N 1237.17 -1.38817 0.746158 0
M  V30 12659 C 1238.1 -2.33144 0.128836 0
M  V30 12660 C 1239.08 -1.54487 -0.711873 0
M  V30 12661 O 1240.27 -1.82836 -0.654577 0
M  V30 12662 C 1237.4 -3.38639 -0.770772 0
M  V30 12663 C 1236.35 -4.27987 -0.0333669 0
M  V30 12664 C 1235.68 -5.24274 -1.05073 0
M  V30 12665 C 1236.98 -5.09915 1.13066 0
M  V30 12666 H 1238.67 -2.85019 0.916778 0
M  V30 12667 H 1236.22 -1.37039 0.442306 0
M  V30 12668 H 1238.17 -4.03587 -1.21225 0
M  V30 12669 H 1236.89 -2.8523 -1.59095 0
M  V30 12670 H 1235.55 -3.64534 0.388612 0
M  V30 12671 H 1235.2 -4.67156 -1.86478 0
M  V30 12672 H 1234.9 -5.84906 -0.562037 0
M  V30 12673 H 1236.42 -5.92099 -1.49169 0
M  V30 12674 H 1237.84 -5.68145 0.767084 0
M  V30 12675 H 1236.23 -5.79744 1.54972 0
M  V30 12676 H 1237.3 -4.4409 1.94709 0
M  V30 12677 N 1238.65 -0.49465 -1.49636 0
M  V30 12678 C 1239.61 0.276064 -2.27531 0
M  V30 12679 C 1240.61 0.899619 -1.3328 0
M  V30 12680 O 1241.8 0.765136 -1.56497 0
M  V30 12681 C 1238.93 1.39547 -3.1103 0
M  V30 12682 H 1240.13 -0.407381 -2.9712 0
M  V30 12683 H 1237.68 -0.249416 -1.54297 0
M  V30 12684 H 1238.41 2.11326 -2.45992 0
M  V30 12685 H 1238.2 0.953877 -3.8032 0
M  V30 12686 H 1239.69 1.93853 -3.69879 0
M  V30 12687 N 1240.13 1.55939 -0.228214 0
M  V30 12688 C 1241.35 2.0332 0.409364 0
M  V30 12689 C 1241.78 1.10683 1.52088 0
M  V30 12690 O 1241.13 0.0962484 1.81044 0
M  V30 12691 C 1241.18 3.48877 0.911981 0
M  V30 12692 O 1240.29 3.59378 2.02289 0
M  V30 12693 H 1239.63 0.657625 0.0917909 0
M  V30 12694 H 1242.16 2.01605 -0.348802 0
M  V30 12695 H 1242.17 3.89331 1.22007 0
M  V30 12696 H 1240.84 4.15783 0.0984902 0
M  V30 12697 H 1239.42 3.30815 1.72093 0
M  V30 12698 N 1241.6 -0.0451101 1.57535 0
M  V30 12699 C 1242.83 -0.755068 1.93167 0
M  V30 12700 C 1243.25 -1.68949 0.826915 0
M  V30 12701 O 1242.61 -1.79978 -0.218534 0
M  V30 12702 C 1242.66 -1.50201 3.27829 0
M  V30 12703 O 1241.76 -2.61434 3.18945 0
M  V30 12704 H 1241.11 -0.204219 0.631815 0
M  V30 12705 H 1243.64 -0.00537504 2.04599 0
M  V30 12706 H 1243.65 -1.87547 3.6234 0
M  V30 12707 H 1242.32 -0.816591 4.07805 0
M  V30 12708 H 1240.9 -2.26749 2.96039 0
M  V30 12709 N 1243.08 -1.54377 -0.317073 0
M  V30 12710 C 1244.01 -1.8721 -1.39552 0
M  V30 12711 C 1244.99 -0.729483 -1.53664 0
M  V30 12712 O 1246.18 -0.983799 -1.67437 0
M  V30 12713 C 1243.31 -2.1052 -2.76222 0
M  V30 12714 C 1242.26 -3.26366 -2.76892 0
M  V30 12715 C 1241.59 -3.35061 -4.16699 0
M  V30 12716 C 1242.89 -4.63862 -2.40061 0
M  V30 12717 H 1244.58 -2.77532 -1.12323 0
M  V30 12718 H 1242.13 -1.33536 -0.538897 0
M  V30 12719 H 1244.08 -2.32073 -3.51739 0
M  V30 12720 H 1242.81 -1.16953 -3.04942 0
M  V30 12721 H 1241.46 -3.0471 -2.03831 0
M  V30 12722 H 1241.11 -2.39041 -4.4257 0
M  V30 12723 H 1240.81 -4.12923 -4.18053 0
M  V30 12724 H 1242.34 -3.58856 -4.94019 0
M  V30 12725 H 1243.75 -4.85252 -3.05292 0
M  V30 12726 H 1242.15 -5.44321 -2.52655 0
M  V30 12727 H 1243.22 -4.6567 -1.35202 0
M  V30 12728 N 1244.56 0.579466 -1.4656 0
M  V30 12729 C 1245.97 1.1616 -1.46164 0
M  V30 12730 C 1246.32 1.95134 -0.20423 0
M  V30 12731 O 1245.45 2.05022 0.692457 0
M  V30 12732 C 1246.04 2.11322 -2.64818 0
M  V30 12733 C 1244.6 2.64852 -2.67452 0
M  V30 12734 C 1243.75 1.40786 -2.38903 0
M  V30 12735 H 1246.7 0.367229 -1.54393 0
M  V30 12736 H 1246.72 2.94839 -2.4052 0
M  V30 12737 H 1246.23 1.53815 -3.56318 0
M  V30 12738 H 1244.33 3.26219 -1.80032 0
M  V30 12739 H 1244.45 3.07366 -3.67509 0
M  V30 12740 H 1242.81 1.70707 -1.89027 0
M  V30 12741 H 1243.59 0.851049 -3.32584 0
M  V30 12742 N 1246.04 1.3432 0.824371 0
M  V30 12743 C 1247.29 1.26345 1.57738 0
M  V30 12744 C 1247.61 -0.166836 1.94285 0
M  V30 12745 O 1246.88 -1.09911 1.62162 0
M  V30 12746 H 1245.46 0.46466 0.584893 0
M  V30 12747 H 1248.12 1.68214 0.984373 0
M  V30 12748 H 1247.22 1.8672 2.50084 0
M  V30 12749 N 1247.52 -1.0444 1.18026 0
M  V30 12750 C 1248.45 -2.14297 0.927314 0
M  V30 12751 C 1249.43 -1.69575 -0.13357 0
M  V30 12752 O 1250.61 -1.94191 0.0182439 0
M  V30 12753 C 1247.74 -3.44397 0.448134 0
M  V30 12754 C 1246.7 -4.02723 1.44907 0
M  V30 12755 C 1246.02 -5.28257 0.827555 0
M  V30 12756 C 1247.32 -4.39331 2.82463 0
M  V30 12757 H 1249.02 -2.35715 1.84605 0
M  V30 12758 H 1246.56 -1.13281 0.889012 0
M  V30 12759 H 1248.52 -4.20606 0.258554 0
M  V30 12760 H 1247.24 -3.22654 -0.506159 0
M  V30 12761 H 1245.9 -3.28591 1.62552 0
M  V30 12762 H 1245.55 -5.02822 -0.13381 0
M  V30 12763 H 1245.25 -5.68242 1.49581 0
M  V30 12764 H 1246.77 -6.07147 0.64842 0
M  V30 12765 H 1248.18 -5.06543 2.68491 0
M  V30 12766 H 1246.58 -4.90355 3.45936 0
M  V30 12767 H 1247.65 -3.4933 3.36299 0
M  V30 12768 N 1248.99 -0.981699 -1.2329 0
M  V30 12769 C 1249.96 -0.527992 -2.23036 0
M  V30 12770 C 1250.96 0.383083 -1.5617 0
M  V30 12771 O 1252.15 0.176595 -1.73303 0
M  V30 12772 C 1249.28 0.233501 -3.40099 0
M  V30 12773 H 1250.47 -1.40995 -2.64689 0
M  V30 12774 H 1248.03 -0.767724 -1.36146 0
M  V30 12775 H 1248.76 1.13194 -3.03904 0
M  V30 12776 H 1248.55 -0.420505 -3.89839 0
M  V30 12777 H 1250.04 0.539485 -4.14101 0
M  V30 12778 N 1250.47 1.3842 -0.753509 0
M  V30 12779 C 1251.4 2.29039 -0.0859463 0
M  V30 12780 C 1252.42 1.47742 0.68383 0
M  V30 12781 O 1253.61 1.70607 0.524933 0
M  V30 12782 C 1250.71 3.26668 0.902296 0
M  V30 12783 C 1249.88 4.36986 0.190178 0
M  V30 12784 C 1248.94 5.14805 1.08916 0
M  V30 12785 O 1247.96 5.66441 0.559715 0
M  V30 12786 N 1249.17 5.27777 2.41726 0
M  V30 12787 H 1251.93 2.8697 -0.864196 0
M  V30 12788 H 1249.49 1.502 -0.604288 0
M  V30 12789 H 1251.48 3.75606 1.50672 0
M  V30 12790 H 1250.05 2.69636 1.58163 0
M  V30 12791 H 1249.27 3.89684 -0.594959 0
M  V30 12792 H 1250.56 5.07899 -0.302594 0
M  V30 12793 H 1249.96 4.87376 2.87196 0
M  V30 12794 H 1248.52 5.8009 2.97219 0
M  V30 12795 N 1251.95 0.502579 1.49372 0
M  V30 12796 C 1253.2 -0.0432341 2.01654 0
M  V30 12797 C 1253.51 -1.379 1.38719 0
M  V30 12798 O 1254.72 -2.01159 1.82338 0
M  V30 12799 C 1253.17 -0.127509 3.59674 0
M  V30 12800 C 1252.78 1.20171 4.31582 0
M  V30 12801 C 1254.53 -0.623603 4.19895 0
M  V30 12802 C 1252.43 1.07951 5.81464 0
M  V30 12803 H 1251.36 -0.0199308 0.753737 0
M  V30 12804 H 1254.01 0.642237 1.71894 0
M  V30 12805 H 1252.4 -0.877465 3.86156 0
M  V30 12806 H 1253.57 1.96508 4.16799 0
M  V30 12807 H 1251.89 1.63136 3.83113 0
M  V30 12808 H 1254.48 -0.732562 5.29658 0
M  V30 12809 H 1254.83 -1.62282 3.83367 0
M  V30 12810 H 1255.36 0.0698641 3.97739 0
M  V30 12811 H 1252.1 2.05304 6.22519 0
M  V30 12812 H 1251.62 0.357051 5.98736 0
M  V30 12813 H 1253.3 0.758885 6.42534 0
M  V30 12814 N 1253.43 -1.55816 0.23648 0
M  V30 12815 C 1254.65 -2.03534 -0.398575 0
M  V30 12816 C 1255.08 -1.11488 -1.51499 0
M  V30 12817 O 1254.44 -0.105848 -1.80991 0
M  V30 12818 C 1254.48 -3.49356 -0.893467 0
M  V30 12819 O 1253.59 -3.60446 -2.00381 0
M  V30 12820 H 1252.93 -0.658102 -0.0883021 0
M  V30 12821 H 1255.46 -2.01417 0.359488 0
M  V30 12822 H 1255.47 -3.89972 -1.19941 0
M  V30 12823 H 1254.14 -4.1583 -0.0764388 0
M  V30 12824 H 1252.72 -3.31723 -1.70336 0
M  V30 12825 N 1254.91 0.036755 -1.57557 0
M  V30 12826 C 1255.85 1.05823 -2.07133 0
M  V30 12827 C 1256.85 1.37923 -0.983546 0
M  V30 12828 O 1258.05 1.36918 -1.16848 0
M  V30 12829 H 1254.43 0.358761 -0.660905 0
M  V30 12830 H 1256.4 0.614232 -2.9201 0
M  V30 12831 C 1255.15 2.35302 -2.55985 0
M  V30 12832 H 1254.47 2.11461 -3.393 0
M  V30 12833 H 1255.91 3.05139 -2.94391 0
M  V30 12834 C 1254.37 3.0373 -1.45773 0
M  V30 12835 O 1254.9 3.9325 -0.819587 0
M  V30 12836 N 1253.11 2.64931 -1.19416 0
M  V30 12837 H 1252.65 1.92219 -1.71492 0
M  V30 12838 H 1252.61 3.11033 -0.458865 0
M  V30 12839 N 1256.39 1.54543 0.308881 0
M  V30 12840 C 1257.32 1.81309 1.40212 0
M  V30 12841 C 1258.33 0.69568 1.47187 0
M  V30 12842 O 1259.52 0.973034 1.49647 0
M  V30 12843 C 1256.62 1.92901 2.78644 0
M  V30 12844 C 1255.79 3.23222 2.94697 0
M  V30 12845 C 1254.85 3.25329 4.13579 0
M  V30 12846 O 1253.88 3.989 4.06039 0
M  V30 12847 N 1255.08 2.50158 5.23833 0
M  V30 12848 H 1257.84 2.75659 1.1761 0
M  V30 12849 H 1255.41 1.54021 0.498925 0
M  V30 12850 H 1257.4 1.91721 3.56406 0
M  V30 12851 H 1255.97 1.05582 2.9423 0
M  V30 12852 H 1255.19 3.37241 2.04113 0
M  V30 12853 H 1256.48 4.09238 3.02328 0
M  V30 12854 H 1255.87 1.90002 5.32838 0
M  V30 12855 H 1254.43 2.5474 5.99959 0
M  V30 12856 N 1257.86 -0.571685 1.46866 0
M  V30 12857 C 1258.83 -1.66198 1.57832 0
M  V30 12858 C 1259.83 -1.54242 0.454547 0
M  V30 12859 O 1261.02 -1.58661 0.719191 0
M  V30 12860 C 1258.15 -3.05678 1.5091 0
M  V30 12861 H 1259.34 -1.57829 2.5501 0
M  V30 12862 H 1256.89 -0.790433 1.3484 0
M  V30 12863 H 1257.63 -3.19593 0.550529 0
M  V30 12864 H 1257.41 -3.15765 2.32454 0
M  V30 12865 H 1258.9 -3.85027 1.61692 0
M  V30 12866 N 1259.34 -1.34755 -0.817236 0
M  V30 12867 C 1260.57 -1.30676 -1.61054 0
M  V30 12868 C 1260.99 0.115343 -1.87746 0
M  V30 12869 O 1260.35 1.07887 -1.45705 0
M  V30 12870 C 1260.4 -2.10881 -2.92509 0
M  V30 12871 O 1259.5 -1.48223 -3.84842 0
M  V30 12872 H 1258.84 -0.448531 -0.489608 0
M  V30 12873 H 1261.37 -1.77642 -1.01512 0
M  V30 12874 H 1261.38 -2.22446 -3.42026 0
M  V30 12875 H 1260.06 -3.14274 -2.72406 0
M  V30 12876 H 1258.63 -1.45434 -3.4337 0
M  V30 12877 N 1260.82 1.03812 -1.18578 0
M  V30 12878 C 1262.07 1.76706 -0.980776 0
M  V30 12879 C 1262.39 1.88729 0.490562 0
M  V30 12880 O 1261.66 1.41413 1.35569 0
M  V30 12881 H 1260.24 0.654586 -0.359898 0
M  V30 12882 H 1262.9 1.25274 -1.49306 0
M  V30 12883 H 1262 2.77876 -1.42096 0
M  V30 12884 N 1262.3 0.988223 1.22768 0
M  V30 12885 C 1263.23 0.554478 2.26821 0
M  V30 12886 C 1264.21 -0.416293 1.64927 0
M  V30 12887 O 1265.39 -0.30795 1.91743 0
M  V30 12888 C 1262.52 -0.136266 3.47033 0
M  V30 12889 C 1261.48 0.752575 4.21332 0
M  V30 12890 C 1260.8 -0.0708236 5.34653 0
M  V30 12891 C 1262.1 2.04717 4.80508 0
M  V30 12892 H 1263.8 1.42423 2.63355 0
M  V30 12893 H 1261.34 0.686267 1.26595 0
M  V30 12894 H 1263.3 -0.451068 4.18979 0
M  V30 12895 H 1262.02 -1.04053 3.09581 0
M  V30 12896 H 1260.68 1.05095 3.51213 0
M  V30 12897 H 1260.33 -0.975859 4.93443 0
M  V30 12898 H 1260.03 0.520835 5.85287 0
M  V30 12899 H 1261.55 -0.379828 6.09417 0
M  V30 12900 H 1262.97 1.79663 5.44421 0
M  V30 12901 H 1261.36 2.58726 5.41462 0
M  V30 12902 H 1262.43 2.72896 4.00819 0
M  V30 12903 N 1263.78 -1.38018 0.760839 0
M  V30 12904 C 1264.72 -2.30387 0.13796 0
M  V30 12905 C 1265.69 -1.50548 -0.701754 0
M  V30 12906 O 1266.88 -1.79154 -0.656381 0
M  V30 12907 C 1264.02 -3.36993 -0.743642 0
M  V30 12908 C 1263.13 -4.31856 0.111489 0
M  V30 12909 C 1262.27 -5.25534 -0.773796 0
M  V30 12910 C 1261.3 -6.12042 0.0845311 0
M  V30 12911 N 1260.44 -6.97995 -0.758118 0
M  V30 12912 H 1265.28 -2.83077 0.931212 0
M  V30 12913 H 1262.82 -1.39361 0.470833 0
M  V30 12914 H 1264.78 -3.97417 -1.26948 0
M  V30 12915 H 1263.41 -2.85695 -1.50261 0
M  V30 12916 H 1262.46 -3.72832 0.755031 0
M  V30 12917 H 1263.77 -4.92758 0.774042 0
M  V30 12918 H 1262.92 -5.9111 -1.36653 0
M  V30 12919 H 1261.66 -4.65017 -1.47006 0
M  V30 12920 H 1260.67 -5.45455 0.689883 0
M  V30 12921 H 1261.89 -6.74629 0.777966 0
M  V30 12922 H 1259.84 -6.40018 -1.4392 0
M  V30 12923 H 1259.76 -7.55846 -0.152623 0
M  V30 12924 H 1261.02 -7.67973 -1.33559 0
M  V30 12925 N 1265.25 -0.510493 -1.49103 0
M  V30 12926 C 1266.5 0.030689 -2.02777 0
M  V30 12927 C 1266.83 1.35765 -1.38858 0
M  V30 12928 O 1266.11 1.87209 -0.527528 0
M  V30 12929 C 1266.39 0.173261 -3.59683 0
M  V30 12930 C 1266.24 -1.17749 -4.34114 0
M  V30 12931 C 1267.56 0.909395 -4.30602 0
M  V30 12932 H 1264.68 0.0096789 -0.736936 0
M  V30 12933 H 1267.32 -0.663746 -1.78029 0
M  V30 12934 H 1265.47 0.764721 -3.80899 0
M  V30 12935 H 1267.15 -1.80856 -4.24369 0
M  V30 12936 H 1265.39 -1.76438 -3.96298 0
M  V30 12937 H 1266.06 -1.03094 -5.42287 0
M  V30 12938 H 1268.54 0.407677 -4.14098 0
M  V30 12939 H 1267.41 0.978012 -5.40117 0
M  V30 12940 H 1267.67 1.9553 -3.96511 0
M  V30 12941 N 1266.73 1.55688 -0.24474 0
M  V30 12942 C 1268.14 1.84897 0.25882 0
M  V30 12943 C 1268.49 1.16653 1.57755 0
M  V30 12944 O 1267.62 0.444162 2.11793 0
M  V30 12945 C 1268.21 3.35434 0.476385 0
M  V30 12946 C 1266.77 3.64877 0.924213 0
M  V30 12947 C 1265.92 2.773 0.00021322 0
M  V30 12948 H 1268.87 1.51662 -0.467358 0
M  V30 12949 H 1268.89 3.56896 1.31929 0
M  V30 12950 H 1268.4 3.85076 -0.483567 0
M  V30 12951 H 1266.5 3.20711 1.89671 0
M  V30 12952 H 1266.62 4.72665 0.78257 0
M  V30 12953 H 1264.98 2.49517 0.511194 0
M  V30 12954 H 1265.76 3.29747 -0.955072 0
M  V30 12955 N 1268.21 -0.0283989 1.57574 0
M  V30 12956 C 1269.44 -0.730831 1.93563 0
M  V30 12957 C 1269.85 -1.68857 0.844556 0
M  V30 12958 O 1269.21 -1.8162 -0.178971 0
M  V30 12959 C 1269.26 -1.48731 3.29486 0
M  V30 12960 O 1268.98 -0.568017 4.34402 0
M  V30 12961 C 1270.48 -2.28684 3.79761 0
M  V30 12962 H 1267.7 -0.205346 0.638807 0
M  V30 12963 H 1270.25 0.0142728 2.04495 0
M  V30 12964 H 1268.4 -2.18429 3.19949 0
M  V30 12965 H 1268.82 -1.09861 5.12865 0
M  V30 12966 H 1270.29 -2.77157 4.77376 0
M  V30 12967 H 1270.77 -3.10133 3.10989 0
M  V30 12968 H 1271.37 -1.64059 3.92383 0
M  V30 12969 N 1269.69 -1.54705 -0.300681 0
M  V30 12970 C 1270.92 -1.77993 -1.0548 0
M  V30 12971 C 1271.33 -0.539574 -1.80926 0
M  V30 12972 O 1270.69 0.490597 -1.75782 0
M  V30 12973 C 1270.74 -2.98774 -2.0351 0
M  V30 12974 O 1270.46 -4.18016 -1.31126 0
M  V30 12975 C 1271.96 -3.34452 -2.90958 0
M  V30 12976 H 1269.18 -0.593628 -0.312805 0
M  V30 12977 H 1271.72 -2.01656 -0.339858 0
M  V30 12978 H 1269.88 -2.77318 -2.70506 0
M  V30 12979 H 1270.29 -4.86113 -1.96963 0
M  V30 12980 H 1271.77 -4.22206 -3.55593 0
M  V30 12981 H 1272.24 -2.52622 -3.59275 0
M  V30 12982 H 1272.85 -3.58069 -2.29493 0
M  V30 12983 N 1271.17 0.563888 -1.47167 0
M  V30 12984 C 1272.42 1.31766 -1.5271 0
M  V30 12985 C 1272.73 1.94664 -0.191164 0
M  V30 12986 O 1273.93 2.71214 -0.124543 0
M  V30 12987 C 1272.39 2.38907 -2.69168 0
M  V30 12988 C 1272 1.8223 -4.09263 0
M  V30 12989 C 1273.74 3.15508 -2.83999 0
M  V30 12990 C 1271.65 2.87111 -5.17031 0
M  V30 12991 H 1270.58 0.495421 -0.568396 0
M  V30 12992 H 1273.23 0.599665 -1.73425 0
M  V30 12993 H 1271.61 3.13591 -2.4182 0
M  V30 12994 H 1272.79 1.13963 -4.46485 0
M  V30 12995 H 1271.1 1.18235 -3.99261 0
M  V30 12996 H 1273.7 3.93816 -3.61681 0
M  V30 12997 H 1274.04 3.69277 -1.92197 0
M  V30 12998 H 1274.57 2.47934 -3.11085 0
M  V30 12999 H 1271.31 2.38204 -6.10687 0
M  V30 13000 H 1270.83 3.53809 -4.84334 0
M  V30 13001 H 1272.51 3.50724 -5.43692 0
M  V30 13002 N 1272.64 1.35187 0.810078 0
M  V30 13003 C 1273.87 1.31371 1.59841 0
M  V30 13004 C 1274.29 -0.109547 1.88482 0
M  V30 13005 O 1273.64 -1.06047 1.48527 0
M  V30 13006 C 1273.7 2.11496 2.93175 0
M  V30 13007 O 1273.42 3.48273 2.65777 0
M  V30 13008 C 1274.92 2.15226 3.87547 0
M  V30 13009 H 1272.14 0.451428 0.496441 0
M  V30 13010 H 1274.68 1.7799 1.00697 0
M  V30 13011 H 1272.84 1.68486 3.48843 0
M  V30 13012 H 1273.25 3.89845 3.50886 0
M  V30 13013 H 1274.72 2.75687 4.78226 0
M  V30 13014 H 1275.2 1.15007 4.23875 0
M  V30 13015 H 1275.81 2.58382 3.37815 0
M  V30 13016 N 1274.12 -1.03182 1.19127 0
M  V30 13017 C 1275.05 -2.13301 0.94999 0
M  V30 13018 C 1276.03 -1.69707 -0.115577 0
M  V30 13019 O 1277.22 -1.94161 0.0388395 0
M  V30 13020 C 1274.35 -3.43902 0.484637 0
M  V30 13021 C 1273.3 -4.01164 1.4917 0
M  V30 13022 C 1272.63 -5.2735 0.883537 0
M  V30 13023 C 1273.93 -4.36311 2.87107 0
M  V30 13024 H 1275.62 -2.33743 1.87095 0
M  V30 13025 H 1273.17 -1.12332 0.900977 0
M  V30 13026 H 1275.12 -4.20308 0.30315 0
M  V30 13027 H 1273.85 -3.23173 -0.471909 0
M  V30 13028 H 1272.5 -3.26849 1.66028 0
M  V30 13029 H 1272.15 -5.02936 -0.0804712 0
M  V30 13030 H 1271.85 -5.66624 1.55599 0
M  V30 13031 H 1273.38 -6.06425 0.71278 0
M  V30 13032 H 1274.79 -5.03666 2.73848 0
M  V30 13033 H 1273.19 -4.86659 3.51117 0
M  V30 13034 H 1274.26 -3.45743 3.39985 0
M  V30 13035 N 1275.6 -0.99472 -1.22242 0
M  V30 13036 C 1276.83 -0.690097 -1.95052 0
M  V30 13037 C 1277.24 0.745543 -1.73456 0
M  V30 13038 O 1276.6 1.50329 -1.03477 0
M  V30 13039 C 1276.65 -0.988798 -3.47714 0
M  V30 13040 O 1276.37 -2.36803 -3.68587 0
M  V30 13041 C 1277.87 -0.702132 -4.37704 0
M  V30 13042 H 1275.09 -0.255142 -0.620599 0
M  V30 13043 H 1277.64 -1.32998 -1.55344 0
M  V30 13044 H 1275.79 -0.394684 -3.85384 0
M  V30 13045 H 1276.21 -2.4687 -4.62769 0
M  V30 13046 H 1277.68 -0.961389 -5.43564 0
M  V30 13047 H 1278.16 0.363866 -4.3769 0
M  V30 13048 H 1278.76 -1.27738 -4.05664 0
M  V30 13049 N 1277.08 1.37613 -0.768148 0
M  V30 13050 C 1278.01 2.3291 -0.165911 0
M  V30 13051 C 1278.99 1.556 0.687205 0
M  V30 13052 O 1280.17 1.83854 0.625407 0
M  V30 13053 C 1277.3 3.39822 0.7168 0
M  V30 13054 C 1276.26 4.27986 -0.0347264 0
M  V30 13055 C 1275.58 5.2588 0.967192 0
M  V30 13056 C 1276.88 5.08052 -1.21164 0
M  V30 13057 H 1278.58 2.83524 -0.962006 0
M  V30 13058 H 1276.12 1.36318 -0.464051 0
M  V30 13059 H 1278.08 4.05464 1.14789 0
M  V30 13060 H 1276.8 2.87725 1.54538 0
M  V30 13061 H 1275.46 3.6387 -0.446557 0
M  V30 13062 H 1275.11 4.70064 1.79022 0
M  V30 13063 H 1274.81 5.85726 0.468913 0
M  V30 13064 H 1276.33 5.94397 1.3973 0
M  V30 13065 H 1277.75 5.66853 -0.857373 0
M  V30 13066 H 1276.14 5.77206 -1.64176 0
M  V30 13067 H 1277.21 4.40936 -2.0175 0
M  V30 13068 N 1278.56 0.518393 1.4883 0
M  V30 13069 C 1279.97 0.175476 1.58632 0
M  V30 13070 C 1280.17 -1.32081 1.52174 0
M  V30 13071 O 1279.23 -2.09817 1.40474 0
M  V30 13072 C 1280.54 0.767722 2.90734 0
M  V30 13073 C 1282.09 0.735402 3.04238 0
M  V30 13074 C 1282.56 1.30602 4.38984 0
M  V30 13075 N 1284.06 1.26748 4.45521 0
M  V30 13076 C 1284.79 1.679 5.48267 0
M  V30 13077 N 1284.29 2.16728 6.58028 0
M  V30 13078 N 1286.08 1.59209 5.39082 0
M  V30 13079 H 1278.23 1.491 1.51271 0
M  V30 13080 H 1280.49 0.619497 0.717584 0
M  V30 13081 H 1280.2 1.81777 3.01081 0
M  V30 13082 H 1280.07 0.238119 3.76448 0
M  V30 13083 H 1282.46 -0.305852 2.93511 0
M  V30 13084 H 1282.54 1.30235 2.20165 0
M  V30 13085 H 1282.19 2.34614 4.50465 0
M  V30 13086 H 1282.12 0.714858 5.21725 0
M  V30 13087 H 1284.61 0.90991 3.66782 0
M  V30 13088 H 1284.92 2.46154 7.32549 0
M  V30 13089 H 1283.26 2.20714 6.59022 0
M  V30 13090 H 1286.46 1.20869 4.52226 0
M  V30 13091 H 1286.63 1.91602 6.19025 0
M  V30 13092 N 1280.03 -1.55556 0.252993 0
M  V30 13093 C 1281.28 -1.98697 -0.369319 0
M  V30 13094 C 1281.6 -1.14256 -1.58021 0
M  V30 13095 O 1280.87 -0.226779 -1.94583 0
M  V30 13096 H 1279.45 -0.733869 -0.139444 0
M  V30 13097 H 1282.12 -1.91673 0.353197 0
M  V30 13098 H 1281.21 -3.04728 -0.674312 0
M  V30 13099 N 1281.51 0.0200419 -1.57587 0
M  V30 13100 C 1282.44 1.0456 -2.0396 0
M  V30 13101 C 1283.46 1.31922 -0.953962 0
M  V30 13102 O 1284.65 1.2925 -1.23112 0
M  V30 13103 C 1281.75 2.38514 -2.40758 0
M  V30 13104 C 1280.92 2.3038 -3.71812 0
M  V30 13105 C 1279.98 3.46856 -3.95698 0
M  V30 13106 O 1279 3.25944 -4.66636 0
M  V30 13107 N 1280.21 4.69033 -3.42036 0
M  V30 13108 H 1282.97 0.650282 -2.9256 0
M  V30 13109 H 1280.53 0.207818 -1.60561 0
M  V30 13110 H 1282.52 3.15172 -2.53868 0
M  V30 13111 H 1281.09 2.69859 -1.57781 0
M  V30 13112 H 1280.31 1.38762 -3.6897 0
M  V30 13113 H 1281.6 2.22097 -4.57767 0
M  V30 13114 H 1281 4.88923 -2.84553 0
M  V30 13115 H 1279.56 5.43025 -3.6051 0
M  V30 13116 N 1282.99 1.54862 0.292472 0
M  V30 13117 C 1284.4 1.65459 0.864891 0
M  V30 13118 C 1284.75 0.568808 1.87774 0
M  V30 13119 O 1283.88 -0.293107 2.14406 0
M  V30 13120 C 1284.47 2.99939 1.5755 0
M  V30 13121 C 1283.03 3.12628 2.09621 0
M  V30 13122 C 1282.18 2.61179 0.931713 0
M  V30 13123 H 1285.13 1.58549 0.0692679 0
M  V30 13124 H 1285.15 2.91839 2.44152 0
M  V30 13125 H 1284.66 3.78943 0.838088 0
M  V30 13126 H 1282.76 2.3836 2.86383 0
M  V30 13127 H 1282.88 4.18911 2.32488 0
M  V30 13128 H 1281.24 2.17846 1.31967 0
M  V30 13129 H 1282.02 3.42669 0.208121 0
M  V30 13130 N 1284.47 -0.556076 1.47464 0
M  V30 13131 C 1285.69 -1.3434 1.58011 0
M  V30 13132 C 1286.12 -1.86674 0.231138 0
M  V30 13133 O 1285.48 -1.63029 -0.793174 0
M  V30 13134 C 1285.52 -2.48844 2.60977 0
M  V30 13135 O 1284.63 -3.51108 2.16326 0
M  V30 13136 H 1283.97 -0.398986 0.53076 0
M  V30 13137 H 1286.5 -0.671898 1.93253 0
M  V30 13138 H 1286.51 -2.95398 2.81432 0
M  V30 13139 H 1285.18 -2.10109 3.58925 0
M  V30 13140 H 1283.76 -3.10852 2.05975 0
M  V30 13141 N 1285.95 -1.35615 -0.802897 0
M  V30 13142 C 1287.36 -1.15733 -1.099 0
M  V30 13143 C 1287.56 0.0277094 -2.01481 0
M  V30 13144 O 1286.62 0.697196 -2.42684 0
M  V30 13145 C 1287.93 -2.46201 -1.72643 0
M  V30 13146 C 1289.48 -2.52442 -1.85046 0
M  V30 13147 C 1289.96 -3.82962 -2.51205 0
M  V30 13148 N 1291.45 -3.84234 -2.58686 0
M  V30 13149 C 1292.18 -4.81956 -3.10654 0
M  V30 13150 N 1291.68 -5.90068 -3.63032 0
M  V30 13151 N 1293.47 -4.69389 -3.09241 0
M  V30 13152 H 1285.62 -2.11511 -0.194177 0
M  V30 13153 H 1287.88 -0.936259 -0.148739 0
M  V30 13154 H 1287.59 -3.33114 -1.12817 0
M  V30 13155 H 1287.46 -2.6102 -2.72302 0
M  V30 13156 H 1289.85 -1.65955 -2.44014 0
M  V30 13157 H 1289.93 -2.41534 -0.842316 0
M  V30 13158 H 1289.58 -4.69848 -1.92885 0
M  V30 13159 H 1289.51 -3.9116 -3.52564 0
M  V30 13160 H 1292 -3.0612 -2.21582 0
M  V30 13161 H 1292.31 -6.60623 -4.00996 0
M  V30 13162 H 1290.66 -5.93755 -3.6122 0
M  V30 13163 H 1293.85 -3.84066 -2.67602 0
M  V30 13164 H 1294.02 -5.4571 -3.49435 0
M  V30 13165 N 1287.43 1.02549 -1.19673 0
M  V30 13166 C 1288.67 1.75408 -0.995732 0
M  V30 13167 C 1288.99 1.89773 0.473863 0
M  V30 13168 O 1290.19 2.59638 0.793762 0
M  V30 13169 C 1288.65 3.15444 -1.73273 0
M  V30 13170 C 1288.26 3.09121 -3.24266 0
M  V30 13171 C 1290 3.92575 -1.61509 0
M  V30 13172 C 1287.91 4.44109 -3.9054 0
M  V30 13173 H 1286.84 0.657569 -0.368944 0
M  V30 13174 H 1289.49 1.14739 -1.43203 0
M  V30 13175 H 1287.87 3.76601 -1.22425 0
M  V30 13176 H 1289.05 2.57325 -3.82257 0
M  V30 13177 H 1287.36 2.45485 -3.36342 0
M  V30 13178 H 1289.96 4.92428 -2.08372 0
M  V30 13179 H 1290.3 4.12382 -0.569804 0
M  V30 13180 H 1290.83 3.38027 -2.09721 0
M  V30 13181 H 1287.57 4.29506 -4.95182 0
M  V30 13182 H 1287.09 4.95947 -3.37337 0
M  V30 13183 H 1288.77 5.12982 -3.94282 0
M  V30 13184 N 1288.9 1.00119 1.21713 0
M  V30 13185 C 1290.13 0.700431 1.94683 0
M  V30 13186 C 1290.55 -0.736333 1.73849 0
M  V30 13187 O 1289.9 -1.49778 1.04272 0
M  V30 13188 C 1289.95 1.00722 3.47185 0
M  V30 13189 O 1289.68 2.38754 3.67326 0
M  V30 13190 C 1291.18 0.725335 4.37326 0
M  V30 13191 H 1288.4 0.25843 0.619238 0
M  V30 13192 H 1290.94 1.3382 1.54636 0
M  V30 13193 H 1289.1 0.415117 3.85169 0
M  V30 13194 H 1289.51 2.49321 4.61454 0
M  V30 13195 H 1290.98 0.990202 5.43046 0
M  V30 13196 H 1291.46 -0.340649 4.37877 0
M  V30 13197 H 1292.07 1.29888 4.04981 0
M  V30 13198 N 1290.38 -1.37203 0.775435 0
M  V30 13199 C 1291.61 -2.03868 0.352927 0
M  V30 13200 C 1292.02 -1.58482 -1.0261 0
M  V30 13201 O 1291.38 -0.767772 -1.65564 0
M  V30 13202 C 1291.43 -3.59378 0.39116 0
M  V30 13203 O 1291.15 -4.03103 1.71579 0
M  V30 13204 C 1292.65 -4.4328 -0.0424808 0
M  V30 13205 H 1289.87 -0.654619 0.14736 0
M  V30 13206 H 1292.42 -1.75463 1.05039 0
M  V30 13207 H 1290.57 -3.86542 -0.257752 0
M  V30 13208 H 1290.99 -4.9764 1.65695 0
M  V30 13209 H 1292.46 -5.51989 0.0354215 0
M  V30 13210 H 1292.94 -4.25374 -1.09333 0
M  V30 13211 H 1293.54 -4.21349 0.578384 0
M  V30 13212 N 1291.86 -0.526279 -1.48553 0
M  V30 13213 C 1292.79 0.227364 -2.3239 0
M  V30 13214 C 1293.77 0.93862 -1.41859 0
M  V30 13215 O 1294.96 0.925119 -1.70749 0
M  V30 13216 C 1292.09 1.277 -3.22971 0
M  V30 13217 C 1291.04 0.684107 -4.22497 0
M  V30 13218 C 1290.37 1.83612 -5.02186 0
M  V30 13219 C 1291.67 -0.341723 -5.21181 0
M  V30 13220 H 1293.36 -0.472486 -2.95648 0
M  V30 13221 H 1290.91 -0.228669 -1.42173 0
M  V30 13222 H 1292.86 1.81215 -3.80446 0
M  V30 13223 H 1291.58 2.00638 -2.57705 0
M  V30 13224 H 1290.24 0.170505 -3.66203 0
M  V30 13225 H 1289.89 2.55379 -4.33348 0
M  V30 13226 H 1289.59 1.44536 -5.69547 0
M  V30 13227 H 1291.11 2.37513 -5.62512 0
M  V30 13228 H 1292.53 0.106207 -5.73202 0
M  V30 13229 H 1290.92 -0.649673 -5.96573 0
M  V30 13230 H 1291.99 -1.2488 -4.68543 0
M  V30 13231 N 1293.34 1.5542 -0.261239 0
M  V30 13232 C 1294.56 2.04142 0.366144 0
M  V30 13233 C 1294.99 1.13884 1.49706 0
M  V30 13234 O 1294.35 0.134629 1.80799 0
M  V30 13235 C 1294.39 3.50733 0.837774 0
M  V30 13236 O 1293.5 3.63588 1.94621 0
M  V30 13237 H 1292.84 0.659424 0.077821 0
M  V30 13238 H 1295.37 2.0082 -0.391487 0
M  V30 13239 H 1295.38 3.91831 1.13721 0
M  V30 13240 H 1294.05 4.15899 0.0102742 0
M  V30 13241 H 1292.63 3.34391 1.65037 0
M  V30 13242 N 1294.82 -0.0116844 1.57596 0
M  V30 13243 C 1296.23 -0.55604 1.78228 0
M  V30 13244 C 1296.58 -1.74624 0.894474 0
M  V30 13245 O 1295.7 -2.16196 0.0938498 0
M  V30 13246 C 1296.3 -1.0155 3.23223 0
M  V30 13247 C 1294.86 -1.50525 3.44992 0
M  V30 13248 C 1294 -0.451133 2.73606 0
M  V30 13249 H 1296.95 0.214516 1.57243 0
M  V30 13250 H 1296.98 -1.88208 3.30693 0
M  V30 13251 H 1296.49 -0.149048 3.87814 0
M  V30 13252 H 1294.59 -2.39298 2.856 0
M  V30 13253 H 1294.7 -1.54076 4.53649 0
M  V30 13254 H 1293.07 -0.910135 2.37884 0
M  V30 13255 H 1293.85 0.406152 3.40889 0
M  V30 13256 N 1296.29 -1.55015 -0.284256 0
M  V30 13257 C 1297.23 -1.82031 -1.37623 0
M  V30 13258 C 1298.2 -0.672564 -1.48038 0
M  V30 13259 O 1299.39 -0.914349 -1.64839 0
M  V30 13260 C 1296.52 -1.97193 -2.75377 0
M  V30 13261 C 1295.56 -3.19699 -2.82303 0
M  V30 13262 S 1296.39 -4.77348 -2.42691 0
M  V30 13263 C 1297.55 -4.95468 -3.82442 0
M  V30 13264 H 1297.78 -2.74366 -1.14502 0
M  V30 13265 H 1295.32 -1.46642 -0.483283 0
M  V30 13266 H 1297.27 -2.06614 -3.54713 0
M  V30 13267 H 1295.94 -1.05766 -2.95757 0
M  V30 13268 H 1295.13 -3.27161 -3.83382 0
M  V30 13269 H 1294.73 -3.08811 -2.10978 0
M  V30 13270 H 1297.02 -4.80519 -4.77606 0
M  V30 13271 H 1297.97 -5.97538 -3.7994 0
M  V30 13272 H 1298.37 -4.23516 -3.73222 0
M  V30 13273 N 1297.77 0.548248 -1.47757 0
M  V30 13274 C 1299.02 1.30243 -1.54535 0
M  V30 13275 C 1299.34 1.93832 -0.213089 0
M  V30 13276 O 1298.61 1.80397 0.763782 0
M  V30 13277 H 1297.19 0.483684 -0.569262 0
M  V30 13278 H 1299.85 0.639485 -1.8411 0
M  V30 13279 H 1298.95 2.09128 -2.31672 0
M  V30 13280 N 1299.25 1.36039 0.795694 0
M  V30 13281 C 1300.47 1.33222 1.58955 0
M  V30 13282 C 1300.9 -0.0854596 1.87906 0
M  V30 13283 O 1300.26 -1.05555 1.47403 0
M  V30 13284 C 1300.31 2.15508 2.89117 0
M  V30 13285 O 1299.41 1.54327 3.82436 0
M  V30 13286 H 1298.75 0.456264 0.48241 0
M  V30 13287 H 1301.28 1.79234 0.986726 0
M  V30 13288 H 1301.29 2.2786 3.38444 0
M  V30 13289 H 1299.97 3.18568 2.67371 0
M  V30 13290 H 1298.54 1.50879 3.41013 0
M  V30 13291 N 1300.73 -1.01913 1.20215 0
M  V30 13292 C 1301.98 -1.75124 1.00876 0
M  V30 13293 C 1302.3 -1.89485 -0.460475 0
M  V30 13294 O 1301.57 -1.43552 -1.33302 0
M  V30 13295 H 1300.15 -0.648777 0.370266 0
M  V30 13296 H 1302.81 -1.22883 1.5128 0
M  V30 13297 H 1301.91 -2.7558 1.46499 0
M  V30 13298 N 1302.21 -1.00763 -1.2118 0
M  V30 13299 C 1303.17 -0.575183 -2.21865 0
M  V30 13300 C 1304.17 0.349871 -1.56948 0
M  V30 13301 O 1305.36 0.139795 -1.73638 0
M  V30 13302 C 1302.49 0.161308 -3.40518 0
M  V30 13303 H 1303.68 -1.46578 -2.61639 0
M  V30 13304 H 1301.24 -0.79643 -1.34487 0
M  V30 13305 H 1301.97 1.06723 -3.06236 0
M  V30 13306 H 1301.76 -0.503101 -3.88859 0
M  V30 13307 H 1303.25 0.451527 -4.15152 0
M  V30 13308 N 1303.68 1.3679 -0.7827 0
M  V30 13309 C 1304.65 2.28472 -0.182525 0
M  V30 13310 C 1305.65 1.48524 0.616217 0
M  V30 13311 O 1306.84 1.68599 0.438197 0
M  V30 13312 C 1303.97 3.32588 0.748202 0
M  V30 13313 H 1305.16 2.83059 -0.99085 0
M  V30 13314 H 1302.72 1.46241 -0.551658 0
M  V30 13315 H 1303.45 2.83145 1.58112 0
M  V30 13316 H 1303.24 3.91698 0.177481 0
M  V30 13317 H 1304.73 4.01073 1.16321 0
M  V30 13318 N 1305.16 0.53415 1.48272 0
M  V30 13319 C 1306.57 0.0947592 1.86459 0
M  V30 13320 C 1306.92 -1.32906 1.44328 0
M  V30 13321 O 1306.05 -1.99605 0.835866 0
M  V30 13322 C 1306.64 0.16519 3.38397 0
M  V30 13323 C 1305.2 -0.219029 3.75762 0
M  V30 13324 C 1304.35 0.523097 2.72321 0
M  V30 13325 H 1307.3 0.74517 1.40117 0
M  V30 13326 H 1307.32 -0.622065 3.75381 0
M  V30 13327 H 1306.83 1.20157 3.69031 0
M  V30 13328 H 1304.94 -1.2574 3.50742 0
M  V30 13329 H 1305.05 0.123482 4.78941 0
M  V30 13330 H 1303.41 -0.0311323 2.54681 0
M  V30 13331 H 1304.2 1.56019 3.05799 0
M  V30 13332 N 1306.64 -1.55279 0.269478 0
M  V30 13333 C 1307.87 -2.04334 -0.355313 0
M  V30 13334 C 1308.29 -1.14677 -1.491 0
M  V30 13335 O 1307.65 -0.144215 -1.80726 0
M  V30 13336 C 1307.7 -3.51172 -0.819162 0
M  V30 13337 O 1306.8 -3.64615 -1.9269 0
M  V30 13338 H 1306.14 -0.659827 -0.0743229 0
M  V30 13339 H 1308.67 -2.00609 0.402131 0
M  V30 13340 H 1308.68 -3.92428 -1.11642 0
M  V30 13341 H 1307.36 -4.15898 0.0117821 0
M  V30 13342 H 1305.93 -3.35261 -1.63261 0
M  V30 13343 N 1308.12 0.00332656 -1.576 0
M  V30 13344 C 1309.03 1.01221 -2.1164 0
M  V30 13345 C 1310.04 1.37918 -1.06088 0
M  V30 13346 O 1311.22 1.46717 -1.37971 0
M  V30 13347 C 1308.29 2.28638 -2.60626 0
M  V30 13348 C 1307.35 1.98284 -3.80765 0
M  V30 13349 C 1306.58 3.19626 -4.27405 0
M  V30 13350 O 1306.8 4.31196 -3.73398 0
M  V30 13351 O 1305.74 3.03819 -5.19594 0
M  V30 13352 H 1309.56 0.582839 -2.98055 0
M  V30 13353 H 1307.15 0.221947 -1.47742 0
M  V30 13354 H 1309.03 3.03498 -2.92347 0
M  V30 13355 H 1307.7 2.70819 -1.7731 0
M  V30 13356 H 1306.61 1.2091 -3.54022 0
M  V30 13357 H 1307.94 1.60942 -4.65144 0
M  V30 13358 N 1309.6 1.55164 0.276031 0
M  V30 13359 C 1310.51 1.90928 1.36321 0
M  V30 13360 C 1311.52 0.806183 1.54197 0
M  V30 13361 O 1312.7 1.10497 1.68382 0
M  V30 13362 C 1309.76 2.17123 2.70293 0
M  V30 13363 C 1308.82 3.40703 2.6119 0
M  V30 13364 C 1308.06 3.65638 3.88773 0
M  V30 13365 O 1308.28 2.93137 4.89313 0
M  V30 13366 O 1307.21 4.59172 3.89159 0
M  V30 13367 H 1311.04 2.8347 1.08988 0
M  V30 13368 H 1308.63 1.41672 0.474292 0
M  V30 13369 H 1310.51 2.3541 3.49514 0
M  V30 13370 H 1309.18 1.27765 2.97419 0
M  V30 13371 H 1308.09 3.27754 1.80355 0
M  V30 13372 H 1309.42 4.30271 2.39014 0
M  V30 13373 N 1311.07 -0.540404 1.48045 0
M  V30 13374 C 1312.3 -1.32656 1.59427 0
M  V30 13375 C 1312.72 -1.86419 0.250924 0
M  V30 13376 O 1312.08 -1.63861 -0.775838 0
M  V30 13377 C 1312.13 -2.46062 2.63602 0
M  V30 13378 O 1311.23 -3.48794 2.20038 0
M  V30 13379 H 1310.58 -0.393334 0.534962 0
M  V30 13380 H 1313.11 -0.651363 1.93955 0
M  V30 13381 H 1313.12 -2.92396 2.84549 0
M  V30 13382 H 1311.79 -2.06291 3.61133 0
M  V30 13383 H 1310.37 -3.0865 2.0926 0
M  V30 13384 N 1312.55 -1.36459 -0.788468 0
M  V30 13385 C 1313.78 -1.34063 -1.58246 0
M  V30 13386 C 1314.2 0.0754933 -1.87948 0
M  V30 13387 O 1313.56 1.04772 -1.47961 0
M  V30 13388 C 1313.61 -2.17038 -2.8797 0
M  V30 13389 O 1312.71 -1.56353 -3.81612 0
M  V30 13390 H 1312.05 -0.458816 -0.479983 0
M  V30 13391 H 1314.58 -1.79755 -0.977207 0
M  V30 13392 H 1314.59 -2.29651 -3.3723 0
M  V30 13393 H 1313.27 -3.19981 -2.65678 0
M  V30 13394 H 1311.85 -1.52685 -3.40208 0
M  V30 13395 N 1314.03 1.01274 -1.20754 0
M  V30 13396 C 1315.26 1.7906 -1.04653 0
M  V30 13397 C 1315.68 1.83806 0.399632 0
M  V30 13398 O 1315.04 1.27596 1.28798 0
M  V30 13399 C 1315.09 3.21187 -1.63925 0
M  V30 13400 O 1314.19 4.02913 -0.879486 0
M  V30 13401 H 1313.53 0.552147 -0.368823 0
M  V30 13402 H 1316.06 1.27356 -1.6013 0
M  V30 13403 H 1316.07 3.71887 -1.67822 0
M  V30 13404 H 1314.75 3.17048 -2.69172 0
M  V30 13405 H 1313.32 3.61499 -0.915019 0
M  V30 13406 N 1315.51 1.01404 1.20644 0
M  V30 13407 C 1316.44 0.540288 2.22741 0
M  V30 13408 C 1317.45 -0.375953 1.584 0
M  V30 13409 O 1318.64 -0.174708 1.77643 0
M  V30 13410 C 1315.74 -0.233766 3.38093 0
M  V30 13411 C 1314.92 0.683759 4.32023 0
M  V30 13412 C 1313.98 -0.0422681 5.26183 0
M  V30 13413 O 1313 0.579392 5.66243 0
M  V30 13414 N 1314.2 -1.31794 5.65341 0
M  V30 13415 H 1316.97 1.41831 2.64015 0
M  V30 13416 H 1314.53 0.891265 1.35159 0
M  V30 13417 H 1316.52 -0.728645 3.98087 0
M  V30 13418 H 1315.09 -1.01306 2.9573 0
M  V30 13419 H 1314.31 1.35899 3.70034 0
M  V30 13420 H 1315.6 1.30786 4.91704 0
M  V30 13421 H 1315 -1.84399 5.34802 0
M  V30 13422 H 1313.55 -1.7576 6.27656 0
M  V30 13423 N 1316.99 -1.36373 0.789944 0
M  V30 13424 C 1318.23 -1.99523 0.363119 0
M  V30 13425 C 1318.57 -1.6255 -1.0626 0
M  V30 13426 O 1317.84 -0.880551 -1.73426 0
M  V30 13427 C 1318.12 -3.56215 0.527526 0
M  V30 13428 C 1317.98 -4.0304 1.99697 0
M  V30 13429 C 1319.3 -4.40063 -0.0571079 0
M  V30 13430 H 1316.42 -0.724824 0.133412 0
M  V30 13431 H 1319.06 -1.61778 0.996381 0
M  V30 13432 H 1317.21 -3.88498 -0.0115636 0
M  V30 13433 H 1318.88 -3.81241 2.59717 0
M  V30 13434 H 1317.12 -3.54561 2.49939 0
M  V30 13435 H 1317.79 -5.12001 2.06297 0
M  V30 13436 H 1320.27 -4.14143 0.403082 0
M  V30 13437 H 1319.15 -5.4883 0.0879494 0
M  V30 13438 H 1319.41 -4.26901 -1.14926 0
M  V30 13439 N 1318.47 -0.542005 -1.47987 0
M  V30 13440 C 1319.4 0.202703 -2.32618 0
M  V30 13441 C 1320.38 0.923521 -1.42846 0
M  V30 13442 O 1321.56 0.906957 -1.7172 0
M  V30 13443 C 1318.69 1.24267 -3.24307 0
M  V30 13444 C 1317.65 0.639257 -4.23199 0
M  V30 13445 C 1316.97 1.78275 -5.04105 0
M  V30 13446 C 1318.27 -0.396982 -5.20789 0
M  V30 13447 H 1319.97 -0.503817 -2.95131 0
M  V30 13448 H 1317.51 -0.243736 -1.41922 0
M  V30 13449 H 1319.46 1.7717 -3.82347 0
M  V30 13450 H 1318.19 1.97893 -2.59819 0
M  V30 13451 H 1316.85 0.131655 -3.66364 0
M  V30 13452 H 1316.5 2.50768 -4.36032 0
M  V30 13453 H 1316.2 1.38487 -5.71047 0
M  V30 13454 H 1317.72 2.31533 -5.65 0
M  V30 13455 H 1319.13 0.0454057 -5.73282 0
M  V30 13456 H 1317.53 -0.712911 -5.9585 0
M  V30 13457 H 1318.6 -1.29843 -4.67193 0
M  V30 13458 N 1319.94 1.55134 -0.277709 0
M  V30 13459 C 1321.35 1.85405 0.219543 0
M  V30 13460 C 1321.71 1.19973 1.55245 0
M  V30 13461 O 1320.83 0.488986 2.10803 0
M  V30 13462 C 1321.43 3.36369 0.405127 0
M  V30 13463 C 1319.98 3.66755 0.846609 0
M  V30 13464 C 1319.13 2.77238 -0.0586063 0
M  V30 13465 H 1322.08 1.50637 -0.499422 0
M  V30 13466 H 1322.1 3.59615 1.24329 0
M  V30 13467 H 1321.62 3.83963 -0.565138 0
M  V30 13468 H 1319.72 3.24662 1.82825 0
M  V30 13469 H 1319.83 4.74219 0.682135 0
M  V30 13470 H 1318.19 2.50546 0.458153 0
M  V30 13471 H 1318.98 3.27647 -1.0248 0
M  V30 13472 N 1321.42 0.00503138 1.57599 0
M  V30 13473 C 1322.65 -0.693231 1.95471 0
M  V30 13474 C 1323.07 -1.66233 0.880246 0
M  V30 13475 O 1322.43 -1.80582 -0.161164 0
M  V30 13476 C 1322.48 -1.39696 3.32442 0
M  V30 13477 O 1321.58 -2.51154 3.27101 0
M  V30 13478 H 1320.92 -0.184015 0.637992 0
M  V30 13479 H 1323.45 0.0597194 2.04513 0
M  V30 13480 H 1323.46 -1.75924 3.68123 0
M  V30 13481 H 1322.14 -0.686438 4.10196 0
M  V30 13482 H 1320.71 -2.17216 3.03103 0
M  V30 13483 N 1322.9 -1.55308 -0.267798 0
M  V30 13484 C 1324.12 -1.80524 -1.02107 0
M  V30 13485 C 1324.55 -0.579268 -1.78958 0
M  V30 13486 O 1323.91 0.471262 -1.75068 0
M  V30 13487 C 1323.96 -3.03248 -1.95123 0
M  V30 13488 O 1323.06 -2.78699 -3.03975 0
M  V30 13489 H 1322.4 -0.596518 -0.291655 0
M  V30 13490 H 1324.93 -2.0246 -0.295128 0
M  V30 13491 H 1324.94 -3.32121 -2.3698 0
M  V30 13492 H 1323.62 -3.92126 -1.386 0
M  V30 13493 H 1322.19 -2.60936 -2.66396 0
M  V30 13494 N 1324.38 0.532545 -1.4833 0
M  V30 13495 C 1325.6 1.31809 -1.60129 0
M  V30 13496 C 1326.03 1.86283 -0.260807 0
M  V30 13497 O 1325.39 1.6427 0.767137 0
M  V30 13498 C 1325.43 2.44661 -2.64903 0
M  V30 13499 O 1324.54 3.47622 -2.21885 0
M  V30 13500 H 1323.88 0.390492 -0.53704 0
M  V30 13501 H 1326.41 0.641068 -1.94297 0
M  V30 13502 H 1326.42 2.90883 -2.86096 0
M  V30 13503 H 1325.09 2.04373 -3.62222 0
M  V30 13504 H 1323.67 3.07536 -2.10894 0
M  V30 13505 N 1325.86 1.36875 0.78122 0
M  V30 13506 C 1326.79 1.27738 1.90304 0
M  V30 13507 C 1327.8 0.195147 1.61626 0
M  V30 13508 O 1328.99 0.450531 1.72721 0
M  V30 13509 C 1326.09 0.950103 3.25309 0
M  V30 13510 C 1325.26 2.13589 3.81705 0
M  V30 13511 C 1324.32 1.78037 4.95166 0
M  V30 13512 O 1323.35 2.50223 5.11251 0
M  V30 13513 N 1324.55 0.718886 5.76031 0
M  V30 13514 H 1327.31 2.24397 1.98661 0
M  V30 13515 H 1324.88 1.30376 0.959883 0
M  V30 13516 H 1326.87 0.693286 3.98717 0
M  V30 13517 H 1325.44 0.0723849 3.12516 0
M  V30 13518 H 1324.66 2.55502 3.00187 0
M  V30 13519 H 1325.95 2.9279 4.16114 0
M  V30 13520 H 1325.34 0.119681 5.65573 0
M  V30 13521 H 1323.9 0.521909 6.49707 0
M  V30 13522 N 1327.33 -1.00632 1.21289 0
M  V30 13523 C 1328.75 -1.26744 0.969956 0
M  V30 13524 C 1328.95 -1.98534 -0.344449 0
M  V30 13525 O 1328.01 -2.28687 -1.07044 0
M  V30 13526 C 1329.32 -2.09238 2.15963 0
M  V30 13527 C 1330.87 -2.22469 2.20174 0
M  V30 13528 C 1331.34 -3.08344 3.38656 0
M  V30 13529 N 1332.83 -3.15932 3.38734 0
M  V30 13530 C 1333.57 -3.82632 4.2706 0
M  V30 13531 N 1333.06 -4.51371 5.25582 0
M  V30 13532 N 1334.86 -3.79259 4.14872 0
M  V30 13533 H 1327.01 -0.524626 2.05819 0
M  V30 13534 H 1329.27 -0.294231 0.901184 0
M  V30 13535 H 1328.98 -1.63835 3.11209 0
M  V30 13536 H 1328.85 -3.09987 2.14914 0
M  V30 13537 H 1331.24 -2.67091 1.25485 0
M  V30 13538 H 1331.32 -1.21194 2.25268 0
M  V30 13539 H 1330.96 -2.64425 4.33638 0
M  V30 13540 H 1330.89 -4.0973 3.30801 0
M  V30 13541 H 1333.38 -2.66998 2.67434 0
M  V30 13542 H 1333.7 -4.99966 5.89283 0
M  V30 13543 H 1332.04 -4.50162 5.29508 0
M  V30 13544 H 1335.23 -3.2471 3.37166 0
M  V30 13545 H 1335.41 -4.30963 4.83916 0
M  V30 13546 N 1328.81 -1.02043 -1.20104 0
M  V30 13547 C 1329.74 -0.614421 -2.25271 0
M  V30 13548 C 1330.72 0.37242 -1.65973 0
M  V30 13549 O 1331.91 0.257005 -1.92492 0
M  V30 13550 C 1329.04 0.0442085 -3.47272 0
M  V30 13551 C 1327.99 -0.864019 -4.19188 0
M  V30 13552 C 1327.32 -0.0709551 -5.34653 0
M  V30 13553 C 1328.62 -2.17385 -4.74912 0
M  V30 13554 H 1330.31 -1.49355 -2.59487 0
M  V30 13555 H 1327.86 -0.719591 -1.24731 0
M  V30 13556 H 1329.81 0.339825 -4.20028 0
M  V30 13557 H 1328.53 0.958082 -3.12231 0
M  V30 13558 H 1327.19 -1.1437 -3.48303 0
M  V30 13559 H 1326.84 0.844688 -4.95857 0
M  V30 13560 H 1326.54 -0.67583 -5.83701 0
M  V30 13561 H 1328.07 0.218118 -6.1021 0
M  V30 13562 H 1329.48 -1.94034 -5.39466 0
M  V30 13563 H 1327.88 -2.72991 -5.34412 0
M  V30 13564 H 1328.95 -2.83427 -3.93443 0
M  V30 13565 N 1330.29 1.35952 -0.797165 0
M  V30 13566 C 1331.7 1.81554 -0.435311 0
M  V30 13567 C 1332.05 1.66266 1.04164 0
M  V30 13568 O 1331.18 1.18796 1.80877 0
M  V30 13569 C 1331.77 3.29619 -0.783358 0
M  V30 13570 C 1330.33 3.73401 -0.47423 0
M  V30 13571 C 1329.48 2.58098 -1.01394 0
M  V30 13572 H 1332.43 1.24064 -0.989638 0
M  V30 13573 H 1332.45 3.80421 -0.0773381 0
M  V30 13574 H 1331.96 3.40715 -1.85836 0
M  V30 13575 H 1330.06 3.6786 0.592418 0
M  V30 13576 H 1330.18 4.68542 -1.00026 0
M  V30 13577 H 1328.54 2.50927 -0.436747 0
M  V30 13578 H 1329.32 2.71976 -2.09485 0
M  V30 13579 N 1331.77 0.549846 1.47697 0
M  V30 13580 C 1333.18 0.11453 1.86348 0
M  V30 13581 C 1333.53 -1.31368 1.45729 0
M  V30 13582 O 1332.66 -1.98707 0.856989 0
M  V30 13583 C 1333.25 0.201072 3.38203 0
M  V30 13584 C 1331.81 -0.179162 3.75973 0
M  V30 13585 C 1330.96 0.551951 2.71751 0
M  V30 13586 H 1333.91 0.759989 1.39319 0
M  V30 13587 H 1333.93 -0.582216 3.76019 0
M  V30 13588 H 1333.44 1.24065 3.67736 0
M  V30 13589 H 1331.54 -1.22013 3.52056 0
M  V30 13590 H 1331.65 0.174273 4.78783 0
M  V30 13591 H 1330.02 -0.00411819 2.547 0
M  V30 13592 H 1330.8 1.59254 3.04127 0
M  V30 13593 N 1333.25 -1.54984 0.285932 0
M  V30 13594 C 1334.21 -2.2164 -0.583824 0
M  V30 13595 C 1335.21 -1.19764 -1.073 0
M  V30 13596 O 1336.4 -1.44598 -0.971439 0
M  V30 13597 C 1333.53 -2.8909 -1.80665 0
M  V30 13598 H 1334.72 -2.999 -0.00168109 0
M  V30 13599 H 1332.28 -1.56257 0.0366325 0
M  V30 13600 H 1333.01 -2.14869 -2.42903 0
M  V30 13601 H 1332.8 -3.63756 -1.4637 0
M  V30 13602 H 1334.29 -3.39982 -2.42491 0
M  V30 13603 N 1334.72 -0.0133892 -1.57594 0
M  V30 13604 C 1336.14 0.527615 -1.7909 0
M  V30 13605 C 1336.49 1.73179 -0.922142 0
M  V30 13606 O 1335.61 2.1602 -0.128233 0
M  V30 13607 C 1336.21 0.963949 -3.24798 0
M  V30 13608 C 1334.77 1.45017 -3.47343 0
M  V30 13609 C 1333.91 0.407548 -2.74289 0
M  V30 13610 H 1336.86 -0.239505 -1.56882 0
M  V30 13611 H 1336.88 1.82924 -3.33645 0
M  V30 13612 H 1336.4 0.0873315 -3.88002 0
M  V30 13613 H 1334.5 2.34724 -2.89371 0
M  V30 13614 H 1334.61 1.4684 -4.56043 0
M  V30 13615 H 1332.97 0.872174 -2.39301 0
M  V30 13616 H 1333.76 -0.460333 -3.402 0
M  V30 13617 O 1336.24 1.60987 0.128592 0
M  V30 13618 H 1336.93 1.78129 0.760913 0
M  V30 END ATOM
M  V30 BEGIN BOND
M  V30 END BOND
M  V30 END CTAB
M  END
$$$$
