drugbank_target|O43497 Voltage-dependent T-type calcium channel subunit alpha-1G (DB00347; DB00568; DB00593; DB00661; DB00909; DB01388; DB04841; DB05246; DB09061; DB14009; DB14011)
 OpenBabel12092119323D

  0  0  0     0  0            999 V3000
M  V30 BEGIN CTAB
M  V30 COUNTS 36753 37209 0 0 0
M  V30 BEGIN ATOM
M  V30 1 H -0.908 1.98254 -0.117106 0
M  V30 2 N 0 1.576 0 0
M  V30 3 C 0.933 2.03868 1.02534 0
M  V30 4 C 1.911 0.928543 1.3348 0
M  V30 5 O 3.095 1.19667 1.45644 0
M  V30 6 C 0.222 2.43627 2.35294 0
M  V30 7 C -0.732 3.65373 2.2001 0
M  V30 8 S 0.101 5.13292 1.52614 0
M  V30 9 C 1.257 5.56322 2.86805 0
M  V30 10 H 1.49 2.90518 0.631377 0
M  V30 11 H -0.977 1.52953 0.210867 0
M  V30 12 H 0.981 2.67203 3.11629 0
M  V30 13 H -0.358 1.57376 2.7183 0
M  V30 14 H -1.165 3.90944 3.18086 0
M  V30 15 H -1.563 3.418 1.51819 0
M  V30 16 H 0.729 5.58782 3.83104 0
M  V30 17 H 1.672 6.56266 2.65933 0
M  V30 18 H 2.08 4.83886 2.90714 0
M  V30 19 N 1.4781 -0.272755 1.55222 0
M  V30 20 C 2.7551 -1.02562 1.66555 0
M  V30 21 C 3.1351 -2.04282 0.532189 0
M  V30 22 O 2.4831 -2.23662 -0.467717 0
M  V30 23 C 2.6931 -1.6822 3.05782 0
M  V30 24 C 4.0411 -2.19373 3.63539 0
M  V30 25 O 5.0651 -1.78206 3.08417 0
M  V30 26 O 3.9241 -2.94883 4.60115 0
M  V30 27 H 1.0181 -0.475755 0.676451 0
M  V30 28 H 3.5641 -0.268593 1.67561 0
M  V30 29 H 2.3361 -0.945112 3.79715 0
M  V30 30 H 1.9591 -2.50609 3.08676 0
M  V30 31 N 2.9562 -1.48159 -0.537278 0
M  V30 32 C 3.8662 -1.64807 -1.6696 0
M  V30 33 C 4.8822 -0.530651 -1.65711 0
M  V30 34 O 6.0582 -0.800784 -1.84796 0
M  V30 35 C 3.1232 -1.67708 -3.03438 0
M  V30 36 C 2.1842 -2.91025 -3.156 0
M  V30 37 C 1.4172 -2.93778 -4.45567 0
M  V30 38 O 1.6402 -2.05153 -5.3223 0
M  V30 39 O 0.5742 -3.85868 -4.61941 0
M  V30 40 H 4.4002 -2.6066 -1.55853 0
M  V30 41 H 1.9852 -1.31475 -0.709549 0
M  V30 42 H 3.8672 -1.7218 -3.84619 0
M  V30 43 H 2.5422 -0.750278 -3.14885 0
M  V30 44 H 1.4492 -2.92089 -2.33741 0
M  V30 45 H 2.7822 -3.83065 -3.09066 0
M  V30 46 N 4.4343 0.785586 -1.36625 0
M  V30 47 C 5.3443 1.92964 -1.33425 0
M  V30 48 C 6.3603 1.72394 -0.235851 0
M  V30 49 O 7.5363 1.95866 -0.468878 0
M  V30 50 C 4.6013 3.27884 -1.12662 0
M  V30 51 C 3.6623 3.61204 -2.32013 0
M  V30 52 C 2.8953 4.89687 -2.12231 0
M  V30 53 O 3.1183 5.59704 -1.09945 0
M  V30 54 O 2.0523 5.21752 -3.00098 0
M  V30 55 H 5.8783 1.98613 -2.29753 0
M  V30 56 H 3.4633 0.926384 -1.17211 0
M  V30 57 H 5.3453 4.08614 -1.03016 0
M  V30 58 H 4.0203 3.23118 -0.193991 0
M  V30 59 H 2.9273 2.80765 -2.47228 0
M  V30 60 H 4.2603 3.70698 -3.23796 0
M  V30 61 N 5.9124 1.20967 1.01018 0
M  V30 62 C 6.8224 0.980157 2.13143 0
M  V30 63 C 7.8384 -0.0660665 1.73875 0
M  V30 64 O 9.0144 0.122821 2.01025 0
M  V30 65 C 6.0794 0.54216 3.42435 0
M  V30 66 C 5.1404 1.65999 3.95908 0
M  V30 67 C 4.3734 1.2428 5.19028 0
M  V30 68 O 4.5964 0.114196 5.70286 0
M  V30 69 O 3.5304 2.05271 5.65816 0
M  V30 70 H 7.3564 1.91913 2.35379 0
M  V30 71 H 4.9414 0.994099 1.11526 0
M  V30 72 H 6.8234 0.30744 4.20277 0
M  V30 73 H 5.4984 -0.36815 3.216 0
M  V30 74 H 4.4054 1.94906 3.19316 0
M  V30 75 H 5.7384 2.54753 4.21143 0
M  V30 76 N 7.3905 -1.2043 1.01659 0
M  V30 77 C 8.6675 -1.8548 0.621004 0
M  V30 78 C 9.0475 -1.9091 -0.900919 0
M  V30 79 O 8.3955 -1.41694 -1.79263 0
M  V30 80 C 8.6055 -3.25119 1.2688 0
M  V30 81 C 9.9535 -4.01403 1.38423 0
M  V30 82 O 10.9775 -3.34473 1.22501 0
M  V30 83 O 9.8365 -5.21265 1.64151 0
M  V30 84 H 6.9305 -0.798761 0.214266 0
M  V30 85 H 9.4765 -1.28019 1.11396 0
M  V30 86 H 8.2485 -3.15932 2.30873 0
M  V30 87 H 7.8715 -3.90212 0.762917 0
M  V30 88 N 8.8686 -0.792821 -1.36206 0
M  V30 89 C 10.1166 -0.366062 -1.98757 0
M  V30 90 C 10.4376 1.0668 -1.63231 0
M  V30 91 O 9.7076 1.73587 -0.907978 0
M  V30 92 H 8.2876 -0.132364 -0.735179 0
M  V30 93 H 10.9496 -1.01562 -1.66347 0
M  V30 94 H 10.0456 -0.460638 -3.08682 0
M  V30 95 N 10.3467 1.47872 -0.545128 0
M  V30 96 C 11.3097 2.28337 0.198717 0
M  V30 97 C 12.3097 1.36255 0.853888 0
M  V30 98 O 13.4997 1.59003 0.711606 0
M  V30 99 C 10.6317 3.15585 1.28915 0
M  V30 100 H 11.8247 2.95567 -0.507941 0
M  V30 101 H 9.3777 1.53362 -0.301616 0
M  V30 102 H 10.1127 2.53019 2.02859 0
M  V30 103 H 9.8977 3.83337 0.824309 0
M  V30 104 H 11.3877 3.76243 1.81194 0
M  V30 105 N 11.8248 0.280983 1.55075 0
M  V30 106 C 13.0728 -0.333455 1.9933 0
M  V30 107 C 13.3938 -1.55937 1.17085 0
M  V30 108 O 12.6638 -1.94143 0.261805 0
M  V30 109 H 11.2438 -0.126197 0.736263 0
M  V30 110 H 13.9058 0.387678 1.91005 0
M  V30 111 H 13.0018 -0.619292 3.05894 0
M  V30 112 N 13.3029 -1.57598 0.00835791 0
M  V30 113 C 14.2659 -2.07884 -0.965242 0
M  V30 114 C 15.2659 -0.989825 -1.26725 0
M  V30 115 O 16.4559 -1.25218 -1.21104 0
M  V30 116 C 13.5879 -2.52731 -2.28779 0
M  V30 117 H 14.7809 -2.95178 -0.530112 0
M  V30 118 H 12.3339 -1.54458 -0.239283 0
M  V30 119 H 13.0689 -1.68705 -2.76964 0
M  V30 120 H 12.8539 -3.32272 -2.08177 0
M  V30 121 H 14.3439 -2.91933 -2.98605 0
M  V30 122 N 14.781 0.264519 -1.55364 0
M  V30 123 C 15.691 1.34902 -1.91934 0
M  V30 124 C 16.707 1.53595 -0.817593 0
M  V30 125 O 17.883 1.67558 -1.11742 0
M  V30 126 C 14.948 2.68676 -2.19121 0
M  V30 127 C 14.009 2.58657 -3.4263 0
M  V30 128 C 13.242 3.86051 -3.68511 0
M  V30 129 O 13.465 4.87126 -2.96757 0
M  V30 130 O 12.399 3.85744 -4.62045 0
M  V30 131 H 16.225 1.06883 -2.8427 0
M  V30 132 H 13.81 0.463775 -1.42019 0
M  V30 133 H 15.692 3.47759 -2.37995 0
M  V30 134 H 14.367 2.96463 -1.29966 0
M  V30 135 H 13.274 1.7792 -3.29082 0
M  V30 136 H 14.607 2.35818 -4.32031 0
M  V30 137 N 16.2591 1.48442 0.529413 0
M  V30 138 C 17.1691 1.6569 1.66084 0
M  V30 139 C 18.1851 0.539432 1.65427 0
M  V30 140 O 19.3611 0.810572 1.84368 0
M  V30 141 C 16.4261 1.69315 3.02545 0
M  V30 142 C 15.4871 2.92694 3.14052 0
M  V30 143 C 14.7201 2.96137 4.44003 0
M  V30 144 O 14.9431 2.07973 5.31134 0
M  V30 145 O 13.8771 3.88312 4.59888 0
M  V30 146 H 17.7031 2.61483 1.54469 0
M  V30 147 H 15.2881 1.3185 0.702567 0
M  V30 148 H 17.1701 1.74217 3.83701 0
M  V30 149 H 15.8451 0.766966 3.14483 0
M  V30 150 H 14.7521 2.93324 2.32189 0
M  V30 151 H 16.0851 3.84699 3.0703 0
M  V30 152 N 17.7372 -0.778329 1.37039 0
M  V30 153 C 18.9622 -1.57248 1.35233 0
M  V30 154 C 19.3872 -1.87999 -0.0615568 0
M  V30 155 O 18.7452 -1.48734 -1.03672 0
M  V30 156 C 18.7932 -2.86353 2.19167 0
M  V30 157 O 17.8972 -3.80442 1.59178 0
M  V30 158 H 17.2382 -0.476569 0.462362 0
M  V30 159 H 19.7682 -0.963853 1.80474 0
M  V30 160 H 19.7782 -3.35519 2.32145 0
M  V30 161 H 18.4532 -2.63299 3.21942 0
M  V30 162 H 17.0302 -3.39067 1.55203 0
M  V30 163 N 19.2153 -1.21501 -1.00376 0
M  V30 164 C 20.4633 -1.03095 -1.73827 0
M  V30 165 C 20.7843 0.436341 -1.90055 0
M  V30 166 O 20.0543 1.31466 -1.45236 0
M  V30 167 H 18.6343 -0.378487 -0.644016 0
M  V30 168 H 21.2963 -1.52831 -1.20949 0
M  V30 169 H 20.3923 -1.49991 -2.73695 0
M  V30 170 N 20.6934 1.19889 -1.02296 0
M  V30 171 C 21.6254 2.22334 -0.556787 0
M  V30 172 C 22.6384 1.58674 0.364199 0
M  V30 173 O 23.8274 1.77768 0.161533 0
M  V30 174 C 20.9274 3.38257 0.208694 0
M  V30 175 C 20.1004 4.31504 -0.71577 0
M  V30 176 C 19.1594 5.262 0.00325597 0
M  V30 177 O 18.1854 5.65798 -0.621357 0
M  V30 178 N 19.3874 5.66303 1.27599 0
M  V30 179 H 22.1524 2.62957 -1.43784 0
M  V30 180 H 19.7134 1.34495 -0.901261 0
M  V30 181 H 21.7054 3.98616 0.699111 0
M  V30 182 H 20.2754 2.96472 0.991102 0
M  V30 183 H 19.4954 3.69016 -1.38638 0
M  V30 184 H 20.7834 4.9072 -1.34428 0
M  V30 185 H 20.1814 5.36155 1.80429 0
M  V30 186 H 18.7384 6.28942 1.71102 0
M  V30 187 N 22.1715 0.800033 1.35784 0
M  V30 188 C 23.5825 0.439142 1.81462 0
M  V30 189 C 23.9335 -1.03813 1.66485 0
M  V30 190 O 23.0585 -1.80626 1.19177 0
M  V30 191 C 23.6535 0.790314 3.29453 0
M  V30 192 C 22.2125 0.482111 3.733 0
M  V30 193 C 21.3595 1.01938 2.57883 0
M  V30 194 H 24.3105 0.992254 1.23855 0
M  V30 195 H 24.3315 0.0853677 3.80404 0
M  V30 196 H 23.8435 1.86554 3.40322 0
M  V30 197 H 21.9445 -0.584652 3.67984 0
M  V30 198 H 22.0575 1.01015 4.6833 0
M  V30 199 H 20.4215 0.442043 2.50835 0
M  V30 200 H 21.2045 2.10059 2.71533 0
M  V30 201 N 23.6496 -1.47581 0.552962 0
M  V30 202 C 25.0656 -1.5818 0.212424 0
M  V30 203 C 25.2656 -1.55213 -1.28496 0
M  V30 204 O 24.3216 -1.45329 -2.06484 0
M  V30 205 C 25.6346 -2.88865 0.835318 0
M  V30 206 C 27.1826 -3.0244 0.806156 0
M  V30 207 C 27.6576 -4.35819 1.40804 0
M  V30 208 N 29.1486 -4.42444 1.37103 0
M  V30 209 C 29.8836 -5.44202 1.80641 0
M  V30 210 N 29.3796 -6.52795 2.32015 0
M  V30 211 N 31.1726 -5.35222 1.71738 0
M  V30 212 H 23.3236 -1.47753 1.52587 0
M  V30 213 H 25.5866 -0.702941 0.636064 0
M  V30 214 H 25.2926 -2.9676 1.88749 0
M  V30 215 H 25.1666 -3.7579 0.325848 0
M  V30 216 H 27.5536 -2.94144 -0.237317 0
M  V30 217 H 27.6346 -2.17068 1.35334 0
M  V30 218 H 27.2786 -4.44871 2.45056 0
M  V30 219 H 27.2086 -5.19916 0.836338 0
M  V30 220 H 29.6996 -3.6456 0.995202 0
M  V30 221 H 30.0126 -7.26609 2.63171 0
M  V30 222 H 28.3576 -6.53696 2.36023 0
M  V30 223 H 31.5486 -4.49284 1.31382 0
M  V30 224 H 31.7216 -6.14389 2.05987 0
M  V30 225 N 25.1277 -0.289203 -1.54924 0
M  V30 226 C 26.3527 0.329299 -2.04769 0
M  V30 227 C 26.7777 1.4763 -1.16564 0
M  V30 228 O 26.1357 1.80527 -0.167186 0
M  V30 229 C 26.1837 0.774438 -3.52186 0
M  V30 230 O 25.2877 1.88038 -3.67036 0
M  V30 231 H 24.6287 0.0659259 -0.660719 0
M  V30 232 H 27.1587 -0.42761 -2.00082 0
M  V30 233 H 27.1687 1.06642 -3.93816 0
M  V30 234 H 25.8437 -0.0646707 -4.1585 0
M  V30 235 H 24.4207 1.58985 -3.3731 0
M  V30 236 N 26.6058 1.57591 -0.0167156 0
M  V30 237 C 27.8528 1.91283 0.664597 0
M  V30 238 C 28.1808 0.891949 1.72842 0
M  V30 239 O 27.4358 -0.100931 1.9544 0
M  V30 240 C 27.7348 3.3172 1.33029 0
M  V30 241 C 27.4008 4.4914 0.398047 0
M  V30 242 C 26.0628 4.80992 0.141421 0
M  V30 243 C 28.4148 5.20634 -0.242825 0
M  V30 244 C 25.7428 5.81703 -0.764092 0
M  V30 245 C 28.0948 6.22311 -1.13632 0
M  V30 246 C 26.7588 6.52611 -1.40196 0
M  V30 247 H 26.0288 0.699956 0.243193 0
M  V30 248 H 28.6758 1.9135 -0.0758267 0
M  V30 249 H 26.9808 3.27856 2.14517 0
M  V30 250 H 28.6778 3.55055 1.86379 0
M  V30 251 H 25.2678 4.24262 0.608238 0
M  V30 252 H 29.4518 4.96267 -0.0576019 0
M  V30 253 H 24.7078 6.03532 -0.977732 0
M  V30 254 H 28.8818 6.76834 -1.63917 0
M  V30 255 H 26.5088 7.30467 -2.10529 0
M  V30 256 N 28.0839 -0.256276 1.55502 0
M  V30 257 C 29.0169 -1.34321 1.84481 0
M  V30 258 C 29.9949 -1.46802 0.699131 0
M  V30 259 O 31.1789 -1.63165 0.943904 0
M  V30 260 C 28.3059 -2.71779 2.02123 0
M  V30 261 C 27.3519 -2.76496 3.24734 0
M  V30 262 S 28.1849 -2.3405 4.81644 0
M  V30 263 C 29.3409 -3.73452 5.02279 0
M  V30 264 H 29.5739 -1.09539 2.76385 0
M  V30 265 H 27.1069 -0.45678 1.47489 0
M  V30 266 H 29.0649 -3.50932 2.12972 0
M  V30 267 H 27.7259 -2.93803 1.11078 0
M  V30 268 H 26.9189 -3.77424 3.34016 0
M  V30 269 H 26.5209 -2.05379 3.12563 0
M  V30 270 H 28.8129 -4.6887 4.89047 0
M  V30 271 H 29.7559 -3.6911 6.04287 0
M  V30 272 H 30.1639 -3.6553 4.30172 0
M  V30 273 N 29.562 -1.4872 -0.521534 0
M  V30 274 C 30.978 -1.35028 -0.850855 0
M  V30 275 C 31.178 -0.367712 -1.98116 0
M  V30 276 O 30.234 0.208037 -2.51642 0
M  V30 277 C 31.547 -2.75263 -1.21041 0
M  V30 278 C 33.095 -2.83813 -1.31981 0
M  V30 279 C 33.57 -4.24769 -1.71276 0
M  V30 280 N 35.061 -4.27482 -1.78363 0
M  V30 281 C 35.796 -5.33494 -2.1017 0
M  V30 282 N 35.292 -6.49775 -2.40343 0
M  V30 283 N 37.085 -5.20894 -2.11248 0
M  V30 284 H 29.236 -2.11214 0.22413 0
M  V30 285 H 31.499 -0.947252 0.0376439 0
M  V30 286 H 31.205 -3.48765 -0.453415 0
M  V30 287 H 31.079 -3.09327 -2.15863 0
M  V30 288 H 33.466 -2.10561 -2.06756 0
M  V30 289 H 33.547 -2.53358 -0.352596 0
M  V30 290 H 33.191 -4.9854 -0.970588 0
M  V30 291 H 33.121 -4.52673 -2.69062 0
M  V30 292 H 35.612 -3.43611 -1.57288 0
M  V30 293 H 35.925 -7.26402 -2.63743 0
M  V30 294 H 34.27 -6.53035 -2.37844 0
M  V30 295 H 37.461 -4.29065 -1.87139 0
M  V30 296 H 37.634 -6.03612 -2.35704 0
M  V30 297 N 31.0401 0.771051 -1.3745 0
M  V30 298 C 31.9701 1.89827 -1.3597 0
M  V30 299 C 32.9511 1.68562 -0.228216 0
M  V30 300 O 34.1361 1.8941 -0.428675 0
M  V30 301 C 31.2661 3.2712 -1.16662 0
M  V30 302 C 30.2201 3.6295 -2.2683 0
M  V30 303 C 29.5461 4.98791 -1.92644 0
M  V30 304 C 30.8461 3.69627 -3.69017 0
M  V30 305 H 32.5401 1.91323 -2.30295 0
M  V30 306 H 30.0861 0.919082 -1.10855 0
M  V30 307 H 32.0391 4.05615 -1.14256 0
M  V30 308 H 30.7631 3.26059 -0.187926 0
M  V30 309 H 29.4221 2.86763 -2.28392 0
M  V30 310 H 29.0701 4.94271 -0.933021 0
M  V30 311 H 28.7701 5.23733 -2.66416 0
M  V30 312 H 30.2941 5.79685 -1.91826 0
M  V30 313 H 31.7081 4.38273 -3.69581 0
M  V30 314 H 30.1051 4.06067 -4.41848 0
M  V30 315 H 31.1751 2.70273 -4.02592 0
M  V30 316 N 32.5182 1.22032 0.997298 0
M  V30 317 C 33.4662 0.983634 2.10778 0
M  V30 318 C 34.4602 -0.0717564 1.69248 0
M  V30 319 O 35.6662 0.080304 1.79821 0
M  V30 320 H 32.0412 0.300877 0.689186 0
M  V30 321 H 34.0122 1.92606 2.27916 0
M  V30 322 C 32.7612 0.57326 3.42942 0
M  V30 323 H 32.0842 1.37702 3.75338 0
M  V30 324 H 33.5242 0.447031 4.21637 0
M  V30 325 C 31.9832 -0.7167 3.29188 0
M  V30 326 O 32.5132 -1.77027 3.60589 0
M  V30 327 N 30.7192 -0.686167 2.82383 0
M  V30 328 H 30.2662 0.171507 2.57028 0
M  V30 329 H 30.2242 -1.54955 2.73562 0
M  V30 330 N 33.9963 -1.19345 1.0293 0
M  V30 331 C 35.2733 -1.84811 0.640642 0
M  V30 332 C 35.6533 -1.91855 -0.88062 0
M  V30 333 O 35.0013 -1.43587 -1.7775 0
M  V30 334 C 35.2113 -3.23755 1.30321 0
M  V30 335 C 36.5593 -3.99912 1.42673 0
M  V30 336 O 37.5833 -3.33155 1.26041 0
M  V30 337 O 36.4423 -5.19494 1.6967 0
M  V30 338 H 33.5363 -0.796443 0.222726 0
M  V30 339 H 36.0823 -1.26831 1.12748 0
M  V30 340 H 34.8543 -3.13466 2.34211 0
M  V30 341 H 34.4773 -3.89381 0.804261 0
M  V30 342 N 35.4744 -0.807222 -1.35358 0
M  V30 343 C 36.4044 -0.232509 -2.3234 0
M  V30 344 C 37.3854 0.642386 -1.57504 0
M  V30 345 O 38.5704 0.572526 -1.85569 0
M  V30 346 C 35.7004 0.619238 -3.41735 0
M  V30 347 C 34.6544 -0.157215 -4.27711 0
M  V30 348 C 33.9804 0.816273 -5.28433 0
M  V30 349 C 35.2804 -1.35656 -5.04376 0
M  V30 350 H 36.9744 -1.04276 -2.80654 0
M  V30 351 H 34.5204 -0.50288 -1.34934 0
M  V30 352 H 36.4734 1.03137 -4.08584 0
M  V30 353 H 35.1974 1.46239 -2.92031 0
M  V30 354 H 33.8564 -0.550525 -3.62443 0
M  V30 355 H 33.5044 1.65494 -4.74996 0
M  V30 356 H 33.2044 0.301067 -5.86828 0
M  V30 357 H 34.7284 1.22659 -5.98153 0
M  V30 358 H 36.1424 -1.01927 -5.64166 0
M  V30 359 H 34.5394 -1.8063 -5.7227 0
M  V30 360 H 35.6094 -2.14288 -4.34981 0
M  V30 361 N 36.9525 1.47285 -0.560781 0
M  V30 362 C 38.1775 2.07359 -0.0410566 0
M  V30 363 C 38.6025 1.41017 1.24483 0
M  V30 364 O 37.9605 0.486368 1.74654 0
M  V30 365 C 38.0085 3.6035 0.134123 0
M  V30 366 O 37.1125 3.94681 1.19587 0
M  V30 367 H 36.4535 0.661887 -0.0529291 0
M  V30 368 H 38.9835 1.89252 -0.777482 0
M  V30 369 H 38.9935 4.0652 0.347207 0
M  V30 370 H 37.6685 4.08034 -0.805047 0
M  V30 371 H 36.2455 3.60251 0.962987 0
M  V30 372 N 38.4306 0.297415 1.54768 0
M  V30 373 C 39.6786 -0.312295 1.99673 0
M  V30 374 C 39.9996 -1.54686 1.18732 0
M  V30 375 O 39.2696 -1.93854 0.282382 0
M  V30 376 H 37.8496 -0.118381 0.73756 0
M  V30 377 H 40.5116 0.407915 1.90583 0
M  V30 378 H 39.6076 -0.586813 3.06534 0
M  V30 379 N 39.9087 -1.5758 0.0250728 0
M  V30 380 C 40.8717 -2.08896 -0.943139 0
M  V30 381 C 41.8717 -1.00321 -1.25668 0
M  V30 382 O 43.0617 -1.26495 -1.19769 0
M  V30 383 C 40.1937 -2.55143 -2.26086 0
M  V30 384 H 41.3867 -2.95723 -0.498775 0
M  V30 385 H 38.9397 -1.54703 -0.222888 0
M  V30 386 H 39.6747 -1.71633 -2.75159 0
M  V30 387 H 39.4597 -3.34461 -2.04641 0
M  V30 388 H 40.9497 -2.95083 -2.95492 0
M  V30 389 N 41.3868 0.248026 -1.55636 0
M  V30 390 C 42.6348 0.974295 -1.77065 0
M  V30 391 C 42.9558 1.85897 -0.588849 0
M  V30 392 O 42.2258 1.91868 0.395407 0
M  V30 393 H 40.8058 0.362733 -0.653019 0
M  V30 394 H 43.4678 0.266244 -1.93073 0
M  V30 395 H 42.5638 1.59667 -2.68166 0
M  V30 396 N 42.8649 1.48995 0.513639 0
M  V30 397 C 44.1129 1.57531 1.26604 0
M  V30 398 C 44.4339 0.258236 1.93283 0
M  V30 399 O 43.7039 -0.721502 1.8213 0
M  V30 400 H 42.2839 0.580387 0.470276 0
M  V30 401 H 44.9459 1.85552 0.596373 0
M  V30 402 H 44.0419 2.36486 2.03669 0
M  V30 403 N 44.343 -0.763751 1.37857 0
M  V30 404 C 45.759 -1.06542 1.18832 0
M  V30 405 C 45.959 -2.01478 0.0299722 0
M  V30 406 O 45.015 -2.4458 -0.627447 0
M  V30 407 C 46.328 -1.65525 2.51042 0
M  V30 408 C 47.876 -1.77745 2.57635 0
M  V30 409 C 48.351 -2.4014 3.89996 0
M  V30 410 N 49.842 -2.47582 3.91481 0
M  V30 411 C 50.577 -2.96732 4.9065 0
M  V30 412 N 50.073 -3.45993 6.00217 0
M  V30 413 N 51.866 -2.95679 4.78048 0
M  V30 414 H 44.017 -0.133556 2.1198 0
M  V30 415 H 46.28 -0.121879 0.940133 0
M  V30 416 H 45.986 -1.03236 3.36207 0
M  V30 417 H 45.86 -2.64719 2.68707 0
M  V30 418 H 48.247 -2.39164 1.72872 0
M  V30 419 H 48.328 -0.772836 2.43846 0
M  V30 420 H 47.972 -1.79358 4.75177 0
M  V30 421 H 47.902 -3.41223 4.01092 0
M  V30 422 H 50.393 -2.1273 3.12337 0
M  V30 423 H 50.706 -3.81922 6.7183 0
M  V30 424 H 49.051 -3.44077 6.03851 0
M  V30 425 H 52.242 -2.56499 3.91568 0
M  V30 426 H 52.415 -3.33672 5.55488 0
M  V30 427 N 45.8211 -1.22559 -0.990812 0
M  V30 428 C 47.2321 -1.04791 -1.54518 0
M  V30 429 C 47.5831 0.387998 -1.92325 0
M  V30 430 O 46.7081 1.27328 -1.74976 0
M  V30 431 C 47.3031 -1.896 -2.80779 0
M  V30 432 C 45.8621 -1.76124 -3.32652 0
M  V30 433 C 45.0091 -1.8594 -2.05722 0
M  V30 434 H 47.9601 -1.36374 -0.811662 0
M  V30 435 H 47.9811 -1.41464 -3.53225 0
M  V30 436 H 47.4931 -2.94101 -2.53231 0
M  V30 437 H 45.5941 -0.743643 -3.65104 0
M  V30 438 H 45.7071 -2.58913 -4.03114 0
M  V30 439 H 44.0711 -1.29403 -2.19379 0
M  V30 440 H 44.8541 -2.91976 -1.80568 0
M  V30 441 N 47.2992 1.18797 -1.03562 0
M  V30 442 C 48.5472 1.88278 -0.734569 0
M  V30 443 C 48.8682 1.8043 0.739586 0
M  V30 444 O 48.1382 1.21925 1.53333 0
M  V30 445 H 46.7182 0.696991 -0.268725 0
M  V30 446 H 49.3802 1.44192 -1.31129 0
M  V30 447 H 48.4762 2.94443 -1.03489 0
M  V30 448 N 48.7773 0.814389 1.34928 0
M  V30 449 C 50.1883 0.458364 1.80986 0
M  V30 450 C 50.5393 -1.02042 1.67577 0
M  V30 451 O 49.6643 -1.79352 1.21086 0
M  V30 452 C 50.2593 0.825212 3.28597 0
M  V30 453 C 48.8183 0.521677 3.72767 0
M  V30 454 C 47.9653 1.04668 2.56788 0
M  V30 455 H 50.9163 1.00533 1.22795 0
M  V30 456 H 50.9373 0.12571 3.80292 0
M  V30 457 H 50.4493 1.90154 3.38324 0
M  V30 458 H 48.5503 -0.545589 3.68584 0
M  V30 459 H 48.6633 1.05977 4.67232 0
M  V30 460 H 47.0273 0.468622 2.50352 0
M  V30 461 H 47.8103 2.12927 2.6929 0
M  V30 462 N 50.2554 -1.46986 0.568584 0
M  V30 463 C 51.5034 -2.02041 0.0487022 0
M  V30 464 C 51.8244 -1.44408 -1.31039 0
M  V30 465 O 51.0944 -0.623477 -1.85714 0
M  V30 466 H 49.6744 -0.746849 0.015014 0
M  V30 467 H 52.3364 -1.80257 0.741168 0
M  V30 468 H 51.4324 -3.12085 -0.0308961 0
M  V30 469 N 51.7335 -0.305618 -1.54608 0
M  V30 470 C 52.9585 0.307562 -2.05107 0
M  V30 471 C 53.3835 1.46385 -1.18123 0
M  V30 472 O 52.7415 1.8034 -0.186324 0
M  V30 473 C 52.7895 0.73704 -3.52987 0
M  V30 474 O 51.8935 1.84134 -3.6901 0
M  V30 475 H 51.2345 0.0589143 -0.661381 0
M  V30 476 H 53.7645 -0.448807 -1.99617 0
M  V30 477 H 53.7745 1.02459 -3.94925 0
M  V30 478 H 52.4495 -0.108773 -4.15758 0
M  V30 479 H 51.0265 1.55398 -3.38978 0
M  V30 480 N 53.2116 1.57565 -0.0334293 0
M  V30 481 C 54.1746 2.09393 0.932048 0
M  V30 482 C 55.1746 1.00986 1.25134 0
M  V30 483 O 56.3646 1.27129 1.19096 0
M  V30 484 C 53.4966 2.56338 2.2473 0
M  V30 485 H 54.6896 2.95984 0.483085 0
M  V30 486 H 52.2426 1.54819 0.21468 0
M  V30 487 H 52.9776 1.7309 2.74245 0
M  V30 488 H 52.7626 3.35542 2.02865 0
M  V30 489 H 54.2526 2.96646 2.93923 0
M  V30 490 N 54.6897 -0.239769 1.55765 0
M  V30 491 C 55.5997 -1.31831 1.94056 0
M  V30 492 C 56.6157 -1.52275 0.841925 0
M  V30 493 O 57.7917 -1.65759 1.14394 0
M  V30 494 C 54.8567 -2.65156 2.23368 0
M  V30 495 C 53.9177 -2.53173 3.46701 0
M  V30 496 C 53.1507 -3.8014 3.74606 0
M  V30 497 O 53.3737 -4.82343 3.04469 0
M  V30 498 O 52.3077 -3.78344 4.68123 0
M  V30 499 H 56.1337 -1.02347 2.85935 0
M  V30 500 H 53.7187 -0.441123 1.42739 0
M  V30 501 H 55.6007 -3.43929 2.43497 0
M  V30 502 H 54.2757 -2.94358 1.34666 0
M  V30 503 H 53.1827 -1.72662 3.31871 0
M  V30 504 H 54.5157 -2.28915 4.35728 0
M  V30 505 N 56.1678 -1.49265 -0.50573 0
M  V30 506 C 57.1148 -1.65585 -1.6078 0
M  V30 507 C 58.0848 -0.497396 -1.58478 0
M  V30 508 O 59.2698 -0.72385 -1.76536 0
M  V30 509 C 56.4098 -1.72408 -2.98948 0
M  V30 510 C 55.5228 -2.99525 -3.11301 0
M  V30 511 C 54.6578 -2.97356 -4.40174 0
M  V30 512 C 53.6968 -4.19074 -4.46143 0
M  V30 513 N 52.8338 -4.14841 -5.66437 0
M  V30 514 H 57.6738 -2.59688 -1.46172 0
M  V30 515 H 55.2108 -1.28761 -0.711261 0
M  V30 516 H 57.1688 -1.74344 -3.79025 0
M  V30 517 H 55.7988 -0.817753 -3.1227 0
M  V30 518 H 54.8508 -3.07222 -2.24318 0
M  V30 519 H 56.1628 -3.89518 -3.11572 0
M  V30 520 H 55.3168 -2.97829 -5.28567 0
M  V30 521 H 54.0558 -2.05133 -4.42461 0
M  V30 522 H 53.0608 -4.1885 -3.56153 0
M  V30 523 H 54.2858 -5.12483 -4.45575 0
M  V30 524 H 52.2318 -3.25453 -5.69575 0
M  V30 525 H 52.1488 -4.98564 -5.68304 0
M  V30 526 H 53.4168 -4.1941 -6.57051 0
M  V30 527 N 57.6459 0.756429 -1.3826 0
M  V30 528 C 58.9229 1.50584 -1.24835 0
M  V30 529 C 59.3029 2.10556 0.151485 0
M  V30 530 O 58.6509 1.96825 1.1607 0
M  V30 531 C 58.8609 2.57448 -2.3563 0
M  V30 532 C 60.2089 3.24429 -2.73917 0
M  V30 533 O 61.2329 2.67751 -2.34921 0
M  V30 534 O 60.0919 4.26937 -3.41156 0
M  V30 535 H 57.1859 0.667664 -0.48801 0
M  V30 536 H 59.7319 0.792083 -1.5008 0
M  V30 537 H 58.5039 2.11362 -3.29305 0
M  V30 538 H 58.1269 3.36408 -2.11933 0
M  V30 539 N 59.124 1.23083 0.984299 0
M  V30 540 C 60.535 1.05609 1.5396 0
M  V30 541 C 60.886 -0.377793 1.92528 0
M  V30 542 O 60.011 -1.26398 1.75649 0
M  V30 543 C 60.606 1.91087 2.7977 0
M  V30 544 C 59.165 1.77885 3.31713 0
M  V30 545 C 58.312 1.87028 2.04733 0
M  V30 546 H 61.263 1.36802 0.804419 0
M  V30 547 H 61.284 1.43336 3.5247 0
M  V30 548 H 60.796 2.9544 2.51668 0
M  V30 549 H 58.897 0.762995 3.64704 0
M  V30 550 H 59.01 2.61047 4.01735 0
M  V30 551 H 57.374 1.30565 2.18689 0
M  V30 552 H 58.157 2.92929 1.79017 0
M  V30 553 N 60.6021 -1.18246 1.0419 0
M  V30 554 C 61.8501 -1.87886 0.744543 0
M  V30 555 C 62.1711 -1.8082 -0.730006 0
M  V30 556 O 61.4411 -1.22736 -1.52685 0
M  V30 557 H 60.0211 -0.695556 0.272417 0
M  V30 558 H 62.6831 -1.43494 1.31892 0
M  V30 559 H 61.7791 -2.9389 1.05049 0
M  V30 560 N 62.0802 -0.821533 -1.34494 0
M  V30 561 C 63.3052 -0.420873 -2.03085 0
M  V30 562 C 63.7302 0.964915 -1.61465 0
M  V30 563 O 63.0882 1.62763 -0.798607 0
M  V30 564 C 63.1362 -0.529414 -3.56693 0
M  V30 565 O 62.2402 0.451302 -4.09923 0
M  V30 566 H 61.5812 -0.173489 -0.640935 0
M  V30 567 H 64.1112 -1.11157 -1.71771 0
M  V30 568 H 64.1212 -0.404671 -4.05988 0
M  V30 569 H 62.7962 -1.54014 -3.86332 0
M  V30 570 H 61.3732 0.285558 -3.71805 0
M  V30 571 N 63.5583 1.46682 -0.576371 0
M  V30 572 C 64.5213 2.28707 0.150239 0
M  V30 573 C 65.5213 1.38035 0.824794 0
M  V30 574 O 66.7113 1.60476 0.677719 0
M  V30 575 C 63.8433 3.18248 1.22192 0
M  V30 576 H 65.0363 2.94423 -0.570521 0
M  V30 577 H 62.5893 1.52688 -0.334078 0
M  V30 578 H 63.3243 2.57265 1.97447 0
M  V30 579 H 63.1093 3.85 0.742812 0
M  V30 580 H 64.5993 3.80001 1.73172 0
M  V30 581 N 65.0364 0.313813 1.54444 0
M  V30 582 C 66.3134 -0.345447 1.92525 0
M  V30 583 C 66.6934 -1.70667 1.24242 0
M  V30 584 O 66.0414 -2.25273 0.382654 0
M  V30 585 C 66.2514 -0.44737 3.46121 0
M  V30 586 C 67.5994 -0.712238 4.18584 0
M  V30 587 O 68.6234 -0.530678 3.52225 0
M  V30 588 O 67.4824 -1.06183 5.36085 0
M  V30 589 H 64.5764 -0.195407 0.803583 0
M  V30 590 H 67.1224 0.362813 1.65776 0
M  V30 591 H 65.8944 0.509043 3.87975 0
M  V30 592 H 65.5174 -1.20359 3.78945 0
M  V30 593 N 66.5145 -1.57545 0.0417849 0
M  V30 594 C 67.7395 -1.97035 -0.647455 0
M  V30 595 C 68.1645 -0.918775 -1.64135 0
M  V30 596 O 67.5225 0.119006 -1.80909 0
M  V30 597 C 67.5705 -3.35609 -1.31905 0
M  V30 598 O 66.6745 -3.3287 -2.43457 0
M  V30 599 H 66.0155 -0.64211 -0.169086 0
M  V30 600 H 68.5455 -2.04318 0.107399 0
M  V30 601 H 68.5555 -3.72126 -1.67291 0
M  V30 602 H 67.2305 -4.11685 -0.590586 0
M  V30 603 H 65.8075 -3.08087 -2.10088 0
M  V30 604 N 67.9926 0.231505 -1.5589 0
M  V30 605 C 68.9026 1.308 -1.94752 0
M  V30 606 C 69.9186 1.51826 -0.849989 0
M  V30 607 O 71.0946 1.6515 -1.15271 0
M  V30 608 C 68.1596 2.63968 -2.24771 0
M  V30 609 C 67.2206 2.51331 -3.48039 0
M  V30 610 C 66.4536 3.78148 -3.76616 0
M  V30 611 O 66.6766 4.80722 -3.07022 0
M  V30 612 O 65.6106 3.75857 -4.70123 0
M  V30 613 H 69.4366 1.0083 -2.86474 0
M  V30 614 H 67.0216 0.433547 -1.42971 0
M  V30 615 H 68.9036 3.42633 -2.45318 0
M  V30 616 H 67.5786 2.9364 -1.36225 0
M  V30 617 H 66.4856 1.709 -3.32782 0
M  V30 618 H 67.8186 2.26601 -4.36936 0
M  V30 619 N 69.4707 1.49531 0.497807 0
M  V30 620 C 70.4337 1.65916 1.58128 0
M  V30 621 C 71.4337 0.530825 1.51786 0
M  V30 622 O 72.6237 0.797342 1.54881 0
M  V30 623 C 69.7557 1.65951 2.9778 0
M  V30 624 H 70.9487 2.62556 1.44929 0
M  V30 625 H 68.5017 1.38611 0.722275 0
M  V30 626 H 69.2367 0.709065 3.16453 0
M  V30 627 H 69.0217 2.47897 3.03792 0
M  V30 628 H 70.5117 1.80673 3.76493 0
M  V30 629 N 70.9488 -0.749086 1.3866 0
M  V30 630 C 71.8588 -1.89358 1.38494 0
M  V30 631 C 72.8748 -1.71708 0.281476 0
M  V30 632 O 74.0508 -1.94554 0.520643 0
M  V30 633 C 71.1158 -3.24782 1.21316 0
M  V30 634 C 70.1768 -3.54926 2.41508 0
M  V30 635 C 69.4098 -4.83888 2.2514 0
M  V30 636 O 69.6328 -5.56592 1.24746 0
M  V30 637 O 68.5668 -5.13612 3.13826 0
M  V30 638 H 72.3928 -1.92452 2.34938 0
M  V30 639 H 69.9778 -0.894981 1.19626 0
M  V30 640 H 71.8598 -4.05739 1.13814 0
M  V30 641 H 70.5348 -3.2249 0.279592 0
M  V30 642 H 69.4418 -2.74112 2.54585 0
M  V30 643 H 70.7748 -3.61983 3.3351 0
M  V30 644 N 72.4269 -1.23603 -0.977757 0
M  V30 645 C 73.6749 -1.06759 -1.71601 0
M  V30 646 C 73.9959 0.395929 -1.90938 0
M  V30 647 O 73.2659 1.28356 -1.47992 0
M  V30 648 H 71.8459 -0.392062 -0.635843 0
M  V30 649 H 74.5079 -1.55362 -1.1768 0
M  V30 650 H 73.6039 -1.55763 -2.70452 0
M  V30 651 N 73.905 1.17692 -1.04816 0
M  V30 652 C 74.835 2.23777 -0.666791 0
M  V30 653 C 75.816 1.66796 0.33361 0
M  V30 654 O 77.001 1.93039 0.212042 0
M  V30 655 C 74.131 3.47281 -0.0367933 0
M  V30 656 C 73.085 4.17059 -0.961546 0
M  V30 657 C 72.411 5.34342 -0.195626 0
M  V30 658 C 73.711 4.69713 -2.28402 0
M  V30 659 H 75.405 2.55933 -1.55367 0
M  V30 660 H 72.951 1.23019 -0.748484 0
M  V30 661 H 74.904 4.20706 0.241775 0
M  V30 662 H 73.628 3.14381 0.885004 0
M  V30 663 H 72.287 3.45541 -1.22462 0
M  V30 664 H 71.935 4.97692 0.728816 0
M  V30 665 H 71.635 5.81966 -0.811775 0
M  V30 666 H 73.159 6.10553 0.0757473 0
M  V30 667 H 74.573 5.34794 -2.06563 0
M  V30 668 H 72.97 5.279 -2.8538 0
M  V30 669 H 74.04 3.86726 -2.92525 0
M  V30 670 N 75.3831 0.828654 1.34056 0
M  V30 671 C 76.7941 0.477534 1.8049 0
M  V30 672 C 77.1451 -1.00258 1.6865 0
M  V30 673 O 76.2701 -1.78057 1.22982 0
M  V30 674 C 76.8651 0.860018 3.27703 0
M  V30 675 C 75.4241 0.561185 3.72193 0
M  V30 676 C 74.5711 1.07385 2.55663 0
M  V30 677 H 77.5221 1.0183 1.21722 0
M  V30 678 H 77.5431 0.166038 3.80138 0
M  V30 679 H 77.0551 1.93731 3.36288 0
M  V30 680 H 75.1561 -0.506465 3.69142 0
M  V30 681 H 75.2691 1.10926 4.66082 0
M  V30 682 H 73.6331 0.495149 2.49841 0
M  V30 683 H 74.4161 2.15771 2.67016 0
M  V30 684 N 76.8612 -1.46375 0.584142 0
M  V30 685 C 78.0912 -2.06461 0.0758195 0
M  V30 686 C 78.4992 -1.43322 -1.23512 0
M  V30 687 O 77.8422 -0.533216 -1.75791 0
M  V30 688 C 77.9042 -3.59131 -0.162773 0
M  V30 689 C 77.5682 -4.4447 1.06279 0
M  V30 690 C 78.5652 -4.80918 1.97519 0
M  V30 691 C 76.2502 -4.85584 1.28504 0
M  V30 692 C 78.2442 -5.57309 3.09331 0
M  V30 693 C 75.9312 -5.61734 2.4062 0
M  V30 694 C 76.9292 -5.9751 3.30863 0
M  V30 695 O 76.6172 -6.72121 4.41032 0
M  V30 696 H 76.3492 -0.673745 0.0551725 0
M  V30 697 H 78.9032 -1.88969 0.804984 0
M  V30 698 H 77.1332 -3.74936 -0.946565 0
M  V30 699 H 78.8222 -4.0114 -0.619782 0
M  V30 700 H 79.5882 -4.49732 1.81565 0
M  V30 701 H 75.4672 -4.57187 0.591702 0
M  V30 702 H 79.0112 -5.85152 3.79793 0
M  V30 703 H 74.9082 -5.92334 2.56537 0
M  V30 704 H 75.6762 -6.90547 4.39417 0
M  V30 705 N 78.3393 -0.321999 -1.54275 0
M  V30 706 C 79.7503 0.166384 -1.85957 0
M  V30 707 C 80.1013 1.51747 -1.24367 0
M  V30 708 O 79.2263 2.09317 -0.549124 0
M  V30 709 C 79.8213 0.308681 -3.37391 0
M  V30 710 C 78.3803 0.741286 -3.69028 0
M  V30 711 C 77.5273 -0.137937 -2.76957 0
M  V30 712 H 80.4783 -0.542335 -1.49146 0
M  V30 713 H 80.4993 1.13984 -3.63026 0
M  V30 714 H 80.0113 -0.674809 -3.82188 0
M  V30 715 H 78.1123 1.73458 -3.29762 0
M  V30 716 H 78.2253 0.546118 -4.75977 0
M  V30 717 H 76.5893 0.386251 -2.51754 0
M  V30 718 H 77.3723 -1.11816 -3.2458 0
M  V30 719 N 79.8174 1.5752 -0.0501392 0
M  V30 720 C 80.7804 2.1037 0.909786 0
M  V30 721 C 81.7804 1.02308 1.24056 0
M  V30 722 O 82.9704 1.28385 1.17741 0
M  V30 723 C 80.1024 2.58708 2.21998 0
M  V30 724 H 81.2954 2.96479 0.451665 0
M  V30 725 H 78.8484 1.55038 0.198248 0
M  V30 726 H 79.5834 1.75989 2.72394 0
M  V30 727 H 79.3684 3.37675 1.99295 0
M  V30 728 H 80.8584 2.99747 2.9076 0
M  V30 729 N 81.2955 -0.223234 1.56011 0
M  V30 730 C 82.2255 -1.27988 1.95298 0
M  V30 731 C 83.2065 -1.48976 0.820979 0
M  V30 732 O 84.3915 -1.61188 1.08315 0
M  V30 733 C 81.5215 -2.63 2.26822 0
M  V30 734 C 80.4755 -2.56671 3.42497 0
M  V30 735 C 79.8015 -3.95697 3.59622 0
M  V30 736 C 81.1015 -2.11601 4.77517 0
M  V30 737 H 82.7955 -0.953525 2.8381 0
M  V30 738 H 80.3415 -0.457244 1.36548 0
M  V30 739 H 82.2945 -3.37077 2.52898 0
M  V30 740 H 81.0185 -2.9732 1.35161 0
M  V30 741 H 79.6775 -1.85051 3.16467 0
M  V30 742 H 79.3255 -4.27322 2.6534 0
M  V30 743 H 79.0255 -3.92345 4.37424 0
M  V30 744 H 80.5495 -4.71438 3.88044 0
M  V30 745 H 81.9635 -2.7542 5.02809 0
M  V30 746 H 80.3605 -2.19311 5.5859 0
M  V30 747 H 81.4305 -1.06824 4.72987 0
M  V30 748 N 82.7736 -1.49793 -0.48987 0
M  V30 749 C 83.7366 -1.66752 -1.57246 0
M  V30 750 C 84.7366 -0.538867 -1.51502 0
M  V30 751 O 85.9266 -0.805545 -1.54456 0
M  V30 752 C 83.0586 -1.67528 -2.96896 0
M  V30 753 H 84.2516 -2.63321 -1.43534 0
M  V30 754 H 81.8046 -1.38992 -0.714914 0
M  V30 755 H 82.5396 -0.725837 -3.16073 0
M  V30 756 H 82.3246 -2.49504 -3.02473 0
M  V30 757 H 83.8146 -1.82667 -3.7553 0
M  V30 758 N 84.2517 0.741722 -1.39055 0
M  V30 759 C 85.6627 1.31966 -1.32068 0
M  V30 760 C 86.0137 1.96192 0.0180797 0
M  V30 761 O 85.1387 1.95861 0.920196 0
M  V30 762 C 85.7337 2.39954 -2.39181 0
M  V30 763 C 84.2927 2.93438 -2.35735 0
M  V30 764 C 83.4397 1.66936 -2.21422 0
M  V30 765 H 86.3907 0.539721 -1.4924 0
M  V30 766 H 86.4117 3.20182 -2.05581 0
M  V30 767 H 85.9237 1.9318 -3.36605 0
M  V30 768 H 84.0247 3.4451 -1.41929 0
M  V30 769 H 84.1377 3.4701 -3.30335 0
M  V30 770 H 82.5017 1.91016 -1.68478 0
M  V30 771 H 83.2847 1.22224 -3.20806 0
M  V30 772 N 85.7298 1.2412 0.971189 0
M  V30 773 C 86.9758 1.08041 1.71625 0
M  V30 774 C 87.3088 -0.380407 1.90438 0
M  V30 775 O 86.5838 -1.28127 1.46334 0
M  V30 776 C 86.8668 1.81682 3.10908 0
M  V30 777 C 86.7198 3.35493 2.99608 0
M  V30 778 C 88.0388 1.58671 4.10501 0
M  V30 779 H 85.1578 0.39388 0.622919 0
M  V30 780 H 87.7998 1.52743 1.13003 0
M  V30 781 H 85.9498 1.43684 3.60953 0
M  V30 782 H 87.6218 3.83068 2.57015 0
M  V30 783 H 85.8648 3.64052 2.35899 0
M  V30 784 H 86.5358 3.82217 3.98264 0
M  V30 785 H 89.0118 1.91719 3.69301 0
M  V30 786 H 87.8878 2.1266 5.06031 0
M  V30 787 H 88.1488 0.524161 4.38982 0
M  V30 788 N 87.2079 -1.17134 1.05439 0
M  V30 789 C 88.4539 -1.87733 0.767077 0
M  V30 790 C 88.7869 -1.8098 -0.704253 0
M  V30 791 O 88.0619 -1.21951 -1.5152 0
M  V30 792 C 88.3449 -3.37659 1.25133 0
M  V30 793 C 88.1979 -3.53149 2.78578 0
M  V30 794 C 89.5169 -4.31768 0.852324 0
M  V30 795 H 86.6359 -0.681687 0.280129 0
M  V30 796 H 89.2779 -1.37732 1.30881 0
M  V30 797 H 87.4279 -3.80373 0.790469 0
M  V30 798 H 89.0999 -3.19434 3.32806 0
M  V30 799 H 87.3429 -2.95345 3.17732 0
M  V30 800 H 88.0139 -4.58403 3.07523 0
M  V30 801 H 90.4899 -3.96909 1.24911 0
M  V30 802 H 89.3659 -5.35199 1.21873 0
M  V30 803 H 89.6269 -4.41429 -0.243485 0
M  V30 804 N 88.686 -0.835752 -1.33615 0
M  V30 805 C 89.933 -0.429959 -1.97883 0
M  V30 806 C 90.261 1.01006 -1.66217 0
M  V30 807 O 89.516 1.72047 -0.93265 0
M  V30 808 C 89.815 -0.593925 -3.52431 0
M  V30 809 C 89.481 -2.00158 -4.04039 0
M  V30 810 C 88.143 -2.38662 -4.17844 0
M  V30 811 C 90.495 -2.92117 -4.31644 0
M  V30 812 C 87.823 -3.68435 -4.56588 0
M  V30 813 C 90.175 -4.21368 -4.71838 0
M  V30 814 C 88.839 -4.59833 -4.83849 0
M  V30 815 H 88.109 -0.157333 -0.724104 0
M  V30 816 H 90.756 -1.06217 -1.59343 0
M  V30 817 H 89.061 0.121619 -3.91611 0
M  V30 818 H 90.758 -0.260282 -4.00154 0
M  V30 819 H 87.348 -1.69252 -3.93766 0
M  V30 820 H 91.532 -2.63608 -4.20505 0
M  V30 821 H 86.788 -3.98046 -4.64079 0
M  V30 822 H 90.962 -4.92703 -4.92155 0
M  V30 823 H 88.589 -5.60438 -5.13627 0
M  V30 824 N 90.1641 1.46063 -0.591896 0
M  V30 825 C 91.4111 2.02338 -0.0809991 0
M  V30 826 C 91.7391 1.46228 1.28249 0
M  V30 827 O 90.9941 0.620818 1.85592 0
M  V30 828 C 91.2931 3.57391 0.0249813 0
M  V30 829 C 90.9591 4.32583 -1.27211 0
M  V30 830 C 89.6211 4.52844 -1.62745 0
M  V30 831 C 91.9731 4.75687 -2.13005 0
M  V30 832 C 89.3011 5.13462 -2.83855 0
M  V30 833 C 91.6531 5.37644 -3.3335 0
M  V30 834 C 90.3171 5.5613 -3.69155 0
M  V30 835 H 89.5871 0.740407 -0.0296397 0
M  V30 836 H 92.2341 1.75321 -0.770374 0
M  V30 837 H 90.5391 3.83597 0.797537 0
M  V30 838 H 92.2361 3.98621 0.436184 0
M  V30 839 H 88.8261 4.17116 -0.985499 0
M  V30 840 H 93.0101 4.59782 -1.86855 0
M  V30 841 H 88.2661 5.25965 -3.11722 0
M  V30 842 H 92.4401 5.7 -4.00092 0
M  V30 843 H 90.0671 6.0287 -4.63089 0
M  V30 844 N 91.6422 0.330177 1.54103 0
M  V30 845 C 92.8722 -0.271784 2.04805 0
M  V30 846 C 93.2802 -1.45816 1.20559 0
M  V30 847 O 92.6232 -1.82247 0.2306 0
M  V30 848 C 92.6852 -0.763238 3.51305 0
M  V30 849 C 92.3492 0.301705 4.56003 0
M  V30 850 C 93.3462 1.13999 5.07248 0
M  V30 851 C 91.0312 0.451793 5.00264 0
M  V30 852 C 93.0252 2.11402 6.01322 0
M  V30 853 C 90.7122 1.42924 5.94151 0
M  V30 854 C 91.7102 2.25882 6.44567 0
M  V30 855 O 91.3982 3.21965 7.3661 0
M  V30 856 H 91.1302 -0.058693 0.673447 0
M  V30 857 H 93.6842 0.476395 1.99799 0
M  V30 858 H 91.9142 -1.56244 3.5373 0
M  V30 859 H 93.6032 -1.28427 3.85047 0
M  V30 860 H 94.3692 1.03505 4.73827 0
M  V30 861 H 90.2482 -0.184044 4.60632 0
M  V30 862 H 93.7922 2.76192 6.40596 0
M  V30 863 H 89.6892 1.53479 6.26988 0
M  V30 864 H 90.4572 3.17281 7.54503 0
M  V30 865 N 93.1203 -1.57491 0.0584922 0
M  V30 866 C 94.0503 -2.14988 -0.911178 0
M  V30 867 C 95.0313 -1.07343 -1.31952 0
M  V30 868 O 96.2163 -1.35318 -1.39294 0
M  V30 869 C 93.3463 -2.70078 -2.18347 0
M  V30 870 C 92.3003 -3.82771 -1.91495 0
M  V30 871 C 91.6263 -4.24408 -3.25241 0
M  V30 872 C 92.9263 -5.07592 -1.23075 0
M  V30 873 H 94.6203 -2.96263 -0.432246 0
M  V30 874 H 92.1663 -1.42512 -0.206469 0
M  V30 875 H 94.1193 -3.08943 -2.86587 0
M  V30 876 H 92.8433 -1.86005 -2.68458 0
M  V30 877 H 91.5023 -3.44389 -1.25664 0
M  V30 878 H 91.1503 -3.37275 -3.73168 0
M  V30 879 H 90.8503 -5.00366 -3.08071 0
M  V30 880 H 92.3743 -4.65879 -3.94701 0
M  V30 881 H 93.7883 -5.43857 -1.81362 0
M  V30 882 H 92.1853 -5.88741 -1.16207 0
M  V30 883 H 93.2553 -4.84454 -0.207847 0
M  V30 884 N 94.5984 0.214957 -1.56127 0
M  V30 885 C 95.8234 0.95924 -1.83884 0
M  V30 886 C 96.2484 1.7689 -0.639644 0
M  V30 887 O 95.6064 1.76566 0.411601 0
M  V30 888 C 95.6544 1.84723 -3.09693 0
M  V30 889 O 94.7584 2.94346 -2.8885 0
M  V30 890 H 94.0994 0.27125 -0.606069 0
M  V30 891 H 96.6294 0.226276 -2.03345 0
M  V30 892 H 96.6394 2.25576 -3.39969 0
M  V30 893 H 95.3144 1.25218 -3.96602 0
M  V30 894 H 93.8914 2.57391 -2.69823 0
M  V30 895 N 96.0765 1.50051 0.48192 0
M  V30 896 C 97.0085 1.64263 1.59844 0
M  V30 897 C 98.0215 0.52451 1.54119 0
M  V30 898 O 99.2105 0.797293 1.59704 0
M  V30 899 C 96.3105 1.60102 2.98698 0
M  V30 900 C 95.4835 2.87767 3.29407 0
M  V30 901 C 94.5425 2.76397 4.47762 0
M  V30 902 O 93.5685 3.50348 4.48603 0
M  V30 903 N 94.7705 1.89222 5.48794 0
M  V30 904 H 97.5355 2.60566 1.48073 0
M  V30 905 H 95.0965 1.47379 0.670149 0
M  V30 906 H 97.0885 1.50123 3.75826 0
M  V30 907 H 95.6585 0.715798 3.04294 0
M  V30 908 H 94.8785 3.11954 2.40994 0
M  V30 909 H 96.1665 3.72365 3.4673 0
M  V30 910 H 95.5645 1.28434 5.50928 0
M  V30 911 H 94.1215 1.85154 6.24949 0
M  V30 912 N 97.5546 -0.734337 1.39446 0
M  V30 913 C 98.8316 -1.48579 1.27215 0
M  V30 914 C 99.2116 -2.1077 -0.117968 0
M  V30 915 O 98.5596 -1.98646 -1.12924 0
M  V30 916 C 98.7696 -2.53667 2.39696 0
M  V30 917 C 100.118 -3.20031 2.79044 0
M  V30 918 O 101.142 -2.6398 2.39151 0
M  V30 919 O 100.001 -4.21455 3.47905 0
M  V30 920 H 97.0946 -0.659816 0.49857 0
M  V30 921 H 99.6406 -0.768106 1.51322 0
M  V30 922 H 98.4126 -2.06096 3.32626 0
M  V30 923 H 98.0356 -3.32994 2.17258 0
M  V30 924 N 99.0327 -1.24633 -0.964593 0
M  V30 925 C 100.258 -1.11596 -1.74818 0
M  V30 926 C 100.683 0.32723 -1.85232 0
M  V30 927 O 100.041 1.23695 -1.32549 0
M  V30 928 C 100.089 -1.76397 -3.1451 0
M  V30 929 O 99.1927 -1.03685 -3.99153 0
M  V30 930 H 98.5337 -0.390196 -0.537255 0
M  V30 931 H 101.064 -1.65002 -1.20977 0
M  V30 932 H 101.074 -1.8228 -3.65018 0
M  V30 933 H 99.7487 -2.81401 -3.06246 0
M  V30 934 H 98.3257 -1.05611 -3.57632 0
M  V30 935 N 100.511 1.16574 -1.06058 0
M  V30 936 C 101.927 1.3904 -0.783585 0
M  V30 937 C 102.127 1.91784 0.618145 0
M  V30 938 O 101.183 2.11511 1.37911 0
M  V30 939 C 102.496 2.37329 -1.84649 0
M  V30 940 C 104.044 2.51018 -1.86973 0
M  V30 941 C 104.519 3.52588 -2.92311 0
M  V30 942 N 106.01 3.60113 -2.91329 0
M  V30 943 C 106.745 4.38486 -3.69482 0
M  V30 944 N 106.241 5.20302 -4.57447 0
M  V30 945 N 108.034 4.33446 -3.57885 0
M  V30 946 H 100.185 0.806725 -1.96483 0
M  V30 947 H 102.448 0.417117 -0.851303 0
M  V30 948 H 102.154 2.05663 -2.85299 0
M  V30 949 H 102.028 3.36946 -1.6955 0
M  V30 950 H 104.415 2.81989 -0.869827 0
M  V30 951 H 104.496 1.51445 -2.0615 0
M  V30 952 H 104.14 3.22354 -3.92492 0
M  V30 953 H 104.07 4.51886 -2.70383 0
M  V30 954 H 106.561 3.01707 -2.27555 0
M  V30 955 H 106.874 5.77311 -5.13743 0
M  V30 956 H 105.219 5.19653 -4.61503 0
M  V30 957 H 108.41 3.68586 -2.88551 0
M  V30 958 H 108.583 4.94279 -4.19037 0
M  V30 959 N 101.989 0.842826 1.3317 0
M  V30 960 C 103.4 0.496651 1.79973 0
M  V30 961 C 103.751 -0.984641 1.69703 0
M  V30 962 O 102.876 -1.76743 1.24863 0
M  V30 963 C 103.471 0.894727 3.26772 0
M  V30 964 C 102.03 0.600629 3.71577 0
M  V30 965 C 101.177 1.10091 2.5451 0
M  V30 966 H 104.128 1.03116 1.20635 0
M  V30 967 H 104.149 0.206347 3.7994 0
M  V30 968 H 103.661 1.97287 3.34215 0
M  V30 969 H 101.762 -0.467284 3.69658 0
M  V30 970 H 101.875 1.15863 4.64879 0
M  V30 971 H 100.239 0.52162 2.49301 0
M  V30 972 H 101.022 2.18591 2.64713 0
M  V30 973 N 103.467 -1.45747 0.599634 0
M  V30 974 C 104.883 -1.57424 0.26264 0
M  V30 975 C 105.083 -1.59222 -1.23493 0
M  V30 976 O 104.139 -1.51825 -2.01756 0
M  V30 977 C 105.452 -2.86061 0.926795 0
M  V30 978 C 107 -2.99722 0.901967 0
M  V30 979 C 107.475 -4.31119 1.54598 0
M  V30 980 N 108.966 -4.37858 1.5111 0
M  V30 981 C 109.701 -5.3818 1.97863 0
M  V30 982 N 109.197 -6.45083 2.52666 0
M  V30 983 N 110.99 -5.29487 1.88679 0
M  V30 984 H 103.141 -1.42823 1.57211 0
M  V30 985 H 105.404 -0.68235 0.658105 0
M  V30 986 H 105.11 -2.90605 1.98095 0
M  V30 987 H 104.984 -3.74563 0.445238 0
M  V30 988 H 107.371 -2.9475 -0.143617 0
M  V30 989 H 107.452 -2.12652 1.42171 0
M  V30 990 H 107.096 -4.36849 2.59085 0
M  V30 991 H 107.026 -5.16992 1.00132 0
M  V30 992 H 109.517 -3.61209 1.11068 0
M  V30 993 H 109.83 -7.17869 2.86155 0
M  V30 994 H 108.175 -6.45856 2.56701 0
M  V30 995 H 111.366 -4.44877 1.4561 0
M  V30 996 H 111.539 -6.07524 2.25429 0
M  V30 997 N 104.945 -0.338344 -1.53925 0
M  V30 998 C 106.17 0.263987 -2.05713 0
M  V30 999 C 106.595 1.43847 -1.21201 0
M  V30 1000 O 105.953 1.79904 -0.224535 0
M  V30 1001 C 106.001 0.662 -3.54471 0
M  V30 1002 O 105.105 1.76265 -3.72833 0
M  V30 1003 H 104.446 0.0448722 -0.662482 0
M  V30 1004 H 106.976 -0.491048 -1.9862 0
M  V30 1005 H 106.986 0.940594 -3.9701 0
M  V30 1006 H 105.661 -0.196937 -4.15433 0
M  V30 1007 H 104.238 1.48173 -3.42198 0
M  V30 1008 N 106.423 1.57458 -0.0668435 0
M  V30 1009 C 107.669 1.94401 0.598316 0
M  V30 1010 C 108.024 0.946335 1.67518 0
M  V30 1011 O 107.317 -0.0321442 1.91573 0
M  V30 1012 C 107.511 3.35784 1.22409 0
M  V30 1013 C 107.34 4.49212 0.209367 0
M  V30 1014 C 106.11 5.04887 -0.204218 0
M  V30 1015 C 108.308 5.11335 -0.551431 0
M  V30 1016 N 106.29 6.01854 -1.21016 0
M  V30 1017 C 107.661 6.03754 -1.41 0
M  V30 1018 C 109.716 4.94173 -0.608038 0
M  V30 1019 C 108.419 6.80854 -2.32013 0
M  V30 1020 C 110.445 5.71912 -1.50566 0
M  V30 1021 C 109.807 6.63976 -2.35191 0
M  V30 1022 H 105.906 0.758538 0.190114 0
M  V30 1023 H 108.49 1.94175 -0.142832 0
M  V30 1024 H 106.661 3.36757 1.93518 0
M  V30 1025 H 108.393 3.59976 1.84931 0
M  V30 1026 H 105.148 4.73266 0.177908 0
M  V30 1027 H 105.572 6.55035 -1.71049 0
M  V30 1028 H 110.214 4.22788 0.032022 0
M  V30 1029 H 107.932 7.5152 -2.97057 0
M  V30 1030 H 111.518 5.60656 -1.55423 0
M  V30 1031 H 110.398 7.2308 -3.03522 0
M  V30 1032 N 107.901 -0.206675 1.56239 0
M  V30 1033 C 109.141 -0.93574 1.81723 0
M  V30 1034 C 109.505 -1.80927 0.642609 0
M  V30 1035 O 110.706 -2.57323 0.777081 0
M  V30 1036 C 108.977 -1.74012 3.12177 0
M  V30 1037 S 110.536 -2.52279 3.59028 0
M  V30 1038 H 107.354 -0.314065 0.637875 0
M  V30 1039 H 109.956 -0.200071 1.94474 0
M  V30 1040 H 108.66 -1.0888 3.95693 0
M  V30 1041 H 108.191 -2.51782 3.02274 0
M  V30 1042 H 110.206 -3.76209 3.23545 0
M  V30 1043 N 109.379 -1.50304 -0.473955 0
M  V30 1044 C 110.309 -1.71886 -1.58042 0
M  V30 1045 C 111.29 -0.567799 -1.60344 0
M  V30 1046 O 112.475 -0.806623 -1.76656 0
M  V30 1047 C 109.605 -1.81036 -2.96384 0
M  V30 1048 C 108.559 -2.962 -3.08949 0
M  V30 1049 C 107.885 -2.9049 -4.48909 0
M  V30 1050 C 109.185 -4.36752 -2.86434 0
M  V30 1051 H 110.879 -2.64527 -1.40234 0
M  V30 1052 H 108.425 -1.27295 -0.673201 0
M  V30 1053 H 110.378 -1.94719 -3.73714 0
M  V30 1054 H 109.102 -0.850147 -3.15341 0
M  V30 1055 H 107.761 -2.82164 -2.3405 0
M  V30 1056 H 107.409 -1.92321 -4.64781 0
M  V30 1057 H 107.109 -3.67802 -4.58253 0
M  V30 1058 H 108.633 -3.06218 -5.28264 0
M  V30 1059 H 110.047 -4.5133 -3.53517 0
M  V30 1060 H 108.444 -5.15493 -3.07225 0
M  V30 1061 H 109.514 -4.49321 -1.82316 0
M  V30 1062 N 110.857 0.726932 -1.39834 0
M  V30 1063 C 112.273 1.03354 -1.21615 0
M  V30 1064 C 112.473 2.01327 -0.08338 0
M  V30 1065 O 111.529 2.46158 0.56238 0
M  V30 1066 C 112.842 1.58811 -2.55342 0
M  V30 1067 C 114.39 1.70851 -2.62257 0
M  V30 1068 C 114.865 2.29716 -3.96225 0
M  V30 1069 N 116.356 2.37116 -3.97907 0
M  V30 1070 C 117.091 2.83619 -4.98345 0
M  V30 1071 N 116.587 3.29958 -6.09179 0
M  V30 1072 N 118.38 2.82901 -4.8572 0
M  V30 1073 H 110.531 0.0773069 -2.12259 0
M  V30 1074 H 112.794 0.0969102 -0.943034 0
M  V30 1075 H 112.5 0.942855 -3.38826 0
M  V30 1076 H 112.374 2.57502 -2.75632 0
M  V30 1077 H 114.761 2.34497 -1.79152 0
M  V30 1078 H 114.842 0.707913 -2.45809 0
M  V30 1079 H 114.486 1.66696 -4.79765 0
M  V30 1080 H 114.416 3.30469 -4.09997 0
M  V30 1081 H 116.907 2.04374 -3.17868 0
M  V30 1082 H 117.22 3.63976 -6.8172 0
M  V30 1083 H 115.565 3.27946 -6.12761 0
M  V30 1084 H 118.756 2.46027 -3.98231 0
M  V30 1085 H 118.929 3.18827 -5.6414 0
M  V30 1086 N 112.336 1.25143 0.95797 0
M  V30 1087 C 113.564 1.12424 1.73691 0
M  V30 1088 C 113.979 -0.322304 1.86029 0
M  V30 1089 O 113.336 -1.22186 1.35561 0
M  V30 1090 C 113.387 1.76933 3.15241 0
M  V30 1091 O 113.108 3.15932 3.03511 0
M  V30 1092 C 114.609 1.6995 4.09429 0
M  V30 1093 H 111.829 0.3923 0.544373 0
M  V30 1094 H 114.373 1.6544 1.20207 0
M  V30 1095 H 112.528 1.27895 3.6568 0
M  V30 1096 H 112.942 3.47598 3.9278 0
M  V30 1097 H 114.416 2.19753 5.06372 0
M  V30 1098 H 114.893 0.662619 4.34173 0
M  V30 1099 H 115.499 2.18461 3.64904 0
M  V30 1100 N 113.814 -1.1601 1.06675 0
M  V30 1101 C 115.06 -1.86909 0.786945 0
M  V30 1102 C 115.393 -1.81717 -0.685018 0
M  V30 1103 O 114.668 -1.23551 -1.50218 0
M  V30 1104 C 114.951 -3.36313 1.28707 0
M  V30 1105 C 114.804 -3.50175 2.82308 0
M  V30 1106 C 116.123 -4.3084 0.898071 0
M  V30 1107 H 113.242 -0.678677 0.287343 0
M  V30 1108 H 115.884 -1.36336 1.32334 0
M  V30 1109 H 114.034 -3.79513 0.830768 0
M  V30 1110 H 115.706 -3.15886 3.36175 0
M  V30 1111 H 113.949 -2.91959 3.20847 0
M  V30 1112 H 114.62 -4.55116 3.12368 0
M  V30 1113 H 117.096 -3.95561 1.29114 0
M  V30 1114 H 115.972 -5.33876 1.27543 0
M  V30 1115 H 116.233 -4.41662 -0.196651 0
M  V30 1116 N 115.292 -0.849877 -1.32721 0
M  V30 1117 C 116.532 -0.457146 -1.99222 0
M  V30 1118 C 116.896 0.968038 -1.6581 0
M  V30 1119 O 118.097 1.46507 -2.25364 0
M  V30 1120 C 116.368 -0.683966 -3.50794 0
M  V30 1121 S 117.927 -0.388095 -4.3708 0
M  V30 1122 H 114.745 -0.171464 -0.690015 0
M  V30 1123 H 117.347 -1.10155 -1.61512 0
M  V30 1124 H 116.051 -1.72038 -3.726 0
M  V30 1125 H 115.582 -0.0258086 -3.93392 0
M  V30 1126 H 117.597 0.787791 -4.89906 0
M  V30 1127 N 116.77 1.45427 -0.607355 0
M  V30 1128 C 117.718 2.32269 0.12411 0
M  V30 1129 C 118.712 1.45955 0.859854 0
M  V30 1130 O 119.918 1.6244 0.775447 0
M  V30 1131 H 116.293 0.749691 0.0588839 0
M  V30 1132 H 118.264 2.91743 -0.626762 0
M  V30 1133 C 117.013 3.29567 1.1082 0
M  V30 1134 H 116.336 3.95978 0.551492 0
M  V30 1135 H 117.776 3.93061 1.58995 0
M  V30 1136 C 116.235 2.56722 2.18164 0
M  V30 1137 O 116.765 2.34842 3.25902 0
M  V30 1138 N 114.971 2.16861 1.93442 0
M  V30 1139 H 114.518 2.34855 1.05834 0
M  V30 1140 H 114.476 1.68444 2.65469 0
M  V30 1141 N 118.248 0.346503 1.53744 0
M  V30 1142 C 119.659 -0.136779 1.86198 0
M  V30 1143 C 120.01 -1.49749 1.26766 0
M  V30 1144 O 119.135 -2.08417 0.582355 0
M  V30 1145 C 119.73 -0.254966 3.37839 0
M  V30 1146 C 118.289 -0.682482 3.70161 0
M  V30 1147 C 117.436 0.181981 2.76702 0
M  V30 1148 H 120.387 0.565994 1.48264 0
M  V30 1149 H 120.408 -1.08195 3.64793 0
M  V30 1150 H 119.92 0.735526 3.81066 0
M  V30 1151 H 118.021 -1.68189 3.3248 0
M  V30 1152 H 118.134 -0.470326 4.76786 0
M  V30 1153 H 116.498 -0.34615 2.52337 0
M  V30 1154 H 117.281 1.16966 3.2276 0
M  V30 1155 N 119.726 -1.57421 0.075193 0
M  V30 1156 C 120.972 -1.94716 -0.587998 0
M  V30 1157 C 121.327 -0.955205 -1.67014 0
M  V30 1158 O 120.62 0.0219842 -1.91587 0
M  V30 1159 C 120.814 -3.36428 -1.20626 0
M  V30 1160 C 120.643 -4.49317 -0.185541 0
M  V30 1161 C 119.413 -5.04772 0.23099 0
M  V30 1162 C 121.611 -5.11036 0.57854 0
M  V30 1163 N 119.593 -6.01204 1.24206 0
M  V30 1164 C 120.964 -6.02998 1.44199 0
M  V30 1165 C 123.019 -4.93844 0.634237 0
M  V30 1166 C 121.722 -6.79614 2.3562 0
M  V30 1167 C 123.748 -5.71106 1.53597 0
M  V30 1168 C 123.11 -6.6272 2.38709 0
M  V30 1169 H 119.209 -0.759536 -0.186089 0
M  V30 1170 H 121.793 -1.94097 0.153128 0
M  V30 1171 H 119.964 -3.37778 -1.9173 0
M  V30 1172 H 121.696 -3.60951 -1.8302 0
M  V30 1173 H 118.451 -4.73353 -0.152807 0
M  V30 1174 H 118.875 -6.54119 1.74521 0
M  V30 1175 H 123.517 -4.22799 -0.00960004 0
M  V30 1176 H 121.235 -7.49934 3.01038 0
M  V30 1177 H 124.821 -5.59824 1.58394 0
M  V30 1178 H 123.701 -7.2146 3.07352 0
M  V30 1179 N 121.204 0.198386 -1.56346 0
M  V30 1180 C 122.451 0.919286 -1.80431 0
M  V30 1181 C 122.779 1.83393 -0.647866 0
M  V30 1182 O 122.034 1.92236 0.366556 0
M  V30 1183 C 122.333 1.77031 -3.10475 0
M  V30 1184 C 121.999 1.00693 -4.39513 0
M  V30 1185 C 120.661 0.796145 -4.74568 0
M  V30 1186 C 123.013 0.469559 -5.19081 0
M  V30 1187 C 120.341 0.0364588 -5.86689 0
M  V30 1188 C 122.693 -0.2769 -6.31994 0
M  V30 1189 C 121.357 -0.49873 -6.65634 0
M  V30 1190 H 120.627 0.336391 -0.660244 0
M  V30 1191 H 123.274 0.185872 -1.90596 0
M  V30 1192 H 121.579 2.5723 -2.95533 0
M  V30 1193 H 123.276 2.33065 -3.26315 0
M  V30 1194 H 119.866 1.18122 -4.12001 0
M  V30 1195 H 124.05 0.619816 -4.92414 0
M  V30 1196 H 119.306 -0.145412 -6.11227 0
M  V30 1197 H 123.48 -0.700684 -6.92866 0
M  V30 1198 H 121.107 -1.0893 -7.52355 0
M  V30 1199 N 122.682 1.50554 0.465978 0
M  V30 1200 C 123.592 1.72585 1.58907 0
M  V30 1201 C 124.608 0.60911 1.6299 0
M  V30 1202 O 125.784 0.88804 1.80765 0
M  V30 1203 C 122.849 1.81995 2.95091 0
M  V30 1204 C 121.91 3.05751 3.01355 0
M  V30 1205 C 121.143 3.14702 4.31043 0
M  V30 1206 O 121.366 2.30313 5.21835 0
M  V30 1207 O 120.3 4.07468 4.43005 0
M  V30 1208 H 124.126 2.67799 1.43239 0
M  V30 1209 H 121.711 1.34711 0.646013 0
M  V30 1210 H 123.593 1.90335 3.75966 0
M  V30 1211 H 122.268 0.899659 3.10947 0
M  V30 1212 H 121.175 3.02908 2.19539 0
M  V30 1213 H 122.508 3.97375 2.90437 0
M  V30 1214 N 124.16 -0.719506 1.40217 0
M  V30 1215 C 125.576 -1.02707 1.22161 0
M  V30 1216 C 125.776 -2.0128 0.0940557 0
M  V30 1217 O 124.832 -2.46452 -0.549318 0
M  V30 1218 C 126.145 -1.57454 2.56181 0
M  V30 1219 C 127.693 -1.69458 2.63159 0
M  V30 1220 C 128.168 -2.27611 3.97438 0
M  V30 1221 N 129.659 -2.35002 3.99159 0
M  V30 1222 C 130.394 -2.80972 4.99842 0
M  V30 1223 N 129.89 -3.26723 6.10921 0
M  V30 1224 N 131.683 -2.80321 4.87213 0
M  V30 1225 H 123.834 -0.0660492 2.12297 0
M  V30 1226 H 126.097 -0.0919077 0.943534 0
M  V30 1227 H 125.803 -0.924873 3.39321 0
M  V30 1228 H 125.677 -2.56036 2.76993 0
M  V30 1229 H 128.064 -2.33543 1.80393 0
M  V30 1230 H 128.145 -0.694867 2.46181 0
M  V30 1231 H 127.789 -1.6415 4.80643 0
M  V30 1232 H 127.719 -3.2829 4.11744 0
M  V30 1233 H 130.21 -2.02685 3.18947 0
M  V30 1234 H 130.523 -3.60355 6.8364 0
M  V30 1235 H 128.868 -3.24692 6.14492 0
M  V30 1236 H 132.059 -2.43912 3.9953 0
M  V30 1237 H 132.232 -3.15831 5.65822 0
M  V30 1238 N 125.638 -1.25649 -0.95132 0
M  V30 1239 C 126.887 -1.09988 -1.69073 0
M  V30 1240 C 127.2 0.358355 -1.92289 0
M  V30 1241 O 128.406 0.635466 -2.63958 0
M  V30 1242 C 126.862 -1.92012 -3.044 0
M  V30 1243 C 126.47 -3.42347 -2.88968 0
M  V30 1244 C 128.214 -1.8493 -3.82101 0
M  V30 1245 C 126.121 -4.16655 -4.19705 0
M  V30 1246 H 125.051 -0.407993 -0.63408 0
M  V30 1247 H 127.702 -1.49873 -1.05879 0
M  V30 1248 H 126.084 -1.44952 -3.68517 0
M  V30 1249 H 127.258 -3.97104 -2.33762 0
M  V30 1250 H 125.573 -3.50557 -2.24719 0
M  V30 1251 H 128.17 -2.37739 -4.78941 0
M  V30 1252 H 128.513 -0.817883 -4.08187 0
M  V30 1253 H 129.046 -2.29758 -3.2474 0
M  V30 1254 H 125.785 -5.20224 -3.98807 0
M  V30 1255 H 125.305 -3.66681 -4.74663 0
M  V30 1256 H 126.984 -4.24551 -4.88227 0
M  V30 1257 N 127.117 1.15442 -1.07289 0
M  V30 1258 C 128.342 1.90638 -0.816828 0
M  V30 1259 C 128.767 1.77445 0.624083 0
M  V30 1260 O 128.125 1.10671 1.43602 0
M  V30 1261 C 128.173 3.39008 -1.22906 0
M  V30 1262 O 127.277 4.10701 -0.373975 0
M  V30 1263 H 126.618 0.593555 -0.297638 0
M  V30 1264 H 129.148 1.46198 -1.43134 0
M  V30 1265 H 129.158 3.89801 -1.20497 0
M  V30 1266 H 127.833 3.47929 -2.27856 0
M  V30 1267 H 126.41 3.70046 -0.460499 0
M  V30 1268 N 128.595 0.856903 1.32268 0
M  V30 1269 C 129.528 0.247937 2.26849 0
M  V30 1270 C 130.506 -0.615382 1.50505 0
M  V30 1271 O 131.69 -0.571689 1.79622 0
M  V30 1272 C 128.817 -0.650093 3.32403 0
M  V30 1273 C 127.863 0.140138 4.2627 0
M  V30 1274 S 128.696 1.51004 5.13769 0
M  V30 1275 C 129.852 0.61778 6.22844 0
M  V30 1276 H 130.085 1.04971 2.78152 0
M  V30 1277 H 127.618 0.654665 1.39834 0
M  V30 1278 H 129.576 -1.16256 3.93694 0
M  V30 1279 H 128.237 -1.4257 2.7988 0
M  V30 1280 H 127.43 -0.543945 5.01056 0
M  V30 1281 H 127.032 0.584267 3.69408 0
M  V30 1282 H 129.324 -0.177053 6.77269 0
M  V30 1283 H 130.267 1.33636 6.95375 0
M  V30 1284 H 130.675 0.191124 5.64176 0
M  V30 1285 N 130.073 -1.45103 0.615059 0
M  V30 1286 C 131.003 -2.33339 -0.0865619 0
M  V30 1287 C 131.984 -1.4727 -0.851209 0
M  V30 1288 O 133.169 -1.76026 -0.820281 0
M  V30 1289 C 130.299 -3.30095 -1.07956 0
M  V30 1290 C 129.253 -4.25858 -0.427628 0
M  V30 1291 C 128.579 -5.12361 -1.5294 0
M  V30 1292 C 129.879 -5.18165 0.655944 0
M  V30 1293 H 131.573 -2.92254 0.650224 0
M  V30 1294 H 129.119 -1.40532 0.314138 0
M  V30 1295 H 131.072 -3.90698 -1.57901 0
M  V30 1296 H 129.796 -2.69355 -1.84703 0
M  V30 1297 H 128.455 -3.66564 0.0510292 0
M  V30 1298 H 128.103 -4.47984 -2.28734 0
M  V30 1299 H 127.803 -5.77238 -1.09865 0
M  V30 1300 H 129.327 -5.75833 -2.03098 0
M  V30 1301 H 130.741 -5.72796 0.240257 0
M  V30 1302 H 129.138 -5.91559 1.00888 0
M  V30 1303 H 130.208 -4.60144 1.52957 0
M  V30 1304 N 131.551 -0.354651 -1.53558 0
M  V30 1305 C 132.797 0.238797 -2.01389 0
M  V30 1306 C 133.13 1.49309 -1.2418 0
M  V30 1307 O 132.405 1.91638 -0.332457 0
M  V30 1308 C 132.688 0.541771 -3.56001 0
M  V30 1309 C 132.541 -0.725388 -4.43912 0
M  V30 1310 C 133.86 1.34685 -4.18984 0
M  V30 1311 H 130.979 0.0853177 -0.732045 0
M  V30 1312 H 133.621 -0.477384 -1.83905 0
M  V30 1313 H 131.771 1.15189 -3.71031 0
M  V30 1314 H 133.443 -1.36313 -4.407 0
M  V30 1315 H 131.686 -1.34801 -4.12324 0
M  V30 1316 H 132.357 -0.468505 -5.50008 0
M  V30 1317 H 134.833 0.830837 -4.07721 0
M  V30 1318 H 133.709 1.52759 -5.27215 0
M  V30 1319 H 133.97 2.35221 -3.74331 0
M  V30 1320 N 133.029 1.57378 -0.0835403 0
M  V30 1321 C 134.278 1.93106 0.582498 0
M  V30 1322 C 134.591 0.96651 1.70053 0
M  V30 1323 O 135.797 1.21705 2.42693 0
M  V30 1324 C 134.253 3.43076 1.08751 0
M  V30 1325 C 133.861 4.48 -0.000146404 0
M  V30 1326 C 135.605 3.87785 1.72694 0
M  V30 1327 C 133.512 5.89113 0.519568 0
M  V30 1328 H 132.442 0.720775 0.221358 0
M  V30 1329 H 135.093 1.82821 -0.157675 0
M  V30 1330 H 133.475 3.48474 1.88101 0
M  V30 1331 H 134.649 4.54233 -0.775199 0
M  V30 1332 H 132.964 4.1283 -0.54406 0
M  V30 1333 H 135.561 4.90604 2.1263 0
M  V30 1334 H 135.904 3.25796 2.59158 0
M  V30 1335 H 136.437 3.8504 0.999457 0
M  V30 1336 H 133.176 6.54775 -0.308186 0
M  V30 1337 H 132.696 5.86376 1.26188 0
M  V30 1338 H 134.375 6.39346 0.992237 0
M  V30 1339 N 134.507 -0.190092 1.56449 0
M  V30 1340 C 135.437 -1.23816 1.97969 0
M  V30 1341 C 136.418 -1.47201 0.852395 0
M  V30 1342 O 137.603 -1.58854 1.1171 0
M  V30 1343 C 134.733 -2.5813 2.3235 0
M  V30 1344 C 133.687 -2.49348 3.47864 0
M  V30 1345 C 133.013 -3.8798 3.67934 0
M  V30 1346 C 134.313 -2.01424 4.81898 0
M  V30 1347 H 136.007 -0.89311 2.85769 0
M  V30 1348 H 133.553 -0.428177 1.37487 0
M  V30 1349 H 135.506 -3.31637 2.59991 0
M  V30 1350 H 134.23 -2.94386 1.41438 0
M  V30 1351 H 132.889 -1.78297 3.20321 0
M  V30 1352 H 132.537 -4.21597 2.74344 0
M  V30 1353 H 132.237 -3.82978 4.45648 0
M  V30 1354 H 133.761 -4.63101 3.97957 0
M  V30 1355 H 135.175 -2.64693 5.08538 0
M  V30 1356 H 133.572 -2.07413 5.63116 0
M  V30 1357 H 134.642 -0.967677 4.75146 0
M  V30 1358 N 135.985 -1.50799 -0.457987 0
M  V30 1359 C 136.915 -1.73553 -1.5621 0
M  V30 1360 C 137.896 -0.584774 -1.59732 0
M  V30 1361 O 139.081 -0.825314 -1.7579 0
M  V30 1362 C 136.211 -1.84169 -2.94447 0
M  V30 1363 C 135.165 -2.99461 -3.0579 0
M  V30 1364 C 134.491 -2.95235 -4.45803 0
M  V30 1365 C 135.791 -4.39766 -2.81786 0
M  V30 1366 H 137.485 -2.66 -1.37421 0
M  V30 1367 H 135.031 -1.28002 -0.659662 0
M  V30 1368 H 136.984 -1.98672 -3.71628 0
M  V30 1369 H 135.708 -0.883545 -3.14422 0
M  V30 1370 H 134.367 -2.8463 -2.31044 0
M  V30 1371 H 134.015 -1.97239 -4.62715 0
M  V30 1372 H 133.715 -3.72642 -4.54326 0
M  V30 1373 H 135.239 -3.11803 -5.24987 0
M  V30 1374 H 136.653 -4.55054 -3.4871 0
M  V30 1375 H 135.05 -5.18722 -3.0174 0
M  V30 1376 H 136.12 -4.51229 -1.7754 0
M  V30 1377 N 137.463 0.71206 -1.40597 0
M  V30 1378 C 138.411 1.84746 -1.41321 0
M  V30 1379 C 139.405 1.66842 -0.293268 0
M  V30 1380 O 140.611 1.73904 -0.464481 0
M  V30 1381 H 136.986 0.608522 -0.441819 0
M  V30 1382 H 138.957 1.81252 -2.37045 0
M  V30 1383 C 137.706 3.22638 -1.29614 0
M  V30 1384 H 137.029 3.37023 -2.15071 0
M  V30 1385 H 138.469 4.02209 -1.3418 0
M  V30 1386 C 136.928 3.36899 -0.00673121 0
M  V30 1387 O 137.458 3.90186 0.954859 0
M  V30 1388 N 135.664 2.9053 0.0639327 0
M  V30 1389 H 135.211 2.47353 -0.719311 0
M  V30 1390 H 135.169 3.0045 0.926118 0
M  V30 1391 N 138.941 1.26152 0.944643 0
M  V30 1392 C 140.181 1.12708 1.70517 0
M  V30 1393 C 140.545 -0.324727 1.89234 0
M  V30 1394 O 141.746 -0.581211 2.62441 0
M  V30 1395 C 140.017 1.8713 3.04495 0
M  V30 1396 S 141.576 1.89698 3.95677 0
M  V30 1397 H 138.394 0.402665 0.585988 0
M  V30 1398 H 140.996 1.59821 1.12594 0
M  V30 1399 H 139.7 2.91833 2.88551 0
M  V30 1400 H 139.231 1.40444 3.67477 0
M  V30 1401 H 141.246 0.981198 4.86402 0
M  V30 1402 N 140.419 -1.14872 1.07899 0
M  V30 1403 C 141.665 -1.86064 0.806725 0
M  V30 1404 C 141.998 -1.82434 -0.665706 0
M  V30 1405 O 141.273 -1.25138 -1.48899 0
M  V30 1406 C 141.556 -3.34929 1.32267 0
M  V30 1407 C 141.409 -3.47161 2.86006 0
M  V30 1408 C 142.728 -4.29863 0.943717 0
M  V30 1409 H 139.847 -0.675591 0.294526 0
M  V30 1410 H 142.489 -1.34925 1.33773 0
M  V30 1411 H 140.639 -3.78611 0.870974 0
M  V30 1412 H 142.311 -3.12302 3.39507 0
M  V30 1413 H 140.554 -2.88539 3.23925 0
M  V30 1414 H 141.225 -4.51777 3.17177 0
M  V30 1415 H 143.701 -3.9417 1.33302 0
M  V30 1416 H 142.577 -5.32494 1.33198 0
M  V30 1417 H 142.838 -4.41846 -0.149796 0
M  V30 1418 N 141.898 -0.863906 -1.31812 0
M  V30 1419 C 143.126 -0.486111 -2.01108 0
M  V30 1420 C 143.541 0.919755 -1.64882 0
M  V30 1421 O 142.898 1.60162 -0.874893 0
M  V30 1422 C 142.949 -0.626435 -3.56031 0
M  V30 1423 O 142.67 -1.97693 -3.90959 0
M  V30 1424 C 144.171 -0.248857 -4.42601 0
M  V30 1425 H 141.391 -0.190052 -0.643523 0
M  V30 1426 H 143.935 -1.1634 -1.68182 0
M  V30 1427 H 142.09 0.00322717 -3.874 0
M  V30 1428 H 142.504 -1.98034 -4.85678 0
M  V30 1429 H 143.978 -0.398016 -5.50563 0
M  V30 1430 H 144.455 0.811489 -4.31638 0
M  V30 1431 H 145.061 -0.853971 -4.16638 0
M  V30 1432 N 143.376 1.44774 -0.622745 0
M  V30 1433 C 144.306 2.33382 0.0741861 0
M  V30 1434 C 145.287 1.47719 0.843387 0
M  V30 1435 O 146.472 1.76458 0.810934 0
M  V30 1436 C 143.602 3.30663 1.06204 0
M  V30 1437 C 142.556 4.26079 0.405037 0
M  V30 1438 C 141.882 5.13165 1.5022 0
M  V30 1439 C 143.182 5.1781 -0.683414 0
M  V30 1440 H 144.876 2.91905 -0.665713 0
M  V30 1441 H 142.422 1.40363 -0.321587 0
M  V30 1442 H 144.375 3.9153 1.55827 0
M  V30 1443 H 143.099 2.70331 1.83272 0
M  V30 1444 H 141.758 3.66532 -0.0704683 0
M  V30 1445 H 141.406 4.49191 2.26355 0
M  V30 1446 H 141.106 5.77812 1.06803 0
M  V30 1447 H 142.63 5.76902 2.00041 0
M  V30 1448 H 144.044 5.72661 -0.270631 0
M  V30 1449 H 142.441 5.91015 -1.04023 0
M  V30 1450 H 143.511 4.59326 -1.55395 0
M  V30 1451 N 144.854 0.36279 1.53368 0
M  V30 1452 C 146.102 -0.227326 2.00817 0
M  V30 1453 C 146.423 -1.49511 1.25186 0
M  V30 1454 O 145.693 -1.92482 0.364348 0
M  V30 1455 H 144.273 -0.0869923 0.741917 0
M  V30 1456 H 146.935 0.488381 1.88682 0
M  V30 1457 H 146.031 -0.456273 3.08747 0
M  V30 1458 N 146.332 -1.57332 0.0918853 0
M  V30 1459 C 147.265 -2.09499 -0.904735 0
M  V30 1460 C 148.243 -1.00479 -1.27839 0
M  V30 1461 O 149.427 -1.27954 -1.38419 0
M  V30 1462 C 146.554 -2.56931 -2.2069 0
M  V30 1463 C 145.6 -3.77579 -1.98334 0
M  V30 1464 S 146.433 -5.21317 -1.22428 0
M  V30 1465 C 147.589 -5.72097 -2.53882 0
M  V30 1466 H 147.822 -2.93705 -0.460922 0
M  V30 1467 H 145.355 -1.53923 -0.121332 0
M  V30 1468 H 147.313 -2.84917 -2.95521 0
M  V30 1469 H 145.974 -1.72956 -2.62192 0
M  V30 1470 H 145.167 -4.08824 -2.94752 0
M  V30 1471 H 144.769 -3.5007 -1.31633 0
M  V30 1472 H 147.061 -5.80168 -3.49874 0
M  V30 1473 H 148.004 -6.70654 -2.27219 0
M  V30 1474 H 148.412 -5.00012 -2.62007 0
M  V30 1475 N 147.81 0.181792 -1.56548 0
M  V30 1476 C 149.057 0.900097 -1.81396 0
M  V30 1477 C 149.385 1.82695 -0.667281 0
M  V30 1478 O 148.64 1.92614 0.346146 0
M  V30 1479 C 148.939 1.73728 -3.12335 0
M  V30 1480 C 148.605 0.960255 -4.40556 0
M  V30 1481 C 147.267 0.745766 -4.75386 0
M  V30 1482 C 149.619 0.414477 -5.19549 0
M  V30 1483 C 146.947 -0.0257694 -5.86694 0
M  V30 1484 C 149.299 -0.343916 -6.31664 0
M  V30 1485 C 147.963 -0.569301 -6.65068 0
M  V30 1486 H 147.233 0.329369 -0.663775 0
M  V30 1487 H 149.88 0.165647 -1.90782 0
M  V30 1488 H 148.185 2.54081 -2.98245 0
M  V30 1489 H 149.882 2.29591 -3.28769 0
M  V30 1490 H 146.472 1.13746 -4.13231 0
M  V30 1491 H 150.656 0.567554 -4.93044 0
M  V30 1492 H 145.912 -0.210233 -6.11038 0
M  V30 1493 H 150.086 -0.774133 -6.92084 0
M  V30 1494 H 147.713 -1.16903 -7.51158 0
M  V30 1495 N 149.288 1.51039 0.449983 0
M  V30 1496 C 150.704 1.38934 0.785462 0
M  V30 1497 C 150.904 0.461817 1.96136 0
M  V30 1498 O 149.96 -0.0877389 2.52348 0
M  V30 1499 C 151.273 2.80724 1.0777 0
M  V30 1500 C 152.821 2.89787 1.1829 0
M  V30 1501 C 153.296 4.32457 1.50815 0
M  V30 1502 N 154.787 4.35505 1.57764 0
M  V30 1503 C 155.522 5.42914 1.84477 0
M  V30 1504 N 155.018 6.60502 2.09068 0
M  V30 1505 N 156.811 5.3038 1.86155 0
M  V30 1506 H 148.962 2.09904 -0.324647 0
M  V30 1507 H 151.225 0.944378 -0.0827957 0
M  V30 1508 H 150.931 3.50531 0.286498 0
M  V30 1509 H 150.805 3.19273 2.00859 0
M  V30 1510 H 153.192 2.20186 1.96474 0
M  V30 1511 H 153.273 2.54752 0.231314 0
M  V30 1512 H 152.917 5.02603 0.731622 0
M  V30 1513 H 152.847 4.64995 2.47158 0
M  V30 1514 H 155.338 3.50724 1.40715 0
M  V30 1515 H 155.651 7.38158 2.28785 0
M  V30 1516 H 153.996 6.63639 2.06416 0
M  V30 1517 H 157.187 4.37505 1.66454 0
M  V30 1518 H 157.36 6.1417 2.06637 0
M  V30 1519 N 150.766 -0.704594 1.40972 0
M  V30 1520 C 152.177 -1.28418 1.3552 0
M  V30 1521 C 152.528 -1.96171 0.0339434 0
M  V30 1522 O 151.653 -1.98231 -0.867944 0
M  V30 1523 C 152.248 -2.33528 2.45459 0
M  V30 1524 C 150.807 -2.87085 2.43433 0
M  V30 1525 C 149.954 -1.61007 2.2577 0
M  V30 1526 H 152.905 -0.499963 1.50619 0
M  V30 1527 H 152.926 -3.14619 2.13998 0
M  V30 1528 H 152.438 -1.84187 3.41609 0
M  V30 1529 H 150.539 -3.40626 1.51013 0
M  V30 1530 H 150.652 -3.3813 3.39419 0
M  V30 1531 H 149.016 -1.86482 1.73483 0
M  V30 1532 H 149.799 -1.13675 3.23933 0
M  V30 1533 N 152.244 -1.26651 -0.937939 0
M  V30 1534 C 153.484 -1.13611 -1.69917 0
M  V30 1535 C 153.848 0.314687 -1.89404 0
M  V30 1536 O 155.049 0.567285 -2.62746 0
M  V30 1537 C 153.32 -1.88742 -3.03498 0
M  V30 1538 S 154.879 -1.91794 -3.94665 0
M  V30 1539 H 151.697 -0.405767 -0.583844 0
M  V30 1540 H 154.299 -1.60416 -1.11745 0
M  V30 1541 H 153.003 -2.9336 -2.86999 0
M  V30 1542 H 152.534 -1.42391 -3.66727 0
M  V30 1543 H 154.549 -1.00698 -4.85875 0
M  V30 1544 N 153.722 1.14298 -1.08507 0
M  V30 1545 C 154.632 2.23027 -0.727753 0
M  V30 1546 C 155.648 1.71952 0.26619 0
M  V30 1547 O 156.824 2.011 0.109882 0
M  V30 1548 C 153.889 3.46403 -0.143541 0
M  V30 1549 C 152.95 4.12413 -1.19223 0
M  V30 1550 C 152.183 5.29899 -0.635798 0
M  V30 1551 O 152.406 5.67796 0.544393 0
M  V30 1552 O 151.34 5.85717 -1.38634 0
M  V30 1553 H 155.166 2.55945 -1.63481 0
M  V30 1554 H 152.751 1.22248 -0.858817 0
M  V30 1555 H 154.633 4.21018 0.179404 0
M  V30 1556 H 153.308 3.15206 0.736659 0
M  V30 1557 H 152.215 3.39667 -1.56772 0
M  V30 1558 H 153.548 4.47718 -2.04474 0
M  V30 1559 N 155.201 0.870884 1.31352 0
M  V30 1560 C 156.478 0.402907 1.91405 0
M  V30 1561 C 156.858 -1.11512 1.79244 0
M  V30 1562 O 156.206 -1.94411 1.2007 0
M  V30 1563 C 156.416 0.885301 3.37585 0
M  V30 1564 C 157.764 0.911971 4.14691 0
M  V30 1565 O 158.788 0.831016 3.46371 0
M  V30 1566 O 157.647 1.02927 5.3672 0
M  V30 1567 H 154.741 0.120698 0.818145 0
M  V30 1568 H 157.287 0.958857 1.40014 0
M  V30 1569 H 156.059 1.92889 3.40455 0
M  V30 1570 H 155.682 0.307714 3.96407 0
M  V30 1571 N 156.679 -1.44442 0.630414 0
M  V30 1572 C 157.928 -2.01267 0.132073 0
M  V30 1573 C 158.241 -1.50172 -1.25331 0
M  V30 1574 O 159.447 -1.9912 -1.84562 0
M  V30 1575 C 157.903 -3.59422 0.185362 0
M  V30 1576 C 157.511 -4.19514 1.57201 0
M  V30 1577 C 159.255 -4.23724 -0.256553 0
M  V30 1578 C 157.162 -5.69891 1.58045 0
M  V30 1579 H 156.092 -0.752619 0.0456092 0
M  V30 1580 H 158.743 -1.65666 0.789106 0
M  V30 1581 H 157.125 -3.92318 -0.538759 0
M  V30 1582 H 158.299 -3.98156 2.31966 0
M  V30 1583 H 156.614 -3.67496 1.95795 0
M  V30 1584 H 159.211 -5.34019 -0.269767 0
M  V30 1585 H 159.554 -3.96013 -1.28372 0
M  V30 1586 H 160.087 -3.95629 0.41505 0
M  V30 1587 H 156.826 -6.02336 2.58597 0
M  V30 1588 H 156.346 -5.93373 0.875725 0
M  V30 1589 H 158.025 -6.33515 1.31408 0
M  V30 1590 N 158.157 -0.370918 -1.53173 0
M  V30 1591 C 159.12 0.460778 -2.24521 0
M  V30 1592 C 160.12 1.00536 -1.25496 0
M  V30 1593 O 161.31 0.890266 -1.49733 0
M  V30 1594 C 158.442 1.64457 -2.98608 0
M  V30 1595 H 159.635 -0.163613 -2.99453 0
M  V30 1596 H 157.188 -0.122699 -1.55818 0
M  V30 1597 H 157.923 2.30691 -2.2793 0
M  V30 1598 H 157.708 1.26099 -3.7127 0
M  V30 1599 H 159.198 2.23384 -3.5283 0
M  V30 1600 N 159.635 1.57281 -0.100228 0
M  V30 1601 C 160.875 1.96419 0.56558 0
M  V30 1602 C 161.239 0.981265 1.65031 0
M  V30 1603 O 162.44 1.26133 2.37369 0
M  V30 1604 C 160.711 3.39996 1.10171 0
M  V30 1605 S 162.27 4.01134 1.77867 0
M  V30 1606 H 159.088 0.68667 0.184406 0
M  V30 1607 H 161.69 1.94662 -0.180851 0
M  V30 1608 H 160.394 4.09296 0.300803 0
M  V30 1609 H 159.925 3.45361 1.88385 0
M  V30 1610 H 161.94 3.90358 3.06326 0
M  V30 1611 N 161.113 -0.173488 1.56642 0
M  V30 1612 C 162.39 -0.917617 1.7274 0
M  V30 1613 C 162.77 -2.00484 0.661027 0
M  V30 1614 O 162.118 -2.26184 -0.32453 0
M  V30 1615 C 162.328 -1.48433 3.15862 0
M  V30 1616 C 163.676 -1.95809 3.76754 0
M  V30 1617 O 164.7 -1.58231 3.19126 0
M  V30 1618 O 163.559 -2.65024 4.77938 0
M  V30 1619 H 160.653 -0.431772 0.705338 0
M  V30 1620 H 163.199 -0.161487 1.6893 0
M  V30 1621 H 161.971 -0.701715 3.84957 0
M  V30 1622 H 161.594 -2.30471 3.23989 0
M  V30 1623 N 162.591 -1.51276 -0.441967 0
M  V30 1624 C 163.816 -1.67799 -1.21895 0
M  V30 1625 C 164.241 -0.372864 -1.84367 0
M  V30 1626 O 163.599 0.666501 -1.68604 0
M  V30 1627 C 163.647 -2.79199 -2.28211 0
M  V30 1628 O 162.751 -2.42479 -3.33583 0
M  V30 1629 H 162.092 -0.559649 -0.357336 0
M  V30 1630 H 164.622 -1.97815 -0.522522 0
M  V30 1631 H 164.632 -3.03146 -2.73069 0
M  V30 1632 H 163.307 -3.73906 -1.82118 0
M  V30 1633 H 161.884 -2.29087 -2.94234 0
M  V30 1634 N 164.069 0.697108 -1.41344 0
M  V30 1635 C 165.001 1.8224 -1.39001 0
M  V30 1636 C 166.014 1.60152 -0.292428 0
M  V30 1637 O 167.203 1.69684 -0.554048 0
M  V30 1638 C 164.303 3.18976 -1.14489 0
M  V30 1639 C 163.476 3.68105 -2.36258 0
M  V30 1640 C 162.535 4.83506 -2.07625 0
M  V30 1641 O 161.561 4.95201 -2.8065 0
M  V30 1642 N 162.763 5.70637 -1.06555 0
M  V30 1643 H 165.528 1.84742 -2.35988 0
M  V30 1644 H 163.089 0.87937 -1.35936 0
M  V30 1645 H 165.081 3.93801 -0.932885 0
M  V30 1646 H 163.651 3.11508 -0.261043 0
M  V30 1647 H 162.871 2.84204 -2.7317 0
M  V30 1648 H 164.159 3.97667 -3.17393 0
M  V30 1649 H 163.557 5.63817 -0.461125 0
M  V30 1650 H 162.114 6.45368 -0.913444 0
M  V30 1651 N 165.547 1.27147 0.931209 0
M  V30 1652 C 166.963 1.04475 1.20653 0
M  V30 1653 C 167.163 -0.223885 2.00252 0
M  V30 1654 O 166.219 -0.930332 2.34736 0
M  V30 1655 C 167.532 2.28209 1.95809 0
M  V30 1656 C 169.08 2.33211 2.08762 0
M  V30 1657 C 169.555 3.56665 2.87323 0
M  V30 1658 N 171.046 3.57201 2.94892 0
M  V30 1659 C 171.781 4.49395 3.56134 0
M  V30 1660 N 171.277 5.51889 4.18796 0
M  V30 1661 N 173.07 4.37026 3.53504 0
M  V30 1662 H 165.221 2.08612 0.399333 0
M  V30 1663 H 167.484 0.917312 0.239253 0
M  V30 1664 H 167.19 3.20538 1.44736 0
M  V30 1665 H 167.064 2.33247 2.96438 0
M  V30 1666 H 169.451 1.41391 2.59023 0
M  V30 1667 H 169.532 2.32178 1.07364 0
M  V30 1668 H 169.176 4.4882 2.37746 0
M  V30 1669 H 169.106 3.54948 3.88998 0
M  V30 1670 H 171.597 2.83074 2.50354 0
M  V30 1671 H 171.91 6.18409 4.63454 0
M  V30 1672 H 170.255 5.55735 4.17353 0
M  V30 1673 H 173.446 3.56166 3.03749 0
M  V30 1674 H 173.619 5.09067 4.00942 0
M  V30 1675 N 167.025 -1.13721 1.09112 0
M  V30 1676 C 168.265 -1.86576 0.834801 0
M  V30 1677 C 168.629 -1.81435 -0.628122 0
M  V30 1678 O 169.83 -2.49497 -1.00024 0
M  V30 1679 C 168.101 -3.30872 1.35124 0
M  V30 1680 S 169.66 -4.21257 1.22832 0
M  V30 1681 H 166.478 -0.643666 0.302017 0
M  V30 1682 H 169.08 -1.37085 1.39385 0
M  V30 1683 H 167.784 -3.32166 2.41027 0
M  V30 1684 H 167.315 -3.85423 0.788185 0
M  V30 1685 H 169.33 -4.95884 0.177191 0
M  V30 1686 N 168.503 -0.877838 -1.30888 0
M  V30 1687 C 169.919 -0.570844 -1.49042 0
M  V30 1688 C 170.119 0.893159 -1.80624 0
M  V30 1689 O 169.175 1.67485 -1.88958 0
M  V30 1690 C 170.488 -1.47784 -2.61878 0
M  V30 1691 C 172.036 -1.48071 -2.75761 0
M  V30 1692 C 172.511 -2.37347 -3.91702 0
M  V30 1693 N 174.002 -2.35271 -3.99001 0
M  V30 1694 C 174.737 -3.01063 -4.88004 0
M  V30 1695 N 174.233 -3.76055 -5.81854 0
M  V30 1696 N 176.026 -2.90332 -4.81315 0
M  V30 1697 H 168.177 -1.82502 -1.0866 0
M  V30 1698 H 170.44 -0.780797 -0.537644 0
M  V30 1699 H 170.146 -2.51993 -2.45341 0
M  V30 1700 H 170.02 -1.18215 -3.58197 0
M  V30 1701 H 172.407 -0.446166 -2.91708 0
M  V30 1702 H 172.488 -1.81668 -1.80085 0
M  V30 1703 H 172.132 -3.40883 -3.76512 0
M  V30 1704 H 172.062 -2.01071 -4.86701 0
M  V30 1705 H 174.553 -1.80768 -3.3186 0
M  V30 1706 H 174.866 -4.23366 -6.46514 0
M  V30 1707 H 173.211 -3.80163 -5.81808 0
M  V30 1708 H 176.402 -2.31278 -4.06974 0
M  V30 1709 H 176.575 -3.41885 -5.50471 0
M  V30 1710 N 169.982 1.44106 -0.638065 0
M  V30 1711 C 171.231 2.01194 -0.142744 0
M  V30 1712 C 171.544 1.50835 1.24532 0
M  V30 1713 O 172.75 2.00096 1.83504 0
M  V30 1714 C 171.206 3.59319 -0.20442 0
M  V30 1715 C 170.814 4.18674 -1.59423 0
M  V30 1716 C 172.558 4.23854 0.234079 0
M  V30 1717 C 170.465 5.69045 -1.61065 0
M  V30 1718 H 169.395 0.752367 -0.0495998 0
M  V30 1719 H 172.046 1.65246 -0.797881 0
M  V30 1720 H 170.428 3.92598 0.517946 0
M  V30 1721 H 171.602 3.96921 -2.34074 0
M  V30 1722 H 169.917 3.66453 -1.97741 0
M  V30 1723 H 172.514 5.34155 0.241443 0
M  V30 1724 H 172.857 3.96688 1.2627 0
M  V30 1725 H 173.39 3.95403 -0.436025 0
M  V30 1726 H 170.129 6.00956 -2.61787 0
M  V30 1727 H 169.649 5.929 -0.90718 0
M  V30 1728 H 171.328 6.32809 -1.34766 0
M  V30 1729 N 171.46 0.379036 1.52974 0
M  V30 1730 C 172.39 -0.452706 2.29069 0
M  V30 1731 C 173.371 -1.07237 1.32039 0
M  V30 1732 O 174.556 -1.08708 1.60923 0
M  V30 1733 C 171.686 -1.5856 3.08992 0
M  V30 1734 C 170.64 -1.0925 4.13822 0
M  V30 1735 C 169.966 -2.31668 4.81907 0
M  V30 1736 C 171.266 -0.167702 5.22031 0
M  V30 1737 H 172.96 0.182181 2.98845 0
M  V30 1738 H 170.506 0.0890592 1.43724 0
M  V30 1739 H 172.459 -2.1742 3.6098 0
M  V30 1740 H 171.183 -2.24792 2.36931 0
M  V30 1741 H 169.842 -0.526494 3.628 0
M  V30 1742 H 169.49 -2.96386 4.06404 0
M  V30 1743 H 169.19 -1.9934 5.52754 0
M  V30 1744 H 170.714 -2.91189 5.36695 0
M  V30 1745 H 172.128 -0.664186 5.6944 0
M  V30 1746 H 170.525 0.0653265 6.00064 0
M  V30 1747 H 171.595 0.786347 4.78482 0
M  V30 1748 N 172.938 -1.57226 0.108567 0
M  V30 1749 C 173.87 -2.11809 -0.875752 0
M  V30 1750 C 174.883 -1.05839 -1.23701 0
M  V30 1751 O 176.072 -1.33245 -1.18778 0
M  V30 1752 C 173.172 -2.59411 -2.18081 0
M  V30 1753 C 172.345 -3.89364 -1.99284 0
M  V30 1754 C 171.404 -4.22672 -3.13424 0
M  V30 1755 O 170.43 -4.91668 -2.86795 0
M  V30 1756 N 171.632 -3.79154 -4.3957 0
M  V30 1757 H 174.397 -2.9689 -0.409477 0
M  V30 1758 H 171.958 -1.61721 -0.076158 0
M  V30 1759 H 173.95 -2.7873 -2.93414 0
M  V30 1760 H 172.52 -1.79268 -2.5609 0
M  V30 1761 H 171.74 -3.79059 -1.08203 0
M  V30 1762 H 173.028 -4.74358 -1.84017 0
M  V30 1763 H 172.426 -3.23486 -4.64083 0
M  V30 1764 H 170.983 -4.03602 -5.11809 0
M  V30 1765 N 174.416 0.165178 -1.56732 0
M  V30 1766 C 175.379 1.18822 -1.95995 0
M  V30 1767 C 176.379 1.3685 -0.84431 0
M  V30 1768 O 177.569 1.34152 -1.11126 0
M  V30 1769 C 174.701 2.5521 -2.26011 0
M  V30 1770 H 175.894 0.851825 -2.87548 0
M  V30 1771 H 173.447 0.407857 -1.50885 0
M  V30 1772 H 174.182 2.93852 -1.37191 0
M  V30 1773 H 173.967 2.43489 -3.07336 0
M  V30 1774 H 175.457 3.28927 -2.57288 0
M  V30 1775 N 175.894 1.51508 0.433938 0
M  V30 1776 C 177.141 1.64345 1.18309 0
M  V30 1777 C 177.469 0.361315 1.91115 0
M  V30 1778 O 176.724 -0.654753 1.84422 0
M  V30 1779 C 177.023 2.79928 2.22205 0
M  V30 1780 C 176.689 4.19078 1.66387 0
M  V30 1781 C 175.351 4.56932 1.50887 0
M  V30 1782 C 177.703 5.05894 1.25381 0
M  V30 1783 C 175.031 5.79305 0.928608 0
M  V30 1784 C 177.383 6.2885 0.687823 0
M  V30 1785 C 176.047 6.65473 0.519755 0
M  V30 1786 H 175.317 0.601381 0.432923 0
M  V30 1787 H 177.964 1.85549 0.473676 0
M  V30 1788 H 176.269 2.52959 2.99197 0
M  V30 1789 H 177.966 2.87059 2.79997 0
M  V30 1790 H 174.556 3.89234 1.79428 0
M  V30 1791 H 178.74 4.77253 1.36175 0
M  V30 1792 H 173.996 6.06324 0.786186 0
M  V30 1793 H 178.17 6.95461 0.361581 0
M  V30 1794 H 175.797 7.6017 0.0679979 0
M  V30 1795 N 177.372 -0.689602 1.41712 0
M  V30 1796 C 178.649 -1.44457 1.31877 0
M  V30 1797 C 179.029 -2.11039 -0.0508537 0
M  V30 1798 O 178.377 -2.02138 -1.06547 0
M  V30 1799 C 178.587 -2.45913 2.47645 0
M  V30 1800 C 179.935 -3.10991 2.89084 0
M  V30 1801 O 180.959 -2.56238 2.47428 0
M  V30 1802 O 179.818 -4.10174 3.61137 0
M  V30 1803 H 176.912 -0.64362 0.519309 0
M  V30 1804 H 179.458 -0.719576 1.53689 0
M  V30 1805 H 178.23 -1.95409 3.39015 0
M  V30 1806 H 177.853 -3.25913 2.27742 0
M  V30 1807 N 178.85 -1.27639 -0.924453 0
M  V30 1808 C 180.127 -1.04887 -1.651 0
M  V30 1809 C 180.507 0.415327 -2.06974 0
M  V30 1810 O 179.855 1.39923 -1.80648 0
M  V30 1811 C 180.065 -2.01348 -2.85061 0
M  V30 1812 C 181.413 -2.30899 -3.56329 0
M  V30 1813 O 182.437 -1.99348 -2.95193 0
M  V30 1814 O 181.296 -2.84699 -4.66485 0
M  V30 1815 H 178.39 -0.400083 -0.723784 0
M  V30 1816 H 180.936 -1.38916 -0.974703 0
M  V30 1817 H 179.708 -3.0008 -2.51133 0
M  V30 1818 H 179.331 -1.679 -3.6041 0
M  V30 1819 N 180.328 1.1314 -1.09713 0
M  V30 1820 C 181.575 1.84484 -0.834987 0
M  V30 1821 C 181.903 1.83689 0.639418 0
M  V30 1822 O 181.158 1.2724 1.4869 0
M  V30 1823 C 181.457 3.32167 -1.3191 0
M  V30 1824 C 181.123 3.53139 -2.80363 0
M  V30 1825 C 179.785 3.58571 -3.20905 0
M  V30 1826 C 182.137 3.60866 -3.76065 0
M  V30 1827 C 179.465 3.69267 -4.55916 0
M  V30 1828 C 181.817 3.73089 -5.10869 0
M  V30 1829 C 180.481 3.76775 -5.50996 0
M  V30 1830 H 179.751 0.675073 -0.305544 0
M  V30 1831 H 182.398 1.33554 -1.37243 0
M  V30 1832 H 180.703 3.85469 -0.701517 0
M  V30 1833 H 182.4 3.85821 -1.09284 0
M  V30 1834 H 178.99 3.49569 -2.47991 0
M  V30 1835 H 183.174 3.55946 -3.45855 0
M  V30 1836 H 178.43 3.70388 -4.86438 0
M  V30 1837 H 182.604 3.78011 -5.84877 0
M  V30 1838 H 180.231 3.84815 -6.55608 0
M  V30 1839 N 181.806 0.884767 1.30421 0
M  V30 1840 C 183.055 0.499164 1.95426 0
M  V30 1841 C 183.368 -0.95645 1.70621 0
M  V30 1842 O 184.574 -1.44889 2.29607 0
M  V30 1843 C 183.03 0.84177 3.49917 0
M  V30 1844 C 182.638 2.31514 3.83543 0
M  V30 1845 C 184.382 0.525355 4.21237 0
M  V30 1846 C 182.289 2.59939 5.31212 0
M  V30 1847 H 181.219 0.182944 0.73147 0
M  V30 1848 H 183.87 1.07971 1.48373 0
M  V30 1849 H 182.252 0.190311 3.95542 0
M  V30 1850 H 183.426 3.0109 3.48829 0
M  V30 1851 H 181.741 2.59907 3.25326 0
M  V30 1852 H 184.338 0.714762 5.29901 0
M  V30 1853 H 184.681 -0.535222 4.12845 0
M  V30 1854 H 185.214 1.134 3.81294 0
M  V30 1855 H 181.953 3.64736 5.44654 0
M  V30 1856 H 181.473 1.94972 5.67227 0
M  V30 1857 H 183.152 2.45429 5.98643 0
M  V30 1858 N 183.284 -1.43765 0.645699 0
M  V30 1859 C 184.531 -2.01898 0.15604 0
M  V30 1860 C 184.859 -1.50887 -1.22733 0
M  V30 1861 O 184.114 -0.689271 -1.8316 0
M  V30 1862 C 184.413 -3.57238 0.107679 0
M  V30 1863 C 184.079 -4.27564 1.43178 0
M  V30 1864 C 182.741 -4.46492 1.7944 0
M  V30 1865 C 185.093 -4.67454 2.30513 0
M  V30 1866 C 182.421 -5.02573 3.02716 0
M  V30 1867 C 184.773 -5.24901 3.53074 0
M  V30 1868 C 183.437 -5.42046 3.89541 0
M  V30 1869 H 182.707 -0.738797 0.057099 0
M  V30 1870 H 185.354 -1.72341 0.834912 0
M  V30 1871 H 183.659 -3.86293 -0.654618 0
M  V30 1872 H 185.356 -3.99965 -0.287938 0
M  V30 1873 H 181.946 -4.13171 1.13963 0
M  V30 1874 H 186.13 -4.5253 2.0379 0
M  V30 1875 H 181.386 -5.14033 3.31028 0
M  V30 1876 H 185.56 -5.54758 4.20971 0
M  V30 1877 H 183.187 -5.85268 4.85145 0
M  V30 1878 N 184.763 -0.387143 -1.52771 0
M  V30 1879 C 185.726 0.436939 -2.24997 0
M  V30 1880 C 186.726 0.991991 -1.26555 0
M  V30 1881 O 187.916 0.874335 -1.50669 0
M  V30 1882 C 185.048 1.61281 -3.00335 0
M  V30 1883 H 186.241 -0.195365 -2.99263 0
M  V30 1884 H 183.794 -0.139218 -1.55679 0
M  V30 1885 H 184.529 2.2826 -2.30364 0
M  V30 1886 H 184.314 1.22154 -3.72587 0
M  V30 1887 H 185.804 2.19629 -3.5518 0
M  V30 1888 N 186.241 1.57166 -0.116904 0
M  V30 1889 C 187.488 1.95123 0.541603 0
M  V30 1890 C 187.816 1.00006 1.6682 0
M  V30 1891 O 187.071 0.0235658 1.95686 0
M  V30 1892 C 187.37 3.39508 1.11664 0
M  V30 1893 C 187.036 4.50762 0.111606 0
M  V30 1894 C 185.698 4.80918 -0.164758 0
M  V30 1895 C 188.05 5.18036 -0.573438 0
M  V30 1896 C 185.378 5.75666 -1.13249 0
M  V30 1897 C 187.73 6.13824 -1.52978 0
M  V30 1898 C 186.394 6.42374 -1.81415 0
M  V30 1899 H 185.664 0.714005 0.198187 0
M  V30 1900 H 188.311 1.9048 -0.197365 0
M  V30 1901 H 186.616 3.40835 1.93232 0
M  V30 1902 H 188.313 3.66189 1.63422 0
M  V30 1903 H 184.903 4.27272 0.337192 0
M  V30 1904 H 189.087 4.94896 -0.373092 0
M  V30 1905 H 184.343 5.96092 -1.35958 0
M  V30 1906 H 188.517 6.65039 -2.06629 0
M  V30 1907 H 186.144 7.15599 -2.56557 0
M  V30 1908 N 187.719 -0.156864 1.56817 0
M  V30 1909 C 188.966 -0.871125 1.82805 0
M  V30 1910 C 189.294 -1.81611 0.696262 0
M  V30 1911 O 188.549 -1.93141 -0.315459 0
M  V30 1912 C 188.848 -1.68737 3.1506 0
M  V30 1913 C 188.514 -0.890045 4.42028 0
M  V30 1914 C 187.176 -0.670042 4.76512 0
M  V30 1915 C 189.528 -0.331769 5.20143 0
M  V30 1916 C 186.856 0.119104 5.86579 0
M  V30 1917 C 189.208 0.444365 6.31037 0
M  V30 1918 C 187.872 0.675035 6.64078 0
M  V30 1919 H 187.142 -0.318767 0.668931 0
M  V30 1920 H 189.789 -0.135274 1.91022 0
M  V30 1921 H 188.094 -2.49304 3.0225 0
M  V30 1922 H 189.791 -2.24331 3.3238 0
M  V30 1923 H 186.381 -1.07157 4.14988 0
M  V30 1924 H 190.565 -0.489043 4.93885 0
M  V30 1925 H 185.821 0.307417 6.10627 0
M  V30 1926 H 189.995 0.884139 6.90765 0
M  V30 1927 H 187.622 1.28839 7.49203 0
M  V30 1928 N 189.197 -1.51736 -0.425897 0
M  V30 1929 C 190.16 -1.73271 -1.50032 0
M  V30 1930 C 191.16 -0.602639 -1.4908 0
M  V30 1931 O 192.35 -0.87033 -1.509 0
M  V30 1932 C 189.482 -1.79969 -2.89523 0
M  V30 1933 H 190.675 -2.69172 -1.32237 0
M  V30 1934 H 188.228 -1.41899 -0.65532 0
M  V30 1935 H 188.963 -0.859241 -3.1271 0
M  V30 1936 H 188.748 -2.62109 -2.91619 0
M  V30 1937 H 190.238 -1.9843 -3.67444 0
M  V30 1938 N 190.675 0.682077 -1.42076 0
M  V30 1939 C 191.921 1.44428 -1.42367 0
M  V30 1940 C 192.254 1.94164 -0.0373056 0
M  V30 1941 O 191.529 1.70429 0.937239 0
M  V30 1942 C 191.812 2.64654 -2.44194 0
M  V30 1943 C 191.665 2.20596 -3.91991 0
M  V30 1944 C 192.984 3.66865 -2.431 0
M  V30 1945 H 190.103 0.523834 -0.518428 0
M  V30 1946 H 192.745 0.77576 -1.73442 0
M  V30 1947 H 190.895 3.2169 -2.17826 0
M  V30 1948 H 192.567 1.68783 -4.29313 0
M  V30 1949 H 190.81 1.52242 -4.06208 0
M  V30 1950 H 191.481 3.06921 -4.58807 0
M  V30 1951 H 193.957 3.19531 -2.66532 0
M  V30 1952 H 192.833 4.48577 -3.16339 0
M  V30 1953 H 193.094 4.17493 -1.45437 0
M  V30 1954 N 192.153 1.28127 0.917671 0
M  V30 1955 C 193.063 1.13556 2.05286 0
M  V30 1956 C 194.079 0.0630914 1.73886 0
M  V30 1957 O 195.255 0.271598 1.9956 0
M  V30 1958 C 192.32 0.794676 3.3747 0
M  V30 1959 C 191.381 1.94909 3.82504 0
M  V30 1960 C 190.614 1.62437 5.0838 0
M  V30 1961 O 190.837 0.536905 5.67867 0
M  V30 1962 O 189.771 2.46677 5.4903 0
M  V30 1963 H 193.597 2.08844 2.20495 0
M  V30 1964 H 191.182 1.07409 1.03845 0
M  V30 1965 H 193.064 0.618344 4.16839 0
M  V30 1966 H 191.739 -0.128581 3.23445 0
M  V30 1967 H 190.646 2.18055 3.03978 0
M  V30 1968 H 191.979 2.85291 4.01086 0
M  V30 1969 N 193.631 -1.12557 1.10312 0
M  V30 1970 C 194.564 -2.1737 0.694674 0
M  V30 1971 C 195.542 -1.59745 -0.303373 0
M  V30 1972 O 196.726 -1.87408 -0.202578 0
M  V30 1973 C 193.853 -3.38691 0.0248052 0
M  V30 1974 C 192.899 -4.14943 0.986121 0
M  V30 1975 S 193.732 -4.73413 2.50281 0
M  V30 1976 C 194.888 -5.9807 1.84562 0
M  V30 1977 H 195.121 -2.5168 1.58255 0
M  V30 1978 H 192.654 -1.23998 0.919992 0
M  V30 1979 H 194.612 -4.08959 -0.355361 0
M  V30 1980 H 193.273 -3.02664 -0.839851 0
M  V30 1981 H 192.466 -5.01854 0.464651 0
M  V30 1982 H 192.068 -3.50377 1.30813 0
M  V30 1983 H 194.36 -6.67232 1.17507 0
M  V30 1984 H 195.303 -6.54841 2.69423 0
M  V30 1985 H 195.711 -5.49073 1.31069 0
M  V30 1986 N 195.109 -0.891671 -1.2995 0
M  V30 1987 C 196.355 -0.514261 -1.96171 0
M  V30 1988 C 196.688 0.935506 -1.70182 0
M  V30 1989 O 195.963 1.66204 -1.01028 0
M  V30 1990 C 196.246 -0.797719 -3.51153 0
M  V30 1991 C 196.099 -2.2986 -3.86632 0
M  V30 1992 C 197.418 -0.278749 -4.39216 0
M  V30 1993 H 194.537 -0.188314 -0.712535 0
M  V30 1994 H 197.179 -1.11689 -1.53706 0
M  V30 1995 H 195.329 -0.284826 -3.87455 0
M  V30 1996 H 197.001 -2.88042 -3.60319 0
M  V30 1997 H 195.244 -2.76257 -3.34462 0
M  V30 1998 H 195.915 -2.44753 -4.94773 0
M  V30 1999 H 198.391 -0.717825 -4.09862 0
M  V30 2000 H 197.267 -0.506353 -5.46559 0
M  V30 2001 H 197.528 0.820266 -4.34424 0
M  V30 2002 N 196.587 1.43421 -0.653314 0
M  V30 2003 C 197.833 2.02111 -0.166992 0
M  V30 2004 C 198.166 1.51423 1.21592 0
M  V30 2005 O 197.441 0.707389 1.8118 0
M  V30 2006 C 197.724 3.5966 -0.177948 0
M  V30 2007 C 197.577 4.20579 -1.59478 0
M  V30 2008 C 198.896 4.37413 0.4856 0
M  V30 2009 H 196.015 0.734374 -0.0621557 0
M  V30 2010 H 198.657 1.70717 -0.834016 0
M  V30 2011 H 196.807 3.86537 0.390032 0
M  V30 2012 H 198.479 4.04732 -2.21336 0
M  V30 2013 H 196.722 3.77226 -2.14204 0
M  V30 2014 H 197.393 5.29665 -1.5543 0
M  V30 2015 H 199.869 4.161 0.00234528 0
M  V30 2016 H 198.745 5.47075 0.447207 0
M  V30 2017 H 199.006 4.13672 1.55974 0
M  V30 2018 N 198.065 0.39524 1.52563 0
M  V30 2019 C 199.012 -0.437036 2.26624 0
M  V30 2020 C 199.982 -1.05281 1.28472 0
M  V30 2021 O 201.167 -1.07971 1.57311 0
M  V30 2022 C 198.307 -1.55524 3.08069 0
M  V30 2023 C 197.42 -0.961745 4.21158 0
M  V30 2024 C 196.555 -2.05149 4.89987 0
M  V30 2025 C 195.594 -1.4342 5.95061 0
M  V30 2026 N 194.731 -2.46351 6.57462 0
M  V30 2027 H 199.571 0.200976 2.97322 0
M  V30 2028 H 197.108 0.110944 1.46681 0
M  V30 2029 H 199.066 -2.21437 3.53584 0
M  V30 2030 H 197.696 -2.16348 2.3957 0
M  V30 2031 H 196.748 -0.192048 3.79915 0
M  V30 2032 H 198.06 -0.470701 4.96574 0
M  V30 2033 H 197.214 -2.78819 5.38837 0
M  V30 2034 H 195.953 -2.57615 4.14109 0
M  V30 2035 H 194.958 -0.682774 5.45544 0
M  V30 2036 H 196.183 -0.917416 6.72875 0
M  V30 2037 H 194.129 -2.97975 5.8442 0
M  V30 2038 H 194.046 -2.02019 7.28508 0
M  V30 2039 H 195.314 -3.19633 7.10954 0
M  V30 2040 N 199.544 -1.57102 0.125237 0
M  V30 2041 C 200.477 -2.11371 -0.860094 0
M  V30 2042 C 201.455 -1.03168 -1.25679 0
M  V30 2043 O 202.639 -1.30862 -1.35674 0
M  V30 2044 C 199.766 -2.61555 -2.1519 0
M  V30 2045 C 198.812 -3.81701 -1.9028 0
M  V30 2046 S 199.645 -5.23797 -1.11343 0
M  V30 2047 C 200.801 -5.77353 -2.41689 0
M  V30 2048 H 201.034 -2.94617 -0.39852 0
M  V30 2049 H 198.567 -1.54145 -0.0886555 0
M  V30 2050 H 200.525 -2.91122 -2.89411 0
M  V30 2051 H 199.186 -1.78479 -2.58465 0
M  V30 2052 H 198.379 -4.14985 -2.86014 0
M  V30 2053 H 197.981 -3.52783 -1.24178 0
M  V30 2054 H 200.273 -5.87458 -3.37489 0
M  V30 2055 H 201.216 -6.75323 -2.12942 0
M  V30 2056 H 201.624 -5.05457 -2.51342 0
M  V30 2057 N 201.022 0.148545 -1.56898 0
M  V30 2058 C 202.268 0.862694 -1.83536 0
M  V30 2059 C 202.601 1.80889 -0.706604 0
M  V30 2060 O 201.876 1.92328 0.289885 0
M  V30 2061 C 202.159 1.63853 -3.20662 0
M  V30 2062 C 202.012 0.713925 -4.44098 0
M  V30 2063 C 203.331 2.60133 -3.54991 0
M  V30 2064 H 200.45 0.312179 -0.667618 0
M  V30 2065 H 203.092 0.127953 -1.89569 0
M  V30 2066 H 201.242 2.26489 -3.1565 0
M  V30 2067 H 202.914 0.098686 -4.61194 0
M  V30 2068 H 201.157 0.0234019 -4.33794 0
M  V30 2069 H 201.828 1.29278 -5.36648 0
M  V30 2070 H 204.304 2.07616 -3.60603 0
M  V30 2071 H 203.18 3.11468 -4.51972 0
M  V30 2072 H 203.441 3.41417 -2.80868 0
M  V30 2073 N 202.5 1.5196 0.417844 0
M  V30 2074 C 203.463 1.74065 1.49111 0
M  V30 2075 C 204.463 0.610537 1.48758 0
M  V30 2076 O 205.653 0.87832 1.50437 0
M  V30 2077 C 202.785 1.81502 2.88565 0
M  V30 2078 H 203.978 2.69869 1.30807 0
M  V30 2079 H 201.531 1.42244 0.647785 0
M  V30 2080 H 202.266 0.875813 3.1225 0
M  V30 2081 H 202.051 2.63651 2.90225 0
M  V30 2082 H 203.541 2.00376 3.66387 0
M  V30 2083 N 203.978 -0.674533 1.42435 0
M  V30 2084 C 204.908 -1.80009 1.48724 0
M  V30 2085 C 205.889 -1.6659 0.343793 0
M  V30 2086 O 207.074 -1.86007 0.558137 0
M  V30 2087 C 204.204 -3.18306 1.38919 0
M  V30 2088 C 203.158 -3.46461 2.51294 0
M  V30 2089 C 202.484 -4.84335 2.26547 0
M  V30 2090 C 203.784 -3.43328 3.93603 0
M  V30 2091 H 205.478 -1.75004 2.42928 0
M  V30 2092 H 203.024 -0.840533 1.16923 0
M  V30 2093 H 204.977 -3.9678 1.41927 0
M  V30 2094 H 203.701 -3.2399 0.412094 0
M  V30 2095 H 202.36 -2.70348 2.47604 0
M  V30 2096 H 202.008 -4.86669 1.2713 0
M  V30 2097 H 201.708 -5.04136 3.01861 0
M  V30 2098 H 203.232 -5.65094 2.31304 0
M  V30 2099 H 204.646 -4.11772 3.98894 0
M  V30 2100 H 203.043 -3.74664 4.68771 0
M  V30 2101 H 204.113 -2.41897 4.20255 0
M  V30 2102 N 205.456 -1.28612 -0.910864 0
M  V30 2103 C 206.704 -1.15705 -1.65701 0
M  V30 2104 C 207.025 0.29416 -1.92769 0
M  V30 2105 O 206.295 1.20331 -1.54588 0
M  V30 2106 H 204.875 -0.425216 -0.614167 0
M  V30 2107 H 207.537 -1.61381 -1.0928 0
M  V30 2108 H 206.633 -1.6988 -2.61815 0
M  V30 2109 N 206.934 1.1197 -1.10907 0
M  V30 2110 C 208.183 1.82947 -0.849302 0
M  V30 2111 C 208.496 1.85275 0.627112 0
M  V30 2112 O 209.702 2.52296 1.00295 0
M  V30 2113 C 208.158 3.28529 -1.46959 0
M  V30 2114 C 207.766 3.34546 -2.97965 0
M  V30 2115 C 209.51 4.04443 -1.28942 0
M  V30 2116 C 207.417 4.74491 -3.53004 0
M  V30 2117 H 206.347 0.685477 -0.314065 0
M  V30 2118 H 208.998 1.2604 -1.33365 0
M  V30 2119 H 207.38 3.85333 -0.912917 0
M  V30 2120 H 208.554 2.87654 -3.59989 0
M  V30 2121 H 206.869 2.72108 -3.15192 0
M  V30 2122 H 209.466 5.07787 -1.67502 0
M  V30 2123 H 209.809 4.15656 -0.231456 0
M  V30 2124 H 210.342 3.5401 -1.81443 0
M  V30 2125 H 207.081 4.68474 -4.58489 0
M  V30 2126 H 206.601 5.21816 -2.9575 0
M  V30 2127 H 208.28 5.4344 -3.51115 0
M  V30 2128 N 208.412 0.89855 1.29475 0
M  V30 2129 C 209.659 0.523882 1.95606 0
M  V30 2130 C 209.987 -0.929608 1.70847 0
M  V30 2131 O 209.242 -1.67401 1.01367 0
M  V30 2132 C 209.541 0.761398 3.49195 0
M  V30 2133 C 209.207 2.19207 3.94029 0
M  V30 2134 C 207.869 2.58326 4.05982 0
M  V30 2135 C 210.221 3.12379 4.17216 0
M  V30 2136 C 207.549 3.898 4.38489 0
M  V30 2137 C 209.901 4.43401 4.51197 0
M  V30 2138 C 208.565 4.82394 4.61359 0
M  V30 2139 H 207.835 0.191702 0.715773 0
M  V30 2140 H 210.482 1.13699 1.54094 0
M  V30 2141 H 208.787 0.0653622 3.91745 0
M  V30 2142 H 210.484 0.450904 3.98457 0
M  V30 2143 H 207.074 1.87846 3.85242 0
M  V30 2144 H 211.258 2.83371 4.07449 0
M  V30 2145 H 206.514 4.19734 4.44559 0
M  V30 2146 H 210.688 5.15623 4.68087 0
M  V30 2147 H 208.315 5.84306 4.86303 0
M  V30 2148 N 209.89 -1.43072 0.660911 0
M  V30 2149 C 211.138 -2.01323 0.177094 0
M  V30 2150 C 211.459 -1.5245 -1.2159 0
M  V30 2151 O 210.729 -0.740322 -1.81373 0
M  V30 2152 H 209.309 -0.744382 0.0624804 0
M  V30 2153 H 211.971 -1.75179 0.854305 0
M  V30 2154 H 211.067 -3.11649 0.167641 0
M  V30 2155 N 211.368 -0.403325 -1.52352 0
M  V30 2156 C 212.315 0.425011 -2.26853 0
M  V30 2157 C 213.285 1.04598 -1.29029 0
M  V30 2158 O 214.47 1.07135 -1.57882 0
M  V30 2159 C 211.61 1.53888 -3.08889 0
M  V30 2160 C 210.723 0.939396 -4.21663 0
M  V30 2161 C 209.858 2.02547 -4.91068 0
M  V30 2162 C 208.897 1.40263 -5.95813 0
M  V30 2163 N 208.034 2.4286 -6.58759 0
M  V30 2164 H 212.874 -0.21674 -2.97211 0
M  V30 2165 H 210.411 -0.118722 -1.4662 0
M  V30 2166 H 212.369 2.19558 -3.54753 0
M  V30 2167 H 210.999 2.15074 -2.40714 0
M  V30 2168 H 210.051 0.171898 -3.80011 0
M  V30 2169 H 211.363 0.44436 -4.96817 0
M  V30 2170 H 210.517 2.75958 -5.40308 0
M  V30 2171 H 209.256 2.55415 -4.15469 0
M  V30 2172 H 208.261 0.653833 -5.45898 0
M  V30 2173 H 209.486 0.881719 -6.73352 0
M  V30 2174 H 207.432 2.94871 -5.85992 0
M  V30 2175 H 207.349 1.98152 -7.2957 0
M  V30 2176 H 208.617 3.15858 -7.12639 0
M  V30 2177 N 212.846 1.57033 -0.133567 0
M  V30 2178 C 213.793 2.16074 0.811208 0
M  V30 2179 C 214.763 1.08979 1.2535 0
M  V30 2180 O 215.948 1.36958 1.32843 0
M  V30 2181 C 213.088 2.77595 2.05024 0
M  V30 2182 C 212.201 3.99042 1.65498 0
M  V30 2183 C 211.336 4.48603 2.84479 0
M  V30 2184 C 210.375 5.62547 2.41262 0
M  V30 2185 N 209.512 6.06787 3.53206 0
M  V30 2186 H 214.352 2.96477 0.300906 0
M  V30 2187 H 211.889 1.46462 0.136822 0
M  V30 2188 H 213.847 3.11402 2.77642 0
M  V30 2189 H 212.477 1.99859 2.53488 0
M  V30 2190 H 211.529 3.71302 0.826981 0
M  V30 2191 H 212.841 4.81629 1.29748 0
M  V30 2192 H 211.995 4.84395 3.65303 0
M  V30 2193 H 210.734 3.64995 3.23465 0
M  V30 2194 H 209.739 5.26345 1.58874 0
M  V30 2195 H 210.964 6.47931 2.03377 0
M  V30 2196 H 208.91 5.26117 3.91838 0
M  V30 2197 H 208.827 6.84266 3.21427 0
M  V30 2198 H 210.095 6.4722 4.34427 0
M  V30 2199 N 214.325 -0.140222 1.56975 0
M  V30 2200 C 215.565 -0.857823 1.85528 0
M  V30 2201 C 215.929 -1.78039 0.718768 0
M  V30 2202 O 217.13 -2.53795 0.885521 0
M  V30 2203 C 215.401 -1.60615 3.19277 0
M  V30 2204 S 216.96 -2.36824 3.69405 0
M  V30 2205 H 213.778 -0.286727 0.650622 0
M  V30 2206 H 216.38 -0.117408 1.95147 0
M  V30 2207 H 215.084 -0.919994 3.99955 0
M  V30 2208 H 214.615 -2.38735 3.12681 0
M  V30 2209 H 216.63 -3.62148 3.3921 0
M  V30 2210 N 215.803 -1.52179 -0.40978 0
M  V30 2211 C 217.033 -1.69807 -1.17682 0
M  V30 2212 C 217.441 -0.406908 -1.84773 0
M  V30 2213 O 216.784 0.626863 -1.72673 0
M  V30 2214 C 216.846 -2.77712 -2.2829 0
M  V30 2215 C 216.51 -4.19481 -1.81341 0
M  V30 2216 C 217.507 -5.03345 -1.30154 0
M  V30 2217 C 215.192 -4.65713 -1.88194 0
M  V30 2218 C 217.186 -6.31511 -0.864416 0
M  V30 2219 C 214.873 -5.93869 -1.44093 0
M  V30 2220 C 215.871 -6.76597 -0.933023 0
M  V30 2221 O 215.559 -8.02354 -0.49838 0
M  V30 2222 H 215.291 -0.572372 -0.359675 0
M  V30 2223 H 217.845 -1.99511 -0.488311 0
M  V30 2224 H 216.075 -2.43383 -3.00502 0
M  V30 2225 H 217.764 -2.83946 -2.90051 0
M  V30 2226 H 218.53 -4.68819 -1.24232 0
M  V30 2227 H 214.409 -4.01424 -2.26671 0
M  V30 2228 H 217.953 -6.96033 -0.467286 0
M  V30 2229 H 213.85 -6.27903 -1.49694 0
M  V30 2230 H 214.618 -8.16135 -0.621747 0
M  V30 2231 N 217.281 0.66697 -1.42791 0
M  V30 2232 C 218.211 1.79218 -1.49677 0
M  V30 2233 C 219.192 1.66405 -0.352623 0
M  V30 2234 O 220.377 1.85708 -0.567993 0
M  V30 2235 C 217.507 3.17565 -1.40605 0
M  V30 2236 C 216.461 3.45124 -2.53127 0
M  V30 2237 C 215.787 4.83127 -2.29112 0
M  V30 2238 C 217.087 3.41236 -3.95418 0
M  V30 2239 H 218.781 1.73713 -2.43853 0
M  V30 2240 H 216.327 0.83432 -1.17367 0
M  V30 2241 H 218.28 3.96022 -1.44029 0
M  V30 2242 H 217.004 3.23767 -0.429271 0
M  V30 2243 H 215.663 2.69031 -2.49034 0
M  V30 2244 H 215.311 4.85988 -1.29709 0
M  V30 2245 H 215.011 5.02528 -3.04531 0
M  V30 2246 H 216.535 5.63859 -2.34297 0
M  V30 2247 H 217.949 4.09651 -4.01073 0
M  V30 2248 H 216.346 3.72173 -4.70752 0
M  V30 2249 H 217.416 2.39665 -4.21532 0
M  V30 2250 N 218.759 1.29093 0.90403 0
M  V30 2251 C 220.007 1.16583 1.65085 0
M  V30 2252 C 220.328 -0.283933 1.92922 0
M  V30 2253 O 219.598 -1.19509 1.55224 0
M  V30 2254 H 218.178 0.428467 0.611903 0
M  V30 2255 H 220.84 1.61959 1.08422 0
M  V30 2256 H 219.936 1.71266 2.6091 0
M  V30 2257 N 220.237 -1.11381 1.11499 0
M  V30 2258 C 221.514 -1.7955 0.775965 0
M  V30 2259 C 221.894 -1.97859 -0.73588 0
M  V30 2260 O 221.242 -1.56376 -1.66609 0
M  V30 2261 C 221.452 -3.13196 1.53977 0
M  V30 2262 C 222.8 -3.88227 1.71944 0
M  V30 2263 O 223.824 -3.22887 1.50407 0
M  V30 2264 O 222.683 -5.05477 2.07738 0
M  V30 2265 H 219.777 -0.777728 0.28119 0
M  V30 2266 H 222.323 -1.18118 1.21845 0
M  V30 2267 H 221.095 -2.95229 2.56818 0
M  V30 2268 H 220.718 -3.82342 1.09088 0
M  V30 2269 N 221.715 -0.905404 -1.28997 0
M  V30 2270 C 222.943 -0.549846 -1.9946 0
M  V30 2271 C 223.358 0.866834 -1.67724 0
M  V30 2272 O 222.715 1.57298 -0.925404 0
M  V30 2273 C 222.766 -0.739387 -3.53858 0
M  V30 2274 O 222.487 -2.10031 -3.84472 0
M  V30 2275 C 223.988 -0.389541 -4.41585 0
M  V30 2276 H 221.208 -0.210429 -0.637151 0
M  V30 2277 H 223.752 -1.21632 -1.64396 0
M  V30 2278 H 221.907 -0.120023 -3.87214 0
M  V30 2279 H 222.321 -2.13385 -4.79132 0
M  V30 2280 H 223.795 -0.572972 -5.49018 0
M  V30 2281 H 224.272 0.673756 -4.34001 0
M  V30 2282 H 224.878 -0.986089 -4.1371 0
M  V30 2283 N 223.193 1.4272 -0.668489 0
M  V30 2284 C 224.439 2.02443 -0.197076 0
M  V30 2285 C 224.794 1.51882 1.18109 0
M  V30 2286 O 224.087 0.708618 1.78015 0
M  V30 2287 C 224.281 3.57021 -0.164499 0
M  V30 2288 C 224.11 4.22583 -1.53797 0
M  V30 2289 C 222.88 4.58019 -2.13416 0
M  V30 2290 C 225.078 4.50588 -2.47941 0
M  V30 2291 N 223.06 5.08729 -3.4361 0
M  V30 2292 C 224.431 5.02782 -3.62782 0
M  V30 2293 C 226.486 4.32571 -2.46551 0
M  V30 2294 C 225.189 5.38852 -4.76478 0
M  V30 2295 C 227.215 4.69713 -3.59338 0
M  V30 2296 C 226.577 5.22053 -4.72906 0
M  V30 2297 H 222.676 0.773214 -0.116894 0
M  V30 2298 H 225.26 1.73673 -0.880108 0
M  V30 2299 H 223.431 3.85323 0.487925 0
M  V30 2300 H 225.163 4.03439 0.319207 0
M  V30 2301 H 221.918 4.43566 -1.65969 0
M  V30 2302 H 222.342 5.38521 -4.10273 0
M  V30 2303 H 226.984 3.91365 -1.59978 0
M  V30 2304 H 224.702 5.78993 -5.63731 0
M  V30 2305 H 228.288 4.57454 -3.59482 0
M  V30 2306 H 227.168 5.50258 -5.58736 0
M  V30 2307 N 224.671 0.411399 1.52136 0
M  V30 2308 C 225.619 -0.427633 2.28635 0
M  V30 2309 C 226.613 -1.04383 1.33419 0
M  V30 2310 O 227.819 -0.981772 1.50868 0
M  V30 2311 H 224.194 -0.156689 0.735495 0
M  V30 2312 H 226.165 0.238761 2.97443 0
M  V30 2313 C 224.914 -1.53082 3.12188 0
M  V30 2314 H 224.237 -1.06601 3.85326 0
M  V30 2315 H 225.677 -2.09167 3.68816 0
M  V30 2316 C 224.136 -2.49946 2.25895 0
M  V30 2317 O 224.666 -3.53884 1.90076 0
M  V30 2318 N 222.872 -2.2021 1.8962 0
M  V30 2319 H 222.419 -1.35719 2.18948 0
M  V30 2320 H 222.377 -2.85266 1.32176 0
M  V30 2321 N 226.149 -1.5696 0.141893 0
M  V30 2322 C 227.565 -1.58151 -0.21456 0
M  V30 2323 C 227.765 -1.1559 -1.65049 0
M  V30 2324 O 226.821 -0.853832 -2.37626 0
M  V30 2325 C 228.134 -3.00674 0.0395576 0
M  V30 2326 C 229.682 -3.1299 -0.0245529 0
M  V30 2327 C 230.157 -4.57554 0.202167 0
M  V30 2328 N 231.648 -4.62961 0.148919 0
M  V30 2329 C 232.383 -5.7262 0.298924 0
M  V30 2330 N 231.879 -6.90947 0.50637 0
M  V30 2331 N 233.672 -5.61601 0.236886 0
M  V30 2332 H 225.823 -1.8292 1.07953 0
M  V30 2333 H 228.086 -0.846425 0.42693 0
M  V30 2334 H 227.792 -3.36183 1.03315 0
M  V30 2335 H 227.666 -3.70981 -0.682143 0
M  V30 2336 H 230.053 -2.77326 -1.00869 0
M  V30 2337 H 230.134 -2.4518 0.729396 0
M  V30 2338 H 229.778 -4.93922 1.18338 0
M  V30 2339 H 229.708 -5.23484 -0.572044 0
M  V30 2340 H 232.199 -3.77899 -0.00697015 0
M  V30 2341 H 232.512 -7.7038 0.611076 0
M  V30 2342 H 230.857 -6.92878 0.542628 0
M  V30 2343 H 234.048 -4.68039 0.0756209 0
M  V30 2344 H 234.221 -6.47015 0.357227 0
M  V30 2345 N 227.627 0.131896 -1.57047 0
M  V30 2346 C 228.557 1.16384 -2.02428 0
M  V30 2347 C 229.538 1.43936 -0.90644 0
M  V30 2348 O 230.723 1.54599 -1.17528 0
M  V30 2349 C 227.853 2.49328 -2.4177 0
M  V30 2350 C 226.807 2.36266 -3.56879 0
M  V30 2351 C 226.133 3.74057 -3.8208 0
M  V30 2352 C 227.433 1.834 -4.89042 0
M  V30 2353 H 229.127 0.786433 -2.88887 0
M  V30 2354 H 226.673 0.376855 -1.38981 0
M  V30 2355 H 228.626 3.21759 -2.7212 0
M  V30 2356 H 227.35 2.88934 -1.52266 0
M  V30 2357 H 226.009 1.66286 -3.26718 0
M  V30 2358 H 225.657 4.11125 -2.89803 0
M  V30 2359 H 225.357 3.66174 -4.59554 0
M  V30 2360 H 226.881 4.48012 -4.1487 0
M  V30 2361 H 228.295 2.45636 -5.18011 0
M  V30 2362 H 226.692 1.8637 -5.70426 0
M  V30 2363 H 227.762 0.790662 -4.7841 0
M  V30 2364 N 229.106 1.52395 0.401703 0
M  V30 2365 C 230.383 1.57387 1.16141 0
M  V30 2366 C 230.763 0.359359 2.08019 0
M  V30 2367 O 230.111 -0.65326 2.18963 0
M  V30 2368 C 230.321 2.90631 1.93221 0
M  V30 2369 C 231.669 3.43904 2.49028 0
M  V30 2370 O 232.693 2.92421 2.03393 0
M  V30 2371 O 231.552 4.33823 3.32356 0
M  V30 2372 H 228.646 0.634262 0.530698 0
M  V30 2373 H 231.192 1.64725 0.407883 0
M  V30 2374 H 229.964 3.70473 1.25958 0
M  V30 2375 H 229.587 2.8662 2.75563 0
M  V30 2376 N 230.584 -0.659388 1.43143 0
M  V30 2377 C 231.831 -1.41935 1.44433 0
M  V30 2378 C 232.159 -1.94387 0.0663522 0
M  V30 2379 O 231.414 -1.72314 -0.927706 0
M  V30 2380 C 231.713 -2.62206 2.42864 0
M  V30 2381 C 231.379 -2.28208 3.88886 0
M  V30 2382 C 230.041 -2.18647 4.28657 0
M  V30 2383 C 232.393 -2.00887 4.8093 0
M  V30 2384 C 229.721 -1.79914 5.58433 0
M  V30 2385 C 232.073 -1.63653 6.11065 0
M  V30 2386 C 230.737 -1.52614 6.49819 0
M  V30 2387 H 230.007 -0.519376 0.528517 0
M  V30 2388 H 232.654 -0.750453 1.76183 0
M  V30 2389 H 230.959 -3.34199 2.04495 0
M  V30 2390 H 232.656 -3.2041 2.41119 0
M  V30 2391 H 229.246 -2.36557 3.57406 0
M  V30 2392 H 233.43 -2.07198 4.5098 0
M  V30 2393 H 228.686 -1.69948 5.87305 0
M  V30 2394 H 232.86 -1.41543 6.81864 0
M  V30 2395 H 230.487 -1.22371 7.50286 0
M  V30 2396 N 232.062 -1.29571 -0.897171 0
M  V30 2397 C 233.309 -1.17689 -1.6479 0
M  V30 2398 C 233.637 0.27107 -1.92602 0
M  V30 2399 O 232.892 1.21193 -1.53658 0
M  V30 2400 C 233.191 -1.9382 -3.00281 0
M  V30 2401 C 232.857 -3.43522 -2.92068 0
M  V30 2402 C 231.519 -3.84348 -2.89535 0
M  V30 2403 C 233.871 -4.38906 -2.81089 0
M  V30 2404 C 231.199 -5.18869 -2.73846 0
M  V30 2405 C 233.551 -5.73521 -2.66939 0
M  V30 2406 C 232.215 -6.13601 -2.62774 0
M  V30 2407 H 231.485 -0.430654 -0.603008 0
M  V30 2408 H 234.132 -1.60536 -1.04404 0
M  V30 2409 H 232.437 -1.4357 -3.64547 0
M  V30 2410 H 234.134 -1.82028 -3.57305 0
M  V30 2411 H 230.724 -3.11072 -2.94842 0
M  V30 2412 H 234.908 -4.08315 -2.82121 0
M  V30 2413 H 230.164 -5.4903 -2.69027 0
M  V30 2414 H 234.338 -6.47078 -2.57416 0
M  V30 2415 H 231.965 -7.17786 -2.50375 0
M  V30 2416 N 233.54 1.10788 -1.12088 0
M  V30 2417 C 234.789 1.82036 -0.868659 0
M  V30 2418 C 235.102 1.85929 0.607426 0
M  V30 2419 O 236.308 2.53346 0.97613 0
M  V30 2420 C 234.764 3.26951 -1.50435 0
M  V30 2421 C 234.372 3.31367 -3.01496 0
M  V30 2422 C 236.116 4.03053 -1.33225 0
M  V30 2423 C 234.023 4.7072 -3.58017 0
M  V30 2424 H 232.953 0.682108 -0.321318 0
M  V30 2425 H 235.604 1.24618 -1.34694 0
M  V30 2426 H 233.986 3.84343 -0.953735 0
M  V30 2427 H 235.16 2.83819 -3.6302 0
M  V30 2428 H 233.475 2.6875 -3.18061 0
M  V30 2429 H 236.072 5.05981 -1.72878 0
M  V30 2430 H 236.415 4.15387 -0.275529 0
M  V30 2431 H 236.948 3.52066 -1.85188 0
M  V30 2432 H 233.687 4.63585 -4.63432 0
M  V30 2433 H 233.207 5.1865 -3.01268 0
M  V30 2434 H 234.886 5.39685 -3.56859 0
M  V30 2435 N 235.018 0.912232 1.28515 0
M  V30 2436 C 236.264 0.545405 1.95328 0
M  V30 2437 C 236.597 -0.908313 1.71649 0
M  V30 2438 O 235.872 -1.64575 1.03659 0
M  V30 2439 C 236.155 0.853483 3.4984 0
M  V30 2440 C 236.008 2.35982 3.82926 0
M  V30 2441 C 237.327 0.348589 4.38717 0
M  V30 2442 H 234.446 0.199626 0.709449 0
M  V30 2443 H 237.088 1.1412 1.5191 0
M  V30 2444 H 235.238 0.34643 3.86952 0
M  V30 2445 H 236.91 2.93738 3.55691 0
M  V30 2446 H 235.153 2.81543 3.30024 0
M  V30 2447 H 235.824 2.52593 4.90816 0
M  V30 2448 H 238.3 0.78294 4.08668 0
M  V30 2449 H 237.176 0.593242 5.45685 0
M  V30 2450 H 237.437 -0.751049 4.35674 0
M  V30 2451 N 236.496 -1.42363 0.676048 0
M  V30 2452 C 237.745 -2.00745 0.196037 0
M  V30 2453 C 238.058 -1.54083 -1.20489 0
M  V30 2454 O 239.264 -2.04891 -1.78134 0
M  V30 2455 C 237.72 -3.58651 0.299616 0
M  V30 2456 C 237.328 -4.143 1.70468 0
M  V30 2457 C 239.072 -4.24326 -0.121619 0
M  V30 2458 C 236.979 -5.64574 1.76096 0
M  V30 2459 H 235.909 -0.750787 0.0695301 0
M  V30 2460 H 238.56 -1.63072 0.841412 0
M  V30 2461 H 236.942 -3.93833 -0.413673 0
M  V30 2462 H 238.116 -3.90575 2.44515 0
M  V30 2463 H 236.431 -3.61081 2.07387 0
M  V30 2464 H 239.028 -5.34607 -0.0997362 0
M  V30 2465 H 239.371 -3.99897 -1.15708 0
M  V30 2466 H 239.904 -3.94108 0.540706 0
M  V30 2467 H 236.643 -5.93804 2.77628 0
M  V30 2468 H 236.163 -5.90286 1.06406 0
M  V30 2469 H 237.842 -6.29013 1.51496 0
M  V30 2470 N 237.974 -0.419461 -1.51915 0
M  V30 2471 C 238.937 0.389116 -2.25873 0
M  V30 2472 C 239.937 0.964924 -1.28631 0
M  V30 2473 O 241.127 0.842179 -1.52489 0
M  V30 2474 C 238.259 1.54874 -3.03689 0
M  V30 2475 H 239.452 -0.258799 -2.98781 0
M  V30 2476 H 237.005 -0.172209 -1.55348 0
M  V30 2477 H 237.74 2.23323 -2.35154 0
M  V30 2478 H 237.525 1.14223 -3.75094 0
M  V30 2479 H 239.015 2.12046 -3.59759 0
M  V30 2480 N 239.452 1.56882 -0.150215 0
M  V30 2481 C 240.7 1.9584 0.499105 0
M  V30 2482 C 241.021 1.03623 1.65188 0
M  V30 2483 O 240.291 0.0984084 1.95653 0
M  V30 2484 H 238.871 0.723119 0.187373 0
M  V30 2485 H 241.533 1.9358 -0.226466 0
M  V30 2486 H 240.629 2.99638 0.873122 0
M  V30 2487 N 240.93 -0.123565 1.57115 0
M  V30 2488 C 241.863 -1.18202 1.95201 0
M  V30 2489 C 242.841 -1.40349 0.821031 0
M  V30 2490 O 244.025 -1.54578 1.07879 0
M  V30 2491 C 241.152 -2.53671 2.24429 0
M  V30 2492 C 240.198 -2.4798 3.46999 0
M  V30 2493 S 241.031 -1.92389 4.99747 0
M  V30 2494 C 242.187 -3.2954 5.32123 0
M  V30 2495 H 242.42 -0.857212 2.84674 0
M  V30 2496 H 239.953 -0.33014 1.50829 0
M  V30 2497 H 241.911 -3.3162 2.41947 0
M  V30 2498 H 240.572 -2.83332 1.35579 0
M  V30 2499 H 239.765 -3.47758 3.64801 0
M  V30 2500 H 239.367 -1.7815 3.28844 0
M  V30 2501 H 241.659 -4.25736 5.27025 0
M  V30 2502 H 242.602 -3.16569 6.33395 0
M  V30 2503 H 243.01 -3.27758 4.59603 0
M  V30 2504 N 242.408 -1.52605 -0.393616 0
M  V30 2505 C 243.338 -1.80022 -1.48709 0
M  V30 2506 C 244.319 -0.651995 -1.57108 0
M  V30 2507 O 245.504 -0.89913 -1.72132 0
M  V30 2508 C 242.634 -1.96492 -2.86371 0
M  V30 2509 C 241.588 -3.12161 -2.92813 0
M  V30 2510 C 240.914 -3.13877 -4.3288 0
M  V30 2511 C 242.214 -4.51322 -2.6288 0
M  V30 2512 H 243.908 -2.71589 -1.26015 0
M  V30 2513 H 241.454 -1.30684 -0.604778 0
M  V30 2514 H 243.407 -2.14255 -3.62867 0
M  V30 2515 H 242.131 -1.01611 -3.10391 0
M  V30 2516 H 240.79 -2.94173 -2.18764 0
M  V30 2517 H 240.438 -2.16687 -4.53933 0
M  V30 2518 H 240.138 -3.91576 -4.38112 0
M  V30 2519 H 241.662 -3.33789 -5.1129 0
M  V30 2520 H 243.076 -4.69435 -3.29096 0
M  V30 2521 H 241.473 -5.31053 -2.79468 0
M  V30 2522 H 242.543 -4.58353 -1.58242 0
M  V30 2523 N 243.887 0.651787 -1.4349 0
M  V30 2524 C 244.797 1.79368 -1.5121 0
M  V30 2525 C 245.813 1.69361 -0.399093 0
M  V30 2526 O 246.989 1.90505 -0.653431 0
M  V30 2527 C 244.054 3.15653 -1.43401 0
M  V30 2528 C 243.115 3.37446 -2.65384 0
M  V30 2529 C 242.348 4.67229 -2.57939 0
M  V30 2530 O 242.571 5.46676 -1.62792 0
M  V30 2531 O 241.505 4.90773 -3.48462 0
M  V30 2532 H 245.331 1.7581 -2.47638 0
M  V30 2533 H 242.916 0.810447 -1.25507 0
M  V30 2534 H 244.798 3.96935 -1.41494 0
M  V30 2535 H 243.473 3.19798 -0.501085 0
M  V30 2536 H 242.38 2.55923 -2.72863 0
M  V30 2537 H 243.713 3.38148 -3.57654 0
M  V30 2538 N 245.365 1.30045 0.890287 0
M  V30 2539 C 246.595 1.21296 1.67245 0
M  V30 2540 C 247.003 -0.227471 1.87828 0
M  V30 2541 O 246.346 -1.16296 1.422 0
M  V30 2542 C 246.408 1.86519 3.07329 0
M  V30 2543 C 246.072 3.35837 3.09939 0
M  V30 2544 C 247.069 4.31915 2.89389 0
M  V30 2545 C 244.754 3.77196 3.31706 0
M  V30 2546 C 246.748 5.67325 2.90552 0
M  V30 2547 C 244.435 5.12725 3.32499 0
M  V30 2548 C 245.433 6.076 3.11947 0
M  V30 2549 O 245.121 7.40655 3.12547 0
M  V30 2550 H 244.853 0.4211 0.528821 0
M  V30 2551 H 247.407 1.72111 1.12103 0
M  V30 2552 H 245.637 1.30228 3.64112 0
M  V30 2553 H 247.326 1.71963 3.67673 0
M  V30 2554 H 248.092 4.01294 2.72375 0
M  V30 2555 H 243.971 3.03796 3.4674 0
M  V30 2556 H 247.515 6.41354 2.74429 0
M  V30 2557 H 243.412 5.42988 3.49047 0
M  V30 2558 H 244.18 7.49577 3.28749 0
M  V30 2559 N 246.843 -1.10192 1.12674 0
M  V30 2560 C 248.068 -1.86523 0.906853 0
M  V30 2561 C 248.493 -1.80221 -0.538711 0
M  V30 2562 O 247.851 -1.17396 -1.38158 0
M  V30 2563 C 247.899 -3.32758 1.3894 0
M  V30 2564 O 247.003 -4.08449 0.5695 0
M  V30 2565 H 246.344 -0.578678 0.325619 0
M  V30 2566 H 248.874 -1.39203 1.49946 0
M  V30 2567 H 248.884 -3.83608 1.38958 0
M  V30 2568 H 247.559 -3.36661 2.44197 0
M  V30 2569 H 246.136 -3.67427 0.636528 0
M  V30 2570 N 248.321 -0.919034 -1.28029 0
M  V30 2571 C 249.251 -0.428581 -2.29533 0
M  V30 2572 C 250.232 0.50659 -1.62381 0
M  V30 2573 O 251.417 0.413195 -1.89753 0
M  V30 2574 C 248.547 0.327388 -3.45753 0
M  V30 2575 C 247.501 -0.519137 -4.2484 0
M  V30 2576 C 246.827 0.365486 -5.33449 0
M  V30 2577 C 248.127 -1.77914 -4.91064 0
M  V30 2578 H 249.821 -1.27687 -2.70807 0
M  V30 2579 H 247.367 -0.615428 -1.30186 0
M  V30 2580 H 249.32 0.681378 -4.15855 0
M  V30 2581 H 248.044 1.20963 -3.03374 0
M  V30 2582 H 246.703 -0.855717 -3.56473 0
M  V30 2583 H 246.351 1.24642 -4.87312 0
M  V30 2584 H 246.051 -0.197356 -5.87268 0
M  V30 2585 H 247.575 0.715241 -6.06396 0
M  V30 2586 H 248.989 -1.49374 -5.53498 0
M  V30 2587 H 247.386 -2.2848 -5.54903 0
M  V30 2588 H 248.456 -2.50382 -4.15255 0
M  V30 2589 N 249.799 1.42003 -0.683588 0
M  V30 2590 C 251.076 1.95112 -0.138075 0
M  V30 2591 C 251.456 1.62359 1.34918 0
M  V30 2592 O 250.804 0.924311 2.08971 0
M  V30 2593 C 251.014 3.46505 -0.416581 0
M  V30 2594 C 252.362 4.23254 -0.337834 0
M  V30 2595 O 253.386 3.54468 -0.35082 0
M  V30 2596 O 252.245 5.45743 -0.287596 0
M  V30 2597 H 249.339 0.826961 -0.00797996 0
M  V30 2598 H 251.885 1.51784 -0.758924 0
M  V30 2599 H 250.657 3.63582 -1.4465 0
M  V30 2600 H 250.28 3.969 0.235839 0
M  V30 2601 N 251.277 0.427512 1.51691 0
M  V30 2602 C 252.207 -0.3796 2.30394 0
M  V30 2603 C 253.188 -1.02982 1.35384 0
M  V30 2604 O 254.373 -1.03534 1.643 0
M  V30 2605 C 251.503 -1.48649 3.1388 0
M  V30 2606 C 250.457 -0.960294 4.17088 0
M  V30 2607 C 249.783 -2.16219 4.89033 0
M  V30 2608 C 251.083 -0.00153679 5.223 0
M  V30 2609 H 252.777 0.277164 2.98114 0
M  V30 2610 H 250.323 0.134739 1.43368 0
M  V30 2611 H 252.276 -2.05826 3.67714 0
M  V30 2612 H 251 -2.1714 2.43962 0
M  V30 2613 H 249.659 -0.410806 3.64291 0
M  V30 2614 H 249.307 -2.83307 4.15628 0
M  V30 2615 H 249.007 -1.81654 5.58816 0
M  V30 2616 H 250.531 -2.73968 5.45687 0
M  V30 2617 H 251.945 -0.482687 5.71264 0
M  V30 2618 H 250.342 0.256199 5.99553 0
M  V30 2619 H 251.412 0.938174 4.75738 0
M  V30 2620 N 252.755 -1.56801 0.158532 0
M  V30 2621 C 253.687 -2.14488 -0.807923 0
M  V30 2622 C 254.7 -1.09721 -1.20271 0
M  V30 2623 O 255.889 -1.36956 -1.14478 0
M  V30 2624 C 252.989 -2.66217 -2.09718 0
M  V30 2625 C 252.162 -3.95507 -1.86796 0
M  V30 2626 C 251.221 -4.3243 -2.99818 0
M  V30 2627 O 250.247 -5.00543 -2.71008 0
M  V30 2628 N 251.449 -3.92947 -4.27285 0
M  V30 2629 H 254.214 -2.98042 -0.314816 0
M  V30 2630 H 251.775 -1.61881 -0.0246692 0
M  V30 2631 H 253.767 -2.87924 -2.84398 0
M  V30 2632 H 252.337 -1.87324 -2.50257 0
M  V30 2633 H 251.557 -3.82309 -0.96089 0
M  V30 2634 H 252.845 -4.79972 -1.68833 0
M  V30 2635 H 252.243 -3.38087 -4.53557 0
M  V30 2636 H 250.8 -4.19681 -4.9871 0
M  V30 2637 N 254.233 0.115231 -1.57178 0
M  V30 2638 C 255.181 1.16014 -2.01602 0
M  V30 2639 C 256.175 1.42653 -0.913587 0
M  V30 2640 O 257.381 1.42571 -1.09879 0
M  V30 2641 H 253.756 0.391252 -0.642204 0
M  V30 2642 H 255.727 0.758998 -2.88586 0
M  V30 2643 C 254.476 2.47767 -2.4394 0
M  V30 2644 H 253.799 2.28108 -3.28339 0
M  V30 2645 H 255.239 3.19432 -2.78818 0
M  V30 2646 C 253.698 3.10617 -1.30455 0
M  V30 2647 O 254.228 3.96846 -0.622585 0
M  V30 2648 N 252.434 2.70553 -1.06064 0
M  V30 2649 H 251.981 2.00527 -1.61699 0
M  V30 2650 H 251.939 3.12934 -0.303284 0
M  V30 2651 N 255.711 1.52812 0.385517 0
M  V30 2652 C 256.957 1.68275 1.13188 0
M  V30 2653 C 257.29 0.423179 1.89533 0
M  V30 2654 O 256.565 -0.579113 1.85679 0
M  V30 2655 C 256.848 2.92001 2.1073 0
M  V30 2656 C 256.701 4.28067 1.38125 0
M  V30 2657 C 258.02 3.11283 3.11113 0
M  V30 2658 H 255.139 0.612352 0.410115 0
M  V30 2659 H 257.781 1.85415 0.414869 0
M  V30 2660 H 255.931 2.77519 2.71874 0
M  V30 2661 H 257.603 4.54324 0.799187 0
M  V30 2662 H 255.846 4.28388 0.683092 0
M  V30 2663 H 256.517 5.10733 2.09417 0
M  V30 2664 H 258.993 3.2482 2.6006 0
M  V30 2665 H 257.869 3.99325 3.76605 0
M  V30 2666 H 258.13 2.25656 3.80173 0
M  V30 2667 N 257.189 -0.644168 1.43834 0
M  V30 2668 C 258.414 -1.43642 1.49605 0
M  V30 2669 C 258.839 -1.8773 0.117913 0
M  V30 2670 O 258.197 -1.57938 -0.890239 0
M  V30 2671 C 258.245 -2.6416 2.45463 0
M  V30 2672 O 257.349 -3.63538 1.94714 0
M  V30 2673 H 256.69 -0.430329 0.50568 0
M  V30 2674 H 259.22 -0.787448 1.8884 0
M  V30 2675 H 259.23 -3.11864 2.63068 0
M  V30 2676 H 257.905 -2.31414 3.45572 0
M  V30 2677 H 256.482 -3.2273 1.86814 0
M  V30 2678 N 258.668 -1.30515 -0.883378 0
M  V30 2679 C 259.915 -1.1943 -1.63532 0
M  V30 2680 C 260.243 0.250627 -1.92878 0
M  V30 2681 O 259.498 1.19556 -1.54935 0
M  V30 2682 C 259.797 -1.96994 -2.98209 0
M  V30 2683 C 259.463 -3.466 -2.88408 0
M  V30 2684 C 258.125 -3.87397 -2.85442 0
M  V30 2685 C 260.477 -4.41863 -2.76418 0
M  V30 2686 C 257.805 -5.21745 -2.68327 0
M  V30 2687 C 260.157 -5.7632 -2.60841 0
M  V30 2688 C 258.821 -6.16354 -2.56251 0
M  V30 2689 H 258.091 -0.437025 -0.598406 0
M  V30 2690 H 260.738 -1.61635 -1.02696 0
M  V30 2691 H 259.043 -1.47429 -3.63004 0
M  V30 2692 H 260.74 -1.85808 -3.55354 0
M  V30 2693 H 257.33 -3.14182 -2.91527 0
M  V30 2694 H 261.514 -4.11285 -2.77775 0
M  V30 2695 H 256.77 -5.51853 -2.63189 0
M  V30 2696 H 260.944 -6.49772 -2.50538 0
M  V30 2697 H 258.571 -7.20401 -2.42748 0
M  V30 2698 N 260.146 1.09593 -1.13257 0
M  V30 2699 C 261.371 1.8604 -0.916732 0
M  V30 2700 C 261.796 1.80504 0.529146 0
M  V30 2701 O 261.154 1.18127 1.37534 0
M  V30 2702 C 261.202 3.32017 -1.40703 0
M  V30 2703 O 260.306 4.08141 -0.591153 0
M  V30 2704 H 259.647 0.576943 -0.328683 0
M  V30 2705 H 262.177 1.38405 -1.50682 0
M  V30 2706 H 262.187 3.82865 -1.4099 0
M  V30 2707 H 260.862 3.35361 -2.45979 0
M  V30 2708 H 259.439 3.67084 -0.656005 0
M  V30 2709 N 261.624 0.925811 1.2754 0
M  V30 2710 C 262.587 0.428129 2.25166 0
M  V30 2711 C 263.587 -0.452261 1.54309 0
M  V30 2712 O 264.777 -0.253608 1.72344 0
M  V30 2713 C 261.909 -0.384749 3.38722 0
M  V30 2714 H 263.102 1.29066 2.70706 0
M  V30 2715 H 260.655 0.706323 1.3943 0
M  V30 2716 H 261.39 -1.26618 2.98561 0
M  V30 2717 H 261.175 0.246454 3.91325 0
M  V30 2718 H 262.665 -0.723389 4.11287 0
M  V30 2719 N 263.102 -1.41638 0.69111 0
M  V30 2720 C 264.348 -2.01598 0.220519 0
M  V30 2721 C 264.681 -1.54594 -1.17535 0
M  V30 2722 O 263.956 -0.755177 -1.79241 0
M  V30 2723 C 264.239 -3.59062 0.273243 0
M  V30 2724 C 264.092 -4.16203 1.70573 0
M  V30 2725 C 265.411 -4.38546 -0.369457 0
M  V30 2726 H 262.53 -0.732468 0.0816045 0
M  V30 2727 H 265.172 -1.68445 0.878986 0
M  V30 2728 H 263.322 -3.87435 -0.287411 0
M  V30 2729 H 264.994 -3.98722 2.31989 0
M  V30 2730 H 263.237 -3.71414 2.2413 0
M  V30 2731 H 263.908 -5.25358 1.69419 0
M  V30 2732 H 266.384 -4.1596 0.107977 0
M  V30 2733 H 265.26 -5.48069 -0.302002 0
M  V30 2734 H 265.521 -4.17662 -1.44951 0
M  V30 2735 N 264.58 -0.43555 -1.51462 0
M  V30 2736 C 265.996 -0.0877501 -1.59359 0
M  V30 2737 C 266.196 1.4027 -1.4466 0
M  V30 2738 O 265.252 2.17243 -1.28693 0
M  V30 2739 C 266.565 -0.606264 -2.94525 0
M  V30 2740 C 268.113 -0.566548 -3.0783 0
M  V30 2741 C 268.588 -1.06201 -4.45517 0
M  V30 2742 N 270.079 -1.01992 -4.51832 0
M  V30 2743 C 270.814 -1.37417 -5.5669 0
M  V30 2744 N 270.31 -1.80119 -6.68976 0
M  V30 2745 N 272.103 -1.29245 -5.47039 0
M  V30 2746 H 264.254 -1.40533 -1.59261 0
M  V30 2747 H 266.517 -0.578992 -0.750648 0
M  V30 2748 H 266.223 -1.64901 -3.10645 0
M  V30 2749 H 266.097 -0.0302097 -3.77188 0
M  V30 2750 H 268.484 0.467208 -2.91378 0
M  V30 2751 H 268.565 -1.17898 -2.2701 0
M  V30 2752 H 268.209 -2.09422 -4.62715 0
M  V30 2753 H 268.139 -0.426127 -5.24873 0
M  V30 2754 H 270.63 -0.706308 -3.71241 0
M  V30 2755 H 270.943 -2.05392 -7.45006 0
M  V30 2756 H 269.288 -1.84044 -6.70189 0
M  V30 2757 H 272.479 -0.957522 -4.58202 0
M  V30 2758 H 272.652 -1.57182 -6.28648 0
M  V30 2759 N 266.058 1.56714 -0.166846 0
M  V30 2760 C 267.286 2.0112 0.485644 0
M  V30 2761 C 267.701 1.04705 1.57106 0
M  V30 2762 O 267.058 0.0471923 1.82439 0
M  V30 2763 C 267.109 3.45361 1.06808 0
M  V30 2764 O 266.83 4.38092 0.0259995 0
M  V30 2765 C 268.331 4.05145 1.79924 0
M  V30 2766 H 265.551 0.65931 0.124704 0
M  V30 2767 H 268.095 2.02746 -0.267262 0
M  V30 2768 H 266.25 3.44524 1.7715 0
M  V30 2769 H 266.664 5.22519 0.455398 0
M  V30 2770 H 268.138 5.08009 2.15942 0
M  V30 2771 H 268.615 3.46982 2.69258 0
M  V30 2772 H 269.221 4.09672 1.14234 0
M  V30 2773 N 267.536 -0.106894 1.57237 0
M  V30 2774 C 268.782 -0.81373 1.85759 0
M  V30 2775 C 269.115 -1.78952 0.754315 0
M  V30 2776 O 268.39 -1.93029 -0.23879 0
M  V30 2777 C 268.673 -1.55293 3.24894 0
M  V30 2778 C 268.526 -0.595929 4.45835 0
M  V30 2779 C 269.845 -2.5063 3.61763 0
M  V30 2780 H 266.964 -0.294369 0.67566 0
M  V30 2781 H 269.606 -0.0776472 1.89841 0
M  V30 2782 H 267.756 -2.1804 3.21544 0
M  V30 2783 H 269.428 0.0236262 4.61294 0
M  V30 2784 H 267.671 0.0916191 4.33703 0
M  V30 2785 H 268.342 -1.15004 5.39887 0
M  V30 2786 H 270.818 -1.97982 3.65981 0
M  V30 2787 H 269.694 -2.99376 4.60071 0
M  V30 2788 H 269.955 -3.3385 2.89821 0
M  V30 2789 N 269.014 -1.53014 -0.377408 0
M  V30 2790 C 270.43 -1.42523 -0.718281 0
M  V30 2791 C 270.63 -0.55487 -1.9371 0
M  V30 2792 O 269.686 -0.0327593 -2.52479 0
M  V30 2793 C 270.999 -2.85546 -0.942539 0
M  V30 2794 C 272.547 -2.95101 -1.04329 0
M  V30 2795 C 273.022 -4.3916 -1.3001 0
M  V30 2796 N 274.513 -4.42536 -1.36806 0
M  V30 2797 C 275.248 -5.51097 -1.58364 0
M  V30 2798 N 274.744 -6.69724 -1.77317 0
M  V30 2799 N 276.537 -5.38657 -1.60638 0
M  V30 2800 H 268.688 -2.08116 0.424426 0
M  V30 2801 H 270.951 -0.939352 0.127759 0
M  V30 2802 H 270.657 -3.51499 -0.118929 0
M  V30 2803 H 270.531 -3.28493 -1.85397 0
M  V30 2804 H 272.918 -2.29309 -1.85745 0
M  V30 2805 H 272.999 -2.55566 -0.109505 0
M  V30 2806 H 272.643 -5.05521 -0.490991 0
M  V30 2807 H 272.573 -4.76258 -2.24691 0
M  V30 2808 H 275.064 -3.57039 -1.23821 0
M  V30 2809 H 275.377 -7.48233 -1.93306 0
M  V30 2810 H 273.722 -6.72732 -1.74518 0
M  V30 2811 H 276.913 -4.44948 -1.45391 0
M  V30 2812 H 277.086 -6.2333 -1.77098 0
M  V30 2813 N 270.492 0.636531 -1.44174 0
M  V30 2814 C 271.738 1.39826 -1.4689 0
M  V30 2815 C 272.071 1.93947 -0.0990585 0
M  V30 2816 O 271.346 1.73325 0.882544 0
M  V30 2817 C 271.629 2.56751 -2.5249 0
M  V30 2818 C 271.482 2.08014 -3.98811 0
M  V30 2819 C 272.801 3.58946 -2.54649 0
M  V30 2820 H 269.92 0.507075 -0.53483 0
M  V30 2821 H 272.562 0.720188 -1.75822 0
M  V30 2822 H 270.712 3.14597 -2.2795 0
M  V30 2823 H 272.384 1.5504 -4.34466 0
M  V30 2824 H 270.627 1.39242 -4.10846 0
M  V30 2825 H 271.298 2.92169 -4.68339 0
M  V30 2826 H 273.774 3.1089 -2.76563 0
M  V30 2827 H 272.65 4.38286 -3.3045 0
M  V30 2828 H 272.911 4.12655 -1.58646 0
M  V30 2829 N 271.97 1.30982 0.876444 0
M  V30 2830 C 272.9 1.20668 1.99903 0
M  V30 2831 C 273.881 0.095354 1.69833 0
M  V30 2832 O 275.066 0.27885 1.92188 0
M  V30 2833 C 272.196 0.90655 3.3526 0
M  V30 2834 C 271.15 1.97675 3.79617 0
M  V30 2835 C 270.476 1.52943 5.1236 0
M  V30 2836 C 271.776 3.389 3.97422 0
M  V30 2837 H 273.47 2.14586 2.0879 0
M  V30 2838 H 271.016 1.03308 1.00317 0
M  V30 2839 H 272.969 0.821025 4.13324 0
M  V30 2840 H 271.693 -0.0682969 3.26529 0
M  V30 2841 H 270.352 2.05205 3.03787 0
M  V30 2842 H 270 0.54262 5.00065 0
M  V30 2843 H 269.7 2.24532 5.43009 0
M  V30 2844 H 271.224 1.45786 5.92941 0
M  V30 2845 H 272.638 3.34081 4.659 0
M  V30 2846 H 271.035 4.0865 4.3946 0
M  V30 2847 H 272.105 3.80163 3.01006 0
M  V30 2848 N 273.449 -1.08991 1.13837 0
M  V30 2849 C 274.865 -1.33312 0.877506 0
M  V30 2850 C 275.065 -1.95587 -0.48456 0
M  V30 2851 O 274.121 -2.20509 -1.23013 0
M  V30 2852 C 275.434 -2.24045 2.0056 0
M  V30 2853 C 276.982 -2.37542 2.03821 0
M  V30 2854 C 277.457 -3.31614 3.15905 0
M  V30 2855 N 278.948 -3.39189 3.15445 0
M  V30 2856 C 279.683 -4.11992 3.98811 0
M  V30 2857 N 279.179 -4.87553 4.92203 0
M  V30 2858 N 280.972 -4.07762 3.86894 0
M  V30 2859 H 273.123 -0.669456 2.01574 0
M  V30 2860 H 275.386 -0.357482 0.878015 0
M  V30 2861 H 275.092 -1.85521 2.98789 0
M  V30 2862 H 274.966 -3.24466 1.92359 0
M  V30 2863 H 277.353 -2.75327 1.06202 0
M  V30 2864 H 277.434 -1.36884 2.16093 0
M  V30 2865 H 277.078 -2.94551 4.13766 0
M  V30 2866 H 277.008 -4.32186 3.0087 0
M  V30 2867 H 279.499 -2.85314 2.47799 0
M  V30 2868 H 279.812 -5.40549 5.52292 0
M  V30 2869 H 278.157 -4.86627 4.96205 0
M  V30 2870 H 281.348 -3.47833 3.13257 0
M  V30 2871 H 281.521 -4.64238 4.52092 0
M  V30 2872 N 274.927 -0.932562 -1.27047 0
M  V30 2873 C 276.338 -0.619451 -1.76124 0
M  V30 2874 C 276.689 0.865397 -1.76083 0
M  V30 2875 O 275.814 1.67722 -1.36742 0
M  V30 2876 C 276.409 -1.11771 -3.19832 0
M  V30 2877 C 274.968 -0.855174 -3.66557 0
M  V30 2878 C 274.115 -1.27362 -2.46321 0
M  V30 2879 H 277.066 -1.11181 -1.13245 0
M  V30 2880 H 277.087 -0.46759 -3.77616 0
M  V30 2881 H 276.599 -2.19842 -3.1983 0
M  V30 2882 H 274.7 0.211524 -3.71999 0
M  V30 2883 H 274.813 -1.47613 -4.55793 0
M  V30 2884 H 273.177 -0.692119 -2.45116 0
M  V30 2885 H 273.96 -2.36307 -2.49025 0
M  V30 2886 N 276.405 1.4127 -0.698611 0
M  V30 2887 C 277.335 2.33447 -0.049629 0
M  V30 2888 C 278.316 1.51982 0.763898 0
M  V30 2889 O 279.501 1.80509 0.716257 0
M  V30 2890 C 276.631 3.35828 0.885267 0
M  V30 2891 C 275.585 4.27627 0.178613 0
M  V30 2892 C 274.911 5.20406 1.22807 0
M  V30 2893 C 276.211 5.13459 -0.956933 0
M  V30 2894 H 277.905 2.87966 -0.81951 0
M  V30 2895 H 275.451 1.38461 -0.395538 0
M  V30 2896 H 277.404 3.9924 1.34854 0
M  V30 2897 H 276.128 2.79666 1.68685 0
M  V30 2898 H 274.787 3.65643 -0.26466 0
M  V30 2899 H 274.435 4.60558 2.02226 0
M  V30 2900 H 274.135 5.82661 0.760239 0
M  V30 2901 H 275.659 5.86695 1.69179 0
M  V30 2902 H 277.073 5.70421 -0.573805 0
M  V30 2903 H 275.47 5.8467 -1.35205 0
M  V30 2904 H 276.54 4.50443 -1.79524 0
M  V30 2905 N 277.883 0.443576 1.51229 0
M  V30 2906 C 279.299 0.0962001 1.5931 0
M  V30 2907 C 279.499 -1.39501 1.45402 0
M  V30 2908 O 278.555 -2.16557 1.29843 0
M  V30 2909 C 279.868 0.621875 2.94199 0
M  V30 2910 C 281.416 0.582865 3.07525 0
M  V30 2911 C 281.891 1.08562 4.44948 0
M  V30 2912 N 283.382 1.04387 4.51284 0
M  V30 2913 C 284.117 1.40368 5.55954 0
M  V30 2914 N 283.613 1.83664 6.68011 0
M  V30 2915 N 285.406 1.32145 5.46346 0
M  V30 2916 H 277.557 1.41376 1.58514 0
M  V30 2917 H 279.82 0.582965 0.747567 0
M  V30 2918 H 279.526 1.66546 3.09767 0
M  V30 2919 H 279.4 0.0502125 3.77167 0
M  V30 2920 H 281.787 -0.451749 2.91622 0
M  V30 2921 H 281.868 1.191 2.26382 0
M  V30 2922 H 281.512 2.11873 4.61598 0
M  V30 2923 H 281.442 0.453956 5.2464 0
M  V30 2924 H 283.933 0.725986 3.70861 0
M  V30 2925 H 284.246 2.0934 7.43906 0
M  V30 2926 H 282.591 1.87596 6.69203 0
M  V30 2927 H 285.782 0.981808 4.57688 0
M  V30 2928 H 285.955 1.60514 6.27805 0
M  V30 2929 N 279.361 -1.56624 0.175154 0
M  V30 2930 C 280.324 -2.16934 -0.739738 0
M  V30 2931 C 281.324 -1.11842 -1.15533 0
M  V30 2932 O 282.514 -1.37335 -1.07167 0
M  V30 2933 C 279.646 -2.75531 -2.00738 0
M  V30 2934 H 280.839 -2.99131 -0.214639 0
M  V30 2935 H 278.392 -1.56123 -0.0744197 0
M  V30 2936 H 279.127 -1.97078 -2.57548 0
M  V30 2937 H 278.912 -3.52444 -1.71831 0
M  V30 2938 H 280.402 -3.21904 -2.66021 0
M  V30 2939 N 280.839 0.0985539 -1.57292 0
M  V30 2940 C 282.088 0.801358 -1.85098 0
M  V30 2941 C 282.401 1.80066 -0.763902 0
M  V30 2942 O 283.607 2.55112 -0.928981 0
M  V30 2943 C 282.063 1.47599 -3.28242 0
M  V30 2944 C 281.671 0.516624 -4.45011 0
M  V30 2945 C 283.415 2.16272 -3.65276 0
M  V30 2946 C 281.322 1.19564 -5.79188 0
M  V30 2947 H 280.252 0.303022 -0.69043 0
M  V30 2948 H 282.903 0.0542623 -1.8342 0
M  V30 2949 H 281.285 2.27042 -3.2445 0
M  V30 2950 H 282.459 -0.246065 -4.60143 0
M  V30 2951 H 280.774 -0.064227 -4.1635 0
M  V30 2952 H 283.371 2.67802 -4.62803 0
M  V30 2953 H 283.714 2.95009 -2.93727 0
M  V30 2954 H 284.247 1.43693 -3.70941 0
M  V30 2955 H 280.986 0.449157 -6.53959 0
M  V30 2956 H 280.506 1.92984 -5.67906 0
M  V30 2957 H 282.185 1.7231 -6.23633 0
M  V30 2958 N 282.317 1.53212 0.369288 0
M  V30 2959 C 283.265 1.80054 1.47253 0
M  V30 2960 C 284.259 0.669456 1.55611 0
M  V30 2961 O 285.465 0.852328 1.58541 0
M  V30 2962 H 281.84 0.570034 0.490475 0
M  V30 2963 H 283.811 2.72403 1.21817 0
M  V30 2964 C 282.56 2.00403 2.84137 0
M  V30 2965 H 281.883 2.86876 2.78464 0
M  V30 2966 H 283.323 2.23164 3.60519 0
M  V30 2967 C 281.782 0.782081 3.27697 0
M  V30 2968 O 282.312 -0.0310205 4.01688 0
M  V30 2969 N 280.518 0.606573 2.84199 0
M  V30 2970 H 280.065 1.26939 2.24152 0
M  V30 2971 H 280.023 -0.20962 3.137 0
M  V30 2972 N 283.795 -0.628877 1.44509 0
M  V30 2973 C 285.211 -0.947305 1.28446 0
M  V30 2974 C 285.411 -2.00275 0.221872 0
M  V30 2975 O 284.467 -2.49447 -0.391471 0
M  V30 2976 C 285.78 -1.40843 2.65676 0
M  V30 2977 C 287.328 -1.52379 2.73404 0
M  V30 2978 C 287.803 -2.01875 4.11109 0
M  V30 2979 N 289.294 -2.09142 4.13296 0
M  V30 2980 C 290.029 -2.48615 5.16699 0
M  V30 2981 N 289.525 -2.87209 6.30462 0
M  V30 2982 N 291.318 -2.48768 5.04054 0
M  V30 2983 H 283.469 0.0690977 2.12288 0
M  V30 2984 H 285.732 -0.0317164 0.947469 0
M  V30 2985 H 285.438 -0.707206 3.44516 0
M  V30 2986 H 285.312 -2.37902 2.92716 0
M  V30 2987 H 287.699 -2.21598 1.9488 0
M  V30 2988 H 287.78 -0.536898 2.50102 0
M  V30 2989 H 287.424 -1.3325 4.90109 0
M  V30 2990 H 287.354 -3.0144 4.31789 0
M  V30 2991 H 289.845 -1.81991 3.31191 0
M  V30 2992 H 290.158 -3.16149 7.05174 0
M  V30 2993 H 288.503 -2.84955 6.33897 0
M  V30 2994 H 291.694 -2.18009 4.14234 0
M  V30 2995 H 291.867 -2.79207 5.84763 0
M  V30 2996 N 285.273 -1.31445 -0.869486 0
M  V30 2997 C 286.519 -1.21337 -1.62496 0
M  V30 2998 C 286.852 0.227872 -1.92858 0
M  V30 2999 O 286.127 1.16094 -1.56053 0
M  V30 3000 C 286.41 -2.05814 -2.95487 0
M  V30 3001 C 286.263 -3.5824 -2.72 0
M  V30 3002 C 287.582 -1.9079 -3.96594 0
M  V30 3003 H 284.701 -0.442135 -0.589649 0
M  V30 3004 H 287.343 -1.6124 -1.00507 0
M  V30 3005 H 285.493 -1.71913 -3.48394 0
M  V30 3006 H 287.165 -4.0228 -2.25762 0
M  V30 3007 H 285.408 -3.81647 -2.06224 0
M  V30 3008 H 286.079 -4.12657 -3.66631 0
M  V30 3009 H 288.555 -2.20459 -3.52898 0
M  V30 3010 H 287.431 -2.52199 -4.87531 0
M  V30 3011 H 287.692 -0.871341 -4.33428 0
M  V30 3012 N 286.751 1.08385 -1.14413 0
M  V30 3013 C 288.162 1.62258 -0.923535 0
M  V30 3014 C 288.513 1.88691 0.537595 0
M  V30 3015 O 287.638 1.64454 1.40655 0
M  V30 3016 C 288.233 2.94781 -1.67002 0
M  V30 3017 C 286.792 3.45437 -1.495 0
M  V30 3018 C 285.939 2.19668 -1.69238 0
M  V30 3019 H 288.89 0.916086 -1.2959 0
M  V30 3020 H 288.911 3.63229 -1.13334 0
M  V30 3021 H 288.423 2.7551 -2.73342 0
M  V30 3022 H 286.524 3.6981 -0.455097 0
M  V30 3023 H 286.637 4.22173 -2.2651 0
M  V30 3024 H 285.001 2.28849 -1.11804 0
M  V30 3025 H 285.784 2.02905 -2.7692 0
M  V30 3026 N 288.23 0.939286 1.26551 0
M  V30 3027 C 289.455 0.602008 1.98471 0
M  V30 3028 C 289.88 -0.815624 1.69497 0
M  V30 3029 O 289.238 -1.54912 0.941905 0
M  V30 3030 C 289.286 0.848407 3.50477 0
M  V30 3031 O 288.39 -0.0804009 4.12322 0
M  V30 3032 H 287.731 0.23049 0.622712 0
M  V30 3033 H 290.261 1.2617 1.61066 0
M  V30 3034 H 290.271 0.768553 4.00696 0
M  V30 3035 H 288.946 1.88171 3.70897 0
M  V30 3036 H 287.523 0.0503508 3.72866 0
M  V30 3037 N 289.708 -1.40897 0.706093 0
M  V30 3038 C 290.641 -2.282 -0.00328781 0
M  V30 3039 C 291.619 -1.42816 -0.77732 0
M  V30 3040 O 292.803 -1.72237 -0.765944 0
M  V30 3041 C 289.93 -3.23226 -1.01205 0
M  V30 3042 C 288.976 -4.25222 -0.329955 0
M  V30 3043 S 289.809 -5.27269 0.935298 0
M  V30 3044 C 290.965 -6.25859 -0.0716061 0
M  V30 3045 H 291.198 -2.88016 0.737143 0
M  V30 3046 H 288.731 -1.46191 0.496756 0
M  V30 3047 H 290.689 -3.78503 -1.58888 0
M  V30 3048 H 289.35 -2.62485 -1.72513 0
M  V30 3049 H 288.543 -4.92023 -1.09221 0
M  V30 3050 H 288.145 -3.73595 0.174069 0
M  V30 3051 H 290.437 -6.71204 -0.921521 0
M  V30 3052 H 291.38 -7.0586 0.562765 0
M  V30 3053 H 291.788 -5.62852 -0.431088 0
M  V30 3054 N 291.186 -0.45159 -1.50991 0
M  V30 3055 C 292.602 -0.104647 -1.59257 0
M  V30 3056 C 292.802 1.38728 -1.4614 0
M  V30 3057 O 291.858 2.15866 -1.30989 0
M  V30 3058 C 293.171 -0.637468 -2.93865 0
M  V30 3059 C 294.719 -0.599166 -3.07212 0
M  V30 3060 C 295.194 -1.1092 -4.44366 0
M  V30 3061 N 296.685 -1.06778 -4.50725 0
M  V30 3062 C 297.42 -1.43314 -5.55201 0
M  V30 3063 N 296.916 -1.87204 -6.67028 0
M  V30 3064 N 298.709 -1.3504 -5.45638 0
M  V30 3065 H 290.86 -1.42214 -1.57762 0
M  V30 3066 H 293.123 -0.586921 -0.744465 0
M  V30 3067 H 292.829 -1.68187 -3.08879 0
M  V30 3068 H 292.703 -0.0702139 -3.77135 0
M  V30 3069 H 295.09 0.436277 -2.91857 0
M  V30 3070 H 295.171 -1.20299 -2.25747 0
M  V30 3071 H 294.815 -2.14318 -4.60467 0
M  V30 3072 H 294.745 -0.481773 -5.24392 0
M  V30 3073 H 297.236 -0.745643 -3.70471 0
M  V30 3074 H 297.549 -2.13282 -7.42786 0
M  V30 3075 H 295.894 -1.91142 -6.68199 0
M  V30 3076 H 299.085 -1.00607 -4.57161 0
M  V30 3077 H 299.258 -1.63841 -6.26945 0
M  V30 3078 N 292.664 1.56529 -0.183458 0
M  V30 3079 C 293.913 1.96419 0.458511 0
M  V30 3080 C 294.226 1.0727 1.63562 0
M  V30 3081 O 295.432 1.36893 2.34462 0
M  V30 3082 C 293.888 3.49298 0.867122 0
M  V30 3083 C 293.496 4.47092 -0.285057 0
M  V30 3084 C 295.24 3.97983 1.47683 0
M  V30 3085 C 293.147 5.91225 0.143862 0
M  V30 3086 H 292.077 0.733394 0.175071 0
M  V30 3087 H 294.728 1.81448 -0.273624 0
M  V30 3088 H 293.11 3.59731 1.65559 0
M  V30 3089 H 294.284 4.48383 -1.0625 0
M  V30 3090 H 292.599 4.08535 -0.805503 0
M  V30 3091 H 295.196 5.03134 1.80999 0
M  V30 3092 H 295.539 3.41618 2.37914 0
M  V30 3093 H 296.072 3.90617 0.752562 0
M  V30 3094 H 292.811 6.5149 -0.723974 0
M  V30 3095 H 292.331 5.93214 0.886413 0
M  V30 3096 H 294.01 6.44362 0.583628 0
M  V30 3097 N 294.142 -0.090211 1.57342 0
M  V30 3098 C 295.072 -1.10976 2.05443 0
M  V30 3099 C 296.053 -1.41482 0.944284 0
M  V30 3100 O 297.238 -1.51428 1.21586 0
M  V30 3101 C 294.368 -2.42831 2.48295 0
M  V30 3102 C 293.322 -2.26721 3.63018 0
M  V30 3103 C 292.648 -3.63796 3.91863 0
M  V30 3104 C 293.948 -1.7037 4.93732 0
M  V30 3105 H 295.642 -0.709564 2.9087 0
M  V30 3106 H 293.188 -0.339874 1.39932 0
M  V30 3107 H 295.141 -3.14431 2.80555 0
M  V30 3108 H 293.865 -2.84795 1.59873 0
M  V30 3109 H 292.524 -1.57565 3.31012 0
M  V30 3110 H 292.172 -4.03297 3.00601 0
M  V30 3111 H 291.872 -3.53861 4.69101 0
M  V30 3112 H 293.396 -4.36855 4.26603 0
M  V30 3113 H 294.81 -2.31816 5.24342 0
M  V30 3114 H 293.207 -1.71181 5.75167 0
M  V30 3115 H 294.277 -0.663542 4.80339 0
M  V30 3116 N 295.62 -1.53406 -0.361157 0
M  V30 3117 C 296.866 -1.70054 -1.10496 0
M  V30 3118 C 297.199 -0.453278 -1.88836 0
M  V30 3119 O 296.474 0.5495 -1.86576 0
M  V30 3120 C 296.757 -2.95317 -2.06058 0
M  V30 3121 C 296.61 -4.3021 -1.31298 0
M  V30 3122 C 297.929 -3.16193 -3.06121 0
M  V30 3123 H 295.048 -0.618799 -0.400321 0
M  V30 3124 H 297.69 -1.86052 -0.385318 0
M  V30 3125 H 295.84 -2.81809 -2.67425 0
M  V30 3126 H 297.512 -4.55538 -0.726807 0
M  V30 3127 H 295.755 -4.29421 -0.614853 0
M  V30 3128 H 296.426 -5.14 -2.01265 0
M  V30 3129 H 298.902 -3.28916 -2.5486 0
M  V30 3130 H 297.778 -4.05266 -3.70204 0
M  V30 3131 H 298.039 -2.31676 -3.76535 0
M  V30 3132 N 297.098 0.621204 -1.44841 0
M  V30 3133 C 298.326 1.40752 -1.51646 0
M  V30 3134 C 298.741 1.88246 -0.144549 0
M  V30 3135 O 298.098 1.61422 0.851416 0
M  V30 3136 C 298.149 2.62119 -2.4895 0
M  V30 3137 O 297.87 2.16602 -3.80808 0
M  V30 3138 C 299.371 3.55135 -2.65319 0
M  V30 3139 H 296.591 0.431325 -0.514004 0
M  V30 3140 H 299.135 0.758835 -1.899 0
M  V30 3141 H 297.29 3.23058 -2.13805 0
M  V30 3142 H 297.704 2.95358 -4.33433 0
M  V30 3143 H 299.178 4.36874 -3.37409 0
M  V30 3144 H 299.655 4.04592 -1.70886 0
M  V30 3145 H 300.261 3.00058 -3.01405 0
M  V30 3146 N 298.576 1.31904 0.862503 0
M  V30 3147 C 299.506 1.22782 1.98612 0
M  V30 3148 C 300.487 0.113362 1.69722 0
M  V30 3149 O 301.672 0.299218 1.91881 0
M  V30 3150 C 298.802 0.942058 3.34279 0
M  V30 3151 C 297.756 2.0169 3.77499 0
M  V30 3152 C 297.082 1.58369 5.10709 0
M  V30 3153 C 298.382 3.43096 3.93805 0
M  V30 3154 H 300.076 2.16788 2.06502 0
M  V30 3155 H 297.622 1.04366 0.992154 0
M  V30 3156 H 299.575 0.864818 4.1243 0
M  V30 3157 H 298.299 -0.0336603 3.26583 0
M  V30 3158 H 296.958 2.08416 3.01593 0
M  V30 3159 H 296.606 0.595628 4.99461 0
M  V30 3160 H 296.306 2.30279 5.40597 0
M  V30 3161 H 297.83 1.52067 5.91361 0
M  V30 3162 H 299.244 3.39003 4.62331 0
M  V30 3163 H 297.641 4.13288 4.35101 0
M  V30 3164 H 298.711 3.83334 2.96957 0
M  V30 3165 N 300.054 -1.07777 1.14986 0
M  V30 3166 C 300.984 -2.16865 0.865557 0
M  V30 3167 C 301.965 -1.69123 -0.182083 0
M  V30 3168 O 303.15 -1.94164 -0.0373815 0
M  V30 3169 C 300.28 -3.45539 0.349313 0
M  V30 3170 C 299.234 -4.06708 1.33313 0
M  V30 3171 C 298.56 -5.30411 0.675918 0
M  V30 3172 C 299.86 -4.47241 2.69764 0
M  V30 3173 H 301.554 -2.40905 1.77778 0
M  V30 3174 H 299.1 -1.15781 0.856203 0
M  V30 3175 H 301.053 -4.21174 0.137983 0
M  V30 3176 H 299.777 -3.21072 -0.598362 0
M  V30 3177 H 298.436 -3.33112 1.53075 0
M  V30 3178 H 298.084 -5.02232 -0.277767 0
M  V30 3179 H 297.784 -5.72293 1.33244 0
M  V30 3180 H 299.308 -6.08755 0.474262 0
M  V30 3181 H 300.722 -5.14025 2.53873 0
M  V30 3182 H 299.119 -5.00062 3.3175 0
M  V30 3183 H 300.189 -3.58818 3.26156 0
M  V30 3184 N 301.532 -0.945985 -1.26051 0
M  V30 3185 C 302.462 -0.477172 -2.28572 0
M  V30 3186 C 303.443 0.472032 -1.63419 0
M  V30 3187 O 304.628 0.372853 -1.90587 0
M  V30 3188 C 301.758 0.253975 -3.4637 0
M  V30 3189 C 300.712 -0.609135 -4.23643 0
M  V30 3190 C 300.038 0.252252 -5.34105 0
M  V30 3191 C 301.338 -1.8829 -4.8718 0
M  V30 3192 H 303.032 -1.33402 -2.68038 0
M  V30 3193 H 300.578 -0.642904 -1.28852 0
M  V30 3194 H 302.531 0.593016 -4.17207 0
M  V30 3195 H 301.255 1.145 -3.05871 0
M  V30 3196 H 299.914 -0.931138 -3.54578 0
M  V30 3197 H 299.562 1.14278 -4.89846 0
M  V30 3198 H 299.262 -0.32188 -5.86718 0
M  V30 3199 H 300.786 0.586454 -6.07777 0
M  V30 3200 H 302.2 -1.61081 -5.50205 0
M  V30 3201 H 300.597 -2.40199 -5.49931 0
M  V30 3202 H 301.667 -2.59134 -4.09851 0
M  V30 3203 N 303.011 1.40521 -0.713556 0
M  V30 3204 C 304.288 1.94775 -0.17943 0
M  V30 3205 C 304.668 1.65184 1.31444 0
M  V30 3206 O 304.016 0.968429 2.06963 0
M  V30 3207 C 304.226 3.45543 -0.489986 0
M  V30 3208 C 305.574 4.22442 -0.427536 0
M  V30 3209 O 306.598 3.53644 -0.425929 0
M  V30 3210 O 305.457 5.4501 -0.403292 0
M  V30 3211 H 302.551 0.826606 -0.0255192 0
M  V30 3212 H 305.097 1.5014 -0.790949 0
M  V30 3213 H 303.869 3.60432 -1.5233 0
M  V30 3214 H 303.492 3.97311 0.151598 0
M  V30 3215 N 304.489 0.459591 1.5075 0
M  V30 3216 C 305.717 -0.0973749 2.06671 0
M  V30 3217 C 306.132 -1.34524 1.32472 0
M  V30 3218 O 305.489 -1.7827 0.390634 0
M  V30 3219 C 305.54 -0.39714 3.59312 0
M  V30 3220 O 305.261 0.801214 4.30711 0
M  V30 3221 C 306.762 -1.00234 4.31819 0
M  V30 3222 H 303.982 0.00195854 0.670997 0
M  V30 3223 H 306.526 0.645072 1.94059 0
M  V30 3224 H 304.681 -1.08951 3.71764 0
M  V30 3225 H 305.095 0.538857 5.21725 0
M  V30 3226 H 306.569 -1.16193 5.39632 0
M  V30 3227 H 307.046 -1.98939 3.91561 0
M  V30 3228 H 307.652 -0.348699 4.23868 0
M  V30 3229 N 305.967 -1.56429 0.191757 0
M  V30 3230 C 306.897 -2.21937 -0.725696 0
M  V30 3231 C 307.878 -1.1814 -1.2238 0
M  V30 3232 O 309.063 -1.46636 -1.27325 0
M  V30 3233 C 306.193 -2.87611 -1.94672 0
M  V30 3234 C 305.147 -3.97623 -1.58366 0
M  V30 3235 C 304.473 -4.50446 -2.88102 0
M  V30 3236 C 305.773 -5.16197 -0.796133 0
M  V30 3237 H 307.467 -2.98861 -0.179606 0
M  V30 3238 H 305.013 -1.43749 -0.0849464 0
M  V30 3239 H 306.966 -3.3212 -2.59373 0
M  V30 3240 H 305.69 -2.08087 -2.51728 0
M  V30 3241 H 304.349 -3.53801 -0.960247 0
M  V30 3242 H 303.997 -3.67688 -3.43241 0
M  V30 3243 H 303.697 -5.24675 -2.64556 0
M  V30 3244 H 305.221 -4.97654 -3.53798 0
M  V30 3245 H 306.635 -5.57271 -1.34618 0
M  V30 3246 H 305.032 -5.96471 -0.658928 0
M  V30 3247 H 306.102 -4.84473 0.203478 0
M  V30 3248 N 307.445 0.0818655 -1.57387 0
M  V30 3249 C 308.856 0.634871 -1.75574 0
M  V30 3250 C 309.207 1.78435 -0.815809 0
M  V30 3251 O 308.332 2.164 0.0025366 0
M  V30 3252 C 308.927 1.15845 -3.18379 0
M  V30 3253 C 307.486 1.65741 -3.37945 0
M  V30 3254 C 306.633 0.572549 -2.71325 0
M  V30 3255 H 309.584 -0.144268 -1.58043 0
M  V30 3256 H 309.605 2.02751 -3.21982 0
M  V30 3257 H 309.117 0.321631 -3.86765 0
M  V30 3258 H 307.218 2.51781 -2.74658 0
M  V30 3259 H 307.331 1.74129 -4.46336 0
M  V30 3260 H 305.695 1.01518 -2.33594 0
M  V30 3261 H 306.478 -0.253918 -3.4236 0
M  V30 3262 N 308.923 1.53595 0.353017 0
M  V30 3263 C 309.856 1.7572 1.45594 0
M  V30 3264 C 310.834 0.605961 1.50887 0
M  V30 3265 O 312.018 0.840023 1.68748 0
M  V30 3266 C 309.145 1.84732 2.83887 0
M  V30 3267 C 308.191 3.06808 2.96262 0
M  V30 3268 S 309.024 4.66065 2.63711 0
M  V30 3269 C 310.18 4.77943 4.04131 0
M  V30 3270 H 310.413 2.68994 1.26608 0
M  V30 3271 H 307.946 1.44343 0.548117 0
M  V30 3272 H 309.904 1.9061 3.63563 0
M  V30 3273 H 308.565 0.92488 3.00175 0
M  V30 3274 H 307.758 3.09761 3.97573 0
M  V30 3275 H 307.36 2.99108 2.24523 0
M  V30 3276 H 309.652 4.5877 4.98534 0
M  V30 3277 H 310.595 5.80022 4.06177 0
M  V30 3278 H 311.003 4.06472 3.91715 0
M  V30 3279 N 310.401 -0.613514 1.45168 0
M  V30 3280 C 311.331 -1.7354 1.56225 0
M  V30 3281 C 312.312 -1.64981 0.41414 0
M  V30 3282 O 313.497 -1.83472 0.636526 0
M  V30 3283 C 310.627 -3.12128 1.52295 0
M  V30 3284 C 309.581 -3.35491 2.65762 0
M  V30 3285 C 308.907 -4.74291 2.46885 0
M  V30 3286 C 310.207 -3.26325 4.0781 0
M  V30 3287 H 311.901 -1.64543 2.50132 0
M  V30 3288 H 309.447 -0.790185 1.20383 0
M  V30 3289 H 311.4 -3.90404 1.58628 0
M  V30 3290 H 310.124 -3.2195 0.549139 0
M  V30 3291 H 308.783 -2.59603 2.58847 0
M  V30 3292 H 308.431 -4.80839 1.47657 0
M  V30 3293 H 308.131 -4.9088 3.22972 0
M  V30 3294 H 309.655 -5.54775 2.55063 0
M  V30 3295 H 311.069 -3.94483 4.16 0
M  V30 3296 H 309.466 -3.54445 4.8424 0
M  V30 3297 H 310.536 -2.23855 4.30136 0
M  V30 3298 N 311.879 -1.3236 -0.855495 0
M  V30 3299 C 313.127 -1.22629 -1.60644 0
M  V30 3300 C 313.448 0.212136 -1.93843 0
M  V30 3301 O 312.718 1.13666 -1.59552 0
M  V30 3302 H 311.298 -0.450882 -0.595579 0
M  V30 3303 H 313.96 -1.65871 -1.02337 0
M  V30 3304 H 313.056 -1.80832 -2.54374 0
M  V30 3305 N 313.357 1.07166 -1.15556 0
M  V30 3306 C 314.305 2.16517 -0.8499 0
M  V30 3307 C 315.299 1.68468 0.177454 0
M  V30 3308 O 316.505 1.79971 0.0323026 0
M  V30 3309 H 312.88 0.706652 -0.25719 0
M  V30 3310 H 314.851 2.39514 -1.77976 0
M  V30 3311 C 313.6 3.45855 -0.357682 0
M  V30 3312 H 312.923 3.83214 -1.13961 0
M  V30 3313 H 314.363 4.23607 -0.182489 0
M  V30 3314 C 312.822 3.24062 0.921152 0
M  V30 3315 O 313.352 3.48813 1.9923 0
M  V30 3316 N 311.558 2.77539 0.86141 0
M  V30 3317 H 311.105 2.57598 -0.0104408 0
M  V30 3318 H 311.063 2.63337 1.71758 0
M  V30 3319 N 314.835 0.952656 1.25548 0
M  V30 3320 C 316.081 0.607272 1.93494 0
M  V30 3321 C 316.414 -0.853245 1.74452 0
M  V30 3322 O 315.689 -1.61194 1.08843 0
M  V30 3323 C 315.972 0.96435 3.46947 0
M  V30 3324 C 315.825 2.48045 3.75225 0
M  V30 3325 C 317.144 0.487987 4.37386 0
M  V30 3326 H 314.263 0.222096 0.702739 0
M  V30 3327 H 316.905 1.18895 1.48203 0
M  V30 3328 H 315.055 0.469361 3.85654 0
M  V30 3329 H 316.727 3.04905 3.46166 0
M  V30 3330 H 314.97 2.919 3.209 0
M  V30 3331 H 315.641 2.6808 4.82532 0
M  V30 3332 H 318.117 0.912558 4.0597 0
M  V30 3333 H 316.993 0.766547 5.43521 0
M  V30 3334 H 317.254 -0.612063 4.37843 0
M  V30 3335 N 316.313 -1.40141 0.720998 0
M  V30 3336 C 317.243 -2.33339 0.0867621 0
M  V30 3337 C 318.224 -1.53178 -0.739622 0
M  V30 3338 O 319.409 -1.81625 -0.687449 0
M  V30 3339 C 316.539 -3.37194 -0.831728 0
M  V30 3340 C 315.493 -4.27857 -0.110558 0
M  V30 3341 C 314.819 -5.22294 -1.14513 0
M  V30 3342 C 316.119 -5.11872 1.0385 0
M  V30 3343 H 317.813 -2.86626 0.865219 0
M  V30 3344 H 315.359 -1.37814 0.417516 0
M  V30 3345 H 317.312 -4.01335 -1.28485 0
M  V30 3346 H 316.036 -2.82314 -1.64214 0
M  V30 3347 H 314.695 -3.65176 0.322797 0
M  V30 3348 H 314.343 -4.63717 -1.94874 0
M  V30 3349 H 314.043 -5.83797 -0.667446 0
M  V30 3350 H 315.567 -5.89312 -1.59824 0
M  V30 3351 H 316.981 -5.69436 0.664482 0
M  V30 3352 H 315.378 -5.82445 1.4449 0
M  V30 3353 H 316.448 -4.4753 1.86668 0
M  V30 3354 N 317.792 -0.46758 -1.50504 0
M  V30 3355 C 318.722 0.318381 -2.31319 0
M  V30 3356 C 319.703 0.993564 -1.38066 0
M  V30 3357 O 320.888 0.991411 -1.66987 0
M  V30 3358 C 318.018 1.40275 -3.17711 0
M  V30 3359 C 316.972 0.849373 -4.19487 0
M  V30 3360 C 316.298 2.03177 -4.94594 0
M  V30 3361 C 317.598 -0.136942 -5.2212 0
M  V30 3362 H 319.292 -0.356106 -2.97275 0
M  V30 3363 H 316.838 -0.172703 -1.42961 0
M  V30 3364 H 318.791 1.96004 -3.73042 0
M  V30 3365 H 317.515 2.10596 -2.49634 0
M  V30 3366 H 316.174 0.314076 -3.65252 0
M  V30 3367 H 315.822 2.72187 -4.22993 0
M  V30 3368 H 315.522 1.66774 -5.63436 0
M  V30 3369 H 317.046 2.59403 -5.52759 0
M  V30 3370 H 318.46 0.331056 -5.72343 0
M  V30 3371 H 316.857 -0.41507 -5.98663 0
M  V30 3372 H 317.927 -1.06398 -4.73083 0
M  V30 3373 N 319.27 1.56325 -0.20005 0
M  V30 3374 C 320.2 2.22318 0.713916 0
M  V30 3375 C 321.181 1.18788 1.21752 0
M  V30 3376 O 322.366 1.47309 1.26545 0
M  V30 3377 C 319.496 2.88639 1.93144 0
M  V30 3378 C 318.45 3.98457 1.56255 0
M  V30 3379 C 317.776 4.51967 2.85709 0
M  V30 3380 C 319.076 5.16612 0.768747 0
M  V30 3381 H 320.77 2.98952 0.163755 0
M  V30 3382 H 318.316 1.43792 0.0773219 0
M  V30 3383 H 320.269 3.33491 2.57608 0
M  V30 3384 H 318.993 2.09419 2.50621 0
M  V30 3385 H 317.652 3.54305 0.941471 0
M  V30 3386 H 317.3 3.69503 3.41287 0
M  V30 3387 H 317 5.26071 2.6177 0
M  V30 3388 H 318.524 4.99523 3.51154 0
M  V30 3389 H 319.938 5.57977 1.3166 0
M  V30 3390 H 318.335 5.96812 0.627286 0
M  V30 3391 H 319.405 4.84358 -0.229168 0
M  V30 3392 N 320.748 -0.0735177 1.57428 0
M  V30 3393 C 321.988 -0.778363 1.89 0
M  V30 3394 C 322.352 -1.7483 0.793634 0
M  V30 3395 O 323.553 -2.49811 0.992367 0
M  V30 3396 C 321.824 -1.46929 3.25802 0
M  V30 3397 S 323.383 -2.20943 3.79117 0
M  V30 3398 H 320.201 -0.258874 0.662197 0
M  V30 3399 H 322.803 -0.0345338 1.95469 0
M  V30 3400 H 321.507 -0.749532 4.03497 0
M  V30 3401 H 321.038 -2.25258 3.22525 0
M  V30 3402 H 323.053 -3.47435 3.54265 0
M  V30 3403 N 322.226 -1.5378 -0.344866 0
M  V30 3404 C 323.473 -1.70963 -1.08526 0
M  V30 3405 C 323.801 -0.472126 -1.88683 0
M  V30 3406 O 323.056 0.546116 -1.87926 0
M  V30 3407 C 323.355 -2.92407 -2.05506 0
M  V30 3408 C 323.021 -4.28066 -1.41671 0
M  V30 3409 C 321.683 -4.64951 -1.2399 0
M  V30 3410 C 324.035 -5.12344 -0.956726 0
M  V30 3411 C 321.363 -5.83733 -0.589277 0
M  V30 3412 C 323.715 -6.3179 -0.320015 0
M  V30 3413 C 322.379 -6.67372 -0.130881 0
M  V30 3414 H 321.649 -0.625598 -0.397124 0
M  V30 3415 H 324.296 -1.87995 -0.36469 0
M  V30 3416 H 322.601 -2.69973 -2.8394 0
M  V30 3417 H 324.298 -3.02895 -2.62784 0
M  V30 3418 H 320.888 -3.99034 -1.56429 0
M  V30 3419 H 325.072 -4.8438 -1.08118 0
M  V30 3420 H 320.328 -6.09877 -0.431344 0
M  V30 3421 H 324.502 -6.96386 0.0445072 0
M  V30 3422 H 322.129 -7.59273 0.375318 0
M  V30 3423 N 323.704 0.605807 -1.45491 0
M  V30 3424 C 324.951 1.36476 -1.49601 0
M  V30 3425 C 325.279 1.94007 -0.138452 0
M  V30 3426 O 324.534 1.75638 0.863114 0
M  V30 3427 C 324.833 2.53012 -2.52428 0
M  V30 3428 C 324.499 2.13617 -3.97087 0
M  V30 3429 C 323.161 2.02587 -4.36477 0
M  V30 3430 C 325.513 1.82899 -4.88055 0
M  V30 3431 C 322.841 1.59064 -5.64726 0
M  V30 3432 C 325.193 1.40861 -6.16718 0
M  V30 3433 C 323.857 1.28391 -6.55036 0
M  V30 3434 H 323.127 0.499402 -0.547429 0
M  V30 3435 H 325.774 0.684546 -1.78847 0
M  V30 3436 H 324.079 3.26379 -2.16758 0
M  V30 3437 H 325.776 3.1124 -2.52845 0
M  V30 3438 H 322.366 2.23129 -3.65939 0
M  V30 3439 H 326.55 1.90317 -4.58359 0
M  V30 3440 H 321.806 1.48034 -5.93208 0
M  V30 3441 H 325.98 1.16138 -6.86648 0
M  V30 3442 H 323.607 0.944403 -7.54311 0
M  V30 3443 N 325.182 1.32811 0.848464 0
M  V30 3444 C 326.428 1.23907 1.60546 0
M  V30 3445 C 326.761 -0.197161 1.93197 0
M  V30 3446 O 326.036 -1.13596 1.5788 0
M  V30 3447 C 326.319 2.10489 2.92175 0
M  V30 3448 C 326.172 3.62522 2.66266 0
M  V30 3449 C 327.491 1.97075 3.93509 0
M  V30 3450 H 324.61 0.451459 0.58254 0
M  V30 3451 H 327.252 1.62818 0.979296 0
M  V30 3452 H 325.402 1.77434 3.45614 0
M  V30 3453 H 327.074 4.05821 2.19334 0
M  V30 3454 H 325.317 3.84879 2.00126 0
M  V30 3455 H 325.988 4.18437 3.6002 0
M  V30 3456 H 328.464 2.26045 3.49346 0
M  V30 3457 H 327.34 2.59923 4.83457 0
M  V30 3458 H 327.601 0.940186 4.31987 0
M  V30 3459 N 326.66 -1.06551 1.16123 0
M  V30 3460 C 327.907 -1.79302 0.941126 0
M  V30 3461 C 328.235 -1.87105 -0.531235 0
M  V30 3462 O 327.49 -1.35692 -1.41018 0
M  V30 3463 C 327.789 -3.23911 1.51052 0
M  V30 3464 C 327.455 -3.36193 3.00475 0
M  V30 3465 C 326.117 -3.39252 3.41265 0
M  V30 3466 C 328.469 -3.38326 3.96465 0
M  V30 3467 C 325.797 -3.42057 4.76669 0
M  V30 3468 C 328.149 -3.4267 5.31752 0
M  V30 3469 C 326.813 -3.4401 5.72026 0
M  V30 3470 H 326.083 -0.656111 0.344382 0
M  V30 3471 H 328.73 -1.25325 1.44796 0
M  V30 3472 H 327.035 -3.80723 0.925063 0
M  V30 3473 H 328.732 -3.78793 1.31593 0
M  V30 3474 H 325.322 -3.34516 2.6795 0
M  V30 3475 H 329.506 -3.35176 3.6602 0
M  V30 3476 H 324.762 -3.41398 5.07206 0
M  V30 3477 H 328.936 -3.43268 6.05921 0
M  V30 3478 H 326.563 -3.45937 6.76928 0
M  V30 3479 N 328.138 -0.959301 -1.25041 0
M  V30 3480 C 329.385 -0.616611 -1.92884 0
M  V30 3481 C 329.713 0.847036 -1.75087 0
M  V30 3482 O 328.968 1.62374 -1.09239 0
M  V30 3483 C 329.267 -0.927136 -3.45165 0
M  V30 3484 C 328.933 -2.37757 -3.83122 0
M  V30 3485 C 327.595 -2.77402 -3.93194 0
M  V30 3486 C 329.947 -3.31929 -4.01836 0
M  V30 3487 C 327.275 -4.10277 -4.19392 0
M  V30 3488 C 329.627 -4.64423 -4.29528 0
M  V30 3489 C 328.291 -5.03857 -4.37818 0
M  V30 3490 H 327.561 -0.225634 -0.705812 0
M  V30 3491 H 330.208 -1.20921 -1.48493 0
M  V30 3492 H 328.513 -0.252195 -3.90987 0
M  V30 3493 H 330.21 -0.6405 -3.95852 0
M  V30 3494 H 326.8 -2.06013 -3.75841 0
M  V30 3495 H 330.984 -3.02488 -3.93465 0
M  V30 3496 H 326.24 -4.40467 -4.24027 0
M  V30 3497 H 330.414 -5.37369 -4.42953 0
M  V30 3498 H 328.041 -6.06843 -4.57871 0
M  V30 3499 N 329.616 1.39756 -0.72842 0
M  V30 3500 C 330.865 1.99879 -0.270407 0
M  V30 3501 C 331.178 1.58449 1.14688 0
M  V30 3502 O 332.384 2.11362 1.70407 0
M  V30 3503 C 330.84 3.57292 -0.43252 0
M  V30 3504 C 330.448 4.07688 -1.85727 0
M  V30 3505 C 332.192 4.24485 -0.0359507 0
M  V30 3506 C 330.099 5.5765 -1.96928 0
M  V30 3507 H 329.029 0.747689 -0.0973472 0
M  V30 3508 H 331.68 1.59837 -0.901355 0
M  V30 3509 H 330.062 3.95097 0.267219 0
M  V30 3510 H 331.236 3.81231 -2.58843 0
M  V30 3511 H 329.551 3.53135 -2.20646 0
M  V30 3512 H 332.148 5.34609 -0.0987484 0
M  V30 3513 H 332.491 4.03915 1.00787 0
M  V30 3514 H 333.024 3.9183 -0.686604 0
M  V30 3515 H 329.763 5.8309 -2.99476 0
M  V30 3516 H 329.283 5.8593 -1.28241 0
M  V30 3517 H 330.962 6.22957 -1.74737 0
M  V30 3518 N 331.094 0.475555 1.50254 0
M  V30 3519 C 332.341 -0.0778919 2.0235 0
M  V30 3520 C 332.669 -1.39319 1.35722 0
M  V30 3521 O 331.924 -1.89888 0.473395 0
M  V30 3522 C 332.223 -0.305114 3.56095 0
M  V30 3523 C 331.889 0.92903 4.41225 0
M  V30 3524 C 330.551 1.26739 4.6421 0
M  V30 3525 C 332.903 1.75054 4.90923 0
M  V30 3526 C 330.231 2.42724 5.34137 0
M  V30 3527 C 332.583 2.9017 5.62125 0
M  V30 3528 C 331.247 3.24416 5.83362 0
M  V30 3529 H 330.517 -0.0285027 0.740452 0
M  V30 3530 H 333.164 0.630543 1.80821 0
M  V30 3531 H 331.469 -1.09584 3.76163 0
M  V30 3532 H 333.166 -0.747377 3.93974 0
M  V30 3533 H 329.756 0.655428 4.23559 0
M  V30 3534 H 333.94 1.50231 4.73016 0
M  V30 3535 H 329.196 2.69525 5.48786 0
M  V30 3536 H 333.37 3.54169 5.99614 0
M  V30 3537 H 330.997 4.14396 6.37323 0
M  V30 3538 N 332.573 -1.56217 0.208337 0
M  V30 3539 C 333.821 -1.97558 -0.426076 0
M  V30 3540 C 334.142 -1.09683 -1.61229 0
M  V30 3541 O 333.412 -0.170956 -1.95153 0
M  V30 3542 H 331.992 -0.729575 -0.160405 0
M  V30 3543 H 334.654 -1.92606 0.298155 0
M  V30 3544 H 333.75 -3.02672 -0.761312 0
M  V30 3545 N 334.051 0.0651679 -1.57465 0
M  V30 3546 C 335.3 0.761916 -1.86756 0
M  V30 3547 C 335.613 1.78406 -0.801925 0
M  V30 3548 O 336.819 2.53084 -0.982885 0
M  V30 3549 C 335.275 1.40603 -3.31299 0
M  V30 3550 C 334.883 0.422115 -4.46007 0
M  V30 3551 C 336.627 2.08476 -3.69781 0
M  V30 3552 C 334.534 1.07252 -5.81593 0
M  V30 3553 H 333.464 0.288308 -0.696702 0
M  V30 3554 H 336.115 0.015344 -1.83494 0
M  V30 3555 H 334.497 2.20109 -3.29193 0
M  V30 3556 H 335.671 -0.343613 -4.59517 0
M  V30 3557 H 333.986 -0.152527 -4.16121 0
M  V30 3558 H 336.583 2.57925 -4.68379 0
M  V30 3559 H 336.926 2.88712 -2.99919 0
M  V30 3560 H 337.459 1.35792 -3.73905 0
M  V30 3561 H 334.198 0.310342 -6.54765 0
M  V30 3562 H 333.718 1.80895 -5.71872 0
M  V30 3563 H 335.397 1.59043 -6.27148 0
M  V30 3564 N 335.529 1.53961 0.336706 0
M  V30 3565 C 336.775 1.7179 1.07777 0
M  V30 3566 C 337.108 0.483263 1.88091 0
M  V30 3567 O 336.383 -0.519747 1.87427 0
M  V30 3568 C 336.666 2.98558 2.01334 0
M  V30 3569 C 336.519 4.32245 1.24437 0
M  V30 3570 C 337.838 3.21023 3.01052 0
M  V30 3571 H 334.957 0.625089 0.390426 0
M  V30 3572 H 337.599 1.86641 0.35567 0
M  V30 3573 H 335.749 2.86028 2.62908 0
M  V30 3574 H 337.421 4.56637 0.654243 0
M  V30 3575 H 335.664 4.30344 0.546458 0
M  V30 3576 H 336.335 5.17137 1.93063 0
M  V30 3577 H 338.811 3.32929 2.49595 0
M  V30 3578 H 337.687 4.11104 3.6371 0
M  V30 3579 H 337.948 2.37637 3.72802 0
M  V30 3580 N 337.007 -0.598083 1.45811 0
M  V30 3581 C 338.255 -1.35413 1.50026 0
M  V30 3582 C 338.576 -1.94444 0.147177 0
M  V30 3583 O 337.846 -1.77701 -0.824571 0
M  V30 3584 H 336.426 -0.502727 0.552517 0
M  V30 3585 H 339.088 -0.701606 1.81834 0
M  V30 3586 H 338.184 -2.16871 2.2444 0
M  V30 3587 N 338.485 -1.33259 -0.841409 0
M  V30 3588 C 339.731 -1.24757 -1.59886 0
M  V30 3589 C 340.064 0.186913 -1.93298 0
M  V30 3590 O 339.339 1.12757 -1.5848 0
M  V30 3591 C 339.622 -2.12036 -2.91055 0
M  V30 3592 C 339.475 -3.63929 -2.6434 0
M  V30 3593 C 340.794 -1.9916 -3.92458 0
M  V30 3594 H 337.913 -0.454542 -0.580138 0
M  V30 3595 H 340.555 -1.63335 -0.970647 0
M  V30 3596 H 338.705 -1.79265 -3.44669 0
M  V30 3597 H 340.377 -4.06978 -2.17178 0
M  V30 3598 H 338.62 -3.85935 -1.98082 0
M  V30 3599 H 339.291 -4.20341 -3.57796 0
M  V30 3600 H 341.767 -2.27895 -3.48143 0
M  V30 3601 H 340.643 -2.62484 -4.82072 0
M  V30 3602 H 340.904 -0.963082 -4.31482 0
M  V30 3603 N 339.963 1.05934 -1.16686 0
M  V30 3604 C 340.895 2.13468 -0.834503 0
M  V30 3605 C 341.908 1.62013 0.15984 0
M  V30 3606 O 343.097 1.7838 -0.0654228 0
M  V30 3607 C 340.197 3.3817 -0.222361 0
M  V30 3608 C 339.37 4.18928 -1.25771 0
M  V30 3609 C 338.429 5.21985 -0.664703 0
M  V30 3610 O 337.455 5.53334 -1.33453 0
M  V30 3611 N 338.657 5.77919 0.546834 0
M  V30 3612 H 341.422 2.42578 -1.75999 0
M  V30 3613 H 338.983 1.21967 -1.06469 0
M  V30 3614 H 340.975 4.04266 0.187472 0
M  V30 3615 H 339.545 3.06655 0.606758 0
M  V30 3616 H 338.765 3.48433 -1.84358 0
M  V30 3617 H 340.053 4.69687 -1.95631 0
M  V30 3618 H 339.451 5.54721 1.10912 0
M  V30 3619 H 338.008 6.45573 0.898829 0
M  V30 3620 N 341.441 0.965919 1.2453 0
M  V30 3621 C 342.371 0.513476 2.27784 0
M  V30 3622 C 343.352 -0.445974 1.6415 0
M  V30 3623 O 344.537 -0.342485 1.91156 0
M  V30 3624 C 341.667 -0.198839 3.4673 0
M  V30 3625 C 340.621 0.676456 4.2262 0
M  V30 3626 C 339.947 -0.167248 5.34438 0
M  V30 3627 C 341.247 1.96017 4.84123 0
M  V30 3628 H 342.941 1.3765 2.65881 0
M  V30 3629 H 340.487 0.663321 1.27813 0
M  V30 3630 H 342.44 -0.526567 4.18097 0
M  V30 3631 H 341.164 -1.0962 3.07654 0
M  V30 3632 H 339.823 0.98743 3.53052 0
M  V30 3633 H 339.471 -1.0647 4.91603 0
M  V30 3634 H 339.171 0.415181 5.86131 0
M  V30 3635 H 340.695 -0.489688 6.08633 0
M  V30 3636 H 342.109 1.69814 5.47573 0
M  V30 3637 H 340.506 2.48918 5.4604 0
M  V30 3638 H 341.576 2.65622 4.05676 0
M  V30 3639 N 342.919 -1.39368 0.735821 0
M  V30 3640 C 344.165 -2.01272 0.293439 0
M  V30 3641 C 344.52 -1.57344 -1.10728 0
M  V30 3642 O 343.813 -0.792744 -1.74431 0
M  V30 3643 C 344.007 -3.5583 0.334651 0
M  V30 3644 C 343.836 -4.14764 1.73784 0
M  V30 3645 C 342.606 -4.47315 2.35026 0
M  V30 3646 C 344.804 -4.38246 2.69157 0
M  V30 3647 N 342.786 -4.91756 3.6749 0
M  V30 3648 C 344.157 -4.849 3.86357 0
M  V30 3649 C 346.212 -4.20315 2.66908 0
M  V30 3650 C 344.915 -5.15505 5.01645 0
M  V30 3651 C 346.941 -4.52033 3.8134 0
M  V30 3652 C 346.303 -4.98895 4.97276 0
M  V30 3653 H 342.402 -0.766756 0.153652 0
M  V30 3654 H 344.986 -1.69276 0.961967 0
M  V30 3655 H 343.157 -3.87212 -0.303527 0
M  V30 3656 H 344.889 -4.04503 -0.126358 0
M  V30 3657 H 341.644 -4.35143 1.86943 0
M  V30 3658 H 342.068 -5.18333 4.35499 0
M  V30 3659 H 346.71 -3.83287 1.78468 0
M  V30 3660 H 344.428 -5.51437 5.90713 0
M  V30 3661 H 348.014 -4.39781 3.80899 0
M  V30 3662 H 346.894 -5.22973 5.84353 0
M  V30 3663 N 344.397 -0.483516 -1.5 0
M  V30 3664 C 345.36 0.292965 -2.2732 0
M  V30 3665 C 346.36 0.909499 -1.32608 0
M  V30 3666 O 347.55 0.776745 -1.55924 0
M  V30 3667 C 344.682 1.41854 -3.09984 0
M  V30 3668 H 345.875 -0.385289 -2.97415 0
M  V30 3669 H 343.428 -0.237942 -1.54478 0
M  V30 3670 H 344.163 2.13148 -2.44414 0
M  V30 3671 H 343.948 0.982114 -3.79601 0
M  V30 3672 H 345.438 1.96597 -3.68429 0
M  V30 3673 N 345.875 1.56104 -0.216619 0
M  V30 3674 C 347.123 1.97781 0.415593 0
M  V30 3675 C 347.444 1.10536 1.60645 0
M  V30 3676 O 346.714 0.181303 1.95059 0
M  V30 3677 H 345.294 0.730415 0.156534 0
M  V30 3678 H 347.956 1.92445 -0.308366 0
M  V30 3679 H 347.052 3.03072 0.74525 0
M  V30 3680 N 347.353 -0.0568162 1.57498 0
M  V30 3681 C 348.283 -1.06593 2.0775 0
M  V30 3682 C 349.264 -1.39448 0.974082 0
M  V30 3683 O 350.449 -1.48815 1.24771 0
M  V30 3684 C 347.579 -2.37509 2.5339 0
M  V30 3685 C 346.533 -2.1897 3.67745 0
M  V30 3686 C 345.859 -3.55402 3.99492 0
M  V30 3687 C 347.159 -1.59859 4.97235 0
M  V30 3688 H 348.853 -0.647706 2.9231 0
M  V30 3689 H 346.399 -0.310116 1.40621 0
M  V30 3690 H 348.352 -3.08409 2.87162 0
M  V30 3691 H 347.076 -2.8134 1.65878 0
M  V30 3692 H 345.735 -1.50508 3.3428 0
M  V30 3693 H 345.383 -3.9683 3.09088 0
M  V30 3694 H 345.083 -3.43831 4.76502 0
M  V30 3695 H 346.607 -4.27708 4.35773 0
M  V30 3696 H 348.021 -2.20642 5.29141 0
M  V30 3697 H 346.418 -1.58942 5.78669 0
M  V30 3698 H 347.488 -0.561506 4.81638 0
M  V30 3699 N 348.832 -1.54138 -0.328536 0
M  V30 3700 C 349.762 -1.86167 -1.40939 0
M  V30 3701 C 350.743 -0.718044 -1.54202 0
M  V30 3702 O 351.928 -0.971328 -1.68163 0
M  V30 3703 C 349.058 -2.08461 -2.77779 0
M  V30 3704 C 348.012 -3.24299 -2.7931 0
M  V30 3705 C 347.338 -3.31955 -4.19178 0
M  V30 3706 C 348.638 -4.62065 -2.43502 0
M  V30 3707 H 350.332 -2.76689 -1.14383 0
M  V30 3708 H 347.878 -1.33132 -0.548806 0
M  V30 3709 H 349.831 -2.29453 -3.53454 0
M  V30 3710 H 348.555 -1.14684 -3.05802 0
M  V30 3711 H 347.214 -3.03187 -2.0609 0
M  V30 3712 H 346.862 -2.35745 -4.44335 0
M  V30 3713 H 346.562 -4.09805 -4.2111 0
M  V30 3714 H 348.086 -3.55175 -4.96672 0
M  V30 3715 H 349.5 -4.8297 -3.08889 0
M  V30 3716 H 347.897 -5.42429 -2.56693 0
M  V30 3717 H 348.967 -4.64652 -1.38659 0
M  V30 3718 N 350.31 0.590341 -1.46126 0
M  V30 3719 C 351.726 0.912917 -1.30912 0
M  V30 3720 C 351.926 1.99616 -0.274893 0
M  V30 3721 O 350.982 2.50397 0.325197 0
M  V30 3722 C 352.295 1.3375 -2.69317 0
M  V30 3723 C 353.843 1.45077 -2.77348 0
M  V30 3724 C 354.318 1.90904 -4.16317 0
M  V30 3725 N 355.809 1.9811 -4.18696 0
M  V30 3726 C 356.544 2.34828 -5.23109 0
M  V30 3727 N 356.04 2.70393 -6.37856 0
M  V30 3728 N 357.833 2.35317 -5.10473 0
M  V30 3729 H 349.984 -0.125358 -2.1203 0
M  V30 3730 H 352.247 0.00658481 -0.947977 0
M  V30 3731 H 351.953 0.615614 -3.4627 0
M  V30 3732 H 351.827 2.30058 -2.9892 0
M  V30 3733 H 354.214 2.16353 -2.00687 0
M  V30 3734 H 354.295 0.4704 -2.51438 0
M  V30 3735 H 353.939 1.20209 -4.9347 0
M  V30 3736 H 353.869 2.89886 -4.39629 0
M  V30 3737 H 356.36 1.73146 -3.359 0
M  V30 3738 H 356.673 2.97341 -7.13308 0
M  V30 3739 H 355.018 2.68048 -6.41229 0
M  V30 3740 H 358.209 2.0695 -4.19868 0
M  V30 3741 H 358.382 2.63605 -5.9196 0
M  V30 3742 N 351.788 1.33704 0.83433 0
M  V30 3743 C 352.736 1.24323 1.96587 0
M  V30 3744 C 353.73 0.143659 1.6879 0
M  V30 3745 O 354.936 0.30791 1.77347 0
M  V30 3746 H 351.311 0.385925 0.645419 0
M  V30 3747 H 353.282 2.19978 2.01624 0
M  V30 3748 C 352.031 1.00394 3.32891 0
M  V30 3749 H 351.354 1.84231 3.54822 0
M  V30 3750 H 352.794 0.97862 4.12552 0
M  V30 3751 C 351.253 -0.293047 3.35623 0
M  V30 3752 O 351.783 -1.29823 3.80143 0
M  V30 3753 N 349.989 -0.322174 2.88809 0
M  V30 3754 H 349.536 0.496379 2.52772 0
M  V30 3755 H 349.494 -1.18977 2.91019 0
M  V30 3756 N 353.266 -1.05314 1.17247 0
M  V30 3757 C 354.682 -1.30452 0.919473 0
M  V30 3758 C 354.882 -1.9703 -0.42209 0
M  V30 3759 O 353.938 -2.24311 -1.15935 0
M  V30 3760 C 355.251 -2.17551 2.07586 0
M  V30 3761 C 356.799 -2.30937 2.11275 0
M  V30 3762 C 357.274 -3.21396 3.26296 0
M  V30 3763 N 358.765 -3.28981 3.26076 0
M  V30 3764 C 359.5 -3.99095 4.11716 0
M  V30 3765 N 358.996 -4.71648 5.07465 0
M  V30 3766 N 360.789 -3.95247 3.9967 0
M  V30 3767 H 352.94 -0.604988 2.03602 0
M  V30 3768 H 355.203 -0.329368 0.888944 0
M  V30 3769 H 354.909 -1.75921 3.0454 0
M  V30 3770 H 354.783 -3.18182 2.02584 0
M  V30 3771 H 357.17 -2.71809 1.14907 0
M  V30 3772 H 357.251 -1.2994 2.20339 0
M  V30 3773 H 356.895 -2.81238 4.22927 0
M  V30 3774 H 356.825 -4.22395 3.14467 0
M  V30 3775 H 359.316 -2.77286 2.5675 0
M  V30 3776 H 359.629 -5.22705 5.6921 0
M  V30 3777 H 357.974 -4.70594 5.11435 0
M  V30 3778 H 361.165 -3.37691 3.24164 0
M  V30 3779 H 361.338 -4.4962 4.66632 0
M  V30 3780 N 354.744 -0.972509 -1.24016 0
M  V30 3781 C 355.984 -0.644951 -1.93958 0
M  V30 3782 C 356.348 0.80559 -1.74282 0
M  V30 3783 O 357.549 1.2436 -2.38302 0
M  V30 3784 C 355.82 -1.01521 -3.42678 0
M  V30 3785 S 357.379 -0.802927 -4.31391 0
M  V30 3786 H 354.197 -0.236452 -0.670531 0
M  V30 3787 H 356.799 -1.25048 -1.50277 0
M  V30 3788 H 355.503 -2.06769 -3.54506 0
M  V30 3789 H 355.034 -0.400648 -3.91355 0
M  V30 3790 H 357.049 0.317256 -4.95185 0
M  V30 3791 N 356.222 1.38976 -0.743202 0
M  V30 3792 C 357.469 2.00343 -0.294752 0
M  V30 3793 C 357.797 1.58983 1.12047 0
M  V30 3794 O 357.052 0.813809 1.77977 0
M  V30 3795 C 357.351 3.55647 -0.353517 0
M  V30 3796 C 357.017 4.16685 -1.72292 0
M  V30 3797 C 355.679 4.3307 -2.09771 0
M  V30 3798 C 358.031 4.50464 -2.62168 0
M  V30 3799 C 355.359 4.80526 -3.36618 0
M  V30 3800 C 357.711 4.99332 -3.88395 0
M  V30 3801 C 356.375 5.13924 -4.25956 0
M  V30 3802 H 355.645 0.733108 -0.107857 0
M  V30 3803 H 358.292 1.6618 -0.951651 0
M  V30 3804 H 356.597 3.89884 0.386954 0
M  V30 3805 H 358.294 4.00998 0.0117269 0
M  V30 3806 H 354.884 4.04339 -1.42155 0
M  V30 3807 H 359.068 4.37416 -2.3448 0
M  V30 3808 H 354.324 4.90008 -3.65653 0
M  V30 3809 H 358.498 5.2444 -4.58187 0
M  V30 3810 H 356.125 5.50457 -5.2431 0
M  V30 3811 N 357.7 0.491464 1.49741 0
M  V30 3812 C 358.63 -0.28154 2.31796 0
M  V30 3813 C 359.611 -0.971473 1.3963 0
M  V30 3814 O 360.796 -0.964719 1.68543 0
M  V30 3815 C 357.926 -1.35203 3.19902 0
M  V30 3816 C 356.88 -0.782529 4.20786 0
M  V30 3817 C 356.206 -1.95283 4.97764 0
M  V30 3818 C 357.506 0.21999 5.21837 0
M  V30 3819 H 359.2 0.403355 2.96671 0
M  V30 3820 H 356.746 0.195425 1.42668 0
M  V30 3821 H 358.699 -1.90045 3.76113 0
M  V30 3822 H 357.423 -2.06598 2.52953 0
M  V30 3823 H 356.082 -0.255928 3.65706 0
M  V30 3824 H 355.73 -2.65423 4.2727 0
M  V30 3825 H 355.43 -1.57789 5.66018 0
M  V30 3826 H 356.954 -2.50577 5.56816 0
M  V30 3827 H 358.368 -0.23996 5.72798 0
M  V30 3828 H 356.765 0.51026 5.97927 0
M  V30 3829 H 357.835 1.13911 4.7133 0
M  V30 3830 N 359.178 -1.55987 0.224894 0
M  V30 3831 C 360.589 -1.84553 -0.282345 0
M  V30 3832 C 360.94 -1.14634 -1.59227 0
M  V30 3833 O 360.065 -0.417155 -2.12341 0
M  V30 3834 C 360.66 -3.348 -0.519062 0
M  V30 3835 C 359.219 -3.63671 -0.970604 0
M  V30 3836 C 358.366 -2.77277 -0.0355261 0
M  V30 3837 H 361.317 -1.52245 0.448006 0
M  V30 3838 H 361.338 -3.55187 -1.36463 0
M  V30 3839 H 360.85 -3.8566 0.43449 0
M  V30 3840 H 358.951 -3.1827 -1.9374 0
M  V30 3841 H 359.064 -4.71631 -0.842698 0
M  V30 3842 H 357.428 -2.48846 -0.542927 0
M  V30 3843 H 358.211 -3.30937 0.913003 0
M  V30 3844 N 360.656 0.0484629 -1.57525 0
M  V30 3845 C 361.566 1.07241 -2.08654 0
M  V30 3846 C 362.582 1.409 -1.02095 0
M  V30 3847 O 363.758 1.50609 -1.33712 0
M  V30 3848 C 360.823 2.36008 -2.5397 0
M  V30 3849 C 359.884 2.09108 -3.7493 0
M  V30 3850 C 359.117 3.31736 -4.18075 0
M  V30 3851 O 359.34 4.41714 -3.60895 0
M  V30 3852 O 358.274 3.18576 -5.10679 0
M  V30 3853 H 362.1 0.667965 -2.96263 0
M  V30 3854 H 359.685 0.26417 -1.47046 0
M  V30 3855 H 361.567 3.11747 -2.83535 0
M  V30 3856 H 360.242 2.75786 -1.69481 0
M  V30 3857 H 359.149 1.31 -3.50414 0
M  V30 3858 H 360.482 1.74198 -4.60343 0
M  V30 3859 N 362.134 1.5431 0.320358 0
M  V30 3860 C 363.082 1.84647 1.4145 0
M  V30 3861 C 364.076 0.718624 1.53402 0
M  V30 3862 O 365.282 0.902335 1.5575 0
M  V30 3863 H 361.657 0.585349 0.472091 0
M  V30 3864 H 363.628 2.7614 1.13089 0
M  V30 3865 C 362.377 2.09341 2.77617 0
M  V30 3866 H 361.7 2.9559 2.69196 0
M  V30 3867 H 363.14 2.3452 3.53237 0
M  V30 3868 C 361.599 0.885939 3.25043 0
M  V30 3869 O 362.129 0.0967891 4.01583 0
M  V30 3870 N 360.335 0.696682 2.82125 0
M  V30 3871 H 359.882 1.34006 2.2 0
M  V30 3872 H 359.84 -0.109712 3.14209 0
M  V30 3873 N 363.613 -0.582584 1.46437 0
M  V30 3874 C 364.86 -1.34079 1.51753 0
M  V30 3875 C 365.188 -1.93762 0.169299 0
M  V30 3876 O 364.443 -1.76989 -0.835062 0
M  V30 3877 C 364.742 -2.48964 2.56421 0
M  V30 3878 C 364.408 -2.07273 4.00436 0
M  V30 3879 C 363.07 -1.95618 4.39644 0
M  V30 3880 C 365.422 -1.75111 4.90903 0
M  V30 3881 C 362.75 -1.5006 5.67185 0
M  V30 3882 C 365.102 -1.31032 6.18881 0
M  V30 3883 C 363.766 -1.17954 6.56996 0
M  V30 3884 H 363.036 -0.49063 0.555304 0
M  V30 3885 H 365.683 -0.656007 1.79913 0
M  V30 3886 H 363.988 -3.22889 2.21923 0
M  V30 3887 H 365.685 -3.07178 2.57765 0
M  V30 3888 H 362.275 -2.17279 3.69443 0
M  V30 3889 H 366.459 -1.83001 4.61329 0
M  V30 3890 H 361.715 -1.38577 5.95488 0
M  V30 3891 H 365.889 -1.052 6.88408 0
M  V30 3892 H 363.516 -0.824279 7.55718 0
M  V30 3893 N 365.091 -1.34144 -0.827227 0
M  V30 3894 C 366.316 -1.29476 -1.62021 0
M  V30 3895 C 366.741 0.129292 -1.87655 0
M  V30 3896 O 366.099 1.08967 -1.449 0
M  V30 3897 C 366.147 -2.08702 -2.94068 0
M  V30 3898 O 365.251 -1.45359 -3.85933 0
M  V30 3899 H 364.592 -0.444881 -0.492927 0
M  V30 3900 H 367.122 -1.76882 -1.02829 0
M  V30 3901 H 367.132 -2.19898 -3.43669 0
M  V30 3902 H 365.807 -3.12241 -2.74734 0
M  V30 3903 H 364.384 -1.42879 -3.44442 0
M  V30 3904 N 366.569 1.04691 -1.17803 0
M  V30 3905 C 367.499 2.14494 -0.92275 0
M  V30 3906 C 368.48 1.69546 0.137179 0
M  V30 3907 O 369.665 1.94195 -0.0141108 0
M  V30 3908 C 366.795 3.44491 -0.440803 0
M  V30 3909 C 365.749 4.03031 -1.4405 0
M  V30 3910 C 365.075 5.28432 -0.81631 0
M  V30 3911 C 366.375 4.39932 -2.81527 0
M  V30 3912 H 368.069 2.36107 -1.84103 0
M  V30 3913 H 365.615 1.1347 -0.886599 0
M  V30 3914 H 367.568 4.2066 -0.249602 0
M  V30 3915 H 366.292 3.22546 0.513025 0
M  V30 3916 H 364.951 3.28937 -1.61853 0
M  V30 3917 H 364.599 5.02792 0.144511 0
M  V30 3918 H 364.299 5.68559 -1.48371 0
M  V30 3919 H 365.823 6.07284 -0.635496 0
M  V30 3920 H 367.237 5.07113 -2.67412 0
M  V30 3921 H 365.634 4.9109 -3.44892 0
M  V30 3922 H 366.704 3.50045 -3.35554 0
M  V30 3923 N 368.047 0.979072 1.23499 0
M  V30 3924 C 369.458 0.684391 1.73704 0
M  V30 3925 C 369.809 -0.799448 1.79174 0
M  V30 3926 O 368.934 -1.62531 1.42873 0
M  V30 3927 C 369.529 1.23564 3.15464 0
M  V30 3928 C 368.088 0.99063 3.6313 0
M  V30 3929 C 367.235 1.36416 2.41425 0
M  V30 3930 H 370.186 1.15307 1.09041 0
M  V30 3931 H 370.207 0.607417 3.7562 0
M  V30 3932 H 369.719 2.31561 3.1145 0
M  V30 3933 H 367.82 -0.0733136 3.72528 0
M  V30 3934 H 367.933 1.64427 4.5 0
M  V30 3935 H 366.297 0.782616 2.42378 0
M  V30 3936 H 367.08 2.45387 2.40083 0
M  V30 3937 N 369.525 -1.3858 0.750561 0
M  V30 3938 C 370.455 -2.33102 0.136237 0
M  V30 3939 C 371.436 -1.54713 -0.706965 0
M  V30 3940 O 372.621 -1.83043 -0.648769 0
M  V30 3941 C 369.751 -3.38882 -0.760017 0
M  V30 3942 C 368.705 -4.27995 -0.0197785 0
M  V30 3943 C 368.031 -5.24605 -1.03408 0
M  V30 3944 C 369.331 -5.09554 1.14684 0
M  V30 3945 H 371.025 -2.84726 0.925822 0
M  V30 3946 H 368.571 -1.36898 0.446654 0
M  V30 3947 H 370.524 -4.0397 -1.19943 0
M  V30 3948 H 369.248 -2.85734 -1.58189 0
M  V30 3949 H 367.907 -3.64409 0.400184 0
M  V30 3950 H 367.555 -4.67746 -1.84994 0
M  V30 3951 H 367.255 -5.85081 -0.543464 0
M  V30 3952 H 368.779 -5.9257 -1.47288 0
M  V30 3953 H 370.193 -5.67899 0.785118 0
M  V30 3954 H 368.59 -5.7925 1.56812 0
M  V30 3955 H 369.66 -4.4347 1.96118 0
M  V30 3956 N 371.003 -0.499398 -1.49478 0
M  V30 3957 C 372.228 0.044722 -2.07352 0
M  V30 3958 C 372.653 1.30207 -1.35749 0
M  V30 3959 O 372.011 1.76516 -0.413732 0
M  V30 3960 C 372.059 0.283013 -3.59488 0
M  V30 3961 O 371.163 1.35804 -3.89398 0
M  V30 3962 H 370.504 -0.0255147 -0.66351 0
M  V30 3963 H 373.034 -0.698561 -1.92305 0
M  V30 3964 H 373.044 0.515007 -4.04737 0
M  V30 3965 H 371.719 -0.635636 -4.11014 0
M  V30 3966 H 370.296 1.11113 -3.55961 0
M  V30 3967 N 372.481 1.55866 -0.233164 0
M  V30 3968 C 373.727 1.98897 0.395959 0
M  V30 3969 C 374.06 1.12091 1.58585 0
M  V30 3970 O 373.335 0.181182 1.93654 0
M  V30 3971 C 373.618 3.50658 0.819224 0
M  V30 3972 C 373.471 4.48233 -0.375109 0
M  V30 3973 C 374.79 4.07135 1.67121 0
M  V30 3974 H 371.909 0.723102 0.142451 0
M  V30 3975 H 374.551 1.87082 -0.331725 0
M  V30 3976 H 372.701 3.60857 1.43925 0
M  V30 3977 H 374.373 4.50031 -1.01341 0
M  V30 3978 H 372.616 4.21624 -1.02058 0
M  V30 3979 H 373.287 5.51988 -0.0358328 0
M  V30 3980 H 375.763 3.99952 1.14795 0
M  V30 3981 H 374.639 5.13615 1.93625 0
M  V30 3982 H 374.9 3.54736 2.63846 0
M  V30 3983 N 373.959 -0.0401083 1.57549 0
M  V30 3984 C 375.236 -0.767917 1.79896 0
M  V30 3985 C 375.616 -1.9416 0.82856 0
M  V30 3986 O 374.964 -2.2812 -0.131671 0
M  V30 3987 C 375.174 -1.2113 3.27305 0
M  V30 3988 C 376.522 -1.63175 3.91994 0
M  V30 3989 O 377.546 -1.30616 3.31388 0
M  V30 3990 O 376.405 -2.23565 4.98679 0
M  V30 3991 H 373.499 -0.370441 0.739393 0
M  V30 3992 H 376.045 -0.017737 1.69691 0
M  V30 3993 H 374.817 -0.372937 3.89519 0
M  V30 3994 H 374.44 -2.02183 3.42356 0
M  V30 3995 N 375.437 -1.54477 -0.31217 0
M  V30 3996 C 376.367 -1.87652 -1.38957 0
M  V30 3997 C 377.348 -0.734358 -1.53431 0
M  V30 3998 O 378.533 -0.98911 -1.67123 0
M  V30 3999 C 375.663 -2.11396 -2.75552 0
M  V30 4000 C 374.617 -3.27243 -2.75855 0
M  V30 4001 C 373.943 -3.36382 -4.15633 0
M  V30 4002 C 375.243 -4.64622 -2.38587 0
M  V30 4003 H 376.937 -2.77887 -1.11442 0
M  V30 4004 H 374.483 -1.33707 -0.534655 0
M  V30 4005 H 376.436 -2.33189 -3.51 0
M  V30 4006 H 375.16 -1.17921 -3.04569 0
M  V30 4007 H 373.819 -3.05356 -2.02863 0
M  V30 4008 H 373.467 -2.40445 -4.41809 0
M  V30 4009 H 373.167 -4.14249 -4.1674 0
M  V30 4010 H 374.691 -3.60422 -4.92877 0
M  V30 4011 H 376.105 -4.86219 -3.03749 0
M  V30 4012 H 374.502 -5.45121 -2.50925 0
M  V30 4013 H 375.572 -4.66097 -1.33723 0
M  V30 4014 N 376.915 0.57481 -1.46744 0
M  V30 4015 C 377.825 1.711 -1.60505 0
M  V30 4016 C 378.841 1.67008 -0.488307 0
M  V30 4017 O 380.017 1.86774 -0.753495 0
M  V30 4018 C 377.082 3.07608 -1.59932 0
M  V30 4019 C 376.143 3.22904 -2.82898 0
M  V30 4020 C 375.376 4.529 -2.82343 0
M  V30 4021 O 375.599 5.37278 -1.91542 0
M  V30 4022 O 374.533 4.71611 -3.73987 0
M  V30 4023 H 378.359 1.62436 -2.56609 0
M  V30 4024 H 375.944 0.742779 -1.29627 0
M  V30 4025 H 377.826 3.88877 -1.62336 0
M  V30 4026 H 376.501 3.16692 -0.669898 0
M  V30 4027 H 375.408 2.41099 -2.86046 0
M  V30 4028 H 376.741 3.18715 -3.75076 0
M  V30 4029 N 378.394 1.34581 0.820102 0
M  V30 4030 C 379.81 1.14325 1.11364 0
M  V30 4031 C 380.01 -0.0533648 2.01429 0
M  V30 4032 O 379.066 -0.728044 2.41776 0
M  V30 4033 C 380.379 2.43983 1.75764 0
M  V30 4034 C 381.927 2.50065 1.88246 0
M  V30 4035 C 382.402 3.79732 2.56061 0
M  V30 4036 N 383.893 3.80908 2.63558 0
M  V30 4037 C 384.628 4.77961 3.16766 0
M  V30 4038 N 384.124 5.85397 3.70517 0
M  V30 4039 N 385.917 4.65413 3.15194 0
M  V30 4040 H 378.068 2.11246 0.221096 0
M  V30 4041 H 380.331 0.934289 0.160649 0
M  V30 4042 H 380.037 3.31651 1.1705 0
M  V30 4043 H 379.911 2.57531 2.75604 0
M  V30 4044 H 382.298 1.62834 2.46108 0
M  V30 4045 H 382.379 2.40442 0.873006 0
M  V30 4046 H 382.023 4.67354 1.98853 0
M  V30 4047 H 381.953 3.86639 3.57516 0
M  V30 4048 H 384.444 3.03274 2.25463 0
M  V30 4049 H 384.757 6.55463 4.09376 0
M  V30 4050 H 383.102 5.89107 3.68752 0
M  V30 4051 H 386.293 3.80627 2.72471 0
M  V30 4052 H 386.466 5.41216 3.56356 0
M  V30 4053 N 379.872 -1.04064 1.18357 0
M  V30 4054 C 381.102 -1.80654 1.00238 0
M  V30 4055 C 381.51 -1.83713 -0.452362 0
M  V30 4056 O 380.853 -1.27135 -1.32599 0
M  V30 4057 C 380.915 -3.27582 1.48088 0
M  V30 4058 C 380.579 -3.48184 2.96002 0
M  V30 4059 C 381.576 -3.39372 3.93856 0
M  V30 4060 C 379.261 -3.7478 3.34433 0
M  V30 4061 C 381.255 -3.5686 5.28138 0
M  V30 4062 C 378.942 -3.91915 4.68877 0
M  V30 4063 C 379.94 -3.82956 5.65539 0
M  V30 4064 O 379.628 -3.996 6.97549 0
M  V30 4065 H 379.36 -0.575751 0.354241 0
M  V30 4066 H 381.914 -1.32044 1.57333 0
M  V30 4067 H 380.144 -3.77161 0.853588 0
M  V30 4068 H 381.833 -3.8573 1.2636 0
M  V30 4069 H 382.599 -3.18789 3.65511 0
M  V30 4070 H 378.478 -3.80852 2.59756 0
M  V30 4071 H 382.022 -3.49783 6.03571 0
M  V30 4072 H 377.919 -4.11992 4.96923 0
M  V30 4073 H 378.687 -4.1676 7.04452 0
M  V30 4074 N 381.35 -0.985608 -1.22978 0
M  V30 4075 C 382.58 -0.674603 -1.95276 0
M  V30 4076 C 382.988 0.763483 -1.73111 0
M  V30 4077 O 382.331 1.52601 -1.02268 0
M  V30 4078 C 382.393 -0.891597 -3.48268 0
M  V30 4079 C 382.057 -2.31275 -3.94158 0
M  V30 4080 C 383.054 -3.29179 -4.02415 0
M  V30 4081 C 380.739 -2.64524 -4.27004 0
M  V30 4082 C 382.733 -4.58407 -4.42879 0
M  V30 4083 C 380.42 -3.93974 -4.67149 0
M  V30 4084 C 381.418 -4.90727 -4.75053 0
M  V30 4085 O 381.106 -6.17865 -5.14294 0
M  V30 4086 H 380.838 -0.249251 -0.628371 0
M  V30 4087 H 383.392 -1.32106 -1.5728 0
M  V30 4088 H 381.622 -0.187962 -3.86243 0
M  V30 4089 H 383.311 -0.576957 -4.01779 0
M  V30 4090 H 384.077 -3.04823 -3.77237 0
M  V30 4091 H 379.956 -1.89923 -4.2006 0
M  V30 4092 H 383.5 -5.33926 -4.48964 0
M  V30 4093 H 379.397 -4.18122 -4.91777 0
M  V30 4094 H 380.165 -6.21694 -5.32389 0
M  V30 4095 N 382.828 1.3818 -0.7579 0
M  V30 4096 C 383.76 2.2901 -0.0932177 0
M  V30 4097 C 384.773 1.47958 0.679136 0
M  V30 4098 O 385.962 1.70773 0.519514 0
M  V30 4099 C 383.062 3.26953 0.89192 0
M  V30 4100 C 382.235 4.37045 0.176303 0
M  V30 4101 C 381.294 5.15148 1.07281 0
M  V30 4102 O 380.32 5.66616 0.541728 0
M  V30 4103 N 381.522 5.28542 2.40049 0
M  V30 4104 H 384.287 2.86694 -0.873303 0
M  V30 4105 H 381.848 1.50007 -0.609054 0
M  V30 4106 H 383.84 3.76083 1.49479 0
M  V30 4107 H 382.41 2.70136 1.57306 0
M  V30 4108 H 381.63 3.89493 -0.607328 0
M  V30 4109 H 382.918 5.07801 -0.318718 0
M  V30 4110 H 382.316 4.88285 2.85647 0
M  V30 4111 H 380.873 5.8103 2.95376 0
M  V30 4112 N 384.306 0.507319 1.49211 0
M  V30 4113 C 385.534 -0.0315749 2.06876 0
M  V30 4114 C 385.949 -1.30241 1.36685 0
M  V30 4115 O 385.306 -1.76937 0.447152 0
M  V30 4116 C 385.357 -0.282627 3.60393 0
M  V30 4117 O 385.078 0.937835 4.27944 0
M  V30 4118 C 386.579 -0.864453 4.3479 0
M  V30 4119 H 383.799 0.0233048 0.670595 0
M  V30 4120 H 386.343 0.706484 1.91909 0
M  V30 4121 H 384.498 -0.97068 3.75042 0
M  V30 4122 H 384.912 0.704567 5.19746 0
M  V30 4123 H 386.386 -0.989664 5.43056 0
M  V30 4124 H 386.863 -1.86382 3.97692 0
M  V30 4125 H 387.469 -0.213672 4.24763 0
M  V30 4126 N 385.784 -1.5574 0.241426 0
M  V30 4127 C 386.694 -2.2479 -0.671305 0
M  V30 4128 C 387.71 -1.26217 -1.19772 0
M  V30 4129 O 388.886 -1.59079 -1.23514 0
M  V30 4130 C 385.951 -2.92966 -1.85396 0
M  V30 4131 C 385.012 -4.06935 -1.36756 0
M  V30 4132 C 384.245 -4.71851 -2.49384 0
M  V30 4133 O 384.468 -4.35823 -3.67987 0
M  V30 4134 O 383.402 -5.60467 -2.19454 0
M  V30 4135 H 387.228 -3.0349 -0.112966 0
M  V30 4136 H 384.813 -1.49397 0.0101513 0
M  V30 4137 H 386.695 -3.35927 -2.54423 0
M  V30 4138 H 385.37 -2.17211 -2.40002 0
M  V30 4139 H 384.277 -3.68503 -0.644726 0
M  V30 4140 H 385.61 -4.84492 -0.867647 0
M  V30 4141 N 387.262 0.0317525 -1.57568 0
M  V30 4142 C 388.21 1.05165 -2.07468 0
M  V30 4143 C 389.204 1.3761 -0.98792 0
M  V30 4144 O 390.41 1.36546 -1.17282 0
M  V30 4145 H 386.785 0.35666 -0.66204 0
M  V30 4146 H 388.756 0.604958 -2.92203 0
M  V30 4147 C 387.505 2.34488 -2.56731 0
M  V30 4148 H 386.828 2.10383 -3.39969 0
M  V30 4149 H 388.268 3.04203 -2.95358 0
M  V30 4150 C 386.727 3.03266 -1.46736 0
M  V30 4151 O 387.257 3.92988 -0.832069 0
M  V30 4152 N 385.463 2.6455 -1.20256 0
M  V30 4153 H 385.01 1.91674 -1.72102 0
M  V30 4154 H 384.968 3.10886 -0.468737 0
M  V30 4155 N 388.74 1.54641 0.303973 0
M  V30 4156 C 389.65 1.88439 1.39743 0
M  V30 4157 C 390.666 0.778239 1.55626 0
M  V30 4158 O 391.842 1.07442 1.70347 0
M  V30 4159 C 388.907 2.12212 2.74166 0
M  V30 4160 C 387.968 3.35936 2.67293 0
M  V30 4161 C 387.201 3.58566 3.95305 0
M  V30 4162 O 387.424 2.84263 4.9452 0
M  V30 4163 O 386.358 4.52078 3.97378 0
M  V30 4164 H 390.184 2.81458 1.14083 0
M  V30 4165 H 387.769 1.40793 0.499768 0
M  V30 4166 H 389.651 2.29067 3.53704 0
M  V30 4167 H 388.326 1.22379 2.99675 0
M  V30 4168 H 387.233 3.24448 1.86237 0
M  V30 4169 H 388.566 4.2589 2.46736 0
M  V30 4170 N 390.218 -0.567019 1.47046 0
M  V30 4171 C 391.495 -1.3276 1.43646 0
M  V30 4172 C 391.875 -2.1071 0.128186 0
M  V30 4173 O 391.223 -2.10441 -0.890326 0
M  V30 4174 C 391.433 -2.2404 2.67595 0
M  V30 4175 C 392.781 -2.85372 3.14401 0
M  V30 4176 O 393.805 -2.34346 2.68254 0
M  V30 4177 O 392.664 -3.78091 3.946 0
M  V30 4178 H 389.758 -0.597293 0.571988 0
M  V30 4179 H 392.304 -0.586735 1.59234 0
M  V30 4180 H 391.076 -1.65975 3.54356 0
M  V30 4181 H 390.699 -3.05439 2.54544 0
M  V30 4182 N 391.696 -1.35014 -0.812953 0
M  V30 4183 C 392.606 -1.2951 -1.95613 0
M  V30 4184 C 393.622 -0.20107 -1.72834 0
M  V30 4185 O 394.798 -0.42932 -1.96771 0
M  V30 4186 C 391.863 -1.06033 -3.30088 0
M  V30 4187 C 390.924 -2.24688 -3.65805 0
M  V30 4188 C 390.157 -2.02322 -4.93864 0
M  V30 4189 O 390.38 -0.986464 -5.61805 0
M  V30 4190 O 389.314 -2.89525 -5.27692 0
M  V30 4191 H 393.14 -2.25705 -2.03202 0
M  V30 4192 H 390.725 -1.15321 -0.949811 0
M  V30 4193 H 392.607 -0.94763 -4.10607 0
M  V30 4194 H 391.282 -0.128852 -3.23443 0
M  V30 4195 H 390.189 -2.41521 -2.85689 0
M  V30 4196 H 391.522 -3.16261 -3.77147 0
M  V30 4197 N 393.175 1.03435 -1.18907 0
M  V30 4198 C 394.4 1.80919 -1.01406 0
M  V30 4199 C 394.825 1.83055 0.432721 0
M  V30 4200 O 394.183 1.25252 1.31079 0
M  V30 4201 C 394.231 3.24091 -1.58105 0
M  V30 4202 O 393.335 4.04434 -0.806669 0
M  V30 4203 H 392.676 0.558709 -0.358803 0
M  V30 4204 H 395.206 1.30223 -1.57807 0
M  V30 4205 H 395.216 3.74853 -1.61087 0
M  V30 4206 H 393.891 3.21851 -2.6341 0
M  V30 4207 H 392.468 3.63091 -0.849666 0
M  V30 4208 N 394.653 0.992116 1.22453 0
M  V30 4209 C 396.064 0.702776 1.72968 0
M  V30 4210 C 396.415 -0.780399 1.80012 0
M  V30 4211 O 395.54 -1.61007 1.44589 0
M  V30 4212 C 396.135 1.26903 3.14135 0
M  V30 4213 C 394.694 1.02909 3.62059 0
M  V30 4214 C 393.841 1.38969 2.39964 0
M  V30 4215 H 396.792 1.16457 1.07812 0
M  V30 4216 H 396.813 0.647223 3.74955 0
M  V30 4217 H 396.325 2.34851 3.08977 0
M  V30 4218 H 394.426 -0.0337979 3.72585 0
M  V30 4219 H 394.539 1.69191 4.48231 0
M  V30 4220 H 392.903 0.808279 2.41535 0
M  V30 4221 H 393.686 2.4792 2.37467 0
M  V30 4222 N 396.131 -1.37776 0.765217 0
M  V30 4223 C 397.378 -1.99849 0.326588 0
M  V30 4224 C 397.706 -1.60746 -1.09504 0
M  V30 4225 O 396.961 -0.84202 -1.76659 0
M  V30 4226 C 397.26 -3.5504 0.410053 0
M  V30 4227 C 396.926 -4.13891 1.78899 0
M  V30 4228 C 395.588 -4.29678 2.16635 0
M  V30 4229 C 397.94 -4.46236 2.69301 0
M  V30 4230 C 395.268 -4.7511 3.44221 0
M  V30 4231 C 397.62 -4.93089 3.9629 0
M  V30 4232 C 396.284 -5.07082 4.34078 0
M  V30 4233 H 395.554 -0.7313 0.119507 0
M  V30 4234 H 398.201 -1.64645 0.977968 0
M  V30 4235 H 396.506 -3.90451 -0.324878 0
M  V30 4236 H 398.203 -4.00966 0.0520699 0
M  V30 4237 H 394.793 -4.02026 1.48569 0
M  V30 4238 H 398.977 -4.3363 2.41409 0
M  V30 4239 H 394.233 -4.84129 3.73402 0
M  V30 4240 H 398.407 -5.17084 4.66472 0
M  V30 4241 H 396.034 -5.42046 5.33001 0
M  V30 4242 N 397.609 -0.515225 -1.4894 0
M  V30 4243 C 398.858 0.0261361 -2.01683 0
M  V30 4244 C 399.171 1.36719 -1.39883 0
M  V30 4245 O 400.377 1.99606 -1.84037 0
M  V30 4246 C 398.833 0.0970111 -3.59769 0
M  V30 4247 C 398.441 -1.23825 -4.30548 0
M  V30 4248 C 400.185 0.587981 -4.20408 0
M  V30 4249 C 398.092 -1.12877 -5.80528 0
M  V30 4250 H 397.022 0.0135398 -0.753878 0
M  V30 4251 H 399.673 -0.656787 -1.71343 0
M  V30 4252 H 398.055 0.844694 -3.86886 0
M  V30 4253 H 399.229 -2.00034 -4.15118 0
M  V30 4254 H 397.544 -1.66379 -3.81716 0
M  V30 4255 H 400.141 0.68763 -5.3026 0
M  V30 4256 H 400.484 1.59026 -3.84729 0
M  V30 4257 H 401.017 -0.103582 -3.97665 0
M  V30 4258 H 397.756 -2.10575 -6.20756 0
M  V30 4259 H 397.276 -0.407799 -5.98412 0
M  V30 4260 H 398.955 -0.813332 -6.41868 0
M  V30 4261 N 399.087 1.5561 -0.249682 0
M  V30 4262 C 400.327 2.00916 0.37579 0
M  V30 4263 C 400.691 1.13409 1.54927 0
M  V30 4264 O 401.892 1.48183 2.24266 0
M  V30 4265 C 400.163 3.48949 0.772633 0
M  V30 4266 S 401.722 4.16261 1.38824 0
M  V30 4267 H 398.54 0.70112 0.118117 0
M  V30 4268 H 401.142 1.92052 -0.365567 0
M  V30 4269 H 399.846 4.103 -0.090683 0
M  V30 4270 H 399.377 3.61745 1.5461 0
M  V30 4271 H 401.392 4.17778 2.67724 0
M  V30 4272 N 400.565 -0.0233959 1.57583 0
M  V30 4273 C 401.79 -0.728376 1.94189 0
M  V30 4274 C 402.215 -1.67793 0.850119 0
M  V30 4275 O 401.573 -1.80262 -0.19371 0
M  V30 4276 C 401.621 -1.45669 3.29868 0
M  V30 4277 O 400.725 -2.57013 3.22518 0
M  V30 4278 H 400.066 -0.195493 0.63457 0
M  V30 4279 H 402.596 0.0228214 2.04587 0
M  V30 4280 H 402.606 -1.82535 3.6489 0
M  V30 4281 H 401.281 -0.760314 4.08891 0
M  V30 4282 H 399.858 -2.22648 2.99136 0
M  V30 4283 N 402.043 -1.548 -0.295768 0
M  V30 4284 C 402.975 -1.82492 -1.3867 0
M  V30 4285 C 403.988 -0.708134 -1.46592 0
M  V30 4286 O 405.177 -0.985686 -1.48817 0
M  V30 4287 C 402.277 -1.95256 -2.76999 0
M  V30 4288 C 401.45 -3.25709 -2.91946 0
M  V30 4289 C 400.509 -3.28824 -4.10806 0
M  V30 4290 O 399.535 -4.02328 -4.02643 0
M  V30 4291 N 400.737 -2.5459 -5.21694 0
M  V30 4292 H 403.502 -2.76646 -1.15269 0
M  V30 4293 H 401.063 -1.54438 -0.485849 0
M  V30 4294 H 403.055 -1.94736 -3.54768 0
M  V30 4295 H 401.625 -1.08072 -2.93324 0
M  V30 4296 H 400.845 -3.38959 -2.01247 0
M  V30 4297 H 402.133 -4.11786 -2.98847 0
M  V30 4298 H 401.531 -1.94512 -5.31208 0
M  V30 4299 H 400.088 -2.59818 -5.97778 0
M  V30 4300 N 403.521 0.559213 -1.47345 0
M  V30 4301 C 404.932 1.14134 -1.47751 0
M  V30 4302 C 405.283 1.94834 -0.231103 0
M  V30 4303 O 404.408 2.05957 0.664137 0
M  V30 4304 C 405.003 2.07653 -2.67705 0
M  V30 4305 C 403.562 2.61141 -2.71076 0
M  V30 4306 C 402.709 1.3748 -2.40821 0
M  V30 4307 H 405.66 0.345917 -1.54884 0
M  V30 4308 H 405.681 2.91497 -2.44561 0
M  V30 4309 H 405.193 1.4889 -3.58404 0
M  V30 4310 H 403.294 3.23707 -1.84511 0
M  V30 4311 H 403.407 3.02272 -3.7171 0
M  V30 4312 H 401.771 1.68086 -1.91362 0
M  V30 4313 H 402.554 0.805135 -3.33725 0
M  V30 4314 N 404.999 1.35443 0.805782 0
M  V30 4315 C 406.415 1.15499 1.10146 0
M  V30 4316 C 406.615 -0.0319975 2.01475 0
M  V30 4317 O 405.671 -0.70236 2.42535 0
M  V30 4318 C 406.984 2.45833 1.73166 0
M  V30 4319 C 408.532 2.52047 1.85583 0
M  V30 4320 C 409.007 3.82427 2.52019 0
M  V30 4321 N 410.498 3.83682 2.59504 0
M  V30 4322 C 411.233 4.81294 3.11679 0
M  V30 4323 N 410.729 5.89294 3.64287 0
M  V30 4324 N 412.522 4.6873 3.1024 0
M  V30 4325 H 404.673 2.11469 0.198678 0
M  V30 4326 H 406.936 0.93594 0.150731 0
M  V30 4327 H 406.642 3.32874 1.13526 0
M  V30 4328 H 406.516 2.6044 2.72857 0
M  V30 4329 H 408.903 1.65435 2.44367 0
M  V30 4330 H 408.984 2.41354 0.847455 0
M  V30 4331 H 408.628 4.69437 1.93885 0
M  V30 4332 H 408.558 3.90409 3.53395 0
M  V30 4333 H 411.049 3.05648 2.22234 0
M  V30 4334 H 411.362 6.59768 4.02401 0
M  V30 4335 H 409.707 5.92985 3.62483 0
M  V30 4336 H 412.898 3.83496 2.68419 0
M  V30 4337 H 413.071 5.44965 3.50596 0
M  V30 4338 N 406.477 -1.02803 1.19454 0
M  V30 4339 C 407.387 -2.14575 0.948408 0
M  V30 4340 C 408.403 -1.73757 -0.091871 0
M  V30 4341 O 409.579 -2.01185 0.0929654 0
M  V30 4342 C 406.644 -3.43202 0.491265 0
M  V30 4343 C 405.705 -3.98328 1.60103 0
M  V30 4344 C 404.938 -5.20816 1.16561 0
M  V30 4345 O 405.161 -5.70392 0.0295238 0
M  V30 4346 O 404.095 -5.68801 1.96849 0
M  V30 4347 H 407.921 -2.38202 1.88397 0
M  V30 4348 H 405.506 -1.12989 0.977433 0
M  V30 4349 H 407.388 -4.20687 0.245015 0
M  V30 4350 H 406.063 -3.21018 -0.415851 0
M  V30 4351 H 404.97 -3.22174 1.90144 0
M  V30 4352 H 406.303 -4.24879 2.48473 0
M  V30 4353 N 407.956 -0.998596 -1.21925 0
M  V30 4354 C 408.904 -0.546641 -2.26085 0
M  V30 4355 C 409.898 0.405576 -1.64473 0
M  V30 4356 O 411.104 0.277471 -1.77849 0
M  V30 4357 H 407.479 -0.158403 -0.735127 0
M  V30 4358 H 409.45 -1.43645 -2.61551 0
M  V30 4359 C 408.199 0.117388 -3.47502 0
M  V30 4360 H 407.522 -0.606277 -3.95176 0
M  V30 4361 H 408.962 0.396993 -4.22137 0
M  V30 4362 C 407.421 1.35455 -3.0847 0
M  V30 4363 O 407.951 2.44944 -3.18379 0
M  V30 4364 N 406.157 1.23191 -2.63196 0
M  V30 4365 H 405.704 0.341006 -2.55333 0
M  V30 4366 H 405.662 2.06071 -2.37449 0
M  V30 4367 N 409.434 1.37368 -0.772513 0
M  V30 4368 C 410.682 1.99279 -0.336516 0
M  V30 4369 C 411.003 1.6163 1.09091 0
M  V30 4370 O 410.273 0.882109 1.74916 0
M  V30 4371 H 408.853 0.737063 -0.121435 0
M  V30 4372 H 411.515 1.67836 -0.990809 0
M  V30 4373 H 410.611 3.09332 -0.414763 0
M  V30 4374 N 410.912 0.523116 1.48665 0
M  V30 4375 C 411.845 -0.290518 2.26343 0
M  V30 4376 C 412.823 -0.950913 1.31895 0
M  V30 4377 O 414.007 -0.976662 1.61225 0
M  V30 4378 C 411.134 -1.41088 3.07915 0
M  V30 4379 C 410.18 -0.862597 4.17686 0
M  V30 4380 S 411.013 0.264135 5.34848 0
M  V30 4381 C 412.169 -0.858864 6.19979 0
M  V30 4382 H 412.402 0.368726 2.95005 0
M  V30 4383 H 409.935 0.30878 1.51281 0
M  V30 4384 H 411.893 -2.0527 3.55492 0
M  V30 4385 H 410.554 -2.04182 2.38681 0
M  V30 4386 H 409.747 -1.70287 4.74361 0
M  V30 4387 H 409.349 -0.297595 3.72814 0
M  V30 4388 H 411.641 -1.7591 6.54264 0
M  V30 4389 H 412.584 -0.330244 7.07329 0
M  V30 4390 H 412.992 -1.13617 5.52948 0
M  V30 4391 N 412.39 -1.55475 0.257931 0
M  V30 4392 C 413.806 -1.59307 -0.0966563 0
M  V30 4393 C 414.006 -1.27514 -1.5602 0
M  V30 4394 O 413.062 -1.02774 -2.30637 0
M  V30 4395 C 414.375 -2.99552 0.262481 0
M  V30 4396 C 415.923 -3.1231 0.207683 0
M  V30 4397 C 416.398 -4.54793 0.541012 0
M  V30 4398 N 417.889 -4.6058 0.491921 0
M  V30 4399 C 418.624 -5.68825 0.722857 0
M  V30 4400 N 418.12 -6.85287 1.0175 0
M  V30 4401 N 419.913 -5.58296 0.652815 0
M  V30 4402 H 412.064 -1.74409 1.21224 0
M  V30 4403 H 414.327 -0.812424 0.48854 0
M  V30 4404 H 414.033 -3.27593 1.27967 0
M  V30 4405 H 413.907 -3.75019 -0.40508 0
M  V30 4406 H 416.294 -2.84044 -0.800195 0
M  V30 4407 H 416.375 -2.39095 0.909255 0
M  V30 4408 H 416.019 -4.83783 1.5465 0
M  V30 4409 H 415.949 -5.26285 -0.18216 0
M  V30 4410 H 418.44 -3.7691 0.273366 0
M  V30 4411 H 418.753 -7.63725 1.18084 0
M  V30 4412 H 417.098 -6.86945 1.05509 0
M  V30 4413 H 420.289 -4.66189 0.422592 0
M  V30 4414 H 420.462 -6.42582 0.836182 0
M  V30 4415 N 413.868 0.0150385 -1.57593 0
M  V30 4416 C 415.093 0.718067 -1.94573 0
M  V30 4417 C 415.518 1.6734 -0.859005 0
M  V30 4418 O 414.876 1.80362 0.184147 0
M  V30 4419 C 414.924 1.43918 -3.30636 0
M  V30 4420 O 414.028 2.55299 -3.23876 0
M  V30 4421 H 413.369 0.192125 -0.635597 0
M  V30 4422 H 415.899 -0.0336708 -2.04572 0
M  V30 4423 H 415.909 1.80598 -3.65853 0
M  V30 4424 H 414.584 0.738619 -4.09289 0
M  V30 4425 H 413.161 2.21058 -3.00312 0
M  V30 4426 N 415.346 1.54954 0.287554 0
M  V30 4427 C 416.586 1.76617 1.02887 0
M  V30 4428 C 416.95 0.547759 1.84021 0
M  V30 4429 O 418.151 0.642365 2.61012 0
M  V30 4430 C 416.422 3.02717 1.89993 0
M  V30 4431 S 417.981 3.45438 2.70588 0
M  V30 4432 H 414.799 0.6207 0.346775 0
M  V30 4433 H 417.401 1.93172 0.30082 0
M  V30 4434 H 416.105 3.89503 1.29287 0
M  V30 4435 H 415.636 2.88787 2.67144 0
M  V30 4436 H 417.651 3.03566 3.92508 0
M  V30 4437 N 416.824 -0.551391 1.4764 0
M  V30 4438 C 418.24 -0.877887 1.33287 0
M  V30 4439 C 418.44 -1.98817 0.327721 0
M  V30 4440 O 417.496 -2.51171 -0.258695 0
M  V30 4441 C 418.809 -1.26563 2.72768 0
M  V30 4442 C 420.357 -1.37673 2.81097 0
M  V30 4443 C 420.832 -1.79799 4.21232 0
M  V30 4444 N 422.323 -1.8694 4.23802 0
M  V30 4445 C 423.058 -2.20876 5.29151 0
M  V30 4446 N 422.554 -2.53386 6.448 0
M  V30 4447 N 424.347 -2.217 5.16532 0
M  V30 4448 H 416.498 0.18153 2.11623 0
M  V30 4449 H 418.761 0.0185514 0.947818 0
M  V30 4450 H 418.467 -0.523591 3.47781 0
M  V30 4451 H 418.341 -2.22052 3.04915 0
M  V30 4452 H 420.728 -2.10956 2.06353 0
M  V30 4453 H 420.809 -0.40357 2.52596 0
M  V30 4454 H 420.453 -1.07083 4.96483 0
M  V30 4455 H 420.383 -2.78128 4.4716 0
M  V30 4456 H 422.874 -1.64179 3.40373 0
M  V30 4457 H 423.187 -2.78325 7.20941 0
M  V30 4458 H 421.532 -2.50953 6.48111 0
M  V30 4459 H 424.723 -1.95745 4.25207 0
M  V30 4460 H 424.896 -2.47818 5.98741 0
M  V30 4461 N 418.302 -1.35869 -0.798587 0
M  V30 4462 C 419.527 -1.32883 -1.59238 0
M  V30 4463 C 419.952 0.0894587 -1.87887 0
M  V30 4464 O 419.31 1.05869 -1.47178 0
M  V30 4465 C 419.358 -2.14892 -2.89575 0
M  V30 4466 O 418.462 -1.53512 -3.82763 0
M  V30 4467 H 417.803 -0.455236 -0.48338 0
M  V30 4468 H 420.333 -1.79024 -0.990539 0
M  V30 4469 H 420.343 -2.27139 -3.38928 0
M  V30 4470 H 419.018 -3.17998 -2.68049 0
M  V30 4471 H 417.595 -1.50153 -3.41334 0
M  V30 4472 N 419.78 1.02168 -1.19998 0
M  V30 4473 C 421.026 1.75945 -1.00852 0
M  V30 4474 C 421.359 1.88702 0.458828 0
M  V30 4475 O 420.634 1.40911 1.34069 0
M  V30 4476 C 420.917 3.18154 -1.68671 0
M  V30 4477 C 420.77 3.13224 -3.22817 0
M  V30 4478 C 422.089 4.16711 -1.41561 0
M  V30 4479 H 419.208 0.638673 -0.367785 0
M  V30 4480 H 421.85 1.19222 -1.4794 0
M  V30 4481 H 420 3.66586 -1.28636 0
M  V30 4482 H 421.672 2.72635 -3.72112 0
M  V30 4483 H 419.915 2.50751 -3.53986 0
M  V30 4484 H 420.586 4.13728 -3.65422 0
M  V30 4485 H 423.062 3.76913 -1.76284 0
M  V30 4486 H 421.938 5.14391 -1.91553 0
M  V30 4487 H 422.199 4.40774 -0.342193 0
M  V30 4488 N 421.258 1.00505 1.21394 0
M  V30 4489 C 422.669 0.721082 1.72213 0
M  V30 4490 C 423.02 -0.761263 1.80829 0
M  V30 4491 O 422.145 -1.59464 1.46288 0
M  V30 4492 C 422.74 1.30228 3.12772 0
M  V30 4493 C 421.299 1.06743 3.60947 0
M  V30 4494 C 420.446 1.41507 2.38477 0
M  V30 4495 H 423.397 1.17594 1.06571 0
M  V30 4496 H 423.418 0.686955 3.74247 0
M  V30 4497 H 422.93 2.38115 3.06468 0
M  V30 4498 H 421.031 0.00572162 3.726 0
M  V30 4499 H 421.144 1.73936 4.46411 0
M  V30 4500 H 419.508 0.833852 2.40664 0
M  V30 4501 H 420.291 2.50424 2.34824 0
M  V30 4502 N 422.737 -1.36956 0.779787 0
M  V30 4503 C 423.965 -2.03755 0.359398 0
M  V30 4504 C 424.38 -1.58807 -1.02106 0
M  V30 4505 O 423.737 -0.773024 -1.6532 0
M  V30 4506 C 423.788 -3.59251 0.402568 0
M  V30 4507 O 423.509 -4.02557 1.72858 0
M  V30 4508 C 425.01 -4.43291 -0.0284068 0
M  V30 4509 H 422.23 -0.654148 0.149437 0
M  V30 4510 H 424.774 -1.75128 1.05595 0
M  V30 4511 H 422.929 -3.86621 -0.245478 0
M  V30 4512 H 423.343 -4.97111 1.67275 0
M  V30 4513 H 424.817 -5.51975 0.0529466 0
M  V30 4514 H 425.294 -4.25719 -1.07982 0
M  V30 4515 H 425.9 -4.21163 0.591758 0
M  V30 4516 N 424.215 -0.530993 -1.48385 0
M  V30 4517 C 425.145 0.219985 -2.32461 0
M  V30 4518 C 426.126 0.934111 -1.42156 0
M  V30 4519 O 427.311 0.919694 -1.71042 0
M  V30 4520 C 424.441 1.26674 -3.23375 0
M  V30 4521 C 423.395 0.67069 -4.22712 0
M  V30 4522 C 422.721 1.82017 -5.02766 0
M  V30 4523 C 424.021 -0.358268 -5.2107 0
M  V30 4524 H 425.715 -0.48187 -2.95497 0
M  V30 4525 H 423.261 -0.233182 -1.42099 0
M  V30 4526 H 425.214 1.80006 -3.81019 0
M  V30 4527 H 423.938 1.99818 -2.58341 0
M  V30 4528 H 422.597 0.158878 -3.66256 0
M  V30 4529 H 422.245 2.54002 -4.34157 0
M  V30 4530 H 421.945 1.42727 -5.70003 0
M  V30 4531 H 423.469 2.35725 -5.63264 0
M  V30 4532 H 424.883 0.0880081 -5.73232 0
M  V30 4533 H 423.28 -0.66861 -5.96364 0
M  V30 4534 H 424.35 -1.26367 -4.68145 0
M  V30 4535 N 425.693 1.55336 -0.266172 0
M  V30 4536 C 427.109 1.59356 0.0882065 0
M  V30 4537 C 427.309 1.2834 1.55342 0
M  V30 4538 O 426.365 1.03996 2.30089 0
M  V30 4539 C 427.678 2.99409 -0.278364 0
M  V30 4540 C 429.226 3.12196 -0.224243 0
M  V30 4541 C 429.701 4.545 -0.565123 0
M  V30 4542 N 431.192 4.60313 -0.51634 0
M  V30 4543 C 431.927 5.68434 -0.753013 0
M  V30 4544 N 431.423 6.84738 -1.05383 0
M  V30 4545 N 433.216 5.57942 -0.682414 0
M  V30 4546 H 425.367 1.73764 -1.22147 0
M  V30 4547 H 427.63 0.809822 -0.492841 0
M  V30 4548 H 427.336 3.2691 -1.29703 0
M  V30 4549 H 427.21 3.75228 0.385186 0
M  V30 4550 H 429.597 2.84464 0.78512 0
M  V30 4551 H 429.678 2.38609 -0.921922 0
M  V30 4552 H 429.322 4.82956 -1.57213 0
M  V30 4553 H 429.252 5.26374 0.154248 0
M  V30 4554 H 431.743 3.7676 -0.29335 0
M  V30 4555 H 432.056 7.63088 -1.22133 0
M  V30 4556 H 430.401 6.86375 -1.09151 0
M  V30 4557 H 433.592 4.65958 -0.44731 0
M  V30 4558 H 433.765 6.4213 -0.870248 0
M  V30 4559 N 427.171 -0.0066808 1.57599 0
M  V30 4560 C 428.419 -0.691552 1.899 0
M  V30 4561 C 428.74 -1.74682 0.866672 0
M  V30 4562 O 428.01 -1.95661 -0.0968189 0
M  V30 4563 H 426.59 -0.258416 0.700878 0
M  V30 4564 H 429.252 0.0326655 1.94873 0
M  V30 4565 H 428.348 -1.16702 2.8946 0
M  V30 4566 N 428.649 -1.55105 -0.279332 0
M  V30 4567 C 429.926 -1.66119 -1.03267 0
M  V30 4568 C 430.306 -0.523525 -2.04505 0
M  V30 4569 O 429.654 0.477194 -2.23462 0
M  V30 4570 C 429.864 -3.05067 -1.69515 0
M  V30 4571 C 431.212 -3.62606 -2.20912 0
M  V30 4572 O 432.236 -3.07659 -1.79512 0
M  V30 4573 O 431.095 -4.58861 -2.96831 0
M  V30 4574 H 428.189 -0.674429 -0.478618 0
M  V30 4575 H 430.735 -1.67446 -0.275694 0
M  V30 4576 H 429.507 -3.79311 -0.9612 0
M  V30 4577 H 429.13 -3.07611 -2.51915 0
M  V30 4578 N 430.127 0.543554 -1.4793 0
M  V30 4579 C 431.375 1.29752 -1.54948 0
M  V30 4580 C 431.696 1.93764 -0.219242 0
M  V30 4581 O 430.966 1.80639 0.75805 0
M  V30 4582 H 429.546 0.481874 -0.570795 0
M  V30 4583 H 432.208 0.633636 -1.84312 0
M  V30 4584 H 431.304 2.08392 -2.32334 0
M  V30 4585 N 431.605 1.3629 0.791371 0
M  V30 4586 C 432.853 1.30154 1.5461 0
M  V30 4587 C 433.174 -0.119409 1.94634 0
M  V30 4588 O 432.444 -1.05924 1.64794 0
M  V30 4589 H 431.024 0.478784 0.573389 0
M  V30 4590 H 433.686 1.70565 0.94306 0
M  V30 4591 H 432.782 1.92762 2.45457 0
M  V30 4592 N 433.083 -1.0153 1.20538 0
M  V30 4593 C 434.331 -1.74803 1.01432 0
M  V30 4594 C 434.652 -1.8963 -0.454456 0
M  V30 4595 O 433.922 -1.43975 -1.32846 0
M  V30 4596 H 432.502 -0.647598 0.372324 0
M  V30 4597 H 435.164 -1.22402 1.5167 0
M  V30 4598 H 434.26 -2.75114 1.47373 0
M  V30 4599 N 434.561 -1.01147 -1.20859 0
M  V30 4600 C 435.809 -0.696486 -1.89719 0
M  V30 4601 C 436.13 0.775788 -1.78904 0
M  V30 4602 O 435.4 1.55759 -1.18811 0
M  V30 4603 H 433.98 -0.254628 -0.702263 0
M  V30 4604 H 436.642 -1.28197 -1.46804 0
M  V30 4605 H 435.738 -0.975357 -2.96468 0
M  V30 4606 N 436.039 1.36541 -0.78704 0
M  V30 4607 C 437.45 1.81873 -0.421807 0
M  V30 4608 C 437.801 1.65487 1.05397 0
M  V30 4609 O 436.926 1.17448 1.81755 0
M  V30 4610 C 437.521 3.30192 -0.758841 0
M  V30 4611 C 436.08 3.73743 -0.446468 0
M  V30 4612 C 435.227 2.58844 -0.994728 0
M  V30 4613 H 438.178 1.24796 -0.98039 0
M  V30 4614 H 438.199 3.80468 -0.0490648 0
M  V30 4615 H 437.711 3.42087 -1.83299 0
M  V30 4616 H 435.812 3.6741 0.619739 0
M  V30 4617 H 435.925 4.69272 -0.965415 0
M  V30 4618 H 434.289 2.51245 -0.418087 0
M  V30 4619 H 435.072 2.73525 -2.07458 0
M  V30 4620 N 437.518 0.538854 1.48102 0
M  V30 4621 C 438.929 0.100679 1.86428 0
M  V30 4622 C 439.28 -1.32447 1.44749 0
M  V30 4623 O 438.405 -1.99339 0.842199 0
M  V30 4624 C 439 0.175933 3.38343 0
M  V30 4625 C 437.559 -0.207098 3.7583 0
M  V30 4626 C 436.706 0.531741 2.72154 0
M  V30 4627 H 439.657 0.749614 1.3988 0
M  V30 4628 H 439.678 -0.610144 3.75576 0
M  V30 4629 H 439.19 1.21328 3.68648 0
M  V30 4630 H 437.291 -1.24626 3.5114 0
M  V30 4631 H 437.404 0.138687 4.78899 0
M  V30 4632 H 435.768 -0.0230462 2.5469 0
M  V30 4633 H 436.551 1.56989 3.05302 0
M  V30 4634 N 438.996 -1.55193 0.274407 0
M  V30 4635 C 440.236 -2.01488 -0.343778 0
M  V30 4636 C 440.6 -1.1586 -1.53103 0
M  V30 4637 O 441.801 -1.51732 -2.2188 0
M  V30 4638 C 440.072 -3.50134 -0.717021 0
M  V30 4639 S 441.631 -4.18417 -1.32184 0
M  V30 4640 H 438.449 -0.70291 -0.106948 0
M  V30 4641 H 441.051 -1.91446 0.396075 0
M  V30 4642 H 439.755 -4.10104 0.155947 0
M  V30 4643 H 439.286 -3.64159 -1.48835 0
M  V30 4644 H 441.301 -4.21984 -2.61044 0
M  V30 4645 N 440.474 -0.00167713 -1.576 0
M  V30 4646 C 441.722 0.681471 -1.90264 0
M  V30 4647 C 442.043 1.7422 -0.875924 0
M  V30 4648 O 441.313 1.95709 0.0864412 0
M  V30 4649 H 439.893 0.254696 -0.702239 0
M  V30 4650 H 442.555 -0.0429996 -1.94853 0
M  V30 4651 H 441.651 1.15166 -2.90075 0
M  V30 4652 N 441.952 1.55251 0.271103 0
M  V30 4653 C 442.882 1.9127 1.33933 0
M  V30 4654 C 443.863 0.77478 1.5143 0
M  V30 4655 O 445.048 1.03307 1.64442 0
M  V30 4656 C 442.178 2.18627 2.69851 0
M  V30 4657 C 441.132 3.34442 2.67081 0
M  V30 4658 C 440.458 3.47284 4.06569 0
M  V30 4659 C 441.758 4.70784 2.26185 0
M  V30 4660 H 443.452 2.80744 1.04035 0
M  V30 4661 H 440.998 1.35077 0.499017 0
M  V30 4662 H 442.951 2.42413 3.44694 0
M  V30 4663 H 441.675 1.25955 3.01335 0
M  V30 4664 H 440.334 3.10627 1.94695 0
M  V30 4665 H 439.982 2.52074 4.35279 0
M  V30 4666 H 439.682 4.25152 4.0561 0
M  V30 4667 H 441.206 3.73363 4.83148 0
M  V30 4668 H 442.62 4.94102 2.90751 0
M  V30 4669 H 441.017 5.51582 2.36384 0
M  V30 4670 H 442.087 4.69478 1.21319 0
M  V30 4671 N 443.43 -0.535701 1.48216 0
M  V30 4672 C 444.707 -1.29683 1.46429 0
M  V30 4673 C 445.087 -2.10391 0.172852 0
M  V30 4674 O 444.435 -2.12282 -0.845488 0
M  V30 4675 C 444.645 -2.18313 2.72287 0
M  V30 4676 C 445.993 -2.78639 3.20383 0
M  V30 4677 O 447.017 -2.28604 2.73164 0
M  V30 4678 O 445.876 -3.69636 4.02531 0
M  V30 4679 H 442.97 -0.585026 0.584529 0
M  V30 4680 H 445.516 -0.552827 1.60443 0
M  V30 4681 H 444.288 -1.58421 3.57797 0
M  V30 4682 H 443.911 -2.99971 2.60966 0
M  V30 4683 N 444.908 -1.36708 -0.784132 0
M  V30 4684 C 446.138 -1.34203 -1.57077 0
M  V30 4685 C 446.546 0.0774945 -1.89041 0
M  V30 4686 O 445.889 1.04628 -1.50992 0
M  V30 4687 C 445.951 -2.10351 -2.91535 0
M  V30 4688 C 445.615 -3.59405 -2.82272 0
M  V30 4689 C 446.612 -4.53545 -2.54151 0
M  V30 4690 C 444.297 -4.02362 -3.00683 0
M  V30 4691 C 446.291 -5.8862 -2.44551 0
M  V30 4692 C 443.978 -5.37526 -2.90704 0
M  V30 4693 C 444.976 -6.30468 -2.62677 0
M  V30 4694 O 444.664 -7.63149 -2.52702 0
M  V30 4695 H 444.396 -0.461791 -0.493685 0
M  V30 4696 H 446.95 -1.80475 -0.980712 0
M  V30 4697 H 445.18 -1.5875 -3.52612 0
M  V30 4698 H 446.869 -2.00636 -3.52845 0
M  V30 4699 H 447.635 -4.21669 -2.39625 0
M  V30 4700 H 443.514 -3.30389 -3.21503 0
M  V30 4701 H 447.058 -6.61133 -2.22596 0
M  V30 4702 H 442.955 -5.69008 -3.04795 0
M  V30 4703 H 443.723 -7.73331 -2.68144 0
M  V30 4704 N 446.386 1.0089 -1.21074 0
M  V30 4705 C 447.296 2.13039 -0.982425 0
M  V30 4706 C 448.312 1.73881 0.0642161 0
M  V30 4707 O 449.488 2.01012 -0.12496 0
M  V30 4708 C 446.553 3.42377 -0.545803 0
M  V30 4709 C 445.614 3.95731 -1.6642 0
M  V30 4710 C 444.847 5.18896 -1.24832 0
M  V30 4711 O 445.07 5.70273 -0.120265 0
M  V30 4712 O 444.004 5.65597 -2.05873 0
M  V30 4713 H 447.83 2.35175 -1.92163 0
M  V30 4714 H 445.415 1.1142 -0.995285 0
M  V30 4715 H 447.297 4.20244 -0.311912 0
M  V30 4716 H 445.972 3.21639 0.364727 0
M  V30 4717 H 444.879 3.19108 -1.95246 0
M  V30 4718 H 446.212 4.20872 -2.55201 0
M  V30 4719 N 447.864 1.01787 1.20321 0
M  V30 4720 C 448.827 0.593972 2.2137 0
M  V30 4721 C 449.827 -0.336553 1.57239 0
M  V30 4722 O 451.017 -0.125069 1.7375 0
M  V30 4723 C 448.149 -0.132433 3.40643 0
M  V30 4724 H 449.342 1.48791 2.60387 0
M  V30 4725 H 446.895 0.807803 1.33807 0
M  V30 4726 H 447.63 -1.04123 3.0713 0
M  V30 4727 H 447.415 0.53605 3.88418 0
M  V30 4728 H 448.905 -0.416314 4.1552 0
M  V30 4729 N 449.342 -1.36122 0.79427 0
M  V30 4730 C 450.572 -2.03067 0.380437 0
M  V30 4731 C 450.98 -1.60018 -1.00949 0
M  V30 4732 O 450.323 -0.787425 -1.65968 0
M  V30 4733 C 450.385 -3.57587 0.37034 0
M  V30 4734 C 450.049 -4.23855 1.70867 0
M  V30 4735 C 451.046 -4.46404 2.66496 0
M  V30 4736 C 448.731 -4.61229 1.9893 0
M  V30 4737 C 450.725 -5.05412 3.88378 0
M  V30 4738 C 448.412 -5.19953 3.21079 0
M  V30 4739 C 449.41 -5.41985 4.15621 0
M  V30 4740 O 449.098 -5.99475 5.35616 0
M  V30 4741 H 448.83 -0.658168 0.154243 0
M  V30 4742 H 451.384 -1.7498 1.0757 0
M  V30 4743 H 449.614 -3.84814 -0.381444 0
M  V30 4744 H 451.303 -4.05895 -0.0194894 0
M  V30 4745 H 452.069 -4.17921 2.46103 0
M  V30 4746 H 447.948 -4.43402 1.26158 0
M  V30 4747 H 451.492 -5.22524 4.62185 0
M  V30 4748 H 447.389 -5.47862 3.41347 0
M  V30 4749 H 448.157 -6.17937 5.36745 0
M  V30 4750 N 450.82 -0.546701 -1.47814 0
M  V30 4751 C 451.768 0.220048 -2.31557 0
M  V30 4752 C 452.762 0.919472 -1.42275 0
M  V30 4753 O 453.968 0.841953 -1.59095 0
M  V30 4754 H 450.343 0.0898334 -0.746615 0
M  V30 4755 H 452.314 -0.505589 -2.94086 0
M  V30 4756 C 451.063 1.24353 -3.24702 0
M  V30 4757 H 450.386 0.714758 -3.93359 0
M  V30 4758 H 451.826 1.75112 -3.8615 0
M  V30 4759 C 450.285 2.28593 -2.47481 0
M  V30 4760 O 450.815 3.35334 -2.21165 0
M  V30 4761 N 449.021 2.02244 -2.08676 0
M  V30 4762 H 448.568 1.15455 -2.30278 0
M  V30 4763 H 448.526 2.72207 -1.57323 0
M  V30 4764 N 452.299 1.55045 -0.282633 0
M  V30 4765 C 453.524 2.04628 0.337977 0
M  V30 4766 C 453.949 1.15937 1.48123 0
M  V30 4767 O 453.307 0.159532 1.80597 0
M  V30 4768 C 453.355 3.51854 0.78936 0
M  V30 4769 O 452.459 3.66236 1.89592 0
M  V30 4770 H 451.8 0.660434 0.0687261 0
M  V30 4771 H 454.33 2.00261 -0.419124 0
M  V30 4772 H 454.34 3.93361 1.08311 0
M  V30 4773 H 453.015 4.15873 -0.0470419 0
M  V30 4774 H 451.592 3.36633 1.60413 0
M  V30 4775 N 453.777 0.010035 1.57597 0
M  V30 4776 C 455.002 -0.687021 1.95691 0
M  V30 4777 C 455.427 -1.65952 0.885519 0
M  V30 4778 O 454.785 -1.80633 -0.15543 0
M  V30 4779 C 454.833 -1.3864 3.32884 0
M  V30 4780 O 453.937 -2.50115 3.27897 0
M  V30 4781 H 453.278 -0.181989 0.638573 0
M  V30 4782 H 455.808 0.0662122 2.04493 0
M  V30 4783 H 455.818 -1.74754 3.6868 0
M  V30 4784 H 454.493 -0.673411 4.10412 0
M  V30 4785 H 453.07 -2.16253 3.03791 0
M  V30 4786 N 455.255 -1.55392 -0.262866 0
M  V30 4787 C 456.48 -1.80847 -1.01533 0
M  V30 4788 C 456.905 -0.584946 -1.78774 0
M  V30 4789 O 456.263 0.465701 -1.75217 0
M  V30 4790 C 456.311 -3.03866 -1.94159 0
M  V30 4791 O 455.415 -2.79662 -3.03089 0
M  V30 4792 H 454.756 -0.597441 -0.289759 0
M  V30 4793 H 457.286 -2.02553 -0.288698 0
M  V30 4794 H 457.296 -3.32872 -2.35924 0
M  V30 4795 H 455.971 -3.92564 -1.37354 0
M  V30 4796 H 454.548 -2.61781 -2.65566 0
M  V30 4797 N 456.733 0.527833 -1.48498 0
M  V30 4798 C 457.681 1.65313 -1.63628 0
M  V30 4799 C 458.675 1.6177 -0.502676 0
M  V30 4800 O 459.881 1.66601 -0.681469 0
M  V30 4801 H 456.256 0.547518 -0.515488 0
M  V30 4802 H 458.227 1.49696 -2.58135 0
M  V30 4803 C 456.976 3.03576 -1.6952 0
M  V30 4804 H 456.299 3.06997 -2.56111 0
M  V30 4805 H 457.739 3.81923 -1.84149 0
M  V30 4806 C 456.198 3.34089 -0.43432 0
M  V30 4807 O 456.728 3.99151 0.451852 0
M  V30 4808 N 454.934 2.88991 -0.305368 0
M  V30 4809 H 454.481 2.36222 -1.02747 0
M  V30 4810 H 454.439 3.09776 0.537249 0
M  V30 4811 N 458.211 1.37122 0.776871 0
M  V30 4812 C 459.439 1.3523 1.5659 0
M  V30 4813 C 459.854 -0.0635518 1.88693 0
M  V30 4814 O 459.211 -1.02394 1.51069 0
M  V30 4815 C 459.262 2.18583 2.8793 0
M  V30 4816 O 458.983 3.5465 2.57206 0
M  V30 4817 C 460.484 2.24612 3.82183 0
M  V30 4818 H 457.704 0.4634 0.485285 0
M  V30 4819 H 460.248 1.80392 0.963266 0
M  V30 4820 H 458.403 1.76943 3.4463 0
M  V30 4821 H 458.817 3.98286 3.41275 0
M  V30 4822 H 460.291 2.87267 4.71361 0
M  V30 4823 H 460.768 1.25309 4.20944 0
M  V30 4824 H 461.374 2.66543 3.31414 0
M  V30 4825 N 459.689 -1.00246 1.21608 0
M  V30 4826 C 460.917 -1.77631 1.06089 0
M  V30 4827 C 461.332 -1.84746 -0.38916 0
M  V30 4828 O 460.689 -1.31068 -1.26994 0
M  V30 4829 C 460.74 -3.21415 1.65453 0
M  V30 4830 O 460.461 -3.14703 3.04785 0
M  V30 4831 C 461.962 -4.15289 1.55079 0
M  V30 4832 H 459.182 -0.558162 0.37242 0
M  V30 4833 H 461.726 -1.26093 1.60999 0
M  V30 4834 H 459.881 -3.70053 1.14629 0
M  V30 4835 H 460.295 -4.05056 3.33212 0
M  V30 4836 H 461.769 -5.13965 2.01355 0
M  V30 4837 H 462.246 -4.36279 0.505665 0
M  V30 4838 H 462.852 -3.72543 2.05163 0
M  V30 4839 N 461.167 -1.02423 -1.1978 0
M  V30 4840 C 462.407 -0.726635 -1.91048 0
M  V30 4841 C 462.771 0.730947 -1.77542 0
M  V30 4842 O 463.972 1.14141 -2.43362 0
M  V30 4843 C 462.243 -1.15964 -3.38064 0
M  V30 4844 S 463.802 -0.985172 -4.27598 0
M  V30 4845 H 460.62 -0.264679 -0.659899 0
M  V30 4846 H 463.222 -1.31309 -1.44838 0
M  V30 4847 H 461.926 -2.21619 -3.45417 0
M  V30 4848 H 461.457 -0.566274 -3.89303 0
M  V30 4849 H 463.472 0.106946 -4.96085 0
M  V30 4850 N 462.645 1.35699 -0.801477 0
M  V30 4851 C 463.891 1.99208 -0.380022 0
M  V30 4852 C 464.224 1.63445 1.04878 0
M  V30 4853 O 463.499 0.895223 1.72673 0
M  V30 4854 C 463.782 3.55755 -0.557708 0
M  V30 4855 C 463.635 4.01332 -2.03107 0
M  V30 4856 C 464.954 4.40096 0.0197968 0
M  V30 4857 H 462.073 0.723667 -0.139552 0
M  V30 4858 H 464.715 1.60928 -1.01006 0
M  V30 4859 H 462.865 3.88494 -0.0213741 0
M  V30 4860 H 464.537 3.79026 -2.62939 0
M  V30 4861 H 462.78 3.52429 -2.52936 0
M  V30 4862 H 463.451 5.10234 -2.1063 0
M  V30 4863 H 465.927 4.13786 -0.438179 0
M  V30 4864 H 464.803 5.48735 -0.134477 0
M  V30 4865 H 465.064 4.2786 1.11303 0
M  V30 4866 N 464.123 0.554532 1.47522 0
M  V30 4867 C 465.071 -0.207765 2.3167 0
M  V30 4868 C 466.065 -0.911914 1.4276 0
M  V30 4869 O 467.271 -0.833504 1.59539 0
M  V30 4870 H 463.646 -0.0858726 0.747081 0
M  V30 4871 H 465.617 0.521178 2.93813 0
M  V30 4872 C 464.366 -1.2263 3.25357 0
M  V30 4873 H 463.689 -0.693887 3.93732 0
M  V30 4874 H 465.129 -1.73062 3.87073 0
M  V30 4875 C 463.588 -2.27278 2.4869 0
M  V30 4876 O 464.118 -3.34156 2.22941 0
M  V30 4877 N 462.324 -2.01134 2.09746 0
M  V30 4878 H 461.871 -1.14232 2.30887 0
M  V30 4879 H 461.829 -2.71369 1.58765 0
M  V30 4880 N 465.601 -1.54893 0.290851 0
M  V30 4881 C 466.847 -2.00949 -0.314784 0
M  V30 4882 C 467.202 -1.1757 -1.52299 0
M  V30 4883 O 466.495 -0.241558 -1.90071 0
M  V30 4884 C 466.689 -3.49815 -0.732397 0
M  V30 4885 C 466.518 -4.47603 0.433799 0
M  V30 4886 C 465.288 -4.96806 0.922599 0
M  V30 4887 C 467.486 -4.98233 1.27546 0
M  V30 4888 N 465.468 -5.78426 2.05662 0
M  V30 4889 C 466.839 -5.77455 2.25712 0
M  V30 4890 C 468.894 -4.80439 1.307 0
M  V30 4891 C 467.597 -6.40778 3.26796 0
M  V30 4892 C 469.623 -5.44574 2.30637 0
M  V30 4893 C 468.985 -6.23619 3.27533 0
M  V30 4894 H 465.084 -0.777905 -0.0799257 0
M  V30 4895 H 467.668 -1.9015 0.418458 0
M  V30 4896 H 465.839 -3.60925 -1.43483 0
M  V30 4897 H 467.571 -3.82681 -1.31671 0
M  V30 4898 H 464.326 -4.70961 0.49926 0
M  V30 4899 H 464.75 -6.23923 2.62772 0
M  V30 4900 H 469.392 -4.18918 0.571622 0
M  V30 4901 H 467.11 -7.01439 4.01258 0
M  V30 4902 H 470.696 -5.32739 2.33838 0
M  V30 4903 H 469.576 -6.72367 4.03599 0
M  V30 4904 N 467.08 -0.0183926 -1.57589 0
M  V30 4905 C 468.028 0.985111 -2.10709 0
M  V30 4906 C 469.022 1.34397 -1.0312 0
M  V30 4907 O 470.228 1.32746 -1.21567 0
M  V30 4908 H 466.603 0.335418 -0.673052 0
M  V30 4909 H 468.574 0.511689 -2.9398 0
M  V30 4910 C 467.323 2.26202 -2.64061 0
M  V30 4911 H 466.646 1.9946 -3.4649 0
M  V30 4912 H 468.086 2.94652 -3.04887 0
M  V30 4913 C 466.545 2.98444 -1.5631 0
M  V30 4914 O 467.075 3.90142 -0.956674 0
M  V30 4915 N 465.281 2.6059 -1.28612 0
M  V30 4916 H 464.828 1.86101 -1.78112 0
M  V30 4917 H 464.786 3.09238 -0.567406 0
M  V30 4918 N 468.558 1.5553 0.254621 0
M  V30 4919 C 469.49 1.86104 1.33783 0
M  V30 4920 C 470.503 0.746752 1.44663 0
M  V30 4921 O 471.692 1.0248 1.46151 0
M  V30 4922 C 468.792 2.02532 2.71724 0
M  V30 4923 C 467.965 3.33335 2.83208 0
M  V30 4924 C 467.024 3.396 4.01943 0
M  V30 4925 O 466.05 4.12862 3.91834 0
M  V30 4926 N 467.252 2.68332 5.1476 0
M  V30 4927 H 470.017 2.79605 1.07893 0
M  V30 4928 H 467.578 1.55672 0.444732 0
M  V30 4929 H 469.57 2.04074 3.4948 0
M  V30 4930 H 468.14 1.15811 2.90356 0
M  V30 4931 H 467.36 3.44176 1.92189 0
M  V30 4932 H 468.648 4.19565 2.87824 0
M  V30 4933 H 468.046 2.08528 5.25864 0
M  V30 4934 H 466.603 2.75575 5.90679 0
M  V30 4935 N 470.036 -0.519951 1.48776 0
M  V30 4936 C 471.266 -1.29783 1.60748 0
M  V30 4937 C 471.674 -1.87253 0.27072 0
M  V30 4938 O 471.017 -1.67628 -0.751438 0
M  V30 4939 C 471.079 -2.47984 2.60277 0
M  V30 4940 C 470.743 -2.11526 4.051 0
M  V30 4941 C 471.74 -1.66608 4.92481 0
M  V30 4942 C 469.425 -2.21742 4.50706 0
M  V30 4943 C 471.419 -1.32384 6.23501 0
M  V30 4944 C 469.106 -1.87129 5.81744 0
M  V30 4945 C 470.104 -1.42523 6.67964 0
M  V30 4946 O 469.792 -1.0837 7.96562 0
M  V30 4947 H 469.524 -0.400562 0.544542 0
M  V30 4948 H 472.078 -0.632879 1.95407 0
M  V30 4949 H 470.308 -3.17493 2.2076 0
M  V30 4950 H 471.997 -3.10036 2.61978 0
M  V30 4951 H 472.763 -1.58178 4.58481 0
M  V30 4952 H 468.642 -2.55415 3.83776 0
M  V30 4953 H 472.186 -0.974949 6.90754 0
M  V30 4954 H 468.083 -1.95204 6.15277 0
M  V30 4955 H 468.851 -1.21681 8.09405 0
M  V30 4956 N 471.514 -1.37532 -0.769588 0
M  V30 4957 C 472.744 -1.35861 -1.55645 0
M  V30 4958 C 473.152 0.0574398 -1.89113 0
M  V30 4959 O 472.495 1.03021 -1.52093 0
M  V30 4960 C 472.557 -2.13431 -2.89288 0
M  V30 4961 C 472.221 -3.62378 -2.78444 0
M  V30 4962 C 473.218 -4.56215 -2.49326 0
M  V30 4963 C 470.903 -4.05529 -2.96398 0
M  V30 4964 C 472.897 -5.91181 -2.38294 0
M  V30 4965 C 470.584 -5.40579 -2.84987 0
M  V30 4966 C 471.582 -6.33218 -2.55975 0
M  V30 4967 O 471.27 -7.65787 -2.44594 0
M  V30 4968 H 471.002 -0.467001 -0.48876 0
M  V30 4969 H 473.556 -1.81505 -0.961515 0
M  V30 4970 H 471.786 -1.62481 -3.50909 0
M  V30 4971 H 473.475 -2.04368 -3.50697 0
M  V30 4972 H 474.241 -4.24187 -2.35139 0
M  V30 4973 H 470.12 -3.33781 -3.1798 0
M  V30 4974 H 473.664 -6.63457 -2.15571 0
M  V30 4975 H 469.561 -5.72209 -2.98743 0
M  V30 4976 H 470.329 -7.76132 -2.59927 0
M  V30 4977 N 472.992 0.995999 -1.22138 0
M  V30 4978 C 474.22 1.77066 -1.07029 0
M  V30 4979 C 474.635 1.8495 0.379357 0
M  V30 4980 O 473.992 1.3174 1.26297 0
M  V30 4981 C 474.043 3.20533 -1.67155 0
M  V30 4982 O 473.764 3.13082 -3.06449 0
M  V30 4983 C 475.265 4.14461 -1.5728 0
M  V30 4984 H 472.485 0.556179 -0.375374 0
M  V30 4985 H 475.029 1.25238 -1.61666 0
M  V30 4986 H 473.184 3.6944 -1.16589 0
M  V30 4987 H 473.598 4.03283 -3.35355 0
M  V30 4988 H 475.072 5.1289 -2.04078 0
M  V30 4989 H 475.549 4.36005 -0.528795 0
M  V30 4990 H 476.155 3.71449 -2.07136 0
M  V30 4991 N 474.47 1.03057 1.19235 0
M  V30 4992 C 475.418 0.606391 2.24557 0
M  V30 4993 C 476.412 -0.361826 1.65491 0
M  V30 4994 O 477.618 -0.23022 1.78522 0
M  V30 4995 H 473.993 0.177838 0.730669 0
M  V30 4996 H 475.964 1.50529 2.5765 0
M  V30 4997 C 474.713 -0.0252127 3.47691 0
M  V30 4998 H 474.036 0.710838 3.9343 0
M  V30 4999 H 475.476 -0.284931 4.23042 0
M  V30 5000 C 473.935 -1.27229 3.11953 0
M  V30 5001 O 474.465 -2.36416 3.24762 0
M  V30 5002 N 472.671 -1.16169 2.6637 0
M  V30 5003 H 472.218 -0.273189 2.56147 0
M  V30 5004 H 472.176 -1.99703 2.42829 0
M  V30 5005 N 475.948 -1.35272 0.808662 0
M  V30 5006 C 477.188 -2.00534 0.395668 0
M  V30 5007 C 477.552 -1.62755 -1.01857 0
M  V30 5008 O 478.753 -2.20752 -1.53368 0
M  V30 5009 C 477.024 -3.52732 0.575771 0
M  V30 5010 S 478.583 -4.38067 0.253507 0
M  V30 5011 H 475.401 -0.694962 0.150165 0
M  V30 5012 H 478.003 -1.64823 1.05137 0
M  V30 5013 H 476.707 -3.77714 1.60499 0
M  V30 5014 H 476.238 -3.93285 -0.0951739 0
M  V30 5015 H 478.253 -4.87252 -0.938068 0
M  V30 5016 N 477.426 -0.562348 -1.47226 0
M  V30 5017 C 478.651 -0.0432632 -2.07355 0
M  V30 5018 C 479.076 1.24332 -1.41149 0
M  V30 5019 O 478.434 1.74603 -0.488226 0
M  V30 5020 C 478.482 0.130288 -3.60365 0
M  V30 5021 O 477.586 1.19166 -3.94808 0
M  V30 5022 H 476.927 -0.0536334 -0.66183 0
M  V30 5023 H 479.457 -0.779495 -1.89169 0
M  V30 5024 H 479.467 0.342881 -4.06557 0
M  V30 5025 H 478.142 -0.809389 -4.07948 0
M  V30 5026 H 476.719 0.959153 -3.60354 0
M  V30 5027 N 478.904 1.54736 -0.299062 0
M  V30 5028 C 479.867 2.22127 0.565012 0
M  V30 5029 C 480.867 1.20669 1.06281 0
M  V30 5030 O 482.057 1.45417 0.959145 0
M  V30 5031 C 479.189 2.90611 1.78208 0
M  V30 5032 H 480.382 2.99891 -0.0237448 0
M  V30 5033 H 477.935 1.5622 -0.0498788 0
M  V30 5034 H 478.67 2.16921 2.41072 0
M  V30 5035 H 478.455 3.64984 1.43281 0
M  V30 5036 H 479.945 3.42026 2.396 0
M  V30 5037 N 480.382 0.0267497 1.57577 0
M  V30 5038 C 481.63 -0.651116 1.91324 0
M  V30 5039 C 481.951 -1.72804 0.90353 0
M  V30 5040 O 481.221 -1.95822 -0.0552946 0
M  V30 5041 H 479.801 -0.243491 0.706202 0
M  V30 5042 H 482.463 0.0739935 1.94759 0
M  V30 5043 H 481.559 -1.10536 2.9187 0
M  V30 5044 N 481.861 -1.55662 -0.24637 0
M  V30 5045 C 482.771 -1.93495 -1.32653 0
M  V30 5046 C 483.787 -0.835462 -1.5263 0
M  V30 5047 O 484.963 -1.1369 -1.66242 0
M  V30 5048 C 482.028 -2.22242 -2.66101 0
M  V30 5049 C 481.089 -3.45625 -2.54641 0
M  V30 5050 C 480.322 -3.72991 -3.81724 0
M  V30 5051 O 480.545 -3.02421 -4.8363 0
M  V30 5052 O 479.479 -4.66515 -3.80325 0
M  V30 5053 H 483.305 -2.85498 -1.03559 0
M  V30 5054 H 480.89 -1.42551 -0.44717 0
M  V30 5055 H 482.772 -2.42037 -3.44958 0
M  V30 5056 H 481.447 -1.33417 -2.94926 0
M  V30 5057 H 480.354 -3.31136 -1.74067 0
M  V30 5058 H 481.687 -4.34754 -2.3076 0
M  V30 5059 N 483.339 0.512053 -1.4905 0
M  V30 5060 C 484.289 1.61142 -1.61298 0
M  V30 5061 C 485.273 1.53908 -0.46916 0
M  V30 5062 O 486.465 1.61625 -0.721547 0
M  V30 5063 C 483.594 2.998 -1.67256 0
M  V30 5064 C 482.68 3.12072 -2.87179 0
M  V30 5065 N 483.071 2.94263 -4.11391 0
M  V30 5066 C 481.369 3.43156 -2.84886 0
M  V30 5067 C 482.07 3.10426 -4.91946 0
M  V30 5068 N 481.046 3.38808 -4.251 0
M  V30 5069 H 484.848 1.46011 -2.55065 0
M  V30 5070 H 482.362 0.717934 -1.45669 0
M  V30 5071 H 484.359 3.78794 -1.74128 0
M  V30 5072 H 483.019 3.1601 -0.746195 0
M  V30 5073 H 484.03 2.70661 -4.41546 0
M  V30 5074 H 480.707 3.65611 -2.01581 0
M  V30 5075 H 482.097 3.01243 -6.00585 0
M  V30 5076 N 484.817 1.37938 0.762283 0
M  V30 5077 C 485.765 1.34569 1.89721 0
M  V30 5078 C 486.759 0.232929 1.67791 0
M  V30 5079 O 487.965 0.401485 1.75465 0
M  V30 5080 H 484.34 0.419594 0.624055 0
M  V30 5081 H 486.311 2.30357 1.8968 0
M  V30 5082 C 485.06 1.17898 3.27101 0
M  V30 5083 H 484.383 2.02781 3.44558 0
M  V30 5084 H 485.823 1.19593 4.06784 0
M  V30 5085 C 484.282 -0.114728 3.36705 0
M  V30 5086 O 484.812 -1.0949 3.8649 0
M  V30 5087 N 483.018 -0.16863 2.9011 0
M  V30 5088 H 482.565 0.62967 2.49786 0
M  V30 5089 H 482.523 -1.03383 2.96916 0
M  V30 5090 N 486.295 -0.989507 1.22664 0
M  V30 5091 C 487.706 -1.54406 1.04955 0
M  V30 5092 C 488.057 -1.92366 -0.385951 0
M  V30 5093 O 487.182 -1.75111 -1.27142 0
M  V30 5094 C 487.777 -2.80578 1.89899 0
M  V30 5095 C 486.336 -3.32464 1.76478 0
M  V30 5096 C 485.483 -2.05524 1.86159 0
M  V30 5097 H 488.434 -0.810211 1.3646 0
M  V30 5098 H 488.455 -3.53075 1.4184 0
M  V30 5099 H 487.967 -2.52918 2.94371 0
M  V30 5100 H 486.068 -3.65024 0.747528 0
M  V30 5101 H 486.181 -4.02838 2.59342 0
M  V30 5102 H 484.545 -2.19241 1.29636 0
M  V30 5103 H 485.328 -1.80258 2.92168 0
M  V30 5104 N 487.773 -1.03688 -1.18687 0
M  V30 5105 C 489.02 -0.73803 -1.88572 0
M  V30 5106 C 489.348 0.733973 -1.8012 0
M  V30 5107 O 488.603 1.55098 -1.19344 0
M  V30 5108 C 488.902 -1.14477 -3.3857 0
M  V30 5109 C 488.568 -2.61641 -3.67226 0
M  V30 5110 C 487.23 -3.01846 -3.74757 0
M  V30 5111 C 489.582 -3.56812 -3.79914 0
M  V30 5112 C 486.91 -4.36118 -3.92451 0
M  V30 5113 C 489.262 -4.90799 -3.99123 0
M  V30 5114 C 487.926 -5.3068 -4.04888 0
M  V30 5115 H 487.196 -0.270064 -0.690034 0
M  V30 5116 H 489.843 -1.3012 -1.40503 0
M  V30 5117 H 488.148 -0.500337 -3.88592 0
M  V30 5118 H 489.845 -0.89095 -3.90977 0
M  V30 5119 H 486.435 -2.29498 -3.61979 0
M  V30 5120 H 490.619 -3.26899 -3.73431 0
M  V30 5121 H 485.875 -4.66542 -3.95157 0
M  V30 5122 H 490.049 -5.64451 -4.07882 0
M  V30 5123 H 487.676 -6.34733 -4.18351 0
M  V30 5124 N 489.251 1.34841 -0.815825 0
M  V30 5125 C 490.198 2.29644 -0.230664 0
M  V30 5126 C 491.168 1.53253 0.640533 0
M  V30 5127 O 492.353 1.81653 0.583672 0
M  V30 5128 C 489.493 3.39715 0.607275 0
M  V30 5129 C 488.606 4.31056 -0.28538 0
M  V30 5130 C 487.741 5.28225 0.561446 0
M  V30 5131 C 486.78 6.11204 -0.331035 0
M  V30 5132 N 485.917 7.00483 0.476302 0
M  V30 5133 H 490.757 2.79095 -1.0445 0
M  V30 5134 H 488.294 1.37351 -0.526595 0
M  V30 5135 H 490.252 4.02208 1.10835 0
M  V30 5136 H 488.882 2.91517 1.38629 0
M  V30 5137 H 487.934 3.69487 -0.904621 0
M  V30 5138 H 489.246 4.89239 -0.97193 0
M  V30 5139 H 488.4 5.96135 1.12728 0
M  V30 5140 H 487.139 4.70562 1.28153 0
M  V30 5141 H 486.144 5.42232 -0.909069 0
M  V30 5142 H 487.369 6.70947 -1.04912 0
M  V30 5143 H 485.315 6.45296 1.18019 0
M  V30 5144 H 485.232 7.55847 -0.152008 0
M  V30 5145 H 486.5 7.7273 1.02512 0
M  V30 5146 N 490.729 0.570148 1.46925 0
M  V30 5147 C 491.977 0.0508523 2.02036 0
M  V30 5148 C 492.298 -1.30885 1.44548 0
M  V30 5149 O 491.568 -1.85647 0.625453 0
M  V30 5150 H 490.148 0.0158088 0.746833 0
M  V30 5151 H 492.81 0.743086 1.80178 0
M  V30 5152 H 491.906 -0.027575 3.12088 0
M  V30 5153 N 492.207 -1.54576 0.307264 0
M  V30 5154 C 493.17 -2.22423 -0.553224 0
M  V30 5155 C 494.17 -1.21231 -1.05639 0
M  V30 5156 O 495.36 -1.45923 -0.951419 0
M  V30 5157 C 492.492 -2.91552 -1.76664 0
M  V30 5158 H 493.685 -2.99874 0.0396484 0
M  V30 5159 H 491.238 -1.56192 0.0581629 0
M  V30 5160 H 491.973 -2.18196 -2.39918 0
M  V30 5161 H 491.758 -3.65738 -1.41343 0
M  V30 5162 H 493.248 -3.43292 -2.37783 0
M  V30 5163 N 493.685 -0.035106 -1.57561 0
M  V30 5164 C 494.934 0.641604 -1.91223 0
M  V30 5165 C 495.247 1.72944 -0.913761 0
M  V30 5166 O 496.453 2.46321 -1.14185 0
M  V30 5167 C 494.909 1.19249 -3.3957 0
M  V30 5168 C 494.517 0.137616 -4.47789 0
M  V30 5169 C 496.261 1.84537 -3.82291 0
M  V30 5170 C 494.168 0.700478 -5.87237 0
M  V30 5171 H 493.098 0.243417 -0.713627 0
M  V30 5172 H 495.749 -0.101382 -1.8322 0
M  V30 5173 H 494.131 1.98728 -3.42525 0
M  V30 5174 H 495.305 -0.635153 -4.56402 0
M  V30 5175 H 493.62 -0.416855 -4.14308 0
M  V30 5176 H 496.217 2.27616 -4.83834 0
M  V30 5177 H 496.56 2.69054 -3.17672 0
M  V30 5178 H 497.093 1.11739 -3.81784 0
M  V30 5179 H 493.832 -0.106693 -6.55413 0
M  V30 5180 H 493.352 1.4416 -5.82218 0
M  V30 5181 H 495.031 1.18837 -6.35993 0
M  V30 5182 N 495.163 1.55791 0.238111 0
M  V30 5183 C 496.111 1.91885 1.31464 0
M  V30 5184 C 497.105 0.798929 1.49377 0
M  V30 5185 O 498.311 0.983626 1.50747 0
M  V30 5186 H 494.686 0.609551 0.440399 0
M  V30 5187 H 496.657 2.81747 0.982925 0
M  V30 5188 C 495.406 2.23763 2.6613 0
M  V30 5189 H 494.729 3.09444 2.53149 0
M  V30 5190 H 496.169 2.52915 3.40309 0
M  V30 5191 C 494.628 1.05699 3.1989 0
M  V30 5192 O 495.158 0.309524 4.00506 0
M  V30 5193 N 493.364 0.845251 2.78036 0
M  V30 5194 H 492.911 1.4548 2.12588 0
M  V30 5195 H 492.869 0.0569973 3.14348 0
M  V30 5196 N 496.642 -0.504142 1.49319 0
M  V30 5197 C 497.889 -1.25846 1.58647 0
M  V30 5198 C 498.217 -1.92592 0.27177 0
M  V30 5199 O 497.472 -1.81167 -0.74007 0
M  V30 5200 C 497.771 -2.35021 2.69258 0
M  V30 5201 C 497.437 -1.85755 4.1086 0
M  V30 5202 C 496.099 -1.72038 4.49395 0
M  V30 5203 C 498.451 -1.48844 4.99495 0
M  V30 5204 C 495.779 -1.19783 5.74342 0
M  V30 5205 C 498.131 -0.980422 6.24956 0
M  V30 5206 C 496.795 -0.829622 6.62324 0
M  V30 5207 H 496.065 -0.460505 0.580531 0
M  V30 5208 H 498.712 -0.559716 1.83138 0
M  V30 5209 H 497.017 -3.10672 2.38726 0
M  V30 5210 H 498.714 -2.93083 2.73685 0
M  V30 5211 H 495.304 -1.9739 3.80441 0
M  V30 5212 H 499.488 -1.5829 4.70381 0
M  V30 5213 H 494.744 -1.06817 6.01997 0
M  V30 5214 H 498.918 -0.685608 6.93017 0
M  V30 5215 H 496.545 -0.42253 7.59025 0
M  V30 5216 N 498.12 -1.38341 -0.754957 0
M  V30 5217 C 499.397 -1.24995 -1.50451 0
M  V30 5218 C 499.777 0.149244 -2.10572 0
M  V30 5219 O 499.125 1.15861 -1.96948 0
M  V30 5220 C 499.335 -2.35904 -2.57197 0
M  V30 5221 C 500.683 -2.74262 -3.24138 0
M  V30 5222 O 501.707 -2.35205 -2.67501 0
M  V30 5223 O 500.566 -3.4161 -4.26574 0
M  V30 5224 H 497.66 -0.48872 -0.667144 0
M  V30 5225 H 500.206 -1.50165 -0.790486 0
M  V30 5226 H 498.978 -3.2953 -2.11011 0
M  V30 5227 H 498.601 -2.12291 -3.36182 0
M  V30 5228 N 499.598 0.982988 -1.23187 0
M  V30 5229 C 500.546 2.09616 -1.00817 0
M  V30 5230 C 501.54 1.6932 0.0519995 0
M  V30 5231 O 502.746 1.79715 -0.101284 0
M  V30 5232 H 499.121 0.685628 -0.308899 0
M  V30 5233 H 501.092 2.25652 -1.95253 0
M  V30 5234 C 499.841 3.42249 -0.613243 0
M  V30 5235 H 499.164 3.73705 -1.42073 0
M  V30 5236 H 500.604 4.21086 -0.496208 0
M  V30 5237 C 499.063 3.30002 0.678233 0
M  V30 5238 O 499.593 3.6263 1.72807 0
M  V30 5239 N 497.799 2.83164 0.653165 0
M  V30 5240 H 497.346 2.56811 -0.201492 0
M  V30 5241 H 497.304 2.75352 1.51752 0
M  V30 5242 N 501.076 1.04316 1.18135 0
M  V30 5243 C 502.325 0.74319 1.87509 0
M  V30 5244 C 502.638 -0.732136 1.81381 0
M  V30 5245 O 503.844 -1.14572 2.46141 0
M  V30 5246 C 502.3 1.27913 3.36402 0
M  V30 5247 C 501.908 2.78326 3.51053 0
M  V30 5248 C 503.652 1.0558 4.11161 0
M  V30 5249 C 501.559 3.25266 4.93919 0
M  V30 5250 H 500.489 0.274313 0.702331 0
M  V30 5251 H 503.14 1.25931 1.33467 0
M  V30 5252 H 501.522 0.690853 3.89927 0
M  V30 5253 H 502.696 3.42933 3.07788 0
M  V30 5254 H 501.011 2.991 2.89704 0
M  V30 5255 H 503.608 1.38161 5.16542 0
M  V30 5256 H 503.951 -0.00684729 4.16299 0
M  V30 5257 H 504.484 1.60882 3.63816 0
M  V30 5258 H 501.223 4.30922 4.9395 0
M  V30 5259 H 500.743 2.65396 5.3789 0
M  V30 5260 H 502.422 3.19433 5.62647 0
M  V30 5261 N 502.554 -1.34406 0.822964 0
M  V30 5262 C 503.802 -1.97892 0.410245 0
M  V30 5263 C 504.123 -1.65567 -1.03017 0
M  V30 5264 O 503.393 -0.94642 -1.71522 0
M  V30 5265 H 501.973 -0.732049 0.148707 0
M  V30 5266 H 504.635 -1.64043 1.05242 0
M  V30 5267 H 503.731 -3.07579 0.529284 0
M  V30 5268 N 504.032 -0.577932 -1.46621 0
M  V30 5269 C 505.262 -0.0670668 -2.06491 0
M  V30 5270 C 505.67 1.24119 -1.42798 0
M  V30 5271 O 505.013 1.76016 -0.525759 0
M  V30 5272 C 505.075 0.177995 -3.59059 0
M  V30 5273 C 504.739 -1.04394 -4.44917 0
M  V30 5274 C 505.736 -1.95479 -4.81751 0
M  V30 5275 C 503.421 -1.26444 -4.86125 0
M  V30 5276 C 505.415 -3.06965 -5.58615 0
M  V30 5277 C 503.102 -2.38237 -5.62749 0
M  V30 5278 C 504.1 -3.28327 -5.98908 0
M  V30 5279 O 503.788 -4.38179 -6.73984 0
M  V30 5280 H 503.52 -0.0523159 -0.673973 0
M  V30 5281 H 506.074 -0.796966 -1.89308 0
M  V30 5282 H 504.304 0.962451 -3.74531 0
M  V30 5283 H 505.993 0.636782 -4.00874 0
M  V30 5284 H 506.759 -1.79657 -4.50498 0
M  V30 5285 H 502.638 -0.572316 -4.57434 0
M  V30 5286 H 506.182 -3.77309 -5.86757 0
M  V30 5287 H 502.079 -2.54023 -5.93416 0
M  V30 5288 H 502.847 -4.36486 -6.92403 0
M  V30 5289 N 505.51 1.54411 -0.315457 0
M  V30 5290 C 506.473 2.22713 0.54142 0
M  V30 5291 C 507.473 1.2179 1.04995 0
M  V30 5292 O 508.663 1.46426 0.943667 0
M  V30 5293 C 505.795 2.92485 1.75116 0
M  V30 5294 H 506.988 2.99849 -0.0555508 0
M  V30 5295 H 504.541 1.56159 -0.0664453 0
M  V30 5296 H 505.276 2.19466 2.38758 0
M  V30 5297 H 505.061 3.66483 1.39401 0
M  V30 5298 H 506.551 3.44548 2.35959 0
M  V30 5299 N 506.988 0.0434614 1.5754 0
M  V30 5300 C 508.234 -0.627109 1.93491 0
M  V30 5301 C 508.589 -1.68904 0.921362 0
M  V30 5302 O 507.882 -1.91504 -0.0605799 0
M  V30 5303 C 508.076 -1.2738 3.3393 0
M  V30 5304 C 507.905 -0.27603 4.48852 0
M  V30 5305 C 506.675 0.129244 5.05135 0
M  V30 5306 C 508.873 0.475462 5.12098 0
M  V30 5307 N 506.855 1.12068 6.03584 0
M  V30 5308 C 508.226 1.32021 6.05781 0
M  V30 5309 C 510.281 0.534611 4.95022 0
M  V30 5310 C 508.984 2.2188 6.84223 0
M  V30 5311 C 511.01 1.42059 5.74085 0
M  V30 5312 C 510.372 2.25309 6.67394 0
M  V30 5313 H 506.471 -0.201354 0.755633 0
M  V30 5314 H 509.055 0.113991 1.94366 0
M  V30 5315 H 507.226 -1.98496 3.33847 0
M  V30 5316 H 508.958 -1.90255 3.57191 0
M  V30 5317 H 505.713 -0.248145 4.72949 0
M  V30 5318 H 506.137 1.61306 6.57502 0
M  V30 5319 H 510.779 -0.0947817 4.22694 0
M  V30 5320 H 508.497 2.85868 7.55847 0
M  V30 5321 H 512.083 1.47083 5.62901 0
M  V30 5322 H 510.963 2.92754 7.27506 0
M  V30 5323 N 508.466 -1.55915 -0.229846 0
M  V30 5324 C 509.715 -1.77742 -0.953455 0
M  V30 5325 C 510.028 -0.610524 -1.85828 0
M  V30 5326 O 511.234 -0.712219 -2.61992 0
M  V30 5327 C 509.69 -3.14738 -1.74551 0
M  V30 5328 C 509.298 -4.39126 -0.887242 0
M  V30 5329 C 511.042 -3.45895 -2.46084 0
M  V30 5330 C 508.949 -5.67149 -1.67617 0
M  V30 5331 H 507.879 -0.662648 -0.359741 0
M  V30 5332 H 510.53 -1.82322 -0.207576 0
M  V30 5333 H 508.912 -3.04311 -2.53399 0
M  V30 5334 H 510.086 -4.60588 -0.139892 0
M  V30 5335 H 508.401 -4.15427 -0.284443 0
M  V30 5336 H 510.998 -4.38767 -3.05594 0
M  V30 5337 H 511.341 -2.68007 -3.18556 0
M  V30 5338 H 511.874 -3.57614 -1.74233 0
M  V30 5339 H 508.613 -6.47906 -0.994881 0
M  V30 5340 H 508.133 -5.49763 -2.39836 0
M  V30 5341 H 509.812 -6.07025 -2.23898 0
M  V30 5342 N 509.944 0.496216 -1.49584 0
M  V30 5343 C 510.907 1.57952 -1.66084 0
M  V30 5344 C 511.907 1.51729 -0.53244 0
M  V30 5345 O 513.097 1.54796 -0.79899 0
M  V30 5346 C 510.229 2.97604 -1.66268 0
M  V30 5347 H 511.422 1.44649 -2.6271 0
M  V30 5348 H 508.975 0.7208 -1.38687 0
M  V30 5349 H 509.71 3.16378 -0.712432 0
M  V30 5350 H 509.495 3.03528 -2.4822 0
M  V30 5351 H 510.985 3.76301 -1.81073 0
M  V30 5352 N 511.423 1.38739 0.74761 0
M  V30 5353 C 512.672 1.3459 1.50228 0
M  V30 5354 C 512.985 -0.0595592 1.95509 0
M  V30 5355 O 514.191 -0.22361 2.70578 0
M  V30 5356 C 512.647 2.36377 2.71393 0
M  V30 5357 C 512.255 3.82573 2.33113 0
M  V30 5358 C 513.999 2.41281 3.49262 0
M  V30 5359 C 511.906 4.76032 3.50924 0
M  V30 5360 H 510.836 0.500312 0.564096 0
M  V30 5361 H 513.487 1.64324 0.8167 0
M  V30 5362 H 511.869 1.99694 3.41962 0
M  V30 5363 H 513.043 4.28227 1.70171 0
M  V30 5364 H 511.358 3.80844 1.68365 0
M  V30 5365 H 513.955 3.08301 4.36869 0
M  V30 5366 H 514.298 1.43353 3.9084 0
M  V30 5367 H 514.831 2.76793 2.85711 0
M  V30 5368 H 511.57 5.75177 3.14408 0
M  V30 5369 H 511.09 4.35066 4.12889 0
M  V30 5370 H 512.769 4.94331 4.17427 0
M  V30 5371 N 512.901 -0.976442 1.23707 0
M  V30 5372 C 514.148 -1.71827 1.07153 0
M  V30 5373 C 514.476 -1.9053 -0.390982 0
M  V30 5374 O 513.731 -1.45779 -1.30564 0
M  V30 5375 C 514.03 -3.11814 1.74662 0
M  V30 5376 C 513.696 -3.12978 3.24585 0
M  V30 5377 C 512.358 -3.13003 3.6549 0
M  V30 5378 C 514.71 -3.07986 4.20469 0
M  V30 5379 C 512.038 -3.05757 5.00729 0
M  V30 5380 C 514.39 -3.02282 5.55705 0
M  V30 5381 C 513.054 -3.00631 5.95968 0
M  V30 5382 H 512.324 -0.628758 0.392102 0
M  V30 5383 H 514.971 -1.14239 1.53693 0
M  V30 5384 H 513.276 -3.72812 1.20492 0
M  V30 5385 H 514.973 -3.67989 1.59328 0
M  V30 5386 H 511.563 -3.13718 2.92026 0
M  V30 5387 H 515.747 -3.07103 3.89874 0
M  V30 5388 H 511.003 -3.02834 5.31132 0
M  V30 5389 H 515.177 -2.97376 6.29714 0
M  V30 5390 H 512.804 -2.94771 7.00724 0
M  V30 5391 N 514.379 -1.04941 -1.1758 0
M  V30 5392 C 515.311 -0.606174 -2.21039 0
M  V30 5393 C 516.324 0.328763 -1.59446 0
M  V30 5394 O 517.513 0.121895 -1.78083 0
M  V30 5395 C 514.613 0.133294 -3.38638 0
M  V30 5396 C 513.786 -0.811711 -4.29802 0
M  V30 5397 C 512.845 -0.113958 -5.26077 0
M  V30 5398 O 511.871 -0.747237 -5.64274 0
M  V30 5399 N 513.073 1.14953 -5.69004 0
M  V30 5400 H 515.838 -1.49606 -2.59689 0
M  V30 5401 H 513.399 -0.930997 -1.32454 0
M  V30 5402 H 515.391 0.610144 -4.00074 0
M  V30 5403 H 513.961 0.924816 -2.98607 0
M  V30 5404 H 513.181 -1.46824 -3.65837 0
M  V30 5405 H 514.469 -1.45326 -4.87604 0
M  V30 5406 H 513.867 1.68441 -5.40041 0
M  V30 5407 H 512.424 1.57049 -6.32597 0
M  V30 5408 N 515.857 1.33968 -0.830081 0
M  V30 5409 C 517.103 1.98357 -0.422191 0
M  V30 5410 C 517.436 1.65633 1.01387 0
M  V30 5411 O 516.711 0.931648 1.70735 0
M  V30 5412 C 516.994 3.54492 -0.633043 0
M  V30 5413 C 516.847 3.96934 -2.11574 0
M  V30 5414 C 518.166 4.40039 -0.0735584 0
M  V30 5415 H 515.285 0.720544 -0.154871 0
M  V30 5416 H 517.927 1.58749 -1.04397 0
M  V30 5417 H 516.077 3.88361 -0.103775 0
M  V30 5418 H 517.749 3.73363 -2.7092 0
M  V30 5419 H 515.992 3.46984 -2.60354 0
M  V30 5420 H 516.663 5.05651 -2.21406 0
M  V30 5421 H 519.139 4.12764 -0.52585 0
M  V30 5422 H 518.015 5.48327 -0.250841 0
M  V30 5423 H 518.276 4.30124 1.02202 0
M  V30 5424 N 517.335 0.585699 1.46312 0
M  V30 5425 C 518.584 0.0701192 2.01578 0
M  V30 5426 C 518.897 -1.29889 1.46247 0
M  V30 5427 O 520.103 -1.90598 1.93351 0
M  V30 5428 C 518.559 0.0747499 3.59822 0
M  V30 5429 C 518.167 1.44226 4.24149 0
M  V30 5430 C 519.911 -0.38673 4.22735 0
M  V30 5431 C 517.818 1.40446 5.74481 0
M  V30 5432 H 516.748 0.0224441 0.753666 0
M  V30 5433 H 519.399 0.737789 1.68015 0
M  V30 5434 H 517.781 -0.659144 3.90476 0
M  V30 5435 H 518.955 2.19612 4.05101 0
M  V30 5436 H 517.27 1.84401 3.73343 0
M  V30 5437 H 519.867 -0.433853 5.32937 0
M  V30 5438 H 520.21 -1.40489 3.91878 0
M  V30 5439 H 520.743 0.293195 3.96718 0
M  V30 5440 H 517.482 2.39952 6.10003 0
M  V30 5441 H 517.002 0.692845 5.95785 0
M  V30 5442 H 518.681 1.11865 6.37256 0
M  V30 5443 N 518.813 -1.54241 0.323641 0
M  V30 5444 C 520.041 -2.04985 -0.280871 0
M  V30 5445 C 520.456 -1.19978 -1.45777 0
M  V30 5446 O 519.813 -0.230471 -1.81039 0
M  V30 5447 C 519.864 -3.54353 -0.715258 0
M  V30 5448 O 519.585 -4.36132 0.414817 0
M  V30 5449 C 521.086 -4.21189 -1.38257 0
M  V30 5450 H 518.306 -0.66851 -0.0577502 0
M  V30 5451 H 520.85 -1.99029 0.469852 0
M  V30 5452 H 519.005 -3.60596 -1.41596 0
M  V30 5453 H 519.419 -5.2445 0.0725227 0
M  V30 5454 H 520.893 -5.27154 -1.63745 0
M  V30 5455 H 521.37 -3.72307 -2.32989 0
M  V30 5456 H 521.976 -4.19085 -0.724447 0
M  V30 5457 N 520.291 -0.0518155 -1.57515 0
M  V30 5458 C 521.221 0.920283 -2.146 0
M  V30 5459 C 522.202 1.32406 -1.06783 0
M  V30 5460 O 523.387 1.39866 -1.34726 0
M  V30 5461 C 520.517 2.1949 -2.6915 0
M  V30 5462 C 519.471 1.93116 -3.81956 0
M  V30 5463 C 518.797 3.27037 -4.23026 0
M  V30 5464 C 520.097 1.25225 -5.07066 0
M  V30 5465 H 521.791 0.444801 -2.96077 0
M  V30 5466 H 519.337 0.212508 -1.42423 0
M  V30 5467 H 521.29 2.87894 -3.07725 0
M  V30 5468 H 520.014 2.69244 -1.84865 0
M  V30 5469 H 518.673 1.27123 -3.43854 0
M  V30 5470 H 518.321 3.74595 -3.3569 0
M  V30 5471 H 518.021 3.10189 -4.99056 0
M  V30 5472 H 519.545 3.96673 -4.64202 0
M  V30 5473 H 520.959 1.83666 -5.43083 0
M  V30 5474 H 519.356 1.18702 -5.88243 0
M  V30 5475 H 520.426 0.228382 -4.84362 0
M  V30 5476 N 521.769 1.56035 0.221574 0
M  V30 5477 C 522.679 1.95581 1.29558 0
M  V30 5478 C 523.695 0.859639 1.51282 0
M  V30 5479 O 524.871 1.16321 1.64413 0
M  V30 5480 C 521.936 2.26447 2.62531 0
M  V30 5481 C 520.997 3.49632 2.4911 0
M  V30 5482 C 520.23 3.79017 3.75742 0
M  V30 5483 O 520.453 3.10077 4.78757 0
M  V30 5484 O 519.387 4.72507 3.72855 0
M  V30 5485 H 523.213 2.8711 0.990035 0
M  V30 5486 H 520.798 1.43244 0.424434 0
M  V30 5487 H 522.68 2.47494 3.41064 0
M  V30 5488 H 521.355 1.38092 2.92766 0
M  V30 5489 H 520.262 3.33864 1.68777 0
M  V30 5490 H 521.595 4.3837 2.23814 0
M  V30 5491 N 523.247 -0.488276 1.49845 0
M  V30 5492 C 524.495 -1.23911 1.59657 0
M  V30 5493 C 524.816 -1.92816 0.291005 0
M  V30 5494 O 524.086 -1.83328 -0.690485 0
M  V30 5495 H 522.666 -0.460357 0.588286 0
M  V30 5496 H 525.328 -0.564794 1.86537 0
M  V30 5497 H 524.424 -1.99625 2.39909 0
M  V30 5498 N 524.725 -1.39134 -0.740242 0
M  V30 5499 C 525.971 -1.37278 -1.50088 0
M  V30 5500 C 526.326 0.0329967 -1.92372 0
M  V30 5501 O 525.619 0.998447 -1.63529 0
M  V30 5502 C 525.813 -2.27457 -2.75678 0
M  V30 5503 C 525.642 -3.76662 -2.45674 0
M  V30 5504 C 524.412 -4.45617 -2.38229 0
M  V30 5505 C 526.61 -4.6877 -2.11563 0
M  V30 5506 N 524.592 -5.80187 -2.00641 0
M  V30 5507 C 525.963 -5.91951 -1.84376 0
M  V30 5508 C 528.018 -4.56843 -1.97987 0
M  V30 5509 C 526.721 -7.04538 -1.4498 0
M  V30 5510 C 528.747 -5.69347 -1.59994 0
M  V30 5511 C 528.109 -6.91597 -1.33687 0
M  V30 5512 H 524.208 -0.557611 -0.548265 0
M  V30 5513 H 526.792 -1.74638 -0.860784 0
M  V30 5514 H 524.963 -1.92263 -3.37475 0
M  V30 5515 H 526.695 -2.16631 -3.41838 0
M  V30 5516 H 523.45 -3.98993 -2.5515 0
M  V30 5517 H 523.874 -6.51387 -1.84454 0
M  V30 5518 H 528.516 -3.62868 -2.16995 0
M  V30 5519 H 526.234 -7.98419 -1.24712 0
M  V30 5520 H 529.82 -5.62104 -1.50102 0
M  V30 5521 H 528.7 -7.77176 -1.04728 0
M  V30 5522 N 526.204 0.969867 -1.24223 0
M  V30 5523 C 527.45 1.7151 -1.08223 0
M  V30 5524 C 527.783 1.90478 0.37838 0
M  V30 5525 O 527.058 1.4647 1.27971 0
M  V30 5526 C 527.341 3.10714 -1.82013 0
M  V30 5527 C 527.194 2.9925 -3.35811 0
M  V30 5528 C 528.513 4.10332 -1.59108 0
M  V30 5529 H 525.632 0.622499 -0.394543 0
M  V30 5530 H 528.274 1.1284 -1.52863 0
M  V30 5531 H 526.424 3.608 -1.44068 0
M  V30 5532 H 528.096 2.56608 -3.83341 0
M  V30 5533 H 526.339 2.35512 -3.64303 0
M  V30 5534 H 527.01 3.97857 -3.82641 0
M  V30 5535 H 529.486 3.69097 -1.92111 0
M  V30 5536 H 528.362 5.05804 -2.13198 0
M  V30 5537 H 528.623 4.38926 -0.528832 0
M  V30 5538 N 527.682 1.05563 1.17022 0
M  V30 5539 C 528.959 0.68165 1.83338 0
M  V30 5540 C 529.339 -0.837665 1.93769 0
M  V30 5541 O 528.687 -1.74507 1.47511 0
M  V30 5542 C 528.897 1.375 3.20772 0
M  V30 5543 C 530.245 1.51545 3.96635 0
M  V30 5544 O 531.269 1.33431 3.30264 0
M  V30 5545 O 530.128 1.812 5.15586 0
M  V30 5546 H 527.222 0.240412 0.791285 0
M  V30 5547 H 529.768 1.15545 1.24288 0
M  V30 5548 H 528.54 2.41135 3.08171 0
M  V30 5549 H 528.163 0.890798 3.87493 0
M  V30 5550 N 529.16 -1.33526 0.837174 0
M  V30 5551 C 530.409 -1.97098 0.428387 0
M  V30 5552 C 530.722 -1.67062 -1.01734 0
M  V30 5553 O 531.928 -2.24235 -1.53072 0
M  V30 5554 C 530.384 -3.52725 0.715075 0
M  V30 5555 C 529.992 -3.9164 2.17537 0
M  V30 5556 C 531.736 -4.22857 0.373154 0
M  V30 5557 C 529.643 -5.40237 2.40619 0
M  V30 5558 H 528.573 -0.737589 0.156455 0
M  V30 5559 H 531.224 -1.52169 1.02552 0
M  V30 5560 H 529.606 -3.95971 0.0475904 0
M  V30 5561 H 530.78 -3.59456 2.88319 0
M  V30 5562 H 529.095 -3.34485 2.4801 0
M  V30 5563 H 531.692 -5.32133 0.523264 0
M  V30 5564 H 532.035 -4.10647 -0.683708 0
M  V30 5565 H 532.568 -3.85135 0.995801 0
M  V30 5566 H 529.307 -5.57449 3.44864 0
M  V30 5567 H 528.827 -5.73887 1.74396 0
M  V30 5568 H 530.506 -6.07102 2.23688 0
M  V30 5569 N 530.638 -0.59345 -1.46 0
M  V30 5570 C 531.571 0.182196 -2.27472 0
M  V30 5571 C 532.549 0.886901 -1.36282 0
M  V30 5572 O 533.733 0.898627 -1.65701 0
M  V30 5573 C 530.86 1.26236 -3.14296 0
M  V30 5574 C 529.906 0.662331 -4.21326 0
M  V30 5575 S 530.739 -0.519017 -5.32979 0
M  V30 5576 C 531.895 0.562086 -6.23371 0
M  V30 5577 H 532.128 -0.509056 -2.92909 0
M  V30 5578 H 529.661 -0.380607 -1.49635 0
M  V30 5579 H 531.619 1.88075 -3.64881 0
M  V30 5580 H 530.28 1.92562 -2.48151 0
M  V30 5581 H 529.473 1.47461 -4.81945 0
M  V30 5582 H 529.075 0.119381 -3.73809 0
M  V30 5583 H 531.367 1.44494 -6.61912 0
M  V30 5584 H 532.31 -0.00760776 -7.081 0
M  V30 5585 H 532.718 0.871061 -5.57739 0
M  V30 5586 N 532.116 1.54067 -0.331816 0
M  V30 5587 C 533.346 2.04833 0.269605 0
M  V30 5588 C 533.754 1.20714 1.45687 0
M  V30 5589 O 533.097 0.232539 1.82222 0
M  V30 5590 C 533.159 3.51386 0.759499 0
M  V30 5591 C 532.823 4.55971 -0.306557 0
M  V30 5592 C 533.82 5.07126 -1.14538 0
M  V30 5593 C 531.505 5.00216 -0.457116 0
M  V30 5594 C 533.499 6.01096 -2.12042 0
M  V30 5595 C 531.186 5.93999 -1.43556 0
M  V30 5596 C 532.184 6.44326 -2.26568 0
M  V30 5597 O 531.872 7.36267 -3.22749 0
M  V30 5598 H 531.604 0.673509 0.0579763 0
M  V30 5599 H 534.158 1.99748 -0.478521 0
M  V30 5600 H 532.388 3.53896 1.55867 0
M  V30 5601 H 534.077 3.85184 1.28017 0
M  V30 5602 H 534.843 4.73716 -1.04009 0
M  V30 5603 H 530.722 4.60652 0.179142 0
M  V30 5604 H 534.266 6.40302 -2.76873 0
M  V30 5605 H 530.163 6.26825 -1.54146 0
M  V30 5606 H 530.931 7.54165 -3.18083 0
M  V30 5607 N 533.594 0.0601682 1.57485 0
M  V30 5608 C 534.841 -0.611594 1.93043 0
M  V30 5609 C 535.169 -1.70317 0.939274 0
M  V30 5610 O 534.424 -1.95644 -0.046996 0
M  V30 5611 C 534.723 -1.23831 3.35262 0
M  V30 5612 C 534.389 -0.274037 4.50066 0
M  V30 5613 C 533.051 -0.00872394 4.81199 0
M  V30 5614 C 535.403 0.386308 5.19766 0
M  V30 5615 C 532.731 0.924218 5.79375 0
M  V30 5616 C 535.083 1.3075 6.1894 0
M  V30 5617 C 533.747 1.58139 6.48497 0
M  V30 5618 H 533.017 -0.223798 0.706396 0
M  V30 5619 H 535.664 0.128566 1.91068 0
M  V30 5620 H 533.969 -2.05394 3.33647 0
M  V30 5621 H 535.666 -1.76517 3.60059 0
M  V30 5622 H 532.256 -0.491008 4.25778 0
M  V30 5623 H 536.44 0.194436 4.95919 0
M  V30 5624 H 531.696 1.1438 6.00606 0
M  V30 5625 H 535.87 1.82519 6.72056 0
M  V30 5626 H 533.497 2.30593 7.24383 0
M  V30 5627 N 535.072 -1.5615 -0.213296 0
M  V30 5628 C 536.318 -1.79812 -0.937849 0
M  V30 5629 C 536.651 -0.631201 -1.83656 0
M  V30 5630 O 535.926 0.369165 -1.90964 0
M  V30 5631 C 536.209 -3.13613 -1.76972 0
M  V30 5632 C 536.062 -4.40766 -0.89695 0
M  V30 5633 C 537.381 -3.43931 -2.7459 0
M  V30 5634 H 534.5 -0.654138 -0.339518 0
M  V30 5635 H 537.142 -1.88877 -0.20623 0
M  V30 5636 H 535.292 -3.06015 -2.39347 0
M  V30 5637 H 536.964 -4.60392 -0.289306 0
M  V30 5638 H 535.207 -4.33326 -0.202756 0
M  V30 5639 H 535.878 -5.30843 -1.51358 0
M  V30 5640 H 538.354 -3.5171 -2.22349 0
M  V30 5641 H 537.23 -4.38706 -3.29891 0
M  V30 5642 H 537.491 -2.6651 -3.52739 0
M  V30 5643 N 536.55 0.480323 -1.50102 0
M  V30 5644 C 537.483 1.59789 -1.62919 0
M  V30 5645 C 538.461 1.55429 -0.477557 0
M  V30 5646 O 539.645 1.75186 -0.695851 0
M  V30 5647 C 536.772 2.98351 -1.60325 0
M  V30 5648 C 535.818 3.20899 -2.80938 0
M  V30 5649 S 536.651 3.01791 -4.4236 0
M  V30 5650 C 537.807 4.42712 -4.42444 0
M  V30 5651 H 538.04 1.48676 -2.57454 0
M  V30 5652 H 535.573 0.666996 -1.3925 0
M  V30 5653 H 537.531 3.7824 -1.59514 0
M  V30 5654 H 536.192 3.06862 -0.670419 0
M  V30 5655 H 535.385 4.22102 -2.75401 0
M  V30 5656 H 534.987 2.48768 -2.79268 0
M  V30 5657 H 537.279 5.3518 -4.15438 0
M  V30 5658 H 538.222 4.53294 -5.43995 0
M  V30 5659 H 538.63 4.24359 -3.72263 0
M  V30 5660 N 538.028 1.39524 0.732853 0
M  V30 5661 C 539.305 1.27373 1.48444 0
M  V30 5662 C 539.685 -0.115725 2.10783 0
M  V30 5663 O 539.033 -1.12713 1.98766 0
M  V30 5664 C 539.243 2.39966 2.53412 0
M  V30 5665 C 540.591 2.79384 3.19733 0
M  V30 5666 O 541.615 2.39431 2.63725 0
M  V30 5667 O 540.474 3.48353 4.21085 0
M  V30 5668 H 537.568 0.499272 0.659285 0
M  V30 5669 H 540.114 1.51403 0.766496 0
M  V30 5670 H 538.886 3.32845 2.05742 0
M  V30 5671 H 538.509 2.17612 3.32762 0
M  V30 5672 N 539.506 -0.963266 1.24736 0
M  V30 5673 C 540.469 -2.04013 1.04457 0
M  V30 5674 C 541.469 -1.608 0.000335555 0
M  V30 5675 O 542.659 -1.72515 0.241719 0
M  V30 5676 C 539.791 -3.35858 0.584162 0
M  V30 5677 H 540.984 -2.23436 2.00041 0
M  V30 5678 H 538.537 -1.13914 1.07021 0
M  V30 5679 H 539.272 -3.22128 -0.374673 0
M  V30 5680 H 539.057 -3.68568 1.3379 0
M  V30 5681 H 540.547 -4.1502 0.463451 0
M  V30 5682 N 540.985 -1.06182 -1.16461 0
M  V30 5683 C 541.935 -0.641619 -2.18786 0
M  V30 5684 C 542.919 0.327122 -1.5754 0
M  V30 5685 O 544.111 0.142746 -1.76423 0
M  V30 5686 C 541.24 -0.0283734 -3.43288 0
M  V30 5687 C 540.326 -1.02154 -4.11613 0
M  V30 5688 N 540.717 -2.19671 -4.55608 0
M  V30 5689 C 539.015 -0.852229 -4.37782 0
M  V30 5690 C 539.716 -2.82583 -5.0845 0
M  V30 5691 N 538.692 -2.10318 -5.01266 0
M  V30 5692 H 542.494 -1.53684 -2.50516 0
M  V30 5693 H 540.008 -0.933349 -1.329 0
M  V30 5694 H 542.005 0.29049 -4.15887 0
M  V30 5695 H 540.665 0.862118 -3.13046 0
M  V30 5696 H 541.676 -2.57453 -4.49375 0
M  V30 5697 H 538.353 -0.0136314 -4.17498 0
M  V30 5698 H 539.743 -3.82298 -5.52538 0
M  V30 5699 N 542.463 1.3308 -0.844243 0
M  V30 5700 C 543.688 2.02341 -0.455282 0
M  V30 5701 C 544.113 1.6308 0.93737 0
M  V30 5702 O 543.471 0.826118 1.61385 0
M  V30 5703 C 543.519 3.55743 -0.58988 0
M  V30 5704 O 542.623 4.1063 0.38166 0
M  V30 5705 H 541.964 0.637898 -0.184343 0
M  V30 5706 H 544.494 1.6986 -1.14056 0
M  V30 5707 H 544.504 4.05243 -0.473522 0
M  V30 5708 H 543.179 3.83662 -1.60549 0
M  V30 5709 H 541.756 3.72236 0.22241 0
M  V30 5710 N 543.941 0.601185 1.45683 0
M  V30 5711 C 545.188 0.0938811 2.02282 0
M  V30 5712 C 545.516 -1.27315 1.47041 0
M  V30 5713 O 544.771 -1.85193 0.632623 0
M  V30 5714 C 545.07 -0.00222425 3.574 0
M  V30 5715 C 544.736 1.29963 4.31764 0
M  V30 5716 C 543.398 1.65625 4.51798 0
M  V30 5717 C 545.75 2.1603 4.74321 0
M  V30 5718 C 543.078 2.87119 5.11644 0
M  V30 5719 C 545.43 3.36766 5.3551 0
M  V30 5720 C 544.094 3.72689 5.53768 0
M  V30 5721 H 543.364 0.0343535 0.740203 0
M  V30 5722 H 546.011 0.781522 1.74827 0
M  V30 5723 H 544.316 -0.773096 3.84097 0
M  V30 5724 H 546.013 -0.410794 3.9889 0
M  V30 5725 H 542.603 1.01204 4.1648 0
M  V30 5726 H 546.787 1.89778 4.58582 0
M  V30 5727 H 542.043 3.15065 5.2397 0
M  V30 5728 H 546.217 4.03713 5.67441 0
M  V30 5729 H 543.844 4.66918 5.99909 0
M  V30 5730 N 545.419 -1.53889 0.339982 0
M  V30 5731 C 546.649 -2.04973 -0.258738 0
M  V30 5732 C 547.057 -1.21485 -1.45045 0
M  V30 5733 O 546.4 -0.2422 -1.82096 0
M  V30 5734 C 546.462 -3.51783 -0.740853 0
M  V30 5735 C 546.126 -4.55802 0.330734 0
M  V30 5736 C 547.123 -5.06512 1.17226 0
M  V30 5737 C 544.808 -4.99966 0.483637 0
M  V30 5738 C 546.802 -5.99963 2.15227 0
M  V30 5739 C 544.489 -5.93229 1.46704 0
M  V30 5740 C 545.487 -6.43115 2.29981 0
M  V30 5741 O 545.175 -7.34545 3.26649 0
M  V30 5742 H 544.907 -0.673807 -0.0544037 0
M  V30 5743 H 547.461 -1.99492 0.489107 0
M  V30 5744 H 545.691 -3.54717 -1.53988 0
M  V30 5745 H 547.38 -3.85857 -1.25973 0
M  V30 5746 H 548.146 -4.73158 1.0652 0
M  V30 5747 H 544.025 -4.6074 -0.15471 0
M  V30 5748 H 547.569 -6.38825 2.80265 0
M  V30 5749 H 543.466 -6.25998 1.57468 0
M  V30 5750 H 544.234 -7.52468 3.22078 0
M  V30 5751 N 546.897 -0.0685191 -1.57451 0
M  V30 5752 C 547.845 0.917577 -2.13736 0
M  V30 5753 C 548.839 1.31049 -1.07344 0
M  V30 5754 O 550.045 1.28811 -1.25728 0
M  V30 5755 H 546.42 0.313835 -0.683382 0
M  V30 5756 H 548.391 0.417903 -2.95459 0
M  V30 5757 C 547.14 2.17686 -2.71123 0
M  V30 5758 H 546.463 1.88336 -3.52661 0
M  V30 5759 H 547.903 2.84803 -3.14107 0
M  V30 5760 C 546.362 2.9332 -1.65726 0
M  V30 5761 O 546.892 3.86901 -1.08031 0
M  V30 5762 N 545.098 2.56367 -1.36837 0
M  V30 5763 H 544.645 1.80341 -1.83943 0
M  V30 5764 H 544.603 3.07276 -0.665501 0
M  V30 5765 N 548.375 1.56261 0.205012 0
M  V30 5766 C 549.622 1.8004 0.926927 0
M  V30 5767 C 549.95 0.640086 1.83666 0
M  V30 5768 O 549.205 -0.374702 1.92079 0
M  V30 5769 C 549.504 3.09722 1.78345 0
M  V30 5770 C 549.17 4.39082 1.02555 0
M  V30 5771 C 547.832 4.74226 0.816256 0
M  V30 5772 C 550.184 5.18877 0.491559 0
M  V30 5773 C 547.512 5.86668 0.0613287 0
M  V30 5774 C 549.864 6.32105 -0.250107 0
M  V30 5775 C 548.528 6.6584 -0.470508 0
M  V30 5776 H 547.798 0.658812 0.339187 0
M  V30 5777 H 550.445 1.90515 0.19395 0
M  V30 5778 H 548.75 2.9444 2.5848 0
M  V30 5779 H 550.447 3.25324 2.34446 0
M  V30 5780 H 547.037 4.11497 1.19868 0
M  V30 5781 H 551.221 4.92147 0.640684 0
M  V30 5782 H 546.477 6.11283 -0.119501 0
M  V30 5783 H 550.651 6.93157 -0.671307 0
M  V30 5784 H 548.278 7.5281 -1.05739 0
M  V30 5785 N 549.853 -0.472356 1.50355 0
M  V30 5786 C 551.102 -1.2213 1.60522 0
M  V30 5787 C 551.415 -1.9312 0.310466 0
M  V30 5788 O 552.621 -2.69936 0.291029 0
M  V30 5789 C 551.077 -2.21909 2.83345 0
M  V30 5790 C 550.685 -1.56727 4.19691 0
M  V30 5791 C 552.429 -2.97453 3.02856 0
M  V30 5792 C 550.336 -2.54785 5.33703 0
M  V30 5793 H 549.266 -0.459543 0.597776 0
M  V30 5794 H 551.917 -0.491922 1.76783 0
M  V30 5795 H 550.299 -2.98133 2.60639 0
M  V30 5796 H 551.473 -0.863007 4.52646 0
M  V30 5797 H 549.788 -0.934685 4.05774 0
M  V30 5798 H 552.385 -3.70838 3.85205 0
M  V30 5799 H 552.728 -3.56764 2.14534 0
M  V30 5800 H 553.261 -2.28342 3.25737 0
M  V30 5801 H 550 -2.00214 6.24175 0
M  V30 5802 H 549.52 -3.23367 5.05167 0
M  V30 5803 H 551.199 -3.16639 5.64224 0
M  V30 5804 N 551.331 -1.39911 -0.725443 0
M  V30 5805 C 552.561 -1.40744 -1.51244 0
M  V30 5806 C 552.969 -0.00275403 -1.892 0
M  V30 5807 O 552.312 0.981299 -1.55294 0
M  V30 5808 C 552.374 -2.22527 -2.82351 0
M  V30 5809 C 552.038 -3.71053 -2.66774 0
M  V30 5810 C 553.035 -4.63916 -2.34686 0
M  V30 5811 C 550.72 -4.14753 -2.83347 0
M  V30 5812 C 552.714 -5.98463 -2.19366 0
M  V30 5813 C 550.401 -5.49372 -2.67644 0
M  V30 5814 C 551.399 -6.41042 -2.357 0
M  V30 5815 O 551.087 -7.73181 -2.20107 0
M  V30 5816 H 550.819 -0.482314 -0.473655 0
M  V30 5817 H 553.373 -1.84472 -0.903284 0
M  V30 5818 H 551.603 -1.73563 -3.45562 0
M  V30 5819 H 553.292 -2.15421 -3.44018 0
M  V30 5820 H 554.058 -4.31453 -2.21525 0
M  V30 5821 H 549.937 -3.43728 -3.072 0
M  V30 5822 H 553.481 -6.69979 -1.94354 0
M  V30 5823 H 549.378 -5.81424 -2.80387 0
M  V30 5824 H 550.146 -7.84008 -2.35103 0
M  V30 5825 N 552.809 0.956637 -1.25245 0
M  V30 5826 C 554.056 1.701 -1.09874 0
M  V30 5827 C 554.384 1.91128 0.36062 0
M  V30 5828 O 553.639 1.47837 1.28229 0
M  V30 5829 C 553.938 3.08996 -1.79601 0
M  V30 5830 C 553.604 3.07774 -3.29523 0
M  V30 5831 C 552.266 3.07149 -3.70423 0
M  V30 5832 C 554.618 3.01257 -4.25316 0
M  V30 5833 C 551.946 2.97752 -5.0553 0
M  V30 5834 C 554.298 2.93403 -5.60444 0
M  V30 5835 C 552.962 2.91111 -6.00675 0
M  V30 5836 H 552.232 0.62244 -0.402056 0
M  V30 5837 H 554.879 1.1178 -1.55491 0
M  V30 5838 H 553.184 3.70848 -1.26408 0
M  V30 5839 H 554.881 3.65407 -1.65162 0
M  V30 5840 H 551.471 3.09032 -2.9698 0
M  V30 5841 H 555.655 3.00861 -3.9471 0
M  V30 5842 H 550.911 2.94346 -5.35883 0
M  V30 5843 H 555.085 2.87321 -6.34366 0
M  V30 5844 H 552.712 2.83586 -7.05325 0
M  V30 5845 N 554.287 1.06798 1.15896 0
M  V30 5846 C 555.536 0.782796 1.8589 0
M  V30 5847 C 555.849 -0.693498 1.82893 0
M  V30 5848 O 557.055 -1.09325 2.48516 0
M  V30 5849 C 555.511 1.3502 3.33613 0
M  V30 5850 C 555.119 2.8571 3.45071 0
M  V30 5851 C 556.863 1.14278 4.08829 0
M  V30 5852 C 554.77 3.35669 4.86909 0
M  V30 5853 H 553.7 0.289149 0.696354 0
M  V30 5854 H 556.351 1.28734 1.30766 0
M  V30 5855 H 554.733 0.773407 3.88374 0
M  V30 5856 H 555.907 3.49385 3.00445 0
M  V30 5857 H 554.222 3.05178 2.83294 0
M  V30 5858 H 556.819 1.49087 5.13495 0
M  V30 5859 H 557.162 0.0814575 4.1622 0
M  V30 5860 H 557.695 1.68563 3.60321 0
M  V30 5861 H 554.434 4.41302 4.84698 0
M  V30 5862 H 553.954 2.76745 5.32139 0
M  V30 5863 H 555.633 3.31296 5.55745 0
M  V30 5864 N 555.766 -1.3263 0.851289 0
M  V30 5865 C 556.696 -2.31449 0.308771 0
M  V30 5866 C 557.677 -1.59531 -0.590255 0
M  V30 5867 O 558.862 -1.87351 -0.511205 0
M  V30 5868 C 555.992 -3.43586 -0.506548 0
M  V30 5869 C 554.946 -4.26963 0.297753 0
M  V30 5870 C 554.272 -5.30831 -0.642094 0
M  V30 5871 C 555.572 -4.99643 1.52166 0
M  V30 5872 H 557.266 -2.77074 1.13447 0
M  V30 5873 H 554.812 -1.33207 0.546971 0
M  V30 5874 H 556.765 -4.11754 -0.896474 0
M  V30 5875 H 555.489 -2.96681 -1.36558 0
M  V30 5876 H 554.148 -3.60437 0.669391 0
M  V30 5877 H 553.796 -4.8018 -1.49788 0
M  V30 5878 H 553.496 -5.87501 -0.107968 0
M  V30 5879 H 555.02 -6.01862 -1.02927 0
M  V30 5880 H 556.434 -5.6051 1.20421 0
M  V30 5881 H 554.831 -5.66022 1.99347 0
M  V30 5882 H 555.901 -4.27701 2.28474 0
M  V30 5883 N 557.244 -0.608902 -1.45362 0
M  V30 5884 C 558.174 0.0964526 -2.33301 0
M  V30 5885 C 559.155 0.857444 -1.46908 0
M  V30 5886 O 560.34 0.827735 -1.75676 0
M  V30 5887 C 557.47 1.09354 -3.29635 0
M  V30 5888 C 556.424 0.445676 -4.25673 0
M  V30 5889 C 555.75 1.5511 -5.11708 0
M  V30 5890 C 557.05 -0.633972 -5.18438 0
M  V30 5891 H 558.744 -0.637829 -2.92527 0
M  V30 5892 H 556.29 -0.308178 -1.40664 0
M  V30 5893 H 558.243 1.59556 -3.90025 0
M  V30 5894 H 556.967 1.85843 -2.6857 0
M  V30 5895 H 555.626 -0.0354897 -3.66583 0
M  V30 5896 H 555.274 2.30631 -4.4701 0
M  V30 5897 H 554.974 1.12311 -5.76767 0
M  V30 5898 H 556.498 2.05537 -5.74967 0
M  V30 5899 H 557.912 -0.215974 -5.72893 0
M  V30 5900 H 556.309 -0.983789 -5.91981 0
M  V30 5901 H 557.379 -1.51005 -4.60788 0
M  V30 5902 N 558.722 1.53707 -0.348139 0
M  V30 5903 C 559.971 2.0017 0.247992 0
M  V30 5904 C 560.284 1.23983 1.51286 0
M  V30 5905 O 561.49 1.60946 2.18652 0
M  V30 5906 C 559.946 3.56515 0.492459 0
M  V30 5907 C 559.554 4.41562 -0.756777 0
M  V30 5908 C 561.298 4.11381 1.0472 0
M  V30 5909 C 559.205 5.89426 -0.482856 0
M  V30 5910 H 558.135 0.747806 0.0964452 0
M  V30 5911 H 560.786 1.77532 -0.464179 0
M  V30 5912 H 559.168 3.75236 1.26545 0
M  V30 5913 H 560.342 4.34615 -1.53122 0
M  V30 5914 H 558.657 3.97711 -1.23348 0
M  V30 5915 H 561.254 5.19468 1.26717 0
M  V30 5916 H 561.597 3.64885 2.00411 0
M  V30 5917 H 562.13 3.96389 0.334801 0
M  V30 5918 H 558.869 6.40164 -1.40962 0
M  V30 5919 H 558.389 5.99264 0.253416 0
M  V30 5920 H 560.068 6.4692 -0.101816 0
M  V30 5921 N 560.2 0.0768682 1.57412 0
M  V30 5922 C 561.449 -0.590679 1.92857 0
M  V30 5923 C 561.762 -1.70461 0.959293 0
M  V30 5924 O 562.968 -2.43207 1.20675 0
M  V30 5925 C 561.424 -1.10204 3.42612 0
M  V30 5926 C 561.032 -0.0188447 4.47996 0
M  V30 5927 C 562.776 -1.74336 3.87049 0
M  V30 5928 C 560.683 -0.544536 5.88888 0
M  V30 5929 H 559.613 -0.224411 0.71983 0
M  V30 5930 H 562.264 0.149924 1.82887 0
M  V30 5931 H 560.646 -1.89577 3.47673 0
M  V30 5932 H 561.82 0.755936 4.54557 0
M  V30 5933 H 560.135 0.526555 4.13057 0
M  V30 5934 H 562.732 -2.14708 4.89699 0
M  V30 5935 H 563.075 -2.60537 3.24694 0
M  V30 5936 H 563.608 -1.01577 3.84613 0
M  V30 5937 H 560.347 0.280426 6.549 0
M  V30 5938 H 559.867 -1.28673 5.85836 0
M  V30 5939 H 561.546 -1.01933 6.3892 0
M  V30 5940 N 561.678 -1.56367 -0.196722 0
M  V30 5941 C 562.924 -1.80796 -0.918725 0
M  V30 5942 C 563.257 -0.650645 -1.82976 0
M  V30 5943 O 562.532 0.348889 -1.91345 0
M  V30 5944 C 562.815 -3.15472 -1.73636 0
M  V30 5945 C 562.668 -4.41693 -0.85015 0
M  V30 5946 C 563.987 -3.46824 -2.70927 0
M  V30 5947 H 561.106 -0.657702 -0.332561 0
M  V30 5948 H 563.748 -1.89086 -0.186186 0
M  V30 5949 H 561.898 -3.08536 -2.36088 0
M  V30 5950 H 563.57 -4.60673 -0.240459 0
M  V30 5951 H 561.813 -4.33517 -0.156785 0
M  V30 5952 H 562.484 -5.32419 -1.45719 0
M  V30 5953 H 564.96 -3.54049 -2.18607 0
M  V30 5954 H 563.836 -4.4218 -3.25219 0
M  V30 5955 H 564.097 -2.70236 -3.49893 0
M  V30 5956 N 563.156 0.464375 -1.50603 0
M  V30 5957 C 564.404 1.21356 -1.61608 0
M  V30 5958 C 564.725 1.92329 -0.321643 0
M  V30 5959 O 563.995 1.84403 0.661232 0
M  V30 5960 H 562.575 0.45094 -0.595535 0
M  V30 5961 H 565.237 0.535046 -1.87412 0
M  V30 5962 H 564.333 1.95783 -2.43054 0
M  V30 5963 N 564.634 1.40294 0.718013 0
M  V30 5964 C 565.859 1.41941 1.5122 0
M  V30 5965 C 566.284 0.0202371 1.88089 0
M  V30 5966 O 565.642 -0.971078 1.53101 0
M  V30 5967 C 565.69 2.3141 2.76554 0
M  V30 5968 O 564.794 1.75567 3.73162 0
M  V30 5969 H 564.135 0.482644 0.456016 0
M  V30 5970 H 566.665 1.84494 0.884478 0
M  V30 5971 H 566.675 2.46513 3.25108 0
M  V30 5972 H 565.35 3.33085 2.49053 0
M  V30 5973 H 563.927 1.69798 3.31999 0
M  V30 5974 N 566.112 -0.949982 1.2575 0
M  V30 5975 C 567.359 -1.69515 1.10774 0
M  V30 5976 C 567.687 -1.91316 -0.350479 0
M  V30 5977 O 566.942 -1.48515 -1.27443 0
M  V30 5978 C 567.241 -3.08039 1.81237 0
M  V30 5979 C 566.907 -3.06023 3.31151 0
M  V30 5980 C 565.569 -3.0518 3.72047 0
M  V30 5981 C 567.921 -2.98998 4.26907 0
M  V30 5982 C 565.249 -2.95067 5.07102 0
M  V30 5983 C 567.601 -2.90426 5.61992 0
M  V30 5984 C 566.265 -2.87922 6.0221 0
M  V30 5985 H 565.535 -0.6203 0.405351 0
M  V30 5986 H 568.182 -1.10953 1.56082 0
M  V30 5987 H 566.487 -3.70172 1.28373 0
M  V30 5988 H 568.184 -3.64526 1.67098 0
M  V30 5989 H 564.774 -3.07453 2.98614 0
M  V30 5990 H 568.958 -2.98764 3.963 0
M  V30 5991 H 564.214 -2.915 5.37436 0
M  V30 5992 H 568.388 -2.83952 6.35881 0
M  V30 5993 H 566.015 -2.79841 7.06819 0
M  V30 5994 N 567.59 -1.07411 -1.15328 0
M  V30 5995 C 568.837 -0.797649 -1.86128 0
M  V30 5996 C 569.165 0.676298 -1.82364 0
M  V30 5997 O 568.42 1.51223 -1.24218 0
M  V30 5998 C 568.719 -1.25191 -3.34757 0
M  V30 5999 C 568.385 -2.73191 -3.58716 0
M  V30 6000 C 567.047 -3.13616 -3.64964 0
M  V30 6001 C 569.399 -3.68718 -3.6837 0
M  V30 6002 C 566.727 -4.48383 -3.78377 0
M  V30 6003 C 569.079 -5.03248 -3.83306 0
M  V30 6004 C 567.743 -5.43293 -3.878 0
M  V30 6005 H 567.013 -0.29188 -0.681092 0
M  V30 6006 H 569.66 -1.34524 -1.36292 0
M  V30 6007 H 567.965 -0.623712 -3.86804 0
M  V30 6008 H 569.662 -1.01489 -3.87945 0
M  V30 6009 H 566.252 -2.40898 -3.54494 0
M  V30 6010 H 570.436 -3.38614 -3.62842 0
M  V30 6011 H 565.692 -4.78877 -3.80114 0
M  V30 6012 H 569.866 -5.77142 -3.89718 0
M  V30 6013 H 567.493 -6.47721 -3.97946 0
M  V30 6014 N 569.068 1.32177 -0.85831 0
M  V30 6015 C 570.001 2.26823 -0.25035 0
M  V30 6016 C 570.979 1.50571 0.61378 0
M  V30 6017 O 572.163 1.79682 0.569777 0
M  V30 6018 C 569.29 3.32472 0.646556 0
M  V30 6019 C 568.336 4.26255 -0.144675 0
M  V30 6020 S 569.169 5.13608 -1.5155 0
M  V30 6021 C 570.325 6.22778 -0.624408 0
M  V30 6022 H 570.558 2.7804 -1.05267 0
M  V30 6023 H 568.091 1.39764 -0.656152 0
M  V30 6024 H 570.049 3.93817 1.15837 0
M  V30 6025 H 568.71 2.80031 1.42272 0
M  V30 6026 H 567.903 5.01114 0.538613 0
M  V30 6027 H 567.505 3.69346 -0.588198 0
M  V30 6028 H 569.797 6.77287 0.169846 0
M  V30 6029 H 570.74 6.95233 -1.34376 0
M  V30 6030 H 571.148 5.64156 -0.197128 0
M  V30 6031 N 570.547 0.616602 1.45037 0
M  V30 6032 C 571.796 0.112861 2.01384 0
M  V30 6033 C 572.109 -1.26758 1.48969 0
M  V30 6034 O 573.315 -1.86454 1.9735 0
M  V30 6035 C 571.771 0.151057 3.59583 0
M  V30 6036 C 571.379 1.53191 4.20995 0
M  V30 6037 C 573.123 -0.296974 4.2346 0
M  V30 6038 C 571.03 1.526 5.71373 0
M  V30 6039 H 569.96 0.0384254 0.75302 0
M  V30 6040 H 572.611 0.773262 1.66412 0
M  V30 6041 H 570.993 -0.57617 3.91786 0
M  V30 6042 H 572.167 2.28156 4.00352 0
M  V30 6043 H 570.482 1.92279 3.69348 0
M  V30 6044 H 573.079 -0.320712 5.33737 0
M  V30 6045 H 573.422 -1.32145 3.9477 0
M  V30 6046 H 573.955 0.377279 3.96007 0
M  V30 6047 H 570.694 2.52837 6.04776 0
M  V30 6048 H 570.214 0.819064 5.94181 0
M  V30 6049 H 571.893 1.25357 6.3474 0
M  V30 6050 N 572.025 -1.5352 0.356285 0
M  V30 6051 C 572.973 -2.26945 -0.50978 0
M  V30 6052 C 573.967 -1.29569 -1.09125 0
M  V30 6053 O 575.173 -1.47231 -1.03552 0
M  V30 6054 H 571.548 -0.729368 -0.183102 0
M  V30 6055 H 573.519 -2.98111 0.131374 0
M  V30 6056 C 572.268 -3.06466 -1.64237 0
M  V30 6057 H 571.591 -3.81233 -1.20423 0
M  V30 6058 H 573.031 -3.61035 -2.22327 0
M  V30 6059 C 571.49 -2.16737 -2.57928 0
M  V30 6060 O 572.02 -1.77195 -3.60507 0
M  V30 6061 N 570.226 -1.81558 -2.26903 0
M  V30 6062 H 569.773 -2.13913 -1.43524 0
M  V30 6063 H 569.731 -1.21806 -2.89846 0
M  V30 6064 N 573.503 -0.0852151 -1.57369 0
M  V30 6065 C 574.433 0.874556 -2.16503 0
M  V30 6066 C 575.414 1.30111 -1.09568 0
M  V30 6067 O 576.599 1.36977 -1.37662 0
M  V30 6068 C 573.729 2.13731 -2.73745 0
M  V30 6069 C 572.683 1.84971 -3.85966 0
M  V30 6070 C 572.009 3.17991 -4.29867 0
M  V30 6071 C 573.309 1.14442 -5.09608 0
M  V30 6072 H 575.003 0.381899 -2.96954 0
M  V30 6073 H 572.549 0.18225 -1.42842 0
M  V30 6074 H 574.502 2.81302 -3.13763 0
M  V30 6075 H 573.226 2.65263 -1.90534 0
M  V30 6076 H 571.885 1.19801 -3.46473 0
M  V30 6077 H 571.533 3.6739 -3.4356 0
M  V30 6078 H 571.233 2.99534 -5.05523 0
M  V30 6079 H 572.757 3.86737 -4.72511 0
M  V30 6080 H 574.171 1.72105 -5.46857 0
M  V30 6081 H 572.568 1.06197 -5.90629 0
M  V30 6082 H 573.638 0.12559 -4.84737 0
M  V30 6083 N 574.981 1.5647 0.188427 0
M  V30 6084 C 576.221 1.82803 0.914469 0
M  V30 6085 C 576.585 0.663681 1.80165 0
M  V30 6086 O 577.786 0.807059 2.56398 0
M  V30 6087 C 576.057 3.14187 1.70357 0
M  V30 6088 S 577.616 3.61947 2.48072 0
M  V30 6089 H 574.434 0.641497 0.306599 0
M  V30 6090 H 577.036 1.94694 0.177361 0
M  V30 6091 H 575.74 3.96937 1.04255 0
M  V30 6092 H 575.271 3.05192 2.48237 0
M  V30 6093 H 577.286 3.27913 3.72407 0
M  V30 6094 N 576.459 -0.456382 1.50847 0
M  V30 6095 C 577.389 -1.56025 1.73719 0
M  V30 6096 C 578.37 -1.5967 0.586473 0
M  V30 6097 O 579.555 -1.75702 0.827185 0
M  V30 6098 C 576.685 -2.94251 1.84483 0
M  V30 6099 C 575.639 -3.05471 2.99786 0
M  V30 6100 C 574.965 -4.45489 2.95709 0
M  V30 6101 C 576.265 -2.81318 4.40065 0
M  V30 6102 H 577.959 -1.37138 2.66146 0
M  V30 6103 H 575.505 -0.658299 1.28072 0
M  V30 6104 H 577.458 -3.71417 1.99067 0
M  V30 6105 H 576.182 -3.14328 0.886891 0
M  V30 6106 H 574.841 -2.30741 2.84876 0
M  V30 6107 H 574.489 -4.62505 1.97732 0
M  V30 6108 H 574.189 -4.53929 3.73125 0
M  V30 6109 H 575.713 -5.24655 3.12362 0
M  V30 6110 H 577.127 -3.48226 4.55425 0
M  V30 6111 H 575.524 -3.01188 5.19043 0
M  V30 6112 H 576.594 -1.7706 4.51418 0
M  V30 6113 N 577.937 -1.40673 -0.710563 0
M  V30 6114 C 579.183 -1.39428 -1.47267 0
M  V30 6115 C 579.516 0.00182129 -1.942 0
M  V30 6116 O 578.791 0.971387 -1.68506 0
M  V30 6117 C 579.074 -2.38812 -2.6952 0
M  V30 6118 C 578.927 -3.87467 -2.28449 0
M  V30 6119 C 580.246 -2.3566 -3.71689 0
M  V30 6120 H 577.365 -0.507768 -0.534173 0
M  V30 6121 H 580.007 -1.71843 -0.810547 0
M  V30 6122 H 578.157 -2.113 -3.26013 0
M  V30 6123 H 579.829 -4.25825 -1.77399 0
M  V30 6124 H 578.072 -4.03058 -1.60395 0
M  V30 6125 H 578.743 -4.5253 -3.16103 0
M  V30 6126 H 581.219 -2.6004 -3.24836 0
M  V30 6127 H 580.095 -3.07237 -4.54859 0
M  V30 6128 H 580.356 -1.36996 -4.20339 0
M  V30 6129 N 579.415 0.9433 -1.26252 0
M  V30 6130 C 580.661 1.69175 -1.11837 0
M  V30 6131 C 580.994 1.91238 0.337891 0
M  V30 6132 O 580.269 1.49152 1.24836 0
M  V30 6133 C 580.552 3.06783 -1.88563 0
M  V30 6134 C 580.405 2.9206 -3.42083 0
M  V30 6135 C 581.724 4.06865 -1.67776 0
M  V30 6136 H 578.843 0.61399 -0.407658 0
M  V30 6137 H 581.485 1.09572 -1.55222 0
M  V30 6138 H 579.635 3.57663 -1.51689 0
M  V30 6139 H 581.307 2.48419 -3.88698 0
M  V30 6140 H 579.55 2.27731 -3.69217 0
M  V30 6141 H 580.221 3.89651 -3.90994 0
M  V30 6142 H 582.697 3.64939 -1.99897 0
M  V30 6143 H 581.573 5.01168 -2.23879 0
M  V30 6144 H 581.834 4.37705 -0.621816 0
M  V30 6145 N 580.893 1.08022 1.14757 0
M  V30 6146 C 582.142 0.802468 1.8505 0
M  V30 6147 C 582.455 -0.674061 1.83619 0
M  V30 6148 O 583.661 -1.06683 2.49662 0
M  V30 6149 C 582.117 1.38551 3.32162 0
M  V30 6150 C 581.725 2.89354 3.42021 0
M  V30 6151 C 583.469 1.18608 4.07594 0
M  V30 6152 C 581.376 3.40815 4.83321 0
M  V30 6153 H 580.306 0.296518 0.693248 0
M  V30 6154 H 582.957 1.30114 1.29393 0
M  V30 6155 H 581.339 0.814556 3.87532 0
M  V30 6156 H 582.513 3.52552 2.96722 0
M  V30 6157 H 580.828 3.08165 2.80041 0
M  V30 6158 H 583.425 1.54525 5.11885 0
M  V30 6159 H 583.768 0.125599 4.1611 0
M  V30 6160 H 584.301 1.72375 3.58513 0
M  V30 6161 H 581.04 4.46418 4.79991 0
M  V30 6162 H 580.56 2.82374 5.29174 0
M  V30 6163 H 582.239 3.37171 5.522 0
M  V30 6164 N 582.371 -1.3172 0.865308 0
M  V30 6165 C 583.334 -2.26918 0.322627 0
M  V30 6166 C 584.334 -1.52031 -0.523751 0
M  V30 6167 O 585.524 -1.70973 -0.333727 0
M  V30 6168 C 582.656 -3.36558 -0.542338 0
M  V30 6169 H 583.849 -2.76432 1.16298 0
M  V30 6170 H 581.402 -1.42573 0.640512 0
M  V30 6171 H 582.137 -2.92329 -1.40407 0
M  V30 6172 H 581.922 -3.92048 0.0636395 0
M  V30 6173 H 583.412 -4.07465 -0.91446 0
M  V30 6174 N 583.85 -0.624285 -1.44708 0
M  V30 6175 C 585.077 -0.132919 -2.06473 0
M  V30 6176 C 585.493 1.18967 -1.46602 0
M  V30 6177 O 584.85 1.72824 -0.586341 0
M  V30 6178 C 584.901 -0.00465418 -3.615 0
M  V30 6179 O 584.622 -1.27494 -4.19138 0
M  V30 6180 C 586.123 0.516213 -4.40284 0
M  V30 6181 H 583.343 -0.0765201 -0.666623 0
M  V30 6182 H 585.887 -0.856751 -1.85688 0
M  V30 6183 H 584.042 0.669583 -3.8157 0
M  V30 6184 H 584.456 -1.11536 -5.12504 0
M  V30 6185 H 585.93 0.554994 -5.49203 0
M  V30 6186 H 586.407 1.5419 -4.11245 0
M  V30 6187 H 587.013 -0.124542 -4.25118 0
M  V30 6188 N 585.328 1.53329 -0.364422 0
M  V30 6189 C 586.26 2.23286 0.517293 0
M  V30 6190 C 587.273 1.24657 1.04711 0
M  V30 6191 O 588.462 1.50887 0.95369 0
M  V30 6192 C 585.562 2.91604 1.72685 0
M  V30 6193 C 584.735 4.1673 1.32873 0
M  V30 6194 C 583.794 4.68269 2.40022 0
M  V30 6195 O 582.82 5.31976 2.02461 0
M  V30 6196 N 584.022 4.45983 3.7159 0
M  V30 6197 H 586.787 2.99588 -0.0819391 0
M  V30 6198 H 584.348 1.60787 -0.189544 0
M  V30 6199 H 586.34 3.22992 2.4384 0
M  V30 6200 H 584.91 2.18763 2.23297 0
M  V30 6201 H 584.13 3.91657 0.447069 0
M  V30 6202 H 585.418 4.98078 1.03902 0
M  V30 6203 H 584.816 3.95077 4.04883 0
M  V30 6204 H 583.373 4.81924 4.38854 0
M  V30 6205 N 586.806 0.0935595 1.57322 0
M  V30 6206 C 588.053 -0.570509 1.94297 0
M  V30 6207 C 588.381 -1.68286 0.97519 0
M  V30 6208 O 587.636 -1.95699 -0.00548655 0
M  V30 6209 C 587.935 -1.16692 3.37813 0
M  V30 6210 C 587.601 -0.178509 4.50547 0
M  V30 6211 C 586.263 0.0933475 4.81109 0
M  V30 6212 C 588.615 0.496472 5.1883 0
M  V30 6213 C 585.943 1.0469 5.77284 0
M  V30 6214 C 588.295 1.43849 6.16028 0
M  V30 6215 C 586.959 1.71859 6.44997 0
M  V30 6216 H 586.229 -0.208764 0.710984 0
M  V30 6217 H 588.876 0.169066 1.90752 0
M  V30 6218 H 587.181 -1.98271 3.37929 0
M  V30 6219 H 588.878 -1.6884 3.63722 0
M  V30 6220 H 585.468 -0.400584 4.26724 0
M  V30 6221 H 589.652 0.299584 4.95395 0
M  V30 6222 H 584.908 1.27094 5.98044 0
M  V30 6223 H 589.082 1.96734 6.68034 0
M  V30 6224 H 586.709 2.45906 7.19329 0
M  V30 6225 N 588.284 -1.56567 -0.180126 0
M  V30 6226 C 589.509 -1.85975 -0.918041 0
M  V30 6227 C 589.934 -0.678888 -1.75422 0
M  V30 6228 O 589.292 0.372168 -1.77439 0
M  V30 6229 C 589.34 -3.13731 -1.77779 0
M  V30 6230 O 588.444 -2.95335 -2.87838 0
M  V30 6231 H 587.785 -0.61196 -0.257683 0
M  V30 6232 H 590.315 -2.03798 -0.180923 0
M  V30 6233 H 590.325 -3.4491 -2.17948 0
M  V30 6234 H 589 -3.99293 -1.16352 0
M  V30 6235 H 587.577 -2.7549 -2.51316 0
M  V30 6236 N 589.762 0.448376 -1.51087 0
M  V30 6237 C 590.672 1.56882 -1.74428 0
M  V30 6238 C 591.688 1.62268 -0.62809 0
M  V30 6239 O 592.864 1.79716 -0.909075 0
M  V30 6240 C 589.929 2.92947 -1.85426 0
M  V30 6241 C 588.99 2.97766 -3.09247 0
M  V30 6242 C 588.223 4.27341 -3.19711 0
M  V30 6243 O 588.446 5.19112 -2.36387 0
M  V30 6244 O 587.38 4.38219 -4.12611 0
M  V30 6245 H 591.206 1.40104 -2.69452 0
M  V30 6246 H 588.791 0.630247 -1.35456 0
M  V30 6247 H 590.673 3.73719 -1.94709 0
M  V30 6248 H 589.348 3.09876 -0.935887 0
M  V30 6249 H 588.255 2.15989 -3.0545 0
M  V30 6250 H 589.588 2.8578 -4.00738 0
M  V30 6251 N 591.24 1.41047 0.703093 0
M  V30 6252 C 592.468 1.4334 1.49202 0
M  V30 6253 C 592.883 0.0365596 1.88765 0
M  V30 6254 O 592.24 -0.942419 1.56284 0
M  V30 6255 C 592.291 2.33538 2.75939 0
M  V30 6256 O 592.012 3.67786 2.38045 0
M  V30 6257 C 593.513 2.44555 3.6974 0
M  V30 6258 H 590.733 0.488472 0.460039 0
M  V30 6259 H 593.277 1.85245 0.86629 0
M  V30 6260 H 591.432 1.94962 3.34766 0
M  V30 6261 H 591.846 4.15816 3.19683 0
M  V30 6262 H 593.32 3.11849 4.55471 0
M  V30 6263 H 593.797 1.47447 4.1371 0
M  V30 6264 H 594.403 2.83735 3.16819 0
M  V30 6265 N 592.718 -0.936591 1.26751 0
M  V30 6266 C 593.665 -2.03597 1.08706 0
M  V30 6267 C 594.635 -1.66097 -0.00926542 0
M  V30 6268 O 595.82 -1.90199 0.151377 0
M  V30 6269 C 592.96 -3.3727 0.73094 0
M  V30 6270 C 592.073 -3.87778 1.90399 0
M  V30 6271 C 591.208 -5.09859 1.49056 0
M  V30 6272 C 590.247 -5.5264 2.63164 0
M  V30 6273 N 589.384 -6.65921 2.22471 0
M  V30 6274 H 594.224 -2.18364 2.02784 0
M  V30 6275 H 591.761 -1.06985 1.00958 0
M  V30 6276 H 593.719 -4.14128 0.505328 0
M  V30 6277 H 592.349 -3.22337 -0.172868 0
M  V30 6278 H 591.401 -3.07279 2.2424 0
M  V30 6279 H 592.713 -4.15464 2.76028 0
M  V30 6280 H 591.867 -5.9419 1.22567 0
M  V30 6281 H 590.606 -4.8393 0.60524 0
M  V30 6282 H 589.611 -4.66863 2.90377 0
M  V30 6283 H 590.836 -5.80568 3.52303 0
M  V30 6284 H 588.782 -6.41667 1.36379 0
M  V30 6285 H 588.699 -6.93216 3.01641 0
M  V30 6286 H 589.967 -7.53616 1.99205 0
M  V30 6287 N 594.196 -1.08629 -1.14182 0
M  V30 6288 C 595.128 -0.676189 -2.18998 0
M  V30 6289 C 596.141 0.277871 -1.60411 0
M  V30 6290 O 597.33 0.0651771 -1.78381 0
M  V30 6291 C 594.43 0.0254916 -3.3889 0
M  V30 6292 C 593.603 -0.948039 -4.27002 0
M  V30 6293 C 592.662 -0.281268 -5.25448 0
M  V30 6294 O 591.688 -0.926378 -5.61611 0
M  V30 6295 N 592.89 0.967923 -5.72374 0
M  V30 6296 H 595.655 -1.57792 -2.54798 0
M  V30 6297 H 593.216 -0.972665 -1.29425 0
M  V30 6298 H 595.208 0.482554 -4.01813 0
M  V30 6299 H 593.778 0.829348 -3.01398 0
M  V30 6300 H 592.998 -1.58388 -3.6098 0
M  V30 6301 H 594.286 -1.60765 -4.82734 0
M  V30 6302 H 593.684 1.51175 -5.45126 0
M  V30 6303 H 592.241 1.36844 -6.37273 0
M  V30 6304 N 595.674 1.31259 -0.872281 0
M  V30 6305 C 597.09 1.49283 -0.564521 0
M  V30 6306 C 597.29 1.80243 0.900807 0
M  V30 6307 O 596.346 1.88246 1.68284 0
M  V30 6308 C 597.659 2.62503 -1.46673 0
M  V30 6309 C 599.207 2.76386 -1.46901 0
M  V30 6310 C 599.682 3.92705 -2.35684 0
M  V30 6311 N 601.173 3.99995 -2.33577 0
M  V30 6312 C 601.908 4.89276 -2.98992 0
M  V30 6313 N 601.404 5.83443 -3.73585 0
M  V30 6314 N 603.197 4.82541 -2.88289 0
M  V30 6315 H 595.348 1.09432 -1.82039 0
M  V30 6316 H 597.611 0.540949 -0.77851 0
M  V30 6317 H 597.317 2.46407 -2.50951 0
M  V30 6318 H 597.191 3.58695 -1.16696 0
M  V30 6319 H 599.578 2.91894 -0.433796 0
M  V30 6320 H 599.659 1.80853 -1.80903 0
M  V30 6321 H 599.303 3.77954 -3.39283 0
M  V30 6322 H 599.233 4.87549 -1.99006 0
M  V30 6323 H 601.724 3.32624 -1.7936 0
M  V30 6324 H 602.037 6.48303 -4.20622 0
M  V30 6325 H 600.382 5.83415 -3.77694 0
M  V30 6326 H 603.573 4.07951 -2.2955 0
M  V30 6327 H 603.746 5.51916 -3.39549 0
M  V30 6328 N 597.152 0.631951 1.44375 0
M  V30 6329 C 598.062 -0.073674 2.34484 0
M  V30 6330 C 599.078 -0.834825 1.52665 0
M  V30 6331 O 600.254 -0.786902 1.85391 0
M  V30 6332 C 597.319 -1.04247 3.30656 0
M  V30 6333 C 596.38 -0.280602 4.28382 0
M  V30 6334 C 595.613 -1.20325 5.19959 0
M  V30 6335 O 595.836 -2.44199 5.15484 0
M  V30 6336 O 594.77 -0.687128 5.97965 0
M  V30 6337 H 598.596 0.667477 2.96274 0
M  V30 6338 H 596.181 0.392144 1.44162 0
M  V30 6339 H 598.063 -1.59981 3.89851 0
M  V30 6340 H 596.738 -1.76422 2.71398 0
M  V30 6341 H 595.645 0.319804 3.72731 0
M  V30 6342 H 596.978 0.401144 4.90563 0
M  V30 6343 N 598.631 -1.53133 0.372548 0
M  V30 6344 C 599.856 -2.0625 -0.218098 0
M  V30 6345 C 600.281 -1.24375 -1.41111 0
M  V30 6346 O 599.639 -0.264554 -1.79359 0
M  V30 6347 C 599.687 -3.55858 -0.582876 0
M  V30 6348 O 598.791 -3.76667 -1.67917 0
M  V30 6349 H 598.132 -0.663317 -0.030104 0
M  V30 6350 H 600.662 -1.97477 0.535169 0
M  V30 6351 H 600.672 -3.99007 -0.851925 0
M  V30 6352 H 599.347 -4.14892 0.289428 0
M  V30 6353 H 597.924 -3.45413 -1.40513 0
M  V30 6354 N 600.109 -0.101901 -1.5727 0
M  V30 6355 C 601.041 0.884723 -2.11436 0
M  V30 6356 C 602.054 1.24149 -1.05314 0
M  V30 6357 O 603.243 1.19341 -1.3274 0
M  V30 6358 C 600.343 2.19179 -2.58484 0
M  V30 6359 C 599.516 2.00933 -3.88516 0
M  V30 6360 C 598.575 3.15213 -4.2134 0
M  V30 6361 O 597.601 2.88877 -4.90448 0
M  V30 6362 N 598.803 4.41174 -3.77288 0
M  V30 6363 H 601.568 0.422058 -2.96713 0
M  V30 6364 H 599.129 0.0830128 -1.61687 0
M  V30 6365 H 601.121 2.94593 -2.77484 0
M  V30 6366 H 599.691 2.56847 -1.7818 0
M  V30 6367 H 598.911 1.09809 -3.78597 0
M  V30 6368 H 600.199 1.86026 -4.73573 0
M  V30 6369 H 599.597 4.6545 -3.21516 0
M  V30 6370 H 598.154 5.13515 -4.01429 0
M  V30 6371 N 601.587 1.56661 0.17182 0
M  V30 6372 C 602.517 1.99401 1.21498 0
M  V30 6373 C 603.498 0.869516 1.46197 0
M  V30 6374 O 604.683 1.13556 1.57539 0
M  V30 6375 C 601.813 2.35346 2.55401 0
M  V30 6376 C 600.767 3.5075 2.45272 0
M  V30 6377 C 600.093 3.72437 3.8366 0
M  V30 6378 C 601.393 4.84216 1.95787 0
M  V30 6379 H 603.087 2.86792 0.859699 0
M  V30 6380 H 600.633 1.37977 0.412103 0
M  V30 6381 H 602.586 2.63843 3.2858 0
M  V30 6382 H 601.31 1.44864 2.92715 0
M  V30 6383 H 599.969 3.2238 1.74547 0
M  V30 6384 H 599.617 2.79246 4.18367 0
M  V30 6385 H 599.317 4.50087 3.77751 0
M  V30 6386 H 600.841 4.03334 4.58426 0
M  V30 6387 H 602.255 5.11592 2.5874 0
M  V30 6388 H 600.652 5.65498 2.00827 0
M  V30 6389 H 601.722 4.76243 0.912159 0
M  V30 6390 N 603.065 -0.440357 1.51323 0
M  V30 6391 C 603.998 -1.55414 1.67098 0
M  V30 6392 C 604.976 -1.54108 0.518599 0
M  V30 6393 O 606.16 -1.7328 0.742054 0
M  V30 6394 C 603.287 -2.93996 1.68179 0
M  V30 6395 C 602.333 -3.13338 2.89347 0
M  V30 6396 S 603.166 -2.89957 4.50206 0
M  V30 6397 C 604.322 -4.30826 4.54027 0
M  V30 6398 H 604.555 -1.41798 2.61306 0
M  V30 6399 H 602.088 -0.629841 1.40969 0
M  V30 6400 H 604.046 -3.73878 1.69487 0
M  V30 6401 H 602.707 -3.04976 0.751542 0
M  V30 6402 H 601.9 -4.14652 2.86495 0
M  V30 6403 H 601.502 -2.41276 2.85766 0
M  V30 6404 H 603.794 -5.23977 4.29481 0
M  V30 6405 H 604.737 -4.38712 5.55822 0
M  V30 6406 H 605.145 -4.1434 3.83384 0
M  V30 6407 N 604.543 -1.41418 -0.695603 0
M  V30 6408 C 605.959 -1.23887 -1.00619 0
M  V30 6409 C 606.159 -0.128206 -2.01092 0
M  V30 6410 O 605.215 0.507408 -2.47349 0
M  V30 6411 C 606.528 -2.58816 -1.53083 0
M  V30 6412 C 608.076 -2.65998 -1.64967 0
M  V30 6413 C 608.551 -4.01244 -2.20833 0
M  V30 6414 N 610.042 -4.0309 -2.28194 0
M  V30 6415 C 610.777 -5.04539 -2.72448 0
M  V30 6416 N 610.273 -6.16378 -3.16306 0
M  V30 6417 N 612.066 -4.91901 -2.72011 0
M  V30 6418 H 604.217 -2.12379 -0.0300061 0
M  V30 6419 H 606.48 -0.944958 -0.0758797 0
M  V30 6420 H 606.186 -3.40842 -0.867147 0
M  V30 6421 H 606.06 -2.81299 -2.51298 0
M  V30 6422 H 608.447 -1.84331 -2.30448 0
M  V30 6423 H 608.528 -2.47325 -0.652982 0
M  V30 6424 H 608.172 -4.83359 -1.55968 0
M  V30 6425 H 608.102 -4.17257 -3.21254 0
M  V30 6426 H 610.593 -3.22341 -1.97242 0
M  V30 6427 H 610.906 -6.89658 -3.487 0
M  V30 6428 H 609.251 -6.19914 -3.14215 0
M  V30 6429 H 612.442 -4.03613 -2.37095 0
M  V30 6430 H 612.615 -5.71102 -3.06181 0
M  V30 6431 N 606.021 0.929856 -1.27246 0
M  V30 6432 C 606.931 2.0636 -1.11592 0
M  V30 6433 C 607.947 1.73938 -0.046496 0
M  V30 6434 O 609.123 1.9981 -0.252544 0
M  V30 6435 C 606.188 3.38213 -0.762437 0
M  V30 6436 C 605.249 3.84346 -1.9125 0
M  V30 6437 C 604.482 5.09906 -1.57579 0
M  V30 6438 O 604.705 5.68354 -0.482694 0
M  V30 6439 O 603.639 5.51359 -2.41426 0
M  V30 6440 H 607.465 2.22478 -2.0673 0
M  V30 6441 H 605.05 1.04865 -1.06413 0
M  V30 6442 H 606.932 4.1741 -0.57854 0
M  V30 6443 H 605.607 3.23307 0.159439 0
M  V30 6444 H 604.514 3.06045 -2.15144 0
M  V30 6445 H 605.847 4.0379 -2.81451 0
M  V30 6446 N 607.499 1.09233 1.13605 0
M  V30 6447 C 608.431 0.687794 2.18637 0
M  V30 6448 C 609.444 -0.26936 1.60556 0
M  V30 6449 O 610.633 -0.0557162 1.78413 0
M  V30 6450 C 607.733 -0.00751901 3.38899 0
M  V30 6451 C 606.906 0.97067 4.26494 0
M  V30 6452 C 605.965 0.309129 5.25291 0
M  V30 6453 O 604.991 0.956149 5.61112 0
M  V30 6454 N 606.193 -0.937555 5.72879 0
M  V30 6455 H 608.958 1.59141 2.53957 0
M  V30 6456 H 606.519 0.979515 1.28907 0
M  V30 6457 H 608.511 -0.461238 4.02063 0
M  V30 6458 H 607.081 -0.813353 3.01833 0
M  V30 6459 H 606.301 1.603 3.60135 0
M  V30 6460 H 607.589 1.63323 4.81875 0
M  V30 6461 H 606.987 -1.48281 5.4592 0
M  V30 6462 H 605.544 -1.33463 6.3799 0
M  V30 6463 N 608.977 -1.30795 0.87923 0
M  V30 6464 C 610.393 -1.48981 0.57243 0
M  V30 6465 C 610.593 -1.80719 -0.891236 0
M  V30 6466 O 609.649 -1.89136 -1.67283 0
M  V30 6467 C 610.962 -2.61721 1.48063 0
M  V30 6468 C 612.51 -2.75603 1.48365 0
M  V30 6469 C 612.985 -3.91449 2.37763 0
M  V30 6470 N 614.476 -3.98751 2.35695 0
M  V30 6471 C 615.211 -4.87684 3.01583 0
M  V30 6472 N 614.707 -5.81454 3.76674 0
M  V30 6473 N 616.5 -4.81005 2.90844 0
M  V30 6474 H 608.651 -1.08465 1.82617 0
M  V30 6475 H 610.914 -0.536813 0.781368 0
M  V30 6476 H 610.62 -2.45073 2.52254 0
M  V30 6477 H 610.494 -3.58071 1.18596 0
M  V30 6478 H 612.881 -2.9166 0.44927 0
M  V30 6479 H 612.962 -1.79891 1.81859 0
M  V30 6480 H 612.606 -3.76149 3.41283 0
M  V30 6481 H 612.536 -4.86487 2.01589 0
M  V30 6482 H 615.027 -3.31668 1.81121 0
M  V30 6483 H 615.34 -6.46063 4.24054 0
M  V30 6484 H 613.685 -5.81403 3.80782 0
M  V30 6485 H 616.876 -4.06728 2.31711 0
M  V30 6486 H 617.049 -5.50107 3.42471 0
M  V30 6487 N 610.455 -0.639598 -1.44038 0
M  V30 6488 C 611.701 -0.147698 -2.02261 0
M  V30 6489 C 612.034 1.23031 -1.50256 0
M  V30 6490 O 611.309 1.81847 -0.690068 0
M  V30 6491 C 611.592 -0.14362 -3.59813 0
M  V30 6492 C 611.445 -1.55458 -4.22082 0
M  V30 6493 C 612.764 0.527317 -4.36929 0
M  V30 6494 H 609.883 -0.0551453 -0.734934 0
M  V30 6495 H 612.525 -0.817688 -1.71505 0
M  V30 6496 H 610.675 0.426898 -3.86147 0
M  V30 6497 H 612.347 -2.17464 -4.06826 0
M  V30 6498 H 610.59 -2.10594 -3.79253 0
M  V30 6499 H 611.261 -1.50369 -5.31124 0
M  V30 6500 H 613.737 0.0420504 -4.16079 0
M  V30 6501 H 612.613 0.499389 -5.46624 0
M  V30 6502 H 612.874 1.59914 -4.12165 0
M  V30 6503 N 611.933 1.52934 -0.380664 0
M  V30 6504 C 613.349 1.59571 -0.0302429 0
M  V30 6505 C 613.549 1.39509 1.45394 0
M  V30 6506 O 612.605 1.20777 2.21741 0
M  V30 6507 C 613.918 2.96519 -0.499691 0
M  V30 6508 C 615.466 3.09672 -0.455204 0
M  V30 6509 C 615.941 4.49056 -0.900703 0
M  V30 6510 N 617.432 4.55215 -0.856367 0
M  V30 6511 C 618.167 5.61282 -1.17259 0
M  V30 6512 N 617.663 6.75035 -1.55885 0
M  V30 6513 N 619.456 5.51343 -1.0944 0
M  V30 6514 H 611.607 1.64224 -1.347 0
M  V30 6515 H 613.87 0.771033 -0.551554 0
M  V30 6516 H 613.576 3.16388 -1.53595 0
M  V30 6517 H 613.45 3.77052 0.105789 0
M  V30 6518 H 615.837 2.89504 0.571949 0
M  V30 6519 H 615.918 2.31113 -1.09638 0
M  V30 6520 H 615.562 4.69964 -1.92604 0
M  V30 6521 H 615.492 5.26068 -0.236629 0
M  V30 6522 H 617.983 3.73546 -0.572013 0
M  V30 6523 H 618.296 7.51926 -1.784 0
M  V30 6524 H 616.641 6.76388 -1.59764 0
M  V30 6525 H 619.832 4.61356 -0.791713 0
M  V30 6526 H 620.005 6.33905 -1.34417 0
M  V30 6527 N 613.412 0.11024 1.57214 0
M  V30 6528 C 614.659 -0.54987 1.94891 0
M  V30 6529 C 614.987 -1.67243 0.992984 0
M  V30 6530 O 614.242 -1.95694 0.0152703 0
M  V30 6531 C 614.541 -1.13102 3.39032 0
M  V30 6532 C 614.207 -0.130713 4.5071 0
M  V30 6533 C 612.869 0.14437 4.80983 0
M  V30 6534 C 615.221 0.551472 5.18274 0
M  V30 6535 C 612.549 1.10807 5.76141 0
M  V30 6536 C 614.901 1.50375 6.14467 0
M  V30 6537 C 613.565 1.78691 6.43138 0
M  V30 6538 H 612.835 -0.201212 0.713158 0
M  V30 6539 H 615.482 0.189288 1.90562 0
M  V30 6540 H 613.787 -1.94675 3.40013 0
M  V30 6541 H 615.484 -1.64973 3.65493 0
M  V30 6542 H 612.074 -0.355301 4.27125 0
M  V30 6543 H 616.258 0.35211 4.95049 0
M  V30 6544 H 611.514 1.3343 5.96663 0
M  V30 6545 H 615.688 2.03808 6.65909 0
M  V30 6546 H 613.315 2.53522 7.1668 0
M  V30 6547 N 614.89 -1.56749 -0.16351 0
M  V30 6548 C 615.82 -2.00042 -1.20438 0
M  V30 6549 C 616.801 -0.877256 -1.45733 0
M  V30 6550 O 617.986 -1.1439 -1.56935 0
M  V30 6551 C 615.116 -2.36697 -2.54149 0
M  V30 6552 C 614.07 -3.52046 -2.43408 0
M  V30 6553 C 613.396 -3.74466 -3.81679 0
M  V30 6554 C 614.696 -4.85247 -1.93216 0
M  V30 6555 H 616.39 -2.87244 -0.844477 0
M  V30 6556 H 613.936 -1.38194 -0.40478 0
M  V30 6557 H 615.889 -2.65582 -3.27176 0
M  V30 6558 H 614.613 -1.46414 -2.91943 0
M  V30 6559 H 613.272 -3.23301 -1.72834 0
M  V30 6560 H 612.92 -2.81461 -4.1688 0
M  V30 6561 H 612.62 -4.52084 -3.75359 0
M  V30 6562 H 614.144 -4.0576 -4.5628 0
M  V30 6563 H 615.558 -5.12957 -2.56023 0
M  V30 6564 H 613.955 -5.66556 -1.97825 0
M  V30 6565 H 615.025 -4.7672 -0.88689 0
M  V30 6566 N 616.368 0.432326 -1.51554 0
M  V30 6567 C 617.593 1.20824 -1.68571 0
M  V30 6568 C 618.018 1.84126 -0.384596 0
M  V30 6569 O 617.376 1.69025 0.655751 0
M  V30 6570 C 617.424 2.26429 -2.80646 0
M  V30 6571 O 616.528 3.32032 -2.44598 0
M  V30 6572 H 615.869 0.353765 -0.561913 0
M  V30 6573 H 618.399 0.509916 -1.98144 0
M  V30 6574 H 618.409 2.71133 -3.04878 0
M  V30 6575 H 617.084 1.79733 -3.75058 0
M  V30 6576 H 615.661 2.92769 -2.30956 0
M  V30 6577 N 617.846 1.41785 0.688094 0
M  V30 6578 C 618.794 1.44436 1.82321 0
M  V30 6579 C 619.788 0.321544 1.6632 0
M  V30 6580 O 620.994 0.493931 1.73091 0
M  V30 6581 H 617.369 0.452084 0.600936 0
M  V30 6582 H 619.34 2.40087 1.77202 0
M  V30 6583 C 618.089 1.35071 3.20392 0
M  V30 6584 H 617.412 2.2076 3.33324 0
M  V30 6585 H 618.852 1.40988 3.99873 0
M  V30 6586 C 617.311 0.0639127 3.36839 0
M  V30 6587 O 617.841 -0.888495 3.91751 0
M  V30 6588 N 616.047 -0.0146114 2.90596 0
M  V30 6589 H 615.594 0.761191 2.46097 0
M  V30 6590 H 615.552 -0.874988 3.01979 0
M  V30 6591 N 619.324 -0.923095 1.27737 0
M  V30 6592 C 620.287 -2.00587 1.10894 0
M  V30 6593 C 621.287 -1.60718 0.0514927 0
M  V30 6594 O 622.477 -1.71658 0.296481 0
M  V30 6595 C 619.609 -3.33829 0.690717 0
M  V30 6596 H 620.802 -2.16959 2.07048 0
M  V30 6597 H 618.355 -1.10451 1.1059 0
M  V30 6598 H 619.09 -3.23157 -0.272 0
M  V30 6599 H 618.875 -3.64125 1.45448 0
M  V30 6600 H 620.365 -4.13336 0.595252 0
M  V30 6601 N 620.802 -1.09834 -1.13024 0
M  V30 6602 C 622.027 -0.85909 -1.88771 0
M  V30 6603 C 622.452 0.584402 -1.78791 0
M  V30 6604 O 621.81 1.41101 -1.13842 0
M  V30 6605 C 621.858 -1.30427 -3.36186 0
M  V30 6606 O 620.962 -0.465368 -4.09766 0
M  V30 6607 H 620.303 -0.310786 -0.586778 0
M  V30 6608 H 622.833 -1.46355 -1.42973 0
M  V30 6609 H 622.843 -1.2915 -3.8702 0
M  V30 6610 H 621.518 -2.3555 -3.42767 0
M  V30 6611 H 620.095 -0.542814 -3.68928 0
M  V30 6612 N 622.28 1.30327 -0.886154 0
M  V30 6613 C 623.508 2.00254 -0.520176 0
M  V30 6614 C 623.923 1.66419 0.891637 0
M  V30 6615 O 623.28 0.901951 1.58654 0
M  V30 6616 C 623.331 3.54916 -0.686775 0
M  V30 6617 O 623.052 3.87547 -2.04301 0
M  V30 6618 C 624.553 4.42115 -0.323945 0
M  V30 6619 H 621.773 0.640204 -0.200947 0
M  V30 6620 H 624.317 1.66183 -1.19178 0
M  V30 6621 H 622.472 3.8735 -0.0625273 0
M  V30 6622 H 622.886 4.82247 -2.06249 0
M  V30 6623 H 624.36 5.49808 -0.491407 0
M  V30 6624 H 624.837 4.32953 0.73811 0
M  V30 6625 H 625.443 4.15129 -0.924565 0
M  V30 6626 N 623.758 0.647228 1.43697 0
M  V30 6627 C 624.688 -0.0345631 2.33474 0
M  V30 6628 C 625.669 -0.818193 1.4913 0
M  V30 6629 O 626.854 -0.780867 1.77809 0
M  V30 6630 C 623.984 -1.00576 3.32418 0
M  V30 6631 C 622.938 -0.33266 4.26705 0
M  V30 6632 C 622.264 -1.41489 5.1564 0
M  V30 6633 C 623.564 0.771204 5.16575 0
M  V30 6634 H 625.258 0.715163 2.90733 0
M  V30 6635 H 622.804 0.345364 1.39797 0
M  V30 6636 H 624.757 -1.49159 3.94119 0
M  V30 6637 H 623.481 -1.78657 2.73403 0
M  V30 6638 H 622.14 0.13267 3.6636 0
M  V30 6639 H 621.788 -2.18698 4.52968 0
M  V30 6640 H 621.488 -0.969799 5.79542 0
M  V30 6641 H 623.012 -1.9022 5.80214 0
M  V30 6642 H 624.426 0.36779 5.72119 0
M  V30 6643 H 622.823 1.1404 5.89165 0
M  V30 6644 H 623.893 1.63169 4.56622 0
M  V30 6645 N 625.236 -1.5273 0.388769 0
M  V30 6646 C 626.199 -2.25043 -0.434544 0
M  V30 6647 C 627.199 -1.26661 -0.990644 0
M  V30 6648 O 628.389 -1.50762 -0.872731 0
M  V30 6649 C 625.521 -3.00507 -1.60961 0
M  V30 6650 H 626.714 -2.99242 0.198549 0
M  V30 6651 H 624.267 -1.55664 0.140875 0
M  V30 6652 H 625.002 -2.30607 -2.28015 0
M  V30 6653 H 624.787 -3.72716 -1.21757 0
M  V30 6654 H 626.277 -3.55413 -2.19251 0
M  V30 6655 N 626.714 -0.118576 -1.57153 0
M  V30 6656 C 627.939 0.550582 -1.99958 0
M  V30 6657 C 628.364 1.59458 -0.997736 0
M  V30 6658 O 627.722 1.81274 0.0306269 0
M  V30 6659 C 627.77 1.15379 -3.41643 0
M  V30 6660 O 626.874 2.26932 -3.44348 0
M  V30 6661 H 626.215 0.137567 -0.649593 0
M  V30 6662 H 628.745 -0.206926 -2.03551 0
M  V30 6663 H 628.755 1.48942 -3.79843 0
M  V30 6664 H 627.43 0.389087 -4.14076 0
M  V30 6665 H 626.007 1.94812 -3.17967 0
M  V30 6666 N 628.193 1.56834 0.155195 0
M  V30 6667 C 629.44 1.82898 0.869179 0
M  V30 6668 C 629.768 0.698194 1.81537 0
M  V30 6669 O 629.023 -0.313404 1.93174 0
M  V30 6670 C 629.322 3.15239 1.68402 0
M  V30 6671 C 628.988 4.42123 0.885341 0
M  V30 6672 C 627.65 4.76583 0.664971 0
M  V30 6673 C 630.002 5.20178 0.326234 0
M  V30 6674 C 627.33 5.86566 -0.125346 0
M  V30 6675 C 629.682 6.3099 -0.45108 0
M  V30 6676 C 628.346 6.64006 -0.682102 0
M  V30 6677 H 627.616 0.66927 0.318055 0
M  V30 6678 H 630.263 1.91036 0.133241 0
M  V30 6679 H 628.568 3.02515 2.48982 0
M  V30 6680 H 630.265 3.32618 2.23978 0
M  V30 6681 H 626.855 4.15102 1.06716 0
M  V30 6682 H 631.039 4.93936 0.483787 0
M  V30 6683 H 626.295 6.10594 -0.313915 0
M  V30 6684 H 630.469 6.9067 -0.89149 0
M  V30 6685 H 628.096 7.49065 -1.29636 0
M  V30 6686 N 629.671 -0.424282 1.51781 0
M  V30 6687 C 630.896 -1.19928 1.6921 0
M  V30 6688 C 631.321 -1.8392 0.394355 0
M  V30 6689 O 630.679 -1.69371 -0.646778 0
M  V30 6690 C 630.727 -2.24937 2.81843 0
M  V30 6691 O 629.831 -3.3073 2.46356 0
M  V30 6692 H 629.172 -0.35078 0.563781 0
M  V30 6693 H 631.702 -0.499401 1.98412 0
M  V30 6694 H 631.712 -2.69512 3.06312 0
M  V30 6695 H 630.387 -1.77742 3.76006 0
M  V30 6696 H 628.964 -2.9154 2.32505 0
M  V30 6697 N 631.149 -1.42148 -0.680565 0
M  V30 6698 C 632.059 -1.47565 -1.82378 0
M  V30 6699 C 633.075 -0.36489 -1.70131 0
M  V30 6700 O 634.251 -0.614916 -1.91783 0
M  V30 6701 C 631.316 -1.37013 -3.18478 0
M  V30 6702 C 630.377 -2.58532 -3.42724 0
M  V30 6703 C 629.61 -2.48473 -4.72331 0
M  V30 6704 O 629.833 -1.51745 -5.49845 0
M  V30 6705 O 628.767 -3.38503 -4.97694 0
M  V30 6706 H 632.593 -2.44045 -1.80764 0
M  V30 6707 H 630.178 -1.23849 -0.835569 0
M  V30 6708 H 632.06 -1.33468 -3.99705 0
M  V30 6709 H 630.735 -0.436552 -3.20743 0
M  V30 6710 H 629.642 -2.67652 -2.61368 0
M  V30 6711 H 630.975 -3.50769 -3.45286 0
M  V30 6712 N 632.627 0.916307 -1.28225 0
M  V30 6713 C 634.038 1.48024 -1.13779 0
M  V30 6714 C 634.389 1.94289 0.273139 0
M  V30 6715 O 633.514 1.82226 1.16716 0
M  V30 6716 C 634.109 2.69029 -2.05935 0
M  V30 6717 C 632.668 3.2161 -1.95561 0
M  V30 6718 C 631.815 1.94321 -1.97825 0
M  V30 6719 H 634.766 0.729272 -1.40951 0
M  V30 6720 H 634.787 3.44204 -1.62184 0
M  V30 6721 H 634.299 2.35325 -3.08616 0
M  V30 6722 H 632.4 3.60045 -0.959076 0
M  V30 6723 H 632.513 3.87032 -2.82388 0
M  V30 6724 H 630.877 2.1131 -1.42198 0
M  V30 6725 H 631.66 1.62917 -3.0218 0
M  V30 6726 N 634.105 1.10431 1.1244 0
M  V30 6727 C 635.353 0.845045 1.83585 0
M  V30 6728 C 635.674 -0.631168 1.84503 0
M  V30 6729 O 634.944 -1.45825 1.30813 0
M  V30 6730 H 633.524 0.309628 0.679809 0
M  V30 6731 H 636.186 1.39458 1.36153 0
M  V30 6732 H 635.282 1.20786 2.8778 0
M  V30 6733 N 635.583 -1.29855 0.893053 0
M  V30 6734 C 636.808 -2.00512 0.530066 0
M  V30 6735 C 637.233 -1.66446 -0.876199 0
M  V30 6736 O 636.591 -0.885446 -1.58207 0
M  V30 6737 C 636.639 -3.53308 0.721505 0
M  V30 6738 O 635.743 -4.11764 -0.228994 0
M  V30 6739 H 635.084 -0.630617 0.207891 0
M  V30 6740 H 637.614 -1.6551 1.20282 0
M  V30 6741 H 637.624 -4.03206 0.623599 0
M  V30 6742 H 636.299 -3.77439 1.74678 0
M  V30 6743 H 634.876 -3.72805 -0.0841034 0
M  V30 6744 N 637.061 -0.65484 -1.43351 0
M  V30 6745 C 638.301 -0.172514 -2.03671 0
M  V30 6746 C 638.665 1.19154 -1.50553 0
M  V30 6747 O 639.866 1.76737 -2.02528 0
M  V30 6748 C 638.137 -0.183982 -3.56926 0
M  V30 6749 S 639.696 0.230262 -4.38195 0
M  V30 6750 H 636.514 -0.0727503 -0.707268 0
M  V30 6751 H 639.116 -0.863537 -1.75395 0
M  V30 6752 H 637.82 -1.17945 -3.93087 0
M  V30 6753 H 637.351 0.527527 -3.89847 0
M  V30 6754 H 639.366 1.46874 -4.73965 0
M  V30 6755 N 638.539 1.52521 -0.396863 0
M  V30 6756 C 639.769 2.05792 0.182485 0
M  V30 6757 C 640.177 1.26784 1.40436 0
M  V30 6758 O 639.52 0.309617 1.81072 0
M  V30 6759 C 639.582 3.54291 0.609781 0
M  V30 6760 C 639.246 4.5426 -0.499674 0
M  V30 6761 C 640.243 5.01812 -1.35944 0
M  V30 6762 C 637.928 4.97827 -0.668864 0
M  V30 6763 C 639.922 5.91562 -2.37346 0
M  V30 6764 C 637.609 5.87376 -1.68621 0
M  V30 6765 C 638.607 6.34137 -2.53692 0
M  V30 6766 O 638.295 7.21915 -3.53686 0
M  V30 6767 H 638.027 0.675362 0.0293583 0
M  V30 6768 H 640.581 1.97539 -0.56281 0
M  V30 6769 H 638.811 3.60188 1.40717 0
M  V30 6770 H 640.5 3.90267 1.11565 0
M  V30 6771 H 641.266 4.68879 -1.24008 0
M  V30 6772 H 637.145 4.60997 -0.0163971 0
M  V30 6773 H 640.689 6.27983 -3.03782 0
M  V30 6774 H 636.586 6.19723 -1.80593 0
M  V30 6775 H 637.354 7.39996 -3.49784 0
M  V30 6776 N 640.017 0.126909 1.57088 0
M  V30 6777 C 640.927 -0.833867 2.1928 0
M  V30 6778 C 641.943 -1.2868 1.17122 0
M  V30 6779 O 643.119 -1.34815 1.49622 0
M  V30 6780 C 640.184 -2.0632 2.78627 0
M  V30 6781 C 639.245 -1.66143 3.95847 0
M  V30 6782 C 638.478 -2.83217 4.52354 0
M  V30 6783 O 638.701 -3.98868 4.0775 0
M  V30 6784 O 637.635 -2.59846 5.42922 0
M  V30 6785 H 641.461 -0.334564 3.01852 0
M  V30 6786 H 639.046 -0.0991091 1.49071 0
M  V30 6787 H 640.928 -2.78304 3.16425 0
M  V30 6788 H 639.603 -2.55242 1.99082 0
M  V30 6789 H 638.51 -0.912435 3.62802 0
M  V30 6790 H 639.843 -1.21957 4.76852 0
M  V30 6791 N 641.495 -1.56914 -0.146875 0
M  V30 6792 C 642.405 -2.0154 -1.20079 0
M  V30 6793 C 643.421 -0.930838 -1.47008 0
M  V30 6794 O 644.597 -1.24032 -1.58676 0
M  V30 6795 C 641.662 -2.38715 -2.51428 0
M  V30 6796 C 640.723 -3.6112 -2.32145 0
M  V30 6797 C 639.956 -3.96512 -3.57231 0
M  V30 6798 O 640.179 -3.32566 -4.63418 0
M  V30 6799 O 639.113 -4.89758 -3.49887 0
M  V30 6800 H 642.939 -2.91506 -0.851924 0
M  V30 6801 H 640.524 -1.45106 -0.355607 0
M  V30 6802 H 642.406 -2.63485 -3.28867 0
M  V30 6803 H 641.081 -1.51903 -2.85845 0
M  V30 6804 H 639.988 -3.41536 -1.52656 0
M  V30 6805 H 641.321 -4.48549 -2.02644 0
M  V30 6806 N 642.974 0.416227 -1.52004 0
M  V30 6807 C 643.904 1.51365 -1.77795 0
M  V30 6808 C 644.885 1.58059 -0.628601 0
M  V30 6809 O 646.07 1.73447 -0.873478 0
M  V30 6810 C 643.2 2.89256 -1.92219 0
M  V30 6811 C 642.154 2.97415 -3.0778 0
M  V30 6812 C 641.48 4.37492 -3.07417 0
M  V30 6813 C 642.78 2.69551 -4.47369 0
M  V30 6814 H 644.474 1.30033 -2.69688 0
M  V30 6815 H 642.02 0.624112 -1.29772 0
M  V30 6816 H 643.973 3.66008 -2.08845 0
M  V30 6817 H 642.697 3.11866 -0.969917 0
M  V30 6818 H 641.356 2.23107 -2.90893 0
M  V30 6819 H 641.004 4.571 -2.09925 0
M  V30 6820 H 640.704 4.43877 -3.85029 0
M  V30 6821 H 642.228 5.16188 -3.26162 0
M  V30 6822 H 643.642 3.36028 -4.64497 0
M  V30 6823 H 642.039 2.87321 -5.26846 0
M  V30 6824 H 643.109 1.65029 -4.55953 0
M  V30 6825 N 644.452 1.42507 0.673017 0
M  V30 6826 C 645.382 1.48916 1.79851 0
M  V30 6827 C 646.363 0.345566 1.66553 0
M  V30 6828 O 647.548 0.560116 1.85947 0
M  V30 6829 C 644.678 1.39258 3.18158 0
M  V30 6830 C 643.632 2.51662 3.46194 0
M  V30 6831 C 642.958 2.27062 4.84094 0
M  V30 6832 C 644.258 3.93968 3.42909 0
M  V30 6833 H 645.952 2.43114 1.74745 0
M  V30 6834 H 643.498 1.17013 0.839288 0
M  V30 6835 H 645.451 1.42349 3.96629 0
M  V30 6836 H 644.175 0.415542 3.23946 0
M  V30 6837 H 642.834 2.47891 2.70084 0
M  V30 6838 H 642.482 1.27648 4.86534 0
M  V30 6839 H 642.182 3.02398 5.03815 0
M  V30 6840 H 643.706 2.31905 5.64847 0
M  V30 6841 H 645.12 3.99332 4.11347 0
M  V30 6842 H 643.517 4.6917 3.74165 0
M  V30 6843 H 644.587 4.20512 2.41449 0
M  V30 6844 N 645.93 -0.909495 1.28709 0
M  V30 6845 C 646.877 -2.01245 1.13 0
M  V30 6846 C 647.847 -1.6608 0.0259684 0
M  V30 6847 O 649.032 -1.89835 0.191687 0
M  V30 6848 C 646.172 -3.35644 0.802315 0
M  V30 6849 C 645.285 -3.83653 1.98582 0
M  V30 6850 C 644.42 -5.06582 1.59837 0
M  V30 6851 C 643.459 -5.46934 2.74827 0
M  V30 6852 N 642.596 -6.61053 2.36546 0
M  V30 6853 H 647.436 -2.14013 2.0737 0
M  V30 6854 H 644.973 -1.0482 1.03205 0
M  V30 6855 H 646.931 -4.12963 0.593057 0
M  V30 6856 H 645.561 -3.22631 -0.104457 0
M  V30 6857 H 644.613 -3.02454 2.30708 0
M  V30 6858 H 645.925 -4.09515 2.84779 0
M  V30 6859 H 645.079 -5.91457 1.35143 0
M  V30 6860 H 643.818 -4.82537 0.707753 0
M  V30 6861 H 642.823 -4.60599 3.00215 0
M  V30 6862 H 644.048 -5.72965 3.64538 0
M  V30 6863 H 641.994 -6.3863 1.49959 0
M  V30 6864 H 641.911 -6.86662 3.16277 0
M  V30 6865 H 643.179 -7.49221 2.15146 0
M  V30 6866 N 647.408 -1.11026 -1.11852 0
M  V30 6867 C 648.638 -0.877544 -1.87037 0
M  V30 6868 C 649.046 0.575925 -1.80221 0
M  V30 6869 O 648.389 1.40916 -1.17849 0
M  V30 6870 C 648.451 -1.25529 -3.36872 0
M  V30 6871 C 648.115 -2.71704 -3.67459 0
M  V30 6872 C 649.112 -3.69931 -3.65304 0
M  V30 6873 C 646.797 -3.08243 -3.966 0
M  V30 6874 C 648.791 -5.02717 -3.9186 0
M  V30 6875 C 646.478 -4.41215 -4.22815 0
M  V30 6876 C 647.476 -5.38262 -4.20432 0
M  V30 6877 O 647.164 -6.68839 -4.45992 0
M  V30 6878 H 646.896 -0.314374 -0.598452 0
M  V30 6879 H 649.45 -1.48015 -1.42411 0
M  V30 6880 H 647.68 -0.595808 -3.82082 0
M  V30 6881 H 649.369 -0.999064 -3.93413 0
M  V30 6882 H 650.135 -3.43047 -3.42846 0
M  V30 6883 H 646.014 -2.33326 -3.97593 0
M  V30 6884 H 649.558 -5.78456 -3.89916 0
M  V30 6885 H 645.455 -4.67835 -4.44748 0
M  V30 6886 H 646.223 -6.74563 -4.63581 0
M  V30 6887 N 648.886 1.2938 -0.899927 0
M  V30 6888 C 649.816 2.30144 -0.39446 0
M  V30 6889 C 650.797 1.61611 0.530639 0
M  V30 6890 O 651.982 1.89119 0.441319 0
M  V30 6891 C 649.112 3.45229 0.37868 0
M  V30 6892 C 648.066 4.25564 -0.456012 0
M  V30 6893 C 647.392 5.32848 0.444637 0
M  V30 6894 C 648.692 4.93651 -1.70605 0
M  V30 6895 H 650.386 2.72673 -1.23653 0
M  V30 6896 H 647.932 1.31086 -0.596034 0
M  V30 6897 H 649.885 4.14797 0.743037 0
M  V30 6898 H 648.609 3.01545 1.25453 0
M  V30 6899 H 647.268 3.57704 -0.802704 0
M  V30 6900 H 646.916 4.85408 1.31863 0
M  V30 6901 H 646.616 5.87497 -0.110154 0
M  V30 6902 H 648.14 6.05268 0.805182 0
M  V30 6903 H 649.554 5.55655 -1.41141 0
M  V30 6904 H 647.951 5.58233 -2.20217 0
M  V30 6905 H 649.021 4.18926 -2.4419 0
M  V30 6906 N 650.364 0.662433 1.43002 0
M  V30 6907 C 651.61 0.179857 2.02001 0
M  V30 6908 C 651.943 -1.20625 1.52195 0
M  V30 6909 O 651.218 -1.80726 0.718911 0
M  V30 6910 C 651.501 0.200845 3.59539 0
M  V30 6911 C 651.354 1.62153 4.19555 0
M  V30 6912 C 652.673 -0.457738 4.37713 0
M  V30 6913 H 649.792 0.0668305 0.733964 0
M  V30 6914 H 652.434 0.84487 1.70182 0
M  V30 6915 H 650.584 -0.365411 3.86778 0
M  V30 6916 H 652.256 2.23908 4.03315 0
M  V30 6917 H 650.499 2.16601 3.75854 0
M  V30 6918 H 651.17 1.58799 5.28665 0
M  V30 6919 H 653.646 0.0241495 4.16093 0
M  V30 6920 H 652.522 -0.412363 5.47349 0
M  V30 6921 H 652.783 -1.53336 4.14657 0
M  V30 6922 N 651.842 -1.52309 0.404946 0
M  V30 6923 C 653.072 -2.05886 -0.171569 0
M  V30 6924 C 653.48 -1.27527 -1.39762 0
M  V30 6925 O 652.823 -0.319215 -1.80905 0
M  V30 6926 C 652.885 -3.54609 -0.590983 0
M  V30 6927 C 652.549 -4.53989 0.523757 0
M  V30 6928 C 653.546 -5.01084 1.38604 0
M  V30 6929 C 651.231 -4.97465 0.695255 0
M  V30 6930 C 653.225 -5.90295 2.4048 0
M  V30 6931 C 650.912 -5.86473 1.71733 0
M  V30 6932 C 651.91 -6.32782 2.57051 0
M  V30 6933 O 651.598 -7.20029 3.57509 0
M  V30 6934 H 651.33 -0.675508 -0.0257763 0
M  V30 6935 H 653.884 -1.97238 0.573278 0
M  V30 6936 H 652.114 -3.60929 -1.38805 0
M  V30 6937 H 653.803 -3.90853 -1.09494 0
M  V30 6938 H 654.569 -4.68214 1.26492 0
M  V30 6939 H 650.448 -4.60982 0.0408447 0
M  V30 6940 H 653.992 -6.26363 3.07108 0
M  V30 6941 H 649.889 -6.18756 1.83877 0
M  V30 6942 H 650.657 -7.3813 3.53703 0
M  V30 6943 N 653.32 -0.135238 -1.57019 0
M  V30 6944 C 654.569 0.518694 -1.94917 0
M  V30 6945 C 654.882 1.66783 -1.0219 0
M  V30 6946 O 656.088 2.38561 -1.29619 0
M  V30 6947 C 654.544 0.974123 -3.46466 0
M  V30 6948 C 654.152 -0.147439 -4.47757 0
M  V30 6949 C 655.896 1.59851 -3.93253 0
M  V30 6950 C 653.803 0.325599 -5.90503 0
M  V30 6951 H 652.733 0.19754 -0.727663 0
M  V30 6952 H 655.384 -0.217698 -1.82204 0
M  V30 6953 H 653.766 1.76542 -3.5447 0
M  V30 6954 H 654.94 -0.924122 -4.51438 0
M  V30 6955 H 653.255 -0.679496 -4.10818 0
M  V30 6956 H 655.852 1.96385 -4.9733 0
M  V30 6957 H 656.195 2.48306 -3.3414 0
M  V30 6958 H 656.728 0.872323 -3.88118 0
M  V30 6959 H 653.467 -0.523295 -6.53408 0
M  V30 6960 H 652.987 1.06841 -5.90208 0
M  V30 6961 H 654.666 0.781498 -6.42263 0
M  V30 6962 N 654.798 1.5699 0.138552 0
M  V30 6963 C 655.728 2.01933 1.17241 0
M  V30 6964 C 656.709 0.90033 1.44319 0
M  V30 6965 O 657.894 1.16872 1.55095 0
M  V30 6966 C 655.024 2.40711 2.50351 0
M  V30 6967 C 653.978 3.55874 2.37776 0
M  V30 6968 C 653.304 3.80491 3.75674 0
M  V30 6969 C 654.604 4.8826 1.85472 0
M  V30 6970 H 656.298 2.88551 0.798672 0
M  V30 6971 H 653.844 1.3882 0.382743 0
M  V30 6972 H 655.797 2.70754 3.22909 0
M  V30 6973 H 654.521 1.5104 2.89576 0
M  V30 6974 H 653.18 3.2601 1.67669 0
M  V30 6975 H 652.828 2.88057 4.12349 0
M  V30 6976 H 652.528 4.57998 3.68119 0
M  V30 6977 H 654.052 4.12967 4.49767 0
M  V30 6978 H 655.466 5.16965 2.4783 0
M  V30 6979 H 653.863 5.69631 1.88787 0
M  V30 6980 H 654.933 4.78071 0.810935 0
M  V30 6981 N 656.276 -0.40816 1.52223 0
M  V30 6982 C 657.692 -0.74685 1.41047 0
M  V30 6983 C 657.892 -1.94788 0.51573 0
M  V30 6984 O 656.948 -2.52494 -0.0181156 0
M  V30 6985 C 658.261 -0.999878 2.83589 0
M  V30 6986 C 659.809 -1.10253 2.92939 0
M  V30 6987 C 660.284 -1.38832 4.36451 0
M  V30 6988 N 661.775 -1.45694 4.3969 0
M  V30 6989 C 662.51 -1.69435 5.47795 0
M  V30 6990 N 662.006 -1.90774 6.66016 0
M  V30 6991 N 663.799 -1.71458 5.35312 0
M  V30 6992 H 655.95 0.382409 2.08929 0
M  V30 6993 H 658.213 0.108807 0.941735 0
M  V30 6994 H 657.919 -0.189723 3.51188 0
M  V30 6995 H 657.793 -1.91978 3.24691 0
M  V30 6996 H 660.18 -1.90328 2.2552 0
M  V30 6997 H 660.261 -0.160973 2.55293 0
M  V30 6998 H 659.905 -0.592741 5.04429 0
M  V30 6999 H 659.835 -2.34241 4.71634 0
M  V30 7000 H 662.326 -1.3099 3.54472 0
M  V30 7001 H 662.639 -2.08342 7.44186 0
M  V30 7002 H 660.984 -1.88037 6.69079 0
M  V30 7003 H 664.175 -1.54326 4.41929 0
M  V30 7004 H 664.348 -1.89621 6.19635 0
M  V30 7005 N 657.755 -1.42862 -0.66545 0
M  V30 7006 C 658.702 -1.4707 -1.77874 0
M  V30 7007 C 659.672 -0.321654 -1.62956 0
M  V30 7008 O 660.857 -0.52707 -1.83376 0
M  V30 7009 C 657.997 -1.38788 -3.15962 0
M  V30 7010 C 657.11 -2.63801 -3.42101 0
M  V30 7011 C 656.245 -2.47594 -4.69969 0
M  V30 7012 C 655.284 -3.67936 -4.89172 0
M  V30 7013 N 654.421 -3.50614 -6.08288 0
M  V30 7014 H 659.261 -2.42204 -1.73613 0
M  V30 7015 H 656.798 -1.20239 -0.847401 0
M  V30 7016 H 658.756 -1.31982 -3.95773 0
M  V30 7017 H 657.386 -0.472431 -3.19324 0
M  V30 7018 H 656.438 -2.80935 -2.56475 0
M  V30 7019 H 657.75 -3.53228 -3.52181 0
M  V30 7020 H 656.904 -2.38427 -5.57886 0
M  V30 7021 H 655.643 -1.55672 -4.62188 0
M  V30 7022 H 654.648 -3.77525 -3.99694 0
M  V30 7023 H 655.873 -4.60851 -4.98792 0
M  V30 7024 H 653.819 -2.61417 -6.01662 0
M  V30 7025 H 653.736 -4.33634 -6.19272 0
M  V30 7026 H 655.004 -3.45276 -6.98859 0
M  V30 7027 N 659.233 0.902656 -1.29189 0
M  V30 7028 C 660.196 1.98797 -1.14071 0
M  V30 7029 C 661.196 1.60615 -0.0770549 0
M  V30 7030 O 662.386 1.71165 -0.323753 0
M  V30 7031 C 659.518 3.32688 -0.743739 0
M  V30 7032 H 660.711 2.13637 -2.10473 0
M  V30 7033 H 658.264 1.08678 -1.12334 0
M  V30 7034 H 658.999 3.23549 0.220554 0
M  V30 7035 H 658.784 3.61765 -1.51223 0
M  V30 7036 H 660.274 4.12337 -0.660935 0
M  V30 7037 N 660.711 1.11618 1.11262 0
M  V30 7038 C 661.674 0.779447 2.15539 0
M  V30 7039 C 662.674 -0.202081 1.59525 0
M  V30 7040 O 663.864 0.0226356 1.74185 0
M  V30 7041 C 660.996 0.15674 3.40539 0
M  V30 7042 H 662.189 1.70324 2.4684 0
M  V30 7043 H 659.742 0.918298 1.26479 0
M  V30 7044 H 660.477 -0.777186 3.1485 0
M  V30 7045 H 660.262 0.863308 3.82478 0
M  V30 7046 H 661.752 -0.062661 4.17553 0
M  V30 7047 N 662.189 -1.289 0.906776 0
M  V30 7048 C 663.605 -1.47733 0.603902 0
M  V30 7049 C 663.805 -1.82568 -0.852702 0
M  V30 7050 O 662.861 -1.92642 -1.63234 0
M  V30 7051 C 664.174 -2.58522 1.53581 0
M  V30 7052 C 665.722 -2.72394 1.54177 0
M  V30 7053 C 666.197 -3.86318 2.46013 0
M  V30 7054 N 667.688 -3.93661 2.441 0
M  V30 7055 C 668.423 -4.81177 3.11859 0
M  V30 7056 N 667.919 -5.73333 3.88923 0
M  V30 7057 N 669.712 -4.74728 3.00981 0
M  V30 7058 H 661.863 -1.04567 1.84877 0
M  V30 7059 H 664.126 -0.520118 0.792579 0
M  V30 7060 H 663.832 -2.39667 2.57396 0
M  V30 7061 H 663.706 -3.55475 1.26165 0
M  V30 7062 H 666.093 -2.90641 0.511034 0
M  V30 7063 H 666.174 -1.75993 1.85634 0
M  V30 7064 H 665.818 -3.68826 3.49185 0
M  V30 7065 H 665.748 -4.82102 2.11862 0
M  V30 7066 H 668.239 -3.27751 1.88115 0
M  V30 7067 H 668.552 -6.36923 4.37663 0
M  V30 7068 H 666.897 -5.73196 3.93029 0
M  V30 7069 H 670.088 -4.01722 2.40286 0
M  V30 7070 H 670.261 -5.42719 3.54062 0
M  V30 7071 N 663.667 -0.670007 -1.42649 0
M  V30 7072 C 665.083 -0.33911 -1.55956 0
M  V30 7073 C 665.283 1.1558 -1.65056 0
M  V30 7074 O 664.339 1.94111 -1.61485 0
M  V30 7075 C 665.652 -1.06522 -2.812 0
M  V30 7076 C 667.2 -1.04708 -2.94966 0
M  V30 7077 C 667.675 -1.75442 -4.23065 0
M  V30 7078 N 669.166 -1.72286 -4.29967 0
M  V30 7079 C 669.901 -2.23877 -5.27889 0
M  V30 7080 N 669.397 -2.83829 -6.31991 0
M  V30 7081 N 671.19 -2.14279 -5.19654 0
M  V30 7082 H 663.341 -1.6399 -1.34986 0
M  V30 7083 H 665.604 -0.690603 -0.649439 0
M  V30 7084 H 665.31 -2.12033 -2.80597 0
M  V30 7085 H 665.184 -0.627398 -3.71946 0
M  V30 7086 H 667.571 -0.000315966 -2.951 0
M  V30 7087 H 667.652 -1.52374 -2.05465 0
M  V30 7088 H 667.296 -2.80084 -4.23693 0
M  V30 7089 H 667.226 -1.25229 -5.11493 0
M  V30 7090 H 669.717 -1.28554 -3.55362 0
M  V30 7091 H 670.03 -3.20827 -7.03057 0
M  V30 7092 H 668.375 -2.87896 -6.32567 0
M  V30 7093 H 671.566 -1.67135 -4.37245 0
M  V30 7094 H 671.739 -2.54792 -5.95806 0
M  V30 7095 N 665.145 1.52092 -0.413018 0
M  V30 7096 C 666.075 2.30021 0.401567 0
M  V30 7097 C 667.056 1.34395 1.04269 0
M  V30 7098 O 668.241 1.63304 1.05097 0
M  V30 7099 C 665.371 3.12447 1.51638 0
M  V30 7100 C 664.325 4.16153 1.00005 0
M  V30 7101 C 663.651 4.86948 2.20875 0
M  V30 7102 C 664.951 5.22275 0.0513757 0
M  V30 7103 H 666.645 2.98365 -0.248704 0
M  V30 7104 H 664.191 1.4349 -0.121052 0
M  V30 7105 H 666.144 3.65733 2.09326 0
M  V30 7106 H 664.868 2.41879 2.19458 0
M  V30 7107 H 663.527 3.63882 0.445549 0
M  V30 7108 H 663.175 4.12905 2.8726 0
M  V30 7109 H 662.875 5.57057 1.86978 0
M  V30 7110 H 664.399 5.43048 2.79162 0
M  V30 7111 H 665.813 5.70778 0.537176 0
M  V30 7112 H 664.21 5.9977 -0.198977 0
M  V30 7113 H 665.28 4.76611 -0.892736 0
M  V30 7114 N 666.623 0.143563 1.56945 0
M  V30 7115 C 667.586 -0.783295 2.154 0
M  V30 7116 C 668.586 -1.17763 1.09492 0
M  V30 7117 O 669.776 -1.09912 1.35148 0
M  V30 7118 C 666.908 -2.06248 2.7143 0
M  V30 7119 H 668.101 -0.274863 2.98638 0
M  V30 7120 H 665.654 -0.105859 1.55941 0
M  V30 7121 H 666.389 -2.61466 1.91849 0
M  V30 7122 H 666.174 -1.78897 3.4891 0
M  V30 7123 H 667.664 -2.72453 3.16479 0
M  V30 7124 N 668.101 -1.57061 -0.130224 0
M  V30 7125 C 669.033 -1.96147 -1.18571 0
M  V30 7126 C 670.046 -0.859347 -1.38272 0
M  V30 7127 O 671.235 -1.13769 -1.37545 0
M  V30 7128 C 668.335 -2.23484 -2.54771 0
M  V30 7129 C 667.508 -3.54786 -2.55824 0
M  V30 7130 C 666.567 -3.70467 -3.73686 0
M  V30 7131 O 665.593 -4.42693 -3.57787 0
M  V30 7132 N 666.795 -3.08389 -4.91809 0
M  V30 7133 H 669.56 -2.87295 -0.853333 0
M  V30 7134 H 667.121 -1.58714 -0.319621 0
M  V30 7135 H 669.113 -2.312 -3.32158 0
M  V30 7136 H 667.683 -1.38518 -2.80235 0
M  V30 7137 H 666.903 -3.5836 -1.64232 0
M  V30 7138 H 668.191 -4.4111 -2.53573 0
M  V30 7139 H 667.589 -2.49656 -5.0763 0
M  V30 7140 H 666.146 -3.21642 -5.66912 0
M  V30 7141 N 669.579 0.400081 -1.52437 0
M  V30 7142 C 670.825 1.14788 -1.67187 0
M  V30 7143 C 671.158 1.89928 -0.405074 0
M  V30 7144 O 670.433 1.85118 0.596804 0
M  V30 7145 C 670.716 2.13507 -2.89977 0
M  V30 7146 C 670.569 1.42204 -4.2673 0
M  V30 7147 C 671.888 3.14069 -3.083 0
M  V30 7148 H 669.007 0.415939 -0.608411 0
M  V30 7149 H 671.649 0.432542 -1.85011 0
M  V30 7150 H 669.799 2.7451 -2.74912 0
M  V30 7151 H 671.471 0.842503 -4.53541 0
M  V30 7152 H 669.714 0.723939 -4.27717 0
M  V30 7153 H 670.385 2.14281 -5.08712 0
M  V30 7154 H 672.861 2.63148 -3.22323 0
M  V30 7155 H 671.737 3.80398 -3.95713 0
M  V30 7156 H 671.998 3.82309 -2.22018 0
M  V30 7157 N 671.057 1.43213 0.657864 0
M  V30 7158 C 672.282 1.48227 1.45064 0
M  V30 7159 C 672.707 0.0999939 1.87834 0
M  V30 7160 O 672.065 -0.905269 1.57081 0
M  V30 7161 C 672.113 2.42931 2.6649 0
M  V30 7162 O 671.217 1.91237 3.6538 0
M  V30 7163 H 670.558 0.501551 0.435135 0
M  V30 7164 H 673.088 1.8808 0.805431 0
M  V30 7165 H 673.098 2.6008 3.1436 0
M  V30 7166 H 671.773 3.43348 2.34701 0
M  V30 7167 H 670.35 1.83726 3.24498 0
M  V30 7168 N 672.536 -0.895792 1.29666 0
M  V30 7169 C 673.952 -1.17726 1.07763 0
M  V30 7170 C 674.152 -2.00794 -0.168576 0
M  V30 7171 O 673.208 -2.37213 -0.865244 0
M  V30 7172 C 674.521 -1.89441 2.33522 0
M  V30 7173 C 676.069 -2.02251 2.3888 0
M  V30 7174 C 676.544 -2.77378 3.64452 0
M  V30 7175 N 678.035 -2.8493 3.65198 0
M  V30 7176 C 678.77 -3.43606 4.59045 0
M  V30 7177 N 678.266 -4.03417 5.63228 0
M  V30 7178 N 680.059 -3.41317 4.46608 0
M  V30 7179 H 672.21 -0.341652 2.09634 0
M  V30 7180 H 674.473 -0.213865 0.923561 0
M  V30 7181 H 674.179 -1.35842 3.24407 0
M  V30 7182 H 674.053 -2.89893 2.41334 0
M  V30 7183 H 676.44 -2.55025 1.4848 0
M  V30 7184 H 676.521 -1.0092 2.3505 0
M  V30 7185 H 676.165 -2.25279 4.55205 0
M  V30 7186 H 676.095 -3.79062 3.65541 0
M  V30 7187 H 678.586 -2.42453 2.89871 0
M  V30 7188 H 678.899 -4.46224 6.30955 0
M  V30 7189 H 677.244 -4.01868 5.67033 0
M  V30 7190 H 680.435 -2.93812 3.64407 0
M  V30 7191 H 680.608 -3.86751 5.1993 0
M  V30 7192 N 674.014 -1.12206 -1.10668 0
M  V30 7193 C 674.977 -0.790867 -2.15123 0
M  V30 7194 C 675.977 0.193618 -1.5963 0
M  V30 7195 O 677.167 -0.0318728 -1.74171 0
M  V30 7196 C 674.299 -0.174797 -3.40452 0
M  V30 7197 H 675.492 -1.7163 -2.45933 0
M  V30 7198 H 673.045 -0.924993 -1.2599 0
M  V30 7199 H 673.78 0.760478 -3.15257 0
M  V30 7200 H 673.565 -0.88358 -3.82015 0
M  V30 7201 H 675.055 0.0405162 -4.1758 0
M  V30 7202 N 675.492 1.28418 -0.913599 0
M  V30 7203 C 676.455 2.25564 -0.406624 0
M  V30 7204 C 677.455 1.5387 0.466965 0
M  V30 7205 O 678.645 1.72094 0.270042 0
M  V30 7206 C 675.777 3.38339 0.417053 0
M  V30 7207 H 676.97 2.71926 -1.26477 0
M  V30 7208 H 674.523 1.40098 -0.692986 0
M  V30 7209 H 675.258 2.97339 1.29461 0
M  V30 7210 H 675.043 3.91542 -0.209102 0
M  V30 7211 H 676.533 4.10578 0.762602 0
M  V30 7212 N 676.97 0.677563 1.42291 0
M  V30 7213 C 678.218 0.200578 2.01102 0
M  V30 7214 C 678.539 -1.19803 1.53858 0
M  V30 7215 O 677.809 -1.80496 0.761439 0
M  V30 7216 H 676.389 0.0711634 0.743603 0
M  V30 7217 H 679.051 0.874691 1.7417 0
M  V30 7218 H 678.147 0.204 3.11433 0
M  V30 7219 N 678.448 -1.51871 0.421078 0
M  V30 7220 C 679.694 -2.02237 -0.151014 0
M  V30 7221 C 680.027 -1.30554 -1.43768 0
M  V30 7222 O 679.302 -0.41546 -1.90011 0
M  V30 7223 C 679.585 -3.5802 -0.386482 0
M  V30 7224 C 679.438 -4.40339 0.9177 0
M  V30 7225 C 680.757 -4.24444 -1.16342 0
M  V30 7226 H 677.876 -0.735062 -0.0534102 0
M  V30 7227 H 680.518 -1.81656 0.556888 0
M  V30 7228 H 678.668 -3.75688 -0.989494 0
M  V30 7229 H 680.34 -4.34357 1.55344 0
M  V30 7230 H 678.583 -4.06073 1.526 0
M  V30 7231 H 679.254 -5.47451 0.707187 0
M  V30 7232 H 681.73 -4.10948 -0.652788 0
M  V30 7233 H 680.606 -5.33358 -1.29693 0
M  V30 7234 H 680.867 -3.84204 -2.18724 0
M  V30 7235 N 679.926 -0.151884 -1.56866 0
M  V30 7236 C 681.342 0.204486 -1.58285 0
M  V30 7237 C 681.542 1.6431 -1.16639 0
M  V30 7238 O 680.598 2.37077 -0.868946 0
M  V30 7239 C 681.911 -0.0587019 -3.00643 0
M  V30 7240 C 683.459 0.00462303 -3.13 0
M  V30 7241 C 683.934 -0.231297 -4.57416 0
M  V30 7242 N 685.425 -0.178394 -4.62856 0
M  V30 7243 C 686.16 -0.335379 -5.72418 0
M  V30 7244 N 685.656 -0.550355 -6.90611 0
M  V30 7245 N 687.449 -0.272641 -5.61438 0
M  V30 7246 H 679.6 -1.09116 -1.82229 0
M  V30 7247 H 681.863 -0.432311 -0.843689 0
M  V30 7248 H 681.569 -1.05453 -3.35518 0
M  V30 7249 H 681.443 0.658508 -3.71407 0
M  V30 7250 H 683.83 0.991009 -2.77962 0
M  V30 7251 H 683.911 -0.744992 -2.44711 0
M  V30 7252 H 683.555 -1.2148 -4.93158 0
M  V30 7253 H 683.485 0.5387 -5.23837 0
M  V30 7254 H 685.976 -0.0170923 -3.77896 0
M  V30 7255 H 686.289 -0.660116 -7.69976 0
M  V30 7256 H 684.634 -0.586736 -6.92519 0
M  V30 7257 H 687.825 -0.105421 -4.67981 0
M  V30 7258 H 687.998 -0.398418 -6.46774 0
M  V30 7259 N 681.404 1.57128 0.121893 0
M  V30 7260 C 682.65 1.84974 0.831418 0
M  V30 7261 C 682.983 0.737204 1.79663 0
M  V30 7262 O 682.258 -0.257199 1.92792 0
M  V30 7263 C 682.541 3.23397 1.58386 0
M  V30 7264 C 682.394 4.45246 0.638445 0
M  V30 7265 C 683.713 3.59355 2.54071 0
M  V30 7266 H 680.832 0.67282 0.300803 0
M  V30 7267 H 683.474 1.89759 0.0957587 0
M  V30 7268 H 681.624 3.19449 2.21098 0
M  V30 7269 H 683.296 4.61295 0.0203925 0
M  V30 7270 H 681.539 4.33771 -0.05023 0
M  V30 7271 H 682.21 5.38765 1.20151 0
M  V30 7272 H 684.686 3.64075 2.01465 0
M  V30 7273 H 683.562 4.57193 3.03752 0
M  V30 7274 H 683.823 2.86622 3.36601 0
M  V30 7275 N 682.882 -0.391992 1.52647 0
M  V30 7276 C 684.13 -1.13507 1.67214 0
M  V30 7277 C 684.451 -1.90575 0.41304 0
M  V30 7278 O 683.721 -1.87348 -0.572498 0
M  V30 7279 H 682.301 -0.422013 0.616372 0
M  V30 7280 H 684.963 -0.44502 1.89751 0
M  V30 7281 H 684.059 -1.83964 2.52118 0
M  V30 7282 N 684.36 -1.4356 -0.65026 0
M  V30 7283 C 685.29 -1.51758 -1.77459 0
M  V30 7284 C 686.271 -0.372019 -1.65982 0
M  V30 7285 O 687.456 -0.589627 -1.85033 0
M  V30 7286 C 684.586 -1.44302 -3.15902 0
M  V30 7287 C 683.54 -2.57138 -3.42146 0
M  V30 7288 C 682.866 -2.34735 -4.8042 0
M  V30 7289 C 684.166 -3.99373 -3.36598 0
M  V30 7290 H 685.86 -2.45863 -1.70855 0
M  V30 7291 H 683.406 -1.18333 -0.820566 0
M  V30 7292 H 685.359 -1.48641 -3.94314 0
M  V30 7293 H 684.083 -0.467026 -3.23244 0
M  V30 7294 H 682.742 -2.52157 -2.66106 0
M  V30 7295 H 682.39 -1.35372 -4.84441 0
M  V30 7296 H 682.09 -3.10375 -4.9894 0
M  V30 7297 H 683.614 -2.40862 -5.61086 0
M  V30 7298 H 685.028 -4.05826 -4.04942 0
M  V30 7299 H 683.425 -4.75063 -3.66654 0
M  V30 7300 H 684.495 -4.243 -2.34729 0
M  V30 7301 N 685.838 0.888903 -1.30139 0
M  V30 7302 C 686.768 2.01046 -1.18755 0
M  V30 7303 C 687.749 1.69916 -0.0791438 0
M  V30 7304 O 688.934 1.92445 -0.260498 0
M  V30 7305 C 686.064 3.36109 -0.874518 0
M  V30 7306 C 685.018 3.81486 -1.94043 0
M  V30 7307 C 684.344 5.13796 -1.48047 0
M  V30 7308 C 685.644 4.00637 -3.35093 0
M  V30 7309 H 687.338 2.10828 -2.12584 0
M  V30 7310 H 684.884 1.01298 -1.02346 0
M  V30 7311 H 686.837 4.14089 -0.781548 0
M  V30 7312 H 685.561 3.26449 0.0994519 0
M  V30 7313 H 684.22 3.05731 -2.02297 0
M  V30 7314 H 683.868 5.0056 -0.494878 0
M  V30 7315 H 683.568 5.45127 -2.19341 0
M  V30 7316 H 685.092 5.94305 -1.40121 0
M  V30 7317 H 686.506 4.69067 -3.2962 0
M  V30 7318 H 684.903 4.43339 -4.04438 0
M  V30 7319 H 685.973 3.0462 -3.77273 0
M  V30 7320 N 687.317 1.12792 1.10072 0
M  V30 7321 C 688.542 0.908838 1.86427 0
M  V30 7322 C 688.967 -0.536793 1.80278 0
M  V30 7323 O 688.325 -1.38033 1.17543 0
M  V30 7324 C 688.373 1.39295 3.3261 0
M  V30 7325 O 687.477 0.573846 4.08388 0
M  V30 7326 H 686.818 0.326234 0.578331 0
M  V30 7327 H 689.348 1.50094 1.39043 0
M  V30 7328 H 689.358 1.39366 3.83459 0
M  V30 7329 H 688.033 2.44555 3.36401 0
M  V30 7330 H 686.61 0.640438 3.67359 0
M  V30 7331 N 688.795 -1.27931 0.920396 0
M  V30 7332 C 690.02 -1.99343 0.572478 0
M  V30 7333 C 690.445 -1.68267 -0.840696 0
M  V30 7334 O 689.803 -0.918805 -1.56294 0
M  V30 7335 C 689.851 -3.51698 0.796284 0
M  V30 7336 O 688.955 -4.12157 -0.141602 0
M  V30 7337 H 688.296 -0.626065 0.221221 0
M  V30 7338 H 690.826 -1.62921 1.23765 0
M  V30 7339 H 690.836 -4.01793 0.708984 0
M  V30 7340 H 689.511 -3.73649 1.82644 0
M  V30 7341 H 688.088 -3.729 -0.005007 0
M  V30 7342 N 690.273 -0.685099 -1.4193 0
M  V30 7343 C 691.684 -0.287699 -1.8447 0
M  V30 7344 C 692.035 1.17215 -1.57338 0
M  V30 7345 O 691.16 1.89856 -1.03845 0
M  V30 7346 C 691.755 -0.515385 -3.34857 0
M  V30 7347 C 690.314 -0.172006 -3.76007 0
M  V30 7348 C 689.461 -0.802808 -2.65425 0
M  V30 7349 H 692.412 -0.88652 -1.3163 0
M  V30 7350 H 692.433 0.229251 -3.79809 0
M  V30 7351 H 691.945 -1.57796 -3.54573 0
M  V30 7352 H 690.046 0.886716 -3.61895 0
M  V30 7353 H 690.159 -0.619717 -4.75075 0
M  V30 7354 H 688.523 -0.233267 -2.5363 0
M  V30 7355 H 689.306 -1.86904 -2.87961 0
M  V30 7356 N 691.751 1.51645 -0.429126 0
M  V30 7357 C 692.714 2.26116 0.374726 0
M  V30 7358 C 693.714 1.29242 0.956714 0
M  V30 7359 O 694.904 1.53022 0.832452 0
M  V30 7360 C 692.036 3.04669 1.52937 0
M  V30 7361 H 693.229 2.9861 -0.277818 0
M  V30 7362 H 690.782 1.55236 -0.182097 0
M  V30 7363 H 691.517 2.36571 2.21821 0
M  V30 7364 H 691.302 3.75814 1.11833 0
M  V30 7365 H 692.792 3.61102 2.09751 0
M  V30 7366 N 693.229 0.160201 1.56784 0
M  V30 7367 C 694.64 -0.358417 1.83227 0
M  V30 7368 C 694.991 -1.63831 1.07952 0
M  V30 7369 O 694.116 -2.13885 0.328995 0
M  V30 7370 C 694.711 -0.657058 3.32368 0
M  V30 7371 C 693.27 -1.12015 3.59346 0
M  V30 7372 C 692.417 -0.15015 2.76893 0
M  V30 7373 H 695.368 0.384669 1.53967 0
M  V30 7374 H 695.389 -1.51033 3.49241 0
M  V30 7375 H 694.901 0.274647 3.87127 0
M  V30 7376 H 693.002 -2.06734 3.09987 0
M  V30 7377 H 693.115 -1.037 4.67743 0
M  V30 7378 H 691.479 -0.645361 2.46388 0
M  V30 7379 H 692.262 0.775379 3.34429 0
M  V30 7380 N 694.707 -1.5719 -0.113559 0
M  V30 7381 C 695.637 -2.03772 -1.14013 0
M  V30 7382 C 696.618 -0.923176 -1.42869 0
M  V30 7383 O 697.803 -1.19325 -1.53216 0
M  V30 7384 C 694.933 -2.44663 -2.4649 0
M  V30 7385 C 693.887 -3.59612 -2.32085 0
M  V30 7386 C 693.213 -3.8642 -3.69573 0
M  V30 7387 C 694.513 -4.91149 -1.7768 0
M  V30 7388 H 696.207 -2.89785 -0.752665 0
M  V30 7389 H 693.753 -1.39412 -0.360609 0
M  V30 7390 H 695.706 -2.75857 -3.18561 0
M  V30 7391 H 694.43 -1.55628 -2.87137 0
M  V30 7392 H 693.089 -3.28636 -1.62461 0
M  V30 7393 H 692.737 -2.94581 -4.07715 0
M  V30 7394 H 692.437 -4.63797 -3.60786 0
M  V30 7395 H 693.961 -4.2007 -4.4314 0
M  V30 7396 H 695.375 -5.20843 -2.39574 0
M  V30 7397 H 693.772 -5.72562 -1.79701 0
M  V30 7398 H 694.842 -4.79301 -0.734776 0
M  V30 7399 N 696.185 0.383891 -1.52853 0
M  V30 7400 C 697.433 1.12619 -1.67814 0
M  V30 7401 C 697.754 1.90354 -0.423141 0
M  V30 7402 O 697.024 1.87649 0.562554 0
M  V30 7403 H 695.604 0.418738 -0.618601 0
M  V30 7404 H 698.266 0.43495 -1.89985 0
M  V30 7405 H 697.362 1.82624 -2.5309 0
M  V30 7406 N 697.663 1.43903 0.642637 0
M  V30 7407 C 698.911 1.45791 1.39962 0
M  V30 7408 C 699.232 0.0873144 1.94804 0
M  V30 7409 O 698.502 -0.878825 1.75081 0
M  V30 7410 H 697.082 0.536797 0.519479 0
M  V30 7411 H 699.744 1.7959 0.757189 0
M  V30 7412 H 698.84 2.17665 2.2367 0
M  V30 7413 N 699.141 -0.881989 1.30609 0
M  V30 7414 C 700.073 -1.99375 1.13058 0
M  V30 7415 C 701.086 -1.62636 0.0729879 0
M  V30 7416 O 702.275 -1.75621 0.319301 0
M  V30 7417 C 699.375 -3.31536 0.702651 0
M  V30 7418 C 698.548 -3.96693 1.84265 0
M  V30 7419 C 697.607 -5.07158 1.40277 0
M  V30 7420 O 696.633 -5.28628 2.11048 0
M  V30 7421 N 697.835 -5.79808 0.283449 0
M  V30 7422 H 700.6 -2.14981 2.08814 0
M  V30 7423 H 698.161 -1.05526 1.22784 0
M  V30 7424 H 700.153 -4.02804 0.391331 0
M  V30 7425 H 698.723 -3.12175 -0.162954 0
M  V30 7426 H 697.943 -3.1856 2.32192 0
M  V30 7427 H 699.231 -4.36964 2.60653 0
M  V30 7428 H 698.629 -5.64871 -0.306189 0
M  V30 7429 H 697.186 -6.51792 0.0315985 0
M  V30 7430 N 700.619 -1.13374 -1.09472 0
M  V30 7431 C 701.529 -0.824029 -2.19652 0
M  V30 7432 C 702.545 0.19118 -1.72947 0
M  V30 7433 O 703.721 0.0223464 -2.01388 0
M  V30 7434 C 700.786 -0.294009 -3.45451 0
M  V30 7435 C 699.847 -1.3704 -4.0684 0
M  V30 7436 C 699.08 -0.86558 -5.26634 0
M  V30 7437 O 699.303 0.29702 -5.69626 0
M  V30 7438 O 698.237 -1.63968 -5.79136 0
M  V30 7439 H 702.063 -1.74454 -2.48595 0
M  V30 7440 H 699.648 -0.911155 -1.18399 0
M  V30 7441 H 701.53 -0.00381039 -4.214 0
M  V30 7442 H 700.205 0.598921 -3.18111 0
M  V30 7443 H 699.112 -1.71391 -3.3253 0
M  V30 7444 H 700.445 -2.23746 -4.38405 0
M  V30 7445 N 702.098 1.27442 -0.927168 0
M  V30 7446 C 703.326 1.98498 -0.583622 0
M  V30 7447 C 703.741 1.69171 0.838241 0
M  V30 7448 O 703.098 0.951969 1.55704 0
M  V30 7449 C 703.149 3.52552 -0.799341 0
M  V30 7450 O 702.87 3.80851 -2.16527 0
M  V30 7451 C 704.371 4.4086 -0.464436 0
M  V30 7452 H 701.591 0.633487 -0.221213 0
M  V30 7453 H 704.135 1.62308 -1.24404 0
M  V30 7454 H 702.29 3.86955 -0.185728 0
M  V30 7455 H 702.704 4.75441 -2.21487 0
M  V30 7456 H 704.178 5.47967 -0.666075 0
M  V30 7457 H 704.655 4.35082 0.599995 0
M  V30 7458 H 705.261 4.11977 -1.05617 0
M  V30 7459 N 703.576 0.692616 1.41565 0
M  V30 7460 C 704.508 -0.0137132 2.29196 0
M  V30 7461 C 705.521 -0.747417 1.44629 0
M  V30 7462 O 706.71 -0.598611 1.68163 0
M  V30 7463 C 703.81 -1.04347 3.22436 0
M  V30 7464 C 702.983 -0.379985 4.35746 0
M  V30 7465 C 702.042 -1.31195 5.09583 0
M  V30 7466 O 701.068 -0.805455 5.63472 0
M  V30 7467 N 702.27 -2.64443 5.16769 0
M  V30 7468 H 705.035 0.738614 2.90456 0
M  V30 7469 H 702.596 0.538415 1.52685 0
M  V30 7470 H 704.588 -1.6686 3.687 0
M  V30 7471 H 703.158 -1.69736 2.62504 0
M  V30 7472 H 702.378 0.424975 3.91903 0
M  V30 7473 H 703.666 0.0814904 5.08735 0
M  V30 7474 H 703.064 -3.08114 4.74428 0
M  V30 7475 H 701.621 -3.22159 5.66619 0
M  V30 7476 N 705.054 -1.51416 0.437162 0
M  V30 7477 C 706.465 -1.86682 -0.0260005 0
M  V30 7478 C 706.816 -1.35432 -1.4196 0
M  V30 7479 O 705.941 -0.705055 -2.04592 0
M  V30 7480 C 706.536 -3.38757 -0.0539577 0
M  V30 7481 C 705.095 -3.7356 -0.461532 0
M  V30 7482 C 704.242 -2.75134 0.345924 0
M  V30 7483 H 707.193 -1.44642 0.653013 0
M  V30 7484 H 707.214 -3.70573 -0.863478 0
M  V30 7485 H 706.726 -3.76028 0.96045 0
M  V30 7486 H 704.827 -3.41878 -1.48155 0
M  V30 7487 H 704.94 -4.78737 -0.186451 0
M  V30 7488 H 703.304 -2.53947 -0.195739 0
M  V30 7489 H 704.087 -3.15247 1.35921 0
M  V30 7490 N 706.532 -0.168513 -1.56696 0
M  V30 7491 C 707.757 0.486688 -2.01609 0
M  V30 7492 C 708.182 1.56203 -1.04796 0
M  V30 7493 O 707.54 1.8128 -0.0270596 0
M  V30 7494 C 707.588 1.04451 -3.45141 0
M  V30 7495 O 706.692 2.15862 -3.51393 0
M  V30 7496 H 706.033 0.116831 -0.653641 0
M  V30 7497 H 708.563 -0.271579 -2.0279 0
M  V30 7498 H 708.573 1.36782 -3.84389 0
M  V30 7499 H 707.248 0.257155 -4.15104 0
M  V30 7500 H 705.825 1.84597 -3.24004 0
M  V30 7501 N 708.01 1.57248 0.105221 0
M  V30 7502 C 709.235 1.90143 0.828264 0
M  V30 7503 C 709.66 0.761811 1.71983 0
M  V30 7504 O 709.018 -0.287086 1.79013 0
M  V30 7505 C 709.066 3.21856 1.62608 0
M  V30 7506 O 708.17 3.08732 2.7342 0
M  V30 7507 H 707.511 0.623558 0.228192 0
M  V30 7508 H 710.041 2.0443 0.0834826 0
M  V30 7509 H 710.051 3.54916 2.01243 0
M  V30 7510 H 708.726 4.0439 0.971687 0
M  V30 7511 H 707.303 2.87167 2.37886 0
M  V30 7512 N 709.488 -0.375779 1.53054 0
M  V30 7513 C 710.713 -1.14484 1.7294 0
M  V30 7514 C 711.138 -1.82572 0.452668 0
M  V30 7515 O 710.496 -1.71343 -0.592567 0
M  V30 7516 C 710.544 -2.15857 2.88857 0
M  V30 7517 O 709.648 -3.22725 2.56753 0
M  V30 7518 H 708.989 -0.332666 0.574656 0
M  V30 7519 H 711.519 -0.436025 1.999 0
M  V30 7520 H 711.529 -2.59631 3.14731 0
M  V30 7521 H 710.204 -1.65689 3.81471 0
M  V30 7522 H 708.781 -2.83996 2.41663 0
M  V30 7523 N 710.966 -1.44241 -0.634997 0
M  V30 7524 C 712.206 -1.48339 -1.40623 0
M  V30 7525 C 712.57 -0.111479 -1.91676 0
M  V30 7526 O 713.771 -0.0271345 -2.68786 0
M  V30 7527 C 712.042 -2.51122 -2.54308 0
M  V30 7528 S 713.601 -2.74237 -3.42548 0
M  V30 7529 H 710.419 -0.524715 -0.479787 0
M  V30 7530 H 713.021 -1.81138 -0.735489 0
M  V30 7531 H 711.725 -3.49511 -2.15106 0
M  V30 7532 H 711.256 -2.19883 -3.26213 0
M  V30 7533 H 713.271 -2.0554 -4.51628 0
M  V30 7534 N 712.444 0.87505 -1.31075 0
M  V30 7535 C 713.669 1.66583 -1.23551 0
M  V30 7536 C 714.094 1.87067 0.19686 0
M  V30 7537 O 713.452 1.40877 1.1412 0
M  V30 7538 C 713.5 3.01401 -1.97965 0
M  V30 7539 O 712.604 3.90923 -1.31351 0
M  V30 7540 H 711.945 0.508645 -0.426821 0
M  V30 7541 H 714.475 1.09139 -1.7306 0
M  V30 7542 H 714.485 3.51374 -2.07366 0
M  V30 7543 H 713.16 2.85812 -3.02133 0
M  V30 7544 H 711.737 3.49369 -1.30368 0
M  V30 7545 N 713.922 1.13953 1.08869 0
M  V30 7546 C 715.338 0.878924 1.33218 0
M  V30 7547 C 715.538 -0.482478 1.95638 0
M  V30 7548 O 714.594 -1.22778 2.2064 0
M  V30 7549 C 715.907 2.00798 2.23832 0
M  V30 7550 C 717.455 2.04073 2.37325 0
M  V30 7551 C 717.93 3.16258 3.31278 0
M  V30 7552 N 719.421 3.15805 3.38853 0
M  V30 7553 C 720.156 3.99249 4.11567 0
M  V30 7554 N 719.652 4.92721 4.87029 0
M  V30 7555 N 721.445 3.87327 4.0735 0
M  V30 7556 H 713.596 2.01645 0.66731 0
M  V30 7557 H 715.859 0.878395 0.356547 0
M  V30 7558 H 715.565 2.98986 1.85203 0
M  V30 7559 H 715.439 1.92704 3.24261 0
M  V30 7560 H 717.826 1.06495 2.75214 0
M  V30 7561 H 717.907 2.16239 1.36654 0
M  V30 7562 H 717.551 4.14079 2.9411 0
M  V30 7563 H 717.481 3.0133 4.31866 0
M  V30 7564 H 719.972 2.48102 2.8505 0
M  V30 7565 H 720.285 5.52867 5.39961 0
M  V30 7566 H 718.63 4.96723 4.86098 0
M  V30 7567 H 721.821 3.13627 3.475 0
M  V30 7568 H 721.994 4.52585 4.63757 0
M  V30 7569 N 715.4 -1.26948 0.933913 0
M  V30 7570 C 716.625 -1.98724 0.593589 0
M  V30 7571 C 717.05 -1.6915 -0.822801 0
M  V30 7572 O 716.408 -0.93533 -1.5531 0
M  V30 7573 C 716.456 -3.50834 0.833542 0
M  V30 7574 O 715.56 -4.12284 -0.0978788 0
M  V30 7575 H 714.901 -0.623683 0.227849 0
M  V30 7576 H 717.431 -1.61599 1.25486 0
M  V30 7577 H 717.441 -4.01018 0.75156 0
M  V30 7578 H 716.116 -3.71691 1.86597 0
M  V30 7579 H 714.693 -3.72884 0.0345443 0
M  V30 7580 N 716.879 -0.700114 -1.41195 0
M  V30 7581 C 717.829 -0.0144098 -2.27995 0
M  V30 7582 C 718.813 0.748249 -1.42443 0
M  V30 7583 O 720.005 0.622995 -1.65674 0
M  V30 7584 C 717.134 0.917938 -3.308 0
M  V30 7585 C 716.22 0.151286 -4.2383 0
M  V30 7586 N 716.611 -0.85732 -4.98481 0
M  V30 7587 C 714.909 0.386108 -4.44326 0
M  V30 7588 C 715.61 -1.31663 -5.66604 0
M  V30 7589 N 714.586 -0.641689 -5.39799 0
M  V30 7590 H 718.388 -0.787662 -2.83149 0
M  V30 7591 H 715.902 -0.531344 -1.53462 0
M  V30 7592 H 717.899 1.42437 -3.91813 0
M  V30 7593 H 716.559 1.69074 -2.77208 0
M  V30 7594 H 717.57 -1.2377 -5.02893 0
M  V30 7595 H 714.247 1.13644 -4.01735 0
M  V30 7596 H 715.637 -2.15384 -6.36443 0
M  V30 7597 N 718.357 1.51182 -0.445186 0
M  V30 7598 C 719.773 1.59299 -0.0978954 0
M  V30 7599 C 719.973 1.4555 1.39346 0
M  V30 7600 O 719.029 1.30073 2.16419 0
M  V30 7601 C 720.342 2.94133 -0.625005 0
M  V30 7602 C 721.89 3.07463 -0.586137 0
M  V30 7603 C 722.365 4.44832 -1.09035 0
M  V30 7604 N 723.856 4.51173 -1.04867 0
M  V30 7605 C 724.591 5.55804 -1.40959 0
M  V30 7606 N 724.087 6.67816 -1.84375 0
M  V30 7607 N 725.88 5.46205 -1.32726 0
M  V30 7608 H 718.031 1.58363 -1.41544 0
M  V30 7609 H 720.294 0.746946 -0.58376 0
M  V30 7610 H 720 3.09589 -1.66876 0
M  V30 7611 H 719.874 3.77161 -0.0542262 0
M  V30 7612 H 722.261 2.9167 0.448646 0
M  V30 7613 H 722.342 2.26255 -1.19341 0
M  V30 7614 H 721.986 4.61372 -2.12364 0
M  V30 7615 H 721.916 5.24591 -0.459539 0
M  V30 7616 H 724.407 3.70783 -0.729932 0
M  V30 7617 H 724.72 7.43683 -2.10131 0
M  V30 7618 H 723.065 6.69003 -1.88308 0
M  V30 7619 H 726.256 4.57583 -0.986678 0
M  V30 7620 H 726.429 6.27634 -1.61182 0
M  V30 7621 N 719.835 0.176821 1.56605 0
M  V30 7622 C 721.251 -0.179278 1.5859 0
M  V30 7623 C 721.451 -1.62433 1.19238 0
M  V30 7624 O 720.507 -2.35665 0.906552 0
M  V30 7625 C 721.82 0.106524 3.00511 0
M  V30 7626 C 723.368 0.0451731 3.12967 0
M  V30 7627 C 723.843 0.304038 4.5699 0
M  V30 7628 N 725.334 0.252008 4.62514 0
M  V30 7629 C 726.069 0.426404 5.71812 0
M  V30 7630 N 725.565 0.660155 6.89648 0
M  V30 7631 N 727.358 0.361926 5.60934 0
M  V30 7632 H 719.509 1.12001 1.8047 0
M  V30 7633 H 721.772 0.445679 0.836704 0
M  V30 7634 H 721.478 1.10778 3.33798 0
M  V30 7635 H 721.352 -0.599337 3.72408 0
M  V30 7636 H 723.739 -0.946662 2.79504 0
M  V30 7637 H 723.82 0.78383 2.43495 0
M  V30 7638 H 723.464 1.29311 4.91163 0
M  V30 7639 H 723.394 -0.455294 5.24628 0
M  V30 7640 H 725.885 0.0772102 3.77821 0
M  V30 7641 H 726.198 0.782529 7.68828 0
M  V30 7642 H 724.543 0.696835 6.91498 0
M  V30 7643 H 727.734 0.17986 4.67754 0
M  V30 7644 H 727.907 0.501263 6.46058 0
M  V30 7645 N 721.313 -1.57302 -0.09688 0
M  V30 7646 C 722.243 -2.0497 -1.11846 0
M  V30 7647 C 723.224 -0.938278 -1.41882 0
M  V30 7648 O 724.409 -1.20943 -1.51942 0
M  V30 7649 C 721.539 -2.47264 -2.43881 0
M  V30 7650 C 720.493 -3.62053 -2.28257 0
M  V30 7651 C 719.819 -3.90318 -3.65453 0
M  V30 7652 C 721.119 -4.93005 -1.72461 0
M  V30 7653 H 722.813 -2.90567 -0.721888 0
M  V30 7654 H 720.359 -1.39786 -0.345803 0
M  V30 7655 H 722.312 -2.7922 -3.15617 0
M  V30 7656 H 721.036 -1.58664 -2.8547 0
M  V30 7657 H 719.695 -3.30341 -1.58967 0
M  V30 7658 H 719.343 -2.98889 -4.04567 0
M  V30 7659 H 719.043 -4.67597 -3.55846 0
M  V30 7660 H 720.567 -4.24747 -4.3866 0
M  V30 7661 H 721.981 -5.23354 -2.34036 0
M  V30 7662 H 720.378 -5.74436 -1.73618 0
M  V30 7663 H 721.448 -4.80053 -0.683898 0
M  V30 7664 N 722.791 0.367657 -1.53252 0
M  V30 7665 C 724.016 1.13566 -1.73544 0
M  V30 7666 C 724.441 1.82329 -0.462344 0
M  V30 7667 O 723.799 1.71655 0.583472 0
M  V30 7668 C 723.847 2.14322 -2.89997 0
M  V30 7669 O 722.951 3.21359 -2.58461 0
M  V30 7670 H 722.292 0.329614 -0.576412 0
M  V30 7671 H 724.822 0.425417 -2.00128 0
M  V30 7672 H 724.832 2.57958 -3.16104 0
M  V30 7673 H 723.507 1.63664 -3.82344 0
M  V30 7674 H 722.084 2.8271 -2.43165 0
M  V30 7675 N 724.269 1.44576 0.627338 0
M  V30 7676 C 725.515 1.47777 1.38888 0
M  V30 7677 C 725.848 0.111406 1.9388 0
M  V30 7678 O 725.123 -0.87149 1.73883 0
M  V30 7679 C 725.406 2.54119 2.55138 0
M  V30 7680 C 725.259 4.00128 2.0547 0
M  V30 7681 C 726.578 2.56929 3.57317 0
M  V30 7682 H 723.697 0.538048 0.50366 0
M  V30 7683 H 726.339 1.76277 0.708978 0
M  V30 7684 H 724.489 2.29948 3.13139 0
M  V30 7685 H 726.161 4.35444 1.5227 0
M  V30 7686 H 724.404 4.11724 1.36623 0
M  V30 7687 H 725.075 4.7019 2.89181 0
M  V30 7688 H 727.551 2.78536 3.09122 0
M  V30 7689 H 726.427 3.33234 4.36173 0
M  V30 7690 H 726.688 1.6127 4.11636 0
M  V30 7691 N 725.747 -0.868086 1.31537 0
M  V30 7692 C 726.697 -1.96321 1.1594 0
M  V30 7693 C 727.681 -1.60748 0.0698962 0
M  V30 7694 O 728.873 -1.74524 0.295011 0
M  V30 7695 C 726.002 -3.32073 0.870789 0
M  V30 7696 C 725.088 -3.73907 2.00136 0
M  V30 7697 N 725.479 -3.87685 3.24859 0
M  V30 7698 C 723.777 -4.03433 1.90152 0
M  V30 7699 C 724.478 -4.23454 3.98825 0
M  V30 7700 N 723.454 -4.34242 3.27009 0
M  V30 7701 H 727.256 -2.05088 2.10514 0
M  V30 7702 H 724.77 -1.059 1.23122 0
M  V30 7703 H 726.767 -4.10279 0.740034 0
M  V30 7704 H 725.427 -3.24631 -0.0667068 0
M  V30 7705 H 726.438 -3.72363 3.59953 0
M  V30 7706 H 723.115 -4.0437 1.03879 0
M  V30 7707 H 724.505 -4.41696 5.06314 0
M  V30 7708 N 727.225 -1.14528 -1.08264 0
M  V30 7709 C 728.175 -0.802141 -2.13424 0
M  V30 7710 C 729.159 0.209362 -1.59532 0
M  V30 7711 O 730.351 0.0114859 -1.76996 0
M  V30 7712 C 727.48 -0.282938 -3.42132 0
M  V30 7713 C 726.566 -1.32405 -4.02902 0
M  V30 7714 N 726.957 -2.52861 -4.38058 0
M  V30 7715 C 725.255 -1.17462 -4.30254 0
M  V30 7716 C 725.956 -3.1952 -4.86088 0
M  V30 7717 N 724.932 -2.46921 -4.84284 0
M  V30 7718 H 728.734 -1.71843 -2.38426 0
M  V30 7719 H 726.248 -1.02936 -1.2561 0
M  V30 7720 H 728.245 -0.0188053 -4.16896 0
M  V30 7721 H 726.905 0.627533 -3.18578 0
M  V30 7722 H 727.916 -2.90078 -4.2904 0
M  V30 7723 H 724.593 -0.323283 -4.16246 0
M  V30 7724 H 725.983 -4.2223 -5.22658 0
M  V30 7725 N 728.703 1.26451 -0.940633 0
M  V30 7726 C 729.633 2.28773 -0.467479 0
M  V30 7727 C 730.614 1.63218 0.478955 0
M  V30 7728 O 731.799 1.90427 0.380929 0
M  V30 7729 C 728.929 3.46259 0.268656 0
M  V30 7730 C 727.883 4.23898 -0.591171 0
M  V30 7731 C 727.209 5.33993 0.274891 0
M  V30 7732 C 728.509 4.87974 -1.86223 0
M  V30 7733 H 730.203 2.68601 -1.32265 0
M  V30 7734 H 727.749 1.29123 -0.637436 0
M  V30 7735 H 729.702 4.16951 0.610696 0
M  V30 7736 H 728.426 3.05383 1.15796 0
M  V30 7737 H 727.085 3.54969 -0.916098 0
M  V30 7738 H 726.733 4.89358 1.16353 0
M  V30 7739 H 726.433 5.86849 -0.297006 0
M  V30 7740 H 727.957 6.07523 0.612213 0
M  V30 7741 H 729.371 5.50883 -1.58747 0
M  V30 7742 H 727.768 5.50945 -2.37866 0
M  V30 7743 H 728.838 4.10945 -2.57394 0
M  V30 7744 N 730.181 0.707592 1.40822 0
M  V30 7745 C 731.427 0.244031 2.01326 0
M  V30 7746 C 731.76 -1.15722 1.55955 0
M  V30 7747 O 731.035 -1.78347 0.776044 0
M  V30 7748 C 731.318 0.315128 3.58718 0
M  V30 7749 C 731.171 1.75419 4.14184 0
M  V30 7750 C 732.49 -0.318251 4.38948 0
M  V30 7751 H 729.609 0.0901471 0.731466 0
M  V30 7752 H 732.251 0.898584 1.67408 0
M  V30 7753 H 730.401 -0.242176 3.87744 0
M  V30 7754 H 732.073 2.36626 3.95987 0
M  V30 7755 H 730.316 2.28449 3.68773 0
M  V30 7756 H 730.987 1.75538 5.23345 0
M  V30 7757 H 733.463 0.156514 4.15806 0
M  V30 7758 H 732.339 -0.238019 5.48384 0
M  V30 7759 H 732.6 -1.40067 4.19325 0
M  V30 7760 N 731.66 -1.50943 0.453197 0
M  V30 7761 C 732.61 -2.25003 -0.368467 0
M  V30 7762 C 733.594 -1.27864 -0.976714 0
M  V30 7763 O 734.786 -1.52867 -0.892228 0
M  V30 7764 C 731.915 -3.10701 -1.46014 0
M  V30 7765 C 731.001 -4.15278 -0.860506 0
M  V30 7766 N 731.392 -5.05799 0.00849611 0
M  V30 7767 C 729.69 -4.31542 -1.1264 0
M  V30 7768 C 730.391 -5.80664 0.346951 0
M  V30 7769 N 729.367 -5.42912 -0.273426 0
M  V30 7770 H 733.169 -2.92352 0.301246 0
M  V30 7771 H 730.683 -1.60203 0.266233 0
M  V30 7772 H 732.68 -3.62348 -2.06179 0
M  V30 7773 H 731.34 -2.44898 -2.13202 0
M  V30 7774 H 732.351 -5.16533 0.376077 0
M  V30 7775 H 729.028 -3.76962 -1.7946 0
M  V30 7776 H 730.418 -6.63565 1.05507 0
M  V30 7777 N 733.138 -0.185124 -1.56509 0
M  V30 7778 C 734.088 0.752315 -2.15231 0
M  V30 7779 C 735.072 1.18327 -1.0903 0
M  V30 7780 O 736.264 1.14333 -1.35119 0
M  V30 7781 C 733.393 1.97583 -2.80742 0
M  V30 7782 C 732.479 1.56623 -3.94119 0
M  V30 7783 N 732.87 0.867008 -4.98314 0
M  V30 7784 C 731.168 1.85626 -4.05535 0
M  V30 7785 C 731.869 0.663228 -5.77907 0
M  V30 7786 N 730.845 1.20891 -5.29987 0
M  V30 7787 H 734.647 0.209267 -2.93154 0
M  V30 7788 H 732.161 0.0150444 -1.62393 0
M  V30 7789 H 734.158 2.65779 -3.21197 0
M  V30 7790 H 732.818 2.52369 -2.04303 0
M  V30 7791 H 733.829 0.52355 -5.15247 0
M  V30 7792 H 730.506 2.41992 -3.40215 0
M  V30 7793 H 731.896 0.109273 -6.71811 0
M  V30 7794 N 734.616 1.57351 0.0885366 0
M  V30 7795 C 735.566 1.98963 1.11346 0
M  V30 7796 C 736.55 0.869065 1.35411 0
M  V30 7797 O 737.742 1.13292 1.35992 0
M  V30 7798 C 734.871 2.4231 2.43189 0
M  V30 7799 C 733.957 3.61065 2.22469 0
M  V30 7800 N 734.348 4.75789 1.71635 0
M  V30 7801 C 732.646 3.6729 2.5301 0
M  V30 7802 C 733.347 5.57708 1.65339 0
M  V30 7803 N 732.323 5.01067 2.1079 0
M  V30 7804 H 736.125 2.85109 0.713465 0
M  V30 7805 H 733.639 1.59682 0.295868 0
M  V30 7806 H 735.636 2.70352 3.17357 0
M  V30 7807 H 734.296 1.57544 2.83919 0
M  V30 7808 H 735.307 4.98411 1.40738 0
M  V30 7809 H 731.984 2.932 2.9722 0
M  V30 7810 H 733.374 6.59782 1.27031 0
M  V30 7811 N 736.094 -0.359525 1.53444 0
M  V30 7812 C 737.044 -1.441 1.7669 0
M  V30 7813 C 738.028 -1.48408 0.621599 0
M  V30 7814 O 739.22 -1.53547 0.880468 0
M  V30 7815 C 736.349 -2.81455 1.96566 0
M  V30 7816 C 735.435 -2.81601 3.17115 0
M  V30 7817 N 735.826 -2.51388 4.38905 0
M  V30 7818 C 734.124 -3.12758 3.1796 0
M  V30 7819 C 734.825 -2.59365 5.20677 0
M  V30 7820 N 733.801 -2.94328 4.57025 0
M  V30 7821 H 737.603 -1.19613 2.68458 0
M  V30 7822 H 735.117 -0.567761 1.52152 0
M  V30 7823 H 737.114 -3.59357 2.11348 0
M  V30 7824 H 735.774 -3.06901 1.06029 0
M  V30 7825 H 736.785 -2.24873 4.66533 0
M  V30 7826 H 733.462 -3.43479 2.37336 0
M  V30 7827 H 734.852 -2.39301 6.27841 0
M  V30 7828 N 737.572 -1.44907 -0.619662 0
M  V30 7829 C 738.522 -1.49085 -1.72504 0
M  V30 7830 C 739.506 -0.355372 -1.56926 0
M  V30 7831 O 740.698 -0.601441 -1.66468 0
M  V30 7832 C 737.827 -1.44889 -3.11227 0
M  V30 7833 C 736.913 -2.63593 -3.32234 0
M  V30 7834 N 737.304 -3.88775 -3.23555 0
M  V30 7835 C 735.602 -2.59033 -3.63067 0
M  V30 7836 C 736.303 -4.67932 -3.45564 0
M  V30 7837 N 735.279 -3.9919 -3.68983 0
M  V30 7838 H 739.081 -2.43706 -1.6427 0
M  V30 7839 H 736.595 -1.4003 -0.82252 0
M  V30 7840 H 738.592 -1.45966 -3.90512 0
M  V30 7841 H 737.252 -0.513143 -3.2062 0
M  V30 7842 H 738.263 -4.20574 -3.02221 0
M  V30 7843 H 734.94 -1.7431 -3.79371 0
M  V30 7844 H 736.33 -5.76952 -3.44349 0
M  V30 7845 N 739.05 0.861098 -1.31996 0
M  V30 7846 C 740 1.95703 -1.1698 0
M  V30 7847 C 740.984 1.60709 -0.0784201 0
M  V30 7848 O 742.176 1.74365 -0.304262 0
M  V30 7849 C 739.305 3.31606 -0.888388 0
M  V30 7850 C 738.391 3.7284 -2.02117 0
M  V30 7851 N 738.782 3.85957 -3.26911 0
M  V30 7852 C 737.08 4.02419 -1.92289 0
M  V30 7853 C 737.781 4.21333 -4.01065 0
M  V30 7854 N 736.757 4.32502 -3.29307 0
M  V30 7855 H 740.559 2.03968 -2.11599 0
M  V30 7856 H 738.073 1.05245 -1.23682 0
M  V30 7857 H 740.07 4.09881 -0.761782 0
M  V30 7858 H 738.73 3.24662 0.0494898 0
M  V30 7859 H 739.741 3.70449 -3.61923 0
M  V30 7860 H 736.418 4.03814 -1.06022 0
M  V30 7861 H 737.808 4.39005 -5.08649 0
M  V30 7862 N 740.528 1.15101 1.07655 0
M  V30 7863 C 741.478 0.813448 2.12995 0
M  V30 7864 C 742.462 -0.200899 1.59641 0
M  V30 7865 O 743.654 -0.00209918 1.77 0
M  V30 7866 C 740.783 0.301078 3.41977 0
M  V30 7867 C 739.869 1.3454 4.02194 0
M  V30 7868 N 740.26 2.55181 4.36711 0
M  V30 7869 C 738.558 1.19742 4.29625 0
M  V30 7870 C 739.259 3.22094 4.84387 0
M  V30 7871 N 738.235 2.49486 4.82968 0
M  V30 7872 H 742.037 1.73105 2.37511 0
M  V30 7873 H 739.551 1.03601 1.25063 0
M  V30 7874 H 741.548 0.040914 4.1688 0
M  V30 7875 H 740.208 -0.610629 3.18907 0
M  V30 7876 H 741.219 2.92349 4.27496 0
M  V30 7877 H 737.896 0.345353 4.16069 0
M  V30 7878 H 739.286 4.24996 5.20411 0
M  V30 7879 N 742.006 -1.2595 0.947325 0
M  V30 7880 C 742.956 -2.23859 0.432547 0
M  V30 7881 C 743.94 -1.53755 -0.474154 0
M  V30 7882 O 745.132 -1.74293 -0.308397 0
M  V30 7883 C 742.261 -3.42027 -0.295318 0
M  V30 7884 C 741.347 -4.19409 0.62903 0
M  V30 7885 N 741.738 -4.74284 1.7575 0
M  V30 7886 C 740.036 -4.43866 0.435805 0
M  V30 7887 C 740.737 -5.32821 2.33401 0
M  V30 7888 N 739.713 -5.18858 1.62135 0
M  V30 7889 H 743.515 -2.63886 1.29388 0
M  V30 7890 H 741.029 -1.41105 0.80393 0
M  V30 7891 H 743.026 -4.11297 -0.681188 0
M  V30 7892 H 741.686 -3.03526 -1.15334 0
M  V30 7893 H 742.697 -4.71641 2.13952 0
M  V30 7894 H 739.374 -4.15768 -0.37994 0
M  V30 7895 H 740.764 -5.86111 3.28517 0
M  V30 7896 N 743.484 -0.715051 -1.40445 0
M  V30 7897 C 744.434 -0.038591 -2.27967 0
M  V30 7898 C 745.418 0.733099 -1.43229 0
M  V30 7899 O 746.61 0.605388 -1.66325 0
M  V30 7900 C 743.739 0.882801 -3.31755 0
M  V30 7901 C 742.825 0.106325 -4.23967 0
M  V30 7902 N 743.216 -0.910143 -4.97544 0
M  V30 7903 C 741.514 0.33896 -4.4471 0
M  V30 7904 C 742.215 -1.37665 -5.65175 0
M  V30 7905 N 741.191 -0.698905 -5.39088 0
M  V30 7906 H 744.993 -0.81765 -2.82297 0
M  V30 7907 H 742.507 -0.547591 -1.5289 0
M  V30 7908 H 744.504 1.38273 -3.93302 0
M  V30 7909 H 743.164 1.66124 -2.78985 0
M  V30 7910 H 744.175 -1.29097 -5.01552 0
M  V30 7911 H 740.852 1.09377 -4.02918 0
M  V30 7912 H 742.242 -2.22122 -6.34123 0
M  V30 7913 N 744.962 1.50701 -0.461195 0
M  V30 7914 C 746.192 2.06381 0.0950376 0
M  V30 7915 C 746.6 1.32627 1.34933 0
M  V30 7916 O 745.943 0.386137 1.79596 0
M  V30 7917 C 746.005 3.56558 0.458965 0
M  V30 7918 C 745.669 4.51732 -0.691891 0
M  V30 7919 C 746.666 4.95594 -1.57105 0
M  V30 7920 C 744.351 4.94542 -0.879407 0
M  V30 7921 C 746.345 5.80963 -2.62223 0
M  V30 7922 C 744.032 5.79695 -1.93382 0
M  V30 7923 C 745.03 6.22806 -2.80359 0
M  V30 7924 O 744.718 7.06265 -3.83986 0
M  V30 7925 H 744.45 0.676 0.000687488 0
M  V30 7926 H 747.004 1.94974 -0.646087 0
M  V30 7927 H 745.234 3.65832 1.25314 0
M  V30 7928 H 746.923 3.94647 0.949124 0
M  V30 7929 H 747.689 4.63197 -1.43783 0
M  V30 7930 H 743.568 4.60513 -0.211907 0
M  V30 7931 H 747.112 6.14533 -3.30143 0
M  V30 7932 H 743.009 6.11506 -2.06715 0
M  V30 7933 H 743.777 7.24494 -3.80855 0
M  V30 7934 N 746.441 0.193421 1.56409 0
M  V30 7935 C 747.391 -0.74089 2.15627 0
M  V30 7936 C 748.375 -1.17747 1.09656 0
M  V30 7937 O 749.567 -1.13615 1.35723 0
M  V30 7938 C 746.696 -1.96091 2.81786 0
M  V30 7939 C 745.782 -1.54531 3.94944 0
M  V30 7940 N 746.173 -0.840569 4.98767 0
M  V30 7941 C 744.471 -1.83473 4.06514 0
M  V30 7942 C 745.172 -0.632571 5.7825 0
M  V30 7943 N 744.148 -1.18078 5.30621 0
M  V30 7944 H 747.95 -0.193718 2.93261 0
M  V30 7945 H 745.464 -0.00643211 1.62399 0
M  V30 7946 H 747.461 -2.64071 3.22602 0
M  V30 7947 H 746.121 -2.51282 2.05639 0
M  V30 7948 H 747.132 -0.496218 5.15517 0
M  V30 7949 H 743.809 -2.40184 3.41493 0
M  V30 7950 H 745.199 -0.0736433 6.7186 0
M  V30 7951 N 747.919 -1.57396 -0.0801906 0
M  V30 7952 C 748.849 -2.06145 -1.09665 0
M  V30 7953 C 749.83 -0.953273 -1.40878 0
M  V30 7954 O 751.015 -1.22548 -1.50651 0
M  V30 7955 C 748.145 -2.49836 -2.41245 0
M  V30 7956 C 747.099 -3.64454 -2.24405 0
M  V30 7957 C 746.425 -3.94172 -3.61293 0
M  V30 7958 C 747.725 -4.94807 -1.67223 0
M  V30 7959 H 749.419 -2.91316 -0.691028 0
M  V30 7960 H 746.965 -1.40145 -0.330957 0
M  V30 7961 H 748.918 -2.82552 -3.12638 0
M  V30 7962 H 747.642 -1.61683 -2.83771 0
M  V30 7963 H 746.301 -3.32008 -1.55454 0
M  V30 7964 H 745.949 -3.03163 -4.01374 0
M  V30 7965 H 745.649 -4.71345 -3.50867 0
M  V30 7966 H 747.173 -4.29376 -4.3413 0
M  V30 7967 H 748.587 -5.25807 -2.28472 0
M  V30 7968 H 746.984 -5.76245 -1.67515 0
M  V30 7969 H 748.054 -4.80751 -0.632944 0
M  V30 7970 N 749.397 0.351382 -1.53633 0
M  V30 7971 C 750.645 1.09034 -1.70165 0
M  V30 7972 C 750.966 1.89413 -0.463422 0
M  V30 7973 O 750.236 1.888 0.522624 0
M  V30 7974 H 748.816 0.405522 -0.627344 0
M  V30 7975 H 751.478 0.394554 -1.90865 0
M  V30 7976 H 750.574 1.77215 -2.56907 0
M  V30 7977 N 750.875 1.45233 0.611969 0
M  V30 7978 C 751.823 1.53898 1.74408 0
M  V30 7979 C 752.817 0.409254 1.64382 0
M  V30 7980 O 754.023 0.584988 1.70229 0
M  V30 7981 H 750.398 0.483303 0.576127 0
M  V30 7982 H 752.369 2.49143 1.64227 0
M  V30 7983 C 751.118 1.51865 3.12782 0
M  V30 7984 H 750.441 2.38118 3.21154 0
M  V30 7985 H 751.881 1.61986 3.91838 0
M  V30 7986 C 750.34 0.242374 3.36027 0
M  V30 7987 O 750.87 -0.679587 3.9591 0
M  V30 7988 N 749.076 0.139448 2.90265 0
M  V30 7989 H 748.623 0.890571 2.41716 0
M  V30 7990 H 748.581 -0.713686 3.06193 0
M  V30 7991 N 752.353 -0.854086 1.3245 0
M  V30 7992 C 753.601 -1.60513 1.228 0
M  V30 7993 C 753.922 -1.93865 -0.210073 0
M  V30 7994 O 753.192 -1.59673 -1.13496 0
M  V30 7995 H 751.772 -0.595099 0.451516 0
M  V30 7996 H 754.434 -1.0216 1.6598 0
M  V30 7997 H 753.53 -2.54182 1.81102 0
M  V30 7998 N 753.831 -1.1567 -1.07043 0
M  V30 7999 C 755.059 -0.957471 -1.83412 0
M  V30 8000 C 755.474 0.494271 -1.82215 0
M  V30 8001 O 754.831 1.34288 -1.23584 0
M  V30 8002 C 754.882 -1.46784 -3.30359 0
M  V30 8003 O 754.603 -2.86271 -3.31633 0
M  V30 8004 C 756.104 -1.31054 -4.23485 0
M  V30 8005 H 753.324 -0.33986 -0.578564 0
M  V30 8006 H 755.868 -1.53518 -1.35102 0
M  V30 8007 H 754.023 -0.932586 -3.76007 0
M  V30 8008 H 754.437 -3.0948 -4.23465 0
M  V30 8009 H 755.911 -1.71605 -5.24648 0
M  V30 8010 H 756.388 -0.255107 -4.38458 0
M  V30 8011 H 756.994 -1.83503 -3.83676 0
M  V30 8012 N 755.309 1.25446 -0.953992 0
M  V30 8013 C 756.239 2.28264 -0.491717 0
M  V30 8014 C 757.22 1.63717 0.461617 0
M  V30 8015 O 758.405 1.90821 0.36071 0
M  V30 8016 C 755.535 3.46525 0.231915 0
M  V30 8017 C 754.489 4.23247 -0.636098 0
M  V30 8018 C 753.815 5.34254 0.218238 0
M  V30 8019 C 755.115 4.85971 -1.91389 0
M  V30 8020 H 756.809 2.67183 -1.35106 0
M  V30 8021 H 754.355 1.2844 -0.651095 0
M  V30 8022 H 756.308 4.17576 0.566439 0
M  V30 8023 H 755.032 3.06594 1.12551 0
M  V30 8024 H 753.691 3.53978 -0.953696 0
M  V30 8025 H 753.339 4.90564 1.11156 0
M  V30 8026 H 753.039 5.86501 -0.359232 0
M  V30 8027 H 754.563 6.08138 0.547743 0
M  V30 8028 H 755.977 5.49168 -1.64581 0
M  V30 8029 H 754.374 5.48391 -2.43696 0
M  V30 8030 H 755.444 4.08192 -2.61738 0
M  V30 8031 N 756.787 0.722489 1.40064 0
M  V30 8032 C 758.203 0.396758 1.5459 0
M  V30 8033 C 758.403 -1.09375 1.69232 0
M  V30 8034 O 757.459 -1.87984 1.68578 0
M  V30 8035 C 758.772 1.16885 2.77053 0
M  V30 8036 C 760.32 1.15583 2.90877 0
M  V30 8037 C 760.795 1.91023 4.16262 0
M  V30 8038 N 762.286 1.88126 4.23276 0
M  V30 8039 C 763.021 2.43315 5.19216 0
M  V30 8040 N 762.517 3.07089 6.21022 0
M  V30 8041 N 764.31 2.33418 5.11344 0
M  V30 8042 H 756.461 1.68887 1.28806 0
M  V30 8043 H 758.724 0.714231 0.62336 0
M  V30 8044 H 758.43 2.22301 2.72534 0
M  V30 8045 H 758.304 0.765011 3.69361 0
M  V30 8046 H 760.691 0.10984 2.94896 0
M  V30 8047 H 760.772 1.59895 1.99668 0
M  V30 8048 H 760.416 2.95616 4.13006 0
M  V30 8049 H 760.346 1.44126 5.06493 0
M  V30 8050 H 762.837 1.41654 3.50346 0
M  V30 8051 H 763.15 3.467 6.90666 0
M  V30 8052 H 761.495 3.11175 6.21446 0
M  V30 8053 H 764.686 1.83248 4.30741 0
M  V30 8054 H 764.859 2.7673 5.85939 0
M  V30 8055 N 758.265 -1.50454 0.469181 0
M  V30 8056 C 759.228 -2.2703 -0.314643 0
M  V30 8057 C 760.228 -1.31734 -0.922111 0
M  V30 8058 O 761.418 -1.55176 -0.791588 0
M  V30 8059 C 758.55 -3.08616 -1.44806 0
M  V30 8060 H 759.743 -2.97769 0.356892 0
M  V30 8061 H 757.296 -1.54698 0.223191 0
M  V30 8062 H 758.031 -2.42369 -2.1547 0
M  V30 8063 H 757.816 -3.78647 -1.01829 0
M  V30 8064 H 759.306 -3.66536 -2.00103 0
M  V30 8065 N 759.743 -0.201713 -1.56304 0
M  V30 8066 C 761.154 0.309711 -1.84113 0
M  V30 8067 C 761.505 1.60912 -1.12258 0
M  V30 8068 O 760.63 2.12937 -0.385587 0
M  V30 8069 C 761.225 0.568706 -3.33993 0
M  V30 8070 C 759.784 1.02448 -3.6219 0
M  V30 8071 C 758.931 0.0766842 -2.77194 0
M  V30 8072 H 761.882 -0.425356 -1.52893 0
M  V30 8073 H 761.903 1.41721 -3.53122 0
M  V30 8074 H 761.415 -0.37719 -3.86263 0
M  V30 8075 H 759.516 1.98443 -3.15359 0
M  V30 8076 H 759.629 0.912619 -4.70328 0
M  V30 8077 H 757.993 0.579809 -2.48013 0
M  V30 8078 H 758.776 -0.863774 -3.32256 0
M  V30 8079 N 761.222 1.57436 0.0718424 0
M  V30 8080 C 762.638 1.53792 0.426628 0
M  V30 8081 C 762.838 0.921887 1.79174 0
M  V30 8082 O 761.894 0.524374 2.46995 0
M  V30 8083 C 763.207 2.98443 0.367739 0
M  V30 8084 C 764.755 3.09778 0.447928 0
M  V30 8085 C 765.23 4.5608 0.418946 0
M  V30 8086 N 766.721 4.60716 0.479022 0
M  V30 8087 C 767.456 5.71397 0.47881 0
M  V30 8088 N 766.952 6.91443 0.433417 0
M  V30 8089 N 768.745 5.59639 0.525364 0
M  V30 8090 H 760.896 1.95848 -0.822033 0
M  V30 8091 H 763.159 0.896418 -0.308447 0
M  V30 8092 H 762.865 3.47072 -0.56865 0
M  V30 8093 H 762.739 3.58335 1.17795 0
M  V30 8094 H 765.126 2.61122 1.37474 0
M  V30 8095 H 765.207 2.52796 -0.390857 0
M  V30 8096 H 764.851 5.05393 -0.504016 0
M  V30 8097 H 764.781 5.10925 1.27526 0
M  V30 8098 H 767.272 3.74328 0.518355 0
M  V30 8099 H 767.585 7.71562 0.43718 0
M  V30 8100 H 765.93 6.93847 0.400106 0
M  V30 8101 H 769.121 4.64756 0.558519 0
M  V30 8102 H 769.294 6.45896 0.52173 0
M  V30 8103 N 762.7 -0.34323 1.53817 0
M  V30 8104 C 763.663 -1.40444 1.8113 0
M  V30 8105 C 764.663 -1.45604 0.682366 0
M  V30 8106 O 765.853 -1.45974 0.950649 0
M  V30 8107 C 762.985 -2.79369 1.95361 0
M  V30 8108 H 764.178 -1.17489 2.75928 0
M  V30 8109 H 761.731 -0.577636 1.45234 0
M  V30 8110 H 762.466 -3.07607 1.02707 0
M  V30 8111 H 762.251 -2.7702 2.77493 0
M  V30 8112 H 763.741 -3.56178 2.18008 0
M  V30 8113 N 764.178 -1.45556 -0.604258 0
M  V30 8114 C 765.403 -1.53509 -1.39462 0
M  V30 8115 C 765.828 -0.169638 -1.87333 0
M  V30 8116 O 765.186 0.846346 -1.60333 0
M  V30 8117 C 765.234 -2.52654 -2.5729 0
M  V30 8118 O 764.338 -2.04666 -3.5803 0
M  V30 8119 H 763.679 -0.517355 -0.416221 0
M  V30 8120 H 766.209 -1.90939 -0.735072 0
M  V30 8121 H 766.219 -2.71568 -3.04491 0
M  V30 8122 H 764.894 -3.51823 -2.21797 0
M  V30 8123 H 763.471 -1.95643 -3.17456 0
M  V30 8124 N 765.656 0.84705 -1.32902 0
M  V30 8125 C 767.067 1.41785 -1.21466 0
M  V30 8126 C 767.418 1.95464 0.169767 0
M  V30 8127 O 766.543 1.88157 1.06892 0
M  V30 8128 C 767.138 2.57734 -2.19906 0
M  V30 8129 C 765.697 3.10791 -2.12334 0
M  V30 8130 C 764.844 1.83562 -2.07847 0
M  V30 8131 H 767.795 0.653532 -1.44619 0
M  V30 8132 H 767.816 3.35123 -1.80202 0
M  V30 8133 H 767.328 2.18635 -3.20656 0
M  V30 8134 H 765.429 3.54455 -1.14858 0
M  V30 8135 H 765.542 3.71519 -3.02506 0
M  V30 8136 H 763.906 2.03475 -1.53199 0
M  V30 8137 H 764.689 1.4667 -3.10392 0
M  V30 8138 N 767.134 1.16236 1.06428 0
M  V30 8139 C 768.044 0.881976 2.1739 0
M  V30 8140 C 769.06 -0.145259 1.73393 0
M  V30 8141 O 770.236 0.0310558 2.01376 0
M  V30 8142 C 767.301 0.385496 3.4455 0
M  V30 8143 C 766.362 1.47779 4.03063 0
M  V30 8144 C 765.595 1.0049 5.24154 0
M  V30 8145 O 765.818 -0.145889 5.70213 0
M  V30 8146 O 764.752 1.79265 5.74585 0
M  V30 8147 H 768.578 1.80983 2.43883 0
M  V30 8148 H 766.163 0.942226 1.15942 0
M  V30 8149 H 768.045 0.115536 4.21242 0
M  V30 8150 H 766.72 -0.514369 3.19587 0
M  V30 8151 H 765.627 1.80147 3.27869 0
M  V30 8152 H 766.96 2.35291 4.32318 0
M  V30 8153 N 768.612 -1.24939 0.960631 0
M  V30 8154 C 769.861 -1.92118 0.614298 0
M  V30 8155 C 770.174 -1.75998 -0.853474 0
M  V30 8156 O 771.38 -2.37804 -1.31003 0
M  V30 8157 C 769.836 -3.44303 1.04801 0
M  V30 8158 C 769.444 -3.69123 2.53875 0
M  V30 8159 C 771.188 -4.17375 0.774497 0
M  V30 8160 C 769.095 -5.14843 2.91016 0
M  V30 8161 H 768.025 -0.719319 0.226045 0
M  V30 8162 H 770.676 -1.41701 1.16589 0
M  V30 8163 H 769.058 -3.93715 0.42479 0
M  V30 8164 H 770.232 -3.30339 3.21267 0
M  V30 8165 H 768.547 -3.09323 2.78762 0
M  V30 8166 H 771.144 -5.24723 1.02808 0
M  V30 8167 H 771.487 -4.15294 -0.289192 0
M  V30 8168 H 772.02 -3.7389 1.35835 0
M  V30 8169 H 768.759 -5.2204 3.96427 0
M  V30 8170 H 768.279 -5.54652 2.28302 0
M  V30 8171 H 769.958 -5.83017 2.80535 0
M  V30 8172 N 770.09 -0.729906 -1.39679 0
M  V30 8173 C 771.022 -0.0470588 -2.29152 0
M  V30 8174 C 772.035 0.708808 -1.4656 0
M  V30 8175 O 773.224 0.553815 -1.69691 0
M  V30 8176 C 770.324 0.957612 -3.25089 0
M  V30 8177 C 769.497 0.264321 -4.36601 0
M  V30 8178 C 768.556 1.17638 -5.12882 0
M  V30 8179 O 767.582 0.655777 -5.6541 0
M  V30 8180 N 768.784 2.50649 -5.23598 0
M  V30 8181 H 771.549 -0.815364 -2.88395 0
M  V30 8182 H 769.11 -0.578707 -1.51204 0
M  V30 8183 H 771.102 1.57026 -3.72995 0
M  V30 8184 H 769.672 1.62716 -2.66912 0
M  V30 8185 H 768.892 -0.528732 -3.90638 0
M  V30 8186 H 770.18 -0.216344 -5.0834 0
M  V30 8187 H 769.578 2.95427 -4.82431 0
M  V30 8188 H 768.135 3.07022 -5.74961 0
M  V30 8189 N 771.568 1.50203 -0.477153 0
M  V30 8190 C 772.845 1.95115 0.137609 0
M  V30 8191 C 773.225 1.41778 1.56404 0
M  V30 8192 O 772.573 0.621333 2.1989 0
M  V30 8193 C 772.783 3.4892 0.0747168 0
M  V30 8194 C 774.131 4.238 0.260585 0
M  V30 8195 O 775.155 3.5588 0.151021 0
M  V30 8196 O 774.014 5.44366 0.482534 0
M  V30 8197 H 771.108 0.81987 0.108364 0
M  V30 8198 H 773.654 1.60946 -0.537989 0
M  V30 8199 H 772.426 3.80308 -0.920966 0
M  V30 8200 H 772.049 3.89642 0.791509 0
M  V30 8201 N 773.046 0.209999 1.56195 0
M  V30 8202 C 774.462 -0.145598 1.58934 0
M  V30 8203 C 774.662 -1.59868 1.22656 0
M  V30 8204 O 773.718 -2.33689 0.956336 0
M  V30 8205 C 775.031 0.170243 3.00218 0
M  V30 8206 C 776.579 0.111548 3.12801 0
M  V30 8207 C 777.054 0.400904 4.56242 0
M  V30 8208 N 778.545 0.350058 4.61875 0
M  V30 8209 C 779.28 0.547598 5.70779 0
M  V30 8210 N 778.776 0.806291 6.88092 0
M  V30 8211 N 780.569 0.480827 5.6004 0
M  V30 8212 H 772.72 1.15804 1.78054 0
M  V30 8213 H 774.983 0.463326 0.827063 0
M  V30 8214 H 774.689 1.17833 3.31373 0
M  V30 8215 H 774.563 -0.520208 3.73596 0
M  V30 8216 H 776.95 -0.887162 2.81449 0
M  V30 8217 H 777.031 0.835302 2.41777 0
M  V30 8218 H 776.675 1.397 4.8831 0
M  V30 8219 H 776.605 -0.34391 5.25476 0
M  V30 8220 H 779.096 0.157334 3.77572 0
M  V30 8221 H 779.409 0.945433 7.66995 0
M  V30 8222 H 777.754 0.843355 6.89864 0
M  V30 8223 H 780.945 0.279037 4.67268 0
M  V30 8224 H 781.118 0.638189 6.4485 0
M  V30 8225 N 774.524 -1.57472 -0.0634922 0
M  V30 8226 C 775.801 -1.78736 -0.794538 0
M  V30 8227 C 776.181 -0.799645 -1.95369 0
M  V30 8228 O 775.529 0.165521 -2.279 0
M  V30 8229 C 775.739 -3.25471 -1.25975 0
M  V30 8230 C 777.087 -3.89528 -1.68976 0
M  V30 8231 O 778.111 -3.29412 -1.35521 0
M  V30 8232 O 776.97 -4.95305 -2.30944 0
M  V30 8233 H 774.064 -0.733813 -0.381376 0
M  V30 8234 H 776.61 -1.69646 -0.0429258 0
M  V30 8235 H 775.382 -3.88922 -0.430721 0
M  V30 8236 H 775.005 -3.39317 -2.07243 0
M  V30 8237 N 776.003 0.335068 -1.53997 0
M  V30 8238 C 776.966 1.39481 -1.81872 0
M  V30 8239 C 777.966 1.4524 -0.690078 0
M  V30 8240 O 779.156 1.45467 -0.958377 0
M  V30 8241 C 776.288 2.78329 -1.9684 0
M  V30 8242 H 777.481 1.16024 -2.76547 0
M  V30 8243 H 775.034 0.569926 -1.45539 0
M  V30 8244 H 775.769 3.07058 -1.04337 0
M  V30 8245 H 775.554 2.75544 -2.78958 0
M  V30 8246 H 777.044 3.55016 -2.19894 0
M  V30 8247 N 777.481 1.45874 0.596531 0
M  V30 8248 C 778.429 1.55739 1.72766 0
M  V30 8249 C 779.423 0.426666 1.63939 0
M  V30 8250 O 780.629 0.60301 1.69599 0
M  V30 8251 H 777.004 0.489386 0.570968 0
M  V30 8252 H 778.975 2.50871 1.61575 0
M  V30 8253 C 777.724 1.55174 3.11153 0
M  V30 8254 H 777.047 2.41511 3.1861 0
M  V30 8255 H 778.487 1.66133 3.90097 0
M  V30 8256 C 776.946 0.278001 3.35751 0
M  V30 8257 O 777.476 -0.637557 3.96608 0
M  V30 8258 N 775.682 0.170227 2.90101 0
M  V30 8259 H 775.229 0.916159 2.40758 0
M  V30 8260 H 775.187 -0.68117 3.06932 0
M  V30 8261 N 778.959 -0.83999 1.33349 0
M  V30 8262 C 780.207 -1.59202 1.24496 0
M  V30 8263 C 780.528 -1.94077 -0.189499 0
M  V30 8264 O 779.798 -1.60868 -1.11796 0
M  V30 8265 H 778.378 -0.590276 0.457802 0
M  V30 8266 H 781.04 -1.00394 1.67054 0
M  V30 8267 H 780.136 -2.52247 1.83788 0
M  V30 8268 N 780.437 -1.16799 -1.0581 0
M  V30 8269 C 781.662 -0.977402 -1.82925 0
M  V30 8270 C 782.087 0.469514 -1.82146 0
M  V30 8271 O 781.445 1.33576 -1.22585 0
M  V30 8272 C 781.493 -1.51543 -3.27211 0
M  V30 8273 O 780.597 -0.725021 -4.05977 0
M  V30 8274 H 779.938 -0.347474 -0.565825 0
M  V30 8275 H 782.468 -1.55151 -1.33376 0
M  V30 8276 H 782.478 -1.53502 -3.78023 0
M  V30 8277 H 781.153 -2.56872 -3.27093 0
M  V30 8278 H 779.73 -0.77634 -3.64729 0
M  V30 8279 N 781.915 1.24427 -0.967243 0
M  V30 8280 C 783.331 1.44684 -0.6737 0
M  V30 8281 C 783.531 1.86429 0.764625 0
M  V30 8282 O 782.587 2.00211 1.53857 0
M  V30 8283 C 783.9 2.509 -1.6574 0
M  V30 8284 C 785.448 2.64728 -1.66998 0
M  V30 8285 C 785.923 3.7414 -2.64165 0
M  V30 8286 N 787.414 3.81567 -2.62604 0
M  V30 8287 C 788.149 4.6575 -3.34462 0
M  V30 8288 N 787.645 5.54124 -4.15835 0
M  V30 8289 N 789.438 4.59827 -3.23288 0
M  V30 8290 H 781.589 0.956276 -1.89655 0
M  V30 8291 H 783.852 0.48171 -0.816492 0
M  V30 8292 H 783.558 2.27113 -2.68538 0
M  V30 8293 H 783.432 3.4905 -1.42981 0
M  V30 8294 H 785.819 2.87872 -0.649121 0
M  V30 8295 H 785.9 1.66936 -1.93819 0
M  V30 8296 H 785.544 3.51745 -3.66384 0
M  V30 8297 H 785.474 4.71444 -2.34623 0
M  V30 8298 H 787.965 3.18403 -2.03539 0
M  V30 8299 H 788.278 6.15316 -4.67553 0
M  V30 8300 H 786.623 5.53791 -4.19929 0
M  V30 8301 H 789.814 3.898 -2.59179 0
M  V30 8302 H 789.987 5.25208 -3.79553 0
M  V30 8303 N 783.393 0.737304 1.3929 0
M  V30 8304 C 784.809 0.413132 1.5416 0
M  V30 8305 C 785.009 -1.07574 1.70382 0
M  V30 8306 O 784.065 -1.86185 1.70562 0
M  V30 8307 C 785.378 1.19817 2.75798 0
M  V30 8308 C 786.926 1.18662 2.89635 0
M  V30 8309 C 787.401 1.95427 4.14213 0
M  V30 8310 N 788.892 1.92605 4.21257 0
M  V30 8311 C 789.627 2.48808 5.16606 0
M  V30 8312 N 789.123 3.13659 6.1773 0
M  V30 8313 N 790.916 2.38829 5.08839 0
M  V30 8314 H 783.067 1.70243 1.27008 0
M  V30 8315 H 785.33 0.720802 0.61575 0
M  V30 8316 H 785.036 2.25179 2.70161 0
M  V30 8317 H 784.91 0.804144 3.68529 0
M  V30 8318 H 787.297 0.141112 2.94762 0
M  V30 8319 H 787.378 1.62003 1.97961 0
M  V30 8320 H 787.022 2.9998 4.09847 0
M  V30 8321 H 786.952 1.4949 5.04936 0
M  V30 8322 H 789.443 1.45362 3.48824 0
M  V30 8323 H 789.756 3.54006 6.8695 0
M  V30 8324 H 788.101 3.17749 6.1811 0
M  V30 8325 H 791.292 1.87806 4.28773 0
M  V30 8326 H 791.465 2.82929 5.82971 0
M  V30 8327 N 784.871 -1.49948 0.485112 0
M  V30 8328 C 785.801 -2.31675 -0.291364 0
M  V30 8329 C 786.782 -1.39216 -0.977383 0
M  V30 8330 O 787.967 -1.68133 -0.971855 0
M  V30 8331 C 785.097 -3.19326 -1.36558 0
M  V30 8332 C 784.051 -4.2045 -0.800359 0
M  V30 8333 C 783.377 -4.96931 -1.97391 0
M  V30 8334 C 784.677 -5.21925 0.197867 0
M  V30 8335 H 786.371 -2.96839 0.390775 0
M  V30 8336 H 783.917 -1.42749 0.189375 0
M  V30 8337 H 785.87 -3.75304 -1.91638 0
M  V30 8338 H 784.594 -2.52074 -2.07668 0
M  V30 8339 H 783.253 -3.65594 -0.271428 0
M  V30 8340 H 782.901 -4.26141 -2.67232 0
M  V30 8341 H 782.601 -5.65344 -1.60187 0
M  V30 8342 H 784.125 -5.55749 -2.52935 0
M  V30 8343 H 785.539 -5.72691 -0.264239 0
M  V30 8344 H 783.936 -5.98138 0.484908 0
M  V30 8345 H 785.006 -4.71809 1.11912 0
M  V30 8346 N 786.349 -0.21828 -1.56081 0
M  V30 8347 C 787.282 0.733096 -2.16104 0
M  V30 8348 C 788.26 1.19333 -1.10447 0
M  V30 8349 O 789.444 1.27666 -1.38685 0
M  V30 8350 C 786.571 1.99283 -2.73868 0
M  V30 8351 C 785.617 1.67285 -3.92324 0
M  V30 8352 S 786.45 0.800511 -5.29483 0
M  V30 8353 C 787.606 2.06988 -5.90683 0
M  V30 8354 H 787.839 0.222917 -2.96463 0
M  V30 8355 H 785.372 -0.00300946 -1.544 0
M  V30 8356 H 787.33 2.71618 -3.07789 0
M  V30 8357 H 785.991 2.47414 -1.93508 0
M  V30 8358 H 785.184 2.60874 -4.31232 0
M  V30 8359 H 784.786 1.03016 -3.59533 0
M  V30 8360 H 787.078 3.02019 -6.06457 0
M  V30 8361 H 788.021 1.72476 -6.86773 0
M  V30 8362 H 788.429 2.20893 -5.19487 0
M  V30 8363 N 787.827 1.57504 0.0551401 0
M  V30 8364 C 788.757 2.07864 1.06372 0
M  V30 8365 C 789.738 0.975565 1.39344 0
M  V30 8366 O 790.923 1.24929 1.48682 0
M  V30 8367 C 788.053 2.53643 2.3724 0
M  V30 8368 C 787.007 3.67978 2.18578 0
M  V30 8369 C 786.333 3.9987 3.54976 0
M  V30 8370 C 787.633 4.97405 1.59329 0
M  V30 8371 H 789.327 2.92379 0.644595 0
M  V30 8372 H 786.873 1.40654 0.308619 0
M  V30 8373 H 788.826 2.8749 3.08103 0
M  V30 8374 H 787.55 1.66177 2.81163 0
M  V30 8375 H 786.209 3.3444 1.50152 0
M  V30 8376 H 785.857 3.0951 3.965 0
M  V30 8377 H 785.557 4.76867 3.43324 0
M  V30 8378 H 787.081 4.36228 4.27244 0
M  V30 8379 H 788.495 5.29375 2.20078 0
M  V30 8380 H 786.892 5.78837 1.58327 0
M  V30 8381 H 787.962 4.81697 0.55638 0
M  V30 8382 N 789.305 -0.326896 1.54172 0
M  V30 8383 C 790.716 -0.901533 1.63491 0
M  V30 8384 C 791.067 -1.88994 0.52684 0
M  V30 8385 O 790.192 -2.137 -0.340794 0
M  V30 8386 C 790.787 -1.64192 2.96355 0
M  V30 8387 C 789.346 -2.16533 3.07881 0
M  V30 8388 C 788.493 -0.98966 2.59039 0
M  V30 8389 H 791.444 -0.104568 1.58355 0
M  V30 8390 H 791.465 -2.50592 2.86328 0
M  V30 8391 H 790.977 -0.922291 3.76982 0
M  V30 8392 H 789.078 -2.91622 2.31922 0
M  V30 8393 H 789.191 -2.41762 4.13628 0
M  V30 8394 H 787.555 -1.36787 2.14852 0
M  V30 8395 H 788.338 -0.284401 3.4212 0
M  V30 8396 N 790.784 -1.46188 -0.588786 0
M  V30 8397 C 792.195 -1.45421 -1.17088 0
M  V30 8398 C 792.546 -0.191801 -1.9526 0
M  V30 8399 O 791.671 0.705497 -2.04577 0
M  V30 8400 C 792.266 -2.63467 -2.13004 0
M  V30 8401 C 790.825 -2.6576 -2.6655 0
M  V30 8402 C 789.972 -2.38002 -1.42304 0
M  V30 8403 H 792.923 -1.54156 -0.377052 0
M  V30 8404 H 792.944 -2.38638 -2.96365 0
M  V30 8405 H 792.456 -3.55331 -1.56081 0
M  V30 8406 H 790.557 -1.77952 -3.27359 0
M  V30 8407 H 790.67 -3.65545 -3.09699 0
M  V30 8408 H 789.034 -1.87936 -1.71907 0
M  V30 8409 H 789.817 -3.32035 -0.872209 0
M  V30 8410 N 792.262 0.832906 -1.33792 0
M  V30 8411 C 793.673 1.40489 -1.22963 0
M  V30 8412 C 794.024 1.95633 0.149026 0
M  V30 8413 O 793.149 1.8928 1.04891 0
M  V30 8414 C 793.744 2.55387 -2.22627 0
M  V30 8415 C 792.303 3.08522 -2.15618 0
M  V30 8416 C 791.45 1.81347 -2.09782 0
M  V30 8417 H 794.401 0.638156 -1.45304 0
M  V30 8418 H 794.422 3.33193 -1.83746 0
M  V30 8419 H 793.934 2.15222 -3.22957 0
M  V30 8420 H 792.035 3.53217 -1.18611 0
M  V30 8421 H 792.148 3.6829 -3.0643 0
M  V30 8422 H 790.512 2.01839 -1.55349 0
M  V30 8423 H 791.295 1.43369 -3.1193 0
M  V30 8424 N 793.74 1.17359 1.05189 0
M  V30 8425 C 794.965 0.98709 1.82404 0
M  V30 8426 C 795.39 -0.459848 1.82392 0
M  V30 8427 O 794.748 -1.32924 1.23292 0
M  V30 8428 C 794.796 1.53276 3.26403 0
M  V30 8429 O 793.9 0.746541 4.05587 0
M  V30 8430 H 793.241 0.35047 0.563974 0
M  V30 8431 H 795.771 1.55856 1.32552 0
M  V30 8432 H 795.781 1.55504 3.77203 0
M  V30 8433 H 794.456 2.58603 3.25726 0
M  V30 8434 H 793.033 0.795671 3.64312 0
M  V30 8435 N 795.218 -1.23913 0.973828 0
M  V30 8436 C 796.446 -1.96195 0.656891 0
M  V30 8437 C 796.861 -1.72166 -0.774876 0
M  V30 8438 O 796.218 -1.0091 -1.52064 0
M  V30 8439 C 796.269 -3.49342 0.929638 0
M  V30 8440 O 795.99 -3.72553 2.30512 0
M  V30 8441 C 797.491 -4.38833 0.627739 0
M  V30 8442 H 794.711 -0.624841 0.244572 0
M  V30 8443 H 797.255 -1.57579 1.30343 0
M  V30 8444 H 795.41 -3.85999 0.329216 0
M  V30 8445 H 795.824 -4.66893 2.3898 0
M  V30 8446 H 797.298 -5.45117 0.868991 0
M  V30 8447 H 797.775 -4.37009 -0.438104 0
M  V30 8448 H 798.381 -4.07773 1.20834 0
M  V30 8449 N 796.696 -0.74468 -1.38897 0
M  V30 8450 C 798.107 -0.36568 -1.83084 0
M  V30 8451 C 798.458 1.10436 -1.62168 0
M  V30 8452 O 797.583 1.85281 -1.11804 0
M  V30 8453 C 798.178 -0.656946 -3.3237 0
M  V30 8454 C 796.737 -0.331329 -3.74939 0
M  V30 8455 C 795.884 -0.914661 -2.61781 0
M  V30 8456 H 798.835 -0.941551 -1.27752 0
M  V30 8457 H 798.856 0.0679546 -3.80439 0
M  V30 8458 H 798.368 -1.72693 -3.47561 0
M  V30 8459 H 796.469 0.732426 -3.6533 0
M  V30 8460 H 796.582 -0.820655 -4.72019 0
M  V30 8461 H 794.946 -0.34063 -2.52412 0
M  V30 8462 H 795.729 -1.98949 -2.79775 0
M  V30 8463 N 798.174 1.49689 -0.493057 0
M  V30 8464 C 799.137 2.27502 0.278485 0
M  V30 8465 C 800.137 1.33184 0.901037 0
M  V30 8466 O 801.327 1.56415 0.766801 0
M  V30 8467 C 798.459 3.10881 1.39878 0
M  V30 8468 H 799.652 2.97163 -0.404219 0
M  V30 8469 H 797.205 1.54324 -0.247774 0
M  V30 8470 H 797.94 2.45767 2.11587 0
M  V30 8471 H 797.725 3.80219 0.957924 0
M  V30 8472 H 799.215 3.69673 1.94247 0
M  V30 8473 N 799.652 0.226554 1.55963 0
M  V30 8474 C 800.582 -0.676079 2.23498 0
M  V30 8475 C 801.563 -1.19718 1.20837 0
M  V30 8476 O 802.748 -1.24027 1.49436 0
M  V30 8477 C 799.878 -1.88217 2.91876 0
M  V30 8478 C 798.832 -1.4947 4.01052 0
M  V30 8479 C 798.158 -2.77997 4.56751 0
M  V30 8480 C 799.458 -0.680951 5.17842 0
M  V30 8481 H 801.152 -0.112989 2.99187 0
M  V30 8482 H 798.698 -0.0529046 1.43903 0
M  V30 8483 H 800.651 -2.51911 3.37815 0
M  V30 8484 H 799.375 -2.47031 2.13643 0
M  V30 8485 H 798.034 -0.881199 3.55852 0
M  V30 8486 H 797.682 -3.34966 3.75243 0
M  V30 8487 H 797.382 -2.52803 5.30438 0
M  V30 8488 H 798.906 -3.42625 5.05411 0
M  V30 8489 H 800.32 -1.22171 5.60131 0
M  V30 8490 H 798.717 -0.525898 5.97791 0
M  V30 8491 H 799.787 0.311346 4.83899 0
M  V30 8492 N 801.13 -1.57531 -0.0467866 0
M  V30 8493 C 802.355 -1.93087 -0.757123 0
M  V30 8494 C 802.78 -0.825116 -1.69037 0
M  V30 8495 O 802.138 0.220449 -1.79955 0
M  V30 8496 C 802.186 -3.27669 -1.5055 0
M  V30 8497 O 801.29 -3.18667 -2.61773 0
M  V30 8498 H 800.631 -0.631597 -0.204892 0
M  V30 8499 H 803.161 -2.04599 -0.00755232 0
M  V30 8500 H 803.171 -3.6214 -1.87932 0
M  V30 8501 H 801.846 -4.07717 -0.820931 0
M  V30 8502 H 800.423 -2.95798 -2.27064 0
M  V30 8503 N 802.608 0.318715 -1.54344 0
M  V30 8504 C 803.856 1.054 -1.72439 0
M  V30 8505 C 804.177 1.88388 -0.503495 0
M  V30 8506 O 803.447 1.89866 0.48246 0
M  V30 8507 H 802.027 0.392124 -0.635805 0
M  V30 8508 H 804.689 0.35398 -1.91659 0
M  V30 8509 H 803.785 1.71726 -2.60608 0
M  V30 8510 N 804.086 1.46499 0.581025 0
M  V30 8511 C 805.049 1.5677 1.672 0
M  V30 8512 C 806.049 0.444716 1.54528 0
M  V30 8513 O 807.239 0.709074 1.59116 0
M  V30 8514 C 804.371 1.4896 3.06633 0
M  V30 8515 H 805.564 2.54 1.5945 0
M  V30 8516 H 803.117 1.34334 0.799003 0
M  V30 8517 H 803.852 0.530168 3.19937 0
M  V30 8518 H 803.637 2.30439 3.17239 0
M  V30 8519 H 805.127 1.59237 3.86048 0
M  V30 8520 N 805.565 -0.825799 1.34232 0
M  V30 8521 C 806.976 -1.39835 1.23706 0
M  V30 8522 C 807.327 -1.95709 -0.138649 0
M  V30 8523 O 806.452 -1.89833 -1.03886 0
M  V30 8524 C 807.047 -2.54203 2.23978 0
M  V30 8525 C 805.606 -3.07374 2.17251 0
M  V30 8526 C 804.753 -1.80232 2.10741 0
M  V30 8527 H 807.704 -0.630442 1.4564 0
M  V30 8528 H 807.725 -3.32214 1.8551 0
M  V30 8529 H 807.237 -2.13506 3.24094 0
M  V30 8530 H 805.338 -3.52583 1.20483 0
M  V30 8531 H 805.451 -3.6666 3.08379 0
M  V30 8532 H 803.815 -2.01012 1.56417 0
M  V30 8533 H 804.598 -1.41713 3.12686 0
M  V30 8534 N 807.043 -1.17915 -1.04565 0
M  V30 8535 C 808.454 -0.976383 -1.59134 0
M  V30 8536 C 808.805 0.475267 -1.90357 0
M  V30 8537 O 807.93 1.35172 -1.6899 0
M  V30 8538 C 808.525 -1.76604 -2.89131 0
M  V30 8539 C 807.084 -1.60777 -3.40335 0
M  V30 8540 C 806.231 -1.76369 -2.13985 0
M  V30 8541 H 809.182 -1.32532 -0.872985 0
M  V30 8542 H 809.203 -1.25215 -3.59307 0
M  V30 8543 H 808.715 -2.82252 -2.66375 0
M  V30 8544 H 806.816 -0.576436 -3.68114 0
M  V30 8545 H 806.929 -2.40268 -4.14497 0
M  V30 8546 H 805.293 -1.19268 -2.25049 0
M  V30 8547 H 806.076 -2.83441 -1.9369 0
M  V30 8548 N 808.521 1.23394 -0.980386 0
M  V30 8549 C 809.769 1.91431 -0.647978 0
M  V30 8550 C 810.09 1.76871 0.821066 0
M  V30 8551 O 809.36 1.14808 1.58732 0
M  V30 8552 H 807.94 0.708516 -0.236673 0
M  V30 8553 H 810.602 1.50019 -1.2442 0
M  V30 8554 H 809.698 2.98854 -0.899592 0
M  V30 8555 N 809.999 0.752036 1.385 0
M  V30 8556 C 811.247 0.306895 1.99756 0
M  V30 8557 C 811.568 -1.11478 1.59992 0
M  V30 8558 O 810.838 -1.76206 0.856045 0
M  V30 8559 H 809.418 0.11048 0.738785 0
M  V30 8560 H 812.08 0.965785 1.69289 0
M  V30 8561 H 811.176 0.368797 3.09913 0
M  V30 8562 N 811.477 -1.49425 0.500989 0
M  V30 8563 C 812.44 -2.27646 -0.266416 0
M  V30 8564 C 813.44 -1.3366 -0.893961 0
M  V30 8565 O 814.63 -1.5682 -0.758495 0
M  V30 8566 C 811.762 -3.11618 -1.38227 0
M  V30 8567 H 812.955 -2.96945 0.419973 0
M  V30 8568 H 810.508 -1.5419 0.255954 0
M  V30 8569 H 811.243 -2.46885 -2.10281 0
M  V30 8570 H 811.028 -3.80721 -0.937746 0
M  V30 8571 H 812.518 -3.70698 -1.92283 0
M  V30 8572 N 812.955 -0.234822 -1.55841 0
M  V30 8573 C 813.865 0.680828 -2.24504 0
M  V30 8574 C 814.881 1.20306 -1.25708 0
M  V30 8575 O 816.057 1.24188 -1.58554 0
M  V30 8576 C 813.122 1.86636 -2.92178 0
M  V30 8577 C 812.183 1.3848 -4.06352 0
M  V30 8578 C 811.416 2.51382 -4.70789 0
M  V30 8579 O 811.639 3.69831 -4.34259 0
M  V30 8580 O 810.573 2.21828 -5.59532 0
M  V30 8581 H 814.399 0.12583 -3.03439 0
M  V30 8582 H 811.984 -0.00381817 -1.494 0
M  V30 8583 H 813.866 2.55845 -3.34845 0
M  V30 8584 H 812.541 2.40921 -2.16192 0
M  V30 8585 H 811.448 0.660341 -3.68226 0
M  V30 8586 H 812.781 0.888177 -4.8412 0
M  V30 8587 N 814.433 1.57553 0.0384317 0
M  V30 8588 C 815.658 1.93485 0.746872 0
M  V30 8589 C 816.083 0.834069 1.68597 0
M  V30 8590 O 815.441 -0.210902 1.80069 0
M  V30 8591 C 815.489 3.28463 1.4881 0
M  V30 8592 O 814.593 3.20051 2.60079 0
M  V30 8593 H 813.934 0.632675 0.201539 0
M  V30 8594 H 816.464 2.046 -0.00329815 0
M  V30 8595 H 816.474 3.63132 1.86009 0
M  V30 8596 H 815.149 4.08147 0.799297 0
M  V30 8597 H 813.726 2.96998 2.25492 0
M  V30 8598 N 815.911 -0.310526 1.54511 0
M  V30 8599 C 817.157 -1.04846 1.73595 0
M  V30 8600 C 817.49 -1.87244 0.515118 0
M  V30 8601 O 816.765 -1.88282 -0.48786 0
M  V30 8602 C 817.048 -1.96237 3.01932 0
M  V30 8603 C 816.901 -1.17082 4.34295 0
M  V30 8604 C 818.22 -2.9556 3.26086 0
M  V30 8605 H 815.339 -0.37976 0.631626 0
M  V30 8606 H 817.981 -0.32394 1.87218 0
M  V30 8607 H 816.131 -2.58015 2.90449 0
M  V30 8608 H 817.803 -0.576643 4.57682 0
M  V30 8609 H 816.046 -0.473336 4.3121 0
M  V30 8610 H 816.717 -1.84257 5.20339 0
M  V30 8611 H 819.193 -2.43908 3.37117 0
M  V30 8612 H 818.069 -3.5668 4.17218 0
M  V30 8613 H 818.33 -3.68715 2.4393 0
M  V30 8614 N 817.389 -1.46805 -0.573248 0
M  V30 8615 C 818.339 -1.54497 -1.67674 0
M  V30 8616 C 819.323 -0.405117 -1.55716 0
M  V30 8617 O 820.515 -0.654097 -1.64471 0
M  V30 8618 C 817.644 -1.54717 -3.0646 0
M  V30 8619 C 816.73 -2.7403 -3.2368 0
M  V30 8620 N 817.121 -3.98871 -3.11023 0
M  V30 8621 C 815.419 -2.70453 -3.54642 0
M  V30 8622 C 816.12 -4.78689 -3.30502 0
M  V30 8623 N 815.096 -4.10727 -3.56096 0
M  V30 8624 H 818.898 -2.48809 -1.56433 0
M  V30 8625 H 816.412 -1.42576 -0.777554 0
M  V30 8626 H 818.409 -1.58316 -3.8567 0
M  V30 8627 H 817.069 -0.614886 -3.18825 0
M  V30 8628 H 818.08 -4.29976 -2.88688 0
M  V30 8629 H 814.757 -1.86291 -3.73633 0
M  V30 8630 H 816.147 -5.87615 -3.2582 0
M  V30 8631 N 818.867 0.818669 -1.34668 0
M  V30 8632 C 820.092 1.61193 -1.30505 0
M  V30 8633 C 820.517 1.87734 0.117341 0
M  V30 8634 O 819.875 1.45591 1.08042 0
M  V30 8635 C 819.923 2.92733 -2.1057 0
M  V30 8636 O 819.027 3.85 -1.47813 0
M  V30 8637 H 818.368 0.490085 -0.44801 0
M  V30 8638 H 820.898 1.01701 -1.77534 0
M  V30 8639 H 820.908 3.42262 -2.22082 0
M  V30 8640 H 819.583 2.7274 -3.13984 0
M  V30 8641 H 818.16 3.43525 -1.45069 0
M  V30 8642 N 820.346 1.18468 1.03938 0
M  V30 8643 C 821.593 0.980833 1.77161 0
M  V30 8644 C 821.921 -0.489425 1.88242 0
M  V30 8645 O 821.176 -1.37961 1.388 0
M  V30 8646 C 821.475 1.58229 3.20466 0
M  V30 8647 C 821.141 3.07889 3.29416 0
M  V30 8648 C 819.803 3.48737 3.31566 0
M  V30 8649 C 822.155 4.03903 3.29411 0
M  V30 8650 C 819.483 4.84171 3.31355 0
M  V30 8651 C 821.835 5.39253 3.3074 0
M  V30 8652 C 820.499 5.79547 3.31182 0
M  V30 8653 H 819.769 0.358912 0.648277 0
M  V30 8654 H 822.416 1.47552 1.22069 0
M  V30 8655 H 820.721 1.00964 3.78568 0
M  V30 8656 H 822.418 1.39998 3.75768 0
M  V30 8657 H 819.008 2.75335 3.28464 0
M  V30 8658 H 823.192 3.73395 3.2694 0
M  V30 8659 H 818.448 5.14685 3.30015 0
M  V30 8660 H 822.622 6.13417 3.29686 0
M  V30 8661 H 820.249 6.84466 3.30772 0
M  V30 8662 N 821.824 -1.22873 0.986916 0
M  V30 8663 C 823.054 -1.95204 0.67668 0
M  V30 8664 C 823.462 -1.73193 -0.761641 0
M  V30 8665 O 822.805 -1.0243 -1.52492 0
M  V30 8666 C 822.867 -3.48173 0.895302 0
M  V30 8667 C 822.531 -3.93912 2.31695 0
M  V30 8668 C 823.528 -4.02064 3.29607 0
M  V30 8669 C 821.213 -4.26722 2.64978 0
M  V30 8670 C 823.207 -4.42391 4.58878 0
M  V30 8671 C 820.894 -4.66729 3.94471 0
M  V30 8672 C 821.892 -4.74531 4.91232 0
M  V30 8673 O 821.58 -5.13636 6.18412 0
M  V30 8674 H 821.312 -0.628105 0.24992 0
M  V30 8675 H 823.866 -1.5714 1.32274 0
M  V30 8676 H 822.096 -3.86223 0.192072 0
M  V30 8677 H 823.785 -4.01717 0.581233 0
M  V30 8678 H 824.551 -3.76912 3.05225 0
M  V30 8679 H 820.43 -4.19858 1.9037 0
M  V30 8680 H 823.974 -4.48395 5.34404 0
M  V30 8681 H 819.871 -4.91332 4.18645 0
M  V30 8682 H 820.639 -5.31728 6.2226 0
M  V30 8683 N 823.302 -0.75937 -1.38099 0
M  V30 8684 C 824.252 -0.111098 -2.27729 0
M  V30 8685 C 825.236 0.687161 -1.45489 0
M  V30 8686 O 826.428 0.552167 -1.68167 0
M  V30 8687 C 823.557 0.776809 -3.34396 0
M  V30 8688 C 822.643 -0.0286108 -4.2409 0
M  V30 8689 N 823.034 -1.06797 -4.94397 0
M  V30 8690 C 821.332 0.197307 -4.45563 0
M  V30 8691 C 822.033 -1.55576 -5.6051 0
M  V30 8692 N 821.009 -0.870059 -5.36592 0
M  V30 8693 H 824.811 -0.907047 -2.79553 0
M  V30 8694 H 822.325 -0.595954 -1.5107 0
M  V30 8695 H 824.322 1.25691 -3.97502 0
M  V30 8696 H 822.982 1.57164 -2.84129 0
M  V30 8697 H 823.993 -1.44988 -4.97191 0
M  V30 8698 H 820.67 0.965028 -4.06194 0
M  V30 8699 H 822.06 -2.42184 -6.26735 0
M  V30 8700 N 824.78 1.49157 -0.508906 0
M  V30 8701 C 825.743 2.27784 0.25434 0
M  V30 8702 C 826.743 1.34132 0.88686 0
M  V30 8703 O 827.933 1.5722 0.750168 0
M  V30 8704 C 825.065 3.12347 1.36573 0
M  V30 8705 H 826.258 2.96718 -0.435714 0
M  V30 8706 H 823.811 1.54052 -0.264128 0
M  V30 8707 H 824.546 2.47997 2.08969 0
M  V30 8708 H 824.331 3.81213 0.917543 0
M  V30 8709 H 825.821 3.71712 1.90315 0
M  V30 8710 N 826.258 0.243083 1.55714 0
M  V30 8711 C 827.535 -0.432851 1.90751 0
M  V30 8712 C 827.915 -1.76153 1.16333 0
M  V30 8713 O 827.263 -2.26783 0.279565 0
M  V30 8714 C 827.473 -0.604685 3.43722 0
M  V30 8715 C 828.821 -0.90231 4.14902 0
M  V30 8716 O 829.845 -0.690689 3.49439 0
M  V30 8717 O 828.704 -1.3051 5.30688 0
M  V30 8718 H 825.798 -0.231835 0.79384 0
M  V30 8719 H 828.344 0.286867 1.67258 0
M  V30 8720 H 827.116 0.331655 3.89892 0
M  V30 8721 H 826.739 -1.37509 3.73065 0
M  V30 8722 N 827.736 -1.57571 -0.0300757 0
M  V30 8723 C 828.976 -1.91074 -0.725946 0
M  V30 8724 C 829.34 -0.841545 -1.72575 0
M  V30 8725 O 830.541 -1.06088 -2.46979 0
M  V30 8726 C 828.812 -3.2973 -1.37888 0
M  V30 8727 S 830.371 -3.85065 -2.10405 0
M  V30 8728 H 827.189 -0.669084 -0.240515 0
M  V30 8729 H 829.791 -1.9549 0.019384 0
M  V30 8730 H 828.495 -4.05411 -0.637974 0
M  V30 8731 H 828.026 -3.28614 -2.16278 0
M  V30 8732 H 830.041 -3.63711 -3.37533 0
M  V30 8733 N 829.214 0.302327 -1.54673 0
M  V30 8734 C 830.164 1.37443 -1.81916 0
M  V30 8735 C 831.148 1.45999 -0.676251 0
M  V30 8736 O 832.34 1.50174 -0.93685 0
M  V30 8737 C 829.469 2.73966 -2.06876 0
M  V30 8738 C 828.555 2.69637 -3.27348 0
M  V30 8739 N 828.946 2.34926 -4.47933 0
M  V30 8740 C 827.244 3.00742 -3.29348 0
M  V30 8741 C 827.945 2.39862 -5.29944 0
M  V30 8742 N 826.921 2.77163 -4.67634 0
M  V30 8743 H 830.723 1.09567 -2.72713 0
M  V30 8744 H 828.237 0.5109 -1.54154 0
M  V30 8745 H 830.234 3.51265 -2.2454 0
M  V30 8746 H 828.894 3.02754 -1.17346 0
M  V30 8747 H 829.905 2.07403 -4.74557 0
M  V30 8748 H 826.582 3.34434 -2.49921 0
M  V30 8749 H 827.972 2.15835 -6.3629 0
M  V30 8750 N 830.692 1.47107 0.565454 0
M  V30 8751 C 831.622 1.61846 1.68309 0
M  V30 8752 C 832.603 0.468159 1.63531 0
M  V30 8753 O 833.788 0.696504 1.8128 0
M  V30 8754 C 830.918 1.62474 3.06952 0
M  V30 8755 C 829.872 2.76649 3.26572 0
M  V30 8756 C 829.198 2.62345 4.65917 0
M  V30 8757 C 830.498 4.18319 3.12741 0
M  V30 8758 H 832.192 2.55407 1.5623 0
M  V30 8759 H 829.738 1.22916 0.750179 0
M  V30 8760 H 831.691 1.71378 3.84977 0
M  V30 8761 H 830.415 0.654692 3.19971 0
M  V30 8762 H 829.074 2.67242 2.50952 0
M  V30 8763 H 828.722 1.63386 4.75725 0
M  V30 8764 H 828.422 3.38936 4.79996 0
M  V30 8765 H 829.946 2.73165 5.46089 0
M  V30 8766 H 831.36 4.28745 3.80593 0
M  V30 8767 H 829.757 4.95632 3.38333 0
M  V30 8768 H 830.827 4.37263 2.09592 0
M  V30 8769 N 832.17 -0.811516 1.35101 0
M  V30 8770 C 833.08 -1.95475 1.29718 0
M  V30 8771 C 834.096 -1.72813 0.202909 0
M  V30 8772 O 835.272 -1.96725 0.431414 0
M  V30 8773 C 832.337 -3.29975 1.06385 0
M  V30 8774 C 831.398 -3.65566 2.25077 0
M  V30 8775 C 830.631 -4.93648 2.02848 0
M  V30 8776 O 830.854 -5.617 0.992442 0
M  V30 8777 O 829.788 -5.27384 2.90087 0
M  V30 8778 H 833.614 -2.02961 2.25921 0
M  V30 8779 H 831.199 -0.948583 1.15422 0
M  V30 8780 H 833.081 -4.10506 0.951999 0
M  V30 8781 H 831.756 -3.2343 0.132294 0
M  V30 8782 H 830.663 -2.85432 2.41825 0
M  V30 8783 H 831.996 -3.7681 3.16662 0
M  V30 8784 N 833.648 -1.19017 -1.03309 0
M  V30 8785 C 835.059 -0.993206 -1.5809 0
M  V30 8786 C 835.41 0.45505 -1.9085 0
M  V30 8787 O 834.535 1.33372 -1.70414 0
M  V30 8788 C 835.13 -1.79661 -2.87241 0
M  V30 8789 C 833.689 -1.64377 -3.38611 0
M  V30 8790 C 832.836 -1.78628 -2.12102 0
M  V30 8791 H 835.787 -1.3345 -0.858879 0
M  V30 8792 H 835.808 -1.29019 -3.57958 0
M  V30 8793 H 835.32 -2.85061 -2.63366 0
M  V30 8794 H 833.421 -0.615447 -3.67482 0
M  V30 8795 H 833.534 -2.44651 -4.11926 0
M  V30 8796 H 831.898 -1.21648 -2.23772 0
M  V30 8797 H 832.681 -2.8548 -1.90673 0
M  V30 8798 N 835.127 1.22348 -0.993418 0
M  V30 8799 C 836.373 1.91393 -0.67056 0
M  V30 8800 C 836.706 1.77163 0.795428 0
M  V30 8801 O 835.981 1.14084 1.57528 0
M  V30 8802 C 836.264 3.43589 -1.0779 0
M  V30 8803 C 836.117 3.66867 -2.60248 0
M  V30 8804 C 837.436 4.35545 -0.631527 0
M  V30 8805 H 834.555 0.695057 -0.24508 0
M  V30 8806 H 837.197 1.44213 -1.23703 0
M  V30 8807 H 835.347 3.83903 -0.595902 0
M  V30 8808 H 837.019 3.35954 -3.16121 0
M  V30 8809 H 835.262 3.1113 -3.02293 0
M  V30 8810 H 835.933 4.73457 -2.838 0
M  V30 8811 H 838.409 4.0275 -1.04554 0
M  V30 8812 H 837.285 5.40707 -0.944831 0
M  V30 8813 H 837.546 4.39618 0.467779 0
M  V30 8814 N 836.605 0.766683 1.37694 0
M  V30 8815 C 838.021 0.445739 1.53249 0
M  V30 8816 C 838.221 -1.03935 1.72626 0
M  V30 8817 O 837.277 -1.82525 1.74473 0
M  V30 8818 C 838.59 1.2564 2.73194 0
M  V30 8819 C 840.138 1.24779 2.87053 0
M  V30 8820 C 840.613 2.04169 4.09974 0
M  V30 8821 N 842.104 2.01497 4.17077 0
M  V30 8822 C 842.839 2.5971 5.11212 0
M  V30 8823 N 842.335 3.26691 6.10938 0
M  V30 8824 N 844.128 2.49568 5.03659 0
M  V30 8825 H 836.279 1.72899 1.23368 0
M  V30 8826 H 838.542 0.733701 0.600322 0
M  V30 8827 H 838.248 2.30859 2.65324 0
M  V30 8828 H 838.122 0.882133 3.6674 0
M  V30 8829 H 840.509 0.203603 2.94397 0
M  V30 8830 H 840.59 1.66166 1.9448 0
M  V30 8831 H 840.234 3.08606 4.03392 0
M  V30 8832 H 840.164 1.60167 5.01651 0
M  V30 8833 H 842.655 1.52728 3.45662 0
M  V30 8834 H 842.968 3.68497 6.79286 0
M  V30 8835 H 841.313 3.30789 6.11231 0
M  V30 8836 H 844.504 1.96859 4.24693 0
M  V30 8837 H 844.677 2.95231 5.76839 0
M  V30 8838 N 838.083 -1.48885 0.516809 0
M  V30 8839 C 839.323 -2.0439 -0.0202232 0
M  V30 8840 C 839.687 -1.38652 -1.32814 0
M  V30 8841 O 840.888 -1.84968 -1.95039 0
M  V30 8842 C 839.159 -3.57071 -0.153257 0
M  V30 8843 S 840.718 -4.34074 -0.642256 0
M  V30 8844 H 837.536 -0.710977 0.00576322 0
M  V30 8845 H 840.138 -1.82753 0.694376 0
M  V30 8846 H 838.842 -4.02454 0.803695 0
M  V30 8847 H 838.373 -3.83139 -0.892627 0
M  V30 8848 H 840.388 -4.58011 -1.90893 0
M  V30 8849 N 839.561 -0.251338 -1.55583 0
M  V30 8850 C 840.493 0.679167 -2.18906 0
M  V30 8851 C 841.506 1.13545 -1.16667 0
M  V30 8852 O 842.695 1.06146 -1.4351 0
M  V30 8853 C 839.795 1.93544 -2.78198 0
M  V30 8854 C 838.968 1.62987 -4.05899 0
M  V30 8855 C 838.027 2.73618 -4.49466 0
M  V30 8856 O 837.053 2.40815 -5.15749 0
M  V30 8857 N 838.255 4.03204 -4.1762 0
M  V30 8858 H 841.02 0.137328 -2.99385 0
M  V30 8859 H 838.581 -0.0714754 -1.61742 0
M  V30 8860 H 840.573 2.66804 -3.04299 0
M  V30 8861 H 839.143 2.38695 -2.0185 0
M  V30 8862 H 838.363 0.732237 -3.8734 0
M  V30 8863 H 839.651 1.40041 -4.89148 0
M  V30 8864 H 839.049 4.32686 -3.64416 0
M  V30 8865 H 837.606 4.72916 -4.48547 0
M  V30 8866 N 841.039 1.57585 0.0217189 0
M  V30 8867 C 842.002 2.06004 1.00474 0
M  V30 8868 C 843.002 0.965461 1.2859 0
M  V30 8869 O 844.192 1.22884 1.23471 0
M  V30 8870 C 841.324 2.48319 2.33561 0
M  V30 8871 H 842.517 2.94112 0.586346 0
M  V30 8872 H 840.07 1.53973 0.268716 0
M  V30 8873 H 840.805 1.63389 2.80133 0
M  V30 8874 H 840.59 3.28239 2.1448 0
M  V30 8875 H 842.08 2.86181 3.04122 0
M  V30 8876 N 842.517 -0.29412 1.54831 0
M  V30 8877 C 843.928 -0.866651 1.65366 0
M  V30 8878 C 844.279 -1.87834 0.56681 0
M  V30 8879 O 843.404 -2.14374 -0.295389 0
M  V30 8880 C 843.999 -1.57869 2.99771 0
M  V30 8881 C 842.558 -2.09954 3.12404 0
M  V30 8882 C 841.705 -0.934492 2.6108 0
M  V30 8883 H 844.656 -0.0709551 1.58541 0
M  V30 8884 H 844.677 -2.44462 2.91579 0
M  V30 8885 H 844.189 -0.84212 3.78853 0
M  V30 8886 H 842.29 -2.86637 2.38055 0
M  V30 8887 H 842.403 -2.32934 4.18663 0
M  V30 8888 H 840.767 -1.32199 2.17705 0
M  V30 8889 H 841.55 -0.211768 3.42646 0
M  V30 8890 N 843.995 -1.47404 -0.557645 0
M  V30 8891 C 845.406 -1.47872 -1.13977 0
M  V30 8892 C 845.757 -0.233176 -1.94809 0
M  V30 8893 O 844.882 0.661945 -2.06027 0
M  V30 8894 C 845.477 -2.67926 -2.07368 0
M  V30 8895 C 844.036 -2.71354 -2.60852 0
M  V30 8896 C 843.183 -2.40967 -1.37223 0
M  V30 8897 H 846.134 -1.54921 -0.344268 0
M  V30 8898 H 846.155 -2.44871 -2.91236 0
M  V30 8899 H 845.667 -3.58562 -1.48509 0
M  V30 8900 H 843.768 -1.84855 -3.23511 0
M  V30 8901 H 843.881 -3.72032 -3.01876 0
M  V30 8902 H 842.245 -1.91541 -1.67882 0
M  V30 8903 H 843.028 -3.33811 -0.801583 0
M  V30 8904 N 845.473 0.80434 -1.35529 0
M  V30 8905 C 846.884 1.37849 -1.25915 0
M  V30 8906 C 847.235 1.95905 0.107495 0
M  V30 8907 O 846.36 1.91462 1.00852 0
M  V30 8908 C 846.955 2.50608 -2.27994 0
M  V30 8909 C 845.514 3.03879 -2.22114 0
M  V30 8910 C 844.661 1.76856 -2.13582 0
M  V30 8911 H 847.612 0.607192 -1.46625 0
M  V30 8912 H 847.633 3.29221 -1.90772 0
M  V30 8913 H 847.145 2.08323 -3.27449 0
M  V30 8914 H 845.246 3.50622 -1.26077 0
M  V30 8915 H 845.359 3.61707 -3.14173 0
M  V30 8916 H 843.723 1.98498 -1.59595 0
M  V30 8917 H 844.506 1.36721 -3.14901 0
M  V30 8918 N 846.951 1.19563 1.02676 0
M  V30 8919 C 848.367 0.948304 1.28372 0
M  V30 8920 C 848.567 -0.378096 1.97921 0
M  V30 8921 O 847.623 -1.1091 2.26838 0
M  V30 8922 C 848.936 2.12381 2.12873 0
M  V30 8923 C 850.484 2.16366 2.26174 0
M  V30 8924 C 850.959 3.33374 3.14048 0
M  V30 8925 N 852.45 3.33323 3.21636 0
M  V30 8926 C 853.185 4.20504 3.89825 0
M  V30 8927 N 852.681 5.17845 4.60227 0
M  V30 8928 N 854.474 4.08375 3.86246 0
M  V30 8929 H 846.625 2.04899 0.559485 0
M  V30 8930 H 848.888 0.89606 0.309484 0
M  V30 8931 H 848.594 3.08383 1.69094 0
M  V30 8932 H 848.468 2.09621 3.1359 0
M  V30 8933 H 850.855 1.20933 2.69182 0
M  V30 8934 H 850.936 2.23179 1.25 0
M  V30 8935 H 850.58 4.29087 2.71747 0
M  V30 8936 H 850.51 3.23798 4.15286 0
M  V30 8937 H 853.001 2.62863 2.71498 0
M  V30 8938 H 853.314 5.80712 5.09896 0
M  V30 8939 H 851.659 5.21791 4.59085 0
M  V30 8940 H 854.85 3.31606 3.30386 0
M  V30 8941 H 855.023 4.76532 4.39114 0
M  V30 8942 N 848.429 -1.21819 0.999893 0
M  V30 8943 C 849.654 -1.95298 0.698094 0
M  V30 8944 C 850.079 -1.73273 -0.731982 0
M  V30 8945 O 849.437 -1.01634 -1.50134 0
M  V30 8946 C 849.485 -3.45922 1.01834 0
M  V30 8947 O 848.589 -4.12223 0.120801 0
M  V30 8948 H 847.93 -0.610729 0.260588 0
M  V30 8949 H 850.46 -1.5472 1.33876 0
M  V30 8950 H 850.47 -3.96471 0.963074 0
M  V30 8951 H 849.145 -3.61278 2.06037 0
M  V30 8952 H 847.722 -3.72177 0.232153 0
M  V30 8953 N 849.908 -0.773975 -1.37286 0
M  V30 8954 C 851.319 -0.404433 -1.82267 0
M  V30 8955 C 851.67 1.06971 -1.64474 0
M  V30 8956 O 850.795 1.82867 -1.15708 0
M  V30 8957 C 851.39 -0.727298 -3.30902 0
M  V30 8958 C 849.949 -0.410784 -3.74152 0
M  V30 8959 C 849.096 -0.969983 -2.59782 0
M  V30 8960 H 852.047 -0.968437 -1.25726 0
M  V30 8961 H 852.068 -0.0127575 -3.80498 0
M  V30 8962 H 851.58 -1.80026 -3.4382 0
M  V30 8963 H 849.681 0.65477 -3.66802 0
M  V30 8964 H 849.794 -0.920592 -4.70172 0
M  V30 8965 H 848.158 -0.394094 -2.51633 0
M  V30 8966 H 848.941 -2.04839 -2.75492 0
M  V30 8967 N 851.386 1.48609 -0.524698 0
M  V30 8968 C 852.611 2.07398 0.00952139 0
M  V30 8969 C 853.036 1.37939 1.27884 0
M  V30 8970 O 852.394 0.443633 1.75788 0
M  V30 8971 C 852.442 3.59916 0.221956 0
M  V30 8972 O 851.546 3.91647 1.29175 0
M  V30 8973 H 850.887 0.662981 -0.0367729 0
M  V30 8974 H 853.417 1.91092 -0.7311 0
M  V30 8975 H 853.427 4.05552 0.446236 0
M  V30 8976 H 852.102 4.09876 -0.705306 0
M  V30 8977 H 850.679 3.57796 1.05055 0
M  V30 8978 N 852.864 0.259585 1.55447 0
M  V30 8979 C 853.774 -0.645026 2.25558 0
M  V30 8980 C 854.79 -1.18291 1.27606 0
M  V30 8981 O 855.966 -1.21649 1.6051 0
M  V30 8982 C 853.031 -1.81964 2.9511 0
M  V30 8983 C 852.092 -1.31997 4.08504 0
M  V30 8984 C 851.325 -2.43861 4.74729 0
M  V30 8985 O 851.548 -3.62876 4.40088 0
M  V30 8986 O 850.482 -2.12898 5.6299 0
M  V30 8987 H 854.308 -0.0775399 3.03601 0
M  V30 8988 H 851.893 0.0275859 1.49375 0
M  V30 8989 H 853.775 -2.50485 3.38873 0
M  V30 8990 H 852.45 -2.37451 2.19997 0
M  V30 8991 H 851.357 -0.601676 3.6923 0
M  V30 8992 H 852.69 -0.811045 4.85472 0
M  V30 8993 N 854.342 -1.57594 -0.0133615 0
M  V30 8994 C 855.305 -2.06534 -0.993799 0
M  V30 8995 C 856.305 -0.972267 -1.28077 0
M  V30 8996 O 857.495 -1.23537 -1.22818 0
M  V30 8997 C 854.627 -2.49554 -2.3224 0
M  V30 8998 H 855.82 -2.94419 -0.570741 0
M  V30 8999 H 853.373 -1.54113 -0.260546 0
M  V30 9000 H 854.108 -1.64872 -2.79263 0
M  V30 9001 H 853.893 -3.29371 -2.12737 0
M  V30 9002 H 855.383 -2.8779 -3.026 0
M  V30 9003 N 855.82 0.285905 -1.54985 0
M  V30 9004 C 857.045 1.04207 -1.7932 0
M  V30 9005 C 857.47 1.79622 -0.558343 0
M  V30 9006 O 856.828 1.74506 0.491661 0
M  V30 9007 C 856.876 1.98648 -3.0095 0
M  V30 9008 O 855.98 3.07207 -2.75132 0
M  V30 9009 H 855.321 0.298596 -0.593074 0
M  V30 9010 H 857.851 0.318736 -2.02102 0
M  V30 9011 H 857.861 2.4084 -3.29333 0
M  V30 9012 H 856.536 1.43167 -3.90482 0
M  V30 9013 H 855.113 2.69423 -2.57809 0
M  V30 9014 N 857.298 1.47698 0.54982 0
M  V30 9015 C 858.546 1.54397 1.30407 0
M  V30 9016 C 858.867 0.211026 1.93855 0
M  V30 9017 O 858.137 -0.765701 1.80316 0
M  V30 9018 H 856.717 0.568747 0.484289 0
M  V30 9019 H 859.379 1.84042 0.641444 0
M  V30 9020 H 858.475 2.31449 2.09375 0
M  V30 9021 N 858.776 -0.797141 1.35954 0
M  V30 9022 C 860.192 -1.09408 1.16198 0
M  V30 9023 C 860.392 -2.01491 -0.0191682 0
M  V30 9024 O 859.448 -2.42977 -0.686902 0
M  V30 9025 C 860.761 -1.71597 2.46931 0
M  V30 9026 C 862.309 -1.83974 2.53224 0
M  V30 9027 C 862.784 -2.49579 3.84024 0
M  V30 9028 N 864.275 -2.57055 3.85327 0
M  V30 9029 C 865.01 -3.08608 4.83268 0
M  V30 9030 N 864.506 -3.60527 5.91601 0
M  V30 9031 N 866.299 -3.07249 4.70696 0
M  V30 9032 H 858.45 -0.185209 2.11591 0
M  V30 9033 H 860.713 -0.144768 0.936881 0
M  V30 9034 H 860.419 -1.11404 3.3359 0
M  V30 9035 H 860.293 -2.71193 2.62172 0
M  V30 9036 H 862.68 -2.43308 1.66988 0
M  V30 9037 H 862.761 -0.83207 2.41889 0
M  V30 9038 H 862.405 -1.90892 4.70662 0
M  V30 9039 H 862.335 -3.50902 3.92651 0
M  V30 9040 H 864.826 -2.20283 3.07057 0
M  V30 9041 H 865.139 -3.98192 6.62317 0
M  V30 9042 H 863.484 -3.587 5.95281 0
M  V30 9043 H 866.675 -2.65972 3.85197 0
M  V30 9044 H 866.848 -3.47119 5.47186 0
M  V30 9045 N 860.254 -1.20106 -1.0204 0
M  V30 9046 C 861.482 -1.0344 -1.79186 0
M  V30 9047 C 861.897 0.416542 -1.84148 0
M  V30 9048 O 861.254 1.28925 -1.29168 0
M  V30 9049 C 861.305 -1.60663 -3.23836 0
M  V30 9050 O 861.026 -3.00079 -3.19193 0
M  V30 9051 C 862.527 -1.48897 -4.17546 0
M  V30 9052 H 859.747 -0.364093 -0.563629 0
M  V30 9053 H 862.291 -1.5911 -1.28469 0
M  V30 9054 H 860.446 -1.09122 -3.71714 0
M  V30 9055 H 860.86 -3.27162 -4.09958 0
M  V30 9056 H 862.334 -1.93703 -5.16898 0
M  V30 9057 H 862.811 -0.440843 -4.36982 0
M  V30 9058 H 863.417 -1.9961 -3.75547 0
M  V30 9059 N 861.732 1.21287 -1.00634 0
M  V30 9060 C 862.978 1.90671 -0.690822 0
M  V30 9061 C 863.311 1.77996 0.776592 0
M  V30 9062 O 862.586 1.15748 1.5631 0
M  V30 9063 C 862.869 3.42426 -1.11428 0
M  V30 9064 C 862.722 3.64086 -2.64124 0
M  V30 9065 C 864.041 4.34851 -0.677686 0
M  V30 9066 H 861.16 0.692419 -0.252439 0
M  V30 9067 H 863.802 1.42893 -1.25226 0
M  V30 9068 H 861.952 3.83249 -0.636586 0
M  V30 9069 H 863.624 3.32582 -3.19667 0
M  V30 9070 H 861.867 3.07906 -3.05576 0
M  V30 9071 H 862.538 4.7042 -2.88806 0
M  V30 9072 H 865.014 4.01619 -1.0882 0
M  V30 9073 H 863.89 5.39675 -1.00213 0
M  V30 9074 H 864.151 4.4009 0.421125 0
M  V30 9075 N 863.21 0.781244 1.36873 0
M  V30 9076 C 864.458 0.349198 1.9906 0
M  V30 9077 C 864.779 -1.0806 1.62321 0
M  V30 9078 O 864.049 -1.74351 0.893229 0
M  V30 9079 H 862.629 0.126126 0.736275 0
M  V30 9080 H 865.291 1.00148 1.67202 0
M  V30 9081 H 864.387 0.434451 3.09061 0
M  V30 9082 N 864.689 -1.48329 0.532571 0
M  V30 9083 C 865.914 -2.074 0.00147755 0
M  V30 9084 C 866.339 -1.38615 -1.27151 0
M  V30 9085 O 865.697 -0.452949 -1.75551 0
M  V30 9086 C 865.745 -3.60029 -0.202866 0
M  V30 9087 O 864.849 -3.92327 -1.27097 0
M  V30 9088 H 864.19 -0.662777 0.0402883 0
M  V30 9089 H 866.72 -1.90701 0.741224 0
M  V30 9090 H 866.73 -4.05783 -0.424722 0
M  V30 9091 H 865.405 -4.09496 0.727033 0
M  V30 9092 H 863.982 -3.58348 -1.03156 0
M  V30 9093 N 866.167 -0.267825 -1.55308 0
M  V30 9094 C 867.415 0.350343 -1.9904 0
M  V30 9095 C 867.736 1.56924 -1.15758 0
M  V30 9096 O 867.006 1.94358 -0.245336 0
M  V30 9097 H 865.586 0.132435 -0.735167 0
M  V30 9098 H 868.248 -0.371471 -1.91327 0
M  V30 9099 H 867.344 0.645203 -3.05358 0
M  V30 9100 N 867.645 1.57599 0.00500368 0
M  V30 9101 C 868.592 2.08106 0.998025 0
M  V30 9102 C 869.562 0.975374 1.34446 0
M  V30 9103 O 870.747 1.24749 1.44369 0
M  V30 9104 C 867.887 2.58496 2.28635 0
M  V30 9105 C 867 3.82947 1.99939 0
M  V30 9106 C 866.135 4.21857 3.22816 0
M  V30 9107 C 865.174 5.39159 2.89783 0
M  V30 9108 N 864.311 5.73386 4.05183 0
M  V30 9109 H 869.151 2.92684 0.560385 0
M  V30 9110 H 866.688 1.44692 0.265053 0
M  V30 9111 H 868.646 2.85787 3.03943 0
M  V30 9112 H 867.276 1.768 2.70077 0
M  V30 9113 H 866.328 3.62594 1.1502 0
M  V30 9114 H 867.64 4.68358 1.71588 0
M  V30 9115 H 866.794 4.50404 4.06474 0
M  V30 9116 H 865.533 3.35145 3.54301 0
M  V30 9117 H 864.538 5.1034 2.04532 0
M  V30 9118 H 865.763 6.27543 2.59551 0
M  V30 9119 H 863.709 4.89632 4.36574 0
M  V30 9120 H 863.626 6.53359 3.80339 0
M  V30 9121 H 864.894 6.06522 4.89644 0
M  V30 9122 N 869.123 -0.277682 1.55134 0
M  V30 9123 C 870.369 -1.0114 1.7578 0
M  V30 9124 C 870.702 -1.86109 0.554719 0
M  V30 9125 O 869.977 -1.89275 -0.447813 0
M  V30 9126 C 870.26 -1.89789 3.06027 0
M  V30 9127 C 870.113 -1.07844 4.3668 0
M  V30 9128 C 871.432 -2.88577 3.32282 0
M  V30 9129 H 868.551 -0.366277 0.639539 0
M  V30 9130 H 871.193 -0.284155 1.87863 0
M  V30 9131 H 869.343 -2.51796 2.95856 0
M  V30 9132 H 871.015 -0.479432 4.58802 0
M  V30 9133 H 869.258 -0.381764 4.32117 0
M  V30 9134 H 869.929 -1.73179 5.24131 0
M  V30 9135 H 872.405 -2.36702 3.42215 0
M  V30 9136 H 871.281 -3.47749 4.2469 0
M  V30 9137 H 871.542 -3.63458 2.51696 0
M  V30 9138 N 870.601 -1.47988 -0.541979 0
M  V30 9139 C 871.831 -1.58804 -1.32155 0
M  V30 9140 C 872.239 -0.242893 -1.87634 0
M  V30 9141 O 871.582 0.776239 -1.66494 0
M  V30 9142 C 871.644 -2.56567 -2.51821 0
M  V30 9143 C 871.308 -4.01915 -2.17517 0
M  V30 9144 C 872.305 -4.89954 -1.73901 0
M  V30 9145 C 869.99 -4.47365 -2.28408 0
M  V30 9146 C 871.984 -6.21467 -1.41625 0
M  V30 9147 C 869.671 -5.78902 -1.95745 0
M  V30 9148 C 870.669 -6.65775 -1.52423 0
M  V30 9149 O 870.357 -7.94866 -1.20183 0
M  V30 9150 H 870.089 -0.538536 -0.408601 0
M  V30 9151 H 872.643 -1.94446 -0.661818 0
M  V30 9152 H 870.873 -2.16023 -3.20735 0
M  V30 9153 H 872.562 -2.57347 -3.13891 0
M  V30 9154 H 873.328 -4.56082 -1.64966 0
M  V30 9155 H 869.207 -3.79942 -2.61084 0
M  V30 9156 H 872.751 -6.8923 -1.07738 0
M  V30 9157 H 868.648 -6.12311 -2.04316 0
M  V30 9158 H 869.416 -8.07509 -1.33683 0
M  V30 9159 N 872.079 0.78992 -1.36375 0
M  V30 9160 C 873.49 1.36506 -1.2737 0
M  V30 9161 C 873.841 1.96008 0.086711 0
M  V30 9162 O 872.966 1.92521 0.988159 0
M  V30 9163 C 873.561 2.48175 -2.30639 0
M  V30 9164 C 872.12 3.01506 -2.25325 0
M  V30 9165 C 871.267 1.74581 -2.15445 0
M  V30 9166 H 874.218 0.591606 -1.47261 0
M  V30 9167 H 874.239 3.27179 -1.94253 0
M  V30 9168 H 873.751 2.04838 -3.2964 0
M  V30 9169 H 871.852 3.49265 -1.29788 0
M  V30 9170 H 871.965 3.58355 -3.17992 0
M  V30 9171 H 870.329 1.96794 -1.61692 0
M  V30 9172 H 871.112 1.33373 -3.16333 0
M  V30 9173 N 873.557 1.20646 1.01402 0
M  V30 9174 C 874.785 1.04389 1.78635 0
M  V30 9175 C 875.2 -0.406771 1.84366 0
M  V30 9176 O 874.557 -1.28239 1.2985 0
M  V30 9177 C 874.608 1.62378 3.22979 0
M  V30 9178 O 874.329 3.01768 3.17597 0
M  V30 9179 C 875.83 1.5111 4.1675 0
M  V30 9180 H 873.05 0.367077 0.56169 0
M  V30 9181 H 875.594 1.59789 1.27624 0
M  V30 9182 H 873.749 1.11092 3.7113 0
M  V30 9183 H 874.163 3.29331 4.08217 0
M  V30 9184 H 875.637 1.96441 5.15863 0
M  V30 9185 H 876.114 0.464011 4.36742 0
M  V30 9186 H 876.72 2.01599 3.74483 0
M  V30 9187 N 875.035 -1.20752 1.01276 0
M  V30 9188 C 876.281 -1.90302 0.700924 0
M  V30 9189 C 876.614 -1.78406 -0.767142 0
M  V30 9190 O 875.889 -1.16575 -1.55694 0
M  V30 9191 C 876.172 -3.41831 1.13242 0
M  V30 9192 C 876.025 -3.6268 2.66051 0
M  V30 9193 C 877.344 -4.34486 0.700738 0
M  V30 9194 H 874.463 -0.69107 0.256107 0
M  V30 9195 H 877.105 -1.42227 1.25982 0
M  V30 9196 H 875.255 -3.82906 0.656902 0
M  V30 9197 H 876.927 -3.30882 3.21426 0
M  V30 9198 H 875.17 -3.06281 3.07204 0
M  V30 9199 H 875.841 -4.68882 2.91296 0
M  V30 9200 H 878.317 -4.01036 1.10948 0
M  V30 9201 H 877.193 -5.39136 1.03073 0
M  V30 9202 H 877.454 -4.40307 -0.39778 0
M  V30 9203 N 876.513 -0.788492 -1.36457 0
M  V30 9204 C 877.463 -0.159377 -2.27442 0
M  V30 9205 C 878.447 0.656146 -1.46913 0
M  V30 9206 O 879.639 0.516372 -1.693 0
M  V30 9207 C 876.768 0.705703 -3.35968 0
M  V30 9208 C 875.854 -0.11856 -4.23934 0
M  V30 9209 N 876.245 -1.1726 -4.9202 0
M  V30 9210 C 874.543 0.102752 -4.45882 0
M  V30 9211 C 875.244 -1.6743 -5.57083 0
M  V30 9212 N 874.22 -0.983682 -5.34626 0
M  V30 9213 H 878.022 -0.96614 -2.77566 0
M  V30 9214 H 875.536 -0.627864 -1.49772 0
M  V30 9215 H 877.533 1.17231 -4.00078 0
M  V30 9216 H 876.193 1.51102 -2.87399 0
M  V30 9217 H 877.204 -1.55502 -4.94004 0
M  V30 9218 H 873.881 0.878651 -4.08149 0
M  V30 9219 H 875.271 -2.55423 -6.21457 0
M  V30 9220 N 877.991 1.48044 -0.54043 0
M  V30 9221 C 879.219 2.06895 -0.0145153 0
M  V30 9222 C 879.634 1.39552 1.27164 0
M  V30 9223 O 878.991 0.486454 1.75897 0
M  V30 9224 C 879.042 3.60934 0.202278 0
M  V30 9225 O 878.763 4.25749 -1.03293 0
M  V30 9226 C 880.264 4.36607 0.767387 0
M  V30 9227 H 877.484 0.66991 -0.0382368 0
M  V30 9228 H 880.028 1.90288 -0.749057 0
M  V30 9229 H 878.183 3.77111 0.886897 0
M  V30 9230 H 878.597 5.18048 -0.820167 0
M  V30 9231 H 880.071 5.45126 0.86845 0
M  V30 9232 H 880.548 4.01745 1.77477 0
M  V30 9233 H 881.154 4.25133 0.119002 0
M  V30 9234 N 879.47 0.276058 1.55163 0
M  V30 9235 C 880.695 -0.346648 2.04483 0
M  V30 9236 C 881.12 -1.48613 1.15308 0
M  V30 9237 O 880.478 -1.80663 0.151875 0
M  V30 9238 C 880.526 -0.804268 3.51517 0
M  V30 9239 O 879.63 -1.91143 3.65429 0
M  V30 9240 H 878.971 -0.0715251 0.660136 0
M  V30 9241 H 881.501 0.410631 2.00437 0
M  V30 9242 H 881.511 -1.09977 3.92898 0
M  V30 9243 H 880.186 0.0294123 4.1589 0
M  V30 9244 H 878.763 -1.61839 3.3595 0
M  V30 9245 N 880.948 -1.576 0.00335426 0
M  V30 9246 C 882.359 -1.7875 -0.539008 0
M  V30 9247 C 882.71 -0.911097 -1.73763 0
M  V30 9248 O 881.835 -0.114476 -2.16097 0
M  V30 9249 C 882.43 -3.24177 -0.984611 0
M  V30 9250 C 880.989 -3.46412 -1.47226 0
M  V30 9251 C 880.136 -2.74024 -0.425004 0
M  V30 9252 H 883.087 -1.57032 0.229511 0
M  V30 9253 H 883.108 -3.32474 -1.85044 0
M  V30 9254 H 882.62 -3.87938 -0.112035 0
M  V30 9255 H 880.721 -2.8787 -2.36562 0
M  V30 9256 H 880.834 -4.55098 -1.49741 0
M  V30 9257 H 879.198 -2.38741 -0.887394 0
M  V30 9258 H 879.981 -3.40486 0.438662 0
M  V30 9259 N 882.426 0.269451 -1.5528 0
M  V30 9260 C 883.837 0.840233 -1.66724 0
M  V30 9261 C 884.188 1.86909 -0.596621 0
M  V30 9262 O 883.313 2.14817 0.261246 0
M  V30 9263 C 883.908 1.5308 -3.02245 0
M  V30 9264 C 882.467 2.04957 -3.15705 0
M  V30 9265 C 881.614 0.892838 -2.62533 0
M  V30 9266 H 884.565 0.0457236 -1.58634 0
M  V30 9267 H 884.586 2.39792 -2.95432 0
M  V30 9268 H 884.098 0.781741 -3.80145 0
M  V30 9269 H 882.199 2.82813 -2.42585 0
M  V30 9270 H 882.312 2.26244 -4.22316 0
M  V30 9271 H 880.676 1.28719 -2.19781 0
M  V30 9272 H 881.459 0.157229 -3.4294 0
M  V30 9273 N 883.904 1.48273 0.534124 0
M  V30 9274 C 885.315 1.49667 1.1161 0
M  V30 9275 C 885.666 0.264139 1.94414 0
M  V30 9276 O 884.791 -0.629084 2.07054 0
M  V30 9277 C 885.386 2.71191 2.03079 0
M  V30 9278 C 883.945 2.7547 2.56502 0
M  V30 9279 C 883.092 2.43119 1.33373 0
M  V30 9280 H 886.043 1.55449 0.319578 0
M  V30 9281 H 886.064 2.49473 2.87304 0
M  V30 9282 H 885.576 3.60879 1.42785 0
M  V30 9283 H 883.677 1.89979 3.20529 0
M  V30 9284 H 883.79 3.76787 2.95919 0
M  V30 9285 H 882.154 1.94187 1.64813 0
M  V30 9286 H 882.937 3.35044 0.748375 0
M  V30 9287 N 885.382 -0.782676 1.36792 0
M  V30 9288 C 886.292 -1.92679 1.33835 0
M  V30 9289 C 887.308 -1.72344 0.23952 0
M  V30 9290 O 888.484 -1.95766 0.473045 0
M  V30 9291 C 885.549 -3.27644 1.1336 0
M  V30 9292 C 884.61 -3.6071 2.32781 0
M  V30 9293 C 883.843 -4.89234 2.13273 0
M  V30 9294 O 884.066 -5.59468 1.11136 0
M  V30 9295 O 883 -5.21112 3.01208 0
M  V30 9296 H 886.826 -1.98124 2.30175 0
M  V30 9297 H 884.411 -0.923887 1.17408 0
M  V30 9298 H 886.293 -4.08394 1.03886 0
M  V30 9299 H 884.968 -3.23076 0.200868 0
M  V30 9300 H 883.875 -2.80238 2.47825 0
M  V30 9301 H 885.208 -3.70008 3.24584 0
M  V30 9302 N 886.86 -1.21182 -1.00761 0
M  V30 9303 C 888.088 -1.05335 -1.78079 0
M  V30 9304 C 888.503 0.396988 -1.84579 0
M  V30 9305 O 887.86 1.27548 -1.30529 0
M  V30 9306 C 887.911 -1.64089 -3.22113 0
M  V30 9307 O 887.632 -3.03448 -3.15992 0
M  V30 9308 C 889.133 -1.53318 -4.15943 0
M  V30 9309 H 886.353 -0.37005 -0.559736 0
M  V30 9310 H 888.897 -1.60463 -1.26775 0
M  V30 9311 H 887.052 -1.13059 -3.70535 0
M  V30 9312 H 887.466 -3.31492 -4.06465 0
M  V30 9313 H 888.94 -1.99174 -5.14814 0
M  V30 9314 H 889.417 -0.487166 -4.3649 0
M  V30 9315 H 890.023 -2.03582 -3.73409 0
M  V30 9316 N 888.338 1.20213 -1.01915 0
M  V30 9317 C 889.268 2.25336 -0.612023 0
M  V30 9318 C 890.249 1.65933 0.374186 0
M  V30 9319 O 891.434 1.92464 0.259053 0
M  V30 9320 C 888.564 3.47267 0.047904 0
M  V30 9321 C 887.518 4.1928 -0.859557 0
M  V30 9322 C 886.844 5.3466 -0.0652655 0
M  V30 9323 C 888.144 4.75143 -2.1688 0
M  V30 9324 H 889.838 2.59645 -1.49079 0
M  V30 9325 H 887.384 1.24808 -0.718263 0
M  V30 9326 H 889.337 4.19991 0.344294 0
M  V30 9327 H 888.061 3.12129 0.961404 0
M  V30 9328 H 886.72 3.48425 -1.13999 0
M  V30 9329 H 886.368 4.95767 0.849964 0
M  V30 9330 H 886.068 5.83772 -0.669618 0
M  V30 9331 H 887.592 6.10187 0.224612 0
M  V30 9332 H 889.006 5.39672 -1.9346 0
M  V30 9333 H 887.403 5.34702 -2.72422 0
M  V30 9334 H 888.473 3.93744 -2.83008 0
M  V30 9335 N 889.816 0.795718 1.36037 0
M  V30 9336 C 890.763 0.196548 2.29962 0
M  V30 9337 C 891.733 -0.663213 1.52285 0
M  V30 9338 O 892.918 -0.610574 1.80767 0
M  V30 9339 C 890.058 -0.657639 3.38776 0
M  V30 9340 C 889.171 0.221358 4.31433 0
M  V30 9341 C 888.306 -0.6398 5.27333 0
M  V30 9342 C 887.345 0.240265 6.11628 0
M  V30 9343 N 886.482 -0.580237 6.99698 0
M  V30 9344 H 891.322 1.00295 2.80615 0
M  V30 9345 H 888.859 0.506147 1.38118 0
M  V30 9346 H 890.817 -1.16793 4.00519 0
M  V30 9347 H 889.447 -1.42941 2.89426 0
M  V30 9348 H 888.499 0.84967 3.70789 0
M  V30 9349 H 889.811 0.899195 4.90628 0
M  V30 9350 H 888.965 -1.21566 5.94396 0
M  V30 9351 H 887.704 -1.35124 4.68607 0
M  V30 9352 H 886.709 0.828474 5.43522 0
M  V30 9353 H 887.934 0.949403 6.72431 0
M  V30 9354 H 885.88 -1.27585 6.43473 0
M  V30 9355 H 885.797 0.0397853 7.5599 0
M  V30 9356 H 887.065 -1.13972 7.71123 0
M  V30 9357 N 891.294 -1.47756 0.548274 0
M  V30 9358 C 892.204 -2.33678 -0.207773 0
M  V30 9359 C 893.22 -1.47636 -0.920843 0
M  V30 9360 O 894.396 -1.80583 -0.89173 0
M  V30 9361 C 891.461 -3.24147 -1.23003 0
M  V30 9362 C 890.522 -4.26073 -0.52535 0
M  V30 9363 C 889.755 -5.12219 -1.4989 0
M  V30 9364 O 889.978 -5.0066 -2.73305 0
M  V30 9365 O 888.912 -5.93051 -1.02828 0
M  V30 9366 H 892.738 -2.99609 0.496794 0
M  V30 9367 H 890.323 -1.4617 0.308982 0
M  V30 9368 H 892.205 -3.80055 -1.82034 0
M  V30 9369 H 890.88 -2.60855 -1.91668 0
M  V30 9370 H 889.787 -3.7395 0.105927 0
M  V30 9371 H 891.12 -4.92054 0.119686 0
M  V30 9372 N 892.772 -0.284283 -1.55015 0
M  V30 9373 C 893.719 0.599194 -2.22886 0
M  V30 9374 C 894.689 1.14264 -1.20553 0
M  V30 9375 O 895.874 1.19025 -1.49123 0
M  V30 9376 C 893.014 1.77317 -2.96062 0
M  V30 9377 C 892.127 1.26271 -4.13134 0
M  V30 9378 C 891.262 2.39922 -4.73931 0
M  V30 9379 C 890.301 1.85925 -5.8318 0
M  V30 9380 N 889.438 2.93084 -6.38002 0
M  V30 9381 H 894.278 0.0137816 -2.97997 0
M  V30 9382 H 891.815 -0.00496503 -1.47099 0
M  V30 9383 H 893.773 2.46339 -3.36709 0
M  V30 9384 H 892.403 2.33047 -2.23358 0
M  V30 9385 H 891.455 0.465296 -3.77544 0
M  V30 9386 H 892.767 0.827284 -4.91892 0
M  V30 9387 H 891.921 3.1692 -5.17346 0
M  V30 9388 H 890.66 2.86784 -3.9447 0
M  V30 9389 H 889.665 1.07409 -5.39206 0
M  V30 9390 H 890.89 1.39987 -6.64515 0
M  V30 9391 H 888.836 3.3931 -5.61431 0
M  V30 9392 H 888.753 2.53986 -7.12058 0
M  V30 9393 H 890.021 3.7003 -6.86075 0
M  V30 9394 N 894.251 1.57596 -0.0117121 0
M  V30 9395 C 895.214 2.08089 0.960816 0
M  V30 9396 C 896.214 0.992519 1.26514 0
M  V30 9397 O 897.404 1.25475 1.20837 0
M  V30 9398 C 894.536 2.53217 2.28241 0
M  V30 9399 H 895.729 2.9529 0.523829 0
M  V30 9400 H 893.282 1.54508 0.235995 0
M  V30 9401 H 894.017 1.69294 2.76604 0
M  V30 9402 H 893.802 3.32714 2.0747 0
M  V30 9403 H 895.292 2.92568 2.97983 0
M  V30 9404 N 895.729 -0.261212 1.5542 0
M  V30 9405 C 896.659 -1.32712 1.92119 0
M  V30 9406 C 897.64 -1.50934 0.784406 0
M  V30 9407 O 898.825 -1.63781 1.04352 0
M  V30 9408 C 895.955 -2.68453 2.20341 0
M  V30 9409 C 894.909 -2.64947 3.36136 0
M  V30 9410 C 894.235 -4.04349 3.49865 0
M  V30 9411 C 895.535 -2.23182 4.72215 0
M  V30 9412 H 897.229 -1.02245 2.81401 0
M  V30 9413 H 894.775 -0.490406 1.35392 0
M  V30 9414 H 896.728 -3.43144 2.44603 0
M  V30 9415 H 895.452 -3.00527 1.27871 0
M  V30 9416 H 894.111 -1.92714 3.11861 0
M  V30 9417 H 893.759 -4.33665 2.5484 0
M  V30 9418 H 893.459 -4.02895 4.27726 0
M  V30 9419 H 894.983 -4.80761 3.76432 0
M  V30 9420 H 896.397 -2.87599 4.95943 0
M  V30 9421 H 894.794 -2.32867 5.53076 0
M  V30 9422 H 895.864 -1.18327 4.70241 0
M  V30 9423 N 897.207 -1.48554 -0.526253 0
M  V30 9424 C 898.453 -1.56994 -1.28378 0
M  V30 9425 C 898.786 -0.244701 -1.92652 0
M  V30 9426 O 898.061 0.749636 -1.79473 0
M  V30 9427 C 898.344 -2.71092 -2.37026 0
M  V30 9428 C 898.197 -4.13331 -1.77418 0
M  V30 9429 C 899.516 -2.80934 -3.38769 0
M  V30 9430 H 896.635 -0.571466 -0.465398 0
M  V30 9431 H 899.277 -1.80742 -0.585861 0
M  V30 9432 H 897.427 -2.50973 -2.96555 0
M  V30 9433 H 899.099 -4.44899 -1.21912 0
M  V30 9434 H 897.342 -4.20158 -1.07936 0
M  V30 9435 H 898.013 -4.88994 -2.56104 0
M  V30 9436 H 900.489 -2.9917 -2.892 0
M  V30 9437 H 899.365 -3.62489 -4.12181 0
M  V30 9438 H 899.626 -1.89244 -3.99549 0
M  V30 9439 N 898.685 0.775411 -1.37205 0
M  V30 9440 C 899.595 1.91967 -1.34855 0
M  V30 9441 C 900.611 1.72214 -0.248656 0
M  V30 9442 O 901.787 1.95512 -0.483421 0
M  V30 9443 C 898.852 3.27038 -1.15096 0
M  V30 9444 C 897.913 3.5947 -2.34691 0
M  V30 9445 C 897.146 4.88097 -2.15865 0
M  V30 9446 O 897.369 5.58871 -1.14102 0
M  V30 9447 O 896.303 5.19507 -3.03967 0
M  V30 9448 H 900.129 1.969 -2.31223 0
M  V30 9449 H 897.714 0.917647 -1.17897 0
M  V30 9450 H 899.596 4.07837 -1.0605 0
M  V30 9451 H 898.271 3.22965 -0.217999 0
M  V30 9452 H 897.178 2.7892 -2.49308 0
M  V30 9453 H 898.511 3.68282 -3.26541 0
M  V30 9454 N 900.163 1.21714 1.00117 0
M  V30 9455 C 901.409 1.03823 1.74208 0
M  V30 9456 C 901.742 -0.426733 1.89454 0
M  V30 9457 O 901.017 -1.31658 1.43166 0
M  V30 9458 C 901.3 1.74047 3.15246 0
M  V30 9459 C 901.153 3.28087 3.077 0
M  V30 9460 C 902.472 1.48614 4.14249 0
M  V30 9461 H 899.591 0.378573 0.632338 0
M  V30 9462 H 902.233 1.49942 1.16694 0
M  V30 9463 H 900.383 1.3484 3.64349 0
M  V30 9464 H 902.055 3.76686 2.6628 0
M  V30 9465 H 900.298 3.58191 2.44707 0
M  V30 9466 H 900.969 3.72392 4.07466 0
M  V30 9467 H 903.445 1.82656 3.73866 0
M  V30 9468 H 902.321 2.00257 5.11066 0
M  V30 9469 H 902.582 0.416957 4.40129 0
M  V30 9470 N 901.641 -1.19671 1.02551 0
M  V30 9471 C 902.604 -2.20987 0.608055 0
M  V30 9472 C 903.604 -1.5745 -0.326534 0
M  V30 9473 O 904.794 -1.73827 -0.114003 0
M  V30 9474 C 901.926 -3.4072 -0.11074 0
M  V30 9475 H 903.119 -2.59434 1.50446 0
M  V30 9476 H 900.672 -1.3329 0.816307 0
M  V30 9477 H 901.407 -3.07787 -1.02165 0
M  V30 9478 H 901.192 -3.88069 0.560772 0
M  V30 9479 H 902.682 -4.15776 -0.389848 0
M  V30 9480 N 903.119 -0.802921 -1.35613 0
M  V30 9481 C 904.082 -0.216422 -2.28176 0
M  V30 9482 C 905.082 0.594101 -1.49422 0
M  V30 9483 O 906.272 0.41312 -1.6923 0
M  V30 9484 C 903.404 0.698746 -3.33662 0
M  V30 9485 H 904.597 -1.03276 -2.81557 0
M  V30 9486 H 902.15 -0.573307 -1.45406 0
M  V30 9487 H 902.885 1.53891 -2.85461 0
M  V30 9488 H 902.67 0.119314 -3.91918 0
M  V30 9489 H 904.16 1.10354 -4.02755 0
M  V30 9490 N 904.597 1.47463 -0.556102 0
M  V30 9491 C 905.822 2.07371 -0.0344729 0
M  V30 9492 C 906.247 1.40621 1.2493 0
M  V30 9493 O 905.605 0.48082 1.74808 0
M  V30 9494 C 905.653 3.60306 0.145563 0
M  V30 9495 O 904.757 3.94299 1.20839 0
M  V30 9496 H 904.098 0.662052 -0.0508274 0
M  V30 9497 H 906.628 1.89498 -0.771469 0
M  V30 9498 H 906.638 4.06408 0.360112 0
M  V30 9499 H 905.313 4.08288 -0.792089 0
M  V30 9500 H 903.89 3.59944 0.97442 0
M  V30 9501 N 906.075 0.2925 1.54862 0
M  V30 9502 C 907.3 -0.32494 2.04839 0
M  V30 9503 C 907.725 -1.47381 1.16877 0
M  V30 9504 O 907.083 -1.80492 0.171028 0
M  V30 9505 C 907.131 -0.76694 3.5235 0
M  V30 9506 O 906.235 -1.87256 3.67436 0
M  V30 9507 H 905.576 -0.0645195 0.660858 0
M  V30 9508 H 908.106 0.431867 1.9999 0
M  V30 9509 H 908.116 -1.05804 3.94043 0
M  V30 9510 H 906.791 0.0735212 4.15835 0
M  V30 9511 H 905.368 -1.58266 3.37648 0
M  V30 9512 N 907.553 -1.57587 0.0200696 0
M  V30 9513 C 908.801 -1.91046 -0.65922 0
M  V30 9514 C 909.122 -0.896197 -1.73186 0
M  V30 9515 O 908.392 0.0635952 -1.95797 0
M  V30 9516 H 906.972 -0.705163 -0.246483 0
M  V30 9517 H 909.634 -1.94789 0.0657368 0
M  V30 9518 H 908.73 -2.91399 -1.11773 0
M  V30 9519 N 909.032 0.252966 -1.55557 0
M  V30 9520 C 910.443 0.822503 -1.67606 0
M  V30 9521 C 910.794 1.86265 -0.616411 0
M  V30 9522 O 909.919 2.15082 0.238447 0
M  V30 9523 C 910.514 1.49866 -3.03852 0
M  V30 9524 C 909.073 2.01597 -3.17861 0
M  V30 9525 C 908.22 0.864943 -2.63465 0
M  V30 9526 H 911.171 0.0288958 -1.58674 0
M  V30 9527 H 911.192 2.36646 -2.97958 0
M  V30 9528 H 910.704 0.741378 -3.80953 0
M  V30 9529 H 908.805 2.80224 -2.45571 0
M  V30 9530 H 908.918 2.21752 -4.24692 0
M  V30 9531 H 907.282 1.2638 -2.21134 0
M  V30 9532 H 908.065 0.120847 -3.43087 0
M  V30 9533 N 910.51 1.48831 0.518367 0
M  V30 9534 C 911.921 1.50842 1.10016 0
M  V30 9535 C 912.272 0.284744 1.94123 0
M  V30 9536 O 911.397 -0.607088 2.0771 0
M  V30 9537 C 911.992 2.73329 2.00191 0
M  V30 9538 C 910.551 2.78175 2.53566 0
M  V30 9539 C 909.698 2.4452 1.30786 0
M  V30 9540 H 912.649 1.55779 0.303073 0
M  V30 9541 H 912.67 2.52506 2.84642 0
M  V30 9542 H 912.182 3.62374 1.3895 0
M  V30 9543 H 910.283 1.93368 3.18496 0
M  V30 9544 H 910.396 3.79905 2.91906 0
M  V30 9545 H 908.76 1.95924 1.62744 0
M  V30 9546 H 909.543 3.35819 0.712797 0
M  V30 9547 N 911.988 -0.768124 1.37614 0
M  V30 9548 C 913.216 -1.55726 1.36224 0
M  V30 9549 C 913.631 -1.8873 -0.0515357 0
M  V30 9550 O 912.988 -1.51718 -1.0143 0
M  V30 9551 C 913.039 -2.86533 2.20412 0
M  V30 9552 O 912.76 -2.54942 3.56281 0
M  V30 9553 C 914.261 -3.80745 2.27041 0
M  V30 9554 H 911.481 -0.482325 0.46648 0
M  V30 9555 H 914.025 -0.95176 1.81002 0
M  V30 9556 H 912.18 -3.43496 1.79134 0
M  V30 9557 H 912.594 -3.38732 4.00451 0
M  V30 9558 H 914.068 -4.69523 2.90263 0
M  V30 9559 H 914.545 -4.20138 1.27987 0
M  V30 9560 H 915.151 -3.2971 2.68647 0
M  V30 9561 N 913.466 -1.22244 -0.994698 0
M  V30 9562 C 914.396 -1.01513 -2.10279 0
M  V30 9563 C 915.377 0.0633365 -1.69982 0
M  V30 9564 O 916.562 -0.0985268 -1.9395 0
M  V30 9565 C 913.692 -0.59016 -3.42249 0
M  V30 9566 C 912.646 -1.61436 -3.96387 0
M  V30 9567 C 911.972 -1.04528 -5.24383 0
M  V30 9568 C 913.272 -3.00388 -4.27276 0
M  V30 9569 H 914.966 -1.94194 -2.2788 0
M  V30 9570 H 912.512 -0.935094 -1.09508 0
M  V30 9571 H 914.465 -0.432254 -4.19177 0
M  V30 9572 H 913.189 0.372308 -3.24471 0
M  V30 9573 H 911.848 -1.76001 -3.21589 0
M  V30 9574 H 911.496 -0.0742225 -5.02945 0
M  V30 9575 H 911.196 -1.72949 -5.61571 0
M  V30 9576 H 912.72 -0.898922 -6.03947 0
M  V30 9577 H 914.134 -2.89207 -4.95007 0
M  V30 9578 H 912.531 -3.65916 -4.75631 0
M  V30 9579 H 913.601 -3.50456 -3.35125 0
M  V30 9580 N 914.944 1.19125 -1.03184 0
M  V30 9581 C 916.172 1.92838 -0.74975 0
M  V30 9582 C 916.587 1.75667 0.691851 0
M  V30 9583 O 915.944 1.0805 1.47076 0
M  V30 9584 C 915.995 3.44509 -1.09525 0
M  V30 9585 O 915.716 3.6113 -2.48025 0
M  V30 9586 C 917.217 4.35338 -0.836397 0
M  V30 9587 H 914.437 0.61246 -0.274105 0
M  V30 9588 H 916.981 1.5118 -1.37712 0
M  V30 9589 H 915.136 3.83988 -0.513006 0
M  V30 9590 H 915.55 4.54959 -2.60984 0
M  V30 9591 H 917.024 5.4035 -1.12808 0
M  V30 9592 H 917.501 4.38602 0.229102 0
M  V30 9593 H 918.107 4.01544 -1.40152 0
M  V30 9594 N 916.422 0.810101 1.35185 0
M  V30 9595 C 917.647 0.40364 2.03434 0
M  V30 9596 C 918.072 -0.97857 1.60641 0
M  V30 9597 O 917.43 -1.63435 0.784779 0
M  V30 9598 C 917.478 0.499154 3.57129 0
M  V30 9599 O 916.582 -0.486039 4.09526 0
M  V30 9600 H 915.923 0.168049 0.642383 0
M  V30 9601 H 918.453 1.09696 1.72708 0
M  V30 9602 H 918.463 0.370236 4.06317 0
M  V30 9603 H 917.138 1.50733 3.87624 0
M  V30 9604 H 915.715 -0.31707 3.7155 0
M  V30 9605 N 917.9 -1.47166 0.563914 0
M  V30 9606 C 918.83 -2.32894 -0.168148 0
M  V30 9607 C 919.811 -1.44202 -0.902214 0
M  V30 9608 O 920.996 -1.73048 -0.881365 0
M  V30 9609 C 918.126 -3.26116 -1.19439 0
M  V30 9610 C 917.08 -4.24101 -0.576363 0
M  V30 9611 C 916.406 -5.06696 -1.70772 0
M  V30 9612 C 917.706 -5.20142 0.47425 0
M  V30 9613 H 919.4 -2.9435 0.547573 0
M  V30 9614 H 916.946 -1.41545 0.264778 0
M  V30 9615 H 918.899 -3.84935 -1.71474 0
M  V30 9616 H 917.623 -2.62728 -1.94014 0
M  V30 9617 H 916.282 -3.66519 -0.0772534 0
M  V30 9618 H 915.93 -4.39707 -2.44268 0
M  V30 9619 H 915.63 -5.7304 -1.29994 0
M  V30 9620 H 917.154 -5.68375 -2.2312 0
M  V30 9621 H 918.568 -5.73286 0.0397035 0
M  V30 9622 H 916.965 -5.94726 0.801287 0
M  V30 9623 H 918.035 -4.65214 1.36764 0
M  V30 9624 N 919.378 -0.300708 -1.54705 0
M  V30 9625 C 920.326 0.591264 -2.2496 0
M  V30 9626 C 921.32 1.13725 -1.2555 0
M  V30 9627 O 922.526 1.08793 -1.43402 0
M  V30 9628 H 918.901 0.209278 -0.722293 0
M  V30 9629 H 920.872 -0.0238175 -2.9839 0
M  V30 9630 C 919.621 1.75179 -3.00346 0
M  V30 9631 H 918.944 1.34089 -3.76643 0
M  V30 9632 H 920.384 2.35198 -3.52786 0
M  V30 9633 C 918.843 2.65574 -2.07298 0
M  V30 9634 O 919.373 3.6666 -1.64083 0
M  V30 9635 N 917.579 2.33301 -1.7326 0
M  V30 9636 H 917.126 1.51142 -2.08599 0
M  V30 9637 H 917.084 2.94049 -1.11278 0
M  V30 9638 N 920.856 1.57574 -0.0284266 0
M  V30 9639 C 922.105 1.9095 0.649704 0
M  V30 9640 C 922.418 0.906421 1.7333 0
M  V30 9641 O 923.624 1.1314 2.46803 0
M  V30 9642 C 922.08 3.39061 1.20687 0
M  V30 9643 C 921.688 4.47726 0.156597 0
M  V30 9644 C 923.432 3.81505 1.86156 0
M  V30 9645 C 921.339 5.86935 0.725365 0
M  V30 9646 H 920.269 0.712589 0.24644 0
M  V30 9647 H 922.92 1.83261 -0.0936143 0
M  V30 9648 H 921.302 3.41679 2.00178 0
M  V30 9649 H 922.476 4.56667 -0.6158 0
M  V30 9650 H 920.791 4.14481 -0.399288 0
M  V30 9651 H 923.388 4.82865 2.29665 0
M  V30 9652 H 923.731 3.16529 2.70398 0
M  V30 9653 H 924.264 3.81307 1.13356 0
M  V30 9654 H 921.003 6.55453 -0.0789081 0
M  V30 9655 H 920.523 5.81602 1.46627 0
M  V30 9656 H 922.202 6.35483 1.21532 0
M  V30 9657 N 922.334 -0.244713 1.55689 0
M  V30 9658 C 923.745 -0.813603 1.6804 0
M  V30 9659 C 924.096 -1.85936 0.626281 0
M  V30 9660 O 923.221 -2.15206 -0.227038 0
M  V30 9661 C 923.816 -1.48252 3.04642 0
M  V30 9662 C 922.375 -1.99908 3.18926 0
M  V30 9663 C 921.522 -0.850958 2.6392 0
M  V30 9664 H 924.473 -0.0204805 1.58687 0
M  V30 9665 H 924.494 -2.35062 2.99209 0
M  V30 9666 H 924.006 -0.721164 3.81341 0
M  V30 9667 H 922.107 -2.78918 2.47054 0
M  V30 9668 H 922.22 -2.19497 4.25862 0
M  V30 9669 H 920.584 -1.25206 2.21801 0
M  V30 9670 H 921.367 -0.10265 3.43146 0
M  V30 9671 N 923.813 -1.49104 -0.510467 0
M  V30 9672 C 925.224 -1.51423 -1.09215 0
M  V30 9673 C 925.575 -0.295035 -1.93969 0
M  V30 9674 O 924.7 0.596064 -2.08029 0
M  V30 9675 C 925.295 -2.74387 -1.98739 0
M  V30 9676 C 923.854 -2.79515 -2.52088 0
M  V30 9677 C 923.001 -2.4521 -1.29488 0
M  V30 9678 H 925.952 -1.55938 -0.294807 0
M  V30 9679 H 925.973 -2.54012 -2.83298 0
M  V30 9680 H 925.485 -3.63105 -1.37026 0
M  V30 9681 H 923.586 -1.95054 -3.17466 0
M  V30 9682 H 923.699 -3.81447 -2.89887 0
M  V30 9683 H 922.063 -1.96785 -1.61703 0
M  V30 9684 H 922.846 -3.36192 -0.694978 0
M  V30 9685 N 925.291 0.760815 -1.38019 0
M  V30 9686 C 926.539 1.51673 -1.33566 0
M  V30 9687 C 926.86 1.94852 0.076024 0
M  V30 9688 O 926.13 1.67112 1.02227 0
M  V30 9689 H 924.71 0.562581 -0.491438 0
M  V30 9690 H 927.372 0.904832 -1.72623 0
M  V30 9691 H 926.468 2.41102 -1.98182 0
M  V30 9692 N 926.769 1.22769 0.988202 0
M  V30 9693 C 928.18 1.0512 1.54294 0
M  V30 9694 C 928.531 -0.383904 1.92407 0
M  V30 9695 O 927.656 -1.26955 1.75246 0
M  V30 9696 C 928.251 1.90198 2.80375 0
M  V30 9697 C 926.81 1.76831 3.32276 0
M  V30 9698 C 925.957 1.86377 2.05326 0
M  V30 9699 H 928.908 1.36546 0.808758 0
M  V30 9700 H 928.929 1.42216 3.52923 0
M  V30 9701 H 928.441 2.9464 2.52605 0
M  V30 9702 H 926.542 0.751412 3.64945 0
M  V30 9703 H 926.655 2.59771 4.02562 0
M  V30 9704 H 925.019 1.2987 2.19103 0
M  V30 9705 H 925.802 2.9236 1.79946 0
M  V30 9706 N 928.247 -1.18576 1.03814 0
M  V30 9707 C 929.477 -1.92158 0.758864 0
M  V30 9708 C 929.885 -1.76267 -0.687498 0
M  V30 9709 O 929.228 -1.08806 -1.4801 0
M  V30 9710 C 929.29 -3.44063 1.04217 0
M  V30 9711 C 928.954 -3.8373 2.48193 0
M  V30 9712 C 929.951 -3.87722 3.46363 0
M  V30 9713 C 927.636 -4.151 2.82838 0
M  V30 9714 C 929.63 -4.2253 4.77229 0
M  V30 9715 C 927.317 -4.49578 4.13911 0
M  V30 9716 C 928.315 -4.53269 5.10917 0
M  V30 9717 O 928.003 -4.86945 6.39641 0
M  V30 9718 H 927.735 -0.61694 0.276335 0
M  V30 9719 H 930.289 -1.51388 1.38819 0
M  V30 9720 H 928.519 -3.85061 0.355709 0
M  V30 9721 H 930.208 -3.9889 0.751091 0
M  V30 9722 H 930.974 -3.63627 3.20936 0
M  V30 9723 H 926.853 -4.11406 2.08006 0
M  V30 9724 H 930.397 -4.25326 5.52941 0
M  V30 9725 H 926.294 -4.73133 4.39107 0
M  V30 9726 H 927.062 -5.04857 6.44253 0
M  V30 9727 N 929.725 -0.817259 -1.34754 0
M  V30 9728 C 930.95 -0.414423 -2.03217 0
M  V30 9729 C 931.375 0.970037 -1.61158 0
M  V30 9730 O 930.733 1.63016 -0.793436 0
M  V30 9731 C 930.781 -0.518087 -3.56859 0
M  V30 9732 O 929.885 0.464314 -4.09778 0
M  V30 9733 H 929.226 -0.171454 -0.641482 0
M  V30 9734 H 931.756 -1.10611 -1.72123 0
M  V30 9735 H 931.766 -0.391779 -4.06115 0
M  V30 9736 H 930.441 -1.52786 -3.86819 0
M  V30 9737 H 929.018 0.297361 -3.71712 0
M  V30 9738 N 931.203 1.46865 -0.571711 0
M  V30 9739 C 932.428 2.07323 -0.0564655 0
M  V30 9740 C 932.853 1.41938 1.23431 0
M  V30 9741 O 932.211 0.499334 1.74288 0
M  V30 9742 C 932.259 3.6044 0.107339 0
M  V30 9743 O 931.363 3.95558 1.1665 0
M  V30 9744 H 930.704 0.661475 -0.0578465 0
M  V30 9745 H 933.234 1.88669 -0.791524 0
M  V30 9746 H 933.244 4.06767 0.316987 0
M  V30 9747 H 931.919 4.07425 -0.835348 0
M  V30 9748 H 930.496 3.60957 0.936189 0
M  V30 9749 N 932.681 0.308908 1.54543 0
M  V30 9750 C 933.614 -0.605854 2.20011 0
M  V30 9751 C 934.592 -1.1269 1.17216 0
M  V30 9752 O 935.776 -1.19363 1.45893 0
M  V30 9753 C 932.903 -1.82977 2.85021 0
M  V30 9754 C 931.949 -1.44126 4.0141 0
M  V30 9755 S 932.782 -0.490445 5.33249 0
M  V30 9756 C 933.938 -1.72198 6.01746 0
M  V30 9757 H 934.171 -0.0496911 2.97258 0
M  V30 9758 H 931.704 0.0930238 1.5412 0
M  V30 9759 H 933.662 -2.53211 3.23102 0
M  V30 9760 H 932.323 -2.35711 2.07604 0
M  V30 9761 H 931.516 -2.35288 4.45708 0
M  V30 9762 H 931.118 -0.818788 3.64927 0
M  V30 9763 H 933.41 -2.66147 6.23034 0
M  V30 9764 H 934.353 -1.32142 6.95661 0
M  V30 9765 H 934.761 -1.90229 5.31482 0
M  V30 9766 N 934.159 -1.57557 0.0367827 0
M  V30 9767 C 935.109 -2.07182 -0.95183 0
M  V30 9768 C 936.093 -0.973921 -1.28076 0
M  V30 9769 O 937.285 -1.23741 -1.26559 0
M  V30 9770 C 934.414 -2.60869 -2.23164 0
M  V30 9771 C 933.5 -3.77602 -1.93074 0
M  V30 9772 N 933.891 -4.87923 -1.33283 0
M  V30 9773 C 932.189 -3.86234 -2.23023 0
M  V30 9774 C 932.89 -5.69083 -1.20498 0
M  V30 9775 N 931.866 -5.16233 -1.70306 0
M  V30 9776 H 935.668 -2.89876 -0.484647 0
M  V30 9777 H 933.182 -1.61528 -0.16804 0
M  V30 9778 H 935.179 -2.94716 -2.9487 0
M  V30 9779 H 933.839 -1.79607 -2.70502 0
M  V30 9780 H 934.85 -5.08018 -1.00686 0
M  V30 9781 H 931.527 -3.15891 -2.72981 0
M  V30 9782 H 932.917 -6.6779 -0.741999 0
M  V30 9783 N 935.637 0.236453 -1.55816 0
M  V30 9784 C 936.584 1.29289 -1.91188 0
M  V30 9785 C 937.554 1.47315 -0.767301 0
M  V30 9786 O 938.739 1.61128 -1.02189 0
M  V30 9787 C 935.879 2.64126 -2.22107 0
M  V30 9788 C 934.992 2.54022 -3.49423 0
M  V30 9789 C 934.127 3.81282 -3.69861 0
M  V30 9790 C 933.166 3.65839 -4.90743 0
M  V30 9791 N 932.303 4.85014 -5.07647 0
M  V30 9792 H 937.143 0.98424 -2.81277 0
M  V30 9793 H 934.68 0.474722 -1.39229 0
M  V30 9794 H 936.638 3.42626 -2.3804 0
M  V30 9795 H 935.268 2.93118 -1.35209 0
M  V30 9796 H 934.32 1.67036 -3.41765 0
M  V30 9797 H 935.632 2.38525 -4.38072 0
M  V30 9798 H 934.786 4.68226 -3.8581 0
M  V30 9799 H 933.525 3.99688 -2.79465 0
M  V30 9800 H 932.53 2.77279 -4.74759 0
M  V30 9801 H 933.755 3.48918 -5.82609 0
M  V30 9802 H 931.701 5.03762 -4.20191 0
M  V30 9803 H 931.618 4.72188 -5.90402 0
M  V30 9804 H 932.886 5.73427 -5.28017 0
M  V30 9805 N 937.115 1.49373 0.502552 0
M  V30 9806 C 938.045 1.68839 1.61294 0
M  V30 9807 C 939.026 0.537096 1.61398 0
M  V30 9808 O 940.211 0.772764 1.78163 0
M  V30 9809 C 937.341 1.75347 2.99784 0
M  V30 9810 C 936.295 2.90251 3.14545 0
M  V30 9811 C 935.621 2.8187 4.54371 0
M  V30 9812 C 936.921 4.31207 2.94717 0
M  V30 9813 H 938.615 2.61803 1.45257 0
M  V30 9814 H 936.161 1.25987 0.697371 0
M  V30 9815 H 938.114 1.87552 3.77362 0
M  V30 9816 H 936.838 0.789814 3.16906 0
M  V30 9817 H 935.497 2.77646 2.39392 0
M  V30 9818 H 935.145 1.83416 4.68367 0
M  V30 9819 H 934.845 3.5899 4.65188 0
M  V30 9820 H 936.369 2.96081 5.34012 0
M  V30 9821 H 937.783 4.44501 3.62065 0
M  V30 9822 H 936.18 5.09536 3.17007 0
M  V30 9823 H 937.25 4.45759 1.90857 0
M  V30 9824 N 938.594 -0.753485 1.38421 0
M  V30 9825 C 939.524 -1.8808 1.38377 0
M  V30 9826 C 940.505 -1.68258 0.249664 0
M  V30 9827 O 941.69 -1.88848 0.45276 0
M  V30 9828 C 938.82 -3.25608 1.20818 0
M  V30 9829 C 937.774 -3.60032 2.31433 0
M  V30 9830 C 937.1 -4.96297 1.9898 0
M  V30 9831 C 938.4 -3.64898 3.73694 0
M  V30 9832 H 940.094 -1.88375 2.32713 0
M  V30 9833 H 937.64 -0.90489 1.12017 0
M  V30 9834 H 939.593 -4.04127 1.19412 0
M  V30 9835 H 938.317 -3.25793 0.229433 0
M  V30 9836 H 936.976 -2.83831 2.32025 0
M  V30 9837 H 936.624 -4.93043 0.995889 0
M  V30 9838 H 936.324 -5.20298 2.73063 0
M  V30 9839 H 937.848 -5.77196 1.99193 0
M  V30 9840 H 939.262 -4.33531 3.75132 0
M  V30 9841 H 937.659 -4.00407 4.46983 0
M  V30 9842 H 938.729 -2.65124 4.06002 0
M  V30 9843 N 940.072 -1.23292 -0.981677 0
M  V30 9844 C 940.982 -1.02964 -2.10798 0
M  V30 9845 C 941.998 0.0254674 -1.73981 0
M  V30 9846 O 943.174 -0.169706 -2.00684 0
M  V30 9847 C 940.239 -0.621934 -3.41076 0
M  V30 9848 C 939.3 -1.75194 -3.91926 0
M  V30 9849 C 938.533 -1.36359 -5.15986 0
M  V30 9850 O 938.756 -0.247265 -5.69864 0
M  V30 9851 O 937.69 -2.18421 -5.60871 0
M  V30 9852 H 941.516 -1.97354 -2.30836 0
M  V30 9853 H 939.101 -1.01986 -1.09175 0
M  V30 9854 H 940.983 -0.405446 -4.19445 0
M  V30 9855 H 939.658 0.29299 -3.22371 0
M  V30 9856 H 938.565 -2.02305 -3.1468 0
M  V30 9857 H 939.898 -2.64513 -4.15083 0
M  V30 9858 N 941.55 1.18024 -1.04442 0
M  V30 9859 C 942.778 1.92032 -0.770161 0
M  V30 9860 C 943.193 1.76391 0.673181 0
M  V30 9861 O 942.55 1.09604 1.45922 0
M  V30 9862 C 942.601 3.43328 -1.13173 0
M  V30 9863 O 942.322 3.5848 -2.51841 0
M  V30 9864 C 943.823 4.34427 -0.882523 0
M  V30 9865 H 941.043 0.609518 -0.280586 0
M  V30 9866 H 943.587 1.49711 -1.39308 0
M  V30 9867 H 941.742 3.83423 -0.553704 0
M  V30 9868 H 942.156 4.52166 -2.65794 0
M  V30 9869 H 943.63 5.39123 -1.18533 0
M  V30 9870 H 944.107 4.3882 0.18257 0
M  V30 9871 H 944.713 4.00035 -1.44403 0
M  V30 9872 N 943.028 0.824394 1.34319 0
M  V30 9873 C 943.96 0.204805 2.28283 0
M  V30 9874 C 944.973 -0.606162 1.51094 0
M  V30 9875 O 946.162 -0.435602 1.73103 0
M  V30 9876 C 943.262 -0.73139 3.30914 0
M  V30 9877 C 942.435 0.0370723 4.37384 0
M  V30 9878 C 941.494 -0.820272 5.19767 0
M  V30 9879 O 940.52 -0.264721 5.68584 0
M  V30 9880 N 941.722 -2.13984 5.39621 0
M  V30 9881 H 944.487 1.0121 2.82093 0
M  V30 9882 H 942.048 0.681494 1.46858 0
M  V30 9883 H 944.04 -1.30958 3.82926 0
M  V30 9884 H 942.61 -1.43943 2.77487 0
M  V30 9885 H 941.83 0.796578 3.86068 0
M  V30 9886 H 943.118 0.566014 5.05642 0
M  V30 9887 H 942.516 -2.61492 5.01636 0
M  V30 9888 H 941.073 -2.66685 5.94746 0
M  V30 9889 N 944.506 -1.46559 0.579492 0
M  V30 9890 C 945.731 -2.0729 0.0674595 0
M  V30 9891 C 946.156 -1.4259 -1.22677 0
M  V30 9892 O 945.514 -0.50857 -1.74021 0
M  V30 9893 C 945.562 -3.60492 -0.0882227 0
M  V30 9894 O 944.666 -3.96172 -1.14551 0
M  V30 9895 H 944.007 -0.661159 0.0613536 0
M  V30 9896 H 946.537 -1.88247 0.801519 0
M  V30 9897 H 946.547 -4.06929 -0.295411 0
M  V30 9898 H 945.222 -4.06976 0.856943 0
M  V30 9899 H 943.799 -3.61448 -0.917033 0
M  V30 9900 N 945.984 -0.3171 -1.54377 0
M  V30 9901 C 947.212 0.289558 -2.04864 0
M  V30 9902 C 947.627 1.46284 -1.19359 0
M  V30 9903 O 946.984 1.81135 -0.222795 0
M  V30 9904 C 947.035 0.730273 -3.54047 0
M  V30 9905 O 946.756 -0.396325 -4.36304 0
M  V30 9906 C 948.257 1.40041 -4.20599 0
M  V30 9907 H 945.477 0.0605836 -0.668259 0
M  V30 9908 H 948.021 -0.461411 -1.99227 0
M  V30 9909 H 946.176 1.43123 -3.59992 0
M  V30 9910 H 946.59 -0.0502901 -5.24476 0
M  V30 9911 H 948.064 1.65979 -5.26455 0
M  V30 9912 H 948.541 2.34565 -3.71316 0
M  V30 9913 H 949.147 0.742206 -4.18774 0
M  V30 9914 N 947.462 1.57535 -0.0451378 0
M  V30 9915 C 948.71 1.92071 0.628743 0
M  V30 9916 C 949.031 0.923635 1.71738 0
M  V30 9917 O 948.301 -0.0324376 1.95873 0
M  V30 9918 H 946.881 0.708995 0.235233 0
M  V30 9919 H 949.543 1.9466 -0.0967177 0
M  V30 9920 H 948.639 2.9314 1.07123 0
M  V30 9921 N 948.94 -0.228186 1.55939 0
M  V30 9922 C 949.903 -1.26621 1.91049 0
M  V30 9923 C 950.903 -1.40141 0.788491 0
M  V30 9924 O 952.093 -1.3852 1.05631 0
M  V30 9925 C 949.225 -2.64108 2.15545 0
M  V30 9926 H 950.418 -0.966978 2.83883 0
M  V30 9927 H 947.971 -0.468313 1.49119 0
M  V30 9928 H 948.706 -2.99141 1.25241 0
M  V30 9929 H 948.491 -2.55673 2.97277 0
M  V30 9930 H 949.981 -3.39025 2.43827 0
M  V30 9931 N 950.418 -1.49637 -0.494624 0
M  V30 9932 C 951.658 -1.61067 -1.25844 0
M  V30 9933 C 952.022 -0.293666 -1.89741 0
M  V30 9934 O 953.223 -0.283202 -2.67304 0
M  V30 9935 C 951.494 -2.74218 -2.29215 0
M  V30 9936 S 953.053 -3.05639 -3.1485 0
M  V30 9937 H 949.871 -0.568056 -0.42759 0
M  V30 9938 H 952.473 -1.87323 -0.559491 0
M  V30 9939 H 951.177 -3.68422 -1.80813 0
M  V30 9940 H 950.708 -2.49975 -3.0377 0
M  V30 9941 H 952.723 -2.47651 -4.29981 0
M  V30 9942 N 951.896 0.746133 -1.38819 0
M  V30 9943 C 952.828 1.86991 -1.3254 0
M  V30 9944 C 953.841 1.61077 -0.236216 0
M  V30 9945 O 955.03 1.71518 -0.494341 0
M  V30 9946 C 952.13 3.22786 -1.03258 0
M  V30 9947 C 951.303 3.76145 -2.23234 0
M  V30 9948 C 950.362 4.90474 -1.90581 0
M  V30 9949 O 949.388 5.04717 -2.63153 0
M  V30 9950 N 950.59 5.74015 -0.86525 0
M  V30 9951 H 953.355 1.92885 -2.2938 0
M  V30 9952 H 950.916 0.926392 -1.32776 0
M  V30 9953 H 952.908 3.96824 -0.794533 0
M  V30 9954 H 951.478 3.12231 -0.151895 0
M  V30 9955 H 950.698 2.93587 -2.63059 0
M  V30 9956 H 951.986 4.08528 -3.03285 0
M  V30 9957 H 951.384 5.65086 -0.263577 0
M  V30 9958 H 949.941 6.48168 -0.687087 0
M  V30 9959 N 953.375 1.23811 0.975125 0
M  V30 9960 C 954.6 1.10109 1.75757 0
M  V30 9961 C 955.025 -0.342922 1.84948 0
M  V30 9962 O 954.383 -1.24814 1.31496 0
M  V30 9963 C 954.431 1.73724 3.15994 0
M  V30 9964 O 953.535 1.00297 4.00018 0
M  V30 9965 H 952.876 0.385627 0.540544 0
M  V30 9966 H 955.406 1.63971 1.22372 0
M  V30 9967 H 955.416 1.79178 3.6655 0
M  V30 9968 H 954.091 2.78794 3.0862 0
M  V30 9969 H 952.668 1.02575 3.58515 0
M  V30 9970 N 954.853 -1.17469 1.05066 0
M  V30 9971 C 956.078 -1.92162 0.780298 0
M  V30 9972 C 956.503 -1.76222 -0.657832 0
M  V30 9973 O 955.861 -1.0791 -1.45688 0
M  V30 9974 C 955.909 -3.41292 1.16414 0
M  V30 9975 O 955.013 -4.1134 0.295531 0
M  V30 9976 H 954.354 -0.599127 0.286257 0
M  V30 9977 H 956.884 -1.48903 1.40318 0
M  V30 9978 H 956.894 -3.92029 1.13036 0
M  V30 9979 H 955.569 -3.52214 2.21175 0
M  V30 9980 H 954.146 -3.70857 0.389797 0
M  V30 9981 N 956.331 -0.831506 -1.3388 0
M  V30 9982 C 957.571 -0.429648 -1.99833 0
M  V30 9983 C 957.935 0.990796 -1.6446 0
M  V30 9984 O 959.136 1.49599 -2.23324 0
M  V30 9985 C 957.407 -0.635558 -3.51704 0
M  V30 9986 S 958.966 -0.327824 -4.37574 0
M  V30 9987 H 955.784 -0.161939 -0.692313 0
M  V30 9988 H 958.386 -1.07919 -1.63015 0
M  V30 9989 H 957.09 -1.66887 -3.74936 0
M  V30 9990 H 956.621 0.0284073 -3.9339 0
M  V30 9991 H 958.636 0.855231 -4.88774 0
M  V30 9992 N 957.809 1.4625 -0.587256 0
M  V30 9993 C 958.756 2.30354 0.143384 0
M  V30 9994 C 959.726 1.40891 0.879716 0
M  V30 9995 O 960.911 1.69837 0.869486 0
M  V30 9996 C 958.051 3.25441 1.14815 0
M  V30 9997 C 957.164 4.30004 0.414792 0
M  V30 9998 C 956.299 5.12214 1.40748 0
M  V30 9999 C 955.338 6.08523 0.660786 0
M  V30 10000 N 954.475 6.83585 1.60176 0
M  V30 10001 H 959.315 2.92304 -0.579866 0
M  V30 10002 H 956.852 1.44055 -0.29777 0
M  V30 10003 H 958.81 3.79018 1.7436 0
M  V30 10004 H 957.44 2.6529 1.83906 0
M  V30 10005 H 956.492 3.79248 -0.295787 0
M  V30 10006 H 957.804 4.98515 -0.168738 0
M  V30 10007 H 956.958 5.70091 2.0756 0
M  V30 10008 H 955.697 4.43675 2.02494 0
M  V30 10009 H 954.702 5.49796 -0.0210864 0
M  V30 10010 H 955.927 6.79083 0.0486551 0
M  V30 10011 H 953.873 6.17752 2.20724 0
M  V30 10012 H 953.79 7.48373 1.07115 0
M  V30 10013 H 955.058 7.46016 2.26009 0
M  V30 10014 N 959.287 0.325282 1.54207 0
M  V30 10015 C 960.536 -0.27768 1.99779 0
M  V30 10016 C 960.849 -1.5311 1.21723 0
M  V30 10017 O 962.055 -2.21017 1.57682 0
M  V30 10018 C 960.511 -0.545329 3.55745 0
M  V30 10019 C 960.119 0.691143 4.42637 0
M  V30 10020 C 961.863 -1.10815 4.09781 0
M  V30 10021 C 959.77 0.395302 5.90077 0
M  V30 10022 H 958.7 -0.107536 0.746292 0
M  V30 10023 H 961.351 0.437773 1.78202 0
M  V30 10024 H 959.733 -1.32101 3.73317 0
M  V30 10025 H 960.907 1.46653 4.3684 0
M  V30 10026 H 959.222 1.1743 3.99499 0
M  V30 10027 H 961.819 -1.34414 5.1753 0
M  V30 10028 H 962.162 -2.05806 3.6187 0
M  V30 10029 H 962.695 -0.393608 3.95848 0
M  V30 10030 H 959.434 1.31443 6.42186 0
M  V30 10031 H 958.954 -0.34235 5.98822 0
M  V30 10032 H 960.633 0.00576877 6.47 0
M  V30 10033 N 960.765 -1.57509 0.0534917 0
M  V30 10034 C 961.99 -1.97511 -0.632794 0
M  V30 10035 C 962.415 -0.930947 -1.63447 0
M  V30 10036 O 961.773 0.105558 -1.80992 0
M  V30 10037 C 961.821 -3.3658 -1.29407 0
M  V30 10038 O 960.925 -3.3467 -2.40977 0
M  V30 10039 H 960.266 -0.643349 -0.16431 0
M  V30 10040 H 962.796 -2.04232 0.12258 0
M  V30 10041 H 962.806 -3.73359 -1.64521 0
M  V30 10042 H 961.481 -4.12113 -0.559976 0
M  V30 10043 H 960.058 -3.09639 -2.07793 0
M  V30 10044 N 962.243 0.219913 -1.56058 0
M  V30 10045 C 963.468 0.965073 -1.83579 0
M  V30 10046 C 963.893 1.77092 -0.634024 0
M  V30 10047 O 963.251 1.76434 0.417205 0
M  V30 10048 C 963.299 1.85705 -3.09105 0
M  V30 10049 O 962.403 2.95261 -2.87914 0
M  V30 10050 H 961.744 0.273173 -0.605204 0
M  V30 10051 H 964.274 0.23273 -2.03272 0
M  V30 10052 H 964.284 2.26655 -3.39252 0
M  V30 10053 H 962.959 1.26476 -3.96203 0
M  V30 10054 H 961.536 2.58246 -2.69005 0
M  V30 10055 N 963.721 1.49897 0.486681 0
M  V30 10056 C 965.132 1.53142 1.06792 0
M  V30 10057 C 965.483 0.325856 1.93475 0
M  V30 10058 O 964.608 -0.562893 2.08951 0
M  V30 10059 C 965.203 2.77514 1.94348 0
M  V30 10060 C 963.762 2.83491 2.47609 0
M  V30 10061 C 962.909 2.47239 1.2557 0
M  V30 10062 H 965.86 1.56387 0.269962 0
M  V30 10063 H 965.881 2.58487 2.79221 0
M  V30 10064 H 965.393 3.65239 1.31232 0
M  V30 10065 H 963.494 2.0008 3.14323 0
M  V30 10066 H 963.607 3.86011 2.83782 0
M  V30 10067 H 961.971 1.99332 1.58552 0
M  V30 10068 H 962.754 3.37255 0.641404 0
M  V30 10069 N 965.199 -0.738761 1.39212 0
M  V30 10070 C 966.439 -1.51093 1.3766 0
M  V30 10071 C 966.803 -1.91978 -0.0289655 0
M  V30 10072 O 968.004 -2.68265 -0.169465 0
M  V30 10073 C 966.275 -2.71988 2.31856 0
M  V30 10074 S 967.834 -3.61683 2.48458 0
M  V30 10075 H 964.652 -0.516868 0.48823 0
M  V30 10076 H 967.254 -0.865961 1.75275 0
M  V30 10077 H 965.958 -2.40085 3.32847 0
M  V30 10078 H 965.489 -3.41417 1.95443 0
M  V30 10079 H 967.504 -4.65447 1.71969 0
M  V30 10080 N 966.677 -1.24326 -0.968545 0
M  V30 10081 C 967.607 -1.05951 -2.08079 0
M  V30 10082 C 968.588 0.0272666 -1.70078 0
M  V30 10083 O 969.773 -0.139644 -1.93697 0
M  V30 10084 C 966.903 -0.662623 -3.4092 0
M  V30 10085 C 965.857 -1.69807 -3.92873 0
M  V30 10086 C 965.183 -1.15628 -5.22048 0
M  V30 10087 C 966.483 -3.09383 -4.20808 0
M  V30 10088 H 968.177 -1.98984 -2.23709 0
M  V30 10089 H 965.723 -0.958112 -1.075 0
M  V30 10090 H 967.676 -0.521071 -4.18166 0
M  V30 10091 H 966.4 0.303399 -3.25188 0
M  V30 10092 H 965.059 -1.82783 -3.17783 0
M  V30 10093 H 964.707 -0.180888 -5.02675 0
M  V30 10094 H 964.407 -1.84822 -5.57776 0
M  V30 10095 H 965.931 -1.02683 -6.01904 0
M  V30 10096 H 967.345 -2.99642 -4.88761 0
M  V30 10097 H 965.742 -3.75923 -4.67763 0
M  V30 10098 H 966.812 -3.57486 -3.27616 0
M  V30 10099 N 968.156 1.1691 -1.05688 0
M  V30 10100 C 969.103 2.21095 -0.662246 0
M  V30 10101 C 970.073 1.62623 0.338083 0
M  V30 10102 O 971.258 1.89428 0.228362 0
M  V30 10103 C 968.398 3.45066 -0.0484018 0
M  V30 10104 C 967.511 4.17809 -1.09817 0
M  V30 10105 C 966.646 5.29281 -0.451114 0
M  V30 10106 C 965.685 5.93817 -1.48484 0
M  V30 10107 N 964.822 6.96793 -0.861588 0
M  V30 10108 H 969.662 2.54204 -1.55513 0
M  V30 10109 H 967.199 1.24863 -0.777665 0
M  V30 10110 H 969.157 4.15932 0.324978 0
M  V30 10111 H 967.787 3.12526 0.807918 0
M  V30 10112 H 966.839 3.45608 -1.58932 0
M  V30 10113 H 968.151 4.61907 -1.88265 0
M  V30 10114 H 967.305 6.06695 -0.0244251 0
M  V30 10115 H 966.044 4.8633 0.365306 0
M  V30 10116 H 965.049 5.1513 -1.92149 0
M  V30 10117 H 966.274 6.38848 -2.30325 0
M  V30 10118 H 964.22 6.55967 -0.0657688 0
M  V30 10119 H 964.137 7.39229 -1.58354 0
M  V30 10120 H 965.405 7.78142 -0.45984 0
M  V30 10121 N 969.634 0.838594 1.33437 0
M  V30 10122 C 970.597 0.276843 2.27522 0
M  V30 10123 C 971.597 -0.554275 1.50945 0
M  V30 10124 O 972.787 -0.368107 1.70266 0
M  V30 10125 C 969.919 -0.610036 3.35397 0
M  V30 10126 H 971.112 1.10705 2.78719 0
M  V30 10127 H 968.665 0.611657 1.43835 0
M  V30 10128 H 969.4 -1.46269 2.89441 0
M  V30 10129 H 969.185 -0.0153615 3.92097 0
M  V30 10130 H 970.675 -0.996368 4.05539 0
M  V30 10131 N 971.112 -1.45937 0.595003 0
M  V30 10132 C 972.389 -1.95592 0.0178748 0
M  V30 10133 C 972.769 -1.53758 -1.44643 0
M  V30 10134 O 972.117 -0.794104 -2.14257 0
M  V30 10135 C 972.327 -3.4841 0.202789 0
M  V30 10136 C 973.675 -4.2453 0.0770121 0
M  V30 10137 O 974.699 -3.55954 0.132257 0
M  V30 10138 O 973.558 -5.46479 -0.0484271 0
M  V30 10139 H 970.652 -0.825888 -0.0428702 0
M  V30 10140 H 973.198 -1.56162 0.664184 0
M  V30 10141 H 971.97 -3.71787 1.22027 0
M  V30 10142 H 971.593 -3.947 -0.479376 0
M  V30 10143 N 972.59 -0.333456 -1.54032 0
M  V30 10144 C 973.815 0.270517 -2.05628 0
M  V30 10145 C 974.24 1.44231 -1.20744 0
M  V30 10146 O 973.598 1.79975 -0.218822 0
M  V30 10147 C 973.646 0.673251 -3.54259 0
M  V30 10148 O 972.75 1.77448 -3.72271 0
M  V30 10149 H 972.091 0.0469753 -0.662336 0
M  V30 10150 H 974.621 -0.484739 -1.98775 0
M  V30 10151 H 974.631 0.953194 -3.96709 0
M  V30 10152 H 973.306 -0.183747 -4.15494 0
M  V30 10153 H 971.883 1.49259 -3.41725 0
M  V30 10154 N 974.068 1.57479 -0.061844 0
M  V30 10155 C 975.316 1.92727 0.608336 0
M  V30 10156 C 975.637 0.941799 1.70749 0
M  V30 10157 O 974.907 -0.0116608 1.95897 0
M  V30 10158 H 973.487 0.71145 0.2277 0
M  V30 10159 H 976.149 1.94546 -0.117359 0
M  V30 10160 H 975.245 2.9426 1.04007 0
M  V30 10161 N 975.546 -0.211634 1.56173 0
M  V30 10162 C 976.509 -1.24588 1.92381 0
M  V30 10163 C 977.509 -1.39297 0.803311 0
M  V30 10164 O 978.699 -1.37392 1.07094 0
M  V30 10165 C 975.831 -2.61807 2.18335 0
M  V30 10166 H 977.024 -0.936814 2.84893 0
M  V30 10167 H 974.577 -0.452471 1.49607 0
M  V30 10168 H 975.312 -2.97795 1.28407 0
M  V30 10169 H 975.097 -2.52506 2.99972 0
M  V30 10170 H 976.587 -3.3642 2.4741 0
M  V30 10171 N 977.024 -1.50153 -0.478725 0
M  V30 10172 C 978.264 -1.62393 -1.24129 0
M  V30 10173 C 978.628 -0.313774 -1.89419 0
M  V30 10174 O 979.829 -0.311537 -2.66989 0
M  V30 10175 C 978.1 -2.76633 -2.26293 0
M  V30 10176 S 979.659 -3.08961 -3.11591 0
M  V30 10177 H 976.477 -0.572559 -0.421541 0
M  V30 10178 H 979.079 -1.87906 -0.539592 0
M  V30 10179 H 977.783 -3.70319 -1.76896 0
M  V30 10180 H 977.314 -2.53182 -3.01102 0
M  V30 10181 H 979.329 -2.52197 -4.2733 0
M  V30 10182 N 978.502 0.731368 -1.39602 0
M  V30 10183 C 979.75 1.48805 -1.36753 0
M  V30 10184 C 980.071 1.94969 0.034676 0
M  V30 10185 O 979.341 1.69243 0.986591 0
M  V30 10186 H 977.921 0.55203 -0.503261 0
M  V30 10187 H 980.583 0.868013 -1.74504 0
M  V30 10188 H 979.679 2.36844 -2.03252 0
M  V30 10189 N 979.98 1.24838 0.961938 0
M  V30 10190 C 981.391 1.08369 1.5203 0
M  V30 10191 C 981.742 -0.343005 1.93178 0
M  V30 10192 O 980.867 -1.2321 1.779 0
M  V30 10193 C 981.462 1.96102 2.76278 0
M  V30 10194 C 980.021 1.8384 3.28451 0
M  V30 10195 C 979.168 1.9069 2.01327 0
M  V30 10196 H 982.119 1.38231 0.779613 0
M  V30 10197 H 982.14 1.4967 3.49827 0
M  V30 10198 H 981.652 2.99931 2.46298 0
M  V30 10199 H 979.753 0.828653 3.63269 0
M  V30 10200 H 979.866 2.68251 3.96961 0
M  V30 10201 H 978.23 1.34488 2.16299 0
M  V30 10202 H 979.013 2.96111 1.73705 0
M  V30 10203 N 981.458 -1.16348 1.06306 0
M  V30 10204 C 982.735 -1.829 0.69331 0
M  V30 10205 C 983.115 -1.94298 -0.82531 0
M  V30 10206 O 982.463 -1.48619 -1.73565 0
M  V30 10207 C 982.673 -3.1989 1.3954 0
M  V30 10208 C 984.021 -3.95662 1.54068 0
M  V30 10209 O 985.045 -3.29408 1.35532 0
M  V30 10210 O 983.904 -5.14422 1.84479 0
M  V30 10211 H 980.998 -0.789738 0.245445 0
M  V30 10212 H 983.544 -1.23549 1.16334 0
M  V30 10213 H 982.316 -3.06629 2.43093 0
M  V30 10214 H 981.939 -3.86918 0.915453 0
M  V30 10215 N 982.937 -0.845659 -1.3299 0
M  V30 10216 C 984.162 -0.457435 -2.02293 0
M  V30 10217 C 984.587 0.935634 -1.63179 0
M  V30 10218 O 983.945 1.61297 -0.827835 0
M  V30 10219 C 983.993 -0.593665 -3.5568 0
M  V30 10220 O 983.097 0.37729 -4.10671 0
M  V30 10221 H 982.438 -0.185022 -0.637701 0
M  V30 10222 H 984.968 -1.14237 -1.69738 0
M  V30 10223 H 984.978 -0.477834 -4.05192 0
M  V30 10224 H 983.653 -1.60957 -3.83491 0
M  V30 10225 H 982.23 0.218448 -3.7226 0
M  V30 10226 N 984.415 1.45619 -0.602734 0
M  V30 10227 C 985.655 2.0416 -0.0989764 0
M  V30 10228 C 986.019 1.4616 1.24504 0
M  V30 10229 O 987.22 1.96025 1.83923 0
M  V30 10230 C 985.491 3.57357 -0.0551869 0
M  V30 10231 S 987.05 4.3708 0.388086 0
M  V30 10232 H 983.868 0.709431 -0.0472054 0
M  V30 10233 H 986.47 1.78394 -0.799745 0
M  V30 10234 H 985.174 3.97083 -1.03697 0
M  V30 10235 H 984.705 3.87692 0.667727 0
M  V30 10236 H 986.72 4.68362 1.63865 0
M  V30 10237 N 985.893 0.34162 1.53853 0
M  V30 10238 C 987.304 -0.14269 1.86154 0
M  V30 10239 C 987.655 -1.50151 1.2629 0
M  V30 10240 O 986.78 -2.08601 0.575735 0
M  V30 10241 C 987.375 -0.265691 3.37757 0
M  V30 10242 C 985.934 -0.694231 3.69942 0
M  V30 10243 C 985.081 0.173195 2.76759 0
M  V30 10244 H 988.032 0.561284 1.48443 0
M  V30 10245 H 988.053 -1.09352 3.64448 0
M  V30 10246 H 987.565 0.723424 3.81298 0
M  V30 10247 H 985.666 -1.69244 3.31945 0
M  V30 10248 H 985.779 -0.485461 4.76634 0
M  V30 10249 H 984.143 -0.35416 2.52226 0
M  V30 10250 H 984.926 1.15941 3.23129 0
M  V30 10251 N 987.371 -1.57444 0.0701946 0
M  V30 10252 C 988.601 -1.97467 -0.607476 0
M  V30 10253 C 989.009 -0.947232 -1.63781 0
M  V30 10254 O 988.352 0.074652 -1.83548 0
M  V30 10255 C 988.414 -3.33795 -1.33495 0
M  V30 10256 C 988.078 -4.54697 -0.458265 0
M  V30 10257 C 989.075 -5.19127 0.283488 0
M  V30 10258 C 986.76 -5.00833 -0.383612 0
M  V30 10259 C 988.754 -6.28043 1.08813 0
M  V30 10260 C 986.441 -6.09622 0.424705 0
M  V30 10261 C 987.439 -6.7309 1.15925 0
M  V30 10262 O 987.127 -7.79785 1.95423 0
M  V30 10263 H 986.859 -0.654405 -0.169501 0
M  V30 10264 H 989.413 -2.04931 0.138651 0
M  V30 10265 H 987.643 -3.22941 -2.12711 0
M  V30 10266 H 989.332 -3.58435 -1.9047 0
M  V30 10267 H 990.098 -4.84428 0.235397 0
M  V30 10268 H 985.977 -4.51211 -0.944968 0
M  V30 10269 H 989.521 -6.77513 1.66197 0
M  V30 10270 H 985.418 -6.43755 0.474366 0
M  V30 10271 H 986.186 -7.96655 1.87838 0
M  V30 10272 N 988.849 0.203349 -1.56283 0
M  V30 10273 C 990.089 0.931871 -1.81922 0
M  V30 10274 C 990.453 1.8079 -0.646459 0
M  V30 10275 O 991.654 2.57157 -0.782556 0
M  V30 10276 C 989.925 1.73347 -3.12547 0
M  V30 10277 S 991.484 2.51514 -3.59564 0
M  V30 10278 H 988.302 0.312706 -0.638542 0
M  V30 10279 H 990.904 0.195931 -1.94516 0
M  V30 10280 H 989.608 1.08038 -3.95924 0
M  V30 10281 H 989.139 2.51138 -3.02809 0
M  V30 10282 H 991.154 3.7552 -3.24345 0
M  V30 10283 N 990.327 1.50405 0.470755 0
M  V30 10284 C 991.29 1.68741 1.5511 0
M  V30 10285 C 992.29 0.558116 1.50804 0
M  V30 10286 O 993.48 0.825149 1.53418 0
M  V30 10287 C 990.612 1.71295 2.94739 0
M  V30 10288 H 991.805 2.65127 1.40169 0
M  V30 10289 H 989.358 1.39891 0.697156 0
M  V30 10290 H 990.093 0.766029 3.15123 0
M  V30 10291 H 989.878 2.53336 2.99271 0
M  V30 10292 H 991.368 1.87434 3.73173 0
M  V30 10293 N 991.805 -0.723954 1.39988 0
M  V30 10294 C 993.221 -1.03095 1.21834 0
M  V30 10295 C 993.421 -2.01309 0.0876647 0
M  V30 10296 O 992.477 -2.46277 -0.55714 0
M  V30 10297 C 993.79 -1.58267 2.5568 0
M  V30 10298 C 995.338 -1.70293 2.6262 0
M  V30 10299 C 995.813 -2.28872 3.96713 0
M  V30 10300 N 997.304 -2.36269 3.98411 0
M  V30 10301 C 998.039 -2.82557 4.98948 0
M  V30 10302 N 997.535 -3.28661 6.0988 0
M  V30 10303 N 999.328 -2.81866 4.86321 0
M  V30 10304 H 991.479 -0.0727891 2.12275 0
M  V30 10305 H 993.742 -0.0949029 0.943238 0
M  V30 10306 H 993.448 -0.935642 3.39026 0
M  V30 10307 H 993.322 -2.56914 2.76179 0
M  V30 10308 H 995.709 -2.34115 1.7965 0
M  V30 10309 H 995.79 -0.70268 2.45959 0
M  V30 10310 H 995.434 -1.65675 4.80119 0
M  V30 10311 H 995.364 -3.29595 4.107 0
M  V30 10312 H 997.855 -2.03697 3.18302 0
M  V30 10313 H 998.168 -3.62524 6.82493 0
M  V30 10314 H 996.513 -3.26641 6.13458 0
M  V30 10315 H 999.704 -2.45179 3.98754 0
M  V30 10316 H 999.877 -3.17626 5.64817 0
M  V30 10317 N 993.283 -1.25346 -0.955304 0
M  V30 10318 C 994.246 -1.05754 -2.03344 0
M  V30 10319 C 995.246 -0.0105743 -1.60797 0
M  V30 10320 O 996.436 -0.252699 -1.72357 0
M  V30 10321 C 993.568 -0.605536 -3.35479 0
M  V30 10322 H 994.761 -2.01459 -2.22158 0
M  V30 10323 H 992.314 -1.07744 -1.1323 0
M  V30 10324 H 993.049 0.354154 -3.2236 0
M  V30 10325 H 992.834 -1.36134 -3.67709 0
M  V30 10326 H 994.324 -0.489867 -4.14717 0
M  V30 10327 N 994.761 1.15782 -1.06922 0
M  V30 10328 C 996.009 1.86097 -0.788192 0
M  V30 10329 C 996.33 1.82475 0.687606 0
M  V30 10330 O 995.6 1.26266 1.49778 0
M  V30 10331 H 994.18 0.689008 -0.288577 0
M  V30 10332 H 996.842 1.40377 -1.35205 0
M  V30 10333 H 995.938 2.91358 -1.1188 0
M  V30 10334 N 996.239 0.8527 1.3254 0
M  V30 10335 C 997.202 0.300959 2.27215 0
M  V30 10336 C 998.202 -0.538235 1.51525 0
M  V30 10337 O 999.392 -0.350027 1.70647 0
M  V30 10338 C 996.524 -0.574428 3.36025 0
M  V30 10339 H 997.717 1.13655 2.77529 0
M  V30 10340 H 995.27 0.626878 1.43178 0
M  V30 10341 H 996.005 -1.43191 2.90976 0
M  V30 10342 H 995.79 0.0262265 3.92091 0
M  V30 10343 H 997.28 -0.9533 4.06573 0
M  V30 10344 N 997.718 -1.45297 0.610449 0
M  V30 10345 C 998.966 -2.01819 0.106548 0
M  V30 10346 C 999.287 -1.48102 -1.26849 0
M  V30 10347 O 998.557 -0.676411 -1.83852 0
M  V30 10348 H 997.137 -0.746113 0.0363982 0
M  V30 10349 H 999.799 -1.78061 0.792491 0
M  V30 10350 H 998.895 -3.12045 0.0585 0
M  V30 10351 N 999.196 -0.349774 -1.5367 0
M  V30 10352 C 1000.11 0.512421 -2.28935 0
M  V30 10353 C 1001.12 1.1065 -1.34286 0
M  V30 10354 O 1002.3 1.12084 -1.67329 0
M  V30 10355 C 999.363 1.64449 -3.05217 0
M  V30 10356 C 998.424 1.07956 -4.15505 0
M  V30 10357 C 997.657 2.15768 -4.88139 0
M  V30 10358 O 997.88 3.366 -4.60496 0
M  V30 10359 O 996.814 1.79712 -5.74445 0
M  V30 10360 H 1000.64 -0.0996001 -3.03537 0
M  V30 10361 H 998.225 -0.114629 -1.4896 0
M  V30 10362 H 1000.11 2.30302 -3.52901 0
M  V30 10363 H 998.782 2.24221 -2.33467 0
M  V30 10364 H 997.689 0.385381 -3.7211 0
M  V30 10365 H 999.022 0.526621 -4.89375 0
M  V30 10366 N 1000.67 1.57404 -0.0785433 0
M  V30 10367 C 1001.92 1.94031 0.589896 0
M  V30 10368 C 1002.25 0.959297 1.68852 0
M  V30 10369 O 1001.53 -0.0103978 1.94497 0
M  V30 10370 C 1001.81 3.40886 1.16055 0
M  V30 10371 C 1001.66 4.49748 0.0681072 0
M  V30 10372 C 1002.98 3.88699 2.06401 0
M  V30 10373 H 1000.1 0.70556 0.212965 0
M  V30 10374 H 1002.74 1.89439 -0.145886 0
M  V30 10375 H 1000.89 3.4493 1.78761 0
M  V30 10376 H 1002.57 4.57823 -0.565318 0
M  V30 10377 H 1000.81 4.29625 -0.600431 0
M  V30 10378 H 1001.48 5.49658 0.507906 0
M  V30 10379 H 1003.96 3.86703 1.53622 0
M  V30 10380 H 1002.83 4.92052 2.43261 0
M  V30 10381 H 1003.09 3.2703 2.97496 0
M  V30 10382 N 1002.15 -0.195058 1.56388 0
M  V30 10383 C 1003.06 -1.26219 1.97752 0
M  V30 10384 C 1004.08 -1.49801 0.885192 0
M  V30 10385 O 1005.25 -1.62415 1.19094 0
M  V30 10386 C 1002.32 -2.5865 2.3087 0
M  V30 10387 C 1001.38 -2.4314 3.5381 0
M  V30 10388 C 1000.61 -3.69255 3.85339 0
M  V30 10389 O 1000.84 -4.73425 3.18159 0
M  V30 10390 O 999.77 -3.64782 4.78767 0
M  V30 10391 H 1003.6 -0.941161 2.88749 0
M  V30 10392 H 1001.18 -0.40006 1.43944 0
M  V30 10393 H 1003.06 -3.36814 2.53247 0
M  V30 10394 H 1001.74 -2.9038 1.43042 0
M  V30 10395 H 1000.64 -1.63086 3.3668 0
M  V30 10396 H 1001.98 -2.16341 4.42105 0
M  V30 10397 N 1003.63 -1.50653 -0.462772 0
M  V30 10398 C 1004.56 -1.73056 -1.5676 0
M  V30 10399 C 1005.54 -0.579699 -1.59917 0
M  V30 10400 O 1006.73 -0.819729 -1.76051 0
M  V30 10401 C 1003.86 -1.83234 -2.9503 0
M  V30 10402 C 1002.81 -2.98488 -3.06739 0
M  V30 10403 C 1002.14 -2.93818 -4.46738 0
M  V30 10404 C 1003.44 -4.38869 -2.83181 0
M  V30 10405 H 1005.13 -2.65562 -1.38265 0
M  V30 10406 H 1002.68 -1.27792 -0.663722 0
M  V30 10407 H 1004.63 -1.97491 -3.72257 0
M  V30 10408 H 1003.35 -0.873558 -3.14701 0
M  V30 10409 H 1002.01 -2.83895 -2.31946 0
M  V30 10410 H 1001.66 -1.95769 -4.63339 0
M  V30 10411 H 1001.36 -3.71197 -4.55507 0
M  V30 10412 H 1002.88 -3.10135 -5.25974 0
M  V30 10413 H 1004.3 -4.53945 -3.50153 0
M  V30 10414 H 1002.69 -5.17762 -3.03386 0
M  V30 10415 H 1003.76 -4.50663 -1.78972 0
M  V30 10416 N 1005.11 0.71652 -1.4037 0
M  V30 10417 C 1006.07 1.81231 -1.40313 0
M  V30 10418 C 1007.07 1.58032 -0.297087 0
M  V30 10419 O 1008.26 1.65091 -0.555944 0
M  V30 10420 C 1005.39 3.19308 -1.19395 0
M  V30 10421 H 1006.59 1.8268 -2.3784 0
M  V30 10422 H 1004.14 0.922062 -1.26205 0
M  V30 10423 H 1004.87 3.2351 -0.226252 0
M  V30 10424 H 1004.66 3.37546 -1.99512 0
M  V30 10425 H 1006.15 3.99339 -1.22141 0
M  V30 10426 N 1006.59 1.25851 0.948643 0
M  V30 10427 C 1007.86 1.01717 1.67072 0
M  V30 10428 C 1008.24 -0.454749 2.06144 0
M  V30 10429 O 1007.59 -1.43345 1.77945 0
M  V30 10430 C 1007.8 1.95872 2.88852 0
M  V30 10431 C 1009.15 2.24057 3.60671 0
M  V30 10432 O 1010.17 1.93678 2.98944 0
M  V30 10433 O 1009.03 2.75745 4.71833 0
M  V30 10434 H 1006.13 0.386198 0.731287 0
M  V30 10435 H 1008.67 1.37031 1.00104 0
M  V30 10436 H 1007.44 2.95233 2.56814 0
M  V30 10437 H 1007.07 1.60992 3.63548 0
M  V30 10438 N 1008.06 -1.15214 1.07534 0
M  V30 10439 C 1009.48 -1.38031 0.801228 0
M  V30 10440 C 1009.68 -1.92556 -0.593672 0
M  V30 10441 O 1008.74 -2.1325 -1.35206 0
M  V30 10442 C 1010.05 -2.34958 1.87657 0
M  V30 10443 C 1011.6 -2.48617 1.90154 0
M  V30 10444 C 1012.07 -3.48837 2.96777 0
M  V30 10445 N 1013.56 -3.56374 2.95892 0
M  V30 10446 C 1014.3 -4.33746 3.75036 0
M  V30 10447 N 1013.79 -5.14435 4.64036 0
M  V30 10448 N 1015.59 -4.28853 3.63375 0
M  V30 10449 H 1007.74 -0.781639 1.97495 0
M  V30 10450 H 1010 -0.406243 0.856546 0
M  V30 10451 H 1009.71 -2.02013 2.87895 0
M  V30 10452 H 1009.58 -3.3476 1.73827 0
M  V30 10453 H 1011.97 -2.80859 0.905666 0
M  V30 10454 H 1012.05 -1.48808 2.08062 0
M  V30 10455 H 1011.69 -3.1733 3.96565 0
M  V30 10456 H 1011.62 -4.48406 2.76116 0
M  V30 10457 H 1014.11 -2.98784 2.31379 0
M  V30 10458 H 1014.43 -5.70722 5.21053 0
M  V30 10459 H 1012.77 -5.13734 4.68084 0
M  V30 10460 H 1015.96 -3.64882 2.93221 0
M  V30 10461 H 1016.14 -4.88903 4.25298 0
M  V30 10462 N 1009.54 -0.859717 -1.32086 0
M  V30 10463 C 1010.45 -0.31108 -2.32528 0
M  V30 10464 C 1011.47 0.573714 -1.6427 0
M  V30 10465 O 1012.64 0.472878 -1.9577 0
M  V30 10466 C 1009.71 0.487256 -3.43259 0
M  V30 10467 C 1008.77 -0.424279 -4.27198 0
M  V30 10468 C 1008 0.336051 -5.32641 0
M  V30 10469 O 1008.23 1.56541 -5.48499 0
M  V30 10470 O 1007.16 -0.300777 -6.01148 0
M  V30 10471 H 1010.99 -1.14336 -2.81355 0
M  V30 10472 H 1008.57 -0.622794 -1.358 0
M  V30 10473 H 1010.45 0.940203 -4.10777 0
M  V30 10474 H 1009.13 1.29626 -2.96612 0
M  V30 10475 H 1008.04 -0.925509 -3.62471 0
M  V30 10476 H 1009.37 -1.1986 -4.77383 0
M  V30 10477 N 1011.02 1.44971 -0.618145 0
M  V30 10478 C 1011.95 2.27748 0.143561 0
M  V30 10479 C 1012.93 1.37768 0.863642 0
M  V30 10480 O 1014.12 1.67203 0.870373 0
M  V30 10481 C 1011.24 3.16394 1.20883 0
M  V30 10482 C 1010.29 4.22389 0.590724 0
M  V30 10483 S 1011.12 5.32021 -0.609406 0
M  V30 10484 C 1012.28 6.24235 0.456199 0
M  V30 10485 H 1012.51 2.92003 -0.558699 0
M  V30 10486 H 1010.04 1.48968 -0.40595 0
M  V30 10487 H 1012 3.6802 1.81855 0
M  V30 10488 H 1010.66 2.51384 1.88322 0
M  V30 10489 H 1009.86 4.84379 1.3926 0
M  V30 10490 H 1009.46 3.73958 0.055917 0
M  V30 10491 H 1011.75 6.64269 1.33238 0
M  V30 10492 H 1012.69 7.07985 -0.127794 0
M  V30 10493 H 1013.1 5.59137 0.776269 0
M  V30 10494 N 1012.5 0.357919 1.53482 0
M  V30 10495 C 1013.91 -0.122938 1.86295 0
M  V30 10496 C 1014.26 -1.48803 1.27875 0
M  V30 10497 O 1013.39 -2.07978 0.597828 0
M  V30 10498 C 1013.98 -0.229853 3.38019 0
M  V30 10499 C 1012.54 -0.654955 3.70658 0
M  V30 10500 C 1011.69 0.202539 2.76559 0
M  V30 10501 H 1014.64 0.576997 1.47839 0
M  V30 10502 H 1014.66 -1.05481 3.65587 0
M  V30 10503 H 1014.17 0.763825 3.80509 0
M  V30 10504 H 1012.27 -1.65714 3.33721 0
M  V30 10505 H 1012.38 -0.43488 4.77122 0
M  V30 10506 H 1010.75 -0.327388 2.52587 0
M  V30 10507 H 1011.53 1.19361 3.21882 0
M  V30 10508 N 1013.98 -1.5736 0.0868897 0
M  V30 10509 C 1015.25 -1.85495 -0.620561 0
M  V30 10510 C 1015.63 -0.982218 -1.86857 0
M  V30 10511 O 1014.98 -0.0524529 -2.2844 0
M  V30 10512 C 1015.19 -3.35996 -0.943798 0
M  V30 10513 C 1016.54 -4.03861 -1.31079 0
M  V30 10514 O 1017.56 -3.4083 -1.03507 0
M  V30 10515 O 1016.42 -5.15062 -1.82683 0
M  V30 10516 H 1013.52 -0.766822 -0.309697 0
M  V30 10517 H 1016.06 -1.69282 0.118966 0
M  V30 10518 H 1014.83 -3.91257 -0.0580628 0
M  V30 10519 H 1014.46 -3.57525 -1.73958 0
M  V30 10520 N 1015.45 0.186762 -1.56489 0
M  V30 10521 C 1016.68 0.925916 -1.85584 0
M  V30 10522 C 1017.1 1.75708 -0.671446 0
M  V30 10523 O 1016.46 1.7728 0.379687 0
M  V30 10524 C 1016.51 1.79107 -3.12975 0
M  V30 10525 O 1015.61 2.89088 -2.94112 0
M  V30 10526 H 1014.96 0.260275 -0.610863 0
M  V30 10527 H 1017.49 0.189561 -2.0372 0
M  V30 10528 H 1017.5 2.19408 -3.43983 0
M  V30 10529 H 1016.17 1.18044 -3.98796 0
M  V30 10530 H 1014.75 2.52482 -2.74422 0
M  V30 10531 N 1016.93 1.50896 0.454776 0
M  V30 10532 C 1018.21 1.53227 1.21576 0
M  V30 10533 C 1018.59 0.286358 2.09149 0
M  V30 10534 O 1017.94 -0.729469 2.16543 0
M  V30 10535 C 1018.15 2.83693 2.03271 0
M  V30 10536 C 1019.5 3.34981 2.60908 0
M  V30 10537 O 1020.52 2.85126 2.13499 0
M  V30 10538 O 1019.38 4.21929 3.4733 0
M  V30 10539 H 1016.47 0.615306 0.552564 0
M  V30 10540 H 1019.02 1.63197 0.465266 0
M  V30 10541 H 1017.79 3.65839 1.38843 0
M  V30 10542 H 1017.41 2.76803 2.85422 0
M  V30 10543 N 1018.41 -0.709066 1.40748 0
M  V30 10544 C 1019.64 -1.50313 1.42901 0
M  V30 10545 C 1020.06 -1.88072 0.032213 0
M  V30 10546 O 1019.42 -1.53716 -0.96131 0
M  V30 10547 C 1019.47 -2.75074 2.33166 0
M  V30 10548 O 1018.57 -3.72036 1.7794 0
M  V30 10549 H 1017.91 -0.452934 0.485538 0
M  V30 10550 H 1020.44 -0.872712 1.85054 0
M  V30 10551 H 1020.45 -3.23532 2.48578 0
M  V30 10552 H 1019.13 -2.46927 3.34664 0
M  V30 10553 H 1017.7 -3.30911 1.71908 0
M  V30 10554 N 1019.89 -1.26353 -0.941956 0
M  V30 10555 C 1020.8 -1.09618 -2.07415 0
M  V30 10556 C 1021.82 -0.0298963 -1.73974 0
M  V30 10557 O 1022.99 -0.233466 -2.00042 0
M  V30 10558 C 1020.06 -0.73013 -3.38925 0
M  V30 10559 C 1019.12 -1.87574 -3.86153 0
M  V30 10560 C 1018.35 -1.52706 -5.11387 0
M  V30 10561 O 1018.57 -0.428438 -5.68789 0
M  V30 10562 O 1017.51 -2.36154 -5.53638 0
M  V30 10563 H 1021.33 -2.04598 -2.2444 0
M  V30 10564 H 1018.92 -1.05407 -1.05876 0
M  V30 10565 H 1020.8 -0.538684 -4.17943 0
M  V30 10566 H 1019.48 0.190282 -3.2314 0
M  V30 10567 H 1018.38 -2.12214 -3.08084 0
M  V30 10568 H 1019.72 -2.77585 -4.06457 0
M  V30 10569 N 1021.37 1.14642 -1.08144 0
M  V30 10570 C 1022.33 2.17834 -0.712799 0
M  V30 10571 C 1023.33 1.58828 0.251041 0
M  V30 10572 O 1024.52 1.74173 0.0309381 0
M  V30 10573 C 1021.65 3.4086 -0.0519477 0
M  V30 10574 H 1022.85 2.51961 -1.62653 0
M  V30 10575 H 1020.4 1.29243 -0.878971 0
M  V30 10576 H 1021.13 3.12311 0.873636 0
M  V30 10577 H 1020.92 3.84952 -0.745286 0
M  V30 10578 H 1022.41 4.17163 0.191031 0
M  V30 10579 N 1022.85 0.866709 1.31628 0
M  V30 10580 C 1024.09 0.476731 1.97117 0
M  V30 10581 C 1024.42 -0.967813 1.68366 0
M  V30 10582 O 1023.7 -1.68101 0.978377 0
M  V30 10583 C 1023.98 0.730561 3.52611 0
M  V30 10584 C 1023.84 2.2244 3.90948 0
M  V30 10585 C 1025.15 0.19488 4.39668 0
M  V30 10586 H 1022.27 0.174682 0.715999 0
M  V30 10587 H 1024.92 1.08735 1.5581 0
M  V30 10588 H 1023.07 0.210834 3.87927 0
M  V30 10589 H 1024.74 2.81113 3.6575 0
M  V30 10590 H 1022.98 2.69824 3.39673 0
M  V30 10591 H 1023.65 2.35266 4.99353 0
M  V30 10592 H 1026.13 0.639478 4.11157 0
M  V30 10593 H 1025 0.401958 5.47426 0
M  V30 10594 H 1025.26 -0.90302 4.32779 0
M  V30 10595 N 1024.32 -1.44642 0.625825 0
M  V30 10596 C 1025.55 -2.06159 0.13492 0
M  V30 10597 C 1025.96 -1.46801 -1.19357 0
M  V30 10598 O 1025.3 -0.583345 -1.74192 0
M  V30 10599 C 1025.37 -3.5945 -0.0598481 0
M  V30 10600 C 1025.03 -4.41244 1.18965 0
M  V30 10601 C 1026.03 -4.75064 2.11212 0
M  V30 10602 C 1023.71 -4.81705 1.42359 0
M  V30 10603 C 1025.71 -5.48221 3.25165 0
M  V30 10604 C 1023.39 -5.54612 2.5661 0
M  V30 10605 C 1024.39 -5.87789 3.4784 0
M  V30 10606 O 1024.08 -6.59213 4.60101 0
M  V30 10607 H 1023.81 -0.671888 0.0744464 0
M  V30 10608 H 1026.37 -1.86586 0.858775 0
M  V30 10609 H 1024.6 -3.77493 -0.838792 0
M  V30 10610 H 1026.28 -4.02751 -0.504639 0
M  V30 10611 H 1027.05 -4.44348 1.94371 0
M  V30 10612 H 1022.93 -4.55305 0.722401 0
M  V30 10613 H 1026.47 -5.74035 3.96396 0
M  V30 10614 H 1022.37 -5.84743 2.73396 0
M  V30 10615 H 1023.14 -6.77678 4.59015 0
M  V30 10616 N 1025.8 -0.366053 -1.5329 0
M  V30 10617 C 1026.71 0.488111 -2.29466 0
M  V30 10618 C 1027.73 1.09219 -1.35452 0
M  V30 10619 O 1028.9 1.10303 -1.68509 0
M  V30 10620 C 1025.97 1.61202 -3.06944 0
M  V30 10621 C 1025.03 1.03543 -4.16626 0
M  V30 10622 C 1024.26 2.10578 -4.904 0
M  V30 10623 O 1024.49 3.31697 -4.6404 0
M  V30 10624 O 1023.42 1.73609 -5.76319 0
M  V30 10625 H 1027.25 -0.131789 -3.03414 0
M  V30 10626 H 1024.83 -0.130421 -1.4883 0
M  V30 10627 H 1026.71 2.26546 -3.55324 0
M  V30 10628 H 1025.39 2.21732 -2.35832 0
M  V30 10629 H 1024.29 0.345892 -3.72498 0
M  V30 10630 H 1025.63 0.474687 -4.89906 0
M  V30 10631 N 1027.28 1.57312 -0.0952337 0
M  V30 10632 C 1028.53 1.94358 0.568442 0
M  V30 10633 C 1028.85 0.97698 1.68182 0
M  V30 10634 O 1028.11 -0.00340398 1.957 0
M  V30 10635 C 1028.41 3.37937 1.16332 0
M  V30 10636 C 1028.07 4.50565 0.173715 0
M  V30 10637 C 1026.74 4.81099 -0.0984673 0
M  V30 10638 C 1029.09 5.18777 -0.501992 0
M  V30 10639 C 1026.42 5.77172 -1.05305 0
M  V30 10640 C 1028.77 6.15874 -1.44505 0
M  V30 10641 C 1027.43 6.44813 -1.72546 0
M  V30 10642 H 1026.7 0.711206 0.208007 0
M  V30 10643 H 1029.35 1.90734 -0.171096 0
M  V30 10644 H 1027.65 3.3814 1.97911 0
M  V30 10645 H 1029.35 3.63902 1.68453 0
M  V30 10646 H 1025.94 4.26766 0.396042 0
M  V30 10647 H 1030.13 4.95363 -0.304855 0
M  V30 10648 H 1025.38 5.97909 -1.2773 0
M  V30 10649 H 1029.56 6.67824 -1.97444 0
M  V30 10650 H 1027.18 7.19067 -2.46671 0
M  V30 10651 N 1028.76 -0.17846 1.56586 0
M  V30 10652 C 1029.99 -0.911996 1.85715 0
M  V30 10653 C 1030.4 -1.76138 0.679766 0
M  V30 10654 O 1029.76 -1.79088 -0.351266 0
M  V30 10655 C 1029.81 -1.79459 3.1381 0
M  V30 10656 O 1029.53 -0.979476 4.2701 0
M  V30 10657 C 1031.03 -2.6384 3.56235 0
M  V30 10658 H 1028.25 -0.265299 0.616326 0
M  V30 10659 H 1030.79 -0.180704 2.037 0
M  V30 10660 H 1028.95 -2.4793 2.97673 0
M  V30 10661 H 1029.36 -1.58244 5.00059 0
M  V30 10662 H 1030.84 -3.21396 4.48786 0
M  V30 10663 H 1031.31 -3.38363 2.80013 0
M  V30 10664 H 1031.92 -2.00712 3.7496 0
M  V30 10665 N 1030.24 -1.51135 -0.446768 0
M  V30 10666 C 1031.17 -1.67949 -1.55967 0
M  V30 10667 C 1032.18 -0.560337 -1.52853 0
M  V30 10668 O 1033.37 -0.83435 -1.578 0
M  V30 10669 C 1030.47 -1.6703 -2.9488 0
M  V30 10670 C 1029.64 -2.95377 -3.22601 0
M  V30 10671 C 1028.7 -2.86772 -4.4119 0
M  V30 10672 O 1027.73 -3.60722 -4.40304 0
M  V30 10673 N 1028.93 -2.01979 -5.44228 0
M  V30 10674 H 1031.69 -2.63951 -1.41951 0
M  V30 10675 H 1029.26 -1.48903 -0.635569 0
M  V30 10676 H 1031.25 -1.58854 -3.7222 0
M  V30 10677 H 1029.82 -0.786623 -3.02541 0
M  V30 10678 H 1029.04 -3.17494 -2.33647 0
M  V30 10679 H 1030.33 -3.80356 -3.37945 0
M  V30 10680 H 1029.72 -1.41257 -5.4778 0
M  V30 10681 H 1028.28 -1.99689 -6.20457 0
M  V30 10682 N 1031.71 0.701592 -1.41122 0
M  V30 10683 C 1032.99 1.45569 -1.30648 0
M  V30 10684 C 1033.37 2.10988 0.068744 0
M  V30 10685 O 1032.72 2.01228 1.08257 0
M  V30 10686 C 1032.93 2.48003 -2.45551 0
M  V30 10687 C 1034.28 3.13431 -2.86437 0
M  V30 10688 O 1035.3 2.58327 -2.45247 0
M  V30 10689 O 1034.16 4.13221 -3.57646 0
M  V30 10690 H 1031.25 0.648 -0.513834 0
M  V30 10691 H 1033.8 0.73258 -1.53073 0
M  V30 10692 H 1032.57 1.98276 -3.37346 0
M  V30 10693 H 1032.19 3.27832 -2.24971 0
M  V30 10694 N 1033.19 1.2685 0.935242 0
M  V30 10695 C 1034.15 1.08975 2.01636 0
M  V30 10696 C 1035.15 0.0361543 1.60759 0
M  V30 10697 O 1036.34 0.280087 1.71934 0
M  V30 10698 C 1033.48 0.658831 3.34473 0
M  V30 10699 H 1034.67 2.04968 2.18925 0
M  V30 10700 H 1032.22 1.09531 1.11501 0
M  V30 10701 H 1032.96 -0.302824 3.22883 0
M  V30 10702 H 1032.74 1.41967 3.65497 0
M  V30 10703 H 1034.23 0.555783 4.13885 0
M  V30 10704 N 1034.67 -1.14067 1.0875 0
M  V30 10705 C 1035.6 -2.18926 0.67852 0
M  V30 10706 C 1036.62 -1.60441 -0.276163 0
M  V30 10707 O 1037.8 -1.78388 -0.0632788 0
M  V30 10708 C 1034.9 -3.38893 -0.0218852 0
M  V30 10709 C 1034.08 -4.26901 0.952582 0
M  V30 10710 C 1033.14 -5.25418 0.286859 0
M  V30 10711 O 1032.16 -5.61512 0.932354 0
M  V30 10712 N 1033.36 -5.72476 -0.961831 0
M  V30 10713 H 1036.13 -2.54629 1.58063 0
M  V30 10714 H 1033.69 -1.29321 0.974042 0
M  V30 10715 H 1035.68 -4.01864 -0.478278 0
M  V30 10716 H 1034.25 -3.01486 -0.826141 0
M  V30 10717 H 1033.47 -3.60812 1.58772 0
M  V30 10718 H 1034.76 -4.82563 1.61279 0
M  V30 10719 H 1034.16 -5.45287 -1.50594 0
M  V30 10720 H 1032.72 -6.37418 -1.36166 0
M  V30 10721 N 1036.15 -0.873678 -1.31166 0
M  V30 10722 C 1037.1 -0.303699 -2.25968 0
M  V30 10723 C 1038.08 0.561387 -1.50789 0
M  V30 10724 O 1039.27 0.407658 -1.72242 0
M  V30 10725 C 1036.4 0.490612 -3.39776 0
M  V30 10726 C 1035.49 -0.387927 -4.22322 0
M  V30 10727 N 1035.88 -1.48313 -4.83567 0
M  V30 10728 C 1034.18 -0.18102 -4.45632 0
M  V30 10729 C 1034.88 -2.0252 -5.45308 0
M  V30 10730 N 1033.86 -1.32169 -5.27288 0
M  V30 10731 H 1037.66 -1.14071 -2.7086 0
M  V30 10732 H 1035.17 -0.721843 -1.45476 0
M  V30 10733 H 1037.17 0.9155 -4.06724 0
M  V30 10734 H 1035.83 1.32519 -2.96427 0
M  V30 10735 H 1036.84 -1.86604 -4.83114 0
M  V30 10736 H 1033.52 0.617304 -4.12911 0
M  V30 10737 H 1034.91 -2.94429 -6.03955 0
M  V30 10738 N 1037.63 1.44308 -0.633487 0
M  V30 10739 C 1038.85 2.06897 -0.144347 0
M  V30 10740 C 1039.28 1.47045 1.173 0
M  V30 10741 O 1038.63 0.572806 1.72013 0
M  V30 10742 C 1038.68 3.60571 -0.0456324 0
M  V30 10743 O 1037.79 4.0015 0.997682 0
M  V30 10744 H 1037.13 0.658427 -0.0858499 0
M  V30 10745 H 1039.66 1.85142 -0.870833 0
M  V30 10746 H 1039.67 4.07745 0.144178 0
M  V30 10747 H 1038.34 4.03515 -1.0074 0
M  V30 10748 H 1036.92 3.64603 0.782252 0
M  V30 10749 N 1039.1 0.374177 1.53094 0
M  V30 10750 C 1040.38 -0.269632 1.93733 0
M  V30 10751 C 1040.76 -1.6566 1.30843 0
M  V30 10752 O 1040.11 -2.23598 0.470759 0
M  V30 10753 C 1040.32 -0.311204 3.4761 0
M  V30 10754 C 1041.67 -0.547432 4.21056 0
M  V30 10755 O 1042.69 -0.392053 3.54036 0
M  V30 10756 O 1041.55 -0.850645 5.39839 0
M  V30 10757 H 1038.64 -0.163723 0.810632 0
M  V30 10758 H 1041.19 0.427586 1.64225 0
M  V30 10759 H 1039.96 0.660897 3.85678 0
M  V30 10760 H 1039.59 -1.05397 3.83376 0
M  V30 10761 N 1040.58 -1.57259 0.103575 0
M  V30 10762 C 1041.51 -2.17509 -0.84923 0
M  V30 10763 C 1042.49 -1.11079 -1.28824 0
M  V30 10764 O 1043.68 -1.39252 -1.35361 0
M  V30 10765 C 1040.81 -2.76221 -2.10522 0
M  V30 10766 C 1039.76 -3.88098 -1.80454 0
M  V30 10767 C 1039.09 -4.33549 -3.12952 0
M  V30 10768 C 1040.39 -5.10909 -1.08486 0
M  V30 10769 H 1042.08 -2.9738 -0.347217 0
M  V30 10770 H 1039.63 -1.43045 -0.165568 0
M  V30 10771 H 1041.58 -3.17024 -2.77621 0
M  V30 10772 H 1040.31 -1.93617 -2.63021 0
M  V30 10773 H 1038.96 -3.47847 -1.15749 0
M  V30 10774 H 1038.61 -3.47825 -3.63355 0
M  V30 10775 H 1038.31 -5.08984 -2.93614 0
M  V30 10776 H 1039.84 -4.76992 -3.81196 0
M  V30 10777 H 1041.25 -5.48828 -1.65711 0
M  V30 10778 H 1039.65 -5.91828 -0.992973 0
M  V30 10779 H 1040.72 -4.84851 -0.0690108 0
M  V30 10780 N 1042.06 0.170153 -1.56679 0
M  V30 10781 C 1043.48 0.521966 -1.50823 0
M  V30 10782 C 1043.68 1.84589 -0.808037 0
M  V30 10783 O 1042.73 2.49791 -0.368891 0
M  V30 10784 C 1044.05 0.553648 -2.95559 0
M  V30 10785 C 1045.59 0.640769 -3.06371 0
M  V30 10786 C 1046.07 0.703332 -4.52567 0
M  V30 10787 N 1047.56 0.76619 -4.56819 0
M  V30 10788 C 1048.29 0.835192 -5.67285 0
M  V30 10789 N 1047.79 0.864957 -6.87379 0
M  V30 10790 N 1049.58 0.874302 -5.55259 0
M  V30 10791 H 1041.73 -0.697952 -2.00605 0
M  V30 10792 H 1044 -0.251787 -0.913952 0
M  V30 10793 H 1043.7 -0.350498 -3.49949 0
M  V30 10794 H 1043.58 1.39973 -3.50268 0
M  V30 10795 H 1045.96 1.53534 -2.52015 0
M  V30 10796 H 1046.05 -0.232008 -2.54746 0
M  V30 10797 H 1045.69 -0.186986 -5.07556 0
M  V30 10798 H 1045.62 1.59227 -5.0195 0
M  V30 10799 H 1048.11 0.751424 -3.70354 0
M  V30 10800 H 1048.42 0.918814 -7.67318 0
M  V30 10801 H 1046.77 0.833215 -6.89987 0
M  V30 10802 H 1049.96 0.848057 -4.60354 0
M  V30 10803 H 1050.13 0.924615 -6.4137 0
M  V30 10804 N 1043.54 1.5137 0.438746 0
M  V30 10805 C 1044.82 1.54508 1.19944 0
M  V30 10806 C 1045.2 0.308525 2.08833 0
M  V30 10807 O 1044.54 -0.706461 2.17305 0
M  V30 10808 C 1044.75 2.85833 2.00251 0
M  V30 10809 C 1046.1 3.37729 2.5734 0
M  V30 10810 O 1047.13 2.87374 2.10463 0
M  V30 10811 O 1045.98 4.25589 3.42836 0
M  V30 10812 H 1043.08 0.621132 0.546007 0
M  V30 10813 H 1045.62 1.63682 0.447931 0
M  V30 10814 H 1044.4 3.67291 1.34955 0
M  V30 10815 H 1044.02 2.79815 2.8247 0
M  V30 10816 N 1045.02 -0.694098 1.41492 0
M  V30 10817 C 1046.43 -1.27407 1.36471 0
M  V30 10818 C 1046.78 -1.9614 0.0485209 0
M  V30 10819 O 1045.9 -1.98871 -0.853188 0
M  V30 10820 C 1046.5 -2.31698 2.47188 0
M  V30 10821 C 1045.06 -2.85268 2.45559 0
M  V30 10822 C 1044.2 -1.59325 2.2696 0
M  V30 10823 H 1047.16 -0.488756 1.50986 0
M  V30 10824 H 1047.18 -3.1302 2.1633 0
M  V30 10825 H 1046.69 -1.81644 3.42968 0
M  V30 10826 H 1044.79 -3.39494 1.5354 0
M  V30 10827 H 1044.9 -3.35598 3.41922 0
M  V30 10828 H 1043.27 -1.85188 1.74864 0
M  V30 10829 H 1044.05 -1.11265 3.24769 0
M  V30 10830 N 1046.49 -1.27344 -0.928501 0
M  V30 10831 C 1047.44 -1.06656 -2.01515 0
M  V30 10832 C 1048.43 0.00516619 -1.60899 0
M  V30 10833 O 1049.62 -0.213277 -1.7571 0
M  V30 10834 C 1046.75 -0.714935 -3.35773 0
M  V30 10835 C 1045.84 -1.82476 -3.82836 0
M  V30 10836 N 1046.23 -3.06421 -4.02417 0
M  V30 10837 C 1044.52 -1.71126 -4.11864 0
M  V30 10838 C 1045.23 -3.78637 -4.41598 0
M  V30 10839 N 1044.2 -3.06396 -4.49024 0
M  V30 10840 H 1048 -2.00718 -2.14685 0
M  V30 10841 H 1045.52 -1.18048 -1.11528 0
M  V30 10842 H 1047.51 -0.54784 -4.13285 0
M  V30 10843 H 1046.17 0.218069 -3.23967 0
M  V30 10844 H 1047.19 -3.42191 -3.88749 0
M  V30 10845 H 1043.86 -0.849031 -4.08776 0
M  V30 10846 H 1045.25 -4.85159 -4.64834 0
M  V30 10847 N 1047.97 1.13488 -1.09353 0
M  V30 10848 C 1049.2 1.89133 -0.85108 0
M  V30 10849 C 1049.62 1.78542 0.591976 0
M  V30 10850 O 1048.98 1.13243 1.41583 0
M  V30 10851 C 1049.03 3.36736 -1.29001 0
M  V30 10852 O 1048.13 4.09959 -0.447993 0
M  V30 10853 H 1047.47 0.58809 -0.308296 0
M  V30 10854 H 1050 1.43593 -1.45747 0
M  V30 10855 H 1050.01 3.87564 -1.27508 0
M  V30 10856 H 1048.69 3.43762 -2.34095 0
M  V30 10857 H 1047.27 3.69155 -0.52717 0
M  V30 10858 N 1049.45 0.880621 1.30701 0
M  V30 10859 C 1050.87 0.574015 1.4892 0
M  V30 10860 C 1051.07 -0.889312 1.80813 0
M  V30 10861 O 1050.12 -1.67082 1.89314 0
M  V30 10862 C 1051.44 1.48341 2.61563 0
M  V30 10863 C 1052.98 1.48658 2.75445 0
M  V30 10864 C 1053.46 2.3818 3.91196 0
M  V30 10865 N 1054.95 2.36119 3.985 0
M  V30 10866 C 1055.69 3.02101 4.87363 0
M  V30 10867 N 1055.18 3.77293 5.81052 0
M  V30 10868 N 1056.97 2.91356 4.80696 0
M  V30 10869 H 1049.13 1.82732 1.08271 0
M  V30 10870 H 1051.39 0.781939 0.535981 0
M  V30 10871 H 1051.09 2.52515 2.44804 0
M  V30 10872 H 1050.97 1.18977 3.57944 0
M  V30 10873 H 1053.36 0.452374 2.91612 0
M  V30 10874 H 1053.44 1.8205 1.79698 0
M  V30 10875 H 1053.08 3.41683 3.75786 0
M  V30 10876 H 1053.01 2.02106 4.86272 0
M  V30 10877 H 1055.5 1.81474 3.31475 0
M  V30 10878 H 1055.81 4.24742 6.45612 0
M  V30 10879 H 1054.16 3.81401 5.80998 0
M  V30 10880 H 1057.35 2.32143 4.06481 0
M  V30 10881 H 1057.52 3.43056 5.49742 0
M  V30 10882 N 1050.93 -1.4397 0.641131 0
M  V30 10883 C 1052.35 -1.56607 0.30762 0
M  V30 10884 C 1052.55 -1.62694 -1.18882 0
M  V30 10885 O 1051.6 -1.57541 -1.97325 0
M  V30 10886 C 1052.91 -2.83289 1.00834 0
M  V30 10887 C 1054.46 -2.97016 0.98744 0
M  V30 10888 C 1054.94 -4.26514 1.66882 0
M  V30 10889 N 1056.43 -4.33351 1.63589 0
M  V30 10890 C 1057.16 -5.32292 2.13196 0
M  V30 10891 N 1056.66 -6.37582 2.71038 0
M  V30 10892 N 1058.45 -5.23866 2.03766 0
M  V30 10893 H 1050.6 -1.38262 1.61237 0
M  V30 10894 H 1052.87 -0.663221 0.677378 0
M  V30 10895 H 1052.57 -2.84812 2.06337 0
M  V30 10896 H 1052.45 -3.73134 0.552333 0
M  V30 10897 H 1054.83 -2.95041 -0.0591395 0
M  V30 10898 H 1054.91 -2.08493 1.48203 0
M  V30 10899 H 1054.56 -4.2925 2.71491 0
M  V30 10900 H 1054.49 -5.13912 1.14898 0
M  V30 10901 H 1056.98 -3.5788 1.21368 0
M  V30 10902 H 1057.29 -7.09378 3.06597 0
M  V30 10903 H 1055.64 -6.38239 2.75093 0
M  V30 10904 H 1058.83 -4.40524 1.58291 0
M  V30 10905 H 1059 -6.00819 2.42737 0
M  V30 10906 N 1052.41 -0.382291 -1.52893 0
M  V30 10907 C 1053.34 0.491199 -2.23875 0
M  V30 10908 C 1054.35 1.03249 -1.25871 0
M  V30 10909 O 1055.54 0.936016 -1.5199 0
M  V30 10910 C 1052.64 1.6927 -2.936 0
M  V30 10911 C 1051.81 1.28 -4.18252 0
M  V30 10912 C 1050.87 2.34541 -4.71038 0
M  V30 10913 O 1049.9 1.96239 -5.34302 0
M  V30 10914 N 1051.1 3.6636 -4.50289 0
M  V30 10915 H 1053.87 -0.116897 -2.99472 0
M  V30 10916 H 1051.43 -0.208296 -1.60554 0
M  V30 10917 H 1053.42 2.40054 -3.25816 0
M  V30 10918 H 1051.99 2.20729 -2.21354 0
M  V30 10919 H 1051.21 0.40133 -3.92152 0
M  V30 10920 H 1052.5 0.98082 -4.99257 0
M  V30 10921 H 1051.9 4.00245 -3.99775 0
M  V30 10922 H 1050.45 4.332 -4.87013 0
M  V30 10923 N 1053.89 1.57202 -0.111913 0
M  V30 10924 C 1055.3 1.57713 0.244702 0
M  V30 10925 C 1055.5 1.12419 1.67225 0
M  V30 10926 O 1054.56 0.808329 2.39212 0
M  V30 10927 C 1055.87 3.00695 0.0178289 0
M  V30 10928 C 1057.42 3.12887 0.0842781 0
M  V30 10929 C 1057.89 4.57856 -0.114812 0
M  V30 10930 N 1059.38 4.6316 -0.0605423 0
M  V30 10931 C 1060.12 5.73086 -0.189594 0
M  V30 10932 N 1059.62 6.91787 -0.37442 0
M  V30 10933 N 1061.41 5.6195 -0.12967 0
M  V30 10934 H 1053.56 1.84947 -1.04443 0
M  V30 10935 H 1055.82 0.854418 -0.4107 0
M  V30 10936 H 1055.53 3.38093 -0.968802 0
M  V30 10937 H 1055.4 3.69611 0.752815 0
M  V30 10938 H 1057.79 2.7535 1.06143 0
M  V30 10939 H 1057.87 2.46528 -0.682474 0
M  V30 10940 H 1057.51 4.9609 -1.0889 0
M  V30 10941 H 1057.44 5.22297 0.671839 0
M  V30 10942 H 1059.94 3.77817 0.0790856 0
M  V30 10943 H 1060.25 7.71406 -0.463948 0
M  V30 10944 H 1058.59 6.93788 -0.410303 0
M  V30 10945 H 1061.78 4.68098 0.0137115 0
M  V30 10946 H 1061.96 6.47578 -0.233688 0
M  V30 10947 N 1055.36 -0.161842 1.56767 0
M  V30 10948 C 1056.59 -0.896274 1.87034 0
M  V30 10949 C 1057.01 -1.74617 0.699314 0
M  V30 10950 O 1056.37 -1.77861 -0.351435 0
M  V30 10951 C 1056.42 -1.74105 3.15784 0
M  V30 10952 O 1055.52 -2.84372 2.98674 0
M  V30 10953 H 1054.86 -0.250523 0.614926 0
M  V30 10954 H 1057.39 -0.157127 2.03996 0
M  V30 10955 H 1057.4 -2.13907 3.4743 0
M  V30 10956 H 1056.08 -1.11684 4.00624 0
M  V30 10957 H 1054.66 -2.48084 2.78404 0
M  V30 10958 N 1056.84 -1.516 -0.430713 0
M  V30 10959 C 1057.77 -1.76342 -1.53054 0
M  V30 10960 C 1058.75 -0.61349 -1.58652 0
M  V30 10961 O 1059.94 -0.856888 -1.74273 0
M  V30 10962 C 1057.07 -1.8945 -2.91077 0
M  V30 10963 C 1056.02 -3.04928 -3.00339 0
M  V30 10964 C 1055.35 -3.03228 -4.40405 0
M  V30 10965 C 1056.65 -4.44777 -2.73808 0
M  V30 10966 H 1058.34 -2.68435 -1.326 0
M  V30 10967 H 1055.89 -1.29171 -0.636466 0
M  V30 10968 H 1057.84 -2.05343 -3.67984 0
M  V30 10969 H 1056.56 -0.940114 -3.12777 0
M  V30 10970 H 1055.22 -2.88751 -2.25872 0
M  V30 10971 H 1054.87 -2.05553 -4.59083 0
M  V30 10972 H 1054.57 -3.80776 -4.47531 0
M  V30 10973 H 1056.1 -3.21222 -5.19277 0
M  V30 10974 H 1057.51 -4.6127 -3.40445 0
M  V30 10975 H 1055.91 -5.2408 -2.92335 0
M  V30 10976 H 1056.98 -4.54358 -1.69372 0
M  V30 10977 N 1058.32 0.686584 -1.41858 0
M  V30 10978 C 1059.57 1.44379 -1.41418 0
M  V30 10979 C 1059.89 1.94981 -0.0273696 0
M  V30 10980 O 1059.16 1.72296 0.932248 0
M  V30 10981 H 1057.74 0.53574 -0.520568 0
M  V30 10982 H 1060.4 0.812056 -1.77177 0
M  V30 10983 H 1059.5 2.30258 -2.10684 0
M  V30 10984 N 1059.8 1.27835 0.921735 0
M  V30 10985 C 1061.21 1.13151 1.48505 0
M  V30 10986 C 1061.56 -0.281373 1.94172 0
M  V30 10987 O 1060.68 -1.17487 1.8173 0
M  V30 10988 C 1061.28 2.04792 2.69899 0
M  V30 10989 C 1059.84 1.94196 3.22436 0
M  V30 10990 C 1058.99 1.96999 1.95158 0
M  V30 10991 H 1061.94 1.40641 0.735241 0
M  V30 10992 H 1061.96 1.60724 3.44889 0
M  V30 10993 H 1061.47 3.07615 2.36631 0
M  V30 10994 H 1059.57 0.943805 3.60448 0
M  V30 10995 H 1059.68 2.80744 3.88226 0
M  V30 10996 H 1058.05 1.41301 2.11911 0
M  V30 10997 H 1058.83 3.01487 1.64196 0
M  V30 10998 N 1061.28 -1.12907 1.09954 0
M  V30 10999 C 1062.55 -1.80602 0.751148 0
M  V30 11000 C 1062.93 -1.96826 -0.763077 0
M  V30 11001 O 1062.28 -1.54066 -1.68749 0
M  V30 11002 C 1062.49 -3.15289 1.49646 0
M  V30 11003 C 1063.84 -3.9056 1.66578 0
M  V30 11004 O 1064.86 -3.24929 1.45943 0
M  V30 11005 O 1063.72 -5.08292 2.00752 0
M  V30 11006 H 1060.82 -0.781529 0.270446 0
M  V30 11007 H 1063.36 -1.19786 1.20206 0
M  V30 11008 H 1062.13 -2.9874 2.52725 0
M  V30 11009 H 1061.76 -3.83809 1.03808 0
M  V30 11010 N 1062.75 -0.88754 -1.30232 0
M  V30 11011 C 1063.72 -0.361095 -2.26338 0
M  V30 11012 C 1064.72 0.497871 -1.52898 0
M  V30 11013 O 1065.91 0.30466 -1.71515 0
M  V30 11014 C 1063.04 0.485135 -3.3743 0
M  V30 11015 H 1064.23 -1.20973 -2.74419 0
M  V30 11016 H 1061.78 -0.664619 -1.41466 0
M  V30 11017 H 1062.52 1.35425 -2.9467 0
M  V30 11018 H 1062.3 -0.130173 -3.91884 0
M  V30 11019 H 1063.79 0.845169 -4.08958 0
M  V30 11020 N 1064.23 1.43628 -0.648757 0
M  V30 11021 C 1065.14 2.34554 0.0463037 0
M  V30 11022 C 1066.16 1.53629 0.816952 0
M  V30 11023 O 1067.33 1.86297 0.765212 0
M  V30 11024 C 1064.4 3.3185 1.00381 0
M  V30 11025 C 1063.46 4.2868 0.230589 0
M  V30 11026 C 1062.69 5.21328 1.14249 0
M  V30 11027 O 1062.92 5.18298 2.38166 0
M  V30 11028 O 1061.85 5.98726 0.617296 0
M  V30 11029 H 1065.68 2.95475 -0.702008 0
M  V30 11030 H 1063.26 1.43694 -0.408942 0
M  V30 11031 H 1065.14 3.91692 1.5542 0
M  V30 11032 H 1063.82 2.73439 1.73243 0
M  V30 11033 H 1062.73 3.72332 -0.363282 0
M  V30 11034 H 1064.06 4.90061 -0.458368 0
M  V30 11035 N 1065.71 0.390394 1.52688 0
M  V30 11036 C 1067.12 -0.083394 1.86514 0
M  V30 11037 C 1067.47 -1.46057 1.31003 0
M  V30 11038 O 1066.6 -2.06663 0.641809 0
M  V30 11039 C 1067.19 -0.158102 3.38431 0
M  V30 11040 C 1065.75 -0.576186 3.71964 0
M  V30 11041 C 1064.9 0.261156 2.76068 0
M  V30 11042 H 1067.85 0.608226 1.46582 0
M  V30 11043 H 1067.87 -0.977023 3.67742 0
M  V30 11044 H 1067.38 0.844365 3.78803 0
M  V30 11045 H 1065.48 -1.58598 3.37161 0
M  V30 11046 H 1065.6 -0.333577 4.77937 0
M  V30 11047 H 1063.96 -0.273737 2.53225 0
M  V30 11048 H 1064.74 1.26162 3.19277 0
M  V30 11049 N 1067.19 -1.57141 0.120249 0
M  V30 11050 C 1068.41 -2.00017 -0.548454 0
M  V30 11051 C 1068.84 -0.999433 -1.59352 0
M  V30 11052 O 1068.2 0.0286978 -1.81277 0
M  V30 11053 C 1068.24 -3.41766 -1.15015 0
M  V30 11054 O 1067.35 -3.44589 -2.26566 0
M  V30 11055 H 1066.69 -0.649739 -0.136875 0
M  V30 11056 H 1069.22 -2.03529 0.209092 0
M  V30 11057 H 1069.23 -3.80001 -1.48537 0
M  V30 11058 H 1067.9 -4.14117 -0.384681 0
M  V30 11059 H 1066.48 -3.18174 -1.94473 0
M  V30 11060 N 1068.67 0.153526 -1.5685 0
M  V30 11061 C 1069.89 0.886343 -1.87507 0
M  V30 11062 C 1070.32 1.74244 -0.708565 0
M  V30 11063 O 1069.67 1.78045 0.341997 0
M  V30 11064 C 1069.72 1.72428 -3.16703 0
M  V30 11065 O 1068.83 2.82784 -3.00178 0
M  V30 11066 H 1068.17 0.247259 -0.616246 0
M  V30 11067 H 1070.7 0.146306 -2.04076 0
M  V30 11068 H 1070.71 2.12062 -3.4856 0
M  V30 11069 H 1069.38 1.09558 -4.01211 0
M  V30 11070 H 1067.96 2.46604 -2.79716 0
M  V30 11071 N 1070.14 1.51827 0.422667 0
M  V30 11072 C 1071.39 1.65464 1.17258 0
M  V30 11073 C 1071.72 0.376834 1.90509 0
M  V30 11074 O 1071 -0.624219 1.84211 0
M  V30 11075 C 1071.28 2.86776 2.17788 0
M  V30 11076 C 1071.13 4.24571 1.48523 0
M  V30 11077 C 1072.45 3.03603 3.18611 0
M  V30 11078 H 1069.57 0.602169 0.424925 0
M  V30 11079 H 1072.21 1.84349 0.45996 0
M  V30 11080 H 1070.36 2.70806 2.78561 0
M  V30 11081 H 1072.04 4.5224 0.909739 0
M  V30 11082 H 1070.28 4.26595 0.787354 0
M  V30 11083 H 1070.95 5.05475 2.2181 0
M  V30 11084 H 1073.43 3.18381 2.67904 0
M  V30 11085 H 1072.3 3.90022 3.8623 0
M  V30 11086 H 1072.56 2.16318 3.85563 0
M  V30 11087 N 1071.62 -0.679052 1.4222 0
M  V30 11088 C 1072.55 -1.80481 1.48152 0
M  V30 11089 C 1073.53 -1.66698 0.338502 0
M  V30 11090 O 1074.72 -1.86183 0.552228 0
M  V30 11091 C 1071.85 -3.18746 1.37908 0
M  V30 11092 C 1070.8 -3.47258 2.50192 0
M  V30 11093 C 1070.13 -4.85052 2.25008 0
M  V30 11094 C 1071.43 -3.44576 3.92511 0
M  V30 11095 H 1073.12 -1.75774 2.42371 0
M  V30 11096 H 1070.67 -0.844241 1.16656 0
M  V30 11097 H 1072.62 -3.97229 1.40666 0
M  V30 11098 H 1071.35 -3.24119 0.401806 0
M  V30 11099 H 1070 -2.71133 2.46744 0
M  V30 11100 H 1069.65 -4.8707 1.25584 0
M  V30 11101 H 1069.35 -5.05092 3.00259 0
M  V30 11102 H 1070.88 -5.65825 2.29508 0
M  V30 11103 H 1072.29 -4.13036 3.97585 0
M  V30 11104 H 1070.69 -3.76151 4.67579 0
M  V30 11105 H 1071.76 -2.4323 4.19484 0
M  V30 11106 N 1073.1 -1.28322 -0.914942 0
M  V30 11107 C 1074.06 -1.12169 -1.99877 0
M  V30 11108 C 1075.06 -0.0617252 -1.60681 0
M  V30 11109 O 1076.25 -0.307405 -1.71466 0
M  V30 11110 C 1073.39 -0.711959 -3.33383 0
M  V30 11111 H 1074.58 -2.08425 -2.15636 0
M  V30 11112 H 1072.13 -1.11291 -1.09745 0
M  V30 11113 H 1072.87 0.251418 -3.23324 0
M  V30 11114 H 1072.65 -1.47764 -3.63192 0
M  V30 11115 H 1074.14 -0.621558 -4.12948 0
M  V30 11116 N 1074.58 1.12322 -1.10551 0
M  V30 11117 C 1075.83 1.83858 -0.848674 0
M  V30 11118 C 1076.15 1.84159 0.62575 0
M  V30 11119 O 1075.41 1.28341 1.4774 0
M  V30 11120 C 1075.71 3.31177 -1.34375 0
M  V30 11121 C 1075.37 3.51046 -2.8298 0
M  V30 11122 C 1074.04 3.56177 -3.23561 0
M  V30 11123 C 1076.39 3.58061 -3.78737 0
M  V30 11124 C 1073.72 3.65868 -4.58647 0
M  V30 11125 C 1076.07 3.69283 -5.13627 0
M  V30 11126 C 1074.73 3.7267 -5.53781 0
M  V30 11127 H 1074 0.672784 -0.310552 0
M  V30 11128 H 1076.65 1.3253 -1.38232 0
M  V30 11129 H 1074.95 3.84937 -0.730144 0
M  V30 11130 H 1076.65 3.84998 -1.12148 0
M  V30 11131 H 1073.24 3.47716 -2.50582 0
M  V30 11132 H 1077.42 3.53366 -3.48491 0
M  V30 11133 H 1072.68 3.66763 -4.89178 0
M  V30 11134 H 1076.85 3.73654 -5.8767 0
M  V30 11135 H 1074.48 3.79932 -6.58449 0
M  V30 11136 N 1076.06 0.894434 1.2976 0
M  V30 11137 C 1077.3 0.527831 1.96432 0
M  V30 11138 C 1077.66 -0.914793 1.69261 0
M  V30 11139 O 1076.95 -1.63911 0.99215 0
M  V30 11140 C 1077.14 0.750307 3.49435 0
M  V30 11141 C 1076.97 2.213 3.91479 0
M  V30 11142 C 1075.74 2.85943 4.16611 0
M  V30 11143 C 1077.94 3.18771 4.03595 0
M  V30 11144 N 1075.92 4.2271 4.45185 0
M  V30 11145 C 1077.29 4.40641 4.3616 0
M  V30 11146 C 1079.35 3.14432 3.86053 0
M  V30 11147 C 1078.05 5.58725 4.53011 0
M  V30 11148 C 1080.08 4.31797 4.0411 0
M  V30 11149 C 1079.44 5.52435 4.37029 0
M  V30 11150 H 1075.54 0.242654 0.7434 0
M  V30 11151 H 1078.12 1.15415 1.56804 0
M  V30 11152 H 1076.29 0.153411 3.88097 0
M  V30 11153 H 1078.03 0.349663 4.03187 0
M  V30 11154 H 1074.78 2.36763 4.10171 0
M  V30 11155 H 1075.21 4.9337 4.63589 0
M  V30 11156 H 1079.85 2.22255 3.5967 0
M  V30 11157 H 1077.57 6.51398 4.78232 0
M  V30 11158 H 1081.15 4.2992 3.91995 0
M  V30 11159 H 1080.03 6.41738 4.50712 0
M  V30 11160 N 1077.53 -1.43282 0.656365 0
M  V30 11161 C 1078.95 -1.56272 0.324213 0
M  V30 11162 C 1079.15 -1.63946 -1.1715 0
M  V30 11163 O 1078.21 -1.59625 -1.95643 0
M  V30 11164 C 1079.52 -2.82204 1.03833 0
M  V30 11165 C 1081.07 -2.95952 1.01889 0
M  V30 11166 C 1081.54 -4.2472 1.71397 0
M  V30 11167 N 1083.03 -4.31591 1.68176 0
M  V30 11168 C 1083.77 -5.30001 2.1883 0
M  V30 11169 N 1083.26 -6.34671 2.77785 0
M  V30 11170 N 1085.06 -5.21676 2.09311 0
M  V30 11171 H 1077.21 -1.36544 1.62694 0
M  V30 11172 H 1079.47 -0.655999 0.684375 0
M  V30 11173 H 1079.18 -2.82608 2.09346 0
M  V30 11174 H 1079.05 -3.72527 0.591878 0
M  V30 11175 H 1081.44 -2.95087 -0.0278431 0
M  V30 11176 H 1081.52 -2.0691 1.50406 0
M  V30 11177 H 1081.16 -4.26346 2.76028 0
M  V30 11178 H 1081.09 -5.12665 1.20342 0
M  V30 11179 H 1083.58 -3.56573 1.25157 0
M  V30 11180 H 1083.9 -7.06087 3.14104 0
M  V30 11181 H 1082.24 -6.35285 2.81847 0
M  V30 11182 H 1085.43 -4.3882 1.62955 0
M  V30 11183 H 1085.61 -5.9821 2.49095 0
M  V30 11184 N 1079.01 -0.398486 -1.52479 0
M  V30 11185 C 1079.94 0.423498 -2.29627 0
M  V30 11186 C 1080.92 1.05547 -1.33394 0
M  V30 11187 O 1082.11 1.0665 -1.62294 0
M  V30 11188 C 1079.24 1.54612 -3.10986 0
M  V30 11189 C 1078.19 1.03971 -4.15179 0
M  V30 11190 C 1077.52 2.25512 -4.84818 0
M  V30 11191 C 1078.82 0.10121 -5.22202 0
M  V30 11192 H 1080.51 -0.220222 -2.98589 0
M  V30 11193 H 1078.06 -0.107355 -1.43599 0
M  V30 11194 H 1080.01 2.12806 -3.63719 0
M  V30 11195 H 1078.74 2.21756 -2.39774 0
M  V30 11196 H 1077.4 0.480251 -3.63441 0
M  V30 11197 H 1077.04 2.91187 -4.10145 0
M  V30 11198 H 1076.74 1.92285 -5.55248 0
M  V30 11199 H 1078.27 2.84331 -5.40359 0
M  V30 11200 H 1079.68 0.591617 -5.70239 0
M  V30 11201 H 1078.08 -0.141737 -5.99933 0
M  V30 11202 H 1079.15 -0.847216 -4.77441 0
M  V30 11203 N 1080.49 1.57075 -0.12858 0
M  V30 11204 C 1081.74 1.94695 0.526952 0
M  V30 11205 C 1082.05 1.01482 1.67215 0
M  V30 11206 O 1083.26 1.28606 2.39108 0
M  V30 11207 C 1081.72 3.4605 0.988801 0
M  V30 11208 C 1081.32 4.47816 -0.128457 0
M  V30 11209 C 1083.07 3.92572 1.61517 0
M  V30 11210 C 1080.97 5.9036 0.350628 0
M  V30 11211 H 1079.9 0.726819 0.200623 0
M  V30 11212 H 1082.56 1.82295 -0.209972 0
M  V30 11213 H 1080.94 3.53718 1.78043 0
M  V30 11214 H 1082.11 4.51826 -0.904976 0
M  V30 11215 H 1080.43 4.11103 -0.662075 0
M  V30 11216 H 1083.02 4.96493 1.98491 0
M  V30 11217 H 1083.37 3.33085 2.49721 0
M  V30 11218 H 1083.9 3.87744 0.888768 0
M  V30 11219 H 1080.64 6.53624 -0.495592 0
M  V30 11220 H 1080.16 5.89749 1.09342 0
M  V30 11221 H 1081.84 6.41926 0.808717 0
M  V30 11222 N 1081.97 -0.145205 1.5693 0
M  V30 11223 C 1083.21 -0.863709 1.85255 0
M  V30 11224 C 1083.57 -1.78266 0.713112 0
M  V30 11225 O 1084.77 -2.54075 0.877459 0
M  V30 11226 C 1083.05 -1.61628 3.18765 0
M  V30 11227 S 1084.6 -2.37996 3.68651 0
M  V30 11228 H 1081.42 -0.288792 0.649708 0
M  V30 11229 H 1084.02 -0.123603 1.95109 0
M  V30 11230 H 1082.73 -0.932688 3.99661 0
M  V30 11231 H 1082.26 -2.39726 3.11921 0
M  V30 11232 H 1084.27 -3.63223 3.38058 0
M  V30 11233 N 1083.45 -1.52049 -0.414609 0
M  V30 11234 C 1084.72 -1.56397 -1.17471 0
M  V30 11235 C 1085.1 -0.34171 -2.08316 0
M  V30 11236 O 1084.45 0.6718 -2.18401 0
M  V30 11237 C 1084.66 -2.88983 -1.95678 0
M  V30 11238 C 1086.01 -3.41781 -2.51935 0
M  V30 11239 O 1087.03 -2.90686 -2.05865 0
M  V30 11240 O 1085.89 -4.30989 -3.36022 0
M  V30 11241 H 1082.99 -0.62974 -0.536056 0
M  V30 11242 H 1085.53 -1.64374 -0.421834 0
M  V30 11243 H 1084.31 -3.69392 -1.29094 0
M  V30 11244 H 1083.93 -2.84274 -2.77983 0
M  V30 11245 N 1084.93 0.6715 -1.42579 0
M  V30 11246 C 1086.15 1.45972 -1.46628 0
M  V30 11247 C 1086.57 1.88636 -0.0785986 0
M  V30 11248 O 1085.93 1.58345 0.907372 0
M  V30 11249 C 1085.98 2.70668 -2.39627 0
M  V30 11250 O 1085.7 2.29793 -3.72997 0
M  V30 11251 C 1087.2 3.64201 -2.52731 0
M  V30 11252 H 1084.42 0.449044 -0.498598 0
M  V30 11253 H 1086.96 0.824811 -1.87129 0
M  V30 11254 H 1085.12 3.3034 -2.02371 0
M  V30 11255 H 1085.53 3.10341 -4.22834 0
M  V30 11256 H 1087.01 4.48412 -3.21918 0
M  V30 11257 H 1087.48 4.10323 -1.56626 0
M  V30 11258 H 1088.09 3.1042 -2.90722 0
M  V30 11259 N 1086.4 1.28806 0.908124 0
M  V30 11260 C 1087.65 1.16287 1.65781 0
M  V30 11261 C 1087.98 -0.287389 1.92365 0
M  V30 11262 O 1087.23 -1.22491 1.52625 0
M  V30 11263 C 1087.53 1.91267 3.01914 0
M  V30 11264 C 1087.2 3.41033 2.9497 0
M  V30 11265 C 1085.86 3.81879 2.92783 0
M  V30 11266 C 1088.21 4.36507 2.848 0
M  V30 11267 C 1085.54 5.16529 2.78235 0
M  V30 11268 C 1087.89 5.71237 2.71792 0
M  V30 11269 C 1086.56 6.11351 2.67967 0
M  V30 11270 H 1085.83 0.425526 0.606637 0
M  V30 11271 H 1088.47 1.59646 1.05762 0
M  V30 11272 H 1086.78 1.40474 3.65752 0
M  V30 11273 H 1088.48 1.78992 3.58835 0
M  V30 11274 H 1085.07 3.08561 2.97469 0
M  V30 11275 H 1089.25 4.05909 2.85573 0
M  V30 11276 H 1084.51 5.4673 2.73672 0
M  V30 11277 H 1088.68 6.44872 2.62892 0
M  V30 11278 H 1086.31 7.15637 2.56451 0
M  V30 11279 N 1087.88 -1.11734 1.11145 0
M  V30 11280 C 1089.3 -1.35412 0.844736 0
M  V30 11281 C 1089.5 -1.94347 -0.532111 0
M  V30 11282 O 1088.55 -2.17443 -1.28353 0
M  V30 11283 C 1089.87 -2.28869 1.95037 0
M  V30 11284 C 1091.41 -2.42442 1.97967 0
M  V30 11285 C 1091.89 -3.39219 3.07725 0
M  V30 11286 N 1093.38 -3.4678 3.07079 0
M  V30 11287 C 1094.12 -4.21595 3.88646 0
M  V30 11288 N 1093.61 -4.99411 4.80167 0
M  V30 11289 N 1095.4 -4.17075 3.76835 0
M  V30 11290 H 1087.56 -0.718412 1.99881 0
M  V30 11291 H 1089.82 -0.378787 0.869037 0
M  V30 11292 H 1089.52 -1.92752 2.94176 0
M  V30 11293 H 1089.4 -3.2906 1.84389 0
M  V30 11294 H 1091.79 -2.77835 0.994561 0
M  V30 11295 H 1091.87 -1.42113 2.12691 0
M  V30 11296 H 1091.51 -3.04553 4.0646 0
M  V30 11297 H 1091.44 -4.39394 2.90242 0
M  V30 11298 H 1093.93 -2.91272 2.40767 0
M  V30 11299 H 1094.24 -5.53856 5.38946 0
M  V30 11300 H 1092.59 -4.98582 4.84191 0
M  V30 11301 H 1095.78 -3.55369 3.04681 0
M  V30 11302 H 1095.95 -4.75125 4.40637 0
M  V30 11303 N 1089.36 -0.901303 -1.29284 0
M  V30 11304 C 1090.31 -0.378666 -2.27672 0
M  V30 11305 C 1091.28 0.540102 -1.57074 0
M  V30 11306 O 1092.46 0.464997 -1.85047 0
M  V30 11307 C 1089.6 0.38635 -3.42931 0
M  V30 11308 C 1088.71 -0.563496 -4.28309 0
M  V30 11309 C 1087.85 0.218731 -5.30749 0
M  V30 11310 C 1086.89 -0.725536 -6.07785 0
M  V30 11311 N 1086.03 0.0223854 -7.02096 0
M  V30 11312 H 1090.87 -1.22277 -2.71758 0
M  V30 11313 H 1088.4 -0.614302 -1.33659 0
M  V30 11314 H 1090.36 0.845967 -4.08533 0
M  V30 11315 H 1088.99 1.1949 -2.9987 0
M  V30 11316 H 1088.04 -1.14163 -3.62865 0
M  V30 11317 H 1089.35 -1.28623 -4.81931 0
M  V30 11318 H 1088.51 0.739473 -6.02177 0
M  V30 11319 H 1087.25 0.97459 -4.77863 0
M  V30 11320 H 1086.25 -1.25776 -5.3522 0
M  V30 11321 H 1087.48 -1.48075 -6.6276 0
M  V30 11322 H 1085.42 0.760482 -6.51577 0
M  V30 11323 H 1085.34 -0.640408 -7.53283 0
M  V30 11324 H 1086.61 0.523339 -7.77741 0
M  V30 11325 N 1090.84 1.42931 -0.663954 0
M  V30 11326 C 1092.09 2.00904 -0.179011 0
M  V30 11327 C 1092.4 1.53056 1.21791 0
M  V30 11328 O 1093.61 2.03374 1.79865 0
M  V30 11329 C 1092.06 3.58892 -0.269198 0
M  V30 11330 C 1091.67 4.15731 -1.66949 0
M  V30 11331 C 1093.41 4.24207 0.157589 0
M  V30 11332 C 1091.32 5.66047 -1.71303 0
M  V30 11333 H 1090.25 0.75135 -0.0631623 0
M  V30 11334 H 1092.9 1.6378 -0.827556 0
M  V30 11335 H 1091.28 3.93469 0.447048 0
M  V30 11336 H 1092.46 3.92634 -2.41195 0
M  V30 11337 H 1090.77 3.62826 -2.04318 0
M  V30 11338 H 1093.37 5.34503 0.145057 0
M  V30 11339 H 1093.71 3.98901 1.19095 0
M  V30 11340 H 1094.25 3.94552 -0.507274 0
M  V30 11341 H 1090.98 5.96136 -2.72584 0
M  V30 11342 H 1090.5 5.91167 -1.01398 0
M  V30 11343 H 1092.18 6.30275 -1.46158 0
M  V30 11344 N 1092.32 0.406567 1.52266 0
M  V30 11345 C 1093.56 -0.170305 2.02084 0
M  V30 11346 C 1093.89 -1.45008 1.29176 0
M  V30 11347 O 1093.17 -1.90399 0.39731 0
M  V30 11348 C 1093.45 -0.420627 3.57635 0
M  V30 11349 C 1093.31 0.87564 4.41194 0
M  V30 11350 C 1094.62 -1.20387 4.23314 0
M  V30 11351 H 1091.74 -0.0604219 0.734519 0
M  V30 11352 H 1094.39 0.539529 1.82179 0
M  V30 11353 H 1092.54 -1.0253 3.74726 0
M  V30 11354 H 1094.21 1.51192 4.35819 0
M  V30 11355 H 1092.45 1.48718 4.07511 0
M  V30 11356 H 1093.12 0.654916 5.48101 0
M  V30 11357 H 1095.6 -0.691972 4.10306 0
M  V30 11358 H 1094.47 -1.34776 5.32096 0
M  V30 11359 H 1094.73 -2.2238 3.82099 0
M  V30 11360 N 1093.79 -1.57004 0.136909 0
M  V30 11361 C 1095.07 -1.87375 -0.561233 0
M  V30 11362 C 1095.45 -1.04117 -1.83638 0
M  V30 11363 O 1094.8 -0.125103 -2.28157 0
M  V30 11364 C 1095.01 -3.38829 -0.836426 0
M  V30 11365 C 1096.36 -4.07826 -1.18164 0
M  V30 11366 O 1097.38 -3.4395 -0.92611 0
M  V30 11367 O 1096.24 -5.20614 -1.66204 0
M  V30 11368 H 1093.33 -0.776287 -0.285145 0
M  V30 11369 H 1095.88 -1.68818 0.172761 0
M  V30 11370 H 1094.65 -3.91244 0.066442 0
M  V30 11371 H 1094.28 -3.62879 -1.62496 0
M  V30 11372 N 1095.27 0.136881 -1.57004 0
M  V30 11373 C 1096.5 0.866405 -1.88436 0
M  V30 11374 C 1096.92 1.73483 -0.727006 0
M  V30 11375 O 1096.28 1.78398 0.323094 0
M  V30 11376 C 1096.33 1.69059 -3.18514 0
M  V30 11377 O 1095.43 2.79584 -3.03161 0
M  V30 11378 H 1094.77 0.240709 -0.618834 0
M  V30 11379 H 1097.3 0.124653 -2.0422 0
M  V30 11380 H 1097.31 2.08353 -3.50789 0
M  V30 11381 H 1095.99 1.05296 -4.0235 0
M  V30 11382 H 1094.57 2.43623 -2.82315 0
M  V30 11383 N 1096.75 1.52266 0.40654 0
M  V30 11384 C 1097.7 1.75794 1.4955 0
M  V30 11385 C 1098.67 0.600472 1.54866 0
M  V30 11386 O 1099.85 0.838305 1.71397 0
M  V30 11387 C 1096.99 1.91682 2.86971 0
M  V30 11388 C 1096.11 3.19337 2.90943 0
M  V30 11389 C 1095.24 3.25641 4.1968 0
M  V30 11390 C 1094.28 4.47488 4.17637 0
M  V30 11391 N 1093.42 4.51171 5.37949 0
M  V30 11392 H 1098.26 2.68733 1.28789 0
M  V30 11393 H 1095.79 1.33157 0.625102 0
M  V30 11394 H 1097.75 1.98877 3.66748 0
M  V30 11395 H 1096.38 1.02121 3.06221 0
M  V30 11396 H 1095.43 3.21301 2.03642 0
M  V30 11397 H 1096.75 4.09153 2.85299 0
M  V30 11398 H 1095.9 3.31922 5.07851 0
M  V30 11399 H 1094.64 2.33769 4.28023 0
M  V30 11400 H 1093.64 4.41351 3.27856 0
M  V30 11401 H 1094.87 5.40659 4.10932 0
M  V30 11402 H 1092.81 3.62182 5.46955 0
M  V30 11403 H 1092.73 5.34835 5.3431 0
M  V30 11404 H 1094 4.61685 6.28066 0
M  V30 11405 N 1098.23 -0.663929 1.42933 0
M  V30 11406 C 1099.46 -1.44981 1.47187 0
M  V30 11407 C 1099.87 -1.89009 0.0850091 0
M  V30 11408 O 1099.21 -1.59413 -0.912855 0
M  V30 11409 C 1099.27 -2.72409 2.34592 0
M  V30 11410 C 1098.94 -2.5039 3.82301 0
M  V30 11411 C 1099.93 -2.14295 4.73681 0
M  V30 11412 C 1097.62 -2.65047 4.2668 0
M  V30 11413 C 1099.61 -1.93139 6.07434 0
M  V30 11414 C 1097.3 -2.43506 5.60489 0
M  V30 11415 C 1098.3 -2.07607 6.50683 0
M  V30 11416 O 1097.98 -1.86284 7.82019 0
M  V30 11417 H 1097.72 -0.452238 0.502451 0
M  V30 11418 H 1100.27 -0.822228 1.88225 0
M  V30 11419 H 1098.5 -3.37689 1.88422 0
M  V30 11420 H 1100.19 -3.34327 2.30174 0
M  V30 11421 H 1100.96 -2.02557 4.40676 0
M  V30 11422 H 1096.83 -2.91966 3.56759 0
M  V30 11423 H 1100.38 -1.65042 6.77796 0
M  V30 11424 H 1096.28 -2.54844 5.93064 0
M  V30 11425 H 1097.04 -2.00795 7.93488 0
M  V30 11426 N 1099.71 -1.29285 -0.901281 0
M  V30 11427 C 1100.95 -1.17165 -1.65162 0
M  V30 11428 C 1101.28 0.277184 -1.92515 0
M  V30 11429 O 1100.54 1.2168 -1.53273 0
M  V30 11430 C 1100.84 -1.92865 -3.00895 0
M  V30 11431 C 1100.5 -3.42593 -2.93157 0
M  V30 11432 C 1099.16 -3.83426 -2.90754 0
M  V30 11433 C 1101.52 -4.38011 -2.82481 0
M  V30 11434 C 1098.84 -5.17997 -2.75492 0
M  V30 11435 C 1101.2 -5.7267 -2.68759 0
M  V30 11436 C 1099.86 -6.12764 -2.64721 0
M  V30 11437 H 1099.13 -0.428737 -0.604372 0
M  V30 11438 H 1101.78 -1.60204 -1.04914 0
M  V30 11439 H 1100.08 -1.42412 -3.65001 0
M  V30 11440 H 1101.78 -1.80893 -3.57881 0
M  V30 11441 H 1098.37 -3.10134 -2.95829 0
M  V30 11442 H 1102.55 -4.07417 -2.83416 0
M  V30 11443 H 1097.81 -5.48173 -2.70769 0
M  V30 11444 H 1101.98 -6.46258 -2.59469 0
M  V30 11445 H 1099.61 -7.16987 -2.52652 0
M  V30 11446 N 1101.18 1.11143 -1.11736 0
M  V30 11447 C 1102.43 1.82586 -0.866412 0
M  V30 11448 C 1102.75 1.85227 0.609593 0
M  V30 11449 O 1102.02 1.32505 1.44288 0
M  V30 11450 H 1100.6 0.676149 -0.31754 0
M  V30 11451 H 1103.27 1.34516 -1.41037 0
M  V30 11452 H 1102.36 2.8635 -1.24136 0
M  V30 11453 N 1102.66 0.908147 1.28804 0
M  V30 11454 C 1104.08 0.605474 1.47669 0
M  V30 11455 C 1104.28 -0.850759 1.82659 0
M  V30 11456 O 1103.33 -1.63029 1.92816 0
M  V30 11457 C 1104.65 1.53856 2.58358 0
M  V30 11458 C 1106.2 1.54467 2.7223 0
M  V30 11459 C 1106.67 2.46424 3.86056 0
M  V30 11460 N 1108.16 2.44519 3.93402 0
M  V30 11461 C 1108.9 3.12371 4.80845 0
M  V30 11462 N 1108.39 3.89533 5.72919 0
M  V30 11463 N 1110.19 3.01486 4.74407 0
M  V30 11464 H 1102.34 1.84988 1.04371 0
M  V30 11465 H 1104.6 0.793132 0.519274 0
M  V30 11466 H 1104.31 2.57651 2.39393 0
M  V30 11467 H 1104.18 1.26543 3.5534 0
M  V30 11468 H 1106.57 0.514127 2.90587 0
M  V30 11469 H 1106.65 1.85821 1.75796 0
M  V30 11470 H 1106.29 3.49577 3.68454 0
M  V30 11471 H 1106.22 2.12375 4.81876 0
M  V30 11472 H 1108.71 1.88464 3.27551 0
M  V30 11473 H 1109.03 4.3834 6.36457 0
M  V30 11474 H 1107.37 3.93639 5.72777 0
M  V30 11475 H 1110.56 2.40713 4.01466 0
M  V30 11476 H 1110.73 3.5464 5.42342 0
M  V30 11477 N 1104.14 -1.42577 0.671525 0
M  V30 11478 C 1105.39 -2.01185 0.192051 0
M  V30 11479 C 1105.71 -1.53349 -1.20454 0
M  V30 11480 O 1104.98 -0.753781 -1.80817 0
M  V30 11481 H 1103.56 -0.743898 0.0680106 0
M  V30 11482 H 1106.22 -1.74539 0.8673 0
M  V30 11483 H 1105.32 -3.11516 0.190796 0
M  V30 11484 N 1105.62 -0.414636 -1.52048 0
M  V30 11485 C 1106.87 0.16073 -2.01059 0
M  V30 11486 C 1107.18 1.45753 -1.30443 0
M  V30 11487 O 1108.39 2.11448 -1.703 0
M  V30 11488 C 1106.84 0.336993 -3.58319 0
M  V30 11489 C 1106.45 -0.948037 -4.37854 0
M  V30 11490 C 1108.19 0.867353 -4.15545 0
M  V30 11491 C 1106.1 -0.738662 -5.86769 0
M  V30 11492 H 1105.03 0.0638419 -0.751292 0
M  V30 11493 H 1107.68 -0.540925 -1.75346 0
M  V30 11494 H 1106.06 1.10111 -3.80383 0
M  V30 11495 H 1107.24 -1.71873 -4.27547 0
M  V30 11496 H 1105.55 -1.40522 -3.91972 0
M  V30 11497 H 1108.15 1.04012 -5.24486 0
M  V30 11498 H 1108.49 1.84358 -3.73253 0
M  V30 11499 H 1109.03 0.162148 -3.97469 0
M  V30 11500 H 1105.77 -1.6866 -6.3343 0
M  V30 11501 H 1105.29 -0.00736294 -5.998 0
M  V30 11502 H 1106.96 -0.382978 -6.45866 0
M  V30 11503 N 1107.1 1.56929 -0.145233 0
M  V30 11504 C 1108.03 2.12449 0.833107 0
M  V30 11505 C 1109.01 1.0476 1.24355 0
M  V30 11506 O 1110.19 1.32579 1.33997 0
M  V30 11507 C 1107.32 2.64274 2.11842 0
M  V30 11508 C 1106.36 3.84093 1.85404 0
M  V30 11509 S 1107.2 5.25172 1.04663 0
M  V30 11510 C 1108.35 5.80384 2.34318 0
M  V30 11511 H 1108.59 2.951 0.360969 0
M  V30 11512 H 1106.12 1.54246 0.0690187 0
M  V30 11513 H 1108.08 2.94783 2.8568 0
M  V30 11514 H 1106.74 1.81756 2.56171 0
M  V30 11515 H 1105.93 4.18593 2.80706 0
M  V30 11516 H 1105.53 3.54336 1.19675 0
M  V30 11517 H 1107.83 5.91709 3.29981 0
M  V30 11518 H 1108.77 6.7798 2.04325 0
M  V30 11519 H 1109.18 5.08617 2.44885 0
M  V30 11520 N 1108.58 -0.128553 1.57075 0
M  V30 11521 C 1109.82 -0.836536 1.83535 0
M  V30 11522 C 1110.14 -1.81491 0.7294 0
M  V30 11523 O 1111.34 -2.56838 0.880128 0
M  V30 11524 C 1109.8 -1.53836 3.25365 0
M  V30 11525 C 1109.41 -0.601454 4.43944 0
M  V30 11526 C 1111.15 -2.23204 3.61082 0
M  V30 11527 C 1109.06 -1.30596 5.768 0
M  V30 11528 H 1107.99 -0.316142 0.684522 0
M  V30 11529 H 1110.64 -0.0892555 1.83283 0
M  V30 11530 H 1109.02 -2.33192 3.20058 0
M  V30 11531 H 1110.2 0.158209 4.60528 0
M  V30 11532 H 1108.51 -0.0152393 4.16397 0
M  V30 11533 H 1111.11 -2.76585 4.57608 0
M  V30 11534 H 1111.45 -3.0056 2.88044 0
M  V30 11535 H 1111.98 -1.50746 3.68131 0
M  V30 11536 H 1108.72 -0.573874 6.52983 0
M  V30 11537 H 1108.24 -2.03787 5.6412 0
M  V30 11538 H 1109.92 -1.8418 6.20231 0
M  V30 11539 N 1110.05 -1.5248 -0.398459 0
M  V30 11540 C 1111.02 -1.75949 -1.46883 0
M  V30 11541 C 1112.02 -0.629431 -1.47969 0
M  V30 11542 O 1113.21 -0.897407 -1.49306 0
M  V30 11543 C 1110.34 -1.85162 -2.8623 0
M  V30 11544 H 1111.53 -2.71513 -1.2736 0
M  V30 11545 H 1109.08 -1.43058 -0.629619 0
M  V30 11546 H 1109.82 -0.915505 -3.11109 0
M  V30 11547 H 1109.6 -2.67326 -2.86844 0
M  V30 11548 H 1111.09 -2.05025 -3.63805 0
M  V30 11549 N 1111.53 0.65634 -1.43283 0
M  V30 11550 C 1112.78 1.41212 -1.44021 0
M  V30 11551 C 1113.09 1.95485 -0.0669783 0
M  V30 11552 O 1114.3 2.71457 0.0481909 0
M  V30 11553 C 1112.76 2.55541 -2.5343 0
M  V30 11554 C 1112.36 2.07889 -3.96845 0
M  V30 11555 C 1114.11 3.3293 -2.63359 0
M  V30 11556 C 1112.01 3.19411 -4.97726 0
M  V30 11557 H 1110.94 0.530566 -0.535739 0
M  V30 11558 H 1113.6 0.708743 -1.6926 0
M  V30 11559 H 1111.98 3.28335 -2.21387 0
M  V30 11560 H 1113.15 1.42127 -4.38334 0
M  V30 11561 H 1111.47 1.43388 -3.90933 0
M  V30 11562 H 1114.06 4.1602 -3.35903 0
M  V30 11563 H 1114.41 3.80753 -1.68324 0
M  V30 11564 H 1114.94 2.67216 -2.94687 0
M  V30 11565 H 1111.68 2.7656 -5.94302 0
M  V30 11566 H 1111.2 3.83895 -4.60853 0
M  V30 11567 H 1112.88 3.84591 -5.20287 0
M  V30 11568 N 1113.01 1.29761 0.894412 0
M  V30 11569 C 1113.94 1.17902 2.01547 0
M  V30 11570 C 1114.92 0.0719402 1.69948 0
M  V30 11571 O 1116.11 0.252338 1.92554 0
M  V30 11572 C 1113.24 0.860262 3.36477 0
M  V30 11573 C 1112.19 1.92424 3.82305 0
M  V30 11574 C 1111.52 1.45868 5.14419 0
M  V30 11575 C 1112.82 3.33391 4.02054 0
M  V30 11576 H 1114.51 2.11688 2.11727 0
M  V30 11577 H 1112.06 1.01916 1.01731 0
M  V30 11578 H 1114.01 0.763987 4.14417 0
M  V30 11579 H 1112.73 -0.113289 3.26403 0
M  V30 11580 H 1111.39 2.00999 3.06586 0
M  V30 11581 H 1111.04 0.473654 5.00765 0
M  V30 11582 H 1110.74 2.17028 5.46052 0
M  V30 11583 H 1112.26 1.37601 5.94894 0
M  V30 11584 H 1113.68 3.27628 4.7046 0
M  V30 11585 H 1112.07 4.02555 4.4505 0
M  V30 11586 H 1113.14 3.75978 3.06216 0
M  V30 11587 N 1114.49 -1.10549 1.12324 0
M  V30 11588 C 1115.73 -1.82755 0.879117 0
M  V30 11589 C 1116.07 -1.84905 -0.593604 0
M  V30 11590 O 1115.34 -1.30884 -1.43873 0
M  V30 11591 C 1115.62 -3.29481 1.45308 0
M  V30 11592 C 1115.48 -3.3567 2.99408 0
M  V30 11593 C 1116.8 -4.25828 1.11167 0
M  V30 11594 H 1113.92 -0.663513 0.32081 0
M  V30 11595 H 1116.56 -1.29572 1.38965 0
M  V30 11596 H 1114.71 -3.74902 1.01887 0
M  V30 11597 H 1116.38 -2.98739 3.515 0
M  V30 11598 H 1114.62 -2.75606 3.34998 0
M  V30 11599 H 1115.29 -4.38983 3.34661 0
M  V30 11600 H 1117.77 -3.88635 1.48667 0
M  V30 11601 H 1116.65 -5.26857 1.53991 0
M  V30 11602 H 1116.91 -4.42094 0.0237046 0
M  V30 11603 N 1115.97 -0.914965 -1.28321 0
M  V30 11604 C 1116.91 -0.394477 -2.29231 0
M  V30 11605 C 1117.91 0.514481 -1.61398 0
M  V30 11606 O 1119.11 0.395591 -1.75599 0
M  V30 11607 H 1115.49 -0.108969 -0.744063 0
M  V30 11608 H 1117.46 -1.25862 -2.70557 0
M  V30 11609 C 1116.21 0.349134 -3.45943 0
M  V30 11610 H 1115.53 -0.341087 -3.98342 0
M  V30 11611 H 1116.97 0.677944 -4.18545 0
M  V30 11612 C 1115.43 1.55747 -2.98738 0
M  V30 11613 O 1115.96 2.65654 -3.01315 0
M  V30 11614 N 1114.17 1.40488 -2.54384 0
M  V30 11615 H 1113.71 0.510716 -2.52487 0
M  V30 11616 H 1113.67 2.21464 -2.23161 0
M  V30 11617 N 1117.44 1.42219 -0.679077 0
M  V30 11618 C 1118.67 2.05815 -0.211649 0
M  V30 11619 C 1119.09 1.51037 1.13284 0
M  V30 11620 O 1118.44 0.651894 1.7046 0
M  V30 11621 C 1118.49 3.61218 -0.142663 0
M  V30 11622 O 1118.22 4.13965 -1.43402 0
M  V30 11623 C 1119.72 4.41934 0.347746 0
M  V30 11624 H 1116.94 0.663215 -0.101914 0
M  V30 11625 H 1119.48 1.82282 -0.927017 0
M  V30 11626 H 1117.64 3.83848 0.52342 0
M  V30 11627 H 1118.05 5.07872 -1.31021 0
M  V30 11628 H 1119.52 5.50921 0.344916 0
M  V30 11629 H 1120 4.16832 1.38377 0
M  V30 11630 H 1120.61 4.24332 -0.286751 0
M  V30 11631 N 1118.92 0.422693 1.51826 0
M  V30 11632 C 1119.85 -0.386913 2.30272 0
M  V30 11633 C 1120.83 -1.03411 1.35056 0
M  V30 11634 O 1122.02 -1.04055 1.6397 0
M  V30 11635 C 1119.15 -1.49645 3.13407 0
M  V30 11636 C 1118.1 -0.973532 4.16781 0
M  V30 11637 C 1117.43 -2.1777 4.88344 0
M  V30 11638 C 1118.73 -0.0181194 5.22297 0
M  V30 11639 H 1120.42 0.267697 2.98201 0
M  V30 11640 H 1117.97 0.130186 1.4341 0
M  V30 11641 H 1119.92 -2.06993 3.67059 0
M  V30 11642 H 1118.64 -2.17914 2.43272 0
M  V30 11643 H 1117.3 -0.42237 3.64159 0
M  V30 11644 H 1116.95 -2.84625 4.14726 0
M  V30 11645 H 1116.65 -1.83427 5.58237 0
M  V30 11646 H 1118.18 -2.75699 5.44814 0
M  V30 11647 H 1119.59 -0.500822 5.71108 0
M  V30 11648 H 1117.99 0.237163 5.99631 0
M  V30 11649 H 1119.06 0.923065 4.76033 0
M  V30 11650 N 1120.4 -1.5685 0.153553 0
M  V30 11651 C 1121.62 -2.01135 -0.505904 0
M  V30 11652 C 1122.05 -1.03301 -1.57196 0
M  V30 11653 O 1121.41 -0.00976022 -1.81297 0
M  V30 11654 C 1121.46 -3.44129 -1.0774 0
M  V30 11655 O 1120.56 -3.49318 -2.19205 0
M  V30 11656 H 1119.9 -0.652496 -0.123062 0
M  V30 11657 H 1122.43 -2.03039 0.252216 0
M  V30 11658 H 1122.44 -3.83066 -1.40444 0
M  V30 11659 H 1121.12 -4.1484 -0.296754 0
M  V30 11660 H 1119.69 -3.22227 -1.8768 0
M  V30 11661 N 1121.88 0.120221 -1.57141 0
M  V30 11662 C 1122.81 1.17787 -1.95452 0
M  V30 11663 C 1123.79 1.40174 -0.824016 0
M  V30 11664 O 1124.97 1.54348 -1.08208 0
M  V30 11665 C 1122.1 2.53193 -2.24969 0
M  V30 11666 C 1121.15 2.47241 -3.47526 0
M  V30 11667 S 1121.98 1.91325 -5.00155 0
M  V30 11668 C 1123.13 3.28406 -5.32823 0
M  V30 11669 H 1123.37 0.851152 -2.84856 0
M  V30 11670 H 1120.9 0.326929 -1.50899 0
M  V30 11671 H 1122.86 3.31104 -2.42652 0
M  V30 11672 H 1121.52 2.83043 -1.36181 0
M  V30 11673 H 1120.71 3.46981 -3.65541 0
M  V30 11674 H 1120.31 1.7745 -3.29223 0
M  V30 11675 H 1122.61 4.24613 -5.2793 0
M  V30 11676 H 1123.55 3.1522 -6.34068 0
M  V30 11677 H 1123.96 3.26779 -4.603 0
M  V30 11678 N 1123.36 1.52689 0.390367 0
M  V30 11679 C 1124.6 1.67335 1.13329 0
M  V30 11680 C 1124.93 0.415068 1.90531 0
M  V30 11681 O 1124.2 -0.570504 1.87409 0
M  V30 11682 H 1122.78 0.616821 0.421356 0
M  V30 11683 H 1125.44 1.89799 0.443 0
M  V30 11684 H 1124.53 2.52314 1.83696 0
M  V30 11685 N 1124.83 -0.648732 1.43629 0
M  V30 11686 C 1126.08 -1.40446 1.44768 0
M  V30 11687 C 1126.4 -1.95447 0.0773445 0
M  V30 11688 O 1127.6 -2.71479 -0.0337942 0
M  V30 11689 C 1126.06 -2.54194 2.54781 0
M  V30 11690 C 1125.67 -2.05781 3.97942 0
M  V30 11691 C 1127.41 -3.31529 2.65121 0
M  V30 11692 C 1125.32 -3.16767 4.99412 0
M  V30 11693 H 1124.25 -0.527717 0.538545 0
M  V30 11694 H 1126.9 -0.699756 1.69634 0
M  V30 11695 H 1125.28 -3.27156 2.23125 0
M  V30 11696 H 1126.45 -1.398 4.39081 0
M  V30 11697 H 1124.77 -1.41312 3.91688 0
M  V30 11698 H 1127.37 -4.14233 3.38105 0
M  V30 11699 H 1127.71 -3.79855 1.70341 0
M  V30 11700 H 1128.24 -2.65649 2.961 0
M  V30 11701 H 1124.98 -2.73404 5.9576 0
M  V30 11702 H 1124.5 -3.81445 4.62882 0
M  V30 11703 H 1126.18 -3.81827 5.22319 0
M  V30 11704 N 1126.31 -1.30234 -0.887518 0
M  V30 11705 C 1127.22 -1.18316 -2.02579 0
M  V30 11706 C 1128.24 -0.103658 -1.73691 0
M  V30 11707 O 1129.41 -0.3181 -1.98872 0
M  V30 11708 C 1126.48 -0.873222 -3.35523 0
M  V30 11709 C 1125.54 -2.03783 -3.7785 0
M  V30 11710 C 1124.77 -1.74258 -5.0445 0
M  V30 11711 O 1125 -0.669295 -5.6646 0
M  V30 11712 O 1123.93 -2.59423 -5.43124 0
M  V30 11713 H 1127.76 -2.13933 -2.15561 0
M  V30 11714 H 1125.34 -1.09803 -1.0131 0
M  V30 11715 H 1127.22 -0.715463 -4.15282 0
M  V30 11716 H 1125.9 0.053056 -3.23657 0
M  V30 11717 H 1124.81 -2.2509 -2.98806 0
M  V30 11718 H 1126.14 -2.94574 -3.94318 0
M  V30 11719 N 1127.79 1.09952 -1.12909 0
M  V30 11720 C 1129.02 1.8552 -0.909163 0
M  V30 11721 C 1129.43 1.81173 0.545253 0
M  V30 11722 O 1128.77 1.20223 1.38896 0
M  V30 11723 C 1128.83 3.34693 -1.31228 0
M  V30 11724 C 1128.5 3.62794 -2.77902 0
M  V30 11725 C 1129.49 3.58973 -3.76078 0
M  V30 11726 C 1127.18 3.91311 -3.1493 0
M  V30 11727 C 1129.17 3.83271 -5.09296 0
M  V30 11728 C 1126.86 4.15265 -4.48328 0
M  V30 11729 C 1127.86 4.11236 -5.4532 0
M  V30 11730 O 1127.55 4.34576 -6.76313 0
M  V30 11731 H 1127.28 0.59303 -0.324486 0
M  V30 11732 H 1129.83 1.39878 -1.5041 0
M  V30 11733 H 1128.06 3.81016 -0.660573 0
M  V30 11734 H 1129.75 3.9166 -1.06569 0
M  V30 11735 H 1130.52 3.36974 -3.48817 0
M  V30 11736 H 1126.4 3.93575 -2.40041 0
M  V30 11737 H 1129.94 3.80041 -5.84991 0
M  V30 11738 H 1125.84 4.36743 -4.75316 0
M  V30 11739 H 1126.61 4.52065 -6.82334 0
M  V30 11740 N 1129.27 0.921757 1.27833 0
M  V30 11741 C 1130.22 0.387357 2.24685 0
M  V30 11742 C 1131.2 -0.505036 1.52768 0
M  V30 11743 O 1132.39 -0.34345 1.73636 0
M  V30 11744 C 1129.52 -0.364168 3.41363 0
M  V30 11745 C 1128.61 0.544401 4.20591 0
M  V30 11746 N 1129 1.66158 4.77729 0
M  V30 11747 C 1127.3 0.346289 4.44654 0
M  V30 11748 C 1128 2.22619 5.37416 0
M  V30 11749 N 1126.98 1.51648 5.22019 0
M  V30 11750 H 1130.78 1.24045 2.6644 0
M  V30 11751 H 1128.29 0.775338 1.42696 0
M  V30 11752 H 1130.29 -0.763917 4.09841 0
M  V30 11753 H 1128.95 -1.21426 3.01141 0
M  V30 11754 H 1129.96 2.04406 4.75856 0
M  V30 11755 H 1126.64 -0.46363 4.14918 0
M  V30 11756 H 1128.03 3.16641 5.92611 0
M  V30 11757 N 1130.75 -1.41857 0.686609 0
M  V30 11758 C 1131.66 -2.34595 0.0159005 0
M  V30 11759 C 1132.67 -1.55741 -0.775933 0
M  V30 11760 O 1133.85 -1.8826 -0.71555 0
M  V30 11761 C 1130.91 -3.34395 -0.915473 0
M  V30 11762 C 1129.97 -4.29141 -0.116851 0
M  V30 11763 C 1129.21 -5.24174 -1.00386 0
M  V30 11764 O 1129.43 -5.24431 -2.2434 0
M  V30 11765 O 1128.36 -6.00152 -0.458337 0
M  V30 11766 H 1132.19 -2.9351 0.780101 0
M  V30 11767 H 1129.78 -1.42559 0.446896 0
M  V30 11768 H 1131.66 -3.95675 -1.44981 0
M  V30 11769 H 1130.33 -2.77936 -1.65932 0
M  V30 11770 H 1129.24 -3.71238 0.461871 0
M  V30 11771 H 1130.57 -4.88673 0.588138 0
M  V30 11772 N 1132.22 -0.430739 -1.51599 0
M  V30 11773 C 1133.16 0.419726 -2.25324 0
M  V30 11774 C 1134.17 0.991925 -1.29092 0
M  V30 11775 O 1135.36 0.887188 -1.54891 0
M  V30 11776 C 1132.46 1.59844 -2.98836 0
M  V30 11777 C 1131.63 1.14629 -4.22112 0
M  V30 11778 C 1130.69 2.19437 -4.78261 0
M  V30 11779 O 1129.72 1.79141 -5.40275 0
M  V30 11780 N 1130.92 3.51849 -4.61717 0
M  V30 11781 H 1133.68 -0.212112 -2.98948 0
M  V30 11782 H 1131.24 -0.259269 -1.59811 0
M  V30 11783 H 1133.24 2.29567 -3.33288 0
M  V30 11784 H 1131.81 2.13575 -2.28264 0
M  V30 11785 H 1131.03 0.276367 -3.9323 0
M  V30 11786 H 1132.31 0.821488 -5.02124 0
M  V30 11787 H 1131.71 3.87324 -4.12306 0
M  V30 11788 H 1130.27 4.17486 -5.00548 0
M  V30 11789 N 1133.7 1.56767 -0.161869 0
M  V30 11790 C 1135.11 1.83265 0.356466 0
M  V30 11791 C 1135.46 1.08127 1.63716 0
M  V30 11792 O 1134.59 0.33127 2.13849 0
M  V30 11793 C 1135.18 3.32437 0.653521 0
M  V30 11794 C 1133.74 3.59465 1.11633 0
M  V30 11795 C 1132.89 2.76909 0.147204 0
M  V30 11796 H 1135.84 1.53926 -0.386308 0
M  V30 11797 H 1135.86 3.49401 1.50662 0
M  V30 11798 H 1135.37 3.87098 -0.278766 0
M  V30 11799 H 1133.48 3.10206 2.06404 0
M  V30 11800 H 1133.59 4.67853 1.03202 0
M  V30 11801 H 1131.95 2.46457 0.642739 0
M  V30 11802 H 1132.74 3.34346 -0.778938 0
M  V30 11803 N 1135.18 -0.111886 1.57202 0
M  V30 11804 C 1136.09 -1.1556 2.04165 0
M  V30 11805 C 1137.11 -1.44898 0.963354 0
M  V30 11806 O 1138.28 -1.55873 1.27536 0
M  V30 11807 C 1135.35 -2.46048 2.44256 0
M  V30 11808 C 1134.41 -2.24043 3.66201 0
M  V30 11809 C 1133.64 -3.4831 4.04371 0
M  V30 11810 O 1133.86 -4.55895 3.42806 0
M  V30 11811 O 1132.8 -3.38891 4.9743 0
M  V30 11812 H 1136.62 -0.786778 2.93332 0
M  V30 11813 H 1134.21 -0.323196 1.45862 0
M  V30 11814 H 1136.09 -3.22916 2.70745 0
M  V30 11815 H 1134.77 -2.8239 1.58233 0
M  V30 11816 H 1133.67 -1.4501 3.44852 0
M  V30 11817 H 1135.01 -1.92602 4.52952 0
M  V30 11818 N 1136.66 -1.52894 -0.382264 0
M  V30 11819 C 1137.57 -1.81084 -1.4915 0
M  V30 11820 C 1138.58 -0.698045 -1.59384 0
M  V30 11821 O 1139.76 -0.98635 -1.75594 0
M  V30 11822 C 1136.83 -1.97987 -2.84608 0
M  V30 11823 C 1135.89 -3.219 -2.8404 0
M  V30 11824 C 1135.12 -3.37988 -4.13037 0
M  V30 11825 O 1135.34 -2.58733 -5.08344 0
M  V30 11826 O 1134.28 -4.31273 -4.19866 0
M  V30 11827 H 1138.1 -2.75289 -1.28257 0
M  V30 11828 H 1135.69 -1.38068 -0.57076 0
M  V30 11829 H 1137.57 -2.10773 -3.64901 0
M  V30 11830 H 1136.24 -1.06972 -3.05514 0
M  V30 11831 H 1135.15 -3.14551 -2.02505 0
M  V30 11832 H 1136.48 -4.12783 -2.68087 0
M  V30 11833 N 1138.14 0.641106 -1.43971 0
M  V30 11834 C 1139.07 1.76489 -1.52885 0
M  V30 11835 C 1140.05 1.65742 -0.38258 0
M  V30 11836 O 1141.23 1.84653 -0.601397 0
M  V30 11837 C 1138.36 3.14977 -1.4631 0
M  V30 11838 C 1137.32 3.40502 -2.59311 0
M  V30 11839 C 1136.64 4.78916 -2.37789 0
M  V30 11840 C 1137.94 3.34048 -4.01509 0
M  V30 11841 H 1139.64 1.69286 -2.46946 0
M  V30 11842 H 1137.18 0.813015 -1.18853 0
M  V30 11843 H 1139.14 3.9336 -1.51149 0
M  V30 11844 H 1137.86 3.2294 -0.487599 0
M  V30 11845 H 1136.52 2.64495 -2.53846 0
M  V30 11846 H 1136.17 4.8357 -1.38454 0
M  V30 11847 H 1135.87 4.96954 -3.13545 0
M  V30 11848 H 1137.39 5.59541 -2.4443 0
M  V30 11849 H 1138.81 4.0235 -4.08396 0
M  V30 11850 H 1137.2 3.63622 -4.77388 0
M  V30 11851 H 1138.27 2.32022 -4.25786 0
M  V30 11852 N 1139.62 1.30703 0.880598 0
M  V30 11853 C 1140.84 1.22714 1.6658 0
M  V30 11854 C 1141.26 -0.209303 1.87636 0
M  V30 11855 O 1140.62 -1.13771 1.42697 0
M  V30 11856 C 1140.67 1.95659 3.03974 0
M  V30 11857 O 1140.39 3.33695 2.83865 0
M  V30 11858 C 1141.89 1.9438 3.98411 0
M  V30 11859 H 1139.11 0.424478 0.519673 0
M  V30 11860 H 1141.65 1.72402 1.0999 0
M  V30 11861 H 1139.81 1.49758 3.57283 0
M  V30 11862 H 1140.22 3.70697 3.71058 0
M  V30 11863 H 1141.7 2.4995 4.92168 0
M  V30 11864 H 1142.17 0.923767 4.29375 0
M  V30 11865 H 1142.78 2.40112 3.51036 0
M  V30 11866 N 1141.09 -1.09351 1.1349 0
M  V30 11867 C 1142.04 -2.18099 0.808426 0
M  V30 11868 C 1143.04 -1.68099 -0.209571 0
M  V30 11869 O 1144.24 -1.79877 -0.0666417 0
M  V30 11870 H 1140.62 -0.711432 0.243658 0
M  V30 11871 H 1142.59 -2.42867 1.73373 0
M  V30 11872 C 1141.34 -3.46475 0.291615 0
M  V30 11873 H 1140.66 -3.85319 1.06627 0
M  V30 11874 H 1142.1 -4.23878 0.101616 0
M  V30 11875 C 1140.56 -3.22245 -0.982827 0
M  V30 11876 O 1141.09 -3.44947 -2.0585 0
M  V30 11877 N 1139.29 -2.75845 -0.914218 0
M  V30 11878 H 1138.84 -2.57571 -0.03872 0
M  V30 11879 H 1138.8 -2.60011 -1.76753 0
M  V30 11880 N 1142.57 -0.928524 -1.27343 0
M  V30 11881 C 1143.53 -0.43292 -2.25074 0
M  V30 11882 C 1144.53 0.448976 -1.54405 0
M  V30 11883 O 1145.72 0.249939 -1.72398 0
M  V30 11884 C 1142.86 0.377539 -3.38803 0
M  V30 11885 H 1144.05 -1.29642 -2.70431 0
M  V30 11886 H 1141.6 -0.709289 -1.3928 0
M  V30 11887 H 1142.34 1.25982 -2.98829 0
M  V30 11888 H 1142.12 -0.254782 -3.91271 0
M  V30 11889 H 1143.61 0.714634 -4.1144 0
M  V30 11890 N 1144.05 1.41491 -0.694123 0
M  V30 11891 C 1144.98 2.33462 -0.0422169 0
M  V30 11892 C 1145.96 1.51739 0.76872 0
M  V30 11893 O 1147.15 1.8028 0.721985 0
M  V30 11894 C 1144.28 3.35545 0.895925 0
M  V30 11895 C 1143.23 4.27568 0.192188 0
M  V30 11896 C 1142.56 5.20014 1.24459 0
M  V30 11897 C 1143.86 5.1376 -0.940626 0
M  V30 11898 H 1145.55 2.88225 -0.810363 0
M  V30 11899 H 1143.1 1.38586 -0.39114 0
M  V30 11900 H 1145.05 3.9881 1.36121 0
M  V30 11901 H 1143.77 2.79129 1.69572 0
M  V30 11902 H 1142.43 3.65726 -0.25305 0
M  V30 11903 H 1142.08 4.59913 2.03687 0
M  V30 11904 H 1141.78 5.82417 0.778734 0
M  V30 11905 H 1143.3 5.86155 1.71041 0
M  V30 11906 H 1144.72 5.70601 -0.555692 0
M  V30 11907 H 1143.11 5.85097 -1.33349 0
M  V30 11908 H 1144.18 4.51011 -1.78093 0
M  V30 11909 N 1145.53 0.438773 1.51369 0
M  V30 11910 C 1146.44 -0.378074 2.31534 0
M  V30 11911 C 1147.45 -1.02632 1.40508 0
M  V30 11912 O 1148.63 -1.02138 1.73579 0
M  V30 11913 C 1145.69 -1.46374 3.14286 0
M  V30 11914 C 1144.76 -0.835473 4.21092 0
M  V30 11915 C 1143.99 -1.86941 4.99889 0
M  V30 11916 O 1144.21 -3.0918 4.79337 0
M  V30 11917 O 1143.15 -1.45914 5.83946 0
M  V30 11918 H 1146.97 0.276401 3.0244 0
M  V30 11919 H 1144.56 0.201281 1.48038 0
M  V30 11920 H 1146.44 -2.09335 3.65728 0
M  V30 11921 H 1145.11 -2.10227 2.46143 0
M  V30 11922 H 1144.02 -0.167775 3.73724 0
M  V30 11923 H 1145.35 -0.240406 4.91613 0
M  V30 11924 N 1147.01 -1.56678 0.170181 0
M  V30 11925 C 1148.25 -1.96024 -0.475147 0
M  V30 11926 C 1148.57 -1.0588 -1.64465 0
M  V30 11927 O 1149.77 -1.34901 -2.35614 0
M  V30 11928 C 1148.23 -3.4855 -0.896704 0
M  V30 11929 C 1147.84 -4.47318 0.247142 0
M  V30 11930 C 1149.58 -3.96716 -1.51052 0
M  V30 11931 C 1147.49 -5.91082 -0.193982 0
M  V30 11932 H 1146.42 -0.731883 -0.181282 0
M  V30 11933 H 1149.07 -1.81674 0.25823 0
M  V30 11934 H 1147.45 -3.58314 -1.68603 0
M  V30 11935 H 1148.63 -4.49268 1.02445 0
M  V30 11936 H 1146.94 -4.09203 0.770839 0
M  V30 11937 H 1149.54 -5.01581 -1.85258 0
M  V30 11938 H 1149.88 -3.39588 -2.40802 0
M  V30 11939 H 1150.41 -3.89965 -0.785652 0
M  V30 11940 H 1147.15 -6.5208 0.668714 0
M  V30 11941 H 1146.67 -5.92441 -0.936675 0
M  V30 11942 H 1148.35 -6.43844 -0.638237 0
M  V30 11943 N 1148.48 0.103547 -1.57259 0
M  V30 11944 C 1149.71 0.82624 -1.90232 0
M  V30 11945 C 1150.13 1.71902 -0.763641 0
M  V30 11946 O 1149.49 1.79043 0.285181 0
M  V30 11947 C 1149.54 1.62265 -3.22029 0
M  V30 11948 O 1148.64 2.73091 -3.09023 0
M  V30 11949 H 1147.98 0.227528 -0.6238 0
M  V30 11950 H 1150.51 0.081307 -2.04438 0
M  V30 11951 H 1150.52 2.00865 -3.5513 0
M  V30 11952 H 1149.2 0.967383 -4.04493 0
M  V30 11953 H 1147.78 2.3758 -2.8742 0
M  V30 11954 N 1149.96 1.53094 0.37415 0
M  V30 11955 C 1150.91 1.79585 1.47824 0
M  V30 11956 C 1151.9 0.664513 1.55822 0
M  V30 11957 O 1153.11 0.84729 1.58811 0
M  V30 11958 H 1149.48 0.568474 0.492282 0
M  V30 11959 H 1151.46 2.72014 1.22681 0
M  V30 11960 C 1150.2 1.995 2.84772 0
M  V30 11961 H 1149.53 2.85991 2.79373 0
M  V30 11962 H 1150.97 2.22018 3.61226 0
M  V30 11963 C 1149.43 0.771673 3.27943 0
M  V30 11964 O 1149.96 -0.0437737 4.01676 0
M  V30 11965 N 1148.16 0.597547 2.8439 0
M  V30 11966 H 1147.71 1.26227 2.24554 0
M  V30 11967 H 1147.67 -0.219578 3.13632 0
M  V30 11968 N 1151.44 -0.633461 1.44309 0
M  V30 11969 C 1152.69 -1.38902 1.4625 0
M  V30 11970 C 1153 -1.95354 0.0980699 0
M  V30 11971 O 1154.21 -2.715 -0.0049983 0
M  V30 11972 C 1152.66 -2.51477 2.57463 0
M  V30 11973 C 1152.27 -2.01549 4.00103 0
M  V30 11974 C 1154.02 -3.28698 2.68622 0
M  V30 11975 C 1151.92 -3.11452 5.02744 0
M  V30 11976 H 1150.85 -0.521976 0.544112 0
M  V30 11977 H 1153.5 -0.681725 1.70367 0
M  V30 11978 H 1151.89 -3.24771 2.26582 0
M  V30 11979 H 1153.06 -1.35135 4.4054 0
M  V30 11980 H 1151.37 -1.3715 3.93165 0
M  V30 11981 H 1153.97 -4.10624 3.42479 0
M  V30 11982 H 1154.31 -3.78027 1.7436 0
M  V30 11983 H 1154.85 -2.62494 2.98901 0
M  V30 11984 H 1151.59 -2.6707 5.98627 0
M  V30 11985 H 1151.11 -3.76514 4.66902 0
M  V30 11986 H 1152.79 -3.76265 5.2634 0
M  V30 11987 N 1152.92 -1.31168 -0.873655 0
M  V30 11988 C 1154.16 -1.20821 -1.62881 0
M  V30 11989 C 1154.5 0.233994 -1.92785 0
M  V30 11990 O 1153.77 1.16588 -1.55684 0
M  V30 11991 C 1154.06 -2.04875 -2.96139 0
M  V30 11992 C 1153.91 -3.57375 -2.73136 0
M  V30 11993 C 1155.23 -1.8953 -3.97198 0
M  V30 11994 H 1152.35 -0.44026 -0.59105 0
M  V30 11995 H 1154.99 -1.6092 -1.01019 0
M  V30 11996 H 1153.14 -1.70806 -3.48938 0
M  V30 11997 H 1154.81 -4.01561 -2.27038 0
M  V30 11998 H 1153.05 -3.8099 -2.07434 0
M  V30 11999 H 1153.72 -4.1149 -3.6794 0
M  V30 12000 H 1156.2 -2.19337 -3.53596 0
M  V30 12001 H 1155.08 -2.5065 -4.8833 0
M  V30 12002 H 1155.34 -0.857576 -4.33703 0
M  V30 12003 N 1154.4 1.08748 -1.14068 0
M  V30 12004 C 1155.64 1.81065 -0.906738 0
M  V30 12005 C 1155.97 1.86057 0.566844 0
M  V30 12006 O 1155.23 1.32976 1.43582 0
M  V30 12007 C 1155.53 3.26734 -1.44843 0
M  V30 12008 C 1155.19 3.41866 -2.94005 0
M  V30 12009 C 1153.85 3.45703 -3.34729 0
M  V30 12010 C 1156.21 3.45831 -3.89937 0
M  V30 12011 C 1153.53 3.51092 -4.70055 0
M  V30 12012 C 1155.89 3.52755 -5.25116 0
M  V30 12013 C 1154.55 3.54863 -5.65357 0
M  V30 12014 H 1153.82 0.662564 -0.331799 0
M  V30 12015 H 1156.47 1.28065 -1.42378 0
M  V30 12016 H 1154.77 3.82419 -0.852239 0
M  V30 12017 H 1156.47 3.81236 -1.2434 0
M  V30 12018 H 1153.06 3.39568 -2.61518 0
M  V30 12019 H 1157.24 3.421 -3.59557 0
M  V30 12020 H 1152.5 3.51015 -5.00598 0
M  V30 12021 H 1156.67 3.54768 -5.9926 0
M  V30 12022 H 1154.3 3.58792 -6.70203 0
M  V30 12023 N 1155.87 0.935264 1.26849 0
M  V30 12024 C 1157.1 0.596249 1.98122 0
M  V30 12025 C 1157.52 -0.827452 1.69702 0
M  V30 12026 O 1156.87 -1.55095 0.961864 0
M  V30 12027 C 1156.93 0.821773 3.52036 0
M  V30 12028 O 1156.65 2.18947 3.79465 0
M  V30 12029 C 1158.15 0.492498 4.40556 0
M  V30 12030 H 1155.37 0.225242 0.632066 0
M  V30 12031 H 1157.91 1.25435 1.61512 0
M  V30 12032 H 1156.07 0.210363 3.86828 0
M  V30 12033 H 1156.48 2.24509 4.74021 0
M  V30 12034 H 1157.95 0.700953 5.47531 0
M  V30 12035 H 1158.43 -0.57228 4.35456 0
M  V30 12036 H 1159.04 1.08238 4.11296 0
M  V30 12037 N 1157.35 -1.41121 0.701616 0
M  V30 12038 C 1158.58 -2.05973 0.242896 0
M  V30 12039 C 1159 -1.52474 -1.10151 0
M  V30 12040 O 1158.36 -0.654224 -1.69085 0
M  V30 12041 C 1158.41 -3.59943 0.217614 0
M  V30 12042 O 1157.51 -4.04454 -0.805629 0
M  V30 12043 H 1156.85 -0.653581 0.117166 0
M  V30 12044 H 1159.38 -1.80777 0.958175 0
M  V30 12045 H 1159.39 -4.07969 0.0505267 0
M  V30 12046 H 1158.07 -3.98249 1.19877 0
M  V30 12047 H 1156.65 -3.6792 -0.607404 0
M  V30 12048 N 1158.83 -0.446794 -1.51134 0
M  V30 12049 C 1159.76 0.350229 -2.30858 0
M  V30 12050 C 1160.74 1.0125 -1.36684 0
M  V30 12051 O 1161.93 1.01433 -1.65605 0
M  V30 12052 C 1159.06 1.4464 -3.15748 0
M  V30 12053 C 1158.01 0.907102 -4.18277 0
M  V30 12054 C 1157.34 2.09974 -4.91747 0
M  V30 12055 C 1158.64 -0.0649758 -5.2226 0
M  V30 12056 H 1160.33 -0.315105 -2.97737 0
M  V30 12057 H 1157.88 -0.152985 -1.43185 0
M  V30 12058 H 1159.83 2.01127 -3.70305 0
M  V30 12059 H 1158.55 2.14016 -2.46708 0
M  V30 12060 H 1157.21 0.364382 -3.64785 0
M  V30 12061 H 1156.86 2.77991 -4.19202 0
M  V30 12062 H 1156.56 1.74523 -5.61084 0
M  V30 12063 H 1158.08 2.66996 -5.49131 0
M  V30 12064 H 1159.5 0.4099 -5.71833 0
M  V30 12065 H 1157.9 -0.332529 -5.99178 0
M  V30 12066 H 1158.97 -0.998681 -4.74504 0
M  V30 12067 N 1160.31 1.56586 -0.178487 0
M  V30 12068 C 1161.56 1.97098 0.464617 0
M  V30 12069 C 1161.88 1.06476 1.62767 0
M  V30 12070 O 1161.14 0.100337 1.95443 0
M  V30 12071 C 1161.44 3.43629 0.982552 0
M  V30 12072 C 1161.1 4.50853 -0.0653645 0
M  V30 12073 C 1159.77 4.79901 -0.353349 0
M  V30 12074 C 1162.12 5.15387 -0.776279 0
M  V30 12075 C 1159.45 5.70779 -1.35751 0
M  V30 12076 C 1161.8 6.07349 -1.76948 0
M  V30 12077 C 1160.46 6.34761 -2.06483 0
M  V30 12078 H 1159.73 0.721232 0.170016 0
M  V30 12079 H 1162.38 1.89559 -0.271959 0
M  V30 12080 H 1160.68 3.48155 1.79709 0
M  V30 12081 H 1162.38 3.7232 1.48926 0
M  V30 12082 H 1158.97 4.28266 0.169266 0
M  V30 12083 H 1163.15 4.9305 -0.567008 0
M  V30 12084 H 1158.41 5.90298 -1.59244 0
M  V30 12085 H 1162.58 6.56419 -2.32567 0
M  V30 12086 H 1160.21 7.0498 -2.84441 0
M  V30 12087 N 1161.79 -0.095206 1.57312 0
M  V30 12088 C 1162.75 -1.09974 2.01093 0
M  V30 12089 C 1163.75 -1.32954 0.904424 0
M  V30 12090 O 1164.94 -1.29069 1.16991 0
M  V30 12091 C 1162.07 -2.4489 2.37153 0
M  V30 12092 H 1163.26 -0.722906 2.91057 0
M  V30 12093 H 1160.82 -0.340249 1.52552 0
M  V30 12094 H 1161.55 -2.8745 1.50143 0
M  V30 12095 H 1161.34 -2.29559 3.17876 0
M  V30 12096 H 1162.83 -3.17141 2.71683 0
M  V30 12097 N 1163.26 -1.53291 -0.366026 0
M  V30 12098 C 1164.19 -1.82675 -1.45437 0
M  V30 12099 C 1165.18 -0.680227 -1.55907 0
M  V30 12100 O 1166.36 -0.930032 -1.70482 0
M  V30 12101 C 1163.49 -2.01626 -2.8278 0
M  V30 12102 C 1162.44 -3.17391 -2.87135 0
M  V30 12103 C 1161.77 -3.21634 -4.27148 0
M  V30 12104 C 1163.07 -4.5599 -2.54697 0
M  V30 12105 H 1164.76 -2.73818 -1.21096 0
M  V30 12106 H 1162.31 -1.31754 -0.581108 0
M  V30 12107 H 1164.26 -2.20765 -3.58944 0
M  V30 12108 H 1162.99 -1.07193 -3.08508 0
M  V30 12109 H 1161.65 -2.98071 -2.13422 0
M  V30 12110 H 1161.29 -2.2484 -4.49951 0
M  V30 12111 H 1160.99 -3.99414 -4.30978 0
M  V30 12112 H 1162.52 -3.42957 -5.05186 0
M  V30 12113 H 1163.93 -4.75294 -3.20575 0
M  V30 12114 H 1162.33 -5.36008 -2.69844 0
M  V30 12115 H 1163.4 -4.61133 -1.49949 0
M  V30 12116 N 1164.74 0.6258 -1.44643 0
M  V30 12117 C 1165.65 1.76611 -1.5442 0
M  V30 12118 C 1166.67 1.68614 -0.429576 0
M  V30 12119 O 1167.84 1.89296 -0.687686 0
M  V30 12120 C 1164.91 3.13015 -1.49071 0
M  V30 12121 C 1163.97 3.32604 -2.71428 0
M  V30 12122 C 1163.2 4.62501 -2.66325 0
M  V30 12123 O 1163.43 5.43651 -1.72626 0
M  V30 12124 O 1162.36 4.84408 -3.57258 0
M  V30 12125 H 1166.19 1.71315 -2.50769 0
M  V30 12126 H 1163.77 0.787677 -1.26949 0
M  V30 12127 H 1165.65 3.94318 -1.48631 0
M  V30 12128 H 1164.33 3.18842 -0.558686 0
M  V30 12129 H 1163.24 2.50959 -2.77435 0
M  V30 12130 H 1164.57 3.31642 -3.63695 0
M  V30 12131 N 1166.22 1.31629 0.866686 0
M  V30 12132 C 1167.15 1.13886 1.9775 0
M  V30 12133 C 1168.13 0.0414887 1.62547 0
M  V30 12134 O 1169.32 0.198534 1.87452 0
M  V30 12135 C 1166.44 0.740858 3.30498 0
M  V30 12136 C 1165.49 1.84175 3.84684 0
M  V30 12137 S 1166.32 3.44781 4.09739 0
M  V30 12138 C 1167.48 3.06925 5.45479 0
M  V30 12139 H 1167.71 2.07923 2.12497 0
M  V30 12140 H 1165.24 1.16152 1.01725 0
M  V30 12141 H 1167.2 0.517974 4.07219 0
M  V30 12142 H 1165.86 -0.18045 3.13581 0
M  V30 12143 H 1165.06 1.51597 4.8066 0
M  V30 12144 H 1164.66 2.01986 3.14766 0
M  V30 12145 H 1166.95 2.56022 6.27263 0
M  V30 12146 H 1167.89 4.01877 5.8301 0
M  V30 12147 H 1168.3 2.44276 5.0891 0
M  V30 12148 N 1167.7 -1.08142 1.14644 0
M  V30 12149 C 1168.63 -2.17139 0.858667 0
M  V30 12150 C 1169.61 -1.69064 -0.187452 0
M  V30 12151 O 1170.8 -1.94151 -0.0435458 0
M  V30 12152 C 1167.93 -3.45648 0.33834 0
M  V30 12153 C 1166.88 -4.07129 1.32021 0
M  V30 12154 C 1166.21 -5.30623 0.659075 0
M  V30 12155 C 1167.51 -4.48095 2.68343 0
M  V30 12156 H 1169.2 -2.41468 1.77012 0
M  V30 12157 H 1166.75 -1.16052 0.852523 0
M  V30 12158 H 1168.7 -4.21216 0.124611 0
M  V30 12159 H 1167.42 -3.2088 -0.608553 0
M  V30 12160 H 1166.08 -3.33596 1.52016 0
M  V30 12161 H 1165.73 -5.02142 -0.293711 0
M  V30 12162 H 1165.43 -5.72714 1.31427 0
M  V30 12163 H 1166.95 -6.08903 0.454933 0
M  V30 12164 H 1168.37 -5.14828 2.5224 0
M  V30 12165 H 1166.76 -5.01113 3.30161 0
M  V30 12166 H 1167.83 -3.59852 3.25015 0
M  V30 12167 N 1169.18 -0.941978 -1.26351 0
M  V30 12168 C 1170.11 -0.469913 -2.28723 0
M  V30 12169 C 1171.09 0.477218 -1.63269 0
M  V30 12170 O 1172.27 0.378902 -1.90468 0
M  V30 12171 C 1169.4 0.264971 -3.46288 0
M  V30 12172 C 1168.36 -0.595682 -4.23834 0
M  V30 12173 C 1167.68 0.269208 -5.34022 0
M  V30 12174 C 1168.98 -1.86743 -4.87775 0
M  V30 12175 H 1170.68 -1.32551 -2.6846 0
M  V30 12176 H 1168.22 -0.638809 -1.29055 0
M  V30 12177 H 1170.18 0.606259 -4.17016 0
M  V30 12178 H 1168.9 1.15471 -3.05506 0
M  V30 12179 H 1167.56 -0.919875 -3.54872 0
M  V30 12180 H 1167.21 1.15832 -4.89481 0
M  V30 12181 H 1166.91 -0.30325 -5.86817 0
M  V30 12182 H 1168.43 0.605748 -6.07588 0
M  V30 12183 H 1169.85 -1.59333 -5.50714 0
M  V30 12184 H 1168.24 -2.38452 -5.50691 0
M  V30 12185 H 1169.31 -2.57831 -4.10671 0
M  V30 12186 N 1170.66 1.40747 -0.709091 0
M  V30 12187 C 1171.6 2.30741 -0.0523584 0
M  V30 12188 C 1172.57 1.4784 0.757145 0
M  V30 12189 O 1173.76 1.76595 0.72242 0
M  V30 12190 C 1170.9 3.34 0.868203 0
M  V30 12191 C 1170.01 4.31972 0.0488686 0
M  V30 12192 C 1169.15 5.223 0.968311 0
M  V30 12193 C 1168.18 6.11934 0.142682 0
M  V30 12194 N 1167.32 6.947 1.01665 0
M  V30 12195 H 1172.16 2.86338 -0.825509 0
M  V30 12196 H 1169.7 1.41013 -0.418785 0
M  V30 12197 H 1171.66 3.92431 1.41611 0
M  V30 12198 H 1170.29 2.79921 1.6076 0
M  V30 12199 H 1169.34 3.75377 -0.616137 0
M  V30 12200 H 1170.65 4.95291 -0.590625 0
M  V30 12201 H 1169.8 5.85631 1.58498 0
M  V30 12202 H 1168.54 4.5924 1.64164 0
M  V30 12203 H 1167.55 5.47639 -0.486965 0
M  V30 12204 H 1168.77 6.77052 -0.527046 0
M  V30 12205 H 1166.72 6.34236 1.67575 0
M  V30 12206 H 1166.64 7.54759 0.433045 0
M  V30 12207 H 1167.9 7.62487 1.6197 0
M  V30 12208 N 1172.13 0.454803 1.50895 0
M  V30 12209 C 1173.06 -0.337982 2.31041 0
M  V30 12210 C 1174.04 -1.00523 1.37219 0
M  V30 12211 O 1175.23 -1.00553 1.66141 0
M  V30 12212 C 1172.36 -1.42964 3.1651 0
M  V30 12213 C 1171.31 -0.884907 4.18752 0
M  V30 12214 C 1170.64 -2.07363 4.92854 0
M  V30 12215 C 1171.94 0.0926716 5.22218 0
M  V30 12216 H 1173.63 0.33089 2.97566 0
M  V30 12217 H 1171.18 0.160577 1.43102 0
M  V30 12218 H 1173.13 -1.9916 3.71367 0
M  V30 12219 H 1171.86 -2.12705 2.47839 0
M  V30 12220 H 1170.52 -0.345031 3.64973 0
M  V30 12221 H 1170.16 -2.75764 4.2067 0
M  V30 12222 H 1169.86 -1.71545 5.62002 0
M  V30 12223 H 1171.39 -2.6408 5.5054 0
M  V30 12224 H 1172.8 -0.379568 5.72042 0
M  V30 12225 H 1171.2 0.3643 5.98993 0
M  V30 12226 H 1172.27 1.02383 4.73968 0
M  V30 12227 N 1173.61 -1.56489 0.186789 0
M  V30 12228 C 1174.54 -2.21705 -0.732739 0
M  V30 12229 C 1175.52 -1.17751 -1.22755 0
M  V30 12230 O 1176.71 -1.46231 -1.27789 0
M  V30 12231 C 1173.84 -2.86992 -1.95584 0
M  V30 12232 C 1172.79 -3.97118 -1.59628 0
M  V30 12233 C 1172.12 -4.49529 -2.89531 0
M  V30 12234 C 1173.42 -5.15941 -0.812518 0
M  V30 12235 H 1175.11 -2.98802 -0.189094 0
M  V30 12236 H 1172.66 -1.43722 -0.0895099 0
M  V30 12237 H 1174.61 -3.31295 -2.60426 0
M  V30 12238 H 1173.33 -2.07287 -2.52388 0
M  V30 12239 H 1171.99 -3.53494 -0.971475 0
M  V30 12240 H 1171.64 -3.66596 -3.44407 0
M  V30 12241 H 1171.34 -5.23832 -2.66221 0
M  V30 12242 H 1172.87 -4.96528 -3.55376 0
M  V30 12243 H 1174.28 -5.56841 -1.36386 0
M  V30 12244 H 1172.68 -5.96259 -0.677862 0
M  V30 12245 H 1173.75 -4.84535 0.188095 0
M  V30 12246 N 1175.09 0.086862 -1.5736 0
M  V30 12247 C 1176.34 0.790008 -1.8678 0
M  V30 12248 C 1176.67 1.77977 -0.777042 0
M  V30 12249 O 1175.94 1.93317 0.21419 0
M  V30 12250 C 1176.23 1.51143 -3.26845 0
M  V30 12251 C 1176.08 0.539106 -4.46558 0
M  V30 12252 C 1177.4 2.46003 -3.64926 0
M  V30 12253 H 1174.52 0.285741 -0.679354 0
M  V30 12254 H 1177.16 0.0534655 -1.89925 0
M  V30 12255 H 1175.31 2.13928 -3.24295 0
M  V30 12256 H 1176.98 -0.0823679 -4.61226 0
M  V30 12257 H 1175.22 -0.146842 -4.33551 0
M  V30 12258 H 1175.9 1.0812 -5.41308 0
M  V30 12259 H 1178.37 1.93306 -3.68473 0
M  V30 12260 H 1177.25 2.93493 -4.63846 0
M  V30 12261 H 1177.51 3.30133 -2.94049 0
M  V30 12262 N 1176.57 1.53483 0.357892 0
M  V30 12263 C 1177.8 1.73704 1.11851 0
M  V30 12264 C 1178.21 0.469388 1.83285 0
M  V30 12265 O 1177.55 -0.567894 1.74702 0
M  V30 12266 C 1177.61 2.85301 2.18732 0
M  V30 12267 C 1177.27 4.25395 1.66998 0
M  V30 12268 C 1178.27 5.07472 1.12994 0
M  V30 12269 C 1175.96 4.71832 1.72279 0
M  V30 12270 C 1177.95 6.34081 0.649574 0
M  V30 12271 C 1175.64 5.98417 1.23854 0
M  V30 12272 C 1176.64 6.79374 0.702839 0
M  V30 12273 O 1176.32 8.03583 0.225763 0
M  V30 12274 H 1176.06 0.584251 0.34004 0
M  V30 12275 H 1178.61 2.01054 0.420313 0
M  V30 12276 H 1176.84 2.53442 2.92068 0
M  V30 12277 H 1178.53 2.93627 2.80247 0
M  V30 12278 H 1179.29 4.72766 1.08248 0
M  V30 12279 H 1175.17 4.08886 2.12916 0
M  V30 12280 H 1178.72 6.97218 0.230774 0
M  V30 12281 H 1174.61 6.32622 1.28296 0
M  V30 12282 H 1175.38 8.17775 0.344381 0
M  V30 12283 N 1178.05 -0.61812 1.44973 0
M  V30 12284 C 1179.29 -1.37468 1.48145 0
M  V30 12285 C 1179.61 -1.94628 0.120366 0
M  V30 12286 O 1178.88 -1.76548 -0.848982 0
M  V30 12287 H 1177.46 -0.510293 0.545536 0
M  V30 12288 H 1180.13 -0.726598 1.8085 0
M  V30 12289 H 1179.22 -2.19944 2.2143 0
M  V30 12290 N 1179.52 -1.32087 -0.859693 0
M  V30 12291 C 1180.93 -1.20107 -1.42938 0
M  V30 12292 C 1181.29 0.188411 -1.95293 0
M  V30 12293 O 1180.41 1.08683 -1.87128 0
M  V30 12294 C 1181.01 -2.17436 -2.59821 0
M  V30 12295 C 1179.56 -2.09359 -3.12803 0
M  V30 12296 C 1178.71 -2.06086 -1.85537 0
M  V30 12297 H 1181.66 -1.43989 -0.667302 0
M  V30 12298 H 1181.68 -1.76996 -3.36828 0
M  V30 12299 H 1181.2 -3.18555 -2.21685 0
M  V30 12300 H 1179.3 -1.1147 -3.55535 0
M  V30 12301 H 1179.41 -2.98947 -3.74389 0
M  V30 12302 H 1177.77 -1.51251 -2.04928 0
M  V30 12303 H 1178.56 -3.08978 -1.49625 0
M  V30 12304 N 1181 1.07532 -1.15215 0
M  V30 12305 C 1182.25 1.80093 -0.925891 0
M  V30 12306 C 1182.58 1.86648 0.547079 0
M  V30 12307 O 1181.83 1.34492 1.42164 0
M  V30 12308 C 1182.13 3.2518 -1.483 0
M  V30 12309 C 1181.8 3.38728 -2.97614 0
M  V30 12310 C 1180.46 3.42133 -3.38376 0
M  V30 12311 C 1182.81 3.41676 -3.93583 0
M  V30 12312 C 1180.14 3.46086 -4.73752 0
M  V30 12313 C 1182.49 3.47166 -5.28828 0
M  V30 12314 C 1181.15 3.48847 -5.69089 0
M  V30 12315 H 1180.42 0.659007 -0.338808 0
M  V30 12316 H 1183.07 1.26548 -1.43728 0
M  V30 12317 H 1181.38 3.81493 -0.892751 0
M  V30 12318 H 1183.07 3.79895 -1.28376 0
M  V30 12319 H 1179.66 3.36775 -2.65105 0
M  V30 12320 H 1183.85 3.38268 -3.63165 0
M  V30 12321 H 1179.1 3.45686 -5.04293 0
M  V30 12322 H 1183.28 3.48393 -6.02989 0
M  V30 12323 H 1180.9 3.51663 -6.73971 0
M  V30 12324 N 1182.48 0.948665 1.2585 0
M  V30 12325 C 1183.73 0.59905 1.93018 0
M  V30 12326 C 1184.05 -0.865813 1.74725 0
M  V30 12327 O 1183.32 -1.61602 1.10732 0
M  V30 12328 H 1181.9 0.218565 0.71431 0
M  V30 12329 H 1184.56 1.20561 1.53137 0
M  V30 12330 H 1183.66 0.823244 3.01047 0
M  V30 12331 N 1183.96 -1.40369 0.716545 0
M  V30 12332 C 1185.19 -2.04884 0.265757 0
M  V30 12333 C 1185.6 -1.54095 -1.09779 0
M  V30 12334 O 1184.94 -0.692944 -1.70129 0
M  V30 12335 C 1185 -3.59103 0.16887 0
M  V30 12336 C 1184.67 -4.32785 1.46786 0
M  V30 12337 C 1185.66 -4.6067 2.40997 0
M  V30 12338 C 1183.35 -4.71676 1.72705 0
M  V30 12339 C 1185.34 -5.26432 3.59372 0
M  V30 12340 C 1183.03 -5.3717 2.91362 0
M  V30 12341 C 1184.03 -5.64478 3.84517 0
M  V30 12342 O 1183.71 -6.28618 5.01093 0
M  V30 12343 H 1183.45 -0.665794 0.117025 0
M  V30 12344 H 1186 -1.80746 0.975698 0
M  V30 12345 H 1184.23 -3.82064 -0.597023 0
M  V30 12346 H 1185.92 -4.05145 -0.247483 0
M  V30 12347 H 1186.69 -4.31087 2.22236 0
M  V30 12348 H 1182.56 -4.49789 1.0105 0
M  V30 12349 H 1186.11 -5.47663 4.321 0
M  V30 12350 H 1182.01 -5.66173 3.1003 0
M  V30 12351 H 1182.77 -6.47115 5.01183 0
M  V30 12352 N 1185.44 -0.462799 -1.50652 0
M  V30 12353 C 1186.69 0.0966838 -2.01468 0
M  V30 12354 C 1187 1.41529 -1.35014 0
M  V30 12355 O 1188.2 2.05923 -1.76941 0
M  V30 12356 C 1186.66 0.222826 -3.5921 0
M  V30 12357 C 1186.27 -1.08686 -4.34616 0
M  V30 12358 C 1188.01 0.734711 -4.18094 0
M  V30 12359 C 1185.92 -0.924964 -5.84122 0
M  V30 12360 H 1184.85 0.0399078 -0.752943 0
M  V30 12361 H 1187.5 -0.596437 -1.73536 0
M  V30 12362 H 1185.88 0.979539 -3.83694 0
M  V30 12363 H 1187.06 -1.85388 -4.21862 0
M  V30 12364 H 1185.37 -1.52922 -3.87303 0
M  V30 12365 H 1187.97 0.872734 -5.2753 0
M  V30 12366 H 1188.31 1.72389 -3.7893 0
M  V30 12367 H 1188.84 0.0356139 -3.97784 0
M  V30 12368 H 1185.58 -1.88727 -6.27744 0
M  V30 12369 H 1185.1 -0.198181 -5.99473 0
M  V30 12370 H 1186.78 -0.588262 -6.4432 0
M  V30 12371 N 1186.91 1.56388 -0.195085 0
M  V30 12372 C 1187.86 2.19091 0.725793 0
M  V30 12373 C 1188.83 1.13814 1.20977 0
M  V30 12374 O 1190.02 1.42065 1.27366 0
M  V30 12375 C 1187.16 2.85427 1.93973 0
M  V30 12376 C 1186.27 4.05229 1.49712 0
M  V30 12377 C 1185.4 4.59421 2.66656 0
M  V30 12378 C 1184.44 5.71581 2.19001 0
M  V30 12379 N 1183.58 6.2018 3.29123 0
M  V30 12380 H 1188.42 2.97429 0.184334 0
M  V30 12381 H 1185.96 1.46886 0.0792434 0
M  V30 12382 H 1187.92 3.22057 2.65208 0
M  V30 12383 H 1186.55 2.09652 2.4545 0
M  V30 12384 H 1185.6 3.74261 0.680641 0
M  V30 12385 H 1186.91 4.8635 1.10749 0
M  V30 12386 H 1186.06 4.98357 3.46014 0
M  V30 12387 H 1184.8 3.77407 3.08893 0
M  V30 12388 H 1183.81 5.32174 1.38097 0
M  V30 12389 H 1185.03 6.55413 1.77795 0
M  V30 12390 H 1182.98 5.41088 3.70891 0
M  V30 12391 H 1182.9 6.96353 2.94328 0
M  V30 12392 H 1184.16 6.63769 4.08694 0
M  V30 12393 N 1188.39 -0.0785156 1.57404 0
M  V30 12394 C 1189.34 -1.11278 2.04255 0
M  V30 12395 C 1190.33 -1.40482 0.946633 0
M  V30 12396 O 1191.54 -1.39968 1.13177 0
M  V30 12397 H 1187.92 -0.376157 0.65116 0
M  V30 12398 H 1189.89 -0.691437 2.90279 0
M  V30 12399 C 1188.64 -2.42006 2.49656 0
M  V30 12400 H 1187.96 -2.20383 3.33574 0
M  V30 12401 H 1189.4 -3.12837 2.86197 0
M  V30 12402 C 1187.86 -3.07488 1.37669 0
M  V30 12403 O 1188.39 -3.95285 0.715036 0
M  V30 12404 N 1186.59 -2.68004 1.1235 0
M  V30 12405 H 1186.14 -1.96698 1.66336 0
M  V30 12406 H 1186.1 -3.12141 0.376238 0
M  V30 12407 N 1189.87 -1.5367 -0.349747 0
M  V30 12408 C 1191.28 -1.62135 -0.925704 0
M  V30 12409 C 1191.63 -0.498725 -1.89756 0
M  V30 12410 O 1190.76 0.372481 -2.1317 0
M  V30 12411 C 1191.35 -2.93885 -1.68573 0
M  V30 12412 C 1189.91 -3.04632 -2.2108 0
M  V30 12413 C 1189.06 -2.57541 -1.02801 0
M  V30 12414 H 1192.01 -1.58182 -0.128065 0
M  V30 12415 H 1192.03 -2.82577 -2.54815 0
M  V30 12416 H 1191.54 -3.75571 -0.978153 0
M  V30 12417 H 1189.64 -2.27567 -2.95032 0
M  V30 12418 H 1189.76 -4.09993 -2.47876 0
M  V30 12419 H 1188.12 -2.12798 -1.39962 0
M  V30 12420 H 1188.9 -3.4166 -0.335157 0
M  V30 12421 N 1191.35 0.610423 -1.45298 0
M  V30 12422 C 1192.58 1.39419 -1.52466 0
M  V30 12423 C 1192.99 1.88563 -0.1551 0
M  V30 12424 O 1192.33 1.62692 0.853061 0
M  V30 12425 C 1192.39 2.63515 -2.44541 0
M  V30 12426 C 1192.06 2.36028 -3.91331 0
M  V30 12427 C 1193.05 1.96567 -4.81308 0
M  V30 12428 C 1190.74 2.49028 -4.36223 0
M  V30 12429 C 1192.73 1.70461 -6.14184 0
M  V30 12430 C 1190.42 2.22536 -5.6914 0
M  V30 12431 C 1191.42 1.83314 -6.5794 0
M  V30 12432 O 1191.1 1.57131 -7.88394 0
M  V30 12433 H 1190.84 0.433278 -0.518889 0
M  V30 12434 H 1193.39 0.751803 -1.91147 0
M  V30 12435 H 1191.62 3.30463 -2.00826 0
M  V30 12436 H 1193.31 3.25554 -2.42424 0
M  V30 12437 H 1194.08 1.86062 -4.4789 0
M  V30 12438 H 1189.95 2.78524 -3.67349 0
M  V30 12439 H 1193.5 1.39773 -6.83454 0
M  V30 12440 H 1189.4 2.32657 -6.02114 0
M  V30 12441 H 1190.16 1.71207 -8.00394 0
M  V30 12442 N 1192.83 1.32541 0.852676 0
M  V30 12443 C 1193.77 1.21602 1.98282 0
M  V30 12444 C 1194.77 0.120384 1.68972 0
M  V30 12445 O 1195.97 0.283441 1.77754 0
M  V30 12446 H 1192.35 0.376994 0.650676 0
M  V30 12447 H 1194.32 2.17179 2.04636 0
M  V30 12448 C 1193.07 0.957965 3.34243 0
M  V30 12449 H 1192.39 1.79324 3.57327 0
M  V30 12450 H 1193.83 0.921673 4.13861 0
M  V30 12451 C 1192.29 -0.339271 3.35187 0
M  V30 12452 O 1192.82 -1.3505 3.78318 0
M  V30 12453 N 1191.03 -0.361944 2.88337 0
M  V30 12454 H 1190.57 0.461497 2.53432 0
M  V30 12455 H 1190.53 -1.22976 2.89352 0
M  V30 12456 N 1194.3 -1.0692 1.15784 0
M  V30 12457 C 1195.55 -1.78983 0.929944 0
M  V30 12458 C 1195.87 -1.87884 -0.543969 0
M  V30 12459 O 1197.07 -2.56513 -0.889578 0
M  V30 12460 C 1195.53 -3.21657 1.61446 0
M  V30 12461 C 1195.14 -3.20943 3.12569 0
M  V30 12462 C 1196.88 -3.98299 1.46828 0
M  V30 12463 C 1194.79 -4.58298 3.73788 0
M  V30 12464 H 1193.72 -0.670809 0.344284 0
M  V30 12465 H 1196.37 -1.19975 1.38846 0
M  V30 12466 H 1194.75 -3.80885 1.08364 0
M  V30 12467 H 1195.92 -2.71334 3.72444 0
M  V30 12468 H 1194.24 -2.57799 3.26999 0
M  V30 12469 H 1196.84 -4.99822 1.89952 0
M  V30 12470 H 1197.18 -4.14213 0.416358 0
M  V30 12471 H 1197.71 -3.45577 1.97031 0
M  V30 12472 H 1194.45 -4.47588 4.789 0
M  V30 12473 H 1193.97 -5.08126 3.18698 0
M  V30 12474 H 1195.65 -5.27262 3.74972 0
M  V30 12475 N 1195.78 -0.955326 -1.25345 0
M  V30 12476 C 1197.03 -0.610484 -1.93079 0
M  V30 12477 C 1197.36 0.852591 -1.74817 0
M  V30 12478 O 1196.61 1.6272 -1.08723 0
M  V30 12479 C 1196.91 -0.916173 -3.45458 0
M  V30 12480 C 1196.58 -2.36539 -3.83875 0
M  V30 12481 C 1195.24 -2.76152 -3.94073 0
M  V30 12482 C 1197.59 -3.30652 -4.02888 0
M  V30 12483 C 1194.92 -4.08944 -4.20692 0
M  V30 12484 C 1197.27 -4.63057 -4.31 0
M  V30 12485 C 1195.94 -5.02464 -4.39415 0
M  V30 12486 H 1195.21 -0.223392 -0.706525 0
M  V30 12487 H 1197.85 -1.20449 -1.48877 0
M  V30 12488 H 1196.16 -0.23978 -3.91066 0
M  V30 12489 H 1197.85 -0.627929 -3.96053 0
M  V30 12490 H 1194.44 -2.04819 -3.76493 0
M  V30 12491 H 1198.63 -3.01237 -3.94423 0
M  V30 12492 H 1193.88 -4.39118 -4.25423 0
M  V30 12493 H 1198.06 -5.3596 -4.44657 0
M  V30 12494 H 1195.69 -6.05386 -4.59795 0
M  V30 12495 N 1197.26 1.39987 -0.723979 0
M  V30 12496 C 1198.54 1.94637 -0.1939 0
M  V30 12497 C 1198.92 1.66156 1.30212 0
M  V30 12498 O 1198.27 0.983783 2.06238 0
M  V30 12499 C 1198.48 3.4517 -0.515652 0
M  V30 12500 C 1199.82 4.22113 -0.458919 0
M  V30 12501 O 1200.85 3.53318 -0.452198 0
M  V30 12502 O 1199.71 5.44695 -0.443783 0
M  V30 12503 H 1196.8 0.826394 -0.0316615 0
M  V30 12504 H 1199.35 1.49548 -0.802085 0
M  V30 12505 H 1198.12 3.5929 -1.55004 0
M  V30 12506 H 1197.74 3.97413 0.122067 0
M  V30 12507 N 1198.74 0.470782 1.50404 0
M  V30 12508 C 1199.99 -0.0841494 2.01925 0
M  V30 12509 C 1200.31 -1.40244 1.35487 0
M  V30 12510 O 1199.58 -1.89409 0.500111 0
M  V30 12511 H 1198.16 -0.0340884 0.746222 0
M  V30 12512 H 1200.82 0.621133 1.84738 0
M  V30 12513 H 1199.92 -0.235877 3.11207 0
M  V30 12514 N 1200.22 -1.56282 0.203376 0
M  V30 12515 C 1201.46 -1.98105 -0.433844 0
M  V30 12516 C 1201.8 -1.09044 -1.60695 0
M  V30 12517 O 1201.07 -0.144193 -1.93965 0
M  V30 12518 C 1201.35 -3.4903 -0.885992 0
M  V30 12519 C 1201.21 -4.48867 0.289501 0
M  V30 12520 C 1202.53 -4.03871 -1.7486 0
M  V30 12521 H 1199.65 -0.720252 -0.156224 0
M  V30 12522 H 1202.29 -1.87681 0.295963 0
M  V30 12523 H 1200.44 -3.58045 -1.50785 0
M  V30 12524 H 1202.11 -4.51883 0.92734 0
M  V30 12525 H 1200.35 -4.23495 0.939934 0
M  V30 12526 H 1201.02 -5.51956 -0.0695128 0
M  V30 12527 H 1203.5 -3.97688 -1.22407 0
M  V30 12528 H 1202.38 -5.09827 -2.03391 0
M  V30 12529 H 1202.64 -3.49637 -2.70567 0
M  V30 12530 N 1201.7 0.070167 -1.57444 0
M  V30 12531 C 1202.94 0.767842 -1.86513 0
M  V30 12532 C 1203.26 1.78659 -0.796257 0
M  V30 12533 O 1204.46 2.53395 -0.974845 0
M  V30 12534 C 1202.92 1.41654 -3.30851 0
M  V30 12535 C 1202.53 0.436273 -4.45871 0
M  V30 12536 C 1204.27 2.09649 -3.69117 0
M  V30 12537 C 1202.18 1.09098 -5.8125 0
M  V30 12538 H 1201.11 0.290519 -0.695784 0
M  V30 12539 H 1203.76 0.0211697 -1.83488 0
M  V30 12540 H 1202.14 2.21153 -3.28493 0
M  V30 12541 H 1203.32 -0.329022 -4.59624 0
M  V30 12542 H 1201.63 -0.139314 -4.16167 0
M  V30 12543 H 1204.23 2.59411 -4.67558 0
M  V30 12544 H 1204.57 2.89663 -2.99 0
M  V30 12545 H 1205.1 1.36979 -3.73472 0
M  V30 12546 H 1201.84 0.331128 -6.54663 0
M  V30 12547 H 1201.36 1.8271 -5.71294 0
M  V30 12548 H 1203.04 1.61034 -6.2664 0
M  V30 12549 N 1203.17 1.53854 0.341593 0
M  V30 12550 C 1204.42 1.71447 1.08322 0
M  V30 12551 C 1204.75 0.477289 1.88243 0
M  V30 12552 O 1204.03 -0.525695 1.87261 0
M  V30 12553 C 1204.31 2.97917 2.02281 0
M  V30 12554 C 1204.16 4.31847 1.25809 0
M  V30 12555 C 1205.48 3.20065 3.0207 0
M  V30 12556 H 1202.6 0.623847 0.392408 0
M  V30 12557 H 1205.24 1.86527 0.361594 0
M  V30 12558 H 1203.39 2.85191 2.63815 0
M  V30 12559 H 1205.07 4.56427 0.668737 0
M  V30 12560 H 1203.31 4.30169 0.560119 0
M  V30 12561 H 1203.98 5.16522 1.94704 0
M  V30 12562 H 1206.46 3.32135 2.50651 0
M  V30 12563 H 1205.33 4.09947 3.65013 0
M  V30 12564 H 1205.59 2.36452 3.73554 0
M  V30 12565 N 1204.65 -0.602709 1.4562 0
M  V30 12566 C 1205.9 -1.36359 1.50113 0
M  V30 12567 C 1206.23 -1.93663 0.144297 0
M  V30 12568 O 1205.51 -1.75337 -0.841851 0
M  V30 12569 C 1205.79 -2.50788 2.58413 0
M  V30 12570 C 1205.64 -1.98649 4.03557 0
M  V30 12571 C 1206.96 -3.52905 2.62957 0
M  V30 12572 H 1204.08 -0.494455 0.54652 0
M  V30 12573 H 1206.72 -0.678957 1.77455 0
M  V30 12574 H 1204.87 -3.09191 2.3523 0
M  V30 12575 H 1206.54 -1.44857 4.37966 0
M  V30 12576 H 1204.79 -1.29615 4.13984 0
M  V30 12577 H 1205.46 -2.81159 4.7503 0
M  V30 12578 H 1207.93 -3.0435 2.83743 0
M  V30 12579 H 1206.81 -4.30454 3.40589 0
M  V30 12580 H 1207.07 -4.0884 1.68233 0
M  V30 12581 N 1206.13 -1.32992 -0.845635 0
M  V30 12582 C 1207.38 -1.23415 -1.59536 0
M  V30 12583 C 1207.69 0.200278 -1.94572 0
M  V30 12584 O 1208.9 0.417993 -2.68263 0
M  V30 12585 C 1207.35 -2.16207 -2.8772 0
M  V30 12586 C 1206.96 -3.64782 -2.60073 0
M  V30 12587 C 1208.71 -2.15488 -3.65739 0
M  V30 12588 C 1206.61 -4.49508 -3.84313 0
M  V30 12589 H 1205.54 -0.458366 -0.598679 0
M  V30 12590 H 1208.19 -1.58012 -0.932981 0
M  V30 12591 H 1206.58 -1.74535 -3.55462 0
M  V30 12592 H 1207.75 -4.14852 -2.00585 0
M  V30 12593 H 1206.06 -3.67723 -1.95369 0
M  V30 12594 H 1208.66 -2.76021 -4.57948 0
M  V30 12595 H 1209 -1.14818 -4.00153 0
M  V30 12596 H 1209.54 -2.55487 -3.04912 0
M  V30 12597 H 1206.28 -5.51027 -3.55035 0
M  V30 12598 H 1205.8 -4.04185 -4.43165 0
M  V30 12599 H 1207.48 -4.62969 -4.51961 0
M  V30 12600 N 1207.61 1.06304 -1.1635 0
M  V30 12601 C 1208.83 1.83338 -0.969639 0
M  V30 12602 C 1209.26 1.81945 0.477231 0
M  V30 12603 O 1208.62 1.22018 1.34094 0
M  V30 12604 C 1208.66 3.2785 -1.50155 0
M  V30 12605 O 1207.77 4.06281 -0.707805 0
M  V30 12606 H 1207.11 0.567293 -0.345072 0
M  V30 12607 H 1209.64 1.34033 -1.54584 0
M  V30 12608 H 1209.65 3.7867 -1.51898 0
M  V30 12609 H 1208.32 3.28179 -2.55483 0
M  V30 12610 H 1206.9 3.65055 -0.760872 0
M  V30 12611 N 1209.09 0.96196 1.24836 0
M  V30 12612 C 1210.33 0.621634 1.93038 0
M  V30 12613 C 1210.66 -0.840257 1.75081 0
M  V30 12614 O 1209.94 -1.60381 1.10038 0
M  V30 12615 C 1210.22 0.990107 3.46221 0
M  V30 12616 C 1210.08 2.50827 3.73371 0
M  V30 12617 C 1211.39 0.520478 4.37011 0
M  V30 12618 H 1208.51 0.227312 0.701069 0
M  V30 12619 H 1211.16 1.19993 1.47315 0
M  V30 12620 H 1209.31 0.498008 3.85295 0
M  V30 12621 H 1210.98 3.07469 3.4389 0
M  V30 12622 H 1209.22 2.94277 3.18722 0
M  V30 12623 H 1209.89 2.71659 4.80526 0
M  V30 12624 H 1212.37 0.942703 4.05281 0
M  V30 12625 H 1211.24 0.806918 5.42937 0
M  V30 12626 H 1211.5 -0.579507 4.38285 0
M  V30 12627 N 1210.56 -1.39601 0.731392 0
M  V30 12628 C 1211.81 -2.01364 0.287048 0
M  V30 12629 C 1212.16 -1.56991 -1.11227 0
M  V30 12630 O 1211.46 -0.787202 -1.74682 0
M  V30 12631 C 1211.65 -3.55934 0.323352 0
M  V30 12632 C 1211.48 -4.15314 1.72466 0
M  V30 12633 C 1210.25 -4.48059 2.33605 0
M  V30 12634 C 1212.45 -4.39098 2.67764 0
M  V30 12635 N 1210.43 -4.9292 3.65927 0
M  V30 12636 C 1211.8 -4.86124 3.84816 0
M  V30 12637 C 1213.86 -4.2116 2.65572 0
M  V30 12638 C 1212.56 -5.17095 5.00005 0
M  V30 12639 C 1214.59 -4.53242 3.79902 0
M  V30 12640 C 1213.95 -5.00471 4.95689 0
M  V30 12641 H 1210.05 -0.76724 0.151217 0
M  V30 12642 H 1212.63 -1.6958 0.956588 0
M  V30 12643 H 1210.8 -3.87114 -0.315819 0
M  V30 12644 H 1212.53 -4.04461 -0.1392 0
M  V30 12645 H 1209.29 -4.35734 1.85561 0
M  V30 12646 H 1209.71 -5.19713 4.33851 0
M  V30 12647 H 1214.35 -3.83852 1.77251 0
M  V30 12648 H 1212.07 -5.5331 5.8896 0
M  V30 12649 H 1215.66 -4.40988 3.795 0
M  V30 12650 H 1214.54 -5.24826 5.8269 0
M  V30 12651 N 1212.04 -0.478751 -1.50152 0
M  V30 12652 C 1212.95 0.316554 -2.32455 0
M  V30 12653 C 1213.97 0.98871 -1.4318 0
M  V30 12654 O 1215.14 0.974998 -1.76226 0
M  V30 12655 C 1212.21 1.3799 -3.18056 0
M  V30 12656 C 1211.27 0.723534 -4.23159 0
M  V30 12657 C 1210.5 1.73621 -5.0467 0
M  V30 12658 O 1210.73 2.96362 -4.87366 0
M  V30 12659 O 1209.66 1.30381 -5.87609 0
M  V30 12660 H 1213.49 -0.356491 -3.016 0
M  V30 12661 H 1211.07 -0.24046 -1.47452 0
M  V30 12662 H 1212.95 1.99565 -3.71149 0
M  V30 12663 H 1211.63 2.03627 -2.5163 0
M  V30 12664 H 1210.54 0.0686296 -3.74037 0
M  V30 12665 H 1211.87 0.109979 -4.92077 0
M  V30 12666 N 1213.52 1.56172 -0.211661 0
M  V30 12667 C 1214.77 1.97214 0.423008 0
M  V30 12668 C 1215.08 1.10203 1.616 0
M  V30 12669 O 1216.29 1.411 2.31955 0
M  V30 12670 C 1214.74 3.50805 0.803977 0
M  V30 12671 C 1214.35 4.46505 -0.365654 0
M  V30 12672 C 1216.1 4.00582 1.4048 0
M  V30 12673 C 1214 5.91388 0.0371986 0
M  V30 12674 H 1212.93 0.736432 0.161814 0
M  V30 12675 H 1215.58 1.80925 -0.306307 0
M  V30 12676 H 1213.97 3.62659 1.59043 0
M  V30 12677 H 1215.14 4.46394 -1.14321 0
M  V30 12678 H 1213.46 4.07015 -0.879061 0
M  V30 12679 H 1216.05 5.06317 1.71894 0
M  V30 12680 H 1216.4 3.45853 2.31713 0
M  V30 12681 H 1216.93 3.9191 0.681984 0
M  V30 12682 H 1213.67 6.50078 -0.841367 0
M  V30 12683 H 1213.19 5.94716 0.77927 0
M  V30 12684 H 1214.87 6.4531 0.467309 0
M  V30 12685 N 1215 -0.0618163 1.57479 0
M  V30 12686 C 1216.24 -0.760193 1.88013 0
M  V30 12687 C 1216.58 -1.76718 0.805258 0
M  V30 12688 O 1215.85 -1.93633 -0.183408 0
M  V30 12689 C 1216.14 -1.45924 3.29208 0
M  V30 12690 C 1215.99 -0.467994 4.47359 0
M  V30 12691 C 1217.31 -2.40166 3.68793 0
M  V30 12692 H 1214.43 -0.274896 0.683814 0
M  V30 12693 H 1217.07 -0.0232433 1.89986 0
M  V30 12694 H 1215.22 -2.08741 3.27657 0
M  V30 12695 H 1216.89 0.155735 4.61037 0
M  V30 12696 H 1215.13 0.215797 4.33263 0
M  V30 12697 H 1215.8 -0.994942 5.42959 0
M  V30 12698 H 1218.28 -1.87419 3.71501 0
M  V30 12699 H 1217.16 -2.86076 4.68457 0
M  V30 12700 H 1217.42 -3.25413 2.99264 0
M  V30 12701 N 1216.48 -1.54033 -0.333429 0
M  V30 12702 C 1217.72 -1.71426 -1.0704 0
M  V30 12703 C 1218.05 -0.485496 -1.8886 0
M  V30 12704 O 1217.32 0.500555 -1.89397 0
M  V30 12705 H 1215.9 -0.632034 -0.398173 0
M  V30 12706 H 1218.56 -1.91312 -0.372252 0
M  V30 12707 H 1217.65 -2.58958 -1.74205 0
M  V30 12708 N 1217.95 0.594978 -1.45938 0
M  V30 12709 C 1218.89 1.71909 -1.51591 0
M  V30 12710 C 1219.9 1.57671 -0.405416 0
M  V30 12711 O 1221.09 1.65321 -0.673144 0
M  V30 12712 C 1218.19 3.10041 -1.3685 0
M  V30 12713 C 1217.36 3.50399 -2.61801 0
M  V30 12714 C 1216.42 4.67542 -2.41435 0
M  V30 12715 O 1215.45 4.74022 -3.15106 0
M  V30 12716 N 1216.65 5.6163 -1.46808 0
M  V30 12717 H 1219.41 1.67518 -2.48511 0
M  V30 12718 H 1216.97 0.78062 -1.41838 0
M  V30 12719 H 1218.97 3.86183 -1.21017 0
M  V30 12720 H 1217.54 3.08868 -0.481589 0
M  V30 12721 H 1216.76 2.64088 -2.92662 0
M  V30 12722 H 1218.04 3.74125 -3.44831 0
M  V30 12723 H 1217.44 5.5912 -0.860333 0
M  V30 12724 H 1216 6.37252 -1.36942 0
M  V30 12725 N 1219.43 1.33438 0.838571 0
M  V30 12726 C 1220.36 1.19552 1.9555 0
M  V30 12727 C 1221.38 0.12642 1.62308 0
M  V30 12728 O 1222.57 0.376868 1.74476 0
M  V30 12729 C 1219.67 0.811273 3.29046 0
M  V30 12730 C 1218.84 1.97207 3.9042 0
M  V30 12731 C 1217.9 1.56875 5.02271 0
M  V30 12732 O 1216.92 2.28314 5.21403 0
M  V30 12733 N 1218.13 0.473924 5.78562 0
M  V30 12734 H 1220.89 2.15769 2.07999 0
M  V30 12735 H 1218.45 1.26187 1.01432 0
M  V30 12736 H 1220.44 0.523553 4.01299 0
M  V30 12737 H 1219.01 -0.0602291 3.12542 0
M  V30 12738 H 1218.23 2.4254 3.10754 0
M  V30 12739 H 1219.52 2.74878 4.28158 0
M  V30 12740 H 1218.92 -0.120306 5.65572 0
M  V30 12741 H 1217.48 0.245877 6.51336 0
M  V30 12742 N 1220.91 -1.05686 1.16912 0
M  V30 12743 C 1222.16 -1.78244 0.95254 0
M  V30 12744 C 1222.48 -1.87924 -0.520525 0
M  V30 12745 O 1221.75 -1.39239 -1.37802 0
M  V30 12746 H 1220.33 -0.660228 0.349439 0
M  V30 12747 H 1222.99 -1.27634 1.47294 0
M  V30 12748 H 1222.09 -2.80102 1.37657 0
M  V30 12749 N 1222.39 -0.968567 -1.24324 0
M  V30 12750 C 1223.64 -0.629682 -1.9204 0
M  V30 12751 C 1223.96 0.837906 -1.7608 0
M  V30 12752 O 1223.23 1.5982 -1.13289 0
M  V30 12753 H 1221.81 -0.229901 -0.710742 0
M  V30 12754 H 1224.47 -1.22982 -1.512 0
M  V30 12755 H 1223.57 -0.871034 -2.99699 0
M  V30 12756 N 1223.87 1.39211 -0.738786 0
M  V30 12757 C 1225.11 2.0004 -0.28782 0
M  V30 12758 C 1225.44 1.58921 1.13 0
M  V30 12759 O 1224.71 0.839193 1.77015 0
M  V30 12760 H 1223.29 0.739805 -0.103425 0
M  V30 12761 H 1225.95 1.70202 -0.949587 0
M  V30 12762 H 1225.04 3.10251 -0.339208 0
M  V30 12763 N 1225.34 0.486708 1.49896 0
M  V30 12764 C 1226.27 -0.288898 2.31706 0
M  V30 12765 C 1227.26 -0.975901 1.3932 0
M  V30 12766 O 1228.44 -0.970065 1.68236 0
M  V30 12767 C 1225.57 -1.36218 3.19471 0
M  V30 12768 C 1224.52 -0.795884 4.20535 0
M  V30 12769 C 1223.85 -1.96862 4.97141 0
M  V30 12770 C 1225.15 0.203421 5.21904 0
M  V30 12771 H 1226.84 0.393934 2.96797 0
M  V30 12772 H 1224.39 0.190894 1.42729 0
M  V30 12773 H 1226.34 -1.91238 3.75508 0
M  V30 12774 H 1225.07 -2.074 2.52295 0
M  V30 12775 H 1223.73 -0.267538 3.65622 0
M  V30 12776 H 1223.37 -2.66779 4.26425 0
M  V30 12777 H 1223.07 -1.59585 5.65514 0
M  V30 12778 H 1224.6 -2.52343 5.56017 0
M  V30 12779 H 1226.01 -0.258144 5.72719 0
M  V30 12780 H 1224.41 0.491273 5.98086 0
M  V30 12781 H 1225.48 1.12414 4.7169 0
M  V30 12782 N 1226.82 -1.56058 0.219941 0
M  V30 12783 C 1228.05 -2.031 -0.42014 0
M  V30 12784 C 1228.47 -1.09875 -1.52673 0
M  V30 12785 O 1227.83 -0.0866458 -1.81093 0
M  V30 12786 C 1227.88 -3.48389 -0.93047 0
M  V30 12787 O 1226.98 -3.583 -2.04192 0
M  V30 12788 H 1226.32 -0.657129 -0.0952772 0
M  V30 12789 H 1228.85 -2.01787 0.338105 0
M  V30 12790 H 1228.86 -3.88678 -1.2407 0
M  V30 12791 H 1227.54 -4.15725 -0.120539 0
M  V30 12792 H 1226.12 -3.29898 -1.73845 0
M  V30 12793 N 1228.3 0.053464 -1.57509 0
M  V30 12794 C 1229.55 0.750212 -1.88414 0
M  V30 12795 C 1229.88 1.76288 -0.814619 0
M  V30 12796 O 1229.16 1.93728 0.173136 0
M  V30 12797 C 1229.44 1.44176 -3.29978 0
M  V30 12798 C 1229.29 0.444263 -4.47601 0
M  V30 12799 C 1230.61 2.38207 -3.70061 0
M  V30 12800 H 1227.73 0.271266 -0.685262 0
M  V30 12801 H 1230.37 0.0131676 -1.89995 0
M  V30 12802 H 1228.52 2.07001 -3.2876 0
M  V30 12803 H 1230.19 -0.180182 -4.60948 0
M  V30 12804 H 1228.44 -0.238771 -4.33142 0
M  V30 12805 H 1229.11 0.966134 -5.43479 0
M  V30 12806 H 1231.58 1.85446 -3.7249 0
M  V30 12807 H 1230.46 2.83588 -4.69967 0
M  V30 12808 H 1230.72 3.23821 -3.00985 0
M  V30 12809 N 1229.78 1.54207 0.325255 0
M  V30 12810 C 1230.71 1.86467 1.40543 0
M  V30 12811 C 1231.69 0.721324 1.54048 0
M  V30 12812 O 1232.88 0.974905 1.67956 0
M  V30 12813 C 1230.01 2.09052 2.77335 0
M  V30 12814 C 1228.96 3.24893 2.78619 0
M  V30 12815 C 1228.29 3.32846 4.1847 0
M  V30 12816 C 1229.59 4.62582 2.42518 0
M  V30 12817 H 1231.28 2.76932 1.13794 0
M  V30 12818 H 1228.83 1.33248 0.545971 0
M  V30 12819 H 1230.78 2.30204 3.52964 0
M  V30 12820 H 1229.5 1.15335 3.05558 0
M  V30 12821 H 1228.16 3.03625 2.05444 0
M  V30 12822 H 1227.81 2.3669 4.43832 0
M  V30 12823 H 1227.51 4.10701 4.20237 0
M  V30 12824 H 1229.03 3.56231 4.95915 0
M  V30 12825 H 1230.45 4.83627 3.07861 0
M  V30 12826 H 1228.84 5.42974 2.55538 0
M  V30 12827 H 1229.91 4.64946 1.3767 0
M  V30 12828 N 1231.26 -0.58723 1.46251 0
M  V30 12829 C 1232.67 -0.910129 1.31106 0
M  V30 12830 C 1232.87 -1.99557 0.279141 0
M  V30 12831 O 1231.93 -2.50466 -0.319867 0
M  V30 12832 C 1233.24 -1.33177 2.69601 0
M  V30 12833 C 1234.79 -1.44486 2.77656 0
M  V30 12834 C 1235.27 -1.90018 4.16722 0
M  V30 12835 N 1236.76 -1.97219 4.19117 0
M  V30 12836 C 1237.49 -2.33714 5.23608 0
M  V30 12837 N 1236.99 -2.69034 6.3843 0
M  V30 12838 N 1238.78 -2.3423 5.10972 0
M  V30 12839 H 1230.93 0.12987 2.12003 0
M  V30 12840 H 1233.19 -0.00456718 0.947989 0
M  V30 12841 H 1232.9 -0.608243 3.464 0
M  V30 12842 H 1232.77 -2.29421 2.99409 0
M  V30 12843 H 1235.16 -2.15926 2.01147 0
M  V30 12844 H 1235.24 -0.465047 2.51537 0
M  V30 12845 H 1234.89 -1.19159 4.93724 0
M  V30 12846 H 1234.82 -2.88949 4.40245 0
M  V30 12847 H 1237.31 -1.72431 3.36268 0
M  V30 12848 H 1237.62 -2.95822 7.13939 0
M  V30 12849 H 1235.97 -2.66683 6.41798 0
M  V30 12850 H 1239.16 -2.06056 4.20308 0
M  V30 12851 H 1239.33 -2.62345 5.92519 0
M  V30 12852 N 1232.74 -1.33881 -0.831482 0
M  V30 12853 C 1233.96 -1.28812 -1.61911 0
M  V30 12854 C 1234.38 0.139519 -1.88284 0
M  V30 12855 O 1233.74 1.08397 -1.46821 0
M  V30 12856 C 1233.79 -2.06806 -2.96502 0
M  V30 12857 O 1233.51 -3.44 -2.71285 0
M  V30 12858 C 1235.01 -2.09033 -3.90922 0
M  V30 12859 H 1232.23 -0.443473 -0.50356 0
M  V30 12860 H 1234.77 -1.76365 -1.03516 0
M  V30 12861 H 1232.93 -1.62915 -3.51479 0
M  V30 12862 H 1233.34 -3.84213 -3.57044 0
M  V30 12863 H 1234.82 -2.68044 -4.82552 0
M  V30 12864 H 1235.29 -1.08249 -4.25651 0
M  V30 12865 H 1235.9 -2.52975 -3.41883 0
M  V30 12866 N 1234.21 1.05064 -1.1747 0
M  V30 12867 C 1235.46 1.78089 -0.963883 0
M  V30 12868 C 1235.79 1.87766 0.507365 0
M  V30 12869 O 1235.04 1.37477 1.39279 0
M  V30 12870 C 1235.34 3.21961 -1.55164 0
M  V30 12871 C 1235.01 3.32339 -3.04732 0
M  V30 12872 C 1233.67 3.34878 -3.45557 0
M  V30 12873 C 1236.02 3.3325 -4.00741 0
M  V30 12874 C 1233.35 3.35959 -4.80987 0
M  V30 12875 C 1235.7 3.3587 -5.36073 0
M  V30 12876 C 1234.37 3.36697 -5.7636 0
M  V30 12877 H 1233.64 0.651672 -0.35271 0
M  V30 12878 H 1236.28 1.23471 -1.4638 0
M  V30 12879 H 1234.59 3.79514 -0.973471 0
M  V30 12880 H 1236.29 3.77087 -1.36406 0
M  V30 12881 H 1232.88 3.31076 -2.72188 0
M  V30 12882 H 1237.06 3.30488 -3.70258 0
M  V30 12883 H 1232.32 3.34911 -5.11512 0
M  V30 12884 H 1236.49 3.35524 -6.10243 0
M  V30 12885 H 1234.12 3.37288 -6.81279 0
M  V30 12886 N 1235.69 0.975146 1.23809 0
M  V30 12887 C 1237.11 0.682899 1.44252 0
M  V30 12888 C 1237.31 -0.752739 1.86912 0
M  V30 12889 O 1236.36 -1.52579 2.01186 0
M  V30 12890 C 1237.68 1.67335 2.49839 0
M  V30 12891 C 1239.22 1.6868 2.63659 0
M  V30 12892 C 1239.7 2.66542 3.72451 0
M  V30 12893 N 1241.19 2.65028 3.79887 0
M  V30 12894 C 1241.93 3.37421 4.63611 0
M  V30 12895 N 1241.42 4.19355 5.51465 0
M  V30 12896 N 1243.21 3.2621 4.57759 0
M  V30 12897 H 1235.37 1.9026 0.94418 0
M  V30 12898 H 1237.63 0.819543 0.476502 0
M  V30 12899 H 1237.33 2.69978 2.25399 0
M  V30 12900 H 1237.21 1.45201 3.48133 0
M  V30 12901 H 1239.6 0.667438 2.87453 0
M  V30 12902 H 1239.68 1.94878 1.65699 0
M  V30 12903 H 1239.32 3.68617 3.49405 0
M  V30 12904 H 1239.25 2.3762 4.69941 0
M  V30 12905 H 1241.74 2.05562 3.171 0
M  V30 12906 H 1242.05 4.71461 6.12327 0
M  V30 12907 H 1240.4 4.23447 5.51106 0
M  V30 12908 H 1243.59 2.61656 3.88142 0
M  V30 12909 H 1243.76 3.82889 5.22781 0
M  V30 12910 N 1237.17 -1.38817 0.746158 0
M  V30 12911 C 1238.1 -2.33144 0.128836 0
M  V30 12912 C 1239.08 -1.54487 -0.711873 0
M  V30 12913 O 1240.27 -1.82836 -0.654577 0
M  V30 12914 C 1237.4 -3.38639 -0.770772 0
M  V30 12915 C 1236.35 -4.27987 -0.0333669 0
M  V30 12916 C 1235.68 -5.24274 -1.05073 0
M  V30 12917 C 1236.98 -5.09915 1.13066 0
M  V30 12918 H 1238.67 -2.85019 0.916778 0
M  V30 12919 H 1236.22 -1.37039 0.442306 0
M  V30 12920 H 1238.17 -4.03587 -1.21225 0
M  V30 12921 H 1236.89 -2.8523 -1.59095 0
M  V30 12922 H 1235.55 -3.64534 0.388612 0
M  V30 12923 H 1235.2 -4.67156 -1.86478 0
M  V30 12924 H 1234.9 -5.84906 -0.562037 0
M  V30 12925 H 1236.42 -5.92099 -1.49169 0
M  V30 12926 H 1237.84 -5.68145 0.767084 0
M  V30 12927 H 1236.23 -5.79744 1.54972 0
M  V30 12928 H 1237.3 -4.4409 1.94709 0
M  V30 12929 N 1238.65 -0.49465 -1.49636 0
M  V30 12930 C 1239.58 0.33366 -2.25748 0
M  V30 12931 C 1240.56 0.97591 -1.30057 0
M  V30 12932 O 1241.74 1.00725 -1.59332 0
M  V30 12933 C 1238.87 1.46938 -3.05167 0
M  V30 12934 C 1237.92 0.942149 -4.15964 0
M  V30 12935 S 1238.75 -0.162019 -5.35255 0
M  V30 12936 C 1239.9 0.977022 -6.18227 0
M  V30 12937 H 1240.14 -0.312361 -2.95655 0
M  V30 12938 H 1237.67 -0.279854 -1.51843 0
M  V30 12939 H 1239.63 2.12017 -3.5151 0
M  V30 12940 H 1238.29 2.087 -2.34741 0
M  V30 12941 H 1237.48 1.79309 -4.71025 0
M  V30 12942 H 1237.08 0.368687 -3.72178 0
M  V30 12943 H 1239.38 1.88363 -6.50788 0
M  V30 12944 H 1240.32 0.465168 -7.0657 0
M  V30 12945 H 1240.73 1.24149 -5.50679 0
M  V30 12946 N 1240.13 1.55939 -0.228214 0
M  V30 12947 C 1241.54 1.59094 0.12704 0
M  V30 12948 C 1241.74 1.24514 1.58425 0
M  V30 12949 O 1240.8 0.983544 2.32557 0
M  V30 12950 C 1242.11 2.99999 -0.205268 0
M  V30 12951 C 1243.66 3.1265 -0.148046 0
M  V30 12952 C 1244.13 4.55743 -0.454122 0
M  V30 12953 N 1245.62 4.61435 -0.403937 0
M  V30 12954 C 1246.36 5.70101 -0.614173 0
M  V30 12955 N 1245.86 6.87104 -0.88654 0
M  V30 12956 N 1247.65 5.5944 -0.546153 0
M  V30 12957 H 1239.8 1.7669 -1.17874 0
M  V30 12958 H 1242.06 0.821599 -0.472947 0
M  V30 12959 H 1241.77 3.29976 -1.21692 0
M  V30 12960 H 1241.64 3.74177 0.476573 0
M  V30 12961 H 1244.03 2.82465 0.854255 0
M  V30 12962 H 1244.11 2.40786 -0.863462 0
M  V30 12963 H 1243.75 4.86646 -1.45389 0
M  V30 12964 H 1243.68 5.25841 0.282561 0
M  V30 12965 H 1246.18 3.77363 -0.201388 0
M  V30 12966 H 1246.49 7.65839 -1.03488 0
M  V30 12967 H 1244.83 6.88833 -0.923808 0
M  V30 12968 H 1248.02 4.6691 -0.33355 0
M  V30 12969 H 1248.2 6.44061 -0.713402 0
M  V30 12970 N 1241.6 -0.0451101 1.57535 0
M  V30 12971 C 1242.85 -0.740209 1.88809 0
M  V30 12972 C 1243.18 -1.75854 0.823956 0
M  V30 12973 O 1242.46 -1.93817 -0.16286 0
M  V30 12974 C 1242.74 -1.42424 3.30737 0
M  V30 12975 C 1242.59 -0.42052 4.4783 0
M  V30 12976 C 1243.91 -2.36241 3.7132 0
M  V30 12977 H 1241.03 -0.267628 0.686691 0
M  V30 12978 H 1243.67 -0.00309149 1.9 0
M  V30 12979 H 1241.82 -2.05254 3.29853 0
M  V30 12980 H 1243.5 0.204625 4.60846 0
M  V30 12981 H 1241.74 0.261739 4.3301 0
M  V30 12982 H 1242.41 -0.937298 5.43984 0
M  V30 12983 H 1244.89 -1.83468 3.73468 0
M  V30 12984 H 1243.76 -2.81091 4.71465 0
M  V30 12985 H 1244.02 -3.2222 3.02699 0
M  V30 12986 N 1243.08 -1.54377 -0.317073 0
M  V30 12987 C 1244.01 -1.8721 -1.39552 0
M  V30 12988 C 1244.99 -0.729483 -1.53664 0
M  V30 12989 O 1246.18 -0.983799 -1.67437 0
M  V30 12990 C 1243.31 -2.1052 -2.76222 0
M  V30 12991 C 1242.26 -3.26366 -2.76892 0
M  V30 12992 C 1241.59 -3.35061 -4.16699 0
M  V30 12993 C 1242.89 -4.63862 -2.40061 0
M  V30 12994 H 1244.58 -2.77532 -1.12323 0
M  V30 12995 H 1242.13 -1.33536 -0.538897 0
M  V30 12996 H 1244.08 -2.32073 -3.51739 0
M  V30 12997 H 1242.81 -1.16953 -3.04942 0
M  V30 12998 H 1241.46 -3.0471 -2.03831 0
M  V30 12999 H 1241.11 -2.39041 -4.4257 0
M  V30 13000 H 1240.81 -4.12923 -4.18053 0
M  V30 13001 H 1242.34 -3.58856 -4.94019 0
M  V30 13002 H 1243.75 -4.85252 -3.05292 0
M  V30 13003 H 1242.15 -5.44321 -2.52655 0
M  V30 13004 H 1243.22 -4.6567 -1.35202 0
M  V30 13005 N 1244.56 0.579466 -1.4656 0
M  V30 13006 C 1245.51 1.68829 -1.5737 0
M  V30 13007 C 1246.48 1.60759 -0.417825 0
M  V30 13008 O 1247.66 1.79923 -0.635001 0
M  V30 13009 C 1244.8 3.07166 -1.573 0
M  V30 13010 C 1243.92 3.25837 -2.83645 0
M  V30 13011 C 1243.05 4.54441 -2.75057 0
M  V30 13012 C 1242.09 4.66467 -3.96327 0
M  V30 13013 N 1241.23 5.86401 -3.86107 0
M  V30 13014 H 1246.07 1.58928 -2.52083 0
M  V30 13015 H 1243.6 0.774526 -1.25058 0
M  V30 13016 H 1245.56 3.8724 -1.55245 0
M  V30 13017 H 1244.19 3.15956 -0.661166 0
M  V30 13018 H 1243.24 2.39345 -2.95666 0
M  V30 13019 H 1244.56 3.30591 -3.73512 0
M  V30 13020 H 1243.71 5.42748 -2.71126 0
M  V30 13021 H 1242.45 4.52131 -1.82836 0
M  V30 13022 H 1241.45 3.76577 -4.00587 0
M  V30 13023 H 1242.68 4.70554 -4.89649 0
M  V30 13024 H 1240.62 5.85082 -2.96673 0
M  V30 13025 H 1240.54 5.92437 -4.69632 0
M  V30 13026 H 1241.81 6.7713 -3.86155 0
M  V30 13027 N 1246.04 1.3432 0.824371 0
M  V30 13028 C 1246.97 1.2842 1.95014 0
M  V30 13029 C 1247.95 0.161925 1.69328 0
M  V30 13030 O 1249.13 0.354052 1.90945 0
M  V30 13031 C 1246.26 1.03741 3.31444 0
M  V30 13032 C 1245.22 2.12419 3.71567 0
M  V30 13033 C 1244.54 1.72931 5.05963 0
M  V30 13034 C 1245.84 3.54235 3.83817 0
M  V30 13035 H 1247.54 2.22614 2.00209 0
M  V30 13036 H 1245.08 1.07165 0.961856 0
M  V30 13037 H 1247.04 0.982586 4.09784 0
M  V30 13038 H 1245.76 0.0598892 3.26545 0
M  V30 13039 H 1244.42 2.16968 2.955 0
M  V30 13040 H 1244.07 0.738433 4.9755 0
M  V30 13041 H 1243.77 2.45668 5.3378 0
M  V30 13042 H 1245.29 1.68941 5.86763 0
M  V30 13043 H 1246.71 3.52106 4.52432 0
M  V30 13044 H 1245.1 4.25581 4.23085 0
M  V30 13045 H 1246.17 3.91682 2.85856 0
M  V30 13046 N 1247.52 -1.0444 1.18026 0
M  V30 13047 C 1248.76 -1.77838 0.974756 0
M  V30 13048 C 1249.1 -1.87792 -0.494755 0
M  V30 13049 O 1248.37 -1.38327 -1.36733 0
M  V30 13050 C 1248.65 -3.21315 1.62569 0
M  V30 13051 C 1248.51 -3.19327 3.16781 0
M  V30 13052 C 1249.83 -4.19337 1.33583 0
M  V30 13053 H 1246.94 -0.645575 0.35553 0
M  V30 13054 H 1249.59 -1.22023 1.45638 0
M  V30 13055 H 1247.74 -3.68974 1.21617 0
M  V30 13056 H 1249.41 -2.79687 3.66842 0
M  V30 13057 H 1247.65 -2.57461 3.49137 0
M  V30 13058 H 1248.32 -4.20626 3.5746 0
M  V30 13059 H 1250.8 -3.80208 1.69059 0
M  V30 13060 H 1249.67 -5.17953 1.81702 0
M  V30 13061 H 1249.94 -4.41346 0.258016 0
M  V30 13062 N 1248.99 -0.981699 -1.2329 0
M  V30 13063 C 1250.41 -0.690539 -1.43888 0
M  V30 13064 C 1250.61 0.742816 -1.87309 0
M  V30 13065 O 1249.67 1.5151 -2.01993 0
M  V30 13066 C 1250.98 -1.68657 -2.48948 0
M  V30 13067 C 1252.53 -1.70076 -2.62761 0
M  V30 13068 C 1253 -2.68513 -3.71032 0
M  V30 13069 N 1254.49 -2.67039 -3.78476 0
M  V30 13070 C 1255.23 -3.39874 -4.61815 0
M  V30 13071 N 1254.72 -4.22273 -5.49233 0
M  V30 13072 N 1256.52 -3.28633 -4.56023 0
M  V30 13073 H 1248.67 -1.90758 -0.934077 0
M  V30 13074 H 1250.93 -0.822058 -0.472149 0
M  V30 13075 H 1250.64 -2.7117 -2.23964 0
M  V30 13076 H 1250.51 -1.47045 -3.47358 0
M  V30 13077 H 1252.9 -0.682673 -2.87095 0
M  V30 13078 H 1252.98 -1.95754 -1.64663 0
M  V30 13079 H 1252.62 -3.70464 -3.47446 0
M  V30 13080 H 1252.55 -2.40109 -4.68674 0
M  V30 13081 H 1255.04 -2.07241 -3.16006 0
M  V30 13082 H 1255.36 -4.74702 -6.09818 0
M  V30 13083 H 1253.7 -4.26364 -5.48852 0
M  V30 13084 H 1256.89 -2.6371 -3.86749 0
M  V30 13085 H 1257.07 -3.85656 -5.20743 0
M  V30 13086 N 1250.47 1.3842 -0.753509 0
M  V30 13087 C 1251.72 2.00119 -0.309633 0
M  V30 13088 C 1252.05 1.59811 1.10863 0
M  V30 13089 O 1251.3 0.827013 1.77367 0
M  V30 13090 C 1251.6 3.55375 -0.379937 0
M  V30 13091 C 1251.27 4.15393 -1.75384 0
M  V30 13092 C 1249.93 4.31499 -2.12984 0
M  V30 13093 C 1252.28 4.48503 -2.65508 0
M  V30 13094 C 1249.61 4.78011 -3.4018 0
M  V30 13095 C 1251.96 4.96431 -3.92095 0
M  V30 13096 C 1250.63 5.10744 -4.29764 0
M  V30 13097 H 1249.9 0.732286 -0.113303 0
M  V30 13098 H 1252.54 1.65468 -0.963975 0
M  V30 13099 H 1250.85 3.90161 0.357969 0
M  V30 13100 H 1252.54 4.00996 -0.0180738 0
M  V30 13101 H 1249.13 4.03271 -1.45156 0
M  V30 13102 H 1253.32 4.35661 -2.37724 0
M  V30 13103 H 1248.57 4.87277 -3.69284 0
M  V30 13104 H 1252.75 5.21021 -4.62072 0
M  V30 13105 H 1250.38 5.46545 -5.28387 0
M  V30 13106 N 1251.95 0.502579 1.49372 0
M  V30 13107 C 1252.88 -0.264307 2.31999 0
M  V30 13108 C 1253.86 -0.96107 1.40348 0
M  V30 13109 O 1255.05 -0.952167 1.69255 0
M  V30 13110 C 1252.18 -1.32822 3.20898 0
M  V30 13111 C 1251.13 -0.751236 4.21355 0
M  V30 13112 C 1250.46 -1.91578 4.99201 0
M  V30 13113 C 1251.76 0.258764 5.21659 0
M  V30 13114 H 1253.45 0.425391 2.96363 0
M  V30 13115 H 1251 0.206022 1.42519 0
M  V30 13116 H 1252.95 -1.87245 3.77515 0
M  V30 13117 H 1251.67 -2.04712 2.54481 0
M  V30 13118 H 1250.33 -0.228743 3.65886 0
M  V30 13119 H 1249.98 -2.62241 4.2923 0
M  V30 13120 H 1249.68 -1.53578 5.67175 0
M  V30 13121 H 1251.2 -2.46432 5.58663 0
M  V30 13122 H 1252.62 -0.197385 5.7296 0
M  V30 13123 H 1251.02 0.554681 5.97531 0
M  V30 13124 H 1252.09 1.1741 4.70471 0
M  V30 13125 N 1253.43 -1.55816 0.23648 0
M  V30 13126 C 1254.84 -1.84757 -0.268622 0
M  V30 13127 C 1255.19 -1.15815 -1.58371 0
M  V30 13128 O 1254.32 -0.432923 -2.12025 0
M  V30 13129 C 1254.91 -3.35177 -0.494167 0
M  V30 13130 C 1253.47 -3.64382 -0.943551 0
M  V30 13131 C 1252.62 -2.77296 -0.0149191 0
M  V30 13132 H 1255.57 -1.51908 0.459308 0
M  V30 13133 H 1255.59 -3.56192 -1.3382 0
M  V30 13134 H 1255.1 -3.85327 0.463138 0
M  V30 13135 H 1253.2 -3.19701 -1.91369 0
M  V30 13136 H 1253.31 -4.72244 -0.807626 0
M  V30 13137 H 1251.68 -2.49243 -0.524419 0
M  V30 13138 H 1252.46 -3.30249 0.937571 0
M  V30 13139 N 1254.91 0.036755 -1.57557 0
M  V30 13140 C 1255.87 1.02435 -2.05036 0
M  V30 13141 C 1256.87 1.29506 -0.953146 0
M  V30 13142 O 1258.06 1.24638 -1.217 0
M  V30 13143 C 1255.19 2.3592 -2.46079 0
M  V30 13144 H 1256.38 0.614384 -2.93539 0
M  V30 13145 H 1253.94 0.283396 -1.53709 0
M  V30 13146 H 1254.67 2.8168 -1.60708 0
M  V30 13147 H 1254.46 2.17603 -3.26177 0
M  V30 13148 H 1255.95 3.06839 -2.83266 0
M  V30 13149 N 1256.39 1.54543 0.308881 0
M  V30 13150 C 1257.32 1.87947 1.38557 0
M  V30 13151 C 1258.3 0.737622 1.53275 0
M  V30 13152 O 1259.48 0.992664 1.66913 0
M  V30 13153 C 1256.61 2.11982 2.75102 0
M  V30 13154 C 1255.57 3.2783 2.75158 0
M  V30 13155 C 1254.89 3.37266 4.14917 0
M  V30 13156 C 1256.19 4.65129 2.37598 0
M  V30 13157 H 1257.89 2.78123 1.1085 0
M  V30 13158 H 1255.43 1.3382 0.531808 0
M  V30 13159 H 1257.38 2.33935 3.50503 0
M  V30 13160 H 1256.11 1.18569 3.04317 0
M  V30 13161 H 1254.77 3.05787 2.02212 0
M  V30 13162 H 1254.42 2.41384 4.41296 0
M  V30 13163 H 1254.12 4.15135 4.15857 0
M  V30 13164 H 1255.64 3.61471 4.92109 0
M  V30 13165 H 1257.05 4.86865 3.02714 0
M  V30 13166 H 1255.45 5.45653 2.49765 0
M  V30 13167 H 1256.52 4.6638 1.32731 0
M  V30 13168 N 1257.86 -0.571685 1.46866 0
M  V30 13169 C 1258.8 -1.69475 1.54307 0
M  V30 13170 C 1259.81 -1.57006 0.430449 0
M  V30 13171 O 1261 -1.64229 0.69936 0
M  V30 13172 C 1258.1 -3.07824 1.41766 0
M  V30 13173 C 1257.27 -3.46189 2.67342 0
M  V30 13174 C 1256.33 -4.63642 2.48843 0
M  V30 13175 O 1255.36 -4.68949 3.22608 0
M  V30 13176 N 1256.56 -5.59223 1.55724 0
M  V30 13177 H 1259.32 -1.63543 2.51145 0
M  V30 13178 H 1256.88 -0.757957 1.43062 0
M  V30 13179 H 1258.88 -3.84208 1.27146 0
M  V30 13180 H 1257.45 -3.08063 0.530667 0
M  V30 13181 H 1256.67 -2.59399 2.96826 0
M  V30 13182 H 1257.95 -3.68591 3.50739 0
M  V30 13183 H 1257.35 -5.5768 0.949175 0
M  V30 13184 H 1255.91 -6.34993 1.47063 0
M  V30 13185 N 1259.34 -1.34755 -0.817236 0
M  V30 13186 C 1260.76 -1.14561 -1.11121 0
M  V30 13187 C 1260.96 0.0490776 -2.0144 0
M  V30 13188 O 1260.01 0.722897 -2.41931 0
M  V30 13189 C 1261.33 -2.44356 -1.75244 0
M  V30 13190 C 1262.87 -2.50465 -1.87713 0
M  V30 13191 C 1263.35 -3.80276 -2.55253 0
M  V30 13192 N 1264.84 -3.81468 -2.62747 0
M  V30 13193 C 1265.58 -4.78634 -3.15749 0
M  V30 13194 N 1265.07 -5.86184 -3.6927 0
M  V30 13195 N 1266.86 -4.66083 -3.14203 0
M  V30 13196 H 1259.02 -2.11293 -0.2166 0
M  V30 13197 H 1261.28 -0.934629 -0.158661 0
M  V30 13198 H 1260.98 -3.31899 -1.16344 0
M  V30 13199 H 1260.86 -2.58117 -2.75055 0
M  V30 13200 H 1263.25 -1.63358 -2.45761 0
M  V30 13201 H 1263.33 -2.40627 -0.867887 0
M  V30 13202 H 1262.97 -4.67776 -1.97858 0
M  V30 13203 H 1262.9 -3.87399 -3.56693 0
M  V30 13204 H 1265.39 -3.03753 -2.24817 0
M  V30 13205 H 1265.7 -6.56332 -4.0798 0
M  V30 13206 H 1264.05 -5.8989 -3.67498 0
M  V30 13207 H 1267.24 -3.81206 -2.7166 0
M  V30 13208 H 1267.41 -5.41973 -3.55203 0
M  V30 13209 N 1260.82 1.03812 -1.18578 0
M  V30 13210 C 1261.75 2.11928 -0.872871 0
M  V30 13211 C 1262.76 1.62275 0.130592 0
M  V30 13212 O 1263.95 1.78233 -0.0975869 0
M  V30 13213 C 1261.05 3.37714 -0.283321 0
M  V30 13214 C 1260.23 4.16591 -1.33307 0
M  V30 13215 C 1259.29 5.20701 -0.758746 0
M  V30 13216 O 1258.31 5.50837 -1.43412 0
M  V30 13217 N 1259.51 5.78811 0.442505 0
M  V30 13218 H 1262.28 2.39364 -1.80346 0
M  V30 13219 H 1259.84 1.20027 -1.08652 0
M  V30 13220 H 1261.83 4.04538 0.114524 0
M  V30 13221 H 1260.4 3.07699 0.551347 0
M  V30 13222 H 1259.62 3.45051 -1.90613 0
M  V30 13223 H 1260.91 4.66082 -2.04071 0
M  V30 13224 H 1260.31 5.56631 1.00889 0
M  V30 13225 H 1258.86 6.47089 0.78224 0
M  V30 13226 N 1262.3 0.988223 1.22768 0
M  V30 13227 C 1263.23 0.554478 2.26821 0
M  V30 13228 C 1264.21 -0.416293 1.64927 0
M  V30 13229 O 1265.39 -0.30795 1.91743 0
M  V30 13230 C 1262.52 -0.136266 3.47033 0
M  V30 13231 C 1261.48 0.752575 4.21332 0
M  V30 13232 C 1260.8 -0.0708236 5.34653 0
M  V30 13233 C 1262.1 2.04717 4.80508 0
M  V30 13234 H 1263.8 1.42423 2.63355 0
M  V30 13235 H 1261.34 0.686267 1.26595 0
M  V30 13236 H 1263.3 -0.451068 4.18979 0
M  V30 13237 H 1262.02 -1.04053 3.09581 0
M  V30 13238 H 1260.68 1.05095 3.51213 0
M  V30 13239 H 1260.33 -0.975859 4.93443 0
M  V30 13240 H 1260.03 0.520835 5.85287 0
M  V30 13241 H 1261.55 -0.379828 6.09417 0
M  V30 13242 H 1262.97 1.79663 5.44421 0
M  V30 13243 H 1261.36 2.58726 5.41462 0
M  V30 13244 H 1262.43 2.72896 4.00819 0
M  V30 13245 N 1263.78 -1.38018 0.760839 0
M  V30 13246 C 1265.02 -2.00248 0.320716 0
M  V30 13247 C 1265.35 -1.60259 -1.09684 0
M  V30 13248 O 1264.63 -0.843567 -1.75255 0
M  V30 13249 C 1264.91 -3.57254 0.451849 0
M  V30 13250 C 1264.77 -4.07185 1.91103 0
M  V30 13251 C 1266.08 -4.39843 -0.150439 0
M  V30 13252 H 1263.2 -0.727491 0.118007 0
M  V30 13253 H 1265.85 -1.63855 0.961842 0
M  V30 13254 H 1264 -3.88386 -0.0939672 0
M  V30 13255 H 1265.67 -3.86665 2.51571 0
M  V30 13256 H 1263.91 -3.59782 2.42362 0
M  V30 13257 H 1264.58 -5.16262 1.9539 0
M  V30 13258 H 1267.06 -4.14905 0.315145 0
M  V30 13259 H 1265.93 -5.48893 -0.0284853 0
M  V30 13260 H 1266.19 -4.24367 -1.23956 0
M  V30 13261 N 1265.25 -0.510493 -1.49103 0
M  V30 13262 C 1266.5 0.030689 -2.02777 0
M  V30 13263 C 1266.83 1.35765 -1.38858 0
M  V30 13264 O 1266.11 1.87209 -0.527528 0
M  V30 13265 C 1266.39 0.173261 -3.59683 0
M  V30 13266 C 1266.24 -1.17749 -4.34114 0
M  V30 13267 C 1267.56 0.909395 -4.30602 0
M  V30 13268 H 1264.68 0.0096789 -0.736936 0
M  V30 13269 H 1267.32 -0.663746 -1.78029 0
M  V30 13270 H 1265.47 0.764721 -3.80899 0
M  V30 13271 H 1267.15 -1.80856 -4.24369 0
M  V30 13272 H 1265.39 -1.76438 -3.96298 0
M  V30 13273 H 1266.06 -1.03094 -5.42287 0
M  V30 13274 H 1268.54 0.407677 -4.14098 0
M  V30 13275 H 1267.41 0.978012 -5.40117 0
M  V30 13276 H 1267.67 1.9553 -3.96511 0
M  V30 13277 N 1266.73 1.55688 -0.24474 0
M  V30 13278 C 1267.66 2.24272 0.64995 0
M  V30 13279 C 1268.64 1.22226 1.183 0
M  V30 13280 O 1269.83 1.50873 1.22274 0
M  V30 13281 C 1266.96 2.94053 1.84798 0
M  V30 13282 C 1265.91 4.02769 1.44779 0
M  V30 13283 C 1265.24 4.59965 2.72647 0
M  V30 13284 C 1266.54 5.18601 0.62047 0
M  V30 13285 H 1268.23 2.99298 0.0780654 0
M  V30 13286 H 1265.78 1.43955 0.0361069 0
M  V30 13287 H 1267.73 3.40732 2.47951 0
M  V30 13288 H 1266.45 2.16511 2.44521 0
M  V30 13289 H 1265.11 3.56856 0.839609 0
M  V30 13290 H 1264.76 3.79126 3.30564 0
M  V30 13291 H 1264.46 5.33352 2.46596 0
M  V30 13292 H 1265.99 5.09376 3.36703 0
M  V30 13293 H 1267.4 5.61519 1.15625 0
M  V30 13294 H 1265.8 5.98364 0.456097 0
M  V30 13295 H 1266.87 4.83503 -0.367798 0
M  V30 13296 N 1268.21 -0.0283989 1.57574 0
M  V30 13297 C 1269.14 -1.06191 2.01987 0
M  V30 13298 C 1270.12 -1.35131 0.90434 0
M  V30 13299 O 1271.3 -1.47777 1.17023 0
M  V30 13300 C 1268.43 -2.39646 2.39348 0
M  V30 13301 C 1267.48 -2.26558 3.6135 0
M  V30 13302 S 1268.31 -1.61839 5.10459 0
M  V30 13303 C 1269.47 -2.96783 5.51063 0
M  V30 13304 H 1269.7 -0.683625 2.89333 0
M  V30 13305 H 1267.23 -0.238394 1.52548 0
M  V30 13306 H 1269.19 -3.16394 2.61544 0
M  V30 13307 H 1267.85 -2.74622 1.52452 0
M  V30 13308 H 1267.04 -3.25079 3.85149 0
M  V30 13309 H 1266.65 -1.57954 3.39008 0
M  V30 13310 H 1268.94 -3.93111 5.51788 0
M  V30 13311 H 1269.88 -2.77716 6.51367 0
M  V30 13312 H 1270.29 -2.99386 4.78569 0
M  V30 13313 N 1269.69 -1.54705 -0.300681 0
M  V30 13314 C 1270.63 -1.85678 -1.37084 0
M  V30 13315 C 1271.6 -0.70573 -1.50362 0
M  V30 13316 O 1272.79 -0.954385 -1.65215 0
M  V30 13317 C 1269.93 -2.10995 -2.73084 0
M  V30 13318 C 1269.04 -3.38621 -2.68254 0
M  V30 13319 C 1268.18 -3.53779 -3.9625 0
M  V30 13320 C 1267.22 -4.75195 -3.85818 0
M  V30 13321 N 1266.35 -4.87157 -5.05591 0
M  V30 13322 H 1271.19 -2.76967 -1.09971 0
M  V30 13323 H 1268.73 -1.37147 -0.531887 0
M  V30 13324 H 1270.69 -2.23669 -3.52176 0
M  V30 13325 H 1269.32 -1.22973 -2.98458 0
M  V30 13326 H 1268.37 -3.34566 -1.81025 0
M  V30 13327 H 1269.68 -4.27834 -2.56436 0
M  V30 13328 H 1268.84 -3.66119 -4.83779 0
M  V30 13329 H 1267.58 -2.62699 -4.10902 0
M  V30 13330 H 1266.58 -4.62888 -2.96673 0
M  V30 13331 H 1267.81 -5.67683 -3.72711 0
M  V30 13332 H 1265.75 -3.99001 -5.20706 0
M  V30 13333 H 1265.67 -5.70372 -4.96197 0
M  V30 13334 H 1266.94 -5.03854 -5.9477 0
M  V30 13335 N 1271.17 0.563888 -1.47167 0
M  V30 13336 C 1272.39 1.34693 -1.57052 0
M  V30 13337 C 1272.81 1.87534 -0.218308 0
M  V30 13338 O 1272.17 1.64639 0.787416 0
M  V30 13339 C 1272.22 2.52148 -2.59044 0
M  V30 13340 O 1271.94 2.01492 -3.89015 0
M  V30 13341 C 1273.44 3.4445 -2.7905 0
M  V30 13342 H 1270.66 0.410822 -0.530534 0
M  V30 13343 H 1273.2 0.683731 -1.92731 0
M  V30 13344 H 1271.36 3.14419 -2.26317 0
M  V30 13345 H 1271.77 2.78122 -4.44689 0
M  V30 13346 H 1273.25 4.23297 -3.54293 0
M  V30 13347 H 1273.72 3.97575 -1.86631 0
M  V30 13348 H 1274.33 2.88 -3.12948 0
M  V30 13349 N 1272.64 1.35187 0.810078 0
M  V30 13350 C 1273.58 1.22171 1.92742 0
M  V30 13351 C 1274.56 0.110393 1.62225 0
M  V30 13352 O 1275.74 0.27786 1.86441 0
M  V30 13353 C 1272.87 0.880367 3.27058 0
M  V30 13354 C 1271.91 2.00325 3.76527 0
M  V30 13355 S 1272.75 3.6185 3.94747 0
M  V30 13356 C 1273.9 3.29784 5.31971 0
M  V30 13357 H 1274.13 2.16749 2.03488 0
M  V30 13358 H 1271.67 1.20362 0.967072 0
M  V30 13359 H 1273.63 0.690224 4.04656 0
M  V30 13360 H 1272.29 -0.0472868 3.14064 0
M  V30 13361 H 1271.48 1.71847 4.73798 0
M  V30 13362 H 1271.08 2.15154 3.05916 0
M  V30 13363 H 1273.37 2.82396 6.1584 0
M  V30 13364 H 1274.32 4.26243 5.6544 0
M  V30 13365 H 1274.72 2.65641 4.98092 0
M  V30 13366 N 1274.12 -1.03182 1.19127 0
M  V30 13367 C 1275.4 -1.73586 0.901507 0
M  V30 13368 C 1275.78 -2.02585 -0.593521 0
M  V30 13369 O 1275.13 -1.67813 -1.55084 0
M  V30 13370 C 1275.34 -3.01472 1.75829 0
M  V30 13371 C 1276.69 -3.75037 1.99078 0
M  V30 13372 O 1277.71 -3.11392 1.72956 0
M  V30 13373 O 1276.57 -4.8945 2.43108 0
M  V30 13374 H 1273.66 -0.755797 0.335708 0
M  V30 13375 H 1276.21 -1.09167 1.29925 0
M  V30 13376 H 1274.98 -2.76247 2.77134 0
M  V30 13377 H 1274.6 -3.73631 1.35963 0
M  V30 13378 N 1275.6 -0.99472 -1.22242 0
M  V30 13379 C 1276.55 -0.53946 -2.26258 0
M  V30 13380 C 1277.54 0.410796 -1.64344 0
M  V30 13381 O 1278.75 0.283116 -1.7776 0
M  V30 13382 H 1275.12 -0.156069 -0.735627 0
M  V30 13383 H 1277.09 -1.42814 -2.62005 0
M  V30 13384 C 1275.84 0.12842 -3.47463 0
M  V30 13385 H 1275.17 -0.593727 -3.95367 0
M  V30 13386 H 1276.61 0.410393 -4.22009 0
M  V30 13387 C 1275.07 1.36433 -3.08038 0
M  V30 13388 O 1275.6 2.45953 -3.176 0
M  V30 13389 N 1273.8 1.24026 -2.62804 0
M  V30 13390 H 1273.35 0.349111 -2.55223 0
M  V30 13391 H 1273.31 2.06824 -2.36794 0
M  V30 13392 N 1277.08 1.37613 -0.768148 0
M  V30 13393 C 1278.32 2.00075 -0.331331 0
M  V30 13394 C 1278.66 1.60839 1.08833 0
M  V30 13395 O 1277.93 0.852849 1.74805 0
M  V30 13396 C 1278.22 3.57009 -0.470789 0
M  V30 13397 C 1278.07 4.06166 -1.9326 0
M  V30 13398 C 1279.39 4.39916 0.127111 0
M  V30 13399 H 1276.51 0.726855 -0.121864 0
M  V30 13400 H 1279.15 1.63343 -0.970518 0
M  V30 13401 H 1277.3 3.88431 0.0733688 0
M  V30 13402 H 1278.97 3.85325 -2.53618 0
M  V30 13403 H 1277.21 3.58492 -2.44266 0
M  V30 13404 H 1277.88 5.15219 -1.98125 0
M  V30 13405 H 1280.36 4.14732 -0.337144 0
M  V30 13406 H 1279.24 5.489 -0.000624226 0
M  V30 13407 H 1279.5 4.25018 1.21704 0
M  V30 13408 N 1278.56 0.518393 1.4883 0
M  V30 13409 C 1279.52 -0.23983 2.27942 0
M  V30 13410 C 1280.52 -0.878302 1.34694 0
M  V30 13411 O 1281.71 -0.740142 1.57694 0
M  V30 13412 C 1278.84 -1.34581 3.1321 0
M  V30 13413 H 1280.03 0.454599 2.96434 0
M  V30 13414 H 1277.59 0.273932 1.53881 0
M  V30 13415 H 1278.32 -2.07385 2.49323 0
M  V30 13416 H 1278.11 -0.893251 3.8179 0
M  V30 13417 H 1279.6 -1.87944 3.72917 0
M  V30 13418 N 1280.03 -1.55556 0.252993 0
M  V30 13419 C 1281.26 -2.03491 -0.374022 0
M  V30 13420 C 1281.68 -1.13208 -1.51094 0
M  V30 13421 O 1281.03 -0.147705 -1.81901 0
M  V30 13422 C 1281.09 -3.50724 -0.876047 0
M  V30 13423 O 1280.81 -4.37569 0.215574 0
M  V30 13424 C 1282.31 -4.14448 -1.57313 0
M  V30 13425 H 1279.53 -0.665183 -0.0881644 0
M  V30 13426 H 1282.07 -2.00964 0.378636 0
M  V30 13427 H 1280.23 -3.53766 -1.57886 0
M  V30 13428 H 1280.64 -5.24235 -0.166625 0
M  V30 13429 H 1282.11 -5.19142 -1.87606 0
M  V30 13430 H 1282.59 -3.61299 -2.49719 0
M  V30 13431 H 1283.2 -4.15346 -0.914735 0
M  V30 13432 N 1281.51 0.0200419 -1.57587 0
M  V30 13433 C 1282.76 0.709027 -1.89681 0
M  V30 13434 C 1283.09 1.74876 -0.851396 0
M  V30 13435 O 1282.34 1.95151 0.146483 0
M  V30 13436 C 1282.64 1.40729 -3.28527 0
M  V30 13437 C 1282.31 0.502686 -4.48089 0
M  V30 13438 C 1280.97 0.253558 -4.80532 0
M  V30 13439 C 1283.32 -0.121338 -5.21059 0
M  V30 13440 C 1280.65 -0.628221 -5.83327 0
M  V30 13441 C 1283 -0.990873 -6.24792 0
M  V30 13442 C 1281.67 -1.24937 -6.55703 0
M  V30 13443 H 1280.94 0.259451 -0.694094 0
M  V30 13444 H 1283.58 -0.03118 -1.91475 0
M  V30 13445 H 1281.89 2.22105 -3.22764 0
M  V30 13446 H 1283.58 1.94609 -3.50611 0
M  V30 13447 H 1280.17 0.707018 -4.22728 0
M  V30 13448 H 1284.36 0.0581516 -4.96266 0
M  V30 13449 H 1279.61 -0.836712 -6.05648 0
M  V30 13450 H 1283.79 -1.48087 -6.80473 0
M  V30 13451 H 1281.42 -1.93436 -7.35178 0
M  V30 13452 N 1282.99 1.54862 0.292472 0
M  V30 13453 C 1284.23 1.76289 1.03448 0
M  V30 13454 C 1284.59 0.541914 1.84194 0
M  V30 13455 O 1285.8 0.634075 2.61214 0
M  V30 13456 C 1284.07 3.02112 1.90953 0
M  V30 13457 S 1285.63 3.44577 2.71683 0
M  V30 13458 H 1282.44 0.619596 0.348744 0
M  V30 13459 H 1285.05 1.93075 0.306952 0
M  V30 13460 H 1283.75 3.89091 1.30523 0
M  V30 13461 H 1283.28 2.87937 2.68059 0
M  V30 13462 H 1285.3 3.02318 3.93469 0
M  V30 13463 N 1284.47 -0.556076 1.47464 0
M  V30 13464 C 1285.4 -1.67872 1.54578 0
M  V30 13465 C 1286.38 -1.57658 0.397853 0
M  V30 13466 O 1287.56 -1.785 0.605811 0
M  V30 13467 C 1284.69 -3.06122 1.44937 0
M  V30 13468 C 1283.74 -3.34778 2.64246 0
M  V30 13469 S 1284.57 -3.23909 4.26431 0
M  V30 13470 C 1285.73 -4.64651 4.19345 0
M  V30 13471 H 1285.96 -1.61583 2.49556 0
M  V30 13472 H 1283.49 -0.736985 1.35676 0
M  V30 13473 H 1285.45 -3.85866 1.40062 0
M  V30 13474 H 1284.11 -3.09876 0.513412 0
M  V30 13475 H 1283.3 -4.35569 2.53567 0
M  V30 13476 H 1282.91 -2.62655 2.66248 0
M  V30 13477 H 1285.2 -5.55625 3.87669 0
M  V30 13478 H 1286.14 -4.80386 5.20225 0
M  V30 13479 H 1286.55 -4.42751 3.50189 0
M  V30 13480 N 1285.95 -1.35615 -0.802897 0
M  V30 13481 C 1286.88 -1.31506 -1.92947 0
M  V30 13482 C 1287.86 -0.188843 -1.69048 0
M  V30 13483 O 1289.04 -0.384384 -1.90358 0
M  V30 13484 C 1286.17 -1.09001 -3.29752 0
M  V30 13485 C 1285.13 -2.18303 -3.68141 0
M  V30 13486 C 1284.45 -1.80959 -5.03148 0
M  V30 13487 C 1285.75 -3.60296 -3.78132 0
M  V30 13488 H 1287.45 -2.25771 -1.96642 0
M  V30 13489 H 1284.99 -1.08682 -0.944685 0
M  V30 13490 H 1286.95 -1.04766 -4.08169 0
M  V30 13491 H 1285.67 -0.111832 -3.26408 0
M  V30 13492 H 1284.33 -2.21642 -2.92011 0
M  V30 13493 H 1283.98 -0.817495 -4.96312 0
M  V30 13494 H 1283.68 -2.54129 -5.29804 0
M  V30 13495 H 1285.2 -1.78255 -5.84001 0
M  V30 13496 H 1286.62 -3.59259 -4.46773 0
M  V30 13497 H 1285.01 -4.32258 -4.16261 0
M  V30 13498 H 1286.08 -3.9618 -2.79588 0
M  V30 13499 N 1287.43 1.02549 -1.19673 0
M  V30 13500 C 1288.36 2.12794 -0.961289 0
M  V30 13501 C 1289.34 1.69766 0.106575 0
M  V30 13502 O 1290.52 1.94138 -0.0491358 0
M  V30 13503 C 1287.65 3.4364 -0.502868 0
M  V30 13504 C 1286.61 4.00367 -1.51296 0
M  V30 13505 C 1285.93 5.26874 -0.911491 0
M  V30 13506 C 1287.23 4.34782 -2.89416 0
M  V30 13507 H 1288.93 2.32748 -1.88331 0
M  V30 13508 H 1286.47 1.11852 -0.906922 0
M  V30 13509 H 1288.42 4.20141 -0.325436 0
M  V30 13510 H 1287.15 3.23418 0.454764 0
M  V30 13511 H 1285.81 3.25964 -1.67759 0
M  V30 13512 H 1285.46 5.02971 0.0537982 0
M  V30 13513 H 1285.16 5.65791 -1.58602 0
M  V30 13514 H 1286.68 6.06039 -0.74493 0
M  V30 13515 H 1288.09 5.02207 -2.76516 0
M  V30 13516 H 1286.49 4.8479 -3.53693 0
M  V30 13517 H 1287.56 3.43935 -3.41814 0
M  V30 13518 N 1288.9 1.00119 1.21713 0
M  V30 13519 C 1289.84 0.503256 2.22582 0
M  V30 13520 C 1290.81 -0.440971 1.56506 0
M  V30 13521 O 1292 -0.364583 1.84941 0
M  V30 13522 C 1289.13 -0.269453 3.37626 0
M  V30 13523 C 1288.17 0.622002 4.2194 0
M  V30 13524 S 1289 2.08218 4.93361 0
M  V30 13525 C 1290.16 1.3192 6.1184 0
M  V30 13526 H 1290.39 1.35798 2.64474 0
M  V30 13527 H 1287.93 0.808819 1.3152 0
M  V30 13528 H 1289.88 -0.709213 4.04327 0
M  V30 13529 H 1288.55 -1.09955 2.94226 0
M  V30 13530 H 1287.74 0.0270176 5.03993 0
M  V30 13531 H 1287.34 0.998876 3.60414 0
M  V30 13532 H 1289.63 0.591116 6.74916 0
M  V30 13533 H 1290.58 2.1153 6.75767 0
M  V30 13534 H 1290.98 0.828844 5.58382 0
M  V30 13535 N 1290.38 -1.37203 0.775435 0
M  V30 13536 C 1291.31 -2.32819 0.17826 0
M  V30 13537 C 1292.29 -1.55963 -0.678944 0
M  V30 13538 O 1293.48 -1.84183 -0.615648 0
M  V30 13539 C 1290.61 -3.40198 -0.698768 0
M  V30 13540 C 1289.56 -4.27961 0.057423 0
M  V30 13541 C 1288.89 -5.26385 -0.93929 0
M  V30 13542 C 1290.19 -5.07402 1.23856 0
M  V30 13543 H 1291.88 -2.8301 0.977028 0
M  V30 13544 H 1289.43 -1.3607 0.471274 0
M  V30 13545 H 1291.38 -4.06067 -1.12637 0
M  V30 13546 H 1290.1 -2.88541 -1.53009 0
M  V30 13547 H 1288.76 -3.63628 0.465848 0
M  V30 13548 H 1288.41 -4.71007 -1.76527 0
M  V30 13549 H 1288.11 -5.85966 -0.437844 0
M  V30 13550 H 1289.64 -5.9513 -1.36576 0
M  V30 13551 H 1291.05 -5.6639 0.887423 0
M  V30 13552 H 1289.45 -5.76327 1.67234 0
M  V30 13553 H 1290.52 -4.3986 2.04085 0
M  V30 13554 N 1291.86 -0.526279 -1.48553 0
M  V30 13555 C 1293.11 0.0091665 -2.02498 0
M  V30 13556 C 1293.43 1.34632 -1.40373 0
M  V30 13557 O 1292.69 1.88172 -0.537573 0
M  V30 13558 C 1292.99 0.184075 -3.56926 0
M  V30 13559 C 1292.65 -1.07825 -4.37818 0
M  V30 13560 C 1291.32 -1.42422 -4.59641 0
M  V30 13561 C 1293.67 -1.91616 -4.84699 0
M  V30 13562 C 1291 -2.60713 -5.25591 0
M  V30 13563 C 1293.35 -3.09082 -5.51952 0
M  V30 13564 C 1292.01 -3.44029 -5.72014 0
M  V30 13565 H 1291.28 0.00335426 -0.740992 0
M  V30 13566 H 1293.93 -0.691553 -1.78577 0
M  V30 13567 H 1292.23 0.967532 -3.79666 0
M  V30 13568 H 1293.93 0.613226 -3.96283 0
M  V30 13569 H 1290.52 -0.798812 -4.2109 0
M  V30 13570 H 1294.71 -1.66199 -4.67645 0
M  V30 13571 H 1289.96 -2.87996 -5.39322 0
M  V30 13572 H 1294.14 -3.74317 -5.87247 0
M  V30 13573 H 1291.76 -4.35789 -6.2289 0
M  V30 13574 N 1293.34 1.5542 -0.261239 0
M  V30 13575 C 1294.59 1.9846 0.360052 0
M  V30 13576 C 1294.9 1.15288 1.58013 0
M  V30 13577 O 1296.11 1.48408 2.27348 0
M  V30 13578 C 1294.56 3.53185 0.691964 0
M  V30 13579 C 1294.17 4.45116 -0.507521 0
M  V30 13580 C 1295.91 4.04848 1.27665 0
M  V30 13581 C 1293.82 5.91207 -0.150966 0
M  V30 13582 H 1292.75 0.741207 0.138303 0
M  V30 13583 H 1295.4 1.79859 -0.363712 0
M  V30 13584 H 1293.78 3.67535 1.47425 0
M  V30 13585 H 1294.96 4.42531 -1.28465 0
M  V30 13586 H 1293.27 4.04013 -1.0081 0
M  V30 13587 H 1295.87 5.11529 1.55699 0
M  V30 13588 H 1296.21 3.5305 2.20593 0
M  V30 13589 H 1296.75 3.93882 0.556955 0
M  V30 13590 H 1293.48 6.47072 -1.04776 0
M  V30 13591 H 1293 5.96894 0.589671 0
M  V30 13592 H 1294.68 6.4647 0.261772 0
M  V30 13593 N 1294.82 -0.0116844 1.57596 0
M  V30 13594 C 1296.06 -0.698958 1.90055 0
M  V30 13595 C 1296.39 -1.74422 0.860659 0
M  V30 13596 O 1295.65 -1.95226 -0.136132 0
M  V30 13597 C 1295.94 -1.38985 3.29269 0
M  V30 13598 C 1295.61 -0.478916 4.48349 0
M  V30 13599 C 1294.27 -0.228071 4.80659 0
M  V30 13600 C 1296.62 0.14897 5.20987 0
M  V30 13601 C 1293.95 0.659147 5.82986 0
M  V30 13602 C 1296.3 1.02399 6.24257 0
M  V30 13603 C 1294.97 1.28413 6.55032 0
M  V30 13604 H 1294.24 -0.255767 0.69546 0
M  V30 13605 H 1296.89 0.0413339 1.91455 0
M  V30 13606 H 1295.19 -2.2039 3.23937 0
M  V30 13607 H 1296.89 -1.92747 3.51638 0
M  V30 13608 H 1293.48 -0.68459 4.23097 0
M  V30 13609 H 1297.66 -0.0318326 4.9629 0
M  V30 13610 H 1292.92 0.86882 6.05195 0
M  V30 13611 H 1297.09 1.51694 6.79678 0
M  V30 13612 H 1294.72 1.97332 7.34142 0
M  V30 13613 N 1296.29 -1.55015 -0.284256 0
M  V30 13614 C 1297.54 -1.74297 -1.01506 0
M  V30 13615 C 1297.86 -0.545134 -1.8785 0
M  V30 13616 O 1299.06 -0.620118 -2.64323 0
M  V30 13617 C 1297.52 -3.08438 -1.85456 0
M  V30 13618 C 1297.13 -4.35753 -1.04034 0
M  V30 13619 C 1298.87 -3.37073 -2.58035 0
M  V30 13620 C 1296.78 -5.60938 -1.87358 0
M  V30 13621 H 1295.71 -0.649656 -0.382705 0
M  V30 13622 H 1298.36 -1.81484 -0.271239 0
M  V30 13623 H 1296.74 -2.95259 -2.63891 0
M  V30 13624 H 1297.91 -4.59816 -0.300954 0
M  V30 13625 H 1296.23 -4.14178 -0.429616 0
M  V30 13626 H 1298.83 -4.27806 -3.20759 0
M  V30 13627 H 1299.17 -2.56698 -3.27738 0
M  V30 13628 H 1299.7 -3.51299 -1.86638 0
M  V30 13629 H 1296.44 -6.44029 -1.22096 0
M  V30 13630 H 1295.96 -5.41035 -2.58923 0
M  V30 13631 H 1297.64 -5.98819 -2.44999 0
M  V30 13632 N 1297.77 0.548248 -1.47757 0
M  V30 13633 C 1299.02 1.30501 -1.54841 0
M  V30 13634 C 1299.35 1.93314 -0.214476 0
M  V30 13635 O 1298.6 1.7889 0.793526 0
M  V30 13636 C 1298.9 2.42911 -2.62162 0
M  V30 13637 C 1298.57 1.97871 -4.05164 0
M  V30 13638 C 1297.23 1.85304 -4.4409 0
M  V30 13639 C 1299.58 1.63606 -4.94856 0
M  V30 13640 C 1296.91 1.36781 -5.70533 0
M  V30 13641 C 1299.26 1.16552 -6.2177 0
M  V30 13642 C 1297.92 1.02588 -6.5957 0
M  V30 13643 H 1297.19 0.477536 -0.566604 0
M  V30 13644 H 1299.84 0.613837 -1.81395 0
M  V30 13645 H 1298.15 3.17622 -2.29398 0
M  V30 13646 H 1299.84 3.01078 -2.64864 0
M  V30 13647 H 1296.43 2.08597 -3.74413 0
M  V30 13648 H 1300.62 1.72184 -4.65474 0
M  V30 13649 H 1295.87 1.24641 -5.9856 0
M  V30 13650 H 1300.05 0.891041 -6.90676 0
M  V30 13651 H 1297.67 0.647675 -7.57436 0
M  V30 13652 N 1299.25 1.36039 0.795694 0
M  V30 13653 C 1300.47 1.33222 1.58955 0
M  V30 13654 C 1300.9 -0.0854596 1.87906 0
M  V30 13655 O 1300.26 -1.05555 1.47403 0
M  V30 13656 C 1300.31 2.15508 2.89117 0
M  V30 13657 O 1299.41 1.54327 3.82436 0
M  V30 13658 H 1298.75 0.456264 0.48241 0
M  V30 13659 H 1301.28 1.79234 0.986726 0
M  V30 13660 H 1301.29 2.2786 3.38444 0
M  V30 13661 H 1299.97 3.18568 2.67371 0
M  V30 13662 H 1298.54 1.50879 3.41013 0
M  V30 13663 N 1300.73 -1.01913 1.20215 0
M  V30 13664 C 1301.98 -1.74878 1.00502 0
M  V30 13665 C 1302.29 -1.90022 -0.463792 0
M  V30 13666 O 1303.5 -2.60055 -0.779982 0
M  V30 13667 C 1301.95 -3.1452 1.74943 0
M  V30 13668 C 1301.56 -3.07397 3.259 0
M  V30 13669 C 1303.3 -3.91713 1.63589 0
M  V30 13670 C 1301.21 -4.42032 3.92889 0
M  V30 13671 H 1300.14 -0.655603 0.372426 0
M  V30 13672 H 1302.79 -1.13978 1.4381 0
M  V30 13673 H 1301.17 -3.75946 1.24421 0
M  V30 13674 H 1302.35 -2.55294 3.83617 0
M  V30 13675 H 1300.66 -2.43698 3.37639 0
M  V30 13676 H 1303.26 -4.91316 2.1098 0
M  V30 13677 H 1303.6 -4.12074 0.591665 0
M  V30 13678 H 1304.14 -3.3691 2.11511 0
M  V30 13679 H 1300.88 -4.26874 4.97453 0
M  V30 13680 H 1300.4 -4.94151 3.39962 0
M  V30 13681 H 1302.07 -5.10884 3.96997 0
M  V30 13682 N 1302.21 -1.00763 -1.2118 0
M  V30 13683 C 1303.14 -0.590493 -2.2591 0
M  V30 13684 C 1304.12 0.390002 -1.65569 0
M  V30 13685 O 1305.3 0.277406 -1.92208 0
M  V30 13686 C 1302.43 0.0810388 -3.47205 0
M  V30 13687 C 1301.39 -0.81951 -4.20081 0
M  V30 13688 C 1300.71 -0.014244 -5.34698 0
M  V30 13689 C 1302.01 -2.12336 -4.7719 0
M  V30 13690 H 1303.71 -1.46595 -2.61056 0
M  V30 13691 H 1301.25 -0.706321 -1.25487 0
M  V30 13692 H 1303.21 0.384355 -4.19644 0
M  V30 13693 H 1301.93 0.991145 -3.11197 0
M  V30 13694 H 1300.59 -1.10669 -3.49497 0
M  V30 13695 H 1300.24 0.897233 -4.94933 0
M  V30 13696 H 1299.94 -0.613883 -5.84384 0
M  V30 13697 H 1301.46 0.282827 -6.09945 0
M  V30 13698 H 1302.87 -1.88301 -5.41494 0
M  V30 13699 H 1301.27 -2.67308 -5.37277 0
M  V30 13700 H 1302.34 -2.79238 -3.96427 0
M  V30 13701 N 1303.68 1.3679 -0.7827 0
M  V30 13702 C 1304.93 1.99023 -0.351316 0
M  V30 13703 C 1305.25 1.62436 1.07887 0
M  V30 13704 O 1304.52 0.895084 1.74256 0
M  V30 13705 H 1303.1 0.736141 -0.126909 0
M  V30 13706 H 1305.77 1.67095 -1.00325 0
M  V30 13707 H 1304.86 3.09015 -0.43774 0
M  V30 13708 N 1305.16 0.53415 1.48272 0
M  V30 13709 C 1306.1 -0.273689 2.26553 0
M  V30 13710 C 1307.07 -0.941085 1.32598 0
M  V30 13711 O 1308.26 -0.964653 1.61947 0
M  V30 13712 C 1305.38 -1.38796 3.08955 0
M  V30 13713 C 1304.43 -0.831533 4.18315 0
M  V30 13714 S 1305.26 0.303875 5.34637 0
M  V30 13715 C 1306.42 -0.812767 6.206 0
M  V30 13716 H 1306.65 0.390639 2.94722 0
M  V30 13717 H 1304.19 0.320014 1.51047 0
M  V30 13718 H 1306.14 -2.02622 3.57008 0
M  V30 13719 H 1304.8 -2.02402 2.40192 0
M  V30 13720 H 1304 -1.66758 4.75613 0
M  V30 13721 H 1303.6 -0.269881 3.73025 0
M  V30 13722 H 1305.89 -1.71043 6.55554 0
M  V30 13723 H 1306.83 -0.27767 7.07555 0
M  V30 13724 H 1307.24 -1.09505 5.53777 0
M  V30 13725 N 1306.64 -1.55279 0.269478 0
M  V30 13726 C 1307.59 -2.18984 -0.634838 0
M  V30 13727 C 1308.57 -1.15269 -1.12258 0
M  V30 13728 O 1309.77 -1.41103 -1.0686 0
M  V30 13729 C 1306.9 -2.91014 -1.82114 0
M  V30 13730 C 1305.98 -4.02011 -1.35084 0
M  V30 13731 N 1306.37 -5.02273 -0.596299 0
M  V30 13732 C 1304.67 -4.14979 -1.63427 0
M  V30 13733 C 1305.37 -5.80647 -0.349781 0
M  V30 13734 N 1304.35 -5.35749 -0.92057 0
M  V30 13735 H 1308.15 -2.93857 -0.0504516 0
M  V30 13736 H 1305.66 -1.62237 0.0727843 0
M  V30 13737 H 1307.66 -3.35098 -2.48022 0
M  V30 13738 H 1306.32 -2.1765 -2.40953 0
M  V30 13739 H 1307.33 -5.17324 -0.244188 0
M  V30 13740 H 1304.01 -3.52802 -2.23242 0
M  V30 13741 H 1305.4 -6.71419 0.254139 0
M  V30 13742 N 1308.12 0.00332656 -1.576 0
M  V30 13743 C 1309.05 0.994803 -2.11248 0
M  V30 13744 C 1310.03 1.36061 -1.02085 0
M  V30 13745 O 1311.21 1.44494 -1.2975 0
M  V30 13746 C 1308.34 2.28772 -2.61306 0
M  V30 13747 C 1307.3 2.06362 -3.74965 0
M  V30 13748 C 1306.62 3.41638 -4.11324 0
M  V30 13749 C 1307.92 1.4289 -5.02374 0
M  V30 13750 H 1309.62 0.548119 -2.9434 0
M  V30 13751 H 1307.16 0.262208 -1.41593 0
M  V30 13752 H 1309.12 2.98485 -2.97464 0
M  V30 13753 H 1307.84 2.75547 -1.75332 0
M  V30 13754 H 1306.5 1.39076 -3.39195 0
M  V30 13755 H 1306.15 3.8611 -3.22379 0
M  V30 13756 H 1305.85 3.2746 -4.87897 0
M  V30 13757 H 1307.37 4.12671 -4.50039 0
M  V30 13758 H 1308.79 2.02555 -5.36325 0
M  V30 13759 H 1307.18 1.3921 -5.8373 0
M  V30 13760 H 1308.25 0.397708 -4.83266 0
M  V30 13761 N 1309.6 1.55164 0.276031 0
M  V30 13762 C 1310.84 1.75627 1.00803 0
M  V30 13763 C 1311.17 0.555696 1.86393 0
M  V30 13764 O 1310.43 -0.461872 1.90172 0
M  V30 13765 C 1310.73 3.0127 1.92279 0
M  V30 13766 C 1310.39 4.33951 1.22464 0
M  V30 13767 C 1309.05 4.70013 1.03158 0
M  V30 13768 C 1311.41 5.16097 0.72758 0
M  V30 13769 C 1308.73 5.85779 0.328699 0
M  V30 13770 C 1311.09 6.32588 0.0383001 0
M  V30 13771 C 1309.75 6.67292 -0.166494 0
M  V30 13772 H 1309.02 0.642665 0.368866 0
M  V30 13773 H 1311.67 1.89433 0.280595 0
M  V30 13774 H 1309.97 2.82351 2.71634 0
M  V30 13775 H 1311.67 3.14299 2.49032 0
M  V30 13776 H 1308.26 4.05605 1.38501 0
M  V30 13777 H 1312.44 4.88715 0.864365 0
M  V30 13778 H 1307.7 6.11192 0.159279 0
M  V30 13779 H 1311.87 6.95496 -0.354631 0
M  V30 13780 H 1309.5 7.56848 -0.713124 0
M  V30 13781 N 1311.07 -0.540404 1.48045 0
M  V30 13782 C 1312.32 -1.29422 1.55224 0
M  V30 13783 C 1312.64 -1.93716 0.223365 0
M  V30 13784 O 1311.91 -1.808 -0.754204 0
M  V30 13785 H 1310.49 -0.480658 0.571819 0
M  V30 13786 H 1313.16 -0.629712 1.84447 0
M  V30 13787 H 1312.25 -2.07897 2.32777 0
M  V30 13788 N 1312.55 -1.36459 -0.788468 0
M  V30 13789 C 1313.79 -1.32124 -1.55957 0
M  V30 13790 C 1314.16 0.0981565 -1.91749 0
M  V30 13791 O 1315.36 0.266067 -2.6748 0
M  V30 13792 C 1313.63 -2.219 -2.8017 0
M  V30 13793 S 1315.19 -2.35257 -3.70405 0
M  V30 13794 H 1312.01 -0.469279 -0.534133 0
M  V30 13795 H 1314.61 -1.72039 -0.928587 0
M  V30 13796 H 1313.31 -3.23976 -2.51928 0
M  V30 13797 H 1312.84 -1.83008 -3.48241 0
M  V30 13798 H 1314.86 -1.55077 -4.71344 0
M  V30 13799 N 1314.03 1.01274 -1.20754 0
M  V30 13800 C 1314.98 2.09894 -0.959852 0
M  V30 13801 C 1315.95 1.65726 0.111351 0
M  V30 13802 O 1317.13 1.90769 -0.0341721 0
M  V30 13803 C 1314.27 3.41126 -0.52223 0
M  V30 13804 C 1313.39 3.98749 -1.66202 0
M  V30 13805 C 1312.52 5.18057 -1.17432 0
M  V30 13806 C 1311.56 5.67772 -2.28694 0
M  V30 13807 N 1310.7 6.78338 -1.81114 0
M  V30 13808 H 1315.54 2.30416 -1.88977 0
M  V30 13809 H 1313.07 1.12989 -0.941906 0
M  V30 13810 H 1315.03 4.16451 -0.249799 0
M  V30 13811 H 1313.66 3.20665 0.370688 0
M  V30 13812 H 1312.71 3.20483 -2.04927 0
M  V30 13813 H 1314.03 4.31646 -2.49967 0
M  V30 13814 H 1313.18 6.00601 -0.858086 0
M  V30 13815 H 1311.92 4.86735 -0.306614 0
M  V30 13816 H 1310.92 4.8383 -2.61129 0
M  V30 13817 H 1312.15 6.01127 -3.15948 0
M  V30 13818 H 1310.09 6.48837 -0.966761 0
M  V30 13819 H 1310.01 7.10448 -2.58457 0
M  V30 13820 H 1311.28 7.64437 -1.52502 0
M  V30 13821 N 1315.51 1.01404 1.20644 0
M  V30 13822 C 1316.76 0.701909 1.89946 0
M  V30 13823 C 1317.08 -0.768212 1.78686 0
M  V30 13824 O 1316.34 -1.57348 1.16363 0
M  V30 13825 C 1316.64 1.07995 3.40693 0
M  V30 13826 C 1316.3 2.54585 3.72152 0
M  V30 13827 C 1314.97 2.94639 3.80449 0
M  V30 13828 C 1317.32 3.49497 3.86654 0
M  V30 13829 C 1314.65 4.2855 4.00702 0
M  V30 13830 C 1317 4.83093 4.08416 0
M  V30 13831 C 1315.66 5.22857 4.14942 0
M  V30 13832 H 1314.93 0.256847 0.695062 0
M  V30 13833 H 1317.58 1.27415 1.4296 0
M  V30 13834 H 1315.88 0.426089 3.89476 0
M  V30 13835 H 1317.58 0.816176 3.92606 0
M  V30 13836 H 1314.17 2.22548 3.66292 0
M  V30 13837 H 1318.36 3.19713 3.79602 0
M  V30 13838 H 1313.61 4.58916 4.03988 0
M  V30 13839 H 1317.79 5.56565 4.18579 0
M  V30 13840 H 1315.41 6.26634 4.30388 0
M  V30 13841 N 1316.99 -1.36373 0.789944 0
M  V30 13842 C 1317.95 -2.28372 0.194639 0
M  V30 13843 C 1318.95 -1.48849 -0.608332 0
M  V30 13844 O 1320.14 -1.68829 -0.42925 0
M  V30 13845 C 1317.27 -3.3298 -0.730553 0
M  V30 13846 H 1318.47 -2.82529 1.00585 0
M  V30 13847 H 1316.02 -1.45946 0.559406 0
M  V30 13848 H 1316.75 -2.8398 -1.56608 0
M  V30 13849 H 1316.54 -3.91787 -0.156706 0
M  V30 13850 H 1318.03 -4.01684 -1.14192 0
M  V30 13851 N 1318.47 -0.542005 -1.47987 0
M  V30 13852 C 1319.69 -0.0146835 -2.07395 0
M  V30 13853 C 1320.12 1.26266 -1.39422 0
M  V30 13854 O 1319.47 1.75259 -0.464118 0
M  V30 13855 C 1319.52 0.179937 -3.60151 0
M  V30 13856 O 1318.63 1.24596 -3.93128 0
M  V30 13857 H 1317.97 -0.0445076 -0.662507 0
M  V30 13858 H 1320.5 -0.753352 -1.90226 0
M  V30 13859 H 1320.51 0.398876 -4.06046 0
M  V30 13860 H 1319.18 -0.753093 -4.09025 0
M  V30 13861 H 1317.76 1.00872 -3.58997 0
M  V30 13862 N 1319.94 1.55134 -0.277709 0
M  V30 13863 C 1320.85 2.26296 0.618658 0
M  V30 13864 C 1321.87 1.28978 1.16794 0
M  V30 13865 O 1323.05 1.61918 1.19768 0
M  V30 13866 C 1320.11 2.97214 1.78508 0
M  V30 13867 C 1319.17 4.10016 1.27221 0
M  V30 13868 C 1318.4 4.77543 2.38304 0
M  V30 13869 O 1318.63 4.44293 3.57715 0
M  V30 13870 O 1317.56 5.65437 2.06313 0
M  V30 13871 H 1321.39 3.03671 0.0421031 0
M  V30 13872 H 1318.97 1.49332 -0.0450166 0
M  V30 13873 H 1320.85 3.41773 2.46513 0
M  V30 13874 H 1319.53 2.22753 2.34867 0
M  V30 13875 H 1318.44 3.69907 0.558544 0
M  V30 13876 H 1319.77 4.86385 0.754333 0
M  V30 13877 N 1321.42 0.00503138 1.57599 0
M  V30 13878 C 1322.84 -0.351109 1.5569 0
M  V30 13879 C 1323.04 -1.74465 1.00818 0
M  V30 13880 O 1322.09 -2.44144 0.64422 0
M  V30 13881 C 1323.41 -0.221738 2.99881 0
M  V30 13882 C 1324.95 -0.296303 3.11594 0
M  V30 13883 C 1325.43 -0.195998 4.5758 0
M  V30 13884 N 1326.92 -0.253741 4.62504 0
M  V30 13885 C 1327.66 -0.199546 5.73053 0
M  V30 13886 N 1327.15 -0.0956553 6.92734 0
M  V30 13887 N 1328.94 -0.251779 5.61536 0
M  V30 13888 H 1321.1 0.916578 1.91605 0
M  V30 13889 H 1323.36 0.351802 0.880306 0
M  V30 13890 H 1323.06 0.737255 3.43886 0
M  V30 13891 H 1322.94 -1.00178 3.63654 0
M  V30 13892 H 1325.33 -1.24574 2.67517 0
M  V30 13893 H 1325.41 0.513692 2.50589 0
M  V30 13894 H 1325.05 0.749918 5.02333 0
M  V30 13895 H 1324.98 -1.02455 5.16537 0
M  V30 13896 H 1327.47 -0.335163 3.76411 0
M  V30 13897 H 1327.78 -0.0603357 7.72776 0
M  V30 13898 H 1326.13 -0.0612113 6.94973 0
M  V30 13899 H 1329.32 -0.331173 4.66927 0
M  V30 13900 H 1329.49 -0.206078 6.47672 0
M  V30 13901 N 1322.9 -1.55308 -0.267798 0
M  V30 13902 C 1324.18 -1.66881 -1.02029 0
M  V30 13903 C 1324.56 -0.538708 -2.04111 0
M  V30 13904 O 1323.9 0.460575 -2.2381 0
M  V30 13905 C 1324.11 -3.06318 -1.67243 0
M  V30 13906 C 1325.46 -3.64237 -2.18212 0
M  V30 13907 O 1326.49 -3.08984 -1.77221 0
M  V30 13908 O 1325.35 -4.61055 -2.93413 0
M  V30 13909 H 1322.44 -0.677967 -0.473593 0
M  V30 13910 H 1324.99 -1.67646 -0.263242 0
M  V30 13911 H 1323.76 -3.80015 -0.932985 0
M  V30 13912 H 1323.38 -3.09475 -2.49622 0
M  V30 13913 N 1324.38 0.532545 -1.4833 0
M  V30 13914 C 1325.63 1.28597 -1.55908 0
M  V30 13915 C 1325.95 1.93595 -0.233635 0
M  V30 13916 O 1325.22 1.81197 0.744605 0
M  V30 13917 H 1323.8 0.477619 -0.57436 0
M  V30 13918 H 1326.46 0.619922 -1.84778 0
M  V30 13919 H 1325.55 2.0666 -2.33877 0
M  V30 13920 N 1325.86 1.36875 0.78122 0
M  V30 13921 C 1327.13 1.22101 1.52809 0
M  V30 13922 C 1327.51 -0.189402 2.10249 0
M  V30 13923 O 1326.86 -1.19598 1.94701 0
M  V30 13924 C 1327.07 2.30953 2.61652 0
M  V30 13925 C 1328.42 2.68027 3.29313 0
M  V30 13926 O 1329.44 2.30058 2.71941 0
M  V30 13927 O 1328.3 3.33407 4.33015 0
M  V30 13928 H 1325.4 0.4759 0.676349 0
M  V30 13929 H 1327.94 1.48629 0.818998 0
M  V30 13930 H 1326.71 3.25443 2.17261 0
M  V30 13931 H 1326.34 2.05837 3.40172 0
M  V30 13932 N 1327.33 -1.00632 1.21289 0
M  V30 13933 C 1328.56 -1.77967 1.05524 0
M  V30 13934 C 1328.98 -1.84621 -0.395023 0
M  V30 13935 O 1328.33 -1.30664 -1.27409 0
M  V30 13936 C 1328.38 -3.21939 1.64432 0
M  V30 13937 O 1328.11 -3.15669 3.03784 0
M  V30 13938 C 1329.61 -4.1578 1.5376 0
M  V30 13939 H 1326.83 -0.559341 0.370646 0
M  V30 13940 H 1329.37 -1.26604 1.60598 0
M  V30 13941 H 1327.53 -3.70415 1.13453 0
M  V30 13942 H 1327.94 -4.06112 3.31924 0
M  V30 13943 H 1329.41 -5.14602 1.99722 0
M  V30 13944 H 1329.89 -4.36438 0.491811 0
M  V30 13945 H 1330.5 -3.73192 2.0398 0
M  V30 13946 N 1328.81 -1.02043 -1.20104 0
M  V30 13947 C 1329.74 -0.614421 -2.25271 0
M  V30 13948 C 1330.72 0.37242 -1.65973 0
M  V30 13949 O 1331.91 0.257005 -1.92492 0
M  V30 13950 C 1329.04 0.0442085 -3.47272 0
M  V30 13951 C 1327.99 -0.864019 -4.19188 0
M  V30 13952 C 1327.32 -0.0709551 -5.34653 0
M  V30 13953 C 1328.62 -2.17385 -4.74912 0
M  V30 13954 H 1330.31 -1.49355 -2.59487 0
M  V30 13955 H 1327.86 -0.719591 -1.24731 0
M  V30 13956 H 1329.81 0.339825 -4.20028 0
M  V30 13957 H 1328.53 0.958082 -3.12231 0
M  V30 13958 H 1327.19 -1.1437 -3.48303 0
M  V30 13959 H 1326.84 0.844688 -4.95857 0
M  V30 13960 H 1326.54 -0.67583 -5.83701 0
M  V30 13961 H 1328.07 0.218118 -6.1021 0
M  V30 13962 H 1329.48 -1.94034 -5.39466 0
M  V30 13963 H 1327.88 -2.72991 -5.34412 0
M  V30 13964 H 1328.95 -2.83427 -3.93443 0
M  V30 13965 N 1330.29 1.35952 -0.797165 0
M  V30 13966 C 1331.7 1.81554 -0.435311 0
M  V30 13967 C 1332.05 1.66266 1.04164 0
M  V30 13968 O 1331.18 1.18796 1.80877 0
M  V30 13969 C 1331.77 3.29619 -0.783358 0
M  V30 13970 C 1330.33 3.73401 -0.47423 0
M  V30 13971 C 1329.48 2.58098 -1.01394 0
M  V30 13972 H 1332.43 1.24064 -0.989638 0
M  V30 13973 H 1332.45 3.80421 -0.0773381 0
M  V30 13974 H 1331.96 3.40715 -1.85836 0
M  V30 13975 H 1330.06 3.6786 0.592418 0
M  V30 13976 H 1330.18 4.68542 -1.00026 0
M  V30 13977 H 1328.54 2.50927 -0.436747 0
M  V30 13978 H 1329.32 2.71976 -2.09485 0
M  V30 13979 N 1331.77 0.549846 1.47697 0
M  V30 13980 C 1333.05 -0.0422793 1.95554 0
M  V30 13981 C 1333.43 -1.49303 1.49238 0
M  V30 13982 O 1332.77 -2.16598 0.727844 0
M  V30 13983 C 1332.98 0.0955552 3.48869 0
M  V30 13984 C 1334.33 -0.0535698 4.24566 0
M  V30 13985 O 1335.36 0.0227365 3.56193 0
M  V30 13986 O 1334.21 -0.21645 5.46071 0
M  V30 13987 H 1331.31 -0.0682465 0.824179 0
M  V30 13988 H 1333.85 0.615849 1.58131 0
M  V30 13989 H 1332.63 1.10536 3.75363 0
M  V30 13990 H 1332.25 -0.600522 3.93039 0
M  V30 13991 N 1333.25 -1.54984 0.285932 0
M  V30 13992 C 1334.66 -1.59455 -0.0679061 0
M  V30 13993 C 1334.86 -1.30308 -1.53695 0
M  V30 13994 O 1333.92 -1.06918 -2.28746 0
M  V30 13995 C 1335.23 -2.9903 0.316469 0
M  V30 13996 C 1336.78 -3.11885 0.263982 0
M  V30 13997 C 1337.25 -4.53744 0.622956 0
M  V30 13998 N 1338.75 -4.59618 0.574917 0
M  V30 13999 C 1339.48 -5.67429 0.825339 0
M  V30 14000 N 1338.98 -6.83341 1.14094 0
M  V30 14001 N 1340.77 -5.57028 0.75341 0
M  V30 14002 H 1332.92 -1.72194 1.2435 0
M  V30 14003 H 1335.18 -0.80348 0.503114 0
M  V30 14004 H 1334.89 -3.25232 1.33855 0
M  V30 14005 H 1334.76 -3.75688 -0.337371 0
M  V30 14006 H 1337.15 -2.85441 -0.748832 0
M  V30 14007 H 1337.23 -2.37416 0.952233 0
M  V30 14008 H 1336.88 -4.80915 1.63351 0
M  V30 14009 H 1336.81 -5.26528 -0.0872039 0
M  V30 14010 H 1339.3 -3.76356 0.341305 0
M  V30 14011 H 1339.61 -7.61471 1.3184 0
M  V30 14012 H 1337.95 -6.8493 1.17883 0
M  V30 14013 H 1341.15 -4.6535 0.506611 0
M  V30 14014 H 1341.32 -6.4097 0.95195 0
M  V30 14015 N 1334.72 -0.0133892 -1.57594 0
M  V30 14016 C 1335.67 0.97367 -2.09257 0
M  V30 14017 C 1336.64 1.33298 -0.990998 0
M  V30 14018 O 1337.83 1.42903 -1.26425 0
M  V30 14019 C 1334.97 2.25603 -2.61147 0
M  V30 14020 C 1334.08 1.95456 -3.85254 0
M  V30 14021 C 1333.21 3.17871 -4.25596 0
M  V30 14022 C 1332.25 2.83471 -5.42504 0
M  V30 14023 N 1331.39 3.98464 -5.78075 0
M  V30 14024 H 1336.23 0.526189 -2.93318 0
M  V30 14025 H 1333.77 0.248148 -1.44992 0
M  V30 14026 H 1335.73 3.00587 -2.89315 0
M  V30 14027 H 1334.36 2.67995 -1.7994 0
M  V30 14028 H 1333.41 1.10781 -3.63912 0
M  V30 14029 H 1334.72 1.6611 -4.70328 0
M  V30 14030 H 1333.87 4.0119 -4.55117 0
M  V30 14031 H 1332.61 3.50365 -3.39257 0
M  V30 14032 H 1331.62 1.98562 -5.12692 0
M  V30 14033 H 1332.84 2.5221 -6.30529 0
M  V30 14034 H 1330.79 4.3083 -4.94694 0
M  V30 14035 H 1330.71 3.72688 -6.57753 0
M  V30 14036 H 1331.97 4.82532 -6.12195 0
M  V30 14037 N 1336.2 1.55448 0.259558 0
M  V30 14038 C 1337.15 1.90056 1.34096 0
M  V30 14039 C 1338.14 0.778267 1.50464 0
M  V30 14040 O 1339.35 0.962758 1.52089 0
M  V30 14041 H 1335.73 0.603424 0.448758 0
M  V30 14042 H 1337.7 2.80365 1.02166 0
M  V30 14043 C 1336.45 2.20074 2.69189 0
M  V30 14044 H 1335.77 3.05926 2.57389 0
M  V30 14045 H 1337.21 2.48201 3.43762 0
M  V30 14046 C 1335.67 1.01281 3.21316 0
M  V30 14047 O 1336.2 0.2543 4.00894 0
M  V30 14048 N 1334.4 0.806855 2.79174 0
M  V30 14049 H 1333.95 1.42536 2.14572 0
M  V30 14050 H 1333.91 0.0136714 3.14397 0
M  V30 14051 N 1337.68 -0.524672 1.4861 0
M  V30 14052 C 1338.93 -1.28021 1.56898 0
M  V30 14053 C 1339.26 -1.92948 0.245203 0
M  V30 14054 O 1338.51 -1.8013 -0.764966 0
M  V30 14055 C 1338.81 -2.3871 2.65993 0
M  V30 14056 C 1338.48 -1.914 4.08261 0
M  V30 14057 C 1337.14 -1.78215 4.46982 0
M  V30 14058 C 1339.49 -1.55713 4.97396 0
M  V30 14059 C 1336.82 -1.27687 5.72637 0
M  V30 14060 C 1339.17 -1.06645 6.23546 0
M  V30 14061 C 1337.83 -0.920818 6.61118 0
M  V30 14062 H 1337.1 -0.468461 0.57413 0
M  V30 14063 H 1339.75 -0.584901 1.82349 0
M  V30 14064 H 1338.06 -3.13932 2.34422 0
M  V30 14065 H 1339.75 -2.96827 2.6962 0
M  V30 14066 H 1336.34 -2.02614 3.77684 0
M  V30 14067 H 1340.53 -1.64757 4.68155 0
M  V30 14068 H 1335.78 -1.15103 6.00468 0
M  V30 14069 H 1339.96 -0.781048 6.92006 0
M  V30 14070 H 1337.58 -0.527091 7.5837 0
M  V30 14071 N 1339.16 -1.37287 -0.77395 0
M  V30 14072 C 1340.44 -1.2291 -1.52159 0
M  V30 14073 C 1340.82 0.178249 -2.10346 0
M  V30 14074 O 1340.16 1.18564 -1.95333 0
M  V30 14075 C 1340.37 -2.32337 -2.60424 0
M  V30 14076 C 1341.72 -2.69769 -3.27887 0
M  V30 14077 O 1342.75 -2.31497 -2.70717 0
M  V30 14078 O 1341.6 -3.35699 -4.31241 0
M  V30 14079 H 1338.7 -0.47948 -0.673816 0
M  V30 14080 H 1341.24 -1.49061 -0.811105 0
M  V30 14081 H 1340.02 -3.26591 -2.15532 0
M  V30 14082 H 1339.64 -2.07638 -3.39076 0
M  V30 14083 N 1340.64 0.999871 -1.21821 0
M  V30 14084 C 1341.86 1.7794 -1.06546 0
M  V30 14085 C 1342.29 1.84219 0.380115 0
M  V30 14086 O 1341.64 1.28955 1.27438 0
M  V30 14087 C 1341.69 3.1943 -1.67322 0
M  V30 14088 O 1340.8 4.01957 -0.922171 0
M  V30 14089 H 1340.14 0.548204 -0.374658 0
M  V30 14090 H 1342.67 1.2565 -1.61472 0
M  V30 14091 H 1342.68 3.70086 -1.71757 0
M  V30 14092 H 1341.35 3.14175 -2.7252 0
M  V30 14093 H 1339.93 3.60509 -0.95331 0
M  V30 14094 N 1342.11 1.02678 1.19562 0
M  V30 14095 C 1343.04 0.626359 2.24942 0
M  V30 14096 C 1344.03 -0.363612 1.66168 0
M  V30 14097 O 1345.21 -0.246793 1.92625 0
M  V30 14098 C 1342.34 -0.0257912 3.4729 0
M  V30 14099 C 1341.29 0.886237 4.18724 0
M  V30 14100 C 1340.62 0.0993081 5.34608 0
M  V30 14101 C 1341.92 2.19901 4.73752 0
M  V30 14102 H 1343.61 1.50729 2.58691 0
M  V30 14103 H 1341.16 0.726195 1.24348 0
M  V30 14104 H 1343.11 -0.317545 4.20202 0
M  V30 14105 H 1341.84 -0.941511 3.12735 0
M  V30 14106 H 1340.5 1.16215 3.47692 0
M  V30 14107 H 1340.14 -0.81838 4.96298 0
M  V30 14108 H 1339.84 0.706776 5.83334 0
M  V30 14109 H 1341.37 -0.185754 6.10317 0
M  V30 14110 H 1342.78 1.96892 5.3843 0
M  V30 14111 H 1341.18 2.75821 5.32956 0
M  V30 14112 H 1342.25 2.85509 3.91934 0
M  V30 14113 N 1343.59 -1.35528 0.804364 0
M  V30 14114 C 1344.52 -2.32388 0.227604 0
M  V30 14115 C 1345.5 -1.57368 -0.645709 0
M  V30 14116 O 1346.69 -1.85448 -0.576441 0
M  V30 14117 C 1343.82 -3.41603 -0.62645 0
M  V30 14118 C 1342.77 -4.27743 0.148187 0
M  V30 14119 C 1342.1 -5.28259 -0.827425 0
M  V30 14120 C 1343.4 -5.04661 1.34591 0
M  V30 14121 H 1345.09 -2.80874 1.03684 0
M  V30 14122 H 1342.64 -1.3504 0.500031 0
M  V30 14123 H 1344.59 -4.08365 -1.03999 0
M  V30 14124 H 1343.32 -2.91721 -1.46855 0
M  V30 14125 H 1341.97 -3.62558 0.542874 0
M  V30 14126 H 1341.62 -4.74645 -1.66496 0
M  V30 14127 H 1341.32 -5.86763 -0.313453 0
M  V30 14128 H 1342.85 -5.97893 -1.23921 0
M  V30 14129 H 1344.26 -5.6438 1.00736 0
M  V30 14130 H 1342.66 -5.7265 1.79422 0
M  V30 14131 H 1343.73 -4.35432 2.1337 0
M  V30 14132 N 1345.07 -0.557671 -1.47404 0
M  V30 14133 C 1346.32 -0.0420731 -2.03356 0
M  V30 14134 C 1346.67 1.29351 -1.42429 0
M  V30 14135 O 1345.97 1.82901 -0.570759 0
M  V30 14136 C 1346.16 0.108324 -3.57236 0
M  V30 14137 C 1345.99 -1.21113 -4.33084 0
M  V30 14138 C 1344.76 -1.77856 -4.72964 0
M  V30 14139 C 1346.96 -2.12846 -4.68189 0
M  V30 14140 N 1344.94 -3.03801 -5.33458 0
M  V30 14141 C 1346.31 -3.23371 -5.2899 0
M  V30 14142 C 1348.36 -2.12835 -4.50118 0
M  V30 14143 C 1347.07 -4.33985 -5.73629 0
M  V30 14144 C 1349.09 -3.2246 -4.95755 0
M  V30 14145 C 1348.46 -4.31705 -5.56606 0
M  V30 14146 H 1344.55 -0.0575706 -0.779878 0
M  V30 14147 H 1347.14 -0.745062 -1.7988 0
M  V30 14148 H 1345.31 0.780437 -3.80478 0
M  V30 14149 H 1347.04 0.62603 -3.99829 0
M  V30 14150 H 1343.8 -1.31649 -4.54934 0
M  V30 14151 H 1344.22 -3.67998 -5.68249 0
M  V30 14152 H 1348.86 -1.29658 -4.02429 0
M  V30 14153 H 1346.58 -5.17921 -6.20309 0
M  V30 14154 H 1350.17 -3.23539 -4.83543 0
M  V30 14155 H 1349.05 -5.15133 -5.91276 0
M  V30 14156 N 1346.55 1.54831 -0.294147 0
M  V30 14157 C 1347.51 2.21946 0.572061 0
M  V30 14158 C 1348.51 1.20331 1.06663 0
M  V30 14159 O 1349.7 1.45112 0.963757 0
M  V30 14160 C 1346.83 2.90044 1.7913 0
M  V30 14161 H 1348.03 2.99897 -0.0142234 0
M  V30 14162 H 1345.58 1.56235 -0.0449187 0
M  V30 14163 H 1346.32 2.16154 2.4176 0
M  V30 14164 H 1346.1 3.64527 1.44439 0
M  V30 14165 H 1347.59 3.41263 2.40684 0
M  V30 14166 N 1348.03 0.0217466 1.57585 0
M  V30 14167 C 1349.28 -0.657793 1.90672 0
M  V30 14168 C 1349.59 -1.73713 0.899066 0
M  V30 14169 O 1350.8 -2.4728 1.12092 0
M  V30 14170 C 1349.25 -1.22124 3.38547 0
M  V30 14171 C 1348.86 -0.175575 4.47656 0
M  V30 14172 C 1350.6 -1.87771 3.80713 0
M  V30 14173 C 1348.51 -0.750239 5.86622 0
M  V30 14174 H 1347.44 -0.249459 0.711538 0
M  V30 14175 H 1350.09 0.0858449 1.83299 0
M  V30 14176 H 1348.47 -2.01625 3.40828 0
M  V30 14177 H 1349.65 0.596436 4.56924 0
M  V30 14178 H 1347.96 0.381715 4.14647 0
M  V30 14179 H 1350.56 -2.3171 4.81887 0
M  V30 14180 H 1350.9 -2.71737 3.1538 0
M  V30 14181 H 1351.44 -1.14971 3.80823 0
M  V30 14182 H 1348.17 0.0511222 6.5548 0
M  V30 14183 H 1347.69 -1.49091 5.80975 0
M  V30 14184 H 1349.37 -1.24225 6.34962 0
M  V30 14185 N 1349.51 -1.55583 -0.251311 0
M  V30 14186 C 1350.75 -1.77471 -0.981418 0
M  V30 14187 C 1351.08 -0.586228 -1.85141 0
M  V30 14188 O 1350.36 0.415623 -1.90007 0
M  V30 14189 C 1350.64 -3.09204 -1.84567 0
M  V30 14190 C 1350.5 -4.38448 -1.00417 0
M  V30 14191 C 1351.81 -3.37133 -2.82895 0
M  V30 14192 H 1348.93 -0.645664 -0.355369 0
M  V30 14193 H 1351.58 -1.88318 -0.252228 0
M  V30 14194 H 1349.73 -3.00087 -2.46738 0
M  V30 14195 H 1351.4 -4.5955 -0.40149 0
M  V30 14196 H 1349.64 -4.32703 -0.308365 0
M  V30 14197 H 1350.31 -5.26995 -1.64258 0
M  V30 14198 H 1352.79 -3.46183 -2.3086 0
M  V30 14199 H 1351.66 -4.30531 -3.40491 0
M  V30 14200 H 1351.92 -2.57829 -3.59133 0
M  V30 14201 N 1350.98 0.516783 -1.48886 0
M  V30 14202 C 1352.21 1.29628 -1.61258 0
M  V30 14203 C 1352.63 1.86744 -0.27786 0
M  V30 14204 O 1351.98 1.67061 0.734639 0
M  V30 14205 C 1352.03 2.43779 -2.66935 0
M  V30 14206 O 1351.76 1.89014 -3.95228 0
M  V30 14207 C 1353.26 3.35398 -2.89867 0
M  V30 14208 H 1350.48 0.393736 -0.543335 0
M  V30 14209 H 1353.02 0.622069 -1.94809 0
M  V30 14210 H 1351.18 3.0706 -2.36206 0
M  V30 14211 H 1351.59 2.63833 -4.53312 0
M  V30 14212 H 1353.06 4.11812 -3.6758 0
M  V30 14213 H 1353.54 3.91436 -1.99185 0
M  V30 14214 H 1354.15 2.77898 -3.21952 0
M  V30 14215 N 1352.46 1.37696 0.766659 0
M  V30 14216 C 1353.71 1.33382 1.52765 0
M  V30 14217 C 1354.04 -0.0800569 1.94035 0
M  V30 14218 O 1353.32 -1.03848 1.64456 0
M  V30 14219 C 1353.6 2.2776 2.78922 0
M  V30 14220 C 1353.45 3.77949 2.43874 0
M  V30 14221 C 1354.77 2.20494 3.80881 0
M  V30 14222 H 1351.89 0.485836 0.554195 0
M  V30 14223 H 1354.53 1.68438 0.879119 0
M  V30 14224 H 1352.68 1.97994 3.34261 0
M  V30 14225 H 1354.35 4.18333 1.9441 0
M  V30 14226 H 1352.6 3.96269 1.76503 0
M  V30 14227 H 1353.27 4.39428 3.34077 0
M  V30 14228 H 1355.74 2.46742 3.35048 0
M  V30 14229 H 1354.62 2.88663 4.66867 0
M  V30 14230 H 1354.88 1.19951 4.25516 0
M  V30 14231 N 1353.94 -0.993397 1.22349 0
M  V30 14232 C 1355.19 -1.73287 1.04775 0
M  V30 14233 C 1355.51 -1.89973 -0.417201 0
M  V30 14234 O 1354.77 -1.43966 -1.32561 0
M  V30 14235 C 1355.07 -3.14191 1.70349 0
M  V30 14236 C 1354.73 -3.17421 3.20241 0
M  V30 14237 C 1353.4 -3.1801 3.61141 0
M  V30 14238 C 1355.75 -3.13751 4.16185 0
M  V30 14239 C 1353.08 -3.12628 4.96468 0
M  V30 14240 C 1355.43 -3.09911 5.51487 0
M  V30 14241 C 1354.09 -3.08815 5.91768 0
M  V30 14242 H 1353.36 -0.634102 0.3834 0
M  V30 14243 H 1356.01 -1.16346 1.52105 0
M  V30 14244 H 1354.31 -3.74437 1.15343 0
M  V30 14245 H 1356.01 -3.70149 1.54242 0
M  V30 14246 H 1352.6 -3.17713 2.87674 0
M  V30 14247 H 1356.79 -3.12446 3.85605 0
M  V30 14248 H 1352.04 -3.10125 5.26909 0
M  V30 14249 H 1356.22 -3.06026 6.25556 0
M  V30 14250 H 1353.84 -3.044 6.96595 0
M  V30 14251 N 1355.42 -1.03311 -1.19015 0
M  V30 14252 C 1356.35 -0.575655 -2.21853 0
M  V30 14253 C 1357.36 0.350705 -1.58978 0
M  V30 14254 O 1358.55 0.146425 -1.77898 0
M  V30 14255 C 1355.65 0.179949 -3.38422 0
M  V30 14256 C 1354.82 -0.752403 -4.3088 0
M  V30 14257 C 1353.88 -0.0414484 -5.26184 0
M  V30 14258 O 1352.91 -0.669403 -5.6525 0
M  V30 14259 N 1354.11 1.22783 -5.67366 0
M  V30 14260 H 1356.88 -1.46013 -2.61726 0
M  V30 14261 H 1354.44 -0.912655 -1.33724 0
M  V30 14262 H 1356.43 0.66522 -3.99195 0
M  V30 14263 H 1355 0.965879 -2.97304 0
M  V30 14264 H 1354.22 -1.41768 -3.67825 0
M  V30 14265 H 1355.51 -1.38592 -4.89561 0
M  V30 14266 H 1354.91 1.75867 -5.37668 0
M  V30 14267 H 1353.46 1.65752 -6.30372 0
M  V30 14268 N 1356.9 1.35099 -0.81154 0
M  V30 14269 C 1358.14 1.9788 -0.390695 0
M  V30 14270 C 1358.46 1.6509 1.04903 0
M  V30 14271 O 1359.66 2.21273 1.57324 0
M  V30 14272 C 1358.12 3.54025 -0.647632 0
M  V30 14273 C 1357.73 3.9572 -2.10023 0
M  V30 14274 C 1359.47 4.23492 -0.29239 0
M  V30 14275 C 1357.38 5.44731 -2.30266 0
M  V30 14276 H 1356.31 0.740441 -0.14235 0
M  V30 14277 H 1358.96 1.54098 -0.996294 0
M  V30 14278 H 1357.34 3.9599 0.0279838 0
M  V30 14279 H 1358.52 3.64893 -2.81407 0
M  V30 14280 H 1356.83 3.39157 -2.41581 0
M  V30 14281 H 1359.43 5.33035 -0.421618 0
M  V30 14282 H 1359.77 4.09268 0.76195 0
M  V30 14283 H 1360.3 3.86965 -0.922122 0
M  V30 14284 H 1357.04 5.63928 -3.34163 0
M  V30 14285 H 1356.56 5.7711 -1.63413 0
M  V30 14286 H 1358.24 6.1126 -2.12062 0
M  V30 14287 N 1358.37 0.56548 1.47106 0
M  V30 14288 C 1359.3 -0.16567 2.32912 0
M  V30 14289 C 1360.28 -0.900678 1.44298 0
M  V30 14290 O 1361.47 -0.879523 1.73142 0
M  V30 14291 C 1358.6 -1.19092 3.26243 0
M  V30 14292 C 1357.55 -0.571849 4.24163 0
M  V30 14293 C 1356.88 -1.70233 5.06878 0
M  V30 14294 C 1358.18 0.479785 5.20092 0
M  V30 14295 H 1359.87 0.550705 2.94292 0
M  V30 14296 H 1357.42 0.266284 1.41517 0
M  V30 14297 H 1359.37 -1.71064 3.85117 0
M  V30 14298 H 1358.1 -1.93734 2.62934 0
M  V30 14299 H 1356.76 -0.073353 3.66527 0
M  V30 14300 H 1356.4 -2.438 4.39967 0
M  V30 14301 H 1356.1 -1.29384 5.73178 0
M  V30 14302 H 1357.63 -2.22515 5.68612 0
M  V30 14303 H 1359.04 0.0458042 5.73282 0
M  V30 14304 H 1357.44 0.807615 5.94641 0
M  V30 14305 H 1358.51 1.37259 4.65068 0
M  V30 14306 N 1359.85 -1.54672 0.302354 0
M  V30 14307 C 1361.08 -2.04578 -0.309093 0
M  V30 14308 C 1361.5 -1.17957 -1.47416 0
M  V30 14309 O 1360.85 -0.2055 -1.81339 0
M  V30 14310 C 1360.9 -3.53334 -0.764023 0
M  V30 14311 O 1360.62 -4.36662 0.354674 0
M  V30 14312 C 1362.13 -4.19243 -1.44048 0
M  V30 14313 H 1359.35 -0.667651 -0.0669575 0
M  V30 14314 H 1361.89 -1.99658 0.442379 0
M  V30 14315 H 1360.04 -3.5861 -1.46552 0
M  V30 14316 H 1360.46 -5.245 0.000241188 0
M  V30 14317 H 1361.93 -5.24847 -1.70995 0
M  V30 14318 H 1362.41 -3.69061 -2.38098 0
M  V30 14319 H 1363.02 -4.18046 -0.782132 0
M  V30 14320 N 1361.33 -0.0301034 -1.57571 0
M  V30 14321 C 1362.26 0.980187 -2.07183 0
M  V30 14322 C 1363.28 1.2882 -0.995449 0
M  V30 14323 O 1364.46 1.25268 -1.27162 0
M  V30 14324 C 1361.56 2.30734 -2.48224 0
M  V30 14325 C 1360.74 2.18434 -3.78953 0
M  V30 14326 C 1359.8 3.34092 -4.06533 0
M  V30 14327 O 1358.82 3.10934 -4.76769 0
M  V30 14328 N 1360.02 4.57914 -3.56784 0
M  V30 14329 H 1362.79 0.556877 -2.94481 0
M  V30 14330 H 1360.35 0.156632 -1.61141 0
M  V30 14331 H 1362.34 3.06936 -2.63766 0
M  V30 14332 H 1360.91 2.64703 -1.66287 0
M  V30 14333 H 1360.13 1.26953 -3.73198 0
M  V30 14334 H 1361.42 2.07421 -4.64601 0
M  V30 14335 H 1360.82 4.79623 -2.99964 0
M  V30 14336 H 1359.38 5.31281 -3.77603 0
M  V30 14337 N 1362.81 1.55714 0.243056 0
M  V30 14338 C 1363.72 1.93777 1.32241 0
M  V30 14339 C 1364.73 0.838709 1.52452 0
M  V30 14340 O 1365.91 1.14044 1.66 0
M  V30 14341 C 1362.98 2.22808 2.65627 0
M  V30 14342 C 1362.04 3.46166 2.53904 0
M  V30 14343 C 1361.27 3.73802 3.8093 0
M  V30 14344 O 1361.49 3.0345 4.82985 0
M  V30 14345 O 1360.43 4.67323 3.79332 0
M  V30 14346 H 1364.25 2.85718 1.02951 0
M  V30 14347 H 1361.84 1.42646 0.444135 0
M  V30 14348 H 1363.72 2.4277 3.44442 0
M  V30 14349 H 1362.39 1.34045 2.94642 0
M  V30 14350 H 1361.3 3.31506 1.73362 0
M  V30 14351 H 1362.63 4.35244 2.29834 0
M  V30 14352 N 1364.29 -0.50888 1.49158 0
M  V30 14353 C 1365.56 -1.27021 1.48745 0
M  V30 14354 C 1365.94 -2.10045 0.210772 0
M  V30 14355 O 1365.29 -2.13773 -0.807061 0
M  V30 14356 C 1365.5 -2.13367 2.76181 0
M  V30 14357 C 1366.85 -2.72815 3.25357 0
M  V30 14358 O 1367.87 -2.23639 2.77243 0
M  V30 14359 O 1366.73 -3.62316 4.09133 0
M  V30 14360 H 1363.83 -0.574387 0.594986 0
M  V30 14361 H 1366.37 -0.523798 1.61414 0
M  V30 14362 H 1365.14 -1.51941 3.60596 0
M  V30 14363 H 1364.77 -2.95215 2.66334 0
M  V30 14364 N 1365.76 -1.381 -0.759346 0
M  V30 14365 C 1367.01 -1.35196 -1.51966 0
M  V30 14366 C 1367.37 0.0595044 -1.92308 0
M  V30 14367 O 1366.66 1.02089 -1.62137 0
M  V30 14368 C 1366.85 -2.23636 -2.78786 0
M  V30 14369 C 1366.68 -3.73241 -2.50841 0
M  V30 14370 C 1365.45 -4.42292 -2.44348 0
M  V30 14371 C 1367.65 -4.6581 -2.18003 0
M  V30 14372 N 1365.63 -5.77366 -2.08617 0
M  V30 14373 C 1367 -5.89354 -1.92516 0
M  V30 14374 C 1369.06 -4.54071 -2.04264 0
M  V30 14375 C 1367.76 -7.02473 -1.54675 0
M  V30 14376 C 1369.79 -5.67088 -1.67825 0
M  V30 14377 C 1369.15 -6.89689 -1.43206 0
M  V30 14378 H 1365.25 -0.550002 -0.555897 0
M  V30 14379 H 1367.83 -1.73436 -0.884769 0
M  V30 14380 H 1366 -1.87594 -3.40093 0
M  V30 14381 H 1367.73 -2.119 -3.44791 0
M  V30 14382 H 1364.49 -3.95439 -2.60624 0
M  V30 14383 H 1364.91 -6.48784 -1.93414 0
M  V30 14384 H 1369.56 -3.59843 -2.21975 0
M  V30 14385 H 1367.27 -7.96624 -1.35704 0
M  V30 14386 H 1370.86 -5.59982 -1.57834 0
M  V30 14387 H 1369.74 -7.75658 -1.15428 0
M  V30 14388 N 1367.24 0.986894 -1.22875 0
M  V30 14389 C 1368.19 2.09935 -1.00151 0
M  V30 14390 C 1369.18 1.69303 0.0573751 0
M  V30 14391 O 1370.39 1.79746 -0.0955781 0
M  V30 14392 H 1366.77 0.686605 -0.306721 0
M  V30 14393 H 1368.74 2.26271 -1.94535 0
M  V30 14394 C 1367.49 3.42442 -0.602374 0
M  V30 14395 H 1366.81 3.74154 -1.40886 0
M  V30 14396 H 1368.25 4.21242 -0.482836 0
M  V30 14397 C 1366.71 3.29785 0.688707 0
M  V30 14398 O 1367.24 3.6208 1.73957 0
M  V30 14399 N 1365.44 2.82956 0.662152 0
M  V30 14400 H 1364.99 2.56873 -0.193337 0
M  V30 14401 H 1364.95 2.74869 1.52625 0
M  V30 14402 N 1368.72 1.0394 1.18466 0
M  V30 14403 C 1369.67 0.629352 2.22054 0
M  V30 14404 C 1370.64 -0.362187 1.62103 0
M  V30 14405 O 1371.82 -0.256457 1.89069 0
M  V30 14406 C 1368.96 -0.00282888 3.451 0
M  V30 14407 C 1368.08 1.03602 4.19393 0
M  V30 14408 C 1367.21 0.372492 5.29892 0
M  V30 14409 C 1366.25 1.39652 5.95956 0
M  V30 14410 N 1365.39 0.758053 6.97996 0
M  V30 14411 H 1370.23 1.51722 2.56485 0
M  V30 14412 H 1367.76 0.759043 1.26004 0
M  V30 14413 H 1369.72 -0.386688 4.15404 0
M  V30 14414 H 1368.35 -0.854224 3.11292 0
M  V30 14415 H 1367.4 1.53784 3.47929 0
M  V30 14416 H 1368.72 1.81387 4.64651 0
M  V30 14417 H 1367.87 -0.065642 6.06664 0
M  V30 14418 H 1366.61 -0.437462 4.85734 0
M  V30 14419 H 1365.61 1.84481 5.17926 0
M  V30 14420 H 1366.84 2.20816 6.42197 0
M  V30 14421 H 1364.78 -0.0316173 6.55992 0
M  V30 14422 H 1364.7 1.47363 7.41499 0
M  V30 14423 H 1365.97 0.344273 7.78739 0
M  V30 14424 N 1370.2 -1.34667 0.818693 0
M  V30 14425 C 1371.44 -1.98708 0.405359 0
M  V30 14426 C 1371.78 -1.64767 -1.02788 0
M  V30 14427 O 1371.05 -0.91714 -1.71519 0
M  V30 14428 C 1371.34 -3.55016 0.602966 0
M  V30 14429 C 1371.19 -3.98713 2.08201 0
M  V30 14430 C 1372.51 -4.40085 0.0362489 0
M  V30 14431 H 1369.63 -0.721831 0.148756 0
M  V30 14432 H 1372.27 -1.59628 1.03047 0
M  V30 14433 H 1370.42 -3.88435 0.0708453 0
M  V30 14434 H 1372.09 -3.75647 2.67745 0
M  V30 14435 H 1370.33 -3.49179 2.57403 0
M  V30 14436 H 1371 -5.0751 2.17111 0
M  V30 14437 H 1373.48 -4.13195 0.490837 0
M  V30 14438 H 1372.36 -5.4852 0.204344 0
M  V30 14439 H 1372.62 -4.29243 -1.05845 0
M  V30 14440 N 1371.68 -0.573274 -1.46804 0
M  V30 14441 C 1372.61 0.153316 -2.32996 0
M  V30 14442 C 1373.59 0.893013 -1.44773 0
M  V30 14443 O 1374.77 0.870329 -1.73606 0
M  V30 14444 C 1371.9 1.1736 -3.2687 0
M  V30 14445 C 1370.86 0.549347 -4.2446 0
M  V30 14446 C 1370.18 1.67542 -5.07773 0
M  V30 14447 C 1371.48 -0.50736 -5.1983 0
M  V30 14448 H 1373.18 -0.566305 -2.93995 0
M  V30 14449 H 1370.72 -0.273785 -1.41373 0
M  V30 14450 H 1372.68 1.6902 -3.86019 0
M  V30 14451 H 1371.4 1.92337 -2.63958 0
M  V30 14452 H 1370.06 0.0539142 -3.6656 0
M  V30 14453 H 1369.71 2.41463 -4.41253 0
M  V30 14454 H 1369.41 1.26343 -5.73856 0
M  V30 14455 H 1370.93 2.19496 -5.69784 0
M  V30 14456 H 1372.34 -0.0762061 -5.73249 0
M  V30 14457 H 1370.74 -0.839139 -5.94204 0
M  V30 14458 H 1371.81 -1.39723 -4.64333 0
M  V30 14459 N 1373.15 1.5451 -0.310553 0
M  V30 14460 C 1374.38 2.04442 0.297807 0
M  V30 14461 C 1374.79 1.18695 1.47337 0
M  V30 14462 O 1374.14 0.207405 1.82525 0
M  V30 14463 C 1374.2 3.50306 0.807851 0
M  V30 14464 C 1373.86 4.5635 -0.24369 0
M  V30 14465 C 1374.86 5.08656 -1.07539 0
M  V30 14466 C 1372.54 5.00798 -0.388138 0
M  V30 14467 C 1374.54 6.03961 -2.03738 0
M  V30 14468 C 1372.22 5.95921 -1.35357 0
M  V30 14469 C 1373.22 6.47387 -2.17667 0
M  V30 14470 O 1372.91 7.40644 -3.12571 0
M  V30 14471 H 1372.64 0.672646 0.0672525 0
M  V30 14472 H 1375.2 2.00389 -0.450948 0
M  V30 14473 H 1373.43 3.51714 1.6073 0
M  V30 14474 H 1375.12 3.83383 1.33314 0
M  V30 14475 H 1375.88 4.75105 -0.97471 0
M  V30 14476 H 1371.76 4.60361 0.242608 0
M  V30 14477 H 1375.3 6.44057 -2.68023 0
M  V30 14478 H 1371.2 6.2889 -1.45493 0
M  V30 14479 H 1371.97 7.58477 -3.0766 0
M  V30 14480 N 1374.63 0.0384594 1.57553 0
M  V30 14481 C 1375.58 -0.958199 2.11946 0
M  V30 14482 C 1376.58 -1.33073 1.04823 0
M  V30 14483 O 1377.78 -1.31187 1.23247 0
M  V30 14484 H 1374.16 -0.326819 0.677269 0
M  V30 14485 H 1376.13 -0.474211 2.94608 0
M  V30 14486 C 1374.88 -2.22821 2.6692 0
M  V30 14487 H 1374.2 -1.95032 3.49002 0
M  V30 14488 H 1375.64 -2.90746 3.08614 0
M  V30 14489 C 1374.1 -2.96429 1.60098 0
M  V30 14490 O 1374.63 -3.88892 1.00628 0
M  V30 14491 N 1372.83 -2.58931 1.3192 0
M  V30 14492 H 1372.38 -1.83818 1.80468 0
M  V30 14493 H 1372.34 -3.0849 0.60674 0
M  V30 14494 N 1376.11 -1.55841 -0.234795 0
M  V30 14495 C 1377.36 -1.77886 -0.959217 0
M  V30 14496 C 1377.68 -0.604621 -1.8539 0
M  V30 14497 O 1376.95 0.379092 -1.92197 0
M  V30 14498 H 1375.53 -0.656077 -0.357172 0
M  V30 14499 H 1378.19 -1.93292 -0.249831 0
M  V30 14500 H 1377.29 -2.69512 -1.57383 0
M  V30 14501 N 1377.59 0.500963 -1.49426 0
M  V30 14502 C 1378.52 1.62019 -1.60701 0
M  V30 14503 C 1379.5 1.56072 -0.456092 0
M  V30 14504 O 1380.68 1.76128 -0.671642 0
M  V30 14505 C 1377.81 3.00532 -1.56199 0
M  V30 14506 C 1376.86 3.2474 -2.76489 0
M  V30 14507 S 1377.69 3.07859 -4.38159 0
M  V30 14508 C 1378.85 4.48767 -4.36301 0
M  V30 14509 H 1379.08 1.5221 -2.55381 0
M  V30 14510 H 1376.61 0.686122 -1.38317 0
M  V30 14511 H 1378.57 3.80402 -1.54287 0
M  V30 14512 H 1377.23 3.07757 -0.628067 0
M  V30 14513 H 1376.42 4.25858 -2.69558 0
M  V30 14514 H 1376.03 2.52593 -2.75813 0
M  V30 14515 H 1378.32 5.40854 -4.08023 0
M  V30 14516 H 1379.26 4.60748 -5.37696 0
M  V30 14517 H 1379.67 4.29448 -3.6638 0
M  V30 14518 N 1379.07 1.38501 0.752011 0
M  V30 14519 C 1380.03 1.35655 1.84744 0
M  V30 14520 C 1381.03 0.256772 1.58737 0
M  V30 14521 O 1382.22 0.513749 1.66452 0
M  V30 14522 C 1379.35 1.11231 3.22243 0
M  V30 14523 H 1380.55 2.33114 1.88674 0
M  V30 14524 H 1378.1 1.23818 0.953882 0
M  V30 14525 H 1378.83 0.143848 3.23981 0
M  V30 14526 H 1378.62 1.90857 3.42515 0
M  V30 14527 H 1380.11 1.11939 4.02318 0
M  V30 14528 N 1380.55 -0.980364 1.23396 0
M  V30 14529 C 1381.77 -1.76223 1.09363 0
M  V30 14530 C 1382.2 -1.84801 -0.350759 0
M  V30 14531 O 1381.55 -1.30966 -1.2537 0
M  V30 14532 C 1381.6 -3.16728 1.72383 0
M  V30 14533 O 1380.71 -4.00439 0.986002 0
M  V30 14534 H 1380.05 -0.542174 0.383332 0
M  V30 14535 H 1382.58 -1.23066 1.6345 0
M  V30 14536 H 1382.59 -3.67307 1.77623 0
M  V30 14537 H 1381.26 -3.098 2.77483 0
M  V30 14538 H 1379.84 -3.58946 1.01054 0
M  V30 14539 N 1382.02 -1.04567 -1.17913 0
M  V30 14540 C 1383.25 -0.772204 -1.9195 0
M  V30 14541 C 1383.67 0.671303 -1.76462 0
M  V30 14542 O 1383.02 1.45805 -1.0976 0
M  V30 14543 C 1383.07 -1.13539 -3.43207 0
M  V30 14544 O 1382.8 -2.52223 -3.58211 0
M  V30 14545 C 1384.3 -0.887146 -4.34332 0
M  V30 14546 H 1381.52 -0.281234 -0.609219 0
M  V30 14547 H 1384.06 -1.39467 -1.49563 0
M  V30 14548 H 1382.22 -0.557784 -3.83363 0
M  V30 14549 H 1382.63 -2.66275 -4.51882 0
M  V30 14550 H 1384.1 -1.19107 -5.38997 0
M  V30 14551 H 1384.58 0.1779 -4.3884 0
M  V30 14552 H 1385.19 -1.44829 -3.99881 0
M  V30 14553 N 1383.5 1.34231 -0.825823 0
M  V30 14554 C 1384.73 2.02949 -0.427354 0
M  V30 14555 C 1385.15 1.61772 0.959755 0
M  V30 14556 O 1384.51 0.803799 1.62508 0
M  V30 14557 C 1384.56 3.56522 -0.540799 0
M  V30 14558 O 1383.66 4.10065 0.438213 0
M  V30 14559 H 1383 0.640378 -0.175535 0
M  V30 14560 H 1385.53 1.71416 -1.11704 0
M  V30 14561 H 1385.54 4.05857 -0.41763 0
M  V30 14562 H 1384.22 3.85839 -1.55246 0
M  V30 14563 H 1382.79 3.71894 0.273687 0
M  V30 14564 N 1384.98 0.581051 1.46498 0
M  V30 14565 C 1386.2 0.0696654 2.07283 0
M  V30 14566 C 1386.63 -1.22525 1.42721 0
M  V30 14567 O 1385.99 -1.73967 0.510421 0
M  V30 14568 C 1386.04 -0.0843864 3.60501 0
M  V30 14569 O 1385.14 -1.14129 3.96293 0
M  V30 14570 H 1384.48 0.0620572 0.661094 0
M  V30 14571 H 1387.01 0.803522 1.88161 0
M  V30 14572 H 1387.02 -0.29108 4.0696 0
M  V30 14573 H 1385.7 0.861274 4.06884 0
M  V30 14574 H 1384.27 -0.913186 3.61546 0
M  V30 14575 N 1386.46 -1.54343 0.318742 0
M  V30 14576 C 1387.7 -2.01485 -0.278487 0
M  V30 14577 C 1388.06 -1.20298 -1.50154 0
M  V30 14578 O 1387.35 -0.275803 -1.89605 0
M  V30 14579 C 1387.55 -3.51079 -0.669181 0
M  V30 14580 C 1387.37 -4.46748 0.514464 0
M  V30 14581 C 1386.14 -4.95061 1.01206 0
M  V30 14582 C 1388.34 -4.95852 1.36512 0
M  V30 14583 N 1386.32 -5.74622 2.16061 0
M  V30 14584 C 1387.7 -5.7329 2.36091 0
M  V30 14585 C 1389.75 -4.78004 1.39344 0
M  V30 14586 C 1388.45 -6.3478 3.38301 0
M  V30 14587 C 1390.48 -5.40325 2.40422 0
M  V30 14588 C 1389.84 -6.1761 3.38728 0
M  V30 14589 H 1385.94 -0.77922 -0.0658815 0
M  V30 14590 H 1388.52 -1.89364 0.452687 0
M  V30 14591 H 1386.7 -3.63455 -1.3695 0
M  V30 14592 H 1388.43 -3.84994 -1.24747 0
M  V30 14593 H 1385.18 -4.69984 0.584127 0
M  V30 14594 H 1385.61 -6.19082 2.73983 0
M  V30 14595 H 1390.25 -4.17819 0.64709 0
M  V30 14596 H 1387.97 -6.94088 4.13845 0
M  V30 14597 H 1391.55 -5.28435 2.43409 0
M  V30 14598 H 1390.43 -6.64978 4.15661 0
M  V30 14599 N 1387.94 -0.0468143 -1.5753 0
M  V30 14600 C 1388.9 0.914225 -2.10177 0
M  V30 14601 C 1389.9 1.24271 -1.02045 0
M  V30 14602 O 1391.09 1.18012 -1.28136 0
M  V30 14603 C 1388.22 2.22544 -2.58238 0
M  V30 14604 H 1389.41 0.457922 -2.96383 0
M  V30 14605 H 1386.97 0.20152 -1.54995 0
M  V30 14606 H 1387.7 2.72765 -1.75413 0
M  V30 14607 H 1387.49 2.00007 -3.37253 0
M  V30 14608 H 1388.98 2.91392 -2.99133 0
M  V30 14609 N 1389.41 1.55964 0.226527 0
M  V30 14610 C 1390.38 1.91184 1.26418 0
M  V30 14611 C 1391.38 0.789982 1.40057 0
M  V30 14612 O 1392.57 1.05778 1.38407 0
M  V30 14613 C 1389.7 2.15826 2.63878 0
M  V30 14614 H 1390.89 2.83986 0.963956 0
M  V30 14615 H 1388.45 1.49169 0.466726 0
M  V30 14616 H 1389.18 1.2556 2.99007 0
M  V30 14617 H 1388.97 2.97549 2.55356 0
M  V30 14618 H 1390.46 2.44188 3.38765 0
M  V30 14619 N 1390.89 -0.493031 1.4969 0
M  V30 14620 C 1391.82 -1.60215 1.69863 0
M  V30 14621 C 1392.8 -1.61053 0.547362 0
M  V30 14622 O 1393.99 -1.77667 0.784093 0
M  V30 14623 C 1391.12 -2.98662 1.77252 0
M  V30 14624 C 1390.07 -3.1269 2.92248 0
M  V30 14625 C 1389.4 -4.52567 2.84758 0
M  V30 14626 C 1390.7 -2.91965 4.33074 0
M  V30 14627 H 1392.39 -1.43587 2.62723 0
M  V30 14628 H 1389.94 -0.689334 1.26429 0
M  V30 14629 H 1391.89 -3.7616 1.89951 0
M  V30 14630 H 1390.62 -3.16397 0.809976 0
M  V30 14631 H 1389.27 -2.37619 2.79164 0
M  V30 14632 H 1388.92 -4.6719 1.86394 0
M  V30 14633 H 1388.62 -4.62893 3.61944 0
M  V30 14634 H 1390.15 -5.32116 2.99475 0
M  V30 14635 H 1391.56 -3.59228 4.46798 0
M  V30 14636 H 1389.96 -3.13756 5.11544 0
M  V30 14637 H 1391.03 -1.88015 4.46966 0
M  V30 14638 N 1392.37 -1.38898 -0.744656 0
M  V30 14639 C 1393.6 -1.38647 -1.53169 0
M  V30 14640 C 1394.01 0.0233199 -1.89186 0
M  V30 14641 O 1393.35 1.00261 -1.53927 0
M  V30 14642 C 1393.41 -2.18615 -2.85391 0
M  V30 14643 C 1393.08 -3.67342 -2.71862 0
M  V30 14644 C 1394.07 -4.60638 -2.41057 0
M  V30 14645 C 1391.76 -4.10809 -2.89035 0
M  V30 14646 C 1393.75 -5.95383 -2.27592 0
M  V30 14647 C 1391.44 -5.45632 -2.7519 0
M  V30 14648 C 1392.44 -6.37733 -2.44512 0
M  V30 14649 O 1392.13 -7.70074 -2.30741 0
M  V30 14650 H 1391.86 -0.475741 -0.480257 0
M  V30 14651 H 1394.41 -1.8321 -0.928621 0
M  V30 14652 H 1392.64 -1.68784 -3.47921 0
M  V30 14653 H 1394.33 -2.1066 -3.46954 0
M  V30 14654 H 1395.1 -4.28359 -2.2745 0
M  V30 14655 H 1390.98 -3.39462 -3.11908 0
M  V30 14656 H 1394.52 -6.67237 -2.03569 0
M  V30 14657 H 1390.42 -5.77504 -2.88373 0
M  V30 14658 H 1391.19 -7.80694 -2.45885 0
M  V30 14659 N 1393.85 0.973806 -1.23914 0
M  V30 14660 C 1395.1 1.71598 -1.07519 0
M  V30 14661 C 1395.42 1.90613 0.386926 0
M  V30 14662 O 1394.68 1.46056 1.30254 0
M  V30 14663 C 1394.98 3.11441 -1.75326 0
M  V30 14664 C 1394.64 3.12286 -3.25251 0
M  V30 14665 C 1393.31 3.12224 -3.66155 0
M  V30 14666 C 1395.66 3.0709 -4.21124 0
M  V30 14667 C 1392.99 3.0469 -5.01379 0
M  V30 14668 C 1395.34 3.01098 -5.56348 0
M  V30 14669 C 1394 2.99362 -5.96606 0
M  V30 14670 H 1393.27 0.627922 -0.39344 0
M  V30 14671 H 1395.92 1.13912 -1.53936 0
M  V30 14672 H 1394.22 3.72555 -1.21286 0
M  V30 14673 H 1395.92 3.67649 -1.60111 0
M  V30 14674 H 1392.51 3.13096 -2.92693 0
M  V30 14675 H 1396.69 3.06272 -3.90527 0
M  V30 14676 H 1391.95 3.01703 -5.31776 0
M  V30 14677 H 1396.12 2.96036 -6.30346 0
M  V30 14678 H 1393.75 2.93279 -7.0135 0
M  V30 14679 N 1395.33 1.05191 1.17357 0
M  V30 14680 C 1396.58 0.757104 1.86951 0
M  V30 14681 C 1396.89 -0.718637 1.8192 0
M  V30 14682 O 1398.09 -1.12739 2.46986 0
M  V30 14683 C 1396.55 1.30409 3.35442 0
M  V30 14684 C 1396.16 2.80928 3.48975 0
M  V30 14685 C 1397.9 1.08633 4.10365 0
M  V30 14686 C 1395.81 3.28927 4.91488 0
M  V30 14687 H 1394.74 0.279525 0.700273 0
M  V30 14688 H 1397.39 1.2692 1.32528 0
M  V30 14689 H 1395.77 0.719812 3.89403 0
M  V30 14690 H 1396.95 3.45211 3.05231 0
M  V30 14691 H 1395.26 3.01245 2.87473 0
M  V30 14692 H 1397.86 1.41996 5.15501 0
M  V30 14693 H 1398.2 0.0240903 4.16293 0
M  V30 14694 H 1398.73 1.63581 3.6261 0
M  V30 14695 H 1395.47 4.34581 4.90734 0
M  V30 14696 H 1394.99 2.69386 5.35902 0
M  V30 14697 H 1396.67 3.23605 5.60258 0
M  V30 14698 N 1396.8 -1.33791 0.83293 0
M  V30 14699 C 1397.77 -2.27637 0.267196 0
M  V30 14700 C 1398.77 -1.50709 -0.560669 0
M  V30 14701 O 1399.96 -1.70109 -0.375321 0
M  V30 14702 C 1397.09 -3.35136 -0.624248 0
M  V30 14703 H 1398.28 -2.79186 1.09522 0
M  V30 14704 H 1395.84 -1.44093 0.605554 0
M  V30 14705 H 1396.57 -2.88818 -1.47494 0
M  V30 14706 H 1396.36 -3.92087 -0.0319827 0
M  V30 14707 H 1397.85 -4.05113 -1.01355 0
M  V30 14708 N 1398.28 -0.588812 -1.46187 0
M  V30 14709 C 1399.21 0.128595 -2.33146 0
M  V30 14710 C 1400.19 0.877608 -1.45712 0
M  V30 14711 O 1401.38 0.851866 -1.74519 0
M  V30 14712 C 1398.51 1.13886 -3.28096 0
M  V30 14713 C 1397.46 0.504296 -4.25019 0
M  V30 14714 C 1396.79 1.62147 -5.09522 0
M  V30 14715 C 1398.09 -0.562466 -5.19263 0
M  V30 14716 H 1399.78 -0.597455 -2.93378 0
M  V30 14717 H 1397.33 -0.288764 -1.41075 0
M  V30 14718 H 1399.28 1.64916 -3.8779 0
M  V30 14719 H 1398.01 1.89527 -2.65983 0
M  V30 14720 H 1396.66 0.0150325 -3.66597 0
M  V30 14721 H 1396.31 2.36769 -4.4379 0
M  V30 14722 H 1396.01 1.20249 -5.75164 0
M  V30 14723 H 1397.54 2.13441 -5.7208 0
M  V30 14724 H 1398.95 -0.137003 -5.73136 0
M  V30 14725 H 1397.35 -0.902115 -5.93281 0
M  V30 14726 H 1398.42 -1.4464 -4.62825 0
M  V30 14727 N 1399.76 1.54172 -0.326923 0
M  V30 14728 C 1400.69 2.20703 0.580137 0
M  V30 14729 C 1401.67 1.18523 1.11315 0
M  V30 14730 O 1402.86 1.47276 1.17652 0
M  V30 14731 C 1399.98 2.87137 1.79638 0
M  V30 14732 C 1399.03 4.03064 1.39432 0
M  V30 14733 S 1399.86 5.33785 0.428179 0
M  V30 14734 C 1401.02 6.03715 1.65163 0
M  V30 14735 H 1401.25 2.97296 0.0149964 0
M  V30 14736 H 1398.78 1.54 -0.111004 0
M  V30 14737 H 1400.74 3.26035 2.49423 0
M  V30 14738 H 1399.4 2.1034 2.33272 0
M  V30 14739 H 1398.6 4.48424 2.3007 0
M  V30 14740 H 1398.2 3.65858 0.776144 0
M  V30 14741 H 1400.49 6.26098 2.58858 0
M  V30 14742 H 1401.43 6.97156 1.24014 0
M  V30 14743 H 1401.84 5.33666 1.84014 0
M  V30 14744 N 1401.24 0.0551678 1.57503 0
M  V30 14745 C 1402.47 -0.6272 1.97164 0
M  V30 14746 C 1402.88 -1.64143 0.932876 0
M  V30 14747 O 1402.24 -1.82314 -0.0824465 0
M  V30 14748 C 1402.29 -1.31057 3.36907 0
M  V30 14749 O 1402.01 -0.336951 4.36802 0
M  V30 14750 C 1403.51 -2.08232 3.91349 0
M  V30 14751 H 1400.73 -0.171196 0.648793 0
M  V30 14752 H 1403.28 0.122651 2.04132 0
M  V30 14753 H 1401.43 -2.01162 3.31078 0
M  V30 14754 H 1401.84 -0.825204 5.17968 0
M  V30 14755 H 1403.32 -2.51463 4.91397 0
M  V30 14756 H 1403.8 -2.93212 3.26991 0
M  V30 14757 H 1404.4 -1.43029 4.00528 0
M  V30 14758 N 1402.72 -1.56081 -0.218252 0
M  V30 14759 C 1403.96 -1.79247 -0.942157 0
M  V30 14760 C 1404.29 -0.624492 -1.84202 0
M  V30 14761 O 1403.55 0.390973 -1.91755 0
M  V30 14762 C 1403.85 -3.08199 -1.80965 0
M  V30 14763 C 1403.51 -4.38197 -1.06274 0
M  V30 14764 C 1402.17 -4.73517 -0.856432 0
M  V30 14765 C 1404.53 -5.18441 -0.535532 0
M  V30 14766 C 1401.85 -5.86595 -0.111065 0
M  V30 14767 C 1404.21 -6.32295 0.196507 0
M  V30 14768 C 1402.87 -6.66215 0.414041 0
M  V30 14769 H 1402.14 -0.655913 -0.34476 0
M  V30 14770 H 1404.79 -1.90344 -0.210095 0
M  V30 14771 H 1403.09 -2.92238 -2.60967 0
M  V30 14772 H 1404.79 -3.23325 -2.37196 0
M  V30 14773 H 1401.38 -4.10466 -1.23352 0
M  V30 14774 H 1405.56 -4.91586 -0.682386 0
M  V30 14775 H 1400.82 -6.11363 0.0676711 0
M  V30 14776 H 1404.99 -6.93701 0.612516 0
M  V30 14777 H 1402.62 -7.5368 0.993532 0
M  V30 14778 N 1404.2 0.485086 -1.49949 0
M  V30 14779 C 1405.44 1.23571 -1.5992 0
M  V30 14780 C 1405.76 1.92754 -0.295108 0
M  V30 14781 O 1405.03 1.83474 0.686582 0
M  V30 14782 H 1403.61 0.459104 -0.589264 0
M  V30 14783 H 1406.28 0.560822 -1.86657 0
M  V30 14784 H 1405.37 1.99114 -2.40333 0
M  V30 14785 N 1405.67 1.39291 0.737279 0
M  V30 14786 C 1406.62 1.37969 1.87263 0
M  V30 14787 C 1407.62 0.263156 1.67344 0
M  V30 14788 O 1408.82 0.433069 1.74713 0
M  V30 14789 H 1405.2 0.430782 0.616385 0
M  V30 14790 H 1407.17 2.33741 1.85494 0
M  V30 14791 C 1405.92 1.23779 3.24922 0
M  V30 14792 H 1405.24 2.08963 3.40844 0
M  V30 14793 H 1406.68 1.26911 4.04561 0
M  V30 14794 C 1405.14 -0.0539778 3.36857 0
M  V30 14795 O 1405.67 -1.02501 3.88402 0
M  V30 14796 N 1403.87 -0.116275 2.90367 0
M  V30 14797 H 1403.42 0.674622 2.48609 0
M  V30 14798 H 1403.38 -0.980107 2.98733 0
M  V30 14799 N 1407.15 -0.967221 1.24429 0
M  V30 14800 C 1408.38 -1.74267 1.10972 0
M  V30 14801 C 1408.79 -1.8611 -0.340522 0
M  V30 14802 O 1408.13 -1.34915 -1.24674 0
M  V30 14803 C 1408.19 -3.18035 1.67613 0
M  V30 14804 C 1407.86 -3.29661 3.16501 0
M  V30 14805 C 1408.86 -3.14952 4.13644 0
M  V30 14806 C 1406.54 -3.53886 3.56469 0
M  V30 14807 C 1408.53 -3.24294 5.48737 0
M  V30 14808 C 1406.22 -3.62866 4.91703 0
M  V30 14809 C 1407.22 -3.48082 5.87646 0
M  V30 14810 O 1406.91 -3.56719 7.20421 0
M  V30 14811 H 1406.64 -0.553293 0.388384 0
M  V30 14812 H 1409.19 -1.22295 1.65025 0
M  V30 14813 H 1407.42 -3.71314 1.07994 0
M  V30 14814 H 1409.11 -3.7739 1.49438 0
M  V30 14815 H 1409.88 -2.9612 3.84107 0
M  V30 14816 H 1405.76 -3.64459 2.82295 0
M  V30 14817 H 1409.3 -3.12672 6.23604 0
M  V30 14818 H 1405.2 -3.81212 5.20911 0
M  V30 14819 H 1405.97 -3.73431 7.28349 0
M  V30 14820 N 1408.63 -1.05812 -1.16797 0
M  V30 14821 C 1409.88 -0.773066 -1.87487 0
M  V30 14822 C 1410.21 0.698471 -1.81204 0
M  V30 14823 O 1409.48 1.51129 -1.22434 0
M  V30 14824 C 1409.77 -1.2621 -3.37258 0
M  V30 14825 C 1409.62 -2.79704 -3.52258 0
M  V30 14826 C 1410.94 -0.866104 -4.31494 0
M  V30 14827 H 1408.06 -0.282304 -0.680789 0
M  V30 14828 H 1410.7 -1.3132 -1.37314 0
M  V30 14829 H 1408.85 -0.802608 -3.80119 0
M  V30 14830 H 1410.52 -3.33824 -3.1837 0
M  V30 14831 H 1408.76 -3.18673 -2.94329 0
M  V30 14832 H 1409.44 -3.08985 -4.57419 0
M  V30 14833 H 1411.91 -1.26178 -3.96508 0
M  V30 14834 H 1410.79 -1.23581 -5.34807 0
M  V30 14835 H 1411.05 0.229391 -4.41504 0
M  V30 14836 N 1410.11 1.33347 -0.840014 0
M  V30 14837 C 1411.04 2.31703 -0.289138 0
M  V30 14838 C 1412.02 1.59024 0.603759 0
M  V30 14839 O 1413.2 1.86911 0.527071 0
M  V30 14840 C 1410.33 3.43144 0.53566 0
M  V30 14841 C 1409.29 4.272 -0.261544 0
M  V30 14842 C 1408.61 5.30267 0.687075 0
M  V30 14843 C 1409.91 5.00915 -1.47924 0
M  V30 14844 H 1411.61 2.78026 -1.11094 0
M  V30 14845 H 1409.15 1.33666 -0.535658 0
M  V30 14846 H 1411.11 4.10979 0.931351 0
M  V30 14847 H 1409.83 2.95512 1.39069 0
M  V30 14848 H 1408.49 3.60991 -0.638809 0
M  V30 14849 H 1408.14 4.78893 1.53853 0
M  V30 14850 H 1407.84 5.87388 0.157773 0
M  V30 14851 H 1409.36 6.00968 1.08026 0
M  V30 14852 H 1410.78 5.61511 -1.15664 0
M  V30 14853 H 1409.17 5.67692 -1.94541 0
M  V30 14854 H 1410.24 4.29622 -2.24839 0
M  V30 14855 N 1411.59 0.596556 1.45873 0
M  V30 14856 C 1412.83 0.0874583 2.02311 0
M  V30 14857 C 1413.16 -1.27781 1.46636 0
M  V30 14858 O 1412.42 -1.85393 0.62674 0
M  V30 14859 C 1412.71 -0.0135714 3.57397 0
M  V30 14860 C 1412.38 1.28591 4.32175 0
M  V30 14861 C 1411.04 1.6419 4.52322 0
M  V30 14862 C 1413.39 2.14523 4.75005 0
M  V30 14863 C 1410.72 2.85493 5.12553 0
M  V30 14864 C 1413.07 3.35065 5.36577 0
M  V30 14865 C 1411.74 3.70929 5.54949 0
M  V30 14866 H 1411.01 0.0320033 0.740309 0
M  V30 14867 H 1413.66 0.775967 1.75074 0
M  V30 14868 H 1411.96 -0.785287 3.8385 0
M  V30 14869 H 1413.66 -0.423456 3.98758 0
M  V30 14870 H 1410.25 0.99881 4.16799 0
M  V30 14871 H 1414.43 1.88321 4.59183 0
M  V30 14872 H 1409.69 3.134 5.24967 0
M  V30 14873 H 1413.86 4.01909 5.6872 0
M  V30 14874 H 1411.49 4.65011 6.01389 0
M  V30 14875 N 1413.06 -1.53996 0.335095 0
M  V30 14876 C 1414.01 -2.26221 -0.541007 0
M  V30 14877 C 1415.01 -1.28053 -1.109 0
M  V30 14878 O 1416.21 -1.4579 -1.05571 0
M  V30 14879 H 1412.59 -0.726775 -0.193136 0
M  V30 14880 H 1414.56 -2.98263 0.0902792 0
M  V30 14881 C 1413.31 -3.04173 -1.68445 0
M  V30 14882 H 1412.63 -3.79537 -1.25665 0
M  V30 14883 H 1414.07 -3.57937 -2.27282 0
M  V30 14884 C 1412.53 -2.13162 -2.6089 0
M  V30 14885 O 1413.06 -1.7221 -3.62914 0
M  V30 14886 N 1411.26 -1.78414 -2.29384 0
M  V30 14887 H 1410.81 -2.11914 -1.46458 0
M  V30 14888 H 1410.77 -1.178 -2.91497 0
M  V30 14889 N 1414.54 -0.0635198 -1.57472 0
M  V30 14890 C 1415.47 0.90431 -2.15278 0
M  V30 14891 C 1416.45 1.31609 -1.07764 0
M  V30 14892 O 1417.64 1.38861 -1.35762 0
M  V30 14893 C 1414.77 2.17483 -2.70774 0
M  V30 14894 C 1413.72 1.90272 -3.8338 0
M  V30 14895 C 1413.05 3.23885 -4.25444 0
M  V30 14896 C 1414.35 1.21454 -5.07983 0
M  V30 14897 H 1416.04 0.422786 -2.964 0
M  V30 14898 H 1413.59 0.201918 -1.42577 0
M  V30 14899 H 1415.54 2.856 -3.09856 0
M  V30 14900 H 1414.26 2.67863 -1.86861 0
M  V30 14901 H 1412.92 1.24564 -3.44789 0
M  V30 14902 H 1412.57 3.72089 -3.38465 0
M  V30 14903 H 1412.27 3.06472 -5.01347 0
M  V30 14904 H 1413.8 3.93212 -4.67137 0
M  V30 14905 H 1415.21 1.79625 -5.44433 0
M  V30 14906 H 1413.61 1.14327 -5.89109 0
M  V30 14907 H 1414.68 0.19238 -4.84518 0
M  V30 14908 N 1416.02 1.56195 0.209972 0
M  V30 14909 C 1416.95 1.96378 1.26324 0
M  V30 14910 C 1417.93 0.833606 1.48273 0
M  V30 14911 O 1419.12 1.0968 1.60262 0
M  V30 14912 C 1416.25 2.29048 2.61064 0
M  V30 14913 C 1415.2 3.44665 2.53752 0
M  V30 14914 C 1414.53 3.6297 3.92628 0
M  V30 14915 C 1415.83 4.79297 2.07536 0
M  V30 14916 H 1417.52 2.8461 0.929379 0
M  V30 14917 H 1415.07 1.36931 0.445627 0
M  V30 14918 H 1417.02 2.55752 3.34916 0
M  V30 14919 H 1415.74 1.37682 2.96161 0
M  V30 14920 H 1414.4 3.18028 1.82356 0
M  V30 14921 H 1414.05 2.68961 4.25052 0
M  V30 14922 H 1413.75 4.40741 3.88614 0
M  V30 14923 H 1415.27 3.92035 4.68125 0
M  V30 14924 H 1416.69 5.05131 2.71138 0
M  V30 14925 H 1415.08 5.60433 2.14557 0
M  V30 14926 H 1416.15 4.73877 1.02802 0
M  V30 14927 N 1417.5 -0.477127 1.50204 0
M  V30 14928 C 1418.74 -1.23147 1.6113 0
M  V30 14929 C 1419.08 -1.91743 0.307909 0
M  V30 14930 O 1418.35 -1.81841 -0.690223 0
M  V30 14931 C 1418.63 -2.27985 2.78738 0
M  V30 14932 C 1418.49 -1.63733 4.18941 0
M  V30 14933 C 1419.81 -3.29349 2.9192 0
M  V30 14934 H 1416.93 -0.446358 0.586459 0
M  V30 14935 H 1419.57 -0.52612 1.8257 0
M  V30 14936 H 1417.72 -2.88143 2.60588 0
M  V30 14937 H 1419.39 -1.07218 4.48667 0
M  V30 14938 H 1417.63 -0.940634 4.23479 0
M  V30 14939 H 1418.3 -2.39888 4.9715 0
M  V30 14940 H 1420.78 -2.79208 3.08516 0
M  V30 14941 H 1419.66 -4.0004 3.75845 0
M  V30 14942 H 1419.92 -3.93111 2.02278 0
M  V30 14943 N 1418.98 -1.3968 -0.729882 0
M  V30 14944 C 1419.94 -1.38577 -1.82562 0
M  V30 14945 C 1420.94 -0.281994 -1.58308 0
M  V30 14946 O 1422.13 -0.540165 -1.65614 0
M  V30 14947 C 1419.26 -1.16343 -3.20433 0
M  V30 14948 H 1420.45 -2.36086 -1.84942 0
M  V30 14949 H 1418.01 -1.25319 -0.934063 0
M  V30 14950 H 1418.74 -0.195372 -3.23711 0
M  V30 14951 H 1418.53 -1.96282 -3.39435 0
M  V30 14952 H 1420.02 -1.18325 -4.00486 0
M  V30 14953 N 1420.45 0.960609 -1.2494 0
M  V30 14954 C 1421.7 1.69884 -1.08731 0
M  V30 14955 C 1422.02 1.92018 0.372602 0
M  V30 14956 O 1423.22 2.6348 0.655018 0
M  V30 14957 C 1421.68 3.05815 -1.8975 0
M  V30 14958 C 1421.29 2.91498 -3.40196 0
M  V30 14959 C 1423.03 3.83462 -1.82092 0
M  V30 14960 C 1420.94 4.22783 -4.13532 0
M  V30 14961 H 1419.87 0.637087 -0.403281 0
M  V30 14962 H 1422.52 1.06987 -1.49084 0
M  V30 14963 H 1420.9 3.69582 -1.42216 0
M  V30 14964 H 1422.07 2.367 -3.9536 0
M  V30 14965 H 1420.39 2.27312 -3.48882 0
M  V30 14966 H 1422.99 4.8069 -2.34181 0
M  V30 14967 H 1423.33 4.08782 -0.787597 0
M  V30 14968 H 1423.86 3.26435 -2.27344 0
M  V30 14969 H 1420.6 4.02653 -5.17253 0
M  V30 14970 H 1420.12 4.77369 -3.63152 0
M  V30 14971 H 1421.8 4.91361 -4.2092 0
M  V30 14972 N 1421.93 1.0643 1.16234 0
M  V30 14973 C 1422.86 0.697605 2.22836 0
M  V30 14974 C 1423.84 -0.310563 1.67241 0
M  V30 14975 O 1425.03 -0.185385 1.93313 0
M  V30 14976 C 1422.16 0.0847097 3.47197 0
M  V30 14977 C 1421.11 1.019 4.15693 0
M  V30 14978 C 1420.44 0.269339 5.34021 0
M  V30 14979 C 1421.74 2.34861 4.66516 0
M  V30 14980 H 1423.43 1.58883 2.53765 0
M  V30 14981 H 1420.98 0.765388 1.21975 0
M  V30 14982 H 1422.93 -0.1837 4.20999 0
M  V30 14983 H 1421.66 -0.84154 3.15572 0
M  V30 14984 H 1420.31 1.27218 3.43818 0
M  V30 14985 H 1419.96 -0.660072 4.9865 0
M  V30 14986 H 1419.66 0.892001 5.8079 0
M  V30 14987 H 1421.19 0.00850775 6.10599 0
M  V30 14988 H 1422.6 2.13922 5.31893 0
M  V30 14989 H 1421 2.92637 5.23912 0
M  V30 14990 H 1422.07 2.97834 3.82653 0
M  V30 14991 N 1423.41 -1.329 0.847073 0
M  V30 14992 C 1424.66 -1.97803 0.447417 0
M  V30 14993 C 1424.99 -1.6691 -0.9927 0
M  V30 14994 O 1424.26 -0.953315 -1.69535 0
M  V30 14995 C 1424.55 -3.53657 0.678135 0
M  V30 14996 C 1424.4 -3.94207 2.16612 0
M  V30 14997 C 1425.72 -4.39909 0.129589 0
M  V30 14998 H 1422.84 -0.718514 0.164034 0
M  V30 14999 H 1425.48 -1.57407 1.0641 0
M  V30 15000 H 1423.63 -3.88198 0.153222 0
M  V30 15001 H 1425.3 -3.69883 2.75653 0
M  V30 15002 H 1423.55 -3.43641 2.64752 0
M  V30 15003 H 1424.22 -5.02791 2.27827 0
M  V30 15004 H 1426.69 -4.12061 0.578371 0
M  V30 15005 H 1425.57 -5.47963 0.320648 0
M  V30 15006 H 1425.83 -4.31391 -0.967167 0
M  V30 15007 N 1424.89 -0.604284 -1.45555 0
M  V30 15008 C 1425.8 0.118409 -2.34301 0
M  V30 15009 C 1426.81 0.863807 -1.51044 0
M  V30 15010 O 1427.99 0.822138 -1.83856 0
M  V30 15011 C 1425.06 1.10538 -3.28606 0
M  V30 15012 C 1424.12 0.362301 -4.27768 0
M  V30 15013 C 1423.35 1.30226 -5.17568 0
M  V30 15014 O 1423.57 2.53991 -5.10729 0
M  V30 15015 O 1422.51 0.801116 -5.96545 0
M  V30 15016 H 1426.33 -0.610816 -2.97494 0
M  V30 15017 H 1423.92 -0.364562 -1.44884 0
M  V30 15018 H 1425.8 1.67392 -3.86727 0
M  V30 15019 H 1424.47 1.81569 -2.67982 0
M  V30 15020 H 1423.38 -0.248616 -3.73273 0
M  V30 15021 H 1424.71 -0.307454 -4.91239 0
M  V30 15022 N 1426.37 1.53816 -0.343257 0
M  V30 15023 C 1427.61 2.00512 0.252845 0
M  V30 15024 C 1427.94 1.23274 1.51091 0
M  V30 15025 O 1427.21 0.339841 1.9293 0
M  V30 15026 H 1425.79 0.740751 0.0964202 0
M  V30 15027 H 1428.45 1.89288 -0.464347 0
M  V30 15028 H 1427.54 3.08142 0.495499 0
M  V30 15029 N 1427.84 0.0718701 1.57436 0
M  V30 15030 C 1429.09 -0.597231 1.93493 0
M  V30 15031 C 1429.42 -1.69614 0.951906 0
M  V30 15032 O 1428.67 -1.95673 -0.0324554 0
M  V30 15033 C 1428.97 -1.21336 3.36173 0
M  V30 15034 C 1428.64 -0.240582 4.50258 0
M  V30 15035 C 1427.3 0.0270368 4.81192 0
M  V30 15036 C 1429.65 0.424924 5.19465 0
M  V30 15037 C 1426.98 0.967249 5.78672 0
M  V30 15038 C 1429.33 1.35346 6.17952 0
M  V30 15039 C 1428 1.62954 6.47304 0
M  V30 15040 H 1427.27 -0.218542 0.70804 0
M  V30 15041 H 1429.91 0.142762 1.90967 0
M  V30 15042 H 1428.22 -2.02909 3.35164 0
M  V30 15043 H 1429.92 -1.73836 3.61361 0
M  V30 15044 H 1426.51 -0.459352 4.26131 0
M  V30 15045 H 1430.69 0.231285 4.95761 0
M  V30 15046 H 1425.95 1.1884 5.99739 0
M  V30 15047 H 1430.12 1.87509 6.70681 0
M  V30 15048 H 1427.75 2.3597 7.2265 0
M  V30 15049 N 1429.32 -1.56304 -0.201686 0
M  V30 15050 C 1430.25 -1.90538 -1.27389 0
M  V30 15051 C 1431.27 -0.795422 -1.42045 0
M  V30 15052 O 1432.46 -1.07381 -1.42589 0
M  V30 15053 C 1429.56 -2.11638 -2.64694 0
M  V30 15054 C 1428.73 -3.42755 -2.71731 0
M  V30 15055 C 1427.79 -3.53047 -3.90185 0
M  V30 15056 O 1426.81 -4.25923 -3.77595 0
M  V30 15057 N 1428.02 -2.85649 -5.05356 0
M  V30 15058 H 1430.78 -2.83106 -0.983411 0
M  V30 15059 H 1428.34 -1.57092 -0.391638 0
M  V30 15060 H 1430.33 -2.15818 -3.42352 0
M  V30 15061 H 1428.9 -1.256 -2.86258 0
M  V30 15062 H 1428.12 -3.50501 -1.80397 0
M  V30 15063 H 1429.41 -4.29092 -2.73418 0
M  V30 15064 H 1428.81 -2.26256 -5.18483 0
M  V30 15065 H 1427.37 -2.95465 -5.80985 0
M  V30 15066 N 1430.8 0.469154 -1.50455 0
M  V30 15067 C 1431.76 1.5493 -1.68906 0
M  V30 15068 C 1432.76 1.50744 -0.559721 0
M  V30 15069 O 1433.95 1.5333 -0.826781 0
M  V30 15070 C 1431.09 2.94556 -1.71609 0
M  V30 15071 H 1432.28 1.39887 -2.65276 0
M  V30 15072 H 1429.83 0.695667 -1.39965 0
M  V30 15073 H 1430.57 3.15041 -0.769382 0
M  V30 15074 H 1430.35 2.99002 -2.53654 0
M  V30 15075 H 1431.84 3.72973 -1.87831 0
M  V30 15076 N 1432.28 1.40065 0.722464 0
M  V30 15077 C 1433.19 1.42086 1.86678 0
M  V30 15078 C 1434.2 0.314223 1.71139 0
M  V30 15079 O 1435.38 0.55771 1.93524 0
M  V30 15080 C 1432.45 1.27498 3.22405 0
M  V30 15081 C 1431.51 2.48243 3.50248 0
M  V30 15082 C 1430.74 2.34342 4.79499 0
M  V30 15083 O 1430.96 1.35355 5.54108 0
M  V30 15084 O 1429.9 3.23579 5.07523 0
M  V30 15085 H 1433.72 2.38571 1.87929 0
M  V30 15086 H 1431.31 1.21314 0.871968 0
M  V30 15087 H 1433.19 1.21543 4.03491 0
M  V30 15088 H 1431.86 0.341141 3.21897 0
M  V30 15089 H 1430.77 2.59775 2.69199 0
M  V30 15090 H 1432.1 3.40364 3.55547 0
M  V30 15091 N 1433.76 -0.95397 1.25448 0
M  V30 15092 C 1434.67 -2.08452 1.07634 0
M  V30 15093 C 1435.68 -1.73995 0.013294 0
M  V30 15094 O 1436.86 -2.00256 0.214367 0
M  V30 15095 C 1433.92 -3.39606 0.697756 0
M  V30 15096 C 1432.99 -3.87926 1.83881 0
M  V30 15097 C 1432.22 -5.12821 1.47819 0
M  V30 15098 O 1432.44 -5.69172 0.374143 0
M  V30 15099 O 1431.38 -5.55866 2.3086 0
M  V30 15100 H 1435.2 -2.26382 2.02447 0
M  V30 15101 H 1432.79 -1.06877 1.04392 0
M  V30 15102 H 1434.67 -4.18438 0.498778 0
M  V30 15103 H 1433.34 -3.22944 -0.221108 0
M  V30 15104 H 1432.25 -3.10095 2.09265 0
M  V30 15105 H 1433.58 -4.09087 2.73694 0
M  V30 15106 N 1435.24 -1.07045 -1.15668 0
M  V30 15107 C 1436.48 -0.786751 -1.85723 0
M  V30 15108 C 1436.8 0.689604 -1.83041 0
M  V30 15109 O 1438 1.08796 -2.48748 0
M  V30 15110 C 1436.46 -1.35729 -3.33325 0
M  V30 15111 C 1436.07 -2.86444 -3.44462 0
M  V30 15112 C 1437.81 -1.15148 -4.08584 0
M  V30 15113 C 1435.72 -3.36705 -4.86193 0
M  V30 15114 H 1434.65 -0.29063 -0.695737 0
M  V30 15115 H 1437.3 -1.29012 -1.30492 0
M  V30 15116 H 1435.68 -0.781671 -3.88209 0
M  V30 15117 H 1436.86 -3.50023 -2.997 0
M  V30 15118 H 1435.17 -3.0578 -2.82644 0
M  V30 15119 H 1437.77 -1.50179 -5.13177 0
M  V30 15120 H 1438.11 -0.0903159 -4.16202 0
M  V30 15121 H 1438.64 -1.6933 -3.59962 0
M  V30 15122 H 1435.38 -4.42333 -4.83758 0
M  V30 15123 H 1434.9 -2.77877 -5.31549 0
M  V30 15124 H 1436.58 -3.32478 -5.55038 0
M  V30 15125 N 1436.71 1.32449 -0.85411 0
M  V30 15126 C 1437.94 2.01997 -0.470307 0
M  V30 15127 C 1438.36 1.63772 0.925225 0
M  V30 15128 O 1437.72 0.838089 1.60766 0
M  V30 15129 C 1437.77 3.55294 -0.616301 0
M  V30 15130 O 1436.87 4.10902 0.351133 0
M  V30 15131 H 1436.21 0.63651 -0.189079 0
M  V30 15132 H 1438.74 1.69008 -1.15315 0
M  V30 15133 H 1438.75 4.0488 -0.503624 0
M  V30 15134 H 1437.43 3.82459 -1.63396 0
M  V30 15135 H 1436.01 3.72391 0.194741 0
M  V30 15136 N 1438.19 0.611994 1.45232 0
M  V30 15137 C 1439.14 -0.104265 2.30564 0
M  V30 15138 C 1440.11 -0.855676 1.42364 0
M  V30 15139 O 1441.29 -0.840534 1.71288 0
M  V30 15140 C 1438.43 -1.09274 3.27343 0
M  V30 15141 C 1437.55 -0.341747 4.30646 0
M  V30 15142 C 1436.68 -1.32034 5.14529 0
M  V30 15143 C 1435.72 -0.557405 6.09557 0
M  V30 15144 N 1434.86 -1.4855 6.86205 0
M  V30 15145 H 1439.7 0.629396 2.91278 0
M  V30 15146 H 1437.23 0.322177 1.43528 0
M  V30 15147 H 1439.19 -1.67902 3.81923 0
M  V30 15148 H 1437.82 -1.79376 2.68373 0
M  V30 15149 H 1436.87 0.360114 3.78692 0
M  V30 15150 H 1438.19 0.253328 4.98156 0
M  V30 15151 H 1437.34 -1.97854 5.73532 0
M  V30 15152 H 1436.08 -1.94934 4.47048 0
M  V30 15153 H 1435.08 0.114401 5.49681 0
M  V30 15154 H 1436.31 0.0666137 6.79067 0
M  V30 15155 H 1434.26 -2.10207 6.21409 0
M  V30 15156 H 1434.17 -0.943972 7.50083 0
M  V30 15157 H 1435.44 -2.13314 7.49745 0
M  V30 15158 N 1439.67 -1.53632 0.351409 0
M  V30 15159 C 1441.09 -1.596 -0.000214515 0
M  V30 15160 C 1441.29 -1.36709 -1.4803 0
M  V30 15161 O 1440.34 -1.16524 -2.24006 0
M  V30 15162 C 1441.65 -2.97419 0.443013 0
M  V30 15163 C 1443.2 -3.10485 0.396025 0
M  V30 15164 C 1443.68 -4.50693 0.814843 0
M  V30 15165 N 1445.17 -4.56766 0.76934 0
M  V30 15166 C 1445.9 -5.63418 1.06526 0
M  V30 15167 N 1445.4 -6.77887 1.42974 0
M  V30 15168 N 1447.19 -5.53331 0.988986 0
M  V30 15169 H 1439.34 -1.66765 1.31542 0
M  V30 15170 H 1441.61 -0.781418 0.53674 0
M  V30 15171 H 1441.31 -3.19262 1.47529 0
M  V30 15172 H 1441.19 -3.76781 -0.177725 0
M  V30 15173 H 1443.57 -2.8836 -0.627092 0
M  V30 15174 H 1443.65 -2.33163 1.05207 0
M  V30 15175 H 1443.3 -4.73554 1.83601 0
M  V30 15176 H 1443.23 -5.26424 0.136193 0
M  V30 15177 H 1445.72 -3.74569 0.500623 0
M  V30 15178 H 1446.03 -7.55194 1.64018 0
M  V30 15179 H 1444.38 -6.79314 1.46827 0
M  V30 15180 H 1447.57 -4.62783 0.703526 0
M  V30 15181 H 1447.74 -6.36355 1.22295 0
M  V30 15182 N 1441.15 -0.0802183 -1.57396 0
M  V30 15183 C 1442.06 0.898597 -2.16708 0
M  V30 15184 C 1443.07 1.321 -1.1325 0
M  V30 15185 O 1444.25 1.39197 -1.45554 0
M  V30 15186 C 1441.31 2.14501 -2.72379 0
M  V30 15187 C 1440.38 1.77822 -3.9074 0
M  V30 15188 C 1439.61 2.96521 -4.43747 0
M  V30 15189 O 1439.83 4.10797 -3.9573 0
M  V30 15190 O 1438.77 2.75849 -5.34968 0
M  V30 15191 H 1442.59 0.424027 -3.00725 0
M  V30 15192 H 1440.18 0.14332 -1.48711 0
M  V30 15193 H 1442.06 2.87575 -3.08024 0
M  V30 15194 H 1440.73 2.61039 -1.91416 0
M  V30 15195 H 1439.64 1.01974 -3.59934 0
M  V30 15196 H 1440.97 1.36059 -4.73021 0
M  V30 15197 N 1442.63 1.56409 0.193394 0
M  V30 15198 C 1443.9 1.71559 0.93951 0
M  V30 15199 C 1444.28 0.635478 2.01308 0
M  V30 15200 O 1443.63 -0.353267 2.25753 0
M  V30 15201 C 1443.84 3.13948 1.52438 0
M  V30 15202 C 1445.19 3.74234 2.00585 0
M  V30 15203 O 1446.21 3.17088 1.62277 0
M  V30 15204 O 1445.07 4.74529 2.71081 0
M  V30 15205 H 1442.17 0.69979 0.440707 0
M  V30 15206 H 1444.71 1.68711 0.182957 0
M  V30 15207 H 1443.48 3.84033 0.750613 0
M  V30 15208 H 1443.11 3.21032 2.34572 0
M  V30 15209 N 1444.1 -0.461169 1.50702 0
M  V30 15210 C 1445.07 -1.54032 1.69725 0
M  V30 15211 C 1446.07 -1.50445 0.567707 0
M  V30 15212 O 1447.26 -1.52889 0.834901 0
M  V30 15213 C 1444.39 -2.93642 1.73168 0
M  V30 15214 H 1445.58 -1.38478 2.66015 0
M  V30 15215 H 1443.13 -0.688235 1.40332 0
M  V30 15216 H 1443.87 -3.14629 0.786078 0
M  V30 15217 H 1443.65 -2.97652 2.55236 0
M  V30 15218 H 1445.14 -3.71972 1.89807 0
M  V30 15219 N 1445.58 -1.40446 -0.715026 0
M  V30 15220 C 1446.81 -1.42263 -1.50917 0
M  V30 15221 C 1447.23 -0.0242402 -1.88084 0
M  V30 15222 O 1446.59 0.967817 -1.53307 0
M  V30 15223 C 1446.64 -2.31998 -2.7606 0
M  V30 15224 O 1445.74 -1.76361 -3.72787 0
M  V30 15225 H 1445.08 -0.483614 -0.454988 0
M  V30 15226 H 1447.61 -1.84682 -0.880549 0
M  V30 15227 H 1447.62 -2.47204 -3.24583 0
M  V30 15228 H 1446.3 -3.33614 -2.48343 0
M  V30 15229 H 1444.87 -1.70504 -3.31636 0
M  V30 15230 N 1447.06 0.947303 -1.25952 0
M  V30 15231 C 1448.31 1.68945 -1.10915 0
M  V30 15232 C 1448.63 1.91848 0.349216 0
M  V30 15233 O 1447.9 1.5108 1.24706 0
M  V30 15234 H 1446.48 0.626086 -0.407462 0
M  V30 15235 H 1449.14 1.13854 -1.58187 0
M  V30 15236 H 1448.24 2.6657 -1.62317 0
M  V30 15237 N 1448.54 1.07657 1.15099 0
M  V30 15238 C 1449.47 0.657598 2.19564 0
M  V30 15239 C 1450.48 -0.29146 1.6017 0
M  V30 15240 O 1451.67 -0.0802981 1.78319 0
M  V30 15241 C 1448.77 -0.0542221 3.38857 0
M  V30 15242 C 1447.95 0.911803 4.27791 0
M  V30 15243 C 1447 0.236709 5.25667 0
M  V30 15244 O 1446.03 0.878731 5.62376 0
M  V30 15245 N 1447.23 -1.01641 5.71532 0
M  V30 15246 H 1450 1.55626 2.56126 0
M  V30 15247 H 1447.56 0.961657 1.30245 0
M  V30 15248 H 1449.55 -0.516603 4.01389 0
M  V30 15249 H 1448.12 -0.854871 3.00684 0
M  V30 15250 H 1447.34 1.55322 3.6231 0
M  V30 15251 H 1448.63 1.56667 4.8408 0
M  V30 15252 H 1448.03 -1.55791 5.43825 0
M  V30 15253 H 1446.58 -1.42242 6.3609 0
M  V30 15254 N 1450.02 -1.31994 0.861122 0
M  V30 15255 C 1450.95 -2.31214 0.325963 0
M  V30 15256 C 1451.93 -1.59965 -0.578383 0
M  V30 15257 O 1453.11 -1.87726 -0.497268 0
M  V30 15258 C 1450.24 -3.43953 -0.481001 0
M  V30 15259 C 1449.2 -4.2673 0.329474 0
M  V30 15260 C 1448.52 -5.31293 -0.602627 0
M  V30 15261 C 1449.82 -4.98498 1.55874 0
M  V30 15262 H 1451.52 -2.76223 1.15503 0
M  V30 15263 H 1449.06 -1.32797 0.556856 0
M  V30 15264 H 1451.02 -4.12409 -0.86585 0
M  V30 15265 H 1449.74 -2.97687 -1.3435 0
M  V30 15266 H 1448.4 -3.59929 0.696159 0
M  V30 15267 H 1448.05 -4.8128 -1.46215 0
M  V30 15268 H 1447.75 -5.87565 -0.0643044 0
M  V30 15269 H 1449.27 -6.02611 -0.984512 0
M  V30 15270 H 1450.68 -5.596 1.24583 0
M  V30 15271 H 1449.08 -5.64525 2.03548 0
M  V30 15272 H 1450.15 -4.25991 2.31646 0
M  V30 15273 N 1451.49 -0.619688 -1.44906 0
M  V30 15274 C 1452.72 -0.124598 -2.07025 0
M  V30 15275 C 1453.14 1.18698 -1.45919 0
M  V30 15276 O 1452.5 1.72552 -0.556366 0
M  V30 15277 C 1452.55 -0.0112238 -3.60598 0
M  V30 15278 O 1451.65 1.03582 -3.9918 0
M  V30 15279 H 1451 -0.0795631 -0.659216 0
M  V30 15280 H 1453.53 -0.853127 -1.85965 0
M  V30 15281 H 1453.54 0.183079 -4.07589 0
M  V30 15282 H 1452.21 -0.968849 -4.04458 0
M  V30 15283 H 1450.79 0.817008 -3.6384 0
M  V30 15284 N 1452.97 1.53444 -0.359552 0
M  V30 15285 C 1454.21 2.03077 0.232169 0
M  V30 15286 C 1454.58 1.24125 1.46482 0
M  V30 15287 O 1455.78 1.63735 2.13177 0
M  V30 15288 C 1454.05 3.53554 0.522891 0
M  V30 15289 S 1455.61 4.25068 1.08914 0
M  V30 15290 H 1452.43 0.707738 0.0680317 0
M  V30 15291 H 1455.03 1.88971 -0.501022 0
M  V30 15292 H 1453.73 4.0862 -0.381812 0
M  V30 15293 H 1453.26 3.71811 1.28532 0
M  V30 15294 H 1455.28 4.35734 2.37382 0
M  V30 15295 N 1454.45 0.0885642 1.57351 0
M  V30 15296 C 1455.7 -0.57633 1.93291 0
M  V30 15297 C 1456.01 -1.69743 0.971934 0
M  V30 15298 O 1457.22 -2.42304 1.22479 0
M  V30 15299 C 1455.67 -1.07655 3.43422 0
M  V30 15300 C 1455.28 0.0144488 4.47998 0
M  V30 15301 C 1457.03 -1.71455 3.88334 0
M  V30 15302 C 1454.93 -0.500758 5.89276 0
M  V30 15303 H 1453.86 -0.219055 0.721478 0
M  V30 15304 H 1456.51 0.163511 1.8277 0
M  V30 15305 H 1454.9 -1.86988 3.49072 0
M  V30 15306 H 1456.07 0.789696 4.53983 0
M  V30 15307 H 1454.39 0.557237 4.12655 0
M  V30 15308 H 1456.98 -2.11063 4.91281 0
M  V30 15309 H 1457.33 -2.58116 3.26621 0
M  V30 15310 H 1457.86 -0.987159 3.85357 0
M  V30 15311 H 1454.6 0.329088 6.54673 0
M  V30 15312 H 1454.12 -1.24315 5.86776 0
M  V30 15313 H 1455.8 -0.971821 6.3966 0
M  V30 15314 N 1455.93 -1.56509 -0.185096 0
M  V30 15315 C 1456.86 -1.91878 -1.25361 0
M  V30 15316 C 1457.87 -0.810443 -1.41194 0
M  V30 15317 O 1459.06 -1.08887 -1.41442 0
M  V30 15318 C 1456.16 -2.14433 -2.62434 0
M  V30 15319 C 1455.34 -3.45618 -2.6808 0
M  V30 15320 C 1454.39 -3.57165 -3.86419 0
M  V30 15321 O 1453.42 -4.29904 -3.73056 0
M  V30 15322 N 1454.62 -2.90993 -5.02298 0
M  V30 15323 H 1457.39 -2.84133 -0.953328 0
M  V30 15324 H 1454.95 -1.57498 -0.374955 0
M  V30 15325 H 1456.94 -2.19437 -3.40044 0
M  V30 15326 H 1455.51 -1.28629 -2.84909 0
M  V30 15327 H 1454.73 -3.52394 -1.76669 0
M  V30 15328 H 1456.02 -4.31968 -2.68851 0
M  V30 15329 H 1455.42 -2.31743 -5.16054 0
M  V30 15330 H 1453.97 -3.01611 -5.77819 0
M  V30 15331 N 1457.41 0.45317 -1.50944 0
M  V30 15332 C 1458.34 1.55655 -1.74051 0
M  V30 15333 C 1459.32 1.59545 -0.58987 0
M  V30 15334 O 1460.5 1.75526 -0.830922 0
M  V30 15335 C 1457.63 2.93857 -1.85109 0
M  V30 15336 C 1456.59 3.04832 -3.00435 0
M  V30 15337 C 1455.91 4.44858 -2.96657 0
M  V30 15338 C 1457.21 2.80381 -4.40663 0
M  V30 15339 H 1458.91 1.36571 -2.66437 0
M  V30 15340 H 1456.45 0.655572 -1.28212 0
M  V30 15341 H 1458.41 3.70992 -1.99857 0
M  V30 15342 H 1457.13 3.14138 -0.893579 0
M  V30 15343 H 1455.79 2.30134 -2.85366 0
M  V30 15344 H 1455.44 4.62083 -1.98716 0
M  V30 15345 H 1455.14 4.53134 -3.7409 0
M  V30 15346 H 1456.66 5.23989 -3.13478 0
M  V30 15347 H 1458.07 3.47255 -4.56165 0
M  V30 15348 H 1456.47 3.00083 -5.19683 0
M  V30 15349 H 1457.54 1.76099 -4.51793 0
M  V30 15350 N 1458.88 1.40823 0.707568 0
M  V30 15351 C 1460.3 1.35249 1.28704 0
M  V30 15352 C 1460.65 0.0298026 1.96177 0
M  V30 15353 O 1459.77 -0.872126 1.98048 0
M  V30 15354 C 1460.37 2.44965 2.34046 0
M  V30 15355 C 1458.93 2.42826 2.87598 0
M  V30 15356 C 1458.07 2.25429 1.61483 0
M  V30 15357 H 1461.02 1.50513 0.503141 0
M  V30 15358 H 1461.04 2.13334 3.1507 0
M  V30 15359 H 1460.56 3.41219 1.84908 0
M  V30 15360 H 1458.66 1.50294 3.40944 0
M  V30 15361 H 1458.77 3.38704 3.38845 0
M  V30 15362 H 1457.13 1.73089 1.86848 0
M  V30 15363 H 1457.92 3.23693 1.14359 0
M  V30 15364 N 1460.36 -0.94061 1.26453 0
M  V30 15365 C 1461.61 -1.68937 1.12197 0
M  V30 15366 C 1461.94 -1.91309 -0.33382 0
M  V30 15367 O 1461.22 -1.49417 -1.24518 0
M  V30 15368 C 1461.5 -3.06381 1.89215 0
M  V30 15369 C 1461.35 -2.91331 3.42704 0
M  V30 15370 C 1462.67 -4.06507 1.68642 0
M  V30 15371 H 1459.79 -0.613121 0.408964 0
M  V30 15372 H 1462.43 -1.09242 1.55455 0
M  V30 15373 H 1460.58 -3.57339 1.5245 0
M  V30 15374 H 1462.25 -2.47591 3.89226 0
M  V30 15375 H 1460.5 -2.26945 3.697 0
M  V30 15376 H 1461.17 -3.88818 3.91822 0
M  V30 15377 H 1463.64 -3.64512 2.00674 0
M  V30 15378 H 1462.52 -5.0069 2.24945 0
M  V30 15379 H 1462.78 -4.37572 0.631131 0
M  V30 15380 N 1461.84 -1.08266 -1.14527 0
M  V30 15381 C 1463.12 -0.724254 -1.81697 0
M  V30 15382 C 1463.5 0.792212 -1.95671 0
M  V30 15383 O 1462.85 1.71017 -1.51543 0
M  V30 15384 C 1463.06 -1.44949 -3.17475 0
M  V30 15385 C 1464.4 -1.60761 -3.9299 0
M  V30 15386 O 1465.43 -1.41103 -3.2706 0
M  V30 15387 O 1464.29 -1.93184 -5.11216 0
M  V30 15388 H 1461.38 -0.258814 -0.785458 0
M  V30 15389 H 1463.93 -1.18414 -1.21557 0
M  V30 15390 H 1462.7 -2.48262 -3.02459 0
M  V30 15391 H 1462.32 -0.980993 -3.85308 0
M  V30 15392 N 1463.32 1.31536 -0.86811 0
M  V30 15393 C 1464.54 2.01487 -0.491705 0
M  V30 15394 C 1464.97 1.64744 0.907803 0
M  V30 15395 O 1464.33 0.855093 1.59868 0
M  V30 15396 C 1464.38 3.54621 -0.65395 0
M  V30 15397 O 1463.48 4.11252 0.307532 0
M  V30 15398 H 1462.82 0.634469 -0.195819 0
M  V30 15399 H 1465.35 1.67775 -1.17101 0
M  V30 15400 H 1465.36 4.04323 -0.546539 0
M  V30 15401 H 1464.04 3.80704 -1.67443 0
M  V30 15402 H 1462.61 3.72577 0.155233 0
M  V30 15403 N 1464.8 0.627364 1.44575 0
M  V30 15404 C 1465.73 -0.118179 2.28895 0
M  V30 15405 C 1466.74 -0.812569 1.41071 0
M  V30 15406 O 1467.93 -0.674646 1.6526 0
M  V30 15407 C 1465.03 -1.18937 3.17344 0
M  V30 15408 C 1464.2 -0.578226 4.33561 0
M  V30 15409 C 1463.26 -1.54288 5.03072 0
M  V30 15410 O 1462.29 -1.06148 5.59215 0
M  V30 15411 N 1463.49 -2.87725 5.04177 0
M  V30 15412 H 1466.26 0.605442 2.93521 0
M  V30 15413 H 1463.82 0.468253 1.54981 0
M  V30 15414 H 1465.81 -1.83494 3.60711 0
M  V30 15415 H 1464.38 -1.81526 2.54494 0
M  V30 15416 H 1463.6 0.245883 3.93432 0
M  V30 15417 H 1464.89 -0.150502 5.08577 0
M  V30 15418 H 1464.29 -3.29421 4.5989 0
M  V30 15419 H 1462.84 -3.47653 5.51344 0
M  V30 15420 N 1466.28 -1.53251 0.367684 0
M  V30 15421 C 1467.52 -2.00889 -0.220914 0
M  V30 15422 C 1467.84 -1.25662 -1.4911 0
M  V30 15423 O 1467.11 -0.370491 -1.92365 0
M  V30 15424 H 1465.69 -0.742191 -0.0846233 0
M  V30 15425 H 1468.36 -1.88525 0.494402 0
M  V30 15426 H 1467.45 -3.08891 -0.446414 0
M  V30 15427 N 1467.75 -0.0969077 -1.57302 0
M  V30 15428 C 1469 0.565254 -1.94034 0
M  V30 15429 C 1469.32 1.68609 -0.9796 0
M  V30 15430 O 1468.59 1.95874 -0.0319788 0
M  V30 15431 H 1467.17 0.211796 -0.716346 0
M  V30 15432 H 1469.83 -0.160665 -1.94237 0
M  V30 15433 H 1468.93 0.974268 -2.96504 0
M  V30 15434 N 1469.23 1.56605 0.176793 0
M  V30 15435 C 1470.51 1.72546 0.921261 0
M  V30 15436 C 1470.89 0.656794 2.00623 0
M  V30 15437 O 1470.24 -0.329303 2.26115 0
M  V30 15438 C 1470.45 3.15548 1.491 0
M  V30 15439 C 1471.79 3.7634 1.96604 0
M  V30 15440 O 1472.82 3.18791 1.58905 0
M  V30 15441 O 1471.68 4.77377 2.66033 0
M  V30 15442 H 1468.77 0.704425 0.43326 0
M  V30 15443 H 1471.32 1.68895 0.165052 0
M  V30 15444 H 1470.09 3.84808 0.709839 0
M  V30 15445 H 1469.71 3.23502 2.31154 0
M  V30 15446 N 1470.71 -0.445159 1.51182 0
M  V30 15447 C 1471.67 -1.52224 1.71349 0
M  V30 15448 C 1472.67 -1.49834 0.583632 0
M  V30 15449 O 1473.86 -1.51995 0.85107 0
M  V30 15450 C 1470.99 -2.91789 1.76273 0
M  V30 15451 H 1472.19 -1.35649 2.67468 0
M  V30 15452 H 1469.74 -0.673312 1.41054 0
M  V30 15453 H 1470.48 -3.13777 0.819405 0
M  V30 15454 H 1470.26 -2.94928 2.58379 0
M  V30 15455 H 1471.75 -3.69938 1.93741 0
M  V30 15456 N 1472.19 -1.41197 -0.700089 0
M  V30 15457 C 1473.14 -1.42885 -1.83539 0
M  V30 15458 C 1474.13 -0.307431 -1.66587 0
M  V30 15459 O 1475.34 -0.479238 -1.73503 0
M  V30 15460 H 1471.71 -0.446973 -0.604747 0
M  V30 15461 H 1473.68 -2.38576 -1.79231 0
M  V30 15462 C 1472.43 -1.3235 -3.21526 0
M  V30 15463 H 1471.75 -2.17926 -3.35184 0
M  V30 15464 H 1473.19 -1.37592 -4.01054 0
M  V30 15465 C 1471.65 -0.0353528 -3.36881 0
M  V30 15466 O 1472.18 0.921676 -3.90983 0
M  V30 15467 N 1470.39 0.0392479 -2.90573 0
M  V30 15468 H 1469.94 -0.740299 -2.46733 0
M  V30 15469 H 1469.89 0.900559 -3.01226 0
M  V30 15470 N 1473.67 0.933891 -1.2695 0
M  V30 15471 C 1474.61 2.03365 -1.09139 0
M  V30 15472 C 1475.58 1.66099 0.00573029 0
M  V30 15473 O 1476.77 1.90166 -0.155425 0
M  V30 15474 C 1473.91 3.37114 -0.738117 0
M  V30 15475 C 1473.02 3.87372 -1.91224 0
M  V30 15476 C 1472.16 5.0954 -1.50141 0
M  V30 15477 C 1471.19 5.52079 -2.64339 0
M  V30 15478 N 1470.33 6.65446 -2.23887 0
M  V30 15479 H 1475.17 2.17932 -2.03248 0
M  V30 15480 H 1472.71 1.0677 -1.01186 0
M  V30 15481 H 1474.67 4.1402 -0.514141 0
M  V30 15482 H 1473.3 3.22373 0.166007 0
M  V30 15483 H 1472.35 3.06801 -2.24894 0
M  V30 15484 H 1473.66 4.14875 -2.76912 0
M  V30 15485 H 1472.81 5.93928 -1.23831 0
M  V30 15486 H 1471.55 4.838 -0.615539 0
M  V30 15487 H 1470.56 4.66244 -2.9137 0
M  V30 15488 H 1471.78 5.79817 -3.53537 0
M  V30 15489 H 1469.73 6.41376 -1.37744 0
M  V30 15490 H 1469.65 6.92573 -3.03116 0
M  V30 15491 H 1470.91 7.53191 -2.00809 0
M  V30 15492 N 1475.14 1.08871 1.13951 0
M  V30 15493 C 1476.37 0.843055 1.89492 0
M  V30 15494 C 1476.79 -0.599539 1.78289 0
M  V30 15495 O 1476.15 -1.42062 1.12642 0
M  V30 15496 C 1476.2 1.27572 3.3728 0
M  V30 15497 O 1475.3 0.430611 4.10146 0
M  V30 15498 H 1474.64 0.3058 0.589391 0
M  V30 15499 H 1477.17 1.45137 1.44209 0
M  V30 15500 H 1477.18 1.25864 3.88101 0
M  V30 15501 H 1475.86 2.32635 3.44751 0
M  V30 15502 H 1474.44 0.511516 3.69375 0
M  V30 15503 N 1476.62 -1.31073 0.875073 0
M  V30 15504 C 1477.53 -2.3215 0.338196 0
M  V30 15505 C 1478.55 -1.64928 -0.554504 0
M  V30 15506 O 1479.72 -1.96308 -0.449998 0
M  V30 15507 C 1476.79 -3.43804 -0.447163 0
M  V30 15508 C 1475.85 -4.26674 0.474106 0
M  V30 15509 C 1475.08 -5.32997 -0.273867 0
M  V30 15510 O 1475.31 -5.50288 -1.50129 0
M  V30 15511 O 1474.24 -6.00756 0.370913 0
M  V30 15512 H 1478.07 -2.80002 1.17612 0
M  V30 15513 H 1475.65 -1.35064 0.6386 0
M  V30 15514 H 1477.53 -4.11847 -0.892199 0
M  V30 15515 H 1476.21 -2.98105 -1.26155 0
M  V30 15516 H 1475.11 -3.61366 0.967748 0
M  V30 15517 H 1476.45 -4.75952 1.25423 0
M  V30 15518 N 1478.1 -0.635022 -1.4424 0
M  V30 15519 C 1479.33 -0.146549 -2.06882 0
M  V30 15520 C 1479.75 1.17143 -1.4717 0
M  V30 15521 O 1479.11 1.71952 -0.574636 0
M  V30 15522 C 1479.16 -0.0494694 -3.60566 0
M  V30 15523 O 1478.26 0.993423 -4.00256 0
M  V30 15524 H 1477.6 -0.0865505 -0.658335 0
M  V30 15525 H 1480.13 -0.872803 -1.85049 0
M  V30 15526 H 1480.14 0.139839 -4.0776 0
M  V30 15527 H 1478.82 -1.01169 -4.03407 0
M  V30 15528 H 1477.39 0.778372 -3.64686 0
M  V30 15529 N 1479.58 1.53054 -0.375806 0
M  V30 15530 C 1480.49 2.29772 0.47349 0
M  V30 15531 C 1481.5 1.36144 1.08355 0
M  V30 15532 O 1482.68 1.69208 1.09228 0
M  V30 15533 C 1479.75 3.07964 1.59245 0
M  V30 15534 C 1478.81 4.17277 1.00888 0
M  V30 15535 C 1478.04 4.91731 2.07451 0
M  V30 15536 O 1478.26 4.66143 3.28736 0
M  V30 15537 O 1477.2 5.77413 1.69936 0
M  V30 15538 H 1481.02 3.03324 -0.151105 0
M  V30 15539 H 1478.61 1.48744 -0.139895 0
M  V30 15540 H 1480.49 3.56759 2.24279 0
M  V30 15541 H 1479.16 2.37239 2.20226 0
M  V30 15542 H 1478.07 3.7271 0.322167 0
M  V30 15543 H 1479.4 4.90198 0.443483 0
M  V30 15544 N 1481.06 0.105248 1.57248 0
M  V30 15545 C 1482.47 -0.422304 1.81861 0
M  V30 15546 C 1482.82 -1.67508 1.02154 0
M  V30 15547 O 1481.94 -2.14905 0.253961 0
M  V30 15548 C 1482.54 -0.772943 3.29865 0
M  V30 15549 C 1481.1 -1.24519 3.55207 0
M  V30 15550 C 1480.24 -0.246936 2.76198 0
M  V30 15551 H 1483.2 0.330565 1.55219 0
M  V30 15552 H 1483.22 -1.6316 3.43743 0
M  V30 15553 H 1482.73 0.139033 3.87851 0
M  V30 15554 H 1480.83 -2.17453 3.02564 0
M  V30 15555 H 1480.94 -1.20001 4.63828 0
M  V30 15556 H 1479.31 -0.731171 2.43979 0
M  V30 15557 H 1480.09 0.657896 3.36937 0
M  V30 15558 N 1482.53 -1.56697 -0.168486 0
M  V30 15559 C 1483.81 -1.73032 -0.912097 0
M  V30 15560 C 1484.19 -0.667424 -2.00271 0
M  V30 15561 O 1483.54 0.317307 -2.26286 0
M  V30 15562 C 1483.75 -3.16334 -1.47424 0
M  V30 15563 C 1485.1 -3.77378 -1.94606 0
M  V30 15564 O 1486.12 -3.19629 -1.57212 0
M  V30 15565 O 1484.98 -4.78781 -2.63497 0
M  V30 15566 H 1482.07 -0.706713 -0.429518 0
M  V30 15567 H 1484.62 -1.68981 -0.156093 0
M  V30 15568 H 1483.39 -3.85179 -0.689421 0
M  V30 15569 H 1483.02 -3.24723 -2.29435 0
M  V30 15570 N 1484.01 0.437135 -1.51416 0
M  V30 15571 C 1485.26 1.18655 -1.64095 0
M  V30 15572 C 1485.59 1.9119 -0.35728 0
M  V30 15573 O 1484.84 1.84283 0.658644 0
M  V30 15574 C 1485.14 2.22795 -2.79458 0
M  V30 15575 C 1484.81 1.67271 -4.18726 0
M  V30 15576 C 1483.47 1.51852 -4.56612 0
M  V30 15577 C 1485.82 1.26448 -5.05629 0
M  V30 15578 C 1483.15 0.940834 -5.79107 0
M  V30 15579 C 1485.5 0.701095 -6.28703 0
M  V30 15580 C 1484.17 0.533801 -6.65362 0
M  V30 15581 H 1483.44 0.434191 -0.600466 0
M  V30 15582 H 1486.08 0.477592 -1.85449 0
M  V30 15583 H 1484.39 2.99731 -2.52327 0
M  V30 15584 H 1486.08 2.80602 -2.86467 0
M  V30 15585 H 1482.67 1.80249 -3.88855 0
M  V30 15586 H 1486.86 1.37182 -4.76964 0
M  V30 15587 H 1482.11 0.798982 -6.06157 0
M  V30 15588 H 1486.29 0.37626 -6.95383 0
M  V30 15589 H 1483.92 0.0840431 -7.60154 0
M  V30 15590 N 1485.49 1.41566 0.692592 0
M  V30 15591 C 1486.74 1.41083 1.45265 0
M  V30 15592 C 1487.07 0.0209998 1.94489 0
M  V30 15593 O 1486.32 -0.96764 1.70104 0
M  V30 15594 C 1486.62 2.36683 2.67799 0
M  V30 15595 C 1486.29 3.83458 2.37215 0
M  V30 15596 C 1484.95 4.23441 2.28585 0
M  V30 15597 C 1487.3 4.76114 2.12048 0
M  V30 15598 C 1484.63 5.54086 1.92888 0
M  V30 15599 C 1486.98 6.07082 1.7786 0
M  V30 15600 C 1485.64 6.46083 1.67727 0
M  V30 15601 H 1484.91 0.51626 0.531561 0
M  V30 15602 H 1487.56 1.74385 0.791337 0
M  V30 15603 H 1485.87 1.96645 3.38877 0
M  V30 15604 H 1487.56 2.33581 3.25946 0
M  V30 15605 H 1484.15 3.51792 2.44828 0
M  V30 15606 H 1488.34 4.46025 2.17659 0
M  V30 15607 H 1483.59 5.83182 1.83599 0
M  V30 15608 H 1487.77 6.78378 1.57407 0
M  V30 15609 H 1485.39 7.47228 1.39836 0
M  V30 15610 N 1486.97 -0.927146 1.27443 0
M  V30 15611 C 1488.19 -1.71426 1.16739 0
M  V30 15612 C 1488.62 -1.86122 -0.272063 0
M  V30 15613 O 1487.98 -1.36165 -1.19703 0
M  V30 15614 C 1488.02 -3.09131 1.85661 0
M  V30 15615 O 1487.13 -3.95897 1.15495 0
M  V30 15616 H 1486.47 -0.525428 0.405983 0
M  V30 15617 H 1489 -1.16022 1.68523 0
M  V30 15618 H 1489.01 -3.59442 1.93042 0
M  V30 15619 H 1487.68 -2.97752 2.90373 0
M  V30 15620 H 1486.26 -3.54337 1.16187 0
M  V30 15621 N 1488.45 -1.09474 -1.13372 0
M  V30 15622 C 1489.86 -0.850378 -1.66209 0
M  V30 15623 C 1490.21 0.621071 -1.86111 0
M  V30 15624 O 1489.33 1.47837 -1.58029 0
M  V30 15625 C 1489.93 -1.53713 -3.01924 0
M  V30 15626 C 1488.49 -1.33972 -3.5175 0
M  V30 15627 C 1487.63 -1.5929 -2.26985 0
M  V30 15628 H 1490.59 -1.25383 -0.972874 0
M  V30 15629 H 1490.61 -0.970503 -3.67915 0
M  V30 15630 H 1490.12 -2.60804 -2.87407 0
M  V30 15631 H 1488.22 -0.289998 -3.7147 0
M  V30 15632 H 1488.33 -2.0749 -4.31839 0
M  V30 15633 H 1486.7 -1.01505 -2.336 0
M  V30 15634 H 1487.48 -2.67611 -2.15033 0
M  V30 15635 N 1489.92 1.30607 -0.882012 0
M  V30 15636 C 1491.15 2.00954 -0.513048 0
M  V30 15637 C 1491.57 1.65697 0.890279 0
M  V30 15638 O 1490.93 0.872001 1.58952 0
M  V30 15639 C 1490.98 3.53907 -0.691525 0
M  V30 15640 O 1490.08 4.11555 0.263896 0
M  V30 15641 H 1489.43 0.632356 -0.202537 0
M  V30 15642 H 1491.96 1.66524 -1.18874 0
M  V30 15643 H 1491.97 4.0372 -0.589392 0
M  V30 15644 H 1490.64 3.78907 -1.71471 0
M  V30 15645 H 1489.22 3.7272 0.115707 0
M  V30 15646 N 1491.4 0.642663 1.43901 0
M  V30 15647 C 1492.33 -0.0419756 2.33462 0
M  V30 15648 C 1493.31 -0.822923 1.48869 0
M  V30 15649 O 1494.5 -0.786508 1.7756 0
M  V30 15650 C 1491.63 -1.01631 3.32097 0
M  V30 15651 C 1490.58 -0.346206 4.26597 0
M  V30 15652 C 1489.91 -1.43125 5.15189 0
M  V30 15653 C 1491.21 0.754799 5.16817 0
M  V30 15654 H 1492.9 0.705929 2.90959 0
M  V30 15655 H 1490.45 0.340924 1.39906 0
M  V30 15656 H 1492.4 -1.5041 3.93643 0
M  V30 15657 H 1491.13 -1.79525 2.72834 0
M  V30 15658 H 1489.78 0.121038 3.664 0
M  V30 15659 H 1489.43 -2.20135 4.52271 0
M  V30 15660 H 1489.13 -0.988194 5.79231 0
M  V30 15661 H 1490.66 -1.92061 5.79607 0
M  V30 15662 H 1492.07 0.349624 5.72233 0
M  V30 15663 H 1490.47 1.12169 5.89524 0
M  V30 15664 H 1491.54 1.61718 4.57138 0
M  V30 15665 N 1492.88 -1.52852 0.383918 0
M  V30 15666 C 1494.16 -1.939 -0.25729 0
M  V30 15667 C 1494.54 -1.31895 -1.64824 0
M  V30 15668 O 1493.89 -0.484987 -2.23294 0
M  V30 15669 C 1494.1 -3.47801 -0.289064 0
M  V30 15670 C 1495.44 -4.21396 -0.520611 0
M  V30 15671 O 1496.47 -3.54278 -0.369502 0
M  V30 15672 O 1495.33 -5.4037 -0.816254 0
M  V30 15673 H 1492.42 -0.811658 -0.158558 0
M  V30 15674 H 1494.97 -1.63949 0.438034 0
M  V30 15675 H 1493.74 -3.8525 0.685441 0
M  V30 15676 H 1493.36 -3.8404 -1.02953 0
M  V30 15677 N 1494.36 -0.113586 -1.5719 0
M  V30 15678 C 1495.61 0.544642 -1.94623 0
M  V30 15679 C 1495.93 1.6756 -0.997428 0
M  V30 15680 O 1495.2 1.95829 -0.0527521 0
M  V30 15681 H 1493.78 0.204186 -0.718552 0
M  V30 15682 H 1496.44 -0.181258 -1.94055 0
M  V30 15683 H 1495.54 0.942765 -2.9752 0
M  V30 15684 N 1495.84 1.56784 0.160173 0
M  V30 15685 C 1497.11 1.73513 0.902908 0
M  V30 15686 C 1497.49 0.678036 1.99915 0
M  V30 15687 O 1496.84 -0.305302 2.26451 0
M  V30 15688 C 1497.05 3.17111 1.45744 0
M  V30 15689 C 1498.4 3.78404 1.92602 0
M  V30 15690 O 1499.42 3.20459 1.55515 0
M  V30 15691 O 1498.28 4.80172 2.60954 0
M  V30 15692 H 1495.38 0.708981 0.425764 0
M  V30 15693 H 1497.92 1.69061 0.147129 0
M  V30 15694 H 1496.7 3.85539 0.668985 0
M  V30 15695 H 1496.32 3.25936 2.2771 0
M  V30 15696 N 1497.32 -0.429099 1.51646 0
M  V30 15697 C 1498.56 -1.17551 1.64396 0
M  V30 15698 C 1498.88 -1.91526 0.366444 0
M  V30 15699 O 1498.15 -1.85896 -0.618013 0
M  V30 15700 H 1496.73 -0.436918 0.605898 0
M  V30 15701 H 1499.4 -0.491159 1.8861 0
M  V30 15702 H 1498.49 -1.90057 2.47557 0
M  V30 15703 N 1498.79 -1.41931 -0.685074 0
M  V30 15704 C 1500.07 -1.32338 -1.44035 0
M  V30 15705 C 1500.45 0.0441161 -2.11054 0
M  V30 15706 O 1499.8 1.05901 -2.02478 0
M  V30 15707 C 1500.01 -2.48429 -2.45121 0
M  V30 15708 C 1501.36 -2.90076 -3.10067 0
M  V30 15709 O 1502.38 -2.48245 -2.55447 0
M  V30 15710 O 1501.24 -3.62445 -4.09019 0
M  V30 15711 H 1498.33 -0.521361 -0.641959 0
M  V30 15712 H 1500.88 -1.53918 -0.714666 0
M  V30 15713 H 1499.65 -3.39637 -1.94326 0
M  V30 15714 H 1499.27 -2.28781 -3.25184 0
M  V30 15715 N 1500.27 0.920374 -1.27933 0
M  V30 15716 C 1501.69 1.19761 -1.05496 0
M  V30 15717 C 1501.89 2.00435 0.206864 0
M  V30 15718 O 1500.94 2.35518 0.910356 0
M  V30 15719 C 1502.26 1.93863 -2.29864 0
M  V30 15720 C 1503.8 2.06773 -2.34976 0
M  V30 15721 C 1504.28 2.84282 -3.59093 0
M  V30 15722 N 1505.77 2.91847 -3.59694 0
M  V30 15723 C 1506.51 3.52303 -4.52404 0
M  V30 15724 N 1506 4.14092 -5.55427 0
M  V30 15725 N 1507.79 3.49778 -4.40013 0
M  V30 15726 H 1499.95 0.381596 -2.08944 0
M  V30 15727 H 1502.21 0.231451 -0.919312 0
M  V30 15728 H 1501.91 1.42008 -3.21756 0
M  V30 15729 H 1501.79 2.94446 -2.35757 0
M  V30 15730 H 1504.18 2.57812 -1.43586 0
M  V30 15731 H 1504.26 1.05388 -2.33082 0
M  V30 15732 H 1503.9 2.33925 -4.50823 0
M  V30 15733 H 1503.83 3.85968 -3.5824 0
M  V30 15734 H 1506.32 2.4794 -2.85191 0
M  V30 15735 H 1506.63 4.58183 -6.22325 0
M  V30 15736 H 1504.98 4.12616 -5.59261 0
M  V30 15737 H 1508.17 3.00712 -3.58733 0
M  V30 15738 H 1508.34 3.96603 -5.12455 0
M  V30 15739 N 1501.75 1.10074 1.1279 0
M  V30 15740 C 1502.7 0.746173 2.18405 0
M  V30 15741 C 1503.67 -0.275751 1.63795 0
M  V30 15742 O 1504.85 -0.155876 1.90162 0
M  V30 15743 C 1501.99 0.180105 3.4463 0
M  V30 15744 C 1501.1 1.25688 4.13312 0
M  V30 15745 C 1500.24 0.652852 5.27173 0
M  V30 15746 C 1499.28 1.71046 5.87716 0
M  V30 15747 N 1498.42 1.12698 6.92996 0
M  V30 15748 H 1503.26 1.65105 2.48081 0
M  V30 15749 H 1500.79 0.824768 1.21803 0
M  V30 15750 H 1502.75 -0.165948 4.1687 0
M  V30 15751 H 1501.38 -0.688014 3.15383 0
M  V30 15752 H 1500.43 1.72011 3.39288 0
M  V30 15753 H 1501.74 2.05762 4.54382 0
M  V30 15754 H 1500.9 0.25603 6.0616 0
M  V30 15755 H 1499.64 -0.17937 4.8737 0
M  V30 15756 H 1498.64 2.11676 5.07418 0
M  V30 15757 H 1499.87 2.54547 6.29589 0
M  V30 15758 H 1497.81 0.316154 6.55238 0
M  V30 15759 H 1497.73 1.86461 7.32645 0
M  V30 15760 H 1499 0.756582 7.7582 0
M  V30 15761 N 1503.23 -1.30138 0.888926 0
M  V30 15762 C 1504.17 -2.28023 0.356923 0
M  V30 15763 C 1505.14 -1.56551 -0.555066 0
M  V30 15764 O 1506.33 -1.84595 -0.482633 0
M  V30 15765 C 1503.47 -3.42546 -0.419056 0
M  V30 15766 C 1502.58 -4.28827 0.5226 0
M  V30 15767 C 1501.72 -5.30517 -0.269366 0
M  V30 15768 C 1500.76 -6.08449 0.667507 0
M  V30 15769 N 1499.89 -7.02043 -0.08938 0
M  V30 15770 H 1504.73 -2.72912 1.19678 0
M  V30 15771 H 1502.27 -1.34239 0.60152 0
M  V30 15772 H 1504.23 -4.07707 -0.884911 0
M  V30 15773 H 1502.86 -2.98716 -1.22346 0
M  V30 15774 H 1501.91 -3.63938 1.10695 0
M  V30 15775 H 1503.22 -4.83136 1.24018 0
M  V30 15776 H 1502.38 -6.01444 -0.796901 0
M  V30 15777 H 1501.12 -4.76911 -1.02014 0
M  V30 15778 H 1500.12 -5.36396 1.20664 0
M  V30 15779 H 1501.35 -6.64143 1.41744 0
M  V30 15780 H 1499.29 -6.50822 -0.822622 0
M  V30 15781 H 1499.21 -7.53859 0.568499 0
M  V30 15782 H 1500.48 -7.77206 -0.597529 0
M  V30 15783 N 1504.71 -0.650285 -1.43559 0
M  V30 15784 C 1505.95 -0.166046 -2.03724 0
M  V30 15785 C 1506.31 1.19631 -1.50174 0
M  V30 15786 O 1507.51 1.77379 -2.01966 0
M  V30 15787 C 1505.78 -0.172648 -3.56983 0
M  V30 15788 S 1507.34 0.244173 -4.3812 0
M  V30 15789 H 1504.16 -0.0705044 -0.707496 0
M  V30 15790 H 1506.76 -0.857964 -1.75668 0
M  V30 15791 H 1505.46 -1.16696 -3.93459 0
M  V30 15792 H 1505 0.539902 -3.89678 0
M  V30 15793 H 1507.01 1.48378 -4.73496 0
M  V30 15794 N 1506.18 1.52647 -0.392018 0
M  V30 15795 C 1507.11 2.29446 0.433228 0
M  V30 15796 C 1508.09 1.32945 1.06111 0
M  V30 15797 O 1509.28 1.61841 1.07337 0
M  V30 15798 C 1506.41 3.10328 1.55929 0
M  V30 15799 C 1505.36 4.14735 1.05731 0
M  V30 15800 C 1504.69 4.83858 2.27565 0
M  V30 15801 C 1505.99 5.22154 0.123346 0
M  V30 15802 H 1507.68 2.9868 -0.207563 0
M  V30 15803 H 1505.23 1.43643 -0.101266 0
M  V30 15804 H 1507.18 3.62814 2.14346 0
M  V30 15805 H 1505.91 2.38832 2.22771 0
M  V30 15806 H 1504.57 3.63234 0.495653 0
M  V30 15807 H 1504.21 4.08907 2.92923 0
M  V30 15808 H 1503.91 5.54428 1.94637 0
M  V30 15809 H 1505.44 5.39149 2.86619 0
M  V30 15810 H 1506.85 5.69983 0.615784 0
M  V30 15811 H 1505.25 5.99987 -0.116304 0
M  V30 15812 H 1506.32 4.77796 -0.826969 0
M  V30 15813 N 1507.66 0.121921 1.57128 0
M  V30 15814 C 1508.63 -0.812905 2.143 0
M  V30 15815 C 1509.63 -1.19261 1.07858 0
M  V30 15816 O 1510.82 -1.11764 1.33621 0
M  V30 15817 C 1507.95 -2.09969 2.68562 0
M  V30 15818 H 1509.14 -0.315992 2.98231 0
M  V30 15819 H 1506.69 -0.12734 1.5578 0
M  V30 15820 H 1507.43 -2.64085 1.88228 0
M  V30 15821 H 1507.21 -1.83688 3.46412 0
M  V30 15822 H 1508.7 -2.76788 3.12695 0
M  V30 15823 N 1509.14 -1.56867 -0.151857 0
M  V30 15824 C 1510.07 -2.00932 -1.18949 0
M  V30 15825 C 1511.05 -0.888062 -1.45077 0
M  V30 15826 O 1512.24 -1.15553 -1.56081 0
M  V30 15827 C 1509.37 -2.3858 -2.52383 0
M  V30 15828 C 1508.32 -3.53845 -2.40785 0
M  V30 15829 C 1507.65 -3.77292 -3.78886 0
M  V30 15830 C 1508.95 -4.8667 -1.89605 0
M  V30 15831 H 1510.64 -2.87863 -0.823107 0
M  V30 15832 H 1508.19 -1.38491 -0.394499 0
M  V30 15833 H 1510.14 -2.68006 -3.25193 0
M  V30 15834 H 1508.86 -1.48579 -2.90847 0
M  V30 15835 H 1507.52 -3.24577 -1.70427 0
M  V30 15836 H 1507.17 -2.84551 -4.14777 0
M  V30 15837 H 1506.87 -4.54861 -3.71989 0
M  V30 15838 H 1508.39 -4.09139 -4.53252 0
M  V30 15839 H 1509.81 -5.14846 -2.52204 0
M  V30 15840 H 1508.21 -5.6801 -1.93609 0
M  V30 15841 H 1509.28 -4.77366 -0.851438 0
M  V30 15842 N 1510.62 0.421051 -1.51871 0
M  V30 15843 C 1511.86 1.17082 -1.65589 0
M  V30 15844 C 1512.2 1.90469 -0.378861 0
M  V30 15845 O 1511.47 1.84277 0.622259 0
M  V30 15846 C 1511.76 2.17483 -2.87007 0
M  V30 15847 C 1511.61 1.48071 -4.24729 0
M  V30 15848 C 1512.93 3.18288 -3.03942 0
M  V30 15849 H 1510.05 0.424284 -0.602621 0
M  V30 15850 H 1512.69 0.457998 -1.84397 0
M  V30 15851 H 1510.84 2.78273 -2.71102 0
M  V30 15852 H 1512.51 0.904926 -4.52337 0
M  V30 15853 H 1510.75 0.782814 -4.26678 0
M  V30 15854 H 1511.42 2.21272 -5.0571 0
M  V30 15855 H 1513.9 2.67565 -3.18666 0
M  V30 15856 H 1512.78 3.85815 -3.90433 0
M  V30 15857 H 1513.04 3.85333 -2.16728 0
M  V30 15858 N 1512.1 1.42293 0.677538 0
M  V30 15859 C 1513.32 1.46214 1.47092 0
M  V30 15860 C 1513.75 0.0740989 1.87954 0
M  V30 15861 O 1513.1 -0.926831 1.55819 0
M  V30 15862 C 1513.15 2.39236 2.69812 0
M  V30 15863 O 1512.26 1.86183 3.6798 0
M  V30 15864 H 1511.6 0.495507 0.442006 0
M  V30 15865 H 1514.13 1.86952 0.831274 0
M  V30 15866 H 1514.14 2.55723 3.17915 0
M  V30 15867 H 1512.81 3.40081 2.39411 0
M  V30 15868 H 1511.39 1.79237 3.26999 0
M  V30 15869 N 1513.57 -0.913576 1.28419 0
M  V30 15870 C 1514.5 -2.03275 1.14897 0
M  V30 15871 C 1515.49 -1.70036 0.0467034 0
M  V30 15872 O 1516.67 -1.92907 0.223725 0
M  V30 15873 C 1513.8 -3.37717 0.810217 0
M  V30 15874 C 1512.75 -3.85119 1.86728 0
M  V30 15875 C 1512.08 -5.16527 1.38215 0
M  V30 15876 C 1513.38 -4.06959 3.27386 0
M  V30 15877 H 1515.07 -2.14847 2.08522 0
M  V30 15878 H 1512.62 -1.03233 1.00394 0
M  V30 15879 H 1514.57 -4.15505 0.702382 0
M  V30 15880 H 1513.3 -3.26199 -0.161732 0
M  V30 15881 H 1511.96 -3.09536 1.96426 0
M  V30 15882 H 1511.6 -5.01413 0.399263 0
M  V30 15883 H 1511.3 -5.49213 2.08898 0
M  V30 15884 H 1512.83 -5.96871 1.28754 0
M  V30 15885 H 1514.24 -4.75272 3.20608 0
M  V30 15886 H 1512.64 -4.50977 3.95904 0
M  V30 15887 H 1513.71 -3.11764 3.71391 0
M  V30 15888 N 1515.05 -1.1067 -1.12204 0
M  V30 15889 C 1516.3 -0.84895 -1.83405 0
M  V30 15890 C 1516.62 0.62724 -1.84637 0
M  V30 15891 O 1515.89 1.45546 -1.31123 0
M  V30 15892 H 1514.47 -0.311074 -0.679148 0
M  V30 15893 H 1517.13 -1.39747 -1.35856 0
M  V30 15894 H 1516.23 -1.21398 -2.87522 0
M  V30 15895 N 1516.53 1.29665 -0.895815 0
M  V30 15896 C 1517.44 2.31582 -0.375086 0
M  V30 15897 C 1518.46 1.65789 0.528196 0
M  V30 15898 O 1519.63 1.96999 0.41871 0
M  V30 15899 C 1516.7 3.44472 0.39241 0
M  V30 15900 C 1515.76 4.25866 -0.541926 0
M  V30 15901 C 1514.99 5.33365 0.189037 0
M  V30 15902 O 1515.21 5.52607 1.41355 0
M  V30 15903 O 1514.15 6.0009 -0.466441 0
M  V30 15904 H 1517.97 2.78095 -1.22052 0
M  V30 15905 H 1515.56 1.34031 -0.660007 0
M  V30 15906 H 1517.44 4.13214 0.826565 0
M  V30 15907 H 1516.12 3.00074 1.21397 0
M  V30 15908 H 1515.02 3.59781 -1.02512 0
M  V30 15909 H 1516.36 4.73896 -1.32979 0
M  V30 15910 N 1518.01 0.657889 1.43212 0
M  V30 15911 C 1518.96 -0.0532813 2.27938 0
M  V30 15912 C 1519.94 -0.790207 1.40159 0
M  V30 15913 O 1521.13 -0.671904 1.63751 0
M  V30 15914 C 1518.26 -1.01574 3.27929 0
M  V30 15915 C 1517.35 -0.277042 4.23194 0
M  V30 15916 N 1517.74 0.708959 5.00807 0
M  V30 15917 C 1516.04 -0.517845 4.42983 0
M  V30 15918 C 1516.74 1.14784 5.70263 0
M  V30 15919 N 1515.72 0.481156 5.41466 0
M  V30 15920 H 1519.52 0.703257 2.85362 0
M  V30 15921 H 1517.03 0.485552 1.54971 0
M  V30 15922 H 1519.03 -1.54006 3.87412 0
M  V30 15923 H 1517.69 -1.77229 2.72066 0
M  V30 15924 H 1518.7 1.08786 5.06346 0
M  V30 15925 H 1515.38 -1.2552 3.98185 0
M  V30 15926 H 1516.77 1.96395 6.42556 0
M  V30 15927 N 1519.49 -1.52437 0.400108 0
M  V30 15928 C 1520.9 -1.86563 -0.0715162 0
M  V30 15929 C 1521.25 -1.3193 -1.4522 0
M  V30 15930 O 1520.37 -0.654955 -2.06251 0
M  V30 15931 C 1520.97 -3.38525 -0.13655 0
M  V30 15932 C 1519.53 -3.72323 -0.55249 0
M  V30 15933 C 1518.67 -2.75896 0.278729 0
M  V30 15934 H 1521.63 -1.46192 0.617547 0
M  V30 15935 H 1521.65 -3.68357 -0.953588 0
M  V30 15936 H 1521.16 -3.78258 0.868468 0
M  V30 15937 H 1519.26 -3.38164 -1.56448 0
M  V30 15938 H 1519.37 -4.7814 -0.303139 0
M  V30 15939 H 1517.74 -2.53394 -0.257608 0
M  V30 15940 H 1518.52 -3.18467 1.28193 0
M  V30 15941 N 1520.96 -0.130252 -1.57061 0
M  V30 15942 C 1521.87 0.829198 -2.19457 0
M  V30 15943 C 1522.89 1.2843 -1.17395 0
M  V30 15944 O 1524.07 1.34496 -1.49909 0
M  V30 15945 C 1521.13 2.05727 -2.79065 0
M  V30 15946 C 1520.19 1.65301 -3.962 0
M  V30 15947 C 1519.43 2.82253 -4.52956 0
M  V30 15948 O 1519.65 3.97999 -4.08598 0
M  V30 15949 O 1518.58 2.5869 -5.43473 0
M  V30 15950 H 1522.41 0.328139 -3.01922 0
M  V30 15951 H 1519.99 0.0959361 -1.49092 0
M  V30 15952 H 1521.88 2.7763 -3.17017 0
M  V30 15953 H 1520.55 2.54817 -1.99624 0
M  V30 15954 H 1519.46 0.904712 -3.62996 0
M  V30 15955 H 1520.79 1.20942 -4.7711 0
M  V30 15956 N 1522.44 1.56945 0.143535 0
M  V30 15957 C 1523.37 2.0156 1.17881 0
M  V30 15958 C 1524.35 0.895744 1.44604 0
M  V30 15959 O 1525.54 1.16379 1.55466 0
M  V30 15960 C 1522.67 2.39915 2.51114 0
M  V30 15961 C 1521.62 3.55117 2.38905 0
M  V30 15962 C 1520.95 3.79296 3.7688 0
M  V30 15963 C 1522.25 4.87668 1.87021 0
M  V30 15964 H 1523.94 2.88296 0.80783 0
M  V30 15965 H 1521.49 1.38698 0.387149 0
M  V30 15966 H 1523.44 2.69727 3.23767 0
M  V30 15967 H 1522.17 1.5012 2.90055 0
M  V30 15968 H 1520.83 3.25476 1.68703 0
M  V30 15969 H 1520.47 2.86747 4.13262 0
M  V30 15970 H 1520.17 4.56827 3.69571 0
M  V30 15971 H 1521.7 4.11537 4.51076 0
M  V30 15972 H 1523.11 5.16176 2.4947 0
M  V30 15973 H 1521.51 5.69029 1.90594 0
M  V30 15974 H 1522.58 4.77811 0.82611 0
M  V30 15975 N 1523.92 -0.412991 1.52093 0
M  V30 15976 C 1525.34 -0.751324 1.40809 0
M  V30 15977 C 1525.54 -1.94951 0.509543 0
M  V30 15978 O 1524.59 -2.52486 -0.026132 0
M  V30 15979 C 1525.91 -1.00888 2.8327 0
M  V30 15980 C 1527.45 -1.11183 2.92587 0
M  V30 15981 C 1527.93 -1.40217 4.36008 0
M  V30 15982 N 1529.42 -1.4709 4.39225 0
M  V30 15983 C 1530.16 -1.71174 5.47254 0
M  V30 15984 N 1529.65 -1.92887 6.65407 0
M  V30 15985 N 1531.44 -1.73157 5.34765 0
M  V30 15986 H 1523.6 0.375774 2.0905 0
M  V30 15987 H 1525.86 0.105817 0.942076 0
M  V30 15988 H 1525.56 -0.200872 3.51126 0
M  V30 15989 H 1525.44 -1.93008 3.2408 0
M  V30 15990 H 1527.83 -1.91043 2.24915 0
M  V30 15991 H 1527.91 -0.169078 2.55241 0
M  V30 15992 H 1527.55 -0.608754 5.04239 0
M  V30 15993 H 1527.48 -2.35737 4.70888 0
M  V30 15994 H 1529.97 -1.32114 3.54054 0
M  V30 15995 H 1530.28 -2.10704 7.43521 0
M  V30 15996 H 1528.63 -1.9016 6.68479 0
M  V30 15997 H 1531.82 -1.55728 4.41437 0
M  V30 15998 H 1531.99 -1.91587 6.1903 0
M  V30 15999 N 1525.4 -1.4265 -0.669982 0
M  V30 16000 C 1526.35 -1.46504 -1.7834 0
M  V30 16001 C 1527.32 -0.316478 -1.63057 0
M  V30 16002 O 1528.5 -0.521245 -1.83542 0
M  V30 16003 C 1525.64 -1.37784 -3.16401 0
M  V30 16004 C 1524.75 -2.62714 -3.42937 0
M  V30 16005 C 1523.89 -2.46101 -4.70752 0
M  V30 16006 C 1522.93 -3.66381 -4.90338 0
M  V30 16007 N 1522.07 -3.48681 -6.09398 0
M  V30 16008 H 1526.91 -2.41651 -1.74381 0
M  V30 16009 H 1524.44 -1.1997 -0.851215 0
M  V30 16010 H 1526.4 -1.30725 -3.9619 0
M  V30 16011 H 1525.03 -0.462291 -3.19473 0
M  V30 16012 H 1524.08 -2.8012 -2.57366 0
M  V30 16013 H 1525.39 -3.52108 -3.53301 0
M  V30 16014 H 1524.55 -2.36655 -5.58641 0
M  V30 16015 H 1523.29 -1.54204 -4.6268 0
M  V30 16016 H 1522.29 -3.76254 -4.00891 0
M  V30 16017 H 1523.52 -4.59265 -5.00253 0
M  V30 16018 H 1521.46 -2.59505 -6.02489 0
M  V30 16019 H 1521.38 -4.31666 -6.20645 0
M  V30 16020 H 1522.65 -3.43056 -6.99952 0
M  V30 16021 N 1526.88 0.906753 -1.28902 0
M  V30 16022 C 1528.1 1.69547 -1.19452 0
M  V30 16023 C 1528.53 1.86531 0.242418 0
M  V30 16024 O 1527.89 1.38052 1.17521 0
M  V30 16025 C 1527.93 3.06139 -1.90556 0
M  V30 16026 O 1527.04 3.9401 -1.21779 0
M  V30 16027 H 1526.38 0.518902 -0.41429 0
M  V30 16028 H 1528.91 1.13327 -1.70347 0
M  V30 16029 H 1528.92 3.56326 -1.98736 0
M  V30 16030 H 1527.59 2.93094 -2.95074 0
M  V30 16031 H 1526.17 3.52444 -1.2181 0
M  V30 16032 N 1528.36 1.11264 1.11616 0
M  V30 16033 C 1529.29 0.79149 2.19676 0
M  V30 16034 C 1530.27 -0.239351 1.68408 0
M  V30 16035 O 1531.45 -0.103228 1.93925 0
M  V30 16036 C 1528.58 0.231891 3.46525 0
M  V30 16037 C 1527.54 1.19439 4.10997 0
M  V30 16038 C 1526.86 0.495593 5.32398 0
M  V30 16039 C 1528.16 2.54437 4.56135 0
M  V30 16040 H 1529.86 1.69503 2.46797 0
M  V30 16041 H 1527.4 0.816433 1.18619 0
M  V30 16042 H 1529.35 -0.00497468 4.214 0
M  V30 16043 H 1528.08 -0.706938 3.18857 0
M  V30 16044 H 1526.74 1.41686 3.38113 0
M  V30 16045 H 1526.39 -0.447984 5.01001 0
M  V30 16046 H 1526.09 1.13753 5.76484 0
M  V30 16047 H 1527.61 0.267476 6.10014 0
M  V30 16048 H 1529.02 2.36289 5.22341 0
M  V30 16049 H 1527.42 3.14595 5.11028 0
M  V30 16050 H 1528.49 3.13795 3.69676 0
M  V30 16051 N 1529.83 -1.29188 0.902679 0
M  V30 16052 C 1530.76 -2.3006 0.399357 0
M  V30 16053 C 1531.74 -1.61724 -0.527199 0
M  V30 16054 O 1532.93 -1.89213 -0.437293 0
M  V30 16055 C 1530.06 -3.45309 -0.371331 0
M  V30 16056 C 1529.01 -4.25466 0.465068 0
M  V30 16057 C 1528.34 -5.32941 -0.433295 0
M  V30 16058 C 1529.64 -4.93287 1.71655 0
M  V30 16059 H 1531.33 -2.72409 1.24233 0
M  V30 16060 H 1528.88 -1.30958 0.598822 0
M  V30 16061 H 1530.83 -4.14955 -0.734207 0
M  V30 16062 H 1529.56 -3.01811 -1.24811 0
M  V30 16063 H 1528.22 -3.57532 0.810315 0
M  V30 16064 H 1527.86 -4.85688 -1.3083 0
M  V30 16065 H 1527.56 -5.87472 0.122657 0
M  V30 16066 H 1529.09 -6.05438 -0.792298 0
M  V30 16067 H 1530.5 -5.55353 1.42323 0
M  V30 16068 H 1528.9 -5.57763 2.21405 0
M  V30 16069 H 1529.97 -4.18406 2.45081 0
M  V30 16070 N 1531.31 -0.665475 -1.42861 0
M  V30 16071 C 1532.72 -0.26225 -1.84849 0
M  V30 16072 C 1533.07 1.19372 -1.55707 0
M  V30 16073 O 1532.2 1.91269 -1.01218 0
M  V30 16074 C 1532.79 -0.469189 -3.35535 0
M  V30 16075 C 1531.35 -0.120172 -3.76208 0
M  V30 16076 C 1530.5 -0.766153 -2.66506 0
M  V30 16077 H 1533.45 -0.868296 -1.32839 0
M  V30 16078 H 1533.47 0.281571 -3.79457 0
M  V30 16079 H 1532.98 -1.52894 -3.56714 0
M  V30 16080 H 1531.08 0.936505 -3.60639 0
M  V30 16081 H 1531.2 -0.554188 -4.75884 0
M  V30 16082 H 1529.56 -0.198292 -2.53927 0
M  V30 16083 H 1530.34 -1.82918 -2.9051 0
M  V30 16084 N 1532.79 1.52222 -0.408187 0
M  V30 16085 C 1534.2 1.86598 0.0616213 0
M  V30 16086 C 1534.55 1.32698 1.44519 0
M  V30 16087 O 1533.68 0.665883 2.059 0
M  V30 16088 C 1534.27 3.38592 0.118595 0
M  V30 16089 C 1532.83 3.72611 0.532737 0
M  V30 16090 C 1531.98 2.75744 -0.293356 0
M  V30 16091 H 1534.93 1.45862 -0.625291 0
M  V30 16092 H 1534.95 3.68858 0.934039 0
M  V30 16093 H 1534.46 3.77792 -0.888516 0
M  V30 16094 H 1532.56 3.38989 1.54652 0
M  V30 16095 H 1532.68 4.78294 0.277777 0
M  V30 16096 H 1531.04 2.53527 0.244166 0
M  V30 16097 H 1531.82 3.17783 -1.2988 0
M  V30 16098 N 1534.27 0.138579 1.5699 0
M  V30 16099 C 1535.2 -0.800568 2.19347 0
M  V30 16100 C 1536.18 -1.26318 1.13921 0
M  V30 16101 O 1537.36 -1.32226 1.42232 0
M  V30 16102 C 1534.49 -2.04317 2.80842 0
M  V30 16103 C 1533.45 -1.71764 3.92022 0
M  V30 16104 C 1532.77 -3.03217 4.40413 0
M  V30 16105 C 1534.07 -0.970789 5.13199 0
M  V30 16106 H 1535.77 -0.280888 2.98079 0
M  V30 16107 H 1533.31 -0.133663 1.43378 0
M  V30 16108 H 1535.27 -2.70491 3.2313 0
M  V30 16109 H 1533.99 -2.58643 1.99428 0
M  V30 16110 H 1532.65 -1.07972 3.50339 0
M  V30 16111 H 1532.3 -3.55517 3.55832 0
M  V30 16112 H 1532 -2.82203 5.15398 0
M  V30 16113 H 1533.52 -3.70477 4.85365 0
M  V30 16114 H 1534.94 -1.53445 5.52384 0
M  V30 16115 H 1533.33 -0.860895 5.93893 0
M  V30 16116 H 1534.4 0.0390088 4.84884 0
M  V30 16117 N 1535.75 -1.57019 -0.13521 0
M  V30 16118 C 1536.99 -1.83178 -0.844308 0
M  V30 16119 C 1537.31 -0.7217 -1.81799 0
M  V30 16120 O 1538.51 -0.869232 -2.57209 0
M  V30 16121 C 1536.97 -3.2471 -1.55214 0
M  V30 16122 C 1536.58 -4.43685 -0.620268 0
M  V30 16123 C 1538.32 -3.60133 -2.24732 0
M  V30 16124 C 1536.23 -5.76242 -1.3304 0
M  V30 16125 H 1535.16 -0.683175 -0.319041 0
M  V30 16126 H 1537.81 -1.83243 -0.0970242 0
M  V30 16127 H 1536.19 -3.19067 -2.34547 0
M  V30 16128 H 1537.37 -4.60591 0.138685 0
M  V30 16129 H 1535.68 -4.16387 -0.0328906 0
M  V30 16130 H 1538.28 -4.56431 -2.78522 0
M  V30 16131 H 1538.62 -2.86767 -3.01779 0
M  V30 16132 H 1539.15 -3.67489 -1.52305 0
M  V30 16133 H 1535.89 -6.52734 -0.60155 0
M  V30 16134 H 1535.41 -5.63251 -2.06176 0
M  V30 16135 H 1537.09 -6.19445 -1.86808 0
M  V30 16136 N 1537.22 0.404919 -1.52309 0
M  V30 16137 C 1538.47 1.14859 -1.65802 0
M  V30 16138 C 1538.79 1.91546 -0.396174 0
M  V30 16139 O 1539.99 2.68372 -0.410969 0
M  V30 16140 C 1538.45 2.09068 -2.92948 0
M  V30 16141 C 1538.06 1.37878 -4.26255 0
M  V30 16142 C 1539.8 2.83669 -3.15804 0
M  V30 16143 C 1537.71 2.30761 -5.44521 0
M  V30 16144 H 1536.64 0.432463 -0.61765 0
M  V30 16145 H 1539.29 0.412695 -1.78799 0
M  V30 16146 H 1537.67 2.86228 -2.7366 0
M  V30 16147 H 1538.84 0.660543 -4.56041 0
M  V30 16148 H 1537.16 0.753026 -4.09534 0
M  V30 16149 H 1539.76 3.53313 -4.0134 0
M  V30 16150 H 1540.1 3.46855 -2.30212 0
M  V30 16151 H 1540.63 2.13607 -3.35584 0
M  V30 16152 H 1537.37 1.72214 -6.32473 0
M  V30 16153 H 1536.89 3.00546 -5.19069 0
M  V30 16154 H 1538.57 2.91195 -5.77767 0
M  V30 16155 N 1538.7 1.43003 0.662408 0
M  V30 16156 C 1539.65 1.43898 1.76854 0
M  V30 16157 C 1540.64 0.308629 1.57912 0
M  V30 16158 O 1541.83 0.551757 1.6818 0
M  V30 16159 C 1538.96 1.35585 3.15391 0
M  V30 16160 C 1538.04 2.53614 3.39913 0
M  V30 16161 N 1538.43 3.78998 3.34954 0
M  V30 16162 C 1536.73 2.48141 3.70597 0
M  V30 16163 C 1537.43 4.57467 3.59303 0
M  V30 16164 N 1536.41 3.8806 3.80671 0
M  V30 16165 H 1540.21 2.38722 1.71432 0
M  V30 16166 H 1537.73 1.37526 0.863728 0
M  V30 16167 H 1539.72 1.34308 3.94673 0
M  V30 16168 H 1538.38 0.417735 3.22002 0
M  V30 16169 H 1539.39 4.11417 3.14574 0
M  V30 16170 H 1536.07 1.62971 3.84379 0
M  V30 16171 H 1537.46 5.66475 3.61326 0
M  V30 16172 N 1540.18 -0.899904 1.29381 0
M  V30 16173 C 1541.41 -1.68383 1.20227 0
M  V30 16174 C 1541.82 -1.87305 -0.237135 0
M  V30 16175 O 1541.18 -1.40992 -1.15877 0
M  V30 16176 C 1541.23 -3.06845 1.91124 0
M  V30 16177 O 1540.95 -2.88787 3.29444 0
M  V30 16178 C 1542.45 -4.01253 1.88444 0
M  V30 16179 H 1539.67 -0.525917 0.416717 0
M  V30 16180 H 1542.22 -1.12537 1.7075 0
M  V30 16181 H 1540.37 -3.59467 1.44438 0
M  V30 16182 H 1540.79 -3.7652 3.65148 0
M  V30 16183 H 1542.26 -4.95824 2.42616 0
M  V30 16184 H 1542.74 -4.30699 0.859925 0
M  V30 16185 H 1543.34 -3.54562 2.34874 0
M  V30 16186 N 1541.66 -1.11854 -1.11024 0
M  V30 16187 C 1542.62 -0.784033 -2.15373 0
M  V30 16188 C 1543.62 0.198686 -1.59568 0
M  V30 16189 O 1544.81 -0.0263428 -1.7418 0
M  V30 16190 C 1541.94 -0.163987 -3.40505 0
M  V30 16191 H 1543.14 -1.70849 -2.46477 0
M  V30 16192 H 1540.69 -0.920988 -1.26283 0
M  V30 16193 H 1541.42 0.770483 -3.15014 0
M  V30 16194 H 1541.21 -0.871447 -3.82293 0
M  V30 16195 H 1542.7 0.0537739 -4.17565 0
M  V30 16196 N 1543.14 1.28707 -0.909517 0
M  V30 16197 C 1544.1 2.25692 -0.39946 0
M  V30 16198 C 1545.1 1.53721 0.471848 0
M  V30 16199 O 1546.29 1.72008 0.275504 0
M  V30 16200 C 1543.42 3.38205 0.427793 0
M  V30 16201 H 1544.61 2.72326 -1.25613 0
M  V30 16202 H 1542.17 1.40317 -0.688535 0
M  V30 16203 H 1542.9 2.96926 1.30404 0
M  V30 16204 H 1542.69 3.91606 -0.19667 0
M  V30 16205 H 1544.18 4.10334 0.775634 0
M  V30 16206 N 1544.61 0.673042 1.42506 0
M  V30 16207 C 1545.84 0.202922 2.05902 0
M  V30 16208 C 1546.26 -1.13923 1.50556 0
M  V30 16209 O 1545.61 -1.70735 0.644662 0
M  V30 16210 C 1545.67 0.12735 3.61276 0
M  V30 16211 O 1545.39 1.41646 4.1457 0
M  V30 16212 C 1546.89 -0.366477 4.41783 0
M  V30 16213 H 1544.11 0.0991021 0.663641 0
M  V30 16214 H 1546.65 0.919282 1.82673 0
M  V30 16215 H 1544.81 -0.539687 3.83622 0
M  V30 16216 H 1545.22 1.28866 5.08423 0
M  V30 16217 H 1546.69 -0.368267 5.5077 0
M  V30 16218 H 1547.17 -1.40142 4.16241 0
M  V30 16219 H 1547.78 0.268761 4.2445 0
M  V30 16220 N 1546.09 -1.52004 0.416254 0
M  V30 16221 C 1547.5 -1.86628 -0.0517247 0
M  V30 16222 C 1547.85 -1.33463 -1.43813 0
M  V30 16223 O 1546.98 -0.676793 -2.05544 0
M  V30 16224 C 1547.57 -3.38651 -0.100637 0
M  V30 16225 C 1546.13 -3.72888 -0.512969 0
M  V30 16226 C 1545.28 -2.75584 0.307975 0
M  V30 16227 H 1548.23 -1.45529 0.633018 0
M  V30 16228 H 1548.25 -3.69348 -0.914465 0
M  V30 16229 H 1547.76 -3.77316 0.908538 0
M  V30 16230 H 1545.87 -3.39804 -1.52852 0
M  V30 16231 H 1545.98 -4.78435 -0.252408 0
M  V30 16232 H 1544.34 -2.53653 -0.230717 0
M  V30 16233 H 1545.13 -3.1709 1.31563 0
M  V30 16234 N 1547.57 -0.146903 -1.56914 0
M  V30 16235 C 1548.5 0.830846 -2.12538 0
M  V30 16236 C 1549.48 1.24243 -1.04892 0
M  V30 16237 O 1550.67 1.33855 -1.32721 0
M  V30 16238 C 1547.79 2.11561 -2.64499 0
M  V30 16239 C 1546.84 1.84995 -3.8429 0
M  V30 16240 S 1547.67 1.04104 -5.25283 0
M  V30 16241 C 1548.83 2.337 -5.80633 0
M  V30 16242 H 1549.06 0.357829 -2.95139 0
M  V30 16243 H 1546.59 0.0673772 -1.54253 0
M  V30 16244 H 1548.55 2.85366 -2.95087 0
M  V30 16245 H 1547.21 2.55977 -1.82028 0
M  V30 16246 H 1546.41 2.8026 -4.18892 0
M  V30 16247 H 1546.01 1.19298 -3.54463 0
M  V30 16248 H 1548.3 3.29351 -5.92059 0
M  V30 16249 H 1549.24 2.03603 -6.78197 0
M  V30 16250 H 1549.65 2.44344 -5.08878 0
M  V30 16251 N 1549.05 1.57088 0.126881 0
M  V30 16252 C 1550.27 1.88984 0.854389 0
M  V30 16253 C 1550.7 0.738037 1.73016 0
M  V30 16254 O 1550.06 -0.311728 1.786 0
M  V30 16255 C 1550.1 3.19584 1.67028 0
M  V30 16256 O 1549.21 3.04935 2.77648 0
M  V30 16257 H 1548.55 0.620354 0.236763 0
M  V30 16258 H 1551.08 2.04295 0.111647 0
M  V30 16259 H 1551.09 3.52109 2.06115 0
M  V30 16260 H 1549.76 4.03012 1.02732 0
M  V30 16261 H 1548.34 2.83861 2.41821 0
M  V30 16262 N 1550.53 -0.396836 1.52522 0
M  V30 16263 C 1551.46 -1.49088 1.79708 0
M  V30 16264 C 1552.44 -1.57246 0.648678 0
M  V30 16265 O 1553.62 -1.72321 0.895495 0
M  V30 16266 C 1550.75 -2.86785 1.95887 0
M  V30 16267 C 1549.71 -2.93472 3.11542 0
M  V30 16268 C 1549.03 -4.33542 3.12963 0
M  V30 16269 C 1550.33 -2.63832 4.50766 0
M  V30 16270 H 1552.03 -1.26588 2.71322 0
M  V30 16271 H 1549.57 -0.607535 1.30557 0
M  V30 16272 H 1551.53 -3.63319 2.13489 0
M  V30 16273 H 1550.25 -3.10605 1.00955 0
M  V30 16274 H 1548.91 -2.19384 2.93711 0
M  V30 16275 H 1548.56 -4.5439 2.15729 0
M  V30 16276 H 1548.26 -4.38938 3.9065 0
M  V30 16277 H 1549.78 -5.11993 3.32709 0
M  V30 16278 H 1551.19 -3.30086 4.68739 0
M  V30 16279 H 1549.59 -2.80589 5.30462 0
M  V30 16280 H 1550.66 -1.59209 4.58018 0
M  V30 16281 N 1552.01 -1.43353 -0.654814 0
M  V30 16282 C 1553.42 -1.39933 -1.23595 0
M  V30 16283 C 1553.77 -0.102592 -1.95932 0
M  V30 16284 O 1552.89 0.798021 -2.01148 0
M  V30 16285 C 1553.49 -2.53483 -2.24793 0
M  V30 16286 C 1552.05 -2.53333 -2.78387 0
M  V30 16287 C 1551.19 -2.31268 -1.53005 0
M  V30 16288 H 1554.14 -1.52277 -0.446932 0
M  V30 16289 H 1554.17 -2.2488 -3.06935 0
M  V30 16290 H 1553.68 -3.47847 -1.72116 0
M  V30 16291 H 1551.78 -1.62844 -3.35131 0
M  V30 16292 H 1551.89 -3.51047 -3.26041 0
M  V30 16293 H 1550.26 -1.79905 -1.80295 0
M  V30 16294 H 1551.04 -3.27714 -1.02266 0
M  V30 16295 N 1553.48 0.89303 -1.29857 0
M  V30 16296 C 1554.43 1.9979 -1.15554 0
M  V30 16297 C 1555.4 1.66033 -0.0471157 0
M  V30 16298 O 1556.59 1.89575 -0.215846 0
M  V30 16299 C 1553.73 3.34595 -0.844993 0
M  V30 16300 C 1552.84 3.81093 -2.03451 0
M  V30 16301 C 1551.97 5.04506 -1.66275 0
M  V30 16302 C 1551.01 5.4339 -2.8177 0
M  V30 16303 N 1550.15 6.57987 -2.44945 0
M  V30 16304 H 1554.99 2.11355 -2.10079 0
M  V30 16305 H 1552.53 1.03497 -1.04531 0
M  V30 16306 H 1554.48 4.12175 -0.645598 0
M  V30 16307 H 1553.11 3.22738 0.0633626 0
M  V30 16308 H 1552.17 2.99491 -2.34541 0
M  V30 16309 H 1553.48 4.05855 -2.8997 0
M  V30 16310 H 1552.63 5.89688 -1.42664 0
M  V30 16311 H 1551.37 4.81597 -0.769144 0
M  V30 16312 H 1550.38 4.56738 -3.06056 0
M  V30 16313 H 1551.6 5.68276 -3.71805 0
M  V30 16314 H 1549.55 6.36669 -1.58079 0
M  V30 16315 H 1549.46 6.82579 -3.24996 0
M  V30 16316 H 1550.73 7.46421 -2.24669 0
M  V30 16317 N 1554.96 1.12442 1.10429 0
M  V30 16318 C 1556.19 0.902914 1.86714 0
M  V30 16319 C 1556.61 -0.542514 1.80107 0
M  V30 16320 O 1555.97 -1.38406 1.17105 0
M  V30 16321 C 1556.02 1.38238 3.33051 0
M  V30 16322 O 1555.12 0.560877 4.08568 0
M  V30 16323 H 1554.46 0.324397 0.579364 0
M  V30 16324 H 1556.99 1.49652 1.39519 0
M  V30 16325 H 1557 1.38148 3.839 0
M  V30 16326 H 1555.68 2.43486 3.37176 0
M  V30 16327 H 1554.25 0.628771 3.67561 0
M  V30 16328 N 1556.44 -1.28223 0.91633 0
M  V30 16329 C 1557.67 -1.98986 0.566772 0
M  V30 16330 C 1558.08 -1.68455 -0.852553 0
M  V30 16331 O 1557.44 -0.938734 -1.56506 0
M  V30 16332 C 1557.49 -3.53217 0.769423 0
M  V30 16333 O 1557.21 -3.82674 2.1329 0
M  V30 16334 C 1558.71 -4.41238 0.427043 0
M  V30 16335 H 1555.93 -0.63534 0.215834 0
M  V30 16336 H 1558.48 -1.63357 1.23024 0
M  V30 16337 H 1556.63 -3.87098 0.152915 0
M  V30 16338 H 1557.05 -4.77302 2.17448 0
M  V30 16339 H 1558.52 -5.48512 0.619594 0
M  V30 16340 H 1559 -4.34558 -0.63686 0
M  V30 16341 H 1559.6 -4.12858 1.0212 0
M  V30 16342 N 1557.92 -0.68059 -1.42147 0
M  V30 16343 C 1559.14 -0.212293 -2.06311 0
M  V30 16344 C 1559.57 1.12402 -1.50822 0
M  V30 16345 O 1558.93 1.70037 -0.629051 0
M  V30 16346 C 1558.97 -0.164156 -3.60226 0
M  V30 16347 O 1558.08 0.865582 -4.03214 0
M  V30 16348 H 1557.42 -0.107451 -0.655248 0
M  V30 16349 H 1559.95 -0.931233 -1.82179 0
M  V30 16350 H 1559.96 0.0100422 -4.07999 0
M  V30 16351 H 1558.63 -1.13952 -3.99985 0
M  V30 16352 H 1557.21 0.661955 -3.66978 0
M  V30 16353 N 1559.4 1.51781 -0.424309 0
M  V30 16354 C 1560.62 2.06387 0.145548 0
M  V30 16355 C 1561.04 1.29299 1.37576 0
M  V30 16356 O 1560.4 0.348952 1.79133 0
M  V30 16357 C 1560.45 3.58288 0.48083 0
M  V30 16358 O 1560.17 4.32463 -0.700546 0
M  V30 16359 C 1561.67 4.29364 1.10278 0
M  V30 16360 H 1558.89 0.67086 0.0136908 0
M  V30 16361 H 1561.43 1.95511 -0.599639 0
M  V30 16362 H 1559.59 3.69122 1.17591 0
M  V30 16363 H 1560 5.22839 -0.417035 0
M  V30 16364 H 1561.48 5.36776 1.28747 0
M  V30 16365 H 1561.95 3.86815 2.08017 0
M  V30 16366 H 1562.56 4.2294 0.447458 0
M  V30 16367 N 1560.87 0.155222 1.56834 0
M  V30 16368 C 1562.12 -0.49285 1.95998 0
M  V30 16369 C 1562.44 -1.64857 1.0415 0
M  V30 16370 O 1561.71 -1.9562 0.104654 0
M  V30 16371 H 1560.29 -0.185063 0.723713 0
M  V30 16372 H 1562.95 0.232644 1.93507 0
M  V30 16373 H 1562.05 -0.863552 2.99915 0
M  V30 16374 N 1562.35 -1.57153 -0.118549 0
M  V30 16375 C 1563.28 -2.03409 -1.1466 0
M  V30 16376 C 1564.26 -0.918636 -1.43161 0
M  V30 16377 O 1565.45 -1.18838 -1.53594 0
M  V30 16378 C 1562.58 -2.43879 -2.47265 0
M  V30 16379 C 1561.53 -3.58873 -2.33225 0
M  V30 16380 C 1560.86 -3.85244 -3.70798 0
M  V30 16381 C 1562.16 -4.90582 -1.79239 0
M  V30 16382 H 1563.85 -2.89545 -0.761862 0
M  V30 16383 H 1561.4 -1.39296 -0.365034 0
M  V30 16384 H 1563.35 -2.74844 -3.19435 0
M  V30 16385 H 1562.07 -1.54715 -2.8763 0
M  V30 16386 H 1560.73 -3.28119 -1.63504 0
M  V30 16387 H 1560.38 -2.93285 -4.08648 0
M  V30 16388 H 1560.08 -4.62649 -3.62257 0
M  V30 16389 H 1561.61 -4.18661 -4.44472 0
M  V30 16390 H 1563.02 -5.20079 -2.41227 0
M  V30 16391 H 1561.42 -5.71989 -1.81518 0
M  V30 16392 H 1562.49 -4.79065 -0.74999 0
M  V30 16393 N 1563.83 0.388742 -1.5273 0
M  V30 16394 C 1565.08 1.13151 -1.67455 0
M  V30 16395 C 1565.4 1.90487 -0.417095 0
M  V30 16396 O 1564.67 1.87469 0.568509 0
M  V30 16397 H 1563.25 0.4207 -0.617269 0
M  V30 16398 H 1565.91 0.44098 -1.89846 0
M  V30 16399 H 1565.01 1.83427 -2.52509 0
M  V30 16400 N 1565.31 1.43698 0.647203 0
M  V30 16401 C 1566.22 1.51781 1.78884 0
M  V30 16402 C 1567.23 0.404498 1.69233 0
M  V30 16403 O 1568.41 0.659509 1.90296 0
M  V30 16404 C 1565.47 1.44408 3.15194 0
M  V30 16405 C 1564.54 2.6646 3.36597 0
M  V30 16406 C 1563.77 2.59429 4.66403 0
M  V30 16407 O 1563.99 1.64537 5.46154 0
M  V30 16408 O 1562.93 3.50027 4.89658 0
M  V30 16409 H 1566.75 2.48198 1.75019 0
M  V30 16410 H 1564.34 1.25766 0.806436 0
M  V30 16411 H 1566.22 1.42761 3.96481 0
M  V30 16412 H 1564.89 0.511292 3.19637 0
M  V30 16413 H 1563.8 2.73679 2.5505 0
M  V30 16414 H 1565.13 3.58732 3.37005 0
M  V30 16415 N 1566.79 -0.886131 1.30328 0
M  V30 16416 C 1567.75 -1.97328 1.16594 0
M  V30 16417 C 1568.75 -1.60504 0.0975023 0
M  V30 16418 O 1569.94 -1.70739 0.345524 0
M  V30 16419 C 1567.07 -3.31714 0.786045 0
M  V30 16420 H 1568.26 -2.1094 2.13177 0
M  V30 16421 H 1565.82 -1.07238 1.13708 0
M  V30 16422 H 1566.55 -3.23804 -0.179334 0
M  V30 16423 H 1566.34 -3.5981 1.55817 0
M  V30 16424 H 1567.83 -4.11461 0.71339 0
M  V30 16425 N 1568.26 -1.13026 -1.09832 0
M  V30 16426 C 1569.19 -0.826338 -2.18389 0
M  V30 16427 C 1570.18 0.212529 -1.68767 0
M  V30 16428 O 1571.36 0.072363 -1.94065 0
M  V30 16429 C 1568.49 -0.286991 -3.46112 0
M  V30 16430 C 1567.44 -1.25963 -4.09044 0
M  V30 16431 C 1566.77 -0.580231 -5.31542 0
M  V30 16432 C 1568.07 -2.61661 -4.5203 0
M  V30 16433 H 1569.76 -1.73408 -2.4407 0
M  V30 16434 H 1567.31 -0.835201 -1.17305 0
M  V30 16435 H 1569.26 -0.062067 -4.21354 0
M  V30 16436 H 1567.99 0.656121 -3.19942 0
M  V30 16437 H 1566.65 -1.47047 -3.35816 0
M  V30 16438 H 1566.29 0.368222 -5.0165 0
M  V30 16439 H 1565.99 -1.2291 -5.74601 0
M  V30 16440 H 1567.52 -0.36449 -6.09511 0
M  V30 16441 H 1568.93 -2.44569 -5.18516 0
M  V30 16442 H 1567.33 -3.22685 -5.05959 0
M  V30 16443 H 1568.4 -3.19637 -3.64637 0
M  V30 16444 N 1569.74 1.27735 -0.923117 0
M  V30 16445 C 1570.99 1.94185 -0.56004 0
M  V30 16446 C 1571.31 1.72945 0.90084 0
M  V30 16447 O 1570.58 1.07453 1.63801 0
M  V30 16448 H 1569.16 0.718568 -0.204129 0
M  V30 16449 H 1571.82 1.55535 -1.17451 0
M  V30 16450 H 1570.92 3.02644 -0.762424 0
M  V30 16451 N 1571.22 0.688118 1.41784 0
M  V30 16452 C 1572.63 0.291625 1.84408 0
M  V30 16453 C 1572.98 -1.1688 1.57587 0
M  V30 16454 O 1572.11 -1.89634 1.04248 0
M  V30 16455 C 1572.7 0.522511 3.34747 0
M  V30 16456 C 1571.26 0.180008 3.75969 0
M  V30 16457 C 1570.41 0.808455 2.65253 0
M  V30 16458 H 1573.36 0.88932 1.31441 0
M  V30 16459 H 1573.38 -0.221167 3.79857 0
M  V30 16460 H 1572.89 1.5855 3.54236 0
M  V30 16461 H 1570.99 -0.879012 3.62083 0
M  V30 16462 H 1571.11 0.629826 4.74942 0
M  V30 16463 H 1569.47 0.238665 2.53579 0
M  V30 16464 H 1570.25 1.87516 2.87563 0
M  V30 16465 N 1572.7 -1.51554 0.432352 0
M  V30 16466 C 1573.66 -2.26195 -0.369912 0
M  V30 16467 C 1574.66 -1.29446 -0.953961 0
M  V30 16468 O 1575.85 -1.53199 -0.829193 0
M  V30 16469 C 1572.98 -3.04993 -1.52289 0
M  V30 16470 H 1574.18 -2.98551 0.284173 0
M  V30 16471 H 1571.73 -1.55197 0.1854 0
M  V30 16472 H 1572.46 -2.37043 -2.21317 0
M  V30 16473 H 1572.25 -3.76051 -1.11032 0
M  V30 16474 H 1573.74 -3.61547 -2.08982 0
M  V30 16475 N 1574.18 -0.163538 -1.56749 0
M  V30 16476 C 1575.4 0.493087 -2.01453 0
M  V30 16477 C 1575.83 1.56535 -1.043 0
M  V30 16478 O 1575.18 1.81287 -0.0213039 0
M  V30 16479 C 1575.23 1.05546 -3.44808 0
M  V30 16480 O 1574.34 2.16977 -3.50706 0
M  V30 16481 H 1573.68 0.118905 -0.653267 0
M  V30 16482 H 1576.21 -0.265139 -2.02875 0
M  V30 16483 H 1576.22 1.38002 -3.83953 0
M  V30 16484 H 1574.89 0.270333 -4.1502 0
M  V30 16485 H 1573.47 1.85625 -3.23416 0
M  V30 16486 N 1575.65 1.57214 0.110213 0
M  V30 16487 C 1577.07 1.52706 0.464004 0
M  V30 16488 C 1577.27 0.87792 1.81369 0
M  V30 16489 O 1576.33 0.463987 2.482 0
M  V30 16490 C 1577.64 2.97457 0.440406 0
M  V30 16491 C 1579.19 3.08594 0.523336 0
M  V30 16492 C 1579.66 4.54923 0.53004 0
M  V30 16493 N 1581.15 4.59411 0.591228 0
M  V30 16494 C 1581.89 5.7006 0.618007 0
M  V30 16495 N 1581.38 6.9018 0.601901 0
M  V30 16496 N 1583.18 5.58192 0.661679 0
M  V30 16497 H 1575.33 1.97794 -0.77403 0
M  V30 16498 H 1577.59 0.903673 -0.286496 0
M  V30 16499 H 1577.3 3.48356 -0.483845 0
M  V30 16500 H 1577.17 3.55356 1.26498 0
M  V30 16501 H 1579.56 2.57692 1.43801 0
M  V30 16502 H 1579.64 2.53674 -0.329095 0
M  V30 16503 H 1579.28 5.06472 -0.380623 0
M  V30 16504 H 1579.21 5.07663 1.39948 0
M  V30 16505 H 1581.7 3.72953 0.609483 0
M  V30 16506 H 1582.02 7.70267 0.6252 0
M  V30 16507 H 1580.36 6.92665 0.569186 0
M  V30 16508 H 1583.55 4.63256 0.671686 0
M  V30 16509 H 1583.73 6.44432 0.67908 0
M  V30 16510 N 1577.13 -0.380637 1.52934 0
M  V30 16511 C 1578.55 -0.721287 1.42371 0
M  V30 16512 C 1578.75 -1.93826 0.55078 0
M  V30 16513 O 1577.8 -2.52485 0.02743 0
M  V30 16514 C 1579.12 -0.948564 2.85347 0
M  V30 16515 C 1580.67 -1.04952 2.9488 0
M  V30 16516 C 1581.14 -1.30937 4.38885 0
M  V30 16517 N 1582.63 -1.3774 4.42246 0
M  V30 16518 C 1583.37 -1.59527 5.50762 0
M  V30 16519 N 1582.86 -1.7873 6.69349 0
M  V30 16520 N 1584.66 -1.61774 5.38317 0
M  V30 16521 H 1576.81 0.420032 2.08205 0
M  V30 16522 H 1579.07 0.125776 0.939619 0
M  V30 16523 H 1578.78 -0.126348 3.51473 0
M  V30 16524 H 1578.65 -1.8609 3.28101 0
M  V30 16525 H 1581.04 -1.86229 2.28917 0
M  V30 16526 H 1581.12 -0.114899 2.55542 0
M  V30 16527 H 1580.76 -0.50166 5.05416 0
M  V30 16528 H 1580.69 -2.25696 4.75782 0
M  V30 16529 H 1583.18 -1.24575 3.56777 0
M  V30 16530 H 1583.5 -1.94885 7.47823 0
M  V30 16531 H 1581.84 -1.75938 6.72362 0
M  V30 16532 H 1585.03 -1.4633 4.44641 0
M  V30 16533 H 1585.2 -1.78414 6.22955 0
M  V30 16534 N 1578.61 -1.44039 -0.639573 0
M  V30 16535 C 1579.84 -1.49844 -1.42669 0
M  V30 16536 C 1580.25 -0.120599 -1.88414 0
M  V30 16537 O 1579.61 0.871875 -1.60327 0
M  V30 16538 C 1579.66 -2.45597 -2.65263 0
M  V30 16539 O 1579.38 -3.78023 -2.21427 0
M  V30 16540 C 1580.88 -2.60781 -3.5848 0
M  V30 16541 H 1578.1 -0.508477 -0.437826 0
M  V30 16542 H 1580.65 -1.88919 -0.782923 0
M  V30 16543 H 1578.8 -2.09679 -3.2575 0
M  V30 16544 H 1579.22 -4.29642 -3.00846 0
M  V30 16545 H 1580.69 -3.31826 -4.4113 0
M  V30 16546 H 1581.17 -1.65727 -4.06732 0
M  V30 16547 H 1581.77 -2.97565 -3.03867 0
M  V30 16548 N 1580.09 0.879207 -1.30796 0
M  V30 16549 C 1581.31 1.66975 -1.23021 0
M  V30 16550 C 1581.74 1.87004 0.202798 0
M  V30 16551 O 1581.1 1.40514 1.14566 0
M  V30 16552 C 1581.14 3.02028 -1.97007 0
M  V30 16553 O 1580.25 3.91338 -1.30109 0
M  V30 16554 H 1579.59 0.509998 -0.425204 0
M  V30 16555 H 1582.12 1.09688 -1.72713 0
M  V30 16556 H 1582.13 3.5203 -2.06249 0
M  V30 16557 H 1580.8 2.8677 -3.01224 0
M  V30 16558 H 1579.38 3.49781 -1.29258 0
M  V30 16559 N 1581.57 1.13606 1.09231 0
M  V30 16560 C 1582.79 0.922667 1.85746 0
M  V30 16561 C 1583.22 -0.523381 1.80672 0
M  V30 16562 O 1582.58 -1.37156 1.18566 0
M  V30 16563 C 1582.62 1.41762 3.31566 0
M  V30 16564 O 1581.73 0.60418 4.0795 0
M  V30 16565 H 1581.07 0.330523 0.575891 0
M  V30 16566 H 1583.6 1.51123 1.37924 0
M  V30 16567 H 1583.61 1.42212 3.82413 0
M  V30 16568 H 1582.28 2.47048 3.34574 0
M  V30 16569 H 1580.86 0.667721 3.66873 0
M  V30 16570 N 1583.05 -1.27244 0.929878 0
M  V30 16571 C 1584.27 -1.98912 0.587277 0
M  V30 16572 C 1584.7 -1.68888 -0.828168 0
M  V30 16573 O 1584.05 -0.930394 -1.55606 0
M  V30 16574 C 1584.1 -3.51097 0.822399 0
M  V30 16575 O 1583.21 -4.12251 -0.110968 0
M  V30 16576 H 1582.55 -0.624404 0.225867 0
M  V30 16577 H 1585.08 -1.61997 1.24973 0
M  V30 16578 H 1585.09 -4.01255 0.738824 0
M  V30 16579 H 1583.76 -3.72282 1.85416 0
M  V30 16580 H 1582.34 -3.72893 0.0227053 0
M  V30 16581 N 1584.52 -0.695628 -1.41417 0
M  V30 16582 C 1585.77 -0.226171 -2.0083 0
M  V30 16583 C 1586.09 1.17833 -1.55371 0
M  V30 16584 O 1585.36 1.79512 -0.784362 0
M  V30 16585 H 1583.94 -0.0806271 -0.742636 0
M  V30 16586 H 1586.6 -0.8968 -1.73042 0
M  V30 16587 H 1585.7 -0.243643 -3.11148 0
M  V30 16588 N 1586 1.51322 -0.440383 0
M  V30 16589 C 1587.23 2.07017 0.126018 0
M  V30 16590 C 1587.65 1.30537 1.35431 0
M  V30 16591 O 1587.01 0.344178 1.78003 0
M  V30 16592 C 1587.06 3.58101 0.4238 0
M  V30 16593 O 1586.16 3.83772 1.50973 0
M  V30 16594 H 1585.5 0.664 0.000530178 0
M  V30 16595 H 1588.03 1.94897 -0.622594 0
M  V30 16596 H 1588.04 4.02405 0.673363 0
M  V30 16597 H 1586.72 4.13191 -0.473932 0
M  V30 16598 H 1585.29 3.51329 1.24989 0
M  V30 16599 N 1587.48 0.171848 1.5666 0
M  V30 16600 C 1588.44 -0.744316 2.16778 0
M  V30 16601 C 1589.44 -1.15769 1.11598 0
M  V30 16602 O 1590.63 -1.07456 1.37109 0
M  V30 16603 C 1587.76 -2.01319 2.75106 0
M  V30 16604 H 1588.96 -0.220952 2.99085 0
M  V30 16605 H 1586.51 -0.0777149 1.56107 0
M  V30 16606 H 1587.25 -2.57963 1.96534 0
M  V30 16607 H 1587.03 -1.72575 3.5208 0
M  V30 16608 H 1588.52 -2.667 3.21342 0
M  V30 16609 N 1588.96 -1.5727 -0.101874 0
M  V30 16610 C 1589.87 -2.04896 -1.14257 0
M  V30 16611 C 1590.88 -0.972561 -1.44282 0
M  V30 16612 O 1592.06 -1.28526 -1.55058 0
M  V30 16613 C 1589.12 -2.45818 -2.44488 0
M  V30 16614 C 1588.19 -3.6762 -2.21707 0
M  V30 16615 C 1587.42 -4.06581 -3.45728 0
M  V30 16616 O 1587.64 -3.45702 -4.53703 0
M  V30 16617 O 1586.58 -4.99578 -3.35716 0
M  V30 16618 H 1590.4 -2.93827 -0.768085 0
M  V30 16619 H 1587.99 -1.46065 -0.313902 0
M  V30 16620 H 1589.87 -2.72796 -3.21186 0
M  V30 16621 H 1588.54 -1.60028 -2.81377 0
M  V30 16622 H 1587.45 -3.45768 -1.42812 0
M  V30 16623 H 1588.78 -4.54169 -1.89714 0
M  V30 16624 N 1590.44 0.372521 -1.53134 0
M  V30 16625 C 1591.85 0.949671 -1.60742 0
M  V30 16626 C 1592.2 1.90475 -0.470501 0
M  V30 16627 O 1591.32 2.12594 0.404085 0
M  V30 16628 C 1591.92 1.72918 -2.9135 0
M  V30 16629 C 1590.48 2.25577 -3.01317 0
M  V30 16630 C 1589.62 1.06612 -2.55986 0
M  V30 16631 H 1592.57 0.151533 -1.57975 0
M  V30 16632 H 1592.6 2.58982 -2.78763 0
M  V30 16633 H 1592.11 1.0338 -3.74078 0
M  V30 16634 H 1590.21 2.98378 -2.23162 0
M  V30 16635 H 1590.32 2.53935 -4.06268 0
M  V30 16636 H 1588.69 1.43105 -2.10697 0
M  V30 16637 H 1589.47 0.38584 -3.41125 0
M  V30 16638 N 1591.91 1.44376 0.631925 0
M  V30 16639 C 1593.16 1.46827 1.38875 0
M  V30 16640 C 1593.48 0.101789 1.94734 0
M  V30 16641 O 1592.75 -0.86579 1.7573 0
M  V30 16642 H 1591.33 0.540642 0.515475 0
M  V30 16643 H 1593.99 1.80148 0.743822 0
M  V30 16644 H 1593.09 2.19321 2.22047 0
M  V30 16645 N 1593.39 -0.872258 1.31261 0
M  V30 16646 C 1594.35 -1.96081 1.1868 0
M  V30 16647 C 1595.35 -1.60392 0.11452 0
M  V30 16648 O 1596.54 -1.70363 0.363613 0
M  V30 16649 C 1593.68 -3.30862 0.821183 0
M  V30 16650 H 1594.87 -2.08667 2.15402 0
M  V30 16651 H 1592.42 -1.06026 1.14839 0
M  V30 16652 H 1593.16 -3.23976 -0.14498 0
M  V30 16653 H 1592.94 -3.58137 1.59625 0
M  V30 16654 H 1594.43 -4.10682 0.756991 0
M  V30 16655 N 1594.87 -1.14184 -1.08627 0
M  V30 16656 C 1595.83 -0.82954 -2.13662 0
M  V30 16657 C 1596.83 0.164794 -1.59953 0
M  V30 16658 O 1598.02 -0.0632831 -1.74085 0
M  V30 16659 C 1595.15 -0.236176 -3.40081 0
M  V30 16660 H 1596.35 -1.76038 -2.42797 0
M  V30 16661 H 1593.9 -0.947568 -1.24301 0
M  V30 16662 H 1594.64 0.70349 -3.16578 0
M  V30 16663 H 1594.42 -0.952341 -3.80359 0
M  V30 16664 H 1595.91 -0.03481 -4.17585 0
M  V30 16665 N 1596.35 1.26749 -0.936613 0
M  V30 16666 C 1597.3 2.24218 -0.413552 0
M  V30 16667 C 1598.28 1.53347 0.487172 0
M  V30 16668 O 1599.47 1.74025 0.323163 0
M  V30 16669 C 1596.6 3.41765 0.324304 0
M  V30 16670 C 1595.69 4.19927 -0.593449 0
M  V30 16671 N 1596.08 4.75757 -1.71722 0
M  V30 16672 C 1594.38 4.44219 -0.398158 0
M  V30 16673 C 1595.08 5.34781 -2.28876 0
M  V30 16674 N 1594.06 5.20214 -1.5773 0
M  V30 16675 H 1597.86 2.64974 -1.27146 0
M  V30 16676 H 1595.37 1.41782 -0.791938 0
M  V30 16677 H 1597.37 4.10705 0.716034 0
M  V30 16678 H 1596.03 3.02538 1.17903 0
M  V30 16679 H 1597.04 4.73438 -2.09945 0
M  V30 16680 H 1593.72 4.15431 0.415175 0
M  V30 16681 H 1595.11 5.88875 -3.23536 0
M  V30 16682 N 1597.83 0.703118 1.41046 0
M  V30 16683 C 1598.74 0.0432777 2.3456 0
M  V30 16684 C 1599.75 -0.757704 1.56636 0
M  V30 16685 O 1600.93 -0.693531 1.89082 0
M  V30 16686 C 1597.99 -0.876385 3.35441 0
M  V30 16687 C 1597.05 -0.06676 4.29248 0
M  V30 16688 C 1596.29 -0.942622 5.2531 0
M  V30 16689 O 1596.51 -2.18205 5.27013 0
M  V30 16690 O 1595.44 -0.388266 6.00646 0
M  V30 16691 H 1599.27 0.814302 2.9258 0
M  V30 16692 H 1596.86 0.463503 1.42028 0
M  V30 16693 H 1598.74 -1.40353 3.9734 0
M  V30 16694 H 1597.41 -1.62677 2.79853 0
M  V30 16695 H 1596.32 0.505165 3.70674 0
M  V30 16696 H 1597.65 0.645128 4.87954 0
M  V30 16697 N 1599.3 -1.51086 0.448402 0
M  V30 16698 C 1600.24 -2.24615 -0.402921 0
M  V30 16699 C 1601.22 -1.26994 -1.01544 0
M  V30 16700 O 1602.4 -1.56159 -1.05577 0
M  V30 16701 C 1599.53 -3.00504 -1.56253 0
M  V30 16702 C 1598.57 -4.1287 -1.06961 0
M  V30 16703 S 1599.41 -5.355 -0.00265176 0
M  V30 16704 C 1600.56 -6.14931 -1.16667 0
M  V30 16705 H 1600.79 -2.96475 0.221298 0
M  V30 16706 H 1598.33 -1.52631 0.23303 0
M  V30 16707 H 1600.29 -3.44824 -2.22726 0
M  V30 16708 H 1598.95 -2.28212 -2.15819 0
M  V30 16709 H 1598.14 -4.65288 -1.93708 0
M  V30 16710 H 1597.74 -3.70869 -0.48296 0
M  V30 16711 H 1600.03 -6.44688 -2.08286 0
M  V30 16712 H 1600.98 -7.04806 -0.682223 0
M  V30 16713 H 1601.38 -5.46601 -1.41024 0
M  V30 16714 N 1600.78 -0.180154 -1.56567 0
M  V30 16715 C 1601.73 0.746666 -2.18389 0
M  V30 16716 C 1602.7 1.22058 -1.12655 0
M  V30 16717 O 1603.88 1.28716 -1.40843 0
M  V30 16718 C 1601.02 1.96688 -2.83563 0
M  V30 16719 C 1600.14 1.53572 -4.03782 0
M  V30 16720 C 1599.27 2.71028 -4.56856 0
M  V30 16721 C 1598.31 2.24445 -5.69465 0
M  V30 16722 N 1597.45 3.35026 -6.17011 0
M  V30 16723 H 1602.29 0.212707 -2.9724 0
M  V30 16724 H 1599.83 0.093256 -1.46804 0
M  V30 16725 H 1601.78 2.68269 -3.19511 0
M  V30 16726 H 1600.41 2.4744 -2.073 0
M  V30 16727 H 1599.47 0.716323 -3.73595 0
M  V30 16728 H 1600.78 1.15385 -4.85271 0
M  V30 16729 H 1599.93 3.50753 -4.95032 0
M  V30 16730 H 1598.67 3.1248 -3.74443 0
M  V30 16731 H 1597.68 1.43169 -5.30832 0
M  V30 16732 H 1598.9 1.84041 -6.53686 0
M  V30 16733 H 1596.85 3.76037 -5.37524 0
M  V30 16734 H 1596.76 3.0096 -6.93512 0
M  V30 16735 H 1598.03 4.15009 -6.59839 0
M  V30 16736 N 1602.26 1.57322 0.0935319 0
M  V30 16737 C 1603.49 1.90754 0.814111 0
M  V30 16738 C 1603.91 0.774571 1.71412 0
M  V30 16739 O 1603.27 -0.273775 1.79221 0
M  V30 16740 C 1603.32 3.23055 1.60211 0
M  V30 16741 O 1602.42 3.10755 2.71118 0
M  V30 16742 H 1601.76 0.625237 0.223552 0
M  V30 16743 H 1604.29 2.04486 0.068288 0
M  V30 16744 H 1604.3 3.56401 1.986 0
M  V30 16745 H 1602.98 4.05101 0.941607 0
M  V30 16746 H 1601.55 2.88926 2.35745 0
M  V30 16747 N 1603.74 -0.364395 1.53329 0
M  V30 16748 C 1605.15 -0.941133 1.61244 0
M  V30 16749 C 1605.5 -1.90223 0.480596 0
M  V30 16750 O 1604.63 -2.12805 -0.392805 0
M  V30 16751 C 1605.22 -1.7137 2.92263 0
M  V30 16752 C 1603.78 -2.23976 3.02509 0
M  V30 16753 C 1602.93 -1.05253 2.56548 0
M  V30 16754 H 1605.88 -0.143153 1.58053 0
M  V30 16755 H 1605.9 -2.575 2.80132 0
M  V30 16756 H 1605.41 -1.01395 3.74621 0
M  V30 16757 H 1603.51 -2.9719 2.24741 0
M  V30 16758 H 1603.62 -2.51777 4.07609 0
M  V30 16759 H 1601.99 -1.41986 2.11452 0
M  V30 16760 H 1602.77 -0.367744 3.41325 0
M  V30 16761 N 1605.22 -1.44709 -0.62426 0
M  V30 16762 C 1606.63 -1.42523 -1.20599 0
M  V30 16763 C 1606.98 -0.144129 -1.9567 0
M  V30 16764 O 1606.1 0.755175 -2.02796 0
M  V30 16765 C 1606.7 -2.58194 -2.19365 0
M  V30 16766 C 1605.26 -2.59181 -2.72951 0
M  V30 16767 C 1604.4 -2.34461 -1.48065 0
M  V30 16768 H 1607.36 -1.5319 -0.414532 0
M  V30 16769 H 1607.38 -2.3134 -3.02096 0
M  V30 16770 H 1606.89 -3.5142 -1.64699 0
M  V30 16771 H 1604.99 -1.69916 -3.31601 0
M  V30 16772 H 1605.1 -3.57884 -3.18521 0
M  V30 16773 H 1603.47 -1.83688 -1.76439 0
M  V30 16774 H 1604.25 -3.2981 -0.952918 0
M  V30 16775 N 1606.69 0.865285 -1.31722 0
M  V30 16776 C 1607.92 1.65661 -1.24785 0
M  V30 16777 C 1608.34 1.87208 0.182952 0
M  V30 16778 O 1607.7 1.41721 1.1307 0
M  V30 16779 C 1607.75 2.99921 -2.00199 0
M  V30 16780 O 1606.85 3.89936 -1.34253 0
M  V30 16781 H 1606.2 0.505459 -0.430589 0
M  V30 16782 H 1608.73 1.0785 -1.73867 0
M  V30 16783 H 1608.74 3.49823 -2.09971 0
M  V30 16784 H 1607.41 2.83559 -3.04249 0
M  V30 16785 H 1605.99 3.4839 -1.32961 0
M  V30 16786 N 1608.17 1.14759 1.0802 0
M  V30 16787 C 1609.14 0.840859 2.13219 0
M  V30 16788 C 1610.14 -0.156309 1.60038 0
M  V30 16789 O 1611.33 0.0725143 1.74049 0
M  V30 16790 C 1608.46 0.254208 3.39951 0
M  V30 16791 H 1609.65 1.77323 2.4186 0
M  V30 16792 H 1607.2 0.954146 1.23797 0
M  V30 16793 H 1607.94 -0.686692 3.16946 0
M  V30 16794 H 1607.72 0.972499 3.79848 0
M  V30 16795 H 1609.21 0.0569551 4.17561 0
M  V30 16796 N 1609.65 -1.26251 0.943322 0
M  V30 16797 C 1611.07 -1.45943 0.645966 0
M  V30 16798 C 1611.27 -1.84936 -0.800064 0
M  V30 16799 O 1610.32 -1.97238 -1.57649 0
M  V30 16800 C 1611.64 -2.54017 1.60922 0
M  V30 16801 C 1613.18 -2.67866 1.61916 0
M  V30 16802 C 1613.66 -3.79113 2.56977 0
M  V30 16803 N 1615.15 -3.86509 2.55275 0
M  V30 16804 C 1615.88 -4.72048 3.25513 0
M  V30 16805 N 1615.38 -5.61959 4.05184 0
M  V30 16806 N 1617.17 -4.65913 3.14454 0
M  V30 16807 H 1609.32 -0.992295 1.87796 0
M  V30 16808 H 1611.59 -0.497204 0.80715 0
M  V30 16809 H 1611.29 -2.32197 2.64155 0
M  V30 16810 H 1611.17 -3.51715 1.36294 0
M  V30 16811 H 1613.55 -2.89059 0.594067 0
M  V30 16812 H 1613.64 -1.70604 1.90598 0
M  V30 16813 H 1613.28 -3.58673 3.59605 0
M  V30 16814 H 1613.21 -4.75836 2.25583 0
M  V30 16815 H 1615.7 -3.22229 1.97425 0
M  V30 16816 H 1616.01 -6.24127 4.55725 0
M  V30 16817 H 1614.36 -5.61704 4.09285 0
M  V30 16818 H 1617.55 -3.94675 2.51693 0
M  V30 16819 H 1617.72 -5.32356 3.69461 0
M  V30 16820 N 1611.13 -0.710588 -1.40671 0
M  V30 16821 C 1612.35 -0.256007 -2.05814 0
M  V30 16822 C 1612.78 1.09178 -1.53173 0
M  V30 16823 O 1612.14 1.68665 -0.664977 0
M  V30 16824 C 1612.19 -0.240528 -3.59797 0
M  V30 16825 O 1611.29 0.779859 -4.04959 0
M  V30 16826 H 1610.63 -0.121326 -0.652822 0
M  V30 16827 H 1613.16 -0.969667 -1.80163 0
M  V30 16828 H 1613.17 -0.0765027 -4.07928 0
M  V30 16829 H 1611.85 -1.22411 -3.97478 0
M  V30 16830 H 1610.42 0.583965 -3.68299 0
M  V30 16831 N 1612.61 1.50847 -0.456408 0
M  V30 16832 C 1613.83 2.07139 0.104054 0
M  V30 16833 C 1614.26 1.31966 1.34039 0
M  V30 16834 O 1613.62 0.363038 1.77628 0
M  V30 16835 C 1613.66 3.5853 0.385794 0
M  V30 16836 O 1612.77 3.85351 1.46895 0
M  V30 16837 H 1612.11 0.663968 -0.00651246 0
M  V30 16838 H 1614.64 1.94226 -0.64323 0
M  V30 16839 H 1614.65 4.03097 0.630644 0
M  V30 16840 H 1613.32 4.12665 -0.51773 0
M  V30 16841 H 1611.9 3.52635 1.21256 0
M  V30 16842 N 1614.09 0.188454 1.56469 0
M  V30 16843 C 1615.5 -0.325309 1.83844 0
M  V30 16844 C 1615.85 -1.61858 1.1089 0
M  V30 16845 O 1614.97 -2.13256 0.36752 0
M  V30 16846 C 1615.57 -0.597002 3.33499 0
M  V30 16847 C 1614.13 -1.05515 3.61308 0
M  V30 16848 C 1613.27 -0.100182 2.77119 0
M  V30 16849 H 1616.22 0.412378 1.53249 0
M  V30 16850 H 1616.25 -1.44709 3.51908 0
M  V30 16851 H 1615.76 0.344429 3.86569 0
M  V30 16852 H 1613.86 -2.01109 3.13665 0
M  V30 16853 H 1613.97 -0.952461 4.69537 0
M  V30 16854 H 1612.34 -0.600815 2.47512 0
M  V30 16855 H 1613.12 0.835574 3.32976 0
M  V30 16856 N 1615.56 -1.5737 -0.0851874 0
M  V30 16857 C 1616.51 -1.99199 -1.10922 0
M  V30 16858 C 1617.5 -0.871945 -1.35225 0
M  V30 16859 O 1618.69 -1.13581 -1.35751 0
M  V30 16860 C 1615.82 -2.42827 -2.42672 0
M  V30 16861 C 1614.9 -3.61538 -2.217 0
M  V30 16862 N 1615.3 -4.76153 -1.70622 0
M  V30 16863 C 1613.59 -3.67828 -2.52228 0
M  V30 16864 C 1614.29 -5.58058 -1.64152 0
M  V30 16865 N 1613.27 -5.01515 -2.09723 0
M  V30 16866 H 1617.07 -2.8526 -0.707395 0
M  V30 16867 H 1614.59 -1.59745 -0.292468 0
M  V30 16868 H 1616.58 -2.71027 -3.16781 0
M  V30 16869 H 1615.24 -1.58147 -2.83583 0
M  V30 16870 H 1616.25 -4.98709 -1.39677 0
M  V30 16871 H 1612.93 -2.93832 -2.96596 0
M  V30 16872 H 1614.32 -6.60051 -1.25627 0
M  V30 16873 N 1617.04 0.356258 -1.53521 0
M  V30 16874 C 1618.27 1.12273 -1.74383 0
M  V30 16875 C 1618.69 1.81981 -0.475881 0
M  V30 16876 O 1618.05 1.72083 0.570699 0
M  V30 16877 C 1618.1 2.12161 -2.91582 0
M  V30 16878 O 1617.2 3.1943 -2.60842 0
M  V30 16879 H 1616.54 0.325321 -0.578845 0
M  V30 16880 H 1619.07 0.410533 -2.00439 0
M  V30 16881 H 1619.08 2.55602 -3.18012 0
M  V30 16882 H 1617.76 1.60818 -3.8355 0
M  V30 16883 H 1616.33 2.80895 -2.4526 0
M  V30 16884 N 1618.52 1.45038 0.616577 0
M  V30 16885 C 1619.93 1.4316 1.19842 0
M  V30 16886 C 1620.28 0.154504 1.95591 0
M  V30 16887 O 1619.41 -0.744409 2.03193 0
M  V30 16888 C 1620 2.59354 2.17993 0
M  V30 16889 C 1618.56 2.60625 2.71573 0
M  V30 16890 C 1617.71 2.35243 1.4682 0
M  V30 16891 H 1620.66 1.53408 0.406402 0
M  V30 16892 H 1620.68 2.32939 3.00865 0
M  V30 16893 H 1620.19 3.52288 1.62833 0
M  V30 16894 H 1618.29 1.71672 3.30695 0
M  V30 16895 H 1618.41 3.59568 3.16619 0
M  V30 16896 H 1616.77 1.84622 1.75462 0
M  V30 16897 H 1617.55 3.3031 0.935414 0
M  V30 16898 N 1620 -0.858287 1.32179 0
M  V30 16899 C 1621.24 -1.61444 1.23723 0
M  V30 16900 C 1621.6 -1.91358 -0.199954 0
M  V30 16901 O 1620.89 -1.54239 -1.1367 0
M  V30 16902 C 1621.09 -2.94391 2.02654 0
M  V30 16903 C 1620.91 -2.7746 3.53901 0
M  V30 16904 C 1619.68 -2.76033 4.23242 0
M  V30 16905 C 1621.88 -2.51478 4.48624 0
M  V30 16906 N 1619.86 -2.50274 5.60568 0
M  V30 16907 C 1621.24 -2.35092 5.737 0
M  V30 16908 C 1623.29 -2.36917 4.37921 0
M  V30 16909 C 1621.99 -2.05624 6.89283 0
M  V30 16910 C 1624.02 -2.08839 5.533 0
M  V30 16911 C 1623.38 -1.9325 6.77373 0
M  V30 16912 H 1619.48 -0.594623 0.507885 0
M  V30 16913 H 1622.06 -1.00921 1.66502 0
M  V30 16914 H 1620.24 -3.52899 1.62225 0
M  V30 16915 H 1621.97 -3.59361 1.86123 0
M  V30 16916 H 1618.72 -2.8884 3.75325 0
M  V30 16917 H 1619.15 -2.40333 6.32905 0
M  V30 16918 H 1623.79 -2.47691 3.4265 0
M  V30 16919 H 1621.51 -1.93587 7.8457 0
M  V30 16920 H 1625.09 -1.98355 5.46943 0
M  V30 16921 H 1623.97 -1.71832 7.65143 0
M  V30 16922 N 1621.48 -1.1533 -1.07409 0
M  V30 16923 C 1622.7 -0.952101 -1.84255 0
M  V30 16924 C 1623.13 0.494571 -1.81482 0
M  V30 16925 O 1622.48 1.35253 -1.20733 0
M  V30 16926 C 1622.53 -1.47019 -3.29268 0
M  V30 16927 O 1621.64 -0.669005 -4.06937 0
M  V30 16928 H 1620.98 -0.339643 -0.57056 0
M  V30 16929 H 1623.51 -1.53298 -1.35502 0
M  V30 16930 H 1623.52 -1.48278 -3.80102 0
M  V30 16931 H 1622.19 -2.5234 -3.30602 0
M  V30 16932 H 1620.77 -0.726003 -3.65764 0
M  V30 16933 N 1622.95 1.25748 -0.950004 0
M  V30 16934 C 1623.92 2.24307 -0.47106 0
M  V30 16935 C 1624.92 1.55145 0.422704 0
M  V30 16936 O 1626.11 1.72797 0.220642 0
M  V30 16937 C 1623.24 3.39395 0.319979 0
M  V30 16938 H 1624.43 2.68192 -1.34214 0
M  V30 16939 H 1621.98 1.38056 -0.732827 0
M  V30 16940 H 1622.72 3.00925 1.20892 0
M  V30 16941 H 1622.5 3.90783 -0.321157 0
M  V30 16942 H 1623.99 4.12594 0.644697 0
M  V30 16943 N 1624.43 0.718038 1.40292 0
M  V30 16944 C 1625.39 0.0757483 2.29075 0
M  V30 16945 C 1626.39 -0.684831 1.45488 0
M  V30 16946 O 1627.58 -0.516369 1.66371 0
M  V30 16947 C 1624.72 -0.902534 3.28736 0
M  V30 16948 H 1625.91 0.857729 2.87373 0
M  V30 16949 H 1623.46 0.482839 1.48655 0
M  V30 16950 H 1624.2 -1.71148 2.75461 0
M  V30 16951 H 1623.98 -0.360009 3.90444 0
M  V30 16952 H 1625.47 -1.34903 3.9521 0
M  V30 16953 N 1625.91 -1.50602 0.464402 0
M  V30 16954 C 1627.14 -2.07191 -0.0930678 0
M  V30 16955 C 1627.56 -1.32675 -1.33338 0
M  V30 16956 O 1626.92 -0.372453 -1.77433 0
M  V30 16957 C 1626.97 -3.5873 -0.366775 0
M  V30 16958 O 1626.07 -3.86125 -1.44849 0
M  V30 16959 H 1625.41 -0.663924 0.0100336 0
M  V30 16960 H 1627.94 -1.93882 0.653522 0
M  V30 16961 H 1627.95 -4.03425 -0.609258 0
M  V30 16962 H 1626.63 -4.12385 0.539608 0
M  V30 16963 H 1625.2 -3.53273 -1.19384 0
M  V30 16964 N 1627.39 -0.19675 -1.56367 0
M  V30 16965 C 1628.61 0.450245 -2.02454 0
M  V30 16966 C 1629.04 1.54287 -1.07597 0
M  V30 16967 O 1628.4 1.81202 -0.0597529 0
M  V30 16968 C 1628.44 0.982087 -3.46969 0
M  V30 16969 O 1627.55 2.09489 -3.5523 0
M  V30 16970 H 1626.89 0.105022 -0.655642 0
M  V30 16971 H 1629.42 -0.308112 -2.02267 0
M  V30 16972 H 1629.43 1.29826 -3.86793 0
M  V30 16973 H 1628.1 0.18224 -4.15501 0
M  V30 16974 H 1626.68 1.78723 -3.27281 0
M  V30 16975 N 1628.87 1.57413 0.0768405 0
M  V30 16976 C 1630.11 1.88144 0.772882 0
M  V30 16977 C 1630.47 0.789834 1.75441 0
M  V30 16978 O 1629.76 -0.206487 1.90484 0
M  V30 16979 C 1629.95 3.2324 1.52482 0
M  V30 16980 C 1629.78 4.45439 0.61762 0
M  V30 16981 C 1628.55 5.04649 0.256461 0
M  V30 16982 C 1630.75 5.14232 -0.0834364 0
M  V30 16983 N 1628.73 6.10374 -0.656988 0
M  V30 16984 C 1630.1 6.14087 -0.854262 0
M  V30 16985 C 1632.16 4.97657 -0.155439 0
M  V30 16986 C 1630.86 6.99155 -1.69039 0
M  V30 16987 C 1632.89 5.83248 -0.978528 0
M  V30 16988 C 1632.25 6.82637 -1.73742 0
M  V30 16989 H 1628.35 0.738071 0.258409 0
M  V30 16990 H 1630.93 1.94669 0.0346081 0
M  V30 16991 H 1629.1 3.17732 2.23385 0
M  V30 16992 H 1630.84 3.41637 2.16948 0
M  V30 16993 H 1627.59 4.69679 0.608199 0
M  V30 16994 H 1628.02 6.67891 -1.10681 0
M  V30 16995 H 1632.66 4.20739 0.416946 0
M  V30 16996 H 1630.38 7.75452 -2.27377 0
M  V30 16997 H 1633.96 5.72481 -1.03715 0
M  V30 16998 H 1632.84 7.47718 -2.36405 0
M  V30 16999 N 1630.34 -0.348112 1.53707 0
M  V30 17000 C 1631.57 -1.10903 1.74666 0
M  V30 17001 C 1631.99 -1.82499 0.483683 0
M  V30 17002 O 1631.34 -1.74191 -0.544419 0
M  V30 17003 C 1631.4 -2.12602 2.92374 0
M  V30 17004 O 1631.12 -1.43918 4.13787 0
M  V30 17005 C 1632.62 -3.01105 3.25347 0
M  V30 17006 H 1629.84 -0.330911 0.583728 0
M  V30 17007 H 1632.38 -0.401707 2.00516 0
M  V30 17008 H 1630.54 -2.78906 2.68869 0
M  V30 17009 H 1630.95 -2.11818 4.79826 0
M  V30 17010 H 1632.42 -3.68408 4.11071 0
M  V30 17011 H 1632.9 -3.66874 2.41455 0
M  V30 17012 H 1633.51 -2.40395 3.50842 0
M  V30 17013 N 1631.82 -1.45363 -0.608876 0
M  V30 17014 C 1633.05 -1.53066 -1.39949 0
M  V30 17015 C 1633.47 -0.16369 -1.87386 0
M  V30 17016 O 1632.83 0.851432 -1.60064 0
M  V30 17017 C 1632.88 -2.51836 -2.58091 0
M  V30 17018 O 1631.98 -2.03528 -3.58678 0
M  V30 17019 H 1631.32 -0.516031 -0.417861 0
M  V30 17020 H 1633.85 -1.90705 -0.74113 0
M  V30 17021 H 1633.86 -2.706 -3.05352 0
M  V30 17022 H 1632.54 -3.51117 -2.22912 0
M  V30 17023 H 1631.12 -1.94634 -3.18075 0
M  V30 17024 N 1633.3 0.851265 -1.32632 0
M  V30 17025 C 1634.72 1.14 -1.11696 0
M  V30 17026 C 1634.92 2.0125 0.100327 0
M  V30 17027 O 1633.97 2.40013 0.784233 0
M  V30 17028 C 1635.29 1.81406 -2.39817 0
M  V30 17029 C 1636.83 1.94027 -2.45607 0
M  V30 17030 C 1637.31 2.64848 -3.73657 0
M  V30 17031 N 1638.8 2.7237 -3.74658 0
M  V30 17032 C 1639.53 3.27827 -4.70443 0
M  V30 17033 N 1639.03 3.84068 -5.76596 0
M  V30 17034 N 1640.82 3.25962 -4.57936 0
M  V30 17035 H 1632.97 0.270302 -2.10673 0
M  V30 17036 H 1635.24 0.182395 -0.930288 0
M  V30 17037 H 1634.94 1.24753 -3.28831 0
M  V30 17038 H 1634.82 2.81535 -2.51034 0
M  V30 17039 H 1637.2 2.49838 -1.5705 0
M  V30 17040 H 1637.29 0.928844 -2.3834 0
M  V30 17041 H 1636.93 2.09699 -4.62589 0
M  V30 17042 H 1636.86 3.66436 -3.78196 0
M  V30 17043 H 1639.35 2.32474 -2.97933 0
M  V30 17044 H 1639.66 4.24551 -6.45737 0
M  V30 17045 H 1638.01 3.82391 -5.80347 0
M  V30 17046 H 1641.2 2.81274 -3.74169 0
M  V30 17047 H 1641.37 3.68881 -5.32758 0
M  V30 17048 N 1634.78 1.15898 1.06796 0
M  V30 17049 C 1636.19 0.902809 1.31611 0
M  V30 17050 C 1636.39 -0.447112 1.96477 0
M  V30 17051 O 1635.45 -1.18778 2.22818 0
M  V30 17052 C 1636.76 2.04803 2.20173 0
M  V30 17053 C 1638.31 2.08321 2.33605 0
M  V30 17054 C 1638.79 3.22182 3.25519 0
M  V30 17055 N 1640.28 3.21866 3.33101 0
M  V30 17056 C 1641.01 4.06608 4.04299 0
M  V30 17057 N 1640.51 5.01426 4.78063 0
M  V30 17058 N 1642.3 3.94612 4.00297 0
M  V30 17059 H 1634.45 2.02816 0.630831 0
M  V30 17060 H 1636.72 0.884683 0.340646 0
M  V30 17061 H 1636.42 3.02278 1.7978 0
M  V30 17062 H 1636.3 1.98521 3.20732 0
M  V30 17063 H 1638.68 1.11441 2.73249 0
M  V30 17064 H 1638.76 2.18668 1.32732 0
M  V30 17065 H 1638.41 4.19317 2.86594 0
M  V30 17066 H 1638.34 3.0907 4.2636 0
M  V30 17067 H 1640.83 2.53203 2.80529 0
M  V30 17068 H 1641.14 5.62517 5.29901 0
M  V30 17069 H 1639.49 5.0541 4.7706 0
M  V30 17070 H 1642.68 3.19843 3.41786 0
M  V30 17071 H 1642.85 4.60877 4.55518 0
M  V30 17072 N 1636.26 -1.25243 0.956659 0
M  V30 17073 C 1637.48 -1.97621 0.629337 0
M  V30 17074 C 1637.91 -1.70606 -0.792158 0
M  V30 17075 O 1637.26 -0.963192 -1.53598 0
M  V30 17076 C 1637.31 -3.49273 0.896687 0
M  V30 17077 O 1636.42 -4.12393 -0.0234986 0
M  V30 17078 H 1635.76 -0.619472 0.239061 0
M  V30 17079 H 1638.29 -1.5931 1.28381 0
M  V30 17080 H 1638.3 -3.99597 0.82377 0
M  V30 17081 H 1636.97 -3.68265 1.93271 0
M  V30 17082 H 1635.55 -3.72761 0.101796 0
M  V30 17083 N 1637.73 -0.725468 -1.3991 0
M  V30 17084 C 1638.96 -0.277821 -2.05531 0
M  V30 17085 C 1639.38 1.07547 -1.54322 0
M  V30 17086 O 1638.74 1.6795 -0.682828 0
M  V30 17087 C 1638.79 -0.278676 -3.59522 0
M  V30 17088 O 1637.89 0.736864 -4.05764 0
M  V30 17089 H 1637.24 -0.128243 -0.651498 0
M  V30 17090 H 1639.77 -0.988721 -1.79124 0
M  V30 17091 H 1639.78 -0.119765 -4.07824 0
M  V30 17092 H 1638.45 -1.2662 -3.96157 0
M  V30 17093 H 1637.03 0.544869 -3.68898 0
M  V30 17094 N 1639.21 1.50354 -0.472382 0
M  V30 17095 C 1640.63 1.59097 -0.126613 0
M  V30 17096 C 1640.83 1.4804 1.36698 0
M  V30 17097 O 1639.88 1.33956 2.14038 0
M  V30 17098 C 1641.2 2.92958 -0.677957 0
M  V30 17099 C 1642.75 3.06356 -0.6415 0
M  V30 17100 C 1643.22 4.42793 -1.17041 0
M  V30 17101 N 1644.71 4.49208 -1.12988 0
M  V30 17102 C 1645.45 5.53171 -1.50961 0
M  V30 17103 N 1644.94 6.64381 -1.96391 0
M  V30 17104 N 1646.74 5.43722 -1.42556 0
M  V30 17105 H 1638.89 1.55785 -1.44378 0
M  V30 17106 H 1641.15 0.736295 -0.597138 0
M  V30 17107 H 1640.86 3.06529 -1.72433 0
M  V30 17108 H 1640.73 3.77002 -0.122247 0
M  V30 17109 H 1643.12 2.92431 0.395964 0
M  V30 17110 H 1643.2 2.24066 -1.23403 0
M  V30 17111 H 1642.84 4.57466 -2.20651 0
M  V30 17112 H 1642.77 5.23677 -0.554086 0
M  V30 17113 H 1645.26 3.69407 -0.796692 0
M  V30 17114 H 1645.58 7.39772 -2.23511 0
M  V30 17115 H 1643.92 6.65498 -2.00344 0
M  V30 17116 H 1647.11 4.55729 -1.06905 0
M  V30 17117 H 1647.28 6.24625 -1.72476 0
M  V30 17118 N 1640.69 0.205039 1.56261 0
M  V30 17119 C 1641.64 -0.728433 2.209 0
M  V30 17120 C 1642.63 -1.21228 1.18322 0
M  V30 17121 O 1643.84 -1.17402 1.36443 0
M  V30 17122 H 1640.21 -0.253283 0.708062 0
M  V30 17123 H 1642.19 -0.159654 2.97973 0
M  V30 17124 C 1640.93 -1.93311 2.89009 0
M  V30 17125 H 1640.26 -1.56988 3.67688 0
M  V30 17126 H 1641.7 -2.5644 3.3766 0
M  V30 17127 C 1640.16 -2.77814 1.9058 0
M  V30 17128 O 1640.69 -3.76053 1.41233 0
M  V30 17129 N 1638.89 -2.4351 1.58591 0
M  V30 17130 H 1638.44 -1.6368 1.98914 0
M  V30 17131 H 1638.4 -3.00333 0.929918 0
M  V30 17132 N 1642.17 -1.57451 -0.0684915 0
M  V30 17133 C 1643.39 -1.92025 -0.78366 0
M  V30 17134 C 1643.82 -0.801743 -1.70158 0
M  V30 17135 O 1643.18 0.245227 -1.79634 0
M  V30 17136 C 1643.23 -3.25563 -1.55051 0
M  V30 17137 O 1642.33 -3.15029 -2.6614 0
M  V30 17138 H 1641.67 -0.628714 -0.213576 0
M  V30 17139 H 1644.2 -2.04569 -0.0357474 0
M  V30 17140 H 1644.21 -3.59516 -1.92905 0
M  V30 17141 H 1642.89 -4.06547 -0.87704 0
M  V30 17142 H 1641.46 -2.9264 -2.31119 0
M  V30 17143 N 1643.65 0.339955 -1.5389 0
M  V30 17144 C 1644.58 1.42316 -1.85117 0
M  V30 17145 C 1645.56 1.5473 -0.706591 0
M  V30 17146 O 1646.74 1.68879 -0.958834 0
M  V30 17147 C 1643.87 2.79317 -2.06396 0
M  V30 17148 C 1642.83 2.81707 -3.22219 0
M  V30 17149 C 1642.15 4.21627 -3.28838 0
M  V30 17150 C 1643.45 2.46921 -4.60247 0
M  V30 17151 H 1645.15 1.16431 -2.75834 0
M  V30 17152 H 1642.69 0.558661 -1.32721 0
M  V30 17153 H 1644.65 3.55145 -2.26826 0
M  V30 17154 H 1643.37 3.06644 -1.12414 0
M  V30 17155 H 1642.03 2.08332 -3.01651 0
M  V30 17156 H 1641.68 4.4607 -2.32444 0
M  V30 17157 H 1641.38 4.24137 -4.06672 0
M  V30 17158 H 1642.9 4.99292 -3.51482 0
M  V30 17159 H 1644.32 3.12462 -4.80667 0
M  V30 17160 H 1642.71 2.60707 -5.40511 0
M  V30 17161 H 1643.78 1.421 -4.63611 0
M  V30 17162 N 1645.13 1.45684 0.601159 0
M  V30 17163 C 1646.37 1.4974 1.35729 0
M  V30 17164 C 1646.69 0.143072 1.94474 0
M  V30 17165 O 1645.96 -0.82832 1.77527 0
M  V30 17166 H 1644.54 0.551455 0.503892 0
M  V30 17167 H 1647.21 1.81685 0.705443 0
M  V30 17168 H 1646.3 2.23982 2.17344 0
M  V30 17169 N 1646.6 -0.84422 1.33082 0
M  V30 17170 C 1648.02 -1.13406 1.12299 0
M  V30 17171 C 1648.22 -2.013 -0.0896529 0
M  V30 17172 O 1647.28 -2.40425 -0.771493 0
M  V30 17173 C 1648.59 -1.80132 2.40776 0
M  V30 17174 C 1650.14 -1.92721 2.46632 0
M  V30 17175 C 1650.61 -2.62863 3.75056 0
M  V30 17176 N 1652.1 -2.70379 3.76097 0
M  V30 17177 C 1652.84 -3.25328 4.72175 0
M  V30 17178 N 1652.33 -3.81005 5.78625 0
M  V30 17179 N 1654.13 -3.23529 4.59658 0
M  V30 17180 H 1646.28 -0.259126 2.10813 0
M  V30 17181 H 1648.54 -0.177459 0.931242 0
M  V30 17182 H 1648.25 -1.23007 3.29488 0
M  V30 17183 H 1648.12 -2.802 2.52523 0
M  V30 17184 H 1650.51 -2.49002 1.58373 0
M  V30 17185 H 1650.59 -0.916191 2.3883 0
M  V30 17186 H 1650.23 -2.07242 4.63695 0
M  V30 17187 H 1650.16 -3.64425 3.80134 0
M  V30 17188 H 1652.65 -2.30891 2.99162 0
M  V30 17189 H 1652.97 -4.21121 6.47979 0
M  V30 17190 H 1651.31 -3.79308 5.82366 0
M  V30 17191 H 1654.5 -2.79286 3.75656 0
M  V30 17192 H 1654.68 -3.66051 5.34706 0
M  V30 17193 N 1648.08 -1.16463 -1.0618 0
M  V30 17194 C 1649.04 -0.874674 -2.11854 0
M  V30 17195 C 1650.04 0.130829 -1.60267 0
M  V30 17196 O 1651.23 -0.100195 -1.73912 0
M  V30 17197 C 1648.37 -0.30826 -3.39503 0
M  V30 17198 H 1649.56 -1.81149 -2.39009 0
M  V30 17199 H 1647.11 -0.973721 -1.22264 0
M  V30 17200 H 1647.85 0.636181 -3.17999 0
M  V30 17201 H 1647.63 -1.03281 -3.78253 0
M  V30 17202 H 1649.12 -0.123378 -4.17418 0
M  V30 17203 N 1649.56 1.24734 -0.963288 0
M  V30 17204 C 1650.97 1.7456 -0.662246 0
M  V30 17205 C 1651.32 1.78143 0.822169 0
M  V30 17206 O 1650.45 1.40794 1.64335 0
M  V30 17207 C 1651.04 3.1701 -1.19542 0
M  V30 17208 C 1649.6 3.64361 -0.944371 0
M  V30 17209 C 1648.75 2.4314 -1.33335 0
M  V30 17210 H 1651.7 1.10498 -1.13911 0
M  V30 17211 H 1651.72 3.76362 -0.559601 0
M  V30 17212 H 1651.23 3.1437 -2.27581 0
M  V30 17213 H 1649.33 3.72405 0.120682 0
M  V30 17214 H 1649.45 4.52055 -1.58692 0
M  V30 17215 H 1647.81 2.43354 -0.751729 0
M  V30 17216 H 1648.59 2.43185 -2.42314 0
M  V30 17217 N 1651.04 0.732878 1.39523 0
M  V30 17218 C 1652.26 0.288717 2.05381 0
M  V30 17219 C 1652.69 -1.06727 1.5489 0
M  V30 17220 O 1652.05 -1.67585 0.691726 0
M  V30 17221 C 1652.09 0.297738 3.59369 0
M  V30 17222 O 1651.2 -0.715335 4.06149 0
M  V30 17223 H 1650.54 0.131696 0.650809 0
M  V30 17224 H 1653.07 0.998206 1.78597 0
M  V30 17225 H 1653.08 0.141391 4.07755 0
M  V30 17226 H 1651.75 1.28719 3.9548 0
M  V30 17227 H 1650.33 -0.525298 3.69182 0
M  V30 17228 N 1652.52 -1.50101 0.480349 0
M  V30 17229 C 1653.45 -2.31581 -0.298718 0
M  V30 17230 C 1654.43 -1.38905 -0.981798 0
M  V30 17231 O 1655.61 -1.67823 -0.977188 0
M  V30 17232 C 1652.74 -3.18891 -1.37571 0
M  V30 17233 C 1651.7 -4.20194 -0.813704 0
M  V30 17234 C 1651.02 -4.96302 -1.98968 0
M  V30 17235 C 1652.32 -5.21985 0.181295 0
M  V30 17236 H 1654.02 -2.96961 0.381349 0
M  V30 17237 H 1651.56 -1.42809 0.184842 0
M  V30 17238 H 1653.51 -3.74694 -1.92828 0
M  V30 17239 H 1652.24 -2.51414 -2.08467 0
M  V30 17240 H 1650.9 -3.65506 -0.283034 0
M  V30 17241 H 1650.55 -4.2529 -2.68584 0
M  V30 17242 H 1650.25 -5.64833 -1.61981 0
M  V30 17243 H 1651.77 -5.54943 -2.54698 0
M  V30 17244 H 1653.18 -5.72604 -0.28242 0
M  V30 17245 H 1651.58 -5.98289 0.465916 0
M  V30 17246 H 1652.65 -4.72162 1.10413 0
M  V30 17247 N 1653.99 -0.213323 -1.5615 0
M  V30 17248 C 1654.94 0.700175 -2.19923 0
M  V30 17249 C 1655.91 1.19641 -1.15218 0
M  V30 17250 O 1657.1 1.257 -1.43542 0
M  V30 17251 C 1654.24 1.90629 -2.87671 0
M  V30 17252 C 1653.35 1.44973 -4.06948 0
M  V30 17253 C 1652.48 2.61277 -4.62502 0
M  V30 17254 C 1651.52 2.12316 -5.74098 0
M  V30 17255 N 1650.66 3.21862 -6.23978 0
M  V30 17256 H 1655.5 0.14961 -2.97624 0
M  V30 17257 H 1653.04 0.0620957 -1.46969 0
M  V30 17258 H 1654.99 2.61431 -3.2513 0
M  V30 17259 H 1653.62 2.42987 -2.12502 0
M  V30 17260 H 1652.68 0.636917 -3.7503 0
M  V30 17261 H 1653.99 1.05065 -4.87609 0
M  V30 17262 H 1653.14 3.40174 -5.02361 0
M  V30 17263 H 1651.88 3.04468 -3.80987 0
M  V30 17264 H 1650.89 1.31877 -5.33749 0
M  V30 17265 H 1652.11 1.70134 -6.57443 0
M  V30 17266 H 1650.06 3.64551 -5.45379 0
M  V30 17267 H 1649.97 2.86181 -6.9974 0
M  V30 17268 H 1651.24 4.0092 -6.68493 0
M  V30 17269 N 1655.47 1.57485 0.0601405 0
M  V30 17270 C 1656.89 1.54105 0.415187 0
M  V30 17271 C 1657.09 0.935177 1.78484 0
M  V30 17272 O 1656.14 0.542715 2.46599 0
M  V30 17273 C 1657.46 2.98708 0.34555 0
M  V30 17274 C 1659.01 3.10103 0.424895 0
M  V30 17275 C 1659.48 4.56379 0.385041 0
M  V30 17276 N 1660.97 4.6106 0.444771 0
M  V30 17277 C 1661.71 5.71737 0.436334 0
M  V30 17278 N 1661.2 6.91746 0.38202 0
M  V30 17279 N 1663 5.60014 0.483759 0
M  V30 17280 H 1655.15 1.95232 -0.836565 0
M  V30 17281 H 1657.41 0.894101 -0.3151 0
M  V30 17282 H 1657.12 3.4664 -0.594427 0
M  V30 17283 H 1656.99 3.59201 1.15129 0
M  V30 17284 H 1659.38 2.62137 1.3553 0
M  V30 17285 H 1659.46 2.52499 -0.409633 0
M  V30 17286 H 1659.1 5.05004 -0.541561 0
M  V30 17287 H 1659.03 5.11859 1.23726 0
M  V30 17288 H 1661.52 3.74703 0.490522 0
M  V30 17289 H 1661.84 7.71866 0.379829 0
M  V30 17290 H 1660.18 6.94126 0.348532 0
M  V30 17291 H 1663.37 4.65158 0.523965 0
M  V30 17292 H 1663.54 6.46266 0.473715 0
M  V30 17293 N 1656.95 -0.331789 1.54068 0
M  V30 17294 C 1658.37 -0.675628 1.44594 0
M  V30 17295 C 1658.57 -1.91976 0.612166 0
M  V30 17296 O 1657.62 -2.5227 0.107742 0
M  V30 17297 C 1658.94 -0.857303 2.8822 0
M  V30 17298 C 1660.48 -0.955171 2.9807 0
M  V30 17299 C 1660.96 -1.16908 4.42828 0
M  V30 17300 N 1662.45 -1.23601 4.46405 0
M  V30 17301 C 1663.18 -1.41924 5.55558 0
M  V30 17302 N 1662.68 -1.57345 6.74696 0
M  V30 17303 N 1664.47 -1.44566 5.43191 0
M  V30 17304 H 1656.62 0.486058 2.06764 0
M  V30 17305 H 1658.89 0.155605 0.935142 0
M  V30 17306 H 1658.59 -0.0144659 3.51697 0
M  V30 17307 H 1658.47 -1.75558 3.33855 0
M  V30 17308 H 1660.85 -1.78852 2.34725 0
M  V30 17309 H 1660.94 -0.0335425 2.55778 0
M  V30 17310 H 1660.58 -0.340612 5.06757 0
M  V30 17311 H 1660.51 -2.10445 4.82722 0
M  V30 17312 H 1663 -1.13161 3.60559 0
M  V30 17313 H 1663.31 -1.70995 7.53645 0
M  V30 17314 H 1661.66 -1.54458 6.77619 0
M  V30 17315 H 1664.85 -1.3211 4.49071 0
M  V30 17316 H 1665.02 -1.58505 6.28315 0
M  V30 17317 N 1658.43 -1.46001 -0.593424 0
M  V30 17318 C 1659.65 -1.54541 -1.38318 0
M  V30 17319 C 1660.08 -0.183555 -1.87202 0
M  V30 17320 O 1659.44 0.834407 -1.60958 0
M  V30 17321 C 1659.48 -2.54559 -2.55405 0
M  V30 17322 O 1658.59 -2.07321 -3.56499 0
M  V30 17323 H 1657.93 -0.520434 -0.412364 0
M  V30 17324 H 1660.46 -1.9148 -0.720862 0
M  V30 17325 H 1660.47 -2.73823 -3.02465 0
M  V30 17326 H 1659.14 -3.53461 -2.19176 0
M  V30 17327 H 1657.72 -1.97997 -3.15993 0
M  V30 17328 N 1659.91 0.83715 -1.33527 0
M  V30 17329 C 1661.32 1.40878 -1.22516 0
M  V30 17330 C 1661.67 1.95585 0.155236 0
M  V30 17331 O 1660.79 1.88946 1.05491 0
M  V30 17332 C 1661.39 2.56093 -2.21815 0
M  V30 17333 C 1659.95 3.09205 -2.14638 0
M  V30 17334 C 1659.09 1.82012 -2.09205 0
M  V30 17335 H 1662.05 0.642766 -1.45101 0
M  V30 17336 H 1662.07 3.33775 -1.82687 0
M  V30 17337 H 1661.58 2.16246 -3.22272 0
M  V30 17338 H 1659.68 3.53592 -1.17489 0
M  V30 17339 H 1659.79 3.69261 -3.05259 0
M  V30 17340 H 1658.16 2.02331 -1.54707 0
M  V30 17341 H 1658.94 1.44359 -3.11473 0
M  V30 17342 N 1661.38 1.17024 1.05561 0
M  V30 17343 C 1662.61 0.981293 1.82717 0
M  V30 17344 C 1663.03 -0.465636 1.82246 0
M  V30 17345 O 1662.39 -1.33315 1.22869 0
M  V30 17346 C 1662.44 1.52239 3.26888 0
M  V30 17347 O 1661.54 0.73366 4.05822 0
M  V30 17348 H 1660.89 0.348677 0.565084 0
M  V30 17349 H 1663.42 1.55435 1.33046 0
M  V30 17350 H 1663.43 1.54306 3.77695 0
M  V30 17351 H 1662.1 2.57567 3.26545 0
M  V30 17352 H 1660.68 0.784101 3.64563 0
M  V30 17353 N 1662.86 -1.24221 0.969889 0
M  V30 17354 C 1664.11 -1.91973 0.631725 0
M  V30 17355 C 1664.43 -1.76169 -0.836032 0
M  V30 17356 O 1663.7 -1.13459 -1.597 0
M  V30 17357 H 1662.28 -0.710497 0.230658 0
M  V30 17358 H 1664.94 -1.51069 1.23143 0
M  V30 17359 H 1664.04 -2.99606 0.874223 0
M  V30 17360 N 1664.34 -0.740267 -1.39132 0
M  V30 17361 C 1665.25 -0.105452 -2.34363 0
M  V30 17362 C 1666.27 0.715908 -1.5859 0
M  V30 17363 O 1667.44 0.643155 -1.90855 0
M  V30 17364 C 1664.51 0.787141 -3.37646 0
M  V30 17365 C 1663.57 -0.047071 -4.29274 0
M  V30 17366 C 1662.8 0.803014 -5.27624 0
M  V30 17367 O 1663.02 2.04155 -5.32613 0
M  V30 17368 O 1661.96 0.228879 -6.01465 0
M  V30 17369 H 1665.78 -0.891588 -2.90318 0
M  V30 17370 H 1663.37 -0.500996 -1.40749 0
M  V30 17371 H 1665.25 1.29769 -4.00921 0
M  V30 17372 H 1663.93 1.552 -2.84068 0
M  V30 17373 H 1662.83 -0.603265 -3.69204 0
M  V30 17374 H 1664.17 -0.774273 -4.86072 0
M  V30 17375 N 1665.82 1.49844 -0.488302 0
M  V30 17376 C 1667.23 1.58954 -0.14348 0
M  V30 17377 C 1667.43 1.49482 1.3512 0
M  V30 17378 O 1666.49 1.36218 2.12605 0
M  V30 17379 C 1667.8 2.92222 -0.708991 0
M  V30 17380 C 1669.35 3.05658 -0.673957 0
M  V30 17381 C 1669.83 4.41526 -1.21731 0
M  V30 17382 N 1671.32 4.47985 -1.17746 0
M  V30 17383 C 1672.05 5.51539 -1.5682 0
M  V30 17384 N 1671.55 6.62261 -2.03426 0
M  V30 17385 N 1673.34 5.4218 -1.48315 0
M  V30 17386 H 1665.49 1.54244 -1.46022 0
M  V30 17387 H 1667.76 0.72992 -0.604914 0
M  V30 17388 H 1667.46 3.04683 -1.75674 0
M  V30 17389 H 1667.34 3.76851 -0.162226 0
M  V30 17390 H 1669.72 2.92835 0.364925 0
M  V30 17391 H 1669.8 2.22744 -1.25772 0
M  V30 17392 H 1669.45 4.551 -2.25491 0
M  V30 17393 H 1669.38 5.2306 -0.609598 0
M  V30 17394 H 1671.87 3.68541 -0.835828 0
M  V30 17395 H 1672.18 7.3736 -2.31345 0
M  V30 17396 H 1670.53 6.63335 -2.07392 0
M  V30 17397 H 1673.72 4.54569 -1.11733 0
M  V30 17398 H 1673.89 6.2276 -1.79092 0
M  V30 17399 N 1667.3 0.221601 1.56034 0
M  V30 17400 C 1668.71 -0.133783 1.59038 0
M  V30 17401 C 1668.91 -1.58952 1.23841 0
M  V30 17402 O 1667.97 -2.32972 0.973677 0
M  V30 17403 C 1669.28 0.192549 3.00083 0
M  V30 17404 C 1670.83 0.134791 3.1271 0
M  V30 17405 C 1671.3 0.434799 4.55931 0
M  V30 17406 N 1672.8 0.384372 4.61602 0
M  V30 17407 C 1673.53 0.59 5.70357 0
M  V30 17408 N 1673.03 0.857405 6.87474 0
M  V30 17409 N 1674.82 0.522433 5.59667 0
M  V30 17410 H 1666.97 1.17124 1.77189 0
M  V30 17411 H 1669.23 0.46946 0.823597 0
M  V30 17412 H 1668.94 1.20292 3.30488 0
M  V30 17413 H 1668.81 -0.49243 3.73972 0
M  V30 17414 H 1671.2 -0.866221 2.821 0
M  V30 17415 H 1671.28 0.853247 2.4115 0
M  V30 17416 H 1670.93 1.43325 4.87258 0
M  V30 17417 H 1670.86 -0.304849 5.25717 0
M  V30 17418 H 1673.35 0.185389 3.77445 0
M  V30 17419 H 1673.66 1.00241 7.66271 0
M  V30 17420 H 1672 0.894599 6.89218 0
M  V30 17421 H 1675.2 0.313754 4.67047 0
M  V30 17422 H 1675.37 0.686094 6.44358 0
M  V30 17423 N 1668.77 -1.57515 -0.0517878 0
M  V30 17424 C 1670 -1.92845 -0.763249 0
M  V30 17425 C 1670.42 -0.819745 -1.69298 0
M  V30 17426 O 1669.78 0.226161 -1.79884 0
M  V30 17427 C 1669.83 -3.27189 -1.5159 0
M  V30 17428 O 1668.93 -3.17834 -2.62783 0
M  V30 17429 H 1668.28 -0.630944 -0.206896 0
M  V30 17430 H 1670.81 -2.04595 -0.0140481 0
M  V30 17431 H 1670.82 -3.61542 -1.89081 0
M  V30 17432 H 1669.49 -4.07455 -0.833871 0
M  V30 17433 H 1668.07 -2.95075 -2.28002 0
M  V30 17434 N 1670.25 0.323614 -1.54242 0
M  V30 17435 C 1671.18 1.40344 -1.86616 0
M  V30 17436 C 1672.16 1.53972 -0.722963 0
M  V30 17437 O 1673.35 1.67852 -0.976692 0
M  V30 17438 C 1670.48 2.77112 -2.09347 0
M  V30 17439 C 1669.43 2.78273 -3.25189 0
M  V30 17440 C 1668.76 4.18116 -3.33291 0
M  V30 17441 C 1670.06 2.42025 -4.6284 0
M  V30 17442 H 1671.75 1.13499 -2.77053 0
M  V30 17443 H 1669.3 0.544553 -1.33306 0
M  V30 17444 H 1671.25 3.52719 -2.3058 0
M  V30 17445 H 1669.98 3.05435 -1.1566 0
M  V30 17446 H 1668.64 2.05121 -3.03844 0
M  V30 17447 H 1668.28 4.4358 -2.37163 0
M  V30 17448 H 1667.98 4.19799 -4.11147 0
M  V30 17449 H 1669.51 4.95536 -3.56758 0
M  V30 17450 H 1670.92 3.07346 -4.83954 0
M  V30 17451 H 1669.32 2.5496 -5.43245 0
M  V30 17452 H 1670.39 1.37175 -4.65092 0
M  V30 17453 N 1671.73 1.46313 0.585673 0
M  V30 17454 C 1672.66 1.59511 1.70524 0
M  V30 17455 C 1673.64 0.445578 1.6416 0
M  V30 17456 O 1674.83 0.671455 1.82223 0
M  V30 17457 C 1671.96 1.58229 3.09162 0
M  V30 17458 C 1670.91 2.72122 3.30354 0
M  V30 17459 C 1670.24 2.559 4.69489 0
M  V30 17460 C 1671.54 4.13969 3.18476 0
M  V30 17461 H 1673.23 2.53229 1.59735 0
M  V30 17462 H 1670.78 1.2187 0.767046 0
M  V30 17463 H 1672.73 1.66056 3.87303 0
M  V30 17464 H 1671.45 0.610535 3.20843 0
M  V30 17465 H 1670.11 2.63759 2.54611 0
M  V30 17466 H 1669.76 1.56814 4.77931 0
M  V30 17467 H 1669.46 3.32289 4.84621 0
M  V30 17468 H 1670.99 2.65613 5.49802 0
M  V30 17469 H 1672.4 4.23459 3.86465 0
M  V30 17470 H 1670.8 4.90922 3.45131 0
M  V30 17471 H 1671.87 4.34334 2.15598 0
M  V30 17472 N 1673.21 -0.830057 1.33969 0
M  V30 17473 C 1674.43 -1.62294 1.29133 0
M  V30 17474 C 1674.86 -1.87627 -0.133253 0
M  V30 17475 O 1674.22 -1.44669 -1.09272 0
M  V30 17476 C 1674.27 -2.94508 2.0808 0
M  V30 17477 O 1673.37 -3.86239 1.44544 0
M  V30 17478 H 1672.71 -0.493865 0.443839 0
M  V30 17479 H 1675.24 -1.03202 1.76665 0
M  V30 17480 H 1675.25 -3.44133 2.19173 0
M  V30 17481 H 1673.93 -2.75392 3.1166 0
M  V30 17482 H 1672.5 -3.44743 1.42151 0
M  V30 17483 N 1674.69 -1.17582 -1.04939 0
M  V30 17484 C 1675.94 -0.96387 -1.77634 0
M  V30 17485 C 1676.26 0.508548 -1.88252 0
M  V30 17486 O 1675.53 1.36913 -1.40113 0
M  V30 17487 H 1674.11 -0.353636 -0.65799 0
M  V30 17488 H 1676.77 -1.48104 -1.26693 0
M  V30 17489 H 1675.86 -1.39438 -2.79219 0
M  V30 17490 N 1676.17 1.23705 -0.976463 0
M  V30 17491 C 1677.08 2.28728 -0.521605 0
M  V30 17492 C 1678.09 1.68813 0.421691 0
M  V30 17493 O 1679.27 1.99263 0.292579 0
M  V30 17494 C 1676.33 3.4627 0.172545 0
M  V30 17495 C 1675.39 4.21557 -0.811664 0
M  V30 17496 C 1674.63 5.33488 -0.150546 0
M  V30 17497 O 1674.85 5.60478 1.05926 0
M  V30 17498 O 1673.78 5.95909 -0.847132 0
M  V30 17499 H 1677.61 2.6977 -1.39491 0
M  V30 17500 H 1675.19 1.29562 -0.743909 0
M  V30 17501 H 1677.08 4.17634 0.562103 0
M  V30 17502 H 1675.75 3.07187 1.02067 0
M  V30 17503 H 1674.66 3.52533 -1.25185 0
M  V30 17504 H 1675.99 4.6448 -1.62848 0
M  V30 17505 N 1677.64 0.747635 1.38738 0
M  V30 17506 C 1678.89 0.300552 1.99853 0
M  V30 17507 C 1679.21 -1.11986 1.59638 0
M  V30 17508 O 1678.48 -1.76477 0.850447 0
M  V30 17509 H 1677.06 0.108134 0.739132 0
M  V30 17510 H 1679.72 0.960405 1.69594 0
M  V30 17511 H 1678.82 0.358956 3.10029 0
M  V30 17512 N 1679.12 -1.49583 0.496242 0
M  V30 17513 C 1680.05 -2.26936 -0.321366 0
M  V30 17514 C 1681.07 -1.33282 -0.934863 0
M  V30 17515 O 1682.26 -1.58602 -0.819008 0
M  V30 17516 C 1679.36 -3.05503 -1.467 0
M  V30 17517 C 1678.53 -4.26697 -0.961687 0
M  V30 17518 C 1677.59 -4.8735 -1.98436 0
M  V30 17519 O 1676.61 -5.47553 -1.55482 0
M  V30 17520 N 1677.82 -4.76577 -3.31443 0
M  V30 17521 H 1680.58 -2.97744 0.341884 0
M  V30 17522 H 1678.14 -1.58532 0.328504 0
M  V30 17523 H 1680.13 -3.42954 -2.1486 0
M  V30 17524 H 1678.7 -2.37334 -2.03449 0
M  V30 17525 H 1677.92 -3.9406 -0.105143 0
M  V30 17526 H 1679.21 -5.05221 -0.602405 0
M  V30 17527 H 1678.61 -4.28756 -3.69032 0
M  V30 17528 H 1677.17 -5.18226 -3.95329 0
M  V30 17529 N 1680.6 -0.229873 -1.55915 0
M  V30 17530 C 1681.51 0.687953 -2.24286 0
M  V30 17531 C 1682.53 1.20705 -1.25325 0
M  V30 17532 O 1683.7 1.2469 -1.58159 0
M  V30 17533 C 1680.77 1.87563 -2.91584 0
M  V30 17534 C 1679.83 1.39769 -4.0591 0
M  V30 17535 C 1679.06 2.52876 -4.69989 0
M  V30 17536 O 1679.28 3.71208 -4.33083 0
M  V30 17537 O 1678.22 2.23603 -5.58825 0
M  V30 17538 H 1682.04 0.135464 -3.03398 0
M  V30 17539 H 1679.63 0.000925172 -1.494 0
M  V30 17540 H 1681.51 2.56907 -3.34031 0
M  V30 17541 H 1680.19 2.41606 -2.15426 0
M  V30 17542 H 1679.09 0.672029 -3.68014 0
M  V30 17543 H 1680.43 0.903543 -4.83836 0
M  V30 17544 N 1682.08 1.5754 0.0434337 0
M  V30 17545 C 1683.3 1.93247 0.753012 0
M  V30 17546 C 1683.73 0.828712 1.68861 0
M  V30 17547 O 1683.09 -0.216618 1.80001 0
M  V30 17548 C 1683.13 3.27989 1.49852 0
M  V30 17549 O 1682.24 3.19223 2.61094 0
M  V30 17550 H 1681.58 0.632032 0.203547 0
M  V30 17551 H 1684.11 2.046 0.00319776 0
M  V30 17552 H 1684.12 3.62539 1.87161 0
M  V30 17553 H 1682.79 4.07891 0.812251 0
M  V30 17554 H 1681.37 2.9628 2.26434 0
M  V30 17555 N 1683.56 -0.31543 1.54411 0
M  V30 17556 C 1684.49 -1.4098 1.80713 0
M  V30 17557 C 1685.5 -1.47481 0.689435 0
M  V30 17558 O 1686.69 -1.50058 0.966682 0
M  V30 17559 C 1683.79 -2.79459 1.91718 0
M  V30 17560 C 1682.96 -2.96064 3.2197 0
M  V30 17561 C 1682.02 -4.14954 3.23573 0
M  V30 17562 O 1681.05 -4.07726 3.97175 0
M  V30 17563 N 1682.25 -5.24889 2.47935 0
M  V30 17564 H 1685.01 -1.18778 2.75158 0
M  V30 17565 H 1682.58 -0.50545 1.53808 0
M  V30 17566 H 1684.57 -3.57215 1.90209 0
M  V30 17567 H 1683.14 -2.94675 1.04333 0
M  V30 17568 H 1682.36 -2.05541 3.36372 0
M  V30 17569 H 1683.65 -3.0406 4.07952 0
M  V30 17570 H 1683.04 -5.33638 1.87741 0
M  V30 17571 H 1681.6 -6.01033 2.52195 0
M  V30 17572 N 1685.03 -1.46622 -0.577906 0
M  V30 17573 C 1686.31 -1.42657 -1.33822 0
M  V30 17574 C 1686.69 -0.11256 -2.108 0
M  V30 17575 O 1686.04 0.905903 -2.09775 0
M  V30 17576 C 1686.25 -2.65927 -2.26018 0
M  V30 17577 C 1687.6 -3.12277 -2.87695 0
M  V30 17578 O 1688.62 -2.66509 -2.36329 0
M  V30 17579 O 1687.48 -3.91786 -3.81007 0
M  V30 17580 H 1684.57 -0.567544 -0.601517 0
M  V30 17581 H 1687.12 -1.58795 -0.598524 0
M  V30 17582 H 1685.89 -3.53116 -1.68597 0
M  V30 17583 H 1685.52 -2.52272 -3.07318 0
M  V30 17584 N 1686.51 0.822941 -1.34408 0
M  V30 17585 C 1687.42 1.96567 -1.28056 0
M  V30 17586 C 1688.44 1.72979 -0.188251 0
M  V30 17587 O 1689.61 1.97084 -0.41472 0
M  V30 17588 C 1686.68 3.30865 -1.03583 0
M  V30 17589 C 1685.74 3.67461 -2.2197 0
M  V30 17590 C 1684.97 4.9535 -1.98655 0
M  V30 17591 O 1685.2 5.62521 -0.944785 0
M  V30 17592 O 1684.13 5.29824 -2.85605 0
M  V30 17593 H 1687.96 2.0487 -2.24192 0
M  V30 17594 H 1685.54 0.958334 -1.14614 0
M  V30 17595 H 1687.42 4.11298 -0.917162 0
M  V30 17596 H 1686.1 3.2353 -0.104868 0
M  V30 17597 H 1685.01 2.87472 -2.39396 0
M  V30 17598 H 1686.34 3.79481 -3.13456 0
M  V30 17599 N 1687.99 1.18137 1.04314 0
M  V30 17600 C 1688.9 0.921044 2.15764 0
M  V30 17601 C 1689.92 -0.11396 1.73626 0
M  V30 17602 O 1691.09 0.0673733 2.01287 0
M  V30 17603 C 1688.16 0.447581 3.43799 0
M  V30 17604 C 1687.22 1.55025 4.00332 0
M  V30 17605 C 1686.45 1.09928 5.22256 0
M  V30 17606 O 1686.67 -0.0430152 5.70384 0
M  V30 17607 O 1685.61 1.896 5.71258 0
M  V30 17608 H 1689.43 1.85353 2.40579 0
M  V30 17609 H 1687.02 0.962985 1.14223 0
M  V30 17610 H 1688.9 0.191497 4.20965 0
M  V30 17611 H 1687.58 -0.456641 3.20463 0
M  V30 17612 H 1686.48 1.86032 3.24566 0
M  V30 17613 H 1687.82 2.4305 4.28004 0
M  V30 17614 N 1689.47 -1.23186 0.98301 0
M  V30 17615 C 1690.38 -2.28448 0.533727 0
M  V30 17616 C 1691.39 -1.69034 -0.412732 0
M  V30 17617 O 1692.57 -1.99416 -0.282007 0
M  V30 17618 C 1689.64 -3.46357 -0.154179 0
M  V30 17619 C 1688.7 -4.21121 0.834009 0
M  V30 17620 C 1687.93 -5.334 0.178836 0
M  V30 17621 O 1688.15 -5.61032 -1.02952 0
M  V30 17622 O 1687.09 -5.95451 0.878722 0
M  V30 17623 H 1690.91 -2.69027 1.40919 0
M  V30 17624 H 1688.5 -1.29166 0.75077 0
M  V30 17625 H 1690.38 -4.17926 -0.539947 0
M  V30 17626 H 1689.05 -3.07724 -1.00437 0
M  V30 17627 H 1687.96 -3.51864 1.27053 0
M  V30 17628 H 1689.29 -4.6361 1.65309 0
M  V30 17629 N 1690.95 -0.754982 -1.38339 0
M  V30 17630 C 1692.17 -0.321355 -2.04895 0
M  V30 17631 C 1692.6 1.04249 -1.56569 0
M  V30 17632 O 1691.95 1.66464 -0.718299 0
M  V30 17633 C 1692 -0.354873 -3.5885 0
M  V30 17634 O 1691.11 0.65063 -4.07235 0
M  V30 17635 H 1690.45 -0.142033 -0.648631 0
M  V30 17636 H 1692.98 -1.02649 -1.76987 0
M  V30 17637 H 1692.99 -0.206243 -4.07478 0
M  V30 17638 H 1691.66 -1.34994 -3.93382 0
M  V30 17639 H 1690.24 0.466498 -3.69971 0
M  V30 17640 N 1692.42 1.49318 -0.504168 0
M  V30 17641 C 1693.65 2.07365 0.038102 0
M  V30 17642 C 1694.07 1.36164 1.29773 0
M  V30 17643 O 1693.43 0.419365 1.76383 0
M  V30 17644 C 1693.48 3.59576 0.271535 0
M  V30 17645 O 1692.58 3.8983 1.34561 0
M  V30 17646 H 1691.93 0.663425 -0.0276328 0
M  V30 17647 H 1694.46 1.92081 -0.704696 0
M  V30 17648 H 1694.47 4.04899 0.502083 0
M  V30 17649 H 1693.14 4.10809 -0.648754 0
M  V30 17650 H 1691.72 3.56314 1.09976 0
M  V30 17651 N 1693.9 0.238138 1.5579 0
M  V30 17652 C 1694.81 -0.676049 2.24648 0
M  V30 17653 C 1695.83 -1.20038 1.25964 0
M  V30 17654 O 1697 -1.2385 1.58818 0
M  V30 17655 C 1694.07 -1.86014 2.92574 0
M  V30 17656 C 1693.13 -1.37615 4.06646 0
M  V30 17657 C 1692.36 -2.5038 4.71323 0
M  V30 17658 O 1692.59 -3.68906 4.35045 0
M  V30 17659 O 1691.52 -2.20636 5.60003 0
M  V30 17660 H 1695.35 -0.119372 3.03465 0
M  V30 17661 H 1692.93 0.00699789 1.49398 0
M  V30 17662 H 1694.81 -2.55132 3.35389 0
M  V30 17663 H 1693.49 -2.4046 2.16704 0
M  V30 17664 H 1692.4 -0.652503 3.68366 0
M  V30 17665 H 1693.73 -0.877871 4.84308 0
M  V30 17666 N 1695.38 -1.57561 -0.0350783 0
M  V30 17667 C 1696.29 -2.09558 -1.05464 0
M  V30 17668 C 1697.31 -1.03288 -1.40027 0
M  V30 17669 O 1698.48 -1.34987 -1.49467 0
M  V30 17670 C 1695.55 -2.55966 -2.33842 0
M  V30 17671 C 1694.61 -3.76693 -2.05915 0
M  V30 17672 C 1693.84 -4.20878 -3.28172 0
M  V30 17673 O 1694.06 -3.64634 -4.38632 0
M  V30 17674 O 1693 -5.13367 -3.14225 0
M  V30 17675 H 1696.82 -2.9682 -0.642771 0
M  V30 17676 H 1694.41 -1.47265 -0.251668 0
M  V30 17677 H 1696.29 -2.86173 -3.09327 0
M  V30 17678 H 1694.97 -1.71818 -2.74336 0
M  V30 17679 H 1693.87 -3.51514 -1.28018 0
M  V30 17680 H 1695.21 -4.61807 -1.70281 0
M  V30 17681 N 1696.86 0.307236 -1.54576 0
M  V30 17682 C 1697.77 1.4014 -1.88143 0
M  V30 17683 C 1698.78 1.5579 -0.774952 0
M  V30 17684 O 1699.96 1.70574 -1.07082 0
M  V30 17685 C 1697.03 2.74613 -2.11633 0
M  V30 17686 C 1696.09 2.68001 -3.35371 0
M  V30 17687 C 1695.32 3.96061 -3.57731 0
M  V30 17688 O 1695.54 4.95119 -2.83219 0
M  V30 17689 O 1694.48 3.98331 -4.51238 0
M  V30 17690 H 1698.3 1.14677 -2.81217 0
M  V30 17691 H 1695.89 0.502739 -1.40687 0
M  V30 17692 H 1697.77 3.54186 -2.2832 0
M  V30 17693 H 1696.44 2.99933 -1.21746 0
M  V30 17694 H 1695.35 1.86922 -3.24054 0
M  V30 17695 H 1696.68 2.47635 -4.25368 0
M  V30 17696 N 1698.34 1.46926 0.570122 0
M  V30 17697 C 1699.75 1.32159 0.894766 0
M  V30 17698 C 1699.95 0.302411 1.99218 0
M  V30 17699 O 1699.01 -0.290615 2.50822 0
M  V30 17700 C 1700.32 2.71136 1.30021 0
M  V30 17701 C 1701.87 2.79323 1.41236 0
M  V30 17702 C 1702.34 4.18911 1.85142 0
M  V30 17703 N 1703.84 4.2139 1.92314 0
M  V30 17704 C 1704.57 5.263 2.27588 0
M  V30 17705 N 1704.07 6.41526 2.61565 0
M  V30 17706 N 1705.86 5.13671 2.28251 0
M  V30 17707 H 1698.01 2.11837 -0.154603 0
M  V30 17708 H 1700.27 0.947978 -0.00649658 0
M  V30 17709 H 1699.98 3.47087 0.567775 0
M  V30 17710 H 1699.85 3.02066 2.25911 0
M  V30 17711 H 1702.24 2.03653 2.13564 0
M  V30 17712 H 1702.32 2.52063 0.43566 0
M  V30 17713 H 1701.97 4.95081 1.13389 0
M  V30 17714 H 1701.9 4.43587 2.83792 0
M  V30 17715 H 1704.39 3.38257 1.68495 0
M  V30 17716 H 1704.7 7.17343 2.8747 0
M  V30 17717 H 1703.04 6.44867 2.59175 0
M  V30 17718 H 1706.24 4.22684 2.01137 0
M  V30 17719 H 1706.41 5.95541 2.55412 0
M  V30 17720 N 1699.82 -0.815801 1.34842 0
M  V30 17721 C 1700.78 -1.90871 1.2689 0
M  V30 17722 C 1701.78 -1.59762 0.182445 0
M  V30 17723 O 1702.97 -1.68667 0.435543 0
M  V30 17724 C 1700.1 -3.27081 0.960774 0
M  V30 17725 H 1701.29 -1.99343 2.24059 0
M  V30 17726 H 1698.85 -1.0106 1.19233 0
M  V30 17727 H 1699.58 -3.24299 -0.00744059 0
M  V30 17728 H 1699.37 -3.51045 1.74671 0
M  V30 17729 H 1700.86 -4.07101 0.930494 0
M  V30 17730 N 1701.29 -1.18689 -1.03686 0
M  V30 17731 C 1702.52 -1.01024 -1.81132 0
M  V30 17732 C 1702.94 0.436584 -1.82963 0
M  V30 17733 O 1702.3 1.31343 -1.24975 0
M  V30 17734 C 1702.35 -1.5742 -3.24424 0
M  V30 17735 O 1701.45 -0.79813 -4.04603 0
M  V30 17736 H 1700.79 -0.357623 -0.559465 0
M  V30 17737 H 1703.32 -1.57532 -1.30556 0
M  V30 17738 H 1703.33 -1.60295 -3.75193 0
M  V30 17739 H 1702.01 -2.6273 -3.22406 0
M  V30 17740 H 1700.59 -0.842 -3.6327 0
M  V30 17741 N 1702.77 1.22662 -0.989529 0
M  V30 17742 C 1704.18 1.73116 -0.699124 0
M  V30 17743 C 1704.53 1.79847 0.784197 0
M  V30 17744 O 1703.66 1.44248 1.61311 0
M  V30 17745 C 1704.25 3.14403 -1.2624 0
M  V30 17746 C 1702.81 3.62275 -1.02144 0
M  V30 17747 C 1701.96 2.40257 -1.38463 0
M  V30 17748 H 1704.91 1.08057 -1.1623 0
M  V30 17749 H 1704.93 3.75091 -0.639307 0
M  V30 17750 H 1704.44 3.09472 -2.34198 0
M  V30 17751 H 1702.54 3.72577 0.0416622 0
M  V30 17752 H 1702.66 4.48587 -1.68245 0
M  V30 17753 H 1701.02 2.41705 -0.803179 0
M  V30 17754 H 1701.8 2.3799 -2.47418 0
M  V30 17755 N 1704.25 0.762308 1.37937 0
M  V30 17756 C 1705.21 0.148588 2.28718 0
M  V30 17757 C 1706.21 -0.638198 1.47593 0
M  V30 17758 O 1707.4 -0.463178 1.67929 0
M  V30 17759 C 1704.53 -0.797492 3.31441 0
M  V30 17760 H 1705.73 0.94872 2.84498 0
M  V30 17761 H 1703.28 0.529888 1.47044 0
M  V30 17762 H 1704.02 -1.62298 2.80767 0
M  V30 17763 H 1703.8 -0.23561 3.91391 0
M  V30 17764 H 1705.29 -1.22262 3.99302 0
M  V30 17765 N 1705.73 -1.49049 0.51208 0
M  V30 17766 C 1706.98 -2.0208 -0.0284326 0
M  V30 17767 C 1707.3 -1.39303 -1.36454 0
M  V30 17768 O 1706.57 -0.552155 -1.87958 0
M  V30 17769 H 1705.15 -0.746878 -0.0134968 0
M  V30 17770 H 1707.81 -1.82954 0.671842 0
M  V30 17771 H 1706.9 -3.11739 -0.149966 0
M  V30 17772 N 1707.21 -0.246397 -1.55662 0
M  V30 17773 C 1708.43 0.385607 -2.03784 0
M  V30 17774 C 1708.86 1.50786 -1.12451 0
M  V30 17775 O 1708.21 1.8092 -0.117371 0
M  V30 17776 C 1708.26 0.871204 -3.49918 0
M  V30 17777 O 1707.37 1.98082 -3.61715 0
M  V30 17778 H 1706.71 0.0841099 -0.658651 0
M  V30 17779 H 1709.24 -0.372306 -2.01184 0
M  V30 17780 H 1709.25 1.17455 -3.90728 0
M  V30 17781 H 1707.92 0.0499597 -4.1587 0
M  V30 17782 H 1706.5 1.6822 -3.32801 0
M  V30 17783 N 1708.68 1.57577 0.026722 0
M  V30 17784 C 1709.96 1.80541 0.752606 0
M  V30 17785 C 1710.34 0.845025 1.93449 0
M  V30 17786 O 1709.69 -0.112286 2.28224 0
M  V30 17787 C 1709.9 3.28322 1.18345 0
M  V30 17788 C 1711.25 3.93366 1.59839 0
M  V30 17789 O 1712.27 3.32486 1.27796 0
M  V30 17790 O 1711.13 5.0056 2.19321 0
M  V30 17791 H 1708.22 0.742514 0.364146 0
M  V30 17792 H 1710.77 1.697 0.00332 0
M  V30 17793 H 1709.54 3.89822 0.339832 0
M  V30 17794 H 1709.16 3.44061 1.99267 0
M  V30 17795 N 1710.16 -0.299034 1.54737 0
M  V30 17796 C 1711.11 -1.37055 1.82208 0
M  V30 17797 C 1712.1 -1.45855 0.679357 0
M  V30 17798 O 1713.29 -1.49974 0.940044 0
M  V30 17799 C 1710.42 -2.73525 2.07459 0
M  V30 17800 C 1709.5 -2.6894 3.27921 0
M  V30 17801 N 1709.89 -2.33972 4.48432 0
M  V30 17802 C 1708.19 -3.0004 3.29988 0
M  V30 17803 C 1708.89 -2.38734 5.30454 0
M  V30 17804 N 1707.87 -2.76167 4.68223 0
M  V30 17805 H 1711.67 -1.08986 2.72945 0
M  V30 17806 H 1709.18 -0.507618 1.54263 0
M  V30 17807 H 1711.18 -3.50787 2.25287 0
M  V30 17808 H 1709.84 -3.02503 1.1799 0
M  V30 17809 H 1710.85 -2.06392 4.74998 0
M  V30 17810 H 1707.53 -3.33901 2.50632 0
M  V30 17811 H 1708.92 -2.1448 6.36748 0
M  V30 17812 N 1711.64 -1.47227 -0.562322 0
M  V30 17813 C 1713.06 -1.32632 -0.887745 0
M  V30 17814 C 1713.26 -0.312972 -1.99055 0
M  V30 17815 O 1712.31 0.277309 -2.50973 0
M  V30 17816 C 1713.62 -2.71822 -1.28581 0
M  V30 17817 C 1715.17 -2.80068 -1.39753 0
M  V30 17818 C 1715.65 -4.19887 -1.82917 0
M  V30 17819 N 1717.14 -4.22404 -1.90077 0
M  V30 17820 C 1717.87 -5.27499 -2.24793 0
M  V30 17821 N 1717.37 -6.42904 -2.58159 0
M  V30 17822 N 1719.16 -5.14874 -2.25523 0
M  V30 17823 H 1711.31 -2.11752 0.165835 0
M  V30 17824 H 1713.58 -0.94793 0.0115238 0
M  V30 17825 H 1713.28 -3.47383 -0.549361 0
M  V30 17826 H 1713.16 -3.0326 -2.24306 0
M  V30 17827 H 1715.54 -2.04783 -2.1248 0
M  V30 17828 H 1715.62 -2.5229 -0.422286 0
M  V30 17829 H 1715.27 -4.95676 -1.10761 0
M  V30 17830 H 1715.2 -4.45086 -2.81436 0
M  V30 17831 H 1717.69 -3.39146 -1.66698 0
M  V30 17832 H 1718 -7.18857 -2.83662 0
M  V30 17833 H 1716.35 -6.46232 -2.55751 0
M  V30 17834 H 1719.54 -4.23745 -1.98892 0
M  V30 17835 H 1719.71 -5.96887 -2.5225 0
M  V30 17836 N 1713.12 0.808639 -1.35273 0
M  V30 17837 C 1714.07 1.90962 -1.24569 0
M  V30 17838 C 1715.05 1.60277 -0.141424 0
M  V30 17839 O 1716.24 1.73037 -0.372451 0
M  V30 17840 C 1713.37 3.27864 -1.01783 0
M  V30 17841 C 1712.46 3.64622 -2.16592 0
M  V30 17842 N 1712.85 3.72831 -3.41805 0
M  V30 17843 C 1711.15 3.94563 -2.07932 0
M  V30 17844 C 1711.85 4.05271 -4.1729 0
M  V30 17845 N 1710.82 4.19246 -3.46025 0
M  V30 17846 H 1714.63 1.95508 -2.1944 0
M  V30 17847 H 1712.14 1.00311 -1.27716 0
M  V30 17848 H 1714.14 4.06576 -0.922037 0
M  V30 17849 H 1712.8 3.24606 -0.0779494 0
M  V30 17850 H 1713.81 3.55961 -3.76181 0
M  V30 17851 H 1710.49 3.99342 -1.21787 0
M  V30 17852 H 1711.88 4.18707 -5.25485 0
M  V30 17853 N 1714.6 1.19237 1.03055 0
M  V30 17854 C 1716.01 0.944224 1.28672 0
M  V30 17855 C 1716.21 -0.384378 1.978 0
M  V30 17856 O 1715.27 -1.11629 2.26484 0
M  V30 17857 C 1716.58 2.11704 2.13546 0
M  V30 17858 C 1718.13 2.15647 2.2686 0
M  V30 17859 C 1718.6 3.32375 3.15105 0
M  V30 17860 N 1720.1 3.323 3.22693 0
M  V30 17861 C 1720.83 4.19265 3.91158 0
M  V30 17862 N 1720.33 5.16381 4.61868 0
M  V30 17863 N 1722.12 4.07147 3.87541 0
M  V30 17864 H 1714.27 2.0472 0.565987 0
M  V30 17865 H 1716.53 0.895073 0.312328 0
M  V30 17866 H 1716.24 3.07845 1.70072 0
M  V30 17867 H 1716.11 2.08624 3.14254 0
M  V30 17868 H 1718.5 1.20078 2.69565 0
M  V30 17869 H 1718.58 2.22781 1.25708 0
M  V30 17870 H 1718.23 4.28222 2.73108 0
M  V30 17871 H 1718.16 3.22478 4.16312 0
M  V30 17872 H 1720.65 2.62 2.72331 0
M  V30 17873 H 1720.96 5.7909 5.11737 0
M  V30 17874 H 1719.3 5.20331 4.60739 0
M  V30 17875 H 1722.5 3.30555 3.31438 0
M  V30 17876 H 1722.67 4.75135 4.40625 0
M  V30 17877 N 1716.07 -1.22136 0.99602 0
M  V30 17878 C 1717.32 -1.9059 0.672303 0
M  V30 17879 C 1717.64 -1.77903 -0.798476 0
M  V30 17880 O 1716.91 -1.1682 -1.57257 0
M  V30 17881 H 1715.49 -0.705445 0.245676 0
M  V30 17882 H 1718.16 -1.48423 1.2632 0
M  V30 17883 H 1717.25 -2.97684 0.937577 0
M  V30 17884 N 1717.55 -0.769612 -1.37531 0
M  V30 17885 C 1718.78 -0.343069 -2.04543 0
M  V30 17886 C 1719.2 1.02583 -1.57665 0
M  V30 17887 O 1718.56 1.65692 -0.735915 0
M  V30 17888 C 1718.61 -0.392914 -3.58453 0
M  V30 17889 O 1717.71 0.607401 -4.07902 0
M  V30 17890 H 1717.05 -0.148905 -0.647088 0
M  V30 17891 H 1719.58 -1.04521 -1.75888 0
M  V30 17892 H 1719.59 -0.24945 -4.07237 0
M  V30 17893 H 1718.27 -1.39159 -3.91928 0
M  V30 17894 H 1716.85 0.427231 -3.70445 0
M  V30 17895 N 1719.03 1.48775 -0.519977 0
M  V30 17896 C 1719.96 2.32292 0.237213 0
M  V30 17897 C 1720.94 1.4146 0.944625 0
M  V30 17898 O 1722.13 1.70355 0.932349 0
M  V30 17899 C 1719.26 3.22426 1.29068 0
M  V30 17900 C 1718.21 4.22204 0.702011 0
M  V30 17901 C 1717.54 5.01403 1.85739 0
M  V30 17902 C 1718.84 5.21321 -0.319626 0
M  V30 17903 H 1720.53 2.95846 -0.459949 0
M  V30 17904 H 1718.08 1.42268 -0.222641 0
M  V30 17905 H 1720.03 3.79674 1.82826 0
M  V30 17906 H 1718.75 2.56853 2.01728 0
M  V30 17907 H 1717.41 3.66128 0.186027 0
M  V30 17908 H 1717.06 4.32262 2.57214 0
M  V30 17909 H 1716.76 5.68929 1.46949 0
M  V30 17910 H 1718.28 5.615 2.39895 0
M  V30 17911 H 1719.7 5.73151 0.130505 0
M  V30 17912 H 1718.1 5.96843 -0.624377 0
M  V30 17913 H 1719.17 4.69069 -1.22893 0
M  V30 17914 N 1720.51 0.254649 1.55529 0
M  V30 17915 C 1721.42 -0.652184 2.25352 0
M  V30 17916 C 1722.43 -1.18695 1.2723 0
M  V30 17917 O 1723.61 -1.22158 1.60123 0
M  V30 17918 C 1720.68 -1.829 2.94531 0
M  V30 17919 C 1719.74 -1.33294 4.08082 0
M  V30 17920 C 1718.97 -2.45367 4.73952 0
M  V30 17921 O 1719.19 -3.64271 4.38933 0
M  V30 17922 O 1718.13 -2.14684 5.62311 0
M  V30 17923 H 1721.95 -0.0871786 3.03575 0
M  V30 17924 H 1719.54 0.0228432 1.49383 0
M  V30 17925 H 1721.42 -2.5156 3.38076 0
M  V30 17926 H 1720.09 -2.38148 2.19242 0
M  V30 17927 H 1719 -0.613396 3.69037 0
M  V30 17928 H 1720.33 -0.826454 4.85212 0
M  V30 17929 N 1721.99 -1.57589 -0.0183649 0
M  V30 17930 C 1723.4 -1.55152 -0.374183 0
M  V30 17931 C 1723.6 -0.98217 -1.75942 0
M  V30 17932 O 1722.66 -0.607905 -2.45073 0
M  V30 17933 C 1723.97 -2.99519 -0.266231 0
M  V30 17934 C 1725.52 -3.1112 -0.342527 0
M  V30 17935 C 1725.99 -4.57239 -0.263905 0
M  V30 17936 N 1727.49 -4.62077 -0.322372 0
M  V30 17937 C 1728.22 -5.72693 -0.284594 0
M  V30 17938 N 1727.72 -6.92516 -0.198482 0
M  V30 17939 N 1729.51 -5.611 -0.335111 0
M  V30 17940 H 1721.66 -1.92945 0.888033 0
M  V30 17941 H 1723.92 -0.885432 0.338695 0
M  V30 17942 H 1723.63 -3.44942 0.686123 0
M  V30 17943 H 1723.5 -3.62127 -1.05565 0
M  V30 17944 H 1725.89 -2.65638 -1.28532 0
M  V30 17945 H 1725.97 -2.51324 0.476435 0
M  V30 17946 H 1725.62 -5.03391 0.675263 0
M  V30 17947 H 1725.55 -5.14959 -1.10111 0
M  V30 17948 H 1728.04 -3.75872 -0.391004 0
M  V30 17949 H 1728.35 -7.72602 -0.175048 0
M  V30 17950 H 1726.69 -6.94806 -0.164374 0
M  V30 17951 H 1729.89 -4.66384 -0.400452 0
M  V30 17952 H 1730.06 -6.47295 -0.302203 0
M  V30 17953 N 1723.46 0.290824 -1.54893 0
M  V30 17954 C 1724.37 1.38137 -1.89619 0
M  V30 17955 C 1725.39 1.54959 -0.791432 0
M  V30 17956 O 1726.57 1.69428 -1.08885 0
M  V30 17957 C 1723.63 2.72353 -2.14534 0
M  V30 17958 C 1722.69 2.64429 -3.38195 0
M  V30 17959 C 1721.93 3.92244 -3.61912 0
M  V30 17960 O 1722.15 4.92088 -2.88454 0
M  V30 17961 O 1721.08 3.93523 -4.55438 0
M  V30 17962 H 1724.91 1.11688 -2.82417 0
M  V30 17963 H 1722.49 0.487789 -1.41213 0
M  V30 17964 H 1724.38 3.51745 -2.32064 0
M  V30 17965 H 1723.05 2.98624 -1.24921 0
M  V30 17966 H 1721.96 1.83474 -3.26018 0
M  V30 17967 H 1723.29 2.43109 -4.2797 0
M  V30 17968 N 1724.94 1.47523 0.554506 0
M  V30 17969 C 1725.91 1.59761 1.64345 0
M  V30 17970 C 1726.91 0.472516 1.53701 0
M  V30 17971 O 1728.1 0.737659 1.57811 0
M  V30 17972 C 1725.23 1.54467 3.03896 0
M  V30 17973 H 1726.42 2.56834 1.54842 0
M  V30 17974 H 1723.97 1.35753 0.774643 0
M  V30 17975 H 1724.71 0.587789 3.18929 0
M  V30 17976 H 1724.49 2.36123 3.13031 0
M  V30 17977 H 1725.98 1.66174 3.83113 0
M  V30 17978 N 1726.42 -0.801453 1.357 0
M  V30 17979 C 1727.37 -1.91355 1.29043 0
M  V30 17980 C 1728.34 -1.65314 0.161381 0
M  V30 17981 O 1729.52 -1.87638 0.345928 0
M  V30 17982 C 1726.66 -3.27979 1.07348 0
M  V30 17983 C 1725.78 -3.66172 2.29221 0
M  V30 17984 C 1724.91 -4.91853 2.00635 0
M  V30 17985 C 1723.95 -5.22688 3.18533 0
M  V30 17986 N 1723.09 -6.3955 2.8969 0
M  V30 17987 H 1727.93 -1.96381 2.24139 0
M  V30 17988 H 1725.46 -0.960502 1.11413 0
M  V30 17989 H 1727.42 -4.06748 0.928002 0
M  V30 17990 H 1726.05 -3.22408 0.159115 0
M  V30 17991 H 1725.1 -2.82623 2.54615 0
M  V30 17992 H 1726.42 -3.84916 3.1724 0
M  V30 17993 H 1725.57 -5.78459 1.82947 0
M  V30 17994 H 1724.31 -4.75154 1.09908 0
M  V30 17995 H 1723.31 -4.34569 3.36793 0
M  V30 17996 H 1724.54 -5.41313 4.10069 0
M  V30 17997 H 1722.48 -6.24266 2.01562 0
M  V30 17998 H 1722.4 -6.58569 3.71245 0
M  V30 17999 H 1723.67 -7.29171 2.75555 0
M  V30 18000 N 1727.9 -1.19782 -1.02421 0
M  V30 18001 C 1729.12 -1.02939 -1.80051 0
M  V30 18002 C 1729.55 0.417153 -1.83416 0
M  V30 18003 O 1728.91 1.3001 -1.26361 0
M  V30 18004 C 1728.95 -1.60853 -3.22736 0
M  V30 18005 O 1728.06 -0.840999 -4.03734 0
M  V30 18006 H 1727.4 -0.363537 -0.555641 0
M  V30 18007 H 1729.93 -1.58908 -1.28878 0
M  V30 18008 H 1729.94 -1.64266 -3.73471 0
M  V30 18009 H 1728.61 -2.66135 -3.19602 0
M  V30 18010 H 1727.19 -0.880482 -3.62356 0
M  V30 18011 N 1729.38 1.21606 -1.00248 0
M  V30 18012 C 1730.6 1.95149 -0.702249 0
M  V30 18013 C 1731.03 1.73429 0.728293 0
M  V30 18014 O 1730.39 1.01953 1.49917 0
M  V30 18015 C 1730.43 3.45705 -1.0257 0
M  V30 18016 O 1729.54 4.12196 -0.129575 0
M  V30 18017 H 1728.88 0.610173 -0.261888 0
M  V30 18018 H 1731.41 1.54435 -1.34205 0
M  V30 18019 H 1731.42 3.96265 -0.97151 0
M  V30 18020 H 1730.09 3.60838 -2.06806 0
M  V30 18021 H 1728.67 3.72126 -0.240074 0
M  V30 18022 N 1730.86 0.776895 1.37121 0
M  V30 18023 C 1732.1 0.343555 1.99564 0
M  V30 18024 C 1732.43 -1.08134 1.6167 0
M  V30 18025 O 1731.69 -1.75938 0.856998 0
M  V30 18026 C 1731.98 0.440201 3.54679 0
M  V30 18027 C 1731.65 1.82409 4.12356 0
M  V30 18028 C 1730.31 2.20277 4.27822 0
M  V30 18029 C 1732.66 2.73082 4.43932 0
M  V30 18030 C 1729.99 3.48244 4.72168 0
M  V30 18031 C 1732.34 4.00465 4.89705 0
M  V30 18032 C 1731.01 4.38371 5.03376 0
M  V30 18033 H 1730.28 0.125716 0.730258 0
M  V30 18034 H 1732.93 0.991921 1.63808 0
M  V30 18035 H 1731.23 -0.291695 3.90713 0
M  V30 18036 H 1732.93 0.0861328 4.00907 0
M  V30 18037 H 1729.52 1.5198 4.0075 0
M  V30 18038 H 1733.7 2.45085 4.31564 0
M  V30 18039 H 1728.96 3.77501 4.80939 0
M  V30 18040 H 1733.13 4.70849 5.13103 0
M  V30 18041 H 1730.76 5.37587 5.37498 0
M  V30 18042 N 1732.33 -1.48497 0.527859 0
M  V30 18043 C 1733.61 -1.9547 -0.0713049 0
M  V30 18044 C 1733.99 -1.47005 -1.51502 0
M  V30 18045 O 1733.34 -0.695609 -2.17655 0
M  V30 18046 C 1733.55 -3.48973 0.0437547 0
M  V30 18047 C 1734.9 -4.2444 -0.116591 0
M  V30 18048 O 1735.92 -3.56187 -0.0301431 0
M  V30 18049 O 1734.78 -5.4569 -0.297491 0
M  V30 18050 H 1731.87 -0.823075 -0.080474 0
M  V30 18051 H 1734.42 -1.59028 0.592307 0
M  V30 18052 H 1733.19 -3.76963 1.04952 0
M  V30 18053 H 1732.81 -3.92104 -0.658803 0
M  V30 18054 N 1733.81 -0.262893 -1.55392 0
M  V30 18055 C 1734.74 0.623732 -2.25015 0
M  V30 18056 C 1735.72 1.16865 -1.23598 0
M  V30 18057 O 1736.91 1.20505 -1.5229 0
M  V30 18058 C 1734.04 1.81353 -2.9619 0
M  V30 18059 C 1732.99 1.40069 -4.04431 0
M  V30 18060 C 1732.32 2.67261 -4.63115 0
M  V30 18061 C 1733.62 0.559905 -5.1929 0
M  V30 18062 H 1735.31 0.0431306 -2.99369 0
M  V30 18063 H 1732.86 0.0193043 -1.43987 0
M  V30 18064 H 1734.81 2.43958 -3.43602 0
M  V30 18065 H 1733.53 2.41977 -2.1935 0
M  V30 18066 H 1732.19 0.797905 -3.57811 0
M  V30 18067 H 1731.84 3.26117 -3.82958 0
M  V30 18068 H 1731.54 2.40354 -5.36194 0
M  V30 18069 H 1733.07 3.30735 -5.1327 0
M  V30 18070 H 1734.48 1.09064 -5.6283 0
M  V30 18071 H 1732.88 0.386234 -5.98856 0
M  V30 18072 H 1733.95 -0.424199 -4.83041 0
M  V30 18073 N 1735.29 1.57597 0.0100073 0
M  V30 18074 C 1736.7 1.78287 0.554143 0
M  V30 18075 C 1737.05 0.896332 1.74529 0
M  V30 18076 O 1736.18 0.0961505 2.16186 0
M  V30 18077 C 1736.77 3.23331 1.01206 0
M  V30 18078 C 1735.33 3.45152 1.50157 0
M  V30 18079 C 1734.48 2.73654 0.448221 0
M  V30 18080 H 1737.43 1.57221 -0.216189 0
M  V30 18081 H 1737.45 3.30893 1.87856 0
M  V30 18082 H 1736.96 3.87829 0.144921 0
M  V30 18083 H 1735.06 2.85854 2.38994 0
M  V30 18084 H 1735.18 4.53813 1.53594 0
M  V30 18085 H 1733.54 2.3798 0.907603 0
M  V30 18086 H 1734.32 3.40846 -0.40978 0
M  V30 18087 N 1736.77 -0.282606 1.55045 0
M  V30 18088 C 1738.04 -1.03617 1.659 0
M  V30 18089 C 1738.42 -2.04615 0.519207 0
M  V30 18090 O 1737.77 -2.2336 -0.48191 0
M  V30 18091 C 1737.98 -1.70159 3.04708 0
M  V30 18092 C 1739.33 -2.21677 3.62139 0
M  V30 18093 O 1740.35 -1.80161 3.07279 0
M  V30 18094 O 1739.21 -2.97799 4.58234 0
M  V30 18095 H 1736.31 -0.48004 0.673417 0
M  V30 18096 H 1738.85 -0.279228 1.67387 0
M  V30 18097 H 1737.63 -0.969205 3.79107 0
M  V30 18098 H 1737.25 -2.52564 3.07079 0
M  V30 18099 N 1738.25 -1.47815 -0.546675 0
M  V30 18100 C 1739.47 -1.58613 -1.32851 0
M  V30 18101 C 1739.89 -0.240179 -1.87266 0
M  V30 18102 O 1739.25 0.768148 -1.65547 0
M  V30 18103 C 1739.3 -2.61969 -2.49107 0
M  V30 18104 O 1739.02 -3.9134 -1.96938 0
M  V30 18105 C 1740.52 -2.83051 -3.4117 0
M  V30 18106 H 1737.74 -0.535292 -0.404603 0
M  V30 18107 H 1740.28 -1.93516 -0.661192 0
M  V30 18108 H 1738.44 -2.29971 -3.11756 0
M  V30 18109 H 1738.85 -4.47905 -2.72913 0
M  V30 18110 H 1740.33 -3.59209 -4.19134 0
M  V30 18111 H 1740.8 -1.91258 -3.95369 0
M  V30 18112 H 1741.41 -3.16287 -2.84328 0
M  V30 18113 N 1739.72 0.794246 -1.36123 0
M  V30 18114 C 1740.65 1.92105 -1.32732 0
M  V30 18115 C 1741.63 1.68925 -0.199603 0
M  V30 18116 O 1742.82 1.90109 -0.396498 0
M  V30 18117 C 1739.95 3.29051 -1.11098 0
M  V30 18118 C 1738.9 3.66743 -2.20643 0
M  V30 18119 C 1738.23 5.01986 -1.84159 0
M  V30 18120 C 1739.53 3.75831 -3.62696 0
M  V30 18121 H 1741.22 1.952 -2.27018 0
M  V30 18122 H 1738.77 0.937746 -1.09281 0
M  V30 18123 H 1740.72 4.07494 -1.07362 0
M  V30 18124 H 1739.45 3.26331 -0.132614 0
M  V30 18125 H 1738.11 2.90594 -2.23497 0
M  V30 18126 H 1737.75 4.95782 -0.849081 0
M  V30 18127 H 1737.45 5.28175 -2.57497 0
M  V30 18128 H 1738.98 5.82855 -1.8197 0
M  V30 18129 H 1740.39 4.44476 -3.62096 0
M  V30 18130 H 1738.79 4.135 -4.34899 0
M  V30 18131 H 1739.86 2.7706 -3.97952 0
M  V30 18132 N 1741.2 1.20323 1.01785 0
M  V30 18133 C 1742.13 0.908716 2.10416 0
M  V30 18134 C 1743.15 -0.103029 1.62474 0
M  V30 18135 O 1744.34 0.127825 1.78042 0
M  V30 18136 C 1741.44 0.340601 3.37184 0
M  V30 18137 C 1740.61 1.40358 4.14268 0
M  V30 18138 C 1739.67 0.847016 5.19338 0
M  V30 18139 O 1738.69 1.5274 5.48324 0
M  V30 18140 N 1739.9 -0.344198 5.79479 0
M  V30 18141 H 1742.66 1.84383 2.36269 0
M  V30 18142 H 1740.22 1.10673 1.18165 0
M  V30 18143 H 1742.21 -0.0458443 4.04674 0
M  V30 18144 H 1740.78 -0.499042 3.08591 0
M  V30 18145 H 1740 1.96442 3.41766 0
M  V30 18146 H 1741.29 2.11952 4.62551 0
M  V30 18147 H 1740.69 -0.914263 5.58263 0
M  V30 18148 H 1739.25 -0.672296 6.48324 0
M  V30 18149 N 1742.68 -1.21073 1.00892 0
M  V30 18150 C 1743.93 -1.90524 0.694879 0
M  V30 18151 C 1744.26 -1.78161 -0.772802 0
M  V30 18152 O 1743.53 -1.1608 -1.56063 0
M  V30 18153 C 1743.82 -3.42188 1.12156 0
M  V30 18154 C 1743.67 -3.63523 2.64898 0
M  V30 18155 C 1744.99 -4.34706 0.68694 0
M  V30 18156 H 1742.11 -0.69188 0.253912 0
M  V30 18157 H 1744.75 -1.42626 1.2553 0
M  V30 18158 H 1742.9 -3.83113 0.644742 0
M  V30 18159 H 1744.57 -3.31901 3.20374 0
M  V30 18160 H 1742.81 -3.07255 3.0623 0
M  V30 18161 H 1743.49 -4.69805 2.89806 0
M  V30 18162 H 1745.96 -4.01386 1.09674 0
M  V30 18163 H 1744.84 -5.3946 1.01361 0
M  V30 18164 H 1745.1 -4.40178 -0.411757 0
M  V30 18165 N 1744.16 -0.784156 -1.36707 0
M  V30 18166 C 1745.57 -0.417967 -1.81961 0
M  V30 18167 C 1745.92 1.05746 -1.65264 0
M  V30 18168 O 1745.05 1.82003 -1.17064 0
M  V30 18169 C 1745.64 -0.751869 -3.30352 0
M  V30 18170 C 1744.2 -0.438578 -3.73836 0
M  V30 18171 C 1743.35 -0.989262 -2.59054 0
M  V30 18172 H 1746.3 -0.977754 -1.25003 0
M  V30 18173 H 1746.32 -0.041034 -3.80478 0
M  V30 18174 H 1745.83 -1.82576 -3.42473 0
M  V30 18175 H 1743.93 0.627493 -3.67278 0
M  V30 18176 H 1744.04 -0.955508 -4.69475 0
M  V30 18177 H 1742.41 -0.412783 -2.51333 0
M  V30 18178 H 1743.19 -2.06881 -2.73962 0
M  V30 18179 N 1745.64 1.48215 -0.535727 0
M  V30 18180 C 1746.88 2.021 -0.00372016 0
M  V30 18181 C 1747.21 1.41456 1.34221 0
M  V30 18182 O 1746.48 0.581987 1.87055 0
M  V30 18183 H 1745.06 0.746998 0.00161295 0
M  V30 18184 H 1747.72 1.81862 -0.700863 0
M  V30 18185 H 1746.81 3.11939 0.100352 0
M  V30 18186 N 1747.11 0.27113 1.5525 0
M  V30 18187 C 1748.04 -0.61179 2.25343 0
M  V30 18188 C 1749.03 -1.16208 1.24216 0
M  V30 18189 O 1750.21 -1.19696 1.52927 0
M  V30 18190 C 1747.34 -1.7978 2.97147 0
M  V30 18191 C 1746.29 -1.37922 4.05169 0
M  V30 18192 C 1745.62 -2.64801 4.64526 0
M  V30 18193 C 1746.92 -0.532357 5.1958 0
M  V30 18194 H 1748.61 -0.0272538 2.99388 0
M  V30 18195 H 1746.16 -0.0116681 1.43995 0
M  V30 18196 H 1748.11 -2.42132 3.44891 0
M  V30 18197 H 1746.84 -2.40811 2.20631 0
M  V30 18198 H 1745.5 -0.778918 3.5823 0
M  V30 18199 H 1745.14 -3.24081 3.84682 0
M  V30 18200 H 1744.84 -2.37507 5.37461 0
M  V30 18201 H 1746.37 -3.28009 5.15017 0
M  V30 18202 H 1747.78 -1.06078 5.63401 0
M  V30 18203 H 1746.18 -0.35447 5.99052 0
M  V30 18204 H 1747.25 0.44981 4.82809 0
M  V30 18205 N 1748.59 -1.576 -0.00164943 0
M  V30 18206 C 1749.54 -2.04799 -1.00207 0
M  V30 18207 C 1750.53 -0.9424 -1.30413 0
M  V30 18208 O 1751.72 -1.20618 -1.29539 0
M  V30 18209 C 1748.85 -2.55349 -2.29459 0
M  V30 18210 C 1747.93 -3.72782 -2.02224 0
M  V30 18211 N 1748.32 -4.84528 -1.45142 0
M  V30 18212 C 1746.62 -3.80681 -2.32375 0
M  V30 18213 C 1747.32 -5.65975 -1.34339 0
M  V30 18214 N 1746.3 -5.11927 -1.82844 0
M  V30 18215 H 1750.1 -2.88608 -0.555191 0
M  V30 18216 H 1747.62 -1.6107 -0.20738 0
M  V30 18217 H 1749.61 -2.87438 -3.01969 0
M  V30 18218 H 1748.27 -1.72957 -2.74802 0
M  V30 18219 H 1749.28 -5.05412 -1.13045 0
M  V30 18220 H 1745.96 -3.09141 -2.80603 0
M  V30 18221 H 1747.35 -6.65782 -0.904622 0
M  V30 18222 N 1750.07 0.274379 -1.55193 0
M  V30 18223 C 1751.49 0.621497 -1.47002 0
M  V30 18224 C 1751.69 1.89572 -0.682995 0
M  V30 18225 O 1750.74 2.51696 -0.201296 0
M  V30 18226 C 1752.06 0.749741 -2.91203 0
M  V30 18227 C 1753.6 0.843886 -3.01409 0
M  V30 18228 C 1754.08 1.00392 -4.46862 0
M  V30 18229 N 1755.57 1.06947 -4.50684 0
M  V30 18230 C 1756.3 1.21207 -5.60443 0
M  V30 18231 N 1755.8 1.32195 -6.80071 0
M  V30 18232 N 1757.59 1.24307 -5.48183 0
M  V30 18233 H 1749.74 -0.562462 -2.04817 0
M  V30 18234 H 1752.01 -0.190205 -0.928723 0
M  V30 18235 H 1751.71 -0.116074 -3.51508 0
M  V30 18236 H 1751.59 1.63046 -3.40141 0
M  V30 18237 H 1753.97 1.70017 -2.41202 0
M  V30 18238 H 1754.06 -0.061411 -2.55726 0
M  V30 18239 H 1753.7 0.152298 -5.07672 0
M  V30 18240 H 1753.63 1.92384 -4.902 0
M  V30 18241 H 1756.12 0.997012 -3.64511 0
M  V30 18242 H 1756.43 1.42906 -7.59472 0
M  V30 18243 H 1754.78 1.29202 -6.82885 0
M  V30 18244 H 1757.97 1.15352 -4.53665 0
M  V30 18245 H 1758.14 1.35076 -6.33765 0
M  V30 18246 N 1751.55 1.48103 0.538828 0
M  V30 18247 C 1752.78 1.59316 1.32008 0
M  V30 18248 C 1753.19 0.250107 1.87136 0
M  V30 18249 O 1752.55 -0.759358 1.65952 0
M  V30 18250 C 1752.6 2.63287 2.47714 0
M  V30 18251 O 1752.32 3.92379 1.9486 0
M  V30 18252 C 1753.82 2.84856 3.39664 0
M  V30 18253 H 1751.04 0.53743 0.401758 0
M  V30 18254 H 1753.59 1.93864 0.65092 0
M  V30 18255 H 1751.74 2.31621 3.10532 0
M  V30 18256 H 1752.15 4.49346 2.70534 0
M  V30 18257 H 1753.63 3.61426 4.17223 0
M  V30 18258 H 1754.11 1.93352 3.9435 0
M  V30 18259 H 1754.71 3.17791 2.82647 0
M  V30 18260 N 1753.03 -0.787016 1.36542 0
M  V30 18261 C 1753.99 -1.88136 1.3091 0
M  V30 18262 C 1754.99 -1.59339 0.216292 0
M  V30 18263 O 1756.18 -1.67706 0.471222 0
M  V30 18264 C 1753.31 -3.24969 1.02994 0
M  V30 18265 H 1754.5 -1.94546 2.28237 0
M  V30 18266 H 1752.06 -0.985084 1.2135 0
M  V30 18267 H 1752.79 -3.24242 0.0613497 0
M  V30 18268 H 1752.58 -3.47261 1.82078 0
M  V30 18269 H 1754.07 -4.05036 1.01664 0
M  V30 18270 N 1754.5 -1.20861 -1.01145 0
M  V30 18271 C 1755.73 -1.04843 -1.78949 0
M  V30 18272 C 1756.15 0.397676 -1.83848 0
M  V30 18273 O 1755.51 1.28663 -1.27733 0
M  V30 18274 C 1755.56 -1.64267 -3.21012 0
M  V30 18275 O 1754.66 -0.883773 -4.02819 0
M  V30 18276 H 1754.01 -0.36941 -0.551754 0
M  V30 18277 H 1756.54 -1.60266 -1.27185 0
M  V30 18278 H 1756.55 -1.68218 -3.71708 0
M  V30 18279 H 1755.22 -2.69509 -3.16761 0
M  V30 18280 H 1753.8 -0.918866 -3.61402 0
M  V30 18281 N 1755.98 1.20536 -1.01532 0
M  V30 18282 C 1757.23 1.89496 -0.70254 0
M  V30 18283 C 1757.55 1.7915 0.770072 0
M  V30 18284 O 1756.82 1.19308 1.55379 0
M  V30 18285 H 1755.4 0.701447 -0.256868 0
M  V30 18286 H 1758.06 1.46394 -1.28665 0
M  V30 18287 H 1757.16 2.96155 -0.984817 0
M  V30 18288 N 1757.46 0.791395 1.36289 0
M  V30 18289 C 1758.88 0.473308 1.5242 0
M  V30 18290 C 1759.08 -1.00805 1.74473 0
M  V30 18291 O 1758.13 -1.79349 1.77737 0
M  V30 18292 C 1759.45 1.30547 2.70884 0
M  V30 18293 C 1760.99 1.29936 2.84755 0
M  V30 18294 C 1761.47 2.1153 4.06225 0
M  V30 18295 N 1762.96 2.08987 4.13375 0
M  V30 18296 C 1763.69 2.68889 5.06445 0
M  V30 18297 N 1763.19 3.37657 6.04946 0
M  V30 18298 N 1764.98 2.58612 4.99075 0
M  V30 18299 H 1757.13 1.75096 1.20229 0
M  V30 18300 H 1759.4 0.74441 0.586991 0
M  V30 18301 H 1759.1 2.35607 2.61117 0
M  V30 18302 H 1758.98 0.948139 3.65089 0
M  V30 18303 H 1761.36 0.256671 2.93982 0
M  V30 18304 H 1761.45 1.69647 1.91451 0
M  V30 18305 H 1761.09 3.15832 3.9776 0
M  V30 18306 H 1761.02 1.69189 4.98681 0
M  V30 18307 H 1763.51 1.58938 3.42851 0
M  V30 18308 H 1763.82 3.8069 6.72529 0
M  V30 18309 H 1762.17 3.4176 6.05165 0
M  V30 18310 H 1765.36 2.04487 4.21073 0
M  V30 18311 H 1765.53 3.05587 5.7142 0
M  V30 18312 N 1758.94 -1.47929 0.54358 0
M  V30 18313 C 1760.19 -2.02095 0.0144379 0
M  V30 18314 C 1760.51 -1.42166 -1.33469 0
M  V30 18315 O 1759.78 -0.591899 -1.86744 0
M  V30 18316 H 1758.36 -0.746996 0.00234858 0
M  V30 18317 H 1761.02 -1.81488 0.710498 0
M  V30 18318 H 1760.12 -3.11987 -0.0838074 0
M  V30 18319 N 1760.42 -0.27936 -1.55104 0
M  V30 18320 C 1761.64 0.342295 -2.04556 0
M  V30 18321 C 1762.07 1.48367 -1.15624 0
M  V30 18322 O 1761.43 1.8063 -0.15572 0
M  V30 18323 C 1761.47 0.796785 -3.51687 0
M  V30 18324 O 1760.58 1.90364 -3.65835 0
M  V30 18325 H 1759.92 0.07012 -0.660287 0
M  V30 18326 H 1762.45 -0.414896 -2.00349 0
M  V30 18327 H 1762.46 1.09141 -3.93131 0
M  V30 18328 H 1761.13 -0.0382637 -4.15882 0
M  V30 18329 H 1759.71 1.61123 -3.36294 0
M  V30 18330 N 1761.9 1.57599 -0.0067085 0
M  V30 18331 C 1762.86 2.07783 0.967417 0
M  V30 18332 C 1763.86 0.988498 1.26828 0
M  V30 18333 O 1765.05 1.25091 1.21235 0
M  V30 18334 C 1762.18 2.52491 2.29044 0
M  V30 18335 H 1763.37 2.95122 0.533201 0
M  V30 18336 H 1760.93 1.54432 0.2409 0
M  V30 18337 H 1761.66 1.68415 2.77141 0
M  V30 18338 H 1761.45 3.32054 2.08525 0
M  V30 18339 H 1762.94 2.9162 2.98911 0
M  V30 18340 N 1763.37 -0.266145 1.55336 0
M  V30 18341 C 1764.6 -1.01915 1.80633 0
M  V30 18342 C 1765.02 -1.78897 0.581172 0
M  V30 18343 O 1764.38 -1.75118 -0.469399 0
M  V30 18344 C 1764.43 -1.948 3.03456 0
M  V30 18345 O 1763.53 -3.03678 2.79022 0
M  V30 18346 H 1762.87 -0.29102 0.596828 0
M  V30 18347 H 1765.4 -0.292973 2.02492 0
M  V30 18348 H 1765.41 -2.36626 3.32373 0
M  V30 18349 H 1764.09 -1.38182 3.92273 0
M  V30 18350 H 1762.67 -2.66118 2.61219 0
M  V30 18351 N 1764.85 -1.48386 -0.530967 0
M  V30 18352 C 1765.76 -1.65516 -1.66257 0
M  V30 18353 C 1766.78 -0.5377 -1.65483 0
M  V30 18354 O 1767.95 -0.808642 -1.84453 0
M  V30 18355 C 1765.02 -1.68999 -3.02722 0
M  V30 18356 C 1764.08 -2.92365 -3.14358 0
M  V30 18357 C 1763.31 -2.95672 -4.44313 0
M  V30 18358 O 1763.54 -2.07417 -5.31352 0
M  V30 18359 O 1762.47 -3.87831 -4.60294 0
M  V30 18360 H 1766.3 -2.61321 -1.54742 0
M  V30 18361 H 1763.88 -1.31776 -0.703946 0
M  V30 18362 H 1765.76 -1.73816 -3.83883 0
M  V30 18363 H 1764.44 -0.763675 -3.14563 0
M  V30 18364 H 1763.34 -2.93081 -2.32496 0
M  V30 18365 H 1764.68 -3.84378 -3.07433 0
M  V30 18366 N 1766.33 0.779763 -1.36958 0
M  V30 18367 C 1767.28 1.88277 -1.28592 0
M  V30 18368 C 1768.26 1.59941 -0.175389 0
M  V30 18369 O 1769.46 1.72208 -0.409071 0
M  V30 18370 C 1766.58 3.25632 -1.08715 0
M  V30 18371 C 1765.67 3.59945 -2.24277 0
M  V30 18372 N 1766.06 3.65497 -3.49636 0
M  V30 18373 C 1764.36 3.90064 -2.16255 0
M  V30 18374 C 1765.06 3.96328 -4.25792 0
M  V30 18375 N 1764.04 4.11812 -3.5484 0
M  V30 18376 H 1767.84 1.90809 -2.23538 0
M  V30 18377 H 1765.35 0.975794 -1.29815 0
M  V30 18378 H 1767.35 4.04529 -1.00807 0
M  V30 18379 H 1766.01 3.24368 -0.146786 0
M  V30 18380 H 1767.02 3.47902 -3.83647 0
M  V30 18381 H 1763.7 3.96669 -1.3023 0
M  V30 18382 H 1765.09 4.07466 -5.34248 0
M  V30 18383 N 1767.81 1.21396 1.00503 0
M  V30 18384 C 1768.74 0.930982 2.09441 0
M  V30 18385 C 1769.75 -0.0857912 1.62574 0
M  V30 18386 O 1770.94 0.146701 1.77896 0
M  V30 18387 C 1768.04 0.376344 3.36804 0
M  V30 18388 C 1767.21 1.44744 4.12756 0
M  V30 18389 C 1766.27 0.902051 5.18411 0
M  V30 18390 O 1765.3 1.58548 5.46673 0
M  V30 18391 N 1766.5 -0.282718 5.79811 0
M  V30 18392 H 1769.27 1.86879 2.343 0
M  V30 18393 H 1766.83 1.1192 1.16985 0
M  V30 18394 H 1768.82 -0.00292068 4.047 0
M  V30 18395 H 1767.39 -0.466283 3.09103 0
M  V30 18396 H 1766.61 2.00056 3.39664 0
M  V30 18397 H 1767.9 2.16846 4.60277 0
M  V30 18398 H 1767.3 -0.855 5.59201 0
M  V30 18399 H 1765.85 -0.603494 6.49 0
M  V30 18400 N 1769.29 -1.19996 1.0217 0
M  V30 18401 C 1770.56 -1.85214 0.628894 0
M  V30 18402 C 1770.94 -1.91292 -0.892784 0
M  V30 18403 O 1770.29 -1.42455 -1.78658 0
M  V30 18404 C 1770.5 -3.24576 1.28262 0
M  V30 18405 C 1771.85 -4.0081 1.4013 0
M  V30 18406 O 1772.87 -3.33948 1.23923 0
M  V30 18407 O 1771.73 -5.20561 1.66368 0
M  V30 18408 H 1768.83 -0.797842 0.217664 0
M  V30 18409 H 1771.37 -1.27544 1.1194 0
M  V30 18410 H 1770.14 -3.14947 2.32216 0
M  V30 18411 H 1769.77 -3.89884 0.77952 0
M  V30 18412 N 1770.76 -0.798611 -1.35867 0
M  V30 18413 C 1772 -0.380789 -2.00822 0
M  V30 18414 C 1772.37 1.03061 -1.61995 0
M  V30 18415 O 1773.57 1.55001 -2.19609 0
M  V30 18416 C 1771.84 -0.549604 -3.53149 0
M  V30 18417 S 1773.4 -0.221022 -4.38243 0
M  V30 18418 H 1770.22 -0.145008 -0.696056 0
M  V30 18419 H 1772.82 -1.03912 -1.65598 0
M  V30 18420 H 1771.52 -1.57695 -3.78894 0
M  V30 18421 H 1771.05 0.124329 -3.93203 0
M  V30 18422 H 1773.07 0.974167 -4.86543 0
M  V30 18423 N 1772.24 1.47639 -0.551417 0
M  V30 18424 C 1773.19 2.31626 0.212654 0
M  V30 18425 C 1774.18 1.42567 0.914925 0
M  V30 18426 O 1775.39 1.59363 0.836869 0
M  V30 18427 H 1771.76 0.746898 0.0874493 0
M  V30 18428 H 1773.74 2.93923 -0.514976 0
M  V30 18429 C 1772.48 3.25098 1.23316 0
M  V30 18430 H 1771.81 3.93585 0.702196 0
M  V30 18431 H 1773.25 3.86707 1.73878 0
M  V30 18432 C 1771.71 2.48209 2.27802 0
M  V30 18433 O 1772.24 2.22235 3.34626 0
M  V30 18434 N 1770.44 2.09321 2.01577 0
M  V30 18435 H 1769.99 2.30645 1.14719 0
M  V30 18436 H 1769.95 1.58191 2.71704 0
M  V30 18437 N 1773.72 0.287581 1.54954 0
M  V30 18438 C 1774.97 -0.324967 1.9947 0
M  V30 18439 C 1775.29 -1.55437 1.17747 0
M  V30 18440 O 1774.56 -1.9403 0.270067 0
M  V30 18441 H 1773.14 -0.123062 0.736794 0
M  V30 18442 H 1775.8 0.395805 1.90839 0
M  V30 18443 H 1774.9 -0.606265 3.06155 0
M  V30 18444 N 1775.2 -1.57593 0.0150662 0
M  V30 18445 C 1776.15 -2.0936 -0.971443 0
M  V30 18446 C 1777.12 -0.992416 -1.33193 0
M  V30 18447 O 1778.3 -1.26577 -1.42769 0
M  V30 18448 C 1775.44 -2.61386 -2.25324 0
M  V30 18449 C 1774.55 -3.85462 -1.95046 0
M  V30 18450 C 1773.69 -4.25934 -3.17418 0
M  V30 18451 C 1772.73 -5.42805 -2.82894 0
M  V30 18452 N 1771.86 -5.78499 -3.97848 0
M  V30 18453 H 1776.7 -2.93373 -0.523068 0
M  V30 18454 H 1774.24 -1.45018 -0.246605 0
M  V30 18455 H 1776.2 -2.89635 -3.00279 0
M  V30 18456 H 1774.83 -1.80225 -2.67804 0
M  V30 18457 H 1773.88 -3.64029 -1.10394 0
M  V30 18458 H 1775.19 -4.70505 -1.6561 0
M  V30 18459 H 1774.35 -4.55544 -4.00705 0
M  V30 18460 H 1773.09 -3.3963 -3.50004 0
M  V30 18461 H 1772.09 -5.12903 -1.98016 0
M  V30 18462 H 1773.32 -6.30797 -2.51539 0
M  V30 18463 H 1771.26 -4.95152 -4.30303 0
M  V30 18464 H 1771.18 -6.5815 -3.71988 0
M  V30 18465 H 1772.45 -6.12708 -4.8188 0
M  V30 18466 N 1776.68 0.257904 -1.55475 0
M  V30 18467 C 1777.9 1.00955 -1.81171 0
M  V30 18468 C 1778.33 1.78586 -0.590651 0
M  V30 18469 O 1777.68 1.75365 0.460105 0
M  V30 18470 C 1777.73 1.93188 -3.04485 0
M  V30 18471 O 1776.84 3.02194 -2.80628 0
M  V30 18472 H 1776.18 0.28785 -0.598363 0
M  V30 18473 H 1778.71 0.28223 -2.02644 0
M  V30 18474 H 1778.72 2.3486 -3.33624 0
M  V30 18475 H 1777.39 1.361 -3.93001 0
M  V30 18476 H 1775.97 2.64729 -2.62627 0
M  V30 18477 N 1778.15 1.48666 0.52309 0
M  V30 18478 C 1779.12 1.63211 1.60919 0
M  V30 18479 C 1780.12 0.505012 1.52664 0
M  V30 18480 O 1781.31 0.770967 1.56211 0
M  V30 18481 C 1778.44 1.60878 3.00551 0
M  V30 18482 H 1779.63 2.60061 1.4936 0
M  V30 18483 H 1777.19 1.37366 0.745674 0
M  V30 18484 H 1777.92 0.655306 3.1761 0
M  V30 18485 H 1777.71 2.4271 3.07952 0
M  V30 18486 H 1779.2 1.74263 3.79502 0
M  V30 18487 N 1779.63 -0.772489 1.37369 0
M  V30 18488 C 1780.86 -1.56671 1.35901 0
M  V30 18489 C 1781.28 -1.88024 -0.0535538 0
M  V30 18490 O 1780.64 -1.49174 -1.03038 0
M  V30 18491 C 1780.69 -2.85417 2.20384 0
M  V30 18492 O 1779.79 -3.79761 1.60796 0
M  V30 18493 H 1779.13 -0.474596 0.464386 0
M  V30 18494 H 1781.66 -0.956162 1.80883 0
M  V30 18495 H 1781.67 -3.34527 2.33571 0
M  V30 18496 H 1780.35 -2.61926 3.2306 0
M  V30 18497 H 1778.93 -3.38403 1.56645 0
M  V30 18498 N 1781.11 -1.21927 -0.998575 0
M  V30 18499 C 1782.36 -1.03834 -1.73386 0
M  V30 18500 C 1782.68 0.428247 -1.90239 0
M  V30 18501 O 1781.95 1.30847 -1.45794 0
M  V30 18502 H 1780.53 -0.381225 -0.642399 0
M  V30 18503 H 1783.19 -1.53344 -1.20298 0
M  V30 18504 H 1782.29 -1.51155 -2.73054 0
M  V30 18505 N 1782.59 1.19452 -1.02805 0
M  V30 18506 C 1784 1.41147 -0.744969 0
M  V30 18507 C 1784.2 1.90008 0.670765 0
M  V30 18508 O 1783.26 2.0763 1.43688 0
M  V30 18509 C 1784.57 2.42328 -1.78039 0
M  V30 18510 C 1786.12 2.56076 -1.79984 0
M  V30 18511 C 1786.6 3.6051 -2.82483 0
M  V30 18512 N 1788.09 3.68005 -2.81294 0
M  V30 18513 C 1788.82 4.48502 -3.57258 0
M  V30 18514 N 1788.32 5.32711 -4.42934 0
M  V30 18515 N 1790.11 4.43144 -3.45803 0
M  V30 18516 H 1782.26 0.860569 -1.94185 0
M  V30 18517 H 1784.53 0.44042 -0.839484 0
M  V30 18518 H 1784.23 2.13448 -2.79523 0
M  V30 18519 H 1784.11 3.41491 -1.60199 0
M  V30 18520 H 1786.49 2.84279 -0.791782 0
M  V30 18521 H 1786.57 1.57069 -2.01898 0
M  V30 18522 H 1786.22 3.33049 -3.83459 0
M  V30 18523 H 1786.15 4.59166 -2.57827 0
M  V30 18524 H 1788.64 3.07863 -2.19154 0
M  V30 18525 H 1788.95 5.9125 -4.97637 0
M  V30 18526 H 1787.3 5.32175 -4.47007 0
M  V30 18527 H 1790.49 3.76399 -2.78283 0
M  V30 18528 H 1790.66 5.0564 -4.05256 0
M  V30 18529 N 1784.07 0.805805 1.35442 0
M  V30 18530 C 1785 0.230077 2.32364 0
M  V30 18531 C 1785.98 -0.644034 1.57436 0
M  V30 18532 O 1787.16 -0.574467 1.85509 0
M  V30 18533 C 1784.29 -0.622814 3.4167 0
M  V30 18534 C 1783.25 0.152739 4.27727 0
M  V30 18535 C 1782.57 -0.821803 5.28347 0
M  V30 18536 C 1783.87 1.35128 5.04517 0
M  V30 18537 H 1785.57 1.03983 2.80763 0
M  V30 18538 H 1783.11 0.501467 1.34986 0
M  V30 18539 H 1785.07 -1.03564 4.08476 0
M  V30 18540 H 1783.79 -1.46544 2.91877 0
M  V30 18541 H 1782.45 0.546732 3.625 0
M  V30 18542 H 1782.1 -1.65991 4.74822 0
M  V30 18543 H 1781.8 -0.307209 5.86796 0
M  V30 18544 H 1783.32 -1.23285 5.98024 0
M  V30 18545 H 1784.73 1.01337 5.64273 0
M  V30 18546 H 1783.13 1.80031 5.72459 0
M  V30 18547 H 1784.2 2.13833 4.35205 0
M  V30 18548 N 1785.54 -1.47344 0.559239 0
M  V30 18549 C 1786.51 -2.28516 -0.17688 0
M  V30 18550 C 1787.51 -1.37065 -0.840823 0
M  V30 18551 O 1788.7 -1.59676 -0.696373 0
M  V30 18552 C 1785.83 -3.16803 -1.25892 0
M  V30 18553 H 1787.02 -2.95068 0.536174 0
M  V30 18554 H 1784.58 -1.53067 0.316263 0
M  V30 18555 H 1785.31 -2.54947 -2.00431 0
M  V30 18556 H 1785.1 -3.84108 -0.787625 0
M  V30 18557 H 1786.59 -3.77958 -1.77589 0
M  V30 18558 N 1787.02 -0.295795 -1.54799 0
M  V30 18559 C 1788.44 0.0577516 -1.59495 0
M  V30 18560 C 1788.64 1.52862 -1.31284 0
M  V30 18561 O 1787.69 2.28061 -1.08372 0
M  V30 18562 C 1789.01 -0.335503 -2.98822 0
M  V30 18563 C 1790.56 -0.283835 -3.1171 0
M  V30 18564 C 1791.03 -0.651835 -4.53338 0
M  V30 18565 N 1792.52 -0.604171 -4.59243 0
M  V30 18566 C 1793.26 -0.861453 -5.66892 0
M  V30 18567 N 1792.75 -1.18443 -6.826 0
M  V30 18568 N 1794.55 -0.788863 -5.56537 0
M  V30 18569 H 1786.7 -1.25444 -1.71399 0
M  V30 18570 H 1788.96 -0.50822 -0.80026 0
M  V30 18571 H 1788.67 -1.35923 -3.24373 0
M  V30 18572 H 1788.54 0.313443 -3.75895 0
M  V30 18573 H 1790.93 0.730641 -2.85912 0
M  V30 18574 H 1791.01 -0.967331 -2.36804 0
M  V30 18575 H 1790.65 -1.66409 -4.79865 0
M  V30 18576 H 1790.58 0.053676 -5.26573 0
M  V30 18577 H 1793.07 -0.365262 -3.76131 0
M  V30 18578 H 1793.39 -1.36686 -7.60616 0
M  V30 18579 H 1791.73 -1.22242 -6.84165 0
M  V30 18580 H 1794.92 -0.536231 -4.65018 0
M  V30 18581 H 1795.09 -0.992744 -6.4035 0
M  V30 18582 N 1788.5 1.57583 -0.0234236 0
M  V30 18583 C 1789.46 2.08797 0.945325 0
M  V30 18584 C 1790.46 1.00189 1.25773 0
M  V30 18585 O 1791.65 1.2637 1.19901 0
M  V30 18586 C 1788.79 2.54906 2.26353 0
M  V30 18587 H 1789.98 2.95671 0.50187 0
M  V30 18588 H 1787.53 1.54679 0.224507 0
M  V30 18589 H 1788.27 1.71345 2.75339 0
M  V30 18590 H 1788.05 3.34247 2.04991 0
M  V30 18591 H 1789.54 2.94774 2.95801 0
M  V30 18592 N 1789.98 -0.249655 1.5561 0
M  V30 18593 C 1790.91 -1.31281 1.931 0
M  V30 18594 C 1791.89 -1.50347 0.795601 0
M  V30 18595 O 1793.08 -1.63001 1.05566 0
M  V30 18596 C 1790.21 -2.66808 2.2233 0
M  V30 18597 C 1789.16 -2.62441 3.38096 0
M  V30 18598 C 1788.49 -4.01738 3.52861 0
M  V30 18599 C 1789.79 -2.19667 4.7386 0
M  V30 18600 H 1791.48 -1.00151 2.82153 0
M  V30 18601 H 1789.03 -0.480331 1.35753 0
M  V30 18602 H 1790.98 -3.41316 2.47146 0
M  V30 18603 H 1789.7 -2.99569 1.30101 0
M  V30 18604 H 1788.36 -1.90391 3.13284 0
M  V30 18605 H 1788.01 -4.31759 2.58056 0
M  V30 18606 H 1787.71 -3.99705 4.30708 0
M  V30 18607 H 1789.23 -4.7795 3.79995 0
M  V30 18608 H 1790.65 -2.83906 4.98067 0
M  V30 18609 H 1789.04 -2.28751 5.54791 0
M  V30 18610 H 1790.11 -1.14829 4.71108 0
M  V30 18611 N 1791.46 -1.48941 -0.515198 0
M  V30 18612 C 1792.87 -1.35389 -0.8451 0
M  V30 18613 C 1793.07 -0.376141 -1.97958 0
M  V30 18614 O 1792.13 0.197324 -2.51728 0
M  V30 18615 C 1793.44 -2.75775 -1.19868 0
M  V30 18616 C 1794.99 -2.84373 -1.30772 0
M  V30 18617 C 1795.47 -4.25494 -1.69466 0
M  V30 18618 N 1796.96 -4.28237 -1.76542 0
M  V30 18619 C 1797.69 -5.34384 -2.07898 0
M  V30 18620 N 1797.19 -6.50792 -2.37575 0
M  V30 18621 N 1798.98 -5.21789 -2.09029 0
M  V30 18622 H 1791.13 -2.11117 0.233118 0
M  V30 18623 H 1793.39 -0.947083 0.0416757 0
M  V30 18624 H 1793.1 -3.48955 -0.438565 0
M  V30 18625 H 1792.97 -3.10243 -2.14545 0
M  V30 18626 H 1795.36 -2.11439 -2.05858 0
M  V30 18627 H 1795.44 -2.53506 -0.341808 0
M  V30 18628 H 1795.09 -4.98949 -0.949358 0
M  V30 18629 H 1795.02 -4.53814 -2.67133 0
M  V30 18630 H 1797.51 -3.44278 -1.55824 0
M  V30 18631 H 1797.82 -7.27518 -2.60649 0
M  V30 18632 H 1796.17 -6.54042 -2.35062 0
M  V30 18633 H 1799.36 -4.29858 -1.85311 0
M  V30 18634 H 1799.53 -6.0461 -2.33133 0
M  V30 18635 N 1792.94 0.765193 -1.37777 0
M  V30 18636 C 1794.35 1.34186 -1.29811 0
M  V30 18637 C 1794.7 1.96133 0.0513426 0
M  V30 18638 O 1793.82 1.94272 0.953273 0
M  V30 18639 C 1794.42 2.43975 -2.35078 0
M  V30 18640 C 1792.98 2.97393 -2.30726 0
M  V30 18641 C 1792.12 1.70667 -2.18559 0
M  V30 18642 H 1795.07 0.564948 -1.48304 0
M  V30 18643 H 1795.1 3.23622 -2.00123 0
M  V30 18644 H 1794.61 1.98859 -3.33282 0
M  V30 18645 H 1792.71 3.46867 -1.36067 0
M  V30 18646 H 1792.82 3.52561 -3.24403 0
M  V30 18647 H 1791.19 1.93846 -1.65215 0
M  V30 18648 H 1791.97 1.27645 -3.18687 0
M  V30 18649 N 1794.41 1.22455 0.992094 0
M  V30 18650 C 1795.69 0.958091 1.70529 0
M  V30 18651 C 1796.07 -0.526595 2.04426 0
M  V30 18652 O 1795.42 -1.49483 1.72821 0
M  V30 18653 C 1795.63 1.85646 2.95528 0
M  V30 18654 C 1796.98 2.11301 3.68289 0
M  V30 18655 O 1798 1.831 3.05537 0
M  V30 18656 O 1796.86 2.59068 4.81192 0
M  V30 18657 H 1793.95 0.360375 0.744351 0
M  V30 18658 H 1796.5 1.33444 1.04837 0
M  V30 18659 H 1795.27 2.86067 2.66986 0
M  V30 18660 H 1794.89 1.48174 3.68958 0
M  V30 18661 N 1795.89 -1.18905 1.03437 0
M  V30 18662 C 1797.17 -1.84537 0.648503 0
M  V30 18663 C 1797.55 -1.92228 -0.872445 0
M  V30 18664 O 1796.9 -1.44342 -1.77137 0
M  V30 18665 C 1797.11 -3.23198 1.31698 0
M  V30 18666 C 1798.45 -3.99301 1.44374 0
M  V30 18667 O 1799.48 -3.32615 1.27458 0
M  V30 18668 O 1798.34 -5.18767 1.7188 0
M  V30 18669 H 1795.43 -0.795488 0.226114 0
M  V30 18670 H 1797.98 -1.2635 1.13287 0
M  V30 18671 H 1796.75 -3.12466 2.35543 0
M  V30 18672 H 1796.37 -3.89035 0.820829 0
M  V30 18673 N 1797.37 -0.812977 -1.35013 0
M  V30 18674 C 1798.78 -0.45647 -1.81034 0
M  V30 18675 C 1799.13 1.02217 -1.6747 0
M  V30 18676 O 1798.26 1.79478 -1.20898 0
M  V30 18677 C 1798.85 -0.821773 -3.28683 0
M  V30 18678 C 1797.41 -0.517776 -3.72822 0
M  V30 18679 C 1796.56 -1.04399 -2.56897 0
M  V30 18680 H 1799.51 -1.00405 -1.22901 0
M  V30 18681 H 1799.53 -0.12173 -3.80305 0
M  V30 18682 H 1799.04 -1.89799 -3.38523 0
M  V30 18683 H 1797.14 0.549446 -3.68527 0
M  V30 18684 H 1797.26 -1.05488 -4.67343 0
M  V30 18685 H 1795.62 -0.466002 -2.50401 0
M  V30 18686 H 1796.4 -2.12645 -2.69512 0
M  V30 18687 N 1798.85 1.47045 -0.567045 0
M  V30 18688 C 1800.26 1.86202 -0.13627 0
M  V30 18689 C 1800.61 1.47252 1.29658 0
M  V30 18690 O 1799.73 0.880121 1.97694 0
M  V30 18691 C 1800.33 3.37945 -0.240528 0
M  V30 18692 C 1798.89 3.76157 0.135272 0
M  V30 18693 C 1798.04 2.71089 -0.583628 0
M  V30 18694 H 1800.99 1.38423 -0.776196 0
M  V30 18695 H 1801.01 3.76673 0.538293 0
M  V30 18696 H 1800.52 3.66263 -1.28348 0
M  V30 18697 H 1798.62 3.53456 1.17896 0
M  V30 18698 H 1798.73 4.78547 -0.230137 0
M  V30 18699 H 1797.1 2.54687 -0.0256067 0
M  V30 18700 H 1797.88 3.02247 -1.62792 0
M  V30 18701 N 1800.33 0.304 1.5464 0
M  V30 18702 C 1801.26 -0.563854 2.2659 0
M  V30 18703 C 1802.24 -1.13547 1.26653 0
M  V30 18704 O 1803.42 -1.16425 1.55431 0
M  V30 18705 C 1800.55 -1.73437 3.00894 0
M  V30 18706 C 1799.51 -1.29297 4.08003 0
M  V30 18707 C 1798.83 -2.54888 4.70038 0
M  V30 18708 C 1800.13 -0.422027 5.20592 0
M  V30 18709 H 1801.83 0.0362569 2.99378 0
M  V30 18710 H 1799.37 0.0188781 1.43988 0
M  V30 18711 H 1801.32 -2.34762 3.4995 0
M  V30 18712 H 1800.05 -2.36076 2.25689 0
M  V30 18713 H 1798.71 -0.702757 3.59801 0
M  V30 18714 H 1798.36 -3.15848 3.9147 0
M  V30 18715 H 1798.06 -2.26054 5.42378 0
M  V30 18716 H 1799.58 -3.17011 5.21859 0
M  V30 18717 H 1800.99 -0.941036 5.65524 0
M  V30 18718 H 1799.39 -0.227323 5.99669 0
M  V30 18719 H 1800.46 0.55212 4.81746 0
M  V30 18720 N 1801.8 -1.57568 0.0317802 0
M  V30 18721 C 1803.08 -1.8321 -0.685081 0
M  V30 18722 C 1803.46 -0.91624 -1.9018 0
M  V30 18723 O 1802.81 0.0275043 -2.28483 0
M  V30 18724 C 1803.02 -3.32488 -1.06078 0
M  V30 18725 C 1804.37 -3.99027 -1.45129 0
M  V30 18726 O 1805.39 -3.36999 -1.15368 0
M  V30 18727 O 1804.25 -5.08355 -2.00592 0
M  V30 18728 H 1801.34 -0.755517 -0.336337 0
M  V30 18729 H 1803.89 -1.69595 0.0596652 0
M  V30 18730 H 1802.66 -3.90814 -0.194918 0
M  V30 18731 H 1802.28 -3.5122 -1.8636 0
M  V30 18732 N 1803.28 0.241399 -1.5574 0
M  V30 18733 C 1804.53 0.96675 -1.77478 0
M  V30 18734 C 1804.85 1.85644 -0.596757 0
M  V30 18735 O 1804.12 1.92035 0.387236 0
M  V30 18736 H 1802.7 0.35995 -0.654557 0
M  V30 18737 H 1805.36 0.258023 -1.93185 0
M  V30 18738 H 1804.46 1.58524 -2.68843 0
M  V30 18739 N 1804.76 1.49212 0.507292 0
M  V30 18740 C 1806.04 1.4888 1.26863 0
M  V30 18741 C 1806.42 0.213007 2.10023 0
M  V30 18742 O 1805.77 -0.804785 2.13858 0
M  V30 18743 C 1805.98 2.76407 2.13073 0
M  V30 18744 C 1807.32 3.25647 2.72468 0
M  V30 18745 O 1808.35 2.77481 2.23344 0
M  V30 18746 O 1807.21 4.09518 3.6188 0
M  V30 18747 H 1804.3 0.595597 0.573754 0
M  V30 18748 H 1806.85 1.6147 0.52208 0
M  V30 18749 H 1805.62 3.60758 1.51558 0
M  V30 18750 H 1805.24 2.66648 2.94932 0
M  V30 18751 N 1806.24 -0.757876 1.38181 0
M  V30 18752 C 1807.52 -1.50715 1.24677 0
M  V30 18753 C 1807.9 -2.1054 -0.153689 0
M  V30 18754 O 1807.24 -1.96703 -1.16276 0
M  V30 18755 C 1807.45 -2.57695 2.3536 0
M  V30 18756 C 1808.8 -3.24716 2.73578 0
M  V30 18757 O 1809.83 -2.67997 2.3464 0
M  V30 18758 O 1808.68 -4.27294 3.40709 0
M  V30 18759 H 1805.78 -0.668175 0.487311 0
M  V30 18760 H 1808.32 -0.793653 1.49997 0
M  V30 18761 H 1807.1 -2.11706 3.29084 0
M  V30 18762 H 1806.72 -3.36629 2.11581 0
M  V30 18763 N 1807.72 -1.22979 -0.985586 0
M  V30 18764 C 1808.68 -1.00763 -2.05862 0
M  V30 18765 C 1809.68 0.02864 -1.60774 0
M  V30 18766 O 1810.87 -0.210593 -1.72922 0
M  V30 18767 C 1808 -0.523547 -3.36856 0
M  V30 18768 H 1809.19 -1.95982 -2.27004 0
M  V30 18769 H 1806.75 -1.0495 -1.15824 0
M  V30 18770 H 1807.48 0.432658 -3.21401 0
M  V30 18771 H 1807.27 -1.27127 -3.70919 0
M  V30 18772 H 1808.76 -0.388591 -4.15788 0
M  V30 18773 N 1809.19 1.18355 -1.04066 0
M  V30 18774 C 1810.47 1.8419 -0.65828 0
M  V30 18775 C 1810.85 1.92688 0.862238 0
M  V30 18776 O 1810.2 1.4528 1.76369 0
M  V30 18777 C 1810.41 3.22495 -1.3341 0
M  V30 18778 C 1811.76 3.9853 -1.46489 0
M  V30 18779 O 1812.78 3.31934 -1.29221 0
M  V30 18780 O 1811.64 5.17848 -1.74629 0
M  V30 18781 H 1808.73 0.794278 -0.230329 0
M  V30 18782 H 1811.28 1.25747 -1.13955 0
M  V30 18783 H 1810.05 3.11213 -2.37197 0
M  V30 18784 H 1809.68 3.88594 -0.841449 0
M  V30 18785 N 1810.67 0.820125 1.3458 0
M  V30 18786 C 1811.95 0.329573 1.92803 0
M  V30 18787 C 1812.33 -1.18271 1.74858 0
M  V30 18788 O 1811.68 -1.98851 1.12564 0
M  V30 18789 C 1811.89 0.755833 3.40717 0
M  V30 18790 C 1813.24 0.75306 4.17869 0
M  V30 18791 O 1814.26 0.698235 3.49289 0
M  V30 18792 O 1813.12 0.823708 5.40257 0
M  V30 18793 H 1810.21 0.0893898 0.822155 0
M  V30 18794 H 1812.76 0.904729 1.43571 0
M  V30 18795 H 1811.53 1.79757 3.47568 0
M  V30 18796 H 1811.15 0.15622 3.97293 0
M  V30 18797 N 1812.15 -1.46743 0.574835 0
M  V30 18798 C 1813.06 -2.34015 -0.16559 0
M  V30 18799 C 1814.08 -1.49273 -0.894064 0
M  V30 18800 O 1815.25 -1.82162 -0.859013 0
M  V30 18801 C 1812.32 -3.26313 -1.17136 0
M  V30 18802 C 1811.38 -4.26952 -0.448413 0
M  V30 18803 C 1810.61 -5.1484 -1.40627 0
M  V30 18804 O 1810.83 -5.05508 -2.6423 0
M  V30 18805 O 1809.77 -5.9481 -0.921143 0
M  V30 18806 H 1813.59 -2.98664 0.550754 0
M  V30 18807 H 1811.18 -1.45589 0.335297 0
M  V30 18808 H 1813.06 -3.83276 -1.75149 0
M  V30 18809 H 1811.74 -2.64269 -1.86931 0
M  V30 18810 H 1810.64 -3.73698 0.17336 0
M  V30 18811 H 1811.98 -4.91759 0.208419 0
M  V30 18812 N 1813.63 -0.312197 -1.54477 0
M  V30 18813 C 1814.88 0.293192 -1.99962 0
M  V30 18814 C 1815.2 1.53544 -1.20205 0
M  V30 18815 O 1814.47 1.93575 -0.300901 0
M  V30 18816 H 1813.05 0.111325 -0.738658 0
M  V30 18817 H 1815.71 -0.426116 -1.90185 0
M  V30 18818 H 1814.81 0.557482 -3.07081 0
M  V30 18819 N 1815.11 1.57549 -0.040136 0
M  V30 18820 C 1816.05 2.12048 0.955943 0
M  V30 18821 C 1817.05 1.04965 1.32962 0
M  V30 18822 O 1818.25 1.23387 1.31056 0
M  V30 18823 H 1814.63 0.677616 0.326099 0
M  V30 18824 H 1816.6 2.94658 0.471075 0
M  V30 18825 C 1815.35 2.67157 2.22537 0
M  V30 18826 H 1814.67 3.4921 1.9466 0
M  V30 18827 H 1816.11 3.08924 2.90417 0
M  V30 18828 C 1814.57 1.60413 2.96259 0
M  V30 18829 O 1815.1 1.01042 3.88785 0
M  V30 18830 N 1813.31 1.32196 2.58791 0
M  V30 18831 H 1812.85 1.80663 1.83626 0
M  V30 18832 H 1812.81 0.610023 3.08425 0
M  V30 18833 N 1816.58 -0.233136 1.55866 0
M  V30 18834 C 1817.51 -1.29225 1.94482 0
M  V30 18835 C 1818.5 -1.49495 0.811503 0
M  V30 18836 O 1819.68 -1.61872 1.07289 0
M  V30 18837 C 1816.81 -2.64435 2.25147 0
M  V30 18838 C 1815.76 -2.5884 3.4086 0
M  V30 18839 C 1815.09 -3.97973 3.57102 0
M  V30 18840 C 1816.39 -2.14629 4.76164 0
M  V30 18841 H 1818.08 -0.971527 2.83199 0
M  V30 18842 H 1815.63 -0.465905 1.36255 0
M  V30 18843 H 1817.58 -3.38676 2.50752 0
M  V30 18844 H 1816.31 -2.98172 1.33271 0
M  V30 18845 H 1814.97 -1.87057 3.15286 0
M  V30 18846 H 1814.61 -4.28998 2.62621 0
M  V30 18847 H 1814.31 -3.95114 4.34924 0
M  V30 18848 H 1815.84 -4.73893 3.85043 0
M  V30 18849 H 1817.25 -2.78607 5.0105 0
M  V30 18850 H 1815.65 -2.22853 5.57186 0
M  V30 18851 H 1816.72 -1.09826 4.72299 0
M  V30 18852 N 1818.06 -1.49479 -0.499372 0
M  V30 18853 C 1819.29 -1.63025 -1.28209 0
M  V30 18854 C 1819.71 -0.302238 -1.85656 0
M  V30 18855 O 1819.07 0.730355 -1.65938 0
M  V30 18856 C 1819.12 -2.70287 -2.38699 0
M  V30 18857 O 1818.22 -2.29573 -3.42593 0
M  V30 18858 H 1817.56 -0.545605 -0.378432 0
M  V30 18859 H 1820.09 -1.95677 -0.597628 0
M  V30 18860 H 1820.1 -2.92505 -2.84438 0
M  V30 18861 H 1818.78 -3.66684 -1.96253 0
M  V30 18862 H 1817.36 -2.17692 -3.02761 0
M  V30 18863 N 1819.54 0.750537 -1.38581 0
M  V30 18864 C 1820.49 1.86434 -1.36056 0
M  V30 18865 C 1821.46 1.64601 -0.222625 0
M  V30 18866 O 1822.64 1.86225 -0.41533 0
M  V30 18867 C 1819.78 3.23769 -1.19447 0
M  V30 18868 C 1818.9 3.57412 -2.42653 0
M  V30 18869 C 1818.03 4.84067 -2.18751 0
M  V30 18870 C 1817.07 5.10506 -3.37713 0
M  V30 18871 N 1816.21 6.28358 -3.13227 0
M  V30 18872 H 1821.05 1.87927 -2.31274 0
M  V30 18873 H 1818.58 0.91849 -1.14901 0
M  V30 18874 H 1820.54 4.03024 -1.07832 0
M  V30 18875 H 1819.17 3.21595 -0.278665 0
M  V30 18876 H 1818.22 2.72978 -2.64929 0
M  V30 18877 H 1819.54 3.72876 -3.31307 0
M  V30 18878 H 1818.69 5.71271 -2.0429 0
M  V30 18879 H 1817.43 4.70748 -1.27467 0
M  V30 18880 H 1816.43 4.2177 -3.5269 0
M  V30 18881 H 1817.66 5.25721 -4.29877 0
M  V30 18882 H 1815.61 6.16355 -2.24593 0
M  V30 18883 H 1815.52 6.44337 -3.95432 0
M  V30 18884 H 1816.79 7.18441 -3.02428 0
M  V30 18885 N 1821.02 1.235 0.979051 0
M  V30 18886 C 1822.27 1.0658 1.71713 0
M  V30 18887 C 1822.59 -0.397927 1.90897 0
M  V30 18888 O 1821.86 -1.28511 1.47857 0
M  V30 18889 H 1820.44 0.391397 0.636253 0
M  V30 18890 H 1823.1 1.55239 1.17843 0
M  V30 18891 H 1822.2 1.5548 2.70615 0
M  V30 18892 N 1822.5 -1.17802 1.04693 0
M  V30 18893 C 1823.41 -2.25298 0.654072 0
M  V30 18894 C 1824.42 -1.70984 -0.32255 0
M  V30 18895 O 1825.6 -2.0063 -0.175904 0
M  V30 18896 C 1822.66 -3.46687 0.0296345 0
M  V30 18897 C 1821.73 -4.16108 1.05606 0
M  V30 18898 C 1820.96 -5.31702 0.461329 0
M  V30 18899 O 1821.18 -5.65701 -0.730679 0
M  V30 18900 O 1820.12 -5.89956 1.19312 0
M  V30 18901 H 1823.94 -2.61179 1.54982 0
M  V30 18902 H 1821.53 -1.25005 0.818182 0
M  V30 18903 H 1823.41 -4.20201 -0.317654 0
M  V30 18904 H 1822.08 -3.12615 -0.839839 0
M  V30 18905 H 1820.99 -3.44635 1.45526 0
M  V30 18906 H 1822.32 -4.54195 1.89651 0
M  V30 18907 N 1823.98 -0.827251 -1.34143 0
M  V30 18908 C 1825.39 -0.513554 -1.51112 0
M  V30 18909 C 1825.59 0.961434 -1.77084 0
M  V30 18910 O 1824.65 1.74573 -1.82429 0
M  V30 18911 C 1825.96 -1.37683 -2.67327 0
M  V30 18912 C 1827.51 -1.3744 -2.8121 0
M  V30 18913 C 1827.98 -2.22226 -4.00474 0
M  V30 18914 N 1829.47 -2.19873 -4.07689 0
M  V30 18915 C 1830.21 -2.82222 -4.99138 0
M  V30 18916 N 1829.71 -3.53578 -5.95781 0
M  V30 18917 N 1831.5 -2.71753 -4.92043 0
M  V30 18918 H 1823.65 -1.78222 -1.15545 0
M  V30 18919 H 1825.91 -0.759711 -0.567047 0
M  V30 18920 H 1825.62 -2.42448 -2.54778 0
M  V30 18921 H 1825.49 -1.0446 -3.62447 0
M  V30 18922 H 1827.88 -0.334525 -2.93198 0
M  V30 18923 H 1827.96 -1.74663 -1.86886 0
M  V30 18924 H 1827.6 -3.26266 -3.89246 0
M  V30 18925 H 1827.53 -1.82352 -4.9402 0
M  V30 18926 H 1830.03 -1.67972 -3.38517 0
M  V30 18927 H 1830.34 -3.98387 -6.62199 0
M  V30 18928 H 1828.68 -3.57685 -5.95892 0
M  V30 18929 H 1831.87 -2.15579 -4.15504 0
M  V30 18930 H 1832.05 -3.2063 -5.63117 0
M  V30 18931 N 1825.45 1.46436 -0.582609 0
M  V30 18932 C 1826.7 2.02685 -0.0682503 0
M  V30 18933 C 1827.03 1.45315 1.2883 0
M  V30 18934 O 1826.31 0.61821 1.84414 0
M  V30 18935 C 1826.59 3.601 -0.00237797 0
M  V30 18936 C 1826.44 4.27855 -1.38782 0
M  V30 18937 C 1827.76 4.34525 0.69829 0
M  V30 18938 H 1824.88 0.736531 -0.0262761 0
M  V30 18939 H 1827.52 1.7458 -0.749789 0
M  V30 18940 H 1825.67 3.84176 0.57803 0
M  V30 18941 H 1827.35 4.15043 -2.01339 0
M  V30 18942 H 1825.59 3.87221 -1.95557 0
M  V30 18943 H 1826.26 5.36614 -1.2942 0
M  V30 18944 H 1828.74 4.15594 0.205219 0
M  V30 18945 H 1827.61 5.44244 0.71341 0
M  V30 18946 H 1827.87 4.05575 1.75957 0
M  V30 18947 N 1826.93 0.320385 1.54309 0
M  V30 18948 C 1828.35 -0.0323699 1.59567 0
M  V30 18949 C 1828.55 -1.50754 1.33699 0
M  V30 18950 O 1827.6 -2.26308 1.11987 0
M  V30 18951 C 1828.92 0.383001 2.98251 0
M  V30 18952 C 1830.46 0.33339 3.11219 0
M  V30 18953 C 1830.94 0.723874 4.52243 0
M  V30 18954 N 1832.43 0.677156 4.58224 0
M  V30 18955 C 1833.17 0.951531 5.6545 0
M  V30 18956 N 1832.66 1.29288 6.8063 0
M  V30 18957 N 1834.45 0.877303 5.55211 0
M  V30 18958 H 1826.61 1.28155 1.69381 0
M  V30 18959 H 1828.87 0.520887 0.792074 0
M  V30 18960 H 1828.57 1.41067 3.22169 0
M  V30 18961 H 1828.45 -0.253601 3.76347 0
M  V30 18962 H 1830.84 -0.685063 2.87038 0
M  V30 18963 H 1830.92 1.00488 2.35236 0
M  V30 18964 H 1830.56 1.74023 4.77157 0
M  V30 18965 H 1830.49 0.0301039 5.26591 0
M  V30 18966 H 1832.98 0.425055 3.75502 0
M  V30 18967 H 1833.29 1.4877 7.58345 0
M  V30 18968 H 1831.64 1.33111 6.82134 0
M  V30 18969 H 1834.83 0.610144 4.64107 0
M  V30 18970 H 1835 1.09449 6.3869 0
M  V30 18971 N 1828.41 -1.57525 0.0484906 0
M  V30 18972 C 1829.37 -2.10275 -0.911987 0
M  V30 18973 C 1830.37 -1.02178 -1.24163 0
M  V30 18974 O 1831.56 -1.28262 -1.17875 0
M  V30 18975 C 1828.69 -2.58475 -2.22269 0
M  V30 18976 H 1829.89 -2.96432 -0.454768 0
M  V30 18977 H 1827.44 -1.55017 -0.19987 0
M  V30 18978 H 1828.18 -1.75704 -2.72578 0
M  V30 18979 H 1827.96 -3.37466 -1.99648 0
M  V30 18980 H 1829.45 -2.99443 -2.91074 0
M  V30 18981 N 1829.89 0.224867 -1.55988 0
M  V30 18982 C 1831.13 0.946775 -1.80021 0
M  V30 18983 C 1831.49 1.82104 -0.620957 0
M  V30 18984 O 1830.78 1.8769 0.385108 0
M  V30 18985 C 1830.98 1.8227 -3.07429 0
M  V30 18986 C 1830.8 1.03472 -4.37634 0
M  V30 18987 C 1829.57 0.730974 -4.99985 0
M  V30 18988 C 1831.77 0.401622 -5.12729 0
M  V30 18989 N 1829.75 -0.0787572 -6.13849 0
M  V30 18990 C 1831.13 -0.271655 -6.19405 0
M  V30 18991 C 1833.18 0.314318 -4.96907 0
M  V30 18992 C 1831.88 -1.02388 -7.11976 0
M  V30 18993 C 1833.91 -0.424434 -5.89875 0
M  V30 18994 C 1833.27 -1.08627 -6.95974 0
M  V30 18995 H 1829.37 0.326825 -0.710429 0
M  V30 18996 H 1831.95 0.217939 -1.93476 0
M  V30 18997 H 1830.13 2.52338 -2.95263 0
M  V30 18998 H 1831.86 2.48183 -3.19668 0
M  V30 18999 H 1828.61 1.04818 -4.61855 0
M  V30 19000 H 1829.04 -0.472361 -6.7535 0
M  V30 19001 H 1833.68 0.811656 -4.14936 0
M  V30 19002 H 1831.4 -1.53275 -7.93431 0
M  V30 19003 H 1834.98 -0.492945 -5.79708 0
M  V30 19004 H 1833.86 -1.64877 -7.66672 0
M  V30 19005 N 1831.37 1.49742 0.491438 0
M  V30 19006 C 1832.61 1.58956 1.24161 0
M  V30 19007 C 1832.93 0.285882 1.935 0
M  V30 19008 O 1834.13 0.256678 2.70284 0
M  V30 19009 C 1832.59 2.805 2.25494 0
M  V30 19010 C 1832.2 4.17664 1.62051 0
M  V30 19011 C 1833.94 2.99049 3.0128 0
M  V30 19012 C 1831.85 5.3042 2.61551 0
M  V30 19013 H 1830.78 0.591883 0.467108 0
M  V30 19014 H 1833.43 1.76144 0.514364 0
M  V30 19015 H 1831.81 2.56827 3.01423 0
M  V30 19016 H 1832.99 4.51512 0.9205 0
M  V30 19017 H 1831.3 4.04553 0.986211 0
M  V30 19018 H 1833.9 3.80458 3.75707 0
M  V30 19019 H 1834.24 2.0998 3.59464 0
M  V30 19020 H 1834.77 3.22807 2.32466 0
M  V30 19021 H 1831.51 6.21579 2.08135 0
M  V30 19022 H 1831.03 5.01014 3.29765 0
M  V30 19023 H 1832.71 5.60152 3.23789 0
M  V30 19024 N 1832.84 -0.743177 1.38977 0
M  V30 19025 C 1834.26 -1.04764 1.20402 0
M  V30 19026 C 1834.46 -2.01411 0.0599139 0
M  V30 19027 O 1833.52 -2.45485 -0.591026 0
M  V30 19028 C 1834.83 -1.61775 2.53474 0
M  V30 19029 C 1836.38 -1.73896 2.60248 0
M  V30 19030 C 1836.85 -2.34318 3.93522 0
M  V30 19031 N 1838.34 -2.41737 3.95117 0
M  V30 19032 C 1839.08 -2.89407 4.95006 0
M  V30 19033 N 1838.57 -3.37034 6.05293 0
M  V30 19034 N 1840.37 -2.88542 4.8239 0
M  V30 19035 H 1832.52 -0.102036 2.12155 0
M  V30 19036 H 1834.78 -0.107893 0.94184 0
M  V30 19037 H 1834.49 -0.982274 3.37704 0
M  V30 19038 H 1834.36 -2.60696 2.72612 0
M  V30 19039 H 1836.75 -2.36568 1.76407 0
M  V30 19040 H 1836.83 -0.736509 2.44968 0
M  V30 19041 H 1836.47 -1.72276 4.7779 0
M  V30 19042 H 1836.4 -3.35224 4.06119 0
M  V30 19043 H 1838.89 -2.08064 3.15464 0
M  V30 19044 H 1839.21 -3.71895 6.77432 0
M  V30 19045 H 1837.55 -3.35064 6.08898 0
M  V30 19046 H 1840.74 -2.50651 3.95337 0
M  V30 19047 H 1840.92 -3.25379 5.60386 0
M  V30 19048 N 1834.32 -1.24018 -0.972487 0
M  V30 19049 C 1835.29 -1.02941 -2.04782 0
M  V30 19050 C 1836.29 0.0115861 -1.60796 0
M  V30 19051 O 1837.48 -0.228922 -1.72689 0
M  V30 19052 C 1834.61 -0.559246 -3.36282 0
M  V30 19053 H 1835.8 -1.98379 -2.24913 0
M  V30 19054 H 1833.35 -1.06173 -1.14704 0
M  V30 19055 H 1834.09 0.398545 -3.21842 0
M  V30 19056 H 1833.87 -1.31054 -3.6955 0
M  V30 19057 H 1835.36 -0.432669 -4.15353 0
M  V30 19058 N 1835.8 1.17245 -1.05316 0
M  V30 19059 C 1837.22 1.39535 -0.774741 0
M  V30 19060 C 1837.42 1.91388 0.63031 0
M  V30 19061 O 1836.47 2.10631 1.39251 0
M  V30 19062 C 1837.79 2.38497 -1.83139 0
M  V30 19063 C 1839.33 2.52201 -1.85375 0
M  V30 19064 C 1839.81 3.54437 -2.90066 0
M  V30 19065 N 1841.3 3.61956 -2.89037 0
M  V30 19066 C 1842.03 4.40824 -3.66691 0
M  V30 19067 N 1841.53 5.23196 -4.54134 0
M  V30 19068 N 1843.32 4.35709 -3.55125 0
M  V30 19069 H 1835.47 0.819186 -1.95967 0
M  V30 19070 H 1837.74 0.422515 -0.848637 0
M  V30 19071 H 1837.44 2.07471 -2.83987 0
M  V30 19072 H 1837.32 3.38016 -1.67407 0
M  V30 19073 H 1839.7 2.82536 -0.851904 0
M  V30 19074 H 1839.79 1.52751 -2.05184 0
M  V30 19075 H 1839.43 3.2484 -3.90437 0
M  V30 19076 H 1839.36 4.53593 -2.67508 0
M  V30 19077 H 1841.85 3.03146 -2.25635 0
M  V30 19078 H 1842.16 5.80562 -5.10067 0
M  V30 19079 H 1840.51 5.22573 -4.58194 0
M  V30 19080 H 1843.7 3.70411 -2.86205 0
M  V30 19081 H 1843.87 4.9693 -4.1589 0
M  V30 19082 N 1837.28 0.834353 1.33702 0
M  V30 19083 C 1838.21 0.279313 2.31823 0
M  V30 19084 C 1839.19 -0.610495 1.58767 0
M  V30 19085 O 1840.37 -0.534989 1.86686 0
M  V30 19086 C 1837.5 -0.550201 3.42914 0
M  V30 19087 C 1836.46 0.243432 4.27307 0
M  V30 19088 C 1835.78 -0.709548 5.29971 0
M  V30 19089 C 1837.08 1.45799 5.01537 0
M  V30 19090 H 1838.78 1.09915 2.78494 0
M  V30 19091 H 1836.32 0.529987 1.33892 0
M  V30 19092 H 1838.28 -0.948764 4.10581 0
M  V30 19093 H 1837 -1.4032 2.9492 0
M  V30 19094 H 1835.66 0.6235 3.61259 0
M  V30 19095 H 1835.31 -1.55882 4.78236 0
M  V30 19096 H 1835.01 -0.182671 5.87316 0
M  V30 19097 H 1836.53 -1.10572 6.00505 0
M  V30 19098 H 1837.95 1.13283 5.61996 0
M  V30 19099 H 1836.34 1.92133 5.68511 0
M  V30 19100 H 1837.41 2.23016 4.30571 0
M  V30 19101 N 1838.76 -1.46125 0.590367 0
M  V30 19102 C 1840.17 -1.85962 0.165876 0
M  V30 19103 C 1840.52 -1.49296 -1.27299 0
M  V30 19104 O 1839.64 -0.911461 -1.96269 0
M  V30 19105 C 1840.24 -3.3752 0.294262 0
M  V30 19106 C 1838.8 -3.76324 -0.0754118 0
M  V30 19107 C 1837.94 -2.70126 0.626682 0
M  V30 19108 H 1840.9 -1.3717 0.79812 0
M  V30 19109 H 1840.92 -3.77482 -0.4783 0
M  V30 19110 H 1840.43 -3.64175 1.34159 0
M  V30 19111 H 1838.53 -3.55287 -1.12258 0
M  V30 19112 H 1838.64 -4.7812 0.306241 0
M  V30 19113 H 1837.01 -2.54614 0.0661219 0
M  V30 19114 H 1837.79 -2.99619 1.6758 0
M  V30 19115 N 1840.23 -0.328564 -1.54137 0
M  V30 19116 C 1841.2 0.52248 -2.23165 0
M  V30 19117 C 1842.2 1.03956 -1.22677 0
M  V30 19118 O 1843.39 0.931193 -1.47222 0
M  V30 19119 C 1840.52 1.72624 -2.93962 0
M  V30 19120 H 1841.71 -0.081023 -2.99791 0
M  V30 19121 H 1839.27 -0.0797096 -1.56097 0
M  V30 19122 H 1840 2.36885 -2.21486 0
M  V30 19123 H 1839.79 1.36283 -3.67654 0
M  V30 19124 H 1841.28 2.33023 -3.4654 0
M  V30 19125 N 1841.71 1.57497 -0.0568439 0
M  V30 19126 C 1842.95 1.94786 0.619497 0
M  V30 19127 C 1843.32 0.935411 1.67673 0
M  V30 19128 O 1844.52 1.19543 2.40755 0
M  V30 19129 C 1842.79 3.3683 1.19499 0
M  V30 19130 S 1844.35 3.9608 1.88855 0
M  V30 19131 H 1841.17 0.681327 0.20326 0
M  V30 19132 H 1843.77 1.95086 -0.127134 0
M  V30 19133 H 1842.47 4.08312 0.413488 0
M  V30 19134 H 1842 3.40038 1.97832 0
M  V30 19135 H 1844.02 3.81767 3.16967 0
M  V30 19136 N 1843.19 -0.216591 1.56105 0
M  V30 19137 C 1844.43 -0.947261 1.81125 0
M  V30 19138 C 1844.79 -1.81331 0.631108 0
M  V30 19139 O 1846 -2.57811 0.760726 0
M  V30 19140 C 1844.27 -1.75991 3.11066 0
M  V30 19141 S 1845.83 -2.54554 3.57418 0
M  V30 19142 H 1842.64 -0.318109 0.635868 0
M  V30 19143 H 1845.25 -0.212416 1.94343 0
M  V30 19144 H 1843.95 -1.1139 3.94994 0
M  V30 19145 H 1843.48 -2.53696 3.00669 0
M  V30 19146 H 1845.5 -3.78256 3.21149 0
M  V30 19147 N 1844.67 -1.5 -0.48349 0
M  V30 19148 C 1845.6 -1.70879 -1.5913 0
M  V30 19149 C 1846.58 -0.557606 -1.60701 0
M  V30 19150 O 1847.76 -0.79539 -1.77164 0
M  V30 19151 C 1844.89 -1.7915 -2.97527 0
M  V30 19152 C 1843.85 -2.94233 -3.10823 0
M  V30 19153 C 1843.17 -2.87634 -4.50745 0
M  V30 19154 C 1844.47 -4.34925 -2.89202 0
M  V30 19155 H 1846.17 -2.63632 -1.41911 0
M  V30 19156 H 1843.71 -1.26865 -0.68127 0
M  V30 19157 H 1845.67 -1.92342 -3.74943 0
M  V30 19158 H 1844.39 -0.830106 -3.15875 0
M  V30 19159 H 1843.05 -2.80672 -2.35837 0
M  V30 19160 H 1842.7 -1.89365 -4.65993 0
M  V30 19161 H 1842.4 -3.64885 -4.60579 0
M  V30 19162 H 1843.92 -3.02857 -5.30198 0
M  V30 19163 H 1845.34 -4.49076 -3.56376 0
M  V30 19164 H 1843.73 -5.13531 -3.10492 0
M  V30 19165 H 1844.8 -4.48154 -1.85165 0
M  V30 19166 N 1846.15 0.735796 -1.39369 0
M  V30 19167 C 1847.06 1.88026 -1.40298 0
M  V30 19168 C 1848.07 1.71431 -0.297878 0
M  V30 19169 O 1849.25 1.94047 -0.539219 0
M  V30 19170 C 1846.31 3.23607 -1.24415 0
M  V30 19171 C 1845.37 3.52601 -2.4489 0
M  V30 19172 C 1844.61 4.81714 -2.29755 0
M  V30 19173 O 1844.83 5.55374 -1.30061 0
M  V30 19174 O 1843.76 5.10588 -3.18722 0
M  V30 19175 H 1847.59 1.90197 -2.36767 0
M  V30 19176 H 1845.18 0.883504 -1.20476 0
M  V30 19177 H 1847.06 4.04633 -1.17688 0
M  V30 19178 H 1845.73 3.22208 -0.310409 0
M  V30 19179 H 1844.64 2.71665 -2.57194 0
M  V30 19180 H 1845.97 3.58778 -3.36955 0
M  V30 19181 N 1847.63 1.24532 0.965897 0
M  V30 19182 C 1849.04 1.0111 1.23486 0
M  V30 19183 C 1849.24 -0.278989 1.99559 0
M  V30 19184 O 1848.3 -0.99467 2.32083 0
M  V30 19185 C 1849.61 2.22726 2.02024 0
M  V30 19186 C 1851.16 2.27369 2.1511 0
M  V30 19187 C 1851.63 3.48611 2.97043 0
M  V30 19188 N 1853.12 3.48938 3.04625 0
M  V30 19189 C 1853.86 4.3941 3.68384 0
M  V30 19190 N 1853.36 5.40138 4.33847 0
M  V30 19191 N 1855.15 4.27117 3.65414 0
M  V30 19192 H 1847.3 2.07433 0.456674 0
M  V30 19193 H 1849.56 0.91037 0.264443 0
M  V30 19194 H 1849.27 3.16427 1.53515 0
M  V30 19195 H 1849.14 2.24989 3.02754 0
M  V30 19196 H 1851.53 1.34198 2.62821 0
M  V30 19197 H 1851.61 2.29131 1.13722 0
M  V30 19198 H 1851.25 4.42097 2.50025 0
M  V30 19199 H 1851.18 3.44093 3.98632 0
M  V30 19200 H 1853.68 2.76067 2.58061 0
M  V30 19201 H 1853.99 6.05402 4.80321 0
M  V30 19202 H 1852.33 5.44022 4.3251 0
M  V30 19203 H 1855.52 3.47659 3.1345 0
M  V30 19204 H 1855.7 4.97824 4.1482 0
M  V30 19205 N 1849.1 -1.16685 1.05936 0
M  V30 19206 C 1850.38 -1.8312 0.6875 0
M  V30 19207 C 1850.76 -1.94035 -0.831474 0
M  V30 19208 O 1850.11 -1.48067 -1.74036 0
M  V30 19209 C 1850.32 -3.20331 1.38524 0
M  V30 19210 C 1851.67 -3.96149 1.52811 0
M  V30 19211 O 1852.69 -3.29837 1.34485 0
M  V30 19212 O 1851.55 -5.15005 1.82845 0
M  V30 19213 H 1848.64 -0.790513 0.242937 0
M  V30 19214 H 1851.19 -1.23918 1.15941 0
M  V30 19215 H 1849.96 -3.074 2.42118 0
M  V30 19216 H 1849.58 -3.87206 0.903164 0
M  V30 19217 N 1850.58 -0.841432 -1.33258 0
M  V30 19218 C 1851.81 -0.45101 -2.02437 0
M  V30 19219 C 1852.23 0.940811 -1.62881 0
M  V30 19220 O 1851.59 1.61559 -0.82271 0
M  V30 19221 C 1851.64 -0.58237 -3.55866 0
M  V30 19222 O 1850.74 0.390326 -4.10549 0
M  V30 19223 H 1850.08 -0.182996 -0.638285 0
M  V30 19224 H 1852.61 -1.13697 -1.701 0
M  V30 19225 H 1852.62 -0.464967 -4.05342 0
M  V30 19226 H 1851.3 -1.59739 -3.84 0
M  V30 19227 H 1849.87 0.230266 -3.72188 0
M  V30 19228 N 1852.06 1.4581 -0.598108 0
M  V30 19229 C 1853.31 2.03163 -0.0981368 0
M  V30 19230 C 1853.66 1.45942 1.25374 0
M  V30 19231 O 1852.95 0.620981 1.81258 0
M  V30 19232 C 1853.15 3.57399 0.00976809 0
M  V30 19233 C 1852.98 4.29579 -1.3301 0
M  V30 19234 C 1851.75 4.6788 -1.90831 0
M  V30 19235 C 1853.94 4.62141 -2.25677 0
M  V30 19236 N 1851.93 5.24878 -3.18397 0
M  V30 19237 C 1853.3 5.19872 -3.37836 0
M  V30 19238 C 1855.35 4.44077 -2.25167 0
M  V30 19239 C 1854.06 5.61443 -4.49639 0
M  V30 19240 C 1856.08 4.86674 -3.36009 0
M  V30 19241 C 1855.44 5.44489 -4.4689 0
M  V30 19242 H 1851.54 0.777994 -0.0790554 0
M  V30 19243 H 1854.13 1.77757 -0.794384 0
M  V30 19244 H 1852.3 3.82486 0.675215 0
M  V30 19245 H 1854.03 4.01403 0.515531 0
M  V30 19246 H 1850.78 4.51131 -1.44145 0
M  V30 19247 H 1851.21 5.57884 -3.83529 0
M  V30 19248 H 1855.85 3.987 -1.40706 0
M  V30 19249 H 1853.57 6.0579 -5.34831 0
M  V30 19250 H 1857.15 4.74437 -3.36751 0
M  V30 19251 H 1856.03 5.76846 -5.31243 0
M  V30 19252 N 1853.54 0.336733 1.53961 0
M  V30 19253 C 1854.76 -0.26614 2.05685 0
M  V30 19254 C 1855.19 -1.43973 1.21051 0
M  V30 19255 O 1854.55 -1.79928 0.222652 0
M  V30 19256 C 1854.59 -0.66571 3.54402 0
M  V30 19257 O 1853.7 -1.76656 3.72648 0
M  V30 19258 H 1853.04 -0.0455655 0.662435 0
M  V30 19259 H 1855.57 0.488969 1.98671 0
M  V30 19260 H 1855.58 -0.944748 3.96911 0
M  V30 19261 H 1854.25 0.192589 4.15454 0
M  V30 19262 H 1852.83 -1.48531 3.42042 0
M  V30 19263 N 1855.02 -1.57465 0.0651956 0
M  V30 19264 C 1855.98 -2.1123 -0.889634 0
M  V30 19265 C 1856.98 -1.03489 -1.23072 0
M  V30 19266 O 1858.17 -1.29505 -1.16508 0
M  V30 19267 C 1855.3 -2.60818 -2.19515 0
M  V30 19268 H 1856.49 -2.96898 -0.423301 0
M  V30 19269 H 1854.05 -1.5522 -0.183417 0
M  V30 19270 H 1854.78 -1.78585 -2.70699 0
M  V30 19271 H 1854.57 -3.39564 -1.96057 0
M  V30 19272 H 1856.06 -3.02513 -2.87881 0
M  V30 19273 N 1856.49 0.20831 -1.56217 0
M  V30 19274 C 1857.72 0.945898 -1.83675 0
M  V30 19275 C 1858.13 1.77908 -0.643841 0
M  V30 19276 O 1857.47 1.79361 0.396885 0
M  V30 19277 C 1857.54 1.90219 -3.05052 0
M  V30 19278 C 1857.2 1.25224 -4.39509 0
M  V30 19279 C 1858.2 0.635617 -5.16 0
M  V30 19280 C 1855.88 1.26005 -4.86239 0
M  V30 19281 C 1857.88 0.0354655 -6.3739 0
M  V30 19282 C 1855.56 0.656058 -6.07568 0
M  V30 19283 C 1856.56 0.0448326 -6.82985 0
M  V30 19284 O 1856.25 -0.549727 -8.02018 0
M  V30 19285 H 1855.98 0.282151 -0.614302 0
M  V30 19286 H 1858.54 0.224595 -2.04168 0
M  V30 19287 H 1856.77 2.66284 -2.8041 0
M  V30 19288 H 1858.45 2.50644 -3.19268 0
M  V30 19289 H 1859.22 0.62182 -4.80997 0
M  V30 19290 H 1855.1 1.72519 -4.27502 0
M  V30 19291 H 1858.64 -0.442232 -6.96197 0
M  V30 19292 H 1854.54 0.667312 -6.42041 0
M  V30 19293 H 1855.31 -0.445338 -8.17288 0
M  V30 19294 N 1857.97 1.50255 0.475528 0
M  V30 19295 C 1859.22 1.60263 1.22468 0
M  V30 19296 C 1859.53 0.306389 1.93185 0
M  V30 19297 O 1860.74 0.285331 2.69997 0
M  V30 19298 C 1859.2 2.82876 2.22506 0
M  V30 19299 C 1858.8 4.19359 1.57612 0
M  V30 19300 C 1860.55 3.02228 2.98091 0
M  V30 19301 C 1858.45 5.33164 2.55911 0
M  V30 19302 H 1857.38 0.596804 0.460804 0
M  V30 19303 H 1860.04 1.76679 0.495653 0
M  V30 19304 H 1858.42 2.6001 2.98682 0
M  V30 19305 H 1859.59 4.52463 0.872559 0
M  V30 19306 H 1857.91 4.05576 0.943247 0
M  V30 19307 H 1860.5 3.84422 3.7165 0
M  V30 19308 H 1860.85 2.13781 3.57216 0
M  V30 19309 H 1861.38 3.25255 2.29029 0
M  V30 19310 H 1858.12 6.23751 2.01531 0
M  V30 19311 H 1857.64 5.04484 3.24432 0
M  V30 19312 H 1859.32 5.63554 3.17829 0
M  V30 19313 N 1859.45 -0.728395 1.39758 0
M  V30 19314 C 1860.7 -1.48808 1.37341 0
M  V30 19315 C 1861.02 -1.94479 -0.0285032 0
M  V30 19316 O 1860.28 -1.67586 -1.01062 0
M  V30 19317 C 1860.58 -2.73735 2.29791 0
M  V30 19318 C 1860.24 -2.46897 3.77296 0
M  V30 19319 C 1858.91 -2.39287 4.17487 0
M  V30 19320 C 1861.26 -2.24097 4.70564 0
M  V30 19321 C 1858.59 -2.06927 5.48997 0
M  V30 19322 C 1860.94 -1.93252 6.02359 0
M  V30 19323 C 1859.6 -1.84115 6.41606 0
M  V30 19324 H 1858.87 -0.544527 0.502565 0
M  V30 19325 H 1861.52 -0.835461 1.72315 0
M  V30 19326 H 1859.82 -3.43772 1.87957 0
M  V30 19327 H 1861.52 -3.31785 2.2521 0
M  V30 19328 H 1858.11 -2.53701 3.45447 0
M  V30 19329 H 1862.3 -2.28939 4.40341 0
M  V30 19330 H 1857.55 -1.98381 5.78321 0
M  V30 19331 H 1861.73 -1.7462 6.74152 0
M  V30 19332 H 1859.35 -1.58807 7.43427 0
M  V30 19333 N 1860.93 -1.25042 -0.959279 0
M  V30 19334 C 1862.34 -1.08692 -1.51799 0
M  V30 19335 C 1862.69 0.338893 -1.93251 0
M  V30 19336 O 1861.81 1.22831 -1.78162 0
M  V30 19337 C 1862.41 -1.9669 -2.7586 0
M  V30 19338 C 1860.97 -1.84538 -3.28059 0
M  V30 19339 C 1860.12 -1.91119 -2.0092 0
M  V30 19340 H 1863.07 -1.38396 -0.776669 0
M  V30 19341 H 1863.09 -1.50414 -3.49508 0
M  V30 19342 H 1862.6 -3.00455 -2.45659 0
M  V30 19343 H 1860.7 -0.836383 -3.63091 0
M  V30 19344 H 1860.81 -2.69095 -3.96389 0
M  V30 19345 H 1859.18 -1.34948 -2.16012 0
M  V30 19346 H 1859.96 -2.9648 -1.73074 0
M  V30 19347 N 1862.41 1.16121 -1.06553 0
M  V30 19348 C 1863.82 1.68319 -0.807804 0
M  V30 19349 C 1864.17 1.8447 0.668234 0
M  V30 19350 O 1863.29 1.54215 1.51811 0
M  V30 19351 C 1863.89 3.05738 -1.45979 0
M  V30 19352 C 1862.45 3.55046 -1.24977 0
M  V30 19353 C 1861.59 2.30965 -1.53462 0
M  V30 19354 H 1864.55 1.00447 -1.22866 0
M  V30 19355 H 1864.57 3.70266 -0.876556 0
M  V30 19356 H 1864.08 2.93951 -2.53405 0
M  V30 19357 H 1862.18 3.72087 -0.195367 0
M  V30 19358 H 1862.29 4.36979 -1.96433 0
M  V30 19359 H 1860.66 2.36107 -0.955268 0
M  V30 19360 H 1861.44 2.21773 -2.62052 0
M  V30 19361 N 1863.88 0.848487 1.3281 0
M  V30 19362 C 1864.82 0.245947 2.27877 0
M  V30 19363 C 1865.83 -0.578811 1.52163 0
M  V30 19364 O 1867.02 -0.404308 1.73861 0
M  V30 19365 C 1864.12 -0.671584 3.32179 0
M  V30 19366 C 1863.29 0.115958 4.37246 0
M  V30 19367 C 1862.35 -0.726387 5.21162 0
M  V30 19368 O 1861.38 -0.162121 5.68969 0
M  V30 19369 N 1862.58 -2.04216 5.43393 0
M  V30 19370 H 1865.34 1.06281 2.80222 0
M  V30 19371 H 1862.9 0.707872 1.45605 0
M  V30 19372 H 1864.9 -1.2403 3.85225 0
M  V30 19373 H 1863.47 -1.38914 2.80039 0
M  V30 19374 H 1862.69 0.866084 3.84568 0
M  V30 19375 H 1863.97 0.657126 5.04539 0
M  V30 19376 H 1863.37 -2.52401 5.06271 0
M  V30 19377 H 1861.93 -2.55914 5.99459 0
M  V30 19378 N 1865.36 -1.4549 0.605832 0
M  V30 19379 C 1866.59 -2.07135 0.104838 0
M  V30 19380 C 1867.01 -1.4478 -1.20085 0
M  V30 19381 O 1866.37 -0.539875 -1.73075 0
M  V30 19382 C 1866.42 -3.60593 -0.0231858 0
M  V30 19383 O 1865.52 -3.98173 -1.07386 0
M  V30 19384 H 1864.86 -0.659945 0.0732691 0
M  V30 19385 H 1867.39 -1.8677 0.835343 0
M  V30 19386 H 1867.4 -4.07396 -0.221964 0
M  V30 19387 H 1866.08 -4.05364 0.930211 0
M  V30 19388 H 1864.66 -3.63044 -0.851689 0
M  V30 19389 N 1866.84 -0.344893 -1.5378 0
M  V30 19390 C 1868.26 0.00698009 -1.59598 0
M  V30 19391 C 1868.46 1.48608 -1.36081 0
M  V30 19392 O 1867.51 2.24498 -1.15573 0
M  V30 19393 C 1868.83 -0.430402 -2.97604 0
M  V30 19394 C 1870.37 -0.38286 -3.1065 0
M  V30 19395 C 1870.85 -0.795731 -4.51035 0
M  V30 19396 N 1872.34 -0.74997 -4.57088 0
M  V30 19397 C 1873.07 -1.04137 -5.63864 0
M  V30 19398 N 1872.57 -1.401 -6.78487 0
M  V30 19399 N 1874.36 -0.965521 -5.53746 0
M  V30 19400 H 1866.51 -1.30834 -1.67321 0
M  V30 19401 H 1868.78 -0.533422 -0.783686 0
M  V30 19402 H 1868.48 -1.46174 -3.19884 0
M  V30 19403 H 1868.36 0.193696 -3.76702 0
M  V30 19404 H 1870.74 0.639311 -2.88092 0
M  V30 19405 H 1870.83 -1.04218 -2.33607 0
M  V30 19406 H 1870.47 -1.81592 -4.74328 0
M  V30 19407 H 1870.4 -0.113876 -5.26477 0
M  V30 19408 H 1872.89 -0.48474 -3.74778 0
M  V30 19409 H 1873.2 -1.60815 -7.55882 0
M  V30 19410 H 1871.55 -1.43946 -6.7993 0
M  V30 19411 H 1874.74 -0.683902 -4.63077 0
M  V30 19412 H 1874.91 -1.19596 -6.36868 0
M  V30 19413 N 1868.32 1.57428 -0.0735454 0
M  V30 19414 C 1869.57 1.93556 0.595172 0
M  V30 19415 C 1869.89 0.95371 1.69513 0
M  V30 19416 O 1869.15 -0.0303731 1.95676 0
M  V30 19417 C 1869.45 3.36302 1.20978 0
M  V30 19418 C 1869.11 4.50283 0.235791 0
M  V30 19419 C 1867.78 4.81189 -0.0321575 0
M  V30 19420 C 1870.13 5.19419 -0.430452 0
M  V30 19421 C 1867.46 5.78569 -0.973406 0
M  V30 19422 C 1869.81 6.17807 -1.36003 0
M  V30 19423 C 1868.47 6.4713 -1.63643 0
M  V30 19424 H 1867.74 0.708272 0.217789 0
M  V30 19425 H 1870.39 1.90952 -0.144794 0
M  V30 19426 H 1868.69 3.3538 2.02552 0
M  V30 19427 H 1870.39 3.61546 1.73452 0
M  V30 19428 H 1866.98 4.2618 0.454817 0
M  V30 19429 H 1871.16 4.95736 -0.23656 0
M  V30 19430 H 1866.42 5.99612 -1.19478 0
M  V30 19431 H 1870.59 6.70481 -1.88222 0
M  V30 19432 H 1868.22 7.22398 -2.36738 0
M  V30 19433 N 1869.8 -0.200022 1.56326 0
M  V30 19434 C 1871.21 -0.550653 1.498 0
M  V30 19435 C 1871.41 -1.86097 0.772664 0
M  V30 19436 O 1870.47 -2.50449 0.321155 0
M  V30 19437 C 1871.78 -0.60995 2.94449 0
M  V30 19438 C 1873.33 -0.699119 3.05092 0
M  V30 19439 C 1873.8 -0.78957 4.51143 0
M  V30 19440 N 1875.3 -0.853228 4.55274 0
M  V30 19441 C 1876.03 -0.943298 5.65588 0
M  V30 19442 N 1875.53 -0.995976 6.85603 0
M  V30 19443 N 1877.32 -0.980106 5.53489 0
M  V30 19444 H 1869.47 0.659543 2.019 0
M  V30 19445 H 1871.73 0.234299 0.91859 0
M  V30 19446 H 1871.44 0.283651 3.50554 0
M  V30 19447 H 1871.31 -1.46632 3.47533 0
M  V30 19448 H 1873.7 -1.58315 2.49039 0
M  V30 19449 H 1873.78 0.183351 2.55142 0
M  V30 19450 H 1873.43 0.0900924 5.0782 0
M  V30 19451 H 1873.36 -1.68777 4.9882 0
M  V30 19452 H 1875.85 -0.821964 3.68853 0
M  V30 19453 H 1876.16 -1.06508 7.65425 0
M  V30 19454 H 1874.5 -0.964738 6.88272 0
M  V30 19455 H 1877.7 -0.935755 4.58652 0
M  V30 19456 H 1877.87 -1.04684 6.39488 0
M  V30 19457 N 1871.27 -1.50505 -0.467553 0
M  V30 19458 C 1872.2 -1.72558 -1.57309 0
M  V30 19459 C 1873.19 -0.574619 -1.601 0
M  V30 19460 O 1874.37 -0.814135 -1.76311 0
M  V30 19461 C 1871.5 -1.82296 -2.9561 0
M  V30 19462 C 1870.45 -2.97513 -3.07685 0
M  V30 19463 C 1869.78 -2.92398 -4.47669 0
M  V30 19464 C 1871.08 -4.37968 -2.84573 0
M  V30 19465 H 1872.77 -2.65122 -1.39107 0
M  V30 19466 H 1870.32 -1.2758 -0.667776 0
M  V30 19467 H 1872.27 -1.96308 -3.72882 0
M  V30 19468 H 1871 -0.863562 -3.14976 0
M  V30 19469 H 1869.66 -2.83157 -2.32847 0
M  V30 19470 H 1869.3 -1.94297 -4.63959 0
M  V30 19471 H 1869 -3.69749 -4.56683 0
M  V30 19472 H 1870.53 -3.08464 -5.26956 0
M  V30 19473 H 1871.94 -4.52831 -3.51593 0
M  V30 19474 H 1870.34 -5.16796 -3.05028 0
M  V30 19475 H 1871.41 -4.50093 -1.80402 0
M  V30 19476 N 1872.75 0.720973 -1.40142 0
M  V30 19477 C 1873.68 1.84799 -1.42729 0
M  V30 19478 C 1874.66 1.67629 -0.288866 0
M  V30 19479 O 1875.85 1.8774 -0.496713 0
M  V30 19480 C 1872.98 3.22699 -1.28385 0
M  V30 19481 C 1871.93 3.54532 -2.39773 0
M  V30 19482 C 1871.26 4.91518 -2.10509 0
M  V30 19483 C 1872.56 3.56077 -3.82108 0
M  V30 19484 H 1874.25 1.82892 -2.37046 0
M  V30 19485 H 1871.8 0.8785 -1.14098 0
M  V30 19486 H 1873.75 4.0123 -1.28812 0
M  V30 19487 H 1872.48 3.25169 -0.305408 0
M  V30 19488 H 1871.13 2.78338 -2.38586 0
M  V30 19489 H 1870.78 4.90584 -1.11069 0
M  V30 19490 H 1870.48 5.13783 -2.85132 0
M  V30 19491 H 1872.01 5.72389 -2.1261 0
M  V30 19492 H 1873.42 4.24657 -3.85148 0
M  V30 19493 H 1871.82 3.89866 -4.56207 0
M  V30 19494 H 1872.89 2.55576 -4.12079 0
M  V30 19495 N 1874.23 1.25549 0.952634 0
M  V30 19496 C 1875.47 1.11623 1.7123 0
M  V30 19497 C 1875.83 -0.336737 1.89024 0
M  V30 19498 O 1877.04 -0.597864 2.62067 0
M  V30 19499 C 1875.31 1.85192 3.05677 0
M  V30 19500 S 1876.87 1.87182 3.96873 0
M  V30 19501 H 1873.68 0.398936 0.588533 0
M  V30 19502 H 1876.29 1.59103 1.13607 0
M  V30 19503 H 1874.99 2.89995 2.90398 0
M  V30 19504 H 1874.52 1.38108 3.68361 0
M  V30 19505 H 1876.54 0.950292 4.87015 0
M  V30 19506 N 1875.71 -1.15554 1.07168 0
M  V30 19507 C 1876.66 -2.18233 0.660183 0
M  V30 19508 C 1877.64 -1.57812 -0.313726 0
M  V30 19509 O 1878.83 -1.76538 -0.127752 0
M  V30 19510 C 1875.96 -3.43252 0.0575371 0
M  V30 19511 C 1875.05 -4.1073 1.05647 0
M  V30 19512 N 1875.44 -4.53725 2.23534 0
M  V30 19513 C 1873.74 -4.37042 0.88939 0
M  V30 19514 C 1874.44 -5.06031 2.86893 0
M  V30 19515 N 1873.42 -4.99461 2.14569 0
M  V30 19516 H 1877.22 -2.49202 1.55807 0
M  V30 19517 H 1874.73 -1.32102 0.944606 0
M  V30 19518 H 1876.73 -4.16119 -0.255147 0
M  V30 19519 H 1875.39 -3.13767 -0.835491 0
M  V30 19520 H 1876.4 -4.47172 2.61262 0
M  V30 19521 H 1873.08 -4.17471 0.0491001 0
M  V30 19522 H 1874.47 -5.4927 3.86978 0
M  V30 19523 N 1877.19 -0.855519 -1.32358 0
M  V30 19524 C 1878.6 -0.545491 -1.49989 0
M  V30 19525 C 1878.8 0.923656 -1.79083 0
M  V30 19526 O 1877.86 1.70664 -1.86091 0
M  V30 19527 C 1879.17 -1.43323 -2.64347 0
M  V30 19528 C 1880.72 -1.43374 -2.78232 0
M  V30 19529 C 1881.2 -2.30671 -3.9567 0
M  V30 19530 N 1882.69 -2.28471 -4.02933 0
M  V30 19531 C 1883.42 -2.92746 -4.93039 0
M  V30 19532 N 1882.92 -3.66136 -5.88147 0
M  V30 19533 N 1884.71 -2.82129 -4.86168 0
M  V30 19534 H 1876.86 -1.80633 -1.11738 0
M  V30 19535 H 1879.12 -0.771568 -0.550805 0
M  V30 19536 H 1878.83 -2.47797 -2.49578 0
M  V30 19537 H 1878.7 -1.12125 -3.6015 0
M  V30 19538 H 1881.09 -0.396641 -2.92422 0
M  V30 19539 H 1881.17 -1.78588 -1.83139 0
M  V30 19540 H 1880.82 -3.3445 -3.82238 0
M  V30 19541 H 1880.75 -1.92789 -4.90041 0
M  V30 19542 H 1883.24 -1.75115 -3.34878 0
M  V30 19543 H 1883.55 -4.12344 -6.536 0
M  V30 19544 H 1881.9 -3.70244 -5.88171 0
M  V30 19545 H 1885.09 -2.24344 -4.10837 0
M  V30 19546 H 1885.26 -3.32502 -5.56189 0
M  V30 19547 N 1878.67 1.45167 -0.61354 0
M  V30 19548 C 1879.91 2.01407 -0.10861 0
M  V30 19549 C 1880.23 1.48701 1.27072 0
M  V30 19550 O 1881.43 1.96956 1.8687 0
M  V30 19551 C 1879.89 3.59614 -0.143466 0
M  V30 19552 C 1879.5 4.21317 -1.52302 0
M  V30 19553 C 1881.24 4.23396 0.305912 0
M  V30 19554 C 1879.15 5.71694 -1.51393 0
M  V30 19555 H 1878.08 0.7531 -0.0368359 0
M  V30 19556 H 1880.73 1.66575 -0.769748 0
M  V30 19557 H 1879.11 3.91664 0.584438 0
M  V30 19558 H 1880.29 4.00832 -2.2731 0
M  V30 19559 H 1878.6 3.69753 -1.91499 0
M  V30 19560 H 1881.2 5.33668 0.331977 0
M  V30 19561 H 1881.54 3.9449 1.32978 0
M  V30 19562 H 1882.07 3.96086 -0.36892 0
M  V30 19563 H 1878.81 6.05308 -2.5156 0
M  V30 19564 H 1878.33 5.94353 -0.80652 0
M  V30 19565 H 1880.01 6.35003 -1.24017 0
M  V30 19566 N 1880.14 0.353044 1.53595 0
M  V30 19567 C 1881.39 -0.2416 2.00248 0
M  V30 19568 C 1881.71 -1.5089 1.24465 0
M  V30 19569 O 1882.91 -2.18137 1.61643 0
M  V30 19570 C 1881.37 -0.481075 3.5667 0
M  V30 19571 C 1880.98 0.77087 4.41318 0
M  V30 19572 C 1882.72 -1.03406 4.11713 0
M  V30 19573 C 1880.63 0.501671 5.89268 0
M  V30 19574 H 1879.56 -0.0940573 0.74811 0
M  V30 19575 H 1882.21 0.469845 1.77383 0
M  V30 19576 H 1880.59 -1.25346 3.75639 0
M  V30 19577 H 1881.76 1.54509 4.34124 0
M  V30 19578 H 1880.08 1.24617 3.97315 0
M  V30 19579 H 1882.68 -1.25058 5.1987 0
M  V30 19580 H 1883.02 -1.99245 3.65523 0
M  V30 19581 H 1883.55 -0.322144 3.96493 0
M  V30 19582 H 1880.29 1.43005 6.39711 0
M  V30 19583 H 1879.81 -0.234284 5.99342 0
M  V30 19584 H 1881.49 0.122468 6.46884 0
M  V30 19585 N 1881.62 -1.57387 0.0818932 0
M  V30 19586 C 1882.85 -1.98201 -0.593645 0
M  V30 19587 C 1883.26 -0.960602 -1.62536 0
M  V30 19588 O 1882.62 0.0514903 -1.82427 0
M  V30 19589 C 1882.67 -3.39083 -1.2532 0
M  V30 19590 O 1882.39 -4.37311 -0.262763 0
M  V30 19591 C 1883.89 -3.94827 -2.0156 0
M  V30 19592 H 1881.11 -0.651606 -0.160159 0
M  V30 19593 H 1883.66 -2.03894 0.157281 0
M  V30 19594 H 1881.81 -3.34444 -1.95514 0
M  V30 19595 H 1882.23 -5.19294 -0.737169 0
M  V30 19596 H 1883.7 -4.95594 -2.43086 0
M  V30 19597 H 1884.18 -3.31921 -2.8762 0
M  V30 19598 H 1884.78 -4.02898 -1.36211 0
M  V30 19599 N 1883.1 0.191729 -1.56429 0
M  V30 19600 C 1884.05 1.24177 -1.91217 0
M  V30 19601 C 1885.03 1.40828 -0.778219 0
M  V30 19602 O 1886.23 1.43142 -1.04112 0
M  V30 19603 C 1883.35 2.58584 -2.25808 0
M  V30 19604 C 1882.44 2.45712 -3.45668 0
M  V30 19605 N 1882.83 2.02524 -4.63484 0
M  V30 19606 C 1881.13 2.76595 -3.49873 0
M  V30 19607 C 1881.83 2.01625 -5.45639 0
M  V30 19608 N 1880.81 2.43256 -4.86135 0
M  V30 19609 H 1884.61 0.899247 -2.79805 0
M  V30 19610 H 1882.12 0.400144 -1.57393 0
M  V30 19611 H 1884.12 3.34434 -2.48917 0
M  V30 19612 H 1882.78 2.93657 -1.38549 0
M  V30 19613 H 1883.79 1.7318 -4.88087 0
M  V30 19614 H 1880.47 3.15842 -2.73038 0
M  V30 19615 H 1881.86 1.70106 -6.5001 0
M  V30 19616 N 1884.58 1.50751 0.459565 0
M  V30 19617 C 1885.52 1.70454 1.55609 0
M  V30 19618 C 1886.49 0.545921 1.56872 0
M  V30 19619 O 1887.68 0.777824 1.74226 0
M  V30 19620 C 1884.82 1.81524 2.93501 0
M  V30 19621 C 1883.93 3.08962 3.01938 0
M  V30 19622 C 1883.07 3.10758 4.30816 0
M  V30 19623 C 1882.11 4.32602 4.33038 0
M  V30 19624 N 1881.24 4.32073 5.53405 0
M  V30 19625 H 1886.08 2.64062 1.38112 0
M  V30 19626 H 1883.62 1.30889 0.671307 0
M  V30 19627 H 1885.58 1.85923 3.73481 0
M  V30 19628 H 1884.21 0.913445 3.09606 0
M  V30 19629 H 1883.26 3.13979 2.14759 0
M  V30 19630 H 1884.57 3.9892 2.9944 0
M  V30 19631 H 1883.73 3.13951 5.19153 0
M  V30 19632 H 1882.47 2.1865 4.3594 0
M  V30 19633 H 1881.47 4.2961 3.43097 0
M  V30 19634 H 1882.7 5.2595 4.29596 0
M  V30 19635 H 1880.64 3.42824 5.59292 0
M  V30 19636 H 1880.56 5.15814 5.52695 0
M  V30 19637 H 1881.83 4.39428 6.43835 0
M  V30 19638 N 1886.06 -0.713531 1.40522 0
M  V30 19639 C 1886.99 -1.83724 1.35354 0
M  V30 19640 C 1887.97 -1.61055 0.223598 0
M  V30 19641 O 1889.15 -1.84041 0.407593 0
M  V30 19642 C 1886.28 -3.20099 1.10699 0
M  V30 19643 C 1885.32 -3.61592 2.26172 0
M  V30 19644 S 1886.16 -3.68469 3.88576 0
M  V30 19645 C 1887.31 -5.076 3.66188 0
M  V30 19646 H 1887.55 -1.87828 2.30452 0
M  V30 19647 H 1885.08 -0.88051 1.26832 0
M  V30 19648 H 1887.04 -3.98836 0.971588 0
M  V30 19649 H 1885.7 -3.13626 0.172515 0
M  V30 19650 H 1884.89 -4.60617 2.04568 0
M  V30 19651 H 1884.49 -2.90117 2.36026 0
M  V30 19652 H 1886.78 -5.94578 3.24782 0
M  V30 19653 H 1887.73 -5.3424 4.64751 0
M  V30 19654 H 1888.14 -4.7829 2.99831 0
M  V30 19655 N 1887.53 -1.26053 -0.945962 0
M  V30 19656 C 1888.78 -1.11315 -1.69161 0
M  V30 19657 C 1889.11 0.34437 -1.91427 0
M  V30 19658 O 1888.36 1.26968 -1.48921 0
M  V30 19659 C 1888.66 -1.8222 -3.07459 0
M  V30 19660 C 1888.33 -3.32126 -3.04964 0
M  V30 19661 C 1886.99 -3.73019 -3.03991 0
M  V30 19662 C 1889.34 -4.2786 -2.97633 0
M  V30 19663 C 1886.67 -5.08041 -2.93446 0
M  V30 19664 C 1889.02 -5.62917 -2.88631 0
M  V30 19665 C 1887.69 -6.03127 -2.85998 0
M  V30 19666 H 1886.96 -0.407329 -0.619002 0
M  V30 19667 H 1889.6 -1.56435 -1.10454 0
M  V30 19668 H 1887.91 -1.29554 -3.69761 0
M  V30 19669 H 1889.61 -1.68261 -3.63991 0
M  V30 19670 H 1886.2 -2.99594 -3.06498 0
M  V30 19671 H 1890.38 -3.97252 -2.97497 0
M  V30 19672 H 1885.64 -5.38364 -2.89782 0
M  V30 19673 H 1889.81 -6.36784 -2.81921 0
M  V30 19674 H 1887.44 -7.07709 -2.77583 0
M  V30 19675 N 1889.01 1.14984 -1.07779 0
M  V30 19676 C 1890.29 1.82003 -0.716546 0
M  V30 19677 C 1890.67 1.95334 0.8005 0
M  V30 19678 O 1890.02 1.50817 1.71658 0
M  V30 19679 C 1890.23 3.18087 -1.43602 0
M  V30 19680 C 1891.57 3.93668 -1.59094 0
M  V30 19681 O 1892.6 3.27655 -1.39715 0
M  V30 19682 O 1891.46 5.12031 -1.91015 0
M  V30 19683 H 1888.55 0.786548 -0.255482 0
M  V30 19684 H 1891.1 1.22058 -1.17898 0
M  V30 19685 H 1889.87 3.03509 -2.46978 0
M  V30 19686 H 1889.49 3.8572 -0.964651 0
M  V30 19687 N 1890.49 0.862526 1.31902 0
M  V30 19688 C 1891.44 0.284531 2.26218 0
M  V30 19689 C 1892.42 -0.57415 1.50307 0
M  V30 19690 O 1893.62 -0.422246 1.7189 0
M  V30 19691 C 1890.74 -0.5194 3.39348 0
M  V30 19692 C 1889.83 0.352108 4.22636 0
M  V30 19693 N 1890.22 1.44208 4.84807 0
M  V30 19694 C 1888.52 0.143232 4.4577 0
M  V30 19695 C 1889.22 1.97889 5.47005 0
M  V30 19696 N 1888.2 1.27694 5.28389 0
M  V30 19697 H 1892 1.1177 2.71817 0
M  V30 19698 H 1889.51 0.709483 1.46083 0
M  V30 19699 H 1891.51 -0.94995 4.05933 0
M  V30 19700 H 1890.17 -1.35027 2.95293 0
M  V30 19701 H 1891.18 1.82501 4.84679 0
M  V30 19702 H 1887.86 -0.652289 4.12373 0
M  V30 19703 H 1889.25 2.89298 6.06429 0
M  V30 19704 N 1891.97 -1.4484 0.62123 0
M  V30 19705 C 1893.21 -2.02433 0.121965 0
M  V30 19706 C 1893.55 -1.48679 -1.24932 0
M  V30 19707 O 1892.82 -0.666887 -1.8271 0
M  V30 19708 C 1893.11 -3.59967 0.0978513 0
M  V30 19709 C 1892.96 -4.24025 1.50077 0
M  V30 19710 C 1894.28 -4.36224 -0.582838 0
M  V30 19711 H 1891.4 -0.735576 0.0457947 0
M  V30 19712 H 1894.04 -1.72531 0.795812 0
M  V30 19713 H 1892.19 -3.85573 -0.47597 0
M  V30 19714 H 1893.86 -4.09558 2.12272 0
M  V30 19715 H 1892.1 -3.819 2.05754 0
M  V30 19716 H 1892.77 -5.32994 1.43602 0
M  V30 19717 H 1895.25 -4.15992 -0.0949595 0
M  V30 19718 H 1894.13 -5.45944 -0.568863 0
M  V30 19719 H 1894.39 -4.10098 -1.65142 0
M  V30 19720 N 1893.45 -0.361184 -1.53405 0
M  V30 19721 C 1894.69 0.230222 -2.01489 0
M  V30 19722 C 1895.03 1.48779 -1.24814 0
M  V30 19723 O 1894.3 1.91494 -0.340612 0
M  V30 19724 C 1894.58 0.526613 -3.56229 0
M  V30 19725 C 1894.44 -0.744277 -4.436 0
M  V30 19726 C 1895.76 1.32901 -4.19554 0
M  V30 19727 H 1892.87 0.0822009 -0.732402 0
M  V30 19728 H 1895.52 -0.485208 -1.837 0
M  V30 19729 H 1893.67 1.13609 -3.71517 0
M  V30 19730 H 1895.34 -1.38188 -4.40116 0
M  V30 19731 H 1893.58 -1.36555 -4.11747 0
M  V30 19732 H 1894.25 -0.491913 -5.49804 0
M  V30 19733 H 1896.73 0.813474 -4.08071 0
M  V30 19734 H 1895.6 1.50513 -5.27861 0
M  V30 19735 H 1895.87 2.33625 -3.75329 0
M  V30 19736 N 1894.92 1.57341 -0.0902386 0
M  V30 19737 C 1895.85 2.16782 0.86764 0
M  V30 19738 C 1896.84 1.09982 1.29761 0
M  V30 19739 O 1898.02 1.38099 1.36537 0
M  V30 19740 C 1895.15 2.74426 2.12856 0
M  V30 19741 C 1894.1 3.86555 1.83738 0
M  V30 19742 C 1893.43 4.3088 3.16617 0
M  V30 19743 C 1894.73 5.09971 1.12814 0
M  V30 19744 H 1896.42 2.97075 0.372417 0
M  V30 19745 H 1893.97 1.42899 0.177689 0
M  V30 19746 H 1895.92 3.14659 2.80299 0
M  V30 19747 H 1894.65 1.9138 2.64653 0
M  V30 19748 H 1893.31 3.46853 1.18694 0
M  V30 19749 H 1892.95 3.44732 3.66291 0
M  V30 19750 H 1892.65 5.06477 2.97918 0
M  V30 19751 H 1894.18 4.73743 3.85227 0
M  V30 19752 H 1895.59 5.47404 1.70358 0
M  V30 19753 H 1893.99 5.90965 1.04311 0
M  V30 19754 H 1895.06 4.84775 0.110114 0
M  V30 19755 N 1896.4 -0.183431 1.56529 0
M  V30 19756 C 1897.65 -0.903332 1.8157 0
M  V30 19757 C 1897.98 -1.82417 0.666167 0
M  V30 19758 O 1897.26 -1.91635 -0.332621 0
M  V30 19759 C 1897.54 -1.70949 3.16936 0
M  V30 19760 C 1897.39 -0.812595 4.42399 0
M  V30 19761 C 1898.71 -2.6797 3.49113 0
M  V30 19762 H 1895.83 -0.326961 0.660504 0
M  V30 19763 H 1898.47 -0.170115 1.89237 0
M  V30 19764 H 1896.62 -2.33458 3.10531 0
M  V30 19765 H 1898.29 -0.201313 4.60861 0
M  V30 19766 H 1896.54 -0.119949 4.33634 0
M  V30 19767 H 1897.21 -1.4119 5.33638 0
M  V30 19768 H 1899.68 -2.15591 3.55893 0
M  V30 19769 H 1898.56 -3.21451 4.44927 0
M  V30 19770 H 1898.82 -3.47584 2.73199 0
M  V30 19771 N 1897.88 -1.50992 -0.451564 0
M  V30 19772 C 1899.13 -1.62192 -1.19903 0
M  V30 19773 C 1899.44 -0.337085 -1.92674 0
M  V30 19774 O 1900.65 -0.328248 -2.69508 0
M  V30 19775 C 1899.1 -2.8638 -2.17978 0
M  V30 19776 C 1898.71 -4.21814 -1.50921 0
M  V30 19777 C 1900.46 -3.06932 -2.93246 0
M  V30 19778 C 1898.36 -5.37168 -2.47396 0
M  V30 19779 H 1897.29 -0.60406 -0.451251 0
M  V30 19780 H 1899.94 -1.77445 -0.467482 0
M  V30 19781 H 1898.33 -2.64728 -2.94508 0
M  V30 19782 H 1899.5 -4.53794 -0.800466 0
M  V30 19783 H 1897.82 -4.07025 -0.878604 0
M  V30 19784 H 1900.41 -3.90286 -3.65487 0
M  V30 19785 H 1900.76 -2.19437 -3.5377 0
M  V30 19786 H 1901.29 -3.28857 -2.23826 0
M  V30 19787 H 1898.03 -6.26878 -1.91582 0
M  V30 19788 H 1897.55 -5.09581 -3.16365 0
M  V30 19789 H 1899.23 -5.68539 -3.08824 0
M  V30 19790 N 1899.36 0.706069 -1.40899 0
M  V30 19791 C 1900.61 1.46164 -1.38993 0
M  V30 19792 C 1900.92 1.956 0.00145788 0
M  V30 19793 O 1902.13 2.71122 0.143137 0
M  V30 19794 C 1900.58 2.64252 -2.44334 0
M  V30 19795 C 1900.19 2.21646 -3.89329 0
M  V30 19796 C 1901.93 3.41941 -2.51549 0
M  V30 19797 C 1899.84 3.36629 -4.86245 0
M  V30 19798 H 1898.77 0.548985 -0.516847 0
M  V30 19799 H 1901.42 0.767528 -1.66677 0
M  V30 19800 H 1899.8 3.3588 -2.09764 0
M  V30 19801 H 1900.98 1.57376 -4.33093 0
M  V30 19802 H 1899.29 1.56978 -3.85677 0
M  V30 19803 H 1901.89 4.27518 -3.21142 0
M  V30 19804 H 1902.23 3.86409 -1.54899 0
M  V30 19805 H 1902.77 2.77363 -2.85158 0
M  V30 19806 H 1899.51 2.97183 -5.84262 0
M  V30 19807 H 1899.03 3.99784 -4.47139 0
M  V30 19808 H 1900.7 4.02559 -5.06513 0
M  V30 19809 N 1900.84 1.26553 0.939264 0
M  V30 19810 C 1902.08 1.1221 1.68568 0
M  V30 19811 C 1902.41 -0.334213 1.91607 0
M  V30 19812 O 1901.67 -1.26177 1.49593 0
M  V30 19813 C 1901.97 1.83848 3.06488 0
M  V30 19814 C 1901.63 3.33739 3.03198 0
M  V30 19815 C 1900.29 3.74626 3.02008 0
M  V30 19816 C 1902.65 4.29432 2.9536 0
M  V30 19817 C 1899.97 5.0959 2.90748 0
M  V30 19818 C 1902.33 5.64439 2.85641 0
M  V30 19819 C 1900.99 6.04635 2.82795 0
M  V30 19820 H 1900.26 0.410606 0.616833 0
M  V30 19821 H 1902.91 1.57019 1.09623 0
M  V30 19822 H 1901.21 1.31514 3.69068 0
M  V30 19823 H 1902.91 1.70189 3.63093 0
M  V30 19824 H 1899.5 3.01216 3.04905 0
M  V30 19825 H 1903.68 3.98824 2.95386 0
M  V30 19826 H 1898.94 5.39894 2.86923 0
M  V30 19827 H 1903.11 6.3827 2.7854 0
M  V30 19828 H 1900.74 7.09171 2.73826 0
M  V30 19829 N 1902.31 -1.14411 1.08387 0
M  V30 19830 C 1903.24 -2.21619 0.735327 0
M  V30 19831 C 1904.23 -1.67744 -0.282132 0
M  V30 19832 O 1905.41 -1.936 -0.152547 0
M  V30 19833 C 1902.54 -3.47003 0.143628 0
M  V30 19834 C 1901.49 -4.13903 1.08941 0
M  V30 19835 C 1900.82 -5.33487 0.359941 0
M  V30 19836 C 1902.12 -4.62463 2.42746 0
M  V30 19837 H 1903.81 -2.51031 1.63168 0
M  V30 19838 H 1901.36 -1.20658 0.785981 0
M  V30 19839 H 1903.31 -4.21251 -0.112217 0
M  V30 19840 H 1902.04 -3.16955 -0.787856 0
M  V30 19841 H 1900.7 -3.4161 1.33035 0
M  V30 19842 H 1900.34 -4.99699 -0.57534 0
M  V30 19843 H 1900.04 -5.79192 0.990451 0
M  V30 19844 H 1901.57 -6.10497 0.112145 0
M  V30 19845 H 1902.98 -5.28185 2.22919 0
M  V30 19846 H 1901.38 -5.18869 3.01488 0
M  V30 19847 H 1902.45 -3.77542 3.04286 0
M  V30 19848 N 1903.79 -0.869509 -1.31443 0
M  V30 19849 C 1904.74 -0.314033 -2.3047 0
M  V30 19850 C 1905.73 0.570635 -1.595 0
M  V30 19851 O 1906.94 0.456787 -1.74108 0
M  V30 19852 H 1903.32 -0.0828699 -0.74742 0
M  V30 19853 H 1905.29 -1.16319 -2.74795 0
M  V30 19854 C 1904.04 0.469956 -3.44509 0
M  V30 19855 H 1903.36 -0.201508 -3.99292 0
M  V30 19856 H 1904.8 0.823967 -4.15917 0
M  V30 19857 C 1903.26 1.66104 -2.93106 0
M  V30 19858 O 1903.79 2.76033 -2.91836 0
M  V30 19859 N 1901.99 1.49302 -2.49313 0
M  V30 19860 H 1901.54 0.598742 -2.50545 0
M  V30 19861 H 1901.5 2.29137 -2.15276 0
M  V30 19862 N 1905.27 1.44508 -0.628902 0
M  V30 19863 C 1906.51 2.03948 -0.135785 0
M  V30 19864 C 1906.87 1.48382 1.21848 0
M  V30 19865 O 1908.08 1.9931 1.80357 0
M  V30 19866 C 1906.35 3.572 -0.119635 0
M  V30 19867 S 1907.91 4.37709 0.309185 0
M  V30 19868 H 1904.72 0.708464 -0.0599938 0
M  V30 19869 H 1907.33 1.76922 -0.831792 0
M  V30 19870 H 1906.03 3.95148 -1.10842 0
M  V30 19871 H 1905.56 3.88833 0.59769 0
M  V30 19872 H 1907.58 4.71241 1.55391 0
M  V30 19873 N 1906.75 0.369315 1.53212 0
M  V30 19874 C 1908 -0.220348 2.00493 0
M  V30 19875 C 1908.31 -1.49561 1.26059 0
M  V30 19876 O 1909.52 -2.1641 1.63947 0
M  V30 19877 C 1907.97 -0.443218 3.5716 0
M  V30 19878 C 1907.58 0.817634 4.40476 0
M  V30 19879 C 1909.33 -0.990333 4.12786 0
M  V30 19880 C 1907.23 0.564143 5.88703 0
M  V30 19881 H 1906.16 -0.0861173 0.749066 0
M  V30 19882 H 1908.81 0.488632 1.76875 0
M  V30 19883 H 1907.2 -1.21355 3.76947 0
M  V30 19884 H 1908.37 1.59105 4.32461 0
M  V30 19885 H 1906.68 1.28824 3.95971 0
M  V30 19886 H 1909.28 -1.19537 5.21167 0
M  V30 19887 H 1909.62 -1.95357 3.67616 0
M  V30 19888 H 1910.16 -0.280073 3.96813 0
M  V30 19889 H 1906.9 1.49782 6.38158 0
M  V30 19890 H 1906.42 -0.170702 5.99557 0
M  V30 19891 H 1908.1 0.191072 6.46718 0
M  V30 19892 N 1908.23 -1.57291 0.0985816 0
M  V30 19893 C 1909.46 -1.98819 -0.57259 0
M  V30 19894 C 1909.87 -0.977787 -1.61508 0
M  V30 19895 O 1909.23 0.0321385 -1.82472 0
M  V30 19896 C 1909.28 -3.40393 -1.21716 0
M  V30 19897 O 1909 -4.37565 -0.216366 0
M  V30 19898 C 1910.5 -3.96943 -1.97361 0
M  V30 19899 H 1907.72 -0.653268 -0.153239 0
M  V30 19900 H 1910.26 -2.03716 0.178898 0
M  V30 19901 H 1908.42 -3.36499 -1.91956 0
M  V30 19902 H 1908.83 -5.20046 -0.68205 0
M  V30 19903 H 1910.31 -4.98144 -2.37816 0
M  V30 19904 H 1910.78 -3.34953 -2.84083 0
M  V30 19905 H 1911.39 -4.0432 -1.3193 0
M  V30 19906 N 1909.71 0.175127 -1.56624 0
M  V30 19907 C 1910.95 0.890653 -1.8097 0
M  V30 19908 C 1911.27 1.83577 -0.675199 0
M  V30 19909 O 1912.47 2.59338 -0.803492 0
M  V30 19910 C 1910.93 1.63427 -3.20655 0
M  V30 19911 C 1910.54 0.732982 -4.41963 0
M  V30 19912 C 1912.28 2.33825 -3.54297 0
M  V30 19913 C 1910.19 1.47661 -5.72669 0
M  V30 19914 H 1909.12 0.336324 -0.674835 0
M  V30 19915 H 1911.77 0.143627 -1.82937 0
M  V30 19916 H 1910.15 2.42591 -3.12994 0
M  V30 19917 H 1911.33 -0.0214223 -4.60795 0
M  V30 19918 H 1909.64 0.138848 -4.16168 0
M  V30 19919 H 1912.24 2.90048 -4.49195 0
M  V30 19920 H 1912.58 3.08979 -2.78994 0
M  V30 19921 H 1913.11 1.61608 -3.63494 0
M  V30 19922 H 1909.85 0.767472 -6.50992 0
M  V30 19923 H 1909.37 2.20444 -5.57821 0
M  V30 19924 H 1911.05 2.02512 -6.1449 0
M  V30 19925 N 1911.18 1.5123 0.44355 0
M  V30 19926 C 1912.15 1.71511 1.52041 0
M  V30 19927 C 1913.15 0.585226 1.49772 0
M  V30 19928 O 1914.34 0.852687 1.51904 0
M  V30 19929 C 1911.47 1.76583 2.91601 0
M  V30 19930 H 1912.66 2.67613 1.35364 0
M  V30 19931 H 1910.21 1.41125 0.671811 0
M  V30 19932 H 1910.95 0.822743 3.1369 0
M  V30 19933 H 1910.73 2.58693 2.94653 0
M  V30 19934 H 1912.22 1.94135 3.69732 0
M  V30 19935 N 1912.66 -0.698586 1.41271 0
M  V30 19936 C 1913.59 -1.82278 1.37295 0
M  V30 19937 C 1914.57 -1.60809 0.240668 0
M  V30 19938 O 1915.76 -1.83598 0.42709 0
M  V30 19939 C 1912.88 -3.18907 1.14087 0
M  V30 19940 C 1911.93 -3.59172 2.29994 0
M  V30 19941 S 1912.76 -3.64327 3.92462 0
M  V30 19942 C 1913.92 -5.03687 3.71551 0
M  V30 19943 H 1914.15 -1.85373 2.32431 0
M  V30 19944 H 1911.68 -0.867008 1.27759 0
M  V30 19945 H 1913.64 -3.97783 1.01383 0
M  V30 19946 H 1912.3 -3.13425 0.20577 0
M  V30 19947 H 1911.5 -4.58421 2.09442 0
M  V30 19948 H 1911.1 -2.87597 2.3909 0
M  V30 19949 H 1913.39 -5.911 3.3107 0
M  V30 19950 H 1914.33 -5.2928 4.70391 0
M  V30 19951 H 1914.74 -4.75083 3.04887 0
M  V30 19952 N 1914.14 -1.27049 -0.93254 0
M  V30 19953 C 1915.05 -1.11156 -2.06595 0
M  V30 19954 C 1916.07 -0.0428245 -1.73947 0
M  V30 19955 O 1917.24 -0.248326 -1.99863 0
M  V30 19956 C 1914.31 -0.755297 -3.38373 0
M  V30 19957 C 1913.37 -1.90439 -3.84749 0
M  V30 19958 C 1912.6 -1.56502 -5.10238 0
M  V30 19959 O 1912.82 -0.470696 -5.68455 0
M  V30 19960 O 1911.76 -2.40262 -5.51868 0
M  V30 19961 H 1915.58 -2.0626 -2.22914 0
M  V30 19962 H 1913.17 -1.06191 -1.05089 0
M  V30 19963 H 1915.05 -0.569728 -4.17531 0
M  V30 19964 H 1913.73 0.166262 -3.23273 0
M  V30 19965 H 1912.63 -2.14498 -3.06499 0
M  V30 19966 H 1913.97 -2.80598 -4.04383 0
M  V30 19967 N 1915.62 1.13835 -1.08993 0
M  V30 19968 C 1917.03 1.36999 -0.81874 0
M  V30 19969 C 1917.23 1.93296 0.569102 0
M  V30 19970 O 1916.29 2.14954 1.3248 0
M  V30 19971 C 1917.6 2.3255 -1.90634 0
M  V30 19972 C 1919.15 2.46175 -1.93305 0
M  V30 19973 C 1919.63 3.4503 -3.01195 0
M  V30 19974 N 1921.12 3.52577 -3.00406 0
M  V30 19975 C 1921.85 4.28934 -3.8053 0
M  V30 19976 N 1921.35 5.08484 -4.70549 0
M  V30 19977 N 1923.14 4.24191 -3.68807 0
M  V30 19978 H 1915.29 0.756425 -1.98474 0
M  V30 19979 H 1917.55 0.395302 -0.86165 0
M  V30 19980 H 1917.26 1.98331 -2.90444 0
M  V30 19981 H 1917.13 3.32519 -1.78076 0
M  V30 19982 H 1919.52 2.79683 -0.941359 0
M  V30 19983 H 1919.6 1.46146 -2.0994 0
M  V30 19984 H 1919.25 3.12254 -4.00574 0
M  V30 19985 H 1919.18 4.44853 -2.81803 0
M  V30 19986 H 1921.67 2.95814 -2.35165 0
M  V30 19987 H 1921.98 5.6404 -5.28279 0
M  V30 19988 H 1920.33 5.07732 -4.74588 0
M  V30 19989 H 1923.52 3.61118 -2.97844 0
M  V30 19990 H 1923.69 4.83447 -4.31489 0
M  V30 19991 N 1917.1 0.876467 1.3098 0
M  V30 19992 C 1918.51 0.542323 1.7865 0
M  V30 19993 C 1918.86 -0.941103 1.72156 0
M  V30 19994 O 1917.98 -1.73506 1.29324 0
M  V30 19995 C 1918.58 0.977656 3.24388 0
M  V30 19996 C 1917.14 0.695064 3.69927 0
M  V30 19997 C 1916.28 1.16537 2.51624 0
M  V30 19998 H 1919.23 1.06154 1.1797 0
M  V30 19999 H 1919.26 0.30304 3.79291 0
M  V30 20000 H 1918.77 2.05735 3.29082 0
M  V30 20001 H 1916.87 -0.372992 3.70728 0
M  V30 20002 H 1916.98 1.27665 4.61778 0
M  V30 20003 H 1915.35 0.584941 2.47892 0
M  V30 20004 H 1916.13 2.25262 2.5906 0
M  V30 20005 N 1918.57 -1.44173 0.636557 0
M  V30 20006 C 1919.52 -2.30708 -0.0651156 0
M  V30 20007 C 1920.49 -1.43795 -0.831389 0
M  V30 20008 O 1921.68 -1.7269 -0.81134 0
M  V30 20009 C 1918.82 -3.2915 -1.03703 0
M  V30 20010 C 1917.93 -4.31164 -0.268603 0
M  V30 20011 C 1917.06 -5.16696 -1.23282 0
M  V30 20012 C 1916.1 -6.10415 -0.453864 0
M  V30 20013 N 1915.24 -6.88628 -1.36881 0
M  V30 20014 H 1920.08 -2.90167 0.678744 0
M  V30 20015 H 1917.62 -1.42961 0.346492 0
M  V30 20016 H 1919.57 -3.84717 -1.61395 0
M  V30 20017 H 1918.2 -2.71379 -1.74795 0
M  V30 20018 H 1917.26 -3.78026 0.424338 0
M  V30 20019 H 1918.57 -4.97655 0.337844 0
M  V30 20020 H 1917.72 -5.76807 -1.88091 0
M  V30 20021 H 1916.46 -4.50292 -1.87318 0
M  V30 20022 H 1915.47 -5.49408 0.207683 0
M  V30 20023 H 1916.69 -6.78856 0.181863 0
M  V30 20024 H 1914.64 -6.24887 -1.99629 0
M  V30 20025 H 1914.55 -7.51578 -0.816523 0
M  V30 20026 H 1915.82 -7.53258 -2.00558 0
M  V30 20027 N 1920.05 -0.377435 -1.53014 0
M  V30 20028 C 1921.3 0.209712 -2.00607 0
M  V30 20029 C 1921.61 1.48891 -1.2685 0
M  V30 20030 O 1922.82 2.15538 -1.65093 0
M  V30 20031 C 1921.28 0.424271 -3.5739 0
M  V30 20032 C 1920.88 -0.840982 -4.40036 0
M  V30 20033 C 1922.63 0.968428 -4.13306 0
M  V30 20034 C 1920.53 -0.595355 -5.88396 0
M  V30 20035 H 1919.46 0.0821436 -0.749512 0
M  V30 20036 H 1922.12 -0.498005 -1.76613 0
M  V30 20037 H 1920.5 1.19354 -3.77585 0
M  V30 20038 H 1921.67 -1.61396 -4.31611 0
M  V30 20039 H 1919.99 -1.30922 -3.95283 0
M  V30 20040 H 1922.58 1.16771 -5.21794 0
M  V30 20041 H 1922.93 1.93405 -3.68647 0
M  V30 20042 H 1923.46 0.259025 -3.96956 0
M  V30 20043 H 1920.2 -1.53164 -6.37355 0
M  V30 20044 H 1919.72 0.138904 -5.99639 0
M  V30 20045 H 1921.4 -0.225366 -6.46607 0
M  V30 20046 N 1921.53 1.57237 -0.106922 0
M  V30 20047 C 1922.81 1.8627 0.596889 0
M  V30 20048 C 1923.19 1.00593 1.85591 0
M  V30 20049 O 1922.54 0.0815394 2.28354 0
M  V30 20050 C 1922.75 3.37171 0.900934 0
M  V30 20051 C 1924.09 4.05497 1.25926 0
M  V30 20052 O 1925.12 3.4212 0.99158 0
M  V30 20053 O 1923.98 5.17347 1.76109 0
M  V30 20054 H 1921.07 0.770704 0.299907 0
M  V30 20055 H 1923.62 1.69117 -0.140513 0
M  V30 20056 H 1922.39 3.91299 0.00823337 0
M  V30 20057 H 1922.01 3.59712 1.69391 0
M  V30 20058 N 1923.01 -0.166818 1.56715 0
M  V30 20059 C 1924.42 -0.728845 1.71886 0
M  V30 20060 C 1924.77 -1.82584 0.718168 0
M  V30 20061 O 1923.9 -2.1607 -0.119503 0
M  V30 20062 C 1924.49 -1.32885 3.11652 0
M  V30 20063 C 1923.05 -1.83766 3.28492 0
M  V30 20064 C 1922.2 -0.718371 2.67833 0
M  V30 20065 H 1925.15 0.0586298 1.58592 0
M  V30 20066 H 1925.17 -2.19858 3.10552 0
M  V30 20067 H 1924.68 -0.530219 3.84461 0
M  V30 20068 H 1922.78 -2.66259 2.60647 0
M  V30 20069 H 1922.89 -1.98 4.36271 0
M  V30 20070 H 1921.26 -1.13996 2.27765 0
M  V30 20071 H 1922.04 0.0684914 3.43232 0
M  V30 20072 N 1924.49 -1.51463 -0.435524 0
M  V30 20073 C 1925.44 -1.69292 -1.52723 0
M  V30 20074 C 1926.42 -0.54689 -1.51321 0
M  V30 20075 O 1927.61 -0.802879 -1.57743 0
M  V30 20076 C 1924.74 -1.82299 -2.90898 0
M  V30 20077 C 1923.83 -3.02692 -2.9705 0
M  V30 20078 N 1924.22 -4.25836 -2.72942 0
M  V30 20079 C 1922.52 -3.01983 -3.2821 0
M  V30 20080 C 1923.22 -5.07109 -2.84983 0
M  V30 20081 N 1922.19 -4.41794 -3.16731 0
M  V30 20082 H 1926 -2.62166 -1.32839 0
M  V30 20083 H 1923.51 -1.49135 -0.642858 0
M  V30 20084 H 1925.51 -1.93183 -3.6944 0
M  V30 20085 H 1924.17 -0.906076 -3.11802 0
M  V30 20086 H 1925.18 -4.5475 -2.47836 0
M  V30 20087 H 1921.85 -2.1993 -3.54876 0
M  V30 20088 H 1923.24 -6.1514 -2.70283 0
M  V30 20089 N 1925.96 0.691085 -1.4164 0
M  V30 20090 C 1927.19 1.48481 -1.44804 0
M  V30 20091 C 1927.61 1.88016 -0.0561606 0
M  V30 20092 O 1926.97 1.54927 0.941657 0
M  V30 20093 C 1927.02 2.72083 -2.3665 0
M  V30 20094 O 1926.12 3.6974 -1.82663 0
M  V30 20095 H 1925.47 0.446714 -0.491267 0
M  V30 20096 H 1928 0.849076 -1.8615 0
M  V30 20097 H 1928.01 3.2034 -2.52678 0
M  V30 20098 H 1926.68 2.42645 -3.37781 0
M  V30 20099 H 1925.26 3.28695 -1.76108 0
M  V30 20100 N 1927.44 1.27542 0.925789 0
M  V30 20101 C 1928.41 1.10471 2.0082 0
M  V30 20102 C 1929.41 0.0481002 1.60728 0
M  V30 20103 O 1930.6 0.292857 1.71721 0
M  V30 20104 C 1927.73 0.683669 3.33974 0
M  V30 20105 H 1928.92 2.0659 2.17395 0
M  V30 20106 H 1926.47 1.10357 1.10684 0
M  V30 20107 H 1927.21 -0.278821 3.23099 0
M  V30 20108 H 1926.99 1.44679 3.64431 0
M  V30 20109 H 1928.48 0.586526 4.13461 0
M  V30 20110 N 1928.92 -1.13255 1.09595 0
M  V30 20111 C 1929.83 -2.22321 0.74904 0
M  V30 20112 C 1930.85 -1.72198 -0.24974 0
M  V30 20113 O 1932.02 -2.01196 -0.090652 0
M  V30 20114 C 1929.09 -3.4625 0.17665 0
M  V30 20115 C 1928.15 -4.11254 1.2316 0
M  V30 20116 C 1927.38 -5.29267 0.686427 0
M  V30 20117 O 1927.6 -5.68291 -0.490088 0
M  V30 20118 O 1926.54 -5.84365 1.44227 0
M  V30 20119 H 1930.36 -2.5437 1.6592 0
M  V30 20120 H 1927.95 -1.21422 0.870465 0
M  V30 20121 H 1929.83 -4.2117 -0.139147 0
M  V30 20122 H 1928.51 -3.15896 -0.706492 0
M  V30 20123 H 1927.41 -3.38152 1.60012 0
M  V30 20124 H 1928.75 -4.45743 2.08745 0
M  V30 20125 N 1930.4 -0.883401 -1.30514 0
M  V30 20126 C 1931.81 -0.577183 -1.48798 0
M  V30 20127 C 1932.01 0.885462 -1.81002 0
M  V30 20128 O 1931.07 1.66679 -1.89669 0
M  V30 20129 C 1932.38 -1.48898 -2.61247 0
M  V30 20130 C 1933.93 -1.49244 -2.75128 0
M  V30 20131 C 1934.41 -2.39012 -3.90688 0
M  V30 20132 N 1935.9 -2.36967 -3.97996 0
M  V30 20133 C 1936.63 -3.03138 -4.86718 0
M  V30 20134 N 1936.13 -3.78529 -5.80248 0
M  V30 20135 N 1937.92 -2.92378 -4.80074 0
M  V30 20136 H 1930.07 -1.82963 -1.07882 0
M  V30 20137 H 1932.34 -0.783078 -0.534315 0
M  V30 20138 H 1932.04 -2.53035 -2.44266 0
M  V30 20139 H 1931.92 -1.19739 -3.5769 0
M  V30 20140 H 1934.3 -0.458579 -2.91515 0
M  V30 20141 H 1934.38 -1.82432 -1.7931 0
M  V30 20142 H 1934.03 -3.42482 -3.75058 0
M  V30 20143 H 1933.96 -2.03141 -4.85841 0
M  V30 20144 H 1936.45 -1.82179 -3.31088 0
M  V30 20145 H 1936.76 -4.26115 -6.44706 0
M  V30 20146 H 1935.11 -3.82636 -5.80185 0
M  V30 20147 H 1938.3 -2.33008 -4.05986 0
M  V30 20148 H 1938.47 -3.44225 -5.49011 0
M  V30 20149 N 1931.88 1.43833 -0.644194 0
M  V30 20150 C 1933.13 2.01132 -0.151307 0
M  V30 20151 C 1933.44 1.51363 1.23889 0
M  V30 20152 O 1934.64 2.00876 1.8265 0
M  V30 20153 C 1933.1 3.59229 -0.219714 0
M  V30 20154 C 1932.71 4.17992 -1.61204 0
M  V30 20155 C 1934.45 4.2395 0.216034 0
M  V30 20156 C 1932.36 5.68354 -1.63486 0
M  V30 20157 H 1931.29 0.752149 -0.052802 0
M  V30 20158 H 1933.94 1.64904 -0.804907 0
M  V30 20159 H 1932.32 3.92815 0.501229 0
M  V30 20160 H 1933.5 3.95921 -2.35761 0
M  V30 20161 H 1931.81 3.65608 -1.99299 0
M  V30 20162 H 1934.41 5.34253 0.218703 0
M  V30 20163 H 1934.75 3.97222 1.24581 0
M  V30 20164 H 1935.28 3.95214 -0.452852 0
M  V30 20165 H 1932.02 5.99836 -2.64343 0
M  V30 20166 H 1931.54 5.92508 -0.93241 0
M  V30 20167 H 1933.22 6.3223 -1.37458 0
M  V30 20168 N 1933.35 0.385544 1.52811 0
M  V30 20169 C 1934.6 -0.197845 2.01531 0
M  V30 20170 C 1934.93 -1.47128 1.27215 0
M  V30 20171 O 1934.18 -1.92363 0.359866 0
M  V30 20172 C 1934.48 -0.515911 3.53657 0
M  V30 20173 C 1934.15 0.665535 4.45961 0
M  V30 20174 C 1932.81 0.989658 4.70913 0
M  V30 20175 C 1935.16 1.4561 5.00447 0
M  V30 20176 C 1932.49 2.10596 5.476 0
M  V30 20177 C 1934.84 2.56298 5.78355 0
M  V30 20178 C 1933.51 2.89223 6.01587 0
M  V30 20179 H 1932.78 -0.0723965 0.737455 0
M  V30 20180 H 1935.42 0.522118 1.84245 0
M  V30 20181 H 1933.73 -1.31715 3.68996 0
M  V30 20182 H 1935.43 -0.979874 3.88844 0
M  V30 20183 H 1932.02 0.4029 4.26702 0
M  V30 20184 H 1936.2 1.21893 4.81098 0
M  V30 20185 H 1931.46 2.3648 5.63815 0
M  V30 20186 H 1935.63 3.1796 6.19576 0
M  V30 20187 H 1933.26 3.75842 6.60793 0
M  V30 20188 N 1934.83 -1.57178 0.115259 0
M  V30 20189 C 1935.76 -2.18134 -0.833042 0
M  V30 20190 C 1936.74 -1.12033 -1.27995 0
M  V30 20191 O 1937.93 -1.40254 -1.34323 0
M  V30 20192 C 1935.06 -2.77778 -2.08463 0
M  V30 20193 C 1934.01 -3.89429 -1.77565 0
M  V30 20194 C 1933.34 -4.35863 -3.09722 0
M  V30 20195 C 1934.64 -5.11701 -1.04687 0
M  V30 20196 H 1936.33 -2.9763 -0.325107 0
M  V30 20197 H 1933.88 -1.43164 -0.154933 0
M  V30 20198 H 1935.83 -3.19079 -2.75258 0
M  V30 20199 H 1934.56 -1.95566 -2.61575 0
M  V30 20200 H 1933.21 -3.48698 -1.13161 0
M  V30 20201 H 1932.86 -3.50515 -3.6076 0
M  V30 20202 H 1932.56 -5.11152 -2.89823 0
M  V30 20203 H 1934.09 -4.79812 -3.77641 0
M  V30 20204 H 1935.5 -5.50045 -1.61628 0
M  V30 20205 H 1933.9 -5.92549 -0.948964 0
M  V30 20206 H 1934.97 -4.84889 -0.032977 0
M  V30 20207 N 1936.31 0.158505 -1.56801 0
M  V30 20208 C 1937.54 0.888272 -1.86862 0
M  V30 20209 C 1937.95 1.75258 -0.702142 0
M  V30 20210 O 1937.31 1.7952 0.328431 0
M  V30 20211 C 1937.36 1.75448 -3.1607 0
M  V30 20212 O 1937.08 0.925019 -4.28223 0
M  V30 20213 C 1938.58 2.59282 -3.59566 0
M  V30 20214 H 1935.8 0.257429 -0.619654 0
M  V30 20215 H 1938.35 0.154749 -2.03914 0
M  V30 20216 H 1936.5 2.4412 -3.00806 0
M  V30 20217 H 1936.92 1.51863 -5.02034 0
M  V30 20218 H 1938.39 3.15655 -4.52842 0
M  V30 20219 H 1938.87 3.3477 -2.84299 0
M  V30 20220 H 1939.47 1.95921 -3.77485 0
M  V30 20221 N 1937.79 1.51692 0.427485 0
M  V30 20222 C 1938.72 1.76668 1.52679 0
M  V30 20223 C 1939.7 0.616865 1.58521 0
M  V30 20224 O 1940.89 0.860595 1.7409 0
M  V30 20225 C 1938.02 1.9007 2.90673 0
M  V30 20226 C 1936.97 3.05566 2.99689 0
M  V30 20227 C 1936.3 3.04165 4.39759 0
M  V30 20228 C 1937.6 4.45359 2.72861 0
M  V30 20229 H 1939.29 2.68717 1.32029 0
M  V30 20230 H 1936.84 1.29306 0.633716 0
M  V30 20231 H 1938.79 2.06125 3.67546 0
M  V30 20232 H 1937.51 0.946769 3.12576 0
M  V30 20233 H 1936.17 2.89231 2.25257 0
M  V30 20234 H 1935.82 2.0653 4.58644 0
M  V30 20235 H 1935.52 3.81727 4.46719 0
M  V30 20236 H 1937.04 3.22326 5.18592 0
M  V30 20237 H 1938.46 4.61993 3.39463 0
M  V30 20238 H 1936.85 5.24701 2.91219 0
M  V30 20239 H 1937.92 4.54717 1.68405 0
M  V30 20240 N 1939.27 -0.683564 1.42004 0
M  V30 20241 C 1940.49 -1.47711 1.45589 0
M  V30 20242 C 1940.92 -1.87984 0.0661307 0
M  V30 20243 O 1940.28 -1.55425 -0.933428 0
M  V30 20244 C 1940.32 -2.70824 2.3809 0
M  V30 20245 O 1939.43 -3.68766 1.84622 0
M  V30 20246 H 1938.77 -0.444102 0.493629 0
M  V30 20247 H 1941.3 -0.839192 1.86598 0
M  V30 20248 H 1941.31 -3.18996 2.54373 0
M  V30 20249 H 1939.98 -2.4085 3.39063 0
M  V30 20250 H 1938.56 -3.27756 1.77849 0
M  V30 20251 N 1940.75 -1.28031 -0.919012 0
M  V30 20252 C 1941.69 -1.11355 -2.04213 0
M  V30 20253 C 1942.69 -0.0342517 -1.69365 0
M  V30 20254 O 1943.89 -0.192628 -1.78966 0
M  V30 20255 H 1940.27 -0.343397 -0.669016 0
M  V30 20256 H 1942.24 -2.06485 -2.15421 0
M  V30 20257 C 1940.99 -0.786653 -3.38684 0
M  V30 20258 H 1940.31 -1.6091 -3.65989 0
M  V30 20259 H 1941.75 -0.709897 -4.18015 0
M  V30 20260 C 1940.21 0.509383 -3.33027 0
M  V30 20261 O 1940.74 1.54125 -3.70956 0
M  V30 20262 N 1938.95 0.508188 -2.86122 0
M  V30 20263 H 1938.49 -0.331947 -2.55452 0
M  V30 20264 H 1938.45 1.37539 -2.82719 0
M  V30 20265 N 1942.22 1.12672 -1.10194 0
M  V30 20266 C 1943.45 1.87682 -0.863653 0
M  V30 20267 C 1943.86 1.79789 0.589271 0
M  V30 20268 O 1943.2 1.16801 1.41786 0
M  V30 20269 C 1943.27 3.37794 -1.23028 0
M  V30 20270 C 1942.93 3.69463 -2.68972 0
M  V30 20271 C 1943.93 3.68037 -3.67212 0
M  V30 20272 C 1941.61 3.98875 -3.05294 0
M  V30 20273 C 1943.61 3.95576 -4.99798 0
M  V30 20274 C 1941.29 4.26074 -4.38068 0
M  V30 20275 C 1942.29 4.24411 -5.3513 0
M  V30 20276 O 1941.98 4.50939 -6.65515 0
M  V30 20277 H 1941.71 0.600767 -0.309928 0
M  V30 20278 H 1944.27 1.43504 -1.46955 0
M  V30 20279 H 1942.5 3.82514 -0.567464 0
M  V30 20280 H 1944.18 3.94143 -0.969869 0
M  V30 20281 H 1944.95 3.4538 -3.40496 0
M  V30 20282 H 1940.83 3.99312 -2.30372 0
M  V30 20283 H 1944.37 3.94193 -5.7555 0
M  V30 20284 H 1940.27 4.48204 -4.64525 0
M  V30 20285 H 1941.04 4.68569 -6.71107 0
M  V30 20286 N 1943.7 0.89031 1.30043 0
M  V30 20287 C 1944.95 0.507478 1.95212 0
M  V30 20288 C 1945.26 -0.949179 1.71026 0
M  V30 20289 O 1946.47 -1.4391 2.30222 0
M  V30 20290 C 1944.93 0.856657 3.49556 0
M  V30 20291 C 1944.53 2.33145 3.82554 0
M  V30 20292 C 1946.28 0.543281 4.21009 0
M  V30 20293 C 1944.18 2.62198 5.301 0
M  V30 20294 H 1943.11 0.186056 0.730684 0
M  V30 20295 H 1945.77 1.08602 1.47912 0
M  V30 20296 H 1944.15 0.207146 3.95458 0
M  V30 20297 H 1945.32 3.02572 3.47544 0
M  V30 20298 H 1943.64 2.61289 3.24217 0
M  V30 20299 H 1946.23 0.737312 5.29592 0
M  V30 20300 H 1946.58 -0.517644 4.13069 0
M  V30 20301 H 1947.11 1.15022 3.80808 0
M  V30 20302 H 1943.85 3.67052 5.43096 0
M  V30 20303 H 1943.37 1.97385 5.66392 0
M  V30 20304 H 1945.05 2.47975 5.97593 0
M  V30 20305 N 1945.18 -1.43489 0.651812 0
M  V30 20306 C 1946.43 -2.0183 0.164632 0
M  V30 20307 C 1946.75 -1.51408 -1.2209 0
M  V30 20308 O 1946.01 -0.697062 -1.82865 0
M  V30 20309 C 1946.31 -3.57189 0.122885 0
M  V30 20310 C 1945.97 -4.2695 1.44997 0
M  V30 20311 C 1944.64 -4.45724 1.81339 0
M  V30 20312 C 1946.99 -4.66468 2.32501 0
M  V30 20313 C 1944.32 -5.0128 3.04853 0
M  V30 20314 C 1946.67 -5.23393 3.55306 0
M  V30 20315 C 1945.33 -5.40383 3.91845 0
M  V30 20316 H 1944.6 -0.738547 0.0602433 0
M  V30 20317 H 1947.25 -1.71984 0.842241 0
M  V30 20318 H 1945.55 -3.86568 -0.638169 0
M  V30 20319 H 1947.25 -4.00084 -0.270911 0
M  V30 20320 H 1943.84 -4.12682 1.15721 0
M  V30 20321 H 1948.03 -4.51658 2.05715 0
M  V30 20322 H 1943.28 -5.1262 3.33213 0
M  V30 20323 H 1947.46 -5.52961 4.23329 0
M  V30 20324 H 1945.08 -5.83197 4.87632 0
M  V30 20325 N 1946.66 -0.393643 -1.52605 0
M  V30 20326 C 1947.89 0.1871 -2.06052 0
M  V30 20327 C 1948.3 1.40154 -1.26501 0
M  V30 20328 O 1947.66 1.798 -0.31279 0
M  V30 20329 C 1947.71 0.552918 -3.57246 0
M  V30 20330 O 1947.43 -0.613274 -4.33786 0
M  V30 20331 C 1948.93 1.18906 -4.27055 0
M  V30 20332 H 1946.15 0.0272042 -0.670448 0
M  V30 20333 H 1948.69 -0.560126 -1.9668 0
M  V30 20334 H 1946.85 1.25004 -3.66678 0
M  V30 20335 H 1947.26 -0.311611 -5.23574 0
M  V30 20336 H 1948.74 1.39535 -5.34073 0
M  V30 20337 H 1949.21 2.15768 -3.82545 0
M  V30 20338 H 1949.82 0.532579 -4.21952 0
M  V30 20339 N 1948.14 1.57115 -0.123593 0
M  V30 20340 C 1949.1 2.14386 0.810624 0
M  V30 20341 C 1950.1 1.07985 1.19146 0
M  V30 20342 O 1951.29 1.33739 1.11622 0
M  V30 20343 C 1948.42 2.68785 2.09683 0
M  V30 20344 H 1949.61 2.98264 0.312818 0
M  V30 20345 H 1947.17 1.55794 0.125682 0
M  V30 20346 H 1947.9 1.88509 2.63884 0
M  V30 20347 H 1947.69 3.46607 1.8332 0
M  V30 20348 H 1949.18 3.12989 2.76455 0
M  V30 20349 N 1949.61 -0.150187 1.56883 0
M  V30 20350 C 1950.86 -0.864615 1.83446 0
M  V30 20351 C 1951.19 -1.80963 0.70471 0
M  V30 20352 O 1950.47 -1.92297 -0.291897 0
M  V30 20353 C 1950.75 -1.64188 3.20491 0
M  V30 20354 C 1950.6 -0.718573 4.44023 0
M  V30 20355 C 1951.92 -2.60505 3.54719 0
M  V30 20356 H 1949.04 -0.312878 0.66729 0
M  V30 20357 H 1951.68 -0.129937 1.89555 0
M  V30 20358 H 1949.83 -2.26819 3.15413 0
M  V30 20359 H 1951.51 -0.103513 4.61184 0
M  V30 20360 H 1949.75 -0.0279419 4.33791 0
M  V30 20361 H 1950.42 -1.29839 5.36513 0
M  V30 20362 H 1952.9 -2.07993 3.60386 0
M  V30 20363 H 1951.77 -3.11941 4.51646 0
M  V30 20364 H 1952.03 -3.41711 2.8051 0
M  V30 20365 N 1951.09 -1.51916 -0.419434 0
M  V30 20366 C 1952.34 -1.65468 -1.16732 0
M  V30 20367 C 1952.67 -0.379569 -1.9076 0
M  V30 20368 O 1951.92 0.637093 -1.8504 0
M  V30 20369 C 1952.22 -2.82039 -2.19519 0
M  V30 20370 C 1951.89 -4.20649 -1.62373 0
M  V30 20371 C 1950.55 -4.58353 -1.46512 0
M  V30 20372 C 1952.9 -5.0707 -1.20539 0
M  V30 20373 C 1950.23 -5.80166 -0.873185 0
M  V30 20374 C 1952.58 -6.29478 -0.627675 0
M  V30 20375 C 1951.25 -6.6594 -0.456114 0
M  V30 20376 H 1950.52 -0.605492 -0.427154 0
M  V30 20377 H 1953.16 -1.85994 -0.455916 0
M  V30 20378 H 1951.47 -2.55808 -2.96765 0
M  V30 20379 H 1953.16 -2.89722 -2.7724 0
M  V30 20380 H 1949.75 -3.90932 -1.75699 0
M  V30 20381 H 1953.94 -4.78533 -1.31606 0
M  V30 20382 H 1949.19 -6.07048 -0.728187 0
M  V30 20383 H 1953.37 -6.95775 -0.29508 0
M  V30 20384 H 1951 -7.602 0.00467585 0
M  V30 20385 N 1952.57 0.676023 -1.42365 0
M  V30 20386 C 1953.5 1.80165 -1.48536 0
M  V30 20387 C 1954.48 1.66625 -0.342049 0
M  V30 20388 O 1955.67 1.86065 -0.55619 0
M  V30 20389 C 1952.8 3.18451 -1.38586 0
M  V30 20390 C 1951.75 3.46724 -2.50931 0
M  V30 20391 C 1951.08 4.84572 -2.2604 0
M  V30 20392 C 1952.38 3.4374 -3.93243 0
M  V30 20393 H 1954.07 1.75258 -2.42745 0
M  V30 20394 H 1951.62 0.841756 -1.16835 0
M  V30 20395 H 1953.57 3.96929 -1.41511 0
M  V30 20396 H 1952.29 3.24033 -0.408703 0
M  V30 20397 H 1950.95 2.70607 -2.47321 0
M  V30 20398 H 1950.6 4.86802 -1.2662 0
M  V30 20399 H 1950.3 5.04452 -3.01334 0
M  V30 20400 H 1951.82 5.65336 -2.30712 0
M  V30 20401 H 1953.24 4.12189 -3.98463 0
M  V30 20402 H 1951.64 3.75155 -4.68379 0
M  V30 20403 H 1952.71 2.42337 -4.20001 0
M  V30 20404 N 1954.05 1.28517 0.912209 0
M  V30 20405 C 1955.01 1.12594 1.99637 0
M  V30 20406 C 1956.01 0.0651449 1.60668 0
M  V30 20407 O 1957.2 0.311054 1.714 0
M  V30 20408 C 1954.33 0.719053 3.3323 0
M  V30 20409 H 1955.53 2.08884 2.15192 0
M  V30 20410 H 1953.08 1.11525 1.09508 0
M  V30 20411 H 1953.81 -0.244536 3.23377 0
M  V30 20412 H 1953.6 1.48536 3.62876 0
M  V30 20413 H 1955.09 0.630346 4.12815 0
M  V30 20414 N 1955.53 -1.12086 1.1079 0
M  V30 20415 C 1956.44 -2.21514 0.772578 0
M  V30 20416 C 1957.45 -1.72454 -0.231462 0
M  V30 20417 O 1958.63 -2.01281 -0.0693074 0
M  V30 20418 C 1955.69 -3.46043 0.213364 0
M  V30 20419 C 1954.75 -4.09925 1.27515 0
M  V30 20420 C 1953.99 -5.28509 0.742524 0
M  V30 20421 O 1954.21 -5.68779 -0.429786 0
M  V30 20422 O 1953.14 -5.82802 1.50417 0
M  V30 20423 H 1956.97 -2.52596 1.68608 0
M  V30 20424 H 1954.56 -1.20492 0.883294 0
M  V30 20425 H 1956.44 -4.21294 -0.0944683 0
M  V30 20426 H 1955.11 -3.16628 -0.672947 0
M  V30 20427 H 1954.02 -3.36436 1.63589 0
M  V30 20428 H 1955.35 -4.43504 2.13461 0
M  V30 20429 N 1957 -0.897194 -1.29569 0
M  V30 20430 C 1957.94 -0.317616 -2.25979 0
M  V30 20431 C 1958.92 0.568783 -1.52327 0
M  V30 20432 O 1960.1 0.516152 -1.81296 0
M  V30 20433 C 1957.23 0.547511 -3.34245 0
M  V30 20434 C 1956.27 -0.271227 -4.25637 0
M  V30 20435 S 1957.11 -1.6674 -5.08879 0
M  V30 20436 C 1958.26 -0.809125 -6.20648 0
M  V30 20437 H 1958.49 -1.1348 -2.7479 0
M  V30 20438 H 1956.03 -0.697379 -1.37753 0
M  V30 20439 H 1957.99 1.04088 -3.97084 0
M  V30 20440 H 1956.65 1.33891 -2.84134 0
M  V30 20441 H 1955.84 0.389522 -5.02493 0
M  V30 20442 H 1955.44 -0.697651 -3.67435 0
M  V30 20443 H 1957.73 -0.0314136 -6.77493 0
M  V30 20444 H 1958.68 -1.54968 -6.90934 0
M  V30 20445 H 1959.08 -0.36462 -5.63321 0
M  V30 20446 N 1958.48 1.43142 -0.659413 0
M  V30 20447 C 1959.71 2.06087 -0.183265 0
M  V30 20448 C 1960.13 1.49462 1.15354 0
M  V30 20449 O 1959.48 0.628341 1.71342 0
M  V30 20450 C 1959.53 3.61381 -0.0928701 0
M  V30 20451 O 1959.25 4.15902 -1.37684 0
M  V30 20452 C 1960.76 4.41413 0.408616 0
M  V30 20453 H 1957.98 0.664557 -0.092765 0
M  V30 20454 H 1960.52 1.83542 -0.901809 0
M  V30 20455 H 1958.67 3.8309 0.576268 0
M  V30 20456 H 1959.09 5.09629 -1.24009 0
M  V30 20457 H 1960.56 5.50394 0.420806 0
M  V30 20458 H 1961.04 4.14885 1.44108 0
M  V30 20459 H 1961.65 4.24687 -0.228247 0
M  V30 20460 N 1959.96 0.40173 1.52394 0
M  V30 20461 C 1961.21 -0.17672 2.02029 0
M  V30 20462 C 1961.54 -1.45417 1.28715 0
M  V30 20463 O 1960.81 -1.90524 0.391263 0
M  V30 20464 C 1961.1 -0.43198 3.575 0
M  V30 20465 C 1960.95 0.861628 4.4147 0
M  V30 20466 C 1962.27 -1.2173 4.2293 0
M  V30 20467 H 1959.39 -0.0627536 0.734323 0
M  V30 20468 H 1962.03 0.533742 1.82349 0
M  V30 20469 H 1960.18 -1.03719 3.74399 0
M  V30 20470 H 1961.85 1.49808 4.36297 0
M  V30 20471 H 1960.1 1.47424 4.07981 0
M  V30 20472 H 1960.77 0.637511 5.48306 0
M  V30 20473 H 1963.24 -0.704996 4.10084 0
M  V30 20474 H 1962.12 -1.36465 5.31666 0
M  V30 20475 H 1962.38 -2.23592 3.81391 0
M  V30 20476 N 1961.44 -1.57047 0.131923 0
M  V30 20477 C 1962.39 -2.15989 -0.813469 0
M  V30 20478 C 1963.36 -1.08848 -1.25464 0
M  V30 20479 O 1964.54 -1.36819 -1.32986 0
M  V30 20480 C 1961.68 -2.7738 -2.05315 0
M  V30 20481 C 1960.79 -3.98868 -1.65916 0
M  V30 20482 C 1959.93 -4.48305 -2.84948 0
M  V30 20483 C 1958.97 -5.62294 -2.41851 0
M  V30 20484 N 1958.1 -6.06417 -3.53841 0
M  V30 20485 H 1962.94 -2.96445 -0.304009 0
M  V30 20486 H 1960.48 -1.46448 -0.138355 0
M  V30 20487 H 1962.44 -3.11111 -2.77967 0
M  V30 20488 H 1961.07 -1.99593 -2.53697 0
M  V30 20489 H 1960.12 -3.71215 -0.830867 0
M  V30 20490 H 1961.43 -4.81493 -1.30252 0
M  V30 20491 H 1960.59 -4.84012 -3.6581 0
M  V30 20492 H 1959.33 -3.64657 -3.23847 0
M  V30 20493 H 1958.33 -5.26178 -1.59425 0
M  V30 20494 H 1959.56 -6.47718 -2.04055 0
M  V30 20495 H 1957.5 -5.25707 -3.92388 0
M  V30 20496 H 1957.42 -6.8393 -3.22143 0
M  V30 20497 H 1958.69 -6.46765 -4.35104 0
M  V30 20498 N 1962.92 0.141865 -1.5696 0
M  V30 20499 C 1964.16 0.854874 -1.83901 0
M  V30 20500 C 1964.5 1.80586 -0.714297 0
M  V30 20501 O 1963.77 1.92449 0.281695 0
M  V30 20502 C 1964.05 1.62486 -3.21357 0
M  V30 20503 C 1963.91 0.695015 -4.44398 0
M  V30 20504 C 1965.23 2.5862 -3.56095 0
M  V30 20505 H 1962.34 0.309334 -0.66894 0
M  V30 20506 H 1964.99 0.119882 -1.89621 0
M  V30 20507 H 1963.14 2.25143 -3.16612 0
M  V30 20508 H 1964.81 0.0790536 -4.61232 0
M  V30 20509 H 1963.05 0.00493655 -4.338 0
M  V30 20510 H 1963.72 1.26992 -5.37194 0
M  V30 20511 H 1966.2 2.06079 -3.61484 0
M  V30 20512 H 1965.07 3.09542 -4.53294 0
M  V30 20513 H 1965.34 3.40219 -2.82319 0
M  V30 20514 N 1964.39 1.52136 0.411372 0
M  V30 20515 C 1965.64 1.66331 1.16025 0
M  V30 20516 C 1965.97 0.390981 1.90223 0
M  V30 20517 O 1965.25 -0.610512 1.8467 0
M  V30 20518 C 1965.53 2.88386 2.15651 0
M  V30 20519 C 1965.38 4.25664 1.45364 0
M  V30 20520 C 1966.7 3.05963 3.16346 0
M  V30 20521 H 1963.82 0.60531 0.420439 0
M  V30 20522 H 1966.46 1.84685 0.446247 0
M  V30 20523 H 1964.61 2.72869 2.76541 0
M  V30 20524 H 1966.29 4.52904 0.876105 0
M  V30 20525 H 1964.53 4.27168 0.75563 0
M  V30 20526 H 1965.2 5.07109 2.18047 0
M  V30 20527 H 1967.68 3.20363 2.65531 0
M  V30 20528 H 1966.55 3.92882 3.83321 0
M  V30 20529 H 1966.81 2.19177 3.83945 0
M  V30 20530 N 1965.87 -0.668464 1.42721 0
M  V30 20531 C 1966.84 -1.76365 1.46384 0
M  V30 20532 C 1967.84 -1.56932 0.350554 0
M  V30 20533 O 1969.03 -1.63109 0.611658 0
M  V30 20534 C 1966.16 -3.15071 1.30164 0
M  V30 20535 H 1967.35 -1.74503 2.43903 0
M  V30 20536 H 1964.9 -0.878695 1.29262 0
M  V30 20537 H 1965.64 -3.22555 0.335926 0
M  V30 20538 H 1965.42 -3.3058 2.10853 0
M  V30 20539 H 1966.91 -3.94963 1.35625 0
M  V30 20540 N 1967.35 -1.28999 -0.905381 0
M  V30 20541 C 1968.28 -1.16189 -2.0254 0
M  V30 20542 C 1969.26 -0.0575293 -1.70003 0
M  V30 20543 O 1970.45 -0.236004 -1.92761 0
M  V30 20544 C 1967.58 -0.831704 -3.37194 0
M  V30 20545 C 1966.53 -1.89176 -3.83922 0
M  V30 20546 C 1965.86 -1.41501 -5.15637 0
M  V30 20547 C 1967.16 -3.29971 -4.04866 0
M  V30 20548 H 1968.85 -2.09886 -2.13514 0
M  V30 20549 H 1966.4 -1.0105 -1.02591 0
M  V30 20550 H 1968.35 -0.728825 -4.1505 0
M  V30 20551 H 1967.07 0.140958 -3.26296 0
M  V30 20552 H 1965.73 -1.98393 -3.08279 0
M  V30 20553 H 1965.38 -0.431182 -5.01149 0
M  V30 20554 H 1965.08 -2.12391 -5.47872 0
M  V30 20555 H 1966.61 -1.32552 -5.96039 0
M  V30 20556 H 1968.02 -3.23628 -4.73221 0
M  V30 20557 H 1966.42 -3.98768 -4.48447 0
M  V30 20558 H 1967.49 -3.73369 -3.09393 0
M  V30 20559 N 1968.83 1.11497 -1.11383 0
M  V30 20560 C 1970.08 1.8286 -0.860611 0
M  V30 20561 C 1970.4 1.85032 0.615471 0
M  V30 20562 O 1969.67 1.32047 1.44708 0
M  V30 20563 H 1968.25 0.677153 -0.315392 0
M  V30 20564 H 1970.91 1.34963 -1.40609 0
M  V30 20565 H 1970.01 2.86743 -1.23227 0
M  V30 20566 N 1970.31 0.904053 1.29092 0
M  V30 20567 C 1971.55 0.542414 1.96034 0
M  V30 20568 C 1971.91 -0.902189 1.69936 0
M  V30 20569 O 1971.2 -1.6317 1.0043 0
M  V30 20570 C 1971.4 0.776255 3.48868 0
M  V30 20571 C 1971.22 2.24204 3.89824 0
M  V30 20572 C 1969.99 2.89031 4.14475 0
M  V30 20573 C 1972.19 3.21762 4.01215 0
M  V30 20574 N 1970.17 4.26007 4.42031 0
M  V30 20575 C 1971.55 4.4387 4.32873 0
M  V30 20576 C 1973.6 3.17293 3.83705 0
M  V30 20577 C 1972.3 5.62076 4.48846 0
M  V30 20578 C 1974.33 4.34789 4.0089 0
M  V30 20579 C 1973.69 5.55668 4.32912 0
M  V30 20580 H 1969.79 0.248172 0.741576 0
M  V30 20581 H 1972.37 1.16577 1.55942 0
M  V30 20582 H 1970.55 0.182248 3.87972 0
M  V30 20583 H 1972.28 0.379616 4.02916 0
M  V30 20584 H 1969.03 2.39805 4.084 0
M  V30 20585 H 1969.46 4.96802 4.5991 0
M  V30 20586 H 1974.1 2.24922 3.58008 0
M  V30 20587 H 1971.82 6.54934 4.73378 0
M  V30 20588 H 1975.4 4.32821 3.88789 0
M  V30 20589 H 1974.28 6.4507 4.45931 0
M  V30 20590 N 1971.79 -1.4279 0.666995 0
M  V30 20591 C 1973.03 -2.03517 0.189811 0
M  V30 20592 C 1973.39 -1.5156 -1.17871 0
M  V30 20593 O 1974.59 -2.04022 -1.7501 0
M  V30 20594 C 1972.86 -3.56757 0.214298 0
M  V30 20595 S 1974.42 -4.38375 -0.193026 0
M  V30 20596 H 1971.24 -0.706625 0.0787564 0
M  V30 20597 H 1973.84 -1.74655 0.878407 0
M  V30 20598 H 1972.54 -3.92071 1.2128 0
M  V30 20599 H 1972.08 -3.90281 -0.494388 0
M  V30 20600 H 1974.09 -4.75195 -1.42842 0
M  V30 20601 N 1973.26 -0.409806 -1.52179 0
M  V30 20602 C 1974.51 0.165758 -2.0182 0
M  V30 20603 C 1974.84 1.45086 -1.29539 0
M  V30 20604 O 1974.09 1.91766 -0.390424 0
M  V30 20605 C 1974.39 0.459582 -3.54433 0
M  V30 20606 C 1974.06 -0.7364 -4.44846 0
M  V30 20607 C 1972.72 -1.06445 -4.69279 0
M  V30 20608 C 1975.07 -1.53553 -4.98067 0
M  V30 20609 C 1972.4 -2.19281 -5.44181 0
M  V30 20610 C 1974.75 -2.65467 -5.74204 0
M  V30 20611 C 1973.42 -2.98757 -5.96909 0
M  V30 20612 H 1972.69 0.0606551 -0.738513 0
M  V30 20613 H 1975.33 -0.551364 -1.83391 0
M  V30 20614 H 1973.64 1.25828 -3.71045 0
M  V30 20615 H 1975.34 0.917888 -3.90353 0
M  V30 20616 H 1971.93 -0.470734 -4.26007 0
M  V30 20617 H 1976.11 -1.29532 -4.79098 0
M  V30 20618 H 1971.37 -2.4542 -5.59981 0
M  V30 20619 H 1975.54 -3.27776 -6.14439 0
M  V30 20620 H 1973.17 -3.86307 -6.5473 0
M  V30 20621 N 1974.74 1.56975 -0.14025 0
M  V30 20622 C 1975.99 1.95519 0.51153 0
M  V30 20623 C 1976.31 1.02572 1.65843 0
M  V30 20624 O 1975.58 0.0859828 1.95711 0
M  V30 20625 H 1974.16 0.721914 0.191961 0
M  V30 20626 H 1976.82 1.9372 -0.214169 0
M  V30 20627 H 1975.92 2.99078 0.892131 0
M  V30 20628 N 1976.22 -0.133539 1.57033 0
M  V30 20629 C 1977.13 -1.18362 2.02553 0
M  V30 20630 C 1978.15 -1.46212 0.943294 0
M  V30 20631 O 1979.32 -1.57616 1.25376 0
M  V30 20632 C 1976.39 -2.49391 2.40842 0
M  V30 20633 C 1975.45 -2.29068 3.63079 0
M  V30 20634 C 1974.68 -3.53849 3.99533 0
M  V30 20635 O 1974.9 -4.60576 3.36491 0
M  V30 20636 O 1973.84 -3.45713 4.92713 0
M  V30 20637 H 1977.66 -0.827128 2.9222 0
M  V30 20638 H 1975.25 -0.343267 1.45403 0
M  V30 20639 H 1977.13 -3.26617 2.66269 0
M  V30 20640 H 1975.81 -2.84544 1.54326 0
M  V30 20641 H 1974.71 -1.49749 3.42821 0
M  V30 20642 H 1976.05 -1.98826 4.50254 0
M  V30 20643 N 1977.7 -1.52352 -0.403298 0
M  V30 20644 C 1978.63 -1.72347 -1.51093 0
M  V30 20645 C 1979.64 -0.603886 -1.51186 0
M  V30 20646 O 1980.83 -0.879203 -1.55346 0
M  V30 20647 C 1977.93 -1.75407 -2.89975 0
M  V30 20648 C 1977.1 -3.04495 -3.14009 0
M  V30 20649 C 1976.16 -2.9929 -4.32795 0
M  V30 20650 O 1975.19 -3.73185 -4.29792 0
M  V30 20651 N 1976.39 -2.17484 -5.3822 0
M  V30 20652 H 1979.16 -2.67908 -1.34333 0
M  V30 20653 H 1976.72 -1.50662 -0.592661 0
M  V30 20654 H 1978.71 -1.6945 -3.67517 0
M  V30 20655 H 1977.28 -0.87295 -3.00164 0
M  V30 20656 H 1976.5 -3.24056 -2.24458 0
M  V30 20657 H 1977.79 -3.89879 -3.26913 0
M  V30 20658 H 1977.19 -1.56888 -5.4351 0
M  V30 20659 H 1975.74 -2.17378 -6.14484 0
M  V30 20660 N 1979.18 0.660885 -1.43074 0
M  V30 20661 C 1980.14 1.75586 -1.47317 0
M  V30 20662 C 1981.14 1.56744 -0.358871 0
M  V30 20663 O 1982.33 1.62782 -0.620299 0
M  V30 20664 C 1979.46 3.14377 -1.31833 0
M  V30 20665 H 1980.65 1.73207 -2.44825 0
M  V30 20666 H 1978.21 0.871828 -1.29726 0
M  V30 20667 H 1978.94 3.22373 -0.353027 0
M  V30 20668 H 1978.73 3.29457 -2.12604 0
M  V30 20669 H 1980.22 3.94238 -1.37718 0
M  V30 20670 N 1980.65 1.29477 0.898527 0
M  V30 20671 C 1981.88 1.20232 1.68011 0
M  V30 20672 C 1982.29 -0.239393 1.87679 0
M  V30 20673 O 1981.64 -1.17197 1.41459 0
M  V30 20674 C 1981.7 1.84564 3.08507 0
M  V30 20675 C 1981.36 3.33862 3.12065 0
M  V30 20676 C 1982.36 4.30068 2.92125 0
M  V30 20677 C 1980.04 3.75082 3.34094 0
M  V30 20678 C 1982.04 5.65469 2.94149 0
M  V30 20679 C 1979.72 5.10604 3.35748 0
M  V30 20680 C 1980.72 6.05607 3.15798 0
M  V30 20681 O 1980.41 7.38655 3.17243 0
M  V30 20682 H 1980.14 0.417733 0.531484 0
M  V30 20683 H 1982.7 1.71396 1.13193 0
M  V30 20684 H 1980.93 1.27913 3.64932 0
M  V30 20685 H 1982.62 1.69625 3.68758 0
M  V30 20686 H 1983.38 3.99556 2.74918 0
M  V30 20687 H 1979.26 3.01588 3.48662 0
M  V30 20688 H 1982.8 6.39598 2.78496 0
M  V30 20689 H 1978.7 5.40761 3.52488 0
M  V30 20690 H 1979.47 7.47475 3.33502 0
M  V30 20691 N 1982.13 -1.10905 1.11972 0
M  V30 20692 C 1983.06 -2.19168 0.805461 0
M  V30 20693 C 1984.04 -1.68557 -0.228623 0
M  V30 20694 O 1985.23 -1.93987 -0.0908778 0
M  V30 20695 C 1982.36 -3.4637 0.253951 0
M  V30 20696 C 1981.31 -4.10228 1.22054 0
M  V30 20697 C 1980.64 -5.32072 0.529483 0
M  V30 20698 C 1981.94 -4.54506 2.57336 0
M  V30 20699 H 1983.63 -2.45713 1.71071 0
M  V30 20700 H 1981.18 -1.18096 0.823969 0
M  V30 20701 H 1983.13 -4.21394 0.0218576 0
M  V30 20702 H 1981.86 -3.19301 -0.68662 0
M  V30 20703 H 1980.51 -3.37204 1.43836 0
M  V30 20704 H 1980.16 -5.01276 -0.416074 0
M  V30 20705 H 1979.86 -5.75748 1.17422 0
M  V30 20706 H 1981.39 -6.09831 0.306313 0
M  V30 20707 H 1982.8 -5.20826 2.3961 0
M  V30 20708 H 1981.2 -5.09015 3.17842 0
M  V30 20709 H 1982.27 -3.67671 3.16143 0
M  V30 20710 N 1983.61 -0.910886 -1.2861 0
M  V30 20711 C 1985.03 -0.608615 -1.4754 0
M  V30 20712 C 1985.23 0.846869 -1.8284 0
M  V30 20713 O 1984.28 1.62618 -1.93162 0
M  V30 20714 C 1985.6 -1.54405 -2.5803 0
M  V30 20715 C 1987.14 -1.55046 -2.719 0
M  V30 20716 C 1987.62 -2.47245 -3.85531 0
M  V30 20717 N 1989.11 -2.45356 -3.9288 0
M  V30 20718 C 1989.84 -3.13394 -4.80179 0
M  V30 20719 N 1989.34 -3.90751 -5.72088 0
M  V30 20720 N 1991.13 -3.02495 -4.73765 0
M  V30 20721 H 1983.28 -1.8521 -1.03977 0
M  V30 20722 H 1985.55 -0.794235 -0.517585 0
M  V30 20723 H 1985.25 -2.5816 -2.38844 0
M  V30 20724 H 1985.13 -1.27299 -3.5507 0
M  V30 20725 H 1987.51 -0.520311 -2.90477 0
M  V30 20726 H 1987.6 -1.86195 -1.754 0
M  V30 20727 H 1987.24 -3.50361 -3.67709 0
M  V30 20728 H 1987.17 -2.134 -4.81423 0
M  V30 20729 H 1989.66 -1.89161 -3.27149 0
M  V30 20730 H 1989.97 -4.39694 -6.35523 0
M  V30 20731 H 1988.32 -3.94857 -5.71938 0
M  V30 20732 H 1991.51 -2.41567 -4.00953 0
M  V30 20733 H 1991.68 -3.55793 -5.41586 0
M  V30 20734 N 1985.09 1.42434 -0.674558 0
M  V30 20735 C 1986.31 2.06399 -0.203545 0
M  V30 20736 C 1986.74 1.50345 1.1304 0
M  V30 20737 O 1986.1 0.621837 1.70302 0
M  V30 20738 C 1986.14 3.60293 -0.148884 0
M  V30 20739 O 1985.25 4.02843 0.882667 0
M  V30 20740 H 1984.59 0.655698 -0.104672 0
M  V30 20741 H 1987.12 1.82572 -0.923502 0
M  V30 20742 H 1987.13 4.07991 0.0273375 0
M  V30 20743 H 1985.8 4.00464 -1.12256 0
M  V30 20744 H 1984.38 3.66694 0.677506 0
M  V30 20745 N 1986.57 0.417871 1.51959 0
M  V30 20746 C 1987.79 -0.156736 2.06807 0
M  V30 20747 C 1988.22 -1.37354 1.28512 0
M  V30 20748 O 1987.57 -1.78494 0.317715 0
M  V30 20749 C 1987.62 -0.476913 3.57432 0
M  V30 20750 O 1986.73 -1.56654 3.81488 0
M  V30 20751 H 1986.07 -0.0103873 0.663919 0
M  V30 20752 H 1988.6 0.593593 1.958 0
M  V30 20753 H 1988.61 -0.733026 4.01361 0
M  V30 20754 H 1987.28 0.412542 4.13849 0
M  V30 20755 H 1985.86 -1.30191 3.49435 0
M  V30 20756 N 1988.04 -1.56898 0.148573 0
M  V30 20757 C 1989.29 -1.97247 -0.496492 0
M  V30 20758 C 1989.65 -1.0321 -1.62374 0
M  V30 20759 O 1988.94 -0.0674457 -1.91481 0
M  V30 20760 C 1989.13 -3.41691 -1.04795 0
M  V30 20761 C 1988.96 -4.49693 0.0243387 0
M  V30 20762 C 1987.73 -5.03144 0.466295 0
M  V30 20763 C 1989.93 -5.07779 0.816389 0
M  V30 20764 N 1987.91 -5.94753 1.52126 0
M  V30 20765 C 1989.28 -5.95612 1.72182 0
M  V30 20766 C 1991.34 -4.90346 0.864002 0
M  V30 20767 C 1990.04 -6.67878 2.67078 0
M  V30 20768 C 1992.07 -5.63316 1.80081 0
M  V30 20769 C 1991.43 -6.50858 2.69376 0
M  V30 20770 H 1987.53 -0.767393 -0.150442 0
M  V30 20771 H 1990.11 -1.93171 0.243538 0
M  V30 20772 H 1988.28 -3.46358 -1.75758 0
M  V30 20773 H 1990.01 -3.69099 -1.65976 0
M  V30 20774 H 1986.77 -4.73551 0.068254 0
M  V30 20775 H 1987.19 -6.45262 2.04856 0
M  V30 20776 H 1991.84 -4.22383 0.187713 0
M  V30 20777 H 1989.55 -7.35069 3.35707 0
M  V30 20778 H 1993.14 -5.51822 1.84346 0
M  V30 20779 H 1992.02 -7.06331 3.40685 0
M  V30 20780 N 1989.52 0.125209 -1.57102 0
M  V30 20781 C 1990.47 1.17292 -2.00861 0
M  V30 20782 C 1991.46 1.4323 -0.904511 0
M  V30 20783 O 1992.67 1.43266 -1.08972 0
M  V30 20784 H 1989.05 0.395322 -0.639706 0
M  V30 20785 H 1991.02 0.777307 -2.88098 0
M  V30 20786 C 1989.77 2.49311 -2.42362 0
M  V30 20787 H 1989.09 2.30188 -3.26884 0
M  V30 20788 H 1990.53 3.21196 -2.76784 0
M  V30 20789 C 1988.99 3.1144 -1.2848 0
M  V30 20790 O 1989.52 3.97233 -0.597373 0
M  V30 20791 N 1987.72 2.71221 -1.04344 0
M  V30 20792 H 1987.27 2.0155 -1.60423 0
M  V30 20793 H 1987.23 3.1312 -0.283408 0
M  V30 20794 N 1991 1.52564 0.395213 0
M  V30 20795 C 1992.25 1.67552 1.14254 0
M  V30 20796 C 1992.58 0.411135 1.89798 0
M  V30 20797 O 1991.85 -0.590891 1.85307 0
M  V30 20798 C 1992.14 2.90657 2.1258 0
M  V30 20799 C 1991.99 4.27181 1.40841 0
M  V30 20800 C 1993.31 3.09301 3.13083 0
M  V30 20801 H 1990.43 0.609735 0.413995 0
M  V30 20802 H 1993.07 1.85148 0.426634 0
M  V30 20803 H 1991.22 2.75787 2.73631 0
M  V30 20804 H 1992.89 4.53808 0.82802 0
M  V30 20805 H 1991.14 4.27946 0.71028 0
M  V30 20806 H 1991.81 5.09393 2.12656 0
M  V30 20807 H 1994.28 3.23162 2.62118 0
M  V30 20808 H 1993.16 3.96925 3.79133 0
M  V30 20809 H 1993.42 2.23237 3.81599 0
M  V30 20810 N 1992.48 -0.653289 1.43422 0
M  V30 20811 C 1993.41 -1.77779 1.51383 0
M  V30 20812 C 1994.39 -1.6606 0.368515 0
M  V30 20813 O 1995.57 -1.85157 0.585721 0
M  V30 20814 C 1992.7 -3.16206 1.43635 0
M  V30 20815 C 1991.66 -3.42688 2.56415 0
M  V30 20816 C 1990.98 -4.80915 2.3372 0
M  V30 20817 C 1992.28 -3.3744 3.98662 0
M  V30 20818 H 1993.98 -1.71374 2.45502 0
M  V30 20819 H 1991.52 -0.823062 1.1816 0
M  V30 20820 H 1993.48 -3.94627 1.47808 0
M  V30 20821 H 1992.2 -3.23341 0.460202 0
M  V30 20822 H 1990.86 -2.66638 2.51594 0
M  V30 20823 H 1990.51 -4.84726 1.34349 0
M  V30 20824 H 1990.21 -4.99594 3.09321 0
M  V30 20825 H 1991.73 -5.61594 2.39677 0
M  V30 20826 H 1993.15 -4.05798 4.0497 0
M  V30 20827 H 1991.54 -3.67656 4.74288 0
M  V30 20828 H 1992.61 -2.35624 4.23803 0
M  V30 20829 N 1993.96 -1.29952 -0.891648 0
M  V30 20830 C 1995.23 -1.09057 -1.62376 0
M  V30 20831 C 1995.61 0.362482 -2.07965 0
M  V30 20832 O 1994.96 1.35277 -1.84153 0
M  V30 20833 C 1995.17 -2.08543 -2.79841 0
M  V30 20834 C 1996.52 -2.39899 -3.50333 0
M  V30 20835 O 1997.54 -2.06801 -2.90021 0
M  V30 20836 O 1996.4 -2.96487 -4.59083 0
M  V30 20837 H 1993.5 -0.418386 -0.71336 0
M  V30 20838 H 1996.04 -1.41353 -0.939009 0
M  V30 20839 H 1994.81 -3.06378 -2.43409 0
M  V30 20840 H 1994.44 -1.77024 -3.56017 0
M  V30 20841 N 1995.44 1.1031 -1.12559 0
M  V30 20842 C 1996.68 1.81937 -0.879957 0
M  V30 20843 C 1997 1.85675 0.595811 0
M  V30 20844 O 1996.27 1.33574 1.433 0
M  V30 20845 H 1994.85 0.67377 -0.322556 0
M  V30 20846 H 1997.52 1.33464 -1.42033 0
M  V30 20847 H 1996.61 2.8542 -1.26261 0
M  V30 20848 N 1996.91 0.917694 1.28125 0
M  V30 20849 C 1997.84 0.426179 2.29578 0
M  V30 20850 C 1998.82 -0.508289 1.62328 0
M  V30 20851 O 2000.01 -0.415181 1.8971 0
M  V30 20852 C 1997.14 -0.331007 3.45719 0
M  V30 20853 C 1996.09 0.51469 4.24894 0
M  V30 20854 C 1995.42 -0.371069 5.33411 0
M  V30 20855 C 1996.72 1.774 4.9125 0
M  V30 20856 H 1998.41 1.27403 2.7094 0
M  V30 20857 H 1995.96 0.614065 1.30251 0
M  V30 20858 H 1997.91 -0.68573 4.15783 0
M  V30 20859 H 1996.64 -1.2128 3.03247 0
M  V30 20860 H 1995.3 0.851986 3.56562 0
M  V30 20861 H 1994.94 -1.25152 4.87182 0
M  V30 20862 H 1994.64 0.19121 5.87289 0
M  V30 20863 H 1996.17 -0.721587 6.06321 0
M  V30 20864 H 1997.58 1.48795 5.53654 0
M  V30 20865 H 1995.98 2.27899 5.55141 0
M  V30 20866 H 1997.05 2.49947 4.15517 0
M  V30 20867 N 1998.39 -1.42074 0.682102 0
M  V30 20868 C 1999.32 -2.33489 0.0224223 0
M  V30 20869 C 2000.3 -1.51082 -0.781557 0
M  V30 20870 O 2001.49 -1.79662 -0.737243 0
M  V30 20871 C 1998.62 -3.34773 -0.92434 0
M  V30 20872 C 1997.57 -4.2739 -0.228431 0
M  V30 20873 C 1996.9 -5.1894 -1.28863 0
M  V30 20874 C 1998.2 -5.14539 0.897035 0
M  V30 20875 H 1999.89 -2.88901 0.785898 0
M  V30 20876 H 1997.44 -1.38913 0.379376 0
M  V30 20877 H 1999.39 -3.97641 -1.39497 0
M  V30 20878 H 1998.11 -2.77681 -1.71932 0
M  V30 20879 H 1996.77 -3.65927 0.222034 0
M  V30 20880 H 1996.42 -4.5817 -2.07579 0
M  V30 20881 H 1996.12 -5.81736 -0.828084 0
M  V30 20882 H 1997.65 -5.84683 -1.76005 0
M  V30 20883 H 1999.06 -5.71051 0.507296 0
M  V30 20884 H 1997.46 -5.86206 1.28383 0
M  V30 20885 H 1998.53 -4.52505 1.74263 0
M  V30 20886 N 1999.87 -0.425924 -1.51735 0
M  V30 20887 C 2001.12 0.144557 -2.02284 0
M  V30 20888 C 2001.45 1.43351 -1.31012 0
M  V30 20889 O 2000.72 1.89877 -0.421524 0
M  V30 20890 C 2001.01 0.37505 -3.58142 0
M  V30 20891 C 2000.86 -0.931753 -4.40044 0
M  V30 20892 C 2002.18 1.14986 -4.24813 0
M  V30 20893 H 1999.3 0.0510632 -0.735229 0
M  V30 20894 H 2001.94 -0.562685 -1.81477 0
M  V30 20895 H 2000.09 0.977495 -3.76002 0
M  V30 20896 H 2001.76 -1.5673 -4.33859 0
M  V30 20897 H 2000 -1.53896 -4.05584 0
M  V30 20898 H 2000.68 -0.724661 -5.47223 0
M  V30 20899 H 2003.15 0.639666 -4.11154 0
M  V30 20900 H 2002.03 1.27989 -5.3377 0
M  V30 20901 H 2002.29 2.17496 -3.849 0
M  V30 20902 N 2001.35 1.56817 -0.156891 0
M  V30 20903 C 2002.28 2.20266 0.774915 0
M  V30 20904 C 2003.26 1.15387 1.24979 0
M  V30 20905 O 2004.44 1.43766 1.30557 0
M  V30 20906 C 2001.57 2.83207 2.01025 0
M  V30 20907 C 2000.53 3.94 1.67177 0
M  V30 20908 C 1999.85 4.43921 2.98057 0
M  V30 20909 C 2001.15 5.14297 0.91083 0
M  V30 20910 H 2002.85 2.98387 0.246082 0
M  V30 20911 H 2000.39 1.43525 0.116921 0
M  V30 20912 H 2002.35 3.26264 2.66701 0
M  V30 20913 H 2001.07 2.02433 2.56298 0
M  V30 20914 H 1999.73 3.51576 1.03876 0
M  V30 20915 H 1999.38 3.59957 3.5134 0
M  V30 20916 H 1999.08 5.18657 2.76169 0
M  V30 20917 H 2000.6 4.89656 3.64787 0
M  V30 20918 H 2002.02 5.54137 1.46988 0
M  V30 20919 H 2000.41 5.94857 0.791526 0
M  V30 20920 H 2001.48 4.84806 -0.0955943 0
M  V30 20921 N 2002.83 -0.116876 1.57166 0
M  V30 20922 C 2004.07 -0.822873 1.84151 0
M  V30 20923 C 2004.39 -1.80944 0.742867 0
M  V30 20924 O 2005.59 -2.56177 0.89919 0
M  V30 20925 C 2004.05 -1.51414 3.26499 0
M  V30 20926 C 2003.66 -0.568446 4.44379 0
M  V30 20927 C 2005.4 -2.20514 3.62731 0
M  V30 20928 C 2003.31 -1.26306 5.77755 0
M  V30 20929 H 2002.24 -0.311047 0.686852 0
M  V30 20930 H 2004.89 -0.0756323 1.83344 0
M  V30 20931 H 2003.27 -2.30807 3.21782 0
M  V30 20932 H 2004.45 0.192429 4.60398 0
M  V30 20933 H 2002.76 0.0157058 4.16397 0
M  V30 20934 H 2005.36 -2.73177 4.5965 0
M  V30 20935 H 2005.7 -2.98411 2.90269 0
M  V30 20936 H 2006.23 -1.48006 3.69241 0
M  V30 20937 H 2002.97 -0.525332 6.53392 0
M  V30 20938 H 2002.49 -1.99589 5.65618 0
M  V30 20939 H 2004.17 -1.79566 6.21583 0
M  V30 20940 N 2004.3 -1.52772 -0.387116 0
M  V30 20941 C 2005.53 -1.72086 -1.15763 0
M  V30 20942 C 2005.95 -0.43912 -1.82903 0
M  V30 20943 O 2005.31 0.605254 -1.70899 0
M  V30 20944 C 2005.36 -2.87248 -2.17992 0
M  V30 20945 O 2004.46 -2.54353 -3.2462 0
M  V30 20946 H 2003.8 -0.572174 -0.336918 0
M  V30 20947 H 2006.33 -1.99571 -0.450833 0
M  V30 20948 H 2006.34 -3.12798 -2.61957 0
M  V30 20949 H 2005.02 -3.80232 -1.68513 0
M  V30 20950 H 2003.6 -2.39551 -2.8578 0
M  V30 20951 N 2005.78 0.645673 -1.43767 0
M  V30 20952 C 2007.03 1.40756 -1.45999 0
M  V30 20953 C 2007.36 1.94006 -0.0867413 0
M  V30 20954 O 2006.64 1.72761 0.893532 0
M  V30 20955 C 2006.92 2.58349 -2.50854 0
M  V30 20956 C 2006.77 2.10542 -3.97482 0
M  V30 20957 C 2008.09 3.60555 -2.52364 0
M  V30 20958 H 2005.21 0.510461 -0.5316 0
M  V30 20959 H 2007.85 0.731338 -1.75361 0
M  V30 20960 H 2006 3.16038 -2.25947 0
M  V30 20961 H 2007.67 1.57795 -4.33472 0
M  V30 20962 H 2005.92 1.41848 -4.09953 0
M  V30 20963 H 2006.59 2.95137 -4.66474 0
M  V30 20964 H 2009.06 3.12639 -2.74583 0
M  V30 20965 H 2007.94 4.40375 -3.2766 0
M  V30 20966 H 2008.2 4.13654 -1.56022 0
M  V30 20967 N 2007.26 1.30423 0.884744 0
M  V30 20968 C 2008.51 1.18625 1.63129 0
M  V30 20969 C 2008.82 -0.257953 1.93892 0
M  V30 20970 O 2010.03 -0.497448 2.66904 0
M  V30 20971 C 2008.48 2.0757 2.94011 0
M  V30 20972 C 2008.09 3.569 2.70788 0
M  V30 20973 C 2009.84 2.04535 3.71975 0
M  V30 20974 C 2007.74 4.37901 3.97488 0
M  V30 20975 H 2006.67 0.440391 0.612023 0
M  V30 20976 H 2009.32 1.55172 0.979478 0
M  V30 20977 H 2007.71 1.63905 3.60487 0
M  V30 20978 H 2008.88 4.08715 2.12812 0
M  V30 20979 H 2007.19 3.61761 2.06199 0
M  V30 20980 H 2009.79 2.62305 4.6594 0
M  V30 20981 H 2010.13 1.02888 4.03385 0
M  V30 20982 H 2010.67 2.46322 3.12362 0
M  V30 20983 H 2007.41 5.40244 3.71236 0
M  V30 20984 H 2006.93 3.9085 4.54968 0
M  V30 20985 H 2008.61 4.49347 4.65506 0
M  V30 20986 N 2008.74 -1.09711 1.13142 0
M  V30 20987 C 2010.01 -1.78377 0.802565 0
M  V30 20988 C 2010.39 -1.9893 -0.706392 0
M  V30 20989 O 2009.74 -1.58835 -1.64267 0
M  V30 20990 C 2009.95 -3.10873 1.58615 0
M  V30 20991 C 2011.3 -3.85629 1.77695 0
M  V30 20992 O 2012.32 -3.20616 1.55189 0
M  V30 20993 O 2011.18 -5.02334 2.15228 0
M  V30 20994 H 2008.28 -0.773463 0.292718 0
M  V30 20995 H 2010.82 -1.16294 1.23587 0
M  V30 20996 H 2009.6 -2.9138 2.61177 0
M  V30 20997 H 2009.22 -3.80679 1.14758 0
M  V30 20998 N 2010.22 -0.924476 -1.27637 0
M  V30 20999 C 2011.47 -0.559056 -1.93797 0
M  V30 21000 C 2011.78 0.903501 -1.73483 0
M  V30 21001 O 2012.98 1.37756 -2.33956 0
M  V30 21002 C 2011.44 -0.949035 -3.47162 0
M  V30 21003 C 2011.05 -2.43205 -3.76238 0
M  V30 21004 C 2012.79 -0.654714 -4.19421 0
M  V30 21005 C 2010.7 -2.7616 -5.22962 0
M  V30 21006 H 2009.63 -0.205363 -0.725494 0
M  V30 21007 H 2012.28 -1.12485 -1.4498 0
M  V30 21008 H 2010.66 -0.311922 -3.9477 0
M  V30 21009 H 2011.84 -3.1168 -3.39399 0
M  V30 21010 H 2010.15 -2.69794 -3.17176 0
M  V30 21011 H 2012.75 -0.877465 -5.27451 0
M  V30 21012 H 2013.09 0.407944 -4.14296 0
M  V30 21013 H 2013.62 -1.25078 -3.77625 0
M  V30 21014 H 2010.36 -3.81322 -5.33173 0
M  V30 21015 H 2009.88 -2.12332 -5.60959 0
M  V30 21016 H 2011.56 -2.63732 -5.90808 0
M  V30 21017 N 2011.69 1.41711 -0.689627 0
M  V30 21018 C 2012.62 2.33474 -0.0348045 0
M  V30 21019 C 2013.61 1.51494 0.773533 0
M  V30 21020 O 2014.79 1.8005 0.727705 0
M  V30 21021 C 2011.92 3.35259 0.906573 0
M  V30 21022 C 2010.87 4.27505 0.205762 0
M  V30 21023 C 2010.2 5.19616 1.26109 0
M  V30 21024 C 2011.5 5.14056 -0.92431 0
M  V30 21025 H 2013.19 2.88481 -0.801208 0
M  V30 21026 H 2010.74 1.3871 -0.386738 0
M  V30 21027 H 2012.69 3.98375 1.37386 0
M  V30 21028 H 2011.42 2.78589 1.70457 0
M  V30 21029 H 2010.08 3.65804 -0.241437 0
M  V30 21030 H 2009.72 4.59264 2.05147 0
M  V30 21031 H 2009.42 5.82167 0.797221 0
M  V30 21032 H 2010.95 5.85609 1.72901 0
M  V30 21033 H 2012.36 5.70774 -0.537573 0
M  V30 21034 H 2010.76 5.85517 -1.3149 0
M  V30 21035 H 2011.83 4.51574 -1.7666 0
M  V30 21036 N 2013.17 0.433965 1.51507 0
M  V30 21037 C 2014.42 -0.133827 2.02358 0
M  V30 21038 C 2014.75 -1.42654 1.3177 0
M  V30 21039 O 2014.03 -1.89651 0.431588 0
M  V30 21040 C 2014.31 -0.356052 3.58335 0
M  V30 21041 C 2014.16 0.955077 4.39543 0
M  V30 21042 C 2015.48 -1.12732 4.25417 0
M  V30 21043 H 2012.6 -0.0471634 0.735489 0
M  V30 21044 H 2015.24 0.572301 1.81176 0
M  V30 21045 H 2013.39 -0.957541 3.76515 0
M  V30 21046 H 2015.06 1.59029 4.33021 0
M  V30 21047 H 2013.31 1.56044 4.04762 0
M  V30 21048 H 2013.98 0.753671 5.46831 0
M  V30 21049 H 2016.45 -0.617852 4.11487 0
M  V30 21050 H 2015.33 -1.25157 5.34441 0
M  V30 21051 H 2015.59 -2.15452 3.86048 0
M  V30 21052 N 2014.65 -1.56732 0.165206 0
M  V30 21053 C 2015.88 -2.01506 -0.490943 0
M  V30 21054 C 2016.3 -1.04466 -1.56424 0
M  V30 21055 O 2015.66 -0.0232331 -1.81285 0
M  V30 21056 C 2015.71 -3.4492 -1.05179 0
M  V30 21057 O 2014.81 -3.50937 -2.16603 0
M  V30 21058 H 2014.15 -0.653393 -0.11821 0
M  V30 21059 H 2016.68 -2.02846 0.267298 0
M  V30 21060 H 2016.69 -3.84099 -1.37593 0
M  V30 21061 H 2015.37 -4.15049 -0.265916 0
M  V30 21062 H 2013.94 -3.23613 -1.85281 0
M  V30 21063 N 2016.13 0.10854 -1.57226 0
M  V30 21064 C 2017.06 1.16331 -1.96322 0
M  V30 21065 C 2018.04 1.39558 -0.834411 0
M  V30 21066 O 2019.22 1.5354 -1.09352 0
M  V30 21067 C 2016.35 2.51514 -2.26844 0
M  V30 21068 C 2015.4 2.44651 -3.49354 0
M  V30 21069 S 2016.23 1.87602 -5.01563 0
M  V30 21070 C 2017.39 3.24438 -5.35249 0
M  V30 21071 H 2017.62 0.829959 -2.8548 0
M  V30 21072 H 2015.15 0.315706 -1.51138 0
M  V30 21073 H 2017.11 3.29292 -2.45106 0
M  V30 21074 H 2015.77 2.82023 -1.38281 0
M  V30 21075 H 2014.96 3.44255 -3.68109 0
M  V30 21076 H 2014.57 1.74998 -3.30532 0
M  V30 21077 H 2016.86 4.20678 -5.31071 0
M  V30 21078 H 2017.8 3.10499 -6.36393 0
M  V30 21079 H 2018.21 3.23349 -4.62716 0
M  V30 21080 N 2017.61 1.52975 0.379009 0
M  V30 21081 C 2018.85 1.68755 1.12471 0
M  V30 21082 C 2019.19 0.431242 1.89351 0
M  V30 21083 O 2018.46 -0.571204 1.85923 0
M  V30 21084 C 2018.74 2.92896 2.09485 0
M  V30 21085 C 2018.6 4.28651 1.36302 0
M  V30 21086 C 2019.92 3.12604 3.09785 0
M  V30 21087 H 2017.03 0.614092 0.407504 0
M  V30 21088 H 2019.68 1.8559 0.406972 0
M  V30 21089 H 2017.83 2.78673 2.70691 0
M  V30 21090 H 2019.5 4.54661 0.779841 0
M  V30 21091 H 2017.74 4.28675 0.664851 0
M  V30 21092 H 2018.41 5.1162 2.07241 0
M  V30 21093 H 2020.89 3.25924 2.58675 0
M  V30 21094 H 2019.76 4.00924 3.74901 0
M  V30 21095 H 2020.03 2.27272 3.79209 0
M  V30 21096 N 2019.08 -0.63804 1.44107 0
M  V30 21097 C 2020.31 -1.43004 1.50215 0
M  V30 21098 C 2020.73 -1.87678 0.125903 0
M  V30 21099 O 2020.09 -1.58316 -0.883508 0
M  V30 21100 C 2020.14 -2.63112 2.46585 0
M  V30 21101 O 2019.24 -3.62706 1.9626 0
M  V30 21102 H 2018.59 -0.428173 0.507508 0
M  V30 21103 H 2021.12 -0.779402 1.89173 0
M  V30 21104 H 2021.13 -3.10742 2.64393 0
M  V30 21105 H 2019.8 -2.29941 3.46554 0
M  V30 21106 H 2018.38 -3.21932 1.88186 0
M  V30 21107 N 2020.56 -1.3089 -0.877815 0
M  V30 21108 C 2021.84 -1.10773 -1.6121 0
M  V30 21109 C 2022.22 0.340404 -2.08337 0
M  V30 21110 O 2021.57 1.33316 -1.85577 0
M  V30 21111 C 2021.78 -2.11499 -2.77613 0
M  V30 21112 C 2023.13 -2.43601 -3.47769 0
M  V30 21113 O 2024.15 -2.09865 -2.87811 0
M  V30 21114 O 2023.01 -3.0134 -4.55913 0
M  V30 21115 H 2020.1 -0.425928 -0.708882 0
M  V30 21116 H 2022.65 -1.42341 -0.923964 0
M  V30 21117 H 2021.42 -3.08943 -2.40146 0
M  V30 21118 H 2021.04 -1.80791 -3.54119 0
M  V30 21119 N 2022.04 1.0911 -1.13723 0
M  V30 21120 C 2023.27 1.85648 -0.924643 0
M  V30 21121 C 2023.69 1.80727 0.521458 0
M  V30 21122 O 2023.05 1.18712 1.3703 0
M  V30 21123 C 2023.1 3.31415 -1.42115 0
M  V30 21124 O 2022.2 4.07886 -0.608521 0
M  V30 21125 H 2021.54 0.575539 -0.331136 0
M  V30 21126 H 2024.07 1.37763 -1.5127 0
M  V30 21127 H 2024.08 3.82262 -1.42619 0
M  V30 21128 H 2022.76 3.34311 -2.47404 0
M  V30 21129 H 2021.33 3.66802 -0.671625 0
M  V30 21130 N 2023.52 0.931232 1.27145 0
M  V30 21131 C 2024.77 0.572394 1.93825 0
M  V30 21132 C 2025.09 -0.88981 1.73515 0
M  V30 21133 O 2024.36 -1.63113 1.08494 0
M  V30 21134 H 2022.94 0.2087 0.717254 0
M  V30 21135 H 2025.6 1.18439 1.54784 0
M  V30 21136 H 2024.7 0.781679 3.02153 0
M  V30 21137 N 2025 -1.41343 0.697132 0
M  V30 21138 C 2026.23 -2.05528 0.237841 0
M  V30 21139 C 2026.64 -1.52468 -1.11351 0
M  V30 21140 O 2026 -0.673549 -1.69616 0
M  V30 21141 C 2026.05 -3.61007 0.188651 0
M  V30 21142 O 2025.77 -4.12106 1.48662 0
M  V30 21143 C 2027.27 -4.42341 -0.291439 0
M  V30 21144 H 2024.49 -0.661864 0.110352 0
M  V30 21145 H 2027.03 -1.81086 0.950155 0
M  V30 21146 H 2025.19 -3.84483 -0.474496 0
M  V30 21147 H 2025.6 -5.06162 1.37477 0
M  V30 21148 H 2027.08 -5.51316 -0.274731 0
M  V30 21149 H 2027.55 -4.1856 -1.33057 0
M  V30 21150 H 2028.16 -4.23933 0.340765 0
M  V30 21151 N 2026.48 -0.441993 -1.51275 0
M  V30 21152 C 2027.42 0.367101 -2.27862 0
M  V30 21153 C 2028.39 1.01278 -1.31651 0
M  V30 21154 O 2029.58 1.0308 -1.60559 0
M  V30 21155 C 2026.72 1.45971 -3.12708 0
M  V30 21156 C 2025.83 0.831707 -4.23918 0
M  V30 21157 C 2024.97 1.89976 -4.96067 0
M  V30 21158 C 2024 1.25043 -5.99192 0
M  V30 21159 N 2023.14 2.26005 -6.6473 0
M  V30 21160 H 2027.98 -0.292361 -2.96562 0
M  V30 21161 H 2025.52 -0.156023 -1.4627 0
M  V30 21162 H 2027.48 2.10453 -3.6023 0
M  V30 21163 H 2026.11 2.08874 -2.46113 0
M  V30 21164 H 2025.16 0.0750644 -3.80326 0
M  V30 21165 H 2026.47 0.317691 -4.97787 0
M  V30 21166 H 2025.62 2.62108 -5.4716 0
M  V30 21167 H 2024.36 2.44751 -4.21839 0
M  V30 21168 H 2023.37 0.514597 -5.47386 0
M  V30 21169 H 2024.59 0.709951 -6.75379 0
M  V30 21170 H 2022.54 2.79852 -5.93312 0
M  V30 21171 H 2022.46 1.79508 -7.34379 0
M  V30 21172 H 2023.72 2.97607 -7.20452 0
M  V30 21173 N 2027.95 1.56642 -0.173515 0
M  V30 21174 C 2029.2 1.96124 0.470974 0
M  V30 21175 C 2029.52 1.06229 1.6424 0
M  V30 21176 O 2030.72 1.35402 2.35327 0
M  V30 21177 C 2029.18 3.4874 0.889284 0
M  V30 21178 C 2028.79 4.47264 -0.256662 0
M  V30 21179 C 2030.53 3.97037 1.50207 0
M  V30 21180 C 2028.44 5.91122 0.181401 0
M  V30 21181 H 2027.37 0.732267 0.179724 0
M  V30 21182 H 2030.02 1.81619 -0.262096 0
M  V30 21183 H 2028.4 3.58672 1.6784 0
M  V30 21184 H 2029.57 4.49049 -1.03401 0
M  V30 21185 H 2027.89 4.09038 -0.779546 0
M  V30 21186 H 2030.49 5.01974 1.8419 0
M  V30 21187 H 2030.83 3.401 2.40078 0
M  V30 21188 H 2031.36 3.90131 0.777351 0
M  V30 21189 H 2028.1 6.51936 -0.682591 0
M  V30 21190 H 2027.62 5.92639 0.924063 0
M  V30 21191 H 2029.3 6.43979 0.624532 0
M  V30 21192 N 2029.43 -0.1002 1.57281 0
M  V30 21193 C 2030.36 -1.12278 2.04734 0
M  V30 21194 C 2031.34 -1.42079 0.935281 0
M  V30 21195 O 2032.53 -1.52197 1.20622 0
M  V30 21196 C 2029.66 -2.44402 2.46748 0
M  V30 21197 C 2028.61 -2.29021 3.61571 0
M  V30 21198 C 2027.94 -3.66276 3.89545 0
M  V30 21199 C 2029.24 -1.73501 4.9264 0
M  V30 21200 H 2030.93 -0.728019 2.90414 0
M  V30 21201 H 2028.48 -0.348753 1.39713 0
M  V30 21202 H 2030.43 -3.16206 2.78553 0
M  V30 21203 H 2029.15 -2.85804 1.58061 0
M  V30 21204 H 2027.81 -1.59664 3.30005 0
M  V30 21205 H 2027.46 -4.05197 2.98034 0
M  V30 21206 H 2027.16 -3.56833 4.66845 0
M  V30 21207 H 2028.69 -4.39555 4.2382 0
M  V30 21208 H 2030.1 -2.35141 5.22859 0
M  V30 21209 H 2028.5 -1.7483 5.74068 0
M  V30 21210 H 2029.57 -0.69403 4.79908 0
M  V30 21211 N 2030.91 -1.53174 -0.370891 0
M  V30 21212 C 2032.16 -1.68764 -1.11189 0
M  V30 21213 C 2032.48 -0.439297 -1.89987 0
M  V30 21214 O 2031.75 0.546592 -1.8812 0
M  V30 21215 H 2030.33 -0.622136 -0.413467 0
M  V30 21216 H 2032.99 -1.90347 -0.418794 0
M  V30 21217 H 2032.09 -2.54633 -1.80468 0
M  V30 21218 N 2032.39 0.630389 -1.44443 0
M  V30 21219 C 2033.32 1.7552 -1.45836 0
M  V30 21220 C 2034.3 1.59478 -0.317118 0
M  V30 21221 O 2035.48 1.81351 -0.514201 0
M  V30 21222 C 2032.61 3.13101 -1.29173 0
M  V30 21223 C 2031.66 3.4779 -2.46869 0
M  V30 21224 S 2032.49 3.45187 -4.09397 0
M  V30 21225 C 2033.64 4.85386 -3.95159 0
M  V30 21226 H 2033.88 1.74072 -2.41011 0
M  V30 21227 H 2031.41 0.805066 -1.3175 0
M  V30 21228 H 2033.37 3.92493 -1.20247 0
M  V30 21229 H 2032.03 3.12087 -0.355075 0
M  V30 21230 H 2031.22 4.47906 -2.31075 0
M  V30 21231 H 2030.82 2.75862 -2.52539 0
M  V30 21232 H 2033.12 5.74631 -3.58895 0
M  V30 21233 H 2034.06 5.06235 -4.95108 0
M  V30 21234 H 2034.47 4.59995 -3.27207 0
M  V30 21235 N 2033.87 1.31354 0.870861 0
M  V30 21236 C 2034.8 1.21518 1.99388 0
M  V30 21237 C 2035.78 0.102582 1.6979 0
M  V30 21238 O 2036.96 0.287028 1.92067 0
M  V30 21239 C 2034.09 0.920813 3.34871 0
M  V30 21240 C 2033.05 1.99289 3.78772 0
M  V30 21241 C 2032.37 1.55123 5.11704 0
M  V30 21242 C 2033.67 3.40589 3.95975 0
M  V30 21243 H 2035.37 2.15473 2.07875 0
M  V30 21244 H 2032.91 1.03734 0.998761 0
M  V30 21245 H 2034.86 0.838612 4.12971 0
M  V30 21246 H 2033.59 -0.0543971 3.26555 0
M  V30 21247 H 2032.25 2.06496 3.0291 0
M  V30 21248 H 2031.9 0.563901 4.99829 0
M  V30 21249 H 2031.6 2.26842 5.42048 0
M  V30 21250 H 2033.12 1.48308 5.92315 0
M  V30 21251 H 2034.53 3.36061 4.64474 0
M  V30 21252 H 2032.93 4.10517 4.37716 0
M  V30 21253 H 2034 3.8144 2.99385 0
M  V30 21254 N 2035.34 -1.08505 1.143 0
M  V30 21255 C 2036.76 -1.32937 0.883172 0
M  V30 21256 C 2036.96 -1.95791 -0.47623 0
M  V30 21257 O 2036.02 -2.2103 -1.22073 0
M  V30 21258 C 2037.33 -2.23189 2.01512 0
M  V30 21259 C 2038.88 -2.36672 2.0483 0
M  V30 21260 C 2039.35 -3.30266 3.17314 0
M  V30 21261 N 2040.84 -3.37843 3.16886 0
M  V30 21262 C 2041.58 -4.1029 4.00561 0
M  V30 21263 N 2041.07 -4.85454 4.94274 0
M  V30 21264 N 2042.87 -4.06111 3.88626 0
M  V30 21265 H 2035.02 -0.660869 2.01857 0
M  V30 21266 H 2037.28 -0.353741 0.879529 0
M  V30 21267 H 2036.99 -1.84248 2.99576 0
M  V30 21268 H 2036.86 -3.23644 1.93738 0
M  V30 21269 H 2039.25 -2.74873 1.07373 0
M  V30 21270 H 2039.33 -1.35963 2.16674 0
M  V30 21271 H 2038.97 -2.92787 4.15016 0
M  V30 21272 H 2038.9 -4.30901 3.02707 0
M  V30 21273 H 2041.39 -2.84257 2.49011 0
M  V30 21274 H 2041.71 -5.38193 5.54588 0
M  V30 21275 H 2040.05 -4.8451 4.98272 0
M  V30 21276 H 2043.24 -3.46497 3.14734 0
M  V30 21277 H 2043.42 -4.6231 4.54064 0
M  V30 21278 N 2036.82 -0.937962 -1.26649 0
M  V30 21279 C 2038.07 -0.584683 -1.94189 0
M  V30 21280 C 2038.4 0.873516 -1.73446 0
M  V30 21281 O 2037.68 1.62451 -1.06957 0
M  V30 21282 C 2037.96 -0.923855 -3.48047 0
M  V30 21283 C 2037.81 -2.43656 -3.7809 0
M  V30 21284 C 2039.13 -0.436986 -4.37925 0
M  V30 21285 H 2036.25 -0.213892 -0.70528 0
M  V30 21286 H 2038.89 -1.1716 -1.49578 0
M  V30 21287 H 2037.04 -0.424389 -3.86175 0
M  V30 21288 H 2038.71 -3.00851 -3.49695 0
M  V30 21289 H 2036.96 -2.88141 -3.2428 0
M  V30 21290 H 2037.63 -2.62439 -4.85623 0
M  V30 21291 H 2040.1 -0.865189 -4.07006 0
M  V30 21292 H 2038.98 -0.703159 -5.44378 0
M  V30 21293 H 2039.24 0.663042 -4.371 0
M  V30 21294 N 2038.3 1.40971 -0.704618 0
M  V30 21295 C 2039.23 2.33424 -0.0595656 0
M  V30 21296 C 2040.21 1.52306 0.757422 0
M  V30 21297 O 2041.4 1.80812 0.708567 0
M  V30 21298 C 2038.53 3.36202 0.870964 0
M  V30 21299 C 2037.48 4.27699 0.160408 0
M  V30 21300 C 2036.81 5.20924 1.20591 0
M  V30 21301 C 2038.11 5.13047 -0.97878 0
M  V30 21302 H 2039.8 2.87615 -0.83176 0
M  V30 21303 H 2037.35 1.38292 -0.401428 0
M  V30 21304 H 2039.3 3.9981 1.33153 0
M  V30 21305 H 2038.02 2.80381 1.67493 0
M  V30 21306 H 2036.68 3.65527 -0.280222 0
M  V30 21307 H 2036.33 4.61414 2.00264 0
M  V30 21308 H 2036.03 5.8298 0.73543 0
M  V30 21309 H 2037.55 5.8741 1.6668 0
M  V30 21310 H 2038.97 5.70172 -0.598081 0
M  V30 21311 H 2037.36 5.8409 -1.37693 0
M  V30 21312 H 2038.43 4.49675 -1.8144 0
M  V30 21313 N 2039.78 0.45001 1.51039 0
M  V30 21314 C 2041.19 0.10298 1.59267 0
M  V30 21315 C 2041.39 -1.38881 1.45995 0
M  V30 21316 O 2040.45 -2.16003 1.30763 0
M  V30 21317 C 2041.76 0.634392 2.93932 0
M  V30 21318 C 2043.31 0.59595 3.07274 0
M  V30 21319 C 2043.79 1.10455 4.44481 0
M  V30 21320 N 2045.28 1.06307 4.50836 0
M  V30 21321 C 2046.01 1.42733 5.55351 0
M  V30 21322 N 2045.51 1.86506 6.67224 0
M  V30 21323 N 2047.3 1.34469 5.45779 0
M  V30 21324 H 2039.45 1.42049 1.57911 0
M  V30 21325 H 2041.72 0.586142 0.745078 0
M  V30 21326 H 2041.42 1.67863 3.09055 0
M  V30 21327 H 2041.3 0.0662668 3.77142 0
M  V30 21328 H 2043.68 -0.439332 2.91811 0
M  V30 21329 H 2043.76 1.20063 2.25873 0
M  V30 21330 H 2043.41 2.13836 4.60692 0
M  V30 21331 H 2043.34 0.476284 5.24442 0
M  V30 21332 H 2045.83 0.741765 3.70549 0
M  V30 21333 H 2046.14 2.12505 7.43009 0
M  V30 21334 H 2044.49 1.90443 6.68398 0
M  V30 21335 H 2047.68 1.00128 4.57266 0
M  V30 21336 H 2047.85 1.63185 6.27116 0
M  V30 21337 N 2041.26 -1.56548 0.18182 0
M  V30 21338 C 2042.19 -2.21471 -0.739774 0
M  V30 21339 C 2043.17 -1.17361 -1.23128 0
M  V30 21340 O 2044.35 -1.45825 -1.28253 0
M  V30 21341 C 2041.48 -2.86369 -1.96494 0
M  V30 21342 C 2040.44 -3.96609 -1.60888 0
M  V30 21343 C 2039.76 -4.48607 -2.90957 0
M  V30 21344 C 2041.06 -5.15681 -0.828895 0
M  V30 21345 H 2042.76 -2.98741 -0.19858 0
M  V30 21346 H 2040.3 -1.43692 -0.0940725 0
M  V30 21347 H 2042.26 -3.30466 -2.61477 0
M  V30 21348 H 2040.98 -2.06485 -2.53045 0
M  V30 21349 H 2039.64 -3.53184 -0.982694 0
M  V30 21350 H 2039.29 -3.65501 -3.45569 0
M  V30 21351 H 2038.99 -5.22984 -2.67882 0
M  V30 21352 H 2040.51 -4.95397 -3.56951 0
M  V30 21353 H 2041.92 -5.56405 -1.38153 0
M  V30 21354 H 2040.32 -5.96041 -0.696789 0
M  V30 21355 H 2041.39 -4.84592 0.172711 0
M  V30 21356 N 2042.73 0.0918577 -1.57332 0
M  V30 21357 C 2043.66 1.11191 -2.05326 0
M  V30 21358 C 2044.65 1.41581 -0.942802 0
M  V30 21359 O 2045.83 1.51555 -1.21428 0
M  V30 21360 C 2042.96 2.4309 -2.48041 0
M  V30 21361 C 2041.91 2.271 -3.6278 0
M  V30 21362 C 2041.24 3.64205 -3.91482 0
M  V30 21363 C 2042.54 1.70886 -4.93554 0
M  V30 21364 H 2044.23 0.712608 -2.90796 0
M  V30 21365 H 2041.78 0.341338 -1.39896 0
M  V30 21366 H 2043.73 3.14724 -2.80226 0
M  V30 21367 H 2042.46 2.84962 -1.59575 0
M  V30 21368 H 2041.12 1.57911 -3.30847 0
M  V30 21369 H 2040.76 4.03611 -3.00179 0
M  V30 21370 H 2040.46 3.54352 -4.68731 0
M  V30 21371 H 2041.99 4.37302 -4.26145 0
M  V30 21372 H 2043.4 2.32364 -5.24099 0
M  V30 21373 H 2041.8 1.71783 -5.74987 0
M  V30 21374 H 2042.87 0.668569 -4.80269 0
M  V30 21375 N 2044.21 1.53368 0.362763 0
M  V30 21376 C 2045.63 1.43203 0.704623 0
M  V30 21377 C 2045.83 0.573363 1.9317 0
M  V30 21378 O 2044.88 0.0568943 2.52436 0
M  V30 21379 C 2046.2 2.86434 0.915198 0
M  V30 21380 C 2047.75 2.96085 1.01503 0
M  V30 21381 C 2048.22 4.40383 1.25806 0
M  V30 21382 N 2049.71 4.43824 1.32569 0
M  V30 21383 C 2050.45 5.52586 1.53089 0
M  V30 21384 N 2049.94 6.71389 1.70906 0
M  V30 21385 N 2051.74 5.40169 1.55481 0
M  V30 21386 H 2043.89 2.07701 -0.444302 0
M  V30 21387 H 2046.15 0.938087 -0.136733 0
M  V30 21388 H 2045.86 3.51596 0.0853212 0
M  V30 21389 H 2045.73 3.3025 1.82249 0
M  V30 21390 H 2048.12 2.31074 1.83545 0
M  V30 21391 H 2048.2 2.55659 0.0850686 0
M  V30 21392 H 2047.84 5.05967 0.442642 0
M  V30 21393 H 2047.77 4.78384 2.20128 0
M  V30 21394 H 2050.26 3.58206 1.20402 0
M  V30 21395 H 2050.58 7.50047 1.86144 0
M  V30 21396 H 2048.92 6.7437 1.68079 0
M  V30 21397 H 2052.11 4.46318 1.41131 0
M  V30 21398 H 2052.28 6.24994 1.71131 0
M  V30 21399 N 2045.69 -0.62272 1.44776 0
M  V30 21400 C 2046.92 -1.40911 1.51498 0
M  V30 21401 C 2047.33 -1.88261 0.142579 0
M  V30 21402 O 2046.69 -1.61333 -0.853105 0
M  V30 21403 C 2046.74 -2.62379 2.48676 0
M  V30 21404 O 2046.46 -2.17001 3.80582 0
M  V30 21405 C 2047.96 -3.55413 2.64947 0
M  V30 21406 H 2045.18 -0.431862 0.513552 0
M  V30 21407 H 2047.73 -0.760822 1.8982 0
M  V30 21408 H 2045.88 -3.23281 2.13467 0
M  V30 21409 H 2046.3 -2.95811 4.33124 0
M  V30 21410 H 2047.77 -4.37227 3.36952 0
M  V30 21411 H 2048.25 -4.04771 1.70462 0
M  V30 21412 H 2048.85 -3.00374 3.01091 0
M  V30 21413 N 2047.17 -1.31814 -0.863883 0
M  V30 21414 C 2048.1 -1.22574 -1.98741 0
M  V30 21415 C 2049.08 -0.111585 -1.69734 0
M  V30 21416 O 2050.26 -0.29721 -1.91912 0
M  V30 21417 C 2047.39 -0.938559 -3.34378 0
M  V30 21418 C 2046.35 -2.01295 -3.7771 0
M  V30 21419 C 2045.67 -1.57834 -5.10874 0
M  V30 21420 C 2046.97 -3.42684 -3.94164 0
M  V30 21421 H 2048.67 -2.16572 -2.06729 0
M  V30 21422 H 2046.21 -1.04262 -0.993246 0
M  V30 21423 H 2048.17 -0.860501 -4.12521 0
M  V30 21424 H 2046.89 0.0370783 -3.26579 0
M  V30 21425 H 2045.55 -2.081 -3.01811 0
M  V30 21426 H 2045.2 -0.5904 -4.99523 0
M  V30 21427 H 2044.9 -2.29713 -5.40838 0
M  V30 21428 H 2046.42 -1.51448 -5.9152 0
M  V30 21429 H 2047.84 -3.38519 -4.62685 0
M  V30 21430 H 2046.23 -4.12833 -4.35533 0
M  V30 21431 H 2047.3 -3.83023 -2.97358 0
M  V30 21432 N 2048.65 1.07897 -1.14873 0
M  V30 21433 C 2050.06 1.32467 -0.89021 0
M  V30 21434 C 2050.26 1.96041 0.46584 0
M  V30 21435 O 2049.32 2.21675 1.20899 0
M  V30 21436 C 2050.63 2.22118 -2.02692 0
M  V30 21437 C 2052.18 2.35583 -2.06082 0
M  V30 21438 C 2052.65 3.28579 -3.19061 0
M  V30 21439 N 2054.15 3.36158 -3.18673 0
M  V30 21440 C 2054.88 4.0816 -4.02731 0
M  V30 21441 N 2054.38 4.82826 -4.96841 0
M  V30 21442 N 2056.17 4.04045 -3.90774 0
M  V30 21443 H 2048.32 0.650155 -2.02205 0
M  V30 21444 H 2050.58 0.349072 -0.881393 0
M  V30 21445 H 2050.29 1.82656 -3.00549 0
M  V30 21446 H 2050.16 3.22612 -1.95452 0
M  V30 21447 H 2052.55 2.743 -1.08829 0
M  V30 21448 H 2052.63 1.34812 -2.17392 0
M  V30 21449 H 2052.28 2.90582 -4.16563 0
M  V30 21450 H 2052.21 4.2929 -3.04988 0
M  V30 21451 H 2054.7 2.82932 -2.50515 0
M  V30 21452 H 2055.01 5.35244 -5.57434 0
M  V30 21453 H 2053.35 4.81861 -5.00834 0
M  V30 21454 H 2056.55 3.44823 -3.16567 0
M  V30 21455 H 2056.72 4.59895 -4.56509 0
M  V30 21456 N 2050.12 0.944665 1.2615 0
M  V30 21457 C 2051.54 0.636259 1.75524 0
M  V30 21458 C 2051.89 -0.848524 1.76903 0
M  V30 21459 O 2051.01 -1.66407 1.38339 0
M  V30 21460 C 2051.61 1.14823 3.18749 0
M  V30 21461 C 2050.17 0.890177 3.65722 0
M  V30 21462 C 2049.31 1.29711 2.45093 0
M  V30 21463 H 2052.26 1.12258 1.12177 0
M  V30 21464 H 2052.28 0.503668 3.77152 0
M  V30 21465 H 2051.8 2.22889 3.17714 0
M  V30 21466 H 2049.9 -0.175952 3.72184 0
M  V30 21467 H 2050.01 1.51963 4.54361 0
M  V30 21468 H 2048.37 0.71552 2.44443 0
M  V30 21469 H 2049.16 2.38677 2.46755 0
M  V30 21470 N 2051.6 -1.40596 0.712085 0
M  V30 21471 C 2052.53 -2.33389 0.0719438 0
M  V30 21472 C 2053.51 -1.52706 -0.749334 0
M  V30 21473 O 2054.7 -1.81185 -0.698968 0
M  V30 21474 C 2051.83 -3.36659 -0.853122 0
M  V30 21475 C 2050.78 -4.27778 -0.137724 0
M  V30 21476 C 2050.11 -5.21556 -1.17827 0
M  V30 21477 C 2051.41 -5.12521 1.00597 0
M  V30 21478 H 2053.1 -2.87169 0.847002 0
M  V30 21479 H 2050.65 -1.38077 0.408756 0
M  V30 21480 H 2052.6 -4.00511 -1.31031 0
M  V30 21481 H 2051.33 -2.81266 -1.66004 0
M  V30 21482 H 2049.98 -3.65374 0.299603 0
M  V30 21483 H 2049.63 -4.6247 -1.97814 0
M  V30 21484 H 2049.33 -5.83361 -0.704503 0
M  V30 21485 H 2050.86 -5.88285 -1.63563 0
M  V30 21486 H 2052.27 -5.69847 0.62831 0
M  V30 21487 H 2050.67 -5.83351 1.40789 0
M  V30 21488 H 2051.74 -4.48706 1.83822 0
M  V30 21489 N 2053.08 -0.458013 -1.50798 0
M  V30 21490 C 2054.5 -0.111425 -1.59211 0
M  V30 21491 C 2054.7 1.38104 -1.46729 0
M  V30 21492 O 2053.75 2.15306 -1.31907 0
M  V30 21493 C 2055.07 -0.649971 -2.93591 0
M  V30 21494 C 2056.61 -0.612237 -3.06954 0
M  V30 21495 C 2057.09 -1.1281 -4.43889 0
M  V30 21496 N 2058.58 -1.08696 -4.50266 0
M  V30 21497 C 2059.31 -1.45676 -5.54586 0
M  V30 21498 N 2058.81 -1.90042 -6.66225 0
M  V30 21499 N 2060.6 -1.37362 -5.45058 0
M  V30 21500 H 2052.75 -1.42885 -1.57155 0
M  V30 21501 H 2055.02 -0.590085 -0.741959 0
M  V30 21502 H 2054.72 -1.695 -3.0816 0
M  V30 21503 H 2054.6 -0.0862666 -3.77101 0
M  V30 21504 H 2056.98 0.42385 -2.9204 0
M  V30 21505 H 2057.07 -1.21259 -2.25233 0
M  V30 21506 H 2056.71 -2.16276 -4.59551 0
M  V30 21507 H 2056.64 -0.50409 -5.24182 0
M  V30 21508 H 2059.13 -0.761406 -3.7015 0
M  V30 21509 H 2059.44 -2.16442 -7.41871 0
M  V30 21510 H 2057.79 -1.93985 -6.67379 0
M  V30 21511 H 2060.98 -1.02552 -4.56728 0
M  V30 21512 H 2061.15 -1.66508 -6.26242 0
M  V30 21513 N 2054.56 1.56449 -0.190119 0
M  V30 21514 C 2055.81 1.9773 0.450624 0
M  V30 21515 C 2056.14 1.07678 1.61614 0
M  V30 21516 O 2055.41 0.127743 1.9408 0
M  V30 21517 C 2055.7 3.48267 0.915552 0
M  V30 21518 C 2055.55 4.49097 -0.251436 0
M  V30 21519 C 2056.87 4.02374 1.78278 0
M  V30 21520 H 2053.99 0.718902 0.162325 0
M  V30 21521 H 2056.63 1.87925 -0.28004 0
M  V30 21522 H 2054.78 3.56753 1.53816 0
M  V30 21523 H 2056.45 4.52653 -0.888996 0
M  V30 21524 H 2054.69 4.24276 -0.903996 0
M  V30 21525 H 2055.37 5.51877 0.116306 0
M  V30 21526 H 2057.84 3.96636 1.25774 0
M  V30 21527 H 2056.72 5.08084 2.07706 0
M  V30 21528 H 2056.98 3.4733 2.73522 0
M  V30 21529 N 2056.04 -0.0835127 1.57379 0
M  V30 21530 C 2057.29 -0.783627 1.85855 0
M  V30 21531 C 2057.6 -1.79328 0.781081 0
M  V30 21532 O 2058.81 -2.54212 0.953327 0
M  V30 21533 C 2057.26 -1.44454 3.29638 0
M  V30 21534 C 2056.87 -0.474058 4.45485 0
M  V30 21535 C 2058.61 -2.1277 3.67327 0
M  V30 21536 C 2056.52 -1.14022 5.80304 0
M  V30 21537 H 2055.45 -0.296407 0.693295 0
M  V30 21538 H 2058.1 -0.0367253 1.83463 0
M  V30 21539 H 2056.48 -2.2393 3.26606 0
M  V30 21540 H 2057.66 0.290043 4.59886 0
M  V30 21541 H 2055.97 0.104026 4.1627 0
M  V30 21542 H 2058.57 -2.63365 4.65342 0
M  V30 21543 H 2058.91 -2.92187 2.96534 0
M  V30 21544 H 2059.45 -1.4014 3.72298 0
M  V30 21545 H 2056.18 -0.386619 6.54359 0
M  V30 21546 H 2055.7 -1.87547 5.69725 0
M  V30 21547 H 2057.38 -1.66341 6.25252 0
M  V30 21548 N 2057.52 -1.53558 -0.354624 0
M  V30 21549 C 2058.74 -1.74503 -1.12087 0
M  V30 21550 C 2059.17 -0.477817 -1.8193 0
M  V30 21551 O 2058.52 0.568868 -1.72144 0
M  V30 21552 C 2058.57 -2.91808 -2.1185 0
M  V30 21553 O 2057.68 -2.61182 -3.19152 0
M  V30 21554 H 2057.02 -0.579191 -0.324705 0
M  V30 21555 H 2059.55 -2.00483 -0.4084 0
M  V30 21556 H 2059.56 -3.18284 -2.55263 0
M  V30 21557 H 2058.23 -3.83721 -1.6041 0
M  V30 21558 H 2056.81 -2.45558 -2.80634 0
M  V30 21559 N 2058.99 0.615033 -1.45104 0
M  V30 21560 C 2060.41 0.934983 -1.29345 0
M  V30 21561 C 2060.61 2.00053 -0.241008 0
M  V30 21562 O 2059.67 2.4981 0.367607 0
M  V30 21563 C 2060.98 1.38297 -2.6701 0
M  V30 21564 C 2062.53 1.49759 -2.74848 0
M  V30 21565 C 2063 1.97936 -4.1302 0
M  V30 21566 N 2064.49 2.05181 -4.15277 0
M  V30 21567 C 2065.23 2.43664 -5.19052 0
M  V30 21568 N 2064.72 2.81169 -6.33179 0
M  V30 21569 N 2066.52 2.43938 -5.06409 0
M  V30 21570 H 2058.67 -0.0893888 -2.12212 0
M  V30 21571 H 2060.93 0.0226574 -0.947729 0
M  V30 21572 H 2060.64 0.674238 -3.45177 0
M  V30 21573 H 2060.51 2.35093 -2.94976 0
M  V30 21574 H 2062.9 2.19725 -1.9699 0
M  V30 21575 H 2062.98 0.512965 -2.50604 0
M  V30 21576 H 2062.62 1.28559 -4.9136 0
M  V30 21577 H 2062.55 2.97298 -4.34651 0
M  V30 21578 H 2065.04 1.78817 -3.32916 0
M  V30 21579 H 2065.36 3.09393 -7.08164 0
M  V30 21580 H 2063.7 2.78882 -6.36592 0
M  V30 21581 H 2066.89 2.1404 -4.16299 0
M  V30 21582 H 2067.07 2.73604 -5.87405 0
M  V30 21583 N 2060.47 1.3227 0.85688 0
M  V30 21584 C 2061.43 1.2096 1.94682 0
M  V30 21585 C 2062.43 0.133231 1.60247 0
M  V30 21586 O 2063.62 0.383471 1.69927 0
M  V30 21587 C 2060.76 0.85974 3.29881 0
M  V30 21588 H 2061.95 2.17823 2.06139 0
M  V30 21589 H 2059.5 1.16069 1.04679 0
M  V30 21590 H 2060.24 -0.107161 3.24123 0
M  V30 21591 H 2060.02 1.63794 3.5625 0
M  V30 21592 H 2061.51 0.804868 4.0977 0
M  V30 21593 N 2061.95 -1.07287 1.15444 0
M  V30 21594 C 2062.88 -2.14426 0.809571 0
M  V30 21595 C 2063.89 -1.61816 -0.178709 0
M  V30 21596 O 2065.08 -1.78444 0.044632 0
M  V30 21597 C 2062.18 -3.38406 0.182939 0
M  V30 21598 C 2061.36 -4.20365 1.20881 0
M  V30 21599 C 2060.42 -5.22724 0.603831 0
M  V30 21600 O 2059.44 -5.54852 1.26996 0
M  V30 21601 N 2060.64 -5.77242 -0.614141 0
M  V30 21602 H 2063.41 -2.44613 1.73161 0
M  V30 21603 H 2060.97 -1.23199 1.05041 0
M  V30 21604 H 2062.96 -4.0402 -0.234568 0
M  V30 21605 H 2061.53 -3.05927 -0.642451 0
M  V30 21606 H 2060.75 -3.50558 1.80285 0
M  V30 21607 H 2062.04 -4.71935 1.90144 0
M  V30 21608 H 2061.44 -5.53391 -1.17369 0
M  V30 21609 H 2059.99 -6.44482 -0.973996 0
M  V30 21610 N 2063.43 -0.951342 -1.25647 0
M  V30 21611 C 2064.68 -0.603157 -1.9289 0
M  V30 21612 C 2065 0.862093 -1.74908 0
M  V30 21613 O 2064.27 1.61366 -1.11075 0
M  V30 21614 H 2062.85 -0.220085 -0.713843 0
M  V30 21615 H 2065.51 -1.20887 -1.5288 0
M  V30 21616 H 2064.6 -0.82965 -3.00871 0
M  V30 21617 N 2064.91 1.40216 -0.719531 0
M  V30 21618 C 2065.84 2.33348 -0.08432 0
M  V30 21619 C 2066.82 1.53101 0.741225 0
M  V30 21620 O 2068 1.81553 0.68935 0
M  V30 21621 C 2065.13 3.37106 0.835256 0
M  V30 21622 C 2064.09 4.27845 0.115036 0
M  V30 21623 C 2063.41 5.22174 1.15059 0
M  V30 21624 C 2064.71 5.1198 -1.03314 0
M  V30 21625 H 2066.41 2.86716 -0.862219 0
M  V30 21626 H 2063.95 1.37858 -0.416073 0
M  V30 21627 H 2065.9 4.012 1.28905 0
M  V30 21628 H 2064.63 2.82142 1.6451 0
M  V30 21629 H 2063.29 3.6521 -0.318975 0
M  V30 21630 H 2062.94 4.63513 1.95359 0
M  V30 21631 H 2062.64 5.83727 0.673556 0
M  V30 21632 H 2064.16 5.89144 1.60441 0
M  V30 21633 H 2065.57 5.69505 -0.658522 0
M  V30 21634 H 2063.97 5.82596 -1.4388 0
M  V30 21635 H 2065.04 4.47725 -1.86199 0
M  V30 21636 N 2066.38 0.466004 1.50553 0
M  V30 21637 C 2067.33 -0.330804 2.28417 0
M  V30 21638 C 2068.3 -0.991708 1.33246 0
M  V30 21639 O 2069.49 -1.00512 1.62179 0
M  V30 21640 C 2066.63 -1.40978 3.14991 0
M  V30 21641 C 2065.74 -0.76416 4.25188 0
M  V30 21642 C 2064.87 -1.8206 4.99027 0
M  V30 21643 C 2063.91 -1.15495 6.01105 0
M  V30 21644 N 2063.05 -2.15401 6.68242 0
M  V30 21645 H 2067.89 0.339504 2.9606 0
M  V30 21646 H 2065.43 0.179273 1.46003 0
M  V30 21647 H 2067.38 -2.04695 3.63532 0
M  V30 21648 H 2066.01 -2.04932 2.49405 0
M  V30 21649 H 2065.07 -0.0145483 3.80397 0
M  V30 21650 H 2066.38 -0.238458 4.9823 0
M  V30 21651 H 2065.53 -2.5337 5.51261 0
M  V30 21652 H 2064.27 -2.38009 4.25679 0
M  V30 21653 H 2063.28 -0.427447 5.48136 0
M  V30 21654 H 2064.5 -0.602414 6.76423 0
M  V30 21655 H 2062.45 -2.70378 5.97689 0
M  V30 21656 H 2062.36 -1.67802 7.37142 0
M  V30 21657 H 2063.63 -2.86107 7.25095 0
M  V30 21658 N 2067.86 -1.56346 0.198413 0
M  V30 21659 C 2068.79 -2.22244 -0.716243 0
M  V30 21660 C 2069.77 -1.1866 -1.21876 0
M  V30 21661 O 2070.96 -1.47177 -1.26699 0
M  V30 21662 C 2068.09 -2.88437 -1.93446 0
M  V30 21663 C 2067.04 -3.98294 -1.56672 0
M  V30 21664 C 2066.37 -4.51668 -2.86182 0
M  V30 21665 C 2067.67 -5.16531 -0.774153 0
M  V30 21666 H 2069.36 -2.98935 -0.166883 0
M  V30 21667 H 2066.91 -1.43784 -0.0788267 0
M  V30 21668 H 2068.86 -3.33221 -2.57957 0
M  V30 21669 H 2067.58 -2.09157 -2.5084 0
M  V30 21670 H 2066.24 -3.54206 -0.945178 0
M  V30 21671 H 2065.89 -3.69146 -3.41673 0
M  V30 21672 H 2065.59 -5.25796 -2.6232 0
M  V30 21673 H 2067.12 -4.99155 -3.51676 0
M  V30 21674 H 2068.53 -5.57839 -1.32244 0
M  V30 21675 H 2066.93 -5.96746 -0.633532 0
M  V30 21676 H 2068 -4.84382 0.224098 0
M  V30 21677 N 2069.34 0.0751653 -1.57421 0
M  V30 21678 C 2070.59 0.776106 -1.87362 0
M  V30 21679 C 2070.92 1.77394 -0.790247 0
M  V30 21680 O 2070.19 1.93471 0.199817 0
M  V30 21681 C 2070.48 1.4871 -3.27959 0
M  V30 21682 C 2070.33 0.505905 -4.46946 0
M  V30 21683 C 2071.65 2.43284 -3.66744 0
M  V30 21684 H 2068.77 0.280684 -0.681458 0
M  V30 21685 H 2071.41 0.0393497 -1.89959 0
M  V30 21686 H 2069.56 2.11512 -3.25876 0
M  V30 21687 H 2071.23 -0.116642 -4.61153 0
M  V30 21688 H 2069.48 -0.179057 -4.3343 0
M  V30 21689 H 2070.15 1.04094 -5.42096 0
M  V30 21690 H 2072.62 1.90562 -3.69899 0
M  V30 21691 H 2071.5 2.90037 -4.66015 0
M  V30 21692 H 2071.76 3.27938 -2.96494 0
M  V30 21693 N 2070.82 1.53744 0.346476 0
M  V30 21694 C 2072.06 1.71103 1.08866 0
M  V30 21695 C 2072.4 0.47131 1.88394 0
M  V30 21696 O 2071.67 -0.531638 1.87093 0
M  V30 21697 C 2071.96 2.97273 2.03225 0
M  V30 21698 C 2071.81 4.31446 1.27179 0
M  V30 21699 C 2073.13 3.19105 3.03084 0
M  V30 21700 H 2070.25 0.622598 0.394387 0
M  V30 21701 H 2072.89 1.86412 0.367514 0
M  V30 21702 H 2071.04 2.84352 2.64719 0
M  V30 21703 H 2072.71 4.56212 0.683225 0
M  V30 21704 H 2070.95 4.29989 0.573773 0
M  V30 21705 H 2071.62 5.15901 1.96343 0
M  V30 21706 H 2074.1 3.31337 2.51704 0
M  V30 21707 H 2072.98 4.08786 3.66313 0
M  V30 21708 H 2073.24 2.35265 3.74303 0
M  V30 21709 N 2072.3 -0.607329 1.45428 0
M  V30 21710 C 2073.21 -1.7463 1.56657 0
M  V30 21711 C 2074.22 -1.68053 0.451014 0
M  V30 21712 O 2075.4 -1.88405 0.711736 0
M  V30 21713 C 2072.46 -3.11092 1.53045 0
M  V30 21714 C 2071.52 -3.29121 2.75641 0
M  V30 21715 C 2070.76 -4.59072 2.72193 0
M  V30 21716 O 2070.98 -5.41408 1.79536 0
M  V30 21717 O 2069.91 -4.79819 3.63397 0
M  V30 21718 H 2073.74 -1.68108 2.5293 0
M  V30 21719 H 2071.33 -0.771447 1.27942 0
M  V30 21720 H 2073.21 -3.92394 1.5364 0
M  V30 21721 H 2071.88 -3.18105 0.599244 0
M  V30 21722 H 2070.79 -2.47406 2.80608 0
M  V30 21723 H 2072.12 -3.26984 3.67889 0
M  V30 21724 N 2073.77 -1.32722 -0.849853 0
M  V30 21725 C 2075 -1.26568 -1.63671 0
M  V30 21726 C 2075.42 0.165453 -1.88074 0
M  V30 21727 O 2074.77 1.1041 -1.45313 0
M  V30 21728 C 2074.83 -2.027 -2.99324 0
M  V30 21729 O 2074.55 -3.40229 -2.75999 0
M  V30 21730 C 2076.05 -2.03626 -3.93766 0
M  V30 21731 H 2073.27 -0.436491 -0.509624 0
M  V30 21732 H 2075.81 -1.74922 -1.05937 0
M  V30 21733 H 2073.97 -1.58056 -3.53691 0
M  V30 21734 H 2074.38 -3.79256 -3.62305 0
M  V30 21735 H 2075.85 -2.61369 -4.862 0
M  V30 21736 H 2076.33 -1.02373 -4.27102 0
M  V30 21737 H 2076.94 -2.48239 -3.45337 0
M  V30 21738 N 2075.25 1.06673 -1.16011 0
M  V30 21739 C 2076.18 2.16027 -0.886249 0
M  V30 21740 C 2077.16 1.69289 0.165907 0
M  V30 21741 O 2078.35 1.94191 0.0188181 0
M  V30 21742 C 2075.48 3.45189 -0.382329 0
M  V30 21743 C 2074.43 4.05415 -1.37195 0
M  V30 21744 C 2073.76 5.2974 -0.726594 0
M  V30 21745 C 2075.06 4.44642 -2.74027 0
M  V30 21746 H 2076.75 2.39195 -1.80073 0
M  V30 21747 H 2074.3 1.14957 -0.867232 0
M  V30 21748 H 2076.25 4.21023 -0.17824 0
M  V30 21749 H 2074.98 3.21629 0.567641 0
M  V30 21750 H 2073.63 3.31634 -1.56252 0
M  V30 21751 H 2073.28 5.02475 0.229742 0
M  V30 21752 H 2072.98 5.70993 -1.38709 0
M  V30 21753 H 2074.51 6.08274 -0.532437 0
M  V30 21754 H 2075.92 5.11574 -2.58775 0
M  V30 21755 H 2074.32 4.96868 -3.36515 0
M  V30 21756 H 2075.39 3.55684 -3.29571 0
M  V30 21757 N 2076.73 0.957992 1.25141 0
M  V30 21758 C 2077.66 0.425072 2.24206 0
M  V30 21759 C 2078.64 -0.495458 1.54868 0
M  V30 21760 O 2079.83 -0.429066 1.83552 0
M  V30 21761 C 2076.95 -0.387415 3.36477 0
M  V30 21762 C 2076 0.473995 4.23858 0
M  V30 21763 S 2076.83 1.90829 5.00344 0
M  V30 21764 C 2077.99 1.10432 6.16081 0
M  V30 21765 H 2078.22 1.26461 2.69063 0
M  V30 21766 H 2075.75 0.762309 1.34269 0
M  V30 21767 H 2077.71 -0.850242 4.01598 0
M  V30 21768 H 2076.37 -1.20182 2.90198 0
M  V30 21769 H 2075.57 -0.149333 5.03779 0
M  V30 21770 H 2075.17 0.872164 3.63688 0
M  V30 21771 H 2077.46 0.354618 6.76571 0
M  V30 21772 H 2078.4 1.87757 6.82754 0
M  V30 21773 H 2078.81 0.632973 5.6094 0
M  V30 21774 N 2078.21 -1.39832 0.726957 0
M  V30 21775 C 2079.43 -2.05501 0.280008 0
M  V30 21776 C 2079.86 -1.54436 -1.07383 0
M  V30 21777 O 2079.22 -0.684615 -1.67877 0
M  V30 21778 C 2079.26 -3.59492 0.282502 0
M  V30 21779 O 2078.37 -4.05842 -0.732546 0
M  V30 21780 H 2077.71 -0.651361 0.128936 0
M  V30 21781 H 2080.24 -1.79019 0.990626 0
M  V30 21782 H 2080.25 -4.07811 0.124104 0
M  V30 21783 H 2078.92 -3.96022 1.27041 0
M  V30 21784 H 2077.5 -3.68956 -0.540943 0
M  V30 21785 N 2079.69 -0.473982 -1.50304 0
M  V30 21786 C 2080.91 0.0798733 -2.07246 0
M  V30 21787 C 2081.34 1.3249 -1.33521 0
M  V30 21788 O 2080.69 1.77192 -0.383743 0
M  V30 21789 C 2080.74 0.343926 -3.58956 0
M  V30 21790 O 2079.85 1.42387 -3.8704 0
M  V30 21791 H 2079.19 -0.0142608 -0.663847 0
M  V30 21792 H 2081.72 -0.665854 -1.93462 0
M  V30 21793 H 2081.73 0.583558 -4.03805 0
M  V30 21794 H 2080.4 -0.565855 -4.12033 0
M  V30 21795 H 2078.98 1.17132 -3.54026 0
M  V30 21796 N 2081.16 1.56239 -0.206702 0
M  V30 21797 C 2082.09 2.2262 0.704446 0
M  V30 21798 C 2083.08 1.19305 1.21245 0
M  V30 21799 O 2084.26 1.47846 1.25917 0
M  V30 21800 C 2081.39 2.89459 1.91913 0
M  V30 21801 C 2080.34 3.99119 1.54558 0
M  V30 21802 C 2079.67 4.53179 2.83783 0
M  V30 21803 C 2080.97 5.16934 0.746749 0
M  V30 21804 H 2082.66 2.99019 0.151028 0
M  V30 21805 H 2080.21 1.43824 0.0712004 0
M  V30 21806 H 2082.16 3.34584 2.56186 0
M  V30 21807 H 2080.89 2.10484 2.49728 0
M  V30 21808 H 2079.55 3.54702 0.926381 0
M  V30 21809 H 2079.19 3.70952 3.39711 0
M  V30 21810 H 2078.89 5.2718 2.59528 0
M  V30 21811 H 2080.42 5.01013 3.49024 0
M  V30 21812 H 2081.83 5.58532 1.29284 0
M  V30 21813 H 2080.23 5.97074 0.601876 0
M  V30 21814 H 2081.3 4.84256 -0.249783 0
M  V30 21815 N 2082.64 -0.0668159 1.57458 0
M  V30 21816 C 2083.59 -1.07888 2.04031 0
M  V30 21817 C 2084.56 -1.38168 0.921889 0
M  V30 21818 O 2085.74 -1.49151 1.1899 0
M  V30 21819 C 2082.88 -2.38598 2.49329 0
M  V30 21820 C 2082 -2.14805 3.7481 0
M  V30 21821 C 2081.13 -3.39114 4.0887 0
M  V30 21822 C 2080.17 -3.10708 5.27377 0
M  V30 21823 N 2079.31 -4.27361 5.57052 0
M  V30 21824 H 2084.15 -0.674755 2.9026 0
M  V30 21825 H 2081.69 -0.321602 1.43541 0
M  V30 21826 H 2083.64 -3.14919 2.73646 0
M  V30 21827 H 2082.27 -2.76804 1.6607 0
M  V30 21828 H 2081.33 -1.29154 3.57804 0
M  V30 21829 H 2082.64 -1.89826 4.61267 0
M  V30 21830 H 2081.79 -4.23827 4.34114 0
M  V30 21831 H 2080.53 -3.67174 3.2099 0
M  V30 21832 H 2079.54 -2.24392 5.01925 0
M  V30 21833 H 2080.76 -2.83966 6.16879 0
M  V30 21834 H 2078.71 -4.55443 4.72131 0
M  V30 21835 H 2078.62 -4.05673 6.37938 0
M  V30 21836 H 2079.89 -5.13057 5.8685 0
M  V30 21837 N 2084.12 -1.53926 -0.338317 0
M  V30 21838 C 2085.53 -1.62818 -0.913629 0
M  V30 21839 C 2085.88 -0.512813 -1.8938 0
M  V30 21840 O 2085.01 0.356629 -2.13441 0
M  V30 21841 C 2085.6 -2.9513 -1.66385 0
M  V30 21842 C 2084.16 -3.06267 -2.1881 0
M  V30 21843 C 2083.31 -2.58298 -1.00884 0
M  V30 21844 H 2086.26 -1.58273 -0.116306 0
M  V30 21845 H 2086.28 -2.84463 -2.52708 0
M  V30 21846 H 2085.79 -3.76288 -0.950215 0
M  V30 21847 H 2083.89 -2.29753 -2.93333 0
M  V30 21848 H 2084.01 -4.11824 -2.44822 0
M  V30 21849 H 2082.37 -2.13832 -1.38376 0
M  V30 21850 H 2083.15 -3.419 -0.309757 0
M  V30 21851 N 2085.6 0.599608 -1.45748 0
M  V30 21852 C 2086.85 1.35451 -1.49452 0
M  V30 21853 C 2087.16 1.95072 -0.143637 0
M  V30 21854 O 2088.37 2.71437 -0.0583691 0
M  V30 21855 C 2086.82 2.454 -2.63262 0
M  V30 21856 C 2086.43 1.92156 -4.04698 0
M  V30 21857 C 2088.18 3.22339 -2.7622 0
M  V30 21858 C 2086.08 2.99633 -5.09876 0
M  V30 21859 H 2085.01 0.509134 -0.556146 0
M  V30 21860 H 2087.66 0.641777 -1.71911 0
M  V30 21861 H 2086.05 3.19395 -2.34101 0
M  V30 21862 H 2087.22 1.24817 -4.43574 0
M  V30 21863 H 2085.53 1.27937 -3.96259 0
M  V30 21864 H 2088.13 4.02519 -3.5197 0
M  V30 21865 H 2088.47 3.73854 -1.83135 0
M  V30 21866 H 2089.01 2.55446 -3.04946 0
M  V30 21867 H 2085.75 2.53026 -6.04697 0
M  V30 21868 H 2085.27 3.65514 -4.75562 0
M  V30 21869 H 2086.95 3.63878 -5.34978 0
M  V30 21870 N 2087.08 1.33171 0.842803 0
M  V30 21871 C 2088.33 1.24159 1.59464 0
M  V30 21872 C 2088.65 -0.193595 1.94037 0
M  V30 21873 O 2087.92 -1.12135 1.60632 0
M  V30 21874 H 2086.5 0.456555 0.591241 0
M  V30 21875 H 2089.16 1.66842 1.00746 0
M  V30 21876 H 2088.25 1.83255 2.52634 0
M  V30 21877 N 2088.56 -1.06056 1.16576 0
M  V30 21878 C 2089.5 -2.15694 0.87056 0
M  V30 21879 C 2090.5 -1.6863 -0.161341 0
M  V30 21880 O 2091.7 -1.79994 -0.0150963 0
M  V30 21881 H 2088.08 -0.704161 0.263934 0
M  V30 21882 H 2090.05 -2.37802 1.80258 0
M  V30 21883 C 2088.8 -3.45498 0.390729 0
M  V30 21884 H 2088.12 -3.82107 1.17619 0
M  V30 21885 H 2089.56 -4.23413 0.222977 0
M  V30 21886 C 2088.02 -3.24928 -0.890131 0
M  V30 21887 O 2088.55 -3.50702 -1.95886 0
M  V30 21888 N 2086.76 -2.7835 -0.834838 0
M  V30 21889 H 2086.3 -2.57576 0.0350662 0
M  V30 21890 H 2086.26 -2.64967 -1.69233 0
M  V30 21891 N 2090.03 -0.964615 -1.24631 0
M  V30 21892 C 2091.28 -0.620429 -1.91921 0
M  V30 21893 C 2091.6 0.847851 -1.76269 0
M  V30 21894 O 2092.8 1.30243 -2.38221 0
M  V30 21895 C 2091.26 -1.059 -3.43967 0
M  V30 21896 C 2090.87 -2.55052 -3.6831 0
M  V30 21897 C 2092.61 -0.787818 -4.17126 0
M  V30 21898 C 2090.52 -2.92658 -5.13912 0
M  V30 21899 H 2089.45 -0.22834 -0.718594 0
M  V30 21900 H 2092.1 -1.17041 -1.41328 0
M  V30 21901 H 2090.48 -0.437357 -3.93577 0
M  V30 21902 H 2091.65 -3.2232 -3.29312 0
M  V30 21903 H 2089.97 -2.79748 -3.08432 0
M  V30 21904 H 2092.57 -1.04483 -5.24392 0
M  V30 21905 H 2092.91 0.275932 -4.15385 0
M  V30 21906 H 2093.44 -1.37028 -3.73454 0
M  V30 21907 H 2090.18 -3.98091 -5.20772 0
M  V30 21908 H 2089.7 -2.30071 -5.5392 0
M  V30 21909 H 2091.38 -2.82395 -5.82119 0
M  V30 21910 N 2091.51 1.39445 -0.734362 0
M  V30 21911 C 2092.76 2.00824 -0.282443 0
M  V30 21912 C 2093.09 1.58137 1.12722 0
M  V30 21913 O 2092.37 0.809969 1.76833 0
M  V30 21914 C 2092.65 3.58051 -0.38359 0
M  V30 21915 C 2092.5 4.10758 -1.83298 0
M  V30 21916 C 2093.82 4.39476 0.234349 0
M  V30 21917 H 2090.94 0.729611 -0.104103 0
M  V30 21918 H 2093.58 1.65661 -0.930397 0
M  V30 21919 H 2091.73 3.88136 0.168068 0
M  V30 21920 H 2093.4 3.91395 -2.44147 0
M  V30 21921 H 2091.65 3.64342 -2.35451 0
M  V30 21922 H 2092.32 5.19897 -1.85503 0
M  V30 21923 H 2094.79 4.15431 -0.235909 0
M  V30 21924 H 2093.67 5.48738 0.133228 0
M  V30 21925 H 2093.93 4.21924 1.32032 0
M  V30 21926 N 2092.99 0.481946 1.5005 0
M  V30 21927 C 2094.24 -0.0693805 2.02681 0
M  V30 21928 C 2094.57 -1.3839 1.36242 0
M  V30 21929 O 2093.84 -1.88182 0.491706 0
M  V30 21930 C 2094.13 -0.24187 3.59287 0
M  V30 21931 C 2093.98 1.09443 4.36282 0
M  V30 21932 C 2095.3 -0.991404 4.28788 0
M  V30 21933 H 2092.42 -0.0237405 0.736618 0
M  V30 21934 H 2095.06 0.629651 1.79263 0
M  V30 21935 H 2093.21 -0.837271 3.79371 0
M  V30 21936 H 2094.88 1.72725 4.27743 0
M  V30 21937 H 2093.12 1.68843 3.99593 0
M  V30 21938 H 2093.8 0.92726 5.44156 0
M  V30 21939 H 2096.27 -0.486628 4.13245 0
M  V30 21940 H 2095.15 -1.08091 5.38152 0
M  V30 21941 H 2095.41 -2.03061 3.92707 0
M  V30 21942 N 2094.47 -1.56127 0.214985 0
M  V30 21943 C 2095.72 -1.97304 -0.41881 0
M  V30 21944 C 2096.03 -1.10547 -1.61366 0
M  V30 21945 O 2097.24 -1.41593 -2.31654 0
M  V30 21946 C 2095.69 -3.50975 -0.796509 0
M  V30 21947 C 2095.3 -4.46426 0.375156 0
M  V30 21948 C 2097.04 -4.0088 -1.39627 0
M  V30 21949 C 2094.95 -5.91395 -0.0246118 0
M  V30 21950 H 2093.88 -0.736775 -0.160246 0
M  V30 21951 H 2096.53 -1.8086 0.310157 0
M  V30 21952 H 2094.91 -3.62996 -1.58271 0
M  V30 21953 H 2096.09 -4.46149 1.15271 0
M  V30 21954 H 2094.4 -4.06827 0.887721 0
M  V30 21955 H 2097 -5.06681 -1.70816 0
M  V30 21956 H 2097.34 -3.46346 -2.30977 0
M  V30 21957 H 2097.88 -3.92055 -0.673641 0
M  V30 21958 H 2094.61 -6.49897 0.855201 0
M  V30 21959 H 2094.13 -5.94881 -0.766611 0
M  V30 21960 H 2095.81 -6.45408 -0.453573 0
M  V30 21961 N 2095.95 0.0584645 -1.57492 0
M  V30 21962 C 2097.19 0.760259 -1.89735 0
M  V30 21963 C 2097.55 1.74063 -0.810311 0
M  V30 21964 O 2098.75 2.48851 -1.0162 0
M  V30 21965 C 2097.02 1.43807 -3.27191 0
M  V30 21966 S 2098.58 2.17309 -3.81211 0
M  V30 21967 H 2095.4 0.252532 -0.664642 0
M  V30 21968 H 2098 0.0158457 -1.95494 0
M  V30 21969 H 2096.7 0.710924 -4.04196 0
M  V30 21970 H 2096.24 2.22165 -3.24664 0
M  V30 21971 H 2098.25 3.44032 -3.5757 0
M  V30 21972 N 2097.42 1.54103 0.330149 0
M  V30 21973 C 2098.66 1.73714 1.07716 0
M  V30 21974 C 2099.03 0.496836 1.8546 0
M  V30 21975 O 2100.23 0.570188 2.62683 0
M  V30 21976 C 2098.5 2.97366 1.98264 0
M  V30 21977 S 2100.06 3.3785 2.80005 0
M  V30 21978 H 2096.88 0.610907 0.363749 0
M  V30 21979 H 2099.48 1.92269 0.353943 0
M  V30 21980 H 2098.18 3.85792 1.39973 0
M  V30 21981 H 2097.71 2.81315 2.75001 0
M  V30 21982 H 2099.73 2.92633 4.00725 0
M  V30 21983 N 2098.9 -0.59187 1.46064 0
M  V30 21984 C 2099.87 -1.68357 1.55526 0
M  V30 21985 C 2100.87 -1.54854 0.433247 0
M  V30 21986 O 2102.06 -1.59637 0.697258 0
M  V30 21987 C 2099.19 -3.07729 1.46683 0
M  V30 21988 H 2100.38 -1.61328 2.5281 0
M  V30 21989 H 2097.93 -0.808941 1.33738 0
M  V30 21990 H 2098.67 -3.20321 0.506433 0
M  V30 21991 H 2098.45 -3.18939 2.2808 0
M  V30 21992 H 2099.94 -3.87218 1.5637 0
M  V30 21993 N 2100.38 -1.33616 -0.835729 0
M  V30 21994 C 2101.63 -1.25251 -1.59118 0
M  V30 21995 C 2101.96 0.180895 -1.93657 0
M  V30 21996 O 2101.21 1.1389 -1.59146 0
M  V30 21997 C 2101.51 -2.07621 -2.90909 0
M  V30 21998 C 2101.18 -3.56777 -2.75719 0
M  V30 21999 C 2099.84 -3.9744 -2.71283 0
M  V30 22000 C 2102.19 -4.51545 -2.60301 0
M  V30 22001 C 2099.52 -5.31083 -2.49334 0
M  V30 22002 C 2101.87 -5.85353 -2.39885 0
M  V30 22003 C 2100.53 -6.25195 -2.33853 0
M  V30 22004 H 2099.8 -0.458325 -0.582254 0
M  V30 22005 H 2102.45 -1.65234 -0.967991 0
M  V30 22006 H 2100.76 -1.60426 -3.5745 0
M  V30 22007 H 2102.45 -1.98504 -3.48421 0
M  V30 22008 H 2099.04 -3.24492 -2.80005 0
M  V30 22009 H 2103.23 -4.21036 -2.62759 0
M  V30 22010 H 2098.48 -5.60987 -2.43113 0
M  V30 22011 H 2102.66 -6.58386 -2.26939 0
M  V30 22012 H 2100.28 -7.28688 -2.16606 0
M  V30 22013 N 2101.86 1.05436 -1.17136 0
M  V30 22014 C 2103.11 1.78394 -0.958224 0
M  V30 22015 C 2103.43 1.87604 0.513324 0
M  V30 22016 O 2102.69 1.37034 1.39715 0
M  V30 22017 C 2102.99 3.22452 -1.54141 0
M  V30 22018 C 2102.65 3.33305 -3.03675 0
M  V30 22019 C 2101.32 3.35974 -3.44492 0
M  V30 22020 C 2103.67 3.34521 -3.99681 0
M  V30 22021 C 2101 3.37485 -4.79918 0
M  V30 22022 C 2103.35 3.37571 -5.35004 0
M  V30 22023 C 2102.01 3.38526 -5.75288 0
M  V30 22024 H 2101.28 0.652789 -0.350639 0
M  V30 22025 H 2103.93 1.23935 -1.45988 0
M  V30 22026 H 2102.23 3.79821 -0.961417 0
M  V30 22027 H 2103.93 3.77518 -1.35208 0
M  V30 22028 H 2100.52 3.31939 -2.71136 0
M  V30 22029 H 2104.7 3.31662 -3.69207 0
M  V30 22030 H 2099.96 3.36533 -5.10446 0
M  V30 22031 H 2104.13 3.3746 -6.09175 0
M  V30 22032 H 2101.76 3.3945 -6.80204 0
M  V30 22033 N 2103.34 0.971211 1.24118 0
M  V30 22034 C 2104.59 0.630598 1.91589 0
M  V30 22035 C 2104.9 -0.838491 1.76716 0
M  V30 22036 O 2106.1 -1.28978 2.38908 0
M  V30 22037 C 2104.56 1.07723 3.434 0
M  V30 22038 C 2104.17 2.57002 3.66953 0
M  V30 22039 C 2105.91 0.809928 4.16702 0
M  V30 22040 C 2103.82 2.95379 5.12352 0
M  V30 22041 H 2102.75 0.232148 0.717373 0
M  V30 22042 H 2105.4 1.17789 1.40706 0
M  V30 22043 H 2103.78 0.458223 3.9334 0
M  V30 22044 H 2104.96 3.24062 3.27598 0
M  V30 22045 H 2103.27 2.8138 3.06944 0
M  V30 22046 H 2105.87 1.07262 5.23831 0
M  V30 22047 H 2106.21 -0.253899 4.15525 0
M  V30 22048 H 2106.74 1.39007 3.72722 0
M  V30 22049 H 2103.48 4.00847 5.18654 0
M  V30 22050 H 2103 2.33005 5.52692 0
M  V30 22051 H 2104.68 2.85478 5.80613 0
M  V30 22052 N 2104.81 -1.39054 0.741747 0
M  V30 22053 C 2106.06 -1.99612 0.289503 0
M  V30 22054 C 2106.38 -1.59538 -1.13168 0
M  V30 22055 O 2107.58 -2.12981 -1.68379 0
M  V30 22056 C 2106.04 -3.56862 0.466657 0
M  V30 22057 C 2105.65 -4.05894 1.89616 0
M  V30 22058 C 2107.39 -4.24431 0.0765289 0
M  V30 22059 C 2105.3 -5.55742 2.0225 0
M  V30 22060 H 2104.23 -0.746725 0.10449 0
M  V30 22061 H 2106.88 -1.58968 0.916594 0
M  V30 22062 H 2105.26 -3.95335 -0.229437 0
M  V30 22063 H 2106.43 -3.78739 2.62475 0
M  V30 22064 H 2104.75 -3.5101 2.24011 0
M  V30 22065 H 2107.35 -5.3449 0.149851 0
M  V30 22066 H 2107.69 -4.04861 -0.969208 0
M  V30 22067 H 2108.22 -3.91156 0.724031 0
M  V30 22068 H 2104.96 -5.80201 3.05036 0
M  V30 22069 H 2104.48 -5.84678 1.33836 0
M  V30 22070 H 2106.16 -6.21258 1.80685 0
M  V30 22071 N 2106.29 -0.489897 -1.49792 0
M  V30 22072 C 2107.54 0.0585441 -2.02415 0
M  V30 22073 C 2107.87 1.38015 -1.37048 0
M  V30 22074 O 2107.12 1.89427 -0.491526 0
M  V30 22075 C 2107.42 0.271059 -3.56371 0
M  V30 22076 C 2107.09 -0.971168 -4.40317 0
M  V30 22077 C 2105.75 -1.31171 -4.62977 0
M  V30 22078 C 2108.1 -1.79739 -4.89227 0
M  V30 22079 C 2105.43 -2.47819 -5.31792 0
M  V30 22080 C 2107.78 -2.95531 -5.59325 0
M  V30 22081 C 2106.45 -3.29978 -5.80234 0
M  V30 22082 H 2105.72 0.0214228 -0.74069 0
M  V30 22083 H 2108.36 -0.6478 -1.8021 0
M  V30 22084 H 2106.67 1.05983 -3.77193 0
M  V30 22085 H 2108.36 0.70968 -3.9467 0
M  V30 22086 H 2104.95 -0.695889 -4.22913 0
M  V30 22087 H 2109.14 -1.54746 -4.71559 0
M  V30 22088 H 2104.39 -2.74759 -5.46185 0
M  V30 22089 H 2108.57 -3.59885 -5.96201 0
M  V30 22090 H 2106.2 -4.2047 -6.33332 0
M  V30 22091 N 2107.77 1.56011 -0.223262 0
M  V30 22092 C 2109.02 1.97956 0.407171 0
M  V30 22093 C 2109.34 1.11219 1.60173 0
M  V30 22094 O 2108.61 0.189604 1.9498 0
M  V30 22095 H 2107.19 0.731075 0.153424 0
M  V30 22096 H 2109.85 1.92312 -0.316554 0
M  V30 22097 H 2108.95 3.03386 0.732342 0
M  V30 22098 N 2109.25 -0.0501116 1.5752 0
M  V30 22099 C 2110.5 -0.744028 1.87476 0
M  V30 22100 C 2110.81 -1.77631 0.818943 0
M  V30 22101 O 2112.02 -2.52133 1.00703 0
M  V30 22102 C 2110.47 -1.37429 3.32628 0
M  V30 22103 C 2110.08 -0.379458 4.4639 0
M  V30 22104 C 2111.82 -2.04931 3.71757 0
M  V30 22105 C 2109.73 -1.01687 5.82592 0
M  V30 22106 H 2108.66 -0.281635 0.699427 0
M  V30 22107 H 2111.31 0.00219827 1.835 0
M  V30 22108 H 2109.69 -2.16952 3.31282 0
M  V30 22109 H 2110.87 0.387526 4.59168 0
M  V30 22110 H 2109.18 0.1923 4.15956 0
M  V30 22111 H 2111.78 -2.53436 4.70823 0
M  V30 22112 H 2112.12 -2.85832 3.02665 0
M  V30 22113 H 2112.66 -1.32212 3.75186 0
M  V30 22114 H 2109.4 -0.247733 6.55032 0
M  V30 22115 H 2108.92 -1.7542 5.73575 0
M  V30 22116 H 2110.59 -1.53041 6.28639 0
M  V30 22117 N 2110.73 -1.54276 -0.321972 0
M  V30 22118 C 2111.66 -1.86766 -1.40146 0
M  V30 22119 C 2112.64 -0.724601 -1.53895 0
M  V30 22120 O 2113.82 -0.978478 -1.67748 0
M  V30 22121 C 2110.95 -2.09642 -2.76889 0
M  V30 22122 C 2109.91 -3.25485 -2.77927 0
M  V30 22123 C 2109.23 -3.33736 -4.17761 0
M  V30 22124 C 2110.53 -4.63097 -2.41533 0
M  V30 22125 H 2112.23 -2.77174 -1.13204 0
M  V30 22126 H 2109.77 -1.33364 -0.543134 0
M  V30 22127 H 2111.73 -2.30955 -3.52474 0
M  V30 22128 H 2110.45 -1.15985 -3.05311 0
M  V30 22129 H 2109.11 -3.04062 -2.04798 0
M  V30 22130 H 2108.76 -2.37634 -4.43327 0
M  V30 22131 H 2108.46 -4.11594 -4.19362 0
M  V30 22132 H 2109.98 -3.57285 -4.95156 0
M  V30 22133 H 2111.39 -4.84281 -3.06831 0
M  V30 22134 H 2109.79 -5.43516 -2.54382 0
M  V30 22135 H 2110.86 -4.65238 -1.3668 0
M  V30 22136 N 2112.2 0.584116 -1.46376 0
M  V30 22137 C 2113.45 1.33973 -1.51313 0
M  V30 22138 C 2113.77 1.94294 -0.165758 0
M  V30 22139 O 2113.04 1.78481 0.807546 0
M  V30 22140 H 2111.62 0.497422 -0.557298 0
M  V30 22141 H 2114.29 0.684191 -1.82496 0
M  V30 22142 H 2113.38 2.14716 -2.26503 0
M  V30 22143 N 2113.68 1.34058 0.828631 0
M  V30 22144 C 2114.93 1.2628 1.58686 0
M  V30 22145 C 2115.26 -0.168425 1.93468 0
M  V30 22146 O 2114.54 -1.11237 1.59551 0
M  V30 22147 C 2114.82 2.14808 2.89015 0
M  V30 22148 C 2114.67 3.66439 2.60849 0
M  V30 22149 C 2115.99 2.02902 3.90536 0
M  V30 22150 H 2113.11 0.460068 0.575766 0
M  V30 22151 H 2115.75 1.64256 0.954988 0
M  V30 22152 H 2113.9 1.82551 3.42939 0
M  V30 22153 H 2115.58 4.09036 2.13278 0
M  V30 22154 H 2113.82 3.87811 1.94384 0
M  V30 22155 H 2114.49 4.23742 3.53761 0
M  V30 22156 H 2116.97 2.31212 3.45948 0
M  V30 22157 H 2115.84 2.6708 4.79541 0
M  V30 22158 H 2116.1 1.00429 4.30542 0
M  V30 22159 N 2115.16 -1.04814 1.17694 0
M  V30 22160 C 2116.09 -2.12661 0.854872 0
M  V30 22161 C 2117.11 -1.62159 -0.144345 0
M  V30 22162 O 2118.3 -1.78309 0.0824726 0
M  V30 22163 C 2115.4 -3.37942 0.254679 0
M  V30 22164 C 2114.57 -4.17706 1.2977 0
M  V30 22165 C 2113.63 -5.21326 0.714573 0
M  V30 22166 O 2112.65 -5.52033 1.38736 0
M  V30 22167 N 2113.86 -5.78415 -0.491561 0
M  V30 22168 H 2116.62 -2.40885 1.7831 0
M  V30 22169 H 2114.18 -1.20943 1.0763 0
M  V30 22170 H 2116.17 -4.04426 -0.148817 0
M  V30 22171 H 2114.74 -3.07221 -0.577415 0
M  V30 22172 H 2113.96 -3.46655 1.8768 0
M  V30 22173 H 2115.25 -4.67796 2.00112 0
M  V30 22174 H 2114.65 -5.55756 -1.05604 0
M  V30 22175 H 2113.21 -6.46403 -0.837072 0
M  V30 22176 N 2116.64 -0.977779 -1.23601 0
M  V30 22177 C 2117.57 -0.535228 -2.27283 0
M  V30 22178 C 2118.55 0.430261 -1.64568 0
M  V30 22179 O 2119.74 0.324195 -1.91475 0
M  V30 22180 C 2116.87 0.165683 -3.46905 0
M  V30 22181 C 2115.82 -0.716827 -4.21954 0
M  V30 22182 C 2115.15 0.116149 -5.34574 0
M  V30 22183 C 2116.45 -2.00636 -4.82227 0
M  V30 22184 H 2118.14 -1.40185 -2.64553 0
M  V30 22185 H 2115.69 -0.67551 -1.27173 0
M  V30 22186 H 2117.64 0.486573 -4.18581 0
M  V30 22187 H 2116.36 1.06674 -3.08688 0
M  V30 22188 H 2115.02 -1.02114 -3.52091 0
M  V30 22189 H 2114.67 1.01766 -4.92598 0
M  V30 22190 H 2114.37 -0.471195 -5.85708 0
M  V30 22191 H 2115.89 0.431481 -6.09074 0
M  V30 22192 H 2117.31 -1.75041 -5.45925 0
M  V30 22193 H 2115.7 -2.54126 -5.43636 0
M  V30 22194 H 2116.77 -2.69488 -4.03118 0
M  V30 22195 N 2118.12 1.38658 -0.749111 0
M  V30 22196 C 2119.36 2.00216 -0.303277 0
M  V30 22197 C 2119.69 1.59459 1.1137 0
M  V30 22198 O 2118.95 0.821377 1.77628 0
M  V30 22199 C 2119.25 3.55494 -0.368653 0
M  V30 22200 C 2118.91 4.15948 -1.74064 0
M  V30 22201 C 2117.57 4.32173 -2.11613 0
M  V30 22202 C 2119.93 4.49344 -2.64083 0
M  V30 22203 C 2117.25 4.79088 -3.38661 0
M  V30 22204 C 2119.61 4.97674 -3.90517 0
M  V30 22205 C 2118.27 5.12106 -4.2814 0
M  V30 22206 H 2117.54 0.732643 -0.110977 0
M  V30 22207 H 2120.19 1.65774 -0.958716 0
M  V30 22208 H 2118.49 3.90046 0.370354 0
M  V30 22209 H 2120.19 4.01 -0.00534235 0
M  V30 22210 H 2116.78 4.0373 -1.43875 0
M  V30 22211 H 2120.96 4.36414 -2.3634 0
M  V30 22212 H 2116.22 4.88447 -3.67735 0
M  V30 22213 H 2120.39 5.22485 -4.60415 0
M  V30 22214 H 2118.02 5.4822 -5.26649 0
M  V30 22215 N 2119.6 0.497834 1.49531 0
M  V30 22216 C 2120.54 -0.282279 2.29067 0
M  V30 22217 C 2121.51 -0.963221 1.35319 0
M  V30 22218 O 2122.7 -0.970497 1.64274 0
M  V30 22219 C 2119.84 -1.34265 3.1791 0
M  V30 22220 C 2118.95 -0.673799 4.26713 0
M  V30 22221 C 2118.09 -1.71434 5.02776 0
M  V30 22222 C 2117.12 -1.02719 6.0342 0
M  V30 22223 N 2116.26 -2.01178 6.7266 0
M  V30 22224 H 2121.1 0.402227 2.95273 0
M  V30 22225 H 2118.64 0.210203 1.4559 0
M  V30 22226 H 2120.6 -1.96938 3.67792 0
M  V30 22227 H 2119.23 -1.99596 2.53695 0
M  V30 22228 H 2118.28 0.0661428 3.80342 0
M  V30 22229 H 2119.59 -0.132722 4.98623 0
M  V30 22230 H 2118.74 -2.4162 5.56511 0
M  V30 22231 H 2117.48 -2.28926 4.30632 0
M  V30 22232 H 2116.49 -0.311083 5.48919 0
M  V30 22233 H 2117.71 -0.458799 6.77548 0
M  V30 22234 H 2115.66 -2.57639 6.0329 0
M  V30 22235 H 2115.58 -1.52128 7.40536 0
M  V30 22236 H 2116.84 -2.70663 7.31001 0
M  V30 22237 N 2121.07 -1.5589 0.231532 0
M  V30 22238 C 2122.32 -1.98169 -0.396667 0
M  V30 22239 C 2122.64 -1.12067 -1.59581 0
M  V30 22240 O 2121.91 -0.199942 -1.94877 0
M  V30 22241 H 2120.49 -0.731878 -0.149544 0
M  V30 22242 H 2123.15 -1.92142 0.326749 0
M  V30 22243 H 2122.25 -3.0377 -0.716243 0
M  V30 22244 N 2122.55 0.0417572 -1.57545 0
M  V30 22245 C 2123.5 1.04629 -2.05722 0
M  V30 22246 C 2124.47 1.36684 -0.943754 0
M  V30 22247 O 2125.65 1.47239 -1.21348 0
M  V30 22248 C 2122.79 2.34601 -2.53093 0
M  V30 22249 C 2121.91 2.08815 -3.7818 0
M  V30 22250 C 2121.04 3.32567 -4.14214 0
M  V30 22251 C 2120.08 3.02279 -5.32254 0
M  V30 22252 N 2119.22 4.18445 -5.6378 0
M  V30 22253 H 2124.06 0.628491 -2.91297 0
M  V30 22254 H 2121.59 0.298725 -1.44035 0
M  V30 22255 H 2123.55 3.10525 -2.78621 0
M  V30 22256 H 2122.18 2.74127 -1.70453 0
M  V30 22257 H 2121.23 1.23445 -3.59813 0
M  V30 22258 H 2122.55 1.82464 -4.64229 0
M  V30 22259 H 2121.7 4.16867 -4.40802 0
M  V30 22260 H 2120.44 3.6202 -3.26791 0
M  V30 22261 H 2119.44 2.16378 -5.05431 0
M  V30 22262 H 2120.67 2.74116 -6.21319 0
M  V30 22263 H 2118.62 4.47874 -4.79317 0
M  V30 22264 H 2118.53 3.95473 -6.44311 0
M  V30 22265 H 2119.8 5.03656 -5.94938 0
M  V30 22266 N 2124.03 1.54445 0.313786 0
M  V30 22267 C 2125.28 1.73117 1.05056 0
M  V30 22268 C 2125.6 0.510078 1.87692 0
M  V30 22269 O 2124.86 -0.508109 1.88989 0
M  V30 22270 C 2125.16 2.96492 1.99568 0
M  V30 22271 C 2124.82 4.30835 1.3301 0
M  V30 22272 C 2123.49 4.67357 1.14589 0
M  V30 22273 C 2125.84 5.14169 0.853216 0
M  V30 22274 C 2123.17 5.84803 0.471447 0
M  V30 22275 C 2125.52 6.32307 0.192549 0
M  V30 22276 C 2124.18 6.675 -0.00372174 0
M  V30 22277 H 2123.45 0.633479 0.384428 0
M  V30 22278 H 2126.1 1.88693 0.326706 0
M  V30 22279 H 2124.4 2.75643 2.78438 0
M  V30 22280 H 2126.1 3.08133 2.56623 0
M  V30 22281 H 2122.69 4.02107 1.48351 0
M  V30 22282 H 2126.88 4.86462 0.983284 0
M  V30 22283 H 2122.13 6.10622 0.308274 0
M  V30 22284 H 2126.31 6.96154 -0.184925 0
M  V30 22285 H 2123.93 7.58362 -0.52835 0
M  V30 22286 N 2125.51 -0.576345 1.46683 0
M  V30 22287 C 2126.75 -1.33432 1.52323 0
M  V30 22288 C 2127.08 -1.93688 0.177545 0
M  V30 22289 O 2126.34 -1.77343 -0.827521 0
M  V30 22290 C 2126.64 -2.4787 2.57479 0
M  V30 22291 C 2126.3 -2.05566 4.01314 0
M  V30 22292 C 2124.96 -1.93745 4.40473 0
M  V30 22293 C 2127.32 -1.7302 4.91644 0
M  V30 22294 C 2124.64 -1.47644 5.67819 0
M  V30 22295 C 2127 -1.28396 6.19433 0
M  V30 22296 C 2125.66 -1.15156 6.57492 0
M  V30 22297 H 2124.93 -0.488262 0.557388 0
M  V30 22298 H 2127.58 -0.648342 1.80191 0
M  V30 22299 H 2125.88 -3.21942 2.23295 0
M  V30 22300 H 2127.58 -3.06078 2.5907 0
M  V30 22301 H 2124.17 -2.15704 3.70364 0
M  V30 22302 H 2128.35 -1.81036 4.62104 0
M  V30 22303 H 2123.61 -1.36041 5.96073 0
M  V30 22304 H 2127.78 -1.02268 6.8885 0
M  V30 22305 H 2125.41 -0.792103 7.56062 0
M  V30 22306 N 2126.99 -1.34495 -0.82151 0
M  V30 22307 C 2128.23 -1.27119 -1.58014 0
M  V30 22308 C 2128.56 0.158163 -1.93555 0
M  V30 22309 O 2127.84 1.10389 -1.60139 0
M  V30 22310 C 2128.12 -2.16338 -2.87871 0
M  V30 22311 C 2127.98 -3.67818 -2.58902 0
M  V30 22312 C 2129.29 -2.04971 -3.89455 0
M  V30 22313 H 2126.41 -0.463115 -0.573318 0
M  V30 22314 H 2129.06 -1.6476 -0.946264 0
M  V30 22315 H 2127.21 -1.84367 -3.41966 0
M  V30 22316 H 2128.88 -4.10161 -2.11106 0
M  V30 22317 H 2127.12 -3.88837 -1.92324 0
M  V30 22318 H 2127.79 -4.25612 -3.51509 0
M  V30 22319 H 2130.27 -2.33044 -3.44717 0
M  V30 22320 H 2129.14 -2.6962 -4.78118 0
M  V30 22321 H 2129.4 -1.02711 -4.30003 0
M  V30 22322 N 2128.46 1.04188 -1.18248 0
M  V30 22323 C 2129.7 1.78933 -0.988049 0
M  V30 22324 C 2130.07 1.86056 0.474043 0
M  V30 22325 O 2131.27 2.56994 0.787877 0
M  V30 22326 C 2129.54 3.184 -1.62347 0
M  V30 22327 S 2131.1 4.09497 -1.57663 0
M  V30 22328 H 2127.92 0.616126 -0.354837 0
M  V30 22329 H 2130.52 1.24936 -1.5037 0
M  V30 22330 H 2129.22 3.10824 -2.67986 0
M  V30 22331 H 2128.75 3.77473 -1.10805 0
M  V30 22332 H 2130.77 4.9266 -0.591661 0
M  V30 22333 N 2129.94 0.98432 1.23081 0
M  V30 22334 C 2130.87 0.48581 2.23992 0
M  V30 22335 C 2131.89 -0.414468 1.57436 0
M  V30 22336 O 2133.08 -0.217976 1.77164 0
M  V30 22337 C 2130.18 -0.316143 3.37422 0
M  V30 22338 C 2129.35 0.578204 4.33561 0
M  V30 22339 C 2128.41 -0.170568 5.25923 0
M  V30 22340 O 2127.43 0.441138 5.67488 0
M  V30 22341 N 2128.64 -1.45541 5.61959 0
M  V30 22342 H 2131.4 1.3535 2.67396 0
M  V30 22343 H 2128.96 0.858041 1.37293 0
M  V30 22344 H 2130.95 -0.825504 3.96191 0
M  V30 22345 H 2129.52 -1.08487 2.93171 0
M  V30 22346 H 2128.74 1.26835 3.73238 0
M  V30 22347 H 2130.03 1.18757 4.94747 0
M  V30 22348 H 2129.43 -1.97385 5.30147 0
M  V30 22349 H 2127.99 -1.91013 6.23183 0
M  V30 22350 N 2131.42 -1.38259 0.756453 0
M  V30 22351 C 2132.67 -1.99657 0.313271 0
M  V30 22352 C 2132.99 -1.60347 -1.10967 0
M  V30 22353 O 2132.26 -0.861667 -1.75932 0
M  V30 22354 H 2130.84 -0.738428 0.112838 0
M  V30 22355 H 2133.5 -1.68979 0.971184 0
M  V30 22356 H 2132.6 -3.09794 0.378689 0
M  V30 22357 N 2132.9 -0.505757 -1.49264 0
M  V30 22358 C 2133.81 0.274574 -2.32988 0
M  V30 22359 C 2134.82 0.962724 -1.4494 0
M  V30 22360 O 2136 0.943054 -1.77956 0
M  V30 22361 C 2133.07 1.32231 -3.20493 0
M  V30 22362 C 2132.13 0.64709 -4.24395 0
M  V30 22363 C 2131.36 1.6449 -5.07719 0
M  V30 22364 O 2131.58 2.87523 -4.92632 0
M  V30 22365 O 2130.52 1.19761 -5.89865 0
M  V30 22366 H 2134.34 -0.410833 -3.00908 0
M  V30 22367 H 2131.93 -0.267017 -1.46994 0
M  V30 22368 H 2133.81 1.92838 -3.74689 0
M  V30 22369 H 2132.48 1.99056 -2.55262 0
M  V30 22370 H 2131.39 0.00115278 -3.741 0
M  V30 22371 H 2132.72 0.0212046 -4.92195 0
M  V30 22372 N 2134.38 1.55765 -0.239796 0
M  V30 22373 C 2135.65 1.90659 0.436876 0
M  V30 22374 C 2136.03 1.1596 1.76398 0
M  V30 22375 O 2135.38 0.274778 2.26842 0
M  V30 22376 C 2135.59 3.43593 0.611939 0
M  V30 22377 C 2136.94 4.1471 0.911065 0
M  V30 22378 O 2137.96 3.49293 0.698064 0
M  V30 22379 O 2136.82 5.30411 1.3163 0
M  V30 22380 H 2133.92 0.793348 0.233511 0
M  V30 22381 H 2136.46 1.67318 -0.283335 0
M  V30 22382 H 2135.23 3.89961 -0.323424 0
M  V30 22383 H 2134.86 3.72773 1.38296 0
M  V30 22384 N 2135.85 -0.0334016 1.57565 0
M  V30 22385 C 2137.08 -0.736973 1.9333 0
M  V30 22386 C 2137.5 -1.69124 0.83919 0
M  V30 22387 O 2136.85 -1.81563 -0.184737 0
M  V30 22388 C 2136.91 -1.49777 3.29012 0
M  V30 22389 O 2136.63 -0.581806 4.3422 0
M  V30 22390 C 2138.13 -2.29889 3.79033 0
M  V30 22391 H 2135.35 -0.207374 0.638151 0
M  V30 22392 H 2137.89 0.0077802 2.04499 0
M  V30 22393 H 2136.05 -2.19444 3.19254 0
M  V30 22394 H 2136.46 -1.11488 5.12514 0
M  V30 22395 H 2137.93 -2.78671 4.76494 0
M  V30 22396 H 2138.41 -3.11119 3.10003 0
M  V30 22397 H 2139.02 -1.65304 3.9186 0
M  V30 22398 N 2137.33 -1.54609 -0.305591 0
M  V30 22399 C 2138.75 -1.4572 -0.650988 0
M  V30 22400 C 2138.95 -0.644662 -1.90909 0
M  V30 22401 O 2138 -0.150545 -2.52051 0
M  V30 22402 C 2139.32 -2.89634 -0.808259 0
M  V30 22403 C 2140.87 -2.99648 -0.904441 0
M  V30 22404 C 2141.34 -4.44748 -1.09375 0
M  V30 22405 N 2142.83 -4.48438 -1.16006 0
M  V30 22406 C 2143.57 -5.57887 -1.32474 0
M  V30 22407 N 2143.06 -6.77269 -1.4587 0
M  V30 22408 N 2144.86 -5.45567 -1.35326 0
M  V30 22409 H 2137.01 -2.05909 0.521082 0
M  V30 22410 H 2139.27 -0.932366 0.171455 0
M  V30 22411 H 2138.98 -3.51671 0.0452303 0
M  V30 22412 H 2138.85 -3.36787 -1.69866 0
M  V30 22413 H 2141.24 -2.37727 -1.74842 0
M  V30 22414 H 2141.32 -2.55798 0.00987599 0
M  V30 22415 H 2140.96 -5.07262 -0.25455 0
M  V30 22416 H 2140.89 -4.86224 -2.02222 0
M  V30 22417 H 2143.38 -3.62428 -1.07025 0
M  V30 22418 H 2143.7 -7.56439 -1.58179 0
M  V30 22419 H 2142.04 -6.80143 -1.42934 0
M  V30 22420 H 2145.23 -4.51248 -1.24469 0
M  V30 22421 H 2145.4 -6.30915 -1.47817 0
M  V30 22422 N 2138.81 0.568558 -1.46987 0
M  V30 22423 C 2139.76 1.6976 -1.5901 0
M  V30 22424 C 2140.75 1.63094 -0.457903 0
M  V30 22425 O 2141.96 1.68416 -0.635295 0
M  V30 22426 H 2138.33 0.561516 -0.500203 0
M  V30 22427 H 2140.3 1.56753 -2.53911 0
M  V30 22428 C 2139.05 3.08133 -1.61089 0
M  V30 22429 H 2138.38 3.13939 -2.47553 0
M  V30 22430 H 2139.82 3.86853 -1.73554 0
M  V30 22431 C 2138.28 3.35159 -0.342082 0
M  V30 22432 O 2138.81 3.97754 0.561684 0
M  V30 22433 N 2137.01 2.89723 -0.225608 0
M  V30 22434 H 2136.56 2.38964 -0.961979 0
M  V30 22435 H 2136.52 3.08177 0.622418 0
M  V30 22436 N 2140.29 1.34929 0.814366 0
M  V30 22437 C 2141.54 1.27105 1.56612 0
M  V30 22438 C 2141.85 -0.154812 1.94986 0
M  V30 22439 O 2143.06 -0.355268 2.69166 0
M  V30 22440 C 2141.51 2.22863 2.82595 0
M  V30 22441 C 2141.12 3.70753 2.51489 0
M  V30 22442 C 2142.86 2.23965 3.6061 0
M  V30 22443 C 2140.77 4.58355 3.73717 0
M  V30 22444 H 2139.7 0.472214 0.587818 0
M  V30 22445 H 2142.35 1.60146 0.895848 0
M  V30 22446 H 2140.73 1.82784 3.51292 0
M  V30 22447 H 2141.91 4.19421 1.90848 0
M  V30 22448 H 2140.22 3.72182 1.86733 0
M  V30 22449 H 2142.82 2.86634 4.51381 0
M  V30 22450 H 2143.16 1.24126 3.97364 0
M  V30 22451 H 2143.7 2.62533 2.98866 0
M  V30 22452 H 2140.44 5.59163 3.42077 0
M  V30 22453 H 2139.96 4.14418 4.3361 0
M  V30 22454 H 2141.63 4.73391 4.41033 0
M  V30 22455 N 2141.77 -1.0356 1.18799 0
M  V30 22456 C 2142.99 -1.80487 1.01153 0
M  V30 22457 C 2143.41 -1.83603 -0.439927 0
M  V30 22458 O 2142.77 -1.27518 -1.30558 0
M  V30 22459 C 2142.82 -3.25853 1.56532 0
M  V30 22460 O 2142.54 -3.22983 2.95996 0
M  V30 22461 C 2144.04 -4.19406 1.43575 0
M  V30 22462 H 2141.26 -0.568214 0.356895 0
M  V30 22463 H 2143.8 -1.30482 1.57463 0
M  V30 22464 H 2141.96 -3.73071 1.04387 0
M  V30 22465 H 2142.37 -4.14085 3.21922 0
M  V30 22466 H 2143.85 -5.19319 1.87114 0
M  V30 22467 H 2144.32 -4.37507 0.385237 0
M  V30 22468 H 2144.93 -3.78055 1.94818 0
M  V30 22469 N 2143.25 -0.990834 -1.22557 0
M  V30 22470 C 2144.19 -0.532274 -2.26428 0
M  V30 22471 C 2145.19 0.416012 -1.64212 0
M  V30 22472 O 2146.39 0.288758 -1.77669 0
M  V30 22473 H 2142.77 -0.153732 -0.736118 0
M  V30 22474 H 2144.74 -1.41981 -2.62457 0
M  V30 22475 C 2143.49 0.139451 -3.4742 0
M  V30 22476 H 2142.81 -0.581172 -3.95553 0
M  V30 22477 H 2144.25 0.42379 -4.21877 0
M  V30 22478 C 2142.71 1.37411 -3.07604 0
M  V30 22479 O 2143.24 2.4696 -3.16818 0
M  V30 22480 N 2141.45 1.2486 -2.62409 0
M  V30 22481 H 2140.99 0.357212 -2.55111 0
M  V30 22482 H 2140.95 2.07575 -2.36136 0
M  V30 22483 N 2144.72 1.37856 -0.763775 0
M  V30 22484 C 2145.67 2.30357 -0.142863 0
M  V30 22485 C 2146.64 1.50697 0.698548 0
M  V30 22486 O 2147.83 1.79294 0.652566 0
M  V30 22487 C 2144.97 3.3715 0.736468 0
M  V30 22488 C 2144.08 4.31831 -0.12068 0
M  V30 22489 C 2143.21 5.25697 0.762609 0
M  V30 22490 C 2142.25 6.12022 -0.0975572 0
M  V30 22491 N 2141.39 6.98155 0.74326 0
M  V30 22492 H 2146.23 2.82878 -0.937235 0
M  V30 22493 H 2143.77 1.39261 -0.473798 0
M  V30 22494 H 2145.72 3.97686 1.26102 0
M  V30 22495 H 2144.35 2.86014 1.49652 0
M  V30 22496 H 2143.41 3.7267 -0.762965 0
M  V30 22497 H 2144.72 4.92592 -0.784528 0
M  V30 22498 H 2143.87 5.91399 1.35395 0
M  V30 22499 H 2142.61 4.65328 1.46016 0
M  V30 22500 H 2141.62 5.45306 -0.70149 0
M  V30 22501 H 2142.84 6.74462 -0.792323 0
M  V30 22502 H 2140.79 6.40323 1.42558 0
M  V30 22503 H 2140.7 7.55877 0.136535 0
M  V30 22504 H 2141.97 7.68255 1.31925 0
M  V30 22505 N 2146.2 0.513665 1.48994 0
M  V30 22506 C 2147.43 -0.0248975 2.07385 0
M  V30 22507 C 2147.85 -1.28903 1.36987 0
M  V30 22508 O 2147.21 -1.76113 0.430588 0
M  V30 22509 C 2147.26 -0.248634 3.59742 0
M  V30 22510 O 2146.36 -1.32076 3.90679 0
M  V30 22511 H 2145.7 0.0318565 0.663235 0
M  V30 22512 H 2148.23 0.716913 1.91629 0
M  V30 22513 H 2148.24 -0.476291 4.0521 0
M  V30 22514 H 2146.92 0.674899 4.10388 0
M  V30 22515 H 2145.49 -1.07705 3.57007 0
M  V30 22516 N 2147.68 -1.55636 0.248053 0
M  V30 22517 C 2148.96 -1.90888 -0.426759 0
M  V30 22518 C 2149.34 -1.16894 -1.75781 0
M  V30 22519 O 2148.68 -0.286804 -2.26693 0
M  V30 22520 C 2148.89 -3.43913 -0.593709 0
M  V30 22521 C 2150.24 -4.15188 -0.889059 0
M  V30 22522 O 2151.27 -3.49658 -0.67953 0
M  V30 22523 O 2150.13 -5.31102 -1.28815 0
M  V30 22524 H 2147.22 -0.794576 -0.2293 0
M  V30 22525 H 2149.77 -1.67165 0.292205 0
M  V30 22526 H 2148.54 -3.89784 0.3441 0
M  V30 22527 H 2148.16 -3.73502 -1.36317 0
M  V30 22528 N 2149.16 0.0250451 -1.5758 0
M  V30 22529 C 2150.4 0.719842 -1.91305 0
M  V30 22530 C 2150.76 1.72305 -0.84705 0
M  V30 22531 O 2151.96 2.46639 -1.06876 0
M  V30 22532 C 2150.23 1.36835 -3.30168 0
M  V30 22533 S 2151.79 2.09174 -3.85735 0
M  V30 22534 H 2148.61 0.238377 -0.669849 0
M  V30 22535 H 2151.21 -0.025625 -1.95483 0
M  V30 22536 H 2149.92 0.625028 -4.05613 0
M  V30 22537 H 2149.45 2.15228 -3.29303 0
M  V30 22538 H 2151.46 3.3637 -3.64787 0
M  V30 22539 N 2150.64 1.54769 0.297388 0
M  V30 22540 C 2151.6 1.85222 1.35002 0
M  V30 22541 C 2152.6 0.725316 1.43512 0
M  V30 22542 O 2153.79 0.993591 1.43085 0
M  V30 22543 C 2150.92 2.03573 2.73443 0
M  V30 22544 H 2152.11 2.79296 1.09241 0
M  V30 22545 H 2149.67 1.46886 0.53424 0
M  V30 22546 H 2150.4 1.11799 3.0442 0
M  V30 22547 H 2150.19 2.85599 2.68655 0
M  V30 22548 H 2151.68 2.28492 3.49545 0
M  V30 22549 N 2152.11 -0.560755 1.47286 0
M  V30 22550 C 2153.02 -1.69558 1.62133 0
M  V30 22551 C 2154.04 -1.66533 0.50425 0
M  V30 22552 O 2155.22 -1.86045 0.771315 0
M  V30 22553 C 2152.28 -3.06065 1.62865 0
M  V30 22554 C 2151.34 -3.20185 2.85972 0
M  V30 22555 C 2150.57 -4.5018 2.8666 0
M  V30 22556 O 2150.8 -5.35423 1.96669 0
M  V30 22557 O 2149.73 -4.68015 3.78478 0
M  V30 22558 H 2153.56 -1.59976 2.5815 0
M  V30 22559 H 2151.14 -0.730353 1.30331 0
M  V30 22560 H 2153.02 -3.87307 1.66046 0
M  V30 22561 H 2151.7 -3.16037 0.700143 0
M  V30 22562 H 2150.61 -2.38353 2.88337 0
M  V30 22563 H 2151.94 -3.15114 3.78106 0
M  V30 22564 N 2153.59 -1.35359 -0.807199 0
M  V30 22565 C 2154.55 -1.28103 -1.90059 0
M  V30 22566 C 2155.55 -0.192614 -1.59642 0
M  V30 22567 O 2156.74 -0.446274 -1.68387 0
M  V30 22568 C 2153.88 -0.981581 -3.26463 0
M  V30 22569 H 2155.07 -2.25323 -1.97912 0
M  V30 22570 H 2152.62 -1.19874 -1.00299 0
M  V30 22571 H 2153.36 -0.013209 -3.24297 0
M  V30 22572 H 2153.14 -1.76903 -3.49925 0
M  V30 22573 H 2154.63 -0.956397 -4.06501 0
M  V30 22574 N 2155.07 1.02928 -1.19346 0
M  V30 22575 C 2156.29 1.80485 -1.02175 0
M  V30 22576 C 2156.72 1.83238 0.424925 0
M  V30 22577 O 2156.08 1.25809 1.30545 0
M  V30 22578 C 2156.13 3.23415 -1.59483 0
M  V30 22579 O 2155.23 4.04087 -0.823877 0
M  V30 22580 H 2154.57 0.557177 -0.361178 0
M  V30 22581 H 2157.1 1.29551 -1.5836 0
M  V30 22582 H 2157.11 3.74164 -1.62681 0
M  V30 22583 H 2155.79 3.20727 -2.64777 0
M  V30 22584 H 2154.36 3.62726 -0.865114 0
M  V30 22585 N 2156.55 0.997319 1.2203 0
M  V30 22586 C 2157.78 0.69324 1.94622 0
M  V30 22587 C 2158.19 -0.746899 1.73833 0
M  V30 22588 O 2157.53 -1.51616 1.03722 0
M  V30 22589 C 2157.59 0.92485 3.474 0
M  V30 22590 C 2157.25 2.35033 3.91929 0
M  V30 22591 C 2158.25 3.33011 3.99249 0
M  V30 22592 C 2155.94 2.68594 4.24456 0
M  V30 22593 C 2157.93 4.6262 4.38476 0
M  V30 22594 C 2155.62 3.98422 4.63361 0
M  V30 22595 C 2156.62 4.95246 4.70341 0
M  V30 22596 O 2156.3 6.22753 5.08363 0
M  V30 22597 H 2156.04 0.255247 0.625959 0
M  V30 22598 H 2158.59 1.33604 1.5601 0
M  V30 22599 H 2156.82 0.224877 3.86046 0
M  V30 22600 H 2158.51 0.61534 4.01209 0
M  V30 22601 H 2159.27 3.08416 3.74306 0
M  V30 22602 H 2155.15 1.9393 4.18225 0
M  V30 22603 H 2158.7 5.38194 4.43839 0
M  V30 22604 H 2154.59 4.22804 4.87757 0
M  V30 22605 H 2155.36 6.26755 5.26422 0
M  V30 22606 N 2158.03 -1.37449 0.771075 0
M  V30 22607 C 2159.44 -1.53106 0.450629 0
M  V30 22608 C 2159.64 -1.72957 -1.03384 0
M  V30 22609 O 2158.7 -1.75055 -1.81967 0
M  V30 22610 C 2160.01 -2.72792 1.26511 0
M  V30 22611 C 2161.56 -2.86653 1.25695 0
M  V30 22612 C 2162.03 -4.09321 2.05477 0
M  V30 22613 N 2163.53 -4.16432 2.02827 0
M  V30 22614 C 2164.26 -5.10381 2.61341 0
M  V30 22615 N 2163.76 -6.09892 3.2864 0
M  V30 22616 N 2165.55 -5.02859 2.51175 0
M  V30 22617 H 2157.7 -1.22815 1.73292 0
M  V30 22618 H 2159.96 -0.597977 0.735614 0
M  V30 22619 H 2159.67 -2.64586 2.31705 0
M  V30 22620 H 2159.54 -3.66457 0.893837 0
M  V30 22621 H 2161.93 -2.9433 0.213001 0
M  V30 22622 H 2162.01 -1.93949 1.66786 0
M  V30 22623 H 2161.66 -4.02404 3.09892 0
M  V30 22624 H 2161.59 -5.01137 1.61768 0
M  V30 22625 H 2164.08 -3.45173 1.53831 0
M  V30 22626 H 2164.39 -6.78106 3.70664 0
M  V30 22627 H 2162.73 -6.10172 3.32738 0
M  V30 22628 H 2165.93 -4.24063 1.98213 0
M  V30 22629 H 2166.1 -5.75893 2.97071 0
M  V30 22630 N 2159.5 -0.52156 -1.4872 0
M  V30 22631 C 2160.75 0.00752906 -2.03399 0
M  V30 22632 C 2161.11 1.32786 -1.39233 0
M  V30 22633 O 2160.4 1.84239 -0.525988 0
M  V30 22634 C 2160.59 0.195406 -3.56865 0
M  V30 22635 C 2160.42 -1.10516 -4.35909 0
M  V30 22636 C 2159.19 -1.66269 -4.77161 0
M  V30 22637 C 2161.39 -2.01366 -4.7324 0
M  V30 22638 N 2159.37 -2.90702 -5.40708 0
M  V30 22639 C 2160.74 -3.10376 -5.36719 0
M  V30 22640 C 2162.8 -2.01795 -4.55174 0
M  V30 22641 C 2161.5 -4.19867 -5.84041 0
M  V30 22642 C 2163.53 -3.10275 -5.03471 0
M  V30 22643 C 2162.89 -4.18003 -5.66968 0
M  V30 22644 H 2158.99 -0.0385357 -0.78105 0
M  V30 22645 H 2161.57 -0.700975 -1.81644 0
M  V30 22646 H 2159.74 0.872986 -3.78462 0
M  V30 22647 H 2161.47 0.723345 -3.98183 0
M  V30 22648 H 2158.23 -1.20516 -4.5801 0
M  V30 22649 H 2158.65 -3.54031 -5.77053 0
M  V30 22650 H 2163.3 -1.19806 -4.05471 0
M  V30 22651 H 2161.01 -5.02641 -6.32754 0
M  V30 22652 H 2164.6 -3.11652 -4.91289 0
M  V30 22653 H 2163.48 -5.00561 -6.03662 0
M  V30 22654 N 2160.98 1.55502 -0.256304 0
M  V30 22655 C 2162.23 1.99463 0.366354 0
M  V30 22656 C 2162.56 1.14436 1.56902 0
M  V30 22657 O 2161.84 0.209944 1.93364 0
M  V30 22658 C 2162.12 3.51836 0.767016 0
M  V30 22659 C 2161.97 4.47626 -0.441687 0
M  V30 22660 C 2163.29 4.09574 1.61051 0
M  V30 22661 H 2160.41 0.72514 0.131688 0
M  V30 22662 H 2163.05 1.86568 -0.359494 0
M  V30 22663 H 2161.2 3.62956 1.38546 0
M  V30 22664 H 2162.87 4.48475 -1.08018 0
M  V30 22665 H 2161.12 4.2006 -1.08313 0
M  V30 22666 H 2161.79 5.51874 -0.117869 0
M  V30 22667 H 2164.26 4.01614 1.08838 0
M  V30 22668 H 2163.14 5.16436 1.85969 0
M  V30 22669 H 2163.4 3.58619 2.58544 0
M  V30 22670 N 2162.46 -0.0166879 1.57591 0
M  V30 22671 C 2163.88 -0.372531 1.55191 0
M  V30 22672 C 2164.08 -1.75838 0.984042 0
M  V30 22673 O 2163.13 -2.45008 0.610513 0
M  V30 22674 C 2164.45 -0.263043 2.99547 0
M  V30 22675 C 2165.99 -0.339216 3.11156 0
M  V30 22676 C 2166.47 -0.259039 4.57267 0
M  V30 22677 N 2167.96 -0.317455 4.62111 0
M  V30 22678 C 2168.69 -0.278499 5.72723 0
M  V30 22679 N 2168.19 -0.191112 6.92536 0
M  V30 22680 N 2169.98 -0.32914 5.61136 0
M  V30 22681 H 2162.13 0.890086 1.9285 0
M  V30 22682 H 2164.4 0.339637 0.885071 0
M  V30 22683 H 2164.1 0.689794 3.44869 0
M  V30 22684 H 2163.98 -1.0518 3.62239 0
M  V30 22685 H 2166.36 -1.28249 2.65775 0
M  V30 22686 H 2166.45 0.479109 2.51273 0
M  V30 22687 H 2166.09 0.68062 5.03319 0
M  V30 22688 H 2166.02 -1.09563 5.15076 0
M  V30 22689 H 2168.51 -0.387004 3.75913 0
M  V30 22690 H 2168.82 -0.166827 7.7262 0
M  V30 22691 H 2167.17 -0.15698 6.94823 0
M  V30 22692 H 2170.36 -0.395489 4.66426 0
M  V30 22693 H 2170.53 -0.295314 6.47327 0
M  V30 22694 N 2163.94 -1.54924 -0.289176 0
M  V30 22695 C 2164.89 -1.83077 -1.35892 0
M  V30 22696 C 2165.87 -0.68863 -1.45419 0
M  V30 22697 O 2167.06 -0.949574 -1.49372 0
M  V30 22698 C 2164.19 -2.09196 -2.72198 0
M  V30 22699 C 2163.28 -3.29627 -2.66847 0
M  V30 22700 N 2163.67 -4.49912 -2.31112 0
M  V30 22701 C 2161.97 -3.31892 -2.97933 0
M  V30 22702 C 2162.67 -5.31963 -2.35351 0
M  V30 22703 N 2161.65 -4.69972 -2.7318 0
M  V30 22704 H 2165.45 -2.73634 -1.07246 0
M  V30 22705 H 2162.96 -1.54583 -0.497785 0
M  V30 22706 H 2164.96 -2.27516 -3.49345 0
M  V30 22707 H 2163.62 -1.19914 -3.01746 0
M  V30 22708 H 2164.63 -4.76302 -2.03364 0
M  V30 22709 H 2161.31 -2.52753 -3.32298 0
M  V30 22710 H 2162.7 -6.38101 -2.10421 0
M  V30 22711 N 2165.42 0.552936 -1.47582 0
M  V30 22712 C 2166.36 1.65963 -1.60389 0
M  V30 22713 C 2167.33 1.59979 -0.446754 0
M  V30 22714 O 2168.52 1.78749 -0.667351 0
M  V30 22715 C 2165.66 3.04278 -1.62815 0
M  V30 22716 C 2164.77 3.20668 -2.89476 0
M  V30 22717 C 2163.91 4.49406 -2.8321 0
M  V30 22718 C 2162.95 4.59243 -4.04676 0
M  V30 22719 N 2162.08 5.79341 -3.96621 0
M  V30 22720 H 2166.92 1.54355 -2.54909 0
M  V30 22721 H 2164.46 0.751844 -1.26435 0
M  V30 22722 H 2166.42 3.84377 -1.62204 0
M  V30 22723 H 2165.05 3.14712 -0.718048 0
M  V30 22724 H 2164.1 2.33973 -2.99935 0
M  V30 22725 H 2165.41 3.238 -3.79414 0
M  V30 22726 H 2164.57 5.3777 -2.80872 0
M  V30 22727 H 2163.3 4.4876 -1.90961 0
M  V30 22728 H 2162.31 3.69291 -4.07314 0
M  V30 22729 H 2163.53 4.61645 -4.98057 0
M  V30 22730 H 2161.48 5.79636 -3.07178 0
M  V30 22731 H 2161.4 5.8387 -4.80242 0
M  V30 22732 H 2162.67 6.70054 -3.98306 0
M  V30 22733 N 2166.89 1.35785 0.800009 0
M  V30 22734 C 2168.12 1.32363 1.5863 0
M  V30 22735 C 2168.53 -0.099518 1.88938 0
M  V30 22736 O 2167.88 -1.06381 1.49763 0
M  V30 22737 C 2167.94 2.0694 2.93966 0
M  V30 22738 C 2167.6 3.56091 2.86441 0
M  V30 22739 C 2168.6 4.50553 2.59419 0
M  V30 22740 C 2166.28 3.98831 3.05351 0
M  V30 22741 C 2168.28 5.8573 2.51394 0
M  V30 22742 C 2165.96 5.34102 2.96948 0
M  V30 22743 C 2166.96 6.27364 2.70006 0
M  V30 22744 O 2166.65 7.60153 2.61578 0
M  V30 22745 H 2166.38 0.456006 0.499033 0
M  V30 22746 H 2168.94 1.7932 1.00168 0
M  V30 22747 H 2167.17 1.5463 3.54438 0
M  V30 22748 H 2168.86 1.96511 3.55159 0
M  V30 22749 H 2169.62 4.18848 2.44522 0
M  V30 22750 H 2165.5 3.2662 3.25331 0
M  V30 22751 H 2169.04 6.58494 2.30285 0
M  V30 22752 H 2164.94 5.65418 3.11405 0
M  V30 22753 H 2165.71 7.70154 2.77137 0
M  V30 22754 N 2168.37 -1.02294 1.19891 0
M  V30 22755 C 2169.32 -2.12815 0.938741 0
M  V30 22756 C 2170.31 -1.69058 -0.107611 0
M  V30 22757 O 2171.52 -1.79951 0.042175 0
M  V30 22758 H 2167.9 -0.695408 0.286203 0
M  V30 22759 H 2169.87 -2.31946 1.87732 0
M  V30 22760 C 2168.62 -3.4408 0.500448 0
M  V30 22761 H 2167.94 -3.78172 1.29716 0
M  V30 22762 H 2169.38 -4.2249 0.357569 0
M  V30 22763 C 2167.84 -3.27596 -0.786307 0
M  V30 22764 O 2168.37 -3.56756 -1.84629 0
M  V30 22765 N 2166.57 -2.80865 -0.745861 0
M  V30 22766 H 2166.12 -2.57334 0.116994 0
M  V30 22767 H 2166.08 -2.70217 -1.60718 0
M  V30 22768 N 2169.85 -1.00378 -1.21499 0
M  V30 22769 C 2171.1 -0.68578 -1.90534 0
M  V30 22770 C 2171.43 0.783334 -1.78028 0
M  V30 22771 O 2170.68 1.58328 -1.15024 0
M  V30 22772 C 2170.98 -1.05103 -3.41596 0
M  V30 22773 C 2170.65 -2.51421 -3.74297 0
M  V30 22774 C 2169.31 -2.91403 -3.82933 0
M  V30 22775 C 2171.66 -3.46207 -3.89603 0
M  V30 22776 C 2168.99 -4.25137 -4.04321 0
M  V30 22777 C 2171.34 -4.79613 -4.12497 0
M  V30 22778 C 2170 -5.1932 -4.1936 0
M  V30 22779 H 2169.27 -0.250945 -0.697214 0
M  V30 22780 H 2171.92 -1.26199 -1.44035 0
M  V30 22781 H 2170.23 -0.393054 -3.89823 0
M  V30 22782 H 2171.92 -0.782861 -3.93284 0
M  V30 22783 H 2168.51 -2.19435 -3.68166 0
M  V30 22784 H 2172.7 -3.16483 -3.82299 0
M  V30 22785 H 2167.95 -4.55474 -4.07864 0
M  V30 22786 H 2172.13 -5.52996 -4.23283 0
M  V30 22787 H 2169.75 -6.22963 -4.35685 0
M  V30 22788 N 2171.33 1.37038 -0.778354 0
M  V30 22789 C 2172.61 1.93726 -0.270129 0
M  V30 22790 C 2172.99 1.71138 1.23592 0
M  V30 22791 O 2172.33 1.06396 2.02218 0
M  V30 22792 C 2172.54 3.4288 -0.650703 0
M  V30 22793 C 2173.89 4.19987 -0.624207 0
M  V30 22794 O 2174.92 3.51271 -0.590496 0
M  V30 22795 O 2173.77 5.42534 -0.657186 0
M  V30 22796 H 2170.87 0.824515 -0.0640657 0
M  V30 22797 H 2173.41 1.46286 -0.860152 0
M  V30 22798 H 2172.19 3.52931 -1.68984 0
M  V30 22799 H 2171.81 3.97585 -0.0339758 0
M  V30 22800 N 2172.81 0.529439 1.48441 0
M  V30 22801 C 2173.76 -0.247016 2.31285 0
M  V30 22802 C 2174.75 -0.935988 1.41194 0
M  V30 22803 O 2175.96 -0.860435 1.58103 0
M  V30 22804 H 2172.33 -0.0985275 0.745517 0
M  V30 22805 H 2174.3 0.471286 2.94655 0
M  V30 22806 C 2173.05 -1.28129 3.23231 0
M  V30 22807 H 2172.37 -0.760547 3.92499 0
M  V30 22808 H 2173.81 -1.796 3.84083 0
M  V30 22809 C 2172.27 -2.31462 2.448 0
M  V30 22810 O 2172.8 -3.37888 2.17243 0
M  V30 22811 N 2171.01 -2.04662 2.06305 0
M  V30 22812 H 2170.56 -1.18131 2.28917 0
M  V30 22813 H 2170.51 -2.74022 1.5414 0
M  V30 22814 N 2174.29 -1.55364 0.264547 0
M  V30 22815 C 2175.22 -2.25081 -0.621337 0
M  V30 22816 C 2176.2 -1.23722 -1.16734 0
M  V30 22817 O 2177.38 -1.52418 -1.20343 0
M  V30 22818 C 2174.51 -2.96382 -1.81038 0
M  V30 22819 C 2173.47 -4.0458 -1.39638 0
M  V30 22820 C 2172.79 -4.63399 -2.66768 0
M  V30 22821 C 2174.09 -5.1935 -0.554378 0
M  V30 22822 H 2175.79 -2.99373 -0.0399448 0
M  V30 22823 H 2173.33 -1.43989 -0.0177721 0
M  V30 22824 H 2175.28 -3.43862 -2.43592 0
M  V30 22825 H 2174.01 -2.19608 -2.41744 0
M  V30 22826 H 2172.67 -3.57896 -0.794097 0
M  V30 22827 H 2172.32 -3.83305 -3.25709 0
M  V30 22828 H 2172.02 -5.36449 -2.39784 0
M  V30 22829 H 2173.54 -5.13622 -3.30189 0
M  V30 22830 H 2174.95 -5.62946 -1.08465 0
M  V30 22831 H 2173.35 -5.98897 -0.379861 0
M  V30 22832 H 2174.42 -4.82996 0.42934 0
M  V30 22833 N 2175.76 0.00833021 -1.57598 0
M  V30 22834 C 2177.01 0.693539 -1.89827 0
M  V30 22835 C 2177.33 1.74773 -0.864844 0
M  V30 22836 O 2176.6 1.9565 0.0988666 0
M  V30 22837 H 2175.18 0.25915 -0.700607 0
M  V30 22838 H 2177.84 -0.0306259 -1.94876 0
M  V30 22839 H 2176.94 1.17005 -2.89337 0
M  V30 22840 N 2177.24 1.55075 0.280956 0
M  V30 22841 C 2178.17 1.83809 1.36919 0
M  V30 22842 C 2179.19 0.722116 1.45909 0
M  V30 22843 O 2180.38 0.999868 1.47868 0
M  V30 22844 C 2177.48 1.97895 2.75119 0
M  V30 22845 C 2176.65 3.28485 2.88819 0
M  V30 22846 C 2175.71 3.32736 4.07643 0
M  V30 22847 O 2174.73 4.06159 3.98778 0
M  V30 22848 N 2175.94 2.59566 5.19236 0
M  V30 22849 H 2178.7 2.77736 1.12619 0
M  V30 22850 H 2176.26 1.54895 0.471063 0
M  V30 22851 H 2178.25 1.98119 3.5289 0
M  V30 22852 H 2176.82 1.10872 2.92278 0
M  V30 22853 H 2176.04 3.40868 1.97997 0
M  V30 22854 H 2177.33 4.14624 2.94897 0
M  V30 22855 H 2176.73 1.99582 5.29324 0
M  V30 22856 H 2175.29 2.65521 5.95266 0
M  V30 22857 N 2178.72 -0.545102 1.47873 0
M  V30 22858 C 2179.68 -1.63324 1.60804 0
M  V30 22859 C 2180.68 -1.53397 0.482294 0
M  V30 22860 O 2181.87 -1.57338 0.747692 0
M  V30 22861 C 2179 -3.02906 1.56399 0
M  V30 22862 H 2180.2 -1.53204 2.57815 0
M  V30 22863 H 2177.75 -0.765983 1.36244 0
M  V30 22864 H 2178.49 -3.18548 0.608084 0
M  V30 22865 H 2178.27 -3.11521 2.38112 0
M  V30 22866 H 2179.76 -3.82048 1.6861 0
M  V30 22867 N 2180.2 -1.36208 -0.792797 0
M  V30 22868 C 2181.13 -1.32936 -1.91964 0
M  V30 22869 C 2182.11 -0.2014 -1.68903 0
M  V30 22870 O 2183.29 -0.39852 -1.90067 0
M  V30 22871 C 2180.42 -1.11449 -3.28932 0
M  V30 22872 C 2179.38 -2.21033 -3.66508 0
M  V30 22873 C 2178.7 -1.84693 -5.01789 0
M  V30 22874 C 2180 -3.63096 -3.75444 0
M  V30 22875 H 2181.7 -2.27226 -1.94958 0
M  V30 22876 H 2179.24 -1.09381 -0.936582 0
M  V30 22877 H 2181.2 -1.07796 -4.07379 0
M  V30 22878 H 2179.92 -0.136086 -3.26316 0
M  V30 22879 H 2178.58 -2.23806 -2.90356 0
M  V30 22880 H 2178.23 -0.854356 -4.95691 0
M  V30 22881 H 2177.93 -2.58059 -5.27901 0
M  V30 22882 H 2179.45 -1.8259 -5.82661 0
M  V30 22883 H 2180.87 -3.62569 -4.44091 0
M  V30 22884 H 2179.26 -4.35339 -4.13037 0
M  V30 22885 H 2180.33 -3.98247 -2.76636 0
M  V30 22886 N 2181.68 1.01656 -1.20431 0
M  V30 22887 C 2182.61 2.09853 -0.896499 0
M  V30 22888 C 2183.59 1.61893 0.151428 0
M  V30 22889 O 2184.77 1.88483 0.025002 0
M  V30 22890 C 2181.9 3.36949 -0.343986 0
M  V30 22891 C 2180.94 4.03799 -1.3729 0
M  V30 22892 S 2181.78 4.4771 -2.93796 0
M  V30 22893 C 2182.93 5.78008 -2.40121 0
M  V30 22894 H 2183.17 2.3564 -1.81277 0
M  V30 22895 H 2180.7 1.14773 -1.03279 0
M  V30 22896 H 2182.66 4.10488 -0.0317557 0
M  V30 22897 H 2181.32 3.09233 0.550783 0
M  V30 22898 H 2180.51 4.95238 -0.935689 0
M  V30 22899 H 2180.11 3.36484 -1.63261 0
M  V30 22900 H 2182.4 6.53183 -1.79885 0
M  V30 22901 H 2183.35 6.26525 -3.29957 0
M  V30 22902 H 2183.76 5.34272 -1.82247 0
M  V30 22903 N 2183.15 1.01021 1.20965 0
M  V30 22904 C 2184.38 0.714661 1.94698 0
M  V30 22905 C 2184.8 -0.717235 1.73889 0
M  V30 22906 O 2184.16 -1.49265 1.02906 0
M  V30 22907 C 2184.21 1.04769 3.45045 0
M  V30 22908 O 2183.31 0.155818 4.12106 0
M  V30 22909 H 2182.65 0.265768 0.608493 0
M  V30 22910 H 2185.18 1.35186 1.53577 0
M  V30 22911 H 2185.19 0.996722 3.95638 0
M  V30 22912 H 2183.87 2.09099 3.59514 0
M  V30 22913 H 2182.45 0.263764 3.71966 0
M  V30 22914 N 2184.63 -1.36623 0.78561 0
M  V30 22915 C 2185.56 -2.3268 0.195557 0
M  V30 22916 C 2186.54 -1.56463 -0.667335 0
M  V30 22917 O 2187.73 -1.84636 -0.601943 0
M  V30 22918 C 2184.86 -3.40708 -0.673467 0
M  V30 22919 C 2183.81 -4.27907 0.0892255 0
M  V30 22920 C 2183.14 -5.27069 -0.900146 0
M  V30 22921 C 2184.44 -5.06468 1.27624 0
M  V30 22922 H 2186.13 -2.82276 0.998033 0
M  V30 22923 H 2183.68 -1.35716 0.481373 0
M  V30 22924 H 2185.63 -4.06893 -1.09617 0
M  V30 22925 H 2184.35 -2.8967 -1.50861 0
M  V30 22926 H 2183.01 -3.63272 0.492858 0
M  V30 22927 H 2182.66 -4.72306 -1.73022 0
M  V30 22928 H 2182.36 -5.86276 -0.394285 0
M  V30 22929 H 2183.89 -5.96128 -1.32149 0
M  V30 22930 H 2185.3 -5.65715 0.92949 0
M  V30 22931 H 2183.7 -5.75068 1.71513 0
M  V30 22932 H 2184.77 -4.38332 2.07349 0
M  V30 22933 N 2186.11 -0.537304 -1.48158 0
M  V30 22934 C 2187.36 -0.00588246 -2.02499 0
M  V30 22935 C 2187.68 1.33585 -1.41369 0
M  V30 22936 O 2186.94 1.87767 -0.551542 0
M  V30 22937 C 2187.24 0.157545 -3.57053 0
M  V30 22938 C 2186.9 -1.11076 -4.37005 0
M  V30 22939 C 2185.57 -1.45834 -4.58569 0
M  V30 22940 C 2187.92 -1.95212 -4.83261 0
M  V30 22941 C 2185.25 -2.64612 -5.23639 0
M  V30 22942 C 2187.6 -3.13176 -5.4964 0
M  V30 22943 C 2186.26 -3.4827 -5.69442 0
M  V30 22944 H 2185.53 -0.00215255 -0.740997 0
M  V30 22945 H 2188.18 -0.704805 -1.78058 0
M  V30 22946 H 2186.48 0.93929 -3.80374 0
M  V30 22947 H 2188.18 0.583759 -3.96728 0
M  V30 22948 H 2184.77 -0.830084 -4.20485 0
M  V30 22949 H 2188.96 -1.6967 -4.66397 0
M  V30 22950 H 2184.21 -2.91996 -5.37167 0
M  V30 22951 H 2188.39 -3.78671 -5.8445 0
M  V30 22952 H 2186.01 -4.40406 -6.19634 0
M  V30 22953 N 2187.59 1.55221 -0.272782 0
M  V30 22954 C 2188.83 1.99841 0.345178 0
M  V30 22955 C 2189.17 1.16093 1.55679 0
M  V30 22956 O 2188.44 0.230441 1.9313 0
M  V30 22957 C 2188.73 3.5263 0.729656 0
M  V30 22958 C 2188.58 4.47133 -0.489138 0
M  V30 22959 C 2189.9 4.11259 1.56698 0
M  V30 22960 H 2187.02 0.726495 0.123989 0
M  V30 22961 H 2189.66 1.86176 -0.379262 0
M  V30 22962 H 2187.81 3.64405 1.34689 0
M  V30 22963 H 2189.48 4.47304 -1.12769 0
M  V30 22964 H 2187.72 4.18888 -1.12762 0
M  V30 22965 H 2188.39 5.51718 -0.176396 0
M  V30 22966 H 2190.87 4.02745 1.04572 0
M  V30 22967 H 2189.75 5.1838 1.80481 0
M  V30 22968 H 2190.01 3.61341 2.54726 0
M  V30 22969 N 2189.07 2.77022e-05 1.576 0
M  V30 22970 C 2190 -0.990304 2.1146 0
M  V30 22971 C 2190.98 -1.35844 1.02374 0
M  V30 22972 O 2192.16 -1.44218 1.30057 0
M  V30 22973 C 2189.29 -2.28215 2.61792 0
M  V30 22974 C 2188.25 -2.05563 3.75404 0
M  V30 22975 C 2187.57 -3.40761 4.12051 0
M  V30 22976 C 2188.87 -1.4182 5.02677 0
M  V30 22977 H 2190.57 -0.541853 2.94456 0
M  V30 22978 H 2188.11 -0.259194 1.41648 0
M  V30 22979 H 2190.07 -2.97851 2.98099 0
M  V30 22980 H 2188.79 -2.75174 1.75918 0
M  V30 22981 H 2187.45 -1.38353 3.39491 0
M  V30 22982 H 2187.1 -3.85423 3.232 0
M  V30 22983 H 2186.8 -3.26421 4.88593 0
M  V30 22984 H 2188.32 -4.11712 4.50916 0
M  V30 22985 H 2189.73 -2.01413 5.36755 0
M  V30 22986 H 2188.13 -1.37967 5.84025 0
M  V30 22987 H 2189.2 -0.387421 4.8335 0
M  V30 22988 N 2190.54 -1.55222 -0.272728 0
M  V30 22989 C 2191.51 -1.87346 -1.32038 0
M  V30 22990 C 2192.51 -0.748055 -1.4234 0
M  V30 22991 O 2193.7 -1.01623 -1.41487 0
M  V30 22992 C 2190.83 -2.07898 -2.70169 0
M  V30 22993 H 2192.02 -2.80999 -1.04784 0
M  V30 22994 H 2189.58 -1.47718 -0.510804 0
M  V30 22995 H 2190.31 -1.16628 -3.02603 0
M  V30 22996 H 2190.1 -2.89837 -2.64077 0
M  V30 22997 H 2191.59 -2.34024 -3.45865 0
M  V30 22998 N 2192.02 0.537252 -1.4816 0
M  V30 22999 C 2193.25 1.32317 -1.59709 0
M  V30 23000 C 2193.67 1.86365 -0.254891 0
M  V30 23001 O 2193.03 1.64026 0.772349 0
M  V30 23002 C 2193.08 2.45501 -2.64125 0
M  V30 23003 O 2192.18 3.48325 -2.2078 0
M  V30 23004 H 2191.52 0.392195 -0.535798 0
M  V30 23005 H 2194.05 0.647233 -1.94093 0
M  V30 23006 H 2194.06 2.9179 -2.85171 0
M  V30 23007 H 2192.74 2.05522 -3.61571 0
M  V30 23008 H 2191.32 3.08204 -2.09917 0
M  V30 23009 N 2193.5 1.36626 0.785562 0
M  V30 23010 C 2194.45 1.31267 1.89836 0
M  V30 23011 C 2195.42 0.180662 1.65115 0
M  V30 23012 O 2196.6 0.367802 1.87221 0
M  V30 23013 C 2193.74 1.11168 3.26704 0
M  V30 23014 C 2192.86 2.33478 3.63472 0
M  V30 23015 C 2191.99 2.06361 4.89478 0
M  V30 23016 C 2191.03 3.24611 5.18935 0
M  V30 23017 N 2190.17 2.97134 6.36126 0
M  V30 23018 H 2195.01 2.26416 1.93752 0
M  V30 23019 H 2192.54 1.12526 0.947434 0
M  V30 23020 H 2194.5 0.975408 4.05637 0
M  V30 23021 H 2193.13 0.196731 3.222 0
M  V30 23022 H 2192.18 2.57896 2.79632 0
M  V30 23023 H 2193.5 3.21711 3.81187 0
M  V30 23024 H 2192.65 1.89685 5.76285 0
M  V30 23025 H 2191.39 1.15446 4.73839 0
M  V30 23026 H 2190.39 3.41842 4.30609 0
M  V30 23027 H 2191.62 4.16358 5.36491 0
M  V30 23028 H 2189.56 2.08834 6.21872 0
M  V30 23029 H 2189.48 3.78906 6.54191 0
M  V30 23030 H 2190.75 2.84046 7.25905 0
M  V30 23031 N 2194.98 -1.01016 1.20969 0
M  V30 23032 C 2196.26 -1.71932 0.93267 0
M  V30 23033 C 2196.64 -2.03622 -0.556884 0
M  V30 23034 O 2195.98 -1.70583 -1.52032 0
M  V30 23035 C 2196.19 -2.98251 1.81238 0
M  V30 23036 C 2197.54 -3.71385 2.05811 0
M  V30 23037 O 2198.57 -3.08221 1.78544 0
M  V30 23038 O 2197.42 -4.84985 2.51896 0
M  V30 23039 H 2194.52 -0.749619 0.349286 0
M  V30 23040 H 2197.06 -1.06806 1.31873 0
M  V30 23041 H 2195.84 -2.71203 2.82072 0
M  V30 23042 H 2195.46 -3.71117 1.4268 0
M  V30 23043 N 2196.46 -1.01661 -1.20428 0
M  V30 23044 C 2197.7 -0.704556 -1.89421 0
M  V30 23045 C 2198.03 0.768165 -1.79232 0
M  V30 23046 O 2197.3 1.55252 -1.19473 0
M  V30 23047 H 2195.88 -0.257615 -0.701173 0
M  V30 23048 H 2198.54 -1.28821 -1.46257 0
M  V30 23049 H 2197.63 -0.987968 -2.9605 0
M  V30 23050 N 2197.93 1.36205 -0.792844 0
M  V30 23051 C 2199.18 1.99886 -0.37645 0
M  V30 23052 C 2199.54 1.6179 1.04124 0
M  V30 23053 O 2198.83 0.864223 1.71002 0
M  V30 23054 C 2199.02 3.54141 -0.481564 0
M  V30 23055 C 2198.85 4.0722 -1.90793 0
M  V30 23056 C 2197.62 4.3721 -2.53329 0
M  V30 23057 C 2199.82 4.26736 -2.87055 0
M  V30 23058 N 2197.8 4.76133 -3.87519 0
M  V30 23059 C 2199.17 4.68502 -4.06086 0
M  V30 23060 C 2201.23 4.08913 -2.84067 0
M  V30 23061 C 2199.93 4.94312 -5.2254 0
M  V30 23062 C 2201.96 4.35871 -3.99713 0
M  V30 23063 C 2201.32 4.77897 -5.17488 0
M  V30 23064 H 2197.42 0.759744 -0.185239 0
M  V30 23065 H 2200 1.65151 -1.03117 0
M  V30 23066 H 2198.17 3.88136 0.143086 0
M  V30 23067 H 2199.9 4.04679 -0.0410839 0
M  V30 23068 H 2196.66 4.27037 -2.04784 0
M  V30 23069 H 2197.08 4.99874 -4.56569 0
M  V30 23070 H 2201.73 3.75576 -1.94171 0
M  V30 23071 H 2199.44 5.26529 -6.13019 0
M  V30 23072 H 2203.03 4.23648 -3.98765 0
M  V30 23073 H 2201.91 4.98352 -6.05487 0
M  V30 23074 N 2199.41 0.545154 1.47871 0
M  V30 23075 C 2200.66 0.016646 2.02793 0
M  V30 23076 C 2200.99 -1.32487 1.41989 0
M  V30 23077 O 2200.27 -1.85927 0.571078 0
M  V30 23078 C 2200.55 -0.0892662 3.59989 0
M  V30 23079 C 2200.4 1.27849 4.31248 0
M  V30 23080 C 2201.72 -0.808648 4.32607 0
M  V30 23081 H 2198.84 0.00752331 0.736962 0
M  V30 23082 H 2201.48 0.705116 1.76432 0
M  V30 23083 H 2199.63 -0.675614 3.8258 0
M  V30 23084 H 2201.3 1.90711 4.20032 0
M  V30 23085 H 2199.55 1.85639 3.92072 0
M  V30 23086 H 2200.22 1.15722 5.39734 0
M  V30 23087 H 2202.69 -0.310919 4.14937 0
M  V30 23088 H 2201.57 -0.851686 5.42252 0
M  V30 23089 H 2201.83 -1.86222 4.00966 0
M  V30 23090 N 2200.89 -1.55074 0.28101 0
M  V30 23091 C 2202.17 -1.9175 -0.386173 0
M  V30 23092 C 2202.55 -1.20597 -1.73262 0
M  V30 23093 O 2201.9 -0.334824 -2.26034 0
M  V30 23094 C 2202.11 -3.45095 -0.520626 0
M  V30 23095 C 2203.45 -4.1698 -0.800792 0
M  V30 23096 O 2204.48 -3.51021 -0.605209 0
M  V30 23097 O 2203.34 -5.33714 -1.17521 0
M  V30 23098 H 2200.43 -0.799261 -0.212394 0
M  V30 23099 H 2202.98 -1.66508 0.327597 0
M  V30 23100 H 2201.75 -3.88967 0.426702 0
M  V30 23101 H 2201.37 -3.76309 -1.28364 0
M  V30 23102 N 2202.37 -0.00838561 -1.57598 0
M  V30 23103 C 2203.62 0.673935 -1.90108 0
M  V30 23104 C 2203.93 1.74469 -0.884306 0
M  V30 23105 O 2205.14 2.48222 -1.09992 0
M  V30 23106 C 2203.59 1.24989 -3.37499 0
M  V30 23107 C 2203.2 0.213522 -4.47491 0
M  V30 23108 C 2204.95 1.90992 -3.79107 0
M  V30 23109 C 2202.85 0.799947 -5.85965 0
M  V30 23110 H 2201.78 0.255482 -0.709398 0
M  V30 23111 H 2204.43 -0.0703015 -1.83365 0
M  V30 23112 H 2202.82 2.04507 -3.39106 0
M  V30 23113 H 2203.99 -0.557676 -4.57413 0
M  V30 23114 H 2202.3 -0.346547 -4.14955 0
M  V30 23115 H 2204.9 2.35787 -4.79905 0
M  V30 23116 H 2205.24 2.74401 -3.13065 0
M  V30 23117 H 2205.78 1.18196 -3.79835 0
M  V30 23118 H 2202.52 0.00445186 -6.555 0
M  V30 23119 H 2202.04 1.54011 -5.7969 0
M  V30 23120 H 2203.72 1.29604 -6.33886 0
M  V30 23121 N 2203.85 1.55365 0.264492 0
M  V30 23122 C 2204.78 1.83768 1.35294 0
M  V30 23123 C 2205.76 0.691361 1.4717 0
M  V30 23124 O 2206.94 0.935267 1.63661 0
M  V30 23125 C 2204.07 2.00684 2.72844 0
M  V30 23126 C 2203.12 3.23268 2.78208 0
M  V30 23127 S 2203.95 4.804 2.36593 0
M  V30 23128 C 2205.1 5.00298 3.76101 0
M  V30 23129 H 2205.34 2.75802 1.10998 0
M  V30 23130 H 2202.87 1.47245 0.46457 0
M  V30 23131 H 2204.83 2.11114 3.52053 0
M  V30 23132 H 2203.49 1.09524 2.94386 0
M  V30 23133 H 2202.68 3.32017 3.79185 0
M  V30 23134 H 2202.28 3.11473 2.07028 0
M  V30 23135 H 2204.58 4.86562 4.71448 0
M  V30 23136 H 2205.52 6.02328 3.72299 0
M  V30 23137 H 2205.93 4.28234 3.67799 0
M  V30 23138 N 2205.33 -0.529387 1.48443 0
M  V30 23139 C 2206.56 -1.30801 1.59921 0
M  V30 23140 C 2206.96 -1.87421 0.258825 0
M  V30 23141 O 2206.31 -1.67147 -0.762066 0
M  V30 23142 C 2206.37 -2.49632 2.58697 0
M  V30 23143 C 2206.03 -2.14094 4.03748 0
M  V30 23144 C 2207.03 -1.69732 4.91413 0
M  V30 23145 C 2204.71 -2.24599 4.49289 0
M  V30 23146 C 2206.71 -1.3634 6.22648 0
M  V30 23147 C 2204.4 -1.90819 5.80544 0
M  V30 23148 C 2205.39 -1.46761 6.67046 0
M  V30 23149 O 2205.08 -1.13426 7.95858 0
M  V30 23150 H 2204.81 -0.404011 0.541988 0
M  V30 23151 H 2207.37 -0.645274 1.95001 0
M  V30 23152 H 2205.6 -3.18889 2.1874 0
M  V30 23153 H 2207.29 -3.11693 2.60004 0
M  V30 23154 H 2208.05 -1.61086 4.57467 0
M  V30 23155 H 2203.93 -2.57847 3.82146 0
M  V30 23156 H 2207.48 -1.01879 6.90121 0
M  V30 23157 H 2203.37 -1.99107 6.14025 0
M  V30 23158 H 2204.14 -1.26818 8.08616 0
M  V30 23159 N 2206.8 -1.37041 -0.778305 0
M  V30 23160 C 2208.08 -1.22426 -1.52549 0
M  V30 23161 C 2208.46 0.184927 -2.10288 0
M  V30 23162 O 2207.81 1.19183 -1.94955 0
M  V30 23163 C 2208.02 -2.31509 -2.6116 0
M  V30 23164 C 2209.37 -2.68727 -3.28741 0
M  V30 23165 O 2210.39 -2.30636 -2.71451 0
M  V30 23166 O 2209.25 -3.34328 -4.32304 0
M  V30 23167 H 2206.34 -0.477338 -0.675335 0
M  V30 23168 H 2208.89 -1.48803 -0.815833 0
M  V30 23169 H 2207.66 -3.25905 -2.16568 0
M  V30 23170 H 2207.28 -2.0656 -3.39733 0
M  V30 23171 N 2208.28 1.00373 -1.21503 0
M  V30 23172 C 2209.53 1.73825 -1.03098 0
M  V30 23173 C 2209.85 1.90056 0.436307 0
M  V30 23174 O 2209.12 1.45238 1.31464 0
M  V30 23175 H 2207.7 0.644009 -0.378498 0
M  V30 23176 H 2210.36 1.20947 -1.52833 0
M  V30 23177 H 2209.46 2.73692 -1.49996 0
M  V30 23178 N 2209.76 1.02298 1.19887 0
M  V30 23179 C 2210.69 0.619214 2.2514 0
M  V30 23180 C 2211.67 -0.368886 1.66052 0
M  V30 23181 O 2212.86 -0.252907 1.92546 0
M  V30 23182 C 2209.99 -0.0368173 3.4728 0
M  V30 23183 C 2208.94 0.872939 4.19003 0
M  V30 23184 C 2208.27 0.0823342 5.34637 0
M  V30 23185 C 2209.57 2.18395 4.74448 0
M  V30 23186 H 2211.26 1.49907 2.59168 0
M  V30 23187 H 2208.81 0.722244 1.24578 0
M  V30 23188 H 2210.76 -0.330884 4.20099 0
M  V30 23189 H 2209.48 -0.951435 3.12434 0
M  V30 23190 H 2208.14 1.15111 3.48059 0
M  V30 23191 H 2207.79 -0.834133 4.96036 0
M  V30 23192 H 2207.49 0.688252 5.83555 0
M  V30 23193 H 2209.01 -0.20513 6.10255 0
M  V30 23194 H 2210.43 1.95182 5.39052 0
M  V30 23195 H 2208.82 2.74128 5.33829 0
M  V30 23196 H 2209.89 2.84263 3.92839 0
M  V30 23197 N 2211.24 -1.35782 0.800057 0
M  V30 23198 C 2212.51 -1.93271 0.300914 0
M  V30 23199 C 2212.89 -1.73083 -1.20854 0
M  V30 23200 O 2212.24 -1.09599 -2.005 0
M  V30 23201 C 2212.45 -3.41802 0.70517 0
M  V30 23202 C 2213.8 -4.1894 0.690944 0
M  V30 23203 O 2214.82 -3.50288 0.646305 0
M  V30 23204 O 2213.68 -5.4142 0.743415 0
M  V30 23205 H 2210.78 -0.823391 0.0771749 0
M  V30 23206 H 2213.32 -1.44899 0.883316 0
M  V30 23207 H 2212.1 -3.50198 1.74577 0
M  V30 23208 H 2211.72 -3.97481 0.0972239 0
M  V30 23209 N 2212.72 -0.552988 -1.4758 0
M  V30 23210 C 2213.68 0.186565 -2.28439 0
M  V30 23211 C 2214.68 0.846626 -1.36707 0
M  V30 23212 O 2215.87 0.703136 -1.59379 0
M  V30 23213 C 2213 1.27234 -3.16266 0
M  V30 23214 H 2214.19 -0.523661 -2.95293 0
M  V30 23215 H 2211.75 -0.309772 -1.532 0
M  V30 23216 H 2212.48 2.0151 -2.54095 0
M  V30 23217 H 2212.27 0.8039 -3.83771 0
M  V30 23218 H 2213.76 1.79189 -3.77201 0
M  V30 23219 N 2214.19 1.54923 -0.28923 0
M  V30 23220 C 2215.44 2.00196 0.323963 0
M  V30 23221 C 2215.77 1.17738 1.54439 0
M  V30 23222 O 2215.05 0.250912 1.92875 0
M  V30 23223 C 2215.33 3.53384 0.692214 0
M  V30 23224 C 2215.18 4.46589 -0.536535 0
M  V30 23225 C 2216.5 4.12898 1.52327 0
M  V30 23226 H 2213.62 0.72777 0.116277 0
M  V30 23227 H 2216.26 1.85764 -0.398987 0
M  V30 23228 H 2214.41 3.65813 1.30816 0
M  V30 23229 H 2216.09 4.46083 -1.17507 0
M  V30 23230 H 2214.33 4.17668 -1.17199 0
M  V30 23231 H 2215 5.515 -0.234903 0
M  V30 23232 H 2217.48 4.03832 1.00295 0
M  V30 23233 H 2216.35 5.20265 1.74973 0
M  V30 23234 H 2216.61 3.64022 2.50879 0
M  V30 23235 N 2215.67 0.0167433 1.57591 0
M  V30 23236 C 2216.92 -0.663251 1.90907 0
M  V30 23237 C 2217.24 -1.73375 0.892539 0
M  V30 23238 O 2216.51 -1.95783 -0.0677279 0
M  V30 23239 H 2215.09 -0.247971 0.704641 0
M  V30 23240 H 2217.75 0.0616251 1.94803 0
M  V30 23241 H 2216.85 -1.12387 2.91162 0
M  V30 23242 N 2217.15 -1.55503 -0.256249 0
M  V30 23243 C 2218.4 -1.77159 -0.987048 0
M  V30 23244 C 2218.73 -0.580347 -1.85326 0
M  V30 23245 O 2218 0.421653 -1.89875 0
M  V30 23246 C 2218.29 -3.08616 -1.85548 0
M  V30 23247 C 2218.14 -4.38127 -1.01808 0
M  V30 23248 C 2219.46 -3.36233 -2.83964 0
M  V30 23249 H 2216.58 -0.644533 -0.357417 0
M  V30 23250 H 2219.22 -1.88237 -0.258206 0
M  V30 23251 H 2217.37 -2.99302 -2.4769 0
M  V30 23252 H 2219.04 -4.5942 -0.416078 0
M  V30 23253 H 2217.29 -4.32603 -0.322102 0
M  V30 23254 H 2217.96 -5.26471 -1.6593 0
M  V30 23255 H 2220.43 -3.45449 -2.31958 0
M  V30 23256 H 2219.31 -4.29448 -3.41856 0
M  V30 23257 H 2219.57 -2.56687 -3.5995 0
M  V30 23258 N 2218.63 0.521507 -1.48721 0
M  V30 23259 C 2219.91 1.28278 -1.47662 0
M  V30 23260 C 2220.29 2.10216 -0.192957 0
M  V30 23261 O 2219.63 2.13081 0.825155 0
M  V30 23262 C 2219.84 2.157 -2.74362 0
M  V30 23263 C 2221.19 2.75563 -3.23032 0
M  V30 23264 O 2222.22 2.25982 -2.75337 0
M  V30 23265 O 2221.07 3.65771 -4.06046 0
M  V30 23266 H 2218.17 0.579411 -0.590095 0
M  V30 23267 H 2220.71 0.537464 -1.60964 0
M  V30 23268 H 2219.49 1.54993 -3.59295 0
M  V30 23269 H 2219.11 2.97463 -2.63821 0
M  V30 23270 N 2220.11 1.37452 0.771027 0
M  V30 23271 C 2221.04 1.29149 1.89349 0
M  V30 23272 C 2222.05 0.207152 1.61477 0
M  V30 23273 O 2223.24 0.463354 1.72381 0
M  V30 23274 C 2220.34 0.974252 3.24594 0
M  V30 23275 C 2219.51 2.1642 3.80107 0
M  V30 23276 C 2218.57 1.81712 4.93829 0
M  V30 23277 O 2217.6 2.54015 5.09377 0
M  V30 23278 N 2218.8 0.761674 5.75481 0
M  V30 23279 H 2221.57 2.25867 1.96987 0
M  V30 23280 H 2219.13 1.31086 0.950168 0
M  V30 23281 H 2221.12 0.722898 3.98191 0
M  V30 23282 H 2219.69 0.0956076 3.12454 0
M  V30 23283 H 2218.91 2.57726 2.9828 0
M  V30 23284 H 2220.2 2.95875 4.13927 0
M  V30 23285 H 2219.59 0.161708 5.65469 0
M  V30 23286 H 2218.15 0.570178 6.49301 0
M  V30 23287 N 2221.58 -0.997276 1.22033 0
M  V30 23288 C 2222.52 -2.08844 0.944299 0
M  V30 23289 C 2223.53 -1.62625 -0.0754377 0
M  V30 23290 O 2224.72 -1.77799 0.158026 0
M  V30 23291 C 2221.82 -3.36557 0.397782 0
M  V30 23292 C 2220.99 -4.11826 1.4737 0
M  V30 23293 C 2220.05 -5.17826 0.935042 0
M  V30 23294 O 2219.08 -5.45652 1.62025 0
M  V30 23295 N 2220.28 -5.79979 -0.245793 0
M  V30 23296 H 2223.04 -2.33105 1.88367 0
M  V30 23297 H 2220.6 -1.1627 1.12663 0
M  V30 23298 H 2222.6 -4.04694 0.0228482 0
M  V30 23299 H 2221.17 -3.09393 -0.446592 0
M  V30 23300 H 2220.39 -3.38383 2.02214 0
M  V30 23301 H 2221.67 -4.58887 2.19772 0
M  V30 23302 H 2221.07 -5.59734 -0.819377 0
M  V30 23303 H 2219.63 -6.49371 -0.562158 0
M  V30 23304 N 2223.06 -1.02932 -1.19343 0
M  V30 23305 C 2224.47 -0.755663 -1.70724 0
M  V30 23306 C 2224.82 0.724644 -1.82328 0
M  V30 23307 O 2223.95 1.56482 -1.49474 0
M  V30 23308 C 2224.54 -1.36508 -3.10082 0
M  V30 23309 C 2223.1 -1.14 -3.58721 0
M  V30 23310 C 2222.25 -1.46287 -2.35575 0
M  V30 23311 H 2225.2 -1.19719 -1.04178 0
M  V30 23312 H 2225.22 -0.762283 -3.72786 0
M  V30 23313 H 2224.73 -2.44246 -3.01605 0
M  V30 23314 H 2222.84 -0.0808556 -3.72512 0
M  V30 23315 H 2222.95 -1.82902 -4.42813 0
M  V30 23316 H 2221.31 -0.882212 -2.38933 0
M  V30 23317 H 2222.1 -2.55109 -2.29727 0
M  V30 23318 N 2224.54 1.35356 -0.807246 0
M  V30 23319 C 2225.79 1.98003 -0.384411 0
M  V30 23320 C 2226.1 1.64756 1.05427 0
M  V30 23321 O 2227.31 2.20772 1.58025 0
M  V30 23322 C 2225.76 3.54229 -0.636389 0
M  V30 23323 C 2225.37 3.96385 -2.08766 0
M  V30 23324 C 2227.12 4.23583 -0.278943 0
M  V30 23325 C 2225.02 5.45459 -2.28535 0
M  V30 23326 H 2223.95 0.740889 -0.139999 0
M  V30 23327 H 2226.6 1.54414 -0.991396 0
M  V30 23328 H 2224.99 3.95979 0.040556 0
M  V30 23329 H 2226.16 3.65785 -2.80247 0
M  V30 23330 H 2224.48 3.39922 -2.40503 0
M  V30 23331 H 2227.07 5.33166 -0.404693 0
M  V30 23332 H 2227.42 4.09024 0.77494 0
M  V30 23333 H 2227.95 3.87256 -0.909832 0
M  V30 23334 H 2224.69 5.64986 -3.32371 0
M  V30 23335 H 2224.21 5.77626 -1.61579 0
M  V30 23336 H 2225.89 6.1193 -2.1012 0
M  V30 23337 N 2226.02 0.560807 1.47284 0
M  V30 23338 C 2226.95 -0.232781 2.2701 0
M  V30 23339 C 2227.93 -0.917015 1.34274 0
M  V30 23340 O 2229.11 -0.935286 1.6366 0
M  V30 23341 C 2226.24 -1.332 3.11409 0
M  V30 23342 C 2225.29 -0.755945 4.19747 0
M  V30 23343 S 2226.12 0.400259 5.34002 0
M  V30 23344 C 2227.28 -0.700696 6.21965 0
M  V30 23345 H 2227.51 0.443735 2.9397 0
M  V30 23346 H 2225.04 0.347207 1.50445 0
M  V30 23347 H 2227 -1.9615 3.60604 0
M  V30 23348 H 2225.66 -1.98037 2.43803 0
M  V30 23349 H 2224.85 -1.58152 4.78544 0
M  V30 23350 H 2224.46 -0.202554 3.73451 0
M  V30 23351 H 2226.75 -1.59191 6.58532 0
M  V30 23352 H 2227.69 -0.150002 7.07941 0
M  V30 23353 H 2228.1 -0.994986 5.55662 0
M  V30 23354 N 2227.5 -1.54768 0.297442 0
M  V30 23355 C 2228.44 -2.24834 -0.596011 0
M  V30 23356 C 2229.44 -1.2531 -1.1399 0
M  V30 23357 O 2230.64 -1.43172 -1.09095 0
M  V30 23358 H 2227.02 -0.721849 -0.210802 0
M  V30 23359 H 2228.99 -2.98395 0.0175191 0
M  V30 23360 C 2227.74 -2.99975 -1.75813 0
M  V30 23361 H 2227.06 -3.7636 -1.34883 0
M  V30 23362 H 2228.5 -3.52288 -2.35943 0
M  V30 23363 C 2226.96 -2.06737 -2.6601 0
M  V30 23364 O 2227.49 -1.63308 -3.67006 0
M  V30 23365 N 2225.7 -1.72767 -2.33666 0
M  V30 23366 H 2225.24 -2.0828 -1.51582 0
M  V30 23367 H 2225.2 -1.10657 -2.94283 0
M  V30 23368 N 2228.97 -0.0251005 -1.5758 0
M  V30 23369 C 2229.92 0.967164 -2.0647 0
M  V30 23370 C 2230.91 1.28795 -0.964399 0
M  V30 23371 O 2232.1 1.27473 -1.22799 0
M  V30 23372 C 2229.23 2.25092 -2.59207 0
M  V30 23373 C 2228.32 1.95868 -3.7616 0
M  V30 23374 N 2228.71 1.36897 -4.86922 0
M  V30 23375 C 2227 2.2588 -3.8457 0
M  V30 23376 C 2227.71 1.24714 -5.68174 0
M  V30 23377 N 2226.68 1.74129 -5.14956 0
M  V30 23378 H 2230.48 0.506125 -2.89509 0
M  V30 23379 H 2228 0.180011 -1.61399 0
M  V30 23380 H 2229.99 2.97046 -2.92522 0
M  V30 23381 H 2228.65 2.71826 -1.77597 0
M  V30 23382 H 2229.67 1.0445 -5.07258 0
M  V30 23383 H 2226.34 2.75316 -3.13859 0
M  V30 23384 H 2227.73 0.791488 -6.67222 0
M  V30 23385 N 2230.45 1.55637 0.247999 0
M  V30 23386 C 2231.4 1.91047 1.3268 0
M  V30 23387 C 2232.39 0.789427 1.49881 0
M  V30 23388 O 2233.6 0.974034 1.51369 0
M  V30 23389 H 2229.98 0.606742 0.444261 0
M  V30 23390 H 2231.95 2.81117 1.0008 0
M  V30 23391 C 2230.7 2.22069 2.67546 0
M  V30 23392 H 2230.02 3.0783 2.55109 0
M  V30 23393 H 2231.46 2.50749 3.41908 0
M  V30 23394 C 2229.92 1.03666 3.20554 0
M  V30 23395 O 2230.45 0.284086 4.00694 0
M  V30 23396 N 2228.65 0.827579 2.78567 0
M  V30 23397 H 2228.2 1.44127 2.13507 0
M  V30 23398 H 2228.16 0.0370356 3.14378 0
M  V30 23399 N 2231.93 -0.513613 1.48996 0
M  V30 23400 C 2233.34 -1.09534 1.51192 0
M  V30 23401 C 2233.69 -1.94031 0.29094 0
M  V30 23402 O 2232.82 -2.07903 -0.600453 0
M  V30 23403 C 2233.41 -1.99317 2.73967 0
M  V30 23404 C 2231.97 -2.52677 2.78983 0
M  V30 23405 C 2231.12 -1.30005 2.44937 0
M  V30 23406 H 2234.07 -0.298098 1.55875 0
M  V30 23407 H 2234.09 -2.83834 2.53414 0
M  V30 23408 H 2233.6 -1.37792 3.62815 0
M  V30 23409 H 2231.7 -3.17877 1.94383 0
M  V30 23410 H 2231.82 -2.90692 3.80835 0
M  V30 23411 H 2230.18 -1.62118 1.96443 0
M  V30 23412 H 2230.96 -0.702072 3.36044 0
M  V30 23413 N 2233.41 -1.37859 -0.763727 0
M  V30 23414 C 2234.66 -1.34713 -1.52394 0
M  V30 23415 C 2235.01 0.0656097 -1.92288 0
M  V30 23416 O 2234.3 1.02603 -1.61812 0
M  V30 23417 C 2234.5 -2.2275 -2.79495 0
M  V30 23418 C 2234.33 -3.72443 -2.52025 0
M  V30 23419 C 2233.1 -4.41514 -2.45751 0
M  V30 23420 C 2235.29 -4.65116 -2.19481 0
M  V30 23421 N 2233.28 -5.76701 -2.10449 0
M  V30 23422 C 2234.65 -5.88739 -1.94386 0
M  V30 23423 C 2236.7 -4.5342 -2.05704 0
M  V30 23424 C 2235.41 -7.01978 -1.56905 0
M  V30 23425 C 2237.43 -5.66552 -1.69624 0
M  V30 23426 C 2236.79 -6.89231 -1.45395 0
M  V30 23427 H 2232.89 -0.548234 -0.557641 0
M  V30 23428 H 2235.48 -1.73154 -0.890271 0
M  V30 23429 H 2233.65 -1.86513 -3.40687 0
M  V30 23430 H 2235.38 -2.10804 -3.45462 0
M  V30 23431 H 2232.13 -3.9461 -2.61878 0
M  V30 23432 H 2232.56 -6.48166 -1.95473 0
M  V30 23433 H 2237.2 -3.59136 -2.23116 0
M  V30 23434 H 2234.92 -7.96189 -1.38232 0
M  V30 23435 H 2238.5 -5.59478 -1.59611 0
M  V30 23436 H 2237.38 -7.75288 -1.1789 0
M  V30 23437 N 2234.89 0.990791 -1.22561 0
M  V30 23438 C 2235.82 2.07904 -0.94081 0
M  V30 23439 C 2236.8 1.62178 0.117054 0
M  V30 23440 O 2237.98 1.88494 -0.0149837 0
M  V30 23441 C 2235.11 3.36143 -0.41538 0
M  V30 23442 C 2234.16 4.00796 -1.45825 0
M  V30 23443 S 2234.99 4.41377 -3.03227 0
M  V30 23444 C 2236.14 5.72784 -2.52327 0
M  V30 23445 H 2236.38 2.31742 -1.86234 0
M  V30 23446 H 2233.91 1.12556 -1.0569 0
M  V30 23447 H 2235.87 4.10328 -0.118819 0
M  V30 23448 H 2234.53 3.10332 0.485066 0
M  V30 23449 H 2233.72 4.93142 -1.04053 0
M  V30 23450 H 2233.32 3.32946 -1.70362 0
M  V30 23451 H 2235.62 6.4922 -1.937 0
M  V30 23452 H 2236.56 6.19386 -3.43172 0
M  V30 23453 H 2236.97 5.30286 -1.93539 0
M  V30 23454 N 2236.37 1.03564 1.18795 0
M  V30 23455 C 2237.3 0.643058 2.24471 0
M  V30 23456 C 2238.28 -0.351253 1.66434 0
M  V30 23457 O 2239.46 -0.232471 1.92804 0
M  V30 23458 C 2236.59 1.85533e-05 3.473 0
M  V30 23459 C 2235.55 0.91733 4.18054 0
M  V30 23460 C 2234.87 0.139035 5.34519 0
M  V30 23461 C 2236.17 2.23415 4.72105 0
M  V30 23462 H 2237.87 1.52648 2.57564 0
M  V30 23463 H 2235.41 0.735416 1.23805 0
M  V30 23464 H 2237.36 -0.286309 4.20426 0
M  V30 23465 H 2236.09 -0.918243 3.13426 0
M  V30 23466 H 2234.75 1.18796 3.46818 0
M  V30 23467 H 2234.4 -0.781475 4.96892 0
M  V30 23468 H 2234.1 0.750107 5.82793 0
M  V30 23469 H 2235.62 -0.140393 6.10439 0
M  V30 23470 H 2237.03 2.00888 5.36951 0
M  V30 23471 H 2235.43 2.79774 5.30892 0
M  V30 23472 H 2236.5 2.88414 3.89802 0
M  V30 23473 N 2237.84 -1.34926 0.814413 0
M  V30 23474 C 2238.77 -2.32213 0.244868 0
M  V30 23475 C 2239.75 -1.57843 -0.633996 0
M  V30 23476 O 2240.94 -1.85871 -0.562644 0
M  V30 23477 C 2238.07 -3.4206 -0.601046 0
M  V30 23478 C 2237.02 -4.27621 0.179971 0
M  V30 23479 C 2236.35 -5.2886 -0.788144 0
M  V30 23480 C 2237.65 -5.03647 1.38338 0
M  V30 23481 H 2239.34 -2.80095 1.05768 0
M  V30 23482 H 2236.89 -1.34664 0.510052 0
M  V30 23483 H 2238.84 -4.09127 -1.00961 0
M  V30 23484 H 2237.57 -2.92805 -1.44683 0
M  V30 23485 H 2236.23 -3.62145 0.569803 0
M  V30 23486 H 2235.87 -4.75869 -1.62964 0
M  V30 23487 H 2235.57 -5.8698 -0.269839 0
M  V30 23488 H 2237.1 -5.98797 -1.19475 0
M  V30 23489 H 2238.51 -5.63616 1.04928 0
M  V30 23490 H 2236.91 -5.71301 1.83672 0
M  V30 23491 H 2237.98 -4.33835 2.166 0
M  V30 23492 N 2239.32 -0.56861 -1.46985 0
M  V30 23493 C 2240.55 -0.0539536 -2.0653 0
M  V30 23494 C 2240.96 1.25023 -1.42007 0
M  V30 23495 O 2240.3 1.76346 -0.514572 0
M  V30 23496 C 2240.36 0.200791 -3.58939 0
M  V30 23497 C 2240.03 -1.01567 -4.45571 0
M  V30 23498 C 2241.03 -1.92416 -4.82983 0
M  V30 23499 C 2238.71 -1.23355 -4.86918 0
M  V30 23500 C 2240.7 -3.03412 -5.60553 0
M  V30 23501 C 2238.39 -2.34659 -5.6425 0
M  V30 23502 C 2239.39 -3.24518 -6.0098 0
M  V30 23503 O 2239.08 -4.3389 -6.76753 0
M  V30 23504 H 2238.81 -0.0480352 -0.674291 0
M  V30 23505 H 2241.36 -0.784929 -1.8981 0
M  V30 23506 H 2239.59 0.986213 -3.73913 0
M  V30 23507 H 2241.28 0.662223 -4.00461 0
M  V30 23508 H 2242.05 -1.76793 -4.5163 0
M  V30 23509 H 2237.93 -0.543259 -4.57788 0
M  V30 23510 H 2241.47 -3.73576 -5.89141 0
M  V30 23511 H 2237.37 -2.5025 -5.95017 0
M  V30 23512 H 2238.14 -4.32081 -6.95161 0
M  V30 23513 N 2240.8 1.54608 -0.305646 0
M  V30 23514 C 2242.05 2.00231 0.302263 0
M  V30 23515 C 2242.37 1.194 1.53538 0
M  V30 23516 O 2241.63 0.259457 1.93972 0
M  V30 23517 C 2241.93 3.50499 0.698922 0
M  V30 23518 C 2241.59 4.48816 -0.432982 0
M  V30 23519 C 2240.26 4.75418 -0.743706 0
M  V30 23520 C 2242.61 5.07335 -1.19418 0
M  V30 23521 C 2239.94 5.57801 -1.81867 0
M  V30 23522 C 2242.29 5.90887 -2.25909 0
M  V30 23523 C 2240.95 6.15798 -2.57583 0
M  V30 23524 H 2240.22 0.732699 0.110606 0
M  V30 23525 H 2242.87 1.86708 -0.425707 0
M  V30 23526 H 2241.17 3.61656 1.50705 0
M  V30 23527 H 2242.87 3.83229 1.18054 0
M  V30 23528 H 2239.46 4.28219 -0.180706 0
M  V30 23529 H 2243.65 4.86781 -0.96738 0
M  V30 23530 H 2238.9 5.75337 -2.06874 0
M  V30 23531 H 2243.08 6.35256 -2.85346 0
M  V30 23532 H 2240.7 6.79424 -3.41009 0
M  V30 23533 N 2242.28 0.033457 1.57564 0
M  V30 23534 C 2243.53 -0.643605 1.91156 0
M  V30 23535 C 2243.84 -1.7304 0.91195 0
M  V30 23536 O 2245.05 -2.4644 1.13927 0
M  V30 23537 C 2243.5 -1.19604 3.39445 0
M  V30 23538 C 2243.11 -0.142303 4.47774 0
M  V30 23539 C 2244.85 -1.84937 3.82098 0
M  V30 23540 C 2242.76 -0.706624 5.87163 0
M  V30 23541 H 2241.69 -0.244164 0.713372 0
M  V30 23542 H 2244.34 0.0994645 1.8323 0
M  V30 23543 H 2242.72 -1.99086 3.42317 0
M  V30 23544 H 2243.9 0.630376 4.56468 0
M  V30 23545 H 2242.21 0.412519 4.14352 0
M  V30 23546 H 2244.81 -2.28122 4.83595 0
M  V30 23547 H 2245.15 -2.69386 3.17391 0
M  V30 23548 H 2245.69 -1.12138 3.81667 0
M  V30 23549 H 2242.42 0.099833 6.55424 0
M  V30 23550 H 2241.94 -1.44769 5.82067 0
M  V30 23551 H 2243.62 -1.19503 6.35868 0
M  V30 23552 N 2243.76 -1.55766 -0.239741 0
M  V30 23553 C 2244.98 -1.82336 -0.988341 0
M  V30 23554 C 2245.41 -0.611452 -1.77884 0
M  V30 23555 O 2244.76 0.439608 -1.7589 0
M  V30 23556 C 2244.81 -3.06718 -1.89621 0
M  V30 23557 O 2243.92 -2.84136 -2.98899 0
M  V30 23558 H 2243.26 -0.601681 -0.280848 0
M  V30 23559 H 2245.79 -2.0296 -0.258562 0
M  V30 23560 H 2245.8 -3.36342 -2.30951 0
M  V30 23561 H 2244.47 -3.94562 -1.31504 0
M  V30 23562 H 2243.05 -2.65699 -2.61646 0
M  V30 23563 N 2245.23 0.505704 -1.49266 0
M  V30 23564 C 2246.48 1.26012 -1.58515 0
M  V30 23565 C 2246.81 1.9262 -0.269754 0
M  V30 23566 O 2246.06 1.81089 0.741965 0
M  V30 23567 C 2246.36 2.35303 -2.69012 0
M  V30 23568 C 2246.03 1.86185 -4.10665 0
M  V30 23569 C 2244.69 1.72508 -4.49215 0
M  V30 23570 C 2247.04 1.49366 -4.99339 0
M  V30 23571 C 2244.37 1.20384 -5.74216 0
M  V30 23572 C 2246.72 0.986962 -6.24853 0
M  V30 23573 C 2245.39 0.836553 -6.62237 0
M  V30 23574 H 2244.66 0.461112 -0.580049 0
M  V30 23575 H 2247.3 0.561633 -1.83079 0
M  V30 23576 H 2245.61 3.10921 -2.38401 0
M  V30 23577 H 2247.31 2.93369 -2.73378 0
M  V30 23578 H 2243.9 1.97788 -3.80234 0
M  V30 23579 H 2248.08 1.58782 -4.70215 0
M  V30 23580 H 2243.34 1.07447 -6.01885 0
M  V30 23581 H 2247.51 0.692861 -6.92945 0
M  V30 23582 H 2245.14 0.430474 -7.5898 0
M  V30 23583 N 2246.71 1.38262 0.756405 0
M  V30 23584 C 2247.64 1.37979 1.88372 0
M  V30 23585 C 2248.62 0.246111 1.6831 0
M  V30 23586 O 2249.81 0.448773 1.88944 0
M  V30 23587 C 2246.94 1.2013 3.25862 0
M  V30 23588 C 2245.89 2.30673 3.60519 0
M  V30 23589 C 2245.22 1.97932 4.96716 0
M  V30 23590 C 2246.52 3.72923 3.65686 0
M  V30 23591 H 2248.21 2.32315 1.88865 0
M  V30 23592 H 2245.76 1.11825 0.907253 0
M  V30 23593 H 2247.71 1.18559 4.04378 0
M  V30 23594 H 2246.44 0.222555 3.25841 0
M  V30 23595 H 2245.09 2.31425 2.8432 0
M  V30 23596 H 2244.74 0.98548 4.93252 0
M  V30 23597 H 2244.44 2.71965 5.20873 0
M  V30 23598 H 2245.97 1.97974 5.77615 0
M  V30 23599 H 2247.38 3.74216 4.34322 0
M  V30 23600 H 2245.78 4.46137 4.0135 0
M  V30 23601 H 2246.85 4.05441 2.6598 0
M  V30 23602 N 2248.19 -0.984277 1.23084 0
M  V30 23603 C 2249.12 -2.09409 1.03296 0
M  V30 23604 C 2250.1 -1.7003 -0.0488931 0
M  V30 23605 O 2251.29 -1.93859 0.115001 0
M  V30 23606 C 2248.42 -3.41735 0.619215 0
M  V30 23607 C 2247.37 -3.95001 1.64798 0
M  V30 23608 C 2246.7 -5.23476 1.08979 0
M  V30 23609 C 2248 -4.24708 3.04007 0
M  V30 23610 H 2249.69 -2.26222 1.96123 0
M  V30 23611 H 2247.24 -1.0871 0.944363 0
M  V30 23612 H 2249.19 -4.18795 0.467851 0
M  V30 23613 H 2247.91 -3.24776 -0.344729 0
M  V30 23614 H 2246.57 -3.20082 1.78726 0
M  V30 23615 H 2246.22 -5.02864 0.116948 0
M  V30 23616 H 2245.92 -5.60082 1.77714 0
M  V30 23617 H 2247.44 -6.03161 0.950199 0
M  V30 23618 H 2248.86 -4.92532 2.93402 0
M  V30 23619 H 2247.26 -4.72506 3.69944 0
M  V30 23620 H 2248.33 -3.32135 3.5329 0
M  V30 23621 N 2249.67 -1.04192 -1.18244 0
M  V30 23622 C 2250.92 -0.741227 -1.87587 0
M  V30 23623 C 2251.23 0.734034 -1.81304 0
M  V30 23624 O 2252.44 1.14829 -2.46021 0
M  V30 23625 C 2250.89 -1.27561 -3.36536 0
M  V30 23626 C 2250.5 -2.77959 -3.51344 0
M  V30 23627 C 2252.24 -1.0515 -4.11271 0
M  V30 23628 C 2250.15 -3.24748 -4.94259 0
M  V30 23629 H 2249.08 -0.273578 -0.702617 0
M  V30 23630 H 2251.73 -1.25792 -1.33599 0
M  V30 23631 H 2250.11 -0.686772 -3.89999 0
M  V30 23632 H 2251.29 -3.42611 -3.08147 0
M  V30 23633 H 2249.6 -2.98797 -2.90016 0
M  V30 23634 H 2252.2 -1.3762 -5.16686 0
M  V30 23635 H 2252.54 0.0112042 -4.16298 0
M  V30 23636 H 2253.08 -1.60501 -3.63984 0
M  V30 23637 H 2249.82 -4.30405 -4.94401 0
M  V30 23638 H 2249.34 -2.64833 -5.38167 0
M  V30 23639 H 2251.01 -3.18844 -5.62981 0
M  V30 23640 N 2251.15 1.34492 -0.821557 0
M  V30 23641 C 2252.39 1.98621 -0.409587 0
M  V30 23642 C 2252.73 1.64986 1.02437 0
M  V30 23643 O 2252 0.920788 1.71324 0
M  V30 23644 C 2252.28 3.54887 -0.610521 0
M  V30 23645 C 2252.14 3.98269 -2.0905 0
M  V30 23646 C 2253.46 4.40076 -0.0456153 0
M  V30 23647 H 2250.57 0.721513 -0.150292 0
M  V30 23648 H 2253.22 1.59409 -1.03387 0
M  V30 23649 H 2251.37 3.88419 -0.0791123 0
M  V30 23650 H 2253.04 3.75076 -2.68544 0
M  V30 23651 H 2251.28 3.48631 -2.58146 0
M  V30 23652 H 2251.95 5.07047 -2.18191 0
M  V30 23653 H 2254.43 4.13089 -0.49963 0
M  V30 23654 H 2253.3 5.48475 -0.216018 0
M  V30 23655 H 2253.57 4.29467 1.04932 0
M  V30 23656 N 2252.62 0.576397 1.46681 0
M  V30 23657 C 2253.59 -0.150199 2.28707 0
M  V30 23658 C 2254.59 -0.82477 1.38037 0
M  V30 23659 O 2255.78 -0.677691 1.60477 0
M  V30 23660 C 2252.91 -1.22187 3.1825 0
M  V30 23661 H 2254.1 0.570573 2.94422 0
M  V30 23662 H 2251.66 0.334105 1.52687 0
M  V30 23663 H 2252.39 -1.97442 2.57269 0
M  V30 23664 H 2252.18 -0.742744 3.85001 0
M  V30 23665 H 2253.67 -1.73166 3.80004 0
M  V30 23666 N 2254.1 -1.54444 0.313841 0
M  V30 23667 C 2255.35 -2.00389 -0.29164 0
M  V30 23668 C 2255.68 -1.20213 -1.52902 0
M  V30 23669 O 2254.93 -0.269741 -1.93832 0
M  V30 23670 C 2255.23 -3.50865 -0.680324 0
M  V30 23671 C 2254.9 -4.4858 0.456778 0
M  V30 23672 C 2253.56 -4.75017 0.768908 0
M  V30 23673 C 2255.91 -5.06695 1.22107 0
M  V30 23674 C 2253.24 -5.56828 1.84822 0
M  V30 23675 C 2255.59 -5.89681 2.2904 0
M  V30 23676 C 2254.26 -6.14423 2.60845 0
M  V30 23677 H 2253.53 -0.733275 -0.106719 0
M  V30 23678 H 2256.17 -1.8648 0.435603 0
M  V30 23679 H 2254.48 -3.6245 -1.48785 0
M  V30 23680 H 2256.17 -3.8385 -1.1602 0
M  V30 23681 H 2252.76 -4.28117 0.203413 0
M  V30 23682 H 2256.95 -4.86261 0.993182 0
M  V30 23683 H 2252.2 -5.74232 2.09922 0
M  V30 23684 H 2256.38 -6.33734 2.88711 0
M  V30 23685 H 2254.01 -6.77606 3.44608 0
M  V30 23686 N 2255.58 -0.0418125 -1.57545 0
M  V30 23687 C 2256.83 0.634048 -1.92318 0
M  V30 23688 C 2257.16 1.714 -0.919364 0
M  V30 23689 O 2256.41 1.95576 0.0697909 0
M  V30 23690 C 2256.71 1.27729 -3.33796 0
M  V30 23691 C 2256.38 0.326464 -4.49717 0
M  V30 23692 C 2255.04 0.0647968 -4.81156 0
M  V30 23693 C 2257.39 -0.325714 -5.20181 0
M  V30 23694 C 2254.72 -0.856641 -5.80412 0
M  V30 23695 C 2257.07 -1.23529 -6.20422 0
M  V30 23696 C 2255.73 -1.50572 -6.50296 0
M  V30 23697 H 2255 0.232015 -0.70374 0
M  V30 23698 H 2257.65 -0.106293 -1.91205 0
M  V30 23699 H 2255.96 2.09268 -3.31231 0
M  V30 23700 H 2257.65 1.80701 -3.57978 0
M  V30 23701 H 2254.24 0.54059 -4.25177 0
M  V30 23702 H 2258.43 -0.136634 -4.96112 0
M  V30 23703 H 2253.68 -1.07373 -6.01898 0
M  V30 23704 H 2257.86 -1.74676 -6.74138 0
M  V30 23705 H 2255.48 -2.22136 -7.27021 0
M  V30 23706 N 2257.06 1.55891 0.231477 0
M  V30 23707 C 2258.3 1.78707 0.958738 0
M  V30 23708 C 2258.64 0.609757 1.84379 0
M  V30 23709 O 2257.91 -0.391392 1.90521 0
M  V30 23710 C 2258.2 3.11529 1.80614 0
M  V30 23711 C 2258.05 4.39691 0.948251 0
M  V30 23712 C 2259.37 3.40708 2.78579 0
M  V30 23713 H 2256.49 0.650137 0.347118 0
M  V30 23714 H 2259.13 1.88624 0.228226 0
M  V30 23715 H 2257.28 3.03205 2.42897 0
M  V30 23716 H 2258.95 4.60024 0.342936 0
M  V30 23717 H 2257.19 4.3306 0.253237 0
M  V30 23718 H 2257.86 5.29044 1.57533 0
M  V30 23719 H 2260.34 3.49095 2.26433 0
M  V30 23720 H 2259.22 4.34832 3.34981 0
M  V30 23721 H 2259.48 2.62381 3.55821 0
M  V30 23722 N 2258.54 -0.497781 1.49532 0
M  V30 23723 C 2259.47 -1.60754 1.69353 0
M  V30 23724 C 2260.45 -1.61226 0.542246 0
M  V30 23725 O 2261.63 -1.77915 0.778448 0
M  V30 23726 C 2258.76 -2.99223 1.76303 0
M  V30 23727 C 2257.72 -3.13617 2.91253 0
M  V30 23728 C 2257.04 -4.53469 2.8332 0
M  V30 23729 C 2258.34 -2.93339 4.32145 0
M  V30 23730 H 2260.04 -1.4442 2.62265 0
M  V30 23731 H 2257.58 -0.693345 1.26209 0
M  V30 23732 H 2259.54 -3.76762 1.88756 0
M  V30 23733 H 2258.26 -3.16652 0.799927 0
M  V30 23734 H 2256.92 -2.38504 2.78409 0
M  V30 23735 H 2256.57 -4.67779 1.8491 0
M  V30 23736 H 2256.27 -4.6404 3.60473 0
M  V30 23737 H 2257.79 -5.33064 2.97784 0
M  V30 23738 H 2259.2 -3.60645 4.45655 0
M  V30 23739 H 2257.6 -3.15378 5.10545 0
M  V30 23740 H 2258.67 -1.89433 4.46367 0
M  V30 23741 N 2260.01 -1.38661 -0.749062 0
M  V30 23742 C 2260.96 -1.36376 -1.88426 0
M  V30 23743 C 2261.96 -0.248959 -1.67561 0
M  V30 23744 O 2263.16 -0.418241 -1.75074 0
M  V30 23745 H 2259.54 -0.425541 -0.620015 0
M  V30 23746 H 2261.51 -2.3216 -1.87469 0
M  V30 23747 C 2260.26 -1.2102 -3.25959 0
M  V30 23748 H 2259.58 -2.06065 -3.42603 0
M  V30 23749 H 2261.02 -1.23476 -4.05623 0
M  V30 23750 C 2259.48 0.0825349 -3.36799 0
M  V30 23751 O 2260.01 1.05791 -3.87519 0
M  V30 23752 N 2258.22 0.140888 -2.90258 0
M  V30 23753 H 2257.76 -0.653521 -2.49172 0
M  V30 23754 H 2257.72 1.0054 -2.97891 0
M  V30 23755 N 2261.49 0.977736 -1.23605 0
M  V30 23756 C 2262.43 2.06894 -0.962808 0
M  V30 23757 C 2263.4 1.62293 0.0998458 0
M  V30 23758 O 2264.59 1.88468 -0.0349752 0
M  V30 23759 C 2261.72 3.35684 -0.451009 0
M  V30 23760 C 2260.76 3.99227 -1.50068 0
M  V30 23761 S 2261.59 4.38136 -3.07891 0
M  V30 23762 C 2262.75 5.70076 -2.58388 0
M  V30 23763 H 2262.98 2.29753 -1.88681 0
M  V30 23764 H 2260.52 1.11429 -1.06878 0
M  V30 23765 H 2262.47 4.10179 -0.162333 0
M  V30 23766 H 2261.14 3.10829 0.452124 0
M  V30 23767 H 2260.33 4.92011 -1.09277 0
M  V30 23768 H 2259.93 3.3112 -1.73884 0
M  V30 23769 H 2262.22 6.47129 -2.00574 0
M  V30 23770 H 2263.17 6.15711 -3.49722 0
M  V30 23771 H 2263.57 5.28203 -1.99152 0
M  V30 23772 N 2262.97 1.04818 1.1769 0
M  V30 23773 C 2264.22 0.756023 1.87858 0
M  V30 23774 C 2264.55 -0.71672 1.80813 0
M  V30 23775 O 2263.8 -1.5395 1.20821 0
M  V30 23776 C 2264.1 1.17709 3.3746 0
M  V30 23777 C 2263.77 2.65139 3.64708 0
M  V30 23778 C 2262.43 3.05415 3.71854 0
M  V30 23779 C 2264.78 3.60428 3.76485 0
M  V30 23780 C 2262.11 4.3985 3.88264 0
M  V30 23781 C 2264.46 4.94592 3.94413 0
M  V30 23782 C 2263.12 5.34527 3.99797 0
M  V30 23783 H 2262.39 0.276648 0.68742 0
M  V30 23784 H 2265.04 1.31457 1.39252 0
M  V30 23785 H 2263.35 0.537463 3.88096 0
M  V30 23786 H 2265.04 0.928286 3.90107 0
M  V30 23787 H 2261.63 2.32948 3.59768 0
M  V30 23788 H 2265.82 3.30454 3.70289 0
M  V30 23789 H 2261.07 4.70298 3.90678 0
M  V30 23790 H 2265.25 5.68325 4.02467 0
M  V30 23791 H 2262.87 6.38704 4.12264 0
M  V30 23792 N 2264.45 -1.34055 0.828678 0
M  V30 23793 C 2265.7 -1.98401 0.420115 0
M  V30 23794 C 2266.03 -1.65527 -1.01561 0
M  V30 23795 O 2265.3 -0.929861 -1.70833 0
M  V30 23796 C 2265.59 -3.54558 0.629333 0
M  V30 23797 C 2265.44 -3.97155 2.11159 0
M  V30 23798 C 2266.76 -4.40046 0.0689529 0
M  V30 23799 H 2263.88 -0.720706 0.154117 0
M  V30 23800 H 2266.52 -1.58858 1.04231 0
M  V30 23801 H 2264.67 -3.88372 0.09971 0
M  V30 23802 H 2266.34 -3.73647 2.70529 0
M  V30 23803 H 2264.58 -3.47257 2.59991 0
M  V30 23804 H 2265.26 -5.05883 2.20877 0
M  V30 23805 H 2267.73 -4.12819 0.52153 0
M  V30 23806 H 2266.61 -5.48352 0.245102 0
M  V30 23807 H 2266.87 -4.30017 -1.02653 0
M  V30 23808 N 2265.93 -0.584167 -1.46374 0
M  V30 23809 C 2267.18 -0.0701642 -2.01978 0
M  V30 23810 C 2267.5 1.29497 -1.45792 0
M  V30 23811 O 2266.77 1.85041 -0.643172 0
M  V30 23812 H 2265.35 -0.0229476 -0.746647 0
M  V30 23813 H 2268.01 -0.760277 -1.7946 0
M  V30 23814 H 2267.1 -0.00226126 -3.121 0
M  V30 23815 N 2267.41 1.54275 -0.322027 0
M  V30 23816 C 2268.65 2.00838 0.281425 0
M  V30 23817 C 2268.98 1.20987 1.51907 0
M  V30 23818 O 2268.26 0.291767 1.92299 0
M  V30 23819 C 2268.54 3.54773 0.6171 0
M  V30 23820 C 2268.4 4.4535 -0.631143 0
M  V30 23821 C 2269.71 4.16036 1.43535 0
M  V30 23822 H 2266.83 0.730072 0.100813 0
M  V30 23823 H 2269.48 1.84875 -0.4383 0
M  V30 23824 H 2267.63 3.68506 1.23027 0
M  V30 23825 H 2269.3 4.4349 -1.26942 0
M  V30 23826 H 2267.54 4.15088 -1.26032 0
M  V30 23827 H 2268.21 5.50878 -0.351832 0
M  V30 23828 H 2270.69 4.05868 0.917063 0
M  V30 23829 H 2269.56 5.23859 1.63898 0
M  V30 23830 H 2269.82 3.69262 2.43101 0
M  V30 23831 N 2268.88 0.0501669 1.5752 0
M  V30 23832 C 2270.13 -0.624764 1.92937 0
M  V30 23833 C 2270.46 -1.70554 0.928715 0
M  V30 23834 O 2269.74 -1.94447 -0.0454437 0
M  V30 23835 C 2270.02 -1.22179 3.38739 0
M  V30 23836 C 2269.87 -0.149139 4.49553 0
M  V30 23837 C 2271.19 -2.13371 3.84916 0
M  V30 23838 H 2268.31 -0.225644 0.701608 0
M  V30 23839 H 2270.95 0.111726 1.89671 0
M  V30 23840 H 2269.1 -1.84947 3.41653 0
M  V30 23841 H 2270.78 0.482729 4.58767 0
M  V30 23842 H 2269.02 0.522917 4.30637 0
M  V30 23843 H 2269.69 -0.60687 5.48654 0
M  V30 23844 H 2272.17 -1.60565 3.83872 0
M  V30 23845 H 2271.04 -2.52088 4.87589 0
M  V30 23846 H 2271.3 -3.0334 3.21616 0
M  V30 23847 N 2270.36 -1.56011 -0.223207 0
M  V30 23848 C 2271.61 -1.79213 -0.949248 0
M  V30 23849 C 2271.94 -0.619527 -1.84053 0
M  V30 23850 O 2271.22 0.381283 -1.90726 0
M  V30 23851 C 2271.5 -3.12483 -1.7896 0
M  V30 23852 C 2271.35 -4.40188 -0.92492 0
M  V30 23853 C 2272.67 -3.4218 -2.76768 0
M  V30 23854 H 2269.79 -0.651969 -0.343665 0
M  V30 23855 H 2272.43 -1.88743 -0.21822 0
M  V30 23856 H 2270.58 -3.04489 -2.41285 0
M  V30 23857 H 2272.25 -4.60199 -0.318535 0
M  V30 23858 H 2270.5 -4.33188 -0.230268 0
M  V30 23859 H 2271.17 -5.29872 -1.54726 0
M  V30 23860 H 2273.64 -3.50291 -2.24578 0
M  V30 23861 H 2272.52 -4.36603 -3.3267 0
M  V30 23862 H 2272.78 -2.64265 -3.54424 0
M  V30 23863 N 2271.84 0.489844 -1.49794 0
M  V30 23864 C 2272.75 1.6163 -1.70038 0
M  V30 23865 C 2273.77 1.63938 -0.583131 0
M  V30 23866 O 2274.94 1.82153 -0.859201 0
M  V30 23867 C 2272.01 2.97946 -1.77282 0
M  V30 23868 C 2271.07 3.06176 -3.00923 0
M  V30 23869 C 2270.3 4.3599 -3.07812 0
M  V30 23870 O 2270.52 5.2543 -2.21991 0
M  V30 23871 O 2269.46 4.49424 -4.00377 0
M  V30 23872 H 2273.28 1.47477 -2.65489 0
M  V30 23873 H 2270.87 0.667339 -1.33667 0
M  V30 23874 H 2272.75 3.78944 -1.84336 0
M  V30 23875 H 2271.43 3.12337 -0.850131 0
M  V30 23876 H 2270.33 2.24325 -2.99381 0
M  V30 23877 H 2271.67 2.96716 -3.92709 0
M  V30 23878 N 2273.32 1.39056 0.741698 0
M  V30 23879 C 2274.27 1.37374 1.877 0
M  V30 23880 C 2275.26 0.257841 1.67426 0
M  V30 23881 O 2276.47 0.427519 1.74849 0
M  V30 23882 H 2272.84 0.428823 0.61775 0
M  V30 23883 H 2274.81 2.3315 1.86235 0
M  V30 23884 C 2273.56 1.22747 3.25313 0
M  V30 23885 H 2272.88 2.07879 3.41506 0
M  V30 23886 H 2274.32 1.25626 4.04962 0
M  V30 23887 C 2272.78 -0.0646724 3.36838 0
M  V30 23888 O 2273.31 -1.03734 3.88075 0
M  V30 23889 N 2271.52 -0.125493 2.90329 0
M  V30 23890 H 2271.07 0.666726 2.48822 0
M  V30 23891 H 2271.02 -0.989587 2.9842 0
M  V30 23892 N 2274.8 -0.971167 1.24121 0
M  V30 23893 C 2276.04 -1.71369 1.07884 0
M  V30 23894 C 2276.37 -1.90694 -0.382868 0
M  V30 23895 O 2275.63 -1.46333 -1.29943 0
M  V30 23896 C 2275.92 -3.11067 1.75988 0
M  V30 23897 C 2275.59 -3.11593 3.25915 0
M  V30 23898 C 2274.25 -3.11444 3.66819 0
M  V30 23899 C 2276.6 -3.06193 4.21776 0
M  V30 23900 C 2273.93 -3.03623 5.02026 0
M  V30 23901 C 2276.28 -2.99913 5.56987 0
M  V30 23902 C 2274.95 -2.98091 5.97242 0
M  V30 23903 H 2274.22 -0.627083 0.394775 0
M  V30 23904 H 2276.87 -1.13584 1.54178 0
M  V30 23905 H 2275.17 -3.72296 1.22078 0
M  V30 23906 H 2276.87 -3.67307 1.60893 0
M  V30 23907 H 2273.46 -3.12472 2.93358 0
M  V30 23908 H 2277.64 -3.0544 3.91178 0
M  V30 23909 H 2272.9 -3.0057 5.32417 0
M  V30 23910 H 2277.07 -2.94693 6.30975 0
M  V30 23911 H 2274.7 -2.91786 7.01972 0
M  V30 23912 N 2276.27 -1.05441 -1.17133 0
M  V30 23913 C 2277.22 -0.627713 -2.19189 0
M  V30 23914 C 2278.21 0.337119 -1.57329 0
M  V30 23915 O 2279.4 0.153945 -1.76329 0
M  V30 23916 C 2276.53 -0.00657469 -3.43299 0
M  V30 23917 C 2275.62 -0.995384 -4.12253 0
M  V30 23918 N 2276.01 -2.16773 -4.56993 0
M  V30 23919 C 2274.3 -0.824413 -4.38314 0
M  V30 23920 C 2275.01 -2.79349 -5.10234 0
M  V30 23921 N 2273.98 -2.0713 -5.02591 0
M  V30 23922 H 2277.78 -1.5209 -2.51487 0
M  V30 23923 H 2275.3 -0.924892 -1.3349 0
M  V30 23924 H 2277.29 0.316892 -4.15694 0
M  V30 23925 H 2275.95 0.881978 -3.12492 0
M  V30 23926 H 2276.97 -2.54595 -4.51001 0
M  V30 23927 H 2273.64 0.0128792 -4.17498 0
M  V30 23928 H 2275.03 -3.78781 -5.54954 0
M  V30 23929 N 2277.75 1.33613 -0.835776 0
M  V30 23930 C 2278.7 2.29276 -0.26477 0
M  V30 23931 C 2279.67 1.54188 0.617685 0
M  V30 23932 O 2280.85 1.82501 0.556609 0
M  V30 23933 C 2277.99 3.4058 0.556717 0
M  V30 23934 C 2277.11 4.30585 -0.349415 0
M  V30 23935 C 2276.24 5.29001 0.482876 0
M  V30 23936 C 2275.28 6.10645 -0.42184 0
M  V30 23937 N 2274.42 7.01113 0.372139 0
M  V30 23938 H 2279.26 2.77512 -1.08586 0
M  V30 23939 H 2276.8 1.36553 -0.546951 0
M  V30 23940 H 2278.75 4.03811 1.04845 0
M  V30 23941 H 2277.38 2.93545 1.34281 0
M  V30 23942 H 2276.44 3.68102 -0.959437 0
M  V30 23943 H 2277.75 4.87741 -1.04454 0
M  V30 23944 H 2276.9 5.97745 1.03856 0
M  V30 23945 H 2275.64 4.72414 1.21145 0
M  V30 23946 H 2274.65 5.40821 -0.989559 0
M  V30 23947 H 2275.87 6.69314 -1.14873 0
M  V30 23948 H 2273.82 6.46979 1.08415 0
M  V30 23949 H 2273.73 7.55538 -0.26433 0
M  V30 23950 H 2275 7.74168 0.910157 0
M  V30 23951 N 2279.23 0.591922 1.46062 0
M  V30 23952 C 2280.47 0.0838373 2.04228 0
M  V30 23953 C 2280.83 -1.25584 1.45233 0
M  V30 23954 O 2282.04 -1.85371 1.94656 0
M  V30 23955 C 2280.31 0.028691 3.57388 0
M  V30 23956 S 2281.87 -0.42048 4.36781 0
M  V30 23957 H 2278.68 0.0419444 0.709762 0
M  V30 23958 H 2281.29 0.786497 1.78982 0
M  V30 23959 H 2279.99 1.0075 3.97841 0
M  V30 23960 H 2279.52 -0.696452 3.87186 0
M  V30 23961 H 2281.54 -1.67333 4.67134 0
M  V30 23962 N 2280.71 -1.54102 0.330204 0
M  V30 23963 C 2282.12 -1.59585 -0.022209 0
M  V30 23964 C 2282.32 -1.34656 -1.499 0
M  V30 23965 O 2281.38 -1.13425 -2.2559 0
M  V30 23966 C 2282.69 -2.98001 0.401984 0
M  V30 23967 C 2284.24 -3.11001 0.353199 0
M  V30 23968 C 2284.72 -4.51773 0.752656 0
M  V30 23969 N 2286.21 -4.57783 0.706319 0
M  V30 23970 C 2286.94 -5.64832 0.987516 0
M  V30 23971 N 2286.44 -6.79792 1.33619 0
M  V30 23972 N 2288.23 -5.54642 0.912638 0
M  V30 23973 H 2280.38 -1.68562 1.29231 0
M  V30 23974 H 2282.65 -0.788741 0.52592 0
M  V30 23975 H 2282.35 -3.21265 1.43115 0
M  V30 23976 H 2282.23 -3.765 -0.229633 0
M  V30 23977 H 2284.61 -2.87469 -0.666772 0
M  V30 23978 H 2284.69 -2.34591 1.01984 0
M  V30 23979 H 2284.34 -4.76039 1.77057 0
M  V30 23980 H 2284.27 -5.26562 0.0636335 0
M  V30 23981 H 2286.76 -3.75224 0.448956 0
M  V30 23982 H 2287.07 -7.57383 1.53595 0
M  V30 23983 H 2285.42 -6.81272 1.37451 0
M  V30 23984 H 2288.61 -4.63709 0.639683 0
M  V30 23985 H 2288.78 -6.3798 1.13514 0
M  V30 23986 N 2282.19 -0.0585199 -1.57491 0
M  V30 23987 C 2283.12 0.942657 -2.08918 0
M  V30 23988 C 2284.13 1.27004 -1.01852 0
M  V30 23989 O 2285.32 1.22954 -1.294 0
M  V30 23990 C 2282.42 2.26219 -2.52345 0
M  V30 23991 C 2281.59 2.11564 -3.82831 0
M  V30 23992 C 2280.65 3.26705 -4.12493 0
M  V30 23993 O 2279.68 3.02283 -4.823 0
M  V30 23994 N 2280.88 4.51404 -3.64986 0
M  V30 23995 H 2283.65 0.503671 -2.95437 0
M  V30 23996 H 2281.21 0.127541 -1.61397 0
M  V30 23997 H 2283.2 3.02128 -2.69259 0
M  V30 23998 H 2281.77 2.6166 -1.71034 0
M  V30 23999 H 2280.99 1.20201 -3.75427 0
M  V30 24000 H 2282.28 1.99007 -4.68267 0
M  V30 24001 H 2281.67 4.74134 -3.08566 0
M  V30 24002 H 2280.23 5.24383 -3.87125 0
M  V30 24003 N 2283.66 1.56128 0.21493 0
M  V30 24004 C 2284.61 1.89353 1.27002 0
M  V30 24005 C 2285.6 0.757227 1.41968 0
M  V30 24006 O 2286.79 1.01976 1.44672 0
M  V30 24007 C 2283.92 2.21945 2.61907 0
M  V30 24008 C 2283.01 3.41983 2.50816 0
M  V30 24009 N 2283.4 4.60427 2.09382 0
M  V30 24010 C 2281.69 3.45728 2.81759 0
M  V30 24011 C 2282.4 5.42586 2.09702 0
M  V30 24012 N 2281.37 4.82471 2.50446 0
M  V30 24013 H 2285.17 2.78439 0.940685 0
M  V30 24014 H 2282.69 1.56782 0.423465 0
M  V30 24015 H 2284.68 2.43925 3.38092 0
M  V30 24016 H 2283.34 1.34174 2.95681 0
M  V30 24017 H 2284.36 4.85462 1.80407 0
M  V30 24018 H 2281.03 2.68319 3.19861 0
M  V30 24019 H 2282.42 6.47414 1.79737 0
M  V30 24020 N 2285.14 -0.481893 1.50052 0
M  V30 24021 C 2286.07 -1.59841 1.64266 0
M  V30 24022 C 2287.09 -1.54118 0.524537 0
M  V30 24023 O 2288.28 -1.59703 0.797321 0
M  V30 24024 C 2285.38 -2.98695 1.60108 0
M  V30 24025 C 2284.55 -3.29402 2.87773 0
M  V30 24026 C 2283.61 -4.47758 2.76405 0
M  V30 24027 O 2282.63 -4.48597 3.50356 0
M  V30 24028 N 2283.84 -5.48791 1.89232 0
M  V30 24029 H 2286.6 -1.48068 2.60568 0
M  V30 24030 H 2284.16 -0.670123 1.4738 0
M  V30 24031 H 2286.15 -3.75823 1.5013 0
M  V30 24032 H 2284.72 -3.04293 0.715851 0
M  V30 24033 H 2283.94 -2.40988 3.11959 0
M  V30 24034 H 2285.23 -3.46724 3.72371 0
M  V30 24035 H 2284.63 -5.50925 1.28443 0
M  V30 24036 H 2283.19 -6.24946 1.85165 0
M  V30 24037 N 2286.62 -1.39448 -0.734313 0
M  V30 24038 C 2287.53 -1.40498 -1.87876 0
M  V30 24039 C 2288.55 -0.299702 -1.71399 0
M  V30 24040 O 2289.72 -0.541283 -1.9399 0
M  V30 24041 C 2286.79 -1.2476 -3.23475 0
M  V30 24042 C 2285.85 -2.45265 -3.5234 0
M  V30 24043 C 2285.08 -2.30268 -4.81469 0
M  V30 24044 O 2285.3 -1.30652 -5.55235 0
M  V30 24045 O 2284.24 -3.19265 -5.10249 0
M  V30 24046 H 2288.06 -2.3697 -1.89945 0
M  V30 24047 H 2285.65 -1.2057 -0.882222 0
M  V30 24048 H 2287.53 -1.18118 -4.04507 0
M  V30 24049 H 2286.21 -0.313838 -3.22175 0
M  V30 24050 H 2285.11 -2.57483 -2.71392 0
M  V30 24051 H 2286.45 -3.37337 -3.5842 0
M  V30 24052 N 2288.1 0.964571 -1.24635 0
M  V30 24053 C 2289.01 2.09357 -1.05863 0
M  V30 24054 C 2290.02 1.74 0.00145797 0
M  V30 24055 O 2291.2 2.0043 -0.197381 0
M  V30 24056 C 2288.27 3.40185 -0.668938 0
M  V30 24057 C 2287.33 3.89471 -1.80585 0
M  V30 24058 C 2286.56 5.14056 -1.43466 0
M  V30 24059 O 2286.78 5.69468 -0.325875 0
M  V30 24060 O 2285.72 5.57803 -2.26139 0
M  V30 24061 H 2289.54 2.28091 -2.0052 0
M  V30 24062 H 2287.13 1.07758 -1.03482 0
M  V30 24063 H 2289.01 4.18846 -0.463285 0
M  V30 24064 H 2287.68 3.22745 0.24848 0
M  V30 24065 H 2286.59 3.11858 -2.06628 0
M  V30 24066 H 2287.92 4.11393 -2.70216 0
M  V30 24067 N 2289.58 1.0606 1.16572 0
M  V30 24068 C 2290.49 0.680321 2.24519 0
M  V30 24069 C 2291.5 -0.302574 1.71349 0
M  V30 24070 O 2292.68 -0.152478 2.00822 0
M  V30 24071 C 2289.74 0.0700925 3.46629 0
M  V30 24072 C 2288.8 1.10455 4.14847 0
M  V30 24073 C 2288.04 0.523349 5.31128 0
M  V30 24074 O 2288.26 -0.664609 5.66515 0
M  V30 24075 O 2287.19 1.26189 5.88523 0
M  V30 24076 H 2291.02 1.58019 2.59352 0
M  V30 24077 H 2288.61 0.832715 1.24041 0
M  V30 24078 H 2290.49 -0.268593 4.20543 0
M  V30 24079 H 2289.16 -0.803298 3.13574 0
M  V30 24080 H 2288.07 1.49538 3.42913 0
M  V30 24081 H 2289.4 1.94939 4.51951 0
M  V30 24082 N 2291.06 -1.33168 0.84285 0
M  V30 24083 C 2291.97 -2.32905 0.281485 0
M  V30 24084 C 2292.98 -1.63527 -0.594558 0
M  V30 24085 O 2294.16 -1.95153 -0.497735 0
M  V30 24086 C 2291.22 -3.42612 -0.530869 0
M  V30 24087 C 2290.28 -4.27703 0.369918 0
M  V30 24088 C 2289.52 -5.32171 -0.40376 0
M  V30 24089 O 2289.74 -5.46464 -1.63504 0
M  V30 24090 O 2288.67 -6.01482 0.224305 0
M  V30 24091 H 2292.5 -2.82787 1.10749 0
M  V30 24092 H 2290.08 -1.36581 0.605474 0
M  V30 24093 H 2291.97 -4.09549 -0.992365 0
M  V30 24094 H 2290.64 -2.9494 -1.33387 0
M  V30 24095 H 2289.55 -3.63619 0.879339 0
M  V30 24096 H 2290.88 -4.78869 1.13779 0
M  V30 24097 N 2292.53 -0.599659 -1.45746 0
M  V30 24098 C 2293.5 0.113794 -2.28917 0
M  V30 24099 C 2294.5 0.802705 -1.39332 0
M  V30 24100 O 2295.69 0.652074 -1.61535 0
M  V30 24101 C 2292.82 1.17108 -3.20154 0
M  V30 24102 H 2294.01 -0.617341 -2.93477 0
M  V30 24103 H 2291.56 -0.358354 -1.52136 0
M  V30 24104 H 2292.3 1.93324 -2.60377 0
M  V30 24105 H 2292.08 0.6814 -3.86134 0
M  V30 24106 H 2293.57 1.67098 -3.82711 0
M  V30 24107 N 2294.01 1.53925 -0.338371 0
M  V30 24108 C 2295.43 1.59594 0.0137455 0
M  V30 24109 C 2295.63 1.35449 1.49183 0
M  V30 24110 O 2294.68 1.1462 2.24985 0
M  V30 24111 C 2296 2.97784 -0.417782 0
M  V30 24112 C 2297.54 3.10809 -0.369688 0
M  V30 24113 C 2298.02 4.51368 -0.776604 0
M  V30 24114 N 2299.51 4.57402 -0.730587 0
M  V30 24115 C 2300.25 5.64301 -1.01746 0
M  V30 24116 N 2299.74 6.79074 -1.37222 0
M  V30 24117 N 2301.53 5.5415 -0.942039 0
M  V30 24118 H 2293.69 1.67874 -1.30123 0
M  V30 24119 H 2295.95 0.785941 -0.530096 0
M  V30 24120 H 2295.65 3.20501 -1.44817 0
M  V30 24121 H 2295.53 3.76617 0.209663 0
M  V30 24122 H 2297.92 2.87818 0.651517 0
M  V30 24123 H 2298 2.34047 -1.03227 0
M  V30 24124 H 2297.64 4.75093 -1.79579 0
M  V30 24125 H 2297.57 5.2652 -0.0915574 0
M  V30 24126 H 2300.06 3.7498 -0.468849 0
M  V30 24127 H 2300.37 7.56557 -1.5761 0
M  V30 24128 H 2298.72 6.80534 -1.41062 0
M  V30 24129 H 2301.91 4.63363 -0.664266 0
M  V30 24130 H 2302.08 6.37369 -1.16896 0
M  V30 24131 N 2295.49 0.0668712 1.57458 0
M  V30 24132 C 2296.91 -0.289744 1.56948 0
M  V30 24133 C 2297.11 -1.70374 1.07587 0
M  V30 24134 O 2296.16 -2.41427 0.739528 0
M  V30 24135 C 2297.47 -0.10389 3.0052 0
M  V30 24136 C 2299.02 -0.173802 3.12517 0
M  V30 24137 C 2299.5 -0.0162877 4.57997 0
M  V30 24138 N 2300.99 -0.0720538 4.63144 0
M  V30 24139 C 2301.72 0.0254802 5.73394 0
M  V30 24140 N 2301.22 0.176255 6.92576 0
M  V30 24141 N 2303.01 -0.0312317 5.62091 0
M  V30 24142 H 2295.16 0.99106 1.87861 0
M  V30 24143 H 2297.43 0.386075 0.865823 0
M  V30 24144 H 2297.13 0.871632 3.40728 0
M  V30 24145 H 2297.01 -0.858301 3.67305 0
M  V30 24146 H 2299.39 -1.13981 2.72199 0
M  V30 24147 H 2299.47 0.61163 2.4838 0
M  V30 24148 H 2299.12 0.946462 4.99004 0
M  V30 24149 H 2299.05 -0.821062 5.2016 0
M  V30 24150 H 2301.54 -0.187197 3.77436 0
M  V30 24151 H 2301.85 0.242957 7.72418 0
M  V30 24152 H 2300.2 0.211551 6.94678 0
M  V30 24153 H 2303.39 -0.14769 4.67867 0
M  V30 24154 H 2303.56 0.0482349 6.47982 0
M  V30 24155 N 2296.97 -1.56239 -0.206647 0
M  V30 24156 C 2298.38 -1.49565 -0.556998 0
M  V30 24157 C 2298.58 -0.764768 -1.86423 0
M  V30 24158 O 2297.64 -0.310535 -2.50583 0
M  V30 24159 C 2298.95 -2.94188 -0.622427 0
M  V30 24160 C 2300.5 -3.04793 -0.712046 0
M  V30 24161 C 2300.98 -4.50804 -0.808688 0
M  V30 24162 N 2302.47 -4.54908 -0.87252 0
M  V30 24163 C 2303.2 -5.65183 -0.967266 0
M  V30 24164 N 2302.7 -6.85175 -1.02503 0
M  V30 24165 N 2304.49 -5.53069 -1.00356 0
M  V30 24166 H 2296.64 -2.02178 0.650978 0
M  V30 24167 H 2298.9 -0.919575 0.230403 0
M  V30 24168 H 2298.61 -3.50671 0.268788 0
M  V30 24169 H 2298.48 -3.46908 -1.48104 0
M  V30 24170 H 2300.87 -2.48365 -1.5937 0
M  V30 24171 H 2300.95 -2.55217 0.172534 0
M  V30 24172 H 2300.6 -5.07854 0.0685647 0
M  V30 24173 H 2300.53 -4.98101 -1.7089 0
M  V30 24174 H 2303.02 -3.68501 -0.837592 0
M  V30 24175 H 2303.33 -7.64967 -1.09752 0
M  V30 24176 H 2301.68 -6.87856 -0.993905 0
M  V30 24177 H 2304.87 -4.58251 -0.955189 0
M  V30 24178 H 2305.04 -6.39039 -1.07394 0
M  V30 24179 N 2298.45 0.473929 -1.50305 0
M  V30 24180 C 2299.36 1.59817 -1.71743 0
M  V30 24181 C 2300.37 1.6331 -0.600486 0
M  V30 24182 O 2301.55 1.81231 -0.878473 0
M  V30 24183 C 2298.61 2.96049 -1.80433 0
M  V30 24184 C 2297.67 3.02967 -3.04154 0
M  V30 24185 C 2296.91 4.32701 -3.12419 0
M  V30 24186 O 2297.13 5.23045 -2.27551 0
M  V30 24187 O 2296.06 4.45152 -4.05121 0
M  V30 24188 H 2299.89 1.44653 -2.67038 0
M  V30 24189 H 2297.47 0.653124 -1.34368 0
M  V30 24190 H 2299.36 3.76967 -1.88345 0
M  V30 24191 H 2298.03 3.11418 -0.883211 0
M  V30 24192 H 2296.94 2.21137 -3.01744 0
M  V30 24193 H 2298.27 2.92534 -3.95834 0
M  V30 24194 N 2299.92 1.39835 0.726907 0
M  V30 24195 C 2300.83 1.41492 1.87128 0
M  V30 24196 C 2301.85 0.308787 1.71238 0
M  V30 24197 O 2303.03 0.551563 1.937 0
M  V30 24198 C 2300.09 1.26473 3.22809 0
M  V30 24199 C 2299.15 2.4713 3.51034 0
M  V30 24200 C 2298.38 2.32818 4.80241 0
M  V30 24201 O 2298.61 1.33595 5.54534 0
M  V30 24202 O 2297.54 3.21966 5.08548 0
M  V30 24203 H 2301.37 2.37974 1.88686 0
M  V30 24204 H 2298.95 1.21037 0.875815 0
M  V30 24205 H 2300.83 1.20262 4.03875 0
M  V30 24206 H 2299.51 0.330919 3.22004 0
M  V30 24207 H 2298.42 2.58919 2.70022 0
M  V30 24208 H 2299.75 3.39233 3.56626 0
M  V30 24209 N 2301.4 -0.957948 1.25144 0
M  V30 24210 C 2302.35 -2.05411 1.05239 0
M  V30 24211 C 2303.32 -1.66058 -0.0374269 0
M  V30 24212 O 2304.5 -1.90428 0.119106 0
M  V30 24213 C 2301.64 -3.38461 0.673649 0
M  V30 24214 C 2300.76 -3.90951 1.83797 0
M  V30 24215 C 2299.89 -5.12313 1.4039 0
M  V30 24216 C 2298.93 -5.57023 2.53756 0
M  V30 24217 N 2298.07 -6.69598 2.11147 0
M  V30 24218 H 2302.91 -2.21771 1.99052 0
M  V30 24219 H 2300.44 -1.08682 0.991297 0
M  V30 24220 H 2302.4 -4.14926 0.435037 0
M  V30 24221 H 2301.03 -3.21997 -0.227497 0
M  V30 24222 H 2300.08 -3.11037 2.18998 0
M  V30 24223 H 2301.4 -4.20084 2.68944 0
M  V30 24224 H 2300.55 -5.96183 1.12474 0
M  V30 24225 H 2299.29 -4.84887 0.5231 0
M  V30 24226 H 2298.29 -4.71719 2.8242 0
M  V30 24227 H 2299.52 -5.86458 3.42408 0
M  V30 24228 H 2297.47 -6.43887 1.25479 0
M  V30 24229 H 2297.38 -6.98231 2.89844 0
M  V30 24230 H 2298.65 -7.56886 1.86399 0
M  V30 24231 N 2302.88 -1.06677 -1.16008 0
M  V30 24232 C 2304.3 -0.790972 -1.38621 0
M  V30 24233 C 2304.5 0.607931 -1.9211 0
M  V30 24234 O 2303.55 1.36784 -2.12242 0
M  V30 24235 C 2304.86 -1.8591 -2.36343 0
M  V30 24236 C 2306.41 -1.88306 -2.5002 0
M  V30 24237 C 2306.89 -2.94183 -3.51028 0
M  V30 24238 N 2308.38 -2.93241 -3.58558 0
M  V30 24239 C 2309.11 -3.7181 -4.36514 0
M  V30 24240 N 2308.61 -4.60209 -5.17861 0
M  V30 24241 N 2310.4 -3.60186 -4.31535 0
M  V30 24242 H 2302.55 -1.9691 -0.79626 0
M  V30 24243 H 2304.82 -0.853511 -0.412582 0
M  V30 24244 H 2304.52 -2.86389 -2.04142 0
M  V30 24245 H 2304.4 -1.7134 -3.36039 0
M  V30 24246 H 2306.78 -0.884819 -2.81523 0
M  V30 24247 H 2306.86 -2.06953 -1.50346 0
M  V30 24248 H 2306.51 -3.94202 -3.20261 0
M  V30 24249 H 2306.44 -2.72784 -4.50441 0
M  V30 24250 H 2308.93 -2.29157 -3.00492 0
M  V30 24251 H 2309.24 -5.16807 -5.74569 0
M  V30 24252 H 2307.59 -4.64262 -5.1719 0
M  V30 24253 H 2310.78 -2.90508 -3.67046 0
M  V30 24254 H 2310.95 -4.21661 -4.92042 0
M  V30 24255 N 2304.36 1.32719 -0.8499 0
M  V30 24256 C 2305.29 2.31482 -0.306349 0
M  V30 24257 C 2306.27 1.59469 0.591924 0
M  V30 24258 O 2307.45 1.87297 0.513166 0
M  V30 24259 C 2304.58 3.43533 0.510144 0
M  V30 24260 C 2303.54 4.26994 -0.293284 0
M  V30 24261 C 2302.86 5.30763 0.647649 0
M  V30 24262 C 2304.16 4.99802 -1.51643 0
M  V30 24263 H 2305.86 2.77193 -1.13157 0
M  V30 24264 H 2303.4 1.33265 -0.545577 0
M  V30 24265 H 2305.36 4.1166 0.900783 0
M  V30 24266 H 2304.08 2.96538 1.36869 0
M  V30 24267 H 2302.74 3.60507 -0.665619 0
M  V30 24268 H 2302.39 4.80023 1.5029 0
M  V30 24269 H 2302.09 5.87489 0.114116 0
M  V30 24270 H 2303.61 6.01754 1.03557 0
M  V30 24271 H 2305.03 5.60636 -1.19834 0
M  V30 24272 H 2303.42 5.6623 -1.98755 0
M  V30 24273 H 2304.49 4.27939 -2.28026 0
M  V30 24274 N 2305.84 0.60738 1.45426 0
M  V30 24275 C 2307.25 0.271013 1.57282 0
M  V30 24276 C 2307.45 -1.22644 1.59877 0
M  V30 24277 O 2306.51 -2.00945 1.52896 0
M  V30 24278 C 2307.82 0.942003 2.85564 0
M  V30 24279 C 2309.37 0.917902 2.99238 0
M  V30 24280 C 2309.84 1.5689 4.3029 0
M  V30 24281 N 2311.34 1.53438 4.37048 0
M  V30 24282 C 2312.07 2.00724 5.3712 0
M  V30 24283 N 2311.57 2.56095 6.43729 0
M  V30 24284 N 2313.36 1.91493 5.28476 0
M  V30 24285 H 2305.51 1.57968 1.41985 0
M  V30 24286 H 2307.77 0.661727 0.678838 0
M  V30 24287 H 2307.48 1.99638 2.89547 0
M  V30 24288 H 2307.35 0.465162 3.74321 0
M  V30 24289 H 2309.74 -0.127932 2.94823 0
M  V30 24290 H 2309.82 1.43301 2.11893 0
M  V30 24291 H 2309.47 2.61406 4.35465 0
M  V30 24292 H 2309.4 1.02882 5.16452 0
M  V30 24293 H 2311.89 1.12988 3.60613 0
M  V30 24294 H 2312.2 2.8997 7.16336 0
M  V30 24295 H 2310.54 2.60134 6.44481 0
M  V30 24296 H 2313.74 1.47975 4.44096 0
M  V30 24297 H 2313.91 2.28658 6.06316 0
M  V30 24298 N 2307.31 -1.53743 0.34653 0
M  V30 24299 C 2308.73 -1.59599 -0.00528169 0
M  V30 24300 C 2308.93 -1.36239 -1.48463 0
M  V30 24301 O 2307.99 -1.15812 -2.24374 0
M  V30 24302 C 2309.3 -2.97558 0.433568 0
M  V30 24303 C 2310.85 -3.10609 0.386165 0
M  V30 24304 C 2311.32 -4.5095 0.80053 0
M  V30 24305 N 2312.81 -4.57008 0.754834 0
M  V30 24306 C 2313.55 -5.63753 1.04737 0
M  V30 24307 N 2313.04 -6.78337 1.40821 0
M  V30 24308 N 2314.84 -5.53642 0.971414 0
M  V30 24309 H 2306.99 -1.67182 1.31012 0
M  V30 24310 H 2309.25 -0.783118 0.534256 0
M  V30 24311 H 2308.96 -3.19729 1.46515 0
M  V30 24312 H 2308.83 -3.76723 -0.189687 0
M  V30 24313 H 2311.22 -2.8816 -0.636245 0
M  V30 24314 H 2311.3 -2.33496 1.04466 0
M  V30 24315 H 2310.94 -4.74134 1.82096 0
M  V30 24316 H 2310.87 -5.26464 0.119479 0
M  V30 24317 H 2313.36 -3.74726 0.488728 0
M  V30 24318 H 2313.68 -7.55711 1.6162 0
M  V30 24319 H 2312.02 -6.79776 1.44669 0
M  V30 24320 H 2315.21 -4.63004 0.688829 0
M  V30 24321 H 2315.39 -6.3674 1.20274 0
M  V30 24322 N 2308.79 -0.0752207 -1.5742 0
M  V30 24323 C 2309.72 0.888286 -2.15944 0
M  V30 24324 C 2310.7 1.30804 -1.08739 0
M  V30 24325 O 2311.89 1.37848 -1.3679 0
M  V30 24326 C 2309.02 2.15465 -2.72382 0
M  V30 24327 C 2307.97 1.87418 -3.84784 0
M  V30 24328 C 2307.3 3.20714 -4.2784 0
M  V30 24329 C 2308.6 1.17675 -5.08871 0
M  V30 24330 H 2310.29 0.400747 -2.96706 0
M  V30 24331 H 2307.84 0.191317 -1.42723 0
M  V30 24332 H 2309.79 2.83289 -3.1197 0
M  V30 24333 H 2308.52 2.66467 -1.88846 0
M  V30 24334 H 2307.17 1.21998 -3.45705 0
M  V30 24335 H 2306.82 3.69564 -3.41221 0
M  V30 24336 H 2306.52 3.02738 -5.03611 0
M  V30 24337 H 2308.05 3.8973 -4.70046 0
M  V30 24338 H 2309.46 1.75574 -5.45753 0
M  V30 24339 H 2307.86 1.09946 -5.89942 0
M  V30 24340 H 2308.93 0.156368 -4.84648 0
M  V30 24341 N 2310.27 1.56347 0.198358 0
M  V30 24342 C 2311.18 1.97485 1.26637 0
M  V30 24343 C 2312.2 0.882028 1.49988 0
M  V30 24344 O 2313.37 1.18751 1.62666 0
M  V30 24345 C 2310.44 2.30324 2.59137 0
M  V30 24346 C 2309.5 3.53296 2.43886 0
M  V30 24347 C 2308.73 3.84559 3.70067 0
M  V30 24348 O 2308.95 3.17159 4.74096 0
M  V30 24349 O 2307.89 4.77996 3.65792 0
M  V30 24350 H 2311.71 2.88549 0.947253 0
M  V30 24351 H 2309.3 1.43859 0.403098 0
M  V30 24352 H 2311.18 2.52536 3.37348 0
M  V30 24353 H 2309.86 1.42428 2.90682 0
M  V30 24354 H 2308.76 3.36335 1.63797 0
M  V30 24355 H 2310.1 4.41648 2.17274 0
M  V30 24356 N 2311.75 -0.465951 1.50554 0
M  V30 24357 C 2312.7 -1.5633 1.69793 0
M  V30 24358 C 2313.67 -1.57102 0.539266 0
M  V30 24359 O 2314.85 -1.74554 0.770432 0
M  V30 24360 C 2311.99 -2.94268 1.80278 0
M  V30 24361 C 2311.1 -3.03245 3.07679 0
M  V30 24362 C 2310.24 -4.3213 3.08929 0
M  V30 24363 C 2309.28 -4.34868 4.30763 0
M  V30 24364 N 2308.41 -5.55232 4.29723 0
M  V30 24365 H 2313.25 -1.39231 2.63475 0
M  V30 24366 H 2310.79 -0.67685 1.30603 0
M  V30 24367 H 2312.75 -3.74266 1.84338 0
M  V30 24368 H 2311.38 -3.09991 0.900312 0
M  V30 24369 H 2310.43 -2.16088 3.13066 0
M  V30 24370 H 2311.74 -3.01128 3.97647 0
M  V30 24371 H 2310.9 -5.20479 3.11747 0
M  V30 24372 H 2309.64 -4.36863 2.168 0
M  V30 24373 H 2308.64 -3.44915 4.28152 0
M  V30 24374 H 2309.87 -4.31822 5.24125 0
M  V30 24375 H 2307.81 -5.6074 3.4045 0
M  V30 24376 H 2307.73 -5.54877 5.13466 0
M  V30 24377 H 2309 -6.45692 4.36694 0
M  V30 24378 N 2313.23 -1.40218 -0.719481 0
M  V30 24379 C 2314.17 -1.40175 -1.83357 0
M  V30 24380 C 2315.14 -0.259235 -1.64065 0
M  V30 24381 O 2316.33 -0.456709 -1.85253 0
M  V30 24382 C 2313.47 -1.26629 -3.21028 0
M  V30 24383 C 2312.58 -2.50554 -3.51918 0
M  V30 24384 C 2311.72 -2.2948 -4.79075 0
M  V30 24385 C 2310.76 -3.49001 -5.02857 0
M  V30 24386 N 2309.89 -3.27146 -6.21224 0
M  V30 24387 H 2314.73 -2.35402 -1.82729 0
M  V30 24388 H 2312.27 -1.16918 -0.892668 0
M  V30 24389 H 2314.23 -1.16783 -4.00522 0
M  V30 24390 H 2312.86 -0.350232 -3.20894 0
M  V30 24391 H 2311.91 -2.70944 -2.67009 0
M  V30 24392 H 2313.22 -3.39531 -3.65404 0
M  V30 24393 H 2312.38 -2.16965 -5.66578 0
M  V30 24394 H 2311.11 -1.37922 -4.67792 0
M  V30 24395 H 2310.12 -3.61997 -4.13809 0
M  V30 24396 H 2311.34 -4.41481 -5.16015 0
M  V30 24397 H 2309.29 -2.38267 -6.112 0
M  V30 24398 H 2309.21 -4.09687 -6.35368 0
M  V30 24399 H 2310.48 -3.18356 -7.11526 0
M  V30 24400 N 2314.7 0.951297 -1.25651 0
M  V30 24401 C 2316.12 1.22298 -1.02545 0
M  V30 24402 C 2316.32 1.99871 0.25568 0
M  V30 24403 O 2315.38 2.33228 0.967517 0
M  V30 24404 C 2316.69 1.99411 -2.25068 0
M  V30 24405 C 2318.24 2.12442 -2.29864 0
M  V30 24406 C 2318.71 2.92954 -3.52054 0
M  V30 24407 N 2320.2 3.00532 -3.5247 0
M  V30 24408 C 2320.94 3.63231 -4.43679 0
M  V30 24409 N 2320.43 4.27514 -5.45164 0
M  V30 24410 N 2322.23 3.60404 -4.31353 0
M  V30 24411 H 2314.38 0.432434 -2.07951 0
M  V30 24412 H 2316.64 0.2538 -0.913394 0
M  V30 24413 H 2316.35 1.49812 -3.18197 0
M  V30 24414 H 2316.22 3.00107 -2.28507 0
M  V30 24415 H 2318.61 2.61237 -1.37257 0
M  V30 24416 H 2318.69 1.1104 -2.30442 0
M  V30 24417 H 2318.33 2.44849 -4.44985 0
M  V30 24418 H 2318.26 3.9459 -3.48722 0
M  V30 24419 H 2320.75 2.54821 -2.7906 0
M  V30 24420 H 2321.07 4.73223 -6.10966 0
M  V30 24421 H 2319.41 4.26131 -5.49033 0
M  V30 24422 H 2322.6 3.09371 -3.51294 0
M  V30 24423 H 2322.78 4.08982 -5.02631 0
M  V30 24424 N 2316.18 1.07291 1.1544 0
M  V30 24425 C 2317.6 0.798313 1.382 0
M  V30 24426 C 2317.8 -0.597735 1.9243 0
M  V30 24427 O 2316.85 -1.35656 2.12964 0
M  V30 24428 C 2318.17 1.8716 2.35354 0
M  V30 24429 C 2319.72 1.89629 2.49018 0
M  V30 24430 C 2320.19 2.9604 3.49463 0
M  V30 24431 N 2321.68 2.95139 3.56998 0
M  V30 24432 C 2322.42 3.7412 4.34536 0
M  V30 24433 N 2321.91 4.62949 5.15413 0
M  V30 24434 N 2323.71 3.62469 4.29619 0
M  V30 24435 H 2315.86 1.97329 0.785806 0
M  V30 24436 H 2318.12 0.855687 0.40805 0
M  V30 24437 H 2317.83 2.87468 2.02621 0
M  V30 24438 H 2317.7 1.7312 3.35126 0
M  V30 24439 H 2320.09 0.899736 2.81049 0
M  V30 24440 H 2320.17 2.07748 1.49247 0
M  V30 24441 H 2319.81 3.95895 3.18166 0
M  V30 24442 H 2319.74 2.75169 4.48988 0
M  V30 24443 H 2322.23 2.30748 2.99272 0
M  V30 24444 H 2322.55 5.19847 5.71821 0
M  V30 24445 H 2320.89 4.66998 5.14721 0
M  V30 24446 H 2324.08 2.9245 3.655 0
M  V30 24447 H 2324.25 4.24265 4.89799 0
M  V30 24448 N 2317.66 -1.32267 0.856927 0
M  V30 24449 C 2318.61 -2.3076 0.292027 0
M  V30 24450 C 2319.6 -1.58948 -0.585829 0
M  V30 24451 O 2320.81 -1.73664 -0.47338 0
M  V30 24452 H 2317.18 -0.748177 0.0757341 0
M  V30 24453 H 2319.15 -2.75893 1.13691 0
M  V30 24454 C 2317.9 -3.44045 -0.502809 0
M  V30 24455 H 2317.23 -3.99466 0.163398 0
M  V30 24456 H 2318.67 -4.15112 -0.863618 0
M  V30 24457 C 2317.13 -2.91508 -1.68893 0
M  V30 24458 O 2317.66 -2.89189 -2.78805 0
M  V30 24459 N 2315.86 -2.47877 -1.51675 0
M  V30 24460 H 2315.41 -2.49962 -0.622622 0
M  V30 24461 H 2315.37 -2.1308 -2.3118 0
M  V30 24462 N 2319.14 -0.615084 -1.45102 0
M  V30 24463 C 2320.07 0.0865209 -2.3334 0
M  V30 24464 C 2321.05 0.851183 -1.47271 0
M  V30 24465 O 2322.23 0.82025 -1.76027 0
M  V30 24466 C 2319.36 1.0795 -3.30097 0
M  V30 24467 C 2318.32 0.427553 -4.25859 0
M  V30 24468 C 2317.64 1.52931 -5.12363 0
M  V30 24469 C 2318.94 -0.656035 -5.18164 0
M  V30 24470 H 2320.64 -0.650275 -2.92253 0
M  V30 24471 H 2318.18 -0.314163 -1.40531 0
M  V30 24472 H 2320.14 1.57894 -3.90701 0
M  V30 24473 H 2318.86 1.84699 -2.69359 0
M  V30 24474 H 2317.52 -0.0510936 -3.66564 0
M  V30 24475 H 2317.17 2.28726 -4.47988 0
M  V30 24476 H 2316.87 1.09855 -5.7724 0
M  V30 24477 H 2318.39 2.03087 -5.75837 0
M  V30 24478 H 2319.81 -0.240358 -5.72796 0
M  V30 24479 H 2318.2 -1.00898 -5.91557 0
M  V30 24480 H 2319.27 -1.52965 -4.60141 0
M  V30 24481 N 2320.62 1.53557 -0.354678 0
M  V30 24482 C 2321.55 2.21713 0.540234 0
M  V30 24483 C 2322.53 1.20512 1.09159 0
M  V30 24484 O 2323.71 1.49374 1.14977 0
M  V30 24485 C 2320.84 2.90331 1.7443 0
M  V30 24486 C 2319.89 4.05514 1.32139 0
M  V30 24487 S 2320.72 5.34471 0.33183 0
M  V30 24488 C 2321.87 6.06596 1.54247 0
M  V30 24489 H 2322.11 2.97275 -0.0386299 0
M  V30 24490 H 2319.64 1.53775 -0.138763 0
M  V30 24491 H 2321.6 3.3048 2.43501 0
M  V30 24492 H 2320.26 2.14514 2.2944 0
M  V30 24493 H 2319.45 4.525 2.21944 0
M  V30 24494 H 2319.05 3.67198 0.710027 0
M  V30 24495 H 2321.35 6.30665 2.47523 0
M  V30 24496 H 2322.29 6.99279 1.11419 0
M  V30 24497 H 2322.7 5.36898 1.74358 0
M  V30 24498 N 2322.1 0.083568 1.57378 0
M  V30 24499 C 2323.03 -0.876822 2.16412 0
M  V30 24500 C 2324.01 -1.30226 1.09431 0
M  V30 24501 O 2325.19 -1.37121 1.37519 0
M  V30 24502 C 2322.32 -2.14017 2.73521 0
M  V30 24503 C 2321.28 -1.85375 3.85772 0
M  V30 24504 C 2320.6 -3.1844 4.29534 0
M  V30 24505 C 2321.9 -1.14975 5.09488 0
M  V30 24506 H 2323.6 -0.385006 2.96914 0
M  V30 24507 H 2321.14 -0.183745 1.42823 0
M  V30 24508 H 2323.09 -2.81631 3.13468 0
M  V30 24509 H 2321.82 -2.65462 1.90257 0
M  V30 24510 H 2320.48 -1.20163 3.46347 0
M  V30 24511 H 2320.13 -3.67749 3.43176 0
M  V30 24512 H 2319.83 -3.00063 5.05209 0
M  V30 24513 H 2321.35 -3.87231 4.72106 0
M  V30 24514 H 2322.76 -1.72677 5.46677 0
M  V30 24515 H 2321.16 -1.06816 5.90517 0
M  V30 24516 H 2322.23 -0.130663 4.84724 0
M  V30 24517 N 2323.57 -1.5645 -0.190064 0
M  V30 24518 C 2324.85 -1.71759 -0.935856 0
M  V30 24519 C 2325.23 -0.639761 -2.01172 0
M  V30 24520 O 2324.58 0.348462 -2.25827 0
M  V30 24521 C 2324.79 -3.14272 -1.51769 0
M  V30 24522 C 2326.14 -3.7466 -1.99788 0
M  V30 24523 O 2327.16 -3.17432 -1.61602 0
M  V30 24524 O 2326.02 -4.75104 -2.7007 0
M  V30 24525 H 2323.11 -0.700727 -0.439216 0
M  V30 24526 H 2325.66 -1.68749 -0.179365 0
M  V30 24527 H 2324.43 -3.84192 -0.742438 0
M  V30 24528 H 2324.05 -3.21531 -2.33888 0
M  V30 24529 N 2325.05 0.45796 -1.50799 0
M  V30 24530 C 2326.33 1.21899 -1.5297 0
M  V30 24531 C 2326.71 2.09209 -0.281943 0
M  V30 24532 O 2326.06 2.16389 0.734038 0
M  V30 24533 C 2326.27 2.0387 -2.83263 0
M  V30 24534 C 2327.61 2.61615 -3.34429 0
M  V30 24535 O 2328.64 2.14101 -2.84674 0
M  V30 24536 O 2327.5 3.4822 -4.21195 0
M  V30 24537 H 2324.59 0.553862 -0.614139 0
M  V30 24538 H 2327.14 0.46871 -1.63099 0
M  V30 24539 H 2325.91 1.39615 -3.65545 0
M  V30 24540 H 2325.53 2.86006 -2.762 0
M  V30 24541 N 2326.53 1.40598 0.712035 0
M  V30 24542 C 2327.78 1.39274 1.47413 0
M  V30 24543 C 2328.11 -0.00385377 1.942 0
M  V30 24544 O 2327.38 -0.97315 1.68404 0
M  V30 24545 C 2327.67 2.3853 2.6977 0
M  V30 24546 C 2327.52 3.87228 2.28855 0
M  V30 24547 C 2328.84 2.3527 3.71935 0
M  V30 24548 H 2325.96 0.507209 0.534704 0
M  V30 24549 H 2328.6 1.71758 0.812345 0
M  V30 24550 H 2326.75 2.10959 3.26234 0
M  V30 24551 H 2328.42 4.2564 1.77844 0
M  V30 24552 H 2326.66 4.0289 1.60817 0
M  V30 24553 H 2327.34 4.52199 3.16576 0
M  V30 24554 H 2329.81 2.597 3.25108 0
M  V30 24555 H 2328.69 3.06761 4.5518 0
M  V30 24556 H 2328.95 1.36556 4.20482 0
M  V30 24557 N 2328.01 -0.94462 1.26153 0
M  V30 24558 C 2329.26 -1.68485 1.10886 0
M  V30 24559 C 2329.57 -1.92477 -0.348119 0
M  V30 24560 O 2330.78 -2.64293 -0.621412 0
M  V30 24561 C 2329.23 -3.03374 1.93629 0
M  V30 24562 C 2328.84 -2.87142 3.4388 0
M  V30 24563 C 2330.58 -3.81112 1.8696 0
M  V30 24564 C 2328.49 -4.17482 4.18882 0
M  V30 24565 H 2327.42 -0.6319 0.411362 0
M  V30 24566 H 2330.07 -1.0508 1.50434 0
M  V30 24567 H 2328.45 -3.67741 1.46911 0
M  V30 24568 H 2329.63 -2.31646 3.98342 0
M  V30 24569 H 2327.94 -2.2285 3.51748 0
M  V30 24570 H 2330.54 -4.77669 2.40284 0
M  V30 24571 H 2330.88 -4.07746 0.83959 0
M  V30 24572 H 2331.42 -3.23513 2.31483 0
M  V30 24573 H 2328.15 -3.96034 5.22339 0
M  V30 24574 H 2327.67 -4.72705 3.69201 0
M  V30 24575 H 2329.35 -4.85961 4.27143 0
M  V30 24576 N 2329.49 -1.07901 -1.1487 0
M  V30 24577 C 2330.45 -0.708199 -2.17984 0
M  V30 24578 C 2331.45 0.254393 -1.58775 0
M  V30 24579 O 2332.64 0.0346144 -1.74166 0
M  V30 24580 C 2329.77 -0.0447528 -3.40871 0
M  V30 24581 H 2330.96 -1.6212 -2.52303 0
M  V30 24582 H 2328.52 -0.876241 -1.29428 0
M  V30 24583 H 2329.25 0.880227 -3.12126 0
M  V30 24584 H 2329.04 -0.737159 -3.85108 0
M  V30 24585 H 2330.53 0.199836 -4.17122 0
M  V30 24586 N 2330.96 1.31811 -0.863929 0
M  V30 24587 C 2332.19 2.01642 -0.485305 0
M  V30 24588 C 2332.61 1.64455 0.913029 0
M  V30 24589 O 2331.97 0.850013 1.60139 0
M  V30 24590 C 2332.02 3.54827 -0.642687 0
M  V30 24591 O 2331.12 4.11152 0.320587 0
M  V30 24592 H 2330.46 0.635087 -0.193804 0
M  V30 24593 H 2332.99 1.68146 -1.16568 0
M  V30 24594 H 2333 4.04494 -0.533699 0
M  V30 24595 H 2331.68 3.81234 -1.66233 0
M  V30 24596 H 2330.26 3.72526 0.167061 0
M  V30 24597 N 2332.44 0.62277 1.44773 0
M  V30 24598 C 2333.69 0.12369 2.01721 0
M  V30 24599 C 2334.01 -1.25587 1.49174 0
M  V30 24600 O 2333.28 -1.83271 0.692006 0
M  V30 24601 H 2331.86 0.0427356 0.745777 0
M  V30 24602 H 2334.52 0.80759 1.77381 0
M  V30 24603 H 2333.62 0.0850082 3.11984 0
M  V30 24604 N 2333.92 -1.53367 0.362817 0
M  V30 24605 C 2335.14 -2.06107 -0.23119 0
M  V30 24606 C 2335.57 -1.23477 -1.41898 0
M  V30 24607 O 2334.93 -0.25316 -1.79524 0
M  V30 24608 C 2334.98 -3.55481 -0.605461 0
M  V30 24609 O 2334.08 -3.75593 -1.70305 0
M  V30 24610 H 2333.42 -0.663113 -0.0343154 0
M  V30 24611 H 2335.95 -1.97813 0.522619 0
M  V30 24612 H 2335.96 -3.98458 -0.877244 0
M  V30 24613 H 2334.64 -4.15067 0.263077 0
M  V30 24614 H 2333.21 -3.44514 -1.42704 0
M  V30 24615 N 2335.4 -0.091913 -1.57332 0
M  V30 24616 C 2336.62 0.584407 -1.98996 0
M  V30 24617 C 2337.05 1.61127 -0.970556 0
M  V30 24618 O 2336.41 1.81196 0.0613586 0
M  V30 24619 C 2336.45 1.21155 -3.39638 0
M  V30 24620 O 2335.56 2.32738 -3.40451 0
M  V30 24621 H 2334.9 0.148561 -0.647167 0
M  V30 24622 H 2337.43 -0.172383 -2.03873 0
M  V30 24623 H 2337.44 1.55361 -3.77263 0
M  V30 24624 H 2336.11 0.45924 -4.13357 0
M  V30 24625 H 2334.69 2.00175 -3.14618 0
M  V30 24626 N 2336.88 1.56548 0.181765 0
M  V30 24627 C 2337.84 1.94726 1.2089 0
M  V30 24628 C 2338.84 0.829771 1.37737 0
M  V30 24629 O 2340.03 1.09699 1.35321 0
M  V30 24630 C 2337.16 2.23296 2.57589 0
M  V30 24631 H 2338.35 2.8663 0.882225 0
M  V30 24632 H 2335.91 1.50444 0.423811 0
M  V30 24633 H 2336.64 1.34072 2.95288 0
M  V30 24634 H 2336.43 3.04741 2.4673 0
M  V30 24635 H 2337.92 2.5379 3.31633 0
M  V30 24636 N 2338.35 -0.449957 1.5104 0
M  V30 24637 C 2339.58 -1.2278 1.67152 0
M  V30 24638 C 2340 -1.84562 0.363114 0
M  V30 24639 O 2339.36 -1.6825 -0.675403 0
M  V30 24640 C 2339.41 -2.29684 2.77989 0
M  V30 24641 O 2338.51 -3.3486 2.40713 0
M  V30 24642 H 2337.86 -0.360289 0.557753 0
M  V30 24643 H 2340.39 -0.532971 1.97536 0
M  V30 24644 H 2340.4 -2.74667 3.01698 0
M  V30 24645 H 2339.07 -1.84091 3.72939 0
M  V30 24646 H 2337.65 -2.95441 2.27529 0
M  V30 24647 N 2339.83 -1.40974 -0.704569 0
M  V30 24648 C 2340.8 -1.41848 -1.80033 0
M  V30 24649 C 2341.8 -0.310502 -1.57774 0
M  V30 24650 O 2342.99 -0.569949 -1.64612 0
M  V30 24651 C 2340.12 -1.22104 -3.18282 0
M  V30 24652 H 2341.31 -2.39383 -1.80653 0
M  V30 24653 H 2338.86 -1.26984 -0.911307 0
M  V30 24654 H 2339.6 -0.253728 -3.23306 0
M  V30 24655 H 2339.38 -2.02372 -3.35839 0
M  V30 24656 H 2340.87 -1.25529 -3.98286 0
M  V30 24657 N 2341.31 0.937917 -1.26653 0
M  V30 24658 C 2342.27 2.01865 -1.08549 0
M  V30 24659 C 2343.27 1.60767 -0.032761 0
M  V30 24660 O 2344.46 1.71992 -0.276458 0
M  V30 24661 C 2341.6 3.34611 -0.651769 0
M  V30 24662 H 2342.79 2.19357 -2.04506 0
M  V30 24663 H 2340.34 1.11732 -1.09296 0
M  V30 24664 H 2341.08 3.22818 0.309639 0
M  V30 24665 H 2340.86 3.65795 -1.41195 0
M  V30 24666 H 2342.35 4.14001 -0.547046 0
M  V30 24667 N 2342.79 1.08509 1.14296 0
M  V30 24668 C 2344.01 0.837035 1.89759 0
M  V30 24669 C 2344.44 -0.605196 1.78098 0
M  V30 24670 O 2343.8 -1.42418 1.1219 0
M  V30 24671 C 2343.84 1.26501 3.37683 0
M  V30 24672 O 2342.95 0.417587 4.1028 0
M  V30 24673 H 2342.29 0.303927 0.590359 0
M  V30 24674 H 2344.82 1.44679 1.44669 0
M  V30 24675 H 2344.83 1.24632 3.88498 0
M  V30 24676 H 2343.5 2.3154 3.45488 0
M  V30 24677 H 2342.08 0.499786 3.69536 0
M  V30 24678 N 2344.27 -1.31351 0.870907 0
M  V30 24679 C 2345.18 -2.32256 0.330824 0
M  V30 24680 C 2346.19 -1.64751 -0.559738 0
M  V30 24681 O 2347.37 -1.96165 -0.456229 0
M  V30 24682 C 2344.43 -3.43661 -0.458076 0
M  V30 24683 C 2343.49 -4.26822 0.460557 0
M  V30 24684 C 2342.73 -5.32907 -0.290787 0
M  V30 24685 O 2342.95 -5.49809 -1.51875 0
M  V30 24686 O 2341.88 -6.00871 0.351837 0
M  V30 24687 H 2345.71 -2.80374 1.16723 0
M  V30 24688 H 2343.3 -1.35266 0.634309 0
M  V30 24689 H 2345.18 -4.11561 -0.905271 0
M  V30 24690 H 2343.85 -2.97703 -1.27101 0
M  V30 24691 H 2342.76 -3.61672 0.95627 0
M  V30 24692 H 2344.09 -4.76347 1.23911 0
M  V30 24693 N 2345.74 -0.630439 -1.44441 0
M  V30 24694 C 2346.71 0.065212 -2.29107 0
M  V30 24695 C 2347.71 0.77297 -1.41003 0
M  V30 24696 O 2348.9 0.617664 -1.62882 0
M  V30 24697 C 2346.03 1.10291 -3.22566 0
M  V30 24698 H 2347.22 -0.679453 -2.92102 0
M  V30 24699 H 2344.78 -0.390544 -1.51342 0
M  V30 24700 H 2345.51 1.87758 -2.64419 0
M  V30 24701 H 2345.3 0.599342 -3.87492 0
M  V30 24702 H 2346.79 1.58943 -3.8617 0
M  V30 24703 N 2347.22 1.53172 -0.370945 0
M  V30 24704 C 2348.15 2.23504 0.507783 0
M  V30 24705 C 2349.17 1.25102 1.0418 0
M  V30 24706 O 2350.36 1.51292 0.947259 0
M  V30 24707 C 2347.46 2.92337 1.71442 0
M  V30 24708 C 2346.63 4.17291 1.31098 0
M  V30 24709 C 2345.69 4.69286 2.38027 0
M  V30 24710 O 2344.71 5.32833 2.00195 0
M  V30 24711 N 2345.92 4.47561 3.69689 0
M  V30 24712 H 2348.68 2.9955 -0.0946908 0
M  V30 24713 H 2346.24 1.60704 -0.196386 0
M  V30 24714 H 2348.23 3.24027 2.42463 0
M  V30 24715 H 2346.8 2.19711 2.22364 0
M  V30 24716 H 2346.02 3.91843 0.430393 0
M  V30 24717 H 2347.31 4.98516 1.01781 0
M  V30 24718 H 2346.71 3.96797 4.03198 0
M  V30 24719 H 2345.27 4.83788 4.36798 0
M  V30 24720 N 2348.7 0.100255 1.57281 0
M  V30 24721 C 2349.94 -0.565545 1.9642 0
M  V30 24722 C 2350.3 -1.65029 0.981294 0
M  V30 24723 O 2351.51 -2.37366 1.26137 0
M  V30 24724 C 2349.78 -1.10165 3.39998 0
M  V30 24725 S 2351.34 -1.7786 4.01137 0
M  V30 24726 H 2348.15 -0.184394 0.686673 0
M  V30 24727 H 2350.76 0.180885 1.94661 0
M  V30 24728 H 2349.46 -0.300731 4.09297 0
M  V30 24729 H 2348.99 -1.88379 3.45365 0
M  V30 24730 H 2351.01 -3.06319 3.90363 0
M  V30 24731 N 2350.18 -1.56643 -0.17346 0
M  V30 24732 C 2351.13 -1.96244 -1.21479 0
M  V30 24733 C 2352.1 -0.826052 -1.44103 0
M  V30 24734 O 2353.28 -1.086 -1.56878 0
M  V30 24735 C 2350.42 -2.32572 -2.5496 0
M  V30 24736 C 2349.53 -3.59378 -2.39733 0
M  V30 24737 C 2348.67 -3.84928 -3.66066 0
M  V30 24738 C 2347.71 -5.05089 -3.45763 0
M  V30 24739 N 2346.85 -5.26783 -4.6416 0
M  V30 24740 H 2351.69 -2.85015 -0.870073 0
M  V30 24741 H 2349.22 -1.4103 -0.41822 0
M  V30 24742 H 2351.18 -2.51656 -3.32754 0
M  V30 24743 H 2349.81 -1.46913 -2.8743 0
M  V30 24744 H 2348.86 -3.4822 -1.53125 0
M  V30 24745 H 2350.17 -4.4733 -2.20675 0
M  V30 24746 H 2349.33 -4.04368 -4.52296 0
M  V30 24747 H 2348.07 -2.95347 -3.881 0
M  V30 24748 H 2347.07 -4.85549 -2.57919 0
M  V30 24749 H 2348.3 -5.96198 -3.25153 0
M  V30 24750 H 2346.24 -4.40153 -4.86417 0
M  V30 24751 H 2346.16 -6.08954 -4.48008 0
M  V30 24752 H 2347.43 -5.507 -5.51679 0
M  V30 24753 N 2351.66 0.44194 -1.51277 0
M  V30 24754 C 2353.07 1.02196 -1.56246 0
M  V30 24755 C 2353.42 1.92422 -0.383183 0
M  V30 24756 O 2352.54 2.10531 0.500576 0
M  V30 24757 C 2353.14 1.86019 -2.83165 0
M  V30 24758 C 2351.7 2.39079 -2.9072 0
M  V30 24759 C 2350.85 1.18171 -2.5086 0
M  V30 24760 H 2353.8 0.223389 -1.5712 0
M  V30 24761 H 2353.82 2.7142 -2.66667 0
M  V30 24762 H 2353.33 1.20325 -3.68976 0
M  V30 24763 H 2351.43 3.08241 -2.09328 0
M  V30 24764 H 2351.54 2.72191 -3.9427 0
M  V30 24765 H 2349.91 1.52561 -2.03954 0
M  V30 24766 H 2350.69 0.540942 -3.39011 0
M  V30 24767 N 2353.14 1.41345 0.697083 0
M  V30 24768 C 2354.37 1.43765 1.48375 0
M  V30 24769 C 2354.77 0.0409058 1.89156 0
M  V30 24770 O 2354.12 -0.949785 1.57241 0
M  V30 24771 C 2354.18 2.28175 2.77806 0
M  V30 24772 C 2353.84 3.76357 2.59238 0
M  V30 24773 C 2354.84 4.68555 2.25283 0
M  V30 24774 C 2352.52 4.20382 2.74925 0
M  V30 24775 C 2354.52 6.02764 2.07253 0
M  V30 24776 C 2352.21 5.54658 2.56512 0
M  V30 24777 C 2353.2 6.45664 2.22726 0
M  V30 24778 O 2352.89 7.77462 2.04471 0
M  V30 24779 H 2352.62 0.491767 0.463833 0
M  V30 24780 H 2355.18 1.86256 0.865901 0
M  V30 24781 H 2353.41 1.80496 3.41992 0
M  V30 24782 H 2355.1 2.22315 3.39604 0
M  V30 24783 H 2355.86 4.35832 2.12779 0
M  V30 24784 H 2351.74 3.49853 3.00207 0
M  V30 24785 H 2355.29 6.73762 1.80805 0
M  V30 24786 H 2351.18 5.86959 2.68605 0
M  V30 24787 H 2351.95 7.8859 2.19246 0
M  V30 24788 N 2354.61 -0.931187 1.27148 0
M  V30 24789 C 2355.84 -1.71017 1.15917 0
M  V30 24790 C 2356.25 -1.87009 -0.287079 0
M  V30 24791 O 2355.59 -1.38431 -1.20759 0
M  V30 24792 C 2355.66 -3.13104 1.76653 0
M  V30 24793 C 2355.32 -3.20461 3.25812 0
M  V30 24794 C 2356.32 -3.02976 4.22495 0
M  V30 24795 C 2354 -3.43531 3.66458 0
M  V30 24796 C 2356 -3.08445 5.578 0
M  V30 24797 C 2353.68 -3.48634 5.01894 0
M  V30 24798 C 2354.68 -3.31108 5.97374 0
M  V30 24799 O 2354.37 -3.35939 7.30342 0
M  V30 24800 H 2354.1 -0.541943 0.404072 0
M  V30 24801 H 2356.66 -1.17518 1.68459 0
M  V30 24802 H 2354.89 -3.68069 1.18584 0
M  V30 24803 H 2356.57 -3.72955 1.60185 0
M  V30 24804 H 2357.34 -2.84997 3.9243 0
M  V30 24805 H 2353.22 -3.56225 2.92617 0
M  V30 24806 H 2356.76 -2.94683 6.32304 0
M  V30 24807 H 2352.66 -3.66136 5.31615 0
M  V30 24808 H 2353.43 -3.52417 7.38745 0
M  V30 24809 N 2356.09 -1.09114 -1.13719 0
M  V30 24810 C 2357.32 -0.847086 -1.89312 0
M  V30 24811 C 2357.74 0.595743 -1.78417 0
M  V30 24812 O 2357.1 1.41821 -1.12944 0
M  V30 24813 C 2357.15 -1.2829 -3.37008 0
M  V30 24814 O 2356.25 -0.439339 -4.10053 0
M  V30 24815 H 2355.59 -0.307054 -0.588739 0
M  V30 24816 H 2358.12 -1.45444 -1.439 0
M  V30 24817 H 2358.13 -1.2669 -3.87832 0
M  V30 24818 H 2356.81 -2.33369 -3.44256 0
M  V30 24819 H 2355.38 -0.519377 -3.69265 0
M  V30 24820 N 2357.57 1.30887 -0.877861 0
M  V30 24821 C 2358.85 1.91188 -0.413085 0
M  V30 24822 C 2359.23 1.79834 1.10557 0
M  V30 24823 O 2358.57 1.21102 1.93769 0
M  V30 24824 C 2358.78 3.37109 -0.90325 0
M  V30 24825 C 2360.13 4.14199 -0.934023 0
M  V30 24826 O 2361.16 3.45923 -0.849434 0
M  V30 24827 O 2360.02 5.36165 -1.05781 0
M  V30 24828 H 2357.11 0.817491 -0.12505 0
M  V30 24829 H 2359.66 1.39502 -0.966293 0
M  V30 24830 H 2358.43 3.39424 -1.94698 0
M  V30 24831 H 2358.05 3.96238 -0.328801 0
M  V30 24832 N 2359.05 0.638091 1.44105 0
M  V30 24833 C 2360.28 0.15243 2.06037 0
M  V30 24834 C 2360.69 -1.18105 1.4781 0
M  V30 24835 O 2360.03 -1.7369 0.598123 0
M  V30 24836 C 2360.09 -0.0293082 3.59488 0
M  V30 24837 C 2359.75 1.2271 4.40217 0
M  V30 24838 C 2360.75 2.1524 4.73252 0
M  V30 24839 C 2358.44 1.46446 4.80478 0
M  V30 24840 C 2360.43 3.29811 5.45439 0
M  V30 24841 C 2358.12 2.61313 5.52412 0
M  V30 24842 C 2359.12 3.52822 5.84813 0
M  V30 24843 O 2358.8 4.65685 6.55281 0
M  V30 24844 H 2358.54 0.0801518 0.671231 0
M  V30 24845 H 2361.09 0.874596 1.85849 0
M  V30 24846 H 2359.32 -0.806692 3.78192 0
M  V30 24847 H 2361.01 -0.470404 4.03165 0
M  V30 24848 H 2361.77 1.98139 4.4268 0
M  V30 24849 H 2357.65 0.761056 4.54675 0
M  V30 24850 H 2361.2 4.01259 5.70646 0
M  V30 24851 H 2357.09 2.78354 5.824 0
M  V30 24852 H 2357.86 4.64756 6.73754 0
M  V30 24853 N 2360.53 -1.52973 0.379063 0
M  V30 24854 C 2361.75 -2.06341 -0.209317 0
M  V30 24855 C 2362.18 -1.24975 -1.4058 0
M  V30 24856 O 2361.53 -0.272186 -1.79245 0
M  V30 24857 C 2361.58 -3.56103 -0.567723 0
M  V30 24858 O 2360.69 -3.77378 -1.66312 0
M  V30 24859 H 2360.03 -0.663439 -0.0272802 0
M  V30 24860 H 2362.56 -1.97247 0.54357 0
M  V30 24861 H 2362.57 -3.99366 -0.834933 0
M  V30 24862 H 2361.24 -4.14765 0.307086 0
M  V30 24863 H 2359.82 -3.46008 -1.39042 0
M  V30 24864 N 2362 -0.108595 -1.57225 0
M  V30 24865 C 2363.42 0.24803 -1.57661 0
M  V30 24866 C 2363.62 1.67462 -1.12066 0
M  V30 24867 O 2362.68 2.39382 -0.803278 0
M  V30 24868 C 2363.99 0.0241758 -3.0069 0
M  V30 24869 C 2365.54 0.0908822 -3.12868 0
M  V30 24870 C 2366.01 -0.105148 -4.57879 0
M  V30 24871 N 2367.5 -0.050766 -4.63172 0
M  V30 24872 C 2368.24 -0.177497 -5.73125 0
M  V30 24873 N 2367.73 -0.359817 -6.91865 0
M  V30 24874 N 2369.53 -0.117808 -5.61977 0
M  V30 24875 H 2361.68 -1.04052 -1.85167 0
M  V30 24876 H 2363.94 -0.408895 -0.855283 0
M  V30 24877 H 2363.65 -0.961663 -3.38297 0
M  V30 24878 H 2363.52 0.760615 -3.69452 0
M  V30 24879 H 2365.91 1.06724 -2.75126 0
M  V30 24880 H 2365.99 -0.677268 -2.46671 0
M  V30 24881 H 2365.63 -1.07843 -4.96319 0
M  V30 24882 H 2365.56 0.682862 -5.22154 0
M  V30 24883 H 2368.05 0.0870602 -3.778 0
M  V30 24884 H 2368.37 -0.447665 -7.71502 0
M  V30 24885 H 2366.71 -0.395658 -6.93873 0
M  V30 24886 H 2369.9 0.0235919 -4.68094 0
M  V30 24887 H 2370.08 -0.220019 -6.47626 0
M  V30 24888 N 2363.48 1.56732 0.16515 0
M  V30 24889 C 2364.73 1.82342 0.880775 0
M  V30 24890 C 2365.06 0.686653 1.81976 0
M  V30 24891 O 2364.31 -0.325663 1.92971 0
M  V30 24892 C 2364.61 3.14163 1.704 0
M  V30 24893 C 2364.28 4.41552 0.913397 0
M  V30 24894 C 2362.94 4.76151 0.69522 0
M  V30 24895 C 2365.29 5.1996 0.359257 0
M  V30 24896 C 2362.62 5.86634 -0.0880978 0
M  V30 24897 C 2364.97 6.31263 -0.411004 0
M  V30 24898 C 2363.63 6.64425 -0.639925 0
M  V30 24899 H 2362.9 0.667237 0.322299 0
M  V30 24900 H 2365.55 1.90947 0.145369 0
M  V30 24901 H 2363.86 3.00928 2.50898 0
M  V30 24902 H 2365.55 3.3119 2.26085 0
M  V30 24903 H 2362.14 4.14416 1.09349 0
M  V30 24904 H 2366.33 4.93619 0.515141 0
M  V30 24905 H 2361.58 6.10781 -0.275137 0
M  V30 24906 H 2365.76 6.91222 -0.847615 0
M  V30 24907 H 2363.38 7.49873 -1.24877 0
M  V30 24908 N 2364.96 -0.433911 1.51509 0
M  V30 24909 C 2366.38 -0.770658 1.39761 0
M  V30 24910 C 2366.58 -1.95635 0.482628 0
M  V30 24911 O 2365.63 -2.52426 -0.0609248 0
M  V30 24912 C 2366.95 -1.04782 2.81853 0
M  V30 24913 C 2368.49 -1.15204 2.91027 0
M  V30 24914 C 2368.97 -1.46212 4.34035 0
M  V30 24915 N 2370.46 -1.53129 4.37157 0
M  V30 24916 C 2371.19 -1.78699 5.44843 0
M  V30 24917 N 2370.69 -2.02039 6.62685 0
M  V30 24918 N 2372.48 -1.8051 5.32328 0
M  V30 24919 H 2364.63 0.346929 2.09548 0
M  V30 24920 H 2366.9 0.092824 0.943445 0
M  V30 24921 H 2366.6 -0.249242 3.50816 0
M  V30 24922 H 2366.48 -1.97456 3.21389 0
M  V30 24923 H 2368.86 -1.94124 2.22261 0
M  V30 24924 H 2368.95 -0.204236 2.54983 0
M  V30 24925 H 2368.59 -0.678185 5.03352 0
M  V30 24926 H 2368.52 -2.42204 4.67595 0
M  V30 24927 H 2371.01 -1.36981 3.522 0
M  V30 24928 H 2371.32 -2.2093 7.40547 0
M  V30 24929 H 2369.67 -1.99354 6.65795 0
M  V30 24930 H 2372.86 -1.61797 4.39249 0
M  V30 24931 H 2373.03 -2.001 6.16331 0
M  V30 24932 N 2366.44 -1.41713 -0.689577 0
M  V30 24933 C 2367.37 -1.4681 -1.81574 0
M  V30 24934 C 2368.35 -0.326134 -1.66944 0
M  V30 24935 O 2369.53 -0.53841 -1.86587 0
M  V30 24936 C 2366.66 -1.35541 -3.19759 0
M  V30 24937 C 2365.62 -2.47611 -3.49103 0
M  V30 24938 C 2364.94 -2.21405 -4.86707 0
M  V30 24939 C 2366.24 -3.89945 -3.47477 0
M  V30 24940 H 2367.94 -2.41061 -1.77566 0
M  V30 24941 H 2365.48 -1.16027 -0.852866 0
M  V30 24942 H 2367.44 -1.37717 -3.98261 0
M  V30 24943 H 2366.16 -0.377765 -3.24408 0
M  V30 24944 H 2364.82 -2.44727 -2.72955 0
M  V30 24945 H 2364.47 -1.21969 -4.87988 0
M  V30 24946 H 2364.17 -2.96506 -5.07304 0
M  V30 24947 H 2365.69 -2.25307 -5.67511 0
M  V30 24948 H 2367.11 -3.94512 -4.15973 0
M  V30 24949 H 2365.5 -4.64778 -3.79607 0
M  V30 24950 H 2366.57 -4.1767 -2.46333 0
M  V30 24951 N 2367.92 0.924431 -1.2764 0
M  V30 24952 C 2368.85 2.04242 -1.1317 0
M  V30 24953 C 2369.83 1.70069 -0.0322859 0
M  V30 24954 O 2371.01 1.9309 -0.207362 0
M  V30 24955 C 2368.14 3.38392 -0.781556 0
M  V30 24956 C 2367.1 3.86688 -1.83456 0
M  V30 24957 C 2366.42 5.17681 -1.33831 0
M  V30 24958 C 2367.72 4.0972 -3.23924 0
M  V30 24959 H 2369.42 2.16607 -2.06693 0
M  V30 24960 H 2366.96 1.0408 -0.995155 0
M  V30 24961 H 2368.92 4.16086 -0.66713 0
M  V30 24962 H 2367.64 3.2605 0.189381 0
M  V30 24963 H 2366.3 3.1119 -1.93794 0
M  V30 24964 H 2365.95 5.01733 -0.356738 0
M  V30 24965 H 2365.65 5.50965 -2.04234 0
M  V30 24966 H 2367.17 5.97941 -1.23689 0
M  V30 24967 H 2368.58 4.77973 -3.16567 0
M  V30 24968 H 2366.98 4.54317 -3.92067 0
M  V30 24969 H 2368.05 3.14901 -3.68735 0
M  V30 24970 N 2369.39 1.09715 1.13139 0
M  V30 24971 C 2370.64 0.836257 1.84755 0
M  V30 24972 C 2370.97 -0.636566 1.83471 0
M  V30 24973 O 2370.25 -1.46887 1.27493 0
M  V30 24974 C 2370.53 1.37584 3.3278 0
M  V30 24975 C 2370.38 2.91499 3.42562 0
M  V30 24976 C 2371.7 1.01206 4.28305 0
M  V30 24977 H 2368.82 0.305248 0.670815 0
M  V30 24978 H 2371.46 1.35905 1.32777 0
M  V30 24979 H 2369.61 0.931164 3.77176 0
M  V30 24980 H 2371.29 3.44438 3.06856 0
M  V30 24981 H 2369.53 3.2848 2.83343 0
M  V30 24982 H 2370.2 3.24332 4.46668 0
M  V30 24983 H 2372.68 1.39563 3.91997 0
M  V30 24984 H 2371.55 1.41662 5.30305 0
M  V30 24985 H 2371.81 -0.0794056 4.42029 0
M  V30 24986 N 2370.87 -1.30419 0.88479 0
M  V30 24987 C 2371.82 -2.25702 0.322886 0
M  V30 24988 C 2372.81 -1.5126 -0.548556 0
M  V30 24989 O 2374 -1.72582 -0.39301 0
M  V30 24990 C 2371.13 -3.40181 -0.461728 0
M  V30 24991 C 2370.21 -4.21977 0.423792 0
M  V30 24992 N 2370.6 -4.82289 1.52416 0
M  V30 24993 C 2368.9 -4.45463 0.218873 0
M  V30 24994 C 2369.6 -5.43568 2.07145 0
M  V30 24995 N 2368.58 -5.26146 1.36644 0
M  V30 24996 H 2372.38 -2.69881 1.16368 0
M  V30 24997 H 2369.9 -1.44857 0.734176 0
M  V30 24998 H 2371.89 -4.07487 -0.880913 0
M  V30 24999 H 2370.55 -2.97542 -1.29996 0
M  V30 25000 H 2371.56 -4.81512 1.90701 0
M  V30 25001 H 2368.24 -4.13421 -0.582202 0
M  V30 25002 H 2369.63 -6.01432 2.99549 0
M  V30 25003 N 2372.35 -0.645724 -1.43764 0
M  V30 25004 C 2373.3 0.0726042 -2.27884 0
M  V30 25005 C 2374.28 0.802061 -1.39484 0
M  V30 25006 O 2375.48 0.685763 -1.63176 0
M  V30 25007 C 2372.61 1.0435 -3.27056 0
M  V30 25008 C 2371.69 0.31291 -4.22944 0
M  V30 25009 N 2372.08 -0.666474 -5.0139 0
M  V30 25010 C 2370.38 0.555383 -4.42529 0
M  V30 25011 C 2371.08 -1.09945 -5.71215 0
M  V30 25012 N 2370.06 -0.435233 -5.41855 0
M  V30 25013 H 2373.86 -0.679039 -2.85948 0
M  V30 25014 H 2371.37 -0.472396 -1.55378 0
M  V30 25015 H 2373.37 1.57285 -3.86092 0
M  V30 25016 H 2372.03 1.79529 -2.70554 0
M  V30 25017 H 2373.04 -1.0449 -5.0725 0
M  V30 25018 H 2369.72 1.28892 -3.97106 0
M  V30 25019 H 2371.11 -1.9094 -6.44198 0
M  V30 25020 N 2373.83 1.5277 -0.38717 0
M  V30 25021 C 2374.76 2.29307 0.440511 0
M  V30 25022 C 2375.74 1.32607 1.06533 0
M  V30 25023 O 2376.92 1.61499 1.0785 0
M  V30 25024 C 2374.05 3.09831 1.56914 0
M  V30 25025 C 2373.01 4.14397 1.07047 0
M  V30 25026 C 2372.33 4.83133 2.291 0
M  V30 25027 C 2373.63 5.22113 0.139923 0
M  V30 25028 H 2375.33 2.98744 -0.198079 0
M  V30 25029 H 2372.87 1.43675 -0.0967052 0
M  V30 25030 H 2374.83 3.62131 2.15497 0
M  V30 25031 H 2373.55 2.38123 2.23528 0
M  V30 25032 H 2372.21 3.63075 0.507183 0
M  V30 25033 H 2371.86 4.07975 2.94219 0
M  V30 25034 H 2371.56 5.53807 1.96396 0
M  V30 25035 H 2373.08 5.38236 2.8833 0
M  V30 25036 H 2374.5 5.69785 0.633878 0
M  V30 25037 H 2372.89 6.00021 -0.097254 0
M  V30 25038 H 2373.96 4.78056 -0.811795 0
M  V30 25039 N 2375.31 0.116931 1.57166 0
M  V30 25040 C 2376.55 -0.54468 1.97009 0
M  V30 25041 C 2376.91 -1.63979 0.998742 0
M  V30 25042 O 2378.11 -2.36015 1.28648 0
M  V30 25043 C 2376.38 -1.06553 3.41147 0
M  V30 25044 S 2377.94 -1.73596 4.03001 0
M  V30 25045 H 2374.76 -0.1771 0.68859 0
M  V30 25046 H 2377.36 0.201521 1.94459 0
M  V30 25047 H 2376.07 -0.257302 4.09593 0
M  V30 25048 H 2375.6 -1.84706 3.47343 0
M  V30 25049 H 2377.61 -3.02161 3.9359 0
M  V30 25050 N 2376.78 -1.56818 -0.156836 0
M  V30 25051 C 2378.01 -1.86956 -0.886283 0
M  V30 25052 C 2378.43 -0.704006 -1.75183 0
M  V30 25053 O 2377.78 0.326521 -1.79555 0
M  V30 25054 C 2377.84 -3.16257 -1.75112 0
M  V30 25055 O 2377.56 -4.28321 -0.920461 0
M  V30 25056 C 2379.06 -3.59842 -2.58899 0
M  V30 25057 H 2376.28 -0.619928 -0.256769 0
M  V30 25058 H 2378.82 -2.0393 -0.152579 0
M  V30 25059 H 2376.98 -3.01066 -2.43799 0
M  V30 25060 H 2377.39 -5.02195 -1.51329 0
M  V30 25061 H 2378.86 -4.53178 -3.15172 0
M  V30 25062 H 2379.34 -2.84655 -3.34467 0
M  V30 25063 H 2379.95 -3.77693 -1.95519 0
M  V30 25064 N 2378.26 0.425871 -1.51737 0
M  V30 25065 C 2379.49 1.20105 -1.69084 0
M  V30 25066 C 2379.91 1.83961 -0.39243 0
M  V30 25067 O 2379.27 1.69303 0.648551 0
M  V30 25068 C 2379.32 2.25232 -2.81608 0
M  V30 25069 O 2378.42 3.30988 -2.4601 0
M  V30 25070 H 2377.76 0.35137 -0.563414 0
M  V30 25071 H 2380.29 0.501477 -1.98359 0
M  V30 25072 H 2380.3 2.69833 -3.0603 0
M  V30 25073 H 2378.98 1.78135 -3.7582 0
M  V30 25074 H 2377.56 2.91783 -2.322 0
M  V30 25075 N 2379.74 1.42077 0.682052 0
M  V30 25076 C 2380.69 1.41447 1.78821 0
M  V30 25077 C 2381.67 0.286837 1.58323 0
M  V30 25078 O 2382.87 0.528527 1.68925 0
M  V30 25079 C 2380 1.31226 3.1723 0
M  V30 25080 C 2379.08 2.48906 3.43376 0
M  V30 25081 N 2379.47 3.74346 3.40145 0
M  V30 25082 C 2377.77 2.4301 3.73981 0
M  V30 25083 C 2378.47 4.52472 3.65573 0
M  V30 25084 N 2377.45 3.82777 3.85983 0
M  V30 25085 H 2381.25 2.36337 1.74706 0
M  V30 25086 H 2378.76 1.36323 0.882598 0
M  V30 25087 H 2380.76 1.28857 3.96487 0
M  V30 25088 H 2379.42 0.37332 3.22547 0
M  V30 25089 H 2380.43 4.07043 3.20213 0
M  V30 25090 H 2377.11 1.57658 3.86588 0
M  V30 25091 H 2378.5 5.61441 3.69098 0
M  V30 25092 N 2381.22 -0.917649 1.28129 0
M  V30 25093 C 2382.45 -1.69778 1.17725 0
M  V30 25094 C 2382.86 -1.87303 -0.267228 0
M  V30 25095 O 2382.2 -1.39704 -1.19284 0
M  V30 25096 C 2382.26 -3.11213 1.79964 0
M  V30 25097 C 2381.93 -3.16987 3.29193 0
M  V30 25098 C 2382.92 -2.98477 4.25684 0
M  V30 25099 C 2380.61 -3.39625 3.70081 0
M  V30 25100 C 2382.6 -3.02511 5.6104 0
M  V30 25101 C 2380.29 -3.43291 5.05563 0
M  V30 25102 C 2381.29 -3.24754 6.00853 0
M  V30 25103 O 2380.98 -3.28174 7.33864 0
M  V30 25104 H 2380.71 -0.537627 0.409797 0
M  V30 25105 H 2383.26 -1.15725 1.69696 0
M  V30 25106 H 2381.49 -3.6679 1.22481 0
M  V30 25107 H 2383.18 -3.71235 1.64132 0
M  V30 25108 H 2383.95 -2.80819 3.95431 0
M  V30 25109 H 2379.83 -3.53101 2.96379 0
M  V30 25110 H 2383.37 -2.8796 6.35393 0
M  V30 25111 H 2379.27 -3.60477 5.35469 0
M  V30 25112 H 2380.03 -3.44562 7.42442 0
M  V30 25113 N 2382.7 -1.10314 -1.12555 0
M  V30 25114 C 2383.63 -0.772837 -2.20339 0
M  V30 25115 C 2384.61 0.25362 -1.68199 0
M  V30 25116 O 2385.79 0.119665 -1.93831 0
M  V30 25117 C 2382.92 -0.202504 -3.46709 0
M  V30 25118 C 2381.88 -1.15951 -4.11994 0
M  V30 25119 C 2381.2 -0.450438 -5.32799 0
M  V30 25120 C 2382.5 -2.5056 -4.58276 0
M  V30 25121 H 2384.2 -1.67405 -2.48226 0
M  V30 25122 H 2381.74 -0.806347 -1.19307 0
M  V30 25123 H 2383.7 0.0407012 -4.2138 0
M  V30 25124 H 2382.42 0.733945 -3.18246 0
M  V30 25125 H 2381.08 -1.38814 -3.39302 0
M  V30 25126 H 2380.73 0.490443 -5.00603 0
M  V30 25127 H 2380.43 -1.08862 -5.77428 0
M  V30 25128 H 2381.95 -0.215749 -6.10219 0
M  V30 25129 H 2383.37 -2.31852 -5.24326 0
M  V30 25130 H 2381.76 -3.10251 -5.13677 0
M  V30 25131 H 2382.83 -3.1065 -3.72323 0
M  V30 25132 N 2384.18 1.29948 -0.891694 0
M  V30 25133 C 2385.45 1.90739 -0.43334 0
M  V30 25134 C 2385.83 1.80997 1.08643 0
M  V30 25135 O 2385.18 1.23151 1.92474 0
M  V30 25136 C 2385.39 3.36132 -0.938955 0
M  V30 25137 C 2386.74 4.13185 -0.977902 0
M  V30 25138 O 2387.76 3.45003 -0.886076 0
M  V30 25139 O 2386.62 5.35013 -1.11462 0
M  V30 25140 H 2383.72 0.816119 -0.133713 0
M  V30 25141 H 2386.26 1.38469 -0.981035 0
M  V30 25142 H 2385.03 3.3734 -1.98287 0
M  V30 25143 H 2384.66 3.95867 -0.370809 0
M  V30 25144 N 2385.65 0.653339 1.4342 0
M  V30 25145 C 2386.58 -0.0246246 2.33487 0
M  V30 25146 C 2387.56 -0.811837 1.49476 0
M  V30 25147 O 2388.75 -0.773291 1.7814 0
M  V30 25148 C 2385.88 -0.991601 3.32843 0
M  V30 25149 C 2384.83 -0.314493 4.26843 0
M  V30 25150 C 2384.16 -1.39292 5.16238 0
M  V30 25151 C 2385.46 0.793186 5.16242 0
M  V30 25152 H 2387.15 0.727532 2.90426 0
M  V30 25153 H 2384.7 0.351312 1.39649 0
M  V30 25154 H 2386.65 -1.4748 3.9475 0
M  V30 25155 H 2385.38 -1.77492 2.74161 0
M  V30 25156 H 2384.04 0.148264 3.663 0
M  V30 25157 H 2383.68 -2.16768 4.53895 0
M  V30 25158 H 2383.38 -0.945121 5.79949 0
M  V30 25159 H 2384.91 -1.87749 5.81019 0
M  V30 25160 H 2386.32 0.39214 5.71957 0
M  V30 25161 H 2384.72 1.16547 5.88674 0
M  V30 25162 H 2385.79 1.65111 4.55924 0
M  V30 25163 N 2387.13 -1.52563 0.395266 0
M  V30 25164 C 2388.38 -2.01653 -0.185008 0
M  V30 25165 C 2388.71 -1.28149 -1.46315 0
M  V30 25166 O 2387.96 -0.372108 -1.9213 0
M  V30 25167 C 2388.26 -3.53978 -0.493382 0
M  V30 25168 C 2387.93 -4.45528 0.693918 0
M  V30 25169 C 2386.59 -4.70273 1.01962 0
M  V30 25170 C 2388.94 -4.9951 1.48794 0
M  V30 25171 C 2386.27 -5.46248 2.14079 0
M  V30 25172 C 2388.62 -5.76711 2.59975 0
M  V30 25173 C 2387.28 -5.99733 2.93047 0
M  V30 25174 H 2386.55 -0.737901 -0.0676994 0
M  V30 25175 H 2389.2 -1.83909 0.533839 0
M  V30 25176 H 2387.51 -3.69828 -1.29363 0
M  V30 25177 H 2389.2 -3.8946 -0.955095 0
M  V30 25178 H 2385.79 -4.26437 0.430062 0
M  V30 25179 H 2389.98 -4.80313 1.24954 0
M  V30 25180 H 2385.23 -5.62297 2.40066 0
M  V30 25181 H 2389.41 -6.17539 3.21898 0
M  V30 25182 H 2387.03 -6.58386 3.80042 0
M  V30 25183 N 2388.61 -0.125265 -1.57101 0
M  V30 25184 C 2389.86 0.531061 -1.94583 0
M  V30 25185 C 2390.17 1.67429 -1.01129 0
M  V30 25186 O 2391.38 2.39379 -1.28101 0
M  V30 25187 C 2389.83 0.996103 -3.45841 0
M  V30 25188 C 2389.44 -0.119004 -4.47842 0
M  V30 25189 C 2391.19 1.62345 -3.9223 0
M  V30 25190 C 2389.09 0.363089 -5.90284 0
M  V30 25191 H 2388.02 0.202157 -0.726394 0
M  V30 25192 H 2390.67 -0.206124 -1.82339 0
M  V30 25193 H 2389.06 1.7879 -3.53342 0
M  V30 25194 H 2390.23 -0.895437 -4.52016 0
M  V30 25195 H 2388.54 -0.653396 -4.11242 0
M  V30 25196 H 2391.14 1.99539 -4.96073 0
M  V30 25197 H 2391.48 2.50423 -3.32557 0
M  V30 25198 H 2392.02 0.896951 -3.87556 0
M  V30 25199 H 2388.76 -0.481794 -6.53727 0
M  V30 25200 H 2388.28 1.10587 -5.89517 0
M  V30 25201 H 2389.96 0.822264 -6.41754 0
M  V30 25202 N 2390.09 1.56899 0.148518 0
M  V30 25203 C 2391.32 1.87424 0.876356 0
M  V30 25204 C 2391.73 0.713287 1.74807 0
M  V30 25205 O 2391.09 -0.316994 1.79726 0
M  V30 25206 C 2391.14 3.17181 1.73432 0
M  V30 25207 O 2390.86 4.28803 0.897734 0
M  V30 25208 C 2392.36 3.6121 2.56987 0
M  V30 25209 H 2389.58 0.621281 0.253478 0
M  V30 25210 H 2392.12 2.04008 0.141762 0
M  V30 25211 H 2390.28 3.02355 2.42199 0
M  V30 25212 H 2390.69 5.02991 1.48663 0
M  V30 25213 H 2392.17 4.54843 3.12765 0
M  V30 25214 H 2392.64 2.86425 3.32952 0
M  V30 25215 H 2393.25 3.78725 1.93513 0
M  V30 25216 N 2391.57 -0.417818 1.51961 0
M  V30 25217 C 2392.81 -1.16326 1.65265 0
M  V30 25218 C 2393.13 -1.91248 0.380667 0
M  V30 25219 O 2392.4 -1.8635 -0.604181 0
M  V30 25220 H 2390.98 -0.432403 0.609128 0
M  V30 25221 H 2393.65 -0.477129 1.8897 0
M  V30 25222 H 2392.74 -1.88212 2.48963 0
M  V30 25223 N 2393.04 -1.42436 -0.674508 0
M  V30 25224 C 2394.29 -1.43133 -1.43669 0
M  V30 25225 C 2394.62 -0.0476362 -1.94142 0
M  V30 25226 O 2393.9 0.928158 -1.70925 0
M  V30 25227 C 2394.18 -2.45598 -2.63351 0
M  V30 25228 C 2394.03 -3.9316 -2.18507 0
M  V30 25229 C 2395.35 -2.45049 -3.65567 0
M  V30 25230 H 2392.47 -0.521207 -0.521068 0
M  V30 25231 H 2395.11 -1.73852 -0.766521 0
M  V30 25232 H 2393.26 -2.19534 -3.20526 0
M  V30 25233 H 2394.94 -4.30205 -1.66497 0
M  V30 25234 H 2393.18 -4.07012 -1.50079 0
M  V30 25235 H 2393.85 -4.60433 -3.04475 0
M  V30 25236 H 2396.33 -2.68228 -3.18108 0
M  V30 25237 H 2395.2 -3.18721 -4.46887 0
M  V30 25238 H 2395.46 -1.47656 -4.16713 0
M  V30 25239 N 2394.52 0.910841 -1.28614 0
M  V30 25240 C 2395.77 1.65486 -1.15314 0
M  V30 25241 C 2396.08 1.93333 0.296965 0
M  V30 25242 O 2397.29 2.65848 0.551121 0
M  V30 25243 C 2395.75 2.98134 -2.01604 0
M  V30 25244 C 2395.35 2.77924 -3.51372 0
M  V30 25245 C 2397.1 3.76021 -1.96999 0
M  V30 25246 C 2395 4.0623 -4.29804 0
M  V30 25247 H 2393.93 0.620771 -0.427971 0
M  V30 25248 H 2396.59 1.01054 -1.53167 0
M  V30 25249 H 2394.97 3.63716 -1.56609 0
M  V30 25250 H 2396.14 2.21003 -4.04344 0
M  V30 25251 H 2394.46 2.13446 -3.57533 0
M  V30 25252 H 2397.05 4.7113 -2.52864 0
M  V30 25253 H 2397.4 4.05376 -0.947401 0
M  V30 25254 H 2397.93 3.17262 -2.39979 0
M  V30 25255 H 2394.67 3.82046 -5.32655 0
M  V30 25256 H 2394.19 4.62751 -3.81604 0
M  V30 25257 H 2395.87 4.74465 -4.39877 0
M  V30 25258 N 2396 1.10909 1.11969 0
M  V30 25259 C 2397.25 0.852852 1.83224 0
M  V30 25260 C 2397.57 -0.623309 1.8477 0
M  V30 25261 O 2396.84 -1.45267 1.31432 0
M  V30 25262 H 2395.42 0.312519 0.678484 0
M  V30 25263 H 2398.08 1.40036 1.35558 0
M  V30 25264 H 2397.18 1.2201 2.87263 0
M  V30 25265 N 2397.48 -1.29474 0.898573 0
M  V30 25266 C 2398.41 -2.30185 0.392051 0
M  V30 25267 C 2399.39 -1.61556 -0.532331 0
M  V30 25268 O 2400.57 -1.89073 -0.443298 0
M  V30 25269 C 2397.7 -3.4519 -0.382293 0
M  V30 25270 C 2396.66 -4.25611 0.451558 0
M  V30 25271 C 2395.98 -5.32801 -0.450214 0
M  V30 25272 C 2397.28 -4.93829 1.70088 0
M  V30 25273 H 2398.98 -2.72802 1.23367 0
M  V30 25274 H 2396.52 -1.31148 0.594661 0
M  V30 25275 H 2398.48 -4.14719 -0.747378 0
M  V30 25276 H 2397.2 -3.01413 -1.25769 0
M  V30 25277 H 2395.86 -3.57788 0.79896 0
M  V30 25278 H 2395.51 -4.8527 -1.32371 0
M  V30 25279 H 2395.21 -5.87508 0.104005 0
M  V30 25280 H 2396.73 -6.05183 -0.811516 0
M  V30 25281 H 2398.15 -5.55802 1.40559 0
M  V30 25282 H 2396.54 -5.58463 2.19633 0
M  V30 25283 H 2397.61 -4.19182 2.43752 0
M  V30 25284 N 2398.96 -0.660936 -1.43071 0
M  V30 25285 C 2399.9 0.0377791 -2.32569 0
M  V30 25286 C 2400.9 0.805066 -1.49047 0
M  V30 25287 O 2402.1 0.714595 -1.65208 0
M  V30 25288 H 2398.48 0.0310058 -0.751361 0
M  V30 25289 H 2400.45 -0.73466 -2.89215 0
M  V30 25290 C 2399.2 0.985066 -3.33454 0
M  V30 25291 H 2398.52 0.404078 -3.97753 0
M  V30 25292 H 2399.96 1.4429 -3.98693 0
M  V30 25293 C 2398.42 2.08481 -2.64645 0
M  V30 25294 O 2398.95 3.16957 -2.46782 0
M  V30 25295 N 2397.16 1.85256 -2.23894 0
M  V30 25296 H 2396.7 0.970407 -2.38623 0
M  V30 25297 H 2396.66 2.59031 -1.78186 0
M  V30 25298 N 2400.43 1.52351 -0.403352 0
M  V30 25299 C 2401.68 2.02047 0.17457 0
M  V30 25300 C 2402.01 1.2887 1.4528 0
M  V30 25301 O 2401.29 0.393291 1.90482 0
M  V30 25302 C 2401.57 3.57545 0.428175 0
M  V30 25303 C 2401.42 4.41378 -0.866326 0
M  V30 25304 C 2402.74 4.23059 1.2128 0
M  V30 25305 H 2399.86 0.73439 0.0619722 0
M  V30 25306 H 2402.5 1.82292 -0.535682 0
M  V30 25307 H 2400.65 3.74509 1.03321 0
M  V30 25308 H 2402.33 4.36138 -1.50272 0
M  V30 25309 H 2400.57 4.07824 -1.47858 0
M  V30 25310 H 2401.24 5.48238 -0.643345 0
M  V30 25311 H 2403.72 4.10159 0.700631 0
M  V30 25312 H 2402.59 5.31811 1.35899 0
M  V30 25313 H 2402.85 3.81629 2.23186 0
M  V30 25314 N 2401.91 0.133594 1.57033 0
M  V30 25315 C 2403.16 -0.521614 1.95977 0
M  V30 25316 C 2403.49 -1.65391 1.01782 0
M  V30 25317 O 2402.77 -1.94414 0.0576923 0
M  V30 25318 C 2403.05 -1.04051 3.4474 0
M  V30 25319 C 2402.9 0.0893688 4.49711 0
M  V30 25320 C 2404.22 -1.92668 3.95686 0
M  V30 25321 H 2401.34 -0.188136 0.712582 0
M  V30 25322 H 2403.98 0.21211 1.88812 0
M  V30 25323 H 2402.13 -1.66577 3.50976 0
M  V30 25324 H 2403.8 0.725232 4.55563 0
M  V30 25325 H 2402.05 0.750453 4.27259 0
M  V30 25326 H 2402.72 -0.315187 5.51099 0
M  V30 25327 H 2405.19 -1.39991 3.91844 0
M  V30 25328 H 2404.07 -2.25888 5.00266 0
M  V30 25329 H 2404.33 -2.85866 3.37244 0
M  V30 25330 N 2403.39 -1.56975 -0.140195 0
M  V30 25331 C 2404.62 -1.87886 -0.866404 0
M  V30 25332 C 2405.03 -0.722547 -1.74427 0
M  V30 25333 O 2404.39 0.307458 -1.79891 0
M  V30 25334 C 2404.44 -3.18096 -1.71747 0
M  V30 25335 O 2404.16 -4.29273 -0.87498 0
M  V30 25336 C 2405.66 -3.62568 -2.55068 0
M  V30 25337 H 2402.88 -0.622616 -0.250179 0
M  V30 25338 H 2405.43 -2.0408 -0.130941 0
M  V30 25339 H 2403.58 -3.03635 -2.40592 0
M  V30 25340 H 2404 -5.03772 -1.45994 0
M  V30 25341 H 2405.47 -4.56495 -3.10348 0
M  V30 25342 H 2405.95 -2.88187 -3.31429 0
M  V30 25343 H 2406.55 -3.79746 -1.91502 0
M  V30 25344 N 2404.87 0.409753 -1.5218 0
M  V30 25345 C 2405.8 1.52013 -1.70198 0
M  V30 25346 C 2406.78 1.53031 -0.549569 0
M  V30 25347 O 2407.96 1.71748 -0.776845 0
M  V30 25348 C 2405.09 2.90544 -1.74074 0
M  V30 25349 C 2404.14 3.07439 -2.95607 0
M  V30 25350 S 2404.97 2.80819 -4.55961 0
M  V30 25351 C 2406.13 4.21582 -4.62622 0
M  V30 25352 H 2406.36 1.365 -2.64112 0
M  V30 25353 H 2403.89 0.601287 -1.42211 0
M  V30 25354 H 2405.85 3.70384 -1.76991 0
M  V30 25355 H 2404.51 3.03399 -0.812888 0
M  V30 25356 H 2403.7 4.08791 -2.94799 0
M  V30 25357 H 2403.31 2.35464 -2.90573 0
M  V30 25358 H 2405.6 5.1521 -4.3996 0
M  V30 25359 H 2406.54 4.27414 -5.64555 0
M  V30 25360 H 2406.95 4.06524 -3.91661 0
M  V30 25361 N 2406.35 1.42792 0.666944 0
M  V30 25362 C 2407.31 1.46571 1.76209 0
M  V30 25363 C 2408.31 0.352224 1.56895 0
M  V30 25364 O 2409.5 0.613393 1.63043 0
M  V30 25365 C 2406.63 1.305 3.14933 0
M  V30 25366 H 2407.82 2.44089 1.74243 0
M  V30 25367 H 2405.38 1.29355 0.877319 0
M  V30 25368 H 2406.11 0.339358 3.2252 0
M  V30 25369 H 2405.9 2.11205 3.30356 0
M  V30 25370 H 2407.39 1.36045 3.94818 0
M  V30 25371 N 2407.82 -0.904008 1.29095 0
M  V30 25372 C 2408.76 -2.00929 1.0818 0
M  V30 25373 C 2409.74 -1.62599 -0.00505442 0
M  V30 25374 O 2410.92 -1.87943 0.144798 0
M  V30 25375 C 2408.05 -3.32483 0.645955 0
M  V30 25376 C 2407.09 -3.89798 1.73088 0
M  V30 25377 S 2407.93 -4.1944 3.32912 0
M  V30 25378 C 2409.08 -5.54041 2.91186 0
M  V30 25379 H 2409.31 -2.18362 2.01756 0
M  V30 25380 H 2406.85 -1.05008 1.13193 0
M  V30 25381 H 2408.81 -4.08535 0.401203 0
M  V30 25382 H 2407.47 -3.12936 -0.270133 0
M  V30 25383 H 2406.66 -4.84803 1.37777 0
M  V30 25384 H 2406.26 -3.20419 1.92893 0
M  V30 25385 H 2408.55 -6.34334 2.37963 0
M  V30 25386 H 2409.5 -5.94274 3.85025 0
M  V30 25387 H 2409.9 -5.15694 2.29609 0
M  V30 25388 N 2409.3 -1.11501 -1.11379 0
M  V30 25389 C 2410.21 -0.786667 -2.21017 0
M  V30 25390 C 2411.23 0.220477 -1.72598 0
M  V30 25391 O 2412.4 0.0564897 -2.01321 0
M  V30 25392 C 2409.47 -0.235394 -3.459 0
M  V30 25393 C 2408.53 -1.30122 -4.09105 0
M  V30 25394 C 2407.76 -0.776161 -5.28026 0
M  V30 25395 O 2407.99 0.393561 -5.69041 0
M  V30 25396 O 2406.92 -1.54125 -5.81833 0
M  V30 25397 H 2410.75 -1.70213 -2.51518 0
M  V30 25398 H 2408.33 -0.890949 -1.19927 0
M  V30 25399 H 2410.21 0.067641 -4.21346 0
M  V30 25400 H 2408.89 0.652773 -3.1705 0
M  V30 25401 H 2407.8 -1.65728 -3.35388 0
M  V30 25402 H 2409.13 -2.1628 -4.42135 0
M  V30 25403 N 2410.78 1.28995 -0.905426 0
M  V30 25404 C 2411.73 2.2516 -0.358752 0
M  V30 25405 C 2412.72 1.52114 0.524422 0
M  V30 25406 O 2413.91 1.73185 0.365504 0
M  V30 25407 C 2411.04 3.40872 0.407549 0
M  V30 25408 C 2410.12 4.2125 -0.490871 0
M  V30 25409 N 2410.51 4.79803 -1.6007 0
M  V30 25410 C 2408.81 4.45058 -0.289714 0
M  V30 25411 C 2409.51 5.40203 -2.15767 0
M  V30 25412 N 2408.49 5.23905 -1.44997 0
M  V30 25413 H 2412.29 2.67996 -1.20646 0
M  V30 25414 H 2409.8 1.43671 -0.757128 0
M  V30 25415 H 2411.8 4.08837 0.815974 0
M  V30 25416 H 2410.46 2.99572 1.25246 0
M  V30 25417 H 2411.47 4.78417 -1.98338 0
M  V30 25418 H 2408.15 4.14295 0.516357 0
M  V30 25419 H 2409.54 5.9659 -3.09079 0
M  V30 25420 N 2412.26 0.668514 1.42719 0
M  V30 25421 C 2413.49 0.196099 2.05667 0
M  V30 25422 C 2413.9 -1.14944 1.50282 0
M  V30 25423 O 2413.24 -1.72382 0.63483 0
M  V30 25424 C 2413.3 0.0469511 3.59469 0
M  V30 25425 C 2412.97 1.3202 4.37515 0
M  V30 25426 C 2413.96 2.2523 4.6858 0
M  V30 25427 C 2411.65 1.56605 4.77263 0
M  V30 25428 C 2413.64 3.41307 5.3832 0
M  V30 25429 C 2411.33 2.72971 5.46745 0
M  V30 25430 C 2412.33 3.65147 5.77197 0
M  V30 25431 O 2412.02 4.79479 6.45256 0
M  V30 25432 H 2411.75 0.0943716 0.66938 0
M  V30 25433 H 2414.3 0.913821 1.83952 0
M  V30 25434 H 2412.53 -0.72629 3.79818 0
M  V30 25435 H 2414.22 -0.384781 4.04072 0
M  V30 25436 H 2414.99 2.07484 4.38378 0
M  V30 25437 H 2410.87 0.857328 4.52958 0
M  V30 25438 H 2414.41 4.13273 5.62007 0
M  V30 25439 H 2410.31 2.90645 5.76364 0
M  V30 25440 H 2411.07 4.78942 6.63744 0
M  V30 25441 N 2413.74 -1.52135 0.411426 0
M  V30 25442 C 2414.67 -2.24772 -0.448347 0
M  V30 25443 C 2415.68 -1.2782 -1.00826 0
M  V30 25444 O 2416.87 -1.5375 -0.906814 0
M  V30 25445 C 2413.97 -2.9678 -1.63631 0
M  V30 25446 C 2413.14 -4.20621 -1.19988 0
M  V30 25447 C 2412.2 -4.75432 -2.25501 0
M  V30 25448 O 2411.23 -5.37953 -1.85997 0
M  V30 25449 N 2412.43 -4.57205 -3.57692 0
M  V30 25450 H 2415.2 -2.99194 0.174078 0
M  V30 25451 H 2412.76 -1.60127 0.238925 0
M  V30 25452 H 2414.75 -3.30342 -2.33787 0
M  V30 25453 H 2413.32 -2.25529 -2.16461 0
M  V30 25454 H 2412.54 -3.92847 -0.326352 0
M  V30 25455 H 2413.83 -5.01039 -0.885277 0
M  V30 25456 H 2413.23 -4.07348 -3.92536 0
M  V30 25457 H 2411.78 -4.95199 -4.23818 0
M  V30 25458 N 2415.22 -0.14192 -1.5696 0
M  V30 25459 C 2416.15 0.830589 -2.13621 0
M  V30 25460 C 2417.16 1.21426 -1.08441 0
M  V30 25461 O 2418.35 1.15922 -1.35736 0
M  V30 25462 C 2415.45 2.12525 -2.63982 0
M  V30 25463 C 2414.62 1.90973 -3.93507 0
M  V30 25464 C 2413.68 3.0438 -4.29231 0
M  V30 25465 O 2412.71 2.76293 -4.97645 0
M  V30 25466 N 2413.91 4.31422 -3.88401 0
M  V30 25467 H 2416.67 0.346357 -2.97692 0
M  V30 25468 H 2414.24 0.041809 -1.61846 0
M  V30 25469 H 2416.23 2.87431 -2.84896 0
M  V30 25470 H 2414.8 2.52226 -1.84664 0
M  V30 25471 H 2414.02 1.00132 -3.81271 0
M  V30 25472 H 2415.31 1.73906 -4.78157 0
M  V30 25473 H 2414.7 4.57111 -3.33265 0
M  V30 25474 H 2413.26 5.03125 -4.14377 0
M  V30 25475 N 2416.69 1.57047 0.131868 0
M  V30 25476 C 2418.1 1.73467 0.690376 0
M  V30 25477 C 2418.46 0.758661 1.80939 0
M  V30 25478 O 2417.58 -0.0713433 2.16282 0
M  V30 25479 C 2418.18 3.14535 1.2591 0
M  V30 25480 C 2416.73 3.32504 1.76403 0
M  V30 25481 C 2415.88 2.69367 0.658531 0
M  V30 25482 H 2418.83 1.58422 -0.0939422 0
M  V30 25483 H 2418.85 3.15372 2.12886 0
M  V30 25484 H 2418.37 3.85547 0.444447 0
M  V30 25485 H 2416.47 2.66514 2.60387 0
M  V30 25486 H 2416.58 4.40574 1.88233 0
M  V30 25487 H 2414.94 2.30248 1.08895 0
M  V30 25488 H 2415.73 3.42994 -0.144931 0
M  V30 25489 N 2418.17 -0.401677 1.52395 0
M  V30 25490 C 2419.1 -1.50909 1.72508 0
M  V30 25491 C 2420.12 -1.51121 0.605494 0
M  V30 25492 O 2421.31 -1.55252 0.880855 0
M  V30 25493 C 2418.41 -2.89788 1.75716 0
M  V30 25494 C 2417.58 -3.13684 3.04829 0
M  V30 25495 C 2416.64 -4.32476 2.99751 0
M  V30 25496 O 2415.66 -4.29395 3.73642 0
M  V30 25497 N 2416.87 -5.37989 2.18056 0
M  V30 25498 H 2419.63 -1.34048 2.68051 0
M  V30 25499 H 2417.19 -0.591058 1.50725 0
M  V30 25500 H 2419.18 -3.67337 1.69841 0
M  V30 25501 H 2417.75 -3.00071 0.876144 0
M  V30 25502 H 2416.97 -2.24113 3.24294 0
M  V30 25503 H 2418.26 -3.26498 3.90227 0
M  V30 25504 H 2417.66 -5.43342 1.57466 0
M  V30 25505 H 2416.22 -6.14252 2.18032 0
M  V30 25506 N 2419.65 -1.43144 -0.659362 0
M  V30 25507 C 2420.9 -1.43723 -1.41515 0
M  V30 25508 C 2421.21 -0.062852 -1.95499 0
M  V30 25509 O 2422.42 0.0539206 -2.71446 0
M  V30 25510 C 2420.87 -2.5289 -2.56076 0
M  V30 25511 C 2420.48 -3.96406 -2.08726 0
M  V30 25512 C 2422.23 -2.62655 -3.33485 0
M  V30 25513 C 2420.13 -4.9705 -3.20461 0
M  V30 25514 H 2419.06 -0.534618 -0.531696 0
M  V30 25515 H 2421.71 -1.6911 -0.712314 0
M  V30 25516 H 2420.1 -2.20693 -3.28801 0
M  V30 25517 H 2421.27 -4.38033 -1.43052 0
M  V30 25518 H 2419.58 -3.9063 -1.44212 0
M  V30 25519 H 2422.18 -3.35025 -4.16729 0
M  V30 25520 H 2422.52 -1.6752 -3.81107 0
M  V30 25521 H 2423.06 -2.94123 -2.67837 0
M  V30 25522 H 2419.8 -5.93717 -2.77814 0
M  V30 25523 H 2419.32 -4.60041 -3.84866 0
M  V30 25524 H 2421 -5.19474 -3.85689 0
M  V30 25525 N 2421.13 0.897149 -1.29572 0
M  V30 25526 C 2422.06 2.01796 -1.17476 0
M  V30 25527 C 2423.04 1.69963 -0.0683529 0
M  V30 25528 O 2424.22 1.92606 -0.248273 0
M  V30 25529 C 2421.35 3.36658 -0.853158 0
M  V30 25530 C 2420.31 3.8271 -1.91617 0
M  V30 25531 C 2419.63 5.14726 -1.44782 0
M  V30 25532 C 2420.93 4.02757 -3.32542 0
M  V30 25533 H 2422.63 2.12174 -2.11241 0
M  V30 25534 H 2420.17 1.01946 -1.01701 0
M  V30 25535 H 2422.13 4.14577 -0.755238 0
M  V30 25536 H 2420.85 3.26379 0.120179 0
M  V30 25537 H 2419.51 3.07009 -2.00352 0
M  V30 25538 H 2419.16 5.00864 -0.463083 0
M  V30 25539 H 2418.86 5.46509 -2.15875 0
M  V30 25540 H 2420.38 5.95183 -1.36345 0
M  V30 25541 H 2421.8 4.71151 -3.26634 0
M  V30 25542 H 2420.19 4.45898 -4.01615 0
M  V30 25543 H 2421.26 3.07009 -3.75331 0
M  V30 25544 N 2422.61 1.1209 1.10786 0
M  V30 25545 C 2423.88 0.785508 1.79134 0
M  V30 25546 C 2424.26 -0.725342 1.98247 0
M  V30 25547 O 2423.61 -1.65775 1.57261 0
M  V30 25548 C 2423.82 1.55641 3.12373 0
M  V30 25549 C 2425.17 1.74007 3.87307 0
M  V30 25550 O 2426.19 1.52123 3.22082 0
M  V30 25551 O 2425.05 2.10424 5.04365 0
M  V30 25552 H 2422.15 0.285325 0.776221 0
M  V30 25553 H 2424.69 1.22472 1.17468 0
M  V30 25554 H 2423.46 2.58385 2.93859 0
M  V30 25555 H 2423.09 1.11121 3.81756 0
M  V30 25556 N 2424.08 -1.28513 0.912254 0
M  V30 25557 C 2424.99 -2.31086 0.404547 0
M  V30 25558 C 2426.01 -1.66448 -0.50704 0
M  V30 25559 O 2427.19 -1.97517 -0.393589 0
M  V30 25560 C 2424.25 -3.44944 -0.348512 0
M  V30 25561 C 2423.31 -4.25141 0.596114 0
M  V30 25562 C 2422.54 -5.33563 -0.1211 0
M  V30 25563 O 2422.77 -5.54363 -1.34307 0
M  V30 25564 O 2421.7 -5.99447 0.542822 0
M  V30 25565 H 2425.53 -2.76519 1.25583 0
M  V30 25566 H 2423.11 -1.33179 0.677022 0
M  V30 25567 H 2424.99 -4.14233 -0.773877 0
M  V30 25568 H 2423.67 -3.01596 -1.17566 0
M  V30 25569 H 2422.58 -3.58446 1.07085 0
M  V30 25570 H 2423.91 -4.72164 1.39003 0
M  V30 25571 N 2425.56 -0.676073 -1.42362 0
M  V30 25572 C 2426.53 -0.00770969 -2.29199 0
M  V30 25573 C 2427.53 0.72772 -1.43391 0
M  V30 25574 O 2428.72 0.565531 -1.64765 0
M  V30 25575 C 2425.85 0.999727 -3.25911 0
M  V30 25576 H 2427.04 -0.772039 -2.89792 0
M  V30 25577 H 2424.59 -0.438495 -1.50023 0
M  V30 25578 H 2425.33 1.7925 -2.70259 0
M  V30 25579 H 2425.11 0.475761 -3.89203 0
M  V30 25580 H 2426.6 1.46577 -3.91031 0
M  V30 25581 N 2427.04 1.51915 -0.419488 0
M  V30 25582 C 2427.97 2.3019 0.391772 0
M  V30 25583 C 2428.95 1.34837 1.03696 0
M  V30 25584 O 2430.14 1.6375 1.04401 0
M  V30 25585 C 2427.27 3.1309 1.50306 0
M  V30 25586 C 2426.22 4.16575 0.982327 0
M  V30 25587 C 2425.55 4.87884 2.18801 0
M  V30 25588 C 2426.85 5.22292 0.0291438 0
M  V30 25589 H 2428.54 2.98257 -0.261402 0
M  V30 25590 H 2426.09 1.43437 -0.127159 0
M  V30 25591 H 2428.04 3.66621 2.07767 0
M  V30 25592 H 2426.76 2.42811 2.18427 0
M  V30 25593 H 2425.42 3.64069 0.430055 0
M  V30 25594 H 2425.07 4.14124 2.855 0
M  V30 25595 H 2424.77 5.57848 1.84605 0
M  V30 25596 H 2426.29 5.44231 2.76848 0
M  V30 25597 H 2427.71 5.71001 0.512875 0
M  V30 25598 H 2426.11 5.9968 -0.224505 0
M  V30 25599 H 2427.18 4.76227 -0.913015 0
M  V30 25600 N 2428.52 0.150242 1.56882 0
M  V30 25601 C 2429.47 -0.788206 2.16924 0
M  V30 25602 C 2430.44 -1.24185 1.10305 0
M  V30 25603 O 2431.62 -1.3138 1.38361 0
M  V30 25604 C 2428.76 -2.02064 2.79758 0
M  V30 25605 C 2427.87 -1.6125 4.00777 0
M  V30 25606 C 2427.01 -2.79697 4.516 0
M  V30 25607 C 2426.05 -2.35272 5.65078 0
M  V30 25608 N 2425.18 -3.46739 6.10505 0
M  V30 25609 H 2430.02 -0.269392 2.9678 0
M  V30 25610 H 2427.56 -0.121254 1.46599 0
M  V30 25611 H 2429.52 -2.74318 3.14334 0
M  V30 25612 H 2428.15 -2.51351 2.02541 0
M  V30 25613 H 2427.2 -0.787488 3.7216 0
M  V30 25614 H 2428.51 -1.24624 4.82981 0
M  V30 25615 H 2427.67 -3.60136 4.88248 0
M  V30 25616 H 2426.41 -3.19569 3.68411 0
M  V30 25617 H 2425.41 -1.53273 5.28003 0
M  V30 25618 H 2426.64 -1.96482 6.50055 0
M  V30 25619 H 2424.58 -3.86226 5.3025 0
M  V30 25620 H 2424.5 -3.14139 6.87643 0
M  V30 25621 H 2425.77 -4.27526 6.51799 0
M  V30 25622 N 2430 -1.57115 -0.123538 0
M  V30 25623 C 2431.25 -1.83801 -0.830672 0
M  V30 25624 C 2431.56 -0.73519 -1.81258 0
M  V30 25625 O 2432.76 -0.888323 -2.56556 0
M  V30 25626 C 2431.22 -3.25855 -1.52796 0
M  V30 25627 C 2430.83 -4.44134 -0.587278 0
M  V30 25628 C 2432.57 -3.61793 -2.2205 0
M  V30 25629 C 2430.48 -5.77214 -1.28754 0
M  V30 25630 H 2429.41 -0.685528 -0.313955 0
M  V30 25631 H 2432.06 -1.8331 -0.0834037 0
M  V30 25632 H 2430.44 -3.20801 -2.32169 0
M  V30 25633 H 2431.62 -4.60475 0.17291 0
M  V30 25634 H 2429.93 -4.164 -0.00194572 0
M  V30 25635 H 2432.53 -4.58488 -2.75123 0
M  V30 25636 H 2432.87 -2.89002 -2.99639 0
M  V30 25637 H 2433.4 -3.68611 -1.4957 0
M  V30 25638 H 2430.14 -6.53163 -0.553025 0
M  V30 25639 H 2429.66 -5.64767 -2.01985 0
M  V30 25640 H 2431.34 -6.20816 -1.82199 0
M  V30 25641 N 2431.47 0.393589 -1.52606 0
M  V30 25642 C 2432.71 1.14807 -1.69112 0
M  V30 25643 C 2433.08 1.87356 -0.419723 0
M  V30 25644 O 2434.28 2.64816 -0.46108 0
M  V30 25645 C 2432.55 2.1039 -2.88913 0
M  V30 25646 S 2434.11 2.93736 -3.25983 0
M  V30 25647 H 2430.93 0.388699 -0.595343 0
M  V30 25648 H 2433.53 0.433144 -1.90641 0
M  V30 25649 H 2432.23 1.55806 -3.79675 0
M  V30 25650 H 2431.76 2.86398 -2.69703 0
M  V30 25651 H 2433.78 4.12482 -2.75813 0
M  V30 25652 N 2432.95 1.43492 0.651762 0
M  V30 25653 C 2433.9 1.49033 1.78583 0
M  V30 25654 C 2434.89 0.363796 1.65448 0
M  V30 25655 O 2436.1 0.537852 1.71776 0
M  V30 25656 H 2432.48 0.467242 0.589228 0
M  V30 25657 H 2434.45 2.44522 1.7103 0
M  V30 25658 C 2433.2 1.43187 3.16848 0
M  V30 25659 H 2432.52 2.29177 3.27594 0
M  V30 25660 H 2433.96 1.51125 3.96153 0
M  V30 25661 C 2432.42 0.149675 3.36567 0
M  V30 25662 O 2432.95 -0.78844 3.93886 0
M  V30 25663 N 2431.15 0.0593995 2.90539 0
M  V30 25664 H 2430.7 0.823618 2.44078 0
M  V30 25665 H 2430.66 -0.797799 3.04109 0
M  V30 25666 N 2434.43 -0.890264 1.30046 0
M  V30 25667 C 2435.66 -1.67242 1.21299 0
M  V30 25668 C 2436.07 -1.87828 -0.227438 0
M  V30 25669 O 2435.41 -1.42202 -1.16293 0
M  V30 25670 C 2435.47 -3.07325 1.86524 0
M  V30 25671 C 2435.14 -3.09933 3.35843 0
M  V30 25672 C 2436.13 -2.89381 4.3192 0
M  V30 25673 C 2433.82 -3.31699 3.77202 0
M  V30 25674 C 2435.81 -2.90543 5.6733 0
M  V30 25675 C 2433.5 -3.3249 5.12731 0
M  V30 25676 C 2434.5 -3.11936 6.07606 0
M  V30 25677 O 2434.19 -3.12534 7.4066 0
M  V30 25678 H 2433.92 -0.528813 0.421109 0
M  V30 25679 H 2436.47 -1.121 1.72113 0
M  V30 25680 H 2434.7 -3.6411 1.30234 0
M  V30 25681 H 2436.39 -3.6767 1.71969 0
M  V30 25682 H 2437.16 -2.72368 4.01299 0
M  V30 25683 H 2433.04 -3.46735 3.03802 0
M  V30 25684 H 2436.58 -2.74418 6.41359 0
M  V30 25685 H 2432.48 -3.49038 5.42994 0
M  V30 25686 H 2433.25 -3.28736 7.49583 0
M  V30 25687 N 2435.91 -1.12676 -1.1019 0
M  V30 25688 C 2437.16 -0.878332 -1.81572 0
M  V30 25689 C 2437.47 0.597525 -1.8625 0
M  V30 25690 O 2438.68 0.962636 -2.53861 0
M  V30 25691 C 2437.13 -1.52173 -3.26146 0
M  V30 25692 C 2436.74 -3.03255 -3.29758 0
M  V30 25693 C 2438.48 -1.35367 -4.02338 0
M  V30 25694 C 2436.39 -3.60517 -4.68809 0
M  V30 25695 H 2435.32 -0.324942 -0.680388 0
M  V30 25696 H 2437.97 -1.35355 -1.239 0
M  V30 25697 H 2436.35 -0.974172 -3.83831 0
M  V30 25698 H 2437.53 -3.64525 -2.81884 0
M  V30 25699 H 2435.84 -3.19486 -2.67053 0
M  V30 25700 H 2438.44 -1.75568 -5.05054 0
M  V30 25701 H 2438.78 -0.297627 -4.15235 0
M  V30 25702 H 2439.32 -1.87059 -3.51075 0
M  V30 25703 H 2436.06 -4.65892 -4.61112 0
M  V30 25704 H 2435.58 -3.04023 -5.1704 0
M  V30 25705 H 2437.25 -3.59726 -5.37779 0
M  V30 25706 N 2437.39 1.28028 -0.919057 0
M  V30 25707 C 2438.63 1.94747 -0.554969 0
M  V30 25708 C 2438.96 1.72305 0.90228 0
M  V30 25709 O 2438.22 1.04021 1.65766 0
M  V30 25710 C 2438.52 3.47939 -0.816917 0
M  V30 25711 C 2438.18 3.90488 -2.25455 0
M  V30 25712 C 2436.84 4.01816 -2.64759 0
M  V30 25713 C 2439.2 4.12188 -3.18984 0
M  V30 25714 C 2436.52 4.32225 -3.96734 0
M  V30 25715 C 2438.88 4.44078 -4.5053 0
M  V30 25716 C 2437.54 4.53618 -4.89681 0
M  V30 25717 H 2436.81 0.712629 -0.203077 0
M  V30 25718 H 2439.46 1.52263 -1.16139 0
M  V30 25719 H 2437.76 3.91592 -0.127746 0
M  V30 25720 H 2439.46 3.97688 -0.514308 0
M  V30 25721 H 2436.05 3.82202 -1.93958 0
M  V30 25722 H 2440.23 4.02884 -2.89824 0
M  V30 25723 H 2435.49 4.37818 -4.26762 0
M  V30 25724 H 2439.66 4.59816 -5.23013 0
M  V30 25725 H 2437.29 4.76935 -5.91977 0
M  V30 25726 N 2438.86 0.683613 1.42002 0
M  V30 25727 C 2440.09 0.218218 2.05746 0
M  V30 25728 C 2440.51 -1.12801 1.51398 0
M  V30 25729 O 2439.86 -1.70251 0.657333 0
M  V30 25730 C 2439.92 0.154194 3.61171 0
M  V30 25731 O 2439.64 1.44723 4.13505 0
M  V30 25732 C 2441.14 -0.333635 4.42043 0
M  V30 25733 H 2438.36 0.104031 0.662886 0
M  V30 25734 H 2440.9 0.932832 1.81985 0
M  V30 25735 H 2439.06 -0.511163 3.84013 0
M  V30 25736 H 2439.47 1.32641 5.07451 0
M  V30 25737 H 2440.94 -0.327326 5.51029 0
M  V30 25738 H 2441.42 -1.37045 4.17271 0
M  V30 25739 H 2442.03 0.300297 4.24239 0
M  V30 25740 N 2440.34 -1.5169 0.427538 0
M  V30 25741 C 2441.59 -2.02299 -0.142404 0
M  V30 25742 C 2441.92 -1.31164 -1.43211 0
M  V30 25743 O 2441.2 -0.423545 -1.89832 0
M  V30 25744 C 2441.48 -3.58181 -0.371238 0
M  V30 25745 C 2441.33 -4.39944 0.936436 0
M  V30 25746 C 2442.65 -4.24935 -1.14534 0
M  V30 25747 H 2439.77 -0.735283 -0.0502808 0
M  V30 25748 H 2442.41 -1.81417 0.564616 0
M  V30 25749 H 2440.56 -3.76106 -0.973493 0
M  V30 25750 H 2442.24 -4.33692 1.57192 0
M  V30 25751 H 2440.48 -4.0542 1.54327 0
M  V30 25752 H 2441.15 -5.47145 0.730484 0
M  V30 25753 H 2443.63 -4.11222 -0.63529 0
M  V30 25754 H 2442.5 -5.33905 -1.27421 0
M  V30 25755 H 2442.76 -3.85131 -2.17086 0
M  V30 25756 N 2441.82 -0.15856 -1.568 0
M  V30 25757 C 2443.07 0.489667 -1.95666 0
M  V30 25758 C 2443.38 1.65246 -1.04657 0
M  V30 25759 O 2444.59 2.36608 -1.3315 0
M  V30 25760 C 2443.05 0.922521 -3.47876 0
M  V30 25761 C 2442.65 -0.213971 -4.47489 0
M  V30 25762 C 2444.4 1.53989 -3.95585 0
M  V30 25763 C 2442.3 0.237799 -5.90922 0
M  V30 25764 H 2441.23 0.186704 -0.730519 0
M  V30 25765 H 2443.89 -0.244754 -1.8186 0
M  V30 25766 H 2442.27 1.71255 -3.57054 0
M  V30 25767 H 2443.44 -0.991115 -4.50015 0
M  V30 25768 H 2441.76 -0.740479 -4.09763 0
M  V30 25769 H 2444.35 1.88972 -5.00194 0
M  V30 25770 H 2444.7 2.43313 -3.37794 0
M  V30 25771 H 2445.23 0.814542 -3.89371 0
M  V30 25772 H 2441.97 -0.620351 -6.52558 0
M  V30 25773 H 2441.49 0.980572 -5.9173 0
M  V30 25774 H 2443.17 0.685954 -6.43353 0
M  V30 25775 N 2443.3 1.57178 0.115204 0
M  V30 25776 C 2444.55 1.85052 0.822319 0
M  V30 25777 C 2444.87 0.744199 1.797 0
M  V30 25778 O 2444.13 -0.264106 1.9391 0
M  V30 25779 C 2444.43 3.19426 1.60319 0
M  V30 25780 C 2444.09 4.44234 0.772458 0
M  V30 25781 C 2442.76 4.78122 0.543384 0
M  V30 25782 C 2445.11 5.2084 0.193654 0
M  V30 25783 C 2442.44 5.86057 -0.274686 0
M  V30 25784 C 2444.79 6.29636 -0.611628 0
M  V30 25785 C 2443.45 6.62053 -0.850983 0
M  V30 25786 H 2442.72 0.677153 0.300908 0
M  V30 25787 H 2445.37 1.91313 0.0845466 0
M  V30 25788 H 2443.67 3.08757 2.41197 0
M  V30 25789 H 2445.37 3.38215 2.15434 0
M  V30 25790 H 2441.96 4.17685 0.961096 0
M  V30 25791 H 2446.15 4.95008 0.357839 0
M  V30 25792 H 2441.4 6.09596 -0.469313 0
M  V30 25793 H 2445.58 6.88176 -1.06709 0
M  V30 25794 H 2443.2 7.45521 -1.4867 0
M  V30 25795 N 2444.78 -0.38549 1.52813 0
M  V30 25796 C 2446.02 -1.13185 1.68277 0
M  V30 25797 C 2446.36 -1.89532 0.423212 0
M  V30 25798 O 2445.63 -1.8568 -0.57908 0
M  V30 25799 C 2445.91 -2.10725 2.92005 0
M  V30 25800 C 2445.77 -1.38118 4.28069 0
M  V30 25801 C 2447.09 -3.11107 3.11288 0
M  V30 25802 H 2444.21 -0.410104 0.612359 0
M  V30 25803 H 2446.85 -0.414836 1.85416 0
M  V30 25804 H 2445 -2.7187 2.77523 0
M  V30 25805 H 2446.67 -0.799107 4.54326 0
M  V30 25806 H 2444.91 -0.683017 4.28389 0
M  V30 25807 H 2445.58 -2.09408 5.10737 0
M  V30 25808 H 2448.06 -2.60055 3.24824 0
M  V30 25809 H 2446.94 -3.76598 3.99331 0
M  V30 25810 H 2447.2 -3.80169 2.25663 0
M  V30 25811 N 2446.26 -1.43835 -0.644143 0
M  V30 25812 C 2447.19 -1.52512 -1.76812 0
M  V30 25813 C 2448.17 -0.379081 -1.65822 0
M  V30 25814 O 2449.35 -0.597498 -1.8478 0
M  V30 25815 C 2446.48 -1.45645 -3.15285 0
M  V30 25816 C 2445.44 -2.58592 -3.41049 0
M  V30 25817 C 2444.76 -2.36778 -4.79417 0
M  V30 25818 C 2446.06 -4.00803 -3.34895 0
M  V30 25819 H 2447.76 -2.46588 -1.69807 0
M  V30 25820 H 2445.3 -1.18681 -0.815521 0
M  V30 25821 H 2447.25 -1.50318 -3.93678 0
M  V30 25822 H 2445.98 -0.480781 -3.23042 0
M  V30 25823 H 2444.64 -2.53287 -2.65031 0
M  V30 25824 H 2444.29 -1.37433 -4.83861 0
M  V30 25825 H 2443.99 -3.12496 -4.97614 0
M  V30 25826 H 2445.51 -2.43248 -5.60056 0
M  V30 25827 H 2446.92 -4.07546 -4.03211 0
M  V30 25828 H 2445.32 -4.76619 -3.64628 0
M  V30 25829 H 2446.39 -4.25295 -2.32921 0
M  V30 25830 N 2447.73 0.883355 -1.30517 0
M  V30 25831 C 2448.64 2.02201 -1.18963 0
M  V30 25832 C 2449.66 1.73657 -0.109202 0
M  V30 25833 O 2450.84 1.98769 -0.324448 0
M  V30 25834 C 2447.9 3.35243 -0.883929 0
M  V30 25835 C 2446.96 3.77198 -2.04989 0
M  V30 25836 C 2446.19 5.03891 -1.75868 0
M  V30 25837 O 2446.42 5.66243 -0.687376 0
M  V30 25838 O 2445.35 5.42293 -2.61156 0
M  V30 25839 H 2449.18 2.14876 -2.1462 0
M  V30 25840 H 2446.76 1.00959 -1.10126 0
M  V30 25841 H 2448.64 4.15051 -0.728717 0
M  V30 25842 H 2447.32 3.23672 0.0427229 0
M  V30 25843 H 2446.23 2.98086 -2.26043 0
M  V30 25844 H 2447.56 3.93376 -2.95832 0
M  V30 25845 N 2449.21 1.13259 1.09591 0
M  V30 25846 C 2450.44 0.916765 1.86038 0
M  V30 25847 C 2450.86 -0.529114 1.80505 0
M  V30 25848 O 2450.22 -1.37532 1.1813 0
M  V30 25849 C 2450.27 1.40709 3.32014 0
M  V30 25850 O 2449.37 0.591225 4.0814 0
M  V30 25851 H 2448.71 0.328693 0.576937 0
M  V30 25852 H 2451.24 1.50685 1.38403 0
M  V30 25853 H 2451.25 1.40997 3.82863 0
M  V30 25854 H 2449.93 2.45985 3.35357 0
M  V30 25855 H 2448.5 0.656069 3.67083 0
M  V30 25856 N 2450.69 -1.27539 0.925834 0
M  V30 25857 C 2451.94 -1.94738 0.566126 0
M  V30 25858 C 2452.27 -1.72604 -0.890026 0
M  V30 25859 O 2451.54 -1.05402 -1.63465 0
M  V30 25860 C 2451.83 -3.48913 0.890601 0
M  V30 25861 C 2451.68 -3.80398 2.40037 0
M  V30 25862 C 2453 -4.38322 0.395178 0
M  V30 25863 H 2450.12 -0.707288 0.207152 0
M  V30 25864 H 2452.76 -1.50689 1.15727 0
M  V30 25865 H 2450.91 -3.86562 0.38752 0
M  V30 25866 H 2452.58 -3.5255 2.975 0
M  V30 25867 H 2450.82 -3.27015 2.85033 0
M  V30 25868 H 2451.5 -4.88105 2.57793 0
M  V30 25869 H 2453.97 -4.07813 0.826312 0
M  V30 25870 H 2452.85 -5.45024 0.651181 0
M  V30 25871 H 2453.11 -4.36447 -0.704721 0
M  V30 25872 N 2452.17 -0.691135 -1.41637 0
M  V30 25873 C 2453.41 -0.220228 -2.01299 0
M  V30 25874 C 2453.74 1.17868 -1.54717 0
M  V30 25875 O 2453 1.80873 -0.747225 0
M  V30 25876 C 2453.3 -0.22134 -3.56714 0
M  V30 25877 C 2452.96 -1.56716 -4.22789 0
M  V30 25878 C 2451.62 -1.93561 -4.40554 0
M  V30 25879 C 2453.98 -2.45277 -4.59879 0
M  V30 25880 C 2451.3 -3.18561 -4.92682 0
M  V30 25881 C 2453.66 -3.69604 -5.13396 0
M  V30 25882 C 2452.32 -4.06598 -5.29372 0
M  V30 25883 H 2451.59 -0.0805873 -0.736605 0
M  V30 25884 H 2454.24 -0.889349 -1.69596 0
M  V30 25885 H 2452.54 0.531322 -3.88181 0
M  V30 25886 H 2454.24 0.160476 -4.00679 0
M  V30 25887 H 2450.83 -1.27057 -4.09334 0
M  V30 25888 H 2455.01 -2.18092 -4.45813 0
M  V30 25889 H 2450.27 -3.47223 -5.03236 0
M  V30 25890 H 2454.44 -4.38417 -5.41077 0
M  V30 25891 H 2452.07 -5.03529 -5.69528 0
M  V30 25892 N 2453.65 1.51461 -0.435577 0
M  V30 25893 C 2454.59 2.27704 0.376757 0
M  V30 25894 C 2455.56 1.3122 1.01835 0
M  V30 25895 O 2456.75 1.60121 1.03759 0
M  V30 25896 C 2453.89 3.12087 1.47296 0
M  V30 25897 C 2453 4.23562 0.849669 0
M  V30 25898 C 2452.14 4.95257 1.92077 0
M  V30 25899 C 2451.17 5.98656 1.27582 0
M  V30 25900 N 2450.31 6.63766 2.28821 0
M  V30 25901 H 2455.15 2.96684 -0.279787 0
M  V30 25902 H 2452.69 1.46335 -0.149821 0
M  V30 25903 H 2454.65 3.59334 2.11978 0
M  V30 25904 H 2453.28 2.45225 2.09915 0
M  V30 25905 H 2452.33 3.80291 0.091186 0
M  V30 25906 H 2453.64 4.97648 0.33879 0
M  V30 25907 H 2452.79 5.46044 2.64425 0
M  V30 25908 H 2451.53 4.20798 2.46537 0
M  V30 25909 H 2450.54 5.47163 0.537796 0
M  V30 25910 H 2451.76 6.75072 0.738574 0
M  V30 25911 H 2449.71 5.9212 2.82365 0
M  V30 25912 H 2449.63 7.33612 1.8262 0
M  V30 25913 H 2450.89 7.19184 3.00658 0
M  V30 25914 N 2455.12 0.166873 1.56714 0
M  V30 25915 C 2456.05 -0.760874 2.20755 0
M  V30 25916 C 2457.04 -1.24242 1.1618 0
M  V30 25917 O 2458.22 -1.29639 1.44594 0
M  V30 25918 C 2455.35 -1.99218 2.84481 0
M  V30 25919 C 2454.3 -1.64665 3.95056 0
M  V30 25920 C 2453.63 -2.95224 4.4581 0
M  V30 25921 C 2454.93 -0.878064 5.14866 0
M  V30 25922 H 2456.62 -0.227077 2.98538 0
M  V30 25923 H 2454.17 -0.10778 1.43596 0
M  V30 25924 H 2456.12 -2.64618 3.27956 0
M  V30 25925 H 2454.85 -2.55004 2.04061 0
M  V30 25926 H 2453.51 -1.01635 3.5223 0
M  V30 25927 H 2453.15 -3.49041 3.62187 0
M  V30 25928 H 2452.85 -2.72861 5.20404 0
M  V30 25929 H 2454.38 -3.61662 4.91969 0
M  V30 25930 H 2455.79 -1.43456 5.55061 0
M  V30 25931 H 2454.19 -0.753633 5.95349 0
M  V30 25932 H 2455.26 0.126462 4.84735 0
M  V30 25933 N 2456.6 -1.57237 -0.106866 0
M  V30 25934 C 2457.85 -1.8576 -0.813697 0
M  V30 25935 C 2458.18 -0.754346 -1.7895 0
M  V30 25936 O 2457.46 0.238757 -1.93029 0
M  V30 25937 C 2457.74 -3.24897 -1.55288 0
M  V30 25938 C 2457.59 -4.45836 -0.595851 0
M  V30 25939 C 2458.91 -3.61768 -2.50624 0
M  V30 25940 H 2456.03 -0.675665 -0.294357 0
M  V30 25941 H 2458.67 -1.89841 -0.0776138 0
M  V30 25942 H 2456.82 -3.21548 -2.18035 0
M  V30 25943 H 2458.49 -4.61294 0.0237073 0
M  V30 25944 H 2456.74 -4.33703 0.0916953 0
M  V30 25945 H 2457.41 -5.39889 -1.14995 0
M  V30 25946 H 2459.88 -3.65985 -1.97976 0
M  V30 25947 H 2458.76 -4.60076 -2.99368 0
M  V30 25948 H 2459.02 -2.89827 -3.33845 0
M  V30 25949 N 2458.08 0.377381 -1.53015 0
M  V30 25950 C 2459.04 1.44441 -1.77959 0
M  V30 25951 C 2460.04 1.47086 -0.649789 0
M  V30 25952 O 2461.23 1.48053 -0.917923 0
M  V30 25953 C 2458.37 2.83648 -1.89094 0
M  V30 25954 H 2459.56 1.23602 -2.73245 0
M  V30 25955 H 2457.11 0.609819 -1.43913 0
M  V30 25956 H 2457.85 3.09816 -0.958347 0
M  V30 25957 H 2457.63 2.83128 -2.71258 0
M  V30 25958 H 2459.12 3.60942 -2.10026 0
M  V30 25959 N 2459.56 1.44175 0.636506 0
M  V30 25960 C 2460.81 1.46675 1.39616 0
M  V30 25961 C 2461.13 0.0973032 1.94256 0
M  V30 25962 O 2460.39 -0.900145 1.7377 0
M  V30 25963 C 2460.69 2.47009 2.58305 0
M  V30 25964 C 2460.35 3.92471 2.21985 0
M  V30 25965 C 2459.02 4.32085 2.11793 0
M  V30 25966 C 2461.37 4.84069 1.93202 0
M  V30 25967 C 2458.7 5.61228 1.70997 0
M  V30 25968 C 2461.05 6.13594 1.539 0
M  V30 25969 C 2459.71 6.52168 1.42245 0
M  V30 25970 H 2458.98 0.536721 0.510892 0
M  V30 25971 H 2461.63 1.77356 0.722297 0
M  V30 25972 H 2459.93 2.09792 3.309 0
M  V30 25973 H 2461.63 2.46192 3.16529 0
M  V30 25974 H 2458.22 3.61128 2.30834 0
M  V30 25975 H 2462.4 4.54223 1.99989 0
M  V30 25976 H 2457.66 5.89938 1.60573 0
M  V30 25977 H 2461.83 6.84032 1.30665 0
M  V30 25978 H 2459.46 7.5214 1.10406 0
M  V30 25979 N 2461.04 -0.876421 1.30983 0
M  V30 25980 C 2462.28 -1.62572 1.20061 0
M  V30 25981 C 2462.61 -1.93481 -0.242913 0
M  V30 25982 O 2461.88 -1.57726 -1.16187 0
M  V30 25983 H 2460.46 -0.602669 0.44136 0
M  V30 25984 H 2463.12 -1.0496 1.64224 0
M  V30 25985 H 2462.21 -2.57216 1.76767 0
M  V30 25986 N 2462.51 -1.13839 -1.08989 0
M  V30 25987 C 2463.76 -0.902914 -1.81256 0
M  V30 25988 C 2464.09 0.57077 -1.85937 0
M  V30 25989 O 2463.34 1.43862 -1.32673 0
M  V30 25990 C 2463.64 -1.44153 -3.27039 0
M  V30 25991 C 2463.31 -2.93282 -3.42485 0
M  V30 25992 C 2461.97 -3.33998 -3.46408 0
M  V30 25993 C 2464.32 -3.89206 -3.46653 0
M  V30 25994 C 2461.65 -4.69313 -3.52083 0
M  V30 25995 C 2464 -5.2437 -3.53863 0
M  V30 25996 C 2462.67 -5.64606 -3.56056 0
M  V30 25997 H 2461.94 -0.3304 -0.663262 0
M  V30 25998 H 2464.58 -1.42107 -1.28366 0
M  V30 25999 H 2462.89 -0.844165 -3.82598 0
M  V30 26000 H 2464.59 -1.23535 -3.81497 0
M  V30 26001 H 2461.18 -2.608 -3.40119 0
M  V30 26002 H 2465.36 -3.58834 -3.42859 0
M  V30 26003 H 2460.62 -4.99856 -3.52071 0
M  V30 26004 H 2464.79 -5.9851 -3.56033 0
M  V30 26005 H 2462.42 -6.69444 -3.60206 0
M  V30 26006 N 2463.99 1.27046 -0.932584 0
M  V30 26007 C 2465.41 1.46486 -0.63357 0
M  V30 26008 C 2465.61 1.84251 0.815714 0
M  V30 26009 O 2464.66 1.95895 1.59316 0
M  V30 26010 C 2465.98 2.55372 -1.58763 0
M  V30 26011 C 2467.53 2.69229 -1.59639 0
M  V30 26012 C 2468 3.81278 -2.53753 0
M  V30 26013 N 2469.49 3.88659 -2.51989 0
M  V30 26014 C 2470.23 4.74791 -3.21499 0
M  V30 26015 N 2469.72 5.65374 -4.00405 0
M  V30 26016 N 2471.52 4.68562 -3.10493 0
M  V30 26017 H 2463.67 1.00818 -1.86948 0
M  V30 26018 H 2465.93 0.50403 -0.802906 0
M  V30 26019 H 2465.64 2.34428 -2.62177 0
M  V30 26020 H 2465.51 3.52858 -1.33307 0
M  V30 26021 H 2467.9 2.89552 -0.569539 0
M  V30 26022 H 2467.98 1.72214 -1.89145 0
M  V30 26023 H 2467.62 3.61709 -3.56551 0
M  V30 26024 H 2467.55 4.77731 -2.21541 0
M  V30 26025 H 2470.04 3.23891 -1.94686 0
M  V30 26026 H 2470.36 6.27968 -4.50417 0
M  V30 26027 H 2468.7 5.65154 -4.04508 0
M  V30 26028 H 2471.89 3.96795 -2.48338 0
M  V30 26029 H 2472.06 5.35469 -3.64934 0
M  V30 26030 N 2465.47 0.698636 1.41269 0
M  V30 26031 C 2466.89 0.37049 1.5524 0
M  V30 26032 C 2467.09 -1.12228 1.67353 0
M  V30 26033 O 2466.14 -1.90815 1.65366 0
M  V30 26034 C 2467.46 1.1217 2.78995 0
M  V30 26035 C 2469 1.10635 2.92795 0
M  V30 26036 C 2469.48 1.83937 4.19441 0
M  V30 26037 N 2470.97 1.80922 4.26405 0
M  V30 26038 C 2471.7 2.34476 5.23267 0
M  V30 26039 N 2471.2 2.96515 6.26139 0
M  V30 26040 N 2472.99 2.24715 5.15228 0
M  V30 26041 H 2465.14 1.66678 1.31651 0
M  V30 26042 H 2467.41 0.703559 0.635381 0
M  V30 26043 H 2467.11 2.17648 2.76265 0
M  V30 26044 H 2466.99 0.702274 3.70605 0
M  V30 26045 H 2469.37 0.0598232 2.95039 0
M  V30 26046 H 2469.46 1.56486 2.0235 0
M  V30 26047 H 2469.1 2.88571 4.17959 0
M  V30 26048 H 2469.03 1.35518 5.08864 0
M  V30 26049 H 2471.52 1.35693 3.52698 0
M  V30 26050 H 2471.83 3.34939 6.96445 0
M  V30 26051 H 2470.18 3.00594 6.26633 0
M  V30 26052 H 2473.37 1.75918 4.33786 0
M  V30 26053 H 2473.54 2.66755 5.90547 0
M  V30 26054 N 2466.95 -1.51228 0.443603 0
M  V30 26055 C 2468.2 -2.0214 -0.12076 0
M  V30 26056 C 2468.52 -1.32739 -1.42164 0
M  V30 26057 O 2467.78 -0.433044 -1.90849 0
M  V30 26058 C 2468.08 -3.55369 -0.380516 0
M  V30 26059 C 2467.74 -4.43095 0.835308 0
M  V30 26060 C 2466.41 -4.66792 1.16872 0
M  V30 26061 C 2468.76 -4.94523 1.6461 0
M  V30 26062 C 2466.09 -5.39161 2.31349 0
M  V30 26063 C 2468.44 -5.68148 2.78191 0
M  V30 26064 C 2467.1 -5.90106 3.11979 0
M  V30 26065 H 2466.37 -0.739681 -0.0441893 0
M  V30 26066 H 2469.02 -1.82117 0.592078 0
M  V30 26067 H 2467.32 -3.73756 -1.17532 0
M  V30 26068 H 2469.02 -3.92301 -0.830708 0
M  V30 26069 H 2465.61 -4.24853 0.565512 0
M  V30 26070 H 2469.79 -4.76094 1.40172 0
M  V30 26071 H 2465.05 -5.54375 2.57833 0
M  V30 26072 H 2469.22 -6.06986 3.41382 0
M  V30 26073 H 2466.85 -6.45962 4.00795 0
M  V30 26074 N 2468.43 -0.175182 -1.56623 0
M  V30 26075 C 2469.67 0.468777 -1.96999 0
M  V30 26076 C 2470 1.62992 -1.06132 0
M  V30 26077 O 2469.26 1.95463 -0.0962114 0
M  V30 26078 C 2469.56 0.989803 -3.43421 0
M  V30 26079 C 2469.22 -0.055848 -4.50865 0
M  V30 26080 C 2467.88 -0.343219 -4.79974 0
M  V30 26081 C 2470.24 -0.765399 -5.15549 0
M  V30 26082 C 2467.56 -1.34546 -5.71064 0
M  V30 26083 C 2469.92 -1.75665 -6.07721 0
M  V30 26084 C 2468.58 -2.05143 -6.35195 0
M  V30 26085 H 2467.85 0.171538 -0.720872 0
M  V30 26086 H 2470.5 -0.267957 -1.89616 0
M  V30 26087 H 2468.8 1.80443 -3.47775 0
M  V30 26088 H 2470.5 1.49712 -3.72004 0
M  V30 26089 H 2467.09 0.178305 -4.28229 0
M  V30 26090 H 2471.27 -0.556599 -4.93169 0
M  V30 26091 H 2466.53 -1.57998 -5.90632 0
M  V30 26092 H 2470.7 -2.31181 -6.56908 0
M  V30 26093 H 2468.33 -2.82952 -7.05579 0
M  V30 26094 N 2469.91 1.57292 0.0985263 0
M  V30 26095 C 2470.84 1.98498 1.14592 0
M  V30 26096 C 2471.85 0.887055 1.36511 0
M  V30 26097 O 2473.04 1.1652 1.35223 0
M  V30 26098 C 2470.14 2.28576 2.50212 0
M  V30 26099 C 2469.31 3.59872 2.48617 0
M  V30 26100 C 2468.37 3.77927 3.66139 0
M  V30 26101 O 2467.4 4.49818 3.48787 0
M  V30 26102 N 2468.6 3.18244 4.85491 0
M  V30 26103 H 2471.36 2.88957 0.795227 0
M  V30 26104 H 2468.93 1.59326 0.287551 0
M  V30 26105 H 2470.92 2.37851 3.27428 0
M  V30 26106 H 2469.49 1.44141 2.77384 0
M  V30 26107 H 2468.71 3.61599 1.56972 0
M  V30 26108 H 2470 4.46134 2.44627 0
M  V30 26109 H 2469.39 2.59842 5.02492 0
M  V30 26110 H 2467.95 3.33009 5.60311 0
M  V30 26111 N 2471.38 -0.369261 1.53213 0
M  V30 26112 C 2472.66 -1.12773 1.59817 0
M  V30 26113 C 2473.04 -2.07209 0.403438 0
M  V30 26114 O 2472.39 -2.203 -0.606629 0
M  V30 26115 C 2472.6 -1.87008 2.94668 0
M  V30 26116 C 2473.95 -2.41671 3.49113 0
M  V30 26117 O 2474.97 -1.97139 2.96673 0
M  V30 26118 O 2473.83 -3.23071 4.4078 0
M  V30 26119 H 2470.92 -0.517114 0.645386 0
M  V30 26120 H 2473.47 -0.372821 1.65554 0
M  V30 26121 H 2472.24 -1.18065 3.73064 0
M  V30 26122 H 2471.86 -2.69416 2.92405 0
M  V30 26123 N 2472.86 -1.4451 -0.628851 0
M  V30 26124 C 2474.28 -1.28447 -0.947283 0
M  V30 26125 C 2474.48 -0.221907 -2.00274 0
M  V30 26126 O 2473.53 0.391427 -2.49448 0
M  V30 26127 C 2474.85 -2.65678 -1.40839 0
M  V30 26128 C 2476.39 -2.73406 -1.52374 0
M  V30 26129 C 2476.87 -4.11112 -2.01868 0
M  V30 26130 N 2478.36 -4.133 -2.09134 0
M  V30 26131 C 2479.1 -5.16704 -2.48606 0
M  V30 26132 N 2478.59 -6.30467 -2.87198 0
M  V30 26133 N 2480.38 -5.04059 -2.4876 0
M  V30 26134 H 2472.54 -2.12287 0.069135 0
M  V30 26135 H 2474.8 -0.94747 -0.0316998 0
M  V30 26136 H 2474.5 -3.44518 -0.707145 0
M  V30 26137 H 2474.38 -2.9272 -2.37897 0
M  V30 26138 H 2476.77 -1.94884 -2.21595 0
M  V30 26139 H 2476.85 -2.50103 -0.536855 0
M  V30 26140 H 2476.49 -4.90111 -1.33242 0
M  V30 26141 H 2476.42 -4.31794 -3.01432 0
M  V30 26142 H 2478.91 -3.31195 -1.81985 0
M  V30 26143 H 2479.22 -7.05179 -3.16136 0
M  V30 26144 H 2477.57 -6.33902 -2.84944 0
M  V30 26145 H 2480.76 -4.14237 -2.18002 0
M  V30 26146 H 2480.93 -5.84768 -2.79197 0
M  V30 26147 N 2474.34 0.869463 -1.31446 0
M  V30 26148 C 2475.59 1.62487 -1.2235 0
M  V30 26149 C 2475.94 1.91182 0.21617 0
M  V30 26150 O 2475.23 1.5327 1.14974 0
M  V30 26151 C 2475.43 2.96099 -2.00151 0
M  V30 26152 C 2475.26 2.8045 -3.51536 0
M  V30 26153 C 2474.03 2.79611 -4.20887 0
M  V30 26154 C 2476.22 2.55272 -4.46476 0
M  V30 26155 N 2474.21 2.55017 -5.58426 0
M  V30 26156 C 2475.58 2.39947 -5.71686 0
M  V30 26157 C 2477.63 2.40621 -4.35897 0
M  V30 26158 C 2476.34 2.1146 -6.87515 0
M  V30 26159 C 2478.36 2.13522 -5.51509 0
M  V30 26160 C 2477.72 1.98986 -6.7571 0
M  V30 26161 H 2473.82 0.598908 -0.502825 0
M  V30 26162 H 2476.41 1.02329 -1.65641 0
M  V30 26163 H 2474.58 3.54261 -1.59228 0
M  V30 26164 H 2476.31 3.60926 -1.83069 0
M  V30 26165 H 2473.06 2.92011 -3.72862 0
M  V30 26166 H 2473.49 2.4569 -6.30845 0
M  V30 26167 H 2478.13 2.50587 -3.40538 0
M  V30 26168 H 2475.85 2.00231 -7.829 0
M  V30 26169 H 2479.43 2.02985 -5.45241 0
M  V30 26170 H 2478.31 1.78313 -7.63658 0
M  V30 26171 N 2475.82 1.14415 1.08383 0
M  V30 26172 C 2476.77 0.826926 2.17404 0
M  V30 26173 C 2477.76 -0.195283 1.68271 0
M  V30 26174 O 2478.97 -0.0513575 1.79927 0
M  V30 26175 H 2475.34 0.249693 0.709336 0
M  V30 26176 H 2477.31 1.7543 2.41385 0
M  V30 26177 C 2476.06 0.32104 3.46215 0
M  V30 26178 H 2475.38 1.09897 3.84399 0
M  V30 26179 H 2476.82 0.137624 4.23777 0
M  V30 26180 C 2475.28 -0.955415 3.23069 0
M  V30 26181 O 2475.81 -2.02912 3.46684 0
M  V30 26182 N 2474.02 -0.89075 2.76612 0
M  V30 26183 H 2473.57 -0.0168362 2.57594 0
M  V30 26184 H 2473.52 -1.74537 2.61504 0
M  V30 26185 N 2477.3 -1.26549 0.939309 0
M  V30 26186 C 2478.23 -2.25598 0.404743 0
M  V30 26187 C 2479.24 -1.55839 -0.470955 0
M  V30 26188 O 2480.43 -1.76263 -0.281703 0
M  V30 26189 C 2477.53 -3.36063 -0.437581 0
M  V30 26190 C 2476.7 -4.35364 0.421525 0
M  V30 26191 C 2475.76 -5.24967 -0.360058 0
M  V30 26192 O 2474.79 -5.68709 0.236267 0
M  V30 26193 N 2475.99 -5.56347 -1.65706 0
M  V30 26194 H 2478.75 -2.72101 1.25622 0
M  V30 26195 H 2476.32 -1.40297 0.807988 0
M  V30 26196 H 2478.31 -3.92958 -0.967797 0
M  V30 26197 H 2476.88 -2.8907 -1.18986 0
M  V30 26198 H 2476.1 -3.77568 1.13297 0
M  V30 26199 H 2477.39 -4.98706 1.00844 0
M  V30 26200 H 2476.78 -5.22686 -2.16369 0
M  V30 26201 H 2475.34 -6.15892 -2.13356 0
M  V30 26202 N 2478.77 -0.706118 -1.40896 0
M  V30 26203 C 2479.7 -0.0620496 -2.33418 0
M  V30 26204 C 2480.68 0.755801 -1.52387 0
M  V30 26205 O 2481.87 0.706642 -1.80887 0
M  V30 26206 C 2479 0.867386 -3.36294 0
M  V30 26207 C 2477.95 0.155857 -4.27716 0
M  V30 26208 C 2477.28 1.20037 -5.21052 0
M  V30 26209 C 2478.58 -0.984239 -5.12943 0
M  V30 26210 H 2480.27 -0.834821 -2.87526 0
M  V30 26211 H 2477.82 -0.4029 -1.38249 0
M  V30 26212 H 2479.77 1.32728 -3.99952 0
M  V30 26213 H 2478.5 1.67194 -2.80559 0
M  V30 26214 H 2477.16 -0.284111 -3.65497 0
M  V30 26215 H 2476.8 1.99773 -4.61627 0
M  V30 26216 H 2476.5 0.729226 -5.83058 0
M  V30 26217 H 2478.03 1.66055 -5.87587 0
M  V30 26218 H 2479.44 -0.604148 -5.70108 0
M  V30 26219 H 2477.84 -1.38314 -5.83943 0
M  V30 26220 H 2478.91 -1.81918 -4.49482 0
M  V30 26221 N 2480.25 1.50991 -0.451617 0
M  V30 26222 C 2481.53 1.94854 0.170672 0
M  V30 26223 C 2481.91 1.39106 1.58786 0
M  V30 26224 O 2481.26 0.58396 2.20912 0
M  V30 26225 C 2481.47 3.48743 0.133867 0
M  V30 26226 C 2482.81 4.23297 0.332405 0
M  V30 26227 O 2483.84 3.55572 0.211341 0
M  V30 26228 O 2482.7 5.43469 0.574765 0
M  V30 26229 H 2479.79 0.817914 0.12225 0
M  V30 26230 H 2482.34 1.61836 -0.510622 0
M  V30 26231 H 2481.11 3.81815 -0.85635 0
M  V30 26232 H 2480.73 3.88244 0.857461 0
M  V30 26233 N 2481.73 0.183486 1.56528 0
M  V30 26234 C 2482.66 -0.737417 2.2155 0
M  V30 26235 C 2483.64 -1.23003 1.17492 0
M  V30 26236 O 2484.83 -1.28098 1.45961 0
M  V30 26237 C 2481.96 -1.96189 2.86578 0
M  V30 26238 C 2480.91 -1.60466 3.9678 0
M  V30 26239 C 2480.24 -2.90479 4.48917 0
M  V30 26240 C 2481.54 -0.823406 5.15769 0
M  V30 26241 H 2483.23 -0.195401 2.98762 0
M  V30 26242 H 2480.78 -0.0925433 1.43702 0
M  V30 26243 H 2482.73 -2.61125 3.30744 0
M  V30 26244 H 2481.45 -2.52825 2.06754 0
M  V30 26245 H 2480.11 -0.978935 3.53288 0
M  V30 26246 H 2479.76 -3.4518 3.65869 0
M  V30 26247 H 2479.46 -2.67326 5.23269 0
M  V30 26248 H 2480.98 -3.56423 4.95777 0
M  V30 26249 H 2482.4 -1.37561 5.56552 0
M  V30 26250 H 2480.79 -0.690446 5.96115 0
M  V30 26251 H 2481.86 0.177867 4.84574 0
M  V30 26252 N 2483.21 -1.57342 -0.0901833 0
M  V30 26253 C 2484.17 -2.01443 -1.09332 0
M  V30 26254 C 2485.17 -0.908664 -1.32665 0
M  V30 26255 O 2486.36 -1.17402 -1.28695 0
M  V30 26256 C 2483.49 -2.37934 -2.44132 0
M  V30 26257 H 2484.69 -2.91286 -0.713611 0
M  V30 26258 H 2482.24 -1.52659 -0.335377 0
M  V30 26259 H 2482.97 -1.5106 -2.86969 0
M  V30 26260 H 2482.76 -3.18607 -2.28543 0
M  V30 26261 H 2484.25 -2.72694 -3.16272 0
M  V30 26262 N 2484.69 0.36113 -1.53407 0
M  V30 26263 C 2485.94 1.10063 -1.69024 0
M  V30 26264 C 2486.25 1.90333 -0.450871 0
M  V30 26265 O 2487.45 2.67084 -0.487664 0
M  V30 26266 C 2485.91 2.00592 -2.98815 0
M  V30 26267 C 2485.52 1.25614 -4.30029 0
M  V30 26268 C 2487.26 2.74507 -3.23799 0
M  V30 26269 C 2485.17 2.15071 -5.50907 0
M  V30 26270 H 2484.1 0.414595 -0.629783 0
M  V30 26271 H 2486.75 0.361317 -1.79908 0
M  V30 26272 H 2485.13 2.78273 -2.81745 0
M  V30 26273 H 2486.31 0.529659 -4.57746 0
M  V30 26274 H 2484.62 0.635424 -4.11523 0
M  V30 26275 H 2487.22 3.41673 -4.11295 0
M  V30 26276 H 2487.56 3.40119 -2.40051 0
M  V30 26277 H 2488.09 2.03908 -3.41565 0
M  V30 26278 H 2484.83 1.54029 -6.37146 0
M  V30 26279 H 2484.35 2.85556 -5.27464 0
M  V30 26280 H 2486.03 2.74527 -5.8587 0
M  V30 26281 N 2486.16 1.44842 0.621179 0
M  V30 26282 C 2487.41 1.48367 1.38257 0
M  V30 26283 C 2487.74 0.119658 1.93831 0
M  V30 26284 O 2487.02 -0.864081 1.74252 0
M  V30 26285 C 2487.3 2.55203 2.54054 0
M  V30 26286 C 2487.15 4.00999 2.03765 0
M  V30 26287 C 2488.47 2.58448 3.5622 0
M  V30 26288 H 2485.59 0.540187 0.501365 0
M  V30 26289 H 2488.23 1.76577 0.701469 0
M  V30 26290 H 2486.38 2.31279 3.12157 0
M  V30 26291 H 2488.06 4.36088 1.50415 0
M  V30 26292 H 2486.3 4.12302 1.34869 0
M  V30 26293 H 2486.97 4.71416 2.87177 0
M  V30 26294 H 2489.45 2.7985 3.07934 0
M  V30 26295 H 2488.32 3.35087 4.3475 0
M  V30 26296 H 2488.58 1.63021 4.10946 0
M  V30 26297 N 2487.64 -0.862479 1.31905 0
M  V30 26298 C 2488.57 -1.9861 1.22785 0
M  V30 26299 C 2489.55 -1.69722 0.113391 0
M  V30 26300 O 2490.74 -1.9188 0.299252 0
M  V30 26301 C 2487.87 -3.34278 0.942117 0
M  V30 26302 C 2486.82 -3.77495 2.01696 0
M  V30 26303 C 2486.15 -5.10706 1.58378 0
M  V30 26304 C 2487.45 -3.93799 3.43103 0
M  V30 26305 H 2489.14 -2.06498 2.16792 0
M  V30 26306 H 2486.69 -0.992136 1.04368 0
M  V30 26307 H 2488.64 -4.12429 0.86489 0
M  V30 26308 H 2487.37 -3.26583 -0.0336029 0
M  V30 26309 H 2486.02 -3.01589 2.08421 0
M  V30 26310 H 2485.67 -4.9946 0.595715 0
M  V30 26311 H 2485.37 -5.40593 2.30289 0
M  V30 26312 H 2486.9 -5.91359 1.52077 0
M  V30 26313 H 2488.31 -4.62325 3.39011 0
M  V30 26314 H 2486.71 -4.35094 4.13296 0
M  V30 26315 H 2487.78 -2.9695 3.83339 0
M  V30 26316 N 2489.12 -1.14988 -1.07775 0
M  V30 26317 C 2490.05 -0.865595 -2.16863 0
M  V30 26318 C 2491.03 0.182053 -1.69123 0
M  V30 26319 O 2492.22 0.0373473 -1.94164 0
M  V30 26320 C 2489.35 -0.349373 -3.45538 0
M  V30 26321 C 2488.3 -1.3332 -4.06706 0
M  V30 26322 C 2487.63 -0.676011 -5.30409 0
M  V30 26323 C 2488.93 -2.69772 -4.47236 0
M  V30 26324 H 2490.62 -1.77782 -2.40902 0
M  V30 26325 H 2488.17 -0.856223 -1.15779 0
M  V30 26326 H 2490.12 -0.138057 -4.21174 0
M  V30 26327 H 2488.84 0.598306 -3.21073 0
M  V30 26328 H 2487.5 -1.53081 -3.33109 0
M  V30 26329 H 2487.15 0.277679 -5.02233 0
M  V30 26330 H 2486.85 -1.33254 -5.72291 0
M  V30 26331 H 2488.37 -0.474369 -6.08755 0
M  V30 26332 H 2489.79 -2.53882 -5.1402 0
M  V30 26333 H 2488.19 -3.31759 -5.00056 0
M  V30 26334 H 2489.26 -3.26162 -3.58812 0
M  V30 26335 N 2490.6 1.26049 -0.946007 0
M  V30 26336 C 2491.82 1.98148 -0.61256 0
M  V30 26337 C 2492.25 1.69928 0.806594 0
M  V30 26338 O 2491.61 0.950135 1.54409 0
M  V30 26339 C 2491.65 3.50021 -0.867043 0
M  V30 26340 O 2490.76 4.12359 0.0584609 0
M  V30 26341 H 2490.1 0.621477 -0.233801 0
M  V30 26342 H 2492.63 1.60392 -1.27025 0
M  V30 26343 H 2492.64 4.00281 -0.789862 0
M  V30 26344 H 2491.31 3.6989 -1.90142 0
M  V30 26345 H 2489.89 3.72834 -0.0701897 0
M  V30 26346 N 2492.08 0.71358 1.4052 0
M  V30 26347 C 2493.33 0.249228 2.00154 0
M  V30 26348 C 2493.64 -1.16359 1.57226 0
M  V30 26349 O 2494.84 -1.72635 2.09545 0
M  V30 26350 C 2493.3 0.394663 3.5773 0
M  V30 26351 C 2492.91 1.814 4.09632 0
M  V30 26352 C 2494.65 -0.00899903 4.24499 0
M  V30 26353 C 2492.56 1.91012 5.59704 0
M  V30 26354 H 2491.49 0.0894246 0.748678 0
M  V30 26355 H 2494.14 0.88438 1.60782 0
M  V30 26356 H 2492.52 -0.30904 3.94792 0
M  V30 26357 H 2493.7 2.54791 3.8395 0
M  V30 26358 H 2492.01 2.16894 3.55452 0
M  V30 26359 H 2494.61 0.0421344 5.34683 0
M  V30 26360 H 2494.95 -1.05058 4.02826 0
M  V30 26361 H 2495.48 0.645076 3.92535 0
M  V30 26362 H 2492.22 2.93285 5.86229 0
M  V30 26363 H 2491.74 1.22029 5.87255 0
M  V30 26364 H 2493.42 1.68131 6.24773 0
M  V30 26365 N 2493.55 -1.50749 0.459618 0
M  V30 26366 C 2494.49 -2.24908 -0.386217 0
M  V30 26367 C 2495.47 -1.27745 -1.00598 0
M  V30 26368 O 2496.65 -1.5694 -1.04414 0
M  V30 26369 C 2493.78 -3.01657 -1.54015 0
M  V30 26370 C 2492.82 -4.13653 -1.0389 0
M  V30 26371 S 2493.66 -5.35487 0.0371442 0
M  V30 26372 C 2494.81 -6.15781 -1.12094 0
M  V30 26373 H 2495.04 -2.96303 0.243324 0
M  V30 26374 H 2492.58 -1.52454 0.244366 0
M  V30 26375 H 2494.54 -3.4647 -2.20157 0
M  V30 26376 H 2493.2 -2.2981 -2.14117 0
M  V30 26377 H 2492.39 -4.66715 -1.90245 0
M  V30 26378 H 2491.99 -3.71217 -0.455385 0
M  V30 26379 H 2494.28 -6.46218 -2.0349 0
M  V30 26380 H 2495.23 -7.05293 -0.629826 0
M  V30 26381 H 2495.63 -5.47634 -1.36958 0
M  V30 26382 N 2495.03 -0.191784 -1.56429 0
M  V30 26383 C 2496.28 0.446971 -1.97095 0
M  V30 26384 C 2496.6 1.62381 -1.0797 0
M  V30 26385 O 2495.87 1.95323 -0.150282 0
M  V30 26386 H 2494.45 0.168122 -0.727835 0
M  V30 26387 H 2497.11 -0.277744 -1.92911 0
M  V30 26388 H 2496.21 0.793318 -3.01849 0
M  V30 26389 N 2496.51 1.57387 0.0818378 0
M  V30 26390 C 2497.76 1.85939 0.781648 0
M  V30 26391 C 2498.07 0.782989 1.79245 0
M  V30 26392 O 2499.28 0.956032 2.54111 0
M  V30 26393 C 2497.73 3.29791 1.44103 0
M  V30 26394 C 2497.34 4.45535 0.469318 0
M  V30 26395 C 2499.09 3.67553 2.12379 0
M  V30 26396 C 2496.99 5.80425 1.13404 0
M  V30 26397 H 2495.92 0.693611 0.29567 0
M  V30 26398 H 2498.57 1.83467 0.0347729 0
M  V30 26399 H 2496.96 3.26844 2.23582 0
M  V30 26400 H 2498.13 4.59855 -0.294936 0
M  V30 26401 H 2496.45 4.16259 -0.108456 0
M  V30 26402 H 2499.04 4.65622 2.6287 0
M  V30 26403 H 2499.39 2.96845 2.91871 0
M  V30 26404 H 2499.92 3.72447 1.39744 0
M  V30 26405 H 2496.66 6.544 0.379656 0
M  V30 26406 H 2496.18 5.69924 1.8694 0
M  V30 26407 H 2497.86 6.25428 1.65675 0
M  V30 26408 N 2497.99 -0.35299 1.53596 0
M  V30 26409 C 2499.22 -1.11457 1.74313 0
M  V30 26410 C 2499.63 -1.82652 0.477887 0
M  V30 26411 O 2498.99 -1.74017 -0.549947 0
M  V30 26412 C 2499.04 -2.13529 2.91698 0
M  V30 26413 O 2498.76 -1.45231 4.13328 0
M  V30 26414 C 2500.26 -3.02136 3.2439 0
M  V30 26415 H 2497.48 -0.332763 0.582675 0
M  V30 26416 H 2500.03 -0.408072 2.00387 0
M  V30 26417 H 2498.18 -2.79758 2.67982 0
M  V30 26418 H 2498.59 -2.13341 4.79151 0
M  V30 26419 H 2500.07 -3.69711 4.099 0
M  V30 26420 H 2500.55 -3.67639 2.40288 0
M  V30 26421 H 2501.15 -2.41508 3.50077 0
M  V30 26422 N 2499.47 -1.45169 -0.613489 0
M  V30 26423 C 2500.4 -1.56228 -1.73537 0
M  V30 26424 C 2501.38 -0.414169 -1.64981 0
M  V30 26425 O 2502.56 -0.636558 -1.83471 0
M  V30 26426 C 2499.69 -1.523 -3.12125 0
M  V30 26427 C 2498.65 -2.65768 -3.35487 0
M  V30 26428 C 2497.97 -2.46893 -4.74287 0
M  V30 26429 C 2499.27 -4.07816 -3.26318 0
M  V30 26430 H 2500.97 -2.50135 -1.64538 0
M  V30 26431 H 2498.51 -1.20384 -0.790164 0
M  V30 26432 H 2500.47 -1.58635 -3.90401 0
M  V30 26433 H 2499.19 -0.549195 -3.21949 0
M  V30 26434 H 2497.85 -2.58852 -2.59598 0
M  V30 26435 H 2497.5 -1.47665 -4.80837 0
M  V30 26436 H 2497.2 -3.22981 -4.90874 0
M  V30 26437 H 2498.72 -2.55073 -5.5477 0
M  V30 26438 H 2500.14 -4.16007 -3.94476 0
M  V30 26439 H 2498.53 -4.84247 -3.54437 0
M  V30 26440 H 2499.6 -4.3014 -2.23847 0
M  V30 26441 N 2500.95 0.855472 -1.32361 0
M  V30 26442 C 2501.86 1.99632 -1.23225 0
M  V30 26443 C 2502.87 1.73386 -0.146013 0
M  V30 26444 O 2504.05 1.98037 -0.366537 0
M  V30 26445 C 2501.11 3.33292 -0.95484 0
M  V30 26446 C 2500.17 3.72765 -2.12943 0
M  V30 26447 C 2499.41 5.00047 -1.86517 0
M  V30 26448 O 2499.63 5.64658 -0.80733 0
M  V30 26449 O 2498.56 5.36631 -2.726 0
M  V30 26450 H 2502.39 2.10276 -2.1913 0
M  V30 26451 H 2499.97 0.985999 -1.12243 0
M  V30 26452 H 2501.86 4.13412 -0.816592 0
M  V30 26453 H 2500.53 3.2369 -0.0259423 0
M  V30 26454 H 2499.44 2.93224 -2.32315 0
M  V30 26455 H 2500.77 3.87012 -3.04109 0
M  V30 26456 N 2502.42 1.15558 1.07164 0
M  V30 26457 C 2503.33 0.868154 2.17945 0
M  V30 26458 C 2504.35 -0.156266 1.73297 0
M  V30 26459 O 2505.53 0.0182681 2.01392 0
M  V30 26460 C 2502.59 0.36361 3.44788 0
M  V30 26461 C 2501.65 1.45216 4.03993 0
M  V30 26462 C 2500.88 0.9716 5.24782 0
M  V30 26463 O 2501.11 -0.182094 5.70109 0
M  V30 26464 O 2500.04 1.75613 5.75712 0
M  V30 26465 H 2503.87 1.79431 2.45027 0
M  V30 26466 H 2501.45 0.934845 1.16538 0
M  V30 26467 H 2503.33 0.0887854 4.21306 0
M  V30 26468 H 2502.01 -0.534652 3.19254 0
M  V30 26469 H 2500.92 1.78062 3.29006 0
M  V30 26470 H 2502.25 2.32541 4.33804 0
M  V30 26471 N 2503.9 -1.25546 0.952678 0
M  V30 26472 C 2505.15 -1.92504 0.602087 0
M  V30 26473 C 2505.46 -1.75452 -0.864633 0
M  V30 26474 O 2506.67 -2.36967 -1.3251 0
M  V30 26475 C 2505.13 -3.44962 1.02613 0
M  V30 26476 C 2504.73 -3.70727 2.51526 0
M  V30 26477 C 2506.48 -4.17858 0.747979 0
M  V30 26478 C 2504.38 -5.16681 2.87741 0
M  V30 26479 H 2503.31 -0.72074 0.221473 0
M  V30 26480 H 2505.97 -1.42439 1.15687 0
M  V30 26481 H 2504.35 -3.93977 0.399781 0
M  V30 26482 H 2505.52 -3.32372 3.19163 0
M  V30 26483 H 2503.84 -3.11087 2.76792 0
M  V30 26484 H 2506.43 -5.25366 0.994739 0
M  V30 26485 H 2506.78 -4.15102 -0.315556 0
M  V30 26486 H 2507.31 -3.74745 1.33459 0
M  V30 26487 H 2504.05 -5.24547 3.93104 0
M  V30 26488 H 2503.57 -5.5609 2.24775 0
M  V30 26489 H 2505.25 -5.84787 2.76827 0
M  V30 26490 N 2505.38 -0.721022 -1.40139 0
M  V30 26491 C 2506.29 -0.0731443 -2.34486 0
M  V30 26492 C 2507.31 0.737696 -1.57588 0
M  V30 26493 O 2508.48 0.669396 -1.8995 0
M  V30 26494 C 2505.55 0.833597 -3.36529 0
M  V30 26495 C 2504.61 0.0120918 -4.29298 0
M  V30 26496 C 2503.84 0.875649 -5.26468 0
M  V30 26497 O 2504.06 2.11476 -5.29749 0
M  V30 26498 O 2503 0.311745 -6.01092 0
M  V30 26499 H 2506.82 -0.851495 -2.91519 0
M  V30 26500 H 2504.41 -0.481552 -1.41426 0
M  V30 26501 H 2506.29 1.35282 -3.99095 0
M  V30 26502 H 2504.97 1.591 -2.81902 0
M  V30 26503 H 2503.87 -0.552327 -3.7 0
M  V30 26504 H 2505.21 -0.707214 -4.87093 0
M  V30 26505 N 2506.86 1.50503 -0.467606 0
M  V30 26506 C 2508.1 2.02606 0.0887176 0
M  V30 26507 C 2508.44 1.34915 1.39683 0
M  V30 26508 O 2507.71 0.473727 1.88643 0
M  V30 26509 C 2507.99 3.5904 0.276143 0
M  V30 26510 C 2507.85 4.37307 -1.05275 0
M  V30 26511 C 2509.17 4.27823 1.03227 0
M  V30 26512 H 2506.29 0.736357 0.0307684 0
M  V30 26513 H 2508.93 1.79856 -0.612517 0
M  V30 26514 H 2507.08 3.78554 0.873433 0
M  V30 26515 H 2508.75 4.29372 -1.68635 0
M  V30 26516 H 2506.99 4.01186 -1.65022 0
M  V30 26517 H 2507.66 5.45016 -0.875293 0
M  V30 26518 H 2510.14 4.12761 0.526038 0
M  V30 26519 H 2509.02 5.37096 1.13221 0
M  V30 26520 H 2509.28 3.90751 2.06799 0
M  V30 26521 N 2508.34 0.200077 1.56325 0
M  V30 26522 C 2509.28 -0.735443 2.20667 0
M  V30 26523 C 2510.28 -1.21603 1.17937 0
M  V30 26524 O 2511.48 -1.17835 1.3607 0
M  V30 26525 H 2507.86 -0.255529 0.707254 0
M  V30 26526 H 2509.83 -0.169114 2.9792 0
M  V30 26527 C 2508.58 -1.94227 2.88394 0
M  V30 26528 H 2507.9 -1.58155 3.67188 0
M  V30 26529 H 2509.34 -2.57511 3.36844 0
M  V30 26530 C 2507.8 -2.78418 1.89697 0
M  V30 26531 O 2508.33 -3.765 1.40038 0
M  V30 26532 N 2506.54 -2.44013 1.57817 0
M  V30 26533 H 2506.08 -1.6431 1.98393 0
M  V30 26534 H 2506.04 -3.00627 0.920378 0
M  V30 26535 N 2509.81 -1.57429 -0.0734901 0
M  V30 26536 C 2510.78 -2.02591 -1.07189 0
M  V30 26537 C 2511.78 -0.922684 -1.31694 0
M  V30 26538 O 2512.97 -1.1876 -1.27443 0
M  V30 26539 C 2510.1 -2.4051 -2.41594 0
M  V30 26540 H 2511.29 -2.92027 -0.682676 0
M  V30 26541 H 2508.84 -1.53007 -0.319167 0
M  V30 26542 H 2509.58 -1.54095 -2.85351 0
M  V30 26543 H 2509.36 -3.21013 -2.25151 0
M  V30 26544 H 2510.85 -2.76033 -3.13362 0
M  V30 26545 N 2511.29 0.344839 -1.53781 0
M  V30 26546 C 2512.52 1.10974 -1.75213 0
M  V30 26547 C 2512.94 1.81622 -0.489392 0
M  V30 26548 O 2512.3 1.72503 0.557895 0
M  V30 26549 C 2512.35 2.09988 -2.93151 0
M  V30 26550 O 2511.45 3.17482 -2.63209 0
M  V30 26551 H 2510.79 0.321011 -0.581247 0
M  V30 26552 H 2513.32 0.395626 -2.00739 0
M  V30 26553 H 2513.33 2.53232 -3.19903 0
M  V30 26554 H 2512.01 1.57963 -3.84734 0
M  V30 26555 H 2510.58 2.79065 -2.4734 0
M  V30 26556 N 2512.77 1.45492 0.605781 0
M  V30 26557 C 2513.7 1.57146 1.72706 0
M  V30 26558 C 2514.68 0.422913 1.64759 0
M  V30 26559 O 2515.87 0.646279 1.83131 0
M  V30 26560 C 2513 1.53953 3.11313 0
M  V30 26561 C 2511.95 2.67543 3.34073 0
M  V30 26562 C 2511.28 2.49405 4.72971 0
M  V30 26563 C 2512.58 4.09541 3.24151 0
M  V30 26564 H 2514.27 2.51004 1.6321 0
M  V30 26565 H 2511.82 1.20802 0.783769 0
M  V30 26566 H 2513.77 1.60703 3.89554 0
M  V30 26567 H 2512.49 0.566261 3.21654 0
M  V30 26568 H 2511.15 2.60225 2.58222 0
M  V30 26569 H 2510.8 1.50213 4.80047 0
M  V30 26570 H 2510.5 3.25579 4.89154 0
M  V30 26571 H 2512.02 2.58011 5.5341 0
M  V30 26572 H 2513.44 4.18093 3.92264 0
M  V30 26573 H 2511.83 4.86119 3.51863 0
M  V30 26574 H 2512.9 4.31321 2.21563 0
M  V30 26575 N 2514.25 -0.848441 1.32813 0
M  V30 26576 C 2515.66 -1.41912 1.21317 0
M  V30 26577 C 2516.01 -1.95446 -0.171812 0
M  V30 26578 O 2515.14 -1.88045 -1.07089 0
M  V30 26579 C 2515.73 -2.57964 2.19636 0
M  V30 26580 C 2514.29 -3.11013 2.12008 0
M  V30 26581 C 2513.44 -1.83779 2.07655 0
M  V30 26582 H 2516.39 -0.655045 1.44551 0
M  V30 26583 H 2516.41 -3.35312 1.79851 0
M  V30 26584 H 2515.92 -2.18971 3.20427 0
M  V30 26585 H 2514.02 -3.54575 1.14487 0
M  V30 26586 H 2514.13 -3.71836 3.02117 0
M  V30 26587 H 2512.5 -2.03635 1.52986 0
M  V30 26588 H 2513.28 -1.46994 3.10238 0
M  V30 26589 N 2515.73 -1.16125 -1.06549 0
M  V30 26590 C 2516.98 -0.935653 -1.78685 0
M  V30 26591 C 2517.29 0.537968 -1.88057 0
M  V30 26592 O 2518.49 0.881385 -2.56795 0
M  V30 26593 C 2516.95 -1.62472 -3.2114 0
M  V30 26594 C 2516.56 -3.13592 -3.19943 0
M  V30 26595 C 2518.3 -1.48099 -3.97828 0
M  V30 26596 C 2516.21 -3.75249 -4.57102 0
M  V30 26597 H 2515.14 -0.346424 -0.669706 0
M  V30 26598 H 2517.79 -1.39228 -1.19531 0
M  V30 26599 H 2516.17 -1.09579 -3.80537 0
M  V30 26600 H 2517.35 -3.73308 -2.70144 0
M  V30 26601 H 2515.66 -3.27821 -2.56754 0
M  V30 26602 H 2518.26 -1.91547 -4.99213 0
M  V30 26603 H 2518.6 -0.42958 -4.14078 0
M  V30 26604 H 2519.13 -1.98133 -3.44947 0
M  V30 26605 H 2515.87 -4.80326 -4.46057 0
M  V30 26606 H 2515.39 -3.20318 -5.07106 0
M  V30 26607 H 2517.07 -3.76653 -5.26062 0
M  V30 26608 N 2517.2 1.25039 -0.959323 0
M  V30 26609 C 2518.15 2.27709 -0.474477 0
M  V30 26610 C 2519.15 1.631 0.457668 0
M  V30 26611 O 2520.35 1.76876 0.333881 0
M  V30 26612 H 2516.73 0.739792 -0.134949 0
M  V30 26613 H 2518.7 2.65986 -1.35256 0
M  V30 26614 C 2517.45 3.46953 0.227823 0
M  V30 26615 H 2516.77 3.96904 -0.480317 0
M  V30 26616 H 2518.21 4.20662 0.531017 0
M  V30 26617 C 2516.67 3.04007 1.45194 0
M  V30 26618 O 2517.2 3.1043 2.54943 0
M  V30 26619 N 2515.41 2.59146 1.31497 0
M  V30 26620 H 2514.95 2.5412 0.422021 0
M  V30 26621 H 2514.91 2.30777 2.13517 0
M  V30 26622 N 2518.68 0.728444 1.39755 0
M  V30 26623 C 2520.09 0.344321 1.83497 0
M  V30 26624 C 2520.44 -1.12318 1.6087 0
M  V30 26625 O 2519.57 -1.86571 1.09637 0
M  V30 26626 C 2520.16 0.61817 3.33113 0
M  V30 26627 C 2518.72 0.287615 3.753 0
M  V30 26628 C 2517.87 0.884094 2.62829 0
M  V30 26629 H 2520.82 0.926601 1.2884 0
M  V30 26630 H 2520.84 -0.112282 3.80334 0
M  V30 26631 H 2520.35 1.68631 3.4955 0
M  V30 26632 H 2518.46 -0.774948 3.64452 0
M  V30 26633 H 2518.57 0.765595 4.72943 0
M  V30 26634 H 2516.93 0.311194 2.52792 0
M  V30 26635 H 2517.72 1.95676 2.82074 0
M  V30 26636 N 2520.16 -1.50253 0.475581 0
M  V30 26637 C 2521.39 -2.06763 -0.0754129 0
M  V30 26638 C 2521.8 -1.33894 -1.33109 0
M  V30 26639 O 2521.16 -0.409551 -1.77845 0
M  V30 26640 C 2521.21 -3.59714 -0.358945 0
M  V30 26641 O 2520.93 -4.29836 0.846927 0
M  V30 26642 C 2522.43 -4.3286 -0.956408 0
M  V30 26643 H 2519.65 -0.670938 0.00908704 0
M  V30 26644 H 2522.2 -1.93363 0.665652 0
M  V30 26645 H 2520.35 -3.72901 -1.04995 0
M  V30 26646 H 2520.77 -5.21123 0.594254 0
M  V30 26647 H 2522.24 -5.40836 -1.10454 0
M  V30 26648 H 2522.72 -3.93652 -1.94768 0
M  V30 26649 H 2523.32 -4.24215 -0.303648 0
M  V30 26650 N 2521.64 -0.208365 -1.56217 0
M  V30 26651 C 2522.89 0.42717 -1.97125 0
M  V30 26652 C 2523.2 1.61833 -1.09861 0
M  V30 26653 O 2524.41 2.32252 -1.4061 0
M  V30 26654 C 2522.86 0.81138 -3.50635 0
M  V30 26655 C 2522.47 -0.356228 -4.46581 0
M  V30 26656 C 2524.21 1.41325 -4.00284 0
M  V30 26657 C 2522.12 0.0496813 -5.91379 0
M  V30 26658 H 2521.05 0.163368 -0.736089 0
M  V30 26659 H 2523.7 -0.302488 -1.8099 0
M  V30 26660 H 2522.08 1.59808 -3.62322 0
M  V30 26661 H 2523.26 -1.13378 -4.46634 0
M  V30 26662 H 2521.57 -0.870467 -4.072 0
M  V30 26663 H 2524.17 1.72963 -5.05953 0
M  V30 26664 H 2524.51 2.32443 -3.45364 0
M  V30 26665 H 2525.05 0.690255 -3.91766 0
M  V30 26666 H 2521.79 -0.827643 -6.50254 0
M  V30 26667 H 2521.31 0.791821 -5.9455 0
M  V30 26668 H 2522.98 0.480929 -6.4521 0
M  V30 26669 N 2523.12 1.57465 0.0651402 0
M  V30 26670 C 2524.37 1.86757 0.761883 0
M  V30 26671 C 2524.68 0.801956 1.78404 0
M  V30 26672 O 2525.88 0.98293 2.53082 0
M  V30 26673 C 2524.34 3.31301 1.40597 0
M  V30 26674 C 2523.95 4.46008 0.422036 0
M  V30 26675 C 2525.69 3.69785 2.08469 0
M  V30 26676 C 2523.6 5.81595 1.07242 0
M  V30 26677 H 2522.53 0.696707 0.288296 0
M  V30 26678 H 2525.18 1.83494 0.0153118 0
M  V30 26679 H 2523.56 3.29197 2.20103 0
M  V30 26680 H 2524.74 4.59516 -0.343694 0
M  V30 26681 H 2523.05 4.1612 -0.1526 0
M  V30 26682 H 2525.65 4.68383 2.57917 0
M  V30 26683 H 2525.99 2.99924 2.88707 0
M  V30 26684 H 2526.52 3.73908 1.35786 0
M  V30 26685 H 2523.26 6.54765 0.310227 0
M  V30 26686 H 2522.78 5.71875 1.80885 0
M  V30 26687 H 2524.46 6.2715 1.59032 0
M  V30 26688 N 2524.59 -0.336679 1.53962 0
M  V30 26689 C 2526.01 -0.680215 1.44379 0
M  V30 26690 C 2526.21 -1.92169 0.606068 0
M  V30 26691 O 2525.27 -2.52303 0.0997324 0
M  V30 26692 C 2526.58 -0.866449 2.87946 0
M  V30 26693 C 2528.13 -0.964629 2.97765 0
M  V30 26694 C 2528.6 -1.18313 4.42455 0
M  V30 26695 N 2530.09 -1.25017 4.4601 0
M  V30 26696 C 2530.83 -1.43687 5.55105 0
M  V30 26697 N 2530.32 -1.59486 6.74193 0
M  V30 26698 N 2532.12 -1.4629 5.4273 0
M  V30 26699 H 2524.27 0.479491 2.06917 0
M  V30 26700 H 2526.53 0.152636 0.935632 0
M  V30 26701 H 2526.24 -0.0256319 3.51691 0
M  V30 26702 H 2526.11 -1.76617 3.33296 0
M  V30 26703 H 2528.5 -1.79596 2.34156 0
M  V30 26704 H 2528.58 -0.041663 2.55766 0
M  V30 26705 H 2528.22 -0.356699 5.06646 0
M  V30 26706 H 2528.15 -2.11977 4.82051 0
M  V30 26707 H 2530.64 -1.14305 3.60198 0
M  V30 26708 H 2530.96 -1.73387 7.53098 0
M  V30 26709 H 2529.3 -1.56609 6.77125 0
M  V30 26710 H 2532.49 -1.33535 4.48649 0
M  V30 26711 H 2532.67 -1.60499 6.27809 0
M  V30 26712 N 2526.07 -1.45812 -0.598057 0
M  V30 26713 C 2527.32 -1.49596 -1.35292 0
M  V30 26714 C 2527.63 -0.145713 -1.95056 0
M  V30 26715 O 2528.84 -0.0612576 -2.71431 0
M  V30 26716 C 2527.3 -2.63523 -2.45119 0
M  V30 26717 C 2526.9 -4.04902 -1.91725 0
M  V30 26718 C 2528.65 -2.76563 -3.22045 0
M  V30 26719 C 2526.56 -5.10195 -2.99091 0
M  V30 26720 H 2525.49 -0.556687 -0.508542 0
M  V30 26721 H 2528.14 -1.71979 -0.639947 0
M  V30 26722 H 2526.52 -2.3444 -3.19145 0
M  V30 26723 H 2527.69 -4.43706 -1.24344 0
M  V30 26724 H 2526.01 -3.96395 -1.27515 0
M  V30 26725 H 2528.6 -3.52398 -4.02144 0
M  V30 26726 H 2528.95 -1.83533 -3.73659 0
M  V30 26727 H 2529.48 -3.05218 -2.55121 0
M  V30 26728 H 2526.22 -6.04966 -2.52382 0
M  V30 26729 H 2525.74 -4.75951 -3.65008 0
M  V30 26730 H 2527.42 -5.35365 -3.63309 0
M  V30 26731 N 2527.55 0.841385 -1.33261 0
M  V30 26732 C 2528.48 1.95539 -1.17643 0
M  V30 26733 C 2529.46 1.62438 -0.0725295 0
M  V30 26734 O 2530.65 1.87038 -0.234303 0
M  V30 26735 C 2527.77 3.29023 -0.803852 0
M  V30 26736 C 2526.82 3.81096 -1.91489 0
M  V30 26737 S 2527.65 4.03079 -3.52545 0
M  V30 26738 C 2528.81 5.39517 -3.17288 0
M  V30 26739 H 2529.04 2.08487 -2.11944 0
M  V30 26740 H 2526.57 0.994879 -1.18074 0
M  V30 26741 H 2528.53 4.06155 -0.595663 0
M  V30 26742 H 2527.19 3.13869 0.120519 0
M  V30 26743 H 2526.39 4.77677 -1.60751 0
M  V30 26744 H 2525.99 3.10851 -2.07961 0
M  V30 26745 H 2528.28 6.22258 -2.67957 0
M  V30 26746 H 2529.22 5.75227 -4.1294 0
M  V30 26747 H 2529.63 5.04151 -2.53952 0
M  V30 26748 N 2529.03 1.16688 1.05932 0
M  V30 26749 C 2530.45 0.912565 1.30937 0
M  V30 26750 C 2530.65 -0.432499 1.96804 0
M  V30 26751 O 2529.7 -1.17119 2.23695 0
M  V30 26752 C 2531.01 2.06433 2.18645 0
M  V30 26753 C 2532.56 2.10051 2.32051 0
M  V30 26754 C 2533.04 3.24592 3.23116 0
M  V30 26755 N 2534.53 3.24333 3.307 0
M  V30 26756 C 2535.26 4.09601 4.01266 0
M  V30 26757 N 2534.76 5.04965 4.74323 0
M  V30 26758 N 2536.55 3.97576 3.97354 0
M  V30 26759 H 2528.7 2.03279 0.615741 0
M  V30 26760 H 2530.97 0.88719 0.334062 0
M  V30 26761 H 2530.67 3.03606 1.77529 0
M  V30 26762 H 2530.55 2.00899 3.19248 0
M  V30 26763 H 2532.93 1.13469 2.72413 0
M  V30 26764 H 2533.01 2.19649 1.31103 0
M  V30 26765 H 2532.66 4.21435 2.83469 0
M  V30 26766 H 2532.59 3.1223 4.24052 0
M  V30 26767 H 2535.08 2.55281 2.78639 0
M  V30 26768 H 2535.39 5.66439 5.25706 0
M  V30 26769 H 2533.74 5.08941 4.73291 0
M  V30 26770 H 2536.93 3.22375 3.394 0
M  V30 26771 H 2537.1 4.64249 4.5208 0
M  V30 26772 N 2530.51 -1.24529 0.96594 0
M  V30 26773 C 2531.75 -1.92838 0.627794 0
M  V30 26774 C 2532.09 -1.75348 -0.834663 0
M  V30 26775 O 2531.36 -1.10549 -1.60029 0
M  V30 26776 C 2531.64 -3.45903 1.00115 0
M  V30 26777 C 2531.5 -3.72568 2.52018 0
M  V30 26778 C 2532.82 -4.36843 0.534427 0
M  V30 26779 H 2529.94 -0.70034 0.229549 0
M  V30 26780 H 2532.58 -1.46931 1.20463 0
M  V30 26781 H 2530.73 -3.85134 0.510306 0
M  V30 26782 H 2532.4 -3.42907 3.08565 0
M  V30 26783 H 2530.64 -3.17781 2.95293 0
M  V30 26784 H 2531.31 -4.79657 2.73191 0
M  V30 26785 H 2533.79 -4.04978 0.955636 0
M  V30 26786 H 2532.67 -5.42676 0.824247 0
M  V30 26787 H 2532.93 -4.38468 -0.565512 0
M  V30 26788 N 2531.99 -0.735845 -1.39367 0
M  V30 26789 C 2532.92 -0.111547 -2.33233 0
M  V30 26790 C 2533.9 0.723307 -1.53955 0
M  V30 26791 O 2535.08 0.668115 -1.82345 0
M  V30 26792 C 2532.21 0.795857 -3.38058 0
M  V30 26793 C 2531.17 0.0650968 -4.2795 0
M  V30 26794 C 2530.49 1.08957 -5.23481 0
M  V30 26795 C 2531.79 -1.09282 -5.10739 0
M  V30 26796 H 2533.49 -0.895621 -2.8569 0
M  V30 26797 H 2531.03 -0.432134 -1.37363 0
M  V30 26798 H 2532.98 1.24214 -4.02677 0
M  V30 26799 H 2531.71 1.61206 -2.84043 0
M  V30 26800 H 2530.37 -0.361575 -3.64813 0
M  V30 26801 H 2530.02 1.89936 -4.65761 0
M  V30 26802 H 2529.72 0.605386 -5.84473 0
M  V30 26803 H 2531.24 1.53554 -5.90977 0
M  V30 26804 H 2532.65 -0.72494 -5.68698 0
M  V30 26805 H 2531.05 -1.5067 -5.80877 0
M  V30 26806 H 2532.12 -1.91412 -4.45522 0
M  V30 26807 N 2533.46 1.49999 -0.483543 0
M  V30 26808 C 2534.88 1.58999 -0.138432 0
M  V30 26809 C 2535.08 1.49052 1.35594 0
M  V30 26810 O 2534.14 1.35543 2.13036 0
M  V30 26811 C 2535.45 2.92446 -0.699709 0
M  V30 26812 C 2537 3.0587 -0.664249 0
M  V30 26813 C 2537.47 4.41911 -1.20328 0
M  V30 26814 N 2538.96 4.48356 -1.16323 0
M  V30 26815 C 2539.7 5.52034 -1.55068 0
M  V30 26816 N 2539.19 6.62903 -2.01323 0
M  V30 26817 N 2540.99 5.42648 -1.46593 0
M  V30 26818 H 2533.14 1.54707 -1.45532 0
M  V30 26819 H 2535.4 0.731837 -0.602593 0
M  V30 26820 H 2535.11 3.05239 -1.74706 0
M  V30 26821 H 2534.98 3.76901 -0.15026 0
M  V30 26822 H 2537.37 2.92718 0.374221 0
M  V30 26823 H 2537.45 2.23142 -1.25065 0
M  V30 26824 H 2537.09 4.55814 -2.24045 0
M  V30 26825 H 2537.02 5.23251 -0.592988 0
M  V30 26826 H 2539.51 3.68804 -0.824123 0
M  V30 26827 H 2539.83 7.38091 -2.29003 0
M  V30 26828 H 2538.17 6.6399 -2.05284 0
M  V30 26829 H 2541.36 4.54922 -1.10289 0
M  V30 26830 H 2541.54 6.23326 -1.77114 0
M  V30 26831 N 2534.94 0.216646 1.56104 0
M  V30 26832 C 2536.19 -0.41671 1.97348 0
M  V30 26833 C 2536.5 -1.61248 1.10718 0
M  V30 26834 O 2537.71 -2.31503 1.4184 0
M  V30 26835 C 2536.17 -0.792773 3.5106 0
M  V30 26836 C 2535.77 0.379907 4.46386 0
M  V30 26837 C 2537.52 -1.39201 4.01028 0
M  V30 26838 C 2535.42 -0.0183183 5.91397 0
M  V30 26839 H 2534.35 -0.159462 0.736945 0
M  V30 26840 H 2537.01 0.312082 1.80827 0
M  V30 26841 H 2535.39 -1.57885 3.63164 0
M  V30 26842 H 2536.56 1.15745 4.46027 0
M  V30 26843 H 2534.88 0.89205 4.06733 0
M  V30 26844 H 2537.47 -1.70277 5.06863 0
M  V30 26845 H 2537.82 -2.30608 3.46591 0
M  V30 26846 H 2538.35 -0.669469 3.92126 0
M  V30 26847 H 2535.09 0.862116 6.49806 0
M  V30 26848 H 2534.61 -0.76028 5.94962 0
M  V30 26849 H 2536.29 -0.446705 6.45456 0
M  V30 26850 N 2536.42 -1.57498 -0.0567885 0
M  V30 26851 C 2537.38 -2.03717 -1.05034 0
M  V30 26852 C 2538.38 -0.9366 -1.30707 0
M  V30 26853 O 2539.57 -1.20105 -1.26176 0
M  V30 26854 C 2536.7 -2.43059 -2.3903 0
M  V30 26855 H 2537.9 -2.92734 -0.651664 0
M  V30 26856 H 2535.45 -1.53337 -0.30292 0
M  V30 26857 H 2536.19 -1.57113 -2.83701 0
M  V30 26858 H 2535.97 -3.23383 -2.21733 0
M  V30 26859 H 2537.46 -2.79341 -3.10416 0
M  V30 26860 N 2537.9 0.328509 -1.54138 0
M  V30 26861 C 2539.31 0.672549 -1.44737 0
M  V30 26862 C 2539.51 1.91845 -0.61625 0
M  V30 26863 O 2538.57 2.52247 -0.113111 0
M  V30 26864 C 2539.88 0.851166 -2.88402 0
M  V30 26865 C 2541.43 0.948825 -2.98272 0
M  V30 26866 C 2541.91 1.15965 -4.43076 0
M  V30 26867 N 2543.4 1.2265 -4.46667 0
M  V30 26868 C 2544.13 1.40742 -5.55859 0
M  V30 26869 N 2543.63 1.55908 -6.75029 0
M  V30 26870 N 2545.42 1.4341 -5.43498 0
M  V30 26871 H 2537.57 -0.490458 -2.0666 0
M  V30 26872 H 2539.83 -0.157595 -0.934809 0
M  V30 26873 H 2539.54 0.00698054 -3.51699 0
M  V30 26874 H 2539.41 1.74847 -3.34228 0
M  V30 26875 H 2541.8 1.78352 -2.35106 0
M  V30 26876 H 2541.88 0.0280986 -2.55785 0
M  V30 26877 H 2541.53 0.329826 -5.06828 0
M  V30 26878 H 2541.46 2.09417 -4.83169 0
M  V30 26879 H 2543.95 1.12393 -3.60799 0
M  V30 26880 H 2544.26 1.6939 -7.54007 0
M  V30 26881 H 2542.61 1.53015 -6.77946 0
M  V30 26882 H 2545.8 1.31154 -4.49351 0
M  V30 26883 H 2545.97 1.57167 -6.28651 0
M  V30 26884 N 2539.38 1.46127 0.590316 0
M  V30 26885 C 2540.62 1.51266 1.35079 0
M  V30 26886 C 2540.95 0.160745 1.93534 0
M  V30 26887 O 2540.23 -0.826925 1.76046 0
M  V30 26888 C 2540.51 2.60535 2.48584 0
M  V30 26889 C 2540.37 4.05231 1.95213 0
M  V30 26890 C 2541.68 2.65946 3.50658 0
M  V30 26891 H 2538.8 0.550701 0.489794 0
M  V30 26892 H 2541.45 1.78025 0.663856 0
M  V30 26893 H 2539.6 2.37848 3.07181 0
M  V30 26894 H 2541.27 4.39181 1.41131 0
M  V30 26895 H 2539.51 4.1507 1.26093 0
M  V30 26896 H 2540.18 4.77402 2.77113 0
M  V30 26897 H 2542.66 2.86319 3.01929 0
M  V30 26898 H 2541.53 3.44234 4.27545 0
M  V30 26899 H 2541.79 1.71701 4.07396 0
M  V30 26900 N 2540.85 -0.834306 1.33705 0
M  V30 26901 C 2541.78 -1.95961 1.26971 0
M  V30 26902 C 2542.76 -1.69443 0.149366 0
M  V30 26903 O 2543.95 -1.91203 0.339885 0
M  V30 26904 C 2541.08 -3.32204 1.01281 0
M  V30 26905 C 2540.03 -3.73132 2.09658 0
M  V30 26906 C 2539.36 -5.07232 1.69175 0
M  V30 26907 C 2540.66 -3.86432 3.51379 0
M  V30 26908 H 2542.35 -2.01854 2.21123 0
M  V30 26909 H 2539.9 -0.969775 1.06449 0
M  V30 26910 H 2541.85 -4.10502 0.952178 0
M  V30 26911 H 2540.58 -3.26581 0.0356777 0
M  V30 26912 H 2539.24 -2.97101 2.14771 0
M  V30 26913 H 2538.88 -4.98084 0.701524 0
M  V30 26914 H 2538.58 -5.35587 2.41704 0
M  V30 26915 H 2540.11 -5.88 1.64586 0
M  V30 26916 H 2541.52 -4.5503 3.48742 0
M  V30 26917 H 2539.92 -4.26229 4.22432 0
M  V30 26918 H 2540.99 -2.88752 3.89552 0
M  V30 26919 N 2542.33 -1.17248 -1.05312 0
M  V30 26920 C 2543.28 -0.888096 -2.13029 0
M  V30 26921 C 2544.25 0.167508 -1.65253 0
M  V30 26922 O 2545.43 0.0305639 -1.90776 0
M  V30 26923 C 2542.57 -0.406207 -3.42701 0
M  V30 26924 C 2541.69 -1.52579 -4.04158 0
M  V30 26925 C 2540.82 -0.9979 -5.21743 0
M  V30 26926 C 2539.86 -2.09301 -5.75204 0
M  V30 26927 N 2539 -1.57998 -6.84091 0
M  V30 26928 H 2543.84 -1.81052 -2.36694 0
M  V30 26929 H 2541.37 -0.903034 -1.16119 0
M  V30 26930 H 2543.33 -0.108378 -4.17059 0
M  V30 26931 H 2541.96 0.479257 -3.19222 0
M  V30 26932 H 2541.01 -1.93937 -3.2725 0
M  V30 26933 H 2542.33 -2.3518 -4.39877 0
M  V30 26934 H 2541.48 -0.653845 -6.03166 0
M  V30 26935 H 2540.22 -0.141318 -4.87495 0
M  V30 26936 H 2539.22 -2.44566 -4.9241 0
M  V30 26937 H 2540.45 -2.95373 -6.11499 0
M  V30 26938 H 2538.4 -0.746094 -6.51743 0
M  V30 26939 H 2538.31 -2.34207 -7.18807 0
M  V30 26940 H 2539.58 -1.26482 -7.6917 0
M  V30 26941 N 2543.81 1.24015 -0.972531 0
M  V30 26942 C 2544.74 2.27508 -0.525588 0
M  V30 26943 C 2545.72 1.64385 0.437233 0
M  V30 26944 O 2546.91 1.91336 0.332309 0
M  V30 26945 C 2544.04 3.46831 0.180387 0
M  V30 26946 C 2542.99 4.22255 -0.698933 0
M  V30 26947 C 2542.32 5.3452 0.138809 0
M  V30 26948 C 2543.62 4.83073 -1.9859 0
M  V30 26949 H 2545.31 2.65145 -1.39063 0
M  V30 26950 H 2542.86 1.27458 -0.670113 0
M  V30 26951 H 2544.81 4.18371 0.504313 0
M  V30 26952 H 2543.53 3.08233 1.07981 0
M  V30 26953 H 2542.19 3.52521 -1.0062 0
M  V30 26954 H 2541.84 4.92162 1.03853 0
M  V30 26955 H 2541.54 5.85902 -0.446362 0
M  V30 26956 H 2543.06 6.08885 0.457297 0
M  V30 26957 H 2544.48 5.46662 -1.72725 0
M  V30 26958 H 2542.88 5.44708 -2.5182 0
M  V30 26959 H 2543.95 4.04257 -2.67776 0
M  V30 26960 N 2545.29 0.743226 1.38974 0
M  V30 26961 C 2546.22 0.123914 2.33171 0
M  V30 26962 C 2547.2 -0.715132 1.54337 0
M  V30 26963 O 2548.38 -0.658435 1.82697 0
M  V30 26964 C 2545.51 -0.777918 3.38476 0
M  V30 26965 C 2544.47 -0.0424006 4.27979 0
M  V30 26966 C 2543.79 -1.0618 5.24051 0
M  V30 26967 C 2545.09 1.11989 5.10153 0
M  V30 26968 H 2546.79 0.91076 2.85211 0
M  V30 26969 H 2544.33 0.439412 1.37132 0
M  V30 26970 H 2546.29 -1.22077 4.0333 0
M  V30 26971 H 2545.01 -1.59697 2.84894 0
M  V30 26972 H 2543.67 0.380917 3.64616 0
M  V30 26973 H 2543.32 -1.87463 4.66762 0
M  V30 26974 H 2543.02 -0.574382 5.84786 0
M  V30 26975 H 2544.54 -1.50418 5.91783 0
M  V30 26976 H 2545.96 0.75509 5.68306 0
M  V30 26977 H 2544.35 1.53748 5.8007 0
M  V30 26978 H 2545.42 1.93772 4.445 0
M  V30 26979 N 2546.77 -1.4974 0.491491 0
M  V30 26980 C 2547.71 -2.28946 -0.291986 0
M  V30 26981 C 2548.68 -1.3491 -0.968949 0
M  V30 26982 O 2549.87 -1.63861 -0.977452 0
M  V30 26983 C 2547.01 -3.17338 -1.35611 0
M  V30 26984 C 2546.12 -4.26423 -0.691882 0
M  V30 26985 C 2545.26 -5.02045 -1.73563 0
M  V30 26986 C 2544.3 -6.02979 -1.05276 0
M  V30 26987 N 2543.43 -6.71801 -2.04028 0
M  V30 26988 H 2548.27 -2.95441 0.389706 0
M  V30 26989 H 2545.81 -1.45678 0.204029 0
M  V30 26990 H 2547.77 -3.66954 -1.98495 0
M  V30 26991 H 2546.4 -2.52847 -2.00669 0
M  V30 26992 H 2545.45 -3.80367 0.0500192 0
M  V30 26993 H 2546.76 -4.98563 -0.153858 0
M  V30 26994 H 2545.92 -5.55482 -2.43977 0
M  V30 26995 H 2544.65 -4.29658 -2.3075 0
M  V30 26996 H 2543.66 -5.48782 -0.33435 0
M  V30 26997 H 2544.88 -6.77348 -0.487517 0
M  V30 26998 H 2542.83 -6.02192 -2.60194 0
M  V30 26999 H 2542.75 -7.39884 -1.55266 0
M  V30 27000 H 2544.02 -7.29847 -2.73759 0
M  V30 27001 N 2548.24 -0.224922 -1.55987 0
M  V30 27002 C 2549.18 0.723891 -2.16414 0
M  V30 27003 C 2550.16 1.18861 -1.10954 0
M  V30 27004 O 2551.34 1.27075 -1.39227 0
M  V30 27005 C 2548.47 1.98116 -2.74714 0
M  V30 27006 C 2547.51 1.65613 -3.93032 0
M  V30 27007 S 2548.35 0.777965 -5.29819 0
M  V30 27008 C 2549.5 2.04472 -5.91559 0
M  V30 27009 H 2549.73 0.210295 -2.96555 0
M  V30 27010 H 2547.27 -0.00958171 -1.54397 0
M  V30 27011 H 2549.23 2.70305 -3.08942 0
M  V30 27012 H 2547.89 2.46588 -1.94559 0
M  V30 27013 H 2547.08 2.59036 -4.32338 0
M  V30 27014 H 2546.68 1.01484 -3.59968 0
M  V30 27015 H 2548.97 2.99435 -6.07738 0
M  V30 27016 H 2549.92 1.69551 -6.87501 0
M  V30 27017 H 2550.32 2.18679 -5.20423 0
M  V30 27018 N 2549.72 1.57526 0.0484352 0
M  V30 27019 C 2550.69 2.04271 1.03952 0
M  V30 27020 C 2551.69 0.943519 1.30209 0
M  V30 27021 O 2552.88 1.20773 1.25537 0
M  V30 27022 C 2550.01 2.44323 2.37737 0
M  V30 27023 H 2551.2 2.93076 0.63613 0
M  V30 27024 H 2548.75 1.53495 0.294784 0
M  V30 27025 H 2549.49 1.58615 2.82863 0
M  V30 27026 H 2549.27 3.24555 2.20015 0
M  V30 27027 H 2550.76 2.80983 3.08931 0
M  V30 27028 N 2551.2 -0.32033 1.5431 0
M  V30 27029 C 2552.45 -1.05946 1.72926 0
M  V30 27030 C 2552.78 -1.87567 0.503218 0
M  V30 27031 O 2552.05 -1.87969 -0.499806 0
M  V30 27032 C 2552.34 -1.9815 3.0068 0
M  V30 27033 C 2552.19 -1.19838 4.33542 0
M  V30 27034 C 2553.51 -2.97625 3.24203 0
M  V30 27035 H 2550.63 -0.383763 0.629202 0
M  V30 27036 H 2553.27 -0.335821 1.87009 0
M  V30 27037 H 2551.42 -2.59854 2.88804 0
M  V30 27038 H 2553.09 -0.605693 4.57306 0
M  V30 27039 H 2551.34 -0.500708 4.30901 0
M  V30 27040 H 2552.01 -1.87558 5.19159 0
M  V30 27041 H 2554.48 -2.46044 3.35562 0
M  V30 27042 H 2553.36 -3.59322 4.14945 0
M  V30 27043 H 2553.62 -3.70256 2.41584 0
M  V30 27044 N 2552.68 -1.46438 -0.582558 0
M  V30 27045 C 2553.93 -1.51456 -1.33812 0
M  V30 27046 C 2554.25 -0.167826 -1.94276 0
M  V30 27047 O 2553.52 0.805646 -1.78567 0
M  V30 27048 H 2552.1 -0.557827 -0.496828 0
M  V30 27049 H 2554.76 -1.82569 -0.682249 0
M  V30 27050 H 2553.86 -2.26731 -2.14475 0
M  V30 27051 N 2554.16 0.827204 -1.34146 0
M  V30 27052 C 2555.09 1.9428 -1.1971 0
M  V30 27053 C 2556.07 1.62352 -0.0897542 0
M  V30 27054 O 2557.25 1.86779 -0.254128 0
M  V30 27055 C 2554.38 3.28152 -0.838704 0
M  V30 27056 C 2553.42 3.79044 -1.9552 0
M  V30 27057 S 2554.26 3.99317 -3.568 0
M  V30 27058 C 2555.41 5.36122 -3.22993 0
M  V30 27059 H 2555.65 2.06227 -2.14144 0
M  V30 27060 H 2553.18 0.9823 -1.19123 0
M  V30 27061 H 2555.14 4.05501 -0.638708 0
M  V30 27062 H 2553.8 3.13979 0.0872224 0
M  V30 27063 H 2552.99 4.75945 -1.65808 0
M  V30 27064 H 2552.59 3.08627 -2.11246 0
M  V30 27065 H 2554.89 6.19381 -2.74541 0
M  V30 27066 H 2555.83 5.70815 -4.19018 0
M  V30 27067 H 2556.24 5.01429 -2.59285 0
M  V30 27068 N 2555.63 1.17805 1.04688 0
M  V30 27069 C 2557.05 0.926402 1.29961 0
M  V30 27070 C 2557.25 -0.411601 1.97251 0
M  V30 27071 O 2556.31 -1.1474 2.24924 0
M  V30 27072 C 2557.62 2.08741 2.16444 0
M  V30 27073 C 2559.17 2.125 2.2981 0
M  V30 27074 C 2559.64 3.28001 3.19655 0
M  V30 27075 N 2561.13 3.27822 3.27242 0
M  V30 27076 C 2561.87 4.13834 3.96899 0
M  V30 27077 N 2561.36 5.09967 4.68941 0
M  V30 27078 N 2563.16 4.01768 3.93115 0
M  V30 27079 H 2555.31 2.03921 0.594146 0
M  V30 27080 H 2557.57 0.890684 0.324633 0
M  V30 27081 H 2557.28 3.05472 1.74299 0
M  V30 27082 H 2557.15 2.04274 3.17099 0
M  V30 27083 H 2559.54 1.16352 2.71194 0
M  V30 27084 H 2559.62 2.21027 1.28766 0
M  V30 27085 H 2559.26 4.24418 2.78984 0
M  V30 27086 H 2559.19 3.1671 4.20716 0
M  V30 27087 H 2561.68 2.58222 2.75916 0
M  V30 27088 H 2562 5.71983 5.19669 0
M  V30 27089 H 2560.34 5.13932 4.67866 0
M  V30 27090 H 2563.53 3.25956 3.35962 0
M  V30 27091 H 2563.71 4.69018 4.47131 0
M  V30 27092 N 2557.11 -1.23497 0.979094 0
M  V30 27093 C 2558.08 -2.23147 0.523283 0
M  V30 27094 C 2559.08 -1.56089 -0.386379 0
M  V30 27095 O 2560.27 -1.73265 -0.180252 0
M  V30 27096 C 2557.4 -3.40049 -0.240679 0
M  V30 27097 H 2558.59 -2.64986 1.40436 0
M  V30 27098 H 2556.14 -1.36308 0.764848 0
M  V30 27099 H 2556.88 -3.03664 -1.13836 0
M  V30 27100 H 2556.66 -3.89927 0.412275 0
M  V30 27101 H 2558.15 -4.13986 -0.548225 0
M  V30 27102 N 2558.59 -0.750586 -1.38578 0
M  V30 27103 C 2559.52 -0.136278 -2.33102 0
M  V30 27104 C 2560.5 0.706937 -1.54714 0
M  V30 27105 O 2561.69 0.648737 -1.83044 0
M  V30 27106 C 2558.82 0.759957 -3.38883 0
M  V30 27107 C 2557.77 0.0197032 -4.27995 0
M  V30 27108 C 2557.1 1.03399 -5.24607 0
M  V30 27109 C 2558.4 -1.14693 -5.09552 0
M  V30 27110 H 2560.09 -0.925872 -2.84724 0
M  V30 27111 H 2557.64 -0.446678 -1.36897 0
M  V30 27112 H 2559.59 1.19936 -4.03972 0
M  V30 27113 H 2558.31 1.58184 -2.85737 0
M  V30 27114 H 2556.97 -0.400248 -3.64409 0
M  V30 27115 H 2556.62 1.84985 -4.67749 0
M  V30 27116 H 2556.32 0.543361 -5.85082 0
M  V30 27117 H 2557.85 1.47278 -5.92572 0
M  V30 27118 H 2559.26 -0.785218 -5.67897 0
M  V30 27119 H 2557.66 -1.56822 -5.79247 0
M  V30 27120 H 2558.73 -1.96126 -4.43466 0
M  V30 27121 N 2560.07 1.49477 -0.499425 0
M  V30 27122 C 2561 2.31943 0.269203 0
M  V30 27123 C 2561.98 1.40144 0.96403 0
M  V30 27124 O 2563.17 1.69054 0.955737 0
M  V30 27125 C 2560.3 3.20617 1.33499 0
M  V30 27126 C 2559.25 4.21196 0.760128 0
M  V30 27127 C 2558.58 4.98796 1.92631 0
M  V30 27128 C 2559.88 5.21712 -0.247753 0
M  V30 27129 H 2561.57 2.96452 -0.419134 0
M  V30 27130 H 2559.12 1.42562 -0.203013 0
M  V30 27131 H 2561.07 3.77119 1.88041 0
M  V30 27132 H 2559.79 2.54048 2.05249 0
M  V30 27133 H 2558.45 3.65837 0.236466 0
M  V30 27134 H 2558.1 4.28676 2.63146 0
M  V30 27135 H 2557.8 5.6685 1.54775 0
M  V30 27136 H 2559.32 5.58141 2.4761 0
M  V30 27137 H 2560.74 5.72917 0.209479 0
M  V30 27138 H 2559.13 5.97647 -0.542067 0
M  V30 27139 H 2560.2 4.70718 -1.16417 0
M  V30 27140 N 2561.55 0.233191 1.55865 0
M  V30 27141 C 2562.82 -0.444954 1.90472 0
M  V30 27142 C 2563.2 -1.76888 1.15212 0
M  V30 27143 O 2562.55 -2.26956 0.265159 0
M  V30 27144 C 2562.76 -0.626499 3.43331 0
M  V30 27145 C 2564.11 -0.928637 4.14321 0
M  V30 27146 O 2565.13 -0.712864 3.48994 0
M  V30 27147 O 2563.99 -1.33877 5.29848 0
M  V30 27148 H 2561.09 -0.236871 0.792351 0
M  V30 27149 H 2563.63 0.27624 1.67437 0
M  V30 27150 H 2562.41 0.306891 3.90095 0
M  V30 27151 H 2562.03 -1.39875 3.72184 0
M  V30 27152 N 2563.03 -1.57549 -0.0400806 0
M  V30 27153 C 2564.25 -1.93015 -0.745162 0
M  V30 27154 C 2564.67 -0.832013 -1.69479 0
M  V30 27155 O 2564.03 0.192431 -1.81483 0
M  V30 27156 C 2564.08 -3.28375 -1.5117 0
M  V30 27157 O 2563.8 -4.33969 -0.600207 0
M  V30 27158 C 2565.3 -3.78055 -2.31494 0
M  V30 27159 H 2562.52 -0.637267 -0.210077 0
M  V30 27160 H 2565.06 -2.045 -0.000888743 0
M  V30 27161 H 2563.22 -3.18321 -2.20795 0
M  V30 27162 H 2563.63 -5.12037 -1.1366 0
M  V30 27163 H 2565.11 -4.75308 -2.80689 0
M  V30 27164 H 2565.58 -3.08681 -3.1243 0
M  V30 27165 H 2566.19 -3.91156 -1.66964 0
M  V30 27166 N 2564.5 0.312142 -1.54478 0
M  V30 27167 C 2565.75 1.05027 -1.73485 0
M  V30 27168 C 2566.08 1.87297 -0.513158 0
M  V30 27169 O 2565.36 1.88231 0.48983 0
M  V30 27170 C 2565.64 1.96553 -3.01727 0
M  V30 27171 C 2565.49 1.17537 -4.34172 0
M  V30 27172 C 2566.81 2.95901 -3.25777 0
M  V30 27173 H 2563.93 0.380421 -0.631228 0
M  V30 27174 H 2566.57 0.325899 -1.87184 0
M  V30 27175 H 2564.72 2.58319 -2.90178 0
M  V30 27176 H 2566.4 0.581432 -4.57621 0
M  V30 27177 H 2564.64 0.477849 -4.3116 0
M  V30 27178 H 2565.31 1.84802 -5.20146 0
M  V30 27179 H 2567.79 2.44261 -3.36862 0
M  V30 27180 H 2566.66 3.57116 -4.16845 0
M  V30 27181 H 2566.92 3.6897 -2.43544 0
M  V30 27182 N 2565.98 1.46745 0.574784 0
M  V30 27183 C 2566.91 1.5243 1.69824 0
M  V30 27184 C 2567.89 0.377771 1.58151 0
M  V30 27185 O 2569.08 0.583062 1.79256 0
M  V30 27186 C 2566.2 1.41032 3.07941 0
M  V30 27187 C 2565.25 2.59967 3.38112 0
M  V30 27188 S 2566.08 4.22277 3.29305 0
M  V30 27189 C 2567.24 4.13402 4.69946 0
M  V30 27190 H 2567.47 2.47481 1.64744 0
M  V30 27191 H 2565 1.34727 0.754179 0
M  V30 27192 H 2566.96 1.35144 3.87616 0
M  V30 27193 H 2565.62 0.473964 3.10503 0
M  V30 27194 H 2564.82 2.48007 4.38758 0
M  V30 27195 H 2564.42 2.62887 2.6602 0
M  V30 27196 H 2566.71 3.80572 5.6051 0
M  V30 27197 H 2567.65 5.14074 4.86963 0
M  V30 27198 H 2568.06 3.4453 4.47168 0
M  V30 27199 N 2567.46 -0.820078 1.34583 0
M  V30 27200 C 2568.39 -1.93882 1.22239 0
M  V30 27201 C 2569.4 -1.62119 0.148804 0
M  V30 27202 O 2570.59 -1.7394 0.400908 0
M  V30 27203 C 2567.69 -3.27896 0.8566 0
M  V30 27204 C 2566.87 -3.87662 2.02576 0
M  V30 27205 C 2565.93 -5.00059 1.63791 0
M  V30 27206 O 2564.95 -5.18203 2.35486 0
M  V30 27207 N 2566.15 -5.77853 0.553713 0
M  V30 27208 H 2568.92 -2.05002 2.18619 0
M  V30 27209 H 2566.48 -0.996808 1.27575 0
M  V30 27210 H 2568.47 -4.00539 0.578876 0
M  V30 27211 H 2567.04 -3.12595 -0.0170969 0
M  V30 27212 H 2566.26 -3.07377 2.46805 0
M  V30 27213 H 2567.55 -4.24325 2.8076 0
M  V30 27214 H 2566.95 -5.65684 -0.0422534 0
M  V30 27215 H 2565.5 -6.50935 0.335729 0
M  V30 27216 N 2568.94 -1.18359 -1.04062 0
M  V30 27217 C 2569.9 -0.912744 -2.10242 0
M  V30 27218 C 2570.9 0.1019 -1.60477 0
M  V30 27219 O 2572.09 -0.131547 -1.73703 0
M  V30 27220 C 2569.22 -0.369446 -3.38892 0
M  V30 27221 H 2570.42 -1.8543 -2.35702 0
M  V30 27222 H 2567.97 -0.995615 -1.20487 0
M  V30 27223 H 2568.7 0.57872 -3.19095 0
M  V30 27224 H 2568.49 -1.10086 -3.76329 0
M  V30 27225 H 2569.98 -0.198648 -4.17127 0
M  V30 27226 N 2570.42 1.22976 -0.98563 0
M  V30 27227 C 2571.35 2.26938 -0.549689 0
M  V30 27228 C 2572.33 1.64839 0.419774 0
M  V30 27229 O 2573.51 1.91677 0.311997 0
M  V30 27230 C 2570.64 3.47003 0.143591 0
M  V30 27231 C 2569.6 4.2149 -0.74368 0
M  V30 27232 C 2568.92 5.34637 0.0821087 0
M  V30 27233 C 2570.22 4.80939 -2.03703 0
M  V30 27234 H 2571.92 2.63655 -1.41867 0
M  V30 27235 H 2569.46 1.2674 -0.683594 0
M  V30 27236 H 2571.41 4.18883 0.459911 0
M  V30 27237 H 2570.14 3.09361 1.04706 0
M  V30 27238 H 2568.8 3.51434 -1.04353 0
M  V30 27239 H 2568.45 4.93236 0.986272 0
M  V30 27240 H 2568.15 5.85396 -0.50848 0
M  V30 27241 H 2569.67 6.09336 0.39269 0
M  V30 27242 H 2571.08 5.44799 -1.78513 0
M  V30 27243 H 2569.48 5.42007 -2.57583 0
M  V30 27244 H 2570.55 4.01394 -2.72049 0
M  V30 27245 N 2571.89 0.757924 1.38178 0
M  V30 27246 C 2573.3 0.383166 1.82726 0
M  V30 27247 C 2573.66 -1.08881 1.63216 0
M  V30 27248 O 2572.78 -1.84203 1.1357 0
M  V30 27249 C 2573.38 0.688689 3.31727 0
M  V30 27250 C 2571.93 0.367157 3.74605 0
M  V30 27251 C 2571.08 0.939645 2.60895 0
M  V30 27252 H 2574.03 0.953721 1.26846 0
M  V30 27253 H 2574.05 -0.0315823 3.80487 0
M  V30 27254 H 2573.57 1.76007 3.45895 0
M  V30 27255 H 2571.67 -0.697468 3.66014 0
M  V30 27256 H 2571.78 0.865741 4.71213 0
M  V30 27257 H 2570.14 0.364745 2.52075 0
M  V30 27258 H 2570.93 2.01615 2.7786 0
M  V30 27259 N 2573.37 -1.4921 0.507345 0
M  V30 27260 C 2574.3 -2.27168 -0.304492 0
M  V30 27261 C 2575.32 -1.33973 -0.924932 0
M  V30 27262 O 2576.51 -1.59206 -0.807199 0
M  V30 27263 C 2573.61 -3.06585 -1.44426 0
M  V30 27264 C 2572.78 -4.274 -0.929951 0
M  V30 27265 C 2571.84 -4.88811 -1.94809 0
M  V30 27266 O 2570.86 -5.48693 -1.51409 0
M  V30 27267 N 2572.07 -4.79027 -3.27892 0
M  V30 27268 H 2574.83 -2.97481 0.364002 0
M  V30 27269 H 2572.39 -1.58284 0.340277 0
M  V30 27270 H 2574.38 -3.44541 -2.12305 0
M  V30 27271 H 2572.95 -2.38839 -2.0168 0
M  V30 27272 H 2572.17 -3.94127 -0.0758551 0
M  V30 27273 H 2573.46 -5.05655 -0.564843 0
M  V30 27274 H 2572.86 -4.31487 -3.65836 0
M  V30 27275 H 2571.42 -5.21149 -3.91467 0
M  V30 27276 N 2574.85 -0.241454 -1.55739 0
M  V30 27277 C 2576.1 0.385371 -1.99105 0
M  V30 27278 C 2576.43 1.57986 -1.12933 0
M  V30 27279 O 2575.7 1.93555 -0.191483 0
M  V30 27280 C 2575.99 0.800554 -3.51089 0
M  V30 27281 C 2575.84 -0.398953 -4.48027 0
M  V30 27282 C 2577.16 1.64952 -4.08018 0
M  V30 27283 H 2574.28 0.138601 -0.72385 0
M  V30 27284 H 2576.92 -0.341675 -1.86903 0
M  V30 27285 H 2575.07 1.42003 -3.61618 0
M  V30 27286 H 2576.74 -1.03734 -4.49485 0
M  V30 27287 H 2574.99 -1.043 -4.21075 0
M  V30 27288 H 2575.66 -0.0652026 -5.51961 0
M  V30 27289 H 2578.13 1.12665 -4.00557 0
M  V30 27290 H 2577.01 1.90889 -5.14638 0
M  V30 27291 H 2577.27 2.61955 -3.56135 0
M  V30 27292 N 2576.33 1.57568 0.0317248 0
M  V30 27293 C 2577.58 1.88777 0.721642 0
M  V30 27294 C 2577.9 0.838803 1.76037 0
M  V30 27295 O 2577.17 -0.1279 1.95482 0
M  V30 27296 H 2575.75 0.696683 0.269522 0
M  V30 27297 H 2578.41 1.949 -0.00169305 0
M  V30 27298 H 2577.51 2.87569 1.21288 0
M  V30 27299 N 2577.81 -0.303946 1.54641 0
M  V30 27300 C 2578.75 -1.39481 1.86139 0
M  V30 27301 C 2579.75 -1.5263 0.734881 0
M  V30 27302 O 2580.95 -1.54782 0.918831 0
M  V30 27303 H 2577.33 -0.465846 0.590332 0
M  V30 27304 H 2579.3 -1.10149 2.77326 0
M  V30 27305 C 2578.05 -2.75378 2.12279 0
M  V30 27306 H 2577.37 -2.6604 2.98433 0
M  V30 27307 H 2578.81 -3.50725 2.3826 0
M  V30 27308 C 2577.27 -3.24083 0.920422 0
M  V30 27309 O 2577.8 -4.01458 0.139448 0
M  V30 27310 N 2576.01 -2.81369 0.726616 0
M  V30 27311 H 2575.55 -2.18564 1.36336 0
M  V30 27312 H 2575.51 -3.14307 -0.0763246 0
M  V30 27313 N 2579.28 -1.47047 -0.566994 0
M  V30 27314 C 2580.21 -1.6167 -1.68479 0
M  V30 27315 C 2581.2 -0.466447 -1.6358 0
M  V30 27316 O 2582.38 -0.694606 -1.81353 0
M  V30 27317 C 2579.51 -1.62153 -3.07122 0
M  V30 27318 C 2578.46 -2.76307 -3.26862 0
M  V30 27319 C 2577.79 -2.61858 -4.66192 0
M  V30 27320 C 2579.09 -4.17991 -3.13178 0
M  V30 27321 H 2580.78 -2.55243 -1.56497 0
M  V30 27322 H 2578.33 -1.22837 -0.751465 0
M  V30 27323 H 2580.28 -1.70975 -3.85157 0
M  V30 27324 H 2579.01 -0.651343 -3.20039 0
M  V30 27325 H 2577.67 -2.6698 -2.51232 0
M  V30 27326 H 2577.31 -1.62888 -4.75896 0
M  V30 27327 H 2577.01 -3.38434 -4.8035 0
M  V30 27328 H 2578.54 -2.72593 -5.46375 0
M  V30 27329 H 2579.95 -4.28346 -3.81041 0
M  V30 27330 H 2578.35 -4.95278 -3.38851 0
M  V30 27331 H 2579.42 -4.37044 -2.10049 0
M  V30 27332 N 2580.76 0.812929 -1.35016 0
M  V30 27333 C 2582.01 1.56659 -1.27681 0
M  V30 27334 C 2582.33 1.9442 0.150324 0
M  V30 27335 O 2581.6 1.6309 1.08529 0
M  V30 27336 H 2580.18 0.580925 -0.469612 0
M  V30 27337 H 2582.84 0.970047 -1.69045 0
M  V30 27338 H 2581.94 2.48489 -1.88837 0
M  V30 27339 N 2582.24 1.18909 1.03433 0
M  V30 27340 C 2583.17 0.945486 2.13501 0
M  V30 27341 C 2584.15 -0.119159 1.69682 0
M  V30 27342 O 2585.34 0.0347411 1.94169 0
M  V30 27343 C 2582.47 0.477377 3.44003 0
M  V30 27344 C 2581.42 1.48323 4.01478 0
M  V30 27345 C 2580.75 0.872404 5.27535 0
M  V30 27346 C 2582.05 2.86185 4.36916 0
M  V30 27347 H 2583.74 1.86601 2.34138 0
M  V30 27348 H 2581.29 0.898604 1.12522 0
M  V30 27349 H 2583.24 0.294278 4.20371 0
M  V30 27350 H 2581.96 -0.478729 3.23072 0
M  V30 27351 H 2580.62 1.65338 3.27198 0
M  V30 27352 H 2580.27 -0.0910868 5.02918 0
M  V30 27353 H 2579.97 1.54403 5.66951 0
M  V30 27354 H 2581.49 0.699978 6.06575 0
M  V30 27355 H 2582.91 2.72785 5.04243 0
M  V30 27356 H 2581.31 3.50089 4.87399 0
M  V30 27357 H 2582.38 3.39254 3.4646 0
M  V30 27358 N 2583.72 -1.22452 0.992137 0
M  V30 27359 C 2584.65 -2.26643 0.561716 0
M  V30 27360 C 2585.63 -1.65059 -0.411026 0
M  V30 27361 O 2586.81 -1.9184 -0.301827 0
M  V30 27362 C 2583.94 -3.47074 -0.125186 0
M  V30 27363 C 2582.9 -4.21089 0.766022 0
M  V30 27364 C 2582.22 -5.34673 -0.0537544 0
M  V30 27365 C 2583.52 -4.79852 2.0625 0
M  V30 27366 H 2585.22 -2.62899 1.43263 0
M  V30 27367 H 2582.76 -1.26376 0.690305 0
M  V30 27368 H 2584.72 -4.19121 -0.43769 0
M  V30 27369 H 2583.44 -3.09912 -1.03064 0
M  V30 27370 H 2582.1 -3.50876 1.06216 0
M  V30 27371 H 2581.75 -4.93752 -0.960101 0
M  V30 27372 H 2581.45 -5.85118 0.539517 0
M  V30 27373 H 2582.97 -6.09536 -0.36037 0
M  V30 27374 H 2584.39 -5.43845 1.814 0
M  V30 27375 H 2582.78 -5.40633 2.60453 0
M  V30 27376 H 2583.85 -3.99946 2.74174 0
M  V30 27377 N 2585.2 -0.765242 -1.37774 0
M  V30 27378 C 2586.44 -0.326623 -1.99849 0
M  V30 27379 C 2586.77 1.09501 -1.60747 0
M  V30 27380 O 2586.03 1.76658 -0.842052 0
M  V30 27381 C 2586.33 -0.410115 -3.55039 0
M  V30 27382 C 2585.99 -1.78907 -4.13888 0
M  V30 27383 C 2584.65 -2.16642 -4.29674 0
M  V30 27384 C 2587.01 -2.69309 -4.46231 0
M  V30 27385 C 2584.33 -3.44229 -4.75104 0
M  V30 27386 C 2586.69 -3.96298 -4.93082 0
M  V30 27387 C 2585.35 -4.34087 -5.07074 0
M  V30 27388 H 2584.62 -0.11952 -0.731297 0
M  V30 27389 H 2587.27 -0.977997 -1.64643 0
M  V30 27390 H 2585.57 0.324809 -3.90451 0
M  V30 27391 H 2587.27 -0.0521404 -4.00966 0
M  V30 27392 H 2583.86 -1.48576 -4.02024 0
M  V30 27393 H 2588.04 -2.41417 -4.33626 0
M  V30 27394 H 2583.3 -3.7341 -4.84123 0
M  V30 27395 H 2587.47 -4.66482 -5.17076 0
M  V30 27396 H 2585.1 -5.33011 -5.42036 0
M  V30 27397 N 2586.67 1.48939 -0.515251 0
M  V30 27398 C 2587.61 2.26186 0.302478 0
M  V30 27399 C 2588.59 1.31391 0.957871 0
M  V30 27400 O 2589.77 1.60707 0.98517 0
M  V30 27401 C 2586.9 3.07165 1.42713 0
M  V30 27402 C 2585.94 4.17224 0.884662 0
M  V30 27403 S 2586.78 5.3498 -0.235861 0
M  V30 27404 C 2587.93 6.19517 0.891622 0
M  V30 27405 H 2588.16 2.95195 -0.353128 0
M  V30 27406 H 2585.7 1.51442 -0.30078 0
M  V30 27407 H 2587.66 3.54402 2.07146 0
M  V30 27408 H 2586.32 2.37598 2.05441 0
M  V30 27409 H 2585.51 4.73454 1.72792 0
M  V30 27410 H 2585.11 3.72652 0.317296 0
M  V30 27411 H 2587.4 6.53326 1.79366 0
M  V30 27412 H 2588.35 7.07145 0.367627 0
M  V30 27413 H 2588.75 5.5234 1.16538 0
M  V30 27414 N 2588.15 0.249709 1.55609 0
M  V30 27415 C 2589.08 -0.642787 2.24478 0
M  V30 27416 C 2590.06 -1.17909 1.22603 0
M  V30 27417 O 2591.25 -1.21792 1.51263 0
M  V30 27418 C 2588.38 -1.83858 2.94641 0
M  V30 27419 C 2587.33 -1.43493 4.03229 0
M  V30 27420 C 2586.66 -2.71178 4.60833 0
M  V30 27421 C 2587.96 -0.60391 5.18797 0
M  V30 27422 H 2589.65 -0.0685099 2.99322 0
M  V30 27423 H 2587.2 -0.031511 1.43966 0
M  V30 27424 H 2589.15 -2.46862 3.41522 0
M  V30 27425 H 2587.88 -2.43828 2.17291 0
M  V30 27426 H 2586.54 -0.828212 3.57122 0
M  V30 27427 H 2586.18 -3.29352 3.8018 0
M  V30 27428 H 2585.88 -2.44892 5.34137 0
M  V30 27429 H 2587.41 -3.35075 5.10448 0
M  V30 27430 H 2588.82 -1.13832 5.61885 0
M  V30 27431 H 2587.22 -0.436992 5.98507 0
M  V30 27432 H 2588.29 0.383232 4.83383 0
M  V30 27433 N 2589.63 -1.57583 -0.0233682 0
M  V30 27434 C 2590.56 -2.09966 -1.02159 0
M  V30 27435 C 2591.54 -1.00347 -1.37348 0
M  V30 27436 O 2592.73 -1.27902 -1.46133 0
M  V30 27437 C 2589.86 -2.58375 -2.32077 0
M  V30 27438 C 2588.81 -3.72311 -2.11113 0
M  V30 27439 C 2588.14 -4.06947 -3.46841 0
M  V30 27440 C 2589.44 -5.00516 -1.49267 0
M  V30 27441 H 2591.13 -2.93619 -0.585506 0
M  V30 27442 H 2588.68 -1.41248 -0.280194 0
M  V30 27443 H 2590.63 -2.93644 -3.02243 0
M  V30 27444 H 2589.35 -1.71813 -2.77755 0
M  V30 27445 H 2588.01 -3.37399 -1.43378 0
M  V30 27446 H 2587.66 -3.17442 -3.90179 0
M  V30 27447 H 2587.36 -4.83694 -3.33638 0
M  V30 27448 H 2588.89 -4.44755 -4.18361 0
M  V30 27449 H 2590.3 -5.33706 -2.09359 0
M  V30 27450 H 2588.7 -5.81912 -1.46622 0
M  V30 27451 H 2589.77 -4.82721 -0.459132 0
M  V30 27452 N 2591.11 0.29574 -1.548 0
M  V30 27453 C 2592.36 1.03029 -1.74331 0
M  V30 27454 C 2592.68 1.87084 -0.531948 0
M  V30 27455 O 2591.94 1.89569 0.486019 0
M  V30 27456 C 2592.24 1.96094 -2.98801 0
M  V30 27457 C 2591.9 1.27973 -4.32358 0
M  V30 27458 C 2590.57 1.09127 -4.68663 0
M  V30 27459 C 2592.92 0.793153 -5.1513 0
M  V30 27460 C 2590.25 0.403166 -5.85313 0
M  V30 27461 C 2592.6 0.118743 -6.32489 0
M  V30 27462 C 2591.26 -0.0816217 -6.6745 0
M  V30 27463 H 2590.53 0.377009 -0.637923 0
M  V30 27464 H 2593.18 0.304663 -1.89061 0
M  V30 27465 H 2591.48 2.75203 -2.78874 0
M  V30 27466 H 2593.18 2.53009 -3.11107 0
M  V30 27467 H 2589.77 1.43648 -4.03811 0
M  V30 27468 H 2593.96 0.926444 -4.87576 0
M  V30 27469 H 2589.21 0.236991 -6.10941 0
M  V30 27470 H 2593.39 -0.266157 -6.95891 0
M  V30 27471 H 2591.01 -0.616818 -7.57693 0
M  V30 27472 N 2592.59 1.47346 0.559187 0
M  V30 27473 C 2593.83 1.53869 1.31645 0
M  V30 27474 C 2594.16 0.200138 1.93468 0
M  V30 27475 O 2593.42 -0.806767 1.78297 0
M  V30 27476 C 2593.72 2.60354 2.44848 0
M  V30 27477 C 2593.38 4.03686 2.00869 0
M  V30 27478 C 2592.04 4.42704 1.88591 0
M  V30 27479 C 2594.4 4.93629 1.67271 0
M  V30 27480 C 2591.72 5.69503 1.41007 0
M  V30 27481 C 2594.08 6.20889 1.21159 0
M  V30 27482 C 2592.74 6.58791 1.07475 0
M  V30 27483 H 2592.01 0.563048 0.481724 0
M  V30 27484 H 2594.66 1.80935 0.627269 0
M  V30 27485 H 2592.96 2.27037 3.19314 0
M  V30 27486 H 2594.66 2.62624 3.03034 0
M  V30 27487 H 2591.25 3.72856 2.11367 0
M  V30 27488 H 2595.43 4.64185 1.7563 0
M  V30 27489 H 2590.69 5.9762 1.29076 0
M  V30 27490 H 2594.86 6.89996 0.942223 0
M  V30 27491 H 2592.49 7.56935 0.703813 0
M  V30 27492 N 2594.07 -0.805758 1.35445 0
M  V30 27493 C 2595.31 -1.55799 1.281 0
M  V30 27494 C 2595.63 -1.95081 -0.142393 0
M  V30 27495 O 2596.83 -2.69386 -0.338122 0
M  V30 27496 C 2595.29 -2.8117 2.24658 0
M  V30 27497 C 2594.9 -2.49123 3.72346 0
M  V30 27498 C 2596.64 -3.59177 2.26257 0
M  V30 27499 C 2594.55 -3.70791 4.60726 0
M  V30 27500 H 2593.48 -0.5848 0.475947 0
M  V30 27501 H 2596.13 -0.885632 1.60713 0
M  V30 27502 H 2594.51 -3.50121 1.85017 0
M  V30 27503 H 2595.69 -1.88173 4.20627 0
M  V30 27504 H 2594 -1.8436 3.73364 0
M  V30 27505 H 2596.6 -4.49547 2.89503 0
M  V30 27506 H 2596.94 -3.96566 1.26654 0
M  V30 27507 H 2597.47 -2.97189 2.64431 0
M  V30 27508 H 2594.21 -3.3851 5.6133 0
M  V30 27509 H 2593.73 -4.30963 4.1717 0
M  V30 27510 H 2595.41 -4.3801 4.7619 0
M  V30 27511 N 2595.54 -1.19456 -1.02801 0
M  V30 27512 C 2596.79 -0.997724 -1.76215 0
M  V30 27513 C 2597.12 0.471407 -1.88701 0
M  V30 27514 O 2596.37 1.36627 -1.40112 0
M  V30 27515 C 2596.67 -1.61286 -3.18938 0
M  V30 27516 C 2596.34 -3.11025 -3.26458 0
M  V30 27517 C 2595 -3.51891 -3.28217 0
M  V30 27518 C 2597.35 -4.07034 -3.25535 0
M  V30 27519 C 2594.68 -4.87316 -3.26711 0
M  V30 27520 C 2597.03 -5.4239 -3.25569 0
M  V30 27521 C 2595.7 -5.82686 -3.25627 0
M  V30 27522 H 2594.97 -0.365093 -0.644816 0
M  V30 27523 H 2597.61 -1.48712 -1.20652 0
M  V30 27524 H 2595.92 -1.04578 -3.77585 0
M  V30 27525 H 2597.62 -1.43584 -3.74413 0
M  V30 27526 H 2594.21 -2.78463 -3.25817 0
M  V30 27527 H 2598.39 -3.76503 -3.23356 0
M  V30 27528 H 2593.65 -5.17816 -3.25079 0
M  V30 27529 H 2597.82 -6.16541 -3.23806 0
M  V30 27530 H 2595.45 -6.87597 -3.24214 0
M  V30 27531 N 2597.02 1.21924 -0.998617 0
M  V30 27532 C 2597.98 2.22286 -0.558718 0
M  V30 27533 C 2598.98 1.56684 0.361498 0
M  V30 27534 O 2600.17 1.7353 0.152665 0
M  V30 27535 C 2597.31 3.40389 0.18655 0
M  V30 27536 H 2598.5 2.62718 -1.44634 0
M  V30 27537 H 2596.05 1.35074 -0.786437 0
M  V30 27538 H 2596.79 3.05437 1.0899 0
M  V30 27539 H 2596.57 3.89221 -0.474257 0
M  V30 27540 H 2598.06 4.14806 0.482294 0
M  V30 27541 N 2598.5 0.772537 1.37367 0
M  V30 27542 C 2599.46 0.165582 2.28601 0
M  V30 27543 C 2600.46 -0.627212 1.48063 0
M  V30 27544 O 2601.65 -0.450685 1.68269 0
M  V30 27545 C 2598.78 -0.772839 3.32024 0
M  V30 27546 H 2599.98 0.969836 2.83785 0
M  V30 27547 H 2597.53 0.540801 1.46646 0
M  V30 27548 H 2598.27 -1.60207 2.81965 0
M  V30 27549 H 2598.05 -0.206517 3.91556 0
M  V30 27550 H 2599.54 -1.19291 4.00199 0
M  V30 27551 N 2599.98 -1.48664 0.523142 0
M  V30 27552 C 2600.91 -2.32342 -0.232269 0
M  V30 27553 C 2601.89 -1.4166 -0.941612 0
M  V30 27554 O 2603.07 -1.70553 -0.928721 0
M  V30 27555 C 2600.2 -3.227 -1.28381 0
M  V30 27556 C 2599.16 -4.22352 -0.693024 0
M  V30 27557 C 2598.48 -5.01797 -1.84672 0
M  V30 27558 C 2599.78 -5.21252 0.330721 0
M  V30 27559 H 2601.48 -2.95747 0.466244 0
M  V30 27560 H 2599.02 -1.42221 0.225668 0
M  V30 27561 H 2600.98 -3.80063 -1.82018 0
M  V30 27562 H 2599.7 -2.57281 -2.01181 0
M  V30 27563 H 2598.36 -3.66166 -0.178235 0
M  V30 27564 H 2598.01 -4.32808 -2.56293 0
M  V30 27565 H 2597.71 -5.6924 -1.45737 0
M  V30 27566 H 2599.23 -5.6201 -2.38699 0
M  V30 27567 H 2600.65 -5.73178 -0.118306 0
M  V30 27568 H 2599.04 -5.96709 0.637079 0
M  V30 27569 H 2600.11 -4.68806 1.23891 0
M  V30 27570 N 2601.46 -0.257958 -1.55475 0
M  V30 27571 C 2602.7 0.362974 -1.98814 0
M  V30 27572 C 2603.02 1.57655 -1.1476 0
M  V30 27573 O 2602.29 1.9451 -0.23299 0
M  V30 27574 H 2600.87 0.1371 -0.734311 0
M  V30 27575 H 2603.54 -0.359314 -1.91559 0
M  V30 27576 H 2602.63 0.66458 -3.04942 0
M  V30 27577 N 2602.93 1.57593 0.0150108 0
M  V30 27578 C 2604.18 1.90188 0.70401 0
M  V30 27579 C 2604.51 0.857396 1.74248 0
M  V30 27580 O 2603.79 -0.125809 1.94093 0
M  V30 27581 C 2604.07 3.33398 1.36081 0
M  V30 27582 C 2603.92 4.48551 0.334902 0
M  V30 27583 C 2605.24 3.75764 2.29105 0
M  V30 27584 H 2602.36 0.691677 0.254463 0
M  V30 27585 H 2605 1.89971 -0.0332012 0
M  V30 27586 H 2603.15 3.33713 1.98916 0
M  V30 27587 H 2604.83 4.60371 -0.292615 0
M  V30 27588 H 2603.07 4.32431 -0.344401 0
M  V30 27589 H 2603.74 5.45675 0.83322 0
M  V30 27590 H 2606.22 3.76905 1.76301 0
M  V30 27591 H 2605.09 4.76748 2.72035 0
M  V30 27592 H 2605.35 3.08798 3.1638 0
M  V30 27593 N 2604.41 -0.287527 1.54955 0
M  V30 27594 C 2605.32 -1.37733 1.89913 0
M  V30 27595 C 2606.34 -1.5479 0.794729 0
M  V30 27596 O 2607.51 -1.69196 1.09246 0
M  V30 27597 C 2604.58 -2.71896 2.15113 0
M  V30 27598 C 2603.64 -2.63709 3.38757 0
M  V30 27599 C 2602.87 -3.91473 3.62746 0
M  V30 27600 O 2603.1 -4.91473 2.89501 0
M  V30 27601 O 2602.03 -3.92553 4.56274 0
M  V30 27602 H 2605.86 -1.11087 2.82654 0
M  V30 27603 H 2603.44 -0.484782 1.41316 0
M  V30 27604 H 2605.32 -3.5125 2.32812 0
M  V30 27605 H 2604 -2.98358 1.25556 0
M  V30 27606 H 2602.91 -1.8278 3.26408 0
M  V30 27607 H 2604.24 -2.42198 4.28487 0
M  V30 27608 N 2605.89 -1.47641 -0.551365 0
M  V30 27609 C 2606.82 -1.63448 -1.66755 0
M  V30 27610 C 2607.8 -0.48377 -1.63076 0
M  V30 27611 O 2608.99 -0.713802 -1.80606 0
M  V30 27612 C 2606.12 -1.65401 -3.05384 0
M  V30 27613 C 2605.07 -2.79758 -3.23913 0
M  V30 27614 C 2604.4 -2.66787 -4.63388 0
M  V30 27615 C 2605.7 -4.21289 -3.08727 0
M  V30 27616 H 2607.39 -2.56888 -1.53781 0
M  V30 27617 H 2604.94 -1.23627 -0.738394 0
M  V30 27618 H 2606.89 -1.7505 -3.83322 0
M  V30 27619 H 2605.61 -0.685251 -3.1933 0
M  V30 27620 H 2604.27 -2.69629 -2.48386 0
M  V30 27621 H 2603.92 -1.67926 -4.74141 0
M  V30 27622 H 2603.62 -3.4351 -4.76734 0
M  V30 27623 H 2605.14 -2.78373 -5.43453 0
M  V30 27624 H 2606.56 -4.32364 -3.76476 0
M  V30 27625 H 2604.96 -4.98844 -3.33579 0
M  V30 27626 H 2606.03 -4.39247 -2.05402 0
M  V30 27627 N 2607.37 0.798563 -1.3587 0
M  V30 27628 C 2608.62 1.55603 -1.29591 0
M  V30 27629 C 2608.94 1.94082 0.127422 0
M  V30 27630 O 2608.2 1.62227 1.09458 0
M  V30 27631 C 2608.5 2.85073 -2.15565 0
M  V30 27632 C 2608.16 2.65775 -3.64245 0
M  V30 27633 C 2606.83 2.6022 -4.0477 0
M  V30 27634 C 2609.18 2.4775 -4.58552 0
M  V30 27635 C 2606.51 2.34593 -5.37757 0
M  V30 27636 C 2608.86 2.23651 -5.91746 0
M  V30 27637 C 2607.52 2.16523 -6.31406 0
M  V30 27638 H 2606.79 0.569393 -0.474207 0
M  V30 27639 H 2609.44 0.922056 -1.6784 0
M  V30 27640 H 2607.74 3.5289 -1.70222 0
M  V30 27641 H 2609.44 3.42814 -2.08037 0
M  V30 27642 H 2606.03 2.7095 -3.32091 0
M  V30 27643 H 2610.21 2.51049 -4.28122 0
M  V30 27644 H 2605.47 2.2755 -5.67478 0
M  V30 27645 H 2609.64 2.08696 -6.64394 0
M  V30 27646 H 2607.27 1.96429 -7.34384 0
M  V30 27647 N 2608.85 1.19999 1.02166 0
M  V30 27648 C 2610.09 1.00507 1.75336 0
M  V30 27649 C 2610.42 -0.464473 1.89388 0
M  V30 27650 O 2609.69 -1.33605 1.43271 0
M  V30 27651 H 2608.27 0.368896 0.649557 0
M  V30 27652 H 2610.93 1.51021 1.23202 0
M  V30 27653 H 2610.02 1.45917 2.75889 0
M  V30 27654 N 2610.32 -1.21392 1.00507 0
M  V30 27655 C 2611.6 -1.86063 0.60331 0
M  V30 27656 C 2611.98 -1.90043 -0.919062 0
M  V30 27657 O 2611.33 -1.3998 -1.80604 0
M  V30 27658 C 2611.54 -3.26313 1.23777 0
M  V30 27659 C 2612.89 -4.02703 1.34594 0
M  V30 27660 O 2613.91 -3.35624 1.1931 0
M  V30 27661 O 2612.77 -5.22804 1.59179 0
M  V30 27662 H 2609.86 -0.800766 0.206648 0
M  V30 27663 H 2612.41 -1.29075 1.10172 0
M  V30 27664 H 2611.18 -3.18117 2.27853 0
M  V30 27665 H 2610.81 -3.90921 0.725716 0
M  V30 27666 N 2611.8 -0.779811 -1.36955 0
M  V30 27667 C 2612.73 -0.185692 -2.3276 0
M  V30 27668 C 2613.71 0.673961 -1.56179 0
M  V30 27669 O 2614.9 0.609765 -1.84379 0
M  V30 27670 C 2612.03 0.687904 -3.40419 0
M  V30 27671 C 2610.98 -0.0710854 -4.27941 0
M  V30 27672 C 2610.31 0.92248 -5.26682 0
M  V30 27673 C 2611.61 -1.25476 -5.07004 0
M  V30 27674 H 2613.3 -0.986058 -2.82696 0
M  V30 27675 H 2610.85 -0.475616 -1.35919 0
M  V30 27676 H 2612.8 1.1134 -4.06425 0
M  V30 27677 H 2611.53 1.52088 -2.89028 0
M  V30 27678 H 2610.18 -0.477454 -3.63478 0
M  V30 27679 H 2609.83 1.75022 -4.71568 0
M  V30 27680 H 2609.53 0.419134 -5.86103 0
M  V30 27681 H 2611.06 1.34675 -5.95563 0
M  V30 27682 H 2612.47 -0.9055 -5.66104 0
M  V30 27683 H 2610.87 -1.69074 -5.7579 0
M  V30 27684 H 2611.94 -2.05489 -4.39207 0
M  V30 27685 N 2613.28 1.48384 -0.531019 0
M  V30 27686 C 2614.19 2.3342 0.234989 0
M  V30 27687 C 2615.21 1.46553 0.937984 0
M  V30 27688 O 2616.38 1.79531 0.912713 0
M  V30 27689 C 2613.45 3.22691 1.26772 0
M  V30 27690 C 2612.51 4.25432 0.574964 0
M  V30 27691 C 2611.74 5.10438 1.55849 0
M  V30 27692 O 2611.96 4.97442 2.7912 0
M  V30 27693 O 2610.9 5.91813 1.09732 0
M  V30 27694 H 2614.72 3.00168 -0.461847 0
M  V30 27695 H 2612.31 1.4652 -0.291928 0
M  V30 27696 H 2614.19 3.77908 1.8645 0
M  V30 27697 H 2612.87 2.58604 1.94694 0
M  V30 27698 H 2611.77 3.74048 -0.062344 0
M  V30 27699 H 2613.11 4.92161 -0.0623395 0
M  V30 27700 N 2614.76 0.2662 1.55336 0
M  V30 27701 C 2616 -0.354423 2.01304 0
M  V30 27702 C 2616.36 -1.53713 1.15049 0
M  V30 27703 O 2617.56 -2.22679 1.50558 0
M  V30 27704 C 2615.83 -0.735518 3.4975 0
M  V30 27705 S 2617.39 -1.34394 4.17713 0
M  V30 27706 H 2614.21 -0.110662 0.702335 0
M  V30 27707 H 2616.81 0.38595 1.91652 0
M  V30 27708 H 2615.52 0.134268 4.1018 0
M  V30 27709 H 2615.05 -1.50758 3.63367 0
M  V30 27710 H 2617.06 -2.63271 4.20598 0
M  V30 27711 N 2616.24 -1.57599 -0.0066531 0
M  V30 27712 C 2617.51 -1.81485 -0.729554 0
M  V30 27713 C 2617.89 -0.869591 -1.92357 0
M  V30 27714 O 2617.24 0.0832132 -2.28348 0
M  V30 27715 C 2617.45 -3.29803 -1.14154 0
M  V30 27716 C 2618.8 -3.95369 -1.54816 0
M  V30 27717 O 2619.82 -3.34086 -1.23552 0
M  V30 27718 O 2618.68 -5.03313 -2.12929 0
M  V30 27719 H 2615.78 -0.747091 -0.354661 0
M  V30 27720 H 2618.32 -1.6969 0.0182907 0
M  V30 27721 H 2617.09 -3.90223 -0.290162 0
M  V30 27722 H 2616.72 -3.46571 -1.9487 0
M  V30 27723 N 2617.72 0.279305 -1.55105 0
M  V30 27724 C 2618.63 1.36724 -1.9064 0
M  V30 27725 C 2619.64 1.54367 -0.802926 0
M  V30 27726 O 2620.82 1.68615 -1.10141 0
M  V30 27727 C 2617.88 2.70751 -2.16552 0
M  V30 27728 C 2616.94 2.61909 -3.40151 0
M  V30 27729 C 2616.18 3.89544 -3.64817 0
M  V30 27730 O 2616.4 4.8993 -2.92103 0
M  V30 27731 O 2615.33 3.90127 -4.5835 0
M  V30 27732 H 2619.16 1.09586 -2.83239 0
M  V30 27733 H 2616.74 0.477281 -1.41571 0
M  V30 27734 H 2618.63 3.5001 -2.34671 0
M  V30 27735 H 2617.3 2.97688 -1.27136 0
M  V30 27736 H 2616.21 1.81046 -3.27373 0
M  V30 27737 H 2617.54 2.39922 -4.29765 0
M  V30 27738 N 2619.19 1.47931 0.543528 0
M  V30 27739 C 2620.42 1.58896 1.32513 0
M  V30 27740 C 2620.84 0.244164 1.87215 0
M  V30 27741 O 2620.19 -0.764623 1.6571 0
M  V30 27742 C 2620.24 2.62499 2.48549 0
M  V30 27743 O 2619.97 3.91758 1.96105 0
M  V30 27744 C 2621.47 2.83776 3.40567 0
M  V30 27745 H 2618.69 0.536152 0.403463 0
M  V30 27746 H 2621.23 1.93656 0.657072 0
M  V30 27747 H 2619.39 2.30634 3.11266 0
M  V30 27748 H 2619.8 4.48485 2.71959 0
M  V30 27749 H 2621.27 3.601 4.18368 0
M  V30 27750 H 2621.75 1.92099 3.94962 0
M  V30 27751 H 2622.36 3.16892 2.83654 0
M  V30 27752 N 2620.67 -0.791347 1.36292 0
M  V30 27753 C 2621.62 -1.8936 1.26991 0
M  V30 27754 C 2622.61 -1.60084 0.161823 0
M  V30 27755 O 2623.8 -1.72549 0.394456 0
M  V30 27756 C 2620.93 -3.26542 1.0595 0
M  V30 27757 C 2620.01 -3.61834 2.21217 0
M  V30 27758 N 2620.4 -3.68449 3.46525 0
M  V30 27759 C 2618.7 -3.91883 2.1294 0
M  V30 27760 C 2619.4 -3.99924 4.22417 0
M  V30 27761 N 2618.38 -4.14806 3.51336 0
M  V30 27762 H 2622.18 -1.92698 2.21912 0
M  V30 27763 H 2619.69 -0.986765 1.28983 0
M  V30 27764 H 2621.69 -4.05369 0.973738 0
M  V30 27765 H 2620.35 -3.24481 0.11928 0
M  V30 27766 H 2621.36 -3.51142 3.80684 0
M  V30 27767 H 2618.04 -3.97759 1.26862 0
M  V30 27768 H 2619.43 -4.11981 5.30774 0
M  V30 27769 N 2622.15 -1.2054 -1.01528 0
M  V30 27770 C 2623.56 -1.01659 -1.56596 0
M  V30 27771 C 2623.91 0.426634 -1.91505 0
M  V30 27772 O 2623.04 1.30824 -1.72377 0
M  V30 27773 C 2623.63 -1.8391 -2.84539 0
M  V30 27774 C 2622.19 -1.69392 -3.3613 0
M  V30 27775 C 2621.34 -1.81761 -2.09424 0
M  V30 27776 H 2624.29 -1.34712 -0.83895 0
M  V30 27777 H 2624.31 -1.34325 -3.56001 0
M  V30 27778 H 2623.82 -2.88944 -2.591 0
M  V30 27779 H 2621.92 -0.669997 -3.66527 0
M  V30 27780 H 2622.04 -2.50746 -4.08244 0
M  V30 27781 H 2620.4 -1.24961 -2.21939 0
M  V30 27782 H 2621.18 -2.88282 -1.86409 0
M  V30 27783 N 2623.63 1.20858 -1.01149 0
M  V30 27784 C 2624.87 1.91807 -0.706365 0
M  V30 27785 C 2625.23 1.76758 0.749705 0
M  V30 27786 O 2626.43 2.4214 1.16711 0
M  V30 27787 C 2624.7 3.39273 -1.12377 0
M  V30 27788 S 2626.26 4.28617 -0.93984 0
M  V30 27789 H 2623.08 0.662664 -0.257676 0
M  V30 27790 H 2625.68 1.46221 -1.29768 0
M  V30 27791 H 2624.39 3.47745 -2.17949 0
M  V30 27792 H 2623.92 3.89881 -0.52502 0
M  V30 27793 H 2625.93 4.95944 0.159469 0
M  V30 27794 N 2625.11 0.787064 1.3654 0
M  V30 27795 C 2626.02 0.184937 2.3387 0
M  V30 27796 C 2627.03 -0.661668 1.60928 0
M  V30 27797 O 2628.21 -0.578006 1.92928 0
M  V30 27798 C 2625.27 -0.672085 3.40123 0
M  V30 27799 C 2624.33 0.192746 4.28867 0
M  V30 27800 C 2623.57 -0.623468 5.30046 0
M  V30 27801 O 2623.79 -1.8596 5.39236 0
M  V30 27802 O 2622.72 -0.024601 6.01895 0
M  V30 27803 H 2626.55 0.989613 2.87124 0
M  V30 27804 H 2624.13 0.54848 1.38968 0
M  V30 27805 H 2626.02 -1.16087 4.05095 0
M  V30 27806 H 2624.69 -1.45469 2.89172 0
M  V30 27807 H 2623.6 0.72823 3.66944 0
M  V30 27808 H 2624.93 0.938807 4.83164 0
M  V30 27809 N 2626.58 -1.48101 0.53888 0
M  V30 27810 C 2627.83 -2.02098 0.00802152 0
M  V30 27811 C 2628.15 -1.41741 -1.33919 0
M  V30 27812 O 2627.42 -0.585967 -1.86931 0
M  V30 27813 H 2626 -0.747 -2.30875e-05 0
M  V30 27814 H 2628.66 -1.81713 0.704732 0
M  V30 27815 H 2627.76 -3.11959 -0.0937124 0
M  V30 27816 N 2628.06 -0.274434 -1.55192 0
M  V30 27817 C 2628.99 0.606993 -2.25473 0
M  V30 27818 C 2629.97 1.15944 -1.24463 0
M  V30 27819 O 2631.16 1.1937 -1.53181 0
M  V30 27820 C 2628.29 1.79147 -2.97529 0
M  V30 27821 C 2627.24 1.37059 -4.05461 0
M  V30 27822 C 2626.57 2.63812 -4.65089 0
M  V30 27823 C 2627.87 0.521298 -5.19692 0
M  V30 27824 H 2629.56 0.0208817 -2.99393 0
M  V30 27825 H 2627.11 0.00860334 -1.43997 0
M  V30 27826 H 2629.06 2.41398 -3.45406 0
M  V30 27827 H 2627.78 2.4034 -2.21143 0
M  V30 27828 H 2626.44 0.771292 -3.58395 0
M  V30 27829 H 2626.09 3.23262 -3.85371 0
M  V30 27830 H 2625.79 2.36363 -5.37965 0
M  V30 27831 H 2627.32 3.26912 -5.15714 0
M  V30 27832 H 2628.73 1.04879 -5.63625 0
M  V30 27833 H 2627.13 0.34172 -5.99126 0
M  V30 27834 H 2628.2 -0.460085 -4.82712 0
M  V30 27835 N 2629.54 1.576 -0.00170483 0
M  V30 27836 C 2630.79 1.90265 0.681438 0
M  V30 27837 C 2631.11 0.875955 1.74218 0
M  V30 27838 O 2630.38 -0.0864068 1.95709 0
M  V30 27839 H 2628.96 0.702243 0.254683 0
M  V30 27840 H 2631.62 1.94852 -0.0430338 0
M  V30 27841 H 2630.72 2.90077 1.15161 0
M  V30 27842 N 2631.02 -0.271076 1.55251 0
M  V30 27843 C 2632.43 -0.618367 1.47134 0
M  V30 27844 C 2632.63 -1.89426 0.687028 0
M  V30 27845 O 2631.69 -2.51653 0.206653 0
M  V30 27846 C 2633 -0.743541 2.91362 0
M  V30 27847 C 2634.55 -0.837469 3.01588 0
M  V30 27848 C 2635.03 -0.994404 4.47074 0
M  V30 27849 N 2636.52 -1.05988 4.50911 0
M  V30 27850 C 2637.25 -1.20014 5.607 0
M  V30 27851 N 2636.75 -1.30748 6.80351 0
M  V30 27852 N 2638.54 -1.2314 5.48446 0
M  V30 27853 H 2630.69 0.56682 2.04697 0
M  V30 27854 H 2632.95 0.192182 0.928316 0
M  V30 27855 H 2632.66 0.123555 3.51483 0
M  V30 27856 H 2632.53 -1.62322 3.40487 0
M  V30 27857 H 2634.92 -1.69503 2.41563 0
M  V30 27858 H 2635 0.0668536 2.55713 0
M  V30 27859 H 2634.65 -0.141492 5.07703 0
M  V30 27860 H 2634.58 -1.9134 4.90608 0
M  V30 27861 H 2637.07 -0.989252 3.64722 0
M  V30 27862 H 2637.38 -1.41289 7.59774 0
M  V30 27863 H 2635.73 -1.27749 6.83158 0
M  V30 27864 H 2638.92 -1.14386 4.53909 0
M  V30 27865 H 2639.09 -1.33727 6.34051 0
M  V30 27866 N 2632.5 -1.48217 -0.535675 0
M  V30 27867 C 2633.45 -1.58717 -1.63685 0
M  V30 27868 C 2634.43 -0.444642 -1.54634 0
M  V30 27869 O 2635.62 -0.695771 -1.62751 0
M  V30 27870 C 2632.75 -1.62471 -3.0242 0
M  V30 27871 C 2631.84 -2.82184 -3.16596 0
M  V30 27872 N 2632.23 -4.06663 -3.00764 0
M  V30 27873 C 2630.53 -2.79397 -3.4764 0
M  V30 27874 C 2631.23 -4.86951 -3.18204 0
M  V30 27875 N 2630.2 -4.19662 -3.45521 0
M  V30 27876 H 2634.01 -2.52712 -1.50046 0
M  V30 27877 H 2631.52 -1.4451 -0.740992 0
M  V30 27878 H 2633.52 -1.68086 -3.81514 0
M  V30 27879 H 2632.18 -0.695882 -3.17155 0
M  V30 27880 H 2633.19 -4.37189 -2.77644 0
M  V30 27881 H 2629.86 -1.95746 -3.68768 0
M  V30 27882 H 2631.25 -5.95722 -3.10749 0
M  V30 27883 N 2633.97 0.784108 -1.3671 0
M  V30 27884 C 2634.94 1.87857 -1.3131 0
M  V30 27885 C 2635.94 1.59292 -0.219682 0
M  V30 27886 O 2637.13 1.67605 -0.47479 0
M  V30 27887 C 2634.26 3.24749 -1.03685 0
M  V30 27888 H 2635.45 1.9406 -2.2865 0
M  V30 27889 H 2633.01 0.982499 -1.21559 0
M  V30 27890 H 2633.74 3.24228 -0.0682506 0
M  V30 27891 H 2633.53 3.46872 -1.82817 0
M  V30 27892 H 2635.02 4.04819 -1.02526 0
M  V30 27893 N 2635.45 1.21076 1.00888 0
M  V30 27894 C 2636.68 1.05148 1.78189 0
M  V30 27895 C 2637.1 -0.398919 1.84537 0
M  V30 27896 O 2636.45 -1.27685 1.30395 0
M  V30 27897 C 2636.5 1.63752 3.22285 0
M  V30 27898 O 2636.22 3.03117 3.1631 0
M  V30 27899 C 2637.73 1.52882 4.16103 0
M  V30 27900 H 2634.95 0.369464 0.560123 0
M  V30 27901 H 2637.49 1.60331 1.26942 0
M  V30 27902 H 2635.64 1.12671 3.70654 0
M  V30 27903 H 2636.06 3.31066 4.06811 0
M  V30 27904 H 2637.53 1.98635 5.15022 0
M  V30 27905 H 2638.01 0.482598 4.36541 0
M  V30 27906 H 2638.62 2.03191 3.73622 0
M  V30 27907 N 2636.93 -1.2032 1.01789 0
M  V30 27908 C 2638.18 -1.89721 0.70797 0
M  V30 27909 C 2638.51 -1.78931 -0.762504 0
M  V30 27910 O 2637.76 -1.16864 -1.56975 0
M  V30 27911 C 2638.06 -3.40347 1.09082 0
M  V30 27912 C 2637.73 -3.71338 2.55772 0
M  V30 27913 C 2636.39 -3.79506 2.95852 0
M  V30 27914 C 2638.74 -3.85536 3.5073 0
M  V30 27915 C 2636.07 -3.99332 4.29827 0
M  V30 27916 C 2638.42 -4.06872 4.84394 0
M  V30 27917 C 2637.08 -4.1327 5.24179 0
M  V30 27918 H 2636.35 -0.694238 0.259064 0
M  V30 27919 H 2639 -1.42553 1.27871 0
M  V30 27920 H 2637.31 -3.89338 0.438521 0
M  V30 27921 H 2639 -3.92344 0.828705 0
M  V30 27922 H 2635.59 -3.6558 2.23717 0
M  V30 27923 H 2639.78 -3.78579 3.20923 0
M  V30 27924 H 2635.03 -4.02521 4.60203 0
M  V30 27925 H 2639.21 -4.16801 5.57898 0
M  V30 27926 H 2636.83 -4.28385 6.28005 0
M  V30 27927 N 2638.41 -0.794293 -1.3612 0
M  V30 27928 C 2639.82 -0.476551 -1.52319 0
M  V30 27929 C 2640.02 1.00433 -1.74687 0
M  V30 27930 O 2639.08 1.7897 -1.78118 0
M  V30 27931 C 2640.39 -1.31123 -2.70605 0
M  V30 27932 C 2641.94 -1.30542 -2.84478 0
M  V30 27933 C 2642.42 -2.12395 -4.05774 0
M  V30 27934 N 2643.91 -2.09866 -4.12929 0
M  V30 27935 C 2644.64 -2.69966 -5.05871 0
M  V30 27936 N 2644.14 -3.38944 -6.04226 0
M  V30 27937 N 2645.93 -2.59674 -4.98524 0
M  V30 27938 H 2638.08 -1.75352 -1.19856 0
M  V30 27939 H 2640.35 -0.745658 -0.585405 0
M  V30 27940 H 2640.05 -2.36163 -2.60615 0
M  V30 27941 H 2639.93 -0.955908 -3.64887 0
M  V30 27942 H 2642.31 -0.262927 -2.93926 0
M  V30 27943 H 2642.39 -1.70054 -1.9109 0
M  V30 27944 H 2642.04 -3.16677 -3.97087 0
M  V30 27945 H 2641.97 -1.7025 -4.9832 0
M  V30 27946 H 2644.46 -1.59668 -3.42512 0
M  V30 27947 H 2644.77 -3.8212 -6.71717 0
M  V30 27948 H 2643.12 -3.43047 -6.04437 0
M  V30 27949 H 2646.31 -2.05383 -4.20637 0
M  V30 27950 H 2646.48 -3.06803 -5.70768 0
M  V30 27951 N 2639.89 1.47813 -0.546727 0
M  V30 27952 C 2640.83 2.31557 0.220007 0
M  V30 27953 C 2641.83 1.42276 0.919447 0
M  V30 27954 O 2643.03 1.59096 0.841925 0
M  V30 27955 H 2639.41 0.746617 0.0898202 0
M  V30 27956 H 2641.38 2.94085 -0.505641 0
M  V30 27957 C 2640.13 3.24704 1.24348 0
M  V30 27958 H 2639.45 3.9336 0.714689 0
M  V30 27959 H 2640.89 3.86153 1.75105 0
M  V30 27960 C 2639.35 2.47485 2.28589 0
M  V30 27961 O 2639.88 2.21171 3.3533 0
M  V30 27962 N 2638.09 2.0868 2.0224 0
M  V30 27963 H 2637.63 2.3028 1.15451 0
M  V30 27964 H 2637.59 1.57328 2.72204 0
M  V30 27965 N 2641.36 0.28266 1.55044 0
M  V30 27966 C 2642.61 -0.331954 1.99761 0
M  V30 27967 C 2642.94 -1.55293 1.17108 0
M  V30 27968 O 2642.19 -1.94336 0.230633 0
M  V30 27969 C 2642.49 -0.750877 3.49423 0
M  V30 27970 C 2642.16 0.366307 4.4941 0
M  V30 27971 C 2640.82 0.673048 4.7647 0
M  V30 27972 C 2643.17 1.11873 5.09052 0
M  V30 27973 C 2640.5 1.73566 5.60439 0
M  V30 27974 C 2642.85 2.17112 5.94176 0
M  V30 27975 C 2641.52 2.48413 6.19554 0
M  V30 27976 H 2640.79 -0.121471 0.730976 0
M  V30 27977 H 2643.43 0.397943 1.8732 0
M  V30 27978 H 2641.74 -1.56057 3.59379 0
M  V30 27979 H 2643.44 -1.2373 3.81434 0
M  V30 27980 H 2640.03 0.117116 4.2844 0
M  V30 27981 H 2644.21 0.895011 4.88163 0
M  V30 27982 H 2639.47 1.9831 5.78345 0
M  V30 27983 H 2643.64 2.75884 6.39422 0
M  V30 27984 H 2641.27 3.30886 6.84411 0
M  V30 27985 N 2642.84 -1.57597 0.0100627 0
M  V30 27986 C 2644.09 -1.90624 -0.671338 0
M  V30 27987 C 2644.41 -0.885181 -1.73751 0
M  V30 27988 O 2643.68 0.0760267 -1.95752 0
M  V30 27989 H 2642.26 -0.703584 -0.250956 0
M  V30 27990 H 2644.92 -1.94827 0.0533667 0
M  V30 27991 H 2644.02 -2.90683 -1.13621 0
M  V30 27992 N 2644.32 0.262839 -1.55393 0
M  V30 27993 C 2645.25 1.35098 -1.83912 0
M  V30 27994 C 2646.23 1.47096 -0.692927 0
M  V30 27995 O 2647.42 1.63562 -0.937008 0
M  V30 27996 C 2644.54 2.7263 -2.00974 0
M  V30 27997 C 2643.59 2.77864 -3.23564 0
M  V30 27998 S 2644.42 2.36082 -4.80651 0
M  V30 27999 C 2645.58 3.75569 -5.00698 0
M  V30 28000 H 2645.81 1.10705 -2.7592 0
M  V30 28001 H 2643.34 0.463003 -1.47294 0
M  V30 28002 H 2645.3 3.51828 -2.11488 0
M  V30 28003 H 2643.96 2.9427 -1.09837 0
M  V30 28004 H 2643.16 3.78831 -3.3242 0
M  V30 28005 H 2642.76 2.06697 -3.11693 0
M  V30 28006 H 2645.05 4.7093 -4.87064 0
M  V30 28007 H 2645.99 3.71658 -6.02724 0
M  V30 28008 H 2646.4 3.67343 -4.28625 0
M  V30 28009 N 2645.8 1.48499 0.527807 0
M  V30 28010 C 2646.76 1.62699 1.61436 0
M  V30 28011 C 2647.76 0.500163 1.52823 0
M  V30 28012 O 2648.95 0.766003 1.56455 0
M  V30 28013 C 2646.08 1.59923 3.01061 0
M  V30 28014 H 2647.28 2.59585 1.50185 0
M  V30 28015 H 2644.83 1.37128 0.750031 0
M  V30 28016 H 2645.56 0.645219 3.17817 0
M  V30 28017 H 2645.35 2.41731 3.08721 0
M  V30 28018 H 2646.84 1.73057 3.80054 0
M  V30 28019 N 2647.28 -0.776847 1.37123 0
M  V30 28020 C 2648.52 -1.53522 1.3205 0
M  V30 28021 C 2648.85 -1.9426 -0.096529 0
M  V30 28022 O 2648.11 -1.63947 -1.06863 0
M  V30 28023 C 2648.41 -2.81607 2.20073 0
M  V30 28024 C 2648.07 -2.59947 3.68427 0
M  V30 28025 C 2646.73 -2.53747 4.08859 0
M  V30 28026 C 2649.09 -2.40423 4.62435 0
M  V30 28027 C 2646.41 -2.26008 5.41421 0
M  V30 28028 C 2648.77 -2.14209 5.95229 0
M  V30 28029 C 2647.43 -2.06451 6.34771 0
M  V30 28030 H 2646.7 -0.561777 0.483206 0
M  V30 28031 H 2649.35 -0.895238 1.69286 0
M  V30 28032 H 2647.65 -3.50138 1.75815 0
M  V30 28033 H 2649.35 -3.39461 2.13464 0
M  V30 28034 H 2645.94 -2.65632 3.36359 0
M  V30 28035 H 2650.12 -2.44206 4.32062 0
M  V30 28036 H 2645.38 -2.18494 5.71026 0
M  V30 28037 H 2649.55 -1.981 6.6763 0
M  V30 28038 H 2647.18 -1.8472 7.37416 0
M  V30 28039 N 2648.76 -1.2161 -1.00244 0
M  V30 28040 C 2649.69 -1.00176 -2.10919 0
M  V30 28041 C 2650.67 0.0741288 -1.69938 0
M  V30 28042 O 2651.85 -0.0862094 -1.94009 0
M  V30 28043 C 2648.98 -0.568416 -3.42617 0
M  V30 28044 C 2647.94 -1.58916 -3.97404 0
M  V30 28045 C 2647.26 -1.01196 -5.25037 0
M  V30 28046 C 2648.56 -2.97668 -4.29175 0
M  V30 28047 H 2650.26 -1.92743 -2.29108 0
M  V30 28048 H 2647.8 -0.928121 -1.101 0
M  V30 28049 H 2649.75 -0.405629 -4.19443 0
M  V30 28050 H 2648.48 0.392904 -3.24228 0
M  V30 28051 H 2647.14 -1.73955 -3.227 0
M  V30 28052 H 2646.79 -0.0422849 -5.02982 0
M  V30 28053 H 2646.49 -1.6938 -5.62658 0
M  V30 28054 H 2648.01 -0.860554 -6.04505 0
M  V30 28055 H 2649.42 -2.86058 -4.96834 0
M  V30 28056 H 2647.82 -3.62889 -4.77945 0
M  V30 28057 H 2648.89 -3.48321 -3.37343 0
M  V30 28058 N 2650.23 1.19778 -1.02425 0
M  V30 28059 C 2651.46 1.9331 -0.73749 0
M  V30 28060 C 2651.88 1.75224 0.702992 0
M  V30 28061 O 2651.23 1.07114 1.47759 0
M  V30 28062 C 2651.28 3.45197 -1.07336 0
M  V30 28063 O 2651.01 3.62698 -2.45727 0
M  V30 28064 C 2652.51 4.3586 -0.808737 0
M  V30 28065 H 2649.73 0.614188 -0.270211 0
M  V30 28066 H 2652.27 1.52052 -1.3675 0
M  V30 28067 H 2650.43 3.84306 -0.488613 0
M  V30 28068 H 2650.84 4.56607 -2.58089 0
M  V30 28069 H 2652.31 5.41056 -1.09375 0
M  V30 28070 H 2652.79 4.38448 0.256948 0
M  V30 28071 H 2653.4 4.02426 -1.37599 0
M  V30 28072 N 2651.71 0.801501 1.35697 0
M  V30 28073 C 2652.64 0.222699 2.32436 0
M  V30 28074 C 2653.62 -0.649029 1.57231 0
M  V30 28075 O 2654.81 -0.580354 1.85325 0
M  V30 28076 C 2651.94 -0.633659 3.4147 0
M  V30 28077 C 2650.89 0.139158 4.27774 0
M  V30 28078 C 2650.22 -0.838573 5.28083 0
M  V30 28079 C 2651.52 1.33526 5.04944 0
M  V30 28080 H 2653.21 1.03091 2.81092 0
M  V30 28081 H 2650.76 0.497179 1.35145 0
M  V30 28082 H 2652.71 -1.0486 4.08145 0
M  V30 28083 H 2651.43 -1.4747 2.91411 0
M  V30 28084 H 2650.09 0.53522 3.62672 0
M  V30 28085 H 2649.74 -1.67498 4.74293 0
M  V30 28086 H 2649.44 -0.325837 5.86696 0
M  V30 28087 H 2650.97 -1.25183 5.9763 0
M  V30 28088 H 2652.38 0.995448 5.64592 0
M  V30 28089 H 2650.78 1.78212 5.73027 0
M  V30 28090 H 2651.85 2.1245 4.35882 0
M  V30 28091 N 2653.19 -1.47521 0.554558 0
M  V30 28092 C 2654.44 -2.02478 0.0295146 0
M  V30 28093 C 2654.76 -1.42919 -1.31926 0
M  V30 28094 O 2654.02 -0.573418 -1.87111 0
M  V30 28095 C 2654.32 -3.57212 -0.115864 0
M  V30 28096 C 2653.98 -4.35678 1.16168 0
M  V30 28097 C 2652.65 -4.56836 1.51176 0
M  V30 28098 C 2655 -4.8095 2.00839 0
M  V30 28099 C 2652.33 -5.20515 2.70705 0
M  V30 28100 C 2654.68 -5.45947 3.19569 0
M  V30 28101 C 2653.34 -5.65339 3.54892 0
M  V30 28102 H 2652.61 -0.740921 0.0108002 0
M  V30 28103 H 2655.26 -1.77224 0.725537 0
M  V30 28104 H 2653.56 -3.81445 -0.894835 0
M  V30 28105 H 2655.26 -3.97382 -0.53742 0
M  V30 28106 H 2651.85 -4.19488 0.8791 0
M  V30 28107 H 2656.04 -4.64385 1.75101 0
M  V30 28108 H 2651.29 -5.33723 2.98245 0
M  V30 28109 H 2655.47 -5.7999 3.85466 0
M  V30 28110 H 2653.09 -6.14453 4.47607 0
M  V30 28111 N 2654.67 -0.290879 -1.54892 0
M  V30 28112 C 2656.08 0.0628152 -1.59476 0
M  V30 28113 C 2656.28 1.53278 -1.30798 0
M  V30 28114 O 2655.34 2.28404 -1.07648 0
M  V30 28115 C 2656.65 -0.326014 -2.98927 0
M  V30 28116 C 2658.2 -0.273937 -3.11799 0
M  V30 28117 C 2658.68 -0.637438 -4.53542 0
M  V30 28118 N 2660.17 -0.589587 -4.59432 0
M  V30 28119 C 2660.9 -0.84345 -5.67163 0
M  V30 28120 N 2660.4 -1.16275 -6.82973 0
M  V30 28121 N 2662.19 -0.771189 -5.56785 0
M  V30 28122 H 2654.34 -1.24899 -1.71796 0
M  V30 28123 H 2656.6 -0.505677 -0.80187 0
M  V30 28124 H 2656.31 -1.34893 -3.24803 0
M  V30 28125 H 2656.18 0.325375 -3.75794 0
M  V30 28126 H 2658.57 0.739715 -2.85679 0
M  V30 28127 H 2658.65 -0.959808 -2.3711 0
M  V30 28128 H 2658.3 -1.64885 -4.80391 0
M  V30 28129 H 2658.23 0.070394 -5.26553 0
M  V30 28130 H 2660.72 -0.353318 -3.76245 0
M  V30 28131 H 2661.03 -1.34271 -7.61046 0
M  V30 28132 H 2659.38 -1.20069 -6.8455 0
M  V30 28133 H 2662.57 -0.521465 -4.65186 0
M  V30 28134 H 2662.74 -0.972408 -6.40662 0
M  V30 28135 N 2656.15 1.57589 -0.0184203 0
M  V30 28136 C 2657.39 1.91639 0.663509 0
M  V30 28137 C 2657.72 0.894164 1.7239 0
M  V30 28138 O 2657 -0.0846107 1.94316 0
M  V30 28139 C 2657.28 3.36209 1.28979 0
M  V30 28140 C 2657.14 4.49161 0.239683 0
M  V30 28141 C 2658.45 3.80539 2.21083 0
M  V30 28142 H 2655.57 0.696919 0.239734 0
M  V30 28143 H 2658.22 1.89858 -0.0734894 0
M  V30 28144 H 2656.37 3.37857 1.91793 0
M  V30 28145 H 2658.04 4.59647 -0.3902 0
M  V30 28146 H 2656.28 4.31603 -0.436048 0
M  V30 28147 H 2656.95 5.4732 0.717287 0
M  V30 28148 H 2659.43 3.8056 1.68267 0
M  V30 28149 H 2658.3 4.82411 2.61861 0
M  V30 28150 H 2658.56 3.15439 3.09759 0
M  V30 28151 N 2657.62 -0.254594 1.5553 0
M  V30 28152 C 2658.85 -1.00569 1.81385 0
M  V30 28153 C 2659.27 -1.7846 0.59445 0
M  V30 28154 O 2658.63 -1.75462 -0.456372 0
M  V30 28155 C 2658.68 -1.92539 3.04895 0
M  V30 28156 O 2657.78 -3.01596 2.81271 0
M  V30 28157 H 2657.12 -0.286576 0.598974 0
M  V30 28158 H 2659.65 -0.277917 2.02704 0
M  V30 28159 H 2659.66 -2.3415 3.34123 0
M  V30 28160 H 2658.34 -1.35263 3.9329 0
M  V30 28161 H 2656.92 -2.64169 2.6319 0
M  V30 28162 N 2659.1 -1.48777 -0.519925 0
M  V30 28163 C 2660.33 -1.60984 -1.29968 0
M  V30 28164 C 2660.74 -0.273917 -1.86802 0
M  V30 28165 O 2660.1 0.738164 -1.66905 0
M  V30 28166 C 2660.15 -2.6642 -2.44342 0
M  V30 28167 O 2659.87 -3.94828 -1.89848 0
M  V30 28168 C 2661.37 -2.89159 -3.36009 0
M  V30 28169 H 2658.59 -0.542503 -0.394882 0
M  V30 28170 H 2661.14 -1.94677 -0.62618 0
M  V30 28171 H 2659.29 -2.35557 -3.07557 0
M  V30 28172 H 2659.71 -4.52755 -2.6479 0
M  V30 28173 H 2661.18 -3.6671 -4.12586 0
M  V30 28174 H 2661.66 -1.98358 -3.91855 0
M  V30 28175 H 2662.26 -3.21364 -2.78577 0
M  V30 28176 N 2660.58 0.769564 -1.37534 0
M  V30 28177 C 2661.83 1.52518 -1.326 0
M  V30 28178 C 2662.15 1.948 0.0883952 0
M  V30 28179 O 2661.42 1.6646 1.03286 0
M  V30 28180 H 2660 0.56569 -0.487856 0
M  V30 28181 H 2662.66 0.915775 -1.72045 0
M  V30 28182 H 2661.76 2.42356 -1.96647 0
M  V30 28183 N 2662.06 1.22139 0.995977 0
M  V30 28184 C 2663.34 0.952672 1.70832 0
M  V30 28185 C 2663.72 -0.533083 2.04258 0
M  V30 28186 O 2663.06 -1.50031 1.72345 0
M  V30 28187 C 2663.27 1.84706 2.96116 0
M  V30 28188 C 2664.62 2.10131 3.68958 0
M  V30 28189 O 2665.65 1.82129 3.06117 0
M  V30 28190 O 2664.5 2.57539 4.82012 0
M  V30 28191 H 2661.6 0.35801 0.745492 0
M  V30 28192 H 2664.14 1.33111 1.0526 0
M  V30 28193 H 2662.92 2.85218 2.67893 0
M  V30 28194 H 2662.54 1.47002 3.69427 0
M  V30 28195 N 2663.54 -1.19233 1.03059 0
M  V30 28196 C 2664.48 -2.24556 0.606431 0
M  V30 28197 C 2665.48 -1.65491 -0.361797 0
M  V30 28198 O 2666.68 -1.78522 -0.230189 0
M  V30 28199 H 2663.06 -0.730666 0.177851 0
M  V30 28200 H 2665.03 -2.57648 1.50533 0
M  V30 28201 C 2663.78 -3.47691 -0.0251516 0
M  V30 28202 H 2663.1 -3.93429 0.710907 0
M  V30 28203 H 2664.54 -4.23042 -0.284856 0
M  V30 28204 C 2663 -3.11955 -1.27223 0
M  V30 28205 O 2663.53 -3.24766 -2.36411 0
M  V30 28206 N 2661.74 -2.66372 -1.16165 0
M  V30 28207 H 2661.28 -2.56148 -0.273144 0
M  V30 28208 H 2661.24 -2.42833 -1.99699 0
M  V30 28209 N 2665.01 -0.808686 -1.3527 0
M  V30 28210 C 2666.26 -0.399752 -1.99433 0
M  V30 28211 C 2666.62 1.02229 -1.62994 0
M  V30 28212 O 2665.91 1.69982 -0.884121 0
M  V30 28213 C 2666.1 -0.522861 -3.53555 0
M  V30 28214 C 2665.93 -1.95532 -4.04966 0
M  V30 28215 C 2664.7 -2.58415 -4.34223 0
M  V30 28216 C 2666.9 -2.92016 -4.23357 0
M  V30 28217 N 2664.88 -3.93049 -4.71578 0
M  V30 28218 C 2666.25 -4.11526 -4.63731 0
M  V30 28219 C 2668.31 -2.8882 -4.0557 0
M  V30 28220 C 2667.01 -5.28274 -4.8818 0
M  V30 28221 C 2669.04 -4.04772 -4.31177 0
M  V30 28222 C 2668.4 -5.2303 -4.71825 0
M  V30 28223 H 2664.5 -0.194093 -0.75753 0
M  V30 28224 H 2667.08 -1.05037 -1.63937 0
M  V30 28225 H 2665.25 0.0977788 -3.88277 0
M  V30 28226 H 2666.98 -0.0883089 -4.04604 0
M  V30 28227 H 2663.74 -2.09754 -4.24618 0
M  V30 28228 H 2664.16 -4.62371 -4.94511 0
M  V30 28229 H 2668.81 -1.98541 -3.73284 0
M  V30 28230 H 2666.52 -6.19123 -5.19339 0
M  V30 28231 H 2670.11 -4.03682 -4.18965 0
M  V30 28232 H 2668.99 -6.11262 -4.91252 0
M  V30 28233 N 2666.49 1.47225 -0.562374 0
M  V30 28234 C 2667.44 2.31778 0.195435 0
M  V30 28235 C 2668.43 1.43243 0.904305 0
M  V30 28236 O 2669.64 1.5998 0.825003 0
M  V30 28237 H 2666.02 0.747527 0.0818963 0
M  V30 28238 H 2667.99 2.93532 -0.536804 0
M  V30 28239 C 2666.74 3.26005 1.20897 0
M  V30 28240 H 2666.06 3.94096 0.672928 0
M  V30 28241 H 2667.5 3.87989 1.71 0
M  V30 28242 C 2665.96 2.49895 2.25951 0
M  V30 28243 O 2666.49 2.24715 3.32965 0
M  V30 28244 N 2664.69 2.10813 2.00015 0
M  V30 28245 H 2664.24 2.31491 1.13002 0
M  V30 28246 H 2664.2 1.60206 2.70521 0
M  V30 28247 N 2667.97 0.299089 1.54736 0
M  V30 28248 C 2669.22 -0.310135 1.99706 0
M  V30 28249 C 2669.54 -1.54557 1.18899 0
M  V30 28250 O 2668.81 -1.93823 0.284479 0
M  V30 28251 H 2667.39 -0.117583 0.737688 0
M  V30 28252 H 2670.05 0.409976 1.90539 0
M  V30 28253 H 2669.15 -0.583496 3.06597 0
M  V30 28254 N 2669.45 -1.57577 0.0267774 0
M  V30 28255 C 2670.7 -1.90881 -0.651702 0
M  V30 28256 C 2671.01 -0.904607 -1.73425 0
M  V30 28257 O 2672.22 -1.12881 -2.46921 0
M  V30 28258 C 2670.67 -3.38935 -1.21042 0
M  V30 28259 C 2670.28 -4.4771 -0.161283 0
M  V30 28260 C 2672.02 -3.8131 -1.86555 0
M  V30 28261 C 2669.93 -5.86859 -0.731508 0
M  V30 28262 H 2668.86 -0.712331 -0.247186 0
M  V30 28263 H 2671.51 -1.83271 0.0916963 0
M  V30 28264 H 2669.89 -3.4147 -2.00536 0
M  V30 28265 H 2671.07 -4.56731 0.61102 0
M  V30 28266 H 2669.38 -4.14523 0.39495 0
M  V30 28267 H 2671.98 -4.82624 -2.3017 0
M  V30 28268 H 2672.32 -3.16246 -2.70729 0
M  V30 28269 H 2672.86 -3.81188 -1.13755 0
M  V30 28270 H 2669.6 -6.5546 0.0720482 0
M  V30 28271 H 2669.12 -5.81448 -1.47235 0
M  V30 28272 H 2670.79 -6.35356 -1.22197 0
M  V30 28273 N 2670.93 0.246342 -1.55663 0
M  V30 28274 C 2671.86 1.3314 -1.85335 0
M  V30 28275 C 2672.84 1.46353 -0.70849 0
M  V30 28276 O 2674.02 1.62559 -0.954303 0
M  V30 28277 C 2671.15 2.70483 -2.03854 0
M  V30 28278 C 2670.19 2.74417 -3.26493 0
M  V30 28279 S 2671.03 2.3097 -4.83128 0
M  V30 28280 C 2672.18 3.70237 -5.04654 0
M  V30 28281 H 2672.42 1.07772 -2.77078 0
M  V30 28282 H 2669.95 0.447354 -1.47777 0
M  V30 28283 H 2671.91 3.49565 -2.15208 0
M  V30 28284 H 2670.57 2.93088 -1.12952 0
M  V30 28285 H 2669.76 3.75284 -3.36419 0
M  V30 28286 H 2669.36 2.03379 -3.13868 0
M  V30 28287 H 2671.66 4.65738 -4.92031 0
M  V30 28288 H 2672.6 3.65245 -6.06632 0
M  V30 28289 H 2673.01 3.62776 -4.32497 0
M  V30 28290 N 2672.4 1.4905 0.512027 0
M  V30 28291 C 2673.35 1.64905 1.61477 0
M  V30 28292 C 2674.32 0.490701 1.58686 0
M  V30 28293 O 2675.51 0.716391 1.7684 0
M  V30 28294 C 2672.65 1.71144 2.99673 0
M  V30 28295 C 2671.76 2.98209 3.12563 0
M  V30 28296 C 2670.89 2.95495 4.41425 0
M  V30 28297 C 2669.93 4.17187 4.47908 0
M  V30 28298 N 2669.07 4.12447 5.68183 0
M  V30 28299 H 2673.91 2.59069 1.47267 0
M  V30 28300 H 2671.45 1.2846 0.716691 0
M  V30 28301 H 2673.41 1.72742 3.79758 0
M  V30 28302 H 2672.04 0.804563 3.12613 0
M  V30 28303 H 2671.09 3.06273 2.25613 0
M  V30 28304 H 2672.4 3.88199 3.13214 0
M  V30 28305 H 2671.55 2.95595 5.29819 0
M  V30 28306 H 2670.29 2.03264 4.43323 0
M  V30 28307 H 2669.3 4.17343 3.57918 0
M  V30 28308 H 2670.52 5.10598 4.47735 0
M  V30 28309 H 2668.47 3.23046 5.70944 0
M  V30 28310 H 2668.39 4.96161 5.70404 0
M  V30 28311 H 2669.65 4.16633 6.58815 0
M  V30 28312 N 2673.88 -0.762259 1.3794 0
M  V30 28313 C 2675.16 -1.5111 1.24198 0
M  V30 28314 C 2675.54 -2.1049 -0.160372 0
M  V30 28315 O 2674.89 -1.96333 -1.169 0
M  V30 28316 C 2675.1 -2.5844 2.34541 0
M  V30 28317 C 2676.45 -3.25583 2.72545 0
M  V30 28318 O 2677.47 -2.68741 2.33788 0
M  V30 28319 O 2676.33 -4.28373 3.3935 0
M  V30 28320 H 2673.42 -0.669718 0.485187 0
M  V30 28321 H 2675.97 -0.798412 1.49745 0
M  V30 28322 H 2674.74 -2.1275 3.2841 0
M  V30 28323 H 2674.36 -3.37299 2.10511 0
M  V30 28324 N 2675.36 -1.22666 -0.989486 0
M  V30 28325 C 2676.59 -1.0797 -1.76494 0
M  V30 28326 C 2677 0.369511 -1.85149 0
M  V30 28327 O 2676.36 1.25594 -1.3241 0
M  V30 28328 C 2676.41 -1.68858 -3.19639 0
M  V30 28329 O 2676.13 -3.08111 -3.11447 0
M  V30 28330 C 2677.63 -1.59483 -4.13618 0
M  V30 28331 H 2674.85 -0.378328 -0.554174 0
M  V30 28332 H 2677.4 -1.6233 -1.24376 0
M  V30 28333 H 2675.55 -1.18553 -3.68814 0
M  V30 28334 H 2675.97 -3.37496 -4.01493 0
M  V30 28335 H 2677.44 -2.06804 -5.11797 0
M  V30 28336 H 2677.92 -0.551986 -4.35718 0
M  V30 28337 H 2678.52 -2.0911 -3.70342 0
M  V30 28338 N 2676.84 1.18685 -1.0369 0
M  V30 28339 C 2677.77 2.24402 -0.645446 0
M  V30 28340 C 2678.75 1.66471 0.349482 0
M  V30 28341 O 2679.94 1.92828 0.230419 0
M  V30 28342 C 2677.07 3.473 -0.00371441 0
M  V30 28343 C 2676.02 4.17956 -0.921779 0
M  V30 28344 C 2675.35 5.34504 -0.144723 0
M  V30 28345 C 2676.65 4.71867 -2.23918 0
M  V30 28346 H 2678.34 2.57401 -1.52922 0
M  V30 28347 H 2675.89 1.23726 -0.736733 0
M  V30 28348 H 2677.84 4.20456 0.281835 0
M  V30 28349 H 2676.56 3.13524 0.914908 0
M  V30 28350 H 2675.22 3.46692 -1.19165 0
M  V30 28351 H 2674.87 4.96975 0.776186 0
M  V30 28352 H 2674.57 5.82712 -0.756308 0
M  V30 28353 H 2676.09 6.10453 0.133897 0
M  V30 28354 H 2677.51 5.36737 -2.01459 0
M  V30 28355 H 2675.9 5.30594 -2.80339 0
M  V30 28356 H 2676.97 3.89495 -2.88829 0
M  V30 28357 N 2678.32 0.815849 1.34839 0
M  V30 28358 C 2679.73 0.500724 1.51542 0
M  V30 28359 C 2679.93 -0.976413 1.76262 0
M  V30 28360 O 2678.99 -1.76114 1.80943 0
M  V30 28361 C 2680.3 1.35412 2.68485 0
M  V30 28362 C 2681.85 1.35051 2.82365 0
M  V30 28363 C 2682.33 2.18823 4.02344 0
M  V30 28364 N 2683.82 2.16409 4.09538 0
M  V30 28365 C 2684.55 2.7798 5.01512 0
M  V30 28366 N 2684.05 3.48514 5.98757 0
M  V30 28367 N 2685.84 2.67572 4.94329 0
M  V30 28368 H 2677.99 1.77236 1.17052 0
M  V30 28369 H 2680.25 0.754876 0.573468 0
M  V30 28370 H 2679.96 2.40279 2.56825 0
M  V30 28371 H 2679.83 1.01384 3.6332 0
M  V30 28372 H 2682.22 0.309655 2.93471 0
M  V30 28373 H 2682.3 1.73072 1.8836 0
M  V30 28374 H 2681.95 3.22955 3.91998 0
M  V30 28375 H 2681.88 1.78157 4.95548 0
M  V30 28376 H 2684.37 1.65096 3.39929 0
M  V30 28377 H 2684.68 3.92758 6.65553 0
M  V30 28378 H 2683.03 3.5262 5.98903 0
M  V30 28379 H 2686.22 2.12049 4.17316 0
M  V30 28380 H 2686.39 3.15844 5.65815 0
M  V30 28381 N 2679.8 -1.46924 0.570174 0
M  V30 28382 C 2681.07 -1.95594 -0.0152915 0
M  V30 28383 C 2681.45 -1.51284 -1.47229 0
M  V30 28384 O 2680.8 -0.757662 -2.15573 0
M  V30 28385 C 2681.01 -3.48704 0.143685 0
M  V30 28386 C 2682.36 -4.246 0.00501947 0
M  V30 28387 O 2683.38 -3.56127 0.071884 0
M  V30 28388 O 2682.24 -5.46318 -0.141079 0
M  V30 28389 H 2679.34 -0.825042 -0.0568674 0
M  V30 28390 H 2681.88 -1.57266 0.63761 0
M  V30 28391 H 2680.65 -3.73802 1.15705 0
M  V30 28392 H 2680.28 -3.9383 -0.546231 0
M  V30 28393 N 2681.27 -0.307291 -1.54575 0
M  V30 28394 C 2682.51 0.300927 -2.02173 0
M  V30 28395 C 2682.88 1.50609 -1.19084 0
M  V30 28396 O 2684.08 2.18609 -1.56409 0
M  V30 28397 C 2682.35 0.642529 -3.51577 0
M  V30 28398 S 2683.91 1.23271 -4.21129 0
M  V30 28399 H 2680.73 0.0920017 -0.705022 0
M  V30 28400 H 2683.33 -0.436627 -1.90562 0
M  V30 28401 H 2682.03 -0.242973 -4.0968 0
M  V30 28402 H 2681.56 1.41071 -3.67236 0
M  V30 28403 H 2683.58 2.52027 -4.27431 0
M  V30 28404 N 2682.75 1.57561 -0.0351337 0
M  V30 28405 C 2684.03 1.83356 0.68118 0
M  V30 28406 C 2684.41 0.920286 1.89984 0
M  V30 28407 O 2683.76 -0.0226414 2.28489 0
M  V30 28408 C 2683.97 3.32713 1.0537 0
M  V30 28409 C 2685.31 3.99335 1.44279 0
M  V30 28410 O 2686.34 3.37244 1.14651 0
M  V30 28411 O 2685.2 5.08781 1.99509 0
M  V30 28412 H 2682.29 0.756232 0.334728 0
M  V30 28413 H 2684.84 1.69582 -0.0632746 0
M  V30 28414 H 2683.61 3.90855 0.1866 0
M  V30 28415 H 2683.23 3.51616 1.85612 0
M  V30 28416 N 2684.23 -0.238084 1.55791 0
M  V30 28417 C 2685.16 -1.31798 1.87515 0
M  V30 28418 C 2686.17 -1.43862 0.762078 0
M  V30 28419 O 2687.36 -1.45054 1.04027 0
M  V30 28420 C 2684.46 -2.69557 2.05407 0
M  V30 28421 C 2683.64 -2.7965 3.36325 0
M  V30 28422 C 2682.7 -3.98313 3.43851 0
M  V30 28423 O 2681.72 -3.87426 4.17001 0
M  V30 28424 N 2682.92 -5.1188 2.73786 0
M  V30 28425 H 2685.69 -1.04917 2.80736 0
M  V30 28426 H 2683.25 -0.428168 1.56136 0
M  V30 28427 H 2685.24 -3.47292 2.07775 0
M  V30 28428 H 2683.81 -2.89109 1.1889 0
M  V30 28429 H 2683.03 -1.88522 3.46198 0
M  V30 28430 H 2684.32 -2.83351 4.22599 0
M  V30 28431 H 2683.72 -5.23619 2.14103 0
M  V30 28432 H 2682.27 -5.87718 2.81835 0
M  V30 28433 N 2685.71 -1.4932 -0.504115 0
M  V30 28434 C 2686.62 -1.68488 -1.63245 0
M  V30 28435 C 2687.63 -0.567461 -1.64487 0
M  V30 28436 O 2688.81 -0.841781 -1.82965 0
M  V30 28437 C 2685.87 -1.74431 -2.99624 0
M  V30 28438 C 2684.94 -2.97988 -3.09033 0
M  V30 28439 C 2684.17 -3.03638 -4.38907 0
M  V30 28440 O 2684.39 -2.16967 -5.27524 0
M  V30 28441 O 2683.33 -3.9607 -4.53224 0
M  V30 28442 H 2687.15 -2.64069 -1.50004 0
M  V30 28443 H 2684.74 -1.33024 -0.680063 0
M  V30 28444 H 2686.62 -1.80711 -3.80685 0
M  V30 28445 H 2685.29 -0.820288 -3.13134 0
M  V30 28446 H 2684.2 -2.97227 -2.27172 0
M  V30 28447 H 2685.53 -3.8986 -3.00449 0
M  V30 28448 N 2687.19 0.754933 -1.38342 0
M  V30 28449 C 2688.41 1.54928 -1.37885 0
M  V30 28450 C 2688.84 1.88077 0.0296055 0
M  V30 28451 O 2688.19 1.50474 1.0113 0
M  V30 28452 C 2688.24 2.82588 -2.24001 0
M  V30 28453 O 2687.35 3.77683 -1.65619 0
M  V30 28454 H 2686.69 0.468644 -0.470392 0
M  V30 28455 H 2689.22 0.93305 -1.82086 0
M  V30 28456 H 2689.23 3.31526 -2.37812 0
M  V30 28457 H 2687.9 2.57791 -3.26369 0
M  V30 28458 H 2686.48 3.36381 -1.60942 0
M  V30 28459 N 2688.66 1.23189 0.982967 0
M  V30 28460 C 2689.89 1.08904 1.75919 0
M  V30 28461 C 2690.31 -0.359686 1.85342 0
M  V30 28462 O 2689.66 -1.2489 1.33074 0
M  V30 28463 C 2689.71 1.70551 3.18739 0
M  V30 28464 O 2689.44 3.09758 3.09809 0
M  V30 28465 C 2690.94 1.61674 4.12767 0
M  V30 28466 H 2688.16 0.381262 0.55216 0
M  V30 28467 H 2690.7 1.62987 1.23513 0
M  V30 28468 H 2688.86 1.20508 3.6818 0
M  V30 28469 H 2689.27 3.39621 3.99697 0
M  V30 28470 H 2690.74 2.09515 5.10693 0
M  V30 28471 H 2691.22 0.575086 4.35419 0
M  V30 28472 H 2691.83 2.11071 3.69228 0
M  V30 28473 N 2690.14 -1.18133 1.04318 0
M  V30 28474 C 2691.38 -1.89867 0.756971 0
M  V30 28475 C 2691.75 -1.78684 -0.702577 0
M  V30 28476 O 2692.95 -2.4515 -1.1025 0
M  V30 28477 C 2691.22 -3.36174 1.21333 0
M  V30 28478 S 2692.78 -4.25974 1.05315 0
M  V30 28479 H 2689.59 -0.6556 0.275155 0
M  V30 28480 H 2692.2 -1.42729 1.33599 0
M  V30 28481 H 2690.9 -3.41844 2.27092 0
M  V30 28482 H 2690.43 -3.88352 0.628206 0
M  V30 28483 H 2692.45 -4.96192 -0.0279221 0
M  V30 28484 N 2691.62 -0.822988 -1.34405 0
M  V30 28485 C 2692.85 -0.42346 -2.02214 0
M  V30 28486 C 2693.26 0.975293 -1.62125 0
M  V30 28487 O 2692.6 1.64259 -0.822481 0
M  V30 28488 C 2692.66 -0.446169 -3.56721 0
M  V30 28489 C 2692.33 -1.79827 -4.20133 0
M  V30 28490 C 2693.32 -2.75912 -4.40646 0
M  V30 28491 C 2691.01 -2.08677 -4.56902 0
M  V30 28492 C 2693 -3.9902 -4.97053 0
M  V30 28493 C 2690.69 -3.32045 -5.1302 0
M  V30 28494 C 2691.69 -4.27034 -5.3304 0
M  V30 28495 O 2691.38 -5.48222 -5.87969 0
M  V30 28496 H 2691.11 -0.168181 -0.654745 0
M  V30 28497 H 2693.66 -1.1126 -1.72657 0
M  V30 28498 H 2691.89 0.299666 -3.85537 0
M  V30 28499 H 2693.58 -0.0666827 -4.05845 0
M  V30 28500 H 2694.35 -2.5492 -4.12603 0
M  V30 28501 H 2690.23 -1.35543 -4.40624 0
M  V30 28502 H 2693.77 -4.73173 -5.12594 0
M  V30 28503 H 2689.67 -3.52901 -5.40492 0
M  V30 28504 H 2690.44 -5.49743 -6.06403 0
M  V30 28505 N 2693.1 1.4662 -0.577957 0
M  V30 28506 C 2694.05 2.31972 0.170841 0
M  V30 28507 C 2695.04 1.44195 0.889061 0
M  V30 28508 O 2696.25 1.60846 0.807989 0
M  V30 28509 H 2692.62 0.748354 0.0739632 0
M  V30 28510 H 2694.59 2.92946 -0.567907 0
M  V30 28511 C 2693.34 3.27269 1.17432 0
M  V30 28512 H 2692.66 3.94788 0.631091 0
M  V30 28513 H 2694.1 3.8978 1.66875 0
M  V30 28514 C 2692.56 2.52278 2.23288 0
M  V30 28515 O 2693.09 2.28234 3.30563 0
M  V30 28516 N 2691.3 2.12923 1.97768 0
M  V30 28517 H 2690.85 2.32677 1.1054 0
M  V30 28518 H 2690.8 1.63066 2.68806 0
M  V30 28519 N 2694.58 0.315484 1.5441 0
M  V30 28520 C 2695.8 -0.291702 2.04833 0
M  V30 28521 C 2696.22 -1.46409 1.19206 0
M  V30 28522 O 2695.58 -1.81158 0.220899 0
M  V30 28523 C 2695.63 -0.733978 3.5397 0
M  V30 28524 O 2695.35 0.391758 4.36345 0
M  V30 28525 C 2696.85 -1.40481 4.20452 0
M  V30 28526 H 2694.07 -0.061283 0.668196 0
M  V30 28527 H 2696.61 0.459325 1.99275 0
M  V30 28528 H 2694.77 -1.435 3.59842 0
M  V30 28529 H 2695.18 0.044801 5.24481 0
M  V30 28530 H 2696.66 -1.66529 5.26281 0
M  V30 28531 H 2697.13 -2.34954 3.71071 0
M  V30 28532 H 2697.74 -0.746588 4.18696 0
M  V30 28533 N 2696.05 -1.5754 0.0434891 0
M  V30 28534 C 2697.3 -1.9267 -0.632937 0
M  V30 28535 C 2697.63 -0.921476 -1.70946 0
M  V30 28536 O 2696.91 0.053686 -1.94426 0
M  V30 28537 C 2697.19 -3.38218 -1.23613 0
M  V30 28538 C 2697.04 -4.49485 -0.168195 0
M  V30 28539 C 2698.36 -3.84008 -2.15001 0
M  V30 28540 H 2695.48 -0.700645 -0.228616 0
M  V30 28541 H 2698.12 -1.89717 0.103685 0
M  V30 28542 H 2696.27 -3.40866 -1.86394 0
M  V30 28543 H 2697.95 -4.58968 0.463277 0
M  V30 28544 H 2696.19 -4.30855 0.504657 0
M  V30 28545 H 2696.86 -5.48392 -0.630122 0
M  V30 28546 H 2699.34 -3.83188 -1.62191 0
M  V30 28547 H 2698.21 -4.86516 -2.54153 0
M  V30 28548 H 2698.47 -3.20328 -3.04701 0
M  V30 28549 N 2697.53 0.229818 -1.55915 0
M  V30 28550 C 2698.78 0.953424 -1.77743 0
M  V30 28551 C 2699.09 1.85827 -0.610557 0
M  V30 28552 O 2700.3 2.61991 -0.712265 0
M  V30 28553 C 2698.76 1.74546 -3.14741 0
M  V30 28554 C 2698.36 0.887165 -4.39128 0
M  V30 28555 C 2700.11 2.46078 -3.45899 0
M  V30 28556 C 2698.02 1.67607 -5.67152 0
M  V30 28557 H 2696.95 0.359729 -0.662654 0
M  V30 28558 H 2699.6 0.207544 -1.82323 0
M  V30 28559 H 2697.98 2.53394 -3.04315 0
M  V30 28560 H 2699.15 0.139811 -4.60588 0
M  V30 28561 H 2697.47 0.28437 -4.15428 0
M  V30 28562 H 2700.06 3.05587 -4.38772 0
M  V30 28563 H 2700.41 3.18551 -2.68013 0
M  V30 28564 H 2700.94 1.74227 -3.57617 0
M  V30 28565 H 2697.68 0.994767 -6.47908 0
M  V30 28566 H 2697.2 2.39826 -5.49767 0
M  V30 28567 H 2698.88 2.23887 -6.07029 0
M  V30 28568 N 2699.01 1.49585 0.49619 0
M  V30 28569 C 2700.24 1.63297 1.27862 0
M  V30 28570 C 2700.66 0.306188 1.85591 0
M  V30 28571 O 2700.02 -0.726822 1.66093 0
M  V30 28572 C 2700.07 2.70794 2.38123 0
M  V30 28573 O 2699.17 2.30302 3.42104 0
M  V30 28574 H 2698.51 0.54641 0.37727 0
M  V30 28575 H 2701.04 1.95804 0.593462 0
M  V30 28576 H 2701.05 2.93109 2.83815 0
M  V30 28577 H 2699.73 3.67101 1.95472 0
M  V30 28578 H 2698.3 2.18336 3.02297 0
M  V30 28579 N 2700.49 -0.747586 1.3874 0
M  V30 28580 C 2701.9 -1.32522 1.3151 0
M  V30 28581 C 2702.25 -1.96182 -0.0263618 0
M  V30 28582 O 2701.38 -1.9547 -0.928456 0
M  V30 28583 C 2701.97 -2.40962 2.38166 0
M  V30 28584 C 2700.53 -2.9443 2.34495 0
M  V30 28585 C 2699.68 -1.6787 2.20715 0
M  V30 28586 H 2702.63 -0.546016 1.49011 0
M  V30 28587 H 2702.65 -3.21047 2.04228 0
M  V30 28588 H 2702.16 -1.94599 3.35787 0
M  V30 28589 H 2700.26 -3.45106 1.40473 0
M  V30 28590 H 2700.37 -3.48401 3.28867 0
M  V30 28591 H 2698.74 -1.91726 1.6767 0
M  V30 28592 H 2699.52 -1.23577 3.20287 0
M  V30 28593 N 2701.97 -1.23709 -0.97642 0
M  V30 28594 C 2703.22 -1.06562 -1.71253 0
M  V30 28595 C 2703.53 0.39699 -1.91529 0
M  V30 28596 O 2704.73 0.688472 -2.62626 0
M  V30 28597 C 2703.19 -1.85846 -3.08204 0
M  V30 28598 C 2702.8 -3.36461 -2.958 0
M  V30 28599 C 2704.54 -1.77201 -3.85746 0
M  V30 28600 C 2702.45 -4.08122 -4.28008 0
M  V30 28601 H 2701.38 -0.395147 -0.642164 0
M  V30 28602 H 2704.03 -1.47711 -1.08874 0
M  V30 28603 H 2702.41 -1.37505 -3.7136 0
M  V30 28604 H 2703.59 -3.92318 -2.41709 0
M  V30 28605 H 2701.9 -3.45963 -2.3173 0
M  V30 28606 H 2704.5 -2.2805 -4.83629 0
M  V30 28607 H 2704.84 -0.735549 -4.0975 0
M  V30 28608 H 2705.37 -2.23174 -3.29299 0
M  V30 28609 H 2702.11 -5.12091 -4.09199 0
M  V30 28610 H 2701.63 -3.57052 -4.81948 0
M  V30 28611 H 2703.31 -4.14637 -4.96674 0
M  V30 28612 N 2703.44 1.17579 -1.04943 0
M  V30 28613 C 2704.67 1.91424 -0.777199 0
M  V30 28614 C 2705.08 1.76916 0.670616 0
M  V30 28615 O 2704.43 1.10216 1.46963 0
M  V30 28616 C 2704.49 3.43051 -1.07501 0
M  V30 28617 C 2704.15 3.8134 -2.5185 0
M  V30 28618 C 2705.15 3.84394 -3.50054 0
M  V30 28619 C 2702.83 4.12377 -2.86794 0
M  V30 28620 C 2704.83 4.17948 -4.81246 0
M  V30 28621 C 2702.51 4.45601 -4.1819 0
M  V30 28622 C 2703.51 4.48364 -5.15227 0
M  V30 28623 O 2703.2 4.80807 -6.44267 0
M  V30 28624 H 2702.93 0.61427 -0.28222 0
M  V30 28625 H 2705.49 1.50054 -1.4026 0
M  V30 28626 H 2703.72 3.84703 -0.392504 0
M  V30 28627 H 2705.41 3.98154 -0.78919 0
M  V30 28628 H 2706.17 3.60543 -3.24398 0
M  V30 28629 H 2702.05 4.09398 -2.11929 0
M  V30 28630 H 2705.59 4.2002 -5.56982 0
M  V30 28631 H 2701.49 4.68914 -4.4361 0
M  V30 28632 H 2702.26 4.98675 -6.4905 0
M  V30 28633 N 2704.92 0.830104 1.33967 0
M  V30 28634 C 2706.17 0.421601 1.98063 0
M  V30 28635 C 2706.5 -1.01707 1.65789 0
M  V30 28636 O 2705.75 -1.72439 0.925378 0
M  V30 28637 C 2706.05 0.579042 3.52678 0
M  V30 28638 C 2705.72 1.9845 4.04881 0
M  V30 28639 C 2704.38 2.36896 4.18848 0
M  V30 28640 C 2706.73 2.90292 4.32874 0
M  V30 28641 C 2704.06 3.66505 4.58139 0
M  V30 28642 C 2706.41 4.19373 4.73613 0
M  V30 28643 C 2705.08 4.57786 4.85786 0
M  V30 28644 H 2704.35 0.154275 0.724762 0
M  V30 28645 H 2706.99 1.05544 1.5979 0
M  V30 28646 H 2705.3 -0.13815 3.91556 0
M  V30 28647 H 2706.99 0.243387 4.00261 0
M  V30 28648 H 2703.58 1.67588 3.94477 0
M  V30 28649 H 2707.77 2.61831 4.21614 0
M  V30 28650 H 2703.02 3.96083 4.65755 0
M  V30 28651 H 2707.2 4.90621 4.94231 0
M  V30 28652 H 2704.83 5.58265 5.15988 0
M  V30 28653 N 2706.4 -1.46311 0.585725 0
M  V30 28654 C 2707.65 -2.0267 0.072564 0
M  V30 28655 C 2707.98 -1.45589 -1.28521 0
M  V30 28656 O 2707.26 -0.622134 -1.84282 0
M  V30 28657 C 2707.54 -3.60099 0.0100421 0
M  V30 28658 C 2707.39 -4.27558 1.39693 0
M  V30 28659 C 2708.71 -4.34673 -0.68904 0
M  V30 28660 H 2705.83 -0.736474 0.0278436 0
M  V30 28661 H 2708.47 -1.7442 0.753503 0
M  V30 28662 H 2706.62 -3.84298 -0.569852 0
M  V30 28663 H 2708.29 -4.14613 2.02222 0
M  V30 28664 H 2706.54 -3.86804 1.9638 0
M  V30 28665 H 2707.21 -5.36337 1.30562 0
M  V30 28666 H 2709.68 -4.15636 -0.196373 0
M  V30 28667 H 2708.56 -5.44395 -0.701825 0
M  V30 28668 H 2708.82 -4.05949 -1.75094 0
M  V30 28669 N 2707.88 -0.323668 -1.54241 0
M  V30 28670 C 2709.1 0.283568 -2.05452 0
M  V30 28671 C 2709.53 1.44995 -1.19826 0
M  V30 28672 O 2708.89 1.8011 -0.20739 0
M  V30 28673 C 2708.94 0.695732 -3.53825 0
M  V30 28674 O 2708.04 1.79809 -3.71137 0
M  V30 28675 H 2707.38 0.0511801 -0.662025 0
M  V30 28676 H 2709.91 -0.472108 -1.99079 0
M  V30 28677 H 2709.92 0.978365 -3.96096 0
M  V30 28678 H 2708.6 -0.15736 -4.15602 0
M  V30 28679 H 2707.17 1.51425 -3.40771 0
M  V30 28680 N 2709.36 1.57515 -0.0518432 0
M  V30 28681 C 2710.6 1.92717 0.62179 0
M  V30 28682 C 2710.93 0.930259 1.70811 0
M  V30 28683 O 2710.19 -0.0573364 1.95616 0
M  V30 28684 C 2710.49 3.34603 1.25601 0
M  V30 28685 C 2710.15 4.49915 0.297822 0
M  V30 28686 C 2708.81 4.81188 0.0341584 0
M  V30 28687 C 2711.17 5.19963 -0.35883 0
M  V30 28688 C 2708.49 5.79855 -0.893581 0
M  V30 28689 C 2710.85 6.19623 -1.27476 0
M  V30 28690 C 2709.51 6.49324 -1.54709 0
M  V30 28691 H 2708.78 0.705203 0.227529 0
M  V30 28692 H 2711.43 1.91133 -0.118465 0
M  V30 28693 H 2709.73 3.32557 2.07155 0
M  V30 28694 H 2711.43 3.59121 1.78418 0
M  V30 28695 H 2708.02 4.25513 0.513506 0
M  V30 28696 H 2712.2 4.96015 -0.16822 0
M  V30 28697 H 2707.46 6.01202 -1.11203 0
M  V30 28698 H 2711.63 6.73012 -1.78965 0
M  V30 28699 H 2709.26 7.25592 -2.26761 0
M  V30 28700 N 2710.84 -0.221546 1.56035 0
M  V30 28701 C 2712.08 -0.94734 1.79313 0
M  V30 28702 C 2712.41 -1.83987 0.621485 0
M  V30 28703 O 2711.69 -1.90767 -0.379253 0
M  V30 28704 C 2711.97 -1.78627 3.12673 0
M  V30 28705 C 2711.83 -0.920235 4.40286 0
M  V30 28706 C 2713.14 -2.76404 3.42475 0
M  V30 28707 H 2710.26 -0.342971 0.652334 0
M  V30 28708 H 2712.91 -0.216211 1.88766 0
M  V30 28709 H 2711.06 -2.40961 3.04746 0
M  V30 28710 H 2712.73 -0.313637 4.60233 0
M  V30 28711 H 2710.97 -0.225658 4.33213 0
M  V30 28712 H 2711.64 -1.54162 5.30036 0
M  V30 28713 H 2714.12 -2.24205 3.5053 0
M  V30 28714 H 2712.99 -3.32205 4.36956 0
M  V30 28715 H 2713.25 -3.54143 2.64642 0
M  V30 28716 N 2712.31 -1.49846 -0.48825 0
M  V30 28717 C 2713.24 -1.70373 -1.59672 0
M  V30 28718 C 2714.22 -0.552501 -1.60877 0
M  V30 28719 O 2715.41 -0.789761 -1.77416 0
M  V30 28720 C 2712.54 -1.78205 -2.98094 0
M  V30 28721 C 2711.49 -2.93244 -3.11756 0
M  V30 28722 C 2710.82 -2.86201 -4.51656 0
M  V30 28723 C 2712.12 -4.34004 -2.90581 0
M  V30 28724 H 2713.81 -2.6318 -1.42747 0
M  V30 28725 H 2711.36 -1.26648 -0.685295 0
M  V30 28726 H 2713.31 -1.91151 -3.75552 0
M  V30 28727 H 2712.04 -0.820073 -3.16137 0
M  V30 28728 H 2710.7 -2.79922 -2.36727 0
M  V30 28729 H 2710.34 -1.87885 -4.66592 0
M  V30 28730 H 2710.04 -3.6342 -4.61735 0
M  V30 28731 H 2711.57 -3.01172 -5.31157 0
M  V30 28732 H 2712.98 -4.47942 -3.578 0
M  V30 28733 H 2711.38 -5.12543 -3.12121 0
M  V30 28734 H 2712.45 -4.47564 -1.86587 0
M  V30 28735 N 2713.79 0.740218 -1.39135 0
M  V30 28736 C 2715.02 1.52947 -1.39337 0
M  V30 28737 C 2715.43 1.88795 0.0134676 0
M  V30 28738 O 2714.79 1.53732 0.983497 0
M  V30 28739 C 2714.84 2.8203 -2.26145 0
M  V30 28740 O 2714.56 2.47706 -3.61349 0
M  V30 28741 C 2716.06 3.7609 -2.34673 0
M  V30 28742 H 2713.28 0.47282 -0.476111 0
M  V30 28743 H 2715.83 0.915068 -1.82885 0
M  V30 28744 H 2713.98 3.39814 -1.86024 0
M  V30 28745 H 2714.4 3.30588 -4.072 0
M  V30 28746 H 2715.87 4.63574 -2.99672 0
M  V30 28747 H 2716.35 4.17472 -1.36433 0
M  V30 28748 H 2716.95 3.24226 -2.75242 0
M  V30 28749 N 2715.27 1.24225 0.969846 0
M  V30 28750 C 2716.23 1.03377 2.04563 0
M  V30 28751 C 2717.23 -0.0081638 1.60798 0
M  V30 28752 O 2718.42 0.232597 1.7264 0
M  V30 28753 C 2715.55 0.566402 3.36162 0
M  V30 28754 H 2716.75 1.98857 2.2449 0
M  V30 28755 H 2714.3 1.06417 1.14478 0
M  V30 28756 H 2715.04 -0.391694 3.21926 0
M  V30 28757 H 2714.82 1.3184 3.6927 0
M  V30 28758 H 2716.31 0.441508 4.1526 0
M  V30 28759 N 2716.75 -1.1702 1.05565 0
M  V30 28760 C 2717.68 -2.20713 0.617927 0
M  V30 28761 C 2718.69 -1.59619 -0.320275 0
M  V30 28762 O 2719.88 -1.78146 -0.112417 0
M  V30 28763 C 2716.98 -3.38704 -0.115274 0
M  V30 28764 C 2716.15 -4.29364 0.834569 0
M  V30 28765 C 2715.21 -5.26009 0.141948 0
M  V30 28766 O 2714.24 -5.63868 0.77725 0
M  V30 28767 N 2715.44 -5.69608 -1.11924 0
M  V30 28768 H 2718.21 -2.58889 1.50986 0
M  V30 28769 H 2715.77 -1.31957 0.938031 0
M  V30 28770 H 2717.76 -4.00393 -0.588848 0
M  V30 28771 H 2716.33 -2.99094 -0.908915 0
M  V30 28772 H 2715.55 -3.6505 1.48768 0
M  V30 28773 H 2716.84 -4.86824 1.47918 0
M  V30 28774 H 2716.24 -5.4093 -1.65565 0
M  V30 28775 H 2714.79 -6.33424 -1.53681 0
M  V30 28776 N 2718.23 -0.837197 -1.33524 0
M  V30 28777 C 2719.47 -0.432099 -1.97836 0
M  V30 28778 C 2719.8 1.00826 -1.66326 0
M  V30 28779 O 2719.06 1.71946 -0.93451 0
M  V30 28780 C 2719.35 -0.597737 -3.52366 0
M  V30 28781 C 2719.02 -2.00595 -4.03823 0
M  V30 28782 C 2717.68 -2.39114 -4.17586 0
M  V30 28783 C 2720.03 -2.92584 -4.31328 0
M  V30 28784 C 2717.36 -3.68929 -4.56189 0
M  V30 28785 C 2719.71 -4.21879 -4.71382 0
M  V30 28786 C 2718.38 -4.60356 -4.83352 0
M  V30 28787 H 2717.65 -0.158116 -0.723934 0
M  V30 28788 H 2720.3 -1.0639 -1.59228 0
M  V30 28789 H 2718.6 0.117383 -3.91624 0
M  V30 28790 H 2720.3 -0.264611 -4.00126 0
M  V30 28791 H 2716.89 -1.69678 -3.93583 0
M  V30 28792 H 2721.07 -2.64063 -4.20219 0
M  V30 28793 H 2716.33 -3.98548 -4.63648 0
M  V30 28794 H 2720.5 -4.93235 -4.91622 0
M  V30 28795 H 2718.13 -5.60994 -5.13021 0
M  V30 28796 N 2719.7 1.45999 -0.593476 0
M  V30 28797 C 2720.95 2.02629 -0.0833111 0
M  V30 28798 C 2721.28 1.46268 1.27747 0
M  V30 28799 O 2720.56 0.631898 1.83949 0
M  V30 28800 C 2720.84 3.60088 -0.0291389 0
M  V30 28801 C 2720.69 4.26811 -1.41958 0
M  V30 28802 C 2722.01 4.35032 0.665979 0
M  V30 28803 H 2719.13 0.736316 -0.031749 0
M  V30 28804 H 2721.77 1.74018 -0.762742 0
M  V30 28805 H 2719.92 3.84595 0.549464 0
M  V30 28806 H 2721.6 4.13535 -2.04418 0
M  V30 28807 H 2719.84 3.85757 -1.98429 0
M  V30 28808 H 2720.51 5.35637 -1.33405 0
M  V30 28809 H 2722.99 4.15735 0.174328 0
M  V30 28810 H 2721.86 5.44759 0.672945 0
M  V30 28811 H 2722.12 4.06872 1.72938 0
M  V30 28812 N 2721.18 0.331843 1.54067 0
M  V30 28813 C 2722.11 -0.522892 2.2757 0
M  V30 28814 C 2723.09 -1.11244 1.28681 0
M  V30 28815 O 2724.28 -1.13603 1.57506 0
M  V30 28816 C 2721.41 -1.67981 3.03973 0
M  V30 28817 C 2720.36 -1.21917 4.10269 0
M  V30 28818 C 2719.69 -2.46369 4.74559 0
M  V30 28819 C 2720.99 -0.328058 5.21269 0
M  V30 28820 H 2722.68 0.0902503 2.99264 0
M  V30 28821 H 2720.23 0.0448463 1.4393 0
M  V30 28822 H 2722.18 -2.28412 3.54127 0
M  V30 28823 H 2720.91 -2.31967 2.2991 0
M  V30 28824 H 2719.56 -0.637745 3.6101 0
M  V30 28825 H 2719.21 -3.08736 3.97103 0
M  V30 28826 H 2718.91 -2.16234 5.46367 0
M  V30 28827 H 2720.44 -3.07546 5.27492 0
M  V30 28828 H 2721.85 -0.838878 5.67129 0
M  V30 28829 H 2720.25 -0.119122 5.99982 0
M  V30 28830 H 2721.32 0.638924 4.80672 0
M  V30 28831 N 2722.66 -1.57485 0.0601958 0
M  V30 28832 C 2723.91 -1.93331 -0.612467 0
M  V30 28833 C 2724.24 -0.939556 -1.69959 0
M  V30 28834 O 2723.51 0.0330616 -1.94472 0
M  V30 28835 C 2723.8 -3.39511 -1.20019 0
M  V30 28836 C 2723.65 -4.49639 -0.120511 0
M  V30 28837 C 2724.97 -3.86267 -2.10916 0
M  V30 28838 H 2722.09 -0.70303 -0.221172 0
M  V30 28839 H 2724.73 -1.89596 0.123801 0
M  V30 28840 H 2722.88 -3.42824 -1.82768 0
M  V30 28841 H 2724.55 -4.58451 0.51193 0
M  V30 28842 H 2722.8 -4.30295 0.550327 0
M  V30 28843 H 2723.47 -5.49029 -0.571922 0
M  V30 28844 H 2725.94 -3.84887 -1.58118 0
M  V30 28845 H 2724.82 -4.89184 -2.48978 0
M  V30 28846 H 2725.08 -3.23541 -3.01286 0
M  V30 28847 N 2724.14 0.213268 -1.5615 0
M  V30 28848 C 2725.09 1.28391 -1.93955 0
M  V30 28849 C 2726.08 1.48086 -0.822618 0
M  V30 28850 O 2727.29 1.49162 -1.00751 0
M  V30 28851 H 2723.66 0.430635 -0.616488 0
M  V30 28852 H 2725.63 0.937927 -2.83276 0
M  V30 28853 C 2724.38 2.62533 -2.27973 0
M  V30 28854 H 2723.7 2.48188 -3.13437 0
M  V30 28855 H 2725.14 3.36238 -2.58303 0
M  V30 28856 C 2723.6 3.18165 -1.10781 0
M  V30 28857 O 2724.13 3.99962 -0.373272 0
M  V30 28858 N 2722.34 2.76654 -0.889426 0
M  V30 28859 H 2721.89 2.10244 -1.48847 0
M  V30 28860 H 2721.84 3.14218 -0.107055 0
M  V30 28861 N 2725.62 1.50103 0.480296 0
M  V30 28862 C 2726.86 1.60869 1.23486 0
M  V30 28863 C 2727.2 0.303861 1.91808 0
M  V30 28864 O 2726.47 -0.69406 1.81695 0
M  V30 28865 C 2726.75 2.78256 2.28573 0
M  V30 28866 C 2726.61 4.18595 1.64617 0
M  V30 28867 C 2727.93 2.91224 3.29965 0
M  V30 28868 H 2725.04 0.585515 0.447595 0
M  V30 28869 H 2727.69 1.82459 0.529973 0
M  V30 28870 H 2725.84 2.59979 2.88692 0
M  V30 28871 H 2727.51 4.48439 1.08165 0
M  V30 28872 H 2725.75 4.2328 0.94957 0
M  V30 28873 H 2726.42 4.96642 2.40937 0
M  V30 28874 H 2728.9 3.07926 2.79858 0
M  V30 28875 H 2727.77 3.75 4.00832 0
M  V30 28876 H 2728.04 2.01447 3.93537 0
M  V30 28877 N 2727.09 -0.732829 1.39526 0
M  V30 28878 C 2728.34 -1.49464 1.3707 0
M  V30 28879 C 2728.67 -1.94172 -0.0326825 0
M  V30 28880 O 2727.95 -1.66941 -0.998042 0
M  V30 28881 C 2728.23 -2.73281 2.34499 0
M  V30 28882 C 2728.08 -2.34578 3.83788 0
M  V30 28883 C 2729.4 -3.75387 2.29723 0
M  V30 28884 H 2726.52 -0.542174 0.499215 0
M  V30 28885 H 2729.16 -0.837753 1.70534 0
M  V30 28886 H 2727.31 -3.2933 2.06093 0
M  V30 28887 H 2728.99 -1.84143 4.22953 0
M  V30 28888 H 2727.23 -1.6678 4.00458 0
M  V30 28889 H 2727.9 -3.23254 4.47449 0
M  V30 28890 H 2730.38 -3.28927 2.54845 0
M  V30 28891 H 2729.25 -4.59684 2.9997 0
M  V30 28892 H 2729.51 -4.22463 1.30299 0
M  V30 28893 N 2728.57 -1.24737 -0.963244 0
M  V30 28894 C 2729.82 -1.08372 -1.70113 0
M  V30 28895 C 2730.13 0.376654 -1.91939 0
M  V30 28896 O 2731.34 0.660578 -2.63341 0
M  V30 28897 C 2729.8 -1.89104 -3.06215 0
M  V30 28898 C 2729.4 -3.3958 -2.92215 0
M  V30 28899 C 2731.15 -1.81282 -3.83845 0
M  V30 28900 C 2729.06 -4.12639 -4.23655 0
M  V30 28901 H 2727.99 -0.401936 -0.637937 0
M  V30 28902 H 2730.64 -1.48858 -1.07301 0
M  V30 28903 H 2729.02 -1.41436 -3.69881 0
M  V30 28904 H 2730.19 -3.9486 -2.37534 0
M  V30 28905 H 2728.51 -3.48401 -2.28047 0
M  V30 28906 H 2731.1 -2.33166 -4.81184 0
M  V30 28907 H 2731.45 -0.778967 -4.08947 0
M  V30 28908 H 2731.98 -2.26655 -3.26914 0
M  V30 28909 H 2728.72 -5.16402 -4.03744 0
M  V30 28910 H 2728.24 -3.62143 -4.78134 0
M  V30 28911 H 2729.92 -4.19882 -4.92248 0
M  V30 28912 N 2730.05 1.16459 -1.06184 0
M  V30 28913 C 2731.01 2.19012 -0.675761 0
M  V30 28914 C 2732.01 1.5838 0.277935 0
M  V30 28915 O 2733.2 1.74095 0.0604656 0
M  V30 28916 C 2730.34 3.40899 0.00585467 0
M  V30 28917 H 2731.53 2.54682 -1.58357 0
M  V30 28918 H 2729.08 1.30715 -0.856931 0
M  V30 28919 H 2729.82 3.10785 0.926465 0
M  V30 28920 H 2729.6 3.8616 -0.679908 0
M  V30 28921 H 2731.09 4.16779 0.261736 0
M  V30 28922 N 2731.53 0.844266 1.33079 0
M  V30 28923 C 2732.77 0.44324 1.97897 0
M  V30 28924 C 2733.11 -0.996221 1.66701 0
M  V30 28925 O 2732.38 -1.69736 0.949734 0
M  V30 28926 C 2732.67 0.670668 3.53799 0
M  V30 28927 C 2732.52 2.15779 3.94664 0
M  V30 28928 C 2733.84 0.120304 4.39936 0
M  V30 28929 H 2730.96 0.162517 0.718858 0
M  V30 28930 H 2733.6 1.06078 1.57631 0
M  V30 28931 H 2731.75 0.145028 3.88229 0
M  V30 28932 H 2733.42 2.74871 3.70464 0
M  V30 28933 H 2731.66 2.64026 3.44199 0
M  V30 28934 H 2732.33 2.26765 5.03271 0
M  V30 28935 H 2734.81 0.569672 4.12182 0
M  V30 28936 H 2733.69 0.309081 5.48029 0
M  V30 28937 H 2733.95 -0.976271 4.31186 0
M  V30 28938 N 2733.01 -1.45682 0.60121 0
M  V30 28939 C 2733.94 -2.33246 -0.108783 0
M  V30 28940 C 2734.92 -1.46453 -0.865197 0
M  V30 28941 O 2736.1 -1.75236 -0.837009 0
M  V30 28942 C 2733.23 -3.29052 -1.11095 0
M  V30 28943 C 2732.19 -4.25432 -0.46817 0
M  V30 28944 C 2731.51 -5.10881 -1.57813 0
M  V30 28945 C 2732.81 -5.18766 0.606561 0
M  V30 28946 H 2734.51 -2.9286 0.622358 0
M  V30 28947 H 2732.05 -1.40825 0.300739 0
M  V30 28948 H 2734.01 -3.89177 -1.61615 0
M  V30 28949 H 2732.73 -2.67584 -1.8726 0
M  V30 28950 H 2731.39 -3.66596 0.0161129 0
M  V30 28951 H 2731.04 -4.45785 -2.32991 0
M  V30 28952 H 2730.74 -5.76165 -1.15358 0
M  V30 28953 H 2732.26 -5.73873 -2.08573 0
M  V30 28954 H 2733.67 -5.72999 0.185689 0
M  V30 28955 H 2732.07 -5.92493 0.952486 0
M  V30 28956 H 2733.14 -4.6158 1.48567 0
M  V30 28957 N 2734.48 -0.340009 -1.53889 0
M  V30 28958 C 2735.42 0.561366 -2.21188 0
M  V30 28959 C 2736.4 1.10304 -1.19465 0
M  V30 28960 O 2737.58 1.16397 -1.4827 0
M  V30 28961 C 2734.71 1.77192 -2.88653 0
M  V30 28962 C 2733.75 1.36003 -4.04234 0
M  V30 28963 S 2734.59 0.382815 -5.3413 0
M  V30 28964 C 2735.74 1.60029 -6.05096 0
M  V30 28965 H 2735.97 -0.0102615 -2.97298 0
M  V30 28966 H 2733.51 -0.124083 -1.53901 0
M  V30 28967 H 2735.47 2.46644 -3.28142 0
M  V30 28968 H 2734.13 2.31476 -2.12315 0
M  V30 28969 H 2733.32 2.26252 -4.50362 0
M  V30 28970 H 2732.92 0.745033 -3.66504 0
M  V30 28971 H 2735.21 2.5353 -6.28275 0
M  V30 28972 H 2736.16 1.18087 -6.98184 0
M  V30 28973 H 2736.56 1.79473 -5.3521 0
M  V30 28974 N 2735.96 1.57451 -0.0685468 0
M  V30 28975 C 2736.91 2.12537 0.899824 0
M  V30 28976 C 2737.88 1.03705 1.29748 0
M  V30 28977 O 2739.07 1.3135 1.3839 0
M  V30 28978 C 2736.21 2.68884 2.16323 0
M  V30 28979 C 2735.32 3.9186 1.8185 0
M  V30 28980 C 2734.45 4.36462 3.02778 0
M  V30 28981 C 2733.49 5.52094 2.64307 0
M  V30 28982 N 2732.63 5.91669 3.77984 0
M  V30 28983 H 2737.47 2.9498 0.423191 0
M  V30 28984 H 2735.01 1.45772 0.197242 0
M  V30 28985 H 2736.96 2.9966 2.90275 0
M  V30 28986 H 2735.59 1.89211 2.61532 0
M  V30 28987 H 2734.65 3.67567 0.979743 0
M  V30 28988 H 2735.96 4.75855 1.49545 0
M  V30 28989 H 2735.11 4.68882 3.85012 0
M  V30 28990 H 2733.85 3.51314 3.38275 0
M  V30 28991 H 2732.86 5.19329 1.80494 0
M  V30 28992 H 2734.08 6.38971 2.29984 0
M  V30 28993 H 2732.03 5.09472 4.13249 0
M  V30 28994 H 2731.94 6.70396 3.49435 0
M  V30 28995 H 2733.21 6.28711 4.60807 0
M  V30 28996 N 2737.44 -0.204984 1.56261 0
M  V30 28997 C 2738.39 -1.25794 1.90157 0
M  V30 28998 C 2739.38 -1.41483 0.766252 0
M  V30 28999 O 2740.57 -1.44019 1.02895 0
M  V30 29000 C 2737.7 -2.60489 2.23608 0
M  V30 29001 C 2736.78 -2.48633 3.43573 0
M  V30 29002 N 2737.17 -2.06446 4.6175 0
M  V30 29003 C 2735.47 -2.79552 3.47515 0
M  V30 29004 C 2736.17 -2.06243 5.4391 0
M  V30 29005 N 2735.15 -2.47369 4.84055 0
M  V30 29006 H 2738.95 -0.922937 2.79032 0
M  V30 29007 H 2736.46 -0.413473 1.57048 0
M  V30 29008 H 2738.46 -3.36532 2.46073 0
M  V30 29009 H 2737.12 -2.94821 1.36054 0
M  V30 29010 H 2738.13 -1.77312 4.86601 0
M  V30 29011 H 2734.81 -3.18146 2.70351 0
M  V30 29012 H 2736.2 -1.75611 6.48545 0
M  V30 29013 N 2738.92 -1.50356 -0.472329 0
M  V30 29014 C 2739.85 -1.72057 -1.57856 0
M  V30 29015 C 2740.83 -0.569533 -1.60282 0
M  V30 29016 O 2742.02 -0.808534 -1.76568 0
M  V30 29017 C 2739.15 -1.81357 -2.96188 0
M  V30 29018 C 2738.1 -2.96535 -3.08628 0
M  V30 29019 C 2737.43 -2.90975 -4.48595 0
M  V30 29020 C 2738.73 -4.37062 -2.85962 0
M  V30 29021 H 2740.42 -2.64679 -1.39948 0
M  V30 29022 H 2737.97 -1.27368 -0.671823 0
M  V30 29023 H 2739.92 -1.95123 -3.73504 0
M  V30 29024 H 2738.64 -0.853558 -3.15249 0
M  V30 29025 H 2737.3 -2.82417 -2.33744 0
M  V30 29026 H 2736.95 -1.92823 -4.64573 0
M  V30 29027 H 2736.65 -3.68297 -4.57855 0
M  V30 29028 H 2738.17 -3.06789 -5.27933 0
M  V30 29029 H 2739.59 -4.51712 -3.53028 0
M  V30 29030 H 2737.98 -5.15825 -3.06667 0
M  V30 29031 H 2739.05 -4.49517 -1.8183 0
M  V30 29032 N 2740.4 0.725419 -1.39912 0
M  V30 29033 C 2741.31 1.86978 -1.41691 0
M  V30 29034 C 2742.32 1.71205 -0.31061 0
M  V30 29035 O 2743.5 1.93641 -0.553624 0
M  V30 29036 C 2740.56 3.22674 -1.26817 0
M  V30 29037 C 2739.63 3.50771 -2.47504 0
M  V30 29038 C 2738.86 4.79993 -2.33329 0
M  V30 29039 O 2739.08 5.54392 -1.34185 0
M  V30 29040 O 2738.02 5.08205 -3.22507 0
M  V30 29041 H 2741.84 1.88432 -2.38174 0
M  V30 29042 H 2739.43 0.874527 -1.2113 0
M  V30 29043 H 2741.31 4.03747 -1.20691 0
M  V30 29044 H 2739.98 3.21969 -0.334345 0
M  V30 29045 H 2738.89 2.69747 -2.59206 0
M  V30 29046 H 2740.22 3.56264 -3.39612 0
M  V30 29047 N 2741.88 1.25246 0.956615 0
M  V30 29048 C 2742.79 1.07193 2.08679 0
M  V30 29049 C 2743.8 0.00962132 1.73997 0
M  V30 29050 O 2744.98 0.210139 2.00301 0
M  V30 29051 C 2742.04 0.690586 3.39753 0
M  V30 29052 C 2741.1 1.83061 3.88313 0
M  V30 29053 C 2740.34 1.46737 5.13132 0
M  V30 29054 O 2740.56 0.362129 5.69249 0
M  V30 29055 O 2739.49 2.29687 5.56352 0
M  V30 29056 H 2743.32 2.01969 2.26809 0
M  V30 29057 H 2740.9 1.04167 1.07097 0
M  V30 29058 H 2742.79 0.489945 4.18542 0
M  V30 29059 H 2741.46 -0.227924 3.22897 0
M  V30 29060 H 2740.37 2.0861 3.10536 0
M  V30 29061 H 2741.7 2.7283 4.09664 0
M  V30 29062 N 2743.35 -1.15894 1.068 0
M  V30 29063 C 2744.58 -1.90981 0.808773 0
M  V30 29064 C 2745 -1.7718 -0.631568 0
M  V30 29065 O 2744.36 -1.10064 -1.44068 0
M  V30 29066 C 2744.41 -3.39524 1.21474 0
M  V30 29067 O 2743.51 -4.10855 0.356634 0
M  V30 29068 H 2742.85 -0.594806 0.29513 0
M  V30 29069 H 2745.38 -1.46801 1.42515 0
M  V30 29070 H 2745.39 -3.90306 1.18851 0
M  V30 29071 H 2744.07 -3.48888 2.26385 0
M  V30 29072 H 2742.65 -3.70237 0.444874 0
M  V30 29073 N 2744.83 -0.851312 -1.32629 0
M  V30 29074 C 2745.78 -0.282242 -2.30881 0
M  V30 29075 C 2746.77 0.592562 -1.58698 0
M  V30 29076 O 2747.98 0.480737 -1.73462 0
M  V30 29077 H 2744.35 -0.0725618 -0.748491 0
M  V30 29078 H 2746.33 -1.12521 -2.76372 0
M  V30 29079 C 2745.07 0.517389 -3.43829 0
M  V30 29080 H 2744.4 -0.146463 -3.99532 0
M  V30 29081 H 2745.84 0.881207 -4.14742 0
M  V30 29082 C 2744.3 1.70127 -2.90789 0
M  V30 29083 O 2744.83 2.80029 -2.88005 0
M  V30 29084 N 2743.03 1.52724 -2.47232 0
M  V30 29085 H 2742.58 0.633213 -2.49696 0
M  V30 29086 H 2742.54 2.32082 -2.12098 0
M  V30 29087 N 2746.31 1.45361 -0.608928 0
M  V30 29088 C 2747.26 2.30542 0.109131 0
M  V30 29089 C 2748.23 1.42183 0.858679 0
M  V30 29090 O 2749.41 1.7111 0.844148 0
M  V30 29091 C 2746.55 3.27111 1.09965 0
M  V30 29092 C 2745.66 4.30573 0.350836 0
M  V30 29093 C 2744.8 5.1425 1.33119 0
M  V30 29094 C 2743.84 6.09438 0.57027 0
M  V30 29095 N 2742.98 6.8589 1.49998 0
M  V30 29096 H 2747.82 2.9141 -0.623246 0
M  V30 29097 H 2745.35 1.43596 -0.319147 0
M  V30 29098 H 2747.31 3.81567 1.68708 0
M  V30 29099 H 2745.94 2.67994 1.79942 0
M  V30 29100 H 2744.99 3.78767 -0.35212 0
M  V30 29101 H 2746.3 4.98209 -0.242812 0
M  V30 29102 H 2745.46 5.73113 1.99064 0
M  V30 29103 H 2744.2 4.46636 1.95877 0
M  V30 29104 H 2743.2 5.49704 -0.102798 0
M  V30 29105 H 2744.43 6.7908 -0.05228 0
M  V30 29106 H 2742.37 6.20964 2.11518 0
M  V30 29107 H 2742.29 7.49883 0.959802 0
M  V30 29108 H 2743.56 7.49293 2.14896 0
M  V30 29109 N 2747.79 0.348166 1.53706 0
M  V30 29110 C 2748.7 -0.514817 2.28882 0
M  V30 29111 C 2749.71 -1.1079 1.3417 0
M  V30 29112 O 2750.89 -1.12259 1.67212 0
M  V30 29113 C 2747.95 -1.64768 3.05045 0
M  V30 29114 C 2747.02 -1.08391 4.15391 0
M  V30 29115 C 2746.25 -2.16278 4.87913 0
M  V30 29116 O 2746.47 -3.37082 4.60143 0
M  V30 29117 O 2745.41 -1.80313 5.74257 0
M  V30 29118 H 2749.23 0.0964232 3.03547 0
M  V30 29119 H 2746.82 0.113069 1.48972 0
M  V30 29120 H 2748.7 -2.30671 3.5266 0
M  V30 29121 H 2747.37 -2.24465 2.33232 0
M  V30 29122 H 2746.28 -0.389275 3.72069 0
M  V30 29123 H 2747.61 -0.531743 4.89319 0
M  V30 29124 N 2749.27 -1.57412 0.0768958 0
M  V30 29125 C 2750.23 -2.11885 -0.873911 0
M  V30 29126 C 2751.23 -1.04401 -1.22299 0
M  V30 29127 O 2752.42 -1.30367 -1.15543 0
M  V30 29128 C 2749.55 -2.62442 -2.1757 0
M  V30 29129 H 2750.74 -2.97204 -0.401226 0
M  V30 29130 H 2748.3 -1.55352 -0.171877 0
M  V30 29131 H 2749.03 -1.80592 -2.69364 0
M  V30 29132 H 2748.82 -3.41012 -1.93528 0
M  V30 29133 H 2750.31 -3.04644 -2.85625 0
M  V30 29134 N 2750.74 0.196695 -1.56368 0
M  V30 29135 C 2751.69 1.24378 -1.94419 0
M  V30 29136 C 2752.66 1.45313 -0.804569 0
M  V30 29137 O 2753.85 1.58473 -1.06259 0
M  V30 29138 C 2750.99 2.58384 -2.28761 0
M  V30 29139 C 2750.1 2.45041 -3.55779 0
M  V30 29140 C 2749.23 3.71739 -3.79451 0
M  V30 29141 C 2748.27 3.53223 -4.999 0
M  V30 29142 N 2747.41 4.71929 -5.19834 0
M  V30 29143 H 2752.25 0.912288 -2.83692 0
M  V30 29144 H 2749.79 0.43911 -1.40393 0
M  V30 29145 H 2751.75 3.36453 -2.46688 0
M  V30 29146 H 2750.38 2.8958 -1.4263 0
M  V30 29147 H 2749.43 1.58278 -3.45908 0
M  V30 29148 H 2750.74 2.27292 -4.44004 0
M  V30 29149 H 2749.89 4.58249 -3.97609 0
M  V30 29150 H 2748.63 3.92441 -2.89553 0
M  V30 29151 H 2747.64 2.65098 -4.81667 0
M  V30 29152 H 2748.86 3.33968 -5.91306 0
M  V30 29153 H 2746.81 4.92897 -4.32884 0
M  V30 29154 H 2746.73 4.56999 -6.02236 0
M  V30 29155 H 2747.99 5.59794 -5.42449 0
M  V30 29156 N 2752.22 1.50604 0.464349 0
M  V30 29157 C 2753.13 1.72757 1.5872 0
M  V30 29158 C 2754.15 0.610872 1.62924 0
M  V30 29159 O 2755.32 0.889995 1.80668 0
M  V30 29160 C 2752.39 1.82314 2.94894 0
M  V30 29161 C 2751.45 3.06077 3.01024 0
M  V30 29162 C 2750.68 3.15168 4.30703 0
M  V30 29163 O 2750.91 2.30877 5.21586 0
M  V30 29164 O 2749.84 4.07947 4.42564 0
M  V30 29165 H 2753.67 2.67954 1.42949 0
M  V30 29166 H 2751.25 1.34781 0.644555 0
M  V30 29167 H 2753.13 1.90741 3.7576 0
M  V30 29168 H 2751.81 0.903022 3.10849 0
M  V30 29169 H 2750.72 3.03146 2.19211 0
M  V30 29170 H 2752.05 3.97689 2.90007 0
M  V30 29171 N 2753.7 -0.717989 1.40295 0
M  V30 29172 C 2754.61 -1.86224 1.42681 0
M  V30 29173 C 2755.63 -1.71038 0.319685 0
M  V30 29174 O 2756.8 -1.93345 0.563886 0
M  V30 29175 C 2753.87 -3.21997 1.28526 0
M  V30 29176 C 2752.93 -3.49454 2.4936 0
M  V30 29177 C 2752.16 -4.78749 2.35871 0
M  V30 29178 O 2752.38 -5.53673 1.37123 0
M  V30 29179 O 2751.32 -5.06488 3.25198 0
M  V30 29180 H 2755.14 -1.87167 2.3917 0
M  V30 29181 H 2752.73 -0.868091 1.21592 0
M  V30 29182 H 2754.61 -4.03101 1.22831 0
M  V30 29183 H 2753.29 -3.21787 0.351415 0
M  V30 29184 H 2752.19 -2.68368 2.60633 0
M  V30 29185 H 2753.53 -3.54458 3.41497 0
M  V30 29186 N 2755.18 -1.25752 -0.94996 0
M  V30 29187 C 2756.14 -1.06618 -2.02892 0
M  V30 29188 C 2757.14 -0.0174188 -1.60791 0
M  V30 29189 O 2758.33 -0.260033 -1.72248 0
M  V30 29190 C 2755.46 -0.61981 -3.35218 0
M  V30 29191 H 2756.66 -2.02403 -2.21298 0
M  V30 29192 H 2754.21 -1.08225 -1.1277 0
M  V30 29193 H 2754.94 0.340429 -3.22508 0
M  V30 29194 H 2754.73 -1.37698 -3.67126 0
M  V30 29195 H 2756.22 -0.507516 -4.14505 0
M  V30 29196 N 2756.66 1.15326 -1.07413 0
M  V30 29197 C 2757.57 2.2371 -0.706477 0
M  V30 29198 C 2758.58 1.7169 0.282556 0
M  V30 29199 O 2759.76 2.00986 0.129031 0
M  V30 29200 C 2756.82 3.46524 -0.110541 0
M  V30 29201 C 2755.88 4.1353 -1.15289 0
M  V30 29202 C 2755.12 5.30481 -0.585299 0
M  V30 29203 O 2755.34 5.67252 0.598449 0
M  V30 29204 O 2754.27 5.87011 -1.33049 0
M  V30 29205 H 2758.1 2.5749 -1.61035 0
M  V30 29206 H 2755.69 1.23061 -0.847135 0
M  V30 29207 H 2757.57 4.20828 0.219496 0
M  V30 29208 H 2756.24 3.1449 0.766648 0
M  V30 29209 H 2755.15 3.41144 -1.53529 0
M  V30 29210 H 2756.48 4.49645 -2.002 0
M  V30 29211 N 2758.13 0.858334 1.32176 0
M  V30 29212 C 2759.06 0.321082 2.31282 0
M  V30 29213 C 2760.05 -0.581758 1.59842 0
M  V30 29214 O 2761.23 -0.501229 1.8762 0
M  V30 29215 C 2758.36 -0.48826 3.43851 0
M  V30 29216 C 2757.31 0.320466 4.26799 0
M  V30 29217 C 2756.64 -0.61384 5.31165 0
M  V30 29218 C 2757.94 1.54822 4.98826 0
M  V30 29219 H 2759.63 1.1492 2.76467 0
M  V30 29220 H 2757.18 0.554051 1.32915 0
M  V30 29221 H 2759.13 -0.874553 4.12225 0
M  V30 29222 H 2757.86 -1.34978 2.97403 0
M  V30 29223 H 2756.52 0.68856 3.60076 0
M  V30 29224 H 2756.16 -1.47231 4.8097 0
M  V30 29225 H 2755.86 -0.0767064 5.8755 0
M  V30 29226 H 2757.39 -0.99723 6.02402 0
M  V30 29227 H 2758.8 1.23401 5.59862 0
M  V30 29228 H 2757.2 2.02356 5.64953 0
M  V30 29229 H 2758.27 2.30746 4.26479 0
M  V30 29230 N 2759.61 -1.45036 0.616628 0
M  V30 29231 C 2760.52 -2.34393 -0.0984989 0
M  V30 29232 C 2761.54 -1.51773 -0.850944 0
M  V30 29233 O 2762.71 -1.84547 -0.806488 0
M  V30 29234 C 2759.78 -3.29534 -1.07742 0
M  V30 29235 C 2758.84 -4.28061 -0.325946 0
M  V30 29236 C 2758.07 -5.18656 -1.25824 0
M  V30 29237 O 2758.3 -5.12869 -2.49643 0
M  V30 29238 O 2757.23 -5.97204 -0.750407 0
M  V30 29239 H 2761.06 -2.96964 0.636068 0
M  V30 29240 H 2758.64 -1.44569 0.376857 0
M  V30 29241 H 2760.52 -3.88135 -1.641 0
M  V30 29242 H 2759.2 -2.69515 -1.79286 0
M  V30 29243 H 2758.11 -3.73048 0.280319 0
M  V30 29244 H 2759.44 -4.9096 0.349177 0
M  V30 29245 N 2761.09 -0.356312 -1.53519 0
M  V30 29246 C 2762.05 0.482142 -2.24071 0
M  V30 29247 C 2763.05 1.01727 -1.24532 0
M  V30 29248 O 2764.24 0.904487 -1.48878 0
M  V30 29249 C 2761.38 1.67294 -2.97028 0
M  V30 29250 H 2762.57 -0.135084 -2.99596 0
M  V30 29251 H 2760.12 -0.107852 -1.55927 0
M  V30 29252 H 2760.86 2.32851 -2.25723 0
M  V30 29253 H 2760.64 1.29629 -3.70052 0
M  V30 29254 H 2762.13 2.26734 -3.50687 0
M  V30 29255 N 2762.57 1.57369 -0.0852427 0
M  V30 29256 C 2763.48 2.16994 0.891674 0
M  V30 29257 C 2764.49 1.13671 1.31738 0
M  V30 29258 O 2765.67 1.45998 1.38732 0
M  V30 29259 C 2762.74 2.73062 2.1363 0
M  V30 29260 C 2761.8 3.91306 1.76573 0
M  V30 29261 C 2761.03 4.44691 2.95103 0
M  V30 29262 O 2761.25 3.97039 4.09532 0
M  V30 29263 O 2760.19 5.35846 2.7414 0
M  V30 29264 H 2764.01 3.00859 0.414424 0
M  V30 29265 H 2761.6 1.48756 0.138572 0
M  V30 29266 H 2763.48 3.0894 2.8659 0
M  V30 29267 H 2762.15 1.92249 2.60427 0
M  V30 29268 H 2761.06 3.60257 1.00824 0
M  V30 29269 H 2762.39 4.73453 1.34548 0
M  V30 29270 N 2764.05 -0.188399 1.5647 0
M  V30 29271 C 2764.98 -1.23602 1.98103 0
M  V30 29272 C 2765.96 -1.47109 0.853986 0
M  V30 29273 O 2767.14 -1.58733 1.11881 0
M  V30 29274 C 2764.27 -2.57878 2.32629 0
M  V30 29275 C 2763.23 -2.48972 3.48134 0
M  V30 29276 C 2762.55 -3.87582 3.68354 0
M  V30 29277 C 2763.85 -2.00903 4.82115 0
M  V30 29278 H 2765.55 -0.890018 2.85865 0
M  V30 29279 H 2763.09 -0.42669 1.37533 0
M  V30 29280 H 2765.05 -3.31355 2.60349 0
M  V30 29281 H 2763.77 -2.94233 1.41756 0
M  V30 29282 H 2762.43 -1.7795 3.20514 0
M  V30 29283 H 2762.08 -4.213 2.748 0
M  V30 29284 H 2761.78 -3.82496 4.46062 0
M  V30 29285 H 2763.3 -4.62671 3.98457 0
M  V30 29286 H 2764.71 -2.64142 5.08824 0
M  V30 29287 H 2763.11 -2.06804 5.6334 0
M  V30 29288 H 2764.18 -0.962536 4.75251 0
M  V30 29289 N 2765.53 -1.50848 -0.456355 0
M  V30 29290 C 2766.44 -1.73597 -1.57802 0
M  V30 29291 C 2767.45 -0.619504 -1.62598 0
M  V30 29292 O 2768.63 -0.899564 -1.80194 0
M  V30 29293 C 2765.69 -1.83875 -2.93923 0
M  V30 29294 C 2764.75 -3.07669 -2.99397 0
M  V30 29295 C 2763.99 -3.17448 -4.29025 0
M  V30 29296 O 2764.21 -2.3364 -5.20354 0
M  V30 29297 O 2763.14 -4.10289 -4.40394 0
M  V30 29298 H 2766.97 -2.68708 -1.41526 0
M  V30 29299 H 2764.55 -1.35121 -0.637398 0
M  V30 29300 H 2766.44 -1.92731 -3.74743 0
M  V30 29301 H 2765.11 -0.919494 -3.10366 0
M  V30 29302 H 2764.02 -3.04304 -2.17601 0
M  V30 29303 H 2765.35 -3.99221 -2.87894 0
M  V30 29304 N 2767 0.710538 -1.40674 0
M  V30 29305 C 2767.93 1.83734 -1.44098 0
M  V30 29306 C 2768.91 1.6741 -0.301315 0
M  V30 29307 O 2770.1 1.87366 -0.510651 0
M  V30 29308 C 2767.23 3.21736 -1.30779 0
M  V30 29309 C 2766.18 3.5274 -2.42401 0
M  V30 29310 C 2765.51 4.8994 -2.14156 0
M  V30 29311 C 2766.81 3.53227 -3.84744 0
M  V30 29312 H 2768.5 1.81125 -2.38399 0
M  V30 29313 H 2766.05 0.869996 -1.14748 0
M  V30 29314 H 2768 4.00262 -1.3179 0
M  V30 29315 H 2766.73 3.24933 -0.329565 0
M  V30 29316 H 2765.39 2.76558 -2.40648 0
M  V30 29317 H 2765.03 4.89745 -1.14712 0
M  V30 29318 H 2764.73 5.1165 -2.88943 0
M  V30 29319 H 2766.26 5.70793 -2.16858 0
M  V30 29320 H 2767.67 4.21783 -3.88293 0
M  V30 29321 H 2766.07 3.86465 -4.59091 0
M  V30 29322 H 2767.14 2.52506 -4.13967 0
M  V30 29323 N 2768.48 1.26254 0.943277 0
M  V30 29324 C 2769.39 1.09401 2.0753 0
M  V30 29325 C 2770.41 0.0280755 1.73977 0
M  V30 29326 O 2771.58 0.231372 2.00067 0
M  V30 29327 C 2768.65 0.726582 3.39001 0
M  V30 29328 C 2767.71 1.8717 3.8635 0
M  V30 29329 C 2766.94 1.52171 5.11546 0
M  V30 29330 O 2767.17 0.422485 5.68833 0
M  V30 29331 O 2766.1 2.35575 5.53885 0
M  V30 29332 H 2769.93 2.04363 2.24654 0
M  V30 29333 H 2767.51 1.05297 1.05986 0
M  V30 29334 H 2769.39 0.534309 4.17999 0
M  V30 29335 H 2768.07 -0.193664 3.2312 0
M  V30 29336 H 2766.97 2.11892 3.08306 0
M  V30 29337 H 2768.31 2.77159 4.06748 0
M  V30 29338 N 2769.96 -1.14755 1.08024 0
M  V30 29339 C 2770.89 -2.18724 0.650777 0
M  V30 29340 C 2771.87 -1.59102 -0.335468 0
M  V30 29341 O 2773.05 -1.86963 -0.240262 0
M  V30 29342 C 2770.18 -3.38672 -0.0433782 0
M  V30 29343 C 2769.23 -4.16844 0.902393 0
M  V30 29344 S 2770.06 -4.78355 2.40701 0
M  V30 29345 C 2771.22 -6.01664 1.72485 0
M  V30 29346 H 2771.45 -2.54814 1.53157 0
M  V30 29347 H 2768.98 -1.25825 0.894845 0
M  V30 29348 H 2770.94 -4.08161 -0.437612 0
M  V30 29349 H 2769.6 -3.00912 -0.900606 0
M  V30 29350 H 2768.79 -5.02687 0.363534 0
M  V30 29351 H 2768.4 -3.52939 1.23734 0
M  V30 29352 H 2770.69 -6.69462 1.04052 0
M  V30 29353 H 2771.63 -6.60132 2.56187 0
M  V30 29354 H 2772.04 -5.516 1.19989 0
M  V30 29355 N 2771.44 -0.865331 -1.31719 0
M  V30 29356 C 2772.38 -0.315776 -2.2863 0
M  V30 29357 C 2773.35 0.583186 -1.55525 0
M  V30 29358 O 2774.54 0.515818 -1.83695 0
M  V30 29359 C 2771.68 0.480713 -3.41736 0
M  V30 29360 C 2770.79 -0.445242 -4.29699 0
M  V30 29361 C 2769.93 0.364919 -5.29945 0
M  V30 29362 C 2768.97 -0.557759 -6.09553 0
M  V30 29363 N 2768.1 0.215871 -7.01768 0
M  V30 29364 H 2772.94 -1.14741 -2.75024 0
M  V30 29365 H 2770.48 -0.577233 -1.35301 0
M  V30 29366 H 2772.44 0.958235 -4.06046 0
M  V30 29367 H 2771.07 1.27709 -2.96463 0
M  V30 29368 H 2770.12 -1.04119 -3.65873 0
M  V30 29369 H 2771.43 -1.15292 -4.85293 0
M  V30 29370 H 2770.59 0.905149 -5.9991 0
M  V30 29371 H 2769.33 1.10592 -4.74996 0
M  V30 29372 H 2768.33 -1.10978 -5.38483 0
M  V30 29373 H 2769.56 -1.29753 -6.66589 0
M  V30 29374 H 2767.5 0.939764 -6.49234 0
M  V30 29375 H 2767.42 -0.432564 -7.54761 0
M  V30 29376 H 2768.69 0.737482 -7.76004 0
M  V30 29377 N 2772.92 1.44707 -0.624311 0
M  V30 29378 C 2774.14 2.06472 -0.132955 0
M  V30 29379 C 2774.56 1.46604 1.18965 0
M  V30 29380 O 2773.92 0.586371 1.72823 0
M  V30 29381 C 2773.97 3.615 -0.00471772 0
M  V30 29382 O 2773.69 4.19136 -1.27501 0
M  V30 29383 C 2775.19 4.40285 0.516135 0
M  V30 29384 H 2772.41 0.666621 -0.0765318 0
M  V30 29385 H 2774.95 1.85686 -0.856783 0
M  V30 29386 H 2773.11 3.81571 0.669516 0
M  V30 29387 H 2773.52 5.12502 -1.11545 0
M  V30 29388 H 2775 5.49204 0.554897 0
M  V30 29389 H 2775.47 4.11247 1.54182 0
M  V30 29390 H 2776.08 4.25117 -0.124616 0
M  V30 29391 N 2774.39 0.364449 1.53328 0
M  V30 29392 C 2775.32 -0.474503 2.28628 0
M  V30 29393 C 2776.3 -1.0849 1.31011 0
M  V30 29394 O 2777.49 -1.10236 1.5988 0
M  V30 29395 C 2774.62 -1.61496 3.07468 0
M  V30 29396 C 2773.57 -1.13187 4.12762 0
M  V30 29397 C 2772.9 -2.36247 4.79678 0
M  V30 29398 C 2774.2 -0.217416 5.21847 0
M  V30 29399 H 2775.89 0.153708 2.99005 0
M  V30 29400 H 2773.44 0.0753659 1.43803 0
M  V30 29401 H 2775.39 -2.20849 3.58892 0
M  V30 29402 H 2774.12 -2.27038 2.34779 0
M  V30 29403 H 2772.78 -0.561026 3.62282 0
M  V30 29404 H 2772.42 -3.00243 4.03563 0
M  V30 29405 H 2772.12 -2.04596 5.50831 0
M  V30 29406 H 2773.65 -2.96288 5.33897 0
M  V30 29407 H 2775.06 -0.718393 5.68781 0
M  V30 29408 H 2773.46 0.00816956 6.00099 0
M  V30 29409 H 2774.53 0.740738 4.79209 0
M  V30 29410 N 2775.87 -1.57322 0.0935872 0
M  V30 29411 C 2777.1 -1.99058 -0.582289 0
M  V30 29412 C 2777.52 -0.97227 -1.61023 0
M  V30 29413 O 2776.88 0.0594303 -1.81203 0
M  V30 29414 C 2776.93 -3.39767 -1.20793 0
M  V30 29415 O 2776.03 -3.40698 -2.32376 0
M  V30 29416 H 2775.37 -0.647325 -0.147872 0
M  V30 29417 H 2777.9 -2.03854 0.174552 0
M  V30 29418 H 2777.91 -3.77428 -1.54959 0
M  V30 29419 H 2776.59 -4.13405 -0.454841 0
M  V30 29420 H 2775.16 -3.14831 -1.9984 0
M  V30 29421 N 2777.35 0.180099 -1.56568 0
M  V30 29422 C 2778.76 0.743392 -1.71262 0
M  V30 29423 C 2779.11 1.83186 -0.702662 0
M  V30 29424 O 2778.24 2.15961 0.137818 0
M  V30 29425 C 2778.83 1.35523 -3.10514 0
M  V30 29426 C 2777.39 1.86544 -3.26922 0
M  V30 29427 C 2776.54 0.741052 -2.67215 0
M  V30 29428 H 2779.49 -0.0451822 -1.58636 0
M  V30 29429 H 2779.51 2.22483 -3.08677 0
M  V30 29430 H 2779.02 0.562795 -3.83998 0
M  V30 29431 H 2777.12 2.68459 -2.58381 0
M  V30 29432 H 2777.24 2.01692 -4.34577 0
M  V30 29433 H 2775.6 1.15923 -2.2679 0
M  V30 29434 H 2776.38 -0.0393894 -3.43277 0
M  V30 29435 N 2778.83 1.51088 0.448349 0
M  V30 29436 C 2779.76 1.67786 1.56143 0
M  V30 29437 C 2780.77 0.558737 1.52912 0
M  V30 29438 O 2781.96 0.832698 1.57887 0
M  V30 29439 C 2779.06 1.66721 2.95055 0
M  V30 29440 C 2778.23 2.95039 3.2291 0
M  V30 29441 C 2777.29 2.8631 4.41489 0
M  V30 29442 O 2776.32 3.60261 4.40682 0
M  V30 29443 N 2777.52 2.0141 5.4444 0
M  V30 29444 H 2780.29 2.63802 1.42227 0
M  V30 29445 H 2777.85 1.48836 0.637127 0
M  V30 29446 H 2779.84 1.58464 3.72386 0
M  V30 29447 H 2778.41 0.783456 3.02623 0
M  V30 29448 H 2777.63 3.17249 2.3398 0
M  V30 29449 H 2778.92 3.80002 3.38343 0
M  V30 29450 H 2778.32 1.40683 5.47928 0
M  V30 29451 H 2776.87 1.9904 6.20666 0
M  V30 29452 N 2780.31 -0.703068 1.41049 0
M  V30 29453 C 2781.72 -1.28271 1.35659 0
M  V30 29454 C 2782.07 -1.96167 0.0360654 0
M  V30 29455 O 2781.19 -1.98325 -0.865799 0
M  V30 29456 C 2781.79 -2.33262 2.45711 0
M  V30 29457 C 2780.35 -2.86821 2.43743 0
M  V30 29458 C 2779.49 -1.60763 2.25944 0
M  V30 29459 H 2782.45 -0.498333 1.50673 0
M  V30 29460 H 2782.47 -3.14387 2.14338 0
M  V30 29461 H 2781.98 -1.83818 3.41808 0
M  V30 29462 H 2780.08 -3.40462 1.51381 0
M  V30 29463 H 2780.19 -3.37762 3.39785 0
M  V30 29464 H 2778.56 -1.86295 1.73685 0
M  V30 29465 H 2779.34 -1.13325 3.24056 0
M  V30 29466 N 2781.78 -1.26752 -0.936569 0
M  V30 29467 C 2782.73 -1.05374 -2.02189 0
M  V30 29468 C 2783.72 0.0153829 -1.60893 0
M  V30 29469 O 2784.91 -0.202116 -1.75842 0
M  V30 29470 C 2782.04 -0.6936 -3.3622 0
M  V30 29471 C 2781.13 -1.80042 -3.83987 0
M  V30 29472 N 2781.52 -3.0386 -4.04355 0
M  V30 29473 C 2779.81 -1.68507 -4.12942 0
M  V30 29474 C 2780.52 -3.75826 -4.43993 0
M  V30 29475 N 2779.49 -3.03539 -4.5096 0
M  V30 29476 H 2783.29 -1.99351 -2.15955 0
M  V30 29477 H 2780.81 -1.17337 -1.12275 0
M  V30 29478 H 2782.8 -0.521586 -4.13624 0
M  V30 29479 H 2781.46 0.238636 -3.23822 0
M  V30 29480 H 2782.48 -3.39716 -3.90914 0
M  V30 29481 H 2779.15 -0.823058 -4.09307 0
M  V30 29482 H 2780.54 -4.82197 -4.67905 0
M  V30 29483 N 2783.26 1.1418 -1.08631 0
M  V30 29484 C 2784.49 1.8967 -0.839054 0
M  V30 29485 C 2784.91 1.78163 0.603301 0
M  V30 29486 O 2784.27 1.12342 1.42299 0
M  V30 29487 C 2784.32 3.37548 -1.2686 0
M  V30 29488 O 2783.42 4.10236 -0.421952 0
M  V30 29489 H 2782.76 0.590036 -0.304556 0
M  V30 29490 H 2785.29 1.44515 -1.44833 0
M  V30 29491 H 2785.3 3.88366 -1.25045 0
M  V30 29492 H 2783.98 3.45242 -2.31907 0
M  V30 29493 H 2782.56 3.69482 -0.503719 0
M  V30 29494 N 2784.74 0.872304 1.31258 0
M  V30 29495 C 2786.15 0.536649 1.78821 0
M  V30 29496 C 2786.5 -0.946564 1.71856 0
M  V30 29497 O 2785.63 -1.73916 1.28772 0
M  V30 29498 C 2786.22 0.967352 3.24696 0
M  V30 29499 C 2784.78 0.683316 3.70146 0
M  V30 29500 C 2783.93 1.15737 2.51992 0
M  V30 29501 H 2786.88 1.05779 1.18307 0
M  V30 29502 H 2786.9 0.290996 3.79386 0
M  V30 29503 H 2786.41 2.04689 3.29733 0
M  V30 29504 H 2784.51 -0.38476 3.70608 0
M  V30 29505 H 2784.63 1.26198 4.62181 0
M  V30 29506 H 2782.99 0.577067 2.48077 0
M  V30 29507 H 2783.77 2.24438 2.59774 0
M  V30 29508 N 2786.22 -1.44374 0.631976 0
M  V30 29509 C 2787.15 -2.33425 -0.0592832 0
M  V30 29510 C 2788.13 -1.48255 -0.833938 0
M  V30 29511 O 2789.31 -1.76972 -0.799651 0
M  V30 29512 C 2786.44 -3.31334 -1.0409 0
M  V30 29513 C 2785.4 -4.26329 -0.377824 0
M  V30 29514 C 2784.72 -5.14113 -1.46941 0
M  V30 29515 C 2786.02 -5.17363 0.716462 0
M  V30 29516 H 2787.72 -2.91474 0.684338 0
M  V30 29517 H 2785.26 -1.40155 0.330542 0
M  V30 29518 H 2787.22 -3.92517 -1.53324 0
M  V30 29519 H 2785.94 -2.71496 -1.81542 0
M  V30 29520 H 2784.6 -3.6648 0.0938698 0
M  V30 29521 H 2784.25 -4.50627 -2.23482 0
M  V30 29522 H 2783.95 -5.78482 -1.03111 0
M  V30 29523 H 2785.47 -5.78168 -1.96353 0
M  V30 29524 H 2786.89 -5.72476 0.307189 0
M  V30 29525 H 2785.28 -5.90339 1.07795 0
M  V30 29526 H 2786.35 -4.58325 1.58324 0
M  V30 29527 N 2787.7 -0.372575 -1.53133 0
M  V30 29528 C 2788.94 0.214499 -2.00958 0
M  V30 29529 C 2789.27 1.48709 -1.26138 0
M  V30 29530 O 2788.54 1.92245 -0.37663 0
M  V30 29531 H 2787.12 0.0822534 -0.742458 0
M  V30 29532 H 2789.78 -0.500418 -1.88366 0
M  V30 29533 H 2788.87 0.43655 -3.09032 0
M  V30 29534 N 2789.17 1.5727 -0.101929 0
M  V30 29535 C 2790.4 1.99364 0.571724 0
M  V30 29536 C 2790.82 0.980796 1.60505 0
M  V30 29537 O 2790.18 -0.0498199 1.81232 0
M  V30 29538 C 2790.23 3.40402 1.1899 0
M  V30 29539 O 2789.33 3.41926 2.30566 0
M  V30 29540 H 2788.68 0.6481 0.144437 0
M  V30 29541 H 2791.21 2.03759 -0.185361 0
M  V30 29542 H 2791.22 3.78244 1.52955 0
M  V30 29543 H 2789.89 4.13641 0.432911 0
M  V30 29544 H 2788.47 3.15886 1.98167 0
M  V30 29545 N 2790.65 -0.171793 1.56661 0
M  V30 29546 C 2792.06 -0.734299 1.71654 0
M  V30 29547 C 2792.41 -1.82811 0.712367 0
M  V30 29548 O 2791.54 -2.16031 -0.126363 0
M  V30 29549 C 2792.13 -1.33874 3.11228 0
M  V30 29550 C 2790.69 -1.84808 3.27907 0
M  V30 29551 C 2789.84 -0.72687 2.67604 0
M  V30 29552 H 2792.79 0.0535944 1.58609 0
M  V30 29553 H 2792.81 -2.20843 3.09853 0
M  V30 29554 H 2792.32 -0.542423 3.84291 0
M  V30 29555 H 2790.43 -2.67085 2.59801 0
M  V30 29556 H 2790.54 -1.99384 4.35641 0
M  V30 29557 H 2788.9 -1.14719 2.27402 0
M  V30 29558 H 2789.69 0.0575937 3.43252 0
M  V30 29559 N 2792.13 -1.51324 -0.44033 0
M  V30 29560 C 2793.38 -1.63844 -1.19002 0
M  V30 29561 C 2793.71 -0.353244 -1.91265 0
M  V30 29562 O 2792.96 0.662532 -1.84144 0
M  V30 29563 C 2793.26 -2.78988 -2.23385 0
M  V30 29564 C 2792.93 -4.18372 -1.68155 0
M  V30 29565 C 2791.59 -4.56291 -1.52815 0
M  V30 29566 C 2793.94 -5.05361 -1.27515 0
M  V30 29567 C 2791.27 -5.78907 -0.953055 0
M  V30 29568 C 2793.62 -6.28554 -0.714364 0
M  V30 29569 C 2792.28 -6.65248 -0.547844 0
M  V30 29570 H 2791.55 -0.599548 -0.435458 0
M  V30 29571 H 2794.2 -1.85348 -0.481505 0
M  V30 29572 H 2792.51 -2.51694 -3.00263 0
M  V30 29573 H 2794.2 -2.85874 -2.81206 0
M  V30 29574 H 2790.79 -3.88474 -1.8107 0
M  V30 29575 H 2794.98 -4.76674 -1.38188 0
M  V30 29576 H 2790.23 -6.05987 -0.811775 0
M  V30 29577 H 2794.41 -6.95302 -0.390937 0
M  V30 29578 H 2792.03 -7.60134 -0.100088 0
M  V30 29579 N 2793.61 0.695578 -1.41419 0
M  V30 29580 C 2794.54 1.82195 -1.46039 0
M  V30 29581 C 2795.52 1.67081 -0.319054 0
M  V30 29582 O 2796.7 1.86814 -0.530495 0
M  V30 29583 C 2793.83 3.20331 -1.34184 0
M  V30 29584 C 2792.79 3.50149 -2.46129 0
M  V30 29585 C 2792.11 4.87641 -2.1934 0
M  V30 29586 C 2793.41 3.49126 -3.88469 0
M  V30 29587 H 2795.11 1.78587 -2.40306 0
M  V30 29588 H 2792.65 0.857777 -1.15664 0
M  V30 29589 H 2794.61 3.98841 -1.36028 0
M  V30 29590 H 2793.33 3.24565 -0.364009 0
M  V30 29591 H 2791.99 2.7399 -2.43568 0
M  V30 29592 H 2791.64 4.88501 -1.199 0
M  V30 29593 H 2791.34 5.08557 -2.94353 0
M  V30 29594 H 2792.86 5.68461 -2.22899 0
M  V30 29595 H 2794.28 4.17641 -3.92745 0
M  V30 29596 H 2792.67 3.81574 -4.63164 0
M  V30 29597 H 2793.74 2.48102 -4.16622 0
M  V30 29598 N 2795.09 1.27247 0.929833 0
M  V30 29599 C 2796.33 1.14637 1.68018 0
M  V30 29600 C 2796.69 -0.305118 1.89965 0
M  V30 29601 O 2795.98 -1.21999 1.47739 0
M  V30 29602 C 2796.18 1.8612 3.05113 0
M  V30 29603 C 2796 3.38071 2.96543 0
M  V30 29604 C 2794.77 4.07385 2.9894 0
M  V30 29605 C 2796.97 4.34082 2.75822 0
M  V30 29606 N 2794.95 5.45922 2.80789 0
M  V30 29607 C 2796.33 5.59871 2.66354 0
M  V30 29608 C 2798.38 4.24197 2.60693 0
M  V30 29609 C 2797.08 6.76903 2.43301 0
M  V30 29610 C 2799.11 5.40948 2.39017 0
M  V30 29611 C 2798.47 6.65692 2.3029 0
M  V30 29612 H 2794.57 0.47434 0.621712 0
M  V30 29613 H 2797.15 1.60687 1.09945 0
M  V30 29614 H 2795.33 1.42529 3.61303 0
M  V30 29615 H 2797.06 1.66033 3.69073 0
M  V30 29616 H 2793.81 3.58835 3.09087 0
M  V30 29617 H 2794.24 6.18697 2.7485 0
M  V30 29618 H 2798.88 3.28477 2.662 0
M  V30 29619 H 2796.6 7.72708 2.36534 0
M  V30 29620 H 2800.18 5.35179 2.28199 0
M  V30 29621 H 2799.06 7.54509 2.13742 0
M  V30 29622 N 2796.57 -1.13603 1.09235 0
M  V30 29623 C 2797.98 -1.66388 0.846868 0
M  V30 29624 C 2798.33 -1.85979 -0.624998 0
M  V30 29625 O 2797.45 -1.57716 -1.48171 0
M  V30 29626 C 2798.05 -3.02247 1.53075 0
M  V30 29627 C 2796.61 -3.52032 1.3323 0
M  V30 29628 C 2795.75 -2.2732 1.5881 0
M  V30 29629 H 2798.7 -0.975519 1.25177 0
M  V30 29630 H 2798.73 -3.68119 0.962735 0
M  V30 29631 H 2798.24 -2.87957 2.60197 0
M  V30 29632 H 2796.34 -3.7153 0.282156 0
M  V30 29633 H 2796.45 -4.32276 2.06578 0
M  V30 29634 H 2794.82 -2.33814 1.01011 0
M  V30 29635 H 2795.6 -2.15597 2.67157 0
M  V30 29636 N 2798.04 -0.879253 -1.30793 0
M  V30 29637 C 2799.29 -0.493843 -1.95973 0
M  V30 29638 C 2799.61 0.958991 -1.69789 0
M  V30 29639 O 2798.88 1.67351 -1.01835 0
M  V30 29640 H 2797.46 -0.179635 -0.72508 0
M  V30 29641 H 2800.12 -1.12108 -1.5943 0
M  V30 29642 H 2799.22 -0.659316 -3.05056 0
M  V30 29643 N 2799.52 1.44037 -0.639624 0
M  V30 29644 C 2800.77 2.02261 -0.147734 0
M  V30 29645 C 2801.1 1.50258 1.23029 0
M  V30 29646 O 2800.38 0.6901 1.81846 0
M  V30 29647 C 2800.66 3.59813 -0.143683 0
M  V30 29648 C 2800.51 4.22079 -1.55465 0
M  V30 29649 C 2801.83 4.3693 0.52724 0
M  V30 29650 H 2798.95 0.734933 -0.0551582 0
M  V30 29651 H 2801.59 1.71503 -0.817718 0
M  V30 29652 H 2799.74 3.86148 0.42683 0
M  V30 29653 H 2801.41 4.06822 -2.17471 0
M  V30 29654 H 2799.66 3.79249 -2.10601 0
M  V30 29655 H 2800.33 5.31122 -1.50378 0
M  V30 29656 H 2802.8 4.16079 0.0419772 0
M  V30 29657 H 2801.68 5.46624 0.499293 0
M  V30 29658 H 2801.94 4.12168 1.59907 0
M  V30 29659 N 2801 0.380691 1.52933 0
M  V30 29660 C 2801.91 -0.466152 2.29922 0
M  V30 29661 C 2802.93 -1.0792 1.36489 0
M  V30 29662 O 2804.1 -1.08687 1.69555 0
M  V30 29663 C 2801.17 -1.58261 3.08471 0
M  V30 29664 C 2800.23 -0.995553 4.17597 0
M  V30 29665 C 2799.46 -2.0588 4.92391 0
M  V30 29666 O 2799.68 -3.27246 4.6719 0
M  V30 29667 O 2798.62 -1.68092 5.77952 0
M  V30 29668 H 2802.44 0.160788 3.03274 0
M  V30 29669 H 2800.03 0.144643 1.48698 0
M  V30 29670 H 2801.91 -2.23139 3.57473 0
M  V30 29671 H 2800.59 -2.19467 2.37941 0
M  V30 29672 H 2799.49 -0.310266 3.72811 0
M  V30 29673 H 2800.83 -0.427831 4.90337 0
M  V30 29674 N 2802.48 -1.57214 0.110268 0
M  V30 29675 C 2803.73 -1.94507 -0.548749 0
M  V30 29676 C 2804.05 -0.993889 -1.6777 0
M  V30 29677 O 2803.32 -0.0486185 -1.9584 0
M  V30 29678 H 2801.9 -0.718119 -0.205702 0
M  V30 29679 H 2804.56 -1.94093 0.177161 0
M  V30 29680 H 2803.65 -2.97321 -0.949043 0
M  V30 29681 N 2803.96 0.163482 -1.5675 0
M  V30 29682 C 2805.37 0.725185 -1.72041 0
M  V30 29683 C 2805.72 1.8243 -0.722052 0
M  V30 29684 O 2804.84 2.16095 0.114904 0
M  V30 29685 C 2805.44 1.32222 -3.11934 0
M  V30 29686 C 2804 1.83066 -3.28883 0
M  V30 29687 C 2803.14 0.712668 -2.67986 0
M  V30 29688 H 2806.09 -0.0620051 -1.58579 0
M  V30 29689 H 2806.12 2.19197 -3.11019 0
M  V30 29690 H 2805.63 0.522035 -3.84573 0
M  V30 29691 H 2803.73 2.65703 -2.61213 0
M  V30 29692 H 2803.84 1.97071 -4.36692 0
M  V30 29693 H 2802.21 1.13511 -2.28007 0
M  V30 29694 H 2802.99 -0.0757964 -3.43216 0
M  V30 29695 N 2805.43 1.51555 0.432299 0
M  V30 29696 C 2806.71 1.55017 1.19285 0
M  V30 29697 C 2807.09 0.317412 2.087 0
M  V30 29698 O 2806.44 -0.697204 2.17604 0
M  V30 29699 C 2806.65 2.86683 1.99032 0
M  V30 29700 C 2808 3.38822 2.55901 0
M  V30 29701 O 2809.02 2.88267 2.09238 0
M  V30 29702 O 2807.88 4.27044 3.41021 0
M  V30 29703 H 2804.97 0.623451 0.543358 0
M  V30 29704 H 2807.52 1.63871 0.440959 0
M  V30 29705 H 2806.29 3.67862 1.3339 0
M  V30 29706 H 2805.91 2.81015 2.81276 0
M  V30 29707 N 2806.91 -0.688069 1.41786 0
M  V30 29708 C 2808.14 -1.48172 1.4512 0
M  V30 29709 C 2808.56 -1.88004 0.0601621 0
M  V30 29710 O 2807.92 -1.55128 -0.938357 0
M  V30 29711 C 2807.97 -2.71579 2.37229 0
M  V30 29712 O 2807.07 -3.69351 1.8345 0
M  V30 29713 H 2806.41 -0.445667 0.492216 0
M  V30 29714 H 2808.94 -0.845112 1.8633 0
M  V30 29715 H 2808.95 -3.19802 2.53359 0
M  V30 29716 H 2807.63 -2.41926 3.38297 0
M  V30 29717 H 2806.2 -3.28319 1.76808 0
M  V30 29718 N 2808.39 -1.27739 -0.923072 0
M  V30 29719 C 2809.8 -1.12995 -1.48624 0
M  V30 29720 C 2810.15 0.283405 -1.94142 0
M  V30 29721 O 2809.28 1.17678 -1.81607 0
M  V30 29722 C 2809.87 -2.0451 -2.70113 0
M  V30 29723 C 2808.43 -1.93858 -3.22639 0
M  V30 29724 C 2807.58 -1.96795 -1.95364 0
M  V30 29725 H 2810.53 -1.40564 -0.736712 0
M  V30 29726 H 2810.55 -1.60362 -3.45057 0
M  V30 29727 H 2810.06 -3.07368 -2.36953 0
M  V30 29728 H 2808.16 -0.940032 -3.60547 0
M  V30 29729 H 2808.28 -2.80338 -3.8852 0
M  V30 29730 H 2806.64 -1.41079 -2.12058 0
M  V30 29731 H 2807.42 -3.01315 -1.64512 0
M  V30 29732 N 2809.87 1.13022 -1.09836 0
M  V30 29733 C 2811.15 1.80681 -0.749257 0
M  V30 29734 C 2811.53 1.96746 0.765137 0
M  V30 29735 O 2810.87 1.53889 1.6891 0
M  V30 29736 C 2811.08 3.15445 -1.49316 0
M  V30 29737 C 2812.43 3.90734 -1.66169 0
M  V30 29738 O 2813.46 3.25082 -1.45603 0
M  V30 29739 O 2812.31 5.08502 -2.0022 0
M  V30 29740 H 2809.41 0.781812 -0.269628 0
M  V30 29741 H 2811.95 1.19912 -1.2008 0
M  V30 29742 H 2810.73 2.99005 -2.52412 0
M  V30 29743 H 2810.35 3.83918 -1.03407 0
M  V30 29744 N 2811.35 0.886177 1.30325 0
M  V30 29745 C 2812.57 0.51946 2.00789 0
M  V30 29746 C 2813 -0.884984 1.65981 0
M  V30 29747 O 2812.35 -1.58673 0.877071 0
M  V30 29748 C 2812.4 0.70282 3.53685 0
M  V30 29749 O 2811.51 -0.250756 4.11637 0
M  V30 29750 H 2810.85 0.204555 0.631707 0
M  V30 29751 H 2813.38 1.19405 1.66143 0
M  V30 29752 H 2813.39 0.602278 4.0353 0
M  V30 29753 H 2812.06 1.7268 3.78357 0
M  V30 29754 H 2810.64 -0.103807 3.72755 0
M  V30 29755 N 2812.82 -1.43695 0.647253 0
M  V30 29756 C 2814.24 -1.85168 0.238722 0
M  V30 29757 C 2814.59 -1.54177 -1.21342 0
M  V30 29758 O 2813.71 -0.987777 -1.92541 0
M  V30 29759 C 2814.31 -3.36105 0.426481 0
M  V30 29760 C 2812.87 -3.76331 0.0723202 0
M  V30 29761 C 2812.01 -2.67459 0.7322 0
M  V30 29762 H 2814.96 -1.33933 0.851333 0
M  V30 29763 H 2814.98 -3.79068 -0.329803 0
M  V30 29764 H 2814.5 -3.5863 1.48346 0
M  V30 29765 H 2812.6 -3.59419 -0.982292 0
M  V30 29766 H 2812.71 -4.7655 0.493625 0
M  V30 29767 H 2811.07 -2.54159 0.165984 0
M  V30 29768 H 2811.86 -2.92812 1.79209 0
M  V30 29769 N 2814.3 -0.388796 -1.52729 0
M  V30 29770 C 2815.25 0.446599 -2.26438 0
M  V30 29771 C 2816.22 1.05822 -1.28027 0
M  V30 29772 O 2817.4 1.08634 -1.56854 0
M  V30 29773 C 2814.54 1.56823 -3.0741 0
M  V30 29774 C 2813.66 0.979515 -4.20749 0
M  V30 29775 C 2812.79 2.07216 -4.89117 0
M  V30 29776 C 2811.83 1.45931 -5.9445 0
M  V30 29777 N 2810.97 2.49124 -6.56416 0
M  V30 29778 H 2815.81 -0.188422 -2.97404 0
M  V30 29779 H 2813.35 -0.104751 -1.46727 0
M  V30 29780 H 2815.3 2.22927 -3.52646 0
M  V30 29781 H 2813.93 2.17357 -2.38654 0
M  V30 29782 H 2812.99 0.208085 -3.7983 0
M  V30 29783 H 2814.3 0.49166 -4.96371 0
M  V30 29784 H 2813.45 2.81091 -5.37655 0
M  V30 29785 H 2812.19 2.59361 -4.13017 0
M  V30 29786 H 2811.2 0.705798 -5.45251 0
M  V30 29787 H 2812.42 0.945814 -6.72481 0
M  V30 29788 H 2810.37 3.00439 -5.83157 0
M  V30 29789 H 2810.28 2.05092 -7.27649 0
M  V30 29790 H 2811.55 3.22631 -7.09598 0
M  V30 29791 N 2815.78 1.57153 -0.118604 0
M  V30 29792 C 2817.19 1.82213 0.406838 0
M  V30 29793 C 2817.54 1.03574 1.66634 0
M  V30 29794 O 2816.67 0.272209 2.14681 0
M  V30 29795 C 2817.26 3.3051 0.744891 0
M  V30 29796 C 2815.82 3.56252 1.21497 0
M  V30 29797 C 2814.97 2.76398 0.223462 0
M  V30 29798 H 2817.92 1.54933 -0.34374 0
M  V30 29799 H 2817.94 3.45117 1.60234 0
M  V30 29800 H 2817.45 3.87719 -0.171979 0
M  V30 29801 H 2815.55 3.044 2.14875 0
M  V30 29802 H 2815.67 4.64831 1.16057 0
M  V30 29803 H 2814.03 2.44592 0.710417 0
M  V30 29804 H 2814.81 3.36366 -0.686498 0
M  V30 29805 N 2817.26 -0.155167 1.56834 0
M  V30 29806 C 2818.51 -0.86743 1.82538 0
M  V30 29807 C 2818.83 -1.82072 0.6982 0
M  V30 29808 O 2818.1 -1.93877 -0.280773 0
M  V30 29809 H 2816.68 -0.323315 0.673407 0
M  V30 29810 H 2819.34 -0.151122 1.94313 0
M  V30 29811 H 2818.44 -1.43461 2.77174 0
M  V30 29812 N 2818.74 -1.51782 -0.424256 0
M  V30 29813 C 2819.7 -1.73434 -1.49845 0
M  V30 29814 C 2820.7 -0.604251 -1.49015 0
M  V30 29815 O 2821.89 -0.871962 -1.50806 0
M  V30 29816 C 2819.02 -1.80282 -2.89329 0
M  V30 29817 H 2820.21 -2.69315 -1.31946 0
M  V30 29818 H 2817.77 -1.4197 -0.653784 0
M  V30 29819 H 2818.5 -0.862623 -3.12617 0
M  V30 29820 H 2818.29 -2.62424 -2.91335 0
M  V30 29821 H 2819.78 -1.98827 -3.67229 0
M  V30 29822 N 2820.21 0.68054 -1.42149 0
M  V30 29823 C 2821.14 1.80636 -1.47963 0
M  V30 29824 C 2822.13 1.66733 -0.336757 0
M  V30 29825 O 2823.31 1.86241 -0.550279 0
M  V30 29826 C 2820.44 3.1889 -1.37574 0
M  V30 29827 C 2819.39 3.47519 -2.49829 0
M  V30 29828 C 2818.72 4.85287 -2.245 0
M  V30 29829 C 2820.02 3.44987 -3.9215 0
M  V30 29830 H 2821.71 1.76028 -2.42187 0
M  V30 29831 H 2819.26 0.845461 -1.16567 0
M  V30 29832 H 2821.21 3.97376 -1.4025 0
M  V30 29833 H 2819.94 3.24161 -0.398413 0
M  V30 29834 H 2818.6 2.71391 -2.4646 0
M  V30 29835 H 2818.24 4.87202 -1.25074 0
M  V30 29836 H 2817.94 5.05406 -2.99731 0
M  V30 29837 H 2819.47 5.66065 -2.28916 0
M  V30 29838 H 2820.88 4.13452 -3.97153 0
M  V30 29839 H 2819.28 3.7664 -4.67186 0
M  V30 29840 H 2820.35 2.43669 -4.1923 0
M  V30 29841 N 2821.69 1.28226 0.916285 0
M  V30 29842 C 2822.64 1.08578 2.00487 0
M  V30 29843 C 2823.63 0.0102157 1.60897 0
M  V30 29844 O 2824.82 0.230065 1.75498 0
M  V30 29845 C 2821.95 0.747002 3.35074 0
M  V30 29846 C 2821.03 1.86128 3.81074 0
M  V30 29847 N 2821.42 3.10254 3.9947 0
M  V30 29848 C 2819.72 1.75055 4.10209 0
M  V30 29849 C 2820.42 3.82842 4.37958 0
M  V30 29850 N 2819.4 3.10675 4.46074 0
M  V30 29851 H 2823.2 2.02761 2.12756 0
M  V30 29852 H 2820.72 1.19108 1.10394 0
M  V30 29853 H 2822.71 0.587324 4.12742 0
M  V30 29854 H 2821.37 -0.187089 3.24161 0
M  V30 29855 H 2822.38 3.45892 3.8546 0
M  V30 29856 H 2819.06 0.888071 4.07946 0
M  V30 29857 H 2820.45 4.8958 4.60175 0
M  V30 29858 N 2823.17 -1.12438 1.10433 0
M  V30 29859 C 2824.58 -1.65481 0.864468 0
M  V30 29860 C 2824.93 -1.86631 -0.605237 0
M  V30 29861 O 2824.06 -1.59279 -1.46489 0
M  V30 29862 C 2824.65 -3.00607 1.56272 0
M  V30 29863 C 2823.21 -3.506 1.36956 0
M  V30 29864 C 2822.36 -2.25623 1.61213 0
M  V30 29865 H 2825.31 -0.962187 1.26205 0
M  V30 29866 H 2825.33 -3.67077 1.00172 0
M  V30 29867 H 2824.84 -2.85181 2.63237 0
M  V30 29868 H 2822.94 -3.7121 0.321546 0
M  V30 29869 H 2823.06 -4.30061 2.11151 0
M  V30 29870 H 2821.42 -2.32729 1.03486 0
M  V30 29871 H 2822.2 -2.12751 2.69429 0
M  V30 29872 N 2824.65 -0.893076 -1.29853 0
M  V30 29873 C 2825.61 -0.370727 -2.26182 0
M  V30 29874 C 2826.61 0.491358 -1.53109 0
M  V30 29875 O 2827.8 0.297356 -1.71643 0
M  V30 29876 C 2824.93 0.470768 -3.37634 0
M  V30 29877 H 2826.13 -1.2214 -2.73901 0
M  V30 29878 H 2823.68 -0.670635 -1.41181 0
M  V30 29879 H 2824.42 1.3417 -2.95244 0
M  V30 29880 H 2824.2 -0.146853 -3.91825 0
M  V30 29881 H 2825.69 0.827753 -4.09314 0
M  V30 29882 N 2826.13 1.4335 -0.654865 0
M  V30 29883 C 2827.09 2.29185 0.0263159 0
M  V30 29884 C 2828.09 1.42295 0.748926 0
M  V30 29885 O 2829.28 1.63907 0.589929 0
M  V30 29886 C 2826.41 3.24391 1.048 0
M  V30 29887 H 2827.61 2.90906 -0.728934 0
M  V30 29888 H 2825.16 1.50657 -0.416175 0
M  V30 29889 H 2825.89 2.67568 1.83243 0
M  V30 29890 H 2825.68 3.88454 0.533486 0
M  V30 29891 H 2827.17 3.88812 1.52365 0
M  V30 29892 N 2827.61 0.39689 1.52521 0
M  V30 29893 C 2828.56 -0.451682 2.23481 0
M  V30 29894 C 2829.54 -1.02348 1.24152 0
M  V30 29895 O 2830.73 -0.948322 1.49452 0
M  V30 29896 C 2827.86 -1.57439 3.0507 0
M  V30 29897 C 2826.95 -1.01397 4.118 0
M  V30 29898 N 2827.34 -0.179145 5.05483 0
M  V30 29899 C 2825.64 -1.28571 4.27066 0
M  V30 29900 C 2826.34 0.131304 5.81552 0
M  V30 29901 N 2825.31 -0.47464 5.41524 0
M  V30 29902 H 2829.11 0.192585 2.93268 0
M  V30 29903 H 2826.63 0.206619 1.6108 0
M  V30 29904 H 2828.63 -2.19479 3.5445 0
M  V30 29905 H 2827.29 -2.22141 2.3682 0
M  V30 29906 H 2828.3 0.184201 5.17572 0
M  V30 29907 H 2824.97 -1.93321 3.70045 0
M  V30 29908 H 2826.36 0.808178 6.67022 0
M  V30 29909 N 2829.08 -1.57088 0.126936 0
M  V30 29910 C 2830.05 -2.14558 -0.806059 0
M  V30 29911 C 2831.05 -1.08239 -1.18916 0
M  V30 29912 O 2832.24 -1.33977 -1.11337 0
M  V30 29913 C 2829.37 -2.69231 -2.09111 0
M  V30 29914 H 2830.56 -2.9833 -0.306469 0
M  V30 29915 H 2828.11 -1.5582 -0.122366 0
M  V30 29916 H 2828.85 -1.8907 -2.63483 0
M  V30 29917 H 2828.63 -3.46996 -1.82581 0
M  V30 29918 H 2830.12 -3.13577 -2.75789 0
M  V30 29919 N 2830.56 0.146848 -1.56914 0
M  V30 29920 C 2831.98 0.499492 -1.51582 0
M  V30 29921 C 2832.18 1.83367 -0.835383 0
M  V30 29922 O 2831.23 2.49215 -0.405976 0
M  V30 29923 C 2832.55 0.509659 -2.96349 0
M  V30 29924 C 2834.09 0.595163 -3.07289 0
M  V30 29925 C 2834.57 0.635991 -4.53563 0
M  V30 29926 N 2836.06 0.69821 -4.57907 0
M  V30 29927 C 2836.8 0.750786 -5.68464 0
M  V30 29928 N 2836.29 0.762699 -6.88589 0
M  V30 29929 N 2838.08 0.791679 -5.56497 0
M  V30 29930 H 2830.24 -0.727691 -1.99546 0
M  V30 29931 H 2832.5 -0.265343 -0.910108 0
M  V30 29932 H 2832.2 -0.402471 -3.4939 0
M  V30 29933 H 2832.08 1.34752 -3.52309 0
M  V30 29934 H 2834.47 1.49771 -2.54269 0
M  V30 29935 H 2834.55 -0.269845 -2.54373 0
M  V30 29936 H 2834.19 -0.262402 -5.07222 0
M  V30 29937 H 2834.12 1.51749 -5.04262 0
M  V30 29938 H 2836.61 0.696296 -3.7143 0
M  V30 29939 H 2836.92 0.804669 -7.68599 0
M  V30 29940 H 2835.27 0.730573 -6.9115 0
M  V30 29941 H 2838.46 0.779543 -4.61563 0
M  V30 29942 H 2838.63 0.829188 -6.42673 0
M  V30 29943 N 2832.04 1.52005 0.4162 0
M  V30 29944 C 2833.26 1.69846 1.19026 0
M  V30 29945 C 2833.69 0.404136 1.83707 0
M  V30 29946 O 2833.05 -0.637757 1.69713 0
M  V30 29947 C 2833.1 2.83036 2.23434 0
M  V30 29948 O 2832.2 2.48112 3.29415 0
M  V30 29949 H 2831.54 0.56564 0.347775 0
M  V30 29950 H 2834.07 1.98674 0.488836 0
M  V30 29951 H 2834.08 3.07742 2.67879 0
M  V30 29952 H 2832.76 3.76947 1.75738 0
M  V30 29953 H 2831.33 2.34053 2.90299 0
M  V30 29954 N 2833.52 -0.672992 1.42508 0
M  V30 29955 C 2834.48 -1.76829 1.45823 0
M  V30 29956 C 2835.48 -1.57043 0.34557 0
M  V30 29957 O 2836.67 -1.63302 0.606476 0
M  V30 29958 C 2833.8 -3.15483 1.29163 0
M  V30 29959 H 2835 -1.75276 2.43348 0
M  V30 29960 H 2832.55 -0.882794 1.28982 0
M  V30 29961 H 2833.28 -3.2266 0.325683 0
M  V30 29962 H 2833.07 -3.31248 2.09803 0
M  V30 29963 H 2834.56 -3.95391 1.3437 0
M  V30 29964 N 2835 -1.2871 -0.909472 0
M  V30 29965 C 2836.22 -1.19093 -1.69798 0
M  V30 29966 C 2836.65 0.246355 -1.8648 0
M  V30 29967 O 2836 1.17812 -1.37804 0
M  V30 29968 C 2836.05 -1.89909 -3.0654 0
M  V30 29969 O 2835.16 -1.20947 -3.94266 0
M  V30 29970 H 2834.5 -0.413194 -0.519776 0
M  V30 29971 H 2837.03 -1.70108 -1.13686 0
M  V30 29972 H 2837.04 -1.97983 -3.56745 0
M  V30 29973 H 2835.71 -2.94454 -2.93717 0
M  V30 29974 H 2834.29 -1.21066 -3.527 0
M  V30 29975 N 2836.47 1.1185 -1.11028 0
M  V30 29976 C 2837.42 2.15866 -0.733874 0
M  V30 29977 C 2838.41 1.58786 0.259982 0
M  V30 29978 O 2839.6 1.7687 0.067759 0
M  V30 29979 C 2836.73 3.42859 -0.174008 0
M  V30 29980 C 2835.81 4.06908 -1.19527 0
M  V30 29981 N 2836.21 4.45877 -2.38805 0
M  V30 29982 C 2834.5 4.33772 -1.03722 0
M  V30 29983 C 2835.2 4.96002 -3.03903 0
M  V30 29984 N 2834.18 4.9189 -2.31397 0
M  V30 29985 H 2837.98 2.4377 -1.64175 0
M  V30 29986 H 2835.5 1.2882 -0.988899 0
M  V30 29987 H 2837.49 4.16745 0.113763 0
M  V30 29988 H 2836.15 3.16422 0.728513 0
M  V30 29989 H 2837.16 4.38047 -2.76289 0
M  V30 29990 H 2833.84 4.17064 -0.190767 0
M  V30 29991 H 2835.23 5.35819 -4.05398 0
M  V30 29992 N 2837.95 0.89995 1.29378 0
M  V30 29993 C 2839.2 0.525997 1.95549 0
M  V30 29994 C 2839.53 -0.927759 1.70947 0
M  V30 29995 O 2838.78 -1.67291 1.01548 0
M  V30 29996 C 2839.08 0.765175 3.49113 0
M  V30 29997 C 2838.75 2.19633 3.93792 0
M  V30 29998 C 2837.41 2.58765 4.05702 0
M  V30 29999 C 2839.76 3.1283 4.16877 0
M  V30 30000 C 2837.09 3.90274 4.38067 0
M  V30 30001 C 2839.44 4.43888 4.50717 0
M  V30 30002 C 2838.1 4.82893 4.60837 0
M  V30 30003 H 2837.37 0.192476 0.715566 0
M  V30 30004 H 2840.02 1.13865 1.5397 0
M  V30 30005 H 2838.33 0.0695998 3.91738 0
M  V30 30006 H 2840.02 0.455214 3.98408 0
M  V30 30007 H 2836.61 1.88263 3.85039 0
M  V30 30008 H 2840.8 2.83812 4.07142 0
M  V30 30009 H 2836.05 4.20215 4.44105 0
M  V30 30010 H 2840.23 5.16129 4.67529 0
M  V30 30011 H 2837.85 5.84832 4.85671 0
M  V30 30012 N 2839.43 -1.43001 0.662458 0
M  V30 30013 C 2840.66 -2.06564 0.186039 0
M  V30 30014 C 2841.08 -1.49381 -1.14311 0
M  V30 30015 O 2840.44 -0.607376 -1.70823 0
M  V30 30016 C 2840.49 -3.60406 0.118333 0
M  V30 30017 O 2839.59 -4.02081 -0.916788 0
M  V30 30018 H 2838.93 -0.656562 0.0991096 0
M  V30 30019 H 2841.46 -1.83349 0.90799 0
M  V30 30020 H 2841.47 -4.07953 -0.0619264 0
M  V30 30021 H 2840.15 -4.01401 1.08856 0
M  V30 30022 H 2838.72 -3.66106 -0.70857 0
M  V30 30023 N 2840.91 -0.404973 -1.52308 0
M  V30 30024 C 2841.84 0.41372 -2.29806 0
M  V30 30025 C 2842.82 1.04978 -1.33842 0
M  V30 30026 O 2844 1.05958 -1.62747 0
M  V30 30027 C 2841.13 1.53287 -3.11641 0
M  V30 30028 C 2840.09 1.02203 -4.15618 0
M  V30 30029 C 2839.41 2.23446 -4.85774 0
M  V30 30030 C 2840.71 0.0789807 -5.2224 0
M  V30 30031 H 2842.41 -0.23293 -2.98493 0
M  V30 30032 H 2839.95 -0.113466 -1.43552 0
M  V30 30033 H 2841.91 2.11256 -3.64622 0
M  V30 30034 H 2840.63 2.20734 -2.40716 0
M  V30 30035 H 2839.29 0.464776 -3.63642 0
M  V30 30036 H 2838.94 2.89438 -4.11381 0
M  V30 30037 H 2838.64 1.8992 -5.56061 0
M  V30 30038 H 2840.16 2.82029 -5.41565 0
M  V30 30039 H 2841.58 0.567338 -5.70486 0
M  V30 30040 H 2839.97 -0.167272 -5.99867 0
M  V30 30041 H 2841.04 -0.867531 -4.77076 0
M  V30 30042 N 2842.39 1.57018 -0.135265 0
M  V30 30043 C 2843.3 2.19721 0.822187 0
M  V30 30044 C 2844.31 1.17805 1.28055 0
M  V30 30045 O 2845.49 1.50338 1.34017 0
M  V30 30046 C 2842.55 2.79721 2.04835 0
M  V30 30047 C 2841.61 3.96725 1.64035 0
M  V30 30048 C 2840.85 4.53854 2.80806 0
M  V30 30049 O 2841.07 4.09867 3.96693 0
M  V30 30050 O 2840 5.44296 2.56953 0
M  V30 30051 H 2843.83 3.02025 0.318499 0
M  V30 30052 H 2841.42 1.49122 0.0911759 0
M  V30 30053 H 2843.3 3.17902 2.76616 0
M  V30 30054 H 2841.97 2.00437 2.54179 0
M  V30 30055 H 2840.88 3.63283 0.893119 0
M  V30 30056 H 2842.21 4.77494 1.19418 0
M  V30 30057 N 2843.86 -0.138524 1.5699 0
M  V30 30058 C 2844.81 -1.17616 1.95322 0
M  V30 30059 C 2845.8 -1.38106 0.82557 0
M  V30 30060 O 2846.99 -1.39526 1.08911 0
M  V30 30061 C 2844.12 -2.5077 2.34455 0
M  V30 30062 C 2843.21 -2.33837 3.53809 0
M  V30 30063 N 2843.6 -1.86676 4.70091 0
M  V30 30064 C 2841.89 -2.64561 3.59059 0
M  V30 30065 C 2842.6 -1.82989 5.52168 0
M  V30 30066 N 2841.57 -2.26616 4.94112 0
M  V30 30067 H 2845.37 -0.803759 2.82696 0
M  V30 30068 H 2842.89 -0.346492 1.58661 0
M  V30 30069 H 2844.88 -3.25793 2.60125 0
M  V30 30070 H 2843.54 -2.88785 1.48436 0
M  V30 30071 H 2844.56 -1.56514 4.93684 0
M  V30 30072 H 2841.23 -3.06393 2.83601 0
M  V30 30073 H 2842.62 -1.47946 6.5541 0
M  V30 30074 N 2845.34 -1.52224 -0.408133 0
M  V30 30075 C 2846.75 -1.58484 -0.986901 0
M  V30 30076 C 2847.1 -0.425951 -1.9152 0
M  V30 30077 O 2846.23 0.453556 -2.11594 0
M  V30 30078 C 2846.82 -2.87238 -1.79665 0
M  V30 30079 C 2845.38 -2.95974 -2.32543 0
M  V30 30080 C 2844.53 -2.5343 -1.12554 0
M  V30 30081 H 2847.48 -1.57579 -0.188334 0
M  V30 30082 H 2847.5 -2.72647 -2.65413 0
M  V30 30083 H 2847.01 -3.71565 -1.12076 0
M  V30 30084 H 2845.12 -2.16143 -3.03501 0
M  V30 30085 H 2845.23 -4.00236 -2.63341 0
M  V30 30086 H 2843.59 -2.07302 -1.4798 0
M  V30 30087 H 2844.38 -3.40132 -0.465291 0
M  V30 30088 N 2846.82 0.665425 -1.42863 0
M  V30 30089 C 2848.05 1.45346 -1.47248 0
M  V30 30090 C 2848.46 1.88601 -0.0866275 0
M  V30 30091 O 2847.82 1.58729 0.900624 0
M  V30 30092 C 2847.87 2.69646 -2.40777 0
M  V30 30093 O 2847.59 2.28203 -3.73972 0
M  V30 30094 C 2849.09 3.63121 -2.54279 0
M  V30 30095 H 2846.31 0.446918 -0.500505 0
M  V30 30096 H 2848.86 0.816838 -1.87478 0
M  V30 30097 H 2847.01 3.29476 -2.03775 0
M  V30 30098 H 2847.43 3.08539 -4.24151 0
M  V30 30099 H 2848.9 4.47037 -3.23823 0
M  V30 30100 H 2849.38 4.09653 -1.58371 0
M  V30 30101 H 2849.98 3.0918 -2.92041 0
M  V30 30102 N 2848.3 1.29191 0.902633 0
M  V30 30103 C 2849.58 1.07677 1.63295 0
M  V30 30104 C 2849.96 -0.3801 2.0765 0
M  V30 30105 O 2849.3 -1.36834 1.83 0
M  V30 30106 C 2849.51 2.06163 2.81599 0
M  V30 30107 C 2850.86 2.3692 3.52355 0
M  V30 30108 O 2851.89 2.04334 2.91763 0
M  V30 30109 O 2850.74 2.92584 4.61581 0
M  V30 30110 H 2847.84 0.412323 0.716881 0
M  V30 30111 H 2850.38 1.40552 0.950959 0
M  V30 30112 H 2849.16 3.04303 2.45998 0
M  V30 30113 H 2848.78 1.74 3.57505 0
M  V30 30114 N 2849.78 -1.1126 1.1162 0
M  V30 30115 C 2851.19 -1.35051 0.850492 0
M  V30 30116 C 2851.39 -1.94572 -0.523833 0
M  V30 30117 O 2850.45 -2.17988 -1.27427 0
M  V30 30118 C 2851.76 -2.28037 1.96009 0
M  V30 30119 C 2853.31 -2.41597 1.98998 0
M  V30 30120 C 2853.78 -3.37906 3.09166 0
M  V30 30121 N 2855.28 -3.4547 3.08553 0
M  V30 30122 C 2856.01 -4.19936 3.90437 0
M  V30 30123 N 2855.51 -4.97363 4.82288 0
M  V30 30124 N 2857.3 -4.15467 3.78607 0
M  V30 30125 H 2849.45 -0.709897 2.00185 0
M  V30 30126 H 2851.71 -0.375084 0.870641 0
M  V30 30127 H 2851.42 -1.91498 2.94994 0
M  V30 30128 H 2851.29 -3.28272 1.85788 0
M  V30 30129 H 2853.68 -2.7741 1.00638 0
M  V30 30130 H 2853.76 -1.41207 2.13294 0
M  V30 30131 H 2853.41 -3.0282 4.07753 0
M  V30 30132 H 2853.34 -4.38155 2.92109 0
M  V30 30133 H 2855.83 -2.90245 2.42005 0
M  V30 30134 H 2856.14 -5.51557 5.41299 0
M  V30 30135 H 2854.48 -4.96517 4.86309 0
M  V30 30136 H 2857.68 -3.54069 3.06191 0
M  V30 30137 H 2857.85 -4.73245 4.42655 0
M  V30 30138 N 2851.25 -0.906798 -1.28899 0
M  V30 30139 C 2852.19 -0.347199 -2.26555 0
M  V30 30140 C 2853.2 0.510463 -1.5459 0
M  V30 30141 O 2854.39 0.32647 -1.75489 0
M  V30 30142 C 2851.49 0.522965 -3.34841 0
M  V30 30143 C 2850.66 -0.310591 -4.36296 0
M  V30 30144 C 2849.72 0.493542 -5.2388 0
M  V30 30145 O 2848.75 -0.0914569 -5.69127 0
M  V30 30146 N 2849.95 1.79811 -5.5195 0
M  V30 30147 H 2852.71 -1.18657 -2.7521 0
M  V30 30148 H 2850.27 -0.772021 -1.42308 0
M  V30 30149 H 2852.27 1.06749 -3.90367 0
M  V30 30150 H 2850.84 1.26304 -2.85948 0
M  V30 30151 H 2850.06 -1.03651 -3.80329 0
M  V30 30152 H 2851.34 -0.881194 -5.01111 0
M  V30 30153 H 2850.74 2.29601 -5.1701 0
M  V30 30154 H 2849.3 2.28961 -6.10263 0
M  V30 30155 N 2852.73 1.42648 -0.670032 0
M  V30 30156 C 2853.66 2.335 -0.00262605 0
M  V30 30157 C 2854.64 1.50414 0.794337 0
M  V30 30158 O 2855.83 1.7903 0.752448 0
M  V30 30159 C 2852.96 3.33978 0.952689 0
M  V30 30160 C 2851.91 4.27181 0.264658 0
M  V30 30161 C 2851.24 5.17828 1.33258 0
M  V30 30162 C 2852.54 5.15281 -0.85338 0
M  V30 30163 H 2854.23 2.89557 -0.761377 0
M  V30 30164 H 2851.78 1.39229 -0.367586 0
M  V30 30165 H 2853.73 3.96444 1.42863 0
M  V30 30166 H 2852.46 2.76214 1.7428 0
M  V30 30167 H 2851.11 3.66102 -0.191002 0
M  V30 30168 H 2850.76 4.56394 2.11456 0
M  V30 30169 H 2850.46 5.81013 0.877374 0
M  V30 30170 H 2851.99 5.8317 1.80955 0
M  V30 30171 H 2853.4 5.71461 -0.458863 0
M  V30 30172 H 2851.8 5.87274 -1.23409 0
M  V30 30173 H 2852.87 4.53966 -1.7042 0
M  V30 30174 N 2854.21 0.413044 1.52091 0
M  V30 30175 C 2855.46 -0.161462 2.01855 0
M  V30 30176 C 2855.79 -1.4481 1.29848 0
M  V30 30177 O 2855.04 -1.91682 0.394505 0
M  V30 30178 C 2855.34 -0.452037 3.5453 0
M  V30 30179 C 2855.01 0.745866 4.44688 0
M  V30 30180 C 2853.67 1.07444 4.69051 0
M  V30 30181 C 2856.02 1.54613 4.97739 0
M  V30 30182 C 2853.35 2.20439 5.43713 0
M  V30 30183 C 2855.7 2.66688 5.73638 0
M  V30 30184 C 2854.36 3.00027 5.96272 0
M  V30 30185 H 2853.63 -0.0590831 0.738641 0
M  V30 30186 H 2856.28 0.555266 1.83273 0
M  V30 30187 H 2854.59 -1.25038 3.71312 0
M  V30 30188 H 2856.28 -0.909578 3.90548 0
M  V30 30189 H 2852.87 0.4798 4.25906 0
M  V30 30190 H 2857.06 1.30551 4.78822 0
M  V30 30191 H 2852.31 2.46612 5.59457 0
M  V30 30192 H 2856.49 3.29083 6.1374 0
M  V30 30193 H 2854.11 3.877 6.53906 0
M  V30 30194 N 2855.69 -1.56945 0.143591 0
M  V30 30195 C 2856.97 -1.87613 -0.553252 0
M  V30 30196 C 2857.35 -1.04898 -1.83193 0
M  V30 30197 O 2856.69 -0.134814 -2.28102 0
M  V30 30198 C 2856.9 -3.39182 -0.821996 0
M  V30 30199 C 2858.25 -4.08326 -1.16427 0
M  V30 30200 O 2859.28 -3.44341 -0.911461 0
M  V30 30201 O 2858.14 -5.21316 -1.63987 0
M  V30 30202 H 2855.23 -0.777494 -0.281838 0
M  V30 30203 H 2857.78 -1.68743 0.179946 0
M  V30 30204 H 2856.55 -3.91212 0.0830953 0
M  V30 30205 H 2856.17 -3.63567 -1.60949 0
M  V30 30206 N 2857.17 0.130197 -1.57061 0
M  V30 30207 C 2858.4 0.854423 -1.88434 0
M  V30 30208 C 2858.81 1.73963 -0.733639 0
M  V30 30209 O 2858.17 1.80084 0.295997 0
M  V30 30210 C 2858.22 1.69718 -3.19183 0
M  V30 30211 O 2857.94 0.847629 -4.29822 0
M  V30 30212 C 2859.44 2.52754 -3.64184 0
M  V30 30213 H 2856.66 0.24621 -0.624197 0
M  V30 30214 H 2859.2 0.117944 -2.0416 0
M  V30 30215 H 2857.36 2.38654 -3.05161 0
M  V30 30216 H 2857.77 1.42783 -5.04691 0
M  V30 30217 H 2859.25 3.07435 -4.58462 0
M  V30 30218 H 2859.72 3.29587 -2.90291 0
M  V30 30219 H 2860.33 1.8908 -3.80958 0
M  V30 30220 N 2858.65 1.52438 0.400055 0
M  V30 30221 C 2859.89 1.66168 1.14329 0
M  V30 30222 C 2860.21 0.402287 1.91418 0
M  V30 30223 O 2861.41 0.419534 2.68239 0
M  V30 30224 C 2859.87 2.93614 2.08132 0
M  V30 30225 C 2859.48 4.26693 1.36517 0
M  V30 30226 C 2861.22 3.16708 2.82659 0
M  V30 30227 C 2859.13 5.45255 2.29021 0
M  V30 30228 H 2858.06 0.619028 0.430489 0
M  V30 30229 H 2860.71 1.7893 0.406985 0
M  V30 30230 H 2859.09 2.74572 2.85353 0
M  V30 30231 H 2860.27 4.5625 0.645981 0
M  V30 30232 H 2858.58 4.09773 0.739948 0
M  V30 30233 H 2861.18 4.02466 3.5203 0
M  V30 30234 H 2861.52 2.31318 3.46118 0
M  V30 30235 H 2862.05 3.36265 2.12535 0
M  V30 30236 H 2858.79 6.3302 1.70194 0
M  V30 30237 H 2858.31 5.20025 2.98887 0
M  V30 30238 H 2859.99 5.78694 2.89349 0
M  V30 30239 N 2860.12 -0.657839 1.43214 0
M  V30 30240 C 2861.35 -1.45061 1.4823 0
M  V30 30241 C 2861.77 -1.87834 0.100027 0
M  V30 30242 O 2861.13 -1.57083 -0.905241 0
M  V30 30243 C 2861.18 -2.66486 2.42936 0
M  V30 30244 O 2860.28 -3.65376 1.91243 0
M  V30 30245 H 2859.62 -0.435126 0.501559 0
M  V30 30246 H 2862.15 -0.805398 1.88081 0
M  V30 30247 H 2862.16 -3.14356 2.60085 0
M  V30 30248 H 2860.84 -2.34695 3.43352 0
M  V30 30249 H 2859.42 -3.24495 1.83732 0
M  V30 30250 N 2861.6 -1.29668 -0.895769 0
M  V30 30251 C 2862.53 -1.17691 -2.01671 0
M  V30 30252 C 2863.51 -0.0701615 -1.69955 0
M  V30 30253 O 2864.7 -0.250322 -1.9258 0
M  V30 30254 C 2861.83 -0.85674 -3.36567 0
M  V30 30255 C 2860.78 -1.92024 -3.82506 0
M  V30 30256 C 2860.11 -1.45329 -5.14571 0
M  V30 30257 C 2861.41 -3.3297 -4.02403 0
M  V30 30258 H 2863.1 -2.11466 -2.11949 0
M  V30 30259 H 2860.65 -1.01809 -1.01838 0
M  V30 30260 H 2862.6 -0.759649 -4.14496 0
M  V30 30261 H 2861.32 0.116705 -3.26391 0
M  V30 30262 H 2859.98 -2.00678 -3.06796 0
M  V30 30263 H 2859.63 -0.468413 -5.00814 0
M  V30 30264 H 2859.33 -2.16456 -5.46279 0
M  V30 30265 H 2860.86 -1.36978 -5.95037 0
M  V30 30266 H 2862.27 -3.27136 -4.70803 0
M  V30 30267 H 2860.67 -4.02089 -4.45471 0
M  V30 30268 H 2861.74 -3.75658 -3.06609 0
M  V30 30269 N 2863.08 1.10667 -1.12208 0
M  V30 30270 C 2864.01 2.18996 -0.810124 0
M  V30 30271 C 2864.99 1.68605 0.225035 0
M  V30 30272 O 2866.18 1.94006 0.0867489 0
M  V30 30273 C 2863.31 3.46315 -0.261323 0
M  V30 30274 C 2862.26 4.09967 -1.22927 0
M  V30 30275 C 2861.59 5.31958 -0.540806 0
M  V30 30276 C 2862.89 4.53957 -2.58303 0
M  V30 30277 H 2864.58 2.45349 -1.71594 0
M  V30 30278 H 2862.13 1.17921 -0.826481 0
M  V30 30279 H 2864.08 4.21389 -0.0308262 0
M  V30 30280 H 2862.8 3.19446 0.679823 0
M  V30 30281 H 2861.46 3.36897 -1.44553 0
M  V30 30282 H 2861.11 5.01364 0.405404 0
M  V30 30283 H 2860.81 5.75497 -1.18647 0
M  V30 30284 H 2862.33 6.09765 -0.319291 0
M  V30 30285 H 2863.75 5.20315 -2.40718 0
M  V30 30286 H 2862.14 5.08337 -3.18925 0
M  V30 30287 H 2863.21 3.66997 -3.16925 0
M  V30 30288 N 2864.56 0.913621 1.28416 0
M  V30 30289 C 2865.81 0.542606 1.94264 0
M  V30 30290 C 2866.12 -0.918176 1.7271 0
M  V30 30291 O 2867.33 -1.39734 2.3278 0
M  V30 30292 C 2865.78 0.919568 3.47954 0
M  V30 30293 C 2865.39 2.40007 3.78287 0
M  V30 30294 C 2867.13 0.619131 4.19961 0
M  V30 30295 C 2865.04 2.71716 5.25285 0
M  V30 30296 H 2863.97 0.199205 0.727209 0
M  V30 30297 H 2866.62 1.11252 1.45929 0
M  V30 30298 H 2865 0.278442 3.9502 0
M  V30 30299 H 2866.18 3.08792 3.4203 0
M  V30 30300 H 2864.49 2.67095 3.19452 0
M  V30 30301 H 2867.09 0.832716 5.28176 0
M  V30 30302 H 2867.43 -0.443053 4.13936 0
M  V30 30303 H 2867.97 1.21872 3.78671 0
M  V30 30304 H 2864.7 3.76788 5.36387 0
M  V30 30305 H 2864.22 2.07569 5.62739 0
M  V30 30306 H 2865.9 2.58714 5.93023 0
M  V30 30307 N 2866.04 -1.4229 0.677588 0
M  V30 30308 C 2866.97 -2.29169 -0.0379815 0
M  V30 30309 C 2867.98 -1.43829 -0.762689 0
M  V30 30310 O 2869.17 -1.6752 -0.616383 0
M  V30 30311 C 2866.27 -3.21313 -1.07755 0
M  V30 30312 C 2865.44 -4.3532 -0.426103 0
M  V30 30313 C 2864.5 -5.08165 -1.36583 0
M  V30 30314 O 2863.53 -5.62588 -0.865075 0
M  V30 30315 N 2864.73 -5.1394 -2.699 0
M  V30 30316 H 2867.49 -2.91222 0.707817 0
M  V30 30317 H 2865.06 -1.53247 0.522217 0
M  V30 30318 H 2867.05 -3.66913 -1.70755 0
M  V30 30319 H 2865.62 -2.60692 -1.72506 0
M  V30 30320 H 2864.84 -3.92331 0.383454 0
M  V30 30321 H 2866.13 -5.08793 0.0276171 0
M  V30 30322 H 2865.52 -4.71139 -3.1312 0
M  V30 30323 H 2864.08 -5.63176 -3.2814 0
M  V30 30324 N 2867.51 -0.421104 -1.5187 0
M  V30 30325 C 2868.76 0.150457 -2.01539 0
M  V30 30326 C 2869.08 1.4462 -1.30805 0
M  V30 30327 O 2868.35 1.9095 -0.437601 0
M  V30 30328 H 2866.93 0.058591 -0.744699 0
M  V30 30329 H 2869.59 -0.560092 -1.86679 0
M  V30 30330 H 2868.69 0.338013 -3.10264 0
M  V30 30331 N 2868.99 1.56866 -0.151912 0
M  V30 30332 C 2870.22 2.01082 0.508009 0
M  V30 30333 C 2870.64 1.03136 1.57304 0
M  V30 30334 O 2870 0.00786277 1.81298 0
M  V30 30335 C 2870.05 3.44016 1.081 0
M  V30 30336 O 2869.15 3.49088 2.19571 0
M  V30 30337 H 2868.49 0.652367 0.123745 0
M  V30 30338 H 2871.02 2.03066 -0.250091 0
M  V30 30339 H 2871.03 3.82919 1.40844 0
M  V30 30340 H 2869.71 4.14809 0.301095 0
M  V30 30341 H 2868.29 3.22031 1.88017 0
M  V30 30342 N 2870.47 -0.121866 1.57128 0
M  V30 30343 C 2871.4 -1.15089 2.03167 0
M  V30 30344 C 2872.38 -1.43355 0.915612 0
M  V30 30345 O 2873.57 -1.53845 1.18513 0
M  V30 30346 C 2870.7 -2.4778 2.43357 0
M  V30 30347 C 2869.65 -2.33982 3.5838 0
M  V30 30348 C 2868.98 -3.7161 3.84461 0
M  V30 30349 C 2870.28 -1.80274 4.90203 0
M  V30 30350 H 2871.97 -0.767972 2.89383 0
M  V30 30351 H 2869.52 -0.367973 1.39219 0
M  V30 30352 H 2871.47 -3.20015 2.74169 0
M  V30 30353 H 2870.19 -2.87955 1.54108 0
M  V30 30354 H 2868.85 -1.64196 3.27773 0
M  V30 30355 H 2868.5 -4.09266 2.92422 0
M  V30 30356 H 2868.2 -3.63232 4.61883 0
M  V30 30357 H 2869.72 -4.45354 4.17722 0
M  V30 30358 H 2871.14 -2.42324 5.19569 0
M  V30 30359 H 2869.54 -1.82725 5.71605 0
M  V30 30360 H 2870.61 -0.7601 4.78906 0
M  V30 30361 N 2871.95 -1.52648 -0.391965 0
M  V30 30362 C 2872.86 -1.80133 -1.50297 0
M  V30 30363 C 2873.87 -0.68791 -1.59824 0
M  V30 30364 O 2875.05 -0.97518 -1.76216 0
M  V30 30365 C 2872.12 -1.96176 -2.8586 0
M  V30 30366 C 2871.18 -3.2009 -2.86078 0
M  V30 30367 C 2870.41 -3.35358 -4.15175 0
M  V30 30368 O 2870.63 -2.555 -5.09977 0
M  V30 30369 O 2869.57 -4.28598 -4.22596 0
M  V30 30370 H 2873.39 -2.74469 -1.30002 0
M  V30 30371 H 2870.98 -1.37703 -0.579515 0
M  V30 30372 H 2872.86 -2.08452 -3.66232 0
M  V30 30373 H 2871.53 -1.0503 -3.06187 0
M  V30 30374 H 2870.44 -3.13259 -2.04498 0
M  V30 30375 H 2871.77 -4.11073 -2.70703 0
M  V30 30376 N 2873.43 0.650235 -1.43561 0
M  V30 30377 C 2874.67 1.41051 -1.46547 0
M  V30 30378 C 2875.03 1.92192 -0.0894451 0
M  V30 30379 O 2874.32 1.69549 0.892398 0
M  V30 30380 C 2874.51 2.6065 -2.44533 0
M  V30 30381 C 2874.34 2.21215 -3.91528 0
M  V30 30382 C 2873.11 2.094 -4.59869 0
M  V30 30383 C 2875.31 1.81314 -4.81279 0
M  V30 30384 N 2873.29 1.63327 -5.91775 0
M  V30 30385 C 2874.66 1.46346 -6.02481 0
M  V30 30386 C 2876.72 1.68524 -4.68513 0
M  V30 30387 C 2875.42 0.99868 -7.12333 0
M  V30 30388 C 2877.45 1.23451 -5.78372 0
M  V30 30389 C 2876.81 0.894215 -6.98701 0
M  V30 30390 H 2872.91 0.511683 -0.591359 0
M  V30 30391 H 2875.49 0.747946 -1.79761 0
M  V30 30392 H 2873.66 3.24561 -2.13341 0
M  V30 30393 H 2875.4 3.27365 -2.37938 0
M  V30 30394 H 2872.15 2.29252 -4.14416 0
M  V30 30395 H 2872.58 1.42644 -6.61802 0
M  V30 30396 H 2877.22 1.93472 -3.75937 0
M  V30 30397 H 2874.94 0.736694 -8.04735 0
M  V30 30398 H 2878.52 1.1404 -5.70514 0
M  V30 30399 H 2877.4 0.550764 -7.82264 0
M  V30 30400 N 2874.9 1.30141 0.88888 0
M  V30 30401 C 2875.81 1.18104 2.02703 0
M  V30 30402 C 2876.83 0.10184 1.73702 0
M  V30 30403 O 2878.01 0.316019 1.98905 0
M  V30 30404 C 2875.07 0.86971 3.35614 0
M  V30 30405 C 2874.13 2.03388 3.78063 0
M  V30 30406 C 2873.37 1.7373 5.04632 0
M  V30 30407 O 2873.59 0.663366 5.66529 0
M  V30 30408 O 2872.52 2.58855 5.43395 0
M  V30 30409 H 2876.35 2.13707 2.15784 0
M  V30 30410 H 2873.93 1.09697 1.01424 0
M  V30 30411 H 2875.82 0.711116 4.15357 0
M  V30 30412 H 2874.49 -0.0564433 3.23651 0
M  V30 30413 H 2873.4 2.24777 2.99042 0
M  V30 30414 H 2874.73 2.94162 3.94626 0
M  V30 30415 N 2876.38 -1.1007 1.12794 0
M  V30 30416 C 2877.31 -2.18563 0.821727 0
M  V30 30417 C 2878.29 -1.68722 -0.21609 0
M  V30 30418 O 2879.48 -1.94049 -0.076459 0
M  V30 30419 C 2876.61 -3.46172 0.279685 0
M  V30 30420 C 2875.56 -4.09309 1.25099 0
M  V30 30421 C 2874.89 -5.31664 0.56901 0
M  V30 30422 C 2876.19 -4.52581 2.60706 0
M  V30 30423 H 2877.88 -2.44435 1.72893 0
M  V30 30424 H 2875.43 -1.17481 0.832723 0
M  V30 30425 H 2877.38 -4.21366 0.0531731 0
M  V30 30426 H 2876.11 -3.19802 -0.662872 0
M  V30 30427 H 2874.76 -3.36126 1.46338 0
M  V30 30428 H 2874.41 -5.01572 -0.37881 0
M  V30 30429 H 2874.11 -5.7486 1.21697 0
M  V30 30430 H 2875.64 -6.09587 0.351624 0
M  V30 30431 H 2877.05 -5.19031 2.43474 0
M  V30 30432 H 2875.45 -5.06639 3.21616 0
M  V30 30433 H 2876.52 -3.65311 3.18867 0
M  V30 30434 N 2877.86 -0.920419 -1.2793 0
M  V30 30435 C 2878.81 -0.412462 -2.27085 0
M  V30 30436 C 2879.78 0.516697 -1.57859 0
M  V30 30437 O 2880.96 0.437443 -1.85718 0
M  V30 30438 C 2878.1 0.335339 -3.43467 0
M  V30 30439 C 2877.22 -0.627092 -4.27424 0
M  V30 30440 C 2876.35 0.139823 -5.31016 0
M  V30 30441 C 2875.39 -0.815789 -6.06639 0
M  V30 30442 N 2874.53 -0.0819673 -7.02052 0
M  V30 30443 H 2879.37 -1.26303 -2.6991 0
M  V30 30444 H 2876.9 -0.634099 -1.32731 0
M  V30 30445 H 2878.86 0.785154 -4.09745 0
M  V30 30446 H 2877.49 1.1502 -3.01613 0
M  V30 30447 H 2876.54 -1.19544 -3.61128 0
M  V30 30448 H 2877.86 -1.35772 -4.79966 0
M  V30 30449 H 2877.01 0.649892 -6.03209 0
M  V30 30450 H 2875.75 0.903459 -4.79259 0
M  V30 30451 H 2874.75 -1.33717 -5.33291 0
M  V30 30452 H 2875.98 -1.57909 -6.60486 0
M  V30 30453 H 2873.92 0.663556 -6.52635 0
M  V30 30454 H 2873.84 -0.752295 -7.52248 0
M  V30 30455 H 2875.11 0.407688 -7.78433 0
M  V30 30456 N 2879.34 1.41929 -0.685124 0
M  V30 30457 C 2880.27 2.33484 -0.0273917 0
M  V30 30458 C 2881.25 1.51248 0.778339 0
M  V30 30459 O 2882.43 1.79818 0.733417 0
M  V30 30460 C 2879.56 3.34969 0.917213 0
M  V30 30461 C 2878.52 4.27438 0.219334 0
M  V30 30462 C 2877.84 5.19213 1.27758 0
M  V30 30463 C 2879.14 5.14347 -0.907984 0
M  V30 30464 H 2880.84 2.88733 -0.792045 0
M  V30 30465 H 2878.38 1.38832 -0.382332 0
M  V30 30466 H 2880.34 3.97937 1.3865 0
M  V30 30467 H 2879.06 2.78046 1.71341 0
M  V30 30468 H 2877.72 3.65879 -0.229822 0
M  V30 30469 H 2877.37 4.58611 2.06604 0
M  V30 30470 H 2877.07 5.81911 0.815701 0
M  V30 30471 H 2878.59 5.85057 1.7476 0
M  V30 30472 H 2880.01 5.70942 -0.519448 0
M  V30 30473 H 2878.4 5.85932 -1.29631 0
M  V30 30474 H 2879.47 4.52133 -1.75226 0
M  V30 30475 N 2880.82 0.429152 1.51644 0
M  V30 30476 C 2881.75 -0.431452 2.24084 0
M  V30 30477 C 2882.73 -1.03151 1.25693 0
M  V30 30478 O 2883.91 -1.07554 1.54804 0
M  V30 30479 C 2881.04 -1.60062 2.98493 0
M  V30 30480 C 2880.08 -1.12203 4.11476 0
M  V30 30481 S 2880.92 -0.0707508 5.35453 0
M  V30 30482 C 2882.07 -1.24477 6.13397 0
M  V30 30483 H 2882.31 0.183577 2.96733 0
M  V30 30484 H 2879.84 0.213601 1.52915 0
M  V30 30485 H 2881.8 -2.27093 3.41964 0
M  V30 30486 H 2880.46 -2.18704 2.25449 0
M  V30 30487 H 2879.65 -1.9961 4.62787 0
M  V30 30488 H 2879.25 -0.530084 3.70224 0
M  V30 30489 H 2881.55 -2.16468 6.41987 0
M  V30 30490 H 2882.49 -0.771797 7.03881 0
M  V30 30491 H 2882.9 -1.47964 5.44763 0
M  V30 30492 N 2882.29 -1.56783 0.160229 0
M  V30 30493 C 2883.57 -1.88189 -0.533322 0
M  V30 30494 C 2883.95 -1.06835 -1.8207 0
M  V30 30495 O 2883.3 -0.158999 -2.27946 0
M  V30 30496 C 2883.51 -3.40034 -0.785975 0
M  V30 30497 C 2884.86 -4.09538 -1.1209 0
M  V30 30498 O 2885.88 -3.45289 -0.874888 0
M  V30 30499 O 2884.74 -5.23026 -1.58448 0
M  V30 30500 H 2881.83 -0.780439 -0.273575 0
M  V30 30501 H 2884.38 -1.68543 0.197833 0
M  V30 30502 H 2883.15 -3.91102 0.124584 0
M  V30 30503 H 2882.78 -3.65254 -1.57084 0
M  V30 30504 N 2883.77 0.113531 -1.57191 0
M  V30 30505 C 2884.68 1.15773 -2.04043 0
M  V30 30506 C 2885.7 1.44999 -0.961837 0
M  V30 30507 O 2886.88 1.56007 -1.27373 0
M  V30 30508 C 2883.94 2.46304 -2.43999 0
M  V30 30509 C 2883 2.24426 -3.65966 0
M  V30 30510 C 2882.23 3.48733 -4.04006 0
M  V30 30511 O 2882.46 4.56253 -3.42329 0
M  V30 30512 O 2881.39 3.39411 -4.97075 0
M  V30 30513 H 2885.22 0.789848 -2.93249 0
M  V30 30514 H 2882.8 0.324722 -1.45828 0
M  V30 30515 H 2884.68 3.232 -2.70407 0
M  V30 30516 H 2883.36 2.82555 -1.57937 0
M  V30 30517 H 2882.27 1.45371 -3.447 0
M  V30 30518 H 2883.6 1.93076 -4.5275 0
M  V30 30519 N 2885.25 1.52854 0.383864 0
M  V30 30520 C 2886.18 1.80968 1.47556 0
M  V30 30521 C 2887.16 0.662013 1.56689 0
M  V30 30522 O 2888.35 0.910103 1.71554 0
M  V30 30523 C 2885.48 1.98317 2.8511 0
M  V30 30524 C 2884.43 3.14024 2.90814 0
M  V30 30525 C 2883.76 3.16635 4.30867 0
M  V30 30526 C 2885.06 4.52991 2.59993 0
M  V30 30527 H 2886.75 2.72388 1.24278 0
M  V30 30528 H 2884.3 1.31068 0.596422 0
M  V30 30529 H 2886.25 2.16568 3.61492 0
M  V30 30530 H 2884.97 1.0359 3.09736 0
M  V30 30531 H 2883.63 2.95564 2.16881 0
M  V30 30532 H 2883.28 2.19581 4.52541 0
M  V30 30533 H 2882.98 3.94365 4.35603 0
M  V30 30534 H 2884.51 3.37047 5.09148 0
M  V30 30535 H 2885.92 4.71526 3.26092 0
M  V30 30536 H 2884.32 5.32827 2.76072 0
M  V30 30537 H 2885.39 4.59354 1.55312 0
M  V30 30538 N 2886.73 -0.642612 1.43904 0
M  V30 30539 C 2887.69 -1.73696 1.49541 0
M  V30 30540 C 2888.69 -1.56275 0.378803 0
M  V30 30541 O 2889.88 -1.61979 0.640978 0
M  V30 30542 C 2887.01 -3.12672 1.35826 0
M  V30 30543 H 2888.21 -1.70075 2.47011 0
M  V30 30544 H 2885.76 -0.855237 1.30826 0
M  V30 30545 H 2886.5 -3.21897 0.394051 0
M  V30 30546 H 2886.28 -3.26723 2.16782 0
M  V30 30547 H 2887.77 -3.92452 1.42727 0
M  V30 30548 N 2888.21 -1.30611 -0.881966 0
M  V30 30549 C 2889.46 -1.19371 -1.6308 0
M  V30 30550 C 2889.78 0.251113 -1.93376 0
M  V30 30551 O 2889.05 1.16855 -1.57232 0
M  V30 30552 H 2887.63 -0.438802 -0.604535 0
M  V30 30553 H 2890.29 -1.63778 -1.05655 0
M  V30 30554 H 2889.38 -1.75675 -2.57963 0
M  V30 30555 N 2889.69 1.0947 -1.13376 0
M  V30 30556 C 2891.1 1.6313 -0.908039 0
M  V30 30557 C 2891.45 1.88171 0.555543 0
M  V30 30558 O 2890.57 1.63107 1.42215 0
M  V30 30559 C 2891.17 2.96358 -1.64187 0
M  V30 30560 C 2889.73 3.46845 -1.46203 0
M  V30 30561 C 2888.87 2.2127 -1.67138 0
M  V30 30562 H 2891.82 0.928388 -1.28711 0
M  V30 30563 H 2891.85 3.64292 -1.0987 0
M  V30 30564 H 2891.36 2.78101 -2.70705 0
M  V30 30565 H 2889.46 3.70227 -0.419853 0
M  V30 30566 H 2889.57 4.24311 -2.22479 0
M  V30 30567 H 2887.94 2.29904 -1.0962 0
M  V30 30568 H 2888.72 2.05533 -2.74975 0
M  V30 30569 N 2891.16 0.92719 1.2744 0
M  V30 30570 C 2892.41 0.566237 1.94006 0
M  V30 30571 C 2892.73 -0.895314 1.73231 0
M  V30 30572 O 2892 -1.63457 1.07976 0
M  V30 30573 H 2890.58 0.206422 0.717913 0
M  V30 30574 H 2893.24 1.17947 1.55159 0
M  V30 30575 H 2892.34 0.772082 3.02399 0
M  V30 30576 N 2892.64 -1.41564 0.692641 0
M  V30 30577 C 2893.89 -2.00878 0.221931 0
M  V30 30578 C 2894.21 -1.55122 -1.18161 0
M  V30 30579 O 2893.48 -0.780572 -1.79677 0
M  V30 30580 H 2892.06 -0.742805 0.0790594 0
M  V30 30581 H 2894.72 -1.73231 0.893145 0
M  V30 30582 H 2893.82 -3.11198 0.237075 0
M  V30 30583 N 2894.12 -0.437188 -1.51415 0
M  V30 30584 C 2895.05 0.410131 -2.25501 0
M  V30 30585 C 2896.06 0.986421 -1.29513 0
M  V30 30586 O 2897.25 0.880587 -1.55267 0
M  V30 30587 C 2894.35 1.5857 -2.99514 0
M  V30 30588 C 2893.53 1.12831 -4.22597 0
M  V30 30589 C 2892.59 2.17399 -4.79191 0
M  V30 30590 O 2891.61 1.7684 -5.41033 0
M  V30 30591 N 2892.81 3.49881 -4.6321 0
M  V30 30592 H 2895.58 -0.224836 -2.98855 0
M  V30 30593 H 2893.14 -0.266069 -1.59699 0
M  V30 30594 H 2895.13 2.28146 -3.34262 0
M  V30 30595 H 2893.7 2.12602 -2.29171 0
M  V30 30596 H 2892.92 0.259626 -3.93344 0
M  V30 30597 H 2894.21 0.800107 -5.0247 0
M  V30 30598 H 2893.61 3.85565 -4.13951 0
M  V30 30599 H 2892.16 4.15352 -5.02321 0
M  V30 30600 N 2895.6 1.56696 -0.168541 0
M  V30 30601 C 2897.01 1.83415 0.348662 0
M  V30 30602 C 2897.36 1.08823 1.63255 0
M  V30 30603 O 2896.48 0.34037 2.13706 0
M  V30 30604 C 2897.08 3.32712 0.639365 0
M  V30 30605 C 2895.64 3.59937 1.10102 0
M  V30 30606 C 2894.79 2.76969 0.135415 0
M  V30 30607 H 2897.74 1.53761 -0.392856 0
M  V30 30608 H 2897.76 3.5004 1.49173 0
M  V30 30609 H 2897.27 3.86975 -0.295241 0
M  V30 30610 H 2895.37 3.11082 2.05082 0
M  V30 30611 H 2895.48 4.68288 1.0121 0
M  V30 30612 H 2893.85 2.46728 0.632242 0
M  V30 30613 H 2894.63 3.34012 -0.793162 0
M  V30 30614 N 2897.08 -0.105193 1.57249 0
M  V30 30615 C 2898.3 -0.828231 1.90145 0
M  V30 30616 C 2898.73 -1.71981 0.761841 0
M  V30 30617 O 2898.08 -1.79013 -0.287054 0
M  V30 30618 C 2898.13 -1.62602 3.21859 0
M  V30 30619 O 2897.24 -2.73414 3.08737 0
M  V30 30620 H 2896.58 -0.228181 0.623562 0
M  V30 30621 H 2899.11 -0.0834466 2.0443 0
M  V30 30622 H 2899.12 -2.01237 3.54919 0
M  V30 30623 H 2897.79 -0.971616 4.04391 0
M  V30 30624 H 2896.37 -2.37881 2.87171 0
M  V30 30625 N 2898.55 -1.53055 -0.375752 0
M  V30 30626 C 2899.52 -1.78113 -1.44251 0
M  V30 30627 C 2900.52 -0.651354 -1.47017 0
M  V30 30628 O 2901.71 -0.919498 -1.47956 0
M  V30 30629 C 2898.84 -1.89396 -2.83447 0
M  V30 30630 H 2900.03 -2.73376 -1.23311 0
M  V30 30631 H 2897.59 -1.43978 -0.608287 0
M  V30 30632 H 2898.32 -0.961643 -3.09714 0
M  V30 30633 H 2898.11 -2.7156 -2.82839 0
M  V30 30634 H 2899.6 -2.1041 -3.60718 0
M  V30 30635 N 2900.03 0.634971 -1.44242 0
M  V30 30636 C 2901.28 1.3946 -1.46823 0
M  V30 30637 C 2901.61 1.94246 -0.0993704 0
M  V30 30638 O 2900.86 1.73865 0.898295 0
M  V30 30639 C 2901.16 2.58042 -2.47284 0
M  V30 30640 C 2900.83 2.21567 -3.92707 0
M  V30 30641 C 2899.49 2.11333 -4.3231 0
M  V30 30642 C 2901.84 1.92687 -4.84274 0
M  V30 30643 C 2899.17 1.704 -5.6141 0
M  V30 30644 C 2901.52 1.53247 -6.13757 0
M  V30 30645 C 2900.19 1.41551 -6.52319 0
M  V30 30646 H 2899.46 0.510321 -0.537265 0
M  V30 30647 H 2902.1 0.720409 -1.77433 0
M  V30 30648 H 2900.41 3.30676 -2.10144 0
M  V30 30649 H 2902.1 3.16267 -2.46528 0
M  V30 30650 H 2898.69 2.3045 -3.61373 0
M  V30 30651 H 2902.88 1.99505 -4.54435 0
M  V30 30652 H 2898.13 1.59945 -5.90108 0
M  V30 30653 H 2902.31 1.29937 -6.84171 0
M  V30 30654 H 2899.94 1.09605 -7.52257 0
M  V30 30655 N 2901.51 1.31076 0.875027 0
M  V30 30656 C 2902.92 1.18433 1.44328 0
M  V30 30657 C 2903.27 -0.211155 1.9506 0
M  V30 30658 O 2902.4 -1.10856 1.85849 0
M  V30 30659 C 2902.99 2.14394 2.62337 0
M  V30 30660 C 2901.55 2.05699 3.15222 0
M  V30 30661 C 2900.7 2.0391 1.87926 0
M  V30 30662 H 2903.65 1.43201 0.684036 0
M  V30 30663 H 2903.67 1.73059 3.38867 0
M  V30 30664 H 2903.18 3.1595 2.25382 0
M  V30 30665 H 2901.28 1.0732 3.5681 0
M  V30 30666 H 2901.4 2.94564 3.77847 0
M  V30 30667 H 2899.76 1.48853 2.06676 0
M  V30 30668 H 2900.54 3.07213 1.53215 0
M  V30 30669 N 2902.99 -1.08867 1.13955 0
M  V30 30670 C 2904.21 -1.85451 0.928592 0
M  V30 30671 C 2904.64 -1.80838 -0.51761 0
M  V30 30672 O 2904 -1.19003 -1.36777 0
M  V30 30673 C 2904.04 -3.31111 1.4282 0
M  V30 30674 O 2903.15 -4.07755 0.617201 0
M  V30 30675 H 2902.49 -0.574833 0.33236 0
M  V30 30676 H 2905.02 -1.3744 1.51563 0
M  V30 30677 H 2905.03 -3.81957 1.43432 0
M  V30 30678 H 2903.7 -3.33784 2.48115 0
M  V30 30679 H 2902.28 -3.66658 0.67943 0
M  V30 30680 N 2904.47 -0.933936 -1.26946 0
M  V30 30681 C 2905.43 -0.442497 -2.24888 0
M  V30 30682 C 2906.43 0.442399 -1.54595 0
M  V30 30683 O 2907.62 0.242599 -1.72502 0
M  V30 30684 C 2904.75 0.363114 -3.38961 0
M  V30 30685 H 2905.94 -1.30792 -2.69877 0
M  V30 30686 H 2903.5 -0.715211 -1.38976 0
M  V30 30687 H 2904.23 1.24709 -2.99363 0
M  V30 30688 H 2904.02 -0.271435 -3.91159 0
M  V30 30689 H 2905.51 0.697114 -4.1174 0
M  V30 30690 N 2905.94 1.41194 -0.700139 0
M  V30 30691 C 2907.36 1.84154 -0.307281 0
M  V30 30692 C 2907.71 1.58574 1.15537 0
M  V30 30693 O 2906.83 1.05856 1.88742 0
M  V30 30694 C 2907.43 3.34291 -0.550931 0
M  V30 30695 C 2905.99 3.75803 -0.211943 0
M  V30 30696 C 2905.13 2.64557 -0.830961 0
M  V30 30697 H 2908.08 1.30681 -0.900454 0
M  V30 30698 H 2908.1 3.80031 0.188887 0
M  V30 30699 H 2907.62 3.52877 -1.61554 0
M  V30 30700 H 2905.72 3.62817 0.848219 0
M  V30 30701 H 2905.83 4.7439 -0.670153 0
M  V30 30702 H 2904.19 2.53367 -0.260199 0
M  V30 30703 H 2904.98 2.8596 -1.89953 0
M  V30 30704 N 2907.42 0.445212 1.51181 0
M  V30 30705 C 2908.65 -0.119409 2.07056 0
M  V30 30706 C 2909.07 -1.35014 1.30969 0
M  V30 30707 O 2908.43 -1.77892 0.349859 0
M  V30 30708 C 2908.48 -0.412365 3.58234 0
M  V30 30709 O 2907.58 -1.49747 3.84252 0
M  V30 30710 H 2906.92 0.00158965 0.663998 0
M  V30 30711 H 2909.45 0.628813 1.94697 0
M  V30 30712 H 2909.46 -0.660513 4.02618 0
M  V30 30713 H 2908.14 0.487121 4.13037 0
M  V30 30714 H 2906.72 -1.23867 3.51726 0
M  V30 30715 N 2908.9 -1.56605 0.176849 0
M  V30 30716 C 2909.83 -2.21235 -0.746802 0
M  V30 30717 C 2910.81 -1.16969 -1.235 0
M  V30 30718 O 2912 -1.45417 -1.28715 0
M  V30 30719 C 2909.13 -2.85744 -1.97402 0
M  V30 30720 C 2908.08 -3.96097 -1.62146 0
M  V30 30721 C 2907.41 -4.47681 -2.92379 0
M  V30 30722 C 2908.71 -5.15415 -0.845263 0
M  V30 30723 H 2910.4 -2.98676 -0.208064 0
M  V30 30724 H 2907.95 -1.43662 -0.0986342 0
M  V30 30725 H 2909.9 -3.29634 -2.62525 0
M  V30 30726 H 2908.62 -2.0568 -2.53699 0
M  V30 30727 H 2907.28 -3.5287 -0.993902 0
M  V30 30728 H 2906.93 -3.64402 -3.46728 0
M  V30 30729 H 2906.63 -5.22131 -2.69542 0
M  V30 30730 H 2908.15 -4.94262 -3.58522 0
M  V30 30731 H 2909.57 -5.55964 -1.39919 0
M  V30 30732 H 2907.97 -5.95817 -0.71571 0
M  V30 30733 H 2909.04 -4.84645 0.157324 0
M  V30 30734 N 2910.38 0.0968524 -1.57302 0
M  V30 30735 C 2911.63 0.799085 -1.85631 0
M  V30 30736 C 2911.95 1.79355 -0.765294 0
M  V30 30737 O 2911.22 1.94786 0.208623 0
M  V30 30738 H 2909.8 0.298099 -0.684942 0
M  V30 30739 H 2912.46 0.0788999 -1.9474 0
M  V30 30740 H 2911.56 1.33075 -2.82307 0
M  V30 30741 N 2911.86 1.53252 0.36763 0
M  V30 30742 C 2913.1 1.69001 1.10829 0
M  V30 30743 C 2913.43 0.44334 1.89893 0
M  V30 30744 O 2912.7 -0.542587 1.88236 0
M  V30 30745 H 2911.28 0.623015 0.412142 0
M  V30 30746 H 2913.94 1.90436 0.414742 0
M  V30 30747 H 2913.03 2.55016 1.79925 0
M  V30 30748 N 2913.34 -0.627313 1.44577 0
M  V30 30749 C 2914.56 -1.41884 1.51273 0
M  V30 30750 C 2914.99 -1.87579 0.139847 0
M  V30 30751 O 2914.34 -1.58968 -0.871718 0
M  V30 30752 C 2914.39 -2.61273 2.48534 0
M  V30 30753 O 2913.5 -3.61238 1.9895 0
M  V30 30754 H 2912.84 -0.42439 0.510676 0
M  V30 30755 H 2915.37 -0.765322 1.89747 0
M  V30 30756 H 2915.38 -3.08768 2.66695 0
M  V30 30757 H 2914.05 -2.2736 3.48253 0
M  V30 30758 H 2912.63 -3.20525 1.90574 0
M  V30 30759 N 2914.81 -1.31539 -0.868063 0
M  V30 30760 C 2916.09 -1.11968 -1.60382 0
M  V30 30761 C 2916.47 0.324912 -2.08585 0
M  V30 30762 O 2915.82 1.31934 -1.86563 0
M  V30 30763 C 2916.03 -2.13556 -2.76034 0
M  V30 30764 C 2917.38 -2.46179 -3.45949 0
M  V30 30765 O 2918.4 -2.11998 -2.86243 0
M  V30 30766 O 2917.26 -3.04719 -4.53661 0
M  V30 30767 H 2914.35 -0.431185 -0.705697 0
M  V30 30768 H 2916.9 -1.43024 -0.91336 0
M  V30 30769 H 2915.67 -3.10719 -2.37844 0
M  V30 30770 H 2915.29 -1.83417 -3.52766 0
M  V30 30771 N 2916.29 1.08262 -1.1453 0
M  V30 30772 C 2917.7 1.62158 -0.92529 0
M  V30 30773 C 2918.05 1.88749 0.535553 0
M  V30 30774 O 2917.18 1.64606 1.40477 0
M  V30 30775 C 2917.77 2.946 -1.67321 0
M  V30 30776 C 2916.33 3.45275 -1.49874 0
M  V30 30777 C 2915.48 2.19484 -1.69475 0
M  V30 30778 H 2918.43 0.914684 -1.29689 0
M  V30 30779 H 2918.45 3.63107 -1.13727 0
M  V30 30780 H 2917.96 2.75215 -2.73639 0
M  V30 30781 H 2916.06 3.69761 -0.459097 0
M  V30 30782 H 2916.18 4.21927 -2.26967 0
M  V30 30783 H 2914.54 2.28728 -1.12052 0
M  V30 30784 H 2915.32 2.02605 -2.77139 0
M  V30 30785 N 2917.77 0.940655 1.26449 0
M  V30 30786 C 2918.7 0.407144 2.25555 0
M  V30 30787 C 2919.71 -0.469297 1.55889 0
M  V30 30788 O 2920.9 -0.279827 1.76293 0
M  V30 30789 C 2918 -0.434004 3.3611 0
M  V30 30790 C 2917.18 0.426158 4.35319 0
M  V30 30791 C 2916.24 -0.354471 5.25005 0
M  V30 30792 O 2915.26 0.242319 5.68684 0
M  V30 30793 N 2916.46 -1.65114 5.56523 0
M  V30 30794 H 2919.23 1.25912 2.71967 0
M  V30 30795 H 2916.79 0.80948 1.40211 0
M  V30 30796 H 2918.78 -0.963615 3.9306 0
M  V30 30797 H 2917.35 -1.18678 2.89196 0
M  V30 30798 H 2916.57 1.13698 3.77447 0
M  V30 30799 H 2917.86 1.01374 4.98599 0
M  V30 30800 H 2917.26 -2.15813 5.22916 0
M  V30 30801 H 2915.81 -2.127 6.16118 0
M  V30 30802 N 2919.25 -1.40821 0.707617 0
M  V30 30803 C 2920.5 -2.00258 0.240741 0
M  V30 30804 C 2920.81 -1.56731 -1.17025 0
M  V30 30805 O 2922.02 -2.08812 -1.73522 0
M  V30 30806 C 2920.47 -3.57894 0.379495 0
M  V30 30807 C 2920.08 -4.10397 1.79661 0
M  V30 30808 C 2921.82 -4.24491 -0.0269938 0
M  V30 30809 C 2919.73 -5.60508 1.88638 0
M  V30 30810 H 2918.66 -0.749051 0.0862501 0
M  V30 30811 H 2921.31 -1.61156 0.877557 0
M  V30 30812 H 2919.69 -3.94658 -0.325773 0
M  V30 30813 H 2920.87 -3.85027 2.53162 0
M  V30 30814 H 2919.18 -3.56368 2.15385 0
M  V30 30815 H 2921.78 -5.34696 0.0194683 0
M  V30 30816 H 2922.12 -4.02377 -1.06765 0
M  V30 30817 H 2922.66 -3.92805 0.62843 0
M  V30 30818 H 2919.39 -5.87467 2.90797 0
M  V30 30819 H 2918.91 -5.87767 1.19539 0
M  V30 30820 H 2920.59 -6.2548 1.65481 0
M  V30 30821 N 2920.73 -0.453223 -1.50943 0
M  V30 30822 C 2922.14 0.0061661 -1.86699 0
M  V30 30823 C 2922.49 1.40513 -1.36933 0
M  V30 30824 O 2921.61 2.03832 -0.726751 0
M  V30 30825 C 2922.21 0.0179654 -3.38795 0
M  V30 30826 C 2920.77 0.421819 -3.74029 0
M  V30 30827 C 2919.91 -0.375135 -2.74751 0
M  V30 30828 H 2922.86 -0.668343 -1.43941 0
M  V30 30829 H 2922.89 0.82406 -3.71469 0
M  V30 30830 H 2922.4 -1.00034 -3.74986 0
M  V30 30831 H 2920.5 1.44515 -3.43433 0
M  V30 30832 H 2920.61 0.13558 -4.78908 0
M  V30 30833 H 2918.98 0.168749 -2.5414 0
M  V30 30834 H 2919.76 -1.39262 -3.13785 0
M  V30 30835 N 2922.2 1.56509 -0.185151 0
M  V30 30836 C 2923.13 2.21628 0.735059 0
M  V30 30837 C 2924.11 1.17622 1.22878 0
M  V30 30838 O 2925.3 1.46097 1.27942 0
M  V30 30839 C 2922.43 2.86787 1.95884 0
M  V30 30840 C 2921.38 3.96951 1.60043 0
M  V30 30841 C 2920.71 4.49225 2.90001 0
M  V30 30842 C 2922.01 5.15856 0.817917 0
M  V30 30843 H 2923.7 2.98782 0.192221 0
M  V30 30844 H 2921.25 1.43712 0.0910141 0
M  V30 30845 H 2923.2 3.31022 2.60773 0
M  V30 30846 H 2921.93 2.07023 2.52605 0
M  V30 30847 H 2920.59 3.53392 0.975174 0
M  V30 30848 H 2920.23 3.66236 3.4479 0
M  V30 30849 H 2919.93 5.23553 2.66769 0
M  V30 30850 H 2921.46 4.96156 3.55896 0
M  V30 30851 H 2922.87 5.56698 1.36969 0
M  V30 30852 H 2921.27 5.96188 0.684102 0
M  V30 30853 H 2922.34 4.84554 -0.183024 0
M  V30 30854 N 2923.68 -0.0885089 1.57351 0
M  V30 30855 C 2924.64 -1.09117 2.01559 0
M  V30 30856 C 2925.64 -1.32568 0.910076 0
M  V30 30857 O 2926.83 -1.2857 1.17539 0
M  V30 30858 C 2923.97 -2.43878 2.38194 0
M  V30 30859 H 2925.16 -0.71051 2.91362 0
M  V30 30860 H 2922.71 -0.333752 1.52695 0
M  V30 30861 H 2923.45 -2.86808 1.51365 0
M  V30 30862 H 2923.23 -2.28203 3.1885 0
M  V30 30863 H 2924.72 -3.15981 2.7303 0
M  V30 30864 N 2925.16 -1.53445 -0.359498 0
M  V30 30865 C 2926.07 -1.83281 -1.46442 0
M  V30 30866 C 2927.09 -0.721656 -1.58329 0
M  V30 30867 O 2928.26 -1.01234 -1.74108 0
M  V30 30868 C 2925.33 -2.02195 -2.81634 0
M  V30 30869 C 2924.39 -3.26086 -2.79224 0
M  V30 30870 C 2923.62 -3.44089 -4.07968 0
M  V30 30871 O 2923.84 -2.6626 -5.04442 0
M  V30 30872 O 2922.78 -4.37466 -4.1341 0
M  V30 30873 H 2926.6 -2.77165 -1.24151 0
M  V30 30874 H 2924.19 -1.38901 -0.550176 0
M  V30 30875 H 2926.07 -2.16173 -3.61728 0
M  V30 30876 H 2924.75 -1.11501 -3.0389 0
M  V30 30877 H 2923.65 -3.17526 -1.97807 0
M  V30 30878 H 2924.99 -4.16722 -2.61922 0
M  V30 30879 N 2926.64 0.619637 -1.44908 0
M  V30 30880 C 2927.57 1.74431 -1.47136 0
M  V30 30881 C 2928.55 1.59238 -0.328961 0
M  V30 30882 O 2929.73 1.80964 -0.527664 0
M  V30 30883 C 2926.86 3.12132 -1.31496 0
M  V30 30884 C 2925.91 3.45946 -2.49447 0
M  V30 30885 S 2926.74 3.42135 -4.11951 0
M  V30 30886 C 2927.89 4.82436 -3.98756 0
M  V30 30887 H 2928.13 1.72276 -2.42298 0
M  V30 30888 H 2925.66 0.795252 -1.32345 0
M  V30 30889 H 2927.62 3.91589 -1.2316 0
M  V30 30890 H 2926.28 3.11814 -0.378258 0
M  V30 30891 H 2925.47 4.46177 -2.34398 0
M  V30 30892 H 2925.07 2.73978 -2.54582 0
M  V30 30893 H 2927.37 5.71948 -3.63156 0
M  V30 30894 H 2928.31 5.02541 -4.98857 0
M  V30 30895 H 2928.72 4.57551 -3.30616 0
M  V30 30896 N 2928.12 1.31997 0.861075 0
M  V30 30897 C 2929.03 1.22377 2.00152 0
M  V30 30898 C 2930.04 0.138662 1.73447 0
M  V30 30899 O 2931.22 0.358139 1.9819 0
M  V30 30900 C 2928.28 0.940703 3.33694 0
M  V30 30901 C 2927.34 2.11361 3.73664 0
M  V30 30902 C 2926.58 1.84395 5.00833 0
M  V30 30903 O 2926.8 0.783386 5.64995 0
M  V30 30904 O 2925.73 2.70323 5.37782 0
M  V30 30905 H 2929.56 2.18236 2.11203 0
M  V30 30906 H 2927.15 1.11824 0.990748 0
M  V30 30907 H 2929.03 0.799059 4.13755 0
M  V30 30908 H 2927.7 0.0122205 3.23698 0
M  V30 30909 H 2926.61 2.3107 2.94207 0
M  V30 30910 H 2927.94 3.02466 3.88298 0
M  V30 30911 N 2929.59 -1.07653 1.15103 0
M  V30 30912 C 2930.56 -2.12949 0.847662 0
M  V30 30913 C 2931.56 -1.60088 -0.151199 0
M  V30 30914 O 2932.75 -1.74025 0.0780705 0
M  V30 30915 C 2929.88 -3.39868 0.26506 0
M  V30 30916 H 2931.07 -2.41293 1.78095 0
M  V30 30917 H 2928.63 -1.23492 0.958094 0
M  V30 30918 H 2929.36 -3.17164 -0.67657 0
M  V30 30919 H 2929.15 -3.79536 0.98462 0
M  V30 30920 H 2930.64 -4.17541 0.0702855 0
M  V30 30921 N 2931.07 -0.947348 -1.25949 0
M  V30 30922 C 2932 -0.479644 -2.28521 0
M  V30 30923 C 2932.98 0.470264 -1.6347 0
M  V30 30924 O 2934.17 0.370791 -1.90627 0
M  V30 30925 C 2931.3 0.250228 -3.46397 0
M  V30 30926 C 2930.25 -0.613718 -4.23577 0
M  V30 30927 C 2929.58 0.246474 -5.34132 0
M  V30 30928 C 2930.88 -1.88817 -4.86976 0
M  V30 30929 H 2932.57 -1.33692 -2.67893 0
M  V30 30930 H 2930.12 -0.644297 -1.28782 0
M  V30 30931 H 2932.07 0.588502 -4.1727 0
M  V30 30932 H 2930.8 1.1417 -3.05995 0
M  V30 30933 H 2929.45 -0.934973 -3.54477 0
M  V30 30934 H 2929.1 1.13748 -4.8997 0
M  V30 30935 H 2928.8 -0.328227 -5.86683 0
M  V30 30936 H 2930.33 0.579879 -6.0784 0
M  V30 30937 H 2931.74 -1.61676 -5.50031 0
M  V30 30938 H 2930.14 -2.40794 -5.49671 0
M  V30 30939 H 2931.21 -2.59577 -4.0957 0
M  V30 30940 N 2932.55 1.40444 -0.715075 0
M  V30 30941 C 2933.78 2.05731 -0.262576 0
M  V30 30942 C 2934.2 1.5352 1.08688 0
M  V30 30943 O 2933.56 0.670358 1.68451 0
M  V30 30944 C 2933.61 3.59718 -0.252013 0
M  V30 30945 O 2932.71 4.05206 0.766927 0
M  V30 30946 H 2932.05 0.652431 -0.123409 0
M  V30 30947 H 2934.58 1.79852 -0.975413 0
M  V30 30948 H 2934.59 4.07902 -0.0895254 0
M  V30 30949 H 2933.27 3.97085 -1.23679 0
M  V30 30950 H 2931.84 3.68484 0.572204 0
M  V30 30951 N 2934.03 0.461222 1.507 0
M  V30 30952 C 2934.96 -0.328144 2.31183 0
M  V30 30953 C 2935.94 -0.999384 1.37646 0
M  V30 30954 O 2937.12 -0.998451 1.66567 0
M  V30 30955 C 2934.25 -1.41615 3.17116 0
M  V30 30956 C 2933.21 -0.867074 4.19125 0
M  V30 30957 C 2932.53 -2.05263 4.93732 0
M  V30 30958 C 2933.83 0.1149 5.22174 0
M  V30 30959 H 2935.53 0.343553 2.97422 0
M  V30 30960 H 2933.07 0.166666 1.43032 0
M  V30 30961 H 2935.03 -1.97578 3.72211 0
M  V30 30962 H 2933.75 -2.11648 2.48742 0
M  V30 30963 H 2932.41 -0.329493 3.65116 0
M  V30 30964 H 2932.06 -2.73971 4.2184 0
M  V30 30965 H 2931.76 -1.69151 5.62727 0
M  V30 30966 H 2933.28 -2.61734 5.51659 0
M  V30 30967 H 2934.7 -0.355215 5.72198 0
M  V30 30968 H 2933.09 0.389794 5.98833 0
M  V30 30969 H 2934.16 1.044 4.73528 0
M  V30 30970 N 2935.51 -1.56408 0.193449 0
M  V30 30971 C 2936.73 -2.01916 -0.451402 0
M  V30 30972 C 2937.15 -1.07359 -1.55304 0
M  V30 30973 O 2936.51 -0.0781832 -1.82332 0
M  V30 30974 C 2936.56 -3.47126 -1.00925 0
M  V30 30975 O 2936.28 -4.38073 0.0484393 0
M  V30 30976 C 2937.78 -4.08143 -1.73014 0
M  V30 30977 H 2935 -0.661334 -0.113484 0
M  V30 30978 H 2937.54 -2.02263 0.301671 0
M  V30 30979 H 2935.7 -3.47484 -1.71271 0
M  V30 30980 H 2936.11 -5.23218 -0.366552 0
M  V30 30981 H 2937.59 -5.11605 -2.0728 0
M  V30 30982 H 2938.06 -3.51507 -2.63324 0
M  V30 30983 H 2938.67 -4.11553 -1.07257 0
M  V30 30984 N 2936.98 0.0801629 -1.57396 0
M  V30 30985 C 2938.21 0.797875 -1.91439 0
M  V30 30986 C 2938.63 1.70748 -0.789105 0
M  V30 30987 O 2937.99 1.79447 0.258539 0
M  V30 30988 C 2938.04 1.57461 -3.24405 0
M  V30 30989 O 2937.14 2.68468 -3.13047 0
M  V30 30990 H 2936.49 0.218232 -0.627113 0
M  V30 30991 H 2939.02 0.0509131 -2.04537 0
M  V30 30992 H 2939.03 1.95565 -3.58076 0
M  V30 30993 H 2937.7 0.907157 -4.05886 0
M  V30 30994 H 2936.28 2.33282 -2.90919 0
M  V30 30995 N 2938.46 1.53634 0.351355 0
M  V30 30996 C 2939.37 1.84055 1.45468 0
M  V30 30997 C 2940.39 0.730043 1.57944 0
M  V30 30998 O 2941.56 1.02156 1.73569 0
M  V30 30999 C 2938.63 2.03686 2.80558 0
M  V30 31000 C 2937.69 3.27563 2.77491 0
M  V30 31001 C 2936.92 3.46248 4.06138 0
M  V30 31002 O 2937.15 2.68931 5.03023 0
M  V30 31003 O 2936.08 4.39652 4.11084 0
M  V30 31004 H 2939.91 2.77819 1.2268 0
M  V30 31005 H 2937.49 1.39191 0.542802 0
M  V30 31006 H 2939.37 2.18089 3.60576 0
M  V30 31007 H 2938.05 1.13111 3.03294 0
M  V30 31008 H 2936.96 3.18571 1.96121 0
M  V30 31009 H 2938.29 4.18105 2.59709 0
M  V30 31010 N 2939.94 -0.611943 1.45234 0
M  V30 31011 C 2941.19 -1.36713 1.48298 0
M  V30 31012 C 2941.5 -1.95187 0.127094 0
M  V30 31013 O 2942.71 -2.71477 0.0353543 0
M  V30 31014 C 2941.16 -2.47623 2.61172 0
M  V30 31015 C 2940.77 -1.9558 4.03054 0
M  V30 31016 C 2942.52 -3.24669 2.73478 0
M  V30 31017 C 2940.42 -3.03945 5.07318 0
M  V30 31018 H 2939.35 -0.513831 0.551809 0
M  V30 31019 H 2942 -0.656329 1.71361 0
M  V30 31020 H 2940.39 -3.21368 2.31384 0
M  V30 31021 H 2941.56 -1.28573 4.42499 0
M  V30 31022 H 2939.88 -1.31291 3.9516 0
M  V30 31023 H 2942.47 -4.05488 3.48545 0
M  V30 31024 H 2942.82 -3.75394 1.79959 0
M  V30 31025 H 2943.35 -2.58022 3.02769 0
M  V30 31026 H 2940.09 -2.58143 6.0253 0
M  V30 31027 H 2939.61 -3.69533 4.72446 0
M  V30 31028 H 2941.29 -3.68401 5.31874 0
M  V30 31029 N 2941.42 -1.32452 -0.854063 0
M  V30 31030 C 2942.66 -1.23228 -1.61067 0
M  V30 31031 C 2943 0.205315 -1.93112 0
M  V30 31032 O 2942.27 1.14262 -1.57399 0
M  V30 31033 C 2942.56 -2.09254 -2.93061 0
M  V30 31034 C 2942.41 -3.61395 -2.67794 0
M  V30 31035 C 2943.73 -1.95413 -3.94337 0
M  V30 31036 H 2940.85 -0.448996 -0.584441 0
M  V30 31037 H 2943.49 -1.62403 -0.98616 0
M  V30 31038 H 2941.64 -1.75974 -3.4636 0
M  V30 31039 H 2943.31 -4.04891 -2.21045 0
M  V30 31040 H 2941.55 -3.84031 -2.01749 0
M  V30 31041 H 2942.22 -4.16914 -3.61783 0
M  V30 31042 H 2944.7 -2.24568 -3.50297 0
M  V30 31043 H 2943.58 -2.5788 -4.8455 0
M  V30 31044 H 2943.84 -0.921941 -4.3238 0
M  V30 31045 N 2942.9 1.07041 -1.15672 0
M  V30 31046 C 2944.12 1.8395 -0.957978 0
M  V30 31047 C 2944.55 1.81639 0.488775 0
M  V30 31048 O 2943.91 1.21164 1.34866 0
M  V30 31049 C 2943.95 3.28797 -1.4807 0
M  V30 31050 O 2943.06 4.06722 -0.681993 0
M  V30 31051 H 2942.4 0.569473 -0.341463 0
M  V30 31052 H 2944.93 1.35012 -1.5373 0
M  V30 31053 H 2944.94 3.79627 -1.4949 0
M  V30 31054 H 2943.61 3.29794 -2.53394 0
M  V30 31055 H 2942.19 3.65531 -0.737676 0
M  V30 31056 N 2944.38 0.954014 1.25445 0
M  V30 31057 C 2945.29 0.480304 2.29631 0
M  V30 31058 C 2946.3 -0.452041 1.68026 0
M  V30 31059 O 2947.48 -0.328437 1.98704 0
M  V30 31060 C 2944.54 -0.234913 3.45903 0
M  V30 31061 C 2943.6 0.735569 4.22951 0
M  V30 31062 C 2942.84 0.0543895 5.33672 0
M  V30 31063 O 2943.06 -1.16008 5.58479 0
M  V30 31064 O 2941.99 0.739614 5.97339 0
M  V30 31065 H 2945.82 1.34607 2.7224 0
M  V30 31066 H 2943.4 0.720442 1.30882 0
M  V30 31067 H 2945.29 -0.637268 4.16554 0
M  V30 31068 H 2943.96 -1.07586 3.05298 0
M  V30 31069 H 2942.87 1.18812 3.54732 0
M  V30 31070 H 2944.2 1.54452 4.67339 0
M  V30 31071 N 2945.85 -1.40063 0.722513 0
M  V30 31072 C 2947.26 -1.83642 0.336539 0
M  V30 31073 C 2947.62 -1.60392 -1.12999 0
M  V30 31074 O 2946.74 -1.08845 -1.87034 0
M  V30 31075 C 2947.34 -3.33372 0.604044 0
M  V30 31076 C 2945.89 -3.75418 0.271703 0
M  V30 31077 C 2945.04 -2.63201 0.872945 0
M  V30 31078 H 2947.99 -1.29232 0.921131 0
M  V30 31079 H 2948.01 -3.80283 -0.128404 0
M  V30 31080 H 2947.53 -3.50262 1.67147 0
M  V30 31081 H 2945.63 -3.6412 -0.790391 0
M  V30 31082 H 2945.74 -4.73264 0.74554 0
M  V30 31083 H 2944.1 -2.52921 0.300475 0
M  V30 31084 H 2944.89 -2.82901 1.94478 0
M  V30 31085 N 2947.33 -0.469207 -1.50453 0
M  V30 31086 C 2948.56 0.0864528 -2.0722 0
M  V30 31087 C 2948.98 1.32913 -1.331 0
M  V30 31088 O 2948.34 1.77313 -0.378115 0
M  V30 31089 C 2948.39 0.355321 -3.58845 0
M  V30 31090 O 2947.49 1.43615 -3.86586 0
M  V30 31091 H 2946.83 -0.0121531 -0.663889 0
M  V30 31092 H 2949.36 -0.659708 -1.93672 0
M  V30 31093 H 2949.37 0.596376 -4.03618 0
M  V30 31094 H 2948.05 -0.55277 -4.1221 0
M  V30 31095 H 2946.62 1.18256 -3.53652 0
M  V30 31096 N 2948.81 1.56303 -0.201741 0
M  V30 31097 C 2950.05 1.99666 0.43736 0
M  V30 31098 C 2950.41 1.08595 1.58339 0
M  V30 31099 O 2951.61 1.41221 2.28714 0
M  V30 31100 C 2949.89 3.46409 0.879511 0
M  V30 31101 S 2951.44 4.11798 1.51551 0
M  V30 31102 H 2948.26 0.697159 0.139609 0
M  V30 31103 H 2950.86 1.93084 -0.306371 0
M  V30 31104 H 2949.57 4.10385 0.0354574 0
M  V30 31105 H 2949.1 3.56822 1.65654 0
M  V30 31106 H 2951.11 4.09352 2.80438 0
M  V30 31107 N 2950.29 -0.0718147 1.57436 0
M  V30 31108 C 2951.51 -0.787712 1.91859 0
M  V30 31109 C 2951.94 -1.70327 0.798149 0
M  V30 31110 O 2951.3 -1.79582 -0.249018 0
M  V30 31111 C 2951.34 -1.55738 3.25235 0
M  V30 31112 O 2950.45 -2.66804 3.14467 0
M  V30 31113 H 2949.79 -0.214903 0.628262 0
M  V30 31114 H 2952.32 -0.0400653 2.04561 0
M  V30 31115 H 2952.33 -1.93663 3.59108 0
M  V30 31116 H 2951 -0.88562 4.06361 0
M  V30 31117 H 2949.58 -2.31736 2.92152 0
M  V30 31118 N 2951.77 -1.53818 -0.343203 0
M  V30 31119 C 2952.7 -1.84817 -1.42706 0
M  V30 31120 C 2953.68 -0.703324 -1.54879 0
M  V30 31121 O 2954.86 -0.955267 -1.69081 0
M  V30 31122 C 2951.99 -2.05806 -2.79752 0
M  V30 31123 C 2950.95 -3.21624 -2.82386 0
M  V30 31124 C 2950.27 -3.27947 -4.22321 0
M  V30 31125 C 2951.57 -4.59725 -2.47892 0
M  V30 31126 H 2953.27 -2.75587 -1.17013 0
M  V30 31127 H 2950.81 -1.32603 -0.561462 0
M  V30 31128 H 2952.76 -2.26076 -3.55623 0
M  V30 31129 H 2951.49 -1.11766 -3.06881 0
M  V30 31130 H 2950.15 -3.0121 -2.08968 0
M  V30 31131 H 2949.8 -2.31502 -4.4656 0
M  V30 31132 H 2949.5 -4.05776 -4.24994 0
M  V30 31133 H 2951.02 -3.50428 -5.00033 0
M  V30 31134 H 2952.43 -4.80006 -3.13475 0
M  V30 31135 H 2950.83 -5.39959 -2.61848 0
M  V30 31136 H 2951.9 -4.6331 -1.43079 0
M  V30 31137 N 2953.24 0.604233 -1.45557 0
M  V30 31138 C 2954.21 1.6967 -1.54094 0
M  V30 31139 C 2955.21 1.55215 -0.420103 0
M  V30 31140 O 2956.4 1.60222 -0.683699 0
M  V30 31141 C 2953.53 3.08961 -1.44068 0
M  V30 31142 H 2954.72 1.63466 -2.51434 0
M  V30 31143 H 2952.27 0.82025 -1.33047 0
M  V30 31144 H 2953.01 3.20739 -0.479258 0
M  V30 31145 H 2952.79 3.20861 -2.25368 0
M  V30 31146 H 2954.28 3.8853 -1.53082 0
M  V30 31147 N 2954.72 1.32903 0.847027 0
M  V30 31148 C 2955.65 1.25095 1.97164 0
M  V30 31149 C 2956.63 0.133191 1.69578 0
M  V30 31150 O 2957.82 0.321625 1.91518 0
M  V30 31151 C 2954.95 0.981064 3.33155 0
M  V30 31152 C 2953.9 2.06088 3.75116 0
M  V30 31153 C 2953.23 1.64327 5.08823 0
M  V30 31154 C 2954.53 3.47676 3.89768 0
M  V30 31155 H 2956.22 2.19187 2.03954 0
M  V30 31156 H 2953.77 1.05519 0.979888 0
M  V30 31157 H 2955.72 0.912964 4.11391 0
M  V30 31158 H 2954.44 0.00451299 3.266 0
M  V30 31159 H 2953.1 2.11927 2.99137 0
M  V30 31160 H 2952.75 0.653964 4.98731 0
M  V30 31161 H 2952.45 2.36582 5.37869 0
M  V30 31162 H 2953.98 1.58968 5.89543 0
M  V30 31163 H 2955.39 3.44384 4.58337 0
M  V30 31164 H 2953.79 4.18346 4.30241 0
M  V30 31165 H 2954.86 3.86778 2.92456 0
M  V30 31166 N 2956.2 -1.06426 1.16238 0
M  V30 31167 C 2957.43 -1.829 0.967216 0
M  V30 31168 C 2957.84 -1.82476 -0.484569 0
M  V30 31169 O 2957.2 -1.24297 -1.33628 0
M  V30 31170 C 2957.25 -3.29573 1.48539 0
M  V30 31171 O 2956.97 -3.30105 2.88032 0
M  V30 31172 C 2958.47 -4.22782 1.33305 0
M  V30 31173 H 2955.69 -0.576748 0.342933 0
M  V30 31174 H 2958.24 -1.34283 1.54234 0
M  V30 31175 H 2956.39 -3.75506 0.952579 0
M  V30 31176 H 2956.81 -4.21812 3.11729 0
M  V30 31177 H 2958.28 -5.23728 1.74394 0
M  V30 31178 H 2958.76 -4.38317 0.278433 0
M  V30 31179 H 2959.36 -3.82694 1.85541 0
M  V30 31180 N 2957.68 -0.960653 -1.24937 0
M  V30 31181 C 2958.96 -0.53584 -1.88117 0
M  V30 31182 C 2959.34 0.986976 -1.86607 0
M  V30 31183 O 2958.68 1.85533 -1.33378 0
M  V30 31184 C 2958.89 -1.11933 -3.30563 0
M  V30 31185 C 2960.24 -1.19988 -4.07293 0
M  V30 31186 O 2961.27 -1.07132 -3.39707 0
M  V30 31187 O 2960.12 -1.40228 -5.28203 0
M  V30 31188 H 2957.22 -0.177646 -0.807695 0
M  V30 31189 H 2959.76 -1.05447 -1.32962 0
M  V30 31190 H 2958.54 -2.16237 -3.26125 0
M  V30 31191 H 2958.16 -0.584314 -3.93283 0
M  V30 31192 N 2959.16 1.39677 -0.729931 0
M  V30 31193 C 2960.43 1.94552 -0.202184 0
M  V30 31194 C 2960.81 1.66709 1.29504 0
M  V30 31195 O 2960.16 0.992553 2.05817 0
M  V30 31196 C 2960.37 3.44947 -0.53034 0
M  V30 31197 C 2961.72 4.21913 -0.476882 0
M  V30 31198 O 2962.74 3.53122 -0.467234 0
M  V30 31199 O 2961.6 5.44501 -0.466965 0
M  V30 31200 H 2958.7 0.826251 -0.0351789 0
M  V30 31201 H 2961.24 1.49205 -0.808444 0
M  V30 31202 H 2960.01 3.58627 -1.56532 0
M  V30 31203 H 2959.64 3.97461 0.10515 0
M  V30 31204 N 2960.63 0.47718 1.50202 0
M  V30 31205 C 2961.86 -0.0754622 2.07263 0
M  V30 31206 C 2962.28 -1.32206 1.33803 0
M  V30 31207 O 2961.64 -1.7711 0.387513 0
M  V30 31208 C 2961.69 -0.336285 3.59029 0
M  V30 31209 O 2960.79 -1.41563 3.87342 0
M  V30 31210 H 2960.14 0.0156737 0.663815 0
M  V30 31211 H 2962.67 0.66997 1.9332 0
M  V30 31212 H 2962.68 -0.574963 4.03928 0
M  V30 31213 H 2961.35 0.574623 4.11911 0
M  V30 31214 H 2959.93 -1.16379 3.54275 0
M  V30 31215 N 2962.11 -1.56194 0.210027 0
M  V30 31216 C 2963.04 -2.2277 -0.699707 0
M  V30 31217 C 2964.02 -1.19562 -1.20991 0
M  V30 31218 O 2965.21 -1.48114 -1.25602 0
M  V30 31219 C 2962.34 -2.89867 -1.91297 0
M  V30 31220 C 2961.29 -3.99447 -1.53708 0
M  V30 31221 C 2960.62 -4.53782 -2.82818 0
M  V30 31222 C 2961.92 -5.17092 -0.735746 0
M  V30 31223 H 2963.61 -2.9905 -0.144663 0
M  V30 31224 H 2961.16 -1.43839 -0.0681392 0
M  V30 31225 H 2963.11 -3.35129 -2.55474 0
M  V30 31226 H 2961.84 -2.11015 -2.49279 0
M  V30 31227 H 2960.49 -3.54899 -0.918829 0
M  V30 31228 H 2960.14 -3.71675 -3.3892 0
M  V30 31229 H 2959.84 -5.27731 -2.58406 0
M  V30 31230 H 2961.37 -5.01755 -3.47957 0
M  V30 31231 H 2962.78 -5.58806 -1.28095 0
M  V30 31232 H 2961.18 -5.97201 -0.589167 0
M  V30 31233 H 2962.25 -4.84202 0.260089 0
M  V30 31234 N 2963.59 0.0634645 -1.57472 0
M  V30 31235 C 2965 0.614306 -1.76304 0
M  V30 31236 C 2965.35 1.77469 -0.836609 0
M  V30 31237 O 2964.48 2.16388 -0.0227564 0
M  V30 31238 C 2965.07 1.12116 -3.19711 0
M  V30 31239 C 2963.63 1.6178 -3.39859 0
M  V30 31240 C 2962.78 0.540797 -2.71976 0
M  V30 31241 H 2965.73 -0.16273 -1.57863 0
M  V30 31242 H 2965.75 1.98973 -3.2433 0
M  V30 31243 H 2965.26 0.276404 -3.87114 0
M  V30 31244 H 2963.36 2.48553 -2.77582 0
M  V30 31245 H 2963.48 1.689 -4.48341 0
M  V30 31246 H 2961.84 0.987813 -2.34764 0
M  V30 31247 H 2962.62 -0.293916 -3.4204 0
M  V30 31248 N 2965.07 1.53998 0.33504 0
M  V30 31249 C 2966.35 1.6229 1.09185 0
M  V30 31250 C 2966.73 0.449495 2.06259 0
M  V30 31251 O 2966.07 -0.557405 2.21597 0
M  V30 31252 C 2966.28 2.9876 1.80398 0
M  V30 31253 C 2967.63 3.5441 2.33835 0
M  V30 31254 O 2968.66 3.0099 1.90482 0
M  V30 31255 O 2967.51 4.47868 3.13172 0
M  V30 31256 H 2964.61 0.656744 0.502609 0
M  V30 31257 H 2967.15 1.66343 0.335851 0
M  V30 31258 H 2965.93 3.75601 1.09725 0
M  V30 31259 H 2965.55 2.98334 2.62835 0
M  V30 31260 N 2966.55 -0.596505 1.45875 0
M  V30 31261 C 2967.82 -1.35625 1.40944 0
M  V30 31262 C 2968.2 -2.10926 0.0857437 0
M  V30 31263 O 2967.55 -2.08606 -0.932507 0
M  V30 31264 C 2967.76 -2.29381 2.63031 0
M  V30 31265 C 2969.11 -2.91643 3.08593 0
M  V30 31266 O 2970.13 -2.39699 2.63482 0
M  V30 31267 O 2968.99 -3.85958 3.86909 0
M  V30 31268 H 2966.09 -0.608686 0.559849 0
M  V30 31269 H 2968.63 -0.61867 1.58021 0
M  V30 31270 H 2967.4 -1.73074 3.50943 0
M  V30 31271 H 2967.03 -3.10501 2.48344 0
M  V30 31272 N 2968.02 -1.3335 -0.839967 0
M  V30 31273 C 2968.96 -1.17851 -1.95413 0
M  V30 31274 C 2969.94 -0.0742581 -1.6243 0
M  V30 31275 O 2971.12 -0.236293 -1.87013 0
M  V30 31276 C 2968.25 -0.807352 -3.28937 0
M  V30 31277 C 2967.29 -1.91894 -3.80892 0
M  V30 31278 S 2968.13 -3.52974 -4.02703 0
M  V30 31279 C 2969.28 -3.17862 -5.39179 0
M  V30 31280 H 2969.51 -2.12166 -2.08261 0
M  V30 31281 H 2967.05 -1.1818 -0.993622 0
M  V30 31282 H 2969.01 -0.599985 -4.06092 0
M  V30 31283 H 2967.67 0.117179 -3.13881 0
M  V30 31284 H 2966.86 -1.61259 -4.77506 0
M  V30 31285 H 2966.46 -2.08292 -3.10629 0
M  V30 31286 H 2968.75 -2.68619 -6.21973 0
M  V30 31287 H 2969.7 -4.13552 -5.74787 0
M  V30 31288 H 2970.1 -2.54489 -5.03881 0
M  V30 31289 N 2969.5 1.05808 -1.16801 0
M  V30 31290 C 2970.45 2.11673 -0.847268 0
M  V30 31291 C 2971.44 1.59941 0.175448 0
M  V30 31292 O 2972.63 1.76981 -0.0260913 0
M  V30 31293 C 2969.76 3.41454 -0.355506 0
M  V30 31294 C 2968.84 4 -1.40929 0
M  V30 31295 N 2969.23 4.32591 -2.62104 0
M  V30 31296 C 2967.53 4.27664 -1.26569 0
M  V30 31297 C 2968.23 4.79196 -3.29767 0
M  V30 31298 N 2967.21 4.78933 -2.57146 0
M  V30 31299 H 2971.01 2.34724 -1.76866 0
M  V30 31300 H 2968.53 1.23397 -1.05579 0
M  V30 31301 H 2970.52 4.16762 -0.107304 0
M  V30 31302 H 2969.18 3.19839 0.55976 0
M  V30 31303 H 2970.19 4.22785 -2.9912 0
M  V30 31304 H 2966.87 4.15466 -0.411576 0
M  V30 31305 H 2968.26 5.13576 -4.33231 0
M  V30 31306 N 2970.98 0.967265 1.24426 0
M  V30 31307 C 2972.21 0.646511 1.9654 0
M  V30 31308 C 2972.62 -0.783966 1.71754 0
M  V30 31309 O 2971.98 -1.52595 1.00105 0
M  V30 31310 C 2972.03 0.91116 3.49829 0
M  V30 31311 O 2971.75 2.2854 3.73766 0
M  V30 31312 C 2973.25 0.604535 4.39159 0
M  V30 31313 H 2970.47 0.241266 0.626124 0
M  V30 31314 H 2973.02 1.29508 1.58265 0
M  V30 31315 H 2971.17 0.308808 3.86167 0
M  V30 31316 H 2971.59 2.36508 4.6815 0
M  V30 31317 H 2973.06 0.840165 5.45569 0
M  V30 31318 H 2973.54 -0.461197 4.36772 0
M  V30 31319 H 2974.14 1.18677 4.08406 0
M  V30 31320 N 2972.46 -1.39288 0.737328 0
M  V30 31321 C 2973.39 -2.33221 0.114029 0
M  V30 31322 C 2974.37 -1.54032 -0.721668 0
M  V30 31323 O 2975.56 -1.82416 -0.666174 0
M  V30 31324 C 2972.69 -3.38143 -0.792259 0
M  V30 31325 C 2971.64 -4.27957 -0.0605426 0
M  V30 31326 C 2970.97 -5.23597 -1.084 0
M  V30 31327 C 2972.27 -5.10623 1.09826 0
M  V30 31328 H 2973.96 -2.85595 0.898661 0
M  V30 31329 H 2971.51 -1.37317 0.433595 0
M  V30 31330 H 2973.46 -4.02809 -1.23786 0
M  V30 31331 H 2972.18 -2.84214 -1.60903 0
M  V30 31332 H 2970.84 -3.64774 0.365457 0
M  V30 31333 H 2970.49 -4.65963 -1.8944 0
M  V30 31334 H 2970.19 -5.84537 -0.599166 0
M  V30 31335 H 2971.71 -5.9114 -1.52925 0
M  V30 31336 H 2973.13 -5.68621 0.730992 0
M  V30 31337 H 2971.52 -5.80717 1.51288 0
M  V30 31338 H 2972.59 -4.45318 1.91886 0
M  V30 31339 N 2973.94 -0.485139 -1.49947 0
M  V30 31340 C 2974.87 0.291323 -2.31676 0
M  V30 31341 C 2975.85 0.977359 -1.39218 0
M  V30 31342 O 2977.03 0.971825 -1.68134 0
M  V30 31343 C 2974.16 1.36552 -3.19329 0
M  V30 31344 C 2973.12 0.800285 -4.20451 0
M  V30 31345 C 2972.44 1.97382 -4.96935 0
M  V30 31346 C 2973.74 -0.197959 -5.21925 0
M  V30 31347 H 2975.44 -0.390827 -2.96838 0
M  V30 31348 H 2972.98 -0.189401 -1.42749 0
M  V30 31349 H 2974.94 1.91631 -3.75307 0
M  V30 31350 H 2973.66 2.07664 -2.52078 0
M  V30 31351 H 2972.32 0.271364 -3.65594 0
M  V30 31352 H 2971.97 2.67225 -4.26145 0
M  V30 31353 H 2971.67 1.60177 -5.65347 0
M  V30 31354 H 2973.19 2.52925 -5.55753 0
M  V30 31355 H 2974.61 0.264138 -5.72691 0
M  V30 31356 H 2973 -0.485014 -5.98137 0
M  V30 31357 H 2974.07 -1.1192 -4.71807 0
M  V30 31358 N 2975.42 1.56081 -0.218307 0
M  V30 31359 C 2976.35 2.23138 0.687883 0
M  V30 31360 C 2977.33 1.20202 1.20355 0
M  V30 31361 O 2978.51 1.48778 1.24815 0
M  V30 31362 C 2975.64 2.90877 1.89757 0
M  V30 31363 C 2974.6 4.00256 1.51588 0
M  V30 31364 C 2973.92 4.55276 2.80407 0
M  V30 31365 C 2975.22 5.17475 0.708313 0
M  V30 31366 H 2976.92 2.99123 0.128802 0
M  V30 31367 H 2974.46 1.43873 0.0605101 0
M  V30 31368 H 2976.41 3.36479 2.53693 0
M  V30 31369 H 2975.14 2.12334 2.48157 0
M  V30 31370 H 2973.8 3.55381 0.899995 0
M  V30 31371 H 2973.45 3.73467 3.36944 0
M  V30 31372 H 2973.15 5.29094 2.55603 0
M  V30 31373 H 2974.67 5.03593 3.45291 0
M  V30 31374 H 2976.08 5.59478 1.2513 0
M  V30 31375 H 2974.48 5.97505 0.557488 0
M  V30 31376 H 2975.55 4.84057 -0.285764 0
M  V30 31377 N 2976.89 -0.0551124 1.57504 0
M  V30 31378 C 2978.12 -0.767318 1.92684 0
M  V30 31379 C 2978.54 -1.69471 0.81617 0
M  V30 31380 O 2977.9 -1.79836 -0.229957 0
M  V30 31381 C 2977.95 -1.5228 3.26869 0
M  V30 31382 O 2977.05 -2.63454 3.17279 0
M  V30 31383 H 2976.39 -0.208227 0.630506 0
M  V30 31384 H 2978.92 -0.0183666 2.04592 0
M  V30 31385 H 2978.93 -1.89844 3.61142 0
M  V30 31386 H 2977.61 -0.84247 4.07278 0
M  V30 31387 H 2976.19 -2.28624 2.94593 0
M  V30 31388 N 2978.37 -1.54173 -0.326869 0
M  V30 31389 C 2979.33 -1.82612 -1.38512 0
M  V30 31390 C 2980.33 -0.697796 -1.4487 0
M  V30 31391 O 2981.52 -0.966104 -1.44955 0
M  V30 31392 C 2978.66 -1.98318 -2.77278 0
M  V30 31393 H 2979.85 -2.77161 -1.14551 0
M  V30 31394 H 2977.4 -1.4584 -0.562174 0
M  V30 31395 H 2978.14 -1.05969 -3.06498 0
M  V30 31396 H 2977.92 -2.8042 -2.74056 0
M  V30 31397 H 2979.41 -2.21779 -3.53841 0
M  V30 31398 N 2979.85 0.58876 -1.4619 0
M  V30 31399 C 2980.78 1.7086 -1.59151 0
M  V30 31400 C 2981.76 1.64254 -0.442112 0
M  V30 31401 O 2982.95 1.82364 -0.667608 0
M  V30 31402 C 2980.08 3.09495 -1.57576 0
M  V30 31403 C 2979.03 3.30928 -2.71424 0
M  V30 31404 C 2978.36 4.70028 -2.54908 0
M  V30 31405 C 2979.66 3.19349 -4.13296 0
M  V30 31406 H 2981.35 1.60269 -2.52892 0
M  V30 31407 H 2978.9 0.769617 -1.21708 0
M  V30 31408 H 2980.85 3.87652 -1.65238 0
M  V30 31409 H 2979.57 3.20971 -0.603761 0
M  V30 31410 H 2978.23 2.55167 -2.63221 0
M  V30 31411 H 2977.88 4.78261 -1.55805 0
M  V30 31412 H 2977.58 4.85321 -3.31266 0
M  V30 31413 H 2979.1 5.50361 -2.64452 0
M  V30 31414 H 2980.52 3.87358 -4.22643 0
M  V30 31415 H 2978.91 3.46166 -4.90193 0
M  V30 31416 H 2979.98 2.16514 -4.33877 0
M  V30 31417 N 2981.33 1.33794 0.832883 0
M  V30 31418 C 2982.24 1.26595 1.97511 0
M  V30 31419 C 2983.25 0.175421 1.73113 0
M  V30 31420 O 2984.43 0.400097 1.97386 0
M  V30 31421 C 2981.49 1.01127 3.31624 0
M  V30 31422 C 2980.56 2.1924 3.69097 0
M  V30 31423 C 2979.79 1.94977 4.96809 0
M  V30 31424 O 2980.01 0.903054 5.63206 0
M  V30 31425 O 2978.95 2.81669 5.31927 0
M  V30 31426 H 2982.77 2.22667 2.06526 0
M  V30 31427 H 2980.36 1.139 0.966806 0
M  V30 31428 H 2982.24 0.886643 4.11967 0
M  V30 31429 H 2980.91 0.0808789 3.23599 0
M  V30 31430 H 2979.82 2.37259 2.89239 0
M  V30 31431 H 2981.15 3.10634 3.81795 0
M  V30 31432 N 2982.81 -1.05187 1.1736 0
M  V30 31433 C 2984.03 -1.82402 0.987122 0
M  V30 31434 C 2984.46 -1.82393 -0.459816 0
M  V30 31435 O 2983.81 -1.23294 -1.32922 0
M  V30 31436 C 2983.86 -3.264 1.53282 0
M  V30 31437 O 2982.97 -4.05585 0.746612 0
M  V30 31438 H 2982.31 -0.563968 0.35048 0
M  V30 31439 H 2984.84 -1.32549 1.55859 0
M  V30 31440 H 2984.85 -3.77201 1.55511 0
M  V30 31441 H 2983.52 -3.25721 2.58608 0
M  V30 31442 H 2982.1 -3.64311 0.795735 0
M  V30 31443 N 2984.28 -0.97385 -1.23911 0
M  V30 31444 C 2985.23 -0.501019 -2.2714 0
M  V30 31445 C 2986.23 0.438602 -1.63623 0
M  V30 31446 O 2987.43 0.313216 -1.77254 0
M  V30 31447 H 2983.81 -0.143573 -0.738167 0
M  V30 31448 H 2985.78 -1.38351 -2.64389 0
M  V30 31449 C 2984.53 0.187316 -3.47195 0
M  V30 31450 H 2983.85 -0.526605 -3.96317 0
M  V30 31451 H 2985.29 0.481888 -4.21253 0
M  V30 31452 C 2983.75 1.41637 -3.05681 0
M  V30 31453 O 2984.28 2.51303 -3.13384 0
M  V30 31454 N 2982.48 1.28464 -2.60663 0
M  V30 31455 H 2982.03 0.392335 -2.54595 0
M  V30 31456 H 2981.99 2.10809 -2.33253 0
M  V30 31457 N 2985.76 1.38895 -0.744705 0
M  V30 31458 C 2986.69 2.28122 -0.0596842 0
M  V30 31459 C 2987.67 1.44907 0.737614 0
M  V30 31460 O 2988.86 1.74285 0.718124 0
M  V30 31461 C 2985.98 3.25896 0.922476 0
M  V30 31462 C 2985.03 4.2597 0.212491 0
M  V30 31463 S 2985.86 5.24487 -1.08044 0
M  V30 31464 C 2987.02 6.25818 -0.101124 0
M  V30 31465 H 2987.25 2.85873 -0.816339 0
M  V30 31466 H 2984.78 1.44764 -0.536907 0
M  V30 31467 H 2986.74 3.82744 1.48383 0
M  V30 31468 H 2985.4 2.67145 1.65204 0
M  V30 31469 H 2984.6 4.9485 0.956019 0
M  V30 31470 H 2984.2 3.72972 -0.277094 0
M  V30 31471 H 2986.49 6.73491 0.735954 0
M  V30 31472 H 2987.43 7.04038 -0.75733 0
M  V30 31473 H 2987.84 5.63827 0.275607 0
M  V30 31474 N 2987.24 0.493084 1.49688 0
M  V30 31475 C 2988.17 -0.326155 2.26868 0
M  V30 31476 C 2989.19 -0.937674 1.33085 0
M  V30 31477 O 2990.37 -0.822354 1.58429 0
M  V30 31478 C 2987.47 -1.47345 3.05193 0
M  V30 31479 C 2986.65 -0.970692 4.26493 0
M  V30 31480 C 2985.71 -1.99464 4.8693 0
M  V30 31481 O 2984.73 -1.56638 5.47223 0
M  V30 31482 N 2985.93 -3.32448 4.75877 0
M  V30 31483 H 2988.7 0.335599 2.97815 0
M  V30 31484 H 2986.26 0.325157 1.58601 0
M  V30 31485 H 2988.25 -2.15583 3.425 0
M  V30 31486 H 2986.82 -2.0395 2.36904 0
M  V30 31487 H 2986.04 -0.11346 3.94037 0
M  V30 31488 H 2987.33 -0.613068 5.05093 0
M  V30 31489 H 2986.73 -3.69936 4.27976 0
M  V30 31490 H 2985.29 -3.96422 5.1739 0
M  V30 31491 N 2988.72 -1.55963 0.226582 0
M  V30 31492 C 2990.13 -1.84583 -0.280349 0
M  V30 31493 C 2990.48 -1.14807 -1.59103 0
M  V30 31494 O 2989.61 -0.419452 -2.12296 0
M  V30 31495 C 2990.2 -3.34856 -0.51544 0
M  V30 31496 C 2988.76 -3.63775 -0.966669 0
M  V30 31497 C 2987.91 -2.77281 -0.0325266 0
M  V30 31498 H 2990.86 -1.52197 0.449653 0
M  V30 31499 H 2990.88 -3.55335 -1.36079 0
M  V30 31500 H 2990.39 -3.85613 0.438661 0
M  V30 31501 H 2988.49 -3.18479 -1.93395 0
M  V30 31502 H 2988.6 -4.71721 -0.837596 0
M  V30 31503 H 2986.97 -2.48905 -0.540235 0
M  V30 31504 H 2987.75 -3.30838 0.916582 0
M  V30 31505 N 2990.2 0.0467589 -1.57531 0
M  V30 31506 C 2991.15 1.06028 -2.01847 0
M  V30 31507 C 2992.13 1.33057 -0.904685 0
M  V30 31508 O 2993.32 1.32939 -1.1686 0
M  V30 31509 C 2990.45 2.36674 -2.48677 0
M  V30 31510 C 2989.54 2.12812 -3.66841 0
M  V30 31511 N 2989.93 1.58951 -4.80175 0
M  V30 31512 C 2988.23 2.43176 -3.73873 0
M  V30 31513 C 2988.93 1.50484 -5.61898 0
M  V30 31514 N 2987.9 1.97422 -5.06483 0
M  V30 31515 H 2991.71 0.637572 -2.86901 0
M  V30 31516 H 2989.22 0.253398 -1.60411 0
M  V30 31517 H 2991.22 3.10072 -2.78677 0
M  V30 31518 H 2989.88 2.7964 -1.65021 0
M  V30 31519 H 2990.89 1.27465 -5.01969 0
M  V30 31520 H 2987.56 2.89337 -3.00982 0
M  V30 31521 H 2988.95 1.09482 -6.6292 0
M  V30 31522 N 2991.67 1.54344 0.318688 0
M  V30 31523 C 2993.09 1.63968 0.892821 0
M  V30 31524 C 2993.44 0.536888 1.88711 0
M  V30 31525 O 2992.56 -0.329419 2.13878 0
M  V30 31526 C 2993.16 2.97225 1.62613 0
M  V30 31527 C 2991.72 3.09028 2.14892 0
M  V30 31528 C 2990.86 2.59562 0.975863 0
M  V30 31529 H 2993.81 1.58409 0.0961409 0
M  V30 31530 H 2993.83 2.87658 2.49065 0
M  V30 31531 H 2993.35 3.77467 0.902219 0
M  V30 31532 H 2991.45 2.3347 2.90383 0
M  V30 31533 H 2991.56 4.14908 2.39558 0
M  V30 31534 H 2989.92 2.15577 1.35642 0
M  V30 31535 H 2990.71 3.42266 0.266193 0
M  V30 31536 N 2993.15 -0.580999 1.465 0
M  V30 31537 C 2994.38 -1.36514 1.55472 0
M  V30 31538 C 2994.8 -1.87775 0.19644 0
M  V30 31539 O 2994.15 -1.6371 -0.806548 0
M  V30 31540 C 2994.2 -2.55149 2.56088 0
M  V30 31541 O 2993.92 -2.06012 3.8664 0
M  V30 31542 C 2995.43 -3.47679 2.75017 0
M  V30 31543 H 2992.65 -0.416977 0.52571 0
M  V30 31544 H 2995.19 -0.706144 1.91922 0
M  V30 31545 H 2993.34 -3.17035 2.22638 0
M  V30 31546 H 2993.76 -2.83285 4.41418 0
M  V30 31547 H 2995.23 -4.27397 3.49336 0
M  V30 31548 H 2995.71 -3.99722 1.81985 0
M  V30 31549 H 2996.32 -2.91627 3.0957 0
M  V30 31550 N 2994.63 -1.34234 -0.825776 0
M  V30 31551 C 2995.54 -1.27641 -1.96837 0
M  V30 31552 C 2996.56 -0.184599 -1.73018 0
M  V30 31553 O 2997.73 -0.410559 -1.97171 0
M  V30 31554 C 2994.8 -1.02885 -3.31083 0
M  V30 31555 C 2993.86 -2.21194 -3.67929 0
M  V30 31556 C 2993.09 -1.97609 -4.95768 0
M  V30 31557 O 2993.31 -0.932909 -5.62719 0
M  V30 31558 O 2992.25 -2.84486 -5.30426 0
M  V30 31559 H 2996.07 -2.23759 -2.05342 0
M  V30 31560 H 2993.66 -1.14411 -0.960752 0
M  V30 31561 H 2995.54 -0.908478 -4.11491 0
M  V30 31562 H 2994.22 -0.098039 -3.23552 0
M  V30 31563 H 2993.12 -2.38789 -2.87977 0
M  V30 31564 H 2994.46 -3.12655 -3.80142 0
M  V30 31565 N 2996.11 1.04563 -1.17917 0
M  V30 31566 C 2997.04 2.14394 -0.92507 0
M  V30 31567 C 2998.02 1.69561 0.135345 0
M  V30 31568 O 2999.2 1.94193 -0.0162115 0
M  V30 31569 C 2996.33 3.44443 -0.44453 0
M  V30 31570 C 2995.29 4.02875 -1.44486 0
M  V30 31571 C 2994.61 5.28343 -0.822025 0
M  V30 31572 C 2995.91 4.39627 -2.82003 0
M  V30 31573 H 2997.61 2.35908 -1.84358 0
M  V30 31574 H 2995.15 1.13374 -0.887826 0
M  V30 31575 H 2997.11 4.20633 -0.254152 0
M  V30 31576 H 2995.83 3.22601 0.509536 0
M  V30 31577 H 2994.49 3.28761 -1.62208 0
M  V30 31578 H 2994.14 5.02808 0.139072 0
M  V30 31579 H 2993.84 5.68399 -1.48986 0
M  V30 31580 H 2995.36 6.07215 -0.642065 0
M  V30 31581 H 2996.78 5.06823 -2.67961 0
M  V30 31582 H 2995.17 4.90717 -3.45423 0
M  V30 31583 H 2996.24 3.49681 -3.35933 0
M  V30 31584 N 2997.59 0.980408 1.23393 0
M  V30 31585 C 2999 0.68627 1.7363 0
M  V30 31586 C 2999.35 -0.79751 1.7926 0
M  V30 31587 O 2998.47 -1.62376 1.43049 0
M  V30 31588 C 2999.07 1.23905 3.1533 0
M  V30 31589 C 2997.63 0.994557 3.63023 0
M  V30 31590 C 2996.77 1.36677 2.41277 0
M  V30 31591 H 2999.73 1.15425 1.08916 0
M  V30 31592 H 2999.75 0.61148 3.75554 0
M  V30 31593 H 2999.26 2.31897 3.112 0
M  V30 31594 H 2997.36 -0.0692837 3.72536 0
M  V30 31595 H 2997.47 1.64914 4.49822 0
M  V30 31596 H 2995.84 0.785237 2.42293 0
M  V30 31597 H 2996.62 2.45647 2.39818 0
M  V30 31598 N 2999.06 -1.38498 0.75206 0
M  V30 31599 C 3000.31 -1.99756 0.306931 0
M  V30 31600 C 3000.63 -1.59994 -1.11476 0
M  V30 31601 O 2999.9 -0.856076 -1.76205 0
M  V30 31602 H 2998.48 -0.738783 0.110493 0
M  V30 31603 H 3001.15 -1.69287 0.965815 0
M  V30 31604 H 3000.24 -3.09913 0.368851 0
M  V30 31605 N 3000.54 -0.501015 -1.49424 0
M  V30 31606 C 3001.95 -0.0532339 -1.86624 0
M  V30 31607 C 3002.3 1.36086 -1.41334 0
M  V30 31608 O 3001.43 2.01416 -0.791231 0
M  V30 31609 C 3002.02 -0.0898288 -3.38681 0
M  V30 31610 C 3000.58 0.302611 -3.75182 0
M  V30 31611 C 2999.73 -0.462355 -2.73418 0
M  V30 31612 H 3002.68 -0.713798 -1.41741 0
M  V30 31613 H 3002.7 0.705463 -3.73903 0
M  V30 31614 H 3002.21 -1.11914 -3.71614 0
M  V30 31615 H 3000.32 1.33515 -3.47857 0
M  V30 31616 H 3000.43 -0.0168495 -4.79097 0
M  V30 31617 H 2998.79 0.087811 -2.54549 0
M  V30 31618 H 2999.58 -1.49174 -3.09196 0
M  V30 31619 N 3002.02 1.5584 -0.234849 0
M  V30 31620 C 3003.3 1.90519 0.442927 0
M  V30 31621 C 3003.68 1.154 1.76766 0
M  V30 31622 O 3003.03 0.267574 2.26928 0
M  V30 31623 C 3003.24 3.43397 0.622845 0
M  V30 31624 C 3004.58 4.14419 0.924227 0
M  V30 31625 O 3005.61 3.49069 0.70915 0
M  V30 31626 O 3004.47 5.2999 1.33313 0
M  V30 31627 H 3001.56 0.792603 0.236028 0
M  V30 31628 H 3004.11 1.67407 -0.278022 0
M  V30 31629 H 3002.88 3.90062 -0.311042 0
M  V30 31630 H 3002.5 3.72332 1.39479 0
M  V30 31631 N 3003.5 -0.038404 1.57553 0
M  V30 31632 C 3004.43 -1.04158 2.08982 0
M  V30 31633 C 3005.41 -1.383 0.990314 0
M  V30 31634 O 3006.6 -1.47347 1.26502 0
M  V30 31635 C 3003.73 -2.34531 2.56149 0
M  V30 31636 C 3002.68 -2.14656 3.70279 0
M  V30 31637 C 3002.01 -3.50708 4.03618 0
M  V30 31638 C 3003.31 -1.54036 4.99069 0
M  V30 31639 H 3005 -0.613497 2.93047 0
M  V30 31640 H 3002.55 -0.293659 1.40974 0
M  V30 31641 H 3004.5 -3.05032 2.90747 0
M  V30 31642 H 3003.22 -2.79382 1.69155 0
M  V30 31643 H 3001.88 -1.46591 3.36016 0
M  V30 31644 H 3001.53 -3.9319 3.13705 0
M  V30 31645 H 3001.23 -3.38238 4.80488 0
M  V30 31646 H 3002.75 -4.22586 4.40742 0
M  V30 31647 H 3004.17 -2.14442 5.31684 0
M  V30 31648 H 3002.56 -1.52168 5.80487 0
M  V30 31649 H 3003.63 -0.505174 4.82261 0
M  V30 31650 N 3004.98 -1.54511 -0.310498 0
M  V30 31651 C 3005.91 -1.87802 -1.38754 0
M  V30 31652 C 3006.89 -0.736018 -1.53352 0
M  V30 31653 O 3008.07 -0.990917 -1.67016 0
M  V30 31654 C 3005.2 -2.11694 -2.75323 0
M  V30 31655 C 3004.16 -3.27541 -2.75501 0
M  V30 31656 C 3003.48 -3.36832 -4.15269 0
M  V30 31657 C 3004.78 -4.6488 -2.38084 0
M  V30 31658 H 3006.48 -2.78007 -1.11141 0
M  V30 31659 H 3004.02 -1.33764 -0.533208 0
M  V30 31660 H 3005.98 -2.33568 -3.50748 0
M  V30 31661 H 3004.7 -1.1825 -3.04441 0
M  V30 31662 H 3003.36 -3.05575 -2.02532 0
M  V30 31663 H 3003.01 -2.40922 -4.41549 0
M  V30 31664 H 3002.71 -4.14699 -4.16291 0
M  V30 31665 H 3004.23 -3.60955 -4.92487 0
M  V30 31666 H 3005.65 -4.86548 -3.03223 0
M  V30 31667 H 3004.04 -5.45392 -2.50335 0
M  V30 31668 H 3005.11 -4.66241 -1.33219 0
M  V30 31669 N 3006.46 0.573222 -1.46806 0
M  V30 31670 C 3007.68 1.35688 -1.56194 0
M  V30 31671 C 3008.1 1.87668 -0.206395 0
M  V30 31672 O 3007.46 1.64136 0.797855 0
M  V30 31673 C 3007.51 2.53787 -2.57438 0
M  V30 31674 O 3007.23 2.03958 -3.87728 0
M  V30 31675 C 3008.73 3.46215 -2.76857 0
M  V30 31676 H 3005.95 0.414183 -0.527914 0
M  V30 31677 H 3008.49 0.695956 -1.92293 0
M  V30 31678 H 3006.65 3.1585 -2.24316 0
M  V30 31679 H 3007.06 2.8094 -4.42914 0
M  V30 31680 H 3008.54 4.25539 -3.51598 0
M  V30 31681 H 3009.01 3.98752 -1.84103 0
M  V30 31682 H 3009.62 2.89981 -3.11113 0
M  V30 31683 N 3007.93 1.3467 0.818645 0
M  V30 31684 C 3009.18 1.27455 1.57743 0
M  V30 31685 C 3009.51 -0.154043 1.93588 0
M  V30 31686 O 3008.79 -1.10048 1.60373 0
M  V30 31687 C 3009.07 2.1695 2.8741 0
M  V30 31688 C 3008.92 3.68368 2.58119 0
M  V30 31689 C 3010.24 2.05799 3.89018 0
M  V30 31690 H 3007.36 0.464334 0.572331 0
M  V30 31691 H 3010 1.64961 0.942755 0
M  V30 31692 H 3008.15 1.85095 3.41573 0
M  V30 31693 H 3009.83 4.1061 2.10232 0
M  V30 31694 H 3008.07 3.89245 1.91496 0
M  V30 31695 H 3008.74 4.26359 3.50602 0
M  V30 31696 H 3011.22 2.33777 3.4422 0
M  V30 31697 H 3010.09 2.70637 4.77543 0
M  V30 31698 H 3010.35 1.03625 4.29784 0
M  V30 31699 N 3009.41 -1.03936 1.1847 0
M  V30 31700 C 3010.83 -1.29369 0.934658 0
M  V30 31701 C 3011.03 -1.97509 -0.399033 0
M  V30 31702 O 3010.08 -2.2565 -1.13305 0
M  V30 31703 C 3011.4 -2.1511 2.10115 0
M  V30 31704 C 3012.94 -2.28452 2.13959 0
M  V30 31705 C 3013.42 -3.1756 3.3003 0
M  V30 31706 N 3014.91 -3.25148 3.29899 0
M  V30 31707 C 3015.65 -3.94256 4.16353 0
M  V30 31708 N 3015.14 -4.65684 5.12943 0
M  V30 31709 N 3016.93 -3.90548 4.04263 0
M  V30 31710 H 3009.09 -0.581149 2.04295 0
M  V30 31711 H 3011.35 -0.318955 0.892733 0
M  V30 31712 H 3011.05 -1.7235 3.06575 0
M  V30 31713 H 3010.93 -3.15792 2.06289 0
M  V30 31714 H 3013.32 -2.70448 1.18076 0
M  V30 31715 H 3013.4 -1.27356 2.21842 0
M  V30 31716 H 3013.04 -2.76276 4.26186 0
M  V30 31717 H 3012.97 -4.18691 3.19383 0
M  V30 31718 H 3015.46 -2.74266 2.59974 0
M  V30 31719 H 3015.77 -5.16016 5.7528 0
M  V30 31720 H 3014.12 -4.64584 5.16901 0
M  V30 31721 H 3017.31 -3.33879 3.28089 0
M  V30 31722 H 3017.48 -4.44136 4.71856 0
M  V30 31723 N 3010.89 -0.986938 -1.22871 0
M  V30 31724 C 3011.84 -0.532255 -2.24579 0
M  V30 31725 C 3012.81 0.432293 -1.60376 0
M  V30 31726 O 3013.99 0.338383 -1.87775 0
M  V30 31727 C 3011.13 0.152803 -3.44762 0
M  V30 31728 C 3010.24 -0.852779 -4.23499 0
M  V30 31729 C 3009.38 -0.141854 -5.31011 0
M  V30 31730 C 3008.42 -1.13621 -6.01462 0
M  V30 31731 N 3007.56 -0.453995 -7.00631 0
M  V30 31732 H 3012.4 -1.40433 -2.62836 0
M  V30 31733 H 3009.93 -0.703566 -1.29183 0
M  V30 31734 H 3011.89 0.566853 -4.13331 0
M  V30 31735 H 3010.52 0.988702 -3.07286 0
M  V30 31736 H 3009.57 -1.38518 -3.54284 0
M  V30 31737 H 3010.88 -1.61023 -4.72094 0
M  V30 31738 H 3010.04 0.329231 -6.05806 0
M  V30 31739 H 3008.78 0.648144 -4.83374 0
M  V30 31740 H 3007.78 -1.61798 -5.25454 0
M  V30 31741 H 3009.01 -1.92698 -6.51187 0
M  V30 31742 H 3006.95 0.316675 -6.55235 0
M  V30 31743 H 3006.87 -1.14999 -7.47202 0
M  V30 31744 H 3008.14 -0.00551525 -7.795 0
M  V30 31745 N 3012.37 1.38098 -0.759394 0
M  V30 31746 C 3013.59 2.04792 -0.327895 0
M  V30 31747 C 3014.02 1.56901 1.03749 0
M  V30 31748 O 3013.38 0.72361 1.66233 0
M  V30 31749 C 3013.42 3.58734 -0.366327 0
M  V30 31750 O 3012.53 4.07441 0.637626 0
M  V30 31751 H 3011.87 0.648175 -0.144103 0
M  V30 31752 H 3014.4 1.76658 -1.03214 0
M  V30 31753 H 3014.41 4.0741 -0.219251 0
M  V30 31754 H 3013.08 3.92949 -1.36249 0
M  V30 31755 H 3011.66 3.70118 0.454684 0
M  V30 31756 N 3013.85 0.508932 1.49156 0
M  V30 31757 C 3015.09 -0.032698 2.02074 0
M  V30 31758 C 3015.41 -1.36748 1.39014 0
M  V30 31759 O 3014.68 -1.88074 0.548186 0
M  V30 31760 H 3013.26 -0.0150733 0.746848 0
M  V30 31761 H 3015.93 0.667979 1.83096 0
M  V30 31762 H 3015.02 -0.156545 3.11707 0
M  V30 31763 N 3015.32 -1.55714 0.243111 0
M  V30 31764 C 3016.57 -1.99146 -0.383252 0
M  V30 31765 C 3016.9 -1.13101 -1.57866 0
M  V30 31766 O 3016.18 -0.193543 -1.93535 0
M  V30 31767 C 3016.46 -3.51174 -0.796818 0
M  V30 31768 C 3016.31 -4.47985 0.403721 0
M  V30 31769 C 3017.63 -4.08193 -1.64518 0
M  V30 31770 H 3014.75 -0.723997 -0.137831 0
M  V30 31771 H 3017.39 -1.86866 0.343663 0
M  V30 31772 H 3015.54 -3.61769 -1.41618 0
M  V30 31773 H 3017.22 -4.49375 1.04212 0
M  V30 31774 H 3015.46 -4.20964 1.04748 0
M  V30 31775 H 3016.13 -5.51954 0.0710764 0
M  V30 31776 H 3018.61 -4.00676 -1.12239 0
M  V30 31777 H 3017.48 -5.14841 -1.90341 0
M  V30 31778 H 3017.74 -3.56414 -2.61575 0
M  V30 31779 N 3016.8 0.030048 -1.57571 0
M  V30 31780 C 3018.03 0.736567 -1.9388 0
M  V30 31781 C 3018.45 1.68151 -0.843028 0
M  V30 31782 O 3017.81 1.80179 0.201318 0
M  V30 31783 C 3017.86 1.47061 -3.2925 0
M  V30 31784 O 3016.96 2.58373 -3.2143 0
M  V30 31785 H 3016.3 0.19817 -0.633739 0
M  V30 31786 H 3018.83 -0.0141845 -2.04595 0
M  V30 31787 H 3018.84 1.84074 -3.64116 0
M  V30 31788 H 3017.52 0.777569 -4.08567 0
M  V30 31789 H 3016.1 2.23909 -2.98193 0
M  V30 31790 N 3018.28 1.54674 0.3023 0
M  V30 31791 C 3019.7 1.45858 0.647886 0
M  V30 31792 C 3019.9 0.648724 1.90772 0
M  V30 31793 O 3018.95 0.155909 2.52018 0
M  V30 31794 C 3020.27 2.89805 0.802093 0
M  V30 31795 C 3021.81 2.9984 0.898062 0
M  V30 31796 C 3022.29 4.4498 1.08428 0
M  V30 31797 N 3023.78 4.48684 1.15051 0
M  V30 31798 C 3024.51 5.58168 1.31287 0
M  V30 31799 N 3024.01 6.77578 1.44428 0
M  V30 31800 N 3025.8 5.45854 1.34164 0
M  V30 31801 H 3017.95 2.05798 -0.525464 0
M  V30 31802 H 3020.22 0.931999 -0.173439 0
M  V30 31803 H 3019.92 3.5166 -0.0527149 0
M  V30 31804 H 3019.8 3.37148 1.69149 0
M  V30 31805 H 3022.18 2.38099 1.74336 0
M  V30 31806 H 3022.27 2.55795 -0.0153202 0
M  V30 31807 H 3021.91 5.07315 0.243753 0
M  V30 31808 H 3021.84 4.86654 2.01186 0
M  V30 31809 H 3024.33 3.62655 1.06253 0
M  V30 31810 H 3024.64 7.56774 1.56568 0
M  V30 31811 H 3022.99 6.80446 1.41487 0
M  V30 31812 H 3026.18 4.51512 1.23508 0
M  V30 31813 H 3026.35 6.31228 1.46474 0
M  V30 31814 N 3019.76 -0.565428 1.47108 0
M  V30 31815 C 3020.99 -1.34857 1.56911 0
M  V30 31816 C 3021.4 -1.87556 0.216345 0
M  V30 31817 O 3020.76 -1.64557 -0.789139 0
M  V30 31818 C 3020.81 -2.52419 2.5878 0
M  V30 31819 O 3020.53 -2.01899 3.88804 0
M  V30 31820 C 3022.03 -3.44742 2.78689 0
M  V30 31821 H 3019.25 -0.411377 0.530104 0
M  V30 31822 H 3021.8 -0.685748 1.9266 0
M  V30 31823 H 3019.95 -3.14656 2.25988 0
M  V30 31824 H 3020.36 -2.78587 4.44398 0
M  V30 31825 H 3021.84 -4.23668 3.5385 0
M  V30 31826 H 3022.32 -3.9777 1.86215 0
M  V30 31827 H 3022.92 -2.88327 3.12646 0
M  V30 31828 N 3021.24 -1.35102 -0.811492 0
M  V30 31829 C 3022.19 -1.24166 -1.91224 0
M  V30 31830 C 3023.17 -0.13804 -1.60307 0
M  V30 31831 O 3024.36 -0.368798 -1.73115 0
M  V30 31832 C 3021.49 -1.01091 -3.28079 0
M  V30 31833 C 3020.58 -2.15821 -3.65078 0
M  V30 31834 N 3020.97 -3.41017 -3.73552 0
M  V30 31835 C 3019.27 -2.07099 -3.95001 0
M  V30 31836 C 3019.97 -4.16433 -4.0615 0
M  V30 31837 N 3018.94 -3.4514 -4.19976 0
M  V30 31838 H 3022.75 -2.19027 -1.95971 0
M  V30 31839 H 3020.26 -1.27504 -1.0058 0
M  V30 31840 H 3022.26 -0.913453 -4.0677 0
M  V30 31841 H 3020.92 -0.0710976 -3.24622 0
M  V30 31842 H 3021.93 -3.75429 -3.56754 0
M  V30 31843 H 3018.6 -1.20944 -3.99598 0
M  V30 31844 H 3019.99 -5.246 -4.19815 0
M  V30 31845 N 3022.71 1.03306 -1.19019 0
M  V30 31846 C 3023.94 1.80809 -1.01602 0
M  V30 31847 C 3024.36 1.83102 0.43074 0
M  V30 31848 O 3023.72 1.25393 1.30943 0
M  V30 31849 C 3023.77 3.2392 -1.58455 0
M  V30 31850 O 3022.87 4.04346 -0.811043 0
M  V30 31851 H 3022.22 0.558321 -0.359408 0
M  V30 31852 H 3024.75 1.30053 -1.57948 0
M  V30 31853 H 3024.76 3.74679 -1.61492 0
M  V30 31854 H 3023.43 3.21566 -2.63758 0
M  V30 31855 H 3022.01 3.62999 -0.853593 0
M  V30 31856 N 3024.19 0.99344 1.22346 0
M  V30 31857 C 3025.12 0.564128 2.26583 0
M  V30 31858 C 3026.1 -0.409269 1.65103 0
M  V30 31859 O 3027.29 -0.299785 1.91872 0
M  V30 31860 C 3024.42 -0.121493 3.47087 0
M  V30 31861 C 3023.37 0.770503 4.21007 0
M  V30 31862 C 3022.7 -0.0480646 5.34678 0
M  V30 31863 C 3024 2.06761 4.79632 0
M  V30 31864 H 3025.69 1.43543 2.62747 0
M  V30 31865 H 3023.24 0.69165 1.26302 0
M  V30 31866 H 3025.19 -0.43323 4.19167 0
M  V30 31867 H 3023.92 -1.02734 3.10021 0
M  V30 31868 H 3022.57 1.06589 3.50763 0
M  V30 31869 H 3022.22 -0.954846 4.93854 0
M  V30 31870 H 3021.92 0.545744 5.8506 0
M  V30 31871 H 3023.45 -0.353884 6.09574 0
M  V30 31872 H 3024.86 1.81979 5.43651 0
M  V30 31873 H 3023.26 2.61029 5.40355 0
M  V30 31874 H 3024.33 2.74599 3.99654 0
M  V30 31875 N 3025.67 -1.37693 0.766707 0
M  V30 31876 C 3027.08 -1.82478 0.394793 0
M  V30 31877 C 3027.43 -1.63906 -1.07839 0
M  V30 31878 O 3026.56 -1.1474 -1.83477 0
M  V30 31879 C 3027.15 -3.31281 0.709798 0
M  V30 31880 C 3025.71 -3.74364 0.391002 0
M  V30 31881 C 3024.86 -2.60291 0.956238 0
M  V30 31882 H 3027.81 -1.26236 0.961778 0
M  V30 31883 H 3027.83 -3.80499 -0.00735456 0
M  V30 31884 H 3027.34 -3.44767 1.78206 0
M  V30 31885 H 3025.44 -3.66451 -0.674148 0
M  V30 31886 H 3025.56 -4.70652 0.895728 0
M  V30 31887 H 3023.92 -2.51837 0.380788 0
M  V30 31888 H 3024.7 -2.76571 2.0338 0
M  V30 31889 N 3027.15 -0.516835 -1.48884 0
M  V30 31890 C 3028.1 0.266616 -2.31067 0
M  V30 31891 C 3029.09 0.947925 -1.40395 0
M  V30 31892 O 3030.3 0.873808 -1.57368 0
M  V30 31893 H 3026.67 0.104844 -0.744655 0
M  V30 31894 H 3028.64 -0.446288 -2.95044 0
M  V30 31895 C 3027.39 1.30864 -3.22133 0
M  V30 31896 H 3026.71 0.793796 -3.9184 0
M  V30 31897 H 3028.15 1.8285 -3.82547 0
M  V30 31898 C 3026.61 2.33529 -2.42829 0
M  V30 31899 O 3027.14 3.39718 -2.1437 0
M  V30 31900 N 3025.35 2.06403 -2.04563 0
M  V30 31901 H 3024.9 1.20067 -2.27907 0
M  V30 31902 H 3024.85 2.75319 -1.51812 0
M  V30 31903 N 3028.63 1.55583 -0.251365 0
M  V30 31904 C 3029.9 1.90978 0.422695 0
M  V30 31905 C 3030.28 1.17268 1.75532 0
M  V30 31906 O 3029.63 0.291628 2.26631 0
M  V30 31907 C 3029.84 3.44039 0.586388 0
M  V30 31908 C 3031.19 4.15376 0.880221 0
M  V30 31909 O 3032.21 3.49802 0.672087 0
M  V30 31910 O 3031.07 5.31375 1.27685 0
M  V30 31911 H 3028.17 0.795062 0.227608 0
M  V30 31912 H 3030.71 1.67103 -0.295762 0
M  V30 31913 H 3029.48 3.8971 -0.352395 0
M  V30 31914 H 3029.11 3.73791 1.35522 0
M  V30 31915 N 3030.1 -0.0216912 1.57585 0
M  V30 31916 C 3031.33 -0.726275 1.94268 0
M  V30 31917 C 3031.75 -1.67701 0.851934 0
M  V30 31918 O 3031.11 -1.80283 -0.19176 0
M  V30 31919 C 3031.16 -1.45312 3.30025 0
M  V30 31920 O 3030.26 -2.56664 3.22796 0
M  V30 31921 H 3029.61 -0.194806 0.634781 0
M  V30 31922 H 3032.14 0.0250345 2.04585 0
M  V30 31923 H 3032.15 -1.82141 3.65087 0
M  V30 31924 H 3030.82 -0.75589 4.08973 0
M  V30 31925 H 3029.4 -2.22324 2.99377 0
M  V30 31926 N 3031.58 -1.54832 -0.294093 0
M  V30 31927 C 3032.81 -1.78182 -1.04569 0
M  V30 31928 C 3033.22 -0.544807 -1.81186 0
M  V30 31929 O 3032.56 0.495138 -1.76901 0
M  V30 31930 C 3032.63 -2.94105 -2.06743 0
M  V30 31931 C 3032.29 -4.31939 -1.49258 0
M  V30 31932 C 3033.29 -5.11712 -0.919046 0
M  V30 31933 C 3030.97 -4.78555 -1.52613 0
M  V30 31934 C 3032.97 -6.36226 -0.386712 0
M  V30 31935 C 3030.65 -6.03029 -0.989925 0
M  V30 31936 C 3031.65 -6.817 -0.421195 0
M  V30 31937 O 3031.34 -8.03829 0.106855 0
M  V30 31938 H 3031.07 -0.597817 -0.31558 0
M  V30 31939 H 3033.63 -2.0262 -0.336782 0
M  V30 31940 H 3031.86 -2.65308 -2.81334 0
M  V30 31941 H 3033.54 -3.04968 -2.6786 0
M  V30 31942 H 3034.31 -4.76839 -0.885979 0
M  V30 31943 H 3030.19 -4.17344 -1.95819 0
M  V30 31944 H 3033.73 -6.97576 0.0578474 0
M  V30 31945 H 3029.63 -6.37388 -1.02016 0
M  V30 31946 H 3030.4 -8.185 -0.00579139 0
M  V30 31947 N 3033.06 0.557619 -1.47405 0
M  V30 31948 C 3033.99 1.68034 -1.54402 0
M  V30 31949 C 3034.97 1.57699 -0.396203 0
M  V30 31950 O 3036.16 1.78563 -0.603942 0
M  V30 31951 C 3033.28 3.06274 -1.44617 0
M  V30 31952 C 3032.33 3.35055 -2.63895 0
M  V30 31953 S 3033.16 3.24355 -4.26092 0
M  V30 31954 C 3034.32 4.6509 -4.18859 0
M  V30 31955 H 3034.55 1.61845 -2.49387 0
M  V30 31956 H 3032.08 0.738405 -1.35598 0
M  V30 31957 H 3034.04 3.86013 -1.39658 0
M  V30 31958 H 3032.7 3.09929 -0.510169 0
M  V30 31959 H 3031.9 4.35834 -2.53111 0
M  V30 31960 H 3031.5 2.62934 -2.65973 0
M  V30 31961 H 3033.79 5.5603 -3.87087 0
M  V30 31962 H 3034.73 4.80931 -5.19722 0
M  V30 31963 H 3035.14 4.43117 -3.49725 0
M  V30 31964 N 3034.54 1.35531 0.804316 0
M  V30 31965 C 3035.78 1.30298 1.57486 0
M  V30 31966 C 3036.14 -0.120494 1.91622 0
M  V30 31967 O 3037.34 -0.297218 2.67152 0
M  V30 31968 C 3035.62 2.1862 2.82737 0
M  V30 31969 S 3037.17 2.30925 3.73121 0
M  V30 31970 H 3033.99 0.463023 0.539565 0
M  V30 31971 H 3036.59 1.70946 0.948571 0
M  V30 31972 H 3035.3 3.21018 2.55687 0
M  V30 31973 H 3034.83 1.78937 3.5035 0
M  V30 31974 H 3036.84 1.49574 4.73119 0
M  V30 31975 N 3036.02 -1.02674 1.19565 0
M  V30 31976 C 3037.43 -1.2837 0.948327 0
M  V30 31977 C 3037.63 -1.97922 -0.378062 0
M  V30 31978 O 3036.69 -2.2684 -1.10906 0
M  V30 31979 C 3038 -2.12869 2.12384 0
M  V30 31980 C 3039.55 -2.2617 2.1637 0
M  V30 31981 C 3040.03 -3.14042 3.33379 0
M  V30 31982 N 3041.52 -3.2163 3.33329 0
M  V30 31983 C 3042.25 -3.89818 4.20511 0
M  V30 31984 N 3041.75 -4.60218 5.17853 0
M  V30 31985 N 3043.54 -3.86239 4.08382 0
M  V30 31986 H 3035.69 -0.559448 2.049 0
M  V30 31987 H 3037.95 -0.309469 0.896065 0
M  V30 31988 H 3037.66 -1.69089 3.08386 0
M  V30 31989 H 3037.53 -3.13587 2.09627 0
M  V30 31990 H 3039.92 -2.6918 1.20938 0
M  V30 31991 H 3040 -1.24996 2.23181 0
M  V30 31992 H 3039.65 -2.7174 4.29092 0
M  V30 31993 H 3039.58 -4.1528 3.23806 0
M  V30 31994 H 3042.07 -2.71494 2.62868 0
M  V30 31995 H 3042.38 -5.09885 5.80721 0
M  V30 31996 H 3040.73 -4.59076 5.21799 0
M  V30 31997 H 3043.92 -3.30381 3.31612 0
M  V30 31998 H 3044.09 -4.39106 4.7654 0
M  V30 31999 N 3037.5 -0.999914 -1.21817 0
M  V30 32000 C 3038.45 -0.527143 -2.21822 0
M  V30 32001 C 3039.43 0.408487 -1.55628 0
M  V30 32002 O 3040.62 0.234166 -1.75444 0
M  V30 32003 C 3037.75 0.149926 -3.42972 0
M  V30 32004 C 3036.84 -0.806423 -4.16362 0
M  V30 32005 N 3037.23 -1.95716 -4.664 0
M  V30 32006 C 3035.53 -0.623749 -4.41617 0
M  V30 32007 C 3036.23 -2.55799 -5.22438 0
M  V30 32008 N 3035.2 -1.84004 -5.11511 0
M  V30 32009 H 3039 -1.40468 -2.58159 0
M  V30 32010 H 3036.52 -0.863078 -1.37567 0
M  V30 32011 H 3038.52 0.506058 -4.13817 0
M  V30 32012 H 3037.18 1.02351 -3.08147 0
M  V30 32013 H 3038.19 -2.33771 -4.62138 0
M  V30 32014 H 3034.86 0.203183 -4.17005 0
M  V30 32015 H 3036.25 -3.5309 -5.71644 0
M  V30 32016 N 3038.97 1.37284 -0.773999 0
M  V30 32017 C 3040.22 1.99242 -0.338671 0
M  V30 32018 C 3040.54 1.61748 1.08916 0
M  V30 32019 O 3039.81 0.884001 1.74821 0
M  V30 32020 H 3038.39 0.736932 -0.122233 0
M  V30 32021 H 3041.05 1.67729 -0.992624 0
M  V30 32022 H 3040.15 3.09287 -0.418109 0
M  V30 32023 N 3040.45 0.524724 1.48608 0
M  V30 32024 C 3041.68 -0.00948494 2.07398 0
M  V30 32025 C 3042.1 -1.27882 1.37941 0
M  V30 32026 O 3041.46 -1.75788 0.443664 0
M  V30 32027 C 3041.51 -0.221893 3.59917 0
M  V30 32028 O 3040.61 -1.29169 3.91649 0
M  V30 32029 H 3039.95 0.0367845 0.66298 0
M  V30 32030 H 3042.48 0.731134 1.91091 0
M  V30 32031 H 3042.49 -0.446165 4.05553 0
M  V30 32032 H 3041.17 0.705378 4.09875 0
M  V30 32033 H 3039.74 -1.05049 3.57798 0
M  V30 32034 N 3041.93 -1.55447 0.259613 0
M  V30 32035 C 3043.16 -2.03649 -0.365357 0
M  V30 32036 C 3043.57 -1.1385 -1.50611 0
M  V30 32037 O 3042.93 -0.155446 -1.81837 0
M  V30 32038 C 3042.98 -3.51094 -0.86111 0
M  V30 32039 O 3042.7 -4.37474 0.234198 0
M  V30 32040 C 3044.2 -4.15114 -1.55548 0
M  V30 32041 H 3041.42 -0.665552 -0.0853322 0
M  V30 32042 H 3043.97 -2.00801 0.387186 0
M  V30 32043 H 3042.12 -3.54435 -1.56379 0
M  V30 32044 H 3042.54 -5.24301 -0.144308 0
M  V30 32045 H 3044.01 -5.19936 -1.85394 0
M  V30 32046 H 3044.49 -3.62359 -2.48178 0
M  V30 32047 H 3045.09 -4.15732 -0.897047 0
M  V30 32048 N 3043.41 0.0133338 -1.57594 0
M  V30 32049 C 3044.37 0.993763 -2.06536 0
M  V30 32050 C 3045.37 1.28075 -0.972289 0
M  V30 32051 O 3046.56 1.22816 -1.23539 0
M  V30 32052 C 3043.69 2.32236 -2.49558 0
M  V30 32053 H 3044.89 0.570689 -2.9442 0
M  V30 32054 H 3042.44 0.260519 -1.54114 0
M  V30 32055 H 3043.17 2.7926 -1.64877 0
M  V30 32056 H 3042.96 2.12731 -3.29375 0
M  V30 32057 H 3044.45 3.02595 -2.87795 0
M  V30 32058 N 3044.89 1.54985 0.285878 0
M  V30 32059 C 3045.8 1.90059 1.37531 0
M  V30 32060 C 3046.81 0.796375 1.54706 0
M  V30 32061 O 3047.99 1.09426 1.6908 0
M  V30 32062 C 3045.05 2.15402 2.71667 0
M  V30 32063 C 3044.11 3.39037 2.63348 0
M  V30 32064 C 3043.35 3.63162 3.91087 0
M  V30 32065 O 3043.57 2.90024 4.91164 0
M  V30 32066 O 3042.5 4.56692 3.92067 0
M  V30 32067 H 3046.33 2.82772 1.10786 0
M  V30 32068 H 3043.91 1.41368 0.483278 0
M  V30 32069 H 3045.8 2.33186 3.51002 0
M  V30 32070 H 3044.47 1.25873 2.98224 0
M  V30 32071 H 3043.38 3.26602 1.82433 0
M  V30 32072 H 3044.71 4.28744 2.41742 0
M  V30 32073 N 3046.36 -0.549794 1.47699 0
M  V30 32074 C 3047.61 -1.30405 1.54399 0
M  V30 32075 C 3047.93 -1.93854 0.21106 0
M  V30 32076 O 3047.2 -1.80317 -0.765669 0
M  V30 32077 H 3045.78 -0.484279 0.568755 0
M  V30 32078 H 3048.45 -0.641412 1.84043 0
M  V30 32079 H 3047.54 -2.09371 2.31453 0
M  V30 32080 N 3047.84 -1.35955 -0.797117 0
M  V30 32081 C 3049.25 -1.26647 -1.37177 0
M  V30 32082 C 3049.6 0.0970702 -1.9596 0
M  V30 32083 O 3048.73 0.998321 -1.91996 0
M  V30 32084 C 3049.32 -2.29324 -2.49391 0
M  V30 32085 C 3047.88 -2.23728 -3.02693 0
M  V30 32086 C 3047.03 -2.1452 -1.75717 0
M  V30 32087 H 3049.98 -1.46946 -0.599381 0
M  V30 32088 H 3050 -1.92521 -3.28201 0
M  V30 32089 H 3049.51 -3.28553 -2.06578 0
M  V30 32090 H 3047.62 -1.2794 -3.49946 0
M  V30 32091 H 3047.73 -3.16093 -3.60031 0
M  V30 32092 H 3046.09 -1.60649 -1.97646 0
M  V30 32093 H 3046.88 -3.15624 -1.35043 0
M  V30 32094 N 3049.32 1.02038 -1.20108 0
M  V30 32095 C 3050.25 2.12383 -0.970338 0
M  V30 32096 C 3051.23 1.6981 0.0993481 0
M  V30 32097 O 3052.42 1.94115 -0.0573991 0
M  V30 32098 C 3049.55 3.43423 -0.517491 0
M  V30 32099 C 3048.5 3.99719 -1.52999 0
M  V30 32100 C 3047.83 5.26481 -0.93391 0
M  V30 32101 C 3049.13 4.33546 -2.91264 0
M  V30 32102 H 3050.82 2.31944 -1.8932 0
M  V30 32103 H 3048.37 1.11465 -0.911675 0
M  V30 32104 H 3050.32 4.19999 -0.343317 0
M  V30 32105 H 3049.04 3.23609 0.440993 0
M  V30 32106 H 3047.7 3.25247 -1.69145 0
M  V30 32107 H 3047.35 5.0299 0.0323879 0
M  V30 32108 H 3047.05 5.65111 -1.61009 0
M  V30 32109 H 3048.57 6.05716 -0.77072 0
M  V30 32110 H 3049.99 5.01026 -2.78651 0
M  V30 32111 H 3048.39 4.8328 -3.55754 0
M  V30 32112 H 3049.46 3.42477 -3.43275 0
M  V30 32113 N 3050.8 1.00636 1.21285 0
M  V30 32114 C 3052.05 0.688471 1.90012 0
M  V30 32115 C 3052.37 -0.783333 1.78575 0
M  V30 32116 O 3051.64 -1.56259 1.18152 0
M  V30 32117 H 3050.22 0.251661 0.703332 0
M  V30 32118 H 3052.88 1.27576 1.47344 0
M  V30 32119 H 3051.98 0.962833 2.96877 0
M  V30 32120 N 3052.28 -1.36872 0.781268 0
M  V30 32121 C 3053.23 -2.27523 0.147353 0
M  V30 32122 C 3054.21 -1.46564 -0.663902 0
M  V30 32123 O 3055.4 -1.69025 -0.525313 0
M  V30 32124 C 3052.53 -3.35591 -0.723452 0
M  V30 32125 C 3051.62 -4.23991 0.0961508 0
M  V30 32126 N 3052.01 -4.92633 1.14658 0
M  V30 32127 C 3050.31 -4.45821 -0.126319 0
M  V30 32128 C 3051.01 -5.57961 1.64483 0
M  V30 32129 N 3049.98 -5.35138 0.95541 0
M  V30 32130 H 3053.79 -2.78073 0.951455 0
M  V30 32131 H 3051.3 -1.50102 0.619939 0
M  V30 32132 H 3053.3 -3.99453 -1.19344 0
M  V30 32133 H 3051.96 -2.86596 -1.52619 0
M  V30 32134 H 3052.97 -4.94819 1.52888 0
M  V30 32135 H 3049.64 -4.07679 -0.900212 0
M  V30 32136 H 3051.03 -6.22798 2.52135 0
M  V30 32137 N 3053.75 -0.532597 -1.48328 0
M  V30 32138 C 3055.17 -0.190633 -1.58457 0
M  V30 32139 C 3055.37 1.3062 -1.53429 0
M  V30 32140 O 3054.43 2.08465 -1.42473 0
M  V30 32141 C 3055.74 -0.795481 -2.89987 0
M  V30 32142 C 3057.29 -0.764453 -3.03521 0
M  V30 32143 C 3057.76 -1.34792 -4.37716 0
M  V30 32144 N 3059.25 -1.31001 -4.44289 0
M  V30 32145 C 3059.99 -1.73134 -5.46637 0
M  V30 32146 N 3059.48 -2.23009 -6.55926 0
M  V30 32147 N 3061.28 -1.64355 -5.37535 0
M  V30 32148 H 3053.43 -1.50539 -1.49839 0
M  V30 32149 H 3055.69 -0.626329 -0.711629 0
M  V30 32150 H 3055.4 -1.84647 -2.9933 0
M  V30 32151 H 3055.27 -0.274096 -3.76203 0
M  V30 32152 H 3057.66 0.277779 -2.9379 0
M  V30 32153 H 3057.74 -1.32333 -2.1891 0
M  V30 32154 H 3057.38 -2.3891 -4.48201 0
M  V30 32155 H 3057.31 -0.764701 -5.21018 0
M  V30 32156 H 3059.8 -0.944932 -3.65895 0
M  V30 32157 H 3060.12 -2.53146 -7.30162 0
M  V30 32158 H 3058.46 -2.27004 -6.56882 0
M  V30 32159 H 3061.65 -1.25186 -4.5105 0
M  V30 32160 H 3061.83 -1.97511 -6.17166 0
M  V30 32161 N 3055.23 1.55307 -0.267853 0
M  V30 32162 C 3056.48 1.99041 0.350308 0
M  V30 32163 C 3056.8 1.15761 1.56922 0
M  V30 32164 O 3056.07 0.24537 1.94357 0
M  V30 32165 H 3054.65 0.735169 0.132422 0
M  V30 32166 H 3057.31 1.91327 -0.371504 0
M  V30 32167 H 3056.41 3.05359 0.64515 0
M  V30 32168 N 3056.71 -0.00497598 1.57599 0
M  V30 32169 C 3057.96 -0.686279 1.91473 0
M  V30 32170 C 3058.31 -1.71656 0.869018 0
M  V30 32171 O 3057.6 -1.91228 -0.119406 0
M  V30 32172 C 3057.8 -1.37582 3.29857 0
M  V30 32173 C 3057.63 -0.413845 4.47792 0
M  V30 32174 C 3056.4 -0.02606 5.05293 0
M  V30 32175 C 3058.6 0.317854 5.13317 0
M  V30 32176 N 3056.58 0.934652 6.06743 0
M  V30 32177 C 3057.95 1.13341 6.09552 0
M  V30 32178 C 3060 0.382223 4.96431 0
M  V30 32179 C 3058.71 2.00747 6.90719 0
M  V30 32180 C 3060.73 1.24349 5.78179 0
M  V30 32181 C 3060.09 2.04691 6.74004 0
M  V30 32182 H 3056.19 -0.224482 0.749087 0
M  V30 32183 H 3058.78 0.0542026 1.94625 0
M  V30 32184 H 3056.95 -2.08663 3.27589 0
M  V30 32185 H 3058.68 -2.01143 3.51175 0
M  V30 32186 H 3055.44 -0.393379 4.71963 0
M  V30 32187 H 3055.86 1.41023 6.62149 0
M  V30 32188 H 3060.5 -0.224643 4.22203 0
M  V30 32189 H 3058.22 2.62503 7.64276 0
M  V30 32190 H 3061.81 1.29714 5.67156 0
M  V30 32191 H 3060.69 2.70257 7.36159 0
M  V30 32192 N 3058.19 -1.55135 -0.277654 0
M  V30 32193 C 3059.44 -1.75175 -1.00788 0
M  V30 32194 C 3059.76 -0.553299 -1.86986 0
M  V30 32195 O 3059.03 0.431917 -1.91079 0
M  V30 32196 H 3057.61 -0.645984 -0.375118 0
M  V30 32197 H 3060.27 -1.9253 -0.303007 0
M  V30 32198 H 3059.37 -2.65073 -1.64751 0
M  V30 32199 N 3059.67 0.541953 -1.47989 0
M  V30 32200 C 3060.6 1.6571 -1.64506 0
M  V30 32201 C 3061.58 1.62764 -0.494144 0
M  V30 32202 O 3062.76 1.80148 -0.725287 0
M  V30 32203 C 3059.89 3.04325 -1.67343 0
M  V30 32204 C 3058.85 3.22125 -2.81815 0
M  V30 32205 C 3058.17 4.6168 -2.69733 0
M  V30 32206 C 3059.47 3.06039 -4.23247 0
M  V30 32207 H 3061.17 1.52142 -2.57862 0
M  V30 32208 H 3058.71 0.730507 -1.24095 0
M  V30 32209 H 3060.67 3.82199 -1.77487 0
M  V30 32210 H 3059.39 3.18888 -0.70557 0
M  V30 32211 H 3058.05 2.46664 -2.71205 0
M  V30 32212 H 3057.7 4.73062 -1.70942 0
M  V30 32213 H 3057.4 4.74537 -3.46538 0
M  V30 32214 H 3058.92 5.41669 -2.81828 0
M  V30 32215 H 3060.33 3.73716 -4.34752 0
M  V30 32216 H 3058.73 3.30396 -5.00958 0
M  V30 32217 H 3059.8 2.02601 -4.40546 0
M  V30 32218 N 3061.15 1.36376 0.789896 0
M  V30 32219 C 3062.56 1.27372 1.36503 0
M  V30 32220 C 3062.91 -0.0866766 1.96008 0
M  V30 32221 O 3062.03 -0.988125 1.92523 0
M  V30 32222 C 3062.63 2.30644 2.48171 0
M  V30 32223 C 3061.19 2.2533 3.01502 0
M  V30 32224 C 3060.33 2.15448 1.74577 0
M  V30 32225 H 3063.28 1.47262 0.59158 0
M  V30 32226 H 3063.31 1.94259 3.27175 0
M  V30 32227 H 3062.82 3.29644 2.04833 0
M  V30 32228 H 3060.92 1.29794 3.49262 0
M  V30 32229 H 3061.03 3.17998 3.58349 0
M  V30 32230 H 3059.4 1.61695 1.96791 0
M  V30 32231 H 3060.18 3.16335 1.33367 0
M  V30 32232 N 3062.62 -1.014 1.20647 0
M  V30 32233 C 3063.57 -2.09994 0.957655 0
M  V30 32234 C 3064.54 -1.65715 -0.113086 0
M  V30 32235 O 3065.73 -1.90773 0.0321755 0
M  V30 32236 C 3062.87 -3.4118 0.51866 0
M  V30 32237 C 3061.98 -3.98923 1.65784 0
M  V30 32238 C 3061.11 -5.1818 1.1689 0
M  V30 32239 C 3060.15 -5.68011 2.281 0
M  V30 32240 N 3059.29 -6.78527 1.80404 0
M  V30 32241 H 3064.13 -2.30614 1.88736 0
M  V30 32242 H 3061.67 -1.13088 0.940723 0
M  V30 32243 H 3063.62 -4.16477 0.24544 0
M  V30 32244 H 3062.25 -3.20626 -0.374044 0
M  V30 32245 H 3061.31 -3.20697 2.04592 0
M  V30 32246 H 3062.62 -4.31907 2.49515 0
M  V30 32247 H 3061.77 -6.00691 0.8518 0
M  V30 32248 H 3060.51 -4.86767 0.30152 0
M  V30 32249 H 3059.52 -4.84103 2.60623 0
M  V30 32250 H 3060.74 -6.01458 3.15318 0
M  V30 32251 H 3058.69 -6.48938 0.95997 0
M  V30 32252 H 3058.6 -7.10718 2.57713 0
M  V30 32253 H 3059.87 -7.64596 1.51702 0
M  V30 32254 N 3064.1 -1.01278 -1.2075 0
M  V30 32255 C 3065.06 -0.584622 -2.21619 0
M  V30 32256 C 3066.06 0.343187 -1.57095 0
M  V30 32257 O 3067.25 0.132402 -1.73696 0
M  V30 32258 C 3064.39 0.146812 -3.40584 0
M  V30 32259 H 3065.58 -1.4769 -2.61013 0
M  V30 32260 H 3063.13 -0.802147 -1.34147 0
M  V30 32261 H 3063.87 1.05418 -3.06688 0
M  V30 32262 H 3063.65 -0.519648 -3.88641 0
M  V30 32263 H 3065.14 0.433851 -4.1534 0
M  V30 32264 N 3065.58 1.36456 -0.788516 0
M  V30 32265 C 3066.51 2.28746 -0.144248 0
M  V30 32266 C 3067.52 1.49435 0.645983 0
M  V30 32267 O 3068.71 1.71888 0.481314 0
M  V30 32268 C 3065.81 3.2886 0.818811 0
M  V30 32269 C 3064.99 4.37329 0.0788286 0
M  V30 32270 C 3064.05 5.17411 0.9577 0
M  V30 32271 O 3063.07 5.67683 0.415278 0
M  V30 32272 N 3064.27 5.33762 2.28207 0
M  V30 32273 H 3067.04 2.84676 -0.936999 0
M  V30 32274 H 3064.6 1.48612 -0.642343 0
M  V30 32275 H 3066.59 3.79321 1.41058 0
M  V30 32276 H 3065.16 2.73576 1.51245 0
M  V30 32277 H 3064.38 3.88043 -0.694007 0
M  V30 32278 H 3065.67 5.06964 -0.431842 0
M  V30 32279 H 3065.07 4.94531 2.74691 0
M  V30 32280 H 3063.62 5.87471 2.8235 0
M  V30 32281 N 3067.06 0.540456 1.48043 0
M  V30 32282 C 3068.28 0.0125129 2.07396 0
M  V30 32283 C 3068.71 -1.26412 1.3929 0
M  V30 32284 O 3068.07 -1.75307 0.462283 0
M  V30 32285 C 3068.11 -0.183706 3.60132 0
M  V30 32286 O 3067.22 -1.25007 3.92997 0
M  V30 32287 H 3066.56 0.0438142 0.662553 0
M  V30 32288 H 3069.09 0.75136 1.90304 0
M  V30 32289 H 3069.1 -0.403125 4.06004 0
M  V30 32290 H 3067.77 0.748812 4.09103 0
M  V30 32291 H 3066.35 -1.01248 3.58892 0
M  V30 32292 N 3068.54 -1.55163 0.276085 0
M  V30 32293 C 3069.78 -1.99224 -0.339747 0
M  V30 32294 C 3070.1 -1.16592 -1.56305 0
M  V30 32295 O 3069.37 -0.255674 -1.94224 0
M  V30 32296 H 3067.95 -0.735861 -0.128521 0
M  V30 32297 H 3070.62 -1.91127 0.381646 0
M  V30 32298 H 3069.71 -3.05697 -0.628947 0
M  V30 32299 N 3070.01 -0.00338196 -1.576 0
M  V30 32300 C 3071.24 0.695276 -1.95399 0
M  V30 32301 C 3071.66 1.66325 -0.878505 0
M  V30 32302 O 3071.02 1.80565 0.163054 0
M  V30 32303 C 3071.07 1.40044 -3.32295 0
M  V30 32304 O 3070.17 2.51497 -3.26838 0
M  V30 32305 H 3069.51 0.184683 -0.637799 0
M  V30 32306 H 3072.04 -0.0575789 -2.04519 0
M  V30 32307 H 3072.05 1.76309 -3.67939 0
M  V30 32308 H 3070.73 0.690731 -4.10124 0
M  V30 32309 H 3069.31 2.17533 -3.02876 0
M  V30 32310 N 3071.49 1.5528 0.269423 0
M  V30 32311 C 3072.74 1.76316 1.00203 0
M  V30 32312 C 3073.07 0.564614 1.85811 0
M  V30 32313 O 3072.35 -0.437736 1.8951 0
M  V30 32314 C 3072.63 3.07032 1.88158 0
M  V30 32315 C 3072.48 4.37248 1.05519 0
M  V30 32316 C 3073.8 3.33813 2.86805 0
M  V30 32317 H 3070.92 0.641479 0.362868 0
M  V30 32318 H 3073.56 1.88012 0.274155 0
M  V30 32319 H 3071.71 2.97192 2.50218 0
M  V30 32320 H 3073.38 4.5905 0.455013 0
M  V30 32321 H 3071.63 4.32314 0.358766 0
M  V30 32322 H 3072.3 5.25045 1.70388 0
M  V30 32323 H 3074.77 3.4347 2.34878 0
M  V30 32324 H 3073.65 4.26534 3.45485 0
M  V30 32325 H 3073.91 2.53626 3.62113 0
M  V30 32326 N 3072.97 -0.534097 1.48274 0
M  V30 32327 C 3073.9 -1.64836 1.65383 0
M  V30 32328 C 3074.88 -1.625 0.502769 0
M  V30 32329 O 3076.07 -1.79761 0.734831 0
M  V30 32330 C 3073.2 -3.03433 1.68954 0
M  V30 32331 C 3072.15 -3.20626 2.83519 0
M  V30 32332 C 3071.48 -4.60243 2.72177 0
M  V30 32333 C 3072.78 -3.0379 4.24864 0
M  V30 32334 H 3074.47 -1.50773 2.58666 0
M  V30 32335 H 3072.02 -0.723916 1.24481 0
M  V30 32336 H 3073.97 -3.81252 1.79512 0
M  V30 32337 H 3072.69 -3.18509 0.722471 0
M  V30 32338 H 3071.35 -2.45222 2.7251 0
M  V30 32339 H 3071 -4.72149 1.73448 0
M  V30 32340 H 3070.7 -4.72692 3.4905 0
M  V30 32341 H 3072.22 -5.40167 2.84696 0
M  V30 32342 H 3073.64 -3.71405 4.36728 0
M  V30 32343 H 3072.03 -3.27735 5.02703 0
M  V30 32344 H 3073.1 -2.00262 4.41614 0
M  V30 32345 N 3074.45 -1.36793 -0.782652 0
M  V30 32346 C 3075.67 -1.34735 -1.57674 0
M  V30 32347 C 3076.1 0.0674923 -1.87979 0
M  V30 32348 O 3075.46 1.04141 -1.48406 0
M  V30 32349 C 3075.5 -2.18262 -2.87044 0
M  V30 32350 O 3074.61 -1.57976 -3.80943 0
M  V30 32351 H 3073.95 -0.460855 -0.478026 0
M  V30 32352 H 3076.48 -1.80169 -0.969547 0
M  V30 32353 H 3076.49 -2.31085 -3.3625 0
M  V30 32354 H 3075.16 -3.21109 -2.64314 0
M  V30 32355 H 3073.74 -1.54132 -3.39555 0
M  V30 32356 N 3075.93 1.00759 -1.21184 0
M  V30 32357 C 3077.17 1.74755 -1.02901 0
M  V30 32358 C 3077.51 1.89225 0.436741 0
M  V30 32359 O 3076.78 1.42468 1.32412 0
M  V30 32360 C 3077.06 3.16161 -1.72378 0
M  V30 32361 C 3076.92 3.0943 -3.26456 0
M  V30 32362 C 3078.24 4.15028 -1.46422 0
M  V30 32363 H 3075.35 0.634331 -0.375225 0
M  V30 32364 H 3078 1.17485 -1.49323 0
M  V30 32365 H 3076.15 3.65057 -1.32912 0
M  V30 32366 H 3077.82 2.68268 -3.75274 0
M  V30 32367 H 3076.06 2.46597 -3.56893 0
M  V30 32368 H 3076.73 4.09429 -3.70233 0
M  V30 32369 H 3079.21 3.74827 -1.80677 0
M  V30 32370 H 3078.08 5.12117 -1.97553 0
M  V30 32371 H 3078.35 4.40344 -0.393688 0
M  V30 32372 N 3077.4 1.01917 1.20211 0
M  V30 32373 C 3078.35 0.562366 2.20956 0
M  V30 32374 C 3079.34 -0.383676 1.56259 0
M  V30 32375 O 3080.53 -0.206224 1.75795 0
M  V30 32376 C 3077.66 -0.0953432 3.43168 0
M  V30 32377 C 3076.75 0.87256 4.15027 0
M  V30 32378 N 3077.14 2.03111 4.63227 0
M  V30 32379 C 3075.43 0.693928 4.40569 0
M  V30 32380 C 3076.14 2.64078 5.18302 0
M  V30 32381 N 3075.11 1.92119 5.08519 0
M  V30 32382 H 3078.91 1.44557 2.55891 0
M  V30 32383 H 3076.43 0.884855 1.36177 0
M  V30 32384 H 3078.42 -0.440159 4.1457 0
M  V30 32385 H 3077.08 -0.974359 3.09736 0
M  V30 32386 H 3078.1 2.41094 4.5836 0
M  V30 32387 H 3074.77 -0.136816 4.17276 0
M  V30 32388 H 3076.16 3.6214 5.65955 0
M  V30 32389 N 3078.88 -1.36036 0.795742 0
M  V30 32390 C 3080.11 -2.0385 0.382076 0
M  V30 32391 C 3080.53 -1.59596 -0.995525 0
M  V30 32392 O 3079.89 -0.76743 -1.64257 0
M  V30 32393 C 3079.94 -3.57637 0.461311 0
M  V30 32394 O 3079.04 -4.08988 -0.529376 0
M  V30 32395 H 3078.38 -0.644126 0.161238 0
M  V30 32396 H 3080.91 -1.73859 1.07861 0
M  V30 32397 H 3080.92 -4.06686 0.327192 0
M  V30 32398 H 3079.6 -3.89198 1.4662 0
M  V30 32399 H 3078.18 -3.71193 -0.356394 0
M  V30 32400 N 3080.36 -0.5483 -1.47755 0
M  V30 32401 C 3081.29 0.24173 -2.27922 0
M  V30 32402 C 3082.31 0.887634 -1.36473 0
M  V30 32403 O 3083.49 0.762987 -1.61371 0
M  V30 32404 C 3080.59 1.35916 -3.10451 0
M  V30 32405 C 3079.77 0.811733 -4.29802 0
M  V30 32406 C 3078.83 1.81255 -4.93997 0
M  V30 32407 O 3077.85 1.3622 -5.5266 0
M  V30 32408 N 3079.05 3.14557 -4.87887 0
M  V30 32409 H 3081.82 -0.4459 -2.96364 0
M  V30 32410 H 3079.38 -0.383797 -1.57285 0
M  V30 32411 H 3081.37 2.02723 -3.50265 0
M  V30 32412 H 3079.94 1.95017 -2.4431 0
M  V30 32413 H 3079.16 -0.0328622 -3.94186 0
M  V30 32414 H 3080.45 0.425183 -5.0702 0
M  V30 32415 H 3079.85 3.53797 -4.41411 0
M  V30 32416 H 3078.41 3.76947 -5.31747 0
M  V30 32417 N 3081.84 1.55014 -0.28431 0
M  V30 32418 C 3083.25 1.85496 0.211649 0
M  V30 32419 C 3083.6 1.20633 1.54733 0
M  V30 32420 O 3082.73 0.497955 2.10593 0
M  V30 32421 C 3083.32 3.36538 0.390805 0
M  V30 32422 C 3081.88 3.67112 0.83099 0
M  V30 32423 C 3081.03 2.77211 -0.0704068 0
M  V30 32424 H 3083.98 1.50423 -0.50583 0
M  V30 32425 H 3084 3.6014 1.22797 0
M  V30 32426 H 3083.51 3.83719 -0.581477 0
M  V30 32427 H 3081.61 3.25438 1.81442 0
M  V30 32428 H 3081.72 4.74505 0.661943 0
M  V30 32429 H 3080.09 2.50738 0.447484 0
M  V30 32430 H 3080.87 3.27208 -1.03874 0
M  V30 32431 N 3083.32 0.0117398 1.57596 0
M  V30 32432 C 3084.28 -0.960779 2.08091 0
M  V30 32433 C 3085.28 -1.26512 0.992542 0
M  V30 32434 O 3086.47 -1.20835 1.25478 0
M  V30 32435 C 3083.6 -2.28236 2.53221 0
M  V30 32436 H 3084.79 -0.523777 2.95291 0
M  V30 32437 H 3082.35 -0.235968 1.54509 0
M  V30 32438 H 3083.08 -2.76602 1.69299 0
M  V30 32439 H 3082.87 -2.07464 3.32718 0
M  V30 32440 H 3084.36 -2.97978 2.92573 0
M  V30 32441 N 3084.79 -1.55421 -0.261185 0
M  V30 32442 C 3086.07 -1.67314 -1.01318 0
M  V30 32443 C 3086.45 -0.547391 -2.03879 0
M  V30 32444 O 3085.8 0.451044 -2.24004 0
M  V30 32445 C 3086.01 -3.07027 -1.65938 0
M  V30 32446 C 3087.36 -3.65163 -2.16659 0
M  V30 32447 O 3088.38 -3.09736 -1.75904 0
M  V30 32448 O 3087.24 -4.62299 -2.91447 0
M  V30 32449 H 3084.33 -0.679977 -0.470703 0
M  V30 32450 H 3086.88 -1.67756 -0.256104 0
M  V30 32451 H 3085.65 -3.80408 -0.916801 0
M  V30 32452 H 3085.28 -3.10535 -2.48302 0
M  V30 32453 N 3086.27 0.526227 -1.48555 0
M  V30 32454 C 3087.5 1.3065 -1.60432 0
M  V30 32455 C 3087.92 1.86917 -0.265996 0
M  V30 32456 O 3087.27 1.66591 0.745232 0
M  V30 32457 C 3087.32 2.45469 -2.65382 0
M  V30 32458 O 3087.04 1.9152 -3.9402 0
M  V30 32459 C 3088.55 3.37232 -2.87732 0
M  V30 32460 H 3085.77 0.397178 -0.540824 0
M  V30 32461 H 3088.31 0.634427 -1.9441 0
M  V30 32462 H 3086.46 3.08553 -2.34251 0
M  V30 32463 H 3086.88 2.66707 -4.51628 0
M  V30 32464 H 3088.35 4.14137 -3.64958 0
M  V30 32465 H 3088.83 3.92693 -1.96695 0
M  V30 32466 H 3089.44 2.79937 -3.20181 0
M  V30 32467 N 3087.75 1.37206 0.775387 0
M  V30 32468 C 3088.98 1.3557 1.56957 0
M  V30 32469 C 3089.4 -0.0575224 1.88012 0
M  V30 32470 O 3088.76 -1.03353 1.48956 0
M  V30 32471 C 3088.81 2.19781 2.85882 0
M  V30 32472 O 3087.91 1.59994 3.801 0
M  V30 32473 H 3087.25 0.463383 0.475575 0
M  V30 32474 H 3089.78 1.80681 0.959978 0
M  V30 32475 H 3089.79 2.32865 3.3502 0
M  V30 32476 H 3088.47 3.22506 2.62607 0
M  V30 32477 H 3087.04 1.5593 3.38733 0
M  V30 32478 N 3089.23 -1.00115 1.21716 0
M  V30 32479 C 3090.46 -1.77259 1.06127 0
M  V30 32480 C 3090.87 -1.85101 -0.391684 0
M  V30 32481 O 3090.21 -1.31428 -1.28345 0
M  V30 32482 C 3090.27 -3.22533 1.58784 0
M  V30 32483 C 3089.94 -3.38258 3.07295 0
M  V30 32484 C 3090.93 -3.26232 4.04807 0
M  V30 32485 C 3088.62 -3.63576 3.4658 0
M  V30 32486 C 3090.61 -3.39294 5.39591 0
M  V30 32487 C 3088.3 -3.76279 4.81516 0
M  V30 32488 C 3089.3 -3.64145 5.7783 0
M  V30 32489 O 3088.98 -3.76438 7.10317 0
M  V30 32490 H 3088.72 -0.563787 0.372988 0
M  V30 32491 H 3091.27 -1.26797 1.61591 0
M  V30 32492 H 3089.5 -3.74149 0.977195 0
M  V30 32493 H 3091.19 -3.81365 1.3898 0
M  V30 32494 H 3091.96 -3.06593 3.758 0
M  V30 32495 H 3087.83 -3.72101 2.72143 0
M  V30 32496 H 3091.38 -3.29739 6.1475 0
M  V30 32497 H 3087.28 -3.95423 5.10207 0
M  V30 32498 H 3088.04 -3.93362 7.17781 0
M  V30 32499 N 3090.71 -1.02553 -1.19669 0
M  V30 32500 C 3091.96 -0.715305 -1.8859 0
M  V30 32501 C 3092.27 0.75895 -1.80276 0
M  V30 32502 O 3093.48 1.18209 -2.44416 0
M  V30 32503 C 3091.93 -1.22911 -3.38262 0
M  V30 32504 C 3091.54 -2.73091 -3.55142 0
M  V30 32505 C 3093.28 -0.994722 -4.12681 0
M  V30 32506 C 3091.19 -3.17906 -4.98688 0
M  V30 32507 H 3090.12 -0.263869 -0.706321 0
M  V30 32508 H 3092.77 -1.23939 -1.3532 0
M  V30 32509 H 3091.15 -0.632961 -3.90909 0
M  V30 32510 H 3092.33 -3.38332 -3.12839 0
M  V30 32511 H 3090.64 -2.94771 -2.94107 0
M  V30 32512 H 3093.24 -1.30487 -5.18534 0
M  V30 32513 H 3093.58 0.0685734 -4.16244 0
M  V30 32514 H 3094.12 -1.5547 -3.66161 0
M  V30 32515 H 3090.85 -4.2355 -5.00285 0
M  V30 32516 H 3090.37 -2.57391 -5.41766 0
M  V30 32517 H 3092.05 -3.11055 -5.67322 0
M  V30 32518 N 3092.19 1.35612 -0.802945 0
M  V30 32519 C 3093.12 2.32412 -0.225172 0
M  V30 32520 C 3094.1 1.573 0.647356 0
M  V30 32521 O 3095.28 1.85387 0.578382 0
M  V30 32522 C 3092.41 3.41538 0.630025 0
M  V30 32523 C 3091.37 4.27759 -0.14371 0
M  V30 32524 C 3090.69 5.28172 0.832953 0
M  V30 32525 C 3091.99 5.04801 -1.34063 0
M  V30 32526 H 3093.69 2.80982 -1.0339 0
M  V30 32527 H 3091.23 1.35092 -0.498617 0
M  V30 32528 H 3093.18 4.08256 1.04426 0
M  V30 32529 H 3091.91 2.91567 1.4716 0
M  V30 32530 H 3090.57 3.62615 -0.539079 0
M  V30 32531 H 3090.22 4.74471 1.66993 0
M  V30 32532 H 3089.92 5.8673 0.319594 0
M  V30 32533 H 3091.44 5.97763 1.24547 0
M  V30 32534 H 3092.85 5.64485 -1.00146 0
M  V30 32535 H 3091.25 5.72837 -1.78822 0
M  V30 32536 H 3092.32 4.35655 -2.12914 0
M  V30 32537 N 3093.66 0.556128 1.47462 0
M  V30 32538 C 3094.6 -0.22964 2.28047 0
M  V30 32539 C 3095.61 -0.880384 1.36942 0
M  V30 32540 O 3096.8 -0.754419 1.61774 0
M  V30 32541 C 3093.9 -1.34268 3.11168 0
M  V30 32542 C 3093.07 -0.788928 4.30226 0
M  V30 32543 C 3092.13 -1.78632 4.94951 0
M  V30 32544 O 3091.16 -1.33287 5.53374 0
M  V30 32545 N 3092.36 -3.11965 4.89549 0
M  V30 32546 H 3095.12 0.461611 2.96124 0
M  V30 32547 H 3092.68 0.392133 1.57079 0
M  V30 32548 H 3094.68 -2.00863 3.51335 0
M  V30 32549 H 3093.25 -1.93718 2.45341 0
M  V30 32550 H 3092.47 0.0537664 3.94163 0
M  V30 32551 H 3093.75 -0.398289 5.07239 0
M  V30 32552 H 3093.15 -3.51451 4.43281 0
M  V30 32553 H 3091.71 -3.74121 5.33738 0
M  V30 32554 N 3095.14 -1.54861 0.292527 0
M  V30 32555 C 3096.07 -2.26166 -0.580638 0
M  V30 32556 C 3097.05 -1.25808 -1.14483 0
M  V30 32557 O 3098.24 -1.54564 -1.17574 0
M  V30 32558 C 3095.37 -2.996 -1.75663 0
M  V30 32559 C 3094.32 -4.07033 -1.32318 0
M  V30 32560 C 3093.65 -4.68136 -2.58366 0
M  V30 32561 C 3094.95 -5.20265 -0.460612 0
M  V30 32562 H 3096.64 -2.99397 0.0140601 0
M  V30 32563 H 3094.19 -1.43998 0.00820238 0
M  V30 32564 H 3096.14 -3.482 -2.3735 0
M  V30 32565 H 3094.86 -2.23932 -2.37743 0
M  V30 32566 H 3093.52 -3.5927 -0.729414 0
M  V30 32567 H 3093.17 -3.89118 -3.18742 0
M  V30 32568 H 3092.87 -5.40687 -2.30069 0
M  V30 32569 H 3094.4 -5.19494 -3.20871 0
M  V30 32570 H 3095.81 -5.64811 -0.982938 0
M  V30 32571 H 3094.21 -5.99484 -0.271776 0
M  V30 32572 H 3095.28 -4.82143 0.516388 0
M  V30 32573 N 3096.62 -0.0200973 -1.57587 0
M  V30 32574 C 3098.03 0.519987 -1.79313 0
M  V30 32575 C 3098.38 1.72785 -0.929506 0
M  V30 32576 O 3097.51 2.15963 -0.137427 0
M  V30 32577 C 3098.1 0.950115 -3.25205 0
M  V30 32578 C 3096.66 1.43537 -3.47957 0
M  V30 32579 C 3095.81 0.395868 -2.7446 0
M  V30 32580 H 3098.76 -0.246181 -1.56779 0
M  V30 32581 H 3098.78 1.81502 -3.34421 0
M  V30 32582 H 3098.29 0.0708148 -3.88035 0
M  V30 32583 H 3096.39 2.3349 -2.90367 0
M  V30 32584 H 3096.51 1.44897 -4.56664 0
M  V30 32585 H 3094.87 0.86198 -2.39671 0
M  V30 32586 H 3095.65 -0.47481 -3.40001 0
M  V30 32587 N 3098.1 1.55557 0.252939 0
M  V30 32588 C 3099.04 1.89808 1.31307 0
M  V30 32589 C 3100.01 0.751659 1.48119 0
M  V30 32590 O 3101.2 1.00477 1.62201 0
M  V30 32591 C 3098.34 2.19298 2.66463 0
M  V30 32592 C 3097.45 3.46714 2.57708 0
M  V30 32593 C 3096.59 3.65803 3.85177 0
M  V30 32594 C 3095.63 4.86841 3.71015 0
M  V30 32595 N 3094.76 5.02483 4.90363 0
M  V30 32596 H 3099.6 2.80219 1.01397 0
M  V30 32597 H 3097.14 1.38719 0.489438 0
M  V30 32598 H 3099.1 2.34399 3.45128 0
M  V30 32599 H 3097.73 1.32098 2.94533 0
M  V30 32600 H 3096.78 3.39977 1.70645 0
M  V30 32601 H 3098.09 4.35522 2.43151 0
M  V30 32602 H 3097.25 3.8083 4.72285 0
M  V30 32603 H 3095.99 2.75217 4.02625 0
M  V30 32604 H 3094.99 4.71797 2.8229 0
M  V30 32605 H 3096.22 5.78882 3.55068 0
M  V30 32606 H 3094.16 4.14833 5.08183 0
M  V30 32607 H 3094.08 5.85369 4.78413 0
M  V30 32608 H 3095.35 5.21916 5.78986 0
M  V30 32609 N 3099.58 -0.518341 1.48832 0
M  V30 32610 C 3100.85 -1.27963 1.47935 0
M  V30 32611 C 3101.23 -2.10175 0.19743 0
M  V30 32612 O 3100.58 -2.13256 -0.820619 0
M  V30 32613 C 3100.79 -2.15116 2.7482 0
M  V30 32614 C 3102.14 -2.74875 3.23618 0
M  V30 32615 O 3103.16 -2.25395 2.75818 0
M  V30 32616 O 3102.02 -3.64906 4.06824 0
M  V30 32617 H 3099.12 -0.578154 0.591327 0
M  V30 32618 H 3101.66 -0.534037 1.61078 0
M  V30 32619 H 3100.43 -1.54228 3.59624 0
M  V30 32620 H 3100.06 -2.96901 2.64454 0
M  V30 32621 N 3101.05 -1.37615 -0.7681 0
M  V30 32622 C 3102.02 -1.33493 -1.86312 0
M  V30 32623 C 3103.02 -0.238258 -1.59025 0
M  V30 32624 O 3104.21 -0.494318 -1.67039 0
M  V30 32625 C 3101.34 -1.07468 -3.23517 0
M  V30 32626 H 3102.53 -2.30899 -1.91378 0
M  V30 32627 H 3100.08 -1.22698 -0.968245 0
M  V30 32628 H 3100.82 -0.106085 -3.24126 0
M  V30 32629 H 3100.6 -1.86852 -3.44715 0
M  V30 32630 H 3102.09 -1.07243 -4.03595 0
M  V30 32631 N 3102.53 0.994677 -1.22245 0
M  V30 32632 C 3103.94 1.54848 -1.04303 0
M  V30 32633 C 3104.29 1.92202 0.394068 0
M  V30 32634 O 3103.42 1.74573 1.2788 0
M  V30 32635 C 3104.01 2.81377 -1.88713 0
M  V30 32636 C 3102.57 3.33207 -1.75072 0
M  V30 32637 C 3101.72 2.06308 -1.85289 0
M  V30 32638 H 3104.67 0.815964 -1.36117 0
M  V30 32639 H 3104.69 3.5367 -1.40348 0
M  V30 32640 H 3104.2 2.54158 -2.933 0
M  V30 32641 H 3102.3 3.65337 -0.732112 0
M  V30 32642 H 3102.42 4.03929 -2.57639 0
M  V30 32643 H 3100.78 2.19786 -1.2871 0
M  V30 32644 H 3101.56 1.81489 -2.91404 0
M  V30 32645 N 3104.01 1.03186 1.19123 0
M  V30 32646 C 3104.96 0.58577 2.20347 0
M  V30 32647 C 3105.94 -0.367082 1.56657 0
M  V30 32648 O 3107.14 -0.187567 1.76003 0
M  V30 32649 C 3104.26 -0.0589403 3.43249 0
M  V30 32650 C 3103.35 0.91653 4.14078 0
M  V30 32651 N 3103.74 2.08013 4.61047 0
M  V30 32652 C 3102.04 0.740617 4.39808 0
M  V30 32653 C 3102.74 2.69561 5.15472 0
M  V30 32654 N 3101.72 1.97501 5.06452 0
M  V30 32655 H 3105.52 1.47263 2.54344 0
M  V30 32656 H 3103.03 0.899249 1.3523 0
M  V30 32657 H 3105.03 -0.396163 4.15013 0
M  V30 32658 H 3103.69 -0.941452 3.10752 0
M  V30 32659 H 3104.7 2.45942 4.55778 0
M  V30 32660 H 3101.38 -0.0925504 4.17397 0
M  V30 32661 H 3102.77 3.68122 5.62082 0
M  V30 32662 N 3105.49 -1.35184 0.810125 0
M  V30 32663 C 3106.42 -2.32289 0.237494 0
M  V30 32664 C 3107.4 -1.57641 -0.639005 0
M  V30 32665 O 3108.58 -1.85691 -0.568542 0
M  V30 32666 C 3105.71 -3.41867 -0.611903 0
M  V30 32667 C 3104.67 -4.27676 0.166393 0
M  V30 32668 C 3103.99 -5.28607 -0.804931 0
M  V30 32669 C 3105.29 -5.04083 1.36738 0
M  V30 32670 H 3106.99 -2.8043 1.04879 0
M  V30 32671 H 3104.53 -1.34826 0.505774 0
M  V30 32672 H 3106.49 -4.08804 -1.0226 0
M  V30 32673 H 3105.21 -2.92344 -1.45612 0
M  V30 32674 H 3103.87 -3.62324 0.558302 0
M  V30 32675 H 3103.52 -4.7535 -1.64474 0
M  V30 32676 H 3103.22 -5.86891 -0.288474 0
M  V30 32677 H 3104.74 -5.98415 -1.21375 0
M  V30 32678 H 3106.16 -5.63946 1.03138 0
M  V30 32679 H 3104.55 -5.71881 1.81858 0
M  V30 32680 H 3105.62 -4.3452 2.15221 0
M  V30 32681 N 3106.97 -0.56394 -1.47165 0
M  V30 32682 C 3107.9 0.168107 -2.32894 0
M  V30 32683 C 3108.88 0.902188 -1.44203 0
M  V30 32684 O 3110.06 0.881335 -1.7305 0
M  V30 32685 C 3107.19 1.19433 -3.26118 0
M  V30 32686 C 3106.15 0.576288 -4.24102 0
M  V30 32687 C 3105.47 1.70763 -5.06699 0
M  V30 32688 C 3106.77 -0.474341 -5.20142 0
M  V30 32689 H 3108.47 -0.547625 -2.94349 0
M  V30 32690 H 3106.01 -0.264802 -1.41544 0
M  V30 32691 H 3107.97 1.71467 -3.84938 0
M  V30 32692 H 3106.69 1.9401 -2.62732 0
M  V30 32693 H 3105.35 0.077189 -3.66519 0
M  V30 32694 H 3105 2.4426 -4.39711 0
M  V30 32695 H 3104.7 1.29984 -5.73043 0
M  V30 32696 H 3106.22 2.2311 -5.68379 0
M  V30 32697 H 3107.63 -0.0398043 -5.73286 0
M  V30 32698 H 3106.03 -0.801391 -5.94725 0
M  V30 32699 H 3107.1 -1.36772 -4.65211 0
M  V30 32700 N 3108.44 1.54704 -0.300735 0
M  V30 32701 C 3109.38 2.20957 0.609141 0
M  V30 32702 C 3110.39 1.20223 1.09774 0
M  V30 32703 O 3111.58 1.46817 1.01524 0
M  V30 32704 C 3108.68 2.84218 1.8459 0
M  V30 32705 C 3107.85 4.10882 1.49984 0
M  V30 32706 C 3106.91 4.57948 2.59172 0
M  V30 32707 O 3105.94 5.23153 2.24276 0
M  V30 32708 N 3107.14 4.30243 3.89707 0
M  V30 32709 H 3109.9 2.99671 0.0419584 0
M  V30 32710 H 3107.46 1.61433 -0.122925 0
M  V30 32711 H 3109.46 3.12638 2.56982 0
M  V30 32712 H 3108.03 2.09346 2.32149 0
M  V30 32713 H 3107.25 3.89474 0.608569 0
M  V30 32714 H 3108.53 4.93358 1.244 0
M  V30 32715 H 3107.93 3.78005 4.20867 0
M  V30 32716 H 3106.49 4.63373 4.58398 0
M  V30 32717 N 3109.92 0.0284543 1.57574 0
M  V30 32718 C 3111.33 -0.510471 1.79586 0
M  V30 32719 C 3111.68 -1.7229 0.938656 0
M  V30 32720 O 3110.81 -2.15887 0.148878 0
M  V30 32721 C 3111.4 -0.932855 3.25704 0
M  V30 32722 C 3109.96 -1.4169 3.48713 0
M  V30 32723 C 3109.11 -0.381308 2.74666 0
M  V30 32724 H 3112.06 0.254492 1.56646 0
M  V30 32725 H 3112.08 -1.79726 3.35379 0
M  V30 32726 H 3111.59 -0.0502353 3.88067 0
M  V30 32727 H 3109.7 -2.31947 2.91602 0
M  V30 32728 H 3109.81 -1.42473 4.57426 0
M  V30 32729 H 3108.17 -0.849258 2.40124 0
M  V30 32730 H 3108.96 0.492835 3.39744 0
M  V30 32731 N 3111.4 -1.55689 -0.244686 0
M  V30 32732 C 3112.35 -1.86894 -1.30593 0
M  V30 32733 C 3113.33 -0.729997 -1.43387 0
M  V30 32734 O 3114.53 -0.991966 -1.46591 0
M  V30 32735 C 3111.66 -2.16906 -2.66095 0
M  V30 32736 C 3110.74 -3.37134 -2.57297 0
M  V30 32737 N 3111.13 -4.56347 -2.18131 0
M  V30 32738 C 3109.43 -3.40288 -2.88305 0
M  V30 32739 C 3110.13 -5.38485 -2.20019 0
M  V30 32740 N 3109.11 -4.77603 -2.59608 0
M  V30 32741 H 3112.91 -2.76593 -0.99365 0
M  V30 32742 H 3110.42 -1.55945 -0.453307 0
M  V30 32743 H 3112.42 -2.37428 -3.42686 0
M  V30 32744 H 3111.08 -1.28507 -2.98188 0
M  V30 32745 H 3112.09 -4.81931 -1.89639 0
M  V30 32746 H 3108.77 -2.62167 -3.24923 0
M  V30 32747 H 3110.16 -6.43866 -1.92059 0
M  V30 32748 N 3112.88 0.510441 -1.49105 0
M  V30 32749 C 3114.1 1.29414 -1.6207 0
M  V30 32750 C 3114.53 1.85875 -0.288465 0
M  V30 32751 O 3113.89 1.65392 0.742637 0
M  V30 32752 C 3113.93 2.40697 -2.6851 0
M  V30 32753 O 3113.04 3.44286 -2.27027 0
M  V30 32754 H 3112.38 0.382467 -0.542785 0
M  V30 32755 H 3114.91 0.612119 -1.95229 0
M  V30 32756 H 3114.92 2.86599 -2.90388 0
M  V30 32757 H 3113.59 1.98967 -3.65219 0
M  V30 32758 H 3112.17 3.04367 -2.15442 0
M  V30 32759 N 3114.36 1.38021 0.760791 0
M  V30 32760 C 3115.32 1.3448 1.85601 0
M  V30 32761 C 3116.32 0.246688 1.58896 0
M  V30 32762 O 3117.51 0.503169 1.66775 0
M  V30 32763 C 3114.64 1.09182 3.22943 0
M  V30 32764 H 3115.83 2.31911 1.90151 0
M  V30 32765 H 3113.39 1.23209 0.961725 0
M  V30 32766 H 3114.12 0.123272 3.24066 0
M  V30 32767 H 3113.91 1.88678 3.4372 0
M  V30 32768 H 3115.4 1.09382 4.0302 0
M  V30 32769 N 3115.83 -0.98818 1.22771 0
M  V30 32770 C 3117.25 -1.54293 1.05122 0
M  V30 32771 C 3117.6 -1.92408 -0.38387 0
M  V30 32772 O 3116.72 -1.75249 -1.26952 0
M  V30 32773 C 3117.32 -2.80372 1.90203 0
M  V30 32774 C 3115.88 -3.32273 1.76837 0
M  V30 32775 C 3115.02 -2.05323 1.86381 0
M  V30 32776 H 3117.97 -0.808734 1.36547 0
M  V30 32777 H 3117.99 -3.52921 1.42222 0
M  V30 32778 H 3117.51 -2.52599 2.94644 0
M  V30 32779 H 3115.61 -3.64943 0.751476 0
M  V30 32780 H 3115.72 -4.02557 2.59778 0
M  V30 32781 H 3114.08 -2.191 1.29873 0
M  V30 32782 H 3114.87 -1.79941 2.92363 0
M  V30 32783 N 3117.31 -1.03816 -1.18575 0
M  V30 32784 C 3118.54 -0.76 -1.92436 0
M  V30 32785 C 3118.96 0.682495 -1.76033 0
M  V30 32786 O 3118.31 1.46499 -1.08831 0
M  V30 32787 C 3118.36 -1.11357 -3.43921 0
M  V30 32788 O 3118.08 -2.49943 -3.59806 0
M  V30 32789 C 3119.59 -0.859548 -4.34887 0
M  V30 32790 H 3116.81 -0.27736 -0.610993 0
M  V30 32791 H 3119.35 -1.38515 -1.50446 0
M  V30 32792 H 3117.5 -0.53343 -3.8371 0
M  V30 32793 H 3117.92 -2.63401 -4.53564 0
M  V30 32794 H 3119.39 -1.15682 -5.39742 0
M  V30 32795 H 3119.87 0.205762 -4.38718 0
M  V30 32796 H 3120.48 -1.42287 -4.00793 0
M  V30 32797 N 3118.79 1.34753 -0.817283 0
M  V30 32798 C 3120.04 1.99174 -0.412442 0
M  V30 32799 C 3120.39 1.63641 1.01189 0
M  V30 32800 O 3119.68 0.894927 1.69416 0
M  V30 32801 C 3119.88 3.53215 -0.545362 0
M  V30 32802 C 3119.71 4.03713 -1.98107 0
M  V30 32803 C 3118.48 4.32569 -2.61174 0
M  V30 32804 C 3120.68 4.21489 -2.94706 0
M  V30 32805 N 3118.66 4.69066 -3.96044 0
M  V30 32806 C 3120.03 4.61102 -4.1447 0
M  V30 32807 C 3122.08 4.03723 -2.91397 0
M  V30 32808 C 3120.79 4.84806 -5.31371 0
M  V30 32809 C 3122.81 4.28591 -4.0751 0
M  V30 32810 C 3122.17 4.68485 -5.26024 0
M  V30 32811 H 3118.27 0.756279 -0.198913 0
M  V30 32812 H 3120.86 1.63265 -1.06079 0
M  V30 32813 H 3119.03 3.88331 0.0730537 0
M  V30 32814 H 3120.76 4.04539 -0.11407 0
M  V30 32815 H 3117.52 4.23274 -2.12453 0
M  V30 32816 H 3117.94 4.91557 -4.65511 0
M  V30 32817 H 3122.58 3.72013 -2.00914 0
M  V30 32818 H 3120.3 5.15386 -6.22417 0
M  V30 32819 H 3123.89 4.16386 -4.06342 0
M  V30 32820 H 3122.77 4.8735 -6.14378 0
M  V30 32821 N 3120.27 0.571737 1.46864 0
M  V30 32822 C 3121.52 0.0530378 2.0203 0
M  V30 32823 C 3121.84 -1.30729 1.44689 0
M  V30 32824 O 3121.11 -1.85579 0.627461 0
M  V30 32825 H 3119.69 0.0166166 0.746815 0
M  V30 32826 H 3122.35 0.745035 1.80098 0
M  V30 32827 H 3121.45 -0.0241989 3.12091 0
M  V30 32828 N 3121.75 -1.54542 0.308935 0
M  V30 32829 C 3122.98 -2.04708 -0.300382 0
M  V30 32830 C 3123.39 -1.18584 -1.46913 0
M  V30 32831 O 3122.75 -0.213218 -1.8125 0
M  V30 32832 C 3122.8 -3.53656 -0.748976 0
M  V30 32833 O 3122.52 -4.36507 0.373258 0
M  V30 32834 C 3124.02 -4.19853 -1.42262 0
M  V30 32835 H 3121.24 -0.66793 -0.0641149 0
M  V30 32836 H 3123.78 -1.99468 0.450874 0
M  V30 32837 H 3121.94 -3.59231 -1.45024 0
M  V30 32838 H 3122.35 -5.24495 0.0225674 0
M  V30 32839 H 3123.83 -5.25571 -1.68759 0
M  V30 32840 H 3124.3 -3.70071 -2.36525 0
M  V30 32841 H 3124.91 -4.18376 -0.76433 0
M  V30 32842 N 3123.23 -0.0368104 -1.57557 0
M  V30 32843 C 3124.47 0.639535 -1.91293 0
M  V30 32844 C 3124.79 1.72845 -0.915631 0
M  V30 32845 O 3125.99 2.46197 -1.14451 0
M  V30 32846 C 3124.45 1.18882 -3.39699 0
M  V30 32847 C 3124.06 0.132772 -4.47803 0
M  V30 32848 C 3125.8 1.84123 -3.8249 0
M  V30 32849 C 3123.71 0.694125 -5.87312 0
M  V30 32850 H 3122.64 0.242645 -0.71389 0
M  V30 32851 H 3125.29 -0.103364 -1.83209 0
M  V30 32852 H 3123.67 1.98357 -3.4274 0
M  V30 32853 H 3124.85 -0.64009 -4.56333 0
M  V30 32854 H 3123.16 -0.421337 -4.14263 0
M  V30 32855 H 3125.76 2.27092 -4.8408 0
M  V30 32856 H 3126.1 2.6871 -3.17963 0
M  V30 32857 H 3126.63 1.11326 -3.81905 0
M  V30 32858 H 3123.37 -0.113782 -6.55401 0
M  V30 32859 H 3122.89 1.4353 -5.82374 0
M  V30 32860 H 3124.57 1.18149 -6.36121 0
M  V30 32861 N 3124.7 1.55817 0.236426 0
M  V30 32862 C 3126.11 1.6847 0.80465 0
M  V30 32863 C 3126.47 0.636165 1.856 0
M  V30 32864 O 3125.59 -0.215584 2.15323 0
M  V30 32865 C 3126.19 3.05427 1.46629 0
M  V30 32866 C 3124.74 3.19985 1.98209 0
M  V30 32867 C 3123.89 2.64369 0.836903 0
M  V30 32868 H 3126.84 1.58695 0.0120368 0
M  V30 32869 H 3126.86 3.00456 2.33467 0
M  V30 32870 H 3126.38 3.81719 0.700864 0
M  V30 32871 H 3124.48 2.48534 2.77599 0
M  V30 32872 H 3124.59 4.27023 2.17228 0
M  V30 32873 H 3122.95 2.22464 1.24024 0
M  V30 32874 H 3123.74 3.43196 0.0843907 0
M  V30 32875 N 3126.18 -0.502526 1.49373 0
M  V30 32876 C 3127.13 -1.60424 1.6593 0
M  V30 32877 C 3128.1 -1.58371 0.500795 0
M  V30 32878 O 3129.28 -1.76381 0.727637 0
M  V30 32879 C 3126.42 -2.98577 1.73049 0
M  V30 32880 C 3125.54 -3.10658 3.00193 0
M  V30 32881 C 3124.67 -4.39535 2.983 0
M  V30 32882 C 3123.71 -4.45243 4.2003 0
M  V30 32883 N 3122.85 -5.65546 4.16056 0
M  V30 32884 H 3127.69 -1.45614 2.60001 0
M  V30 32885 H 3125.22 -0.708497 1.28914 0
M  V30 32886 H 3127.18 -3.7865 1.75157 0
M  V30 32887 H 3125.81 -3.12094 0.824452 0
M  V30 32888 H 3124.86 -2.23658 3.07703 0
M  V30 32889 H 3126.18 -3.10735 3.90186 0
M  V30 32890 H 3125.33 -5.27927 2.98962 0
M  V30 32891 H 3124.07 -4.4202 2.06082 0
M  V30 32892 H 3123.07 -3.55253 4.19613 0
M  V30 32893 H 3124.3 -4.44475 5.13438 0
M  V30 32894 H 3122.25 -5.68876 3.26675 0
M  V30 32895 H 3122.16 -5.67233 4.99783 0
M  V30 32896 H 3123.43 -6.56149 4.20819 0
M  V30 32897 N 3127.66 -1.38422 -0.75346 0
M  V30 32898 C 3128.59 -1.3838 -1.88078 0
M  V30 32899 C 3129.57 -0.249693 -1.68257 0
M  V30 32900 O 3130.76 -0.452794 -1.88848 0
M  V30 32901 C 3127.89 -1.20824 -3.25605 0
M  V30 32902 C 3126.84 -2.3144 -3.60027 0
M  V30 32903 C 3126.17 -1.98989 -4.96294 0
M  V30 32904 C 3127.47 -3.737 -3.64891 0
M  V30 32905 H 3129.16 -2.32716 -1.88371 0
M  V30 32906 H 3126.71 -1.12018 -0.904871 0
M  V30 32907 H 3128.66 -1.19419 -4.04125 0
M  V30 32908 H 3127.38 -0.22949 -3.25793 0
M  V30 32909 H 3126.04 -2.3203 -2.83827 0
M  V30 32910 H 3125.69 -0.995975 -4.93041 0
M  V30 32911 H 3125.39 -2.73073 -5.20293 0
M  V30 32912 H 3126.91 -1.99203 -5.77192 0
M  V30 32913 H 3128.33 -3.7514 -4.33524 0
M  V30 32914 H 3126.72 -4.4699 -4.004 0
M  V30 32915 H 3127.79 -4.06006 -2.65117 0
M  V30 32916 N 3129.14 0.981655 -1.23294 0
M  V30 32917 C 3130.55 1.53733 -1.05939 0
M  V30 32918 C 3130.9 1.92609 0.373661 0
M  V30 32919 O 3130.02 1.75919 1.26021 0
M  V30 32920 C 3130.62 2.79359 -1.91687 0
M  V30 32921 C 3129.18 3.31331 -1.78597 0
M  V30 32922 C 3128.33 2.04332 -1.87467 0
M  V30 32923 H 3131.28 0.801481 -1.36974 0
M  V30 32924 H 3131.3 3.52162 -1.44092 0
M  V30 32925 H 3130.81 2.51033 -2.9598 0
M  V30 32926 H 3128.91 3.6454 -0.770819 0
M  V30 32927 H 3129.02 4.01174 -2.61909 0
M  V30 32928 H 3127.39 2.18409 -1.31034 0
M  V30 32929 H 3128.17 1.78388 -2.93313 0
M  V30 32930 N 3130.62 1.04444 1.18022 0
M  V30 32931 C 3132.03 0.777342 1.69748 0
M  V30 32932 C 3132.38 -0.701366 1.83236 0
M  V30 32933 O 3131.5 -1.54565 1.51455 0
M  V30 32934 C 3132.1 1.40446 3.08319 0
M  V30 32935 C 3130.66 1.18559 3.5724 0
M  V30 32936 C 3129.8 1.49275 2.33693 0
M  V30 32937 H 3132.75 1.21036 1.02645 0
M  V30 32938 H 3132.78 0.809694 3.71785 0
M  V30 32939 H 3132.29 2.48067 2.9847 0
M  V30 32940 H 3130.39 0.128287 3.72379 0
M  V30 32941 H 3130.5 1.88526 4.40448 0
M  V30 32942 H 3128.87 0.912568 2.3779 0
M  V30 32943 H 3129.65 2.58014 2.26459 0
M  V30 32944 N 3132.09 -1.34317 0.824418 0
M  V30 32945 C 3133.5 -1.80639 0.471833 0
M  V30 32946 C 3133.86 -1.68332 -1.0079 0
M  V30 32947 O 3132.98 -1.22419 -1.78445 0
M  V30 32948 C 3133.58 -3.27973 0.849667 0
M  V30 32949 C 3132.13 -3.72368 0.549431 0
M  V30 32950 C 3131.28 -2.56001 1.06578 0
M  V30 32951 H 3134.23 -1.22043 1.01445 0
M  V30 32952 H 3134.25 -3.80188 0.154035 0
M  V30 32953 H 3133.77 -3.36898 1.92668 0
M  V30 32954 H 3131.87 -3.6898 -0.518118 0
M  V30 32955 H 3131.98 -4.6643 1.09454 0
M  V30 32956 H 3130.34 -2.49996 0.487258 0
M  V30 32957 H 3131.13 -2.67696 2.14927 0
M  V30 32958 N 3133.57 -0.579517 -1.46558 0
M  V30 32959 C 3134.82 -0.0637512 -2.01999 0
M  V30 32960 C 3135.14 1.2996 -1.4538 0
M  V30 32961 O 3134.41 1.85244 -0.637294 0
M  V30 32962 H 3132.99 -0.0205769 -0.746717 0
M  V30 32963 H 3135.65 -0.754575 -1.797 0
M  V30 32964 H 3134.75 0.00764768 -3.12099 0
M  V30 32965 N 3135.05 1.54376 -0.317127 0
M  V30 32966 C 3136.47 1.5956 0.035738 0
M  V30 32967 C 3136.67 1.33381 1.51036 0
M  V30 32968 O 3135.72 1.11509 2.26544 0
M  V30 32969 C 3137.04 2.98331 -0.376705 0
M  V30 32970 C 3138.58 3.11289 -0.32682 0
M  V30 32971 C 3139.06 4.52395 -0.714327 0
M  V30 32972 N 3140.55 4.58365 -0.667483 0
M  V30 32973 C 3141.28 5.65649 -0.939594 0
M  V30 32974 N 3140.78 6.80901 -1.27851 0
M  V30 32975 N 3142.57 5.55395 -0.865582 0
M  V30 32976 H 3134.72 1.69651 -1.27797 0
M  V30 32977 H 3136.99 0.793171 -0.519214 0
M  V30 32978 H 3136.69 3.22466 -1.40386 0
M  V30 32979 H 3136.57 3.76292 0.261544 0
M  V30 32980 H 3138.95 2.86893 0.69112 0
M  V30 32981 H 3139.04 2.35447 -0.999915 0
M  V30 32982 H 3138.68 4.77523 -1.73015 0
M  V30 32983 H 3138.61 5.26597 -0.0189888 0
M  V30 32984 H 3141.1 3.75591 -0.417128 0
M  V30 32985 H 3141.41 7.58658 -1.47169 0
M  V30 32986 H 3139.76 6.82413 -1.3167 0
M  V30 32987 H 3142.95 4.64234 -0.600346 0
M  V30 32988 H 3143.12 6.3892 -1.08101 0
M  V30 32989 N 3136.53 0.0451655 1.57535 0
M  V30 32990 C 3137.75 -0.643225 1.97173 0
M  V30 32991 C 3138.18 -1.63937 0.922295 0
M  V30 32992 O 3137.54 -1.80934 -0.115123 0
M  V30 32993 C 3137.58 -1.31184 3.35891 0
M  V30 32994 O 3136.69 -2.42743 3.33391 0
M  V30 32995 H 3136.03 -0.167708 0.642472 0
M  V30 32996 H 3138.56 0.111783 2.04294 0
M  V30 32997 H 3138.57 -1.66492 3.72484 0
M  V30 32998 H 3137.24 -0.581751 4.11811 0
M  V30 32999 H 3135.82 -2.09427 3.08537 0
M  V30 33000 N 3138.01 -1.5594 -0.228159 0
M  V30 33001 C 3139.42 -1.68895 -0.795704 0
M  V30 33002 C 3139.77 -0.645999 -1.8526 0
M  V30 33003 O 3138.89 0.204162 -2.15435 0
M  V30 33004 C 3139.49 -3.062 -1.45007 0
M  V30 33005 C 3138.05 -3.21032 -1.96509 0
M  V30 33006 C 3137.19 -2.6481 -0.822872 0
M  V30 33007 H 3140.15 -1.587 -0.00362061 0
M  V30 33008 H 3140.17 -3.01689 -2.3187 0
M  V30 33009 H 3139.68 -3.82085 -0.68061 0
M  V30 33010 H 3137.78 -2.50003 -2.76277 0
M  V30 33011 H 3137.89 -4.28169 -2.1496 0
M  V30 33012 H 3136.26 -2.23118 -1.22842 0
M  V30 33013 H 3137.04 -3.43236 -0.066189 0
M  V30 33014 N 3139.48 0.494597 -1.49638 0
M  V30 33015 C 3140.41 1.60393 -1.69695 0
M  V30 33016 C 3141.4 1.6111 -0.545676 0
M  V30 33017 O 3142.58 1.77749 -0.782233 0
M  V30 33018 C 3139.71 2.98847 -1.7694 0
M  V30 33019 C 3138.66 3.12996 -2.9192 0
M  V30 33020 C 3137.99 4.52865 -2.84284 0
M  V30 33021 C 3139.29 2.92418 -4.32769 0
M  V30 33022 H 3140.98 1.43862 -2.62572 0
M  V30 33023 H 3138.53 0.690657 -1.26356 0
M  V30 33024 H 3140.48 3.76359 -1.89557 0
M  V30 33025 H 3139.21 3.16481 -0.806664 0
M  V30 33026 H 3137.87 2.37911 -2.78916 0
M  V30 33027 H 3137.51 4.67384 -1.85905 0
M  V30 33028 H 3137.21 4.63272 -3.6146 0
M  V30 33029 H 3138.74 5.32429 -2.98918 0
M  V30 33030 H 3140.15 3.59695 -4.46422 0
M  V30 33031 H 3138.55 3.14291 -5.11215 0
M  V30 33032 H 3139.62 1.88483 -4.46769 0
M  V30 33033 N 3140.96 1.3882 0.746109 0
M  V30 33034 C 3141.93 1.36441 1.84165 0
M  V30 33035 C 3142.93 0.263527 1.58626 0
M  V30 33036 O 3144.12 0.52083 1.66232 0
M  V30 33037 C 3141.25 1.12601 3.21767 0
M  V30 33038 H 3142.44 2.33915 1.8768 0
M  V30 33039 H 3139.99 1.24222 0.948603 0
M  V30 33040 H 3140.73 0.157637 3.23917 0
M  V30 33041 H 3140.51 1.92313 3.41699 0
M  V30 33042 H 3142 1.1365 4.01838 0
M  V30 33043 N 3142.44 -0.975103 1.23812 0
M  V30 33044 C 3143.37 -2.07106 0.981815 0
M  V30 33045 C 3144.39 -1.62735 -0.0460925 0
M  V30 33046 O 3145.57 -1.77485 0.19007 0
M  V30 33047 C 3142.67 -3.35785 0.458423 0
M  V30 33048 C 3141.85 -4.09101 1.54774 0
M  V30 33049 C 3140.91 -5.16055 1.02829 0
M  V30 33050 O 3139.93 -5.42641 1.71841 0
M  V30 33051 N 3141.13 -5.80328 -0.141141 0
M  V30 33052 H 3143.9 -2.2967 1.92541 0
M  V30 33053 H 3141.46 -1.14219 1.14742 0
M  V30 33054 H 3143.45 -4.04587 0.0958397 0
M  V30 33055 H 3142.02 -3.10149 -0.390714 0
M  V30 33056 H 3141.24 -3.3468 2.08285 0
M  V30 33057 H 3142.53 -4.54849 2.28014 0
M  V30 33058 H 3141.93 -5.61121 -0.718283 0
M  V30 33059 H 3140.49 -6.5028 -0.444938 0
M  V30 33060 N 3143.92 -1.05068 -1.17467 0
M  V30 33061 C 3145.33 -0.771794 -1.39698 0
M  V30 33062 C 3145.53 0.634348 -1.91254 0
M  V30 33063 O 3144.59 1.39695 -2.10336 0
M  V30 33064 C 3145.9 -1.82635 -2.38883 0
M  V30 33065 C 3147.45 -1.84842 -2.52591 0
M  V30 33066 C 3147.93 -2.89317 -3.55049 0
M  V30 33067 N 3149.42 -2.88272 -3.62565 0
M  V30 33068 C 3150.15 -3.65759 -4.41597 0
M  V30 33069 N 3149.65 -4.53028 -5.24154 0
M  V30 33070 N 3151.44 -3.54205 -4.36458 0
M  V30 33071 H 3143.59 -1.95794 -0.82332 0
M  V30 33072 H 3145.86 -0.847744 -0.424305 0
M  V30 33073 H 3145.56 -2.83549 -2.0807 0
M  V30 33074 H 3145.44 -1.66693 -3.38369 0
M  V30 33075 H 3147.82 -0.845938 -2.82715 0
M  V30 33076 H 3147.9 -2.04862 -1.53184 0
M  V30 33077 H 3147.55 -3.89751 -3.25664 0
M  V30 33078 H 3147.48 -2.6655 -4.54157 0
M  V30 33079 H 3149.97 -2.24995 -3.03621 0
M  V30 33080 H 3150.28 -5.0884 -5.81637 0
M  V30 33081 H 3148.63 -4.5709 -5.23539 0
M  V30 33082 H 3151.82 -2.85422 -3.71015 0
M  V30 33083 H 3151.99 -4.1484 -4.97807 0
M  V30 33084 N 3145.4 1.33878 -0.831529 0
M  V30 33085 C 3146.81 1.80387 -0.481406 0
M  V30 33086 C 3147.16 1.68864 0.998963 0
M  V30 33087 O 3146.28 1.23363 1.77793 0
M  V30 33088 C 3146.88 3.27518 -0.867048 0
M  V30 33089 C 3145.44 3.72072 -0.56917 0
M  V30 33090 C 3144.58 2.55432 -1.07934 0
M  V30 33091 H 3147.54 1.21503 -1.02091 0
M  V30 33092 H 3147.56 3.80101 -0.174195 0
M  V30 33093 H 3147.07 3.35872 -1.94452 0
M  V30 33094 H 3145.17 3.6925 0.498542 0
M  V30 33095 H 3145.28 4.65843 -1.11926 0
M  V30 33096 H 3143.65 2.49734 -0.500509 0
M  V30 33097 H 3144.43 2.66552 -2.16344 0
M  V30 33098 N 3146.87 0.587281 1.46249 0
M  V30 33099 C 3147.8 -0.131035 2.33132 0
M  V30 33100 C 3148.79 -0.879133 1.4562 0
M  V30 33101 O 3149.97 -0.853692 1.7443 0
M  V30 33102 C 3147.1 -1.1423 3.27977 0
M  V30 33103 C 3146.05 -0.508744 4.24966 0
M  V30 33104 C 3145.38 -1.62681 5.09352 0
M  V30 33105 C 3146.68 0.557031 5.19321 0
M  V30 33106 H 3148.37 0.594384 2.93441 0
M  V30 33107 H 3145.92 0.287287 1.41105 0
M  V30 33108 H 3147.87 -1.65322 3.87617 0
M  V30 33109 H 3146.6 -1.89805 2.65785 0
M  V30 33110 H 3145.26 -0.0188693 3.66595 0
M  V30 33111 H 3144.9 -2.37234 4.43542 0
M  V30 33112 H 3144.6 -1.20851 5.75038 0
M  V30 33113 H 3146.13 -2.14039 5.71856 0
M  V30 33114 H 3147.54 0.131004 5.7315 0
M  V30 33115 H 3145.94 0.895905 5.93375 0
M  V30 33116 H 3147.01 1.44156 4.62976 0
M  V30 33117 N 3148.35 -1.54206 0.325309 0
M  V30 33118 C 3149.77 -1.59577 -0.0272756 0
M  V30 33119 C 3149.97 -1.3418 -1.50326 0
M  V30 33120 O 3149.02 -1.12709 -2.25949 0
M  V30 33121 C 3150.34 -2.98127 0.392521 0
M  V30 33122 C 3151.89 -3.11111 0.343324 0
M  V30 33123 C 3152.36 -4.5201 0.738308 0
M  V30 33124 N 3153.85 -4.58005 0.691782 0
M  V30 33125 C 3154.59 -5.65143 0.969578 0
M  V30 33126 N 3154.08 -6.80213 1.3146 0
M  V30 33127 N 3155.88 -5.54929 0.895024 0
M  V30 33128 H 3148.03 -1.68971 1.28695 0
M  V30 33129 H 3150.29 -0.790407 0.523413 0
M  V30 33130 H 3150 -3.21717 1.42094 0
M  V30 33131 H 3149.87 -3.76426 -0.241585 0
M  V30 33132 H 3152.26 -2.87255 -0.675895 0
M  V30 33133 H 3152.34 -2.34914 1.01239 0
M  V30 33134 H 3151.98 -4.76599 1.75545 0
M  V30 33135 H 3151.91 -5.26579 0.0469152 0
M  V30 33136 H 3154.4 -3.75364 0.437041 0
M  V30 33137 H 3154.72 -7.57866 1.5119 0
M  V30 33138 H 3153.06 -6.81705 1.35288 0
M  V30 33139 H 3156.25 -4.63909 0.624957 0
M  V30 33140 H 3156.42 -6.38337 1.11488 0
M  V30 33141 N 3149.83 -0.0535194 -1.57509 0
M  V30 33142 C 3151.25 0.30304 -1.56697 0
M  V30 33143 C 3151.45 1.7128 -1.06138 0
M  V30 33144 O 3150.5 2.42046 -0.719033 0
M  V30 33145 C 3151.82 0.129365 -3.00422 0
M  V30 33146 C 3153.36 0.200291 -3.12359 0
M  V30 33147 C 3153.84 0.0551166 -4.57967 0
M  V30 33148 N 3155.33 0.111317 -4.63066 0
M  V30 33149 C 3156.07 0.0231336 -5.73395 0
M  V30 33150 N 3155.56 -0.117532 -6.927 0
M  V30 33151 N 3157.35 0.0788852 -5.62045 0
M  V30 33152 H 3149.51 -0.975098 -1.88694 0
M  V30 33153 H 3151.77 -0.378721 -0.869065 0
M  V30 33154 H 3151.47 -0.842713 -3.41455 0
M  V30 33155 H 3151.35 0.889411 -3.66564 0
M  V30 33156 H 3153.74 1.16284 -2.71223 0
M  V30 33157 H 3153.82 -0.59055 -2.4889 0
M  V30 33158 H 3153.46 -0.904121 -4.99788 0
M  V30 33159 H 3153.39 0.865132 -5.19445 0
M  V30 33160 H 3155.88 0.219189 -3.77264 0
M  V30 33161 H 3156.19 -0.177462 -7.72596 0
M  V30 33162 H 3154.54 -0.152648 -6.94832 0
M  V30 33163 H 3157.73 0.187351 -4.67725 0
M  V30 33164 H 3157.9 0.00670341 -6.48 0
M  V30 33165 N 3151.31 1.56059 0.219886 0
M  V30 33166 C 3152.24 1.8904 1.29601 0
M  V30 33167 C 3153.25 0.778816 1.42963 0
M  V30 33168 O 3154.44 1.05712 1.4383 0
M  V30 33169 C 3151.54 2.08539 2.67142 0
M  V30 33170 C 3150.72 3.39566 2.75706 0
M  V30 33171 C 3149.78 3.48476 3.94273 0
M  V30 33172 O 3148.8 4.21494 3.82533 0
M  V30 33173 N 3150 2.79741 5.0865 0
M  V30 33174 H 3152.77 2.81941 1.01633 0
M  V30 33175 H 3150.33 1.56625 0.409918 0
M  V30 33176 H 3152.32 2.11814 3.44843 0
M  V30 33177 H 3150.89 1.22255 2.87702 0
M  V30 33178 H 3150.11 3.48375 1.84469 0
M  V30 33179 H 3151.4 4.25877 2.784 0
M  V30 33180 H 3150.8 2.20199 5.21084 0
M  V30 33181 H 3149.35 2.88675 5.84389 0
M  V30 33182 N 3152.79 -0.486655 1.49898 0
M  V30 33183 C 3153.75 -1.56888 1.67089 0
M  V30 33184 C 3154.75 -1.51386 0.542117 0
M  V30 33185 O 3155.94 -1.54283 0.808858 0
M  V30 33186 C 3153.07 -2.96536 1.68165 0
M  V30 33187 H 3154.27 -1.42969 2.63628 0
M  V30 33188 H 3151.82 -0.71193 1.39145 0
M  V30 33189 H 3152.55 -3.15916 0.732618 0
M  V30 33190 H 3152.34 -3.01937 2.50153 0
M  V30 33191 H 3153.83 -3.75137 1.83472 0
M  V30 33192 N 3154.27 -1.39214 -0.738737 0
M  V30 33193 C 3155.23 -1.37415 -1.83438 0
M  V30 33194 C 3156.23 -0.271936 -1.58484 0
M  V30 33195 O 3157.42 -0.529638 -1.65953 0
M  V30 33196 C 3154.55 -1.14306 -3.21165 0
M  V30 33197 H 3155.74 -2.34907 -1.86437 0
M  V30 33198 H 3153.3 -1.24724 -0.942002 0
M  V30 33199 H 3154.03 -0.174813 -3.23828 0
M  V30 33200 H 3153.82 -1.94122 -3.40674 0
M  V30 33201 H 3155.31 -1.1578 -4.01229 0
M  V30 33202 N 3155.74 0.968523 -1.24328 0
M  V30 33203 C 3156.99 1.70571 -1.0765 0
M  V30 33204 C 3157.31 1.91778 0.384787 0
M  V30 33205 O 3158.51 2.63059 0.671736 0
M  V30 33206 C 3156.97 3.07014 -1.87804 0
M  V30 33207 C 3156.58 2.93652 -3.38338 0
M  V30 33208 C 3158.32 3.8461 -1.79653 0
M  V30 33209 C 3156.23 4.254 -4.10839 0
M  V30 33210 H 3155.16 0.639635 -0.399228 0
M  V30 33211 H 3157.81 1.07931 -1.48402 0
M  V30 33212 H 3156.19 3.70477 -1.39866 0
M  V30 33213 H 3157.36 2.39206 -3.93849 0
M  V30 33214 H 3155.68 2.29522 -3.47431 0
M  V30 33215 H 3158.28 4.82168 -2.31124 0
M  V30 33216 H 3158.62 4.09274 -0.761625 0
M  V30 33217 H 3159.15 3.27872 -2.25267 0
M  V30 33218 H 3155.89 4.0593 -5.14686 0
M  V30 33219 H 3155.41 4.79665 -3.60113 0
M  V30 33220 H 3157.09 4.94024 -4.17791 0
M  V30 33221 N 3157.22 1.0569 1.16908 0
M  V30 33222 C 3158.64 0.779191 1.39287 0
M  V30 33223 C 3158.84 -0.624197 1.91588 0
M  V30 33224 O 3157.89 -1.38578 2.11074 0
M  V30 33225 C 3159.21 1.83899 2.37911 0
M  V30 33226 C 3160.75 1.86179 2.51608 0
M  V30 33227 C 3161.23 2.91196 3.53509 0
M  V30 33228 N 3162.72 2.90191 3.61031 0
M  V30 33229 C 3163.46 3.68096 4.39651 0
M  V30 33230 N 3162.95 4.55802 5.21744 0
M  V30 33231 N 3164.74 3.56514 4.34573 0
M  V30 33232 H 3156.9 1.96228 0.812925 0
M  V30 33233 H 3159.16 0.849982 0.419803 0
M  V30 33234 H 3158.86 2.84648 2.06563 0
M  V30 33235 H 3158.74 1.68485 3.3748 0
M  V30 33236 H 3161.13 0.860919 2.82263 0
M  V30 33237 H 3161.21 2.05671 1.52096 0
M  V30 33238 H 3160.85 3.91472 3.23592 0
M  V30 33239 H 3160.78 2.68955 4.52737 0
M  V30 33240 H 3163.27 2.26602 3.02424 0
M  V30 33241 H 3163.58 5.11918 5.7893 0
M  V30 33242 H 3161.93 4.5986 5.21108 0
M  V30 33243 H 3165.12 2.87386 3.69496 0
M  V30 33244 H 3165.29 4.17475 4.956 0
M  V30 33245 N 3158.7 -1.33435 0.838617 0
M  V30 33246 C 3159.93 -2.01999 0.44768 0
M  V30 33247 C 3160.34 -1.63098 -0.951024 0
M  V30 33248 O 3159.7 -0.844197 -1.61801 0
M  V30 33249 C 3159.75 -3.57161 0.558441 0
M  V30 33250 O 3159.47 -3.94657 1.90203 0
M  V30 33251 C 3160.97 -4.42995 0.164426 0
M  V30 33252 H 3158.19 -0.647029 0.177748 0
M  V30 33253 H 3160.74 -1.7037 1.13112 0
M  V30 33254 H 3158.89 -3.87323 -0.0770882 0
M  V30 33255 H 3159.31 -4.89365 1.88738 0
M  V30 33256 H 3160.78 -5.51222 0.292973 0
M  V30 33257 H 3161.26 -4.30013 -0.893638 0
M  V30 33258 H 3161.86 -4.18191 0.77438 0
M  V30 33259 N 3160.18 -0.595029 -1.45935 0
M  V30 33260 C 3161.45 -0.0179092 -1.95592 0
M  V30 33261 C 3161.83 1.4464 -1.53761 0
M  V30 33262 O 3161.18 2.14256 -0.794142 0
M  V30 33263 C 3161.39 -0.202851 -3.4841 0
M  V30 33264 C 3162.74 -0.0770867 -4.2453 0
M  V30 33265 O 3163.76 -0.13232 -3.55954 0
M  V30 33266 O 3162.62 0.0483311 -5.46479 0
M  V30 33267 H 3159.72 0.0428557 -0.825889 0
M  V30 33268 H 3162.26 -0.664212 -1.56161 0
M  V30 33269 H 3161.04 -1.22033 -3.71784 0
M  V30 33270 H 3160.66 0.479307 -3.947 0
M  V30 33271 N 3161.66 1.54031 -0.333483 0
M  V30 33272 C 3162.88 2.05629 0.270481 0
M  V30 33273 C 3163.31 1.20746 1.44229 0
M  V30 33274 O 3162.66 0.218854 1.79974 0
M  V30 33275 C 3162.71 3.54261 0.673189 0
M  V30 33276 O 3161.82 3.72274 1.77442 0
M  V30 33277 H 3161.16 0.662337 0.0469637 0
M  V30 33278 H 3163.69 1.98774 -0.484774 0
M  V30 33279 H 3163.7 3.96711 0.953124 0
M  V30 33280 H 3162.37 4.15494 -0.18382 0
M  V30 33281 H 3160.95 3.41728 1.49253 0
M  V30 33282 N 3163.13 0.0618717 1.57479 0
M  V30 33283 C 3164.06 -0.906562 2.15183 0
M  V30 33284 C 3165.04 -1.31722 1.07626 0
M  V30 33285 O 3166.23 -1.39003 1.35616 0
M  V30 33286 C 3163.36 -2.17767 2.70546 0
M  V30 33287 C 3162.31 -1.90673 3.83181 0
M  V30 33288 C 3161.64 -3.2433 4.25105 0
M  V30 33289 C 3162.94 -1.21985 5.07855 0
M  V30 33290 H 3164.63 -0.425888 2.96355 0
M  V30 33291 H 3162.18 -0.20341 1.42556 0
M  V30 33292 H 3164.13 -2.85924 3.09557 0
M  V30 33293 H 3162.86 -2.68059 1.8658 0
M  V30 33294 H 3161.52 -1.24925 3.44658 0
M  V30 33295 H 3161.16 -3.72443 3.38075 0
M  V30 33296 H 3160.86 -3.06996 5.01026 0
M  V30 33297 H 3162.39 -3.93701 4.66725 0
M  V30 33298 H 3163.8 -1.80195 5.44245 0
M  V30 33299 H 3162.2 -1.14943 5.88989 0
M  V30 33300 H 3163.27 -0.197451 4.84498 0
M  V30 33301 N 3164.61 -1.56173 -0.211607 0
M  V30 33302 C 3165.89 -1.70453 -0.959438 0
M  V30 33303 C 3166.27 -0.611977 -2.02035 0
M  V30 33304 O 3165.62 0.37955 -2.25326 0
M  V30 33305 C 3165.83 -3.12151 -1.56086 0
M  V30 33306 C 3167.18 -3.71871 -2.04932 0
M  V30 33307 O 3168.2 -3.15175 -1.65961 0
M  V30 33308 O 3167.06 -4.71338 -2.76592 0
M  V30 33309 H 3164.15 -0.694607 -0.448831 0
M  V30 33310 H 3166.7 -1.68486 -0.202604 0
M  V30 33311 H 3165.47 -3.83132 -0.795313 0
M  V30 33312 H 3165.09 -3.18277 -2.38297 0
M  V30 33313 N 3166.09 0.478699 -1.50154 0
M  V30 33314 C 3167.34 1.23315 -1.61001 0
M  V30 33315 C 3167.67 1.91776 -0.305902 0
M  V30 33316 O 3166.94 1.81769 0.692126 0
M  V30 33317 C 3167.23 2.28277 -2.78499 0
M  V30 33318 C 3167.08 1.64171 -4.1877 0
M  V30 33319 C 3168.4 3.29654 -2.91575 0
M  V30 33320 H 3165.52 0.446971 -0.585991 0
M  V30 33321 H 3168.16 0.528031 -1.82515 0
M  V30 33322 H 3166.31 2.88415 -2.60286 0
M  V30 33323 H 3167.98 1.07688 -4.48554 0
M  V30 33324 H 3166.23 0.945065 -4.2338 0
M  V30 33325 H 3166.9 2.40408 -4.96898 0
M  V30 33326 H 3169.37 2.79531 -3.08224 0
M  V30 33327 H 3168.25 4.00433 -3.75426 0
M  V30 33328 H 3168.51 3.93322 -2.01866 0
M  V30 33329 N 3167.57 1.39603 0.731343 0
M  V30 33330 C 3168.5 1.34519 1.85573 0
M  V30 33331 C 3169.51 0.253316 1.60817 0
M  V30 33332 O 3170.7 0.512535 1.70983 0
M  V30 33333 C 3167.8 1.06682 3.21671 0
M  V30 33334 C 3166.98 2.27217 3.73753 0
M  V30 33335 C 3166.03 1.95781 4.88422 0
M  V30 33336 O 3165.06 2.685 5.01893 0
M  V30 33337 N 3166.26 0.926184 5.73064 0
M  V30 33338 H 3169.03 2.31416 1.90438 0
M  V30 33339 H 3166.59 1.33753 0.912234 0
M  V30 33340 H 3168.58 0.836646 3.95957 0
M  V30 33341 H 3167.15 0.185058 3.12052 0
M  V30 33342 H 3166.37 2.66163 2.90776 0
M  V30 33343 H 3167.66 3.07609 4.05283 0
M  V30 33344 H 3167.06 0.323597 5.64774 0
M  V30 33345 H 3165.61 0.755909 6.47402 0
M  V30 33346 N 3169.05 -0.961916 1.2484 0
M  V30 33347 C 3170.29 -1.70226 1.08939 0
M  V30 33348 C 3170.62 -1.91428 -0.371548 0
M  V30 33349 O 3169.89 -1.49617 -1.26458 0
M  V30 33350 H 3168.47 -0.630792 0.400139 0
M  V30 33351 H 3171.13 -1.1569 1.5685 0
M  V30 33352 H 3170.22 -2.68444 1.59199 0
M  V30 33353 N 3170.52 -1.06308 -1.16346 0
M  V30 33354 C 3171.45 -0.695273 -2.22909 0
M  V30 33355 C 3172.44 0.312313 -1.67208 0
M  V30 33356 O 3173.62 0.187408 -1.93294 0
M  V30 33357 C 3170.75 -0.0810759 -3.47205 0
M  V30 33358 C 3169.7 -1.01465 -4.15799 0
M  V30 33359 C 3169.03 -0.26375 -5.34049 0
M  V30 33360 C 3170.33 -2.34373 -4.66762 0
M  V30 33361 H 3172.02 -1.58618 -2.53931 0
M  V30 33362 H 3169.57 -0.764111 -1.22055 0
M  V30 33363 H 3171.52 0.188106 -4.2098 0
M  V30 33364 H 3170.25 0.844842 -3.15484 0
M  V30 33365 H 3168.91 -1.26858 -3.43951 0
M  V30 33366 H 3168.55 0.665291 -4.98581 0
M  V30 33367 H 3168.25 -0.885922 -5.80883 0
M  V30 33368 H 3169.78 -0.00211727 -6.106 0
M  V30 33369 H 3171.19 -2.13366 -5.32117 0
M  V30 33370 H 3169.59 -2.92089 -5.24218 0
M  V30 33371 H 3170.66 -2.97433 -3.82964 0
M  V30 33372 N 3172 1.32989 -0.845682 0
M  V30 33373 C 3173.25 1.97167 -0.443809 0
M  V30 33374 C 3173.57 1.67294 1.00189 0
M  V30 33375 O 3172.84 0.975427 1.69889 0
M  V30 33376 H 3171.42 0.729416 -0.161124 0
M  V30 33377 H 3174.08 1.62231 -1.08014 0
M  V30 33378 H 3173.18 3.06636 -0.581467 0
M  V30 33379 N 3173.48 0.60276 1.45618 0
M  V30 33380 C 3174.71 0.100465 2.07157 0
M  V30 33381 C 3175.13 -1.2039 1.44526 0
M  V30 33382 O 3174.49 -1.73189 0.536221 0
M  V30 33383 C 3174.54 -0.030797 3.60587 0
M  V30 33384 O 3173.64 -1.08227 3.97946 0
M  V30 33385 H 3172.98 0.0718759 0.660098 0
M  V30 33386 H 3175.51 0.831399 1.86946 0
M  V30 33387 H 3175.52 -0.230563 4.07348 0
M  V30 33388 H 3174.2 0.921652 4.05559 0
M  V30 33389 H 3172.77 -0.85935 3.62863 0
M  V30 33390 N 3174.96 -1.53852 0.341647 0
M  V30 33391 C 3176.37 -1.59597 -0.0103488 0
M  V30 33392 C 3176.57 -1.35767 -1.48895 0
M  V30 33393 O 3175.63 -1.15099 -2.24741 0
M  V30 33394 C 3176.94 -2.97694 0.424119 0
M  V30 33395 C 3178.49 -3.1073 0.376302 0
M  V30 33396 C 3178.97 -4.51201 0.786209 0
M  V30 33397 N 3180.46 -4.57246 0.74032 0
M  V30 33398 C 3181.19 -5.64083 1.02946 0
M  V30 33399 N 3180.69 -6.78781 1.38667 0
M  V30 33400 N 3182.48 -5.53948 0.953831 0
M  V30 33401 H 3174.63 -1.67597 1.3048 0
M  V30 33402 H 3176.9 -0.784811 0.531767 0
M  V30 33403 H 3176.6 -3.20192 1.45499 0
M  V30 33404 H 3176.48 -3.76661 -0.201646 0
M  V30 33405 H 3178.86 -2.87956 -0.64539 0
M  V30 33406 H 3178.94 -2.33827 1.03725 0
M  V30 33407 H 3178.59 -4.7471 1.8059 0
M  V30 33408 H 3178.52 -5.265 0.102763 0
M  V30 33409 H 3181.01 -3.7488 0.476829 0
M  V30 33410 H 3181.32 -7.5622 1.5922 0
M  V30 33411 H 3179.67 -6.80232 1.4251 0
M  V30 33412 H 3182.86 -4.6322 0.674126 0
M  V30 33413 H 3183.03 -6.37119 1.18252 0
M  V30 33414 N 3176.44 -0.0702223 -1.57443 0
M  V30 33415 C 3177.35 0.912339 -2.16133 0
M  V30 33416 C 3178.36 1.32817 -1.12409 0
M  V30 33417 O 3179.54 1.40119 -1.44667 0
M  V30 33418 C 3176.6 2.16226 -2.71011 0
M  V30 33419 C 3175.66 1.80299 -3.89603 0
M  V30 33420 C 3174.9 2.99333 -4.41855 0
M  V30 33421 O 3175.12 4.13302 -3.93113 0
M  V30 33422 O 3174.05 2.7924 -5.33206 0
M  V30 33423 H 3177.88 0.443114 -3.0045 0
M  V30 33424 H 3175.47 0.15276 -1.48617 0
M  V30 33425 H 3177.35 2.89525 -3.06192 0
M  V30 33426 H 3176.02 2.62249 -1.89755 0
M  V30 33427 H 3174.93 1.04257 -3.59279 0
M  V30 33428 H 3176.26 1.3906 -4.72147 0
M  V30 33429 N 3177.91 1.56283 0.203321 0
M  V30 33430 C 3179.19 1.70959 0.950385 0
M  V30 33431 C 3179.57 0.622683 2.01707 0
M  V30 33432 O 3178.92 -0.367595 2.25524 0
M  V30 33433 C 3179.13 3.12974 1.54428 0
M  V30 33434 C 3180.48 3.72953 2.02957 0
M  V30 33435 O 3181.5 3.16051 1.64287 0
M  V30 33436 O 3180.36 4.72798 2.74089 0
M  V30 33437 H 3177.45 0.696978 0.445141 0
M  V30 33438 H 3180 1.68591 0.193666 0
M  V30 33439 H 3178.77 3.83549 0.774983 0
M  V30 33440 H 3178.4 3.19536 2.36606 0
M  V30 33441 N 3179.39 -0.470729 1.50406 0
M  V30 33442 C 3180.32 -1.57673 1.72225 0
M  V30 33443 C 3181.3 -1.60221 0.571238 0
M  V30 33444 O 3182.49 -1.76482 0.810412 0
M  V30 33445 C 3179.62 -2.95994 1.81672 0
M  V30 33446 C 3178.57 -3.08312 2.96863 0
M  V30 33447 C 3177.9 -4.48285 2.91453 0
M  V30 33448 C 3179.2 -2.85496 4.37366 0
M  V30 33449 H 3180.89 -1.39666 2.64828 0
M  V30 33450 H 3178.44 -0.670468 1.27439 0
M  V30 33451 H 3180.39 -3.73296 1.95521 0
M  V30 33452 H 3179.12 -3.15158 0.856912 0
M  V30 33453 H 3177.78 -2.33444 2.82665 0
M  V30 33454 H 3177.42 -4.64368 1.93318 0
M  V30 33455 H 3177.12 -4.57462 3.68784 0
M  V30 33456 H 3178.65 -5.27606 3.07351 0
M  V30 33457 H 3180.06 -3.52548 4.52088 0
M  V30 33458 H 3178.46 -3.06118 5.16151 0
M  V30 33459 H 3179.53 -1.81351 4.49711 0
M  V30 33460 N 3180.87 -1.39989 -0.72393 0
M  V30 33461 C 3181.8 -1.42338 -1.851 0
M  V30 33462 C 3182.78 -0.285327 -1.6769 0
M  V30 33463 O 3183.97 -0.492749 -1.87845 0
M  V30 33464 C 3181.1 -1.27703 -3.22969 0
M  V30 33465 C 3180.05 -2.39024 -3.55037 0
M  V30 33466 C 3179.38 -2.09471 -4.91961 0
M  V30 33467 C 3180.68 -3.81356 -3.56882 0
M  V30 33468 H 3182.37 -2.3666 -1.83392 0
M  V30 33469 H 3179.92 -1.13912 -0.880906 0
M  V30 33470 H 3181.87 -1.27965 -4.01501 0
M  V30 33471 H 3180.59 -0.298544 -3.25233 0
M  V30 33472 H 3179.25 -2.37998 -2.78841 0
M  V30 33473 H 3178.9 -1.10033 -4.90817 0
M  V30 33474 H 3178.6 -2.84047 -5.14384 0
M  V30 33475 H 3180.13 -2.11401 -5.72837 0
M  V30 33476 H 3181.54 -3.84251 -4.25469 0
M  V30 33477 H 3179.94 -4.55383 -3.90828 0
M  V30 33478 H 3181.01 -4.11538 -2.56445 0
M  V30 33479 N 3182.35 0.955282 -1.25348 0
M  V30 33480 C 3183.31 2.03342 -1.05757 0
M  V30 33481 C 3184.31 1.60797 -0.0106026 0
M  V30 33482 O 3185.5 1.72357 -0.252729 0
M  V30 33483 C 3182.63 3.35478 -0.605595 0
M  V30 33484 H 3183.83 2.22154 -2.01463 0
M  V30 33485 H 3181.38 1.13228 -1.07746 0
M  V30 33486 H 3182.12 3.22361 0.354097 0
M  V30 33487 H 3181.9 3.67707 -1.36141 0
M  V30 33488 H 3183.39 4.14716 -0.48994 0
M  V30 33489 N 3183.83 1.06924 1.1578 0
M  V30 33490 C 3184.74 0.696988 2.24007 0
M  V30 33491 C 3185.75 -0.289832 1.71569 0
M  V30 33492 O 3186.93 -0.13755 2.0093 0
M  V30 33493 C 3183.99 0.0958504 3.46567 0
M  V30 33494 C 3183.06 1.13535 4.14015 0
M  V30 33495 C 3182.29 0.562806 5.30724 0
M  V30 33496 O 3182.51 -0.62249 5.66993 0
M  V30 33497 O 3181.45 1.30559 5.87569 0
M  V30 33498 H 3185.27 1.59942 2.58171 0
M  V30 33499 H 3182.86 0.84191 1.23419 0
M  V30 33500 H 3184.74 -0.237333 4.20731 0
M  V30 33501 H 3183.41 -0.779972 3.14163 0
M  V30 33502 H 3182.32 1.52082 3.41792 0
M  V30 33503 H 3183.65 1.98292 4.5049 0
M  V30 33504 N 3185.31 -1.32538 0.852723 0
M  V30 33505 C 3186.55 -1.97611 0.455832 0
M  V30 33506 C 3186.88 -1.67332 -0.985586 0
M  V30 33507 O 3186.16 -0.960523 -1.69128 0
M  V30 33508 C 3186.44 -3.53365 0.693183 0
M  V30 33509 C 3186.3 -3.93282 2.18288 0
M  V30 33510 C 3187.61 -4.3985 0.148314 0
M  V30 33511 H 3184.73 -0.717809 0.167091 0
M  V30 33512 H 3187.38 -1.56952 1.07079 0
M  V30 33513 H 3185.53 -3.88129 0.169745 0
M  V30 33514 H 3187.2 -3.68706 2.77225 0
M  V30 33515 H 3185.44 -3.42511 2.66212 0
M  V30 33516 H 3186.11 -5.01817 2.29965 0
M  V30 33517 H 3188.59 -4.11811 0.595906 0
M  V30 33518 H 3187.46 -5.47821 0.34397 0
M  V30 33519 H 3187.72 -4.31799 -0.948796 0
M  V30 33520 N 3186.78 -0.610474 -1.45296 0
M  V30 33521 C 3188.01 -0.11145 -2.071 0
M  V30 33522 C 3188.43 1.19622 -1.45163 0
M  V30 33523 O 3187.79 1.72902 -0.545398 0
M  V30 33524 C 3187.84 0.0116738 -3.60598 0
M  V30 33525 O 3186.94 1.06115 -3.98514 0
M  V30 33526 H 3186.28 -0.0753756 -0.659708 0
M  V30 33527 H 3188.81 -0.841301 -1.86503 0
M  V30 33528 H 3188.82 0.208957 -4.07465 0
M  V30 33529 H 3187.5 -0.943147 -4.05065 0
M  V30 33530 H 3186.08 0.840094 -3.63314 0
M  V30 33531 N 3188.26 1.53669 -0.349801 0
M  V30 33532 C 3189.51 2.00618 0.244308 0
M  V30 33533 C 3189.83 1.23916 1.50565 0
M  V30 33534 O 3189.1 0.34805 1.92783 0
M  V30 33535 H 3187.68 0.741155 0.0932662 0
M  V30 33536 H 3190.34 1.89088 -0.4724 0
M  V30 33537 H 3189.44 3.0835 0.482378 0
M  V30 33538 N 3189.74 0.0785709 1.57404 0
M  V30 33539 C 3191.15 -0.453078 1.81119 0
M  V30 33540 C 3191.5 -1.69216 0.992993 0
M  V30 33541 O 3190.63 -2.15304 0.217486 0
M  V30 33542 C 3191.22 -0.828762 3.28507 0
M  V30 33543 C 3189.78 -1.30524 3.53045 0
M  V30 33544 C 3188.93 -0.293732 2.7574 0
M  V30 33545 H 3191.88 0.304199 1.55757 0
M  V30 33546 H 3191.9 -1.68965 3.40927 0
M  V30 33547 H 3191.41 0.0732508 3.88031 0
M  V30 33548 H 3189.51 -2.22552 2.98833 0
M  V30 33549 H 3189.63 -1.27849 4.61727 0
M  V30 33550 H 3187.99 -0.772434 2.42705 0
M  V30 33551 H 3188.77 0.600672 3.38004 0
M  V30 33552 N 3191.22 -1.56389 -0.19503 0
M  V30 33553 C 3192.44 -1.85092 -0.935713 0
M  V30 33554 C 3192.87 -0.662149 -1.7606 0
M  V30 33555 O 3192.23 0.389052 -1.77076 0
M  V30 33556 C 3192.27 -3.12023 -1.80759 0
M  V30 33557 O 3191.38 -2.9258 -2.90638 0
M  V30 33558 H 3190.72 -0.609478 -0.2635 0
M  V30 33559 H 3193.25 -2.03617 -0.200326 0
M  V30 33560 H 3193.26 -3.42818 -2.21223 0
M  V30 33561 H 3191.93 -3.98167 -1.2015 0
M  V30 33562 H 3190.51 -2.73083 -2.53929 0
M  V30 33563 N 3192.7 0.462746 -1.50653 0
M  V30 33564 C 3194.11 1.04339 -1.54823 0
M  V30 33565 C 3194.46 1.92932 -0.356629 0
M  V30 33566 O 3193.58 2.09821 0.529542 0
M  V30 33567 C 3194.18 1.89904 -2.80574 0
M  V30 33568 C 3192.74 2.43062 -2.87398 0
M  V30 33569 C 3191.88 1.21617 -2.49208 0
M  V30 33570 H 3194.83 0.24502 -1.56797 0
M  V30 33571 H 3194.86 2.75069 -2.62902 0
M  V30 33572 H 3194.37 1.25398 -3.67283 0
M  V30 33573 H 3192.47 3.11096 -2.05061 0
M  V30 33574 H 3192.58 2.77598 -3.90482 0
M  V30 33575 H 3190.95 1.55357 -2.01832 0
M  V30 33576 H 3191.73 0.58761 -3.38234 0
M  V30 33577 N 3194.17 1.40371 0.716495 0
M  V30 33578 C 3195.59 1.34429 1.2956 0
M  V30 33579 C 3195.94 0.0173451 1.96192 0
M  V30 33580 O 3195.06 -0.884684 1.9749 0
M  V30 33581 C 3195.66 2.43474 2.35596 0
M  V30 33582 C 3194.22 2.40995 2.89134 0
M  V30 33583 C 3193.36 2.244 1.62911 0
M  V30 33584 H 3196.31 1.50191 0.512688 0
M  V30 33585 H 3196.33 2.11329 3.16418 0
M  V30 33586 H 3195.85 3.40038 1.87071 0
M  V30 33587 H 3193.95 1.48126 3.41891 0
M  V30 33588 H 3194.06 3.36546 3.40989 0
M  V30 33589 H 3192.42 1.71899 1.87944 0
M  V30 33590 H 3193.21 3.2296 1.16412 0
M  V30 33591 N 3195.65 -0.948621 1.25853 0
M  V30 33592 C 3196.58 -2.06365 1.09251 0
M  V30 33593 C 3197.56 -1.701 -0.000175269 0
M  V30 33594 O 3198.75 -1.9345 0.170476 0
M  V30 33595 C 3195.88 -3.39822 0.716836 0
M  V30 33596 C 3194.83 -3.90119 1.76043 0
M  V30 33597 C 3194.16 -5.2014 1.23927 0
M  V30 33598 C 3195.46 -4.15827 3.16046 0
M  V30 33599 H 3197.15 -2.20512 2.02521 0
M  V30 33600 H 3194.7 -1.0596 0.975111 0
M  V30 33601 H 3196.65 -4.17283 0.587605 0
M  V30 33602 H 3195.38 -3.2563 -0.251569 0
M  V30 33603 H 3194.03 -3.14832 1.87821 0
M  V30 33604 H 3193.68 -5.02323 0.260925 0
M  V30 33605 H 3193.38 -5.54762 1.93682 0
M  V30 33606 H 3194.91 -6.00192 1.12256 0
M  V30 33607 H 3196.32 -4.83927 3.07388 0
M  V30 33608 H 3194.72 -4.61716 3.83325 0
M  V30 33609 H 3195.79 -3.21881 3.62658 0
M  V30 33610 N 3197.13 -1.07536 -1.15212 0
M  V30 33611 C 3198.09 -0.701275 -2.18208 0
M  V30 33612 C 3199.09 0.259432 -1.58693 0
M  V30 33613 O 3200.28 0.0401438 -1.74154 0
M  V30 33614 C 3197.42 -0.0339302 -3.40883 0
M  V30 33615 H 3198.61 -1.61319 -2.52817 0
M  V30 33616 H 3196.16 -0.872127 -1.29706 0
M  V30 33617 H 3196.9 0.890132 -3.11845 0
M  V30 33618 H 3196.68 -0.724928 -3.8534 0
M  V30 33619 H 3198.17 0.213079 -4.17056 0
M  V30 33620 N 3198.61 1.32084 -0.85974 0
M  V30 33621 C 3200.02 1.49814 -0.550277 0
M  V30 33622 C 3200.22 1.79377 0.917934 0
M  V30 33623 O 3199.28 1.86635 1.70069 0
M  V30 33624 C 3200.59 2.63888 -1.44166 0
M  V30 33625 C 3202.14 2.77772 -1.44262 0
M  V30 33626 C 3202.62 3.94932 -2.31933 0
M  V30 33627 N 3204.11 4.02202 -2.29757 0
M  V30 33628 C 3204.84 4.92102 -2.94318 0
M  V30 33629 N 3204.34 5.86975 -3.68011 0
M  V30 33630 N 3206.13 4.85265 -2.8368 0
M  V30 33631 H 3198.28 1.11161 -1.80989 0
M  V30 33632 H 3200.55 0.548339 -0.773323 0
M  V30 33633 H 3200.25 2.48786 -2.48593 0
M  V30 33634 H 3200.13 3.5979 -1.13274 0
M  V30 33635 H 3202.51 2.92294 -0.405975 0
M  V30 33636 H 3202.59 1.82568 -1.79172 0
M  V30 33637 H 3202.24 3.81168 -3.35668 0
M  V30 33638 H 3202.17 4.89423 -1.94353 0
M  V30 33639 H 3204.66 3.34317 -1.76183 0
M  V30 33640 H 3204.97 6.5228 -4.14428 0
M  V30 33641 H 3203.32 5.86985 -3.7212 0
M  V30 33642 H 3206.51 4.10119 -2.25654 0
M  V30 33643 H 3206.68 5.55125 -3.34276 0
M  V30 33644 N 3200.09 0.618171 1.4497 0
M  V30 33645 C 3201.05 -0.0846336 2.29044 0
M  V30 33646 C 3202.05 -0.784896 1.40342 0
M  V30 33647 O 3203.24 -0.631451 1.62353 0
M  V30 33648 C 3200.37 -1.13022 3.21619 0
M  V30 33649 H 3201.56 0.654664 2.92667 0
M  V30 33650 H 3199.12 0.377699 1.51668 0
M  V30 33651 H 3199.85 -1.89993 2.62818 0
M  V30 33652 H 3199.64 -0.632172 3.8697 0
M  V30 33653 H 3201.13 -1.62211 3.84808 0
M  V30 33654 N 3201.56 -1.53481 0.357946 0
M  V30 33655 C 3202.79 -2.05262 -0.234763 0
M  V30 33656 C 3203.2 -1.23172 -1.43615 0
M  V30 33657 O 3202.55 -0.263467 -1.81801 0
M  V30 33658 C 3202.61 -3.52625 -0.699686 0
M  V30 33659 C 3202.27 -4.55384 0.383986 0
M  V30 33660 C 3203.27 -5.05107 1.23138 0
M  V30 33661 C 3200.95 -4.99367 0.542041 0
M  V30 33662 C 3202.95 -5.97407 2.22225 0
M  V30 33663 C 3200.63 -5.91474 1.53628 0
M  V30 33664 C 3201.63 -6.40384 2.37483 0
M  V30 33665 O 3201.32 -7.30677 3.35212 0
M  V30 33666 H 3201.05 -0.674397 -0.0465245 0
M  V30 33667 H 3203.61 -1.98906 0.51239 0
M  V30 33668 H 3201.84 -3.56493 -1.49832 0
M  V30 33669 H 3203.53 -3.87303 -1.21454 0
M  V30 33670 H 3204.29 -4.71881 1.12043 0
M  V30 33671 H 3200.17 -4.6089 -0.100848 0
M  V30 33672 H 3203.71 -6.35505 2.87713 0
M  V30 33673 H 3199.61 -6.24115 1.64774 0
M  V30 33674 H 3200.38 -7.48652 3.30851 0
M  V30 33675 N 3203.04 -0.0869173 -1.5736 0
M  V30 33676 C 3204.27 0.590722 -1.9881 0
M  V30 33677 C 3204.69 1.61434 -0.965435 0
M  V30 33678 O 3204.05 1.81176 0.0671111 0
M  V30 33679 C 3204.1 1.22232 -3.39252 0
M  V30 33680 O 3203.2 2.33818 -3.3971 0
M  V30 33681 H 3202.54 0.150615 -0.646692 0
M  V30 33682 H 3205.07 -0.165909 -2.03926 0
M  V30 33683 H 3205.08 1.56558 -3.76767 0
M  V30 33684 H 3203.76 0.472362 -4.13209 0
M  V30 33685 H 3202.34 2.01173 -3.13981 0
M  V30 33686 N 3204.52 1.5649 0.186734 0
M  V30 33687 C 3205.77 1.81111 0.90582 0
M  V30 33688 C 3206.1 0.661509 1.82905 0
M  V30 33689 O 3205.35 -0.352226 1.92504 0
M  V30 33690 C 3205.65 3.11785 1.74713 0
M  V30 33691 C 3205.32 4.40251 0.974161 0
M  V30 33692 C 3203.98 4.75148 0.760772 0
M  V30 33693 C 3206.33 5.19416 0.430879 0
M  V30 33694 C 3203.66 5.867 -0.00724529 0
M  V30 33695 C 3206.01 6.3177 -0.32397 0
M  V30 33696 C 3204.67 6.65244 -0.5483 0
M  V30 33697 H 3203.94 0.662732 0.331463 0
M  V30 33698 H 3206.59 1.90729 0.171669 0
M  V30 33699 H 3204.9 2.97441 2.55021 0
M  V30 33700 H 3206.59 3.28042 2.30628 0
M  V30 33701 H 3203.18 4.1287 1.1505 0
M  V30 33702 H 3207.37 4.92862 0.583118 0
M  V30 33703 H 3202.62 6.11102 -0.190939 0
M  V30 33704 H 3206.8 6.92325 -0.752277 0
M  V30 33705 H 3204.42 7.51523 -1.14531 0
M  V30 33706 N 3206 -0.45475 1.50897 0
M  V30 33707 C 3207.24 -1.20441 1.63907 0
M  V30 33708 C 3207.6 -1.89323 0.342726 0
M  V30 33709 O 3206.89 -1.79858 -0.660433 0
M  V30 33710 C 3207.09 -2.26037 2.76843 0
M  V30 33711 C 3206.92 -1.67516 4.17335 0
M  V30 33712 C 3205.69 -1.4677 4.83515 0
M  V30 33713 C 3207.88 -1.16101 5.01024 0
M  V30 33714 N 3205.87 -0.836643 6.08172 0
M  V30 33715 C 3207.24 -0.654174 6.16539 0
M  V30 33716 C 3209.29 -1.05111 4.86679 0
M  V30 33717 C 3207.99 -0.0482557 7.19284 0
M  V30 33718 C 3210.02 -0.459107 5.89615 0
M  V30 33719 C 3209.38 0.0372714 7.0439 0
M  V30 33720 H 3205.48 -0.429018 0.65381 0
M  V30 33721 H 3208.07 -0.50375 1.8807 0
M  V30 33722 H 3206.24 -2.9351 2.54374 0
M  V30 33723 H 3207.97 -2.93038 2.79125 0
M  V30 33724 H 3204.72 -1.72456 4.41085 0
M  V30 33725 H 3205.15 -0.539057 6.7485 0
M  V30 33726 H 3209.79 -1.42078 3.98213 0
M  V30 33727 H 3207.51 0.33358 8.07411 0
M  V30 33728 H 3211.09 -0.376213 5.80582 0
M  V30 33729 H 3209.97 0.488172 7.82679 0
M  V30 33730 N 3207.48 -1.40749 -0.709041 0
M  V30 33731 C 3208.72 -1.39106 -1.46608 0
M  V30 33732 C 3209.05 0.00361939 -1.95 0
M  V30 33733 O 3208.32 0.959511 -1.70793 0
M  V30 33734 H 3206.9 -0.511989 -0.543945 0
M  V30 33735 H 3209.56 -1.75864 -0.84011 0
M  V30 33736 H 3208.65 -2.06998 -2.33577 0
M  V30 33737 N 3208.96 0.941933 -1.26354 0
M  V30 33738 C 3209.89 2.0443 -1.03638 0
M  V30 33739 C 3210.9 1.628 0.00293003 0
M  V30 33740 O 3212.09 1.76919 -0.23706 0
M  V30 33741 C 3209.19 3.34452 -0.547289 0
M  V30 33742 C 3208.36 4.04854 -1.65566 0
M  V30 33743 C 3207.42 5.13147 -1.16475 0
M  V30 33744 O 3206.45 5.37894 -1.86168 0
M  V30 33745 N 3207.65 5.80499 -0.0127723 0
M  V30 33746 H 3210.41 2.24484 -1.98562 0
M  V30 33747 H 3207.98 1.11136 -1.1773 0
M  V30 33748 H 3209.97 4.0419 -0.203075 0
M  V30 33749 H 3208.54 3.11076 0.308346 0
M  V30 33750 H 3207.76 3.29041 -2.17085 0
M  V30 33751 H 3209.05 4.48643 -2.39993 0
M  V30 33752 H 3208.44 5.62829 0.569259 0
M  V30 33753 H 3207 6.51231 0.272372 0
M  V30 33754 N 3210.43 1.08146 1.1464 0
M  V30 33755 C 3211.66 0.831006 1.90024 0
M  V30 33756 C 3212.08 -0.610848 1.77905 0
M  V30 33757 O 3211.44 -1.42774 1.11738 0
M  V30 33758 C 3211.49 1.25428 3.38083 0
M  V30 33759 O 3210.59 0.404558 4.10411 0
M  V30 33760 H 3209.93 0.302052 0.591321 0
M  V30 33761 H 3212.46 1.44219 1.45128 0
M  V30 33762 H 3212.47 1.23397 3.88892 0
M  V30 33763 H 3211.15 2.30442 3.46222 0
M  V30 33764 H 3209.73 0.488051 3.69692 0
M  V30 33765 N 3211.91 -1.31626 0.866732 0
M  V30 33766 C 3213.14 -2.01538 0.489596 0
M  V30 33767 C 3213.56 -1.64649 -0.909527 0
M  V30 33768 O 3212.92 -0.853419 -1.59958 0
M  V30 33769 C 3212.97 -3.54689 0.650238 0
M  V30 33770 O 3212.07 -4.11219 -0.311836 0
M  V30 33771 H 3211.41 -0.634674 0.195155 0
M  V30 33772 H 3213.94 -1.67897 1.16926 0
M  V30 33773 H 3213.95 -4.0438 0.542307 0
M  V30 33774 H 3212.63 -3.80879 1.67044 0
M  V30 33775 H 3211.2 -3.7256 -0.159132 0
M  V30 33776 N 3213.39 -0.62585 -1.4464 0
M  V30 33777 C 3214.62 -0.135153 -2.06458 0
M  V30 33778 C 3215.03 1.18809 -1.46731 0
M  V30 33779 O 3214.39 1.72761 -0.58821 0
M  V30 33780 C 3214.44 -0.00856468 -3.61499 0
M  V30 33781 O 3214.16 -1.27947 -4.19 0
M  V30 33782 C 3215.66 0.51145 -4.4034 0
M  V30 33783 H 3212.88 -0.0772411 -0.666539 0
M  V30 33784 H 3215.43 -0.858759 -1.85595 0
M  V30 33785 H 3213.58 0.665455 -3.81642 0
M  V30 33786 H 3214 -1.1209 -5.12383 0
M  V30 33787 H 3215.47 0.549053 -5.49263 0
M  V30 33788 H 3215.95 1.53745 -4.11411 0
M  V30 33789 H 3216.55 -0.12914 -4.25104 0
M  V30 33790 N 3214.87 1.53289 -0.36608 0
M  V30 33791 C 3215.8 2.23342 0.514877 0
M  V30 33792 C 3216.81 1.2477 1.04576 0
M  V30 33793 O 3218 1.5099 0.952058 0
M  V30 33794 C 3215.1 2.91791 1.72369 0
M  V30 33795 C 3214.27 4.16873 1.32422 0
M  V30 33796 C 3213.33 4.68528 2.39516 0
M  V30 33797 O 3212.36 5.32194 2.01885 0
M  V30 33798 N 3213.56 4.46385 3.71108 0
M  V30 33799 H 3216.33 2.99579 -0.0851799 0
M  V30 33800 H 3213.89 1.60766 -0.191283 0
M  V30 33801 H 3215.88 3.23256 2.43491 0
M  V30 33802 H 3214.45 2.19004 2.23061 0
M  V30 33803 H 3213.67 3.91705 0.442832 0
M  V30 33804 H 3214.96 4.9819 1.03363 0
M  V30 33805 H 3214.36 3.95515 4.04456 0
M  V30 33806 H 3212.91 4.82398 4.38332 0
M  V30 33807 N 3216.35 0.0952613 1.57312 0
M  V30 33808 C 3217.31 -0.849124 2.12891 0
M  V30 33809 C 3218.31 -1.21073 1.05821 0
M  V30 33810 O 3219.5 -1.14014 1.31706 0
M  V30 33811 C 3216.63 -2.14493 2.64963 0
M  V30 33812 H 3217.82 -0.366513 2.97652 0
M  V30 33813 H 3215.38 -0.153735 1.55542 0
M  V30 33814 H 3216.11 -2.67238 1.83723 0
M  V30 33815 H 3215.9 -1.89536 3.43247 0
M  V30 33816 H 3217.39 -2.8205 3.07957 0
M  V30 33817 N 3217.82 -1.56587 -0.178432 0
M  V30 33818 C 3218.76 -1.9241 -1.24543 0
M  V30 33819 C 3219.77 -0.816446 -1.40847 0
M  V30 33820 O 3220.96 -1.09489 -1.40977 0
M  V30 33821 C 3218.06 -2.15548 -2.61519 0
M  V30 33822 C 3217.23 -3.46756 -2.66606 0
M  V30 33823 C 3216.29 -3.58807 -3.84895 0
M  V30 33824 O 3215.32 -4.31488 -3.71223 0
M  V30 33825 N 3216.52 -2.93129 -5.01055 0
M  V30 33826 H 3219.28 -2.84537 -0.941225 0
M  V30 33827 H 3216.84 -1.57656 -0.368247 0
M  V30 33828 H 3218.84 -2.20882 -3.39106 0
M  V30 33829 H 3217.41 -1.2984 -2.84359 0
M  V30 33830 H 3216.63 -3.53143 -1.75167 0
M  V30 33831 H 3217.91 -4.33108 -2.6701 0
M  V30 33832 H 3217.31 -2.33937 -5.15063 0
M  V30 33833 H 3215.87 -3.04067 -5.76529 0
M  V30 33834 N 3219.3 0.446741 -1.51136 0
M  V30 33835 C 3220.23 1.55964 -1.67952 0
M  V30 33836 C 3221.25 1.52852 -0.560364 0
M  V30 33837 O 3222.44 1.57799 -0.834377 0
M  V30 33838 C 3219.54 2.94877 -1.67035 0
M  V30 33839 C 3218.71 3.22596 -2.95382 0
M  V30 33840 C 3217.77 4.41185 -2.8678 0
M  V30 33841 O 3216.79 4.40298 -3.6073 0
M  V30 33842 N 3218 5.44225 -2.01989 0
M  V30 33843 H 3220.76 1.41946 -2.63953 0
M  V30 33844 H 3218.32 0.635543 -1.48904 0
M  V30 33845 H 3220.31 3.72217 -1.58861 0
M  V30 33846 H 3218.88 3.0254 -0.786676 0
M  V30 33847 H 3218.1 2.33642 -3.17498 0
M  V30 33848 H 3219.39 3.37938 -3.80362 0
M  V30 33849 H 3218.79 5.47778 -1.41266 0
M  V30 33850 H 3217.35 6.20454 -1.997 0
M  V30 33851 N 3220.78 1.41123 0.701567 0
M  V30 33852 C 3221.73 1.38969 1.80753 0
M  V30 33853 C 3222.71 0.264992 1.58703 0
M  V30 33854 O 3223.91 0.505198 1.69637 0
M  V30 33855 C 3221.03 1.26842 3.19008 0
M  V30 33856 C 3220.12 2.4415 3.46773 0
M  V30 33857 N 3220.51 3.69623 3.45272 0
M  V30 33858 C 3218.81 2.37833 3.77295 0
M  V30 33859 C 3219.51 4.47391 3.71774 0
M  V30 33860 N 3218.49 3.77422 3.91221 0
M  V30 33861 H 3222.29 2.33907 1.77946 0
M  V30 33862 H 3219.8 1.35094 0.901301 0
M  V30 33863 H 3221.8 1.2338 3.98225 0
M  V30 33864 H 3220.46 0.328834 3.23031 0
M  V30 33865 H 3221.47 4.02591 3.25792 0
M  V30 33866 H 3218.15 1.52315 3.88724 0
M  V30 33867 H 3219.54 5.56301 3.768 0
M  V30 33868 N 3222.26 -0.935219 1.26852 0
M  V30 33869 C 3223.48 -1.72163 1.15648 0
M  V30 33870 C 3223.91 -1.85946 -0.283876 0
M  V30 33871 O 3223.27 -1.35402 -1.20565 0
M  V30 33872 C 3223.31 -3.10304 1.83695 0
M  V30 33873 O 3222.42 -3.96623 1.12979 0
M  V30 33874 H 3221.76 -0.527995 0.402638 0
M  V30 33875 H 3224.29 -1.1709 1.67783 0
M  V30 33876 H 3224.3 -3.60661 1.90755 0
M  V30 33877 H 3222.97 -2.9959 2.88477 0
M  V30 33878 H 3221.55 -3.55068 1.13935 0
M  V30 33879 N 3223.74 -1.08752 -1.14065 0
M  V30 33880 C 3225.15 -0.815847 -1.37172 0
M  V30 33881 C 3225.35 0.573181 -1.93176 0
M  V30 33882 O 3224.41 1.32933 -2.14674 0
M  V30 33883 C 3225.72 -1.90142 -2.32952 0
M  V30 33884 C 3227.27 -1.92785 -2.46583 0
M  V30 33885 C 3227.74 -3.00466 -3.45665 0
M  V30 33886 N 3229.24 -2.99661 -3.5321 0
M  V30 33887 C 3229.97 -3.79623 -4.29737 0
M  V30 33888 N 3229.47 -4.69475 -5.09476 0
M  V30 33889 N 3231.26 -3.67911 -4.24968 0
M  V30 33890 H 3223.41 -1.98314 -0.760613 0
M  V30 33891 H 3225.67 -0.860814 -0.39712 0
M  V30 33892 H 3225.38 -2.90025 -1.98944 0
M  V30 33893 H 3225.25 -1.77374 -3.32894 0
M  V30 33894 H 3227.64 -0.935453 -2.79881 0
M  V30 33895 H 3227.72 -2.09631 -1.46589 0
M  V30 33896 H 3227.37 -3.99914 -3.13099 0
M  V30 33897 H 3227.3 -2.80864 -4.45447 0
M  V30 33898 H 3229.79 -2.3454 -2.96309 0
M  V30 33899 H 3230.1 -5.27087 -5.65154 0
M  V30 33900 H 3228.44 -4.73515 -5.08732 0
M  V30 33901 H 3231.64 -2.97081 -3.61746 0
M  V30 33902 H 3231.81 -4.30468 -4.84357 0
M  V30 33903 N 3225.21 1.31165 -0.873701 0
M  V30 33904 C 3226.44 2.01276 -0.500277 0
M  V30 33905 C 3226.86 1.65129 0.900782 0
M  V30 33906 O 3226.22 0.86189 1.59503 0
M  V30 33907 C 3226.27 3.54339 -0.669039 0
M  V30 33908 O 3225.37 4.11379 0.290023 0
M  V30 33909 H 3224.72 0.63363 -0.198518 0
M  V30 33910 H 3227.25 1.67275 -1.17814 0
M  V30 33911 H 3227.26 4.04087 -0.563745 0
M  V30 33912 H 3225.93 3.79988 -1.69062 0
M  V30 33913 H 3224.51 3.72639 0.139372 0
M  V30 33914 N 3226.69 0.633512 1.44307 0
M  V30 33915 C 3227.64 -0.0919218 2.27815 0
M  V30 33916 C 3228.63 -0.813858 1.38799 0
M  V30 33917 O 3229.82 -0.699572 1.62588 0
M  V30 33918 C 3226.95 -1.07119 3.2616 0
M  V30 33919 C 3226.03 -0.348757 4.22664 0
M  V30 33920 N 3226.42 0.623942 5.01937 0
M  V30 33921 C 3224.72 -0.592881 4.42042 0
M  V30 33922 C 3225.42 1.05099 5.72127 0
M  V30 33923 N 3224.4 0.389278 5.42204 0
M  V30 33924 H 3228.2 0.654771 2.86513 0
M  V30 33925 H 3225.72 0.459206 1.55772 0
M  V30 33926 H 3227.71 -1.60553 3.84745 0
M  V30 33927 H 3226.37 -1.81816 2.69022 0
M  V30 33928 H 3227.38 1.00185 5.08117 0
M  V30 33929 H 3224.06 -1.32254 3.95999 0
M  V30 33930 H 3225.45 1.85472 6.45794 0
M  V30 33931 N 3228.17 -1.53093 0.374204 0
M  V30 33932 C 3229.4 -2.06274 -0.215867 0
M  V30 33933 C 3229.82 -1.24528 -1.40977 0
M  V30 33934 O 3229.18 -0.266494 -1.79331 0
M  V30 33935 C 3229.23 -3.55921 -0.579026 0
M  V30 33936 O 3228.33 -3.76848 -1.67509 0
M  V30 33937 H 3227.67 -0.663349 -0.0293865 0
M  V30 33938 H 3230.2 -1.97419 0.537305 0
M  V30 33939 H 3230.21 -3.99098 -0.847608 0
M  V30 33940 H 3228.89 -4.1486 0.293916 0
M  V30 33941 H 3227.46 -3.45565 -1.4014 0
M  V30 33942 N 3229.65 -0.103603 -1.57259 0
M  V30 33943 C 3230.6 0.852257 -2.14488 0
M  V30 33944 C 3231.57 1.27405 -1.0657 0
M  V30 33945 O 3232.75 1.3543 -1.344 0
M  V30 33946 C 3229.89 2.1028 -2.73636 0
M  V30 33947 C 3229 1.73076 -3.95814 0
M  V30 33948 C 3228.14 2.92981 -4.43098 0
M  V30 33949 C 3227.18 2.51944 -5.57845 0
M  V30 33950 N 3226.31 3.6471 -5.99942 0
M  V30 33951 H 3231.15 0.357378 -2.95849 0
M  V30 33952 H 3228.69 0.164722 -1.46175 0
M  V30 33953 H 3230.65 2.83528 -3.06051 0
M  V30 33954 H 3229.28 2.57253 -1.94989 0
M  V30 33955 H 3228.33 0.897623 -3.69658 0
M  V30 33956 H 3229.64 1.38908 -4.79068 0
M  V30 33957 H 3228.8 3.74472 -4.77342 0
M  V30 33958 H 3227.54 3.30365 -3.58762 0
M  V30 33959 H 3226.54 1.68881 -5.2322 0
M  V30 33960 H 3227.77 2.15693 -6.43936 0
M  V30 33961 H 3225.71 4.01798 -5.18551 0
M  V30 33962 H 3225.63 3.34415 -6.78014 0
M  V30 33963 H 3226.9 4.46687 -6.3882 0
M  V30 33964 N 3231.13 1.56679 0.170126 0
M  V30 33965 C 3232.38 1.81254 0.884871 0
M  V30 33966 C 3232.69 0.681056 1.8336 0
M  V30 33967 O 3233.89 0.811767 2.5908 0
M  V30 33968 C 3232.35 3.21175 1.62403 0
M  V30 33969 C 3231.96 4.42195 0.718869 0
M  V30 33970 C 3233.7 3.55042 2.32692 0
M  V30 33971 C 3231.61 5.73138 1.45832 0
M  V30 33972 H 3230.54 0.675905 0.334168 0
M  V30 33973 H 3233.19 1.82982 0.137786 0
M  V30 33974 H 3231.57 3.13767 2.41591 0
M  V30 33975 H 3232.75 4.60786 -0.0361331 0
M  V30 33976 H 3231.06 4.16211 0.125561 0
M  V30 33977 H 3233.66 4.50119 2.88613 0
M  V30 33978 H 3234 2.79979 3.08087 0
M  V30 33979 H 3234.53 3.64008 1.60447 0
M  V30 33980 H 3231.27 6.51233 0.746685 0
M  V30 33981 H 3230.79 5.58522 2.18662 0
M  V30 33982 H 3232.47 6.15133 2.00549 0
M  V30 33983 N 3232.6 -0.43872 1.5137 0
M  V30 33984 C 3233.83 -1.21534 1.6806 0
M  V30 33985 C 3234.25 -1.84287 0.37682 0
M  V30 33986 O 3233.61 -1.68747 -0.662881 0
M  V30 33987 C 3233.66 -2.27612 2.79688 0
M  V30 33988 O 3232.76 -3.33062 2.43195 0
M  V30 33989 H 3232.11 -0.356134 0.560415 0
M  V30 33990 H 3234.64 -0.518276 1.97927 0
M  V30 33991 H 3234.65 -2.72418 3.03731 0
M  V30 33992 H 3233.32 -1.81315 3.74296 0
M  V30 33993 H 3231.9 -2.93742 2.29718 0
M  V30 33994 N 3234.08 -1.41493 -0.694073 0
M  V30 33995 C 3235.03 -1.43459 -1.80798 0
M  V30 33996 C 3236 -0.288785 -1.6357 0
M  V30 33997 O 3237.18 -0.49005 -1.84399 0
M  V30 33998 C 3234.32 -1.32399 -3.18692 0
M  V30 33999 C 3233.44 -2.56861 -3.47342 0
M  V30 34000 C 3232.57 -2.38084 -4.74857 0
M  V30 34001 C 3231.61 -3.58014 -4.9648 0
M  V30 34002 N 3230.75 -3.38298 -6.15223 0
M  V30 34003 H 3235.59 -2.3866 -1.78453 0
M  V30 34004 H 3233.13 -1.18509 -0.871434 0
M  V30 34005 H 3235.08 -1.23989 -3.9835 0
M  V30 34006 H 3233.71 -0.408056 -3.2021 0
M  V30 34007 H 3232.77 -2.75716 -2.62078 0
M  V30 34008 H 3234.08 -3.46067 -3.5922 0
M  V30 34009 H 3233.23 -2.27149 -5.62573 0
M  V30 34010 H 3231.97 -1.46337 -4.65228 0
M  V30 34011 H 3230.98 -3.69402 -4.07213 0
M  V30 34012 H 3232.2 -4.50717 -5.07968 0
M  V30 34013 H 3230.15 -2.49252 -6.06803 0
M  V30 34014 H 3230.06 -4.2108 -6.27875 0
M  V30 34015 H 3231.33 -3.31138 -7.05668 0
M  V30 34016 N 3235.56 0.928479 -1.27346 0
M  V30 34017 C 3236.51 2.01514 -1.0666 0
M  V30 34018 C 3237.49 1.60899 0.00513791 0
M  V30 34019 O 3238.69 1.7571 -0.213308 0
M  V30 34020 C 3235.82 3.35772 -0.714994 0
M  V30 34021 C 3234.9 3.82832 -1.82483 0
M  V30 34022 N 3235.29 4.02412 -3.06428 0
M  V30 34023 C 3233.59 4.11861 -1.71133 0
M  V30 34024 C 3234.29 4.41591 -3.78645 0
M  V30 34025 N 3233.27 4.49018 -3.06404 0
M  V30 34026 H 3237.07 2.14681 -2.00722 0
M  V30 34027 H 3234.58 1.11526 -1.1805 0
M  V30 34028 H 3236.58 4.13284 -0.547913 0
M  V30 34029 H 3235.24 3.23967 0.218012 0
M  V30 34030 H 3236.25 3.88743 -3.42198 0
M  V30 34031 H 3232.93 4.08774 -0.849103 0
M  V30 34032 H 3234.32 4.64826 -4.85167 0
M  V30 34033 N 3237.04 1.09355 1.13486 0
M  V30 34034 C 3237.97 0.676258 2.1795 0
M  V30 34035 C 3238.95 -0.316878 1.59482 0
M  V30 34036 O 3240.13 -0.218426 1.8723 0
M  V30 34037 C 3237.26 -0.00385071 3.387 0
M  V30 34038 C 3236.31 0.950979 4.15763 0
M  V30 34039 S 3237.14 2.46267 4.75513 0
M  V30 34040 C 3238.3 1.79495 5.9961 0
M  V30 34041 H 3238.53 1.5612 2.5301 0
M  V30 34042 H 3236.06 0.909469 1.24772 0
M  V30 34043 H 3238.02 -0.389948 4.08644 0
M  V30 34044 H 3236.68 -0.865427 3.01942 0
M  V30 34045 H 3235.87 0.422175 5.02229 0
M  V30 34046 H 3235.48 1.27844 3.51471 0
M  V30 34047 H 3237.77 1.11858 6.68202 0
M  V30 34048 H 3238.71 2.63873 6.57097 0
M  V30 34049 H 3239.12 1.26418 5.50162 0
M  V30 34050 N 3238.52 -1.307 0.880644 0
M  V30 34051 C 3239.75 -2.00472 0.511717 0
M  V30 34052 C 3240.16 -1.66041 -0.898654 0
M  V30 34053 O 3239.52 -0.895246 -1.59033 0
M  V30 34054 C 3239.57 -3.55203 0.671786 0
M  V30 34055 O 3239.29 -3.88406 2.02663 0
M  V30 34056 C 3240.79 -4.42248 0.305278 0
M  V30 34057 H 3238.01 -0.641047 0.198242 0
M  V30 34058 H 3240.55 -1.66685 1.18475 0
M  V30 34059 H 3238.71 -3.87372 0.0461747 0
M  V30 34060 H 3239.12 -4.83113 2.04211 0
M  V30 34061 H 3240.6 -5.50011 0.468192 0
M  V30 34062 H 3241.07 -4.32638 -0.75638 0
M  V30 34063 H 3241.68 -4.15515 0.907032 0
M  V30 34064 N 3240 -0.641156 -1.43969 0
M  V30 34065 C 3241.41 -0.23087 -1.85267 0
M  V30 34066 C 3241.76 1.21995 -1.53661 0
M  V30 34067 O 3240.88 1.92958 -0.979606 0
M  V30 34068 C 3241.48 -0.41223 -3.36283 0
M  V30 34069 C 3240.04 -0.0563666 -3.76358 0
M  V30 34070 C 3239.18 -0.720856 -2.67767 0
M  V30 34071 H 3242.13 -0.845647 -1.34293 0
M  V30 34072 H 3242.16 0.345869 -3.78925 0
M  V30 34073 H 3241.67 -1.46824 -3.59255 0
M  V30 34074 H 3239.77 0.997519 -3.58999 0
M  V30 34075 H 3239.88 -0.473419 -4.76755 0
M  V30 34076 H 3238.25 -0.155209 -2.54227 0
M  V30 34077 H 3239.03 -1.77966 -2.9357 0
M  V30 34078 N 3241.47 1.52892 -0.382318 0
M  V30 34079 C 3242.88 1.86467 0.0932513 0
M  V30 34080 C 3243.24 1.30229 1.46748 0
M  V30 34081 O 3242.36 0.630876 2.07 0
M  V30 34082 C 3242.96 3.38343 0.175988 0
M  V30 34083 C 3241.51 3.71654 0.595838 0
M  V30 34084 C 3240.66 2.76202 -0.24656 0
M  V30 34085 H 3243.61 1.46902 -0.600469 0
M  V30 34086 H 3243.63 3.67221 0.996447 0
M  V30 34087 H 3243.15 3.79245 -0.824331 0
M  V30 34088 H 3241.25 3.36318 1.60378 0
M  V30 34089 H 3241.36 4.77754 0.358835 0
M  V30 34090 H 3239.72 2.53077 0.287118 0
M  V30 34091 H 3240.51 3.1994 -1.24473 0
M  V30 34092 N 3242.95 0.111941 1.57202 0
M  V30 34093 C 3243.91 -0.826496 2.1378 0
M  V30 34094 C 3244.91 -1.19944 1.07099 0
M  V30 34095 O 3246.1 -1.1261 1.32908 0
M  V30 34096 C 3243.24 -2.11671 2.67224 0
M  V30 34097 H 3244.43 -0.334923 2.98024 0
M  V30 34098 H 3241.98 -0.137229 1.55696 0
M  V30 34099 H 3242.72 -2.65275 1.86547 0
M  V30 34100 H 3242.5 -1.85884 3.45238 0
M  V30 34101 H 3243.99 -2.78768 3.10931 0
M  V30 34102 N 3244.43 -1.56767 -0.161814 0
M  V30 34103 C 3245.84 -1.72118 -0.723354 0
M  V30 34104 C 3246.19 -0.723993 -1.82353 0
M  V30 34105 O 3245.32 0.112605 -2.16107 0
M  V30 34106 C 3245.91 -3.12075 -1.3189 0
M  V30 34107 C 3244.47 -3.29077 -1.82716 0
M  V30 34108 C 3243.62 -2.68061 -0.709816 0
M  V30 34109 H 3246.57 -1.58572 0.0636926 0
M  V30 34110 H 3246.59 -3.11252 -2.18866 0
M  V30 34111 H 3246.1 -3.84628 -0.517942 0
M  V30 34112 H 3244.2 -2.61496 -2.65425 0
M  V30 34113 H 3244.32 -4.36901 -1.96606 0
M  V30 34114 H 3242.68 -2.28128 -1.13269 0
M  V30 34115 H 3243.46 -3.43208 0.0794488 0
M  V30 34116 N 3245.91 0.430686 -1.51601 0
M  V30 34117 C 3247.15 1.18896 -1.66262 0
M  V30 34118 C 3247.51 1.88324 -0.37391 0
M  V30 34119 O 3248.71 2.65862 -0.396366 0
M  V30 34120 C 3246.98 2.17373 -2.83697 0
M  V30 34121 S 3248.54 3.01598 -3.18723 0
M  V30 34122 H 3245.36 0.403102 -0.585688 0
M  V30 34123 H 3247.96 0.479504 -1.89528 0
M  V30 34124 H 3246.67 1.65018 -3.75762 0
M  V30 34125 H 3246.2 2.9289 -2.62639 0
M  V30 34126 H 3248.21 4.19086 -2.65672 0
M  V30 34127 N 3247.39 1.4186 0.686559 0
M  V30 34128 C 3248.8 1.37147 1.26679 0
M  V30 34129 C 3249.15 0.0589565 1.96111 0
M  V30 34130 O 3248.27 -0.842594 1.99322 0
M  V30 34131 C 3248.87 2.48417 2.30379 0
M  V30 34132 C 3247.43 2.47074 2.83957 0
M  V30 34133 C 3246.57 2.27805 1.58115 0
M  V30 34134 H 3249.52 1.51244 0.480715 0
M  V30 34135 H 3249.55 2.17993 3.11864 0
M  V30 34136 H 3249.06 3.4393 1.79816 0
M  V30 34137 H 3247.16 1.55344 3.38672 0
M  V30 34138 H 3247.27 3.43703 3.33774 0
M  V30 34139 H 3245.64 1.75847 1.84255 0
M  V30 34140 H 3246.42 3.25357 1.09535 0
M  V30 34141 N 3248.86 -0.921712 1.27837 0
M  V30 34142 C 3250.11 -1.66674 1.14299 0
M  V30 34143 C 3250.43 -1.92513 -0.310459 0
M  V30 34144 O 3249.7 -1.53564 -1.21634 0
M  V30 34145 H 3248.28 -0.617742 0.420004 0
M  V30 34146 H 3250.94 -1.10641 1.60451 0
M  V30 34147 H 3250.04 -2.63243 1.67659 0
M  V30 34148 N 3250.34 -1.09956 -1.12905 0
M  V30 34149 C 3251.75 -0.857446 -1.65846 0
M  V30 34150 C 3252.1 0.613144 -1.86373 0
M  V30 34151 O 3251.23 1.47163 -1.58657 0
M  V30 34152 C 3251.82 -1.54996 -3.01267 0
M  V30 34153 C 3250.38 -1.35468 -3.51177 0
M  V30 34154 C 3249.53 -1.60255 -2.26305 0
M  V30 34155 H 3252.48 -1.25796 -0.967528 0
M  V30 34156 H 3252.5 -0.986155 -3.67499 0
M  V30 34157 H 3252.01 -2.62025 -2.86294 0
M  V30 34158 H 3250.11 -0.305807 -3.71343 0
M  V30 34159 H 3250.23 -2.09326 -4.30952 0
M  V30 34160 H 3248.59 -1.02498 -2.33166 0
M  V30 34161 H 3249.37 -2.68524 -2.13891 0
M  V30 34162 N 3251.82 1.30231 -0.887563 0
M  V30 34163 C 3252.73 2.31816 -0.360374 0
M  V30 34164 C 3253.75 1.65451 0.538712 0
M  V30 34165 O 3254.92 1.9673 0.431211 0
M  V30 34166 C 3251.99 3.44216 0.414276 0
M  V30 34167 C 3251.05 4.26201 -0.514874 0
M  V30 34168 C 3250.28 5.33234 0.222901 0
M  V30 34169 O 3250.5 5.51699 1.44862 0
M  V30 34170 O 3249.44 6.00374 -0.428327 0
M  V30 34171 H 3253.26 2.78865 -1.20284 0
M  V30 34172 H 3250.85 1.34447 -0.651483 0
M  V30 34173 H 3252.73 4.12681 0.852787 0
M  V30 34174 H 3251.41 2.99297 1.233 0
M  V30 34175 H 3250.31 3.60424 -1.00225 0
M  V30 34176 H 3251.65 4.74731 -1.29967 0
M  V30 34177 N 3253.3 0.648782 1.43627 0
M  V30 34178 C 3254.71 0.240692 1.85142 0
M  V30 34179 C 3255.06 -1.21178 1.54306 0
M  V30 34180 O 3254.19 -1.92435 0.989825 0
M  V30 34181 C 3254.78 0.430058 3.36059 0
M  V30 34182 C 3253.34 0.076325 3.76323 0
M  V30 34183 C 3252.49 0.735046 2.67381 0
M  V30 34184 H 3255.44 0.852757 1.33842 0
M  V30 34185 H 3255.46 -0.325769 3.79103 0
M  V30 34186 H 3254.97 1.48727 3.58471 0
M  V30 34187 H 3253.07 -0.978466 3.59523 0
M  V30 34188 H 3253.18 0.498696 4.76497 0
M  V30 34189 H 3251.55 0.168689 2.54141 0
M  V30 34190 H 3252.33 1.7952 2.92622 0
M  V30 34191 N 3254.78 -1.52688 0.390421 0
M  V30 34192 C 3255.72 -2.28025 -0.45906 0
M  V30 34193 C 3256.72 -1.31969 -1.0621 0
M  V30 34194 O 3257.92 -1.49503 -1.00244 0
M  V30 34195 H 3254.3 -0.733269 -0.166797 0
M  V30 34196 H 3256.27 -2.97744 0.1978 0
M  V30 34197 C 3255.02 -3.10051 -1.57365 0
M  V30 34198 H 3254.34 -3.83822 -1.11894 0
M  V30 34199 H 3255.78 -3.65902 -2.14223 0
M  V30 34200 C 3254.24 -2.22433 -2.53032 0
M  V30 34201 O 3254.77 -1.85187 -3.56467 0
M  V30 34202 N 3252.98 -1.86571 -2.22799 0
M  V30 34203 H 3252.52 -2.17059 -1.38719 0
M  V30 34204 H 3252.48 -1.28238 -2.87058 0
M  V30 34205 N 3256.25 -0.120276 -1.5714 0
M  V30 34206 C 3257.5 0.531955 -1.96321 0
M  V30 34207 C 3257.86 1.64208 -1.00268 0
M  V30 34208 O 3257.15 1.91572 -0.0329306 0
M  V30 34209 C 3257.34 1.10935 -3.39747 0
M  V30 34210 C 3257.17 0.0566982 -4.49664 0
M  V30 34211 C 3255.94 -0.375554 -5.03902 0
M  V30 34212 C 3258.14 -0.724757 -5.09168 0
M  V30 34213 N 3256.12 -1.41385 -5.97397 0
M  V30 34214 C 3257.49 -1.61421 -5.98618 0
M  V30 34215 C 3259.55 -0.775504 -4.91823 0
M  V30 34216 C 3258.25 -2.55 -6.72583 0
M  V30 34217 C 3260.28 -1.69901 -5.6647 0
M  V30 34218 C 3259.64 -2.57604 -6.55606 0
M  V30 34219 H 3255.74 0.164246 -0.764557 0
M  V30 34220 H 3258.32 -0.20869 -1.93578 0
M  V30 34221 H 3256.49 1.81971 -3.43134 0
M  V30 34222 H 3258.22 1.726 -3.66048 0
M  V30 34223 H 3254.98 0.017089 -4.73597 0
M  V30 34224 H 3255.4 -1.93195 -6.48849 0
M  V30 34225 H 3260.05 -0.111571 -4.22653 0
M  V30 34226 H 3257.76 -3.22406 -7.40999 0
M  V30 34227 H 3261.35 -1.74373 -5.55054 0
M  V30 34228 H 3260.23 -3.27902 -7.12355 0
M  V30 34229 N 3257.73 1.56851 0.153498 0
M  V30 34230 C 3258.98 1.8263 0.865487 0
M  V30 34231 C 3259.3 0.700137 1.81997 0
M  V30 34232 O 3258.57 -0.278709 1.93907 0
M  V30 34233 H 3257.15 0.67375 0.322598 0
M  V30 34234 H 3259.81 1.94329 0.149054 0
M  V30 34235 H 3258.91 2.77326 1.43166 0
M  V30 34236 N 3259.21 -0.42264 1.51827 0
M  V30 34237 C 3260.16 -1.51403 1.742 0
M  V30 34238 C 3261.13 -1.55493 0.58404 0
M  V30 34239 O 3262.31 -1.72276 0.820109 0
M  V30 34240 C 3259.45 -2.88984 1.88632 0
M  V30 34241 C 3258.57 -2.94308 3.16238 0
M  V30 34242 C 3257.7 -4.23104 3.21179 0
M  V30 34243 C 3256.74 -4.22352 4.43041 0
M  V30 34244 N 3255.88 -5.42696 4.45449 0
M  V30 34245 H 3260.72 -1.31627 2.67354 0
M  V30 34246 H 3258.25 -0.639166 1.32488 0
M  V30 34247 H 3260.21 -3.68833 1.94982 0
M  V30 34248 H 3258.84 -3.07285 0.988727 0
M  V30 34249 H 3257.89 -2.07033 3.19126 0
M  V30 34250 H 3259.21 -2.89616 4.06109 0
M  V30 34251 H 3258.36 -5.11337 3.26526 0
M  V30 34252 H 3257.1 -4.30474 2.29223 0
M  V30 34253 H 3256.1 -3.32511 4.37855 0
M  V30 34254 H 3257.33 -4.16634 5.36277 0
M  V30 34255 H 3255.27 -5.5076 3.56371 0
M  V30 34256 H 3255.19 -5.39943 5.29148 0
M  V30 34257 H 3256.46 -6.3292 4.55008 0
M  V30 34258 N 3260.69 -1.42222 -0.679027 0
M  V30 34259 C 3261.94 -1.42184 -1.43625 0
M  V30 34260 C 3262.26 -0.0377437 -1.94963 0
M  V30 34261 O 3261.53 0.923067 -1.7279 0
M  V30 34262 H 3260.11 -0.523412 -0.532963 0
M  V30 34263 H 3262.77 -1.77606 -0.802618 0
M  V30 34264 H 3261.87 -2.11906 -2.29134 0
M  V30 34265 N 3262.17 0.91492 -1.28324 0
M  V30 34266 C 3263.58 1.47901 -1.13939 0
M  V30 34267 C 3263.93 1.94319 0.271038 0
M  V30 34268 O 3263.05 1.82352 1.16519 0
M  V30 34269 C 3263.65 2.68806 -2.06225 0
M  V30 34270 C 3262.21 3.21398 -1.95909 0
M  V30 34271 C 3261.35 1.94107 -1.98035 0
M  V30 34272 H 3264.31 0.727747 -1.4103 0
M  V30 34273 H 3264.33 3.44029 -1.62556 0
M  V30 34274 H 3263.84 2.34991 -3.0887 0
M  V30 34275 H 3261.94 3.59941 -0.96297 0
M  V30 34276 H 3262.05 3.86727 -2.82806 0
M  V30 34277 H 3260.42 2.11156 -1.42427 0
M  V30 34278 H 3261.2 1.6259 -3.02357 0
M  V30 34279 N 3263.64 1.10553 1.1232 0
M  V30 34280 C 3265.06 0.866229 1.65389 0
M  V30 34281 C 3265.41 -0.603251 1.86696 0
M  V30 34282 O 3264.53 -1.4632 1.59435 0
M  V30 34283 C 3265.13 1.56592 3.0044 0
M  V30 34284 C 3263.69 1.37329 3.50454 0
M  V30 34285 C 3262.83 1.61453 2.25451 0
M  V30 34286 H 3265.78 1.26307 0.960844 0
M  V30 34287 H 3265.8 1.00563 3.6697 0
M  V30 34288 H 3265.32 2.6354 2.84901 0
M  V30 34289 H 3263.42 0.325496 3.71176 0
M  V30 34290 H 3263.53 2.11609 4.29836 0
M  V30 34291 H 3261.89 1.03733 2.32619 0
M  V30 34292 H 3262.68 2.69655 2.12464 0
M  V30 34293 N 3265.12 -1.29758 0.894457 0
M  V30 34294 C 3266.03 -2.31621 0.372663 0
M  V30 34295 C 3267.05 -1.65734 -0.52993 0
M  V30 34296 O 3268.22 -1.96956 -0.420772 0
M  V30 34297 C 3265.29 -3.44431 -0.396015 0
M  V30 34298 C 3264.35 -4.25922 0.537469 0
M  V30 34299 C 3263.58 -5.33345 -0.194619 0
M  V30 34300 O 3263.81 -5.52459 -1.41934 0
M  V30 34301 O 3262.74 -6.00138 0.46016 0
M  V30 34302 H 3266.57 -2.78223 1.21761 0
M  V30 34303 H 3264.15 -1.341 0.658604 0
M  V30 34304 H 3266.03 -4.13127 -0.830889 0
M  V30 34305 H 3264.71 -2.99947 -1.21711 0
M  V30 34306 H 3263.62 -3.59888 1.02135 0
M  V30 34307 H 3264.95 -4.74035 1.32483 0
M  V30 34308 N 3266.6 -0.65639 -1.4328 0
M  V30 34309 C 3267.83 -0.178915 -2.06125 0
M  V30 34310 C 3268.24 1.1567 -1.49218 0
M  V30 34311 O 3267.6 1.71474 -0.624723 0
M  V30 34312 C 3267.65 -0.085242 -3.61399 0
M  V30 34313 O 3267.37 -1.36806 -4.16192 0
M  V30 34314 C 3268.87 0.417932 -4.41326 0
M  V30 34315 H 3266.09 -0.091362 -0.664751 0
M  V30 34316 H 3268.64 -0.897933 -1.83732 0
M  V30 34317 H 3266.79 0.584353 -3.82967 0
M  V30 34318 H 3267.21 -1.22933 -5.0989 0
M  V30 34319 H 3268.68 0.432422 -5.50304 0
M  V30 34320 H 3269.16 1.44983 -4.1458 0
M  V30 34321 H 3269.76 -0.219282 -4.24734 0
M  V30 34322 N 3268.08 1.52478 -0.398513 0
M  V30 34323 C 3269.5 1.59525 -0.0488916 0
M  V30 34324 C 3269.7 1.41199 1.43753 0
M  V30 34325 O 3268.75 1.23361 2.20314 0
M  V30 34326 C 3270.06 2.95915 -0.534314 0
M  V30 34327 C 3271.61 3.09119 -0.491368 0
M  V30 34328 C 3272.09 4.47973 -0.953127 0
M  V30 34329 N 3273.58 4.54183 -0.909514 0
M  V30 34330 C 3274.31 5.59874 -1.23811 0
M  V30 34331 N 3273.81 6.73167 -1.63764 0
M  V30 34332 N 3275.6 5.50026 -1.15877 0
M  V30 34333 H 3267.75 1.62639 -1.36611 0
M  V30 34334 H 3270.02 0.764534 -0.560528 0
M  V30 34335 H 3269.72 3.14571 -1.57282 0
M  V30 34336 H 3269.6 3.7715 0.0617124 0
M  V30 34337 H 3271.98 2.90153 0.538072 0
M  V30 34338 H 3272.06 2.29816 -1.12331 0
M  V30 34339 H 3271.71 4.6768 -1.98084 0
M  V30 34340 H 3271.64 5.25756 -0.298099 0
M  V30 34341 H 3274.13 3.72852 -0.615634 0
M  V30 34342 H 3274.44 7.4979 -1.87177 0
M  V30 34343 H 3272.79 6.74474 -1.67659 0
M  V30 34344 H 3275.98 4.60399 -0.845583 0
M  V30 34345 H 3276.15 6.32291 -1.41817 0
M  V30 34346 N 3269.56 0.128608 1.57074 0
M  V30 34347 C 3270.78 -0.537804 2.00306 0
M  V30 34348 C 3271.21 -1.58818 1.0079 0
M  V30 34349 O 3270.57 -1.8129 -0.019052 0
M  V30 34350 C 3270.61 -1.13195 3.42373 0
M  V30 34351 O 3269.72 -2.24729 3.4579 0
M  V30 34352 H 3269.06 -0.133416 0.650458 0
M  V30 34353 H 3271.59 0.219918 2.03415 0
M  V30 34354 H 3271.6 -1.46513 3.80786 0
M  V30 34355 H 3270.27 -0.362641 4.14316 0
M  V30 34356 H 3268.85 -1.92777 3.19204 0
M  V30 34357 N 3271.04 -1.5693 -0.145178 0
M  V30 34358 C 3272.26 -1.87976 -0.876353 0
M  V30 34359 C 3272.69 -0.717826 -1.73865 0
M  V30 34360 O 3272.04 0.332519 -1.78225 0
M  V30 34361 C 3272.09 -3.17616 -1.7074 0
M  V30 34362 O 3271.2 -3.01679 -2.81183 0
M  V30 34363 H 3270.54 -0.617553 -0.243976 0
M  V30 34364 H 3273.07 -2.04151 -0.135446 0
M  V30 34365 H 3273.08 -3.49683 -2.10204 0
M  V30 34366 H 3271.75 -4.01788 -1.07422 0
M  V30 34367 H 3270.33 -2.81024 -2.45112 0
M  V30 34368 N 3272.51 0.414582 -1.52049 0
M  V30 34369 C 3273.44 1.51172 -1.77958 0
M  V30 34370 C 3274.42 1.57991 -0.63031 0
M  V30 34371 O 3275.61 1.73353 -0.875354 0
M  V30 34372 C 3272.74 2.89048 -1.92532 0
M  V30 34373 C 3271.69 2.97082 -3.08101 0
M  V30 34374 C 3271.02 4.37159 -3.0789 0
M  V30 34375 C 3272.32 2.69067 -4.47661 0
M  V30 34376 H 3274.01 1.29741 -2.69829 0
M  V30 34377 H 3271.56 0.622707 -1.2984 0
M  V30 34378 H 3273.51 3.65782 -2.0924 0
M  V30 34379 H 3272.24 3.11761 -0.97329 0
M  V30 34380 H 3270.9 2.22792 -2.91135 0
M  V30 34381 H 3270.54 4.56873 -2.10419 0
M  V30 34382 H 3270.24 4.4346 -3.85509 0
M  V30 34383 H 3271.77 5.15835 -3.26721 0
M  V30 34384 H 3273.18 3.35526 -4.64861 0
M  V30 34385 H 3271.58 2.86751 -5.27156 0
M  V30 34386 H 3272.65 1.64536 -4.56132 0
M  V30 34387 N 3273.99 1.4258 0.671475 0
M  V30 34388 C 3274.9 1.48727 1.81432 0
M  V30 34389 C 3275.92 0.375745 1.69895 0
M  V30 34390 O 3277.09 0.627149 1.91387 0
M  V30 34391 C 3274.16 1.39043 3.17597 0
M  V30 34392 C 3273.22 2.60715 3.41066 0
M  V30 34393 C 3272.45 2.51484 4.70735 0
M  V30 34394 O 3272.68 1.55253 5.48865 0
M  V30 34395 O 3271.61 3.41674 4.95522 0
M  V30 34396 H 3275.44 2.45195 1.79202 0
M  V30 34397 H 3273.02 1.2438 0.827645 0
M  V30 34398 H 3274.9 1.36017 3.98845 0
M  V30 34399 H 3273.58 0.457022 3.20457 0
M  V30 34400 H 3272.48 2.69315 2.59654 0
M  V30 34401 H 3273.82 3.52966 3.43039 0
M  V30 34402 N 3275.47 -0.908102 1.28807 0
M  V30 34403 C 3276.4 -2.02785 1.15761 0
M  V30 34404 C 3277.38 -1.70014 0.0539408 0
M  V30 34405 O 3278.57 -1.9281 0.231935 0
M  V30 34406 C 3275.7 -3.37369 0.824585 0
M  V30 34407 C 3274.65 -3.84321 1.88365 0
M  V30 34408 C 3273.98 -5.15934 1.40413 0
M  V30 34409 C 3275.28 -4.05562 3.29115 0
M  V30 34410 H 3276.97 -2.13957 2.09434 0
M  V30 34411 H 3274.52 -1.02804 1.00833 0
M  V30 34412 H 3276.47 -4.15202 0.720063 0
M  V30 34413 H 3275.19 -3.26265 -0.147845 0
M  V30 34414 H 3273.85 -3.08697 1.97742 0
M  V30 34415 H 3273.5 -5.01238 0.420603 0
M  V30 34416 H 3273.2 -5.48319 2.11234 0
M  V30 34417 H 3274.72 -5.96317 1.31294 0
M  V30 34418 H 3276.14 -4.73903 3.22628 0
M  V30 34419 H 3274.53 -4.49287 3.9782 0
M  V30 34420 H 3275.6 -3.1018 3.72715 0
M  V30 34421 N 3276.95 -1.11147 -1.11732 0
M  V30 34422 C 3278.22 -0.770292 -1.79794 0
M  V30 34423 C 3278.6 0.742124 -1.97625 0
M  V30 34424 O 3277.95 1.67102 -1.5585 0
M  V30 34425 C 3278.16 -1.52988 -3.13681 0
M  V30 34426 C 3279.51 -1.70718 -3.88768 0
M  V30 34427 O 3280.53 -1.49387 -3.23361 0
M  V30 34428 O 3279.39 -2.06141 -5.06131 0
M  V30 34429 H 3276.49 -0.278733 -0.778612 0
M  V30 34430 H 3279.03 -1.21472 -1.18502 0
M  V30 34431 H 3277.81 -2.55884 -2.96039 0
M  V30 34432 H 3277.43 -1.0788 -3.82685 0
M  V30 34433 N 3278.43 1.29282 -0.901326 0
M  V30 34434 C 3279.65 1.99633 -0.543546 0
M  V30 34435 C 3280.07 1.6745 0.872125 0
M  V30 34436 O 3279.43 0.920433 1.57589 0
M  V30 34437 C 3279.48 3.54089 -0.728211 0
M  V30 34438 O 3279.2 3.85133 -2.08816 0
M  V30 34439 C 3280.7 4.41706 -0.375597 0
M  V30 34440 H 3277.92 0.637812 -0.208416 0
M  V30 34441 H 3280.46 1.64779 -1.21112 0
M  V30 34442 H 3278.62 3.8725 -0.107796 0
M  V30 34443 H 3279.03 4.79803 -2.11871 0
M  V30 34444 H 3280.51 5.49196 -0.555635 0
M  V30 34445 H 3280.98 4.33786 0.687456 0
M  V30 34446 H 3281.59 4.1402 -0.973022 0
M  V30 34447 N 3279.9 0.663979 1.4293 0
M  V30 34448 C 3280.81 -0.0213822 2.3459 0
M  V30 34449 C 3281.83 -0.800584 1.54488 0
M  V30 34450 O 3283.01 -0.745377 1.87099 0
M  V30 34451 C 3280.07 -0.968498 3.32898 0
M  V30 34452 C 3279.13 -0.185033 4.28901 0
M  V30 34453 C 3278.36 -1.08704 5.22512 0
M  V30 34454 O 3278.59 -2.32646 5.20799 0
M  V30 34455 O 3277.52 -0.553653 5.99348 0
M  V30 34456 H 3281.35 0.73336 2.94713 0
M  V30 34457 H 3278.93 0.424185 1.43252 0
M  V30 34458 H 3280.81 -1.5125 3.93321 0
M  V30 34459 H 3279.49 -1.70328 2.75264 0
M  V30 34460 H 3278.4 0.402817 3.71925 0
M  V30 34461 H 3279.73 0.510405 4.89546 0
M  V30 34462 N 3281.38 -1.52265 0.406593 0
M  V30 34463 C 3282.31 -2.29849 -0.411274 0
M  V30 34464 C 3283.29 -1.33953 -1.04836 0
M  V30 34465 O 3284.48 -1.62859 -1.05785 0
M  V30 34466 C 3281.61 -3.11804 -1.52955 0
M  V30 34467 C 3280.56 -4.15727 -1.01761 0
M  V30 34468 C 3279.89 -4.86011 -2.22929 0
M  V30 34469 C 3281.19 -5.22248 -0.0734232 0
M  V30 34470 H 3282.88 -2.98468 0.236107 0
M  V30 34471 H 3280.43 -1.4354 0.114994 0
M  V30 34472 H 3282.38 -3.64846 -2.10868 0
M  V30 34473 H 3281.1 -2.40951 -2.20478 0
M  V30 34474 H 3279.76 -3.63691 -0.460906 0
M  V30 34475 H 3279.41 -4.11689 -2.89 0
M  V30 34476 H 3279.11 -5.56263 -1.89328 0
M  V30 34477 H 3280.64 -5.41864 -2.81452 0
M  V30 34478 H 3282.05 -5.70546 -0.561267 0
M  V30 34479 H 3280.45 -5.99849 0.173656 0
M  V30 34480 H 3281.52 -4.76984 0.872607 0
M  V30 34481 N 3282.86 -0.136936 -1.57004 0
M  V30 34482 C 3284.09 0.527173 -2.00588 0
M  V30 34483 C 3284.51 1.58281 -1.01631 0
M  V30 34484 O 3283.87 1.81298 0.00943748 0
M  V30 34485 C 3283.92 1.11378 -3.42969 0
M  V30 34486 O 3283.02 2.22892 -3.46977 0
M  V30 34487 H 3282.36 0.129965 -0.651157 0
M  V30 34488 H 3284.89 -0.230703 -2.03295 0
M  V30 34489 H 3284.9 1.44492 -3.81557 0
M  V30 34490 H 3283.58 0.340663 -4.14502 0
M  V30 34491 H 3282.15 1.91082 -3.20222 0
M  V30 34492 N 3284.34 1.57005 0.136853 0
M  V30 34493 C 3285.58 1.85057 0.844115 0
M  V30 34494 C 3285.94 0.72231 1.78327 0
M  V30 34495 O 3285.23 -0.279026 1.89557 0
M  V30 34496 C 3285.43 3.17186 1.64705 0
M  V30 34497 C 3285.26 4.42757 0.787151 0
M  V30 34498 C 3284.03 5.03303 0.448849 0
M  V30 34499 C 3286.22 5.14176 0.112856 0
M  V30 34500 N 3284.21 6.12437 -0.423589 0
M  V30 34501 C 3285.58 6.16899 -0.619304 0
M  V30 34502 C 3287.63 4.97888 0.0345812 0
M  V30 34503 C 3286.33 7.05097 -1.42236 0
M  V30 34504 C 3288.36 5.86558 -0.755246 0
M  V30 34505 C 3287.72 6.8877 -1.47566 0
M  V30 34506 H 3283.82 0.727673 0.286385 0
M  V30 34507 H 3286.41 1.94395 0.108869 0
M  V30 34508 H 3284.58 3.08977 2.35347 0
M  V30 34509 H 3286.31 3.33109 2.29827 0
M  V30 34510 H 3283.06 4.67016 0.786986 0
M  V30 34511 H 3283.49 6.71628 -0.851131 0
M  V30 34512 H 3288.13 4.18842 0.577197 0
M  V30 34513 H 3285.85 7.83564 -1.9762 0
M  V30 34514 H 3289.43 5.76022 -0.817937 0
M  V30 34515 H 3288.31 7.56195 -2.077 0
M  V30 34516 N 3285.82 -0.406513 1.52267 0
M  V30 34517 C 3287.07 -1.15033 1.65682 0
M  V30 34518 C 3287.38 -1.91587 0.394169 0
M  V30 34519 O 3288.58 -2.68414 0.40816 0
M  V30 34520 C 3287.04 -2.09375 2.92729 0
M  V30 34521 C 3286.65 -1.38325 4.26111 0
M  V30 34522 C 3288.39 -2.83999 3.15507 0
M  V30 34523 C 3286.3 -2.31331 5.44279 0
M  V30 34524 H 3285.23 -0.433109 0.617198 0
M  V30 34525 H 3287.88 -0.414566 1.78756 0
M  V30 34526 H 3286.26 -2.86514 2.7336 0
M  V30 34527 H 3287.44 -0.665316 4.55972 0
M  V30 34528 H 3285.75 -0.757312 4.09455 0
M  V30 34529 H 3288.35 -3.53733 4.0097 0
M  V30 34530 H 3288.69 -3.47096 2.29848 0
M  V30 34531 H 3289.22 -2.13958 3.35361 0
M  V30 34532 H 3285.96 -1.72876 6.32293 0
M  V30 34533 H 3285.48 -3.01089 5.18754 0
M  V30 34534 H 3287.16 -2.91799 5.77462 0
M  V30 34535 N 3287.29 -1.42934 -0.663904 0
M  V30 34536 C 3288.52 -1.47614 -1.45688 0
M  V30 34537 C 3288.94 -0.0920636 -1.87875 0
M  V30 34538 O 3288.3 0.911892 -1.56698 0
M  V30 34539 C 3288.35 -2.41804 -2.67513 0
M  V30 34540 O 3287.45 -1.89692 -3.66184 0
M  V30 34541 H 3286.8 -0.49971 -0.437248 0
M  V30 34542 H 3289.33 -1.87738 -0.813364 0
M  V30 34543 H 3289.34 -2.5875 -3.15456 0
M  V30 34544 H 3288.01 -3.42354 -2.36149 0
M  V30 34545 H 3286.59 -1.82355 -3.25271 0
M  V30 34546 N 3288.77 0.901258 -1.29287 0
M  V30 34547 C 3290.02 1.64834 -1.16936 0
M  V30 34548 C 3290.34 1.92982 0.279792 0
M  V30 34549 O 3289.61 1.5548 1.19176 0
M  V30 34550 H 3288.19 0.610982 -0.429779 0
M  V30 34551 H 3290.85 1.08074 -1.62191 0
M  V30 34552 H 3289.95 2.60542 -1.71826 0
M  V30 34553 N 3290.25 1.11738 1.11141 0
M  V30 34554 C 3291.53 0.779816 1.79383 0
M  V30 34555 C 3291.91 -0.731633 1.98016 0
M  V30 34556 O 3291.26 -1.66273 1.56734 0
M  V30 34557 C 3291.47 1.54649 3.12865 0
M  V30 34558 C 3292.81 1.72777 3.87857 0
M  V30 34559 O 3293.84 1.51099 3.22564 0
M  V30 34560 O 3292.7 2.08822 5.0503 0
M  V30 34561 H 3289.79 0.282859 0.777123 0
M  V30 34562 H 3292.34 1.22098 1.17856 0
M  V30 34563 H 3291.11 2.57451 2.94677 0
M  V30 34564 H 3290.73 1.09908 3.82107 0
M  V30 34565 N 3291.73 -1.28802 0.90817 0
M  V30 34566 C 3292.66 -2.29887 0.409146 0
M  V30 34567 C 3293.64 -1.61947 -0.52031 0
M  V30 34568 O 3294.82 -1.89397 -0.429235 0
M  V30 34569 C 3291.95 -3.45464 -0.356629 0
M  V30 34570 C 3290.91 -4.25264 0.483175 0
M  V30 34571 C 3290.23 -5.33121 -0.410606 0
M  V30 34572 C 3291.53 -4.92552 1.73753 0
M  V30 34573 H 3293.23 -2.71878 1.25391 0
M  V30 34574 H 3290.77 -1.30702 0.604391 0
M  V30 34575 H 3292.73 -4.15263 -0.716537 0
M  V30 34576 H 3291.45 -3.02339 -1.23525 0
M  V30 34577 H 3290.11 -3.57184 0.825527 0
M  V30 34578 H 3289.76 -4.8624 -1.28761 0
M  V30 34579 H 3289.46 -5.87414 0.147663 0
M  V30 34580 H 3290.98 -6.0577 -0.766519 0
M  V30 34581 H 3292.4 -5.54742 1.44686 0
M  V30 34582 H 3290.79 -5.56816 2.23777 0
M  V30 34583 H 3291.86 -4.17359 2.4686 0
M  V30 34584 N 3293.21 -0.67155 -1.42576 0
M  V30 34585 C 3294.14 -0.00511088 -2.33499 0
M  V30 34586 C 3295.12 0.792736 -1.50498 0
M  V30 34587 O 3296.3 0.750543 -1.7911 0
M  V30 34588 C 3293.43 0.949135 -3.34079 0
M  V30 34589 C 3292.39 0.260111 -4.27209 0
M  V30 34590 C 3291.71 1.32707 -5.1797 0
M  V30 34591 C 3293.01 -0.858863 -5.1519 0
M  V30 34592 H 3294.71 -0.764457 -2.89476 0
M  V30 34593 H 3292.25 -0.369067 -1.3919 0
M  V30 34594 H 3294.21 1.42441 -3.96596 0
M  V30 34595 H 3292.93 1.73986 -2.76399 0
M  V30 34596 H 3291.59 -0.194898 -3.66082 0
M  V30 34597 H 3291.24 2.1097 -4.56619 0
M  V30 34598 H 3290.94 0.871191 -5.81106 0
M  V30 34599 H 3292.46 1.80334 -5.83363 0
M  V30 34600 H 3293.87 -0.464944 -5.71412 0
M  V30 34601 H 3292.27 -1.24034 -5.87142 0
M  V30 34602 H 3293.34 -1.70903 -4.53784 0
M  V30 34603 N 3294.68 1.52047 -0.414663 0
M  V30 34604 C 3296.1 1.86623 0.0536779 0
M  V30 34605 C 3296.45 1.33312 1.43952 0
M  V30 34606 O 3295.57 0.674642 2.05615 0
M  V30 34607 C 3296.17 3.3864 0.104181 0
M  V30 34608 C 3294.73 3.72834 0.516871 0
M  V30 34609 C 3293.87 2.75617 -0.305091 0
M  V30 34610 H 3296.82 1.45595 -0.631494 0
M  V30 34611 H 3296.84 3.69252 0.91833 0
M  V30 34612 H 3296.36 3.77411 -0.904589 0
M  V30 34613 H 3294.46 3.39644 1.53208 0
M  V30 34614 H 3294.57 4.78408 0.257416 0
M  V30 34615 H 3292.93 2.53629 0.233372 0
M  V30 34616 H 3293.72 3.17227 -1.31231 0
M  V30 34617 N 3296.16 0.145261 1.56929 0
M  V30 34618 C 3297.57 -0.375852 1.82878 0
M  V30 34619 C 3297.92 -1.64852 1.06387 0
M  V30 34620 O 3297.05 -2.14188 0.308608 0
M  V30 34621 C 3297.64 -0.688686 3.31727 0
M  V30 34622 C 3296.2 -1.15433 3.58263 0
M  V30 34623 C 3295.35 -0.176517 2.76738 0
M  V30 34624 H 3298.3 0.369987 1.54327 0
M  V30 34625 H 3298.32 -1.54353 3.47787 0
M  V30 34626 H 3297.83 0.237762 3.87371 0
M  V30 34627 H 3295.94 -2.09677 3.08003 0
M  V30 34628 H 3296.05 -1.0815 4.66734 0
M  V30 34629 H 3294.41 -0.6688 2.45762 0
M  V30 34630 H 3295.2 0.743491 3.35152 0
M  V30 34631 N 3297.64 -1.57075 -0.128525 0
M  V30 34632 C 3298.89 -1.83984 -0.836323 0
M  V30 34633 C 3299.21 -0.729003 -1.80861 0
M  V30 34634 O 3298.48 0.247825 -1.94326 0
M  V30 34635 H 3297.06 -0.678797 -0.311838 0
M  V30 34636 H 3299.72 -1.94542 -0.118119 0
M  V30 34637 H 3298.82 -2.79569 -1.38736 0
M  V30 34638 N 3299.12 0.398432 -1.5248 0
M  V30 34639 C 3300.37 1.14212 -1.66733 0
M  V30 34640 C 3300.69 1.90748 -0.404991 0
M  V30 34641 O 3299.96 1.87105 0.580402 0
M  V30 34642 H 3298.54 0.424611 -0.614585 0
M  V30 34643 H 3301.2 0.453026 -1.89562 0
M  V30 34644 H 3300.3 1.85027 -2.5134 0
M  V30 34645 N 3300.6 1.43284 0.656314 0
M  V30 34646 C 3301.53 1.44167 1.78181 0
M  V30 34647 C 3302.54 0.338205 1.59248 0
M  V30 34648 O 3303.73 0.602449 1.68026 0
M  V30 34649 C 3300.83 1.23583 3.15564 0
M  V30 34650 C 3300 2.4671 3.61183 0
M  V30 34651 C 3299.06 2.21396 4.77357 0
M  V30 34652 O 3298.09 2.94727 4.86955 0
M  V30 34653 N 3299.29 1.22865 5.67349 0
M  V30 34654 H 3302.06 2.41186 1.77903 0
M  V30 34655 H 3299.62 1.38401 0.840052 0
M  V30 34656 H 3301.61 1.04536 3.90966 0
M  V30 34657 H 3300.18 0.350209 3.10632 0
M  V30 34658 H 3299.4 2.81203 2.76259 0
M  V30 34659 H 3300.69 3.28659 3.88408 0
M  V30 34660 H 3300.09 0.622516 5.62264 0
M  V30 34661 H 3298.64 1.09802 6.42485 0
M  V30 34662 N 3302.08 -0.894389 1.29763 0
M  V30 34663 C 3302.99 -2.03202 1.17244 0
M  V30 34664 C 3304 -1.73743 0.0944757 0
M  V30 34665 O 3305.18 -1.99037 0.307584 0
M  V30 34666 C 3302.24 -3.3598 0.855475 0
M  V30 34667 C 3301.3 -3.78922 2.01783 0
M  V30 34668 C 3300.54 -5.05364 1.7159 0
M  V30 34669 O 3300.76 -5.66806 0.639345 0
M  V30 34670 O 3299.69 -5.44487 2.56549 0
M  V30 34671 H 3303.52 -2.16688 2.12791 0
M  V30 34672 H 3301.1 -1.01889 1.09266 0
M  V30 34673 H 3302.99 -4.15654 0.693502 0
M  V30 34674 H 3301.66 -3.23624 -0.0701626 0
M  V30 34675 H 3300.57 -2.99992 2.23508 0
M  V30 34676 H 3301.9 -3.9587 2.92486 0
M  V30 34677 N 3303.55 -1.12326 -1.10547 0
M  V30 34678 C 3304.46 -0.803071 -2.20427 0
M  V30 34679 C 3305.48 0.207644 -1.72757 0
M  V30 34680 O 3306.66 0.0415269 -2.01357 0
M  V30 34681 C 3303.72 -0.261093 -3.45715 0
M  V30 34682 C 3302.78 -1.33159 -4.08126 0
M  V30 34683 C 3302.01 -0.81538 -5.27435 0
M  V30 34684 O 3302.24 0.351261 -5.69317 0
M  V30 34685 O 3301.17 -1.58444 -5.80671 0
M  V30 34686 H 3305 -1.72078 -2.50246 0
M  V30 34687 H 3302.58 -0.899836 -1.19261 0
M  V30 34688 H 3304.46 0.0363266 -4.21384 0
M  V30 34689 H 3303.14 0.629193 -3.17526 0
M  V30 34690 H 3302.05 -1.68216 -3.34147 0
M  V30 34691 H 3303.38 -2.1956 -4.40516 0
M  V30 34692 N 3305.03 1.28319 -0.914988 0
M  V30 34693 C 3306.44 1.7696 -0.595151 0
M  V30 34694 C 3306.79 1.74876 0.88955 0
M  V30 34695 O 3305.92 1.34421 1.69588 0
M  V30 34696 C 3306.51 3.2134 -1.07358 0
M  V30 34697 C 3305.07 3.67699 -0.804642 0
M  V30 34698 C 3304.22 2.48051 -1.2396 0
M  V30 34699 H 3307.17 1.14765 -1.09612 0
M  V30 34700 H 3307.19 3.78224 -0.415572 0
M  V30 34701 H 3306.7 3.22825 -2.15419 0
M  V30 34702 H 3304.8 3.71673 0.262704 0
M  V30 34703 H 3304.92 4.57782 -1.41325 0
M  V30 34704 H 3303.28 2.46045 -0.658317 0
M  V30 34705 H 3304.06 2.52254 -2.32858 0
M  V30 34706 N 3306.51 0.679102 1.42218 0
M  V30 34707 C 3307.92 0.279909 1.8459 0
M  V30 34708 C 3308.27 -1.17878 1.56841 0
M  V30 34709 O 3307.4 -1.90293 1.03042 0
M  V30 34710 C 3307.99 0.501244 3.35072 0
M  V30 34711 C 3306.55 0.156131 3.76076 0
M  V30 34712 C 3305.7 0.791596 2.65761 0
M  V30 34713 H 3308.65 0.880955 1.32003 0
M  V30 34714 H 3308.67 -0.245282 3.79709 0
M  V30 34715 H 3308.18 1.56298 3.55236 0
M  V30 34716 H 3306.28 -0.901986 3.61518 0
M  V30 34717 H 3306.4 0.599656 4.75332 0
M  V30 34718 H 3304.76 0.222558 2.53726 0
M  V30 34719 H 3305.54 1.85687 2.88748 0
M  V30 34720 N 3307.99 -1.51825 0.42272 0
M  V30 34721 C 3309.21 -2.06856 -0.150133 0
M  V30 34722 C 3309.64 -1.2895 -1.36943 0
M  V30 34723 O 3309 -0.323412 -1.78392 0
M  V30 34724 C 3309.04 -3.57583 -0.4655 0
M  V30 34725 O 3308.15 -3.81986 -1.55435 0
M  V30 34726 H 3307.49 -0.663949 -0.00826764 0
M  V30 34727 H 3310.02 -1.95609 0.599841 0
M  V30 34728 H 3310.03 -4.01593 -0.720209 0
M  V30 34729 H 3308.7 -4.13715 0.425752 0
M  V30 34730 H 3307.28 -3.49849 -1.29075 0
M  V30 34731 N 3309.47 -0.153581 -1.5685 0
M  V30 34732 C 3310.88 0.366148 -1.83074 0
M  V30 34733 C 3311.23 1.64286 -1.0726 0
M  V30 34734 O 3310.35 2.14021 -0.319962 0
M  V30 34735 C 3310.95 0.671084 -3.32087 0
M  V30 34736 C 3309.51 1.13531 -3.5887 0
M  V30 34737 C 3308.65 0.161838 -2.76827 0
M  V30 34738 H 3311.6 -0.378166 -1.54128 0
M  V30 34739 H 3311.63 1.52506 -3.486 0
M  V30 34740 H 3311.14 -0.258302 -3.87239 0
M  V30 34741 H 3309.24 2.08041 -3.09111 0
M  V30 34742 H 3309.35 1.05673 -4.67301 0
M  V30 34743 H 3307.72 0.655757 -2.46114 0
M  V30 34744 H 3308.5 -0.761254 -3.34753 0
M  V30 34745 N 3310.94 1.57141 0.120193 0
M  V30 34746 C 3312.36 1.52408 0.473691 0
M  V30 34747 C 3312.56 0.866386 1.81923 0
M  V30 34748 O 3311.62 0.448217 2.4849 0
M  V30 34749 C 3312.93 2.97172 0.459285 0
M  V30 34750 C 3314.48 3.08255 0.542921 0
M  V30 34751 C 3314.95 4.54577 0.558916 0
M  V30 34752 N 3316.44 4.59027 0.620388 0
M  V30 34753 C 3317.18 5.69656 0.654192 0
M  V30 34754 N 3316.67 6.89784 0.645714 0
M  V30 34755 N 3318.47 5.57761 0.69711 0
M  V30 34756 H 3310.62 1.98282 -0.761455 0
M  V30 34757 H 3312.88 0.905474 -0.280752 0
M  V30 34758 H 3312.59 3.48656 -0.461715 0
M  V30 34759 H 3312.46 3.54546 1.28752 0
M  V30 34760 H 3314.85 2.56774 1.45434 0
M  V30 34761 H 3314.93 2.53878 -0.312981 0
M  V30 34762 H 3314.57 5.06703 -0.348456 0
M  V30 34763 H 3314.5 5.06765 1.43168 0
M  V30 34764 H 3316.99 3.72558 0.633153 0
M  V30 34765 H 3317.31 7.69854 0.674098 0
M  V30 34766 H 3315.65 6.9229 0.613157 0
M  V30 34767 H 3318.84 4.6282 0.701089 0
M  V30 34768 H 3319.02 6.43988 0.719987 0
M  V30 34769 N 3312.42 -0.39034 1.5269 0
M  V30 34770 C 3313.7 -1.14965 1.58248 0
M  V30 34771 C 3314.08 -2.07745 0.374844 0
M  V30 34772 O 3313.43 -2.19443 -0.636931 0
M  V30 34773 C 3313.64 -1.91051 2.92063 0
M  V30 34774 C 3314.99 -2.4646 3.4575 0
M  V30 34775 O 3316.01 -2.01209 2.93928 0
M  V30 34776 O 3314.87 -3.29115 4.36286 0
M  V30 34777 H 3311.96 -0.525959 0.638198 0
M  V30 34778 H 3314.51 -0.395601 1.65025 0
M  V30 34779 H 3313.28 -1.23195 3.71401 0
M  V30 34780 H 3312.9 -2.7342 2.88665 0
M  V30 34781 N 3313.9 -1.4363 -0.648706 0
M  V30 34782 C 3314.83 -1.5195 -1.77295 0
M  V30 34783 C 3315.81 -0.373814 -1.65942 0
M  V30 34784 O 3317 -0.591629 -1.84969 0
M  V30 34785 C 3314.13 -1.44643 -3.15746 0
M  V30 34786 C 3313.08 -2.57508 -3.41868 0
M  V30 34787 C 3312.41 -2.35254 -4.80166 0
M  V30 34788 C 3313.71 -3.99737 -3.36166 0
M  V30 34789 H 3315.4 -2.46048 -1.70589 0
M  V30 34790 H 3312.95 -1.18422 -0.819285 0
M  V30 34791 H 3314.9 -1.49067 -3.94153 0
M  V30 34792 H 3313.62 -0.470523 -3.23193 0
M  V30 34793 H 3312.28 -2.52444 -2.65833 0
M  V30 34794 H 3311.93 -1.35896 -4.84295 0
M  V30 34795 H 3311.63 -3.10914 -4.98604 0
M  V30 34796 H 3313.15 -2.41469 -5.60825 0
M  V30 34797 H 3314.57 -4.06264 -4.04503 0
M  V30 34798 H 3312.97 -4.75459 -3.6614 0
M  V30 34799 H 3314.04 -4.24553 -2.3427 0
M  V30 34800 N 3315.38 0.887495 -1.30236 0
M  V30 34801 C 3316.33 1.99296 -1.16403 0
M  V30 34802 C 3317.3 1.66012 -0.0541828 0
M  V30 34803 O 3318.48 1.89482 -0.223914 0
M  V30 34804 C 3315.62 3.34232 -0.859228 0
M  V30 34805 C 3314.73 3.80223 -2.05072 0
M  V30 34806 C 3313.87 5.03793 -1.68421 0
M  V30 34807 C 3312.91 5.42185 -2.8408 0
M  V30 34808 N 3312.04 6.56938 -2.47743 0
M  V30 34809 H 3316.88 2.10459 -2.10976 0
M  V30 34810 H 3314.42 1.03051 -1.04971 0
M  V30 34811 H 3316.38 4.11896 -0.663137 0
M  V30 34812 H 3315.01 3.22762 0.0496241 0
M  V30 34813 H 3314.06 2.9849 -2.35813 0
M  V30 34814 H 3315.37 4.04617 -2.91695 0
M  V30 34815 H 3314.53 5.89075 -1.45172 0
M  V30 34816 H 3313.27 4.81265 -0.789637 0
M  V30 34817 H 3312.27 4.55431 -3.07998 0
M  V30 34818 H 3313.5 5.66688 -3.74221 0
M  V30 34819 H 3311.44 6.3599 -1.60788 0
M  V30 34820 H 3311.36 6.81189 -3.27899 0
M  V30 34821 H 3312.63 7.45458 -2.27844 0
M  V30 34822 N 3316.86 1.12911 1.0995 0
M  V30 34823 C 3317.8 0.801552 2.16434 0
M  V30 34824 C 3318.77 -0.233948 1.64444 0
M  V30 34825 O 3319.96 -0.107397 1.90498 0
M  V30 34826 C 3317.1 0.267813 3.44059 0
M  V30 34827 C 3316.21 1.36173 4.09977 0
M  V30 34828 C 3315.35 0.786896 5.25339 0
M  V30 34829 C 3314.39 1.85958 5.83169 0
M  V30 34830 N 3313.52 1.3031 6.89901 0
M  V30 34831 H 3318.36 1.71369 2.43796 0
M  V30 34832 H 3315.9 0.85552 1.19663 0
M  V30 34833 H 3317.86 -0.0597297 4.17157 0
M  V30 34834 H 3316.49 -0.607472 3.17033 0
M  V30 34835 H 3315.54 1.80596 3.34797 0
M  V30 34836 H 3316.85 2.17267 4.48995 0
M  V30 34837 H 3316.01 0.410317 6.05311 0
M  V30 34838 H 3314.74 -0.0551933 4.87669 0
M  V30 34839 H 3313.75 2.24529 5.01863 0
M  V30 34840 H 3314.97 2.70498 6.22903 0
M  V30 34841 H 3312.92 0.482921 6.5422 0
M  V30 34842 H 3312.84 2.05059 7.27659 0
M  V30 34843 H 3314.11 0.953915 7.73641 0
M  V30 34844 N 3318.33 -1.27832 0.92178 0
M  V30 34845 C 3319.57 -1.96398 0.566323 0
M  V30 34846 C 3319.94 -1.70897 -0.875119 0
M  V30 34847 O 3321.14 -2.33101 -1.33855 0
M  V30 34848 C 3319.41 -3.46488 0.87639 0
M  V30 34849 S 3320.97 -4.34275 0.628557 0
M  V30 34850 H 3317.79 -0.679509 0.209258 0
M  V30 34851 H 3320.39 -1.55191 1.18895 0
M  V30 34852 H 3319.09 -3.62545 1.92326 0
M  V30 34853 H 3318.62 -3.9265 0.242727 0
M  V30 34854 H 3320.64 -4.93506 -0.516406 0
M  V30 34855 N 3319.81 -0.686634 -1.41856 0
M  V30 34856 C 3321.04 -0.222274 -2.05401 0
M  V30 34857 C 3321.45 1.1302 -1.51733 0
M  V30 34858 O 3320.79 1.7156 -0.656731 0
M  V30 34859 C 3320.86 -0.092724 -3.5938 0
M  V30 34860 C 3320.52 -1.37581 -4.35799 0
M  V30 34861 C 3321.52 -2.31179 -4.65674 0
M  V30 34862 C 3319.2 -1.6267 -4.7523 0
M  V30 34863 C 3321.2 -3.48134 -5.3393 0
M  V30 34864 C 3318.88 -2.79912 -5.43224 0
M  V30 34865 C 3319.88 -3.72468 -5.72501 0
M  V30 34866 O 3319.57 -4.87658 -6.39097 0
M  V30 34867 H 3319.3 -0.102888 -0.668124 0
M  V30 34868 H 3321.85 -0.937172 -1.82774 0
M  V30 34869 H 3320.08 0.677863 -3.80712 0
M  V30 34870 H 3321.77 0.333293 -4.04529 0
M  V30 34871 H 3322.54 -2.1305 -4.357 0
M  V30 34872 H 3318.42 -0.914941 -4.51829 0
M  V30 34873 H 3321.96 -4.20396 -5.56698 0
M  V30 34874 H 3317.86 -2.97961 -5.72616 0
M  V30 34875 H 3318.63 -4.87356 -6.57591 0
M  V30 34876 N 3321.29 1.51599 -0.430766 0
M  V30 34877 C 3322.52 2.06933 0.139161 0
M  V30 34878 C 3322.94 1.29674 1.36258 0
M  V30 34879 O 3322.3 0.332868 1.78218 0
M  V30 34880 C 3322.35 3.57825 0.44653 0
M  V30 34881 O 3321.45 3.82805 1.53407 0
M  V30 34882 H 3320.79 0.663983 0.00474644 0
M  V30 34883 H 3323.32 1.95289 -0.610206 0
M  V30 34884 H 3323.33 4.01969 0.698901 0
M  V30 34885 H 3322.01 4.13483 -0.447686 0
M  V30 34886 H 3320.58 3.50528 1.27218 0
M  V30 34887 N 3322.77 0.161897 1.56766 0
M  V30 34888 C 3324.01 -0.486181 1.96886 0
M  V30 34889 C 3324.35 -1.63528 1.04748 0
M  V30 34890 O 3323.62 -1.94279 0.0927497 0
M  V30 34891 C 3323.91 -0.978159 3.4656 0
M  V30 34892 C 3323.76 0.170469 4.49477 0
M  V30 34893 C 3325.08 -1.85499 3.99096 0
M  V30 34894 H 3322.2 -0.175253 0.71586 0
M  V30 34895 H 3324.84 0.246132 1.88399 0
M  V30 34896 H 3322.99 -1.60219 3.53924 0
M  V30 34897 H 3324.66 0.807285 4.54181 0
M  V30 34898 H 3322.9 0.827396 4.25836 0
M  V30 34899 H 3323.57 -0.215733 5.51578 0
M  V30 34900 H 3326.05 -1.32901 3.94305 0
M  V30 34901 H 3324.93 -2.16828 5.04259 0
M  V30 34902 H 3325.19 -2.79736 3.42345 0
M  V30 34903 N 3324.25 -1.57203 -0.111858 0
M  V30 34904 C 3325.16 -2.04167 -1.15556 0
M  V30 34905 C 3326.17 -0.96338 -1.44897 0
M  V30 34906 O 3327.35 -1.27539 -1.55871 0
M  V30 34907 C 3324.41 -2.44261 -2.46044 0
M  V30 34908 C 3323.47 -3.66205 -2.24037 0
M  V30 34909 C 3322.71 -4.04377 -3.48303 0
M  V30 34910 O 3322.93 -3.42814 -4.55889 0
M  V30 34911 O 3321.86 -4.97436 -3.38882 0
M  V30 34912 H 3325.69 -2.93333 -0.786727 0
M  V30 34913 H 3323.28 -1.45863 -0.32317 0
M  V30 34914 H 3325.16 -2.70751 -3.22912 0
M  V30 34915 H 3323.83 -1.58238 -2.82387 0
M  V30 34916 H 3322.74 -3.44854 -1.45004 0
M  V30 34917 H 3324.07 -4.52955 -1.92594 0
M  V30 34918 N 3325.72 0.382237 -1.52894 0
M  V30 34919 C 3326.69 1.45005 -1.775 0
M  V30 34920 C 3327.69 1.47292 -0.645116 0
M  V30 34921 O 3328.88 1.48344 -0.913218 0
M  V30 34922 C 3326.01 2.84247 -1.88193 0
M  V30 34923 H 3327.2 1.24468 -2.72851 0
M  V30 34924 H 3324.76 0.614385 -1.43718 0
M  V30 34925 H 3325.49 3.10119 -0.948506 0
M  V30 34926 H 3325.28 2.83987 -2.70358 0
M  V30 34927 H 3326.77 3.61607 -2.08879 0
M  V30 34928 N 3327.2 1.43972 0.64108 0
M  V30 34929 C 3328.14 1.46049 1.76642 0
M  V30 34930 C 3329.15 0.355077 1.58881 0
M  V30 34931 O 3330.34 0.620237 1.67378 0
M  V30 34932 C 3327.44 1.26923 3.14235 0
M  V30 34933 C 3326.61 2.50527 3.58546 0
M  V30 34934 C 3325.67 2.26447 4.74982 0
M  V30 34935 O 3324.7 2.99875 4.83801 0
M  V30 34936 N 3325.9 1.28876 5.66014 0
M  V30 34937 H 3328.66 2.43059 1.75335 0
M  V30 34938 H 3326.22 1.39284 0.825325 0
M  V30 34939 H 3328.22 1.08677 3.89835 0
M  V30 34940 H 3326.79 0.383136 3.10243 0
M  V30 34941 H 3326.01 2.84117 2.7326 0
M  V30 34942 H 3327.29 3.3276 3.849 0
M  V30 34943 H 3326.69 0.682117 5.61572 0
M  V30 34944 H 3325.25 1.1661 6.41284 0
M  V30 34945 N 3328.68 -0.880575 1.30704 0
M  V30 34946 C 3329.91 -1.67103 1.22846 0
M  V30 34947 C 3330.33 -1.86982 -0.204755 0
M  V30 34948 O 3329.69 -1.40394 -1.14713 0
M  V30 34949 C 3329.74 -3.02234 1.9669 0
M  V30 34950 O 3328.84 -3.91474 1.297 0
M  V30 34951 H 3328.18 -0.510442 0.42467 0
M  V30 34952 H 3330.71 -1.09868 1.72598 0
M  V30 34953 H 3330.72 -3.52246 2.05881 0
M  V30 34954 H 3329.4 -2.87085 3.00924 0
M  V30 34955 H 3327.97 -3.49916 1.28892 0
M  V30 34956 N 3330.16 -1.13492 -1.09349 0
M  V30 34957 C 3331.4 -0.907404 -1.83154 0
M  V30 34958 C 3331.76 0.556409 -1.83761 0
M  V30 34959 O 3332.96 0.901515 -2.53231 0
M  V30 34960 C 3331.24 -1.4801 -3.25312 0
M  V30 34961 S 3332.79 -1.39275 -4.1611 0
M  V30 34962 H 3329.61 -0.327054 -0.631313 0
M  V30 34963 H 3332.21 -1.44659 -1.31507 0
M  V30 34964 H 3330.92 -2.53882 -3.22447 0
M  V30 34965 H 3330.45 -0.938889 -3.82032 0
M  V30 34966 H 3332.46 -0.371732 -4.94806 0
M  V30 34967 N 3331.64 1.27341 -0.928546 0
M  V30 34968 C 3332.57 2.25933 -0.385602 0
M  V30 34969 C 3333.58 1.55434 0.484151 0
M  V30 34970 O 3334.77 1.76018 0.296637 0
M  V30 34971 C 3331.87 3.3568 0.466057 0
M  V30 34972 C 3331.04 4.35706 -0.3846 0
M  V30 34973 C 3330.1 5.24643 0.404552 0
M  V30 34974 O 3329.13 5.68889 -0.188043 0
M  V30 34975 N 3330.33 5.54922 1.70417 0
M  V30 34976 H 3333.1 2.73157 -1.23311 0
M  V30 34977 H 3330.66 1.40977 -0.796064 0
M  V30 34978 H 3332.65 3.92123 1.00108 0
M  V30 34979 H 3331.22 2.8805 1.21432 0
M  V30 34980 H 3330.44 3.78515 -1.10091 0
M  V30 34981 H 3331.73 4.99543 -0.966121 0
M  V30 34982 H 3331.13 5.20833 2.20793 0
M  V30 34983 H 3329.68 6.14061 2.18569 0
M  V30 34984 N 3333.12 0.694147 1.4149 0
M  V30 34985 C 3334.53 0.365559 1.55357 0
M  V30 34986 C 3334.73 -1.12759 1.66996 0
M  V30 34987 O 3333.79 -1.91339 1.64759 0
M  V30 34988 C 3335.1 1.11284 2.7935 0
M  V30 34989 C 3336.65 1.09705 2.93145 0
M  V30 34990 C 3337.12 1.82604 4.20023 0
M  V30 34991 N 3338.61 1.79567 4.26978 0
M  V30 34992 C 3339.35 2.32814 5.24009 0
M  V30 34993 N 3338.85 2.94526 6.27078 0
M  V30 34994 N 3340.64 2.23078 5.15939 0
M  V30 34995 H 3332.79 1.6626 1.3218 0
M  V30 34996 H 3335.05 0.701538 0.637611 0
M  V30 34997 H 3334.76 2.1677 2.76954 0
M  V30 34998 H 3334.63 0.690504 3.70826 0
M  V30 34999 H 3337.02 0.0504556 2.95057 0
M  V30 35000 H 3337.1 1.55843 2.02846 0
M  V30 35001 H 3336.74 2.87242 4.18873 0
M  V30 35002 H 3336.67 1.33902 5.09292 0
M  V30 35003 H 3339.17 1.34573 3.53127 0
M  V30 35004 H 3339.48 3.32727 6.97505 0
M  V30 35005 H 3337.82 2.98603 6.27584 0
M  V30 35006 H 3341.01 1.7454 4.34343 0
M  V30 35007 H 3341.19 2.64879 5.91391 0
M  V30 35008 N 3334.59 -1.51368 0.438799 0
M  V30 35009 C 3336.01 -1.59339 0.0911696 0
M  V30 35010 C 3336.21 -1.44961 -1.39959 0
M  V30 35011 O 3335.27 -1.29158 -2.16966 0
M  V30 35012 C 3336.58 -2.94394 0.612583 0
M  V30 35013 C 3338.13 -3.07708 0.573153 0
M  V30 35014 C 3338.6 -4.45288 1.07156 0
M  V30 35015 N 3340.09 -4.51612 1.02961 0
M  V30 35016 C 3340.83 -5.56394 1.38612 0
M  V30 35017 N 3340.32 -6.68588 1.81554 0
M  V30 35018 N 3342.12 -5.46761 1.30419 0
M  V30 35019 H 3334.27 -1.58959 1.40875 0
M  V30 35020 H 3336.53 -0.749404 0.580602 0
M  V30 35021 H 3336.24 -3.10291 1.65567 0
M  V30 35022 H 3336.11 -3.77181 0.0383038 0
M  V30 35023 H 3338.5 -2.91478 -0.460954 0
M  V30 35024 H 3338.58 -2.26757 1.18385 0
M  V30 35025 H 3338.22 -4.62264 2.10414 0
M  V30 35026 H 3338.15 -5.2478 0.437389 0
M  V30 35027 H 3340.64 -3.71088 0.714273 0
M  V30 35028 H 3340.96 -7.44564 2.0699 0
M  V30 35029 H 3339.3 -6.69792 1.85482 0
M  V30 35030 H 3342.49 -4.57996 0.967352 0
M  V30 35031 H 3342.67 -6.28309 1.58531 0
M  V30 35032 N 3336.07 -0.170208 -1.56678 0
M  V30 35033 C 3337.48 0.34671 -1.83452 0
M  V30 35034 C 3337.83 1.63139 -1.08996 0
M  V30 35035 O 3336.96 2.1367 -0.342644 0
M  V30 35036 C 3337.55 0.635824 -3.3278 0
M  V30 35037 C 3336.11 1.09718 -3.60054 0
M  V30 35038 C 3335.26 0.132468 -2.76983 0
M  V30 35039 H 3338.21 -0.394492 -1.53719 0
M  V30 35040 H 3338.23 1.488 -3.50198 0
M  V30 35041 H 3337.74 -0.299359 -3.86944 0
M  V30 35042 H 3335.84 2.04751 -3.113 0
M  V30 35043 H 3335.96 1.00711 -4.68395 0
M  V30 35044 H 3334.32 0.629616 -2.46795 0
M  V30 35045 H 3335.1 -0.796716 -3.33927 0
M  V30 35046 N 3337.55 1.5726 0.10352 0
M  V30 35047 C 3338.78 1.89857 0.822317 0
M  V30 35048 C 3339.19 0.76306 1.72693 0
M  V30 35049 O 3338.55 -0.265389 1.8056 0
M  V30 35050 C 3338.6 3.22018 1.64277 0
M  V30 35051 O 3338.32 4.31199 0.774553 0
M  V30 35052 C 3339.82 3.68422 2.46536 0
M  V30 35053 H 3337.04 0.628286 0.23558 0
M  V30 35054 H 3339.59 2.0433 0.0832747 0
M  V30 35055 H 3337.74 3.09167 2.3344 0
M  V30 35056 H 3338.16 5.07042 1.34196 0
M  V30 35057 H 3339.63 4.63614 2.99609 0
M  V30 35058 H 3340.11 2.95844 3.24612 0
M  V30 35059 H 3340.71 3.84112 1.82587 0
M  V30 35060 N 3339.03 -0.374123 1.53095 0
M  V30 35061 C 3340.25 -1.14297 1.73063 0
M  V30 35062 C 3340.68 -1.82523 0.454643 0
M  V30 35063 O 3340.04 -1.71407 -0.590713 0
M  V30 35064 C 3340.08 -2.15544 2.8909 0
M  V30 35065 O 3339.19 -3.22447 2.57102 0
M  V30 35066 H 3338.53 -0.332044 0.575015 0
M  V30 35067 H 3341.06 -0.433862 1.99947 0
M  V30 35068 H 3341.07 -2.5929 3.15012 0
M  V30 35069 H 3339.74 -1.65276 3.8165 0
M  V30 35070 H 3338.32 -2.83734 2.4197 0
M  V30 35071 N 3340.51 -1.4431 -0.633436 0
M  V30 35072 C 3341.75 -1.48183 -1.39331 0
M  V30 35073 C 3342.11 -0.111869 -1.92075 0
M  V30 35074 O 3341.4 0.87255 -1.70579 0
M  V30 35075 C 3341.59 -2.47558 -2.57778 0
M  V30 35076 C 3341.42 -3.94083 -2.16631 0
M  V30 35077 C 3340.19 -4.62282 -2.04018 0
M  V30 35078 C 3342.39 -4.83362 -1.75685 0
M  V30 35079 N 3340.37 -5.93641 -1.56409 0
M  V30 35080 C 3341.74 -6.04148 -1.39305 0
M  V30 35081 C 3343.8 -4.70447 -1.63045 0
M  V30 35082 C 3342.5 -7.1345 -0.915479 0
M  V30 35083 C 3344.53 -5.79773 -1.16693 0
M  V30 35084 C 3343.89 -6.99697 -0.812612 0
M  V30 35085 H 3339.99 -0.59729 -0.504746 0
M  V30 35086 H 3342.57 -1.80621 -0.726916 0
M  V30 35087 H 3340.74 -2.17115 -3.22049 0
M  V30 35088 H 3342.48 -2.41742 -3.24565 0
M  V30 35089 H 3339.23 -4.17063 -2.244 0
M  V30 35090 H 3339.65 -6.63422 -1.3491 0
M  V30 35091 H 3344.3 -3.78169 -1.89071 0
M  V30 35092 H 3342.01 -8.0554 -0.642728 0
M  V30 35093 H 3345.6 -5.71806 -1.07374 0
M  V30 35094 H 3344.48 -7.82853 -0.459433 0
M  V30 35095 N 3341.98 0.873632 -1.3117 0
M  V30 35096 C 3342.91 1.99644 -1.21097 0
M  V30 35097 C 3343.9 1.69812 -0.0989982 0
M  V30 35098 O 3345.08 1.92127 -0.282973 0
M  V30 35099 C 3342.21 3.35064 -0.913743 0
M  V30 35100 C 3341.16 3.79192 -1.98489 0
M  V30 35101 C 3340.49 5.1203 -1.54042 0
M  V30 35102 C 3341.79 3.96693 -3.39752 0
M  V30 35103 H 3343.48 2.08329 -2.15033 0
M  V30 35104 H 3341.03 1.00095 -1.03523 0
M  V30 35105 H 3342.98 4.13147 -0.829893 0
M  V30 35106 H 3341.71 3.26542 0.0612897 0
M  V30 35107 H 3340.37 3.03346 -2.05857 0
M  V30 35108 H 3340.01 4.99947 -0.553349 0
M  V30 35109 H 3339.71 5.42526 -2.25697 0
M  V30 35110 H 3341.24 5.92627 -1.47058 0
M  V30 35111 H 3342.65 4.65182 -3.3508 0
M  V30 35112 H 3341.05 4.38582 -4.09592 0
M  V30 35113 H 3342.12 3.00189 -3.80808 0
M  V30 35114 N 3343.46 1.1407 1.08746 0
M  V30 35115 C 3344.74 0.817691 1.77688 0
M  V30 35116 C 3345.12 -0.689466 1.99523 0
M  V30 35117 O 3344.47 -1.62911 1.60225 0
M  V30 35118 C 3344.68 1.6125 3.09515 0
M  V30 35119 C 3346.03 1.80965 3.84105 0
M  V30 35120 O 3347.05 1.57907 3.19286 0
M  V30 35121 O 3345.91 2.19487 5.00487 0
M  V30 35122 H 3343 0.299279 0.770948 0
M  V30 35123 H 3345.55 1.24571 1.1524 0
M  V30 35124 H 3344.32 2.63643 2.8915 0
M  V30 35125 H 3343.94 1.17988 3.7969 0
M  V30 35126 N 3344.94 -1.26847 0.935286 0
M  V30 35127 C 3345.85 -2.30318 0.446162 0
M  V30 35128 C 3346.87 -1.67336 -0.476935 0
M  V30 35129 O 3348.04 -1.98194 -0.357899 0
M  V30 35130 C 3345.11 -3.45516 -0.286237 0
M  V30 35131 C 3344.17 -4.23997 0.672701 0
M  V30 35132 C 3343.4 -5.33694 -0.0248406 0
M  V30 35133 O 3343.62 -5.56695 -1.24286 0
M  V30 35134 O 3342.56 -5.98371 0.650857 0
M  V30 35135 H 3346.38 -2.74208 1.30551 0
M  V30 35136 H 3343.97 -1.31937 0.700933 0
M  V30 35137 H 3345.85 -4.15562 -0.699035 0
M  V30 35138 H 3344.53 -3.03667 -1.12106 0
M  V30 35139 H 3343.43 -3.56456 1.13533 0
M  V30 35140 H 3344.77 -4.6958 1.47497 0
M  V30 35141 N 3346.42 -0.701641 -1.4112 0
M  V30 35142 C 3347.35 -0.00092113 -2.292 0
M  V30 35143 C 3348.36 0.738167 -1.45103 0
M  V30 35144 O 3349.55 0.587861 -1.68542 0
M  V30 35145 C 3346.65 1.02286 -3.23096 0
M  V30 35146 C 3345.83 0.352155 -4.3598 0
M  V30 35147 C 3344.88 1.27938 -5.1041 0
M  V30 35148 O 3343.91 0.769461 -5.63975 0
M  V30 35149 N 3345.11 2.61138 -5.18447 0
M  V30 35150 H 3347.88 -0.757145 -2.89978 0
M  V30 35151 H 3345.44 -0.548153 -1.52338 0
M  V30 35152 H 3347.43 1.64502 -3.69758 0
M  V30 35153 H 3346 1.68056 -2.63583 0
M  V30 35154 H 3345.22 -0.449989 -3.91623 0
M  V30 35155 H 3346.51 -0.113971 -5.08672 0
M  V30 35156 H 3345.91 3.05078 -4.76386 0
M  V30 35157 H 3344.46 3.18534 -5.68664 0
M  V30 35158 N 3347.9 1.51133 -0.446821 0
M  V30 35159 C 3349.31 1.59289 -0.0996185 0
M  V30 35160 C 3349.51 1.45701 1.39188 0
M  V30 35161 O 3348.57 1.30307 2.16278 0
M  V30 35162 C 3349.88 2.94065 -0.628186 0
M  V30 35163 C 3351.43 3.07399 -0.589463 0
M  V30 35164 C 3351.9 4.44714 -1.09516 0
M  V30 35165 N 3353.4 4.51059 -1.05355 0
M  V30 35166 C 3354.13 5.55651 -1.4156 0
M  V30 35167 N 3353.63 6.67616 -1.85097 0
M  V30 35168 N 3355.42 5.46061 -1.33317 0
M  V30 35169 H 3347.57 1.5821 -1.41716 0
M  V30 35170 H 3349.83 0.746314 -0.584568 0
M  V30 35171 H 3349.54 3.09408 -1.6721 0
M  V30 35172 H 3349.41 3.77155 -0.0583061 0
M  V30 35173 H 3351.8 2.91718 0.44549 0
M  V30 35174 H 3351.88 2.26126 -1.19586 0
M  V30 35175 H 3351.53 4.61142 -2.12863 0
M  V30 35176 H 3351.46 5.24541 -0.465214 0
M  V30 35177 H 3353.95 3.70704 -0.733942 0
M  V30 35178 H 3354.26 7.43455 -2.10936 0
M  V30 35179 H 3352.6 6.68799 -1.89032 0
M  V30 35180 H 3355.8 4.57476 -0.991627 0
M  V30 35181 H 3355.97 6.27459 -1.61861 0
M  V30 35182 N 3349.37 0.178515 1.56586 0
M  V30 35183 C 3350.79 -0.177562 1.58609 0
M  V30 35184 C 3350.99 -1.62304 1.19413 0
M  V30 35185 O 3350.05 -2.35567 0.909101 0
M  V30 35186 C 3351.36 0.109775 3.005 0
M  V30 35187 C 3352.91 0.0485586 3.12962 0
M  V30 35188 C 3353.38 0.308982 4.56957 0
M  V30 35189 N 3354.87 0.257011 4.62486 0
M  V30 35190 C 3355.61 0.432589 5.71766 0
M  V30 35191 N 3355.1 0.667615 6.89576 0
M  V30 35192 N 3356.9 0.367994 5.60894 0
M  V30 35193 H 3349.05 1.12196 1.80349 0
M  V30 35194 H 3351.31 0.446584 0.836222 0
M  V30 35195 H 3351.02 1.11139 3.33678 0
M  V30 35196 H 3350.89 -0.595308 3.72473 0
M  V30 35197 H 3353.28 -0.943638 2.79606 0
M  V30 35198 H 3353.36 0.786463 2.4341 0
M  V30 35199 H 3353 1.29842 4.91023 0
M  V30 35200 H 3352.93 -0.449618 5.24677 0
M  V30 35201 H 3355.42 0.0812972 3.77813 0
M  V30 35202 H 3355.74 0.790845 7.68743 0
M  V30 35203 H 3354.08 0.704315 6.91422 0
M  V30 35204 H 3357.27 0.184919 4.67735 0
M  V30 35205 H 3357.45 0.508252 6.46004 0
M  V30 35206 N 3350.85 -1.57312 -0.0951784 0
M  V30 35207 C 3351.8 -1.98491 -1.12185 0
M  V30 35208 C 3352.79 -0.863341 -1.35776 0
M  V30 35209 O 3353.98 -1.12717 -1.36469 0
M  V30 35210 C 3351.11 -2.41281 -2.44209 0
M  V30 35211 C 3350.19 -3.60123 -2.23992 0
M  V30 35212 N 3350.58 -4.7506 -1.73642 0
M  V30 35213 C 3348.88 -3.66219 -2.54558 0
M  V30 35214 C 3349.58 -5.57005 -1.67692 0
M  V30 35215 N 3348.56 -5.00173 -2.12903 0
M  V30 35216 H 3352.36 -2.84805 -0.725494 0
M  V30 35217 H 3349.88 -1.59556 -0.302606 0
M  V30 35218 H 3351.87 -2.6901 -3.18495 0
M  V30 35219 H 3350.53 -1.56344 -2.84582 0
M  V30 35220 H 3351.54 -4.97812 -1.4284 0
M  V30 35221 H 3348.22 -2.91943 -2.98456 0
M  V30 35222 H 3349.61 -6.5924 -1.29815 0
M  V30 35223 N 3352.33 0.365999 -1.53291 0
M  V30 35224 C 3353.56 1.13378 -1.73667 0
M  V30 35225 C 3353.98 1.82279 -0.464316 0
M  V30 35226 O 3353.34 1.71718 0.581615 0
M  V30 35227 C 3353.39 2.14008 -2.90229 0
M  V30 35228 O 3352.49 3.21079 -2.58808 0
M  V30 35229 H 3351.83 0.32899 -0.576768 0
M  V30 35230 H 3354.36 0.423252 -2.00174 0
M  V30 35231 H 3354.37 2.57616 -3.16383 0
M  V30 35232 H 3353.05 1.6325 -3.82521 0
M  V30 35233 H 3351.62 2.82447 -2.43471 0
M  V30 35234 N 3353.81 1.44644 0.625774 0
M  V30 35235 C 3355.06 1.46987 1.38122 0
M  V30 35236 C 3355.37 0.108463 1.95299 0
M  V30 35237 O 3356.58 0.00944777 2.71498 0
M  V30 35238 C 3355.03 2.58797 2.50104 0
M  V30 35239 C 3354.64 4.01169 1.99417 0
M  V30 35240 C 3356.38 2.70367 3.27264 0
M  V30 35241 C 3354.29 5.04394 3.08773 0
M  V30 35242 H 3353.22 0.546881 0.519073 0
M  V30 35243 H 3355.87 1.70727 0.67265 0
M  V30 35244 H 3354.25 2.28307 3.23561 0
M  V30 35245 H 3355.43 4.41252 1.32789 0
M  V30 35246 H 3353.74 3.93889 1.35056 0
M  V30 35247 H 3356.34 3.44659 4.08796 0
M  V30 35248 H 3356.68 1.76369 3.77094 0
M  V30 35249 H 3357.22 3.00294 2.609 0
M  V30 35250 H 3353.96 6.00039 2.63881 0
M  V30 35251 H 3353.48 4.68898 3.74025 0
M  V30 35252 H 3355.15 5.28334 3.73459 0
M  V30 35253 N 3355.29 -0.866663 1.31631 0
M  V30 35254 C 3356.25 -1.95574 1.19514 0
M  V30 35255 C 3357.25 -1.60341 0.121347 0
M  V30 35256 O 3358.44 -1.70207 0.370862 0
M  V30 35257 C 3355.57 -3.30509 0.835259 0
M  V30 35258 H 3356.76 -2.07748 2.16289 0
M  V30 35259 H 3354.32 -1.05537 1.1529 0
M  V30 35260 H 3355.05 -3.24035 -0.131188 0
M  V30 35261 H 3354.84 -3.57455 1.61148 0
M  V30 35262 H 3356.33 -4.10356 0.774465 0
M  V30 35263 N 3356.77 -1.14645 -1.0814 0
M  V30 35264 C 3358.01 -0.917717 -1.80847 0
M  V30 35265 C 3358.34 0.554217 -1.86124 0
M  V30 35266 O 3357.62 1.41062 -1.33909 0
M  V30 35267 C 3357.9 -1.5227 -3.26322 0
M  V30 35268 C 3357.76 -3.06467 -3.29239 0
M  V30 35269 C 3359.07 -1.20182 -4.23372 0
M  V30 35270 H 3356.19 -0.334823 -0.656553 0
M  V30 35271 H 3358.84 -1.41684 -1.26592 0
M  V30 35272 H 3356.99 -1.09823 -3.72654 0
M  V30 35273 H 3358.66 -3.57763 -2.9121 0
M  V30 35274 H 3356.9 -3.40774 -2.68432 0
M  V30 35275 H 3357.57 -3.43905 -4.31779 0
M  V30 35276 H 3360.05 -1.56884 -3.85391 0
M  V30 35277 H 3358.92 -1.65141 -5.23469 0
M  V30 35278 H 3359.18 -0.117552 -4.41944 0
M  V30 35279 N 3358.24 1.26349 -0.942 0
M  V30 35280 C 3359.47 1.98341 -0.606266 0
M  V30 35281 C 3359.89 1.69672 0.811985 0
M  V30 35282 O 3359.25 0.945228 1.5471 0
M  V30 35283 C 3359.3 3.50295 -0.855926 0
M  V30 35284 O 3358.4 4.12338 0.0715526 0
M  V30 35285 H 3357.74 0.622216 -0.231826 0
M  V30 35286 H 3360.27 1.60795 -1.26516 0
M  V30 35287 H 3360.28 4.0053 -0.777149 0
M  V30 35288 H 3358.96 3.70492 -1.88967 0
M  V30 35289 H 3357.54 3.72854 -0.0583521 0
M  V30 35290 N 3359.72 0.709115 1.40746 0
M  V30 35291 C 3360.96 0.25018 2.02863 0
M  V30 35292 C 3361.33 -1.13317 1.54995 0
M  V30 35293 O 3362.53 -1.68872 2.09131 0
M  V30 35294 C 3360.8 0.320176 3.55963 0
M  V30 35295 S 3362.36 -0.0627236 4.38755 0
M  V30 35296 H 3359.17 0.0997116 0.703973 0
M  V30 35297 H 3361.78 0.9299 1.71968 0
M  V30 35298 H 3360.48 1.32873 3.88295 0
M  V30 35299 H 3360.01 -0.378239 3.91577 0
M  V30 35300 H 3362.03 -1.28663 4.79229 0
M  V30 35301 N 3361.2 -1.50894 0.454829 0
M  V30 35302 C 3362.13 -2.31042 -0.337941 0
M  V30 35303 C 3363.11 -1.37221 -1.00521 0
M  V30 35304 O 3364.3 -1.66142 -1.0055 0
M  V30 35305 C 3361.43 -3.16513 -1.42958 0
M  V30 35306 C 3360.38 -4.18754 -0.884833 0
M  V30 35307 C 3359.71 -4.92857 -2.07354 0
M  V30 35308 C 3361.01 -5.22218 0.0927634 0
M  V30 35309 H 3362.7 -2.97565 0.330942 0
M  V30 35310 H 3360.25 -1.43102 0.160602 0
M  V30 35311 H 3362.2 -3.7137 -1.99154 0
M  V30 35312 H 3360.92 -2.47843 -2.127 0
M  V30 35313 H 3359.58 -3.64973 -0.344967 0
M  V30 35314 H 3359.23 -4.20675 -2.75756 0
M  V30 35315 H 3358.93 -5.62005 -1.71535 0
M  V30 35316 H 3360.45 -5.50544 -2.64071 0
M  V30 35317 H 3361.87 -5.72043 -0.379468 0
M  V30 35318 H 3360.26 -5.98993 0.364405 0
M  V30 35319 H 3361.33 -4.73966 1.02391 0
M  V30 35320 N 3362.68 -0.186817 -1.56489 0
M  V30 35321 C 3363.95 0.501304 -1.89067 0
M  V30 35322 C 3364.33 1.80231 -1.0991 0
M  V30 35323 O 3363.68 2.27643 -0.197666 0
M  V30 35324 C 3363.89 0.728147 -3.4132 0
M  V30 35325 C 3365.24 1.05123 -4.11381 0
M  V30 35326 O 3366.26 0.816155 -3.46724 0
M  V30 35327 O 3365.12 1.49548 -5.2564 0
M  V30 35328 H 3362.22 0.26029 -0.78497 0
M  V30 35329 H 3364.76 -0.226412 -1.68183 0
M  V30 35330 H 3363.54 -0.190948 -3.90834 0
M  V30 35331 H 3363.16 1.50862 -3.67867 0
M  V30 35332 N 3364.16 1.57361 0.0868344 0
M  V30 35333 C 3365.38 1.91099 0.805983 0
M  V30 35334 C 3365.81 0.78186 1.71081 0
M  V30 35335 O 3365.16 -0.266143 1.79336 0
M  V30 35336 C 3365.21 3.23734 1.58835 0
M  V30 35337 O 3364.32 3.11907 2.69793 0
M  V30 35338 H 3363.66 0.626182 0.220888 0
M  V30 35339 H 3366.19 2.04513 0.0595831 0
M  V30 35340 H 3366.2 3.57244 1.97081 0
M  V30 35341 H 3364.87 4.05498 0.924355 0
M  V30 35342 H 3363.45 2.89927 2.34513 0
M  V30 35343 N 3365.63 -0.357865 1.53483 0
M  V30 35344 C 3366.88 -1.09751 1.69703 0
M  V30 35345 C 3367.2 -1.89607 0.455422 0
M  V30 35346 O 3366.47 -1.88578 -0.53059 0
M  V30 35347 H 3365.05 -0.408167 0.625627 0
M  V30 35348 H 3367.71 -0.402608 1.90696 0
M  V30 35349 H 3366.81 -1.78298 2.56157 0
M  V30 35350 N 3367.11 -1.44974 -0.618094 0
M  V30 35351 C 3368.34 -1.52174 -1.40918 0
M  V30 35352 C 3368.76 -0.151788 -1.87487 0
M  V30 35353 O 3368.12 0.861578 -1.5952 0
M  V30 35354 C 3368.17 -2.50192 -2.59685 0
M  V30 35355 O 3367.27 -2.01246 -3.59963 0
M  V30 35356 H 3366.61 -0.513367 -0.421129 0
M  V30 35357 H 3369.14 -1.90231 -0.753225 0
M  V30 35358 H 3369.15 -2.68655 -3.07064 0
M  V30 35359 H 3367.83 -3.49694 -2.25137 0
M  V30 35360 H 3366.4 -1.92611 -3.19305 0
M  V30 35361 N 3368.59 0.85967 -1.32089 0
M  V30 35362 C 3369.52 1.97426 -1.16429 0
M  V30 35363 C 3370.53 1.62489 -0.10061 0
M  V30 35364 O 3371.72 1.75053 -0.349094 0
M  V30 35365 C 3368.82 3.30294 -0.75888 0
M  V30 35366 C 3368 3.93505 -1.90978 0
M  V30 35367 C 3367.06 5.04701 -1.48874 0
M  V30 35368 O 3366.08 5.24966 -2.19999 0
M  V30 35369 N 3367.28 5.79242 -0.381922 0
M  V30 35370 H 3370.05 2.11402 -2.12437 0
M  V30 35371 H 3367.61 1.03424 -1.24559 0
M  V30 35372 H 3369.6 4.0208 -0.459714 0
M  V30 35373 H 3368.17 3.12407 0.109889 0
M  V30 35374 H 3367.39 3.14569 -2.37571 0
M  V30 35375 H 3368.68 4.32472 -2.68039 0
M  V30 35376 H 3368.08 5.65309 0.210169 0
M  V30 35377 H 3366.63 6.51645 -0.142338 0
M  V30 35378 N 3370.07 1.15217 1.0753 0
M  V30 35379 C 3371.48 0.935596 1.61566 0
M  V30 35380 C 3371.83 -0.523524 1.89086 0
M  V30 35381 O 3370.95 -1.39426 1.65497 0
M  V30 35382 C 3371.55 1.69194 2.93528 0
M  V30 35383 C 3370.11 1.52069 3.44314 0
M  V30 35384 C 3369.26 1.70869 2.18401 0
M  V30 35385 H 3372.21 1.30269 0.906408 0
M  V30 35386 H 3372.23 1.16037 3.62375 0
M  V30 35387 H 3371.74 2.75386 2.73467 0
M  V30 35388 H 3369.84 0.482632 3.69461 0
M  V30 35389 H 3369.95 2.29649 4.20474 0
M  V30 35390 H 3368.32 1.13506 2.2801 0
M  V30 35391 H 3369.1 2.78424 2.00836 0
M  V30 35392 N 3371.55 -1.25848 0.948687 0
M  V30 35393 C 3372.5 -2.23812 0.434968 0
M  V30 35394 C 3373.48 -1.53806 -0.47249 0
M  V30 35395 O 3374.67 -1.74326 -0.306512 0
M  V30 35396 C 3371.8 -3.42059 -0.291618 0
M  V30 35397 C 3370.89 -4.19341 0.633566 0
M  V30 35398 N 3371.28 -4.74094 1.76263 0
M  V30 35399 C 3369.58 -4.43818 0.440607 0
M  V30 35400 C 3370.28 -5.32569 2.33978 0
M  V30 35401 N 3369.25 -5.18682 1.62696 0
M  V30 35402 H 3373.06 -2.63746 1.29673 0
M  V30 35403 H 3370.57 -1.41018 0.805456 0
M  V30 35404 H 3372.57 -4.11371 -0.676739 0
M  V30 35405 H 3371.23 -3.03651 -1.15006 0
M  V30 35406 H 3372.24 -4.71409 2.14462 0
M  V30 35407 H 3368.91 -4.15808 -0.375442 0
M  V30 35408 H 3370.3 -5.85756 3.2915 0
M  V30 35409 N 3373.02 -0.716569 -1.40368 0
M  V30 35410 C 3373.95 -0.0793944 -2.33365 0
M  V30 35411 C 3374.94 0.744455 -1.52944 0
M  V30 35412 O 3376.12 0.69318 -1.81407 0
M  V30 35413 C 3373.25 0.84237 -3.36929 0
M  V30 35414 C 3372.2 0.124067 -4.2782 0
M  V30 35415 C 3371.53 1.16161 -5.2193 0
M  V30 35416 C 3372.83 -1.02233 -5.12197 0
M  V30 35417 H 3374.52 -0.856165 -2.86897 0
M  V30 35418 H 3372.07 -0.413162 -1.37946 0
M  V30 35419 H 3374.02 1.29752 -4.00927 0
M  V30 35420 H 3372.75 1.65105 -2.81794 0
M  V30 35421 H 3371.41 -0.311266 -3.65276 0
M  V30 35422 H 3371.05 1.96337 -4.63099 0
M  V30 35423 H 3370.75 0.685875 -5.83583 0
M  V30 35424 H 3372.28 1.61684 -5.88804 0
M  V30 35425 H 3373.69 -0.646499 -5.69643 0
M  V30 35426 H 3372.09 -1.4265 -5.82899 0
M  V30 35427 H 3373.16 -1.85254 -4.48117 0
M  V30 35428 N 3374.5 1.50651 -0.462825 0
M  V30 35429 C 3375.75 2.01877 0.0948213 0
M  V30 35430 C 3376.07 1.34744 1.40958 0
M  V30 35431 O 3375.34 0.490093 1.89671 0
M  V30 35432 H 3373.92 0.746031 0.0380322 0
M  V30 35433 H 3376.58 1.85063 -0.61136 0
M  V30 35434 H 3375.68 3.11078 0.252323 0
M  V30 35435 N 3375.98 0.195113 1.56388 0
M  V30 35436 C 3377.21 -0.449253 2.01964 0
M  V30 35437 C 3377.62 -1.5519 1.07525 0
M  V30 35438 O 3376.98 -1.82324 0.0801235 0
M  V30 35439 C 3377.03 -1.00555 3.47233 0
M  V30 35440 O 3376.75 0.0531011 4.38068 0
M  V30 35441 C 3378.25 -1.7258 4.08327 0
M  V30 35442 H 3375.47 -0.11278 0.661454 0
M  V30 35443 H 3378.02 0.303824 2.0223 0
M  V30 35444 H 3376.17 -1.70901 3.47666 0
M  V30 35445 H 3376.59 -0.360984 5.23256 0
M  V30 35446 H 3378.06 -2.06735 5.11825 0
M  V30 35447 H 3378.54 -2.6295 3.51787 0
M  V30 35448 H 3379.14 -1.06819 4.11667 0
M  V30 35449 N 3377.46 -1.57404 -0.0784879 0
M  V30 35450 C 3378.74 -1.77971 -0.811526 0
M  V30 35451 C 3379.12 -0.781001 -1.96121 0
M  V30 35452 O 3378.46 0.18722 -2.27732 0
M  V30 35453 C 3378.67 -3.24256 -1.2907 0
M  V30 35454 C 3380.02 -3.87901 -1.72678 0
M  V30 35455 O 3381.05 -3.28107 -1.38653 0
M  V30 35456 O 3379.9 -4.93083 -2.35651 0
M  V30 35457 H 3377 -0.730147 -0.388348 0
M  V30 35458 H 3379.54 -1.69597 -0.059082 0
M  V30 35459 H 3378.32 -3.88494 -0.467745 0
M  V30 35460 H 3377.94 -3.37328 -2.10466 0
M  V30 35461 N 3378.94 0.34972 -1.53671 0
M  V30 35462 C 3380.35 0.925676 -1.62136 0
M  V30 35463 C 3380.7 1.89755 -0.498759 0
M  V30 35464 O 3379.82 2.13171 0.372443 0
M  V30 35465 C 3380.42 1.68568 -2.93888 0
M  V30 35466 C 3378.98 2.21074 -3.04636 0
M  V30 35467 C 3378.12 1.02796 -2.57543 0
M  V30 35468 H 3381.08 0.128037 -1.58183 0
M  V30 35469 H 3381.1 2.5481 -2.82581 0
M  V30 35470 H 3380.61 0.978087 -3.75573 0
M  V30 35471 H 3378.71 2.95028 -2.27572 0
M  V30 35472 H 3378.82 2.47868 -4.09998 0
M  V30 35473 H 3377.19 1.39958 -2.128 0
M  V30 35474 H 3377.97 0.335097 -3.41661 0
M  V30 35475 N 3380.41 1.45299 0.610397 0
M  V30 35476 C 3381.64 1.52919 1.40109 0
M  V30 35477 C 3382.06 0.161729 1.87403 0
M  V30 35478 O 3381.42 -0.853107 1.59974 0
M  V30 35479 C 3381.47 2.51566 2.58354 0
M  V30 35480 O 3380.57 2.03152 3.58891 0
M  V30 35481 H 3379.92 0.515594 0.418401 0
M  V30 35482 H 3382.45 1.90627 0.743126 0
M  V30 35483 H 3382.46 2.7028 3.05635 0
M  V30 35484 H 3381.13 3.50883 2.2328 0
M  V30 35485 H 3379.71 1.94301 3.18279 0
M  V30 35486 N 3381.89 -0.852653 1.32543 0
M  V30 35487 C 3382.84 -1.9828 1.21605 0
M  V30 35488 C 3383.83 -1.68971 0.120414 0
M  V30 35489 O 3385.04 -1.77754 0.283472 0
M  V30 35490 H 3381.42 -0.65067 0.377005 0
M  V30 35491 H 3383.39 -2.04632 2.17183 0
M  V30 35492 C 3382.14 -3.34241 0.958024 0
M  V30 35493 H 3381.46 -3.57324 1.7933 0
M  V30 35494 H 3382.9 -4.1386 0.921746 0
M  V30 35495 C 3381.36 -3.35188 -0.339212 0
M  V30 35496 O 3381.89 -3.7832 -1.35043 0
M  V30 35497 N 3380.09 -2.88338 -0.361893 0
M  V30 35498 H 3379.64 -2.53432 0.461542 0
M  V30 35499 H 3379.6 -2.89354 -1.22971 0
M  V30 35500 N 3383.37 -1.15786 -1.06918 0
M  V30 35501 C 3384.3 -0.881687 -2.16214 0
M  V30 35502 C 3385.28 0.16948 -1.69254 0
M  V30 35503 O 3386.47 0.0229169 -1.94186 0
M  V30 35504 C 3383.6 -0.375042 -3.45269 0
M  V30 35505 C 3382.55 -1.36339 -4.05704 0
M  V30 35506 C 3381.88 -0.71541 -5.29892 0
M  V30 35507 C 3383.18 -2.73088 -4.45219 0
M  V30 35508 H 3384.87 -1.79568 -2.39574 0
M  V30 35509 H 3382.42 -0.864804 -1.1514 0
M  V30 35510 H 3384.37 -0.169353 -4.2106 0
M  V30 35511 H 3383.09 0.574428 -3.21509 0
M  V30 35512 H 3381.75 -1.55552 -3.31963 0
M  V30 35513 H 3381.4 0.240347 -5.02425 0
M  V30 35514 H 3381.1 -1.37504 -5.71285 0
M  V30 35515 H 3382.62 -0.519596 -6.08385 0
M  V30 35516 H 3384.04 -2.57695 -5.12119 0
M  V30 35517 H 3382.44 -3.35466 -4.97577 0
M  V30 35518 H 3383.51 -3.28819 -3.56379 0
M  V30 35519 N 3384.85 1.25343 -0.955348 0
M  V30 35520 C 3386.1 1.92696 -0.609312 0
M  V30 35521 C 3386.42 1.75183 0.856504 0
M  V30 35522 O 3385.69 1.1159 1.61011 0
M  V30 35523 H 3384.27 0.713137 -0.222363 0
M  V30 35524 H 3386.93 1.52493 -1.21374 0
M  V30 35525 H 3386.03 3.00604 -0.839251 0
M  V30 35526 N 3386.33 0.724003 1.39986 0
M  V30 35527 C 3387.58 0.266622 2.00334 0
M  V30 35528 C 3387.9 -1.14676 1.57716 0
M  V30 35529 O 3387.17 -1.77894 0.820402 0
M  V30 35530 H 3385.75 0.095586 0.740859 0
M  V30 35531 H 3388.41 0.931511 1.71198 0
M  V30 35532 H 3387.5 0.306337 3.10593 0
M  V30 35533 N 3387.81 -1.50403 0.470808 0
M  V30 35534 C 3388.74 -2.26358 -0.359798 0
M  V30 35535 C 3389.75 -1.31678 -0.957327 0
M  V30 35536 O 3390.94 -1.5719 -0.845782 0
M  V30 35537 C 3388.04 -3.02972 -1.51859 0
M  V30 35538 C 3387.21 -4.25005 -1.0339 0
M  V30 35539 C 3386.27 -4.83915 -2.06671 0
M  V30 35540 O 3385.3 -5.44838 -1.64744 0
M  V30 35541 N 3386.5 -4.70889 -3.39476 0
M  V30 35542 H 3389.26 -2.9828 0.291351 0
M  V30 35543 H 3386.83 -1.59066 0.301577 0
M  V30 35544 H 3388.82 -3.39261 -2.20644 0
M  V30 35545 H 3387.39 -2.3385 -2.07444 0
M  V30 35546 H 3386.61 -3.93825 -0.171943 0
M  V30 35547 H 3387.9 -5.04127 -0.687982 0
M  V30 35548 H 3387.29 -4.22437 -3.76249 0
M  V30 35549 H 3385.85 -5.11448 -4.04059 0
M  V30 35550 N 3389.28 -0.203404 -1.56282 0
M  V30 35551 C 3390.69 0.307719 -1.84147 0
M  V30 35552 C 3391.05 1.6079 -1.12432 0
M  V30 35553 O 3390.17 2.12895 -0.38789 0
M  V30 35554 C 3390.77 0.565093 -3.34054 0
M  V30 35555 C 3389.32 1.02057 -3.623 0
M  V30 35556 C 3388.47 0.0736856 -2.77202 0
M  V30 35557 H 3391.42 -0.42701 -1.52847 0
M  V30 35558 H 3391.44 1.41339 -3.53276 0
M  V30 35559 H 3390.96 -0.381368 -3.86222 0
M  V30 35560 H 3389.06 1.98102 -3.15573 0
M  V30 35561 H 3389.17 0.907531 -4.70426 0
M  V30 35562 H 3387.53 0.577126 -2.48075 0
M  V30 35563 H 3388.32 -0.867368 -3.32162 0
M  V30 35564 N 3390.76 1.57444 0.0701393 0
M  V30 35565 C 3391.69 2.06841 1.08347 0
M  V30 35566 C 3392.67 0.962249 1.40267 0
M  V30 35567 O 3393.86 1.23507 1.49865 0
M  V30 35568 C 3390.99 2.51372 2.39645 0
M  V30 35569 C 3389.94 3.65879 2.22073 0
M  V30 35570 C 3389.27 3.96471 3.58769 0
M  V30 35571 C 3390.57 4.95865 1.6406 0
M  V30 35572 H 3392.26 2.91752 0.672414 0
M  V30 35573 H 3389.81 1.40354 0.322002 0
M  V30 35574 H 3391.76 2.84542 3.10828 0
M  V30 35575 H 3390.48 1.63492 2.82733 0
M  V30 35576 H 3389.14 3.32994 1.53331 0
M  V30 35577 H 3388.79 3.05719 3.9943 0
M  V30 35578 H 3388.49 4.73576 3.4785 0
M  V30 35579 H 3390.02 4.32139 4.3138 0
M  V30 35580 H 3391.43 5.27255 2.25111 0
M  V30 35581 H 3389.83 5.77303 1.63833 0
M  V30 35582 H 3390.9 4.81146 0.602235 0
M  V30 35583 N 3392.24 -0.341566 1.53854 0
M  V30 35584 C 3393.49 -1.07945 1.70857 0
M  V30 35585 C 3393.81 -1.89114 0.475507 0
M  V30 35586 O 3393.08 -1.8913 -0.510559 0
M  V30 35587 H 3391.66 -0.401508 0.629921 0
M  V30 35588 H 3394.32 -0.382359 1.91113 0
M  V30 35589 H 3393.42 -1.75571 2.58033 0
M  V30 35590 N 3393.72 -1.45621 -0.602683 0
M  V30 35591 C 3394.97 -1.49597 -1.35886 0
M  V30 35592 C 3395.29 -0.141037 -1.94489 0
M  V30 35593 O 3394.56 0.830178 -1.7744 0
M  V30 35594 H 3393.14 -0.550927 -0.504469 0
M  V30 35595 H 3395.8 -1.81611 -0.707344 0
M  V30 35596 H 3394.89 -2.23754 -2.17579 0
M  V30 35597 N 3395.2 0.845612 -1.32993 0
M  V30 35598 C 3396.61 1.41654 -1.21619 0
M  V30 35599 C 3396.96 1.95482 0.167652 0
M  V30 35600 O 3396.08 1.88272 1.06689 0
M  V30 35601 C 3396.68 2.57496 -2.20184 0
M  V30 35602 C 3395.24 3.10562 -2.1267 0
M  V30 35603 C 3394.38 1.83337 -2.08045 0
M  V30 35604 H 3397.33 0.651967 -1.4469 0
M  V30 35605 H 3397.36 3.34928 -1.80564 0
M  V30 35606 H 3396.87 2.18288 -3.20892 0
M  V30 35607 H 3394.97 3.54331 -1.15241 0
M  V30 35608 H 3395.08 3.71192 -3.02908 0
M  V30 35609 H 3393.45 2.03309 -1.53419 0
M  V30 35610 H 3394.23 1.46334 -3.1055 0
M  V30 35611 N 3396.67 1.16351 1.06302 0
M  V30 35612 C 3397.92 0.943105 1.78745 0
M  V30 35613 C 3398.24 -0.53045 1.87647 0
M  V30 35614 O 3397.51 -1.38536 1.38508 0
M  V30 35615 H 3396.09 0.345944 0.662066 0
M  V30 35616 H 3398.75 1.46618 1.28411 0
M  V30 35617 H 3397.85 1.36175 2.80825 0
M  V30 35618 N 3398.15 -1.24835 0.961982 0
M  V30 35619 C 3399.38 -1.97351 0.637743 0
M  V30 35620 C 3399.8 -1.70942 -0.784889 0
M  V30 35621 O 3399.16 -0.969721 -1.53186 0
M  V30 35622 C 3399.21 -3.48889 0.911546 0
M  V30 35623 O 3398.31 -4.124 -0.00594419 0
M  V30 35624 H 3397.65 -0.618449 0.241696 0
M  V30 35625 H 3400.18 -1.58762 1.29058 0
M  V30 35626 H 3400.19 -3.99243 0.840772 0
M  V30 35627 H 3398.87 -3.67439 1.94837 0
M  V30 35628 H 3397.44 -3.72714 0.117663 0
M  V30 35629 N 3399.63 -0.731417 -1.396 0
M  V30 35630 C 3401.05 -0.406621 -1.54333 0
M  V30 35631 C 3401.25 1.08292 -1.69927 0
M  V30 35632 O 3400.3 1.86903 -1.69774 0
M  V30 35633 C 3401.61 -1.18651 -2.76301 0
M  V30 35634 C 3403.16 -1.17438 -2.90133 0
M  V30 35635 C 3403.64 -1.93676 -4.15034 0
M  V30 35636 N 3405.13 -1.90824 -4.22067 0
M  V30 35637 C 3405.86 -2.46625 -5.17652 0
M  V30 35638 N 3405.36 -3.11048 -6.19048 0
M  V30 35639 N 3407.15 -2.36678 -5.09843 0
M  V30 35640 H 3399.3 -1.69706 -1.27725 0
M  V30 35641 H 3401.57 -0.718197 -0.618787 0
M  V30 35642 H 3401.27 -2.24037 -2.7111 0
M  V30 35643 H 3401.15 -0.788579 -3.68865 0
M  V30 35644 H 3403.53 -0.128667 -2.94819 0
M  V30 35645 H 3403.61 -1.61166 -1.98643 0
M  V30 35646 H 3403.26 -2.98247 -4.1111 0
M  V30 35647 H 3403.19 -1.47357 -5.05562 0
M  V30 35648 H 3405.68 -1.43888 -3.49435 0
M  V30 35649 H 3405.99 -3.51103 -6.88438 0
M  V30 35650 H 3404.34 -3.15137 -6.19446 0
M  V30 35651 H 3407.53 -1.85994 -4.29562 0
M  V30 35652 H 3407.7 -2.80465 -5.8416 0
M  V30 35653 N 3401.11 1.50152 -0.478778 0
M  V30 35654 C 3402.52 1.86683 -0.0255235 0
M  V30 35655 C 3402.87 1.39298 1.38169 0
M  V30 35656 O 3402 0.761243 2.02569 0
M  V30 35657 C 3402.59 3.38777 -0.0395414 0
M  V30 35658 C 3401.15 3.74691 0.358274 0
M  V30 35659 C 3400.3 2.74075 -0.421715 0
M  V30 35660 H 3403.25 1.42785 -0.692678 0
M  V30 35661 H 3403.27 3.72815 0.760891 0
M  V30 35662 H 3402.78 3.73234 -1.06385 0
M  V30 35663 H 3400.88 3.45837 1.38665 0
M  V30 35664 H 3400.99 4.79069 0.0542747 0
M  V30 35665 H 3399.36 2.5439 0.125589 0
M  V30 35666 H 3400.14 3.11376 -1.44568 0
M  V30 35667 N 3402.59 0.211689 1.56172 0
M  V30 35668 C 3403.53 -0.702476 2.1985 0
M  V30 35669 C 3404.5 -1.19761 1.15093 0
M  V30 35670 O 3405.69 -1.2585 1.4341 0
M  V30 35671 C 3402.83 -1.9093 2.87471 0
M  V30 35672 C 3401.94 -1.45398 4.06796 0
M  V30 35673 C 3401.08 -2.6176 4.62228 0
M  V30 35674 C 3400.12 -2.12916 5.73875 0
M  V30 35675 N 3399.25 -3.22515 6.23641 0
M  V30 35676 H 3404.09 -0.152725 2.97608 0
M  V30 35677 H 3401.63 -0.0636338 1.46962 0
M  V30 35678 H 3403.59 -2.61772 3.24856 0
M  V30 35679 H 3402.22 -2.43209 2.12248 0
M  V30 35680 H 3401.27 -0.640842 3.74963 0
M  V30 35681 H 3402.58 -1.05576 4.87499 0
M  V30 35682 H 3401.74 -3.407 5.02005 0
M  V30 35683 H 3400.47 -3.04866 3.80668 0
M  V30 35684 H 3399.48 -1.32436 5.33611 0
M  V30 35685 H 3400.7 -1.70822 6.57265 0
M  V30 35686 H 3398.65 -3.65121 5.44998 0
M  V30 35687 H 3398.57 -2.86914 6.9944 0
M  V30 35688 H 3399.84 -4.01619 6.68073 0
M  V30 35689 N 3404.06 -1.57479 -0.0617887 0
M  V30 35690 C 3405.01 -2.04375 -1.07236 0
M  V30 35691 C 3405.98 -0.926296 -1.37873 0
M  V30 35692 O 3407.17 -1.19466 -1.4877 0
M  V30 35693 C 3404.31 -2.5009 -2.37801 0
M  V30 35694 C 3403.42 -3.75494 -2.13608 0
M  V30 35695 C 3402.55 -4.09951 -3.37807 0
M  V30 35696 C 3401.59 -5.28367 -3.09023 0
M  V30 35697 N 3400.73 -5.58413 -4.25581 0
M  V30 35698 H 3405.57 -2.90474 -0.665485 0
M  V30 35699 H 3403.11 -1.43643 -0.317018 0
M  V30 35700 H 3405.07 -2.7465 -3.14044 0
M  V30 35701 H 3403.7 -1.66953 -2.76272 0
M  V30 35702 H 3402.75 -3.58214 -1.28011 0
M  V30 35703 H 3404.06 -4.61871 -1.88353 0
M  V30 35704 H 3403.21 -4.35465 -4.22439 0
M  V30 35705 H 3401.95 -3.22161 -3.66147 0
M  V30 35706 H 3400.96 -5.02638 -2.22788 0
M  V30 35707 H 3402.18 -6.17783 -2.81995 0
M  V30 35708 H 3400.13 -4.73583 -4.53933 0
M  V30 35709 H 3400.05 -6.3923 -4.03635 0
M  V30 35710 H 3401.31 -5.88485 -5.11181 0
M  V30 35711 N 3405.54 0.333401 -1.54033 0
M  V30 35712 C 3406.49 1.40989 -1.82731 0
M  V30 35713 C 3407.46 1.51824 -0.673704 0
M  V30 35714 O 3408.64 1.67201 -0.919156 0
M  V30 35715 C 3405.78 2.77495 -2.0516 0
M  V30 35716 C 3404.9 2.7537 -3.32859 0
M  V30 35717 C 3404.03 4.03659 -3.45301 0
M  V30 35718 C 3403.07 3.95803 -4.66912 0
M  V30 35719 N 3402.21 5.15802 -4.76332 0
M  V30 35720 H 3407.05 1.15816 -2.74574 0
M  V30 35721 H 3404.59 0.560835 -1.35989 0
M  V30 35722 H 3406.54 3.56838 -2.16154 0
M  V30 35723 H 3405.17 3.00998 -1.1662 0
M  V30 35724 H 3404.23 1.88075 -3.30654 0
M  V30 35725 H 3405.54 2.65446 -4.22303 0
M  V30 35726 H 3404.69 4.9143 -3.55783 0
M  V30 35727 H 3403.43 4.16378 -2.53931 0
M  V30 35728 H 3402.44 3.06417 -4.56496 0
M  V30 35729 H 3403.66 3.84658 -5.59656 0
M  V30 35730 H 3401.61 5.29045 -3.87875 0
M  V30 35731 H 3401.52 5.08174 -5.59728 0
M  V30 35732 H 3402.79 6.05315 -4.91135 0
M  V30 35733 N 3407.02 1.45939 0.594952 0
M  V30 35734 C 3407.95 1.58425 1.71533 0
M  V30 35735 C 3408.93 0.435145 1.6444 0
M  V30 35736 O 3410.12 0.659871 1.82645 0
M  V30 35737 C 3407.25 1.56263 3.1016 0
M  V30 35738 C 3406.2 2.70019 3.32075 0
M  V30 35739 C 3405.53 2.52913 4.71104 0
M  V30 35740 C 3406.83 4.11938 3.21098 0
M  V30 35741 H 3408.52 2.5221 1.6134 0
M  V30 35742 H 3406.07 1.21381 0.774769 0
M  V30 35743 H 3408.02 1.63593 3.88349 0
M  V30 35744 H 3406.74 0.590149 3.21224 0
M  V30 35745 H 3405.4 2.62137 2.56281 0
M  V30 35746 H 3405.05 1.53776 4.78917 0
M  V30 35747 H 3404.75 3.29205 4.86721 0
M  V30 35748 H 3406.27 2.62117 5.51477 0
M  V30 35749 H 3407.69 4.20997 3.89146 0
M  V30 35750 H 3406.09 4.88721 3.48241 0
M  V30 35751 H 3407.16 4.32956 2.18351 0
M  V30 35752 N 3408.5 -0.838547 1.3344 0
M  V30 35753 C 3409.72 -1.63111 1.281 0
M  V30 35754 C 3410.15 -1.87539 -0.145164 0
M  V30 35755 O 3409.51 -1.43973 -1.10189 0
M  V30 35756 C 3409.55 -2.95823 2.06206 0
M  V30 35757 O 3408.66 -3.87149 1.42088 0
M  V30 35758 H 3408 -0.496674 0.440694 0
M  V30 35759 H 3410.53 -1.04322 1.76006 0
M  V30 35760 H 3410.54 -3.45518 2.16983 0
M  V30 35761 H 3409.21 -2.77366 3.09905 0
M  V30 35762 H 3407.79 -3.45638 1.39959 0
M  V30 35763 N 3409.98 -1.16914 -1.05683 0
M  V30 35764 C 3411.39 -0.961182 -1.60057 0
M  V30 35765 C 3411.74 0.493376 -1.89895 0
M  V30 35766 O 3410.86 1.36775 -1.67695 0
M  V30 35767 C 3411.46 -1.73842 -2.908 0
M  V30 35768 C 3410.02 -1.57528 -3.41851 0
M  V30 35769 C 3409.16 -1.74322 -2.15655 0
M  V30 35770 H 3412.12 -1.31694 -0.885568 0
M  V30 35771 H 3412.14 -1.21787 -3.60483 0
M  V30 35772 H 3411.65 -2.79702 -2.69051 0
M  V30 35773 H 3409.75 -0.541349 -3.68646 0
M  V30 35774 H 3409.86 -2.36309 -4.16767 0
M  V30 35775 H 3408.23 -1.17119 -2.26175 0
M  V30 35776 H 3409.01 -2.81584 -1.96381 0
M  V30 35777 N 3411.45 1.24323 -0.968589 0
M  V30 35778 C 3412.87 1.74277 -0.66967 0
M  V30 35779 C 3413.22 1.78491 0.814579 0
M  V30 35780 O 3412.34 1.41493 1.63734 0
M  V30 35781 C 3412.94 3.16498 -1.20891 0
M  V30 35782 C 3411.5 3.63955 -0.959872 0
M  V30 35783 C 3410.64 2.4257 -1.34369 0
M  V30 35784 H 3413.59 1.10013 -1.14381 0
M  V30 35785 H 3413.61 3.76121 -0.575616 0
M  V30 35786 H 3413.13 3.13398 -2.28917 0
M  V30 35787 H 3411.23 3.72453 0.104829 0
M  V30 35788 H 3411.34 4.51375 -1.60614 0
M  V30 35789 H 3409.7 2.43032 -0.762081 0
M  V30 35790 H 3410.49 2.42151 -2.43347 0
M  V30 35791 N 3412.93 0.73881 1.3921 0
M  V30 35792 C 3414.16 0.297457 2.05256 0
M  V30 35793 C 3414.58 -1.06067 1.55343 0
M  V30 35794 O 3413.94 -1.67289 0.698853 0
M  V30 35795 C 3413.99 0.313033 3.59239 0
M  V30 35796 O 3413.09 -0.69804 4.06449 0
M  V30 35797 H 3412.43 0.134465 0.650242 0
M  V30 35798 H 3414.96 1.0058 1.78171 0
M  V30 35799 H 3414.97 0.158746 4.07691 0
M  V30 35800 H 3413.65 1.30401 3.94928 0
M  V30 35801 H 3412.23 -0.509578 3.69402 0
M  V30 35802 N 3414.41 -1.49895 0.486734 0
M  V30 35803 C 3415.66 -2.01597 -0.0645843 0
M  V30 35804 C 3415.97 -1.37251 -1.39361 0
M  V30 35805 O 3417.18 -1.80198 -2.03079 0
M  V30 35806 C 3415.63 -3.59519 -0.165587 0
M  V30 35807 C 3415.24 -4.3283 1.15594 0
M  V30 35808 C 3416.99 -4.19211 -0.66803 0
M  V30 35809 C 3414.89 -5.82575 1.01788 0
M  V30 35810 H 3413.82 -0.753483 -0.0279108 0
M  V30 35811 H 3416.47 -1.72564 0.623999 0
M  V30 35812 H 3414.86 -3.85205 -0.918305 0
M  V30 35813 H 3416.03 -4.18856 1.92083 0
M  V30 35814 H 3414.35 -3.84819 1.59071 0
M  V30 35815 H 3416.94 -5.28853 -0.788605 0
M  V30 35816 H 3417.29 -3.81627 -1.66332 0
M  V30 35817 H 3417.82 -3.9779 0.0277446 0
M  V30 35818 H 3414.56 -6.24658 1.98701 0
M  V30 35819 H 3414.08 -5.99081 0.293632 0
M  V30 35820 H 3415.76 -6.43302 0.690806 0
M  V30 35821 N 3415.89 -0.219968 -1.56057 0
M  V30 35822 C 3417.12 0.417066 -2.02653 0
M  V30 35823 C 3417.53 1.5346 -1.0998 0
M  V30 35824 O 3416.89 1.82173 -0.10912 0
M  V30 35825 C 3416.94 0.950183 -3.48789 0
M  V30 35826 O 3416.66 -0.122787 -4.37928 0
M  V30 35827 C 3418.16 1.66062 -4.11021 0
M  V30 35828 H 3415.38 0.102242 -0.663165 0
M  V30 35829 H 3417.93 -0.335958 -2.01722 0
M  V30 35830 H 3416.08 1.65349 -3.50341 0
M  V30 35831 H 3416.5 0.277693 -5.23764 0
M  V30 35832 H 3417.97 1.98566 -5.15049 0
M  V30 35833 H 3418.45 2.5732 -3.55926 0
M  V30 35834 H 3419.05 1.00256 -4.13315 0
M  V30 35835 N 3417.37 1.57509 0.0534363 0
M  V30 35836 C 3418.62 1.87318 0.747983 0
M  V30 35837 C 3418.93 0.815192 1.77803 0
M  V30 35838 O 3420.14 1.00171 2.52345 0
M  V30 35839 C 3418.59 3.32337 1.38131 0
M  V30 35840 C 3418.2 4.46309 0.388879 0
M  V30 35841 C 3419.94 3.71324 2.05715 0
M  V30 35842 C 3417.85 5.82376 1.02917 0
M  V30 35843 H 3416.78 0.698831 0.283111 0
M  V30 35844 H 3419.43 1.835 0.00167497 0
M  V30 35845 H 3417.81 3.30823 2.17651 0
M  V30 35846 H 3418.99 4.59248 -0.377833 0
M  V30 35847 H 3417.3 4.15995 -0.18352 0
M  V30 35848 H 3419.9 4.70287 2.54429 0
M  V30 35849 H 3420.24 3.02061 2.8647 0
M  V30 35850 H 3420.78 3.74907 1.33003 0
M  V30 35851 H 3417.51 6.54978 0.261559 0
M  V30 35852 H 3417.03 5.73203 1.7663 0
M  V30 35853 H 3418.71 6.28315 1.54367 0
M  V30 35854 N 3418.85 -0.325228 1.54208 0
M  V30 35855 C 3420.12 -1.0815 1.62982 0
M  V30 35856 C 3420.5 -2.05969 0.462619 0
M  V30 35857 O 3419.85 -2.21947 -0.543284 0
M  V30 35858 C 3420.06 -1.78492 2.99903 0
M  V30 35859 C 3421.41 -2.31573 3.55892 0
M  V30 35860 O 3422.43 -1.88561 3.02197 0
M  V30 35861 O 3421.29 -3.10314 4.49853 0
M  V30 35862 H 3418.39 -0.498417 0.659931 0
M  V30 35863 H 3420.93 -0.325252 1.66554 0
M  V30 35864 H 3419.7 -1.07332 3.76292 0
M  V30 35865 H 3419.33 -2.60931 3.00002 0
M  V30 35866 N 3420.32 -1.46252 -0.587204 0
M  V30 35867 C 3421.73 -1.45548 -1.16931 0
M  V30 35868 C 3422.09 -0.193913 -1.95239 0
M  V30 35869 O 3421.21 0.703284 -2.04653 0
M  V30 35870 C 3421.81 -2.63697 -2.12719 0
M  V30 35871 C 3420.36 -2.66048 -2.66262 0
M  V30 35872 C 3419.51 -2.38156 -1.42046 0
M  V30 35873 H 3422.46 -1.54196 -0.375384 0
M  V30 35874 H 3422.48 -2.38959 -2.96106 0
M  V30 35875 H 3422 -3.555 -1.55696 0
M  V30 35876 H 3420.1 -1.78306 -3.27166 0
M  V30 35877 H 3420.21 -3.6588 -3.09304 0
M  V30 35878 H 3418.57 -1.88122 -1.71704 0
M  V30 35879 H 3419.36 -3.32129 -0.868616 0
M  V30 35880 N 3421.8 0.831459 -1.33883 0
M  V30 35881 C 3423.21 1.40356 -1.23114 0
M  V30 35882 C 3423.56 1.95649 0.146909 0
M  V30 35883 O 3422.69 1.89393 1.04686 0
M  V30 35884 C 3423.28 2.55146 -2.22903 0
M  V30 35885 C 3421.84 3.08288 -2.15952 0
M  V30 35886 C 3420.99 1.8112 -2.09978 0
M  V30 35887 H 3423.94 0.636584 -1.45373 0
M  V30 35888 H 3423.96 3.32994 -1.84106 0
M  V30 35889 H 3423.47 2.14872 -3.23189 0
M  V30 35890 H 3421.57 3.53088 -1.18993 0
M  V30 35891 H 3421.69 3.67958 -3.06828 0
M  V30 35892 H 3420.05 2.0167 -1.55567 0
M  V30 35893 H 3420.83 1.43032 -3.12085 0
M  V30 35894 N 3423.28 1.17472 1.05062 0
M  V30 35895 C 3424.19 0.907324 2.16344 0
M  V30 35896 C 3425.21 -0.124983 1.73551 0
M  V30 35897 O 3426.38 0.0545905 2.01326 0
M  V30 35898 C 3423.45 0.425741 3.44076 0
M  V30 35899 C 3422.51 1.5248 4.01308 0
M  V30 35900 C 3421.74 1.0661 5.22944 0
M  V30 35901 O 3421.96 -0.0792326 5.70345 0
M  V30 35902 O 3420.9 1.85968 5.7245 0
M  V30 35903 H 3424.72 1.83821 2.41751 0
M  V30 35904 H 3422.31 0.955713 1.14832 0
M  V30 35905 H 3424.19 0.164763 4.21078 0
M  V30 35906 H 3422.87 -0.47698 3.20166 0
M  V30 35907 H 3421.77 1.83967 3.25741 0
M  V30 35908 H 3423.11 2.40328 4.29539 0
M  V30 35909 N 3424.76 -1.23807 0.975168 0
M  V30 35910 C 3425.98 -1.96664 0.658639 0
M  V30 35911 C 3426.41 -1.71765 -0.766714 0
M  V30 35912 O 3425.77 -0.985914 -1.52149 0
M  V30 35913 C 3425.81 -3.47902 0.948499 0
M  V30 35914 O 3424.92 -4.12383 0.0377966 0
M  V30 35915 H 3424.26 -0.615851 0.248242 0
M  V30 35916 H 3426.79 -1.57384 1.30734 0
M  V30 35917 H 3426.8 -3.98329 0.88307 0
M  V30 35918 H 3425.47 -3.65352 1.98723 0
M  V30 35919 H 3424.05 -3.72569 0.157187 0
M  V30 35920 N 3426.24 -0.746182 -1.38816 0
M  V30 35921 C 3427.17 -0.0738389 -2.29081 0
M  V30 35922 C 3428.18 0.69163 -1.47378 0
M  V30 35923 O 3429.37 0.533943 -1.70327 0
M  V30 35924 C 3426.47 0.91955 -3.26186 0
M  V30 35925 C 3425.64 0.213273 -4.3688 0
M  V30 35926 C 3424.7 1.11635 -5.14222 0
M  V30 35927 O 3423.73 0.589647 -5.66138 0
M  V30 35928 N 3424.93 2.44512 -5.26492 0
M  V30 35929 H 3427.69 -0.849016 -2.87423 0
M  V30 35930 H 3425.26 -0.59634 -1.50517 0
M  V30 35931 H 3427.25 1.52656 -3.74804 0
M  V30 35932 H 3425.82 1.59586 -2.68796 0
M  V30 35933 H 3425.04 -0.574353 -3.89993 0
M  V30 35934 H 3426.33 -0.275744 -5.08052 0
M  V30 35935 H 3425.72 2.89768 -4.85851 0
M  V30 35936 H 3424.28 3.00281 -5.78511 0
M  V30 35937 N 3427.71 1.49635 -0.494676 0
M  V30 35938 C 3428.96 2.02033 0.0519788 0
M  V30 35939 C 3429.28 1.37703 1.38068 0
M  V30 35940 O 3428.55 0.530215 1.88588 0
M  V30 35941 H 3427.13 0.74667 0.0221992 0
M  V30 35942 H 3429.79 1.83725 -0.650477 0
M  V30 35943 H 3428.89 3.11544 0.186282 0
M  V30 35944 N 3429.19 0.228241 1.55939 0
M  V30 35945 C 3430.6 -0.278384 1.84613 0
M  V30 35946 C 3430.95 -1.58981 1.14976 0
M  V30 35947 O 3430.08 -2.12251 0.421711 0
M  V30 35948 C 3430.67 -0.511876 3.34911 0
M  V30 35949 C 3429.23 -0.962797 3.63878 0
M  V30 35950 C 3428.38 -0.0295758 2.77284 0
M  V30 35951 H 3431.33 0.451272 1.52149 0
M  V30 35952 H 3431.35 -1.357 3.55479 0
M  V30 35953 H 3430.86 0.442765 3.85566 0
M  V30 35954 H 3428.96 -1.93056 3.18685 0
M  V30 35955 H 3429.08 -0.832576 4.7181 0
M  V30 35956 H 3427.44 -0.537586 2.48962 0
M  V30 35957 H 3428.22 0.920102 3.3074 0
M  V30 35958 N 3430.67 -1.57536 -0.0450825 0
M  V30 35959 C 3432.09 -1.54495 -0.400436 0
M  V30 35960 C 3432.29 -0.952197 -1.77582 0
M  V30 35961 O 3431.34 -0.566264 -2.46068 0
M  V30 35962 C 3432.66 -2.99025 -0.316978 0
M  V30 35963 C 3434.2 -3.10495 -0.39523 0
M  V30 35964 C 3434.68 -4.56726 -0.341395 0
M  V30 35965 N 3436.17 -4.61464 -0.400674 0
M  V30 35966 C 3436.9 -5.72128 -0.381657 0
M  V30 35967 N 3436.4 -6.9208 -0.315873 0
M  V30 35968 N 3438.19 -5.60451 -0.430201 0
M  V30 35969 H 3430.34 -1.94423 0.855191 0
M  V30 35970 H 3432.61 -0.891047 0.323633 0
M  V30 35971 H 3432.31 -3.46056 0.627538 0
M  V30 35972 H 3432.19 -3.60285 -1.1169 0
M  V30 35973 H 3434.57 -2.63421 -1.33017 0
M  V30 35974 H 3434.66 -2.52096 0.433753 0
M  V30 35975 H 3434.3 -5.04464 0.589813 0
M  V30 35976 H 3434.23 -5.13018 -1.18827 0
M  V30 35977 H 3436.72 -3.75155 -0.454679 0
M  V30 35978 H 3437.03 -7.72194 -0.306022 0
M  V30 35979 H 3435.38 -6.94427 -0.282159 0
M  V30 35980 H 3438.57 -4.65638 -0.479473 0
M  V30 35981 H 3438.74 -6.46689 -0.411912 0
M  V30 35982 N 3432.15 0.317045 -1.54378 0
M  V30 35983 C 3433.38 1.07359 -1.76866 0
M  V30 35984 C 3433.79 1.81487 -0.520386 0
M  V30 35985 O 3433.15 1.75253 0.509182 0
M  V30 35986 C 3433.2 2.06663 -2.96602 0
M  V30 35987 O 3432.92 1.35544 -4.16604 0
M  V30 35988 C 3434.42 2.94483 -3.31353 0
M  V30 35989 H 3431.64 0.319073 -0.590283 0
M  V30 35990 H 3434.19 0.361192 -2.01285 0
M  V30 35991 H 3432.34 2.73427 -2.74438 0
M  V30 35992 H 3432.75 2.021 -4.84 0
M  V30 35993 H 3434.23 3.60044 -4.18417 0
M  V30 35994 H 3434.71 3.6193 -2.48803 0
M  V30 35995 H 3435.31 2.33271 -3.55619 0
M  V30 35996 N 3433.63 1.46561 0.57944 0
M  V30 35997 C 3435.04 1.46166 1.16157 0
M  V30 35998 C 3435.39 0.204265 1.95134 0
M  V30 35999 O 3434.51 -0.692421 2.05023 0
M  V30 36000 C 3435.11 2.64821 2.11317 0
M  V30 36001 C 3433.67 2.67456 2.64847 0
M  V30 36002 C 3432.81 2.38906 1.40781 0
M  V30 36003 H 3435.77 1.54393 0.367201 0
M  V30 36004 H 3435.79 2.40526 2.94835 0
M  V30 36005 H 3435.3 3.56321 1.53809 0
M  V30 36006 H 3433.4 1.80038 3.26216 0
M  V30 36007 H 3433.51 3.67515 3.07359 0
M  V30 36008 H 3431.88 1.8903 1.70703 0
M  V30 36009 H 3432.66 3.32585 0.85099 0
M  V30 36010 N 3435.1 -0.824347 1.34322 0
M  V30 36011 C 3436.52 -1.39701 1.23857 0
M  V30 36012 C 3436.87 -1.95724 -0.136532 0
M  V30 36013 O 3435.99 -1.89946 -1.0368 0
M  V30 36014 C 3436.59 -2.53961 2.24253 0
M  V30 36015 C 3435.15 -3.07139 2.17584 0
M  V30 36016 C 3434.29 -1.80004 2.10936 0
M  V30 36017 H 3437.24 -0.628866 1.45709 0
M  V30 36018 H 3437.26 -3.32013 1.8587 0
M  V30 36019 H 3436.78 -2.13156 3.24324 0
M  V30 36020 H 3434.88 -3.52452 1.20864 0
M  V30 36021 H 3434.99 -3.66326 3.08775 0
M  V30 36022 H 3433.35 -2.00843 1.56634 0
M  V30 36023 H 3434.14 -1.41375 3.12839 0
M  V30 36024 N 3436.58 -1.18028 -1.04437 0
M  V30 36025 C 3437.81 -0.998716 -1.8177 0
M  V30 36026 C 3438.23 0.448193 -1.82682 0
M  V30 36027 O 3437.59 1.32134 -1.24138 0
M  V30 36028 C 3437.64 -1.55357 -3.25417 0
M  V30 36029 O 3436.74 -0.772422 -4.05102 0
M  V30 36030 H 3436.08 -0.354064 -0.561725 0
M  V30 36031 H 3438.61 -1.56699 -1.31554 0
M  V30 36032 H 3438.62 -1.5791 -3.76203 0
M  V30 36033 H 3437.3 -2.60677 -3.24068 0
M  V30 36034 H 3435.88 -0.818916 -3.63797 0
M  V30 36035 N 3438.06 1.23288 -0.98172 0
M  V30 36036 C 3439.47 1.73556 -0.688117 0
M  V30 36037 C 3439.82 1.79345 0.795601 0
M  V30 36038 O 3438.95 1.43221 1.62224 0
M  V30 36039 C 3439.54 3.15198 -1.24241 0
M  V30 36040 C 3438.1 3.62917 -0.99842 0
M  V30 36041 C 3437.25 2.41131 -1.36934 0
M  V30 36042 H 3440.2 1.08793 -1.15541 0
M  V30 36043 H 3440.22 3.75489 -0.615476 0
M  V30 36044 H 3439.73 3.10953 -2.32228 0
M  V30 36045 H 3437.83 3.72543 0.0653193 0
M  V30 36046 H 3437.95 4.49647 -1.65393 0
M  V30 36047 H 3436.31 2.4221 -0.787815 0
M  V30 36048 H 3437.09 2.39556 -2.45902 0
M  V30 36049 N 3439.54 0.753533 1.38418 0
M  V30 36050 C 3440.79 0.309056 1.99723 0
M  V30 36051 C 3441.11 -1.11305 1.60113 0
M  V30 36052 O 3440.38 -1.76114 0.857951 0
M  V30 36053 H 3438.96 0.111279 0.738665 0
M  V30 36054 H 3441.62 0.967615 1.69184 0
M  V30 36055 H 3440.72 0.372149 3.09873 0
M  V30 36056 N 3441.02 -1.49371 0.502605 0
M  V30 36057 C 3442.27 -2.01654 -0.0431986 0
M  V30 36058 C 3442.58 -1.38722 -1.37897 0
M  V30 36059 O 3443.78 -1.82342 -2.01156 0
M  V30 36060 C 3442.24 -3.59674 -0.127446 0
M  V30 36061 C 3441.85 -4.3158 1.20178 0
M  V30 36062 C 3443.59 -4.19896 -0.623529 0
M  V30 36063 C 3441.5 -5.81462 1.07961 0
M  V30 36064 H 3440.43 -0.753737 -0.0199175 0
M  V30 36065 H 3443.08 -1.71893 0.642267 0
M  V30 36066 H 3441.46 -3.86158 -0.877397 0
M  V30 36067 H 3442.64 -4.16795 1.96515 0
M  V30 36068 H 3440.95 -3.8311 1.63143 0
M  V30 36069 H 3443.55 -5.29659 -0.732468 0
M  V30 36070 H 3443.89 -3.8337 -1.62275 0
M  V30 36071 H 3444.42 -3.97739 0.069934 0
M  V30 36072 H 3441.16 -6.22516 2.05315 0
M  V30 36073 H 3440.68 -5.98736 0.357156 0
M  V30 36074 H 3442.36 -6.42533 0.758998 0
M  V30 36075 N 3442.49 -0.236508 -1.55815 0
M  V30 36076 C 3443.73 0.392775 -2.00591 0
M  V30 36077 C 3444.1 1.55881 -1.12095 0
M  V30 36078 O 3445.3 2.25511 -1.46281 0
M  V30 36079 C 3443.57 0.802129 -3.48282 0
M  V30 36080 S 3445.13 1.42341 -4.15072 0
M  V30 36081 H 3441.95 0.124045 -0.700096 0
M  V30 36082 H 3444.55 -0.349305 -1.92354 0
M  V30 36083 H 3443.25 -0.0559662 -4.10362 0
M  V30 36084 H 3442.78 1.57665 -3.60424 0
M  V30 36085 H 3444.8 2.71249 -4.15497 0
M  V30 36086 N 3443.97 1.57557 0.0367273 0
M  V30 36087 C 3444.9 2.09093 1.03935 0
M  V30 36088 C 3445.88 0.991785 1.38194 0
M  V30 36089 O 3447.07 1.26658 1.47212 0
M  V30 36090 C 3444.2 2.56398 2.34259 0
M  V30 36091 C 3443.15 3.70507 2.14262 0
M  V30 36092 C 3442.48 4.03991 3.50278 0
M  V30 36093 C 3443.78 4.99233 1.53505 0
M  V30 36094 H 3445.47 2.93112 0.610378 0
M  V30 36095 H 3443.02 1.41005 0.292159 0
M  V30 36096 H 3444.97 2.91071 3.04722 0
M  V30 36097 H 3443.7 1.69452 2.79202 0
M  V30 36098 H 3442.35 3.36172 1.46233 0
M  V30 36099 H 3442 3.14123 3.92856 0
M  V30 36100 H 3441.7 4.80848 3.37727 0
M  V30 36101 H 3443.23 4.41192 4.22116 0
M  V30 36102 H 3444.64 5.31912 2.13876 0
M  V30 36103 H 3443.04 5.80648 1.5155 0
M  V30 36104 H 3444.11 4.82315 0.500041 0
M  V30 36105 N 3445.45 -0.308854 1.54544 0
M  V30 36106 C 3446.87 -0.654063 1.45582 0
M  V30 36107 C 3447.07 -1.91045 0.640631 0
M  V30 36108 O 3446.12 -2.52082 0.145224 0
M  V30 36109 C 3447.44 -0.814371 2.89462 0
M  V30 36110 C 3448.98 -0.910764 2.99456 0
M  V30 36111 C 3449.46 -1.10313 4.44517 0
M  V30 36112 N 3450.95 -1.16952 4.48192 0
M  V30 36113 C 3451.69 -1.33652 5.57606 0
M  V30 36114 N 3451.18 -1.47299 6.7696 0
M  V30 36115 N 3452.97 -1.36477 5.4528 0
M  V30 36116 H 3445.13 0.516735 2.06018 0
M  V30 36117 H 3447.39 0.169487 0.932726 0
M  V30 36118 H 3447.09 0.0378073 3.5168 0
M  V30 36119 H 3446.97 -1.70576 3.36428 0
M  V30 36120 H 3449.36 -1.75344 2.37358 0
M  V30 36121 H 3449.44 0.00447668 2.558 0
M  V30 36122 H 3449.08 -0.265257 5.07207 0
M  V30 36123 H 3449.01 -2.03247 4.85796 0
M  V30 36124 H 3451.5 -1.0779 3.62201 0
M  V30 36125 H 3451.81 -1.59775 7.56103 0
M  V30 36126 H 3450.16 -1.4437 6.7984 0
M  V30 36127 H 3453.35 -1.25421 4.50985 0
M  V30 36128 H 3453.52 -1.49149 6.30602 0
M  V30 36129 N 3446.93 -1.46867 -0.571659 0
M  V30 36130 C 3448.35 -1.32066 -0.896149 0
M  V30 36131 C 3448.55 -0.300326 -1.99249 0
M  V30 36132 O 3447.6 0.29324 -2.50791 0
M  V30 36133 C 3448.91 -2.71 -1.30305 0
M  V30 36134 C 3450.46 -2.79175 -1.41528 0
M  V30 36135 C 3450.94 -4.18717 -1.8558 0
M  V30 36136 N 3452.43 -4.21189 -1.92755 0
M  V30 36137 C 3453.16 -5.26061 -2.28138 0
M  V30 36138 N 3452.66 -6.41252 -2.62237 0
M  V30 36139 N 3454.45 -5.13432 -2.28788 0
M  V30 36140 H 3446.6 -2.11853 0.152386 0
M  V30 36141 H 3448.87 -0.947984 0.00550443 0
M  V30 36142 H 3448.57 -3.47027 -0.571408 0
M  V30 36143 H 3448.45 -3.0183 -2.26227 0
M  V30 36144 H 3450.83 -2.0343 -2.13777 0
M  V30 36145 H 3450.91 -2.52017 -0.438298 0
M  V30 36146 H 3450.56 -4.94962 -1.13907 0
M  V30 36147 H 3450.49 -4.4329 -2.84256 0
M  V30 36148 H 3452.98 -3.38081 -1.68849 0
M  V30 36149 H 3453.29 -7.17042 -2.88221 0
M  V30 36150 H 3451.64 -6.44595 -2.5985 0
M  V30 36151 H 3454.83 -4.22473 -2.01579 0
M  V30 36152 H 3455 -5.95273 -2.56035 0
M  V30 36153 N 3448.41 0.817212 -1.34757 0
M  V30 36154 C 3449.82 1.11119 -1.14563 0
M  V30 36155 C 3450.02 2.0144 0.0490422 0
M  V30 36156 O 3449.08 2.41932 0.722854 0
M  V30 36157 C 3450.39 1.7524 -2.44359 0
M  V30 36158 C 3451.94 1.87709 -2.50468 0
M  V30 36159 C 3452.42 2.55246 -3.80281 0
M  V30 36160 N 3453.91 2.6274 -3.81473 0
M  V30 36161 C 3454.64 3.1574 -4.78639 0
M  V30 36162 N 3454.14 3.69259 -5.8619 0
M  V30 36163 N 3455.93 3.14194 -4.66088 0
M  V30 36164 H 3448.08 0.216563 -2.11293 0
M  V30 36165 H 3450.34 0.158644 -0.934631 0
M  V30 36166 H 3450.05 1.16338 -3.31901 0
M  V30 36167 H 3449.92 2.7505 -2.58122 0
M  V30 36168 H 3452.31 2.45758 -1.63362 0
M  V30 36169 H 3452.39 0.867844 -2.40629 0
M  V30 36170 H 3452.04 1.9785 -4.6778 0
M  V30 36171 H 3451.97 3.56686 -3.87405 0
M  V30 36172 H 3454.46 2.24812 -3.03757 0
M  V30 36173 H 3454.77 4.07968 -6.5634 0
M  V30 36174 H 3453.12 3.67487 -5.89897 0
M  V30 36175 H 3456.31 2.71654 -3.81211 0
M  V30 36176 H 3456.48 3.55194 -5.41979 0
M  V30 36177 N 3449.89 1.1858 1.0381 0
M  V30 36178 C 3450.85 0.917217 2.10047 0
M  V30 36179 C 3451.85 -0.098484 1.60498 0
M  V30 36180 O 3453.04 0.135244 1.73674 0
M  V30 36181 C 3450.17 0.376658 3.38813 0
M  V30 36182 H 3451.36 1.85932 2.35307 0
M  V30 36183 H 3448.92 0.998177 1.20275 0
M  V30 36184 H 3449.65 -0.571927 3.19217 0
M  V30 36185 H 3449.44 1.10887 3.76094 0
M  V30 36186 H 3450.93 0.207526 4.17084 0
M  V30 36187 N 3451.36 -1.22766 0.988245 0
M  V30 36188 C 3452.77 -1.73189 0.697311 0
M  V30 36189 C 3453.13 -1.79764 -0.786079 0
M  V30 36190 O 3452.25 -1.4408 -1.61462 0
M  V30 36191 C 3452.85 -3.14535 1.25911 0
M  V30 36192 C 3451.4 -3.62382 1.01765 0
M  V30 36193 C 3450.55 -2.40402 1.38211 0
M  V30 36194 H 3453.5 -1.08179 1.16116 0
M  V30 36195 H 3453.52 -3.75158 0.635381 0
M  V30 36196 H 3453.04 -3.09717 2.33874 0
M  V30 36197 H 3451.14 -3.72572 -0.0455615 0
M  V30 36198 H 3451.25 -4.48763 1.67775 0
M  V30 36199 H 3449.61 -2.41789 0.800649 0
M  V30 36200 H 3450.4 -2.38249 2.47169 0
M  V30 36201 N 3452.84 -0.760864 -1.38017 0
M  V30 36202 C 3454.07 -0.330074 -2.04757 0
M  V30 36203 C 3454.49 1.03582 -1.57011 0
M  V30 36204 O 3453.85 1.66156 -0.725379 0
M  V30 36205 C 3453.9 -0.370145 -3.58695 0
M  V30 36206 O 3453 0.633289 -4.07509 0
M  V30 36207 H 3452.34 -0.144793 -0.648021 0
M  V30 36208 H 3454.87 -1.03402 -1.76548 0
M  V30 36209 H 3454.88 -0.223586 -4.07387 0
M  V30 36210 H 3453.56 -1.36668 -3.92804 0
M  V30 36211 H 3452.13 0.450745 -3.70166 0
M  V30 36212 N 3454.32 1.49102 -0.510519 0
M  V30 36213 C 3455.54 2.07379 0.0292749 0
M  V30 36214 C 3455.97 1.36715 1.29192 0
M  V30 36215 O 3455.33 0.426869 1.76203 0
M  V30 36216 C 3455.38 3.59689 0.256227 0
M  V30 36217 O 3454.48 3.90399 1.329 0
M  V30 36218 H 3453.82 0.663301 -0.0304565 0
M  V30 36219 H 3456.35 1.9178 -0.712866 0
M  V30 36220 H 3456.36 4.05109 0.484843 0
M  V30 36221 H 3455.04 4.10529 -0.666235 0
M  V30 36222 H 3453.61 3.56779 1.08458 0
M  V30 36223 N 3455.8 0.244768 1.55688 0
M  V30 36224 C 3457.07 -0.430787 1.90797 0
M  V30 36225 C 3457.45 -1.76027 1.16523 0
M  V30 36226 O 3456.8 -2.26753 0.282018 0
M  V30 36227 C 3457.01 -0.600967 3.43787 0
M  V30 36228 C 3458.36 -0.897821 4.14999 0
M  V30 36229 O 3459.38 -0.686909 3.49514 0
M  V30 36230 O 3458.24 -1.29936 5.30828 0
M  V30 36231 H 3455.34 -0.230977 0.79409 0
M  V30 36232 H 3457.88 0.288676 1.67227 0
M  V30 36233 H 3456.66 0.335872 3.89856 0
M  V30 36234 H 3456.28 -1.37105 3.73213 0
M  V30 36235 N 3457.28 -1.57574 -0.0283712 0
M  V30 36236 C 3458.5 -1.93958 -0.734503 0
M  V30 36237 C 3458.93 -0.844817 -1.68061 0
M  V30 36238 O 3458.28 0.1994 -1.802 0
M  V30 36239 C 3458.33 -3.29406 -1.4671 0
M  V30 36240 O 3457.44 -3.21705 -2.5803 0
M  V30 36241 H 3456.78 -0.633949 -0.197496 0
M  V30 36242 H 3459.31 -2.04593 0.0163617 0
M  V30 36243 H 3459.32 -3.64312 -1.83687 0
M  V30 36244 H 3457.99 -4.08649 -0.77322 0
M  V30 36245 H 3456.57 -2.98431 -2.23591 0
M  V30 36246 N 3458.75 0.300654 -1.54706 0
M  V30 36247 C 3459.7 1.37081 -1.85681 0
M  V30 36248 C 3460.67 1.50361 -0.705756 0
M  V30 36249 O 3461.86 1.65214 -0.954415 0
M  V30 36250 C 3459 2.73081 -2.11 0
M  V30 36251 C 3458.11 2.68248 -3.38625 0
M  V30 36252 C 3457.24 3.96244 -3.53786 0
M  V30 36253 C 3456.28 3.8581 -4.75202 0
M  V30 36254 N 3455.42 5.05582 -4.87166 0
M  V30 36255 H 3460.26 1.09966 -2.76968 0
M  V30 36256 H 3457.8 0.531863 -1.37148 0
M  V30 36257 H 3459.75 3.52172 -2.23675 0
M  V30 36258 H 3458.38 2.98456 -1.22978 0
M  V30 36259 H 3457.44 1.81019 -3.34569 0
M  V30 36260 H 3458.75 2.56428 -4.27839 0
M  V30 36261 H 3457.9 4.83772 -3.66127 0
M  V30 36262 H 3456.64 4.10898 -2.62706 0
M  V30 36263 H 3455.65 2.96665 -4.62893 0
M  V30 36264 H 3456.87 3.72701 -5.67689 0
M  V30 36265 H 3454.82 5.20699 -3.9901 0
M  V30 36266 H 3454.73 4.96187 -5.70381 0
M  V30 36267 H 3456 5.94761 -5.03865 0
M  V30 36268 N 3460.23 1.47168 0.563863 0
M  V30 36269 C 3461.51 1.4393 1.32452 0
M  V30 36270 C 3461.89 0.132707 2.10682 0
M  V30 36271 O 3461.24 -0.885808 2.10632 0
M  V30 36272 C 3461.45 2.68075 2.23465 0
M  V30 36273 C 3462.8 3.15013 2.84697 0
M  V30 36274 O 3463.82 2.68756 2.3377 0
M  V30 36275 O 3462.68 3.9541 3.77244 0
M  V30 36276 H 3459.77 0.573268 0.596064 0
M  V30 36277 H 3462.32 1.5936 0.583317 0
M  V30 36278 H 3461.09 3.54711 1.65214 0
M  V30 36279 H 3460.71 2.55199 3.04892 0
M  V30 36280 N 3461.71 -0.810054 1.35188 0
M  V30 36281 C 3463.12 -1.38379 1.25332 0
M  V30 36282 C 3463.47 -1.95858 -0.115765 0
M  V30 36283 O 3462.6 -1.91035 -1.0166 0
M  V30 36284 C 3463.19 -2.51568 2.26934 0
M  V30 36285 C 3461.75 -3.04814 2.20829 0
M  V30 36286 C 3460.9 -1.77756 2.12833 0
M  V30 36287 H 3463.85 -0.613376 1.46367 0
M  V30 36288 H 3463.87 -3.30023 1.89381 0
M  V30 36289 H 3463.38 -2.09704 3.26567 0
M  V30 36290 H 3461.48 -3.51151 1.24595 0
M  V30 36291 H 3461.6 -3.6303 3.12643 0
M  V30 36292 H 3459.96 -1.9917 1.58756 0
M  V30 36293 H 3460.74 -1.38049 3.14321 0
M  V30 36294 N 3463.19 -1.19129 -1.0318 0
M  V30 36295 C 3464.12 -0.950028 -2.133 0
M  V30 36296 C 3465.1 0.115547 -1.69707 0
M  V30 36297 O 3466.28 -0.0388736 -1.94161 0
M  V30 36298 C 3463.41 -0.484697 -3.43901 0
M  V30 36299 C 3462.37 -1.49177 -4.01161 0
M  V30 36300 C 3461.69 -0.883629 -5.27348 0
M  V30 36301 C 3462.99 -2.87114 -4.36306 0
M  V30 36302 H 3464.69 -1.87099 -2.3374 0
M  V30 36303 H 3462.23 -0.900997 -1.1233 0
M  V30 36304 H 3464.19 -0.303224 -4.20308 0
M  V30 36305 H 3462.91 0.471852 -3.23174 0
M  V30 36306 H 3461.57 -1.66034 -3.26846 0
M  V30 36307 H 3461.22 0.0803828 -5.02936 0
M  V30 36308 H 3460.92 -1.55609 -5.66621 0
M  V30 36309 H 3462.44 -0.712886 -6.06424 0
M  V30 36310 H 3463.86 -2.73857 -5.03662 0
M  V30 36311 H 3462.25 -3.51126 -4.86652 0
M  V30 36312 H 3463.32 -3.39991 -3.45737 0
M  V30 36313 N 3464.67 1.2224 -0.994741 0
M  V30 36314 C 3465.63 2.22462 -0.551658 0
M  V30 36315 C 3466.63 1.56568 0.36647 0
M  V30 36316 O 3467.82 1.7348 0.158173 0
M  V30 36317 C 3464.95 3.40328 0.197356 0
M  V30 36318 H 3466.14 2.63176 -1.43799 0
M  V30 36319 H 3463.7 1.35323 -0.782144 0
M  V30 36320 H 3464.43 3.05089 1.09959 0
M  V30 36321 H 3464.22 3.8937 -0.461897 0
M  V30 36322 H 3465.71 4.1465 0.495461 0
M  V30 36323 N 3466.14 0.768172 1.37611 0
M  V30 36324 C 3467.37 0.340928 2.04579 0
M  V30 36325 C 3467.79 -1.02748 1.57558 0
M  V30 36326 O 3467.15 -1.65769 0.73418 0
M  V30 36327 C 3467.2 0.389162 3.58494 0
M  V30 36328 O 3466.3 -0.611669 4.07839 0
M  V30 36329 H 3465.65 0.148228 0.647244 0
M  V30 36330 H 3468.18 1.04337 1.75997 0
M  V30 36331 H 3468.19 0.245188 4.07263 0
M  V30 36332 H 3466.86 1.38749 3.92073 0
M  V30 36333 H 3465.44 -0.431108 3.704 0
M  V30 36334 N 3467.62 -1.48829 0.518419 0
M  V30 36335 C 3468.87 -2.0209 -0.0198305 0
M  V30 36336 C 3469.19 -1.39882 -1.3586 0
M  V30 36337 O 3468.46 -0.56015 -1.87721 0
M  V30 36338 H 3467.04 -0.746929 -0.0103175 0
M  V30 36339 H 3469.7 -1.82667 0.679624 0
M  V30 36340 H 3468.8 -3.11801 -0.136695 0
M  V30 36341 N 3469.1 -0.253021 -1.55556 0
M  V30 36342 C 3470.51 0.248979 -1.85032 0
M  V30 36343 C 3470.86 1.57132 -1.17491 0
M  V30 36344 O 3469.99 2.11553 -0.455424 0
M  V30 36345 C 3470.58 0.45853 -3.35683 0
M  V30 36346 C 3469.14 0.904786 -3.65364 0
M  V30 36347 C 3468.29 -0.0145414 -2.77296 0
M  V30 36348 H 3471.24 -0.475421 -1.51411 0
M  V30 36349 H 3471.26 1.30028 -3.57593 0
M  V30 36350 H 3470.77 -0.504049 -3.84813 0
M  V30 36351 H 3468.87 1.87962 -3.21716 0
M  V30 36352 H 3468.99 0.757409 -4.73075 0
M  V30 36353 H 3467.35 0.49791 -2.49786 0
M  V30 36354 H 3468.13 -0.972604 -3.29234 0
M  V30 36355 N 3470.58 1.57587 0.0200142 0
M  V30 36356 C 3471.99 1.77931 0.565453 0
M  V30 36357 C 3472.34 0.885232 1.75095 0
M  V30 36358 O 3471.47 0.0824211 2.16243 0
M  V30 36359 C 3472.06 3.22682 1.03257 0
M  V30 36360 C 3470.62 3.44191 1.52346 0
M  V30 36361 C 3469.77 2.73363 0.465589 0
M  V30 36362 H 3472.72 1.57355 -0.206202 0
M  V30 36363 H 3472.74 3.29694 1.89954 0
M  V30 36364 H 3472.25 3.87729 0.169545 0
M  V30 36365 H 3470.35 2.84331 2.40804 0
M  V30 36366 H 3470.46 4.52828 1.56472 0
M  V30 36367 H 3468.83 2.37399 0.922696 0
M  V30 36368 H 3469.61 3.41099 -0.388128 0
M  V30 36369 N 3472.06 -0.292445 1.54863 0
M  V30 36370 C 3473.33 -1.04668 1.65239 0
M  V30 36371 C 3473.71 -2.04941 0.506204 0
M  V30 36372 O 3473.06 -2.2305 -0.496083 0
M  V30 36373 C 3473.27 -1.7209 3.03622 0
M  V30 36374 C 3474.62 -2.23972 3.60724 0
M  V30 36375 O 3475.64 -1.82109 3.06129 0
M  V30 36376 O 3474.5 -3.00702 4.56334 0
M  V30 36377 H 3471.6 -0.484307 0.670355 0
M  V30 36378 H 3474.14 -0.289851 1.67206 0
M  V30 36379 H 3472.91 -0.993258 3.78484 0
M  V30 36380 H 3472.54 -2.54508 3.05469 0
M  V30 36381 N 3473.53 -1.47465 -0.55605 0
M  V30 36382 C 3474.76 -1.58014 -1.34337 0
M  V30 36383 C 3475.18 -0.231171 -1.86674 0
M  V30 36384 O 3474.54 0.793145 -1.6303 0
M  V30 36385 C 3474.59 -2.60981 -2.4884 0
M  V30 36386 O 3473.69 -2.16332 -3.51104 0
M  V30 36387 H 3473.04 -0.530767 -0.398977 0
M  V30 36388 H 3475.57 -1.93254 -0.671864 0
M  V30 36389 H 3475.58 -2.81437 -2.95393 0
M  V30 36390 H 3474.25 -3.58928 -2.10103 0
M  V30 36391 H 3472.83 -2.0598 -3.10848 0
M  V30 36392 N 3475.01 0.802873 -1.35616 0
M  V30 36393 C 3475.95 1.92089 -1.23195 0
M  V30 36394 C 3476.92 1.62164 -0.119023 0
M  V30 36395 O 3478.11 1.8629 -0.287776 0
M  V30 36396 C 3475.24 3.26585 -0.897756 0
M  V30 36397 C 3474.28 3.75455 -2.02325 0
M  V30 36398 S 3475.11 3.92816 -3.63945 0
M  V30 36399 C 3476.27 5.30209 -3.3261 0
M  V30 36400 H 3476.5 2.02331 -2.17829 0
M  V30 36401 H 3474.04 0.960654 -1.20875 0
M  V30 36402 H 3475.99 4.04283 -0.711745 0
M  V30 36403 H 3474.66 3.14085 0.0305753 0
M  V30 36404 H 3473.85 4.72877 -1.74366 0
M  V30 36405 H 3473.45 3.04767 -2.16779 0
M  V30 36406 H 3475.74 6.14329 -2.85669 0
M  V30 36407 H 3476.69 5.63164 -4.29246 0
M  V30 36408 H 3477.09 4.96671 -2.68287 0
M  V30 36409 N 3476.49 1.19674 1.02547 0
M  V30 36410 C 3477.45 0.939444 2.09062 0
M  V30 36411 C 3478.45 -0.0814555 1.60594 0
M  V30 36412 O 3479.64 0.153657 1.73521 0
M  V30 36413 C 3476.78 0.412573 3.38394 0
M  V30 36414 H 3477.97 1.88417 2.33322 0
M  V30 36415 H 3475.52 1.01088 1.1921 0
M  V30 36416 H 3476.26 -0.538038 3.19806 0
M  V30 36417 H 3476.04 1.1487 3.74896 0
M  V30 36418 H 3477.53 0.251752 4.1684 0
M  V30 36419 N 3477.97 -1.21711 1.00121 0
M  V30 36420 C 3478.93 -2.22166 0.563448 0
M  V30 36421 C 3479.93 -1.5676 -0.358162 0
M  V30 36422 O 3481.12 -1.73562 -0.148971 0
M  V30 36423 C 3478.25 -3.40428 -0.179305 0
M  V30 36424 H 3479.45 -2.6241 1.45193 0
M  V30 36425 H 3477 -1.34906 0.78931 0
M  V30 36426 H 3477.74 -3.05668 -1.0834 0
M  V30 36427 H 3477.52 -3.89119 0.48254 0
M  V30 36428 H 3479.01 -4.14907 -0.473464 0
M  V30 36429 N 3479.45 -0.775459 -1.37202 0
M  V30 36430 C 3480.67 -0.351772 -2.04395 0
M  V30 36431 C 3481.1 1.01911 -1.58101 0
M  V30 36432 O 3480.46 1.65378 -0.742961 0
M  V30 36433 C 3480.5 -0.408168 -3.58282 0
M  V30 36434 O 3479.61 0.590032 -4.08157 0
M  V30 36435 H 3478.95 -0.151658 -0.646449 0
M  V30 36436 H 3481.48 -1.05268 -1.75441 0
M  V30 36437 H 3481.49 -0.266783 -4.07127 0
M  V30 36438 H 3480.16 -1.40826 -3.91332 0
M  V30 36439 H 3478.74 0.411459 -3.70623 0
M  V30 36440 N 3480.93 1.48552 -0.526305 0
M  V30 36441 C 3482.34 1.86507 -0.0849022 0
M  V30 36442 C 3482.69 1.43623 1.33667 0
M  V30 36443 O 3481.81 0.825303 2.00044 0
M  V30 36444 C 3482.41 3.3848 -0.147301 0
M  V30 36445 C 3480.97 3.75641 0.238888 0
M  V30 36446 C 3480.11 2.72594 -0.508696 0
M  V30 36447 H 3483.06 1.40509 -0.737753 0
M  V30 36448 H 3483.09 3.75047 0.641898 0
M  V30 36449 H 3482.6 3.69661 -1.18205 0
M  V30 36450 H 3480.7 3.50073 1.27592 0
M  V30 36451 H 3480.81 4.78999 -0.098165 0
M  V30 36452 H 3479.18 2.54661 0.0445934 0
M  V30 36453 H 3479.96 3.06619 -1.54401 0
M  V30 36454 N 3482.4 0.261267 1.55419 0
M  V30 36455 C 3483.63 -0.366109 2.04143 0
M  V30 36456 C 3484.05 -1.49704 1.13887 0
M  V30 36457 O 3483.41 -1.80799 0.134661 0
M  V30 36458 C 3483.46 -0.837713 3.50735 0
M  V30 36459 O 3482.56 -1.94615 3.63592 0
M  V30 36460 H 3481.9 -0.0778095 0.659425 0
M  V30 36461 H 3484.43 0.391522 2.00819 0
M  V30 36462 H 3484.44 -1.13715 3.91833 0
M  V30 36463 H 3483.12 -0.0102011 4.15899 0
M  V30 36464 H 3481.7 -1.65031 3.34394 0
M  V30 36465 N 3483.88 -1.57596 -0.0116567 0
M  V30 36466 C 3485.29 -1.78229 -0.556009 0
M  V30 36467 C 3485.64 -0.894505 -1.74623 0
M  V30 36468 O 3484.77 -0.0938879 -2.16196 0
M  V30 36469 C 3485.36 -3.23225 -1.01544 0
M  V30 36470 C 3483.92 -3.44994 -1.50518 0
M  V30 36471 C 3483.07 -2.73606 -0.451085 0
M  V30 36472 H 3486.02 -1.57243 0.214544 0
M  V30 36473 H 3486.04 -3.30696 -1.88203 0
M  V30 36474 H 3485.55 -3.87814 -0.14898 0
M  V30 36475 H 3483.65 -2.85604 -2.39293 0
M  V30 36476 H 3483.77 -4.53652 -1.54068 0
M  V30 36477 H 3482.13 -2.37885 -0.910093 0
M  V30 36478 H 3482.91 -3.40888 0.406212 0
M  V30 36479 N 3485.36 0.284228 -1.55016 0
M  V30 36480 C 3486.31 1.35104 -1.87124 0
M  V30 36481 C 3487.28 1.49604 -0.721664 0
M  V30 36482 O 3488.46 1.64192 -0.971884 0
M  V30 36483 C 3485.6 2.70827 -2.13884 0
M  V30 36484 C 3484.71 2.64641 -3.41451 0
M  V30 36485 C 3483.85 3.92469 -3.57968 0
M  V30 36486 C 3482.89 3.80748 -4.79267 0
M  V30 36487 N 3482.03 5.00387 -4.92501 0
M  V30 36488 H 3486.87 1.07022 -2.78119 0
M  V30 36489 H 3484.4 0.517287 -1.37705 0
M  V30 36490 H 3486.36 3.4978 -2.27397 0
M  V30 36491 H 3484.99 2.97135 -1.26137 0
M  V30 36492 H 3484.04 1.7746 -3.3647 0
M  V30 36493 H 3485.35 2.51876 -4.30534 0
M  V30 36494 H 3484.51 4.79862 -3.71238 0
M  V30 36495 H 3483.25 4.08088 -2.67049 0
M  V30 36496 H 3482.25 2.91739 -4.66013 0
M  V30 36497 H 3483.48 3.66659 -5.7161 0
M  V30 36498 H 3481.42 5.16437 -4.0451 0
M  V30 36499 H 3481.34 4.90109 -5.75612 0
M  V30 36500 H 3482.61 5.89383 -5.10144 0
M  V30 36501 N 3486.84 1.47758 0.548222 0
M  V30 36502 C 3487.78 1.60918 1.65451 0
M  V30 36503 C 3488.75 0.451859 1.59836 0
M  V30 36504 O 3489.94 0.673054 1.78535 0
M  V30 36505 C 3487.08 1.63785 3.03757 0
M  V30 36506 C 3486.19 2.90498 3.19742 0
M  V30 36507 C 3485.33 2.84643 4.485 0
M  V30 36508 C 3484.37 4.0614 4.57948 0
M  V30 36509 N 3483.5 3.98468 5.78072 0
M  V30 36510 H 3488.34 2.554 1.53541 0
M  V30 36511 H 3485.88 1.26674 0.747803 0
M  V30 36512 H 3487.84 1.6343 3.83857 0
M  V30 36513 H 3486.47 0.728091 3.14482 0
M  V30 36514 H 3485.52 3.0068 2.33014 0
M  V30 36515 H 3486.83 3.80446 3.22587 0
M  V30 36516 H 3485.99 2.82587 5.3687 0
M  V30 36517 H 3484.73 1.92393 4.48148 0
M  V30 36518 H 3483.73 4.08491 3.67988 0
M  V30 36519 H 3484.96 4.99528 4.60053 0
M  V30 36520 H 3482.9 3.09027 5.78652 0
M  V30 36521 H 3482.82 4.82103 5.82333 0
M  V30 36522 H 3484.09 4.00443 6.68779 0
M  V30 36523 N 3488.32 -0.79567 1.3604 0
M  V30 36524 C 3489.59 -1.54093 1.20476 0
M  V30 36525 C 3489.97 -2.10036 -0.211654 0
M  V30 36526 O 3489.32 -1.93424 -1.21653 0
M  V30 36527 C 3489.53 -2.64083 2.28169 0
M  V30 36528 C 3490.88 -3.32132 2.64525 0
M  V30 36529 O 3491.9 -2.74362 2.27165 0
M  V30 36530 O 3490.76 -4.36521 3.28803 0
M  V30 36531 H 3487.86 -0.681351 0.468711 0
M  V30 36532 H 3490.4 -0.83469 1.47753 0
M  V30 36533 H 3489.17 -2.20695 3.23124 0
M  V30 36534 H 3488.8 -3.42333 2.02223 0
M  V30 36535 N 3489.79 -1.20217 -1.0191 0
M  V30 36536 C 3491.04 -1.01229 -1.75729 0
M  V30 36537 C 3491.37 0.454777 -1.888 0
M  V30 36538 O 3490.65 1.33766 -1.41198 0
M  V30 36539 C 3490.93 -1.69353 -3.17792 0
M  V30 36540 C 3490.78 -3.23488 -3.12531 0
M  V30 36541 C 3492.1 -1.42455 -4.16407 0
M  V30 36542 H 3489.22 -0.369155 -0.637882 0
M  V30 36543 H 3491.86 -1.48195 -1.18904 0
M  V30 36544 H 3490.01 -1.29422 -3.66309 0
M  V30 36545 H 3491.69 -3.72697 -2.71836 0
M  V30 36546 H 3489.93 -3.54524 -2.49991 0
M  V30 36547 H 3490.6 -3.66309 -4.12943 0
M  V30 36548 H 3493.08 -1.77092 -3.76534 0
M  V30 36549 H 3491.95 -1.92657 -5.13979 0
M  V30 36550 H 3492.21 -0.351651 -4.40699 0
M  V30 36551 N 3491.27 1.21178 -1.00765 0
M  V30 36552 C 3492.2 2.25909 -0.590533 0
M  V30 36553 C 3493.18 1.65569 0.389973 0
M  V30 36554 O 3494.37 1.92209 0.277373 0
M  V30 36555 C 3491.5 3.47206 0.0809778 0
M  V30 36556 C 3490.45 4.2008 -0.819583 0
M  V30 36557 C 3489.78 5.34698 -0.014338 0
M  V30 36558 C 3491.08 4.77187 -2.12344 0
M  V30 36559 H 3492.77 2.61054 -1.46599 0
M  V30 36560 H 3490.32 1.25486 -0.706343 0
M  V30 36561 H 3492.27 4.19644 0.384282 0
M  V30 36562 H 3491 3.11199 0.99109 0
M  V30 36563 H 3489.65 3.49495 -1.10675 0
M  V30 36564 H 3489.3 4.94935 0.897146 0
M  V30 36565 H 3489 5.84383 -0.613986 0
M  V30 36566 H 3490.53 6.09945 0.28272 0
M  V30 36567 H 3491.94 5.4149 -1.88311 0
M  V30 36568 H 3490.34 5.37272 -2.67317 0
M  V30 36569 H 3491.41 3.96422 -2.79245 0
M  V30 36570 N 3492.75 0.782725 1.36789 0
M  V30 36571 C 3493.98 0.362607 2.04206 0
M  V30 36572 C 3494.4 -1.01071 1.58639 0
M  V30 36573 O 3493.76 -1.64981 0.751721 0
M  V30 36574 C 3493.81 0.427163 3.58061 0
M  V30 36575 O 3492.91 -0.568378 4.08464 0
M  V30 36576 H 3492.25 0.155084 0.645635 0
M  V30 36577 H 3494.78 1.06197 1.74881 0
M  V30 36578 H 3494.79 0.28837 4.0698 0
M  V30 36579 H 3493.47 1.42899 3.9058 0
M  V30 36580 H 3492.04 -0.391798 3.70836 0
M  V30 36581 N 3494.23 -1.48271 0.534176 0
M  V30 36582 C 3495.16 -2.32508 -0.214996 0
M  V30 36583 C 3496.14 -1.42356 -0.931058 0
M  V30 36584 O 3497.32 -1.71239 -0.916021 0
M  V30 36585 C 3494.45 -3.23646 -1.25979 0
M  V30 36586 C 3493.41 -4.22855 -0.661617 0
M  V30 36587 C 3492.73 -5.03156 -1.80937 0
M  V30 36588 C 3494.03 -5.20992 0.369449 0
M  V30 36589 H 3495.73 -2.95393 0.48821 0
M  V30 36590 H 3493.27 -1.42049 0.236231 0
M  V30 36591 H 3495.23 -3.81405 -1.79188 0
M  V30 36592 H 3493.95 -2.58769 -1.99264 0
M  V30 36593 H 3492.61 -3.66289 -0.151018 0
M  V30 36594 H 3492.26 -4.34701 -2.5307 0
M  V30 36595 H 3491.96 -5.70307 -1.41503 0
M  V30 36596 H 3493.48 -5.63768 -2.34516 0
M  V30 36597 H 3494.9 -5.7325 -0.0757069 0
M  V30 36598 H 3493.29 -5.96219 0.681406 0
M  V30 36599 H 3494.36 -4.67872 1.27371 0
M  V30 36600 N 3495.71 -0.269505 -1.55279 0
M  V30 36601 C 3496.93 0.355277 -2.04334 0
M  V30 36602 C 3497.36 1.49098 -1.14679 0
M  V30 36603 O 3496.71 1.80725 -0.144247 0
M  V30 36604 C 3496.76 0.819101 -3.51174 0
M  V30 36605 O 3495.87 1.92684 -3.64619 0
M  V30 36606 H 3495.21 0.0743113 -0.659829 0
M  V30 36607 H 3497.74 -0.402166 -2.00609 0
M  V30 36608 H 3497.75 1.11635 -3.9243 0
M  V30 36609 H 3496.42 -0.0118552 -4.15898 0
M  V30 36610 H 3495 1.63255 -3.35264 0
M  V30 36611 N 3497.18 1.576 0.00329885 0
M  V30 36612 C 3498.43 1.90048 0.687475 0
M  V30 36613 C 3498.75 0.870419 1.74496 0
M  V30 36614 O 3498.02 -0.09262 1.95681 0
M  V30 36615 H 3496.6 0.701431 0.256912 0
M  V30 36616 H 3499.27 1.94865 -0.0368472 0
M  V30 36617 H 3498.36 2.8971 1.16081 0
M  V30 36618 N 3498.66 -0.276003 1.55164 0
M  V30 36619 C 3499.59 -1.34536 1.90846 0
M  V30 36620 C 3500.57 -1.51674 0.769995 0
M  V30 36621 O 3501.76 -1.64768 1.02787 0
M  V30 36622 C 3498.89 -2.7054 2.17774 0
M  V30 36623 C 3497.84 -2.68136 3.33597 0
M  V30 36624 C 3497.17 -4.07663 3.45998 0
M  V30 36625 C 3498.47 -2.2767 4.70068 0
M  V30 36626 H 3500.16 -1.04921 2.80414 0
M  V30 36627 H 3497.71 -0.503279 1.34919 0
M  V30 36628 H 3499.66 -3.45458 2.41323 0
M  V30 36629 H 3498.39 -3.01732 1.25003 0
M  V30 36630 H 3497.04 -1.95675 3.10011 0
M  V30 36631 H 3496.69 -4.36073 2.50698 0
M  V30 36632 H 3496.39 -4.0695 4.23869 0
M  V30 36633 H 3497.92 -4.84325 3.71836 0
M  V30 36634 H 3499.33 -2.9231 4.93181 0
M  V30 36635 H 3497.73 -2.38125 5.50833 0
M  V30 36636 H 3498.8 -1.228 4.69093 0
M  V30 36637 N 3500.14 -1.48046 -0.540378 0
M  V30 36638 C 3501.37 -1.5943 -1.32653 0
M  V30 36639 C 3501.79 -0.250957 -1.86418 0
M  V30 36640 O 3501.15 0.775809 -1.63862 0
M  V30 36641 C 3501.2 -2.63606 -2.46058 0
M  V30 36642 O 3500.3 -2.20044 -3.4879 0
M  V30 36643 H 3499.64 -0.534969 -0.393325 0
M  V30 36644 H 3502.17 -1.93956 -0.651329 0
M  V30 36645 H 3502.18 -2.84555 -2.92391 0
M  V30 36646 H 3500.86 -3.61136 -2.06284 0
M  V30 36647 H 3499.43 -2.09266 -3.08646 0
M  V30 36648 N 3501.62 0.788444 -1.3646 0
M  V30 36649 C 3502.84 1.58244 -1.34066 0
M  V30 36650 C 3503.27 1.87949 0.0754603 0
M  V30 36651 O 3502.63 1.47963 1.0477 0
M  V30 36652 C 3502.67 2.87966 -2.17043 0
M  V30 36653 O 3501.78 3.81609 -1.56359 0
M  V30 36654 H 3501.12 0.479975 -0.458824 0
M  V30 36655 H 3503.65 0.977175 -1.79757 0
M  V30 36656 H 3503.66 3.37226 -2.29657 0
M  V30 36657 H 3502.33 2.65673 -3.19986 0
M  V30 36658 H 3500.91 3.40206 -1.52691 0
M  V30 36659 N 3503.1 1.20755 1.01271 0
M  V30 36660 C 3504.37 0.929039 1.72129 0
M  V30 36661 C 3504.75 -0.561181 2.03504 0
M  V30 36662 O 3504.1 -1.52392 1.70261 0
M  V30 36663 C 3504.31 1.80608 2.98633 0
M  V30 36664 C 3505.66 2.05026 3.71819 0
M  V30 36665 O 3506.68 1.77893 3.08598 0
M  V30 36666 O 3505.54 2.50872 4.85516 0
M  V30 36667 H 3502.64 0.347703 0.750355 0
M  V30 36668 H 3505.18 1.31648 1.07084 0
M  V30 36669 H 3503.95 2.81499 2.71798 0
M  V30 36670 H 3503.58 1.41896 3.71418 0
M  V30 36671 N 3504.58 -1.20642 1.01406 0
M  V30 36672 C 3505.99 -1.71671 0.733891 0
M  V30 36673 C 3506.34 -1.81391 -0.747772 0
M  V30 36674 O 3505.46 -1.47472 -1.5837 0
M  V30 36675 C 3506.06 -3.11793 1.32554 0
M  V30 36676 C 3504.62 -3.60142 1.09429 0
M  V30 36677 C 3503.76 -2.37416 1.43279 0
M  V30 36678 H 3506.71 -1.05692 1.18385 0
M  V30 36679 H 3506.74 -3.73725 0.714814 0
M  V30 36680 H 3506.25 -3.04686 2.40391 0
M  V30 36681 H 3504.35 -3.72585 0.0334768 0
M  V30 36682 H 3504.46 -4.45103 1.77256 0
M  V30 36683 H 3502.83 -2.40036 0.851756 0
M  V30 36684 H 3503.61 -2.32952 2.52167 0
M  V30 36685 N 3506.05 -0.789968 -1.36372 0
M  V30 36686 C 3507.02 -0.194679 -2.28372 0
M  V30 36687 C 3508.02 0.608306 -1.4885 0
M  V30 36688 O 3509.21 0.42922 -1.68829 0
M  V30 36689 C 3506.34 0.730495 -3.32981 0
M  V30 36690 H 3507.53 -1.0059 -2.82527 0
M  V30 36691 H 3505.08 -0.559431 -1.45945 0
M  V30 36692 H 3505.82 1.56603 -2.83982 0
M  V30 36693 H 3505.6 0.156637 -3.91787 0
M  V30 36694 H 3507.09 1.14185 -4.01686 0
M  V30 36695 N 3507.53 1.47986 -0.542031 0
M  V30 36696 C 3508.81 1.95529 0.0526151 0
M  V30 36697 C 3509.19 1.48446 1.5009 0
M  V30 36698 O 3508.54 0.716385 2.1698 0
M  V30 36699 C 3508.75 3.48915 -0.0771138 0
M  V30 36700 C 3510.09 4.24532 0.0760102 0
M  V30 36701 O 3511.12 3.562 -0.00390905 0
M  V30 36702 O 3509.98 5.45949 0.24531 0
M  V30 36703 H 3507.07 0.823807 0.0726018 0
M  V30 36704 H 3509.62 1.58454 -0.607482 0
M  V30 36705 H 3508.39 3.75942 -1.08551 0
M  V30 36706 H 3508.01 3.92716 0.621288 0
M  V30 36707 N 3509.01 0.277736 1.55133 0
M  V30 36708 C 3509.94 -0.602192 2.25601 0
M  V30 36709 C 3510.92 -1.15678 1.2471 0
M  V30 36710 O 3512.11 -1.19044 1.53435 0
M  V30 36711 C 3509.24 -1.78514 2.9791 0
M  V30 36712 C 3508.19 -1.36196 4.05752 0
M  V30 36713 C 3507.52 -2.62821 4.65649 0
M  V30 36714 C 3508.82 -0.510236 5.19802 0
M  V30 36715 H 3510.51 -0.0145096 2.99396 0
M  V30 36716 H 3508.06 -0.00553857 1.43999 0
M  V30 36717 H 3510.01 -2.40662 3.45919 0
M  V30 36718 H 3508.73 -2.39869 2.21654 0
M  V30 36719 H 3507.39 -0.763663 3.58558 0
M  V30 36720 H 3507.04 -3.22441 3.86058 0
M  V30 36721 H 3506.74 -2.35217 5.38467 0
M  V30 36722 H 3508.26 -3.25813 5.16409 0
M  V30 36723 H 3509.68 -1.03679 5.63847 0
M  V30 36724 H 3508.07 -0.328967 5.99198 0
M  V30 36725 H 3509.14 0.470358 4.82613 0
M  V30 36726 N 3510.49 -1.57599 0.00505908 0
M  V30 36727 C 3511.76 -1.82022 -0.716047 0
M  V30 36728 C 3512.14 -0.883862 -1.91706 0
M  V30 36729 O 3511.49 0.0662411 -2.28404 0
M  V30 36730 C 3511.7 -3.30642 -1.117 0
M  V30 36731 C 3513.05 -3.96509 -1.51874 0
M  V30 36732 O 3514.07 -3.34995 -1.21065 0
M  V30 36733 O 3512.93 -5.04881 -2.09182 0
M  V30 36734 H 3510.03 -0.749706 -0.349099 0
M  V30 36735 H 3512.57 -1.69672 0.0309008 0
M  V30 36736 H 3511.35 -3.90428 -0.261155 0
M  V30 36737 H 3510.97 -3.4801 -1.92289 0
M  V30 36738 N 3511.97 0.267771 -1.55309 0
M  V30 36739 C 3513.38 0.838429 -1.66815 0
M  V30 36740 C 3513.73 1.86844 -0.598642 0
M  V30 36741 O 3512.85 2.14845 0.258922 0
M  V30 36742 C 3513.45 1.52753 -3.0241 0
M  V30 36743 C 3512.01 2.04615 -3.15927 0
M  V30 36744 C 3511.15 0.889998 -2.6263 0
M  V30 36745 H 3514.1 0.0440076 -1.58639 0
M  V30 36746 H 3514.13 2.39473 -2.95691 0
M  V30 36747 H 3513.64 0.777628 -3.8023 0
M  V30 36748 H 3511.74 2.8255 -2.42891 0
M  V30 36749 H 3511.85 2.25787 -4.2256 0
M  V30 36750 H 3510.22 1.28481 -2.1992 0
M  V30 36751 H 3511 0.153519 -3.42957 0
M  V30 36752 O 3513.48 1.56116 0.413526 0
M  V30 36753 H 3514.17 1.6171 1.06628 0
M  V30 END ATOM
M  V30 BEGIN BOND
M  V30 END BOND
M  V30 END CTAB
M  END
$$$$
