drugbank_target|O75380 NADH dehydrogenase [ubiquinone] iron-sulfur protein 6, mitochondrial (DB00157)
 OpenBabel12092119243D

  0  0  0     0  0            999 V3000
M  V30 BEGIN CTAB
M  V30 COUNTS 1907 1924 0 0 0
M  V30 BEGIN ATOM
M  V30 1 H -0.908 1.98254 -0.117106 0
M  V30 2 N 0 1.576 0 0
M  V30 3 C 0.933 2.03868 1.02534 0
M  V30 4 C 1.911 0.928543 1.3348 0
M  V30 5 O 3.095 1.19667 1.45644 0
M  V30 6 C 0.222 2.43627 2.35294 0
M  V30 7 C -0.732 3.65373 2.2001 0
M  V30 8 S 0.101 5.13292 1.52614 0
M  V30 9 C 1.257 5.56322 2.86805 0
M  V30 10 H 1.49 2.90518 0.631377 0
M  V30 11 H -0.977 1.52953 0.210867 0
M  V30 12 H 0.981 2.67203 3.11629 0
M  V30 13 H -0.358 1.57376 2.7183 0
M  V30 14 H -1.165 3.90944 3.18086 0
M  V30 15 H -1.563 3.418 1.51819 0
M  V30 16 H 0.729 5.58782 3.83104 0
M  V30 17 H 1.672 6.56266 2.65933 0
M  V30 18 H 2.08 4.83886 2.90714 0
M  V30 19 N 1.4781 -0.272755 1.55222 0
M  V30 20 C 2.4411 -1.32041 1.87344 0
M  V30 21 C 3.4411 -1.42342 0.74803 0
M  V30 22 O 4.6311 -1.41488 1.0162 0
M  V30 23 C 1.7631 -2.70173 2.07893 0
M  V30 24 H 2.9561 -1.04789 2.80997 0
M  V30 25 H 0.5091 -0.51083 1.47717 0
M  V30 26 H 1.2441 -3.02605 1.16622 0
M  V30 27 H 1.0291 -2.64082 2.89833 0
M  V30 28 H 2.5191 -3.45869 2.34017 0
M  V30 29 N 2.9562 -1.48159 -0.537278 0
M  V30 30 C 3.9192 -1.61665 -1.62472 0
M  V30 31 C 4.9192 -0.490395 -1.5314 0
M  V30 32 O 6.1092 -0.755998 -1.5694 0
M  V30 33 C 3.2412 -1.57997 -3.02076 0
M  V30 34 H 4.4342 -2.58621 -1.51839 0
M  V30 35 H 1.9872 -1.36647 -0.758771 0
M  V30 36 H 2.7222 -0.624913 -3.18222 0
M  V30 37 H 2.5072 -2.39755 -3.10258 0
M  V30 38 H 3.9972 -1.70627 -3.81151 0
M  V30 39 N 4.4343 0.785586 -1.36625 0
M  V30 40 C 5.3973 1.87999 -1.31107 0
M  V30 41 C 6.3973 1.59316 -0.217959 0
M  V30 42 O 7.5873 1.67656 -0.472977 0
M  V30 43 C 4.7193 3.24861 -1.03334 0
M  V30 44 H 5.9123 1.94307 -2.2844 0
M  V30 45 H 3.4653 0.983813 -1.21453 0
M  V30 46 H 4.2003 3.24235 -0.0647432 0
M  V30 47 H 3.9853 3.4707 -1.82441 0
M  V30 48 H 5.4753 4.04929 -1.02088 0
M  V30 49 N 5.9124 1.20967 1.01018 0
M  V30 50 C 6.8454 0.907578 2.09376 0
M  V30 51 C 7.8234 -0.142868 1.61971 0
M  V30 52 O 9.0074 -0.0150391 1.88494 0
M  V30 53 C 6.1344 0.361791 3.36762 0
M  V30 54 C 5.1804 1.39423 4.03068 0
M  V30 55 S 6.0134 2.96159 4.4615 0
M  V30 56 C 7.1694 2.43173 5.7673 0
M  V30 57 H 7.4024 1.82519 2.34678 0
M  V30 58 H 4.9354 1.03884 1.14225 0
M  V30 59 H 6.8934 0.0534523 4.10465 0
M  V30 60 H 5.5544 -0.53443 3.0952 0
M  V30 61 H 4.7474 0.961853 4.94737 0
M  V30 62 H 4.3494 1.65038 3.35617 0
M  V30 63 H 6.6414 1.83335 6.52223 0
M  V30 64 H 7.5844 3.33264 6.24773 0
M  V30 65 H 7.9924 1.85069 5.33301 0
M  V30 66 N 7.3905 -1.2043 1.01659 0
M  V30 67 C 8.6185 -1.93777 0.725132 0
M  V30 68 C 9.0335 -1.74772 -0.714166 0
M  V30 69 O 8.3905 -1.06169 -1.4844 0
M  V30 70 C 8.4415 -3.45876 1.05129 0
M  V30 71 O 8.1625 -3.6426 2.43406 0
M  V30 72 C 9.6635 -4.36368 0.780891 0
M  V30 73 H 6.8835 -0.615901 0.266284 0
M  V30 74 H 9.4275 -1.52922 1.35776 0
M  V30 75 H 7.5825 -3.8461 0.464065 0
M  V30 76 H 7.9965 -4.58246 2.55169 0
M  V30 77 H 9.4705 -5.41743 1.05918 0
M  V30 78 H 9.9475 -4.38275 -0.284937 0
M  V30 79 H 10.5535 -4.03296 1.35027 0
M  V30 80 N 8.8686 -0.792821 -1.36206 0
M  V30 81 C 10.1156 -0.366786 -1.99151 0
M  V30 82 C 10.4436 1.06243 -1.62919 0
M  V30 83 O 9.6986 1.74927 -0.877442 0
M  V30 84 C 9.9976 -0.481501 -3.54142 0
M  V30 85 C 9.6636 -1.87202 -4.10203 0
M  V30 86 C 8.3256 -2.25248 -4.25226 0
M  V30 87 C 10.6776 -2.78237 -4.40719 0
M  V30 88 C 8.0056 -3.53723 -4.68078 0
M  V30 89 C 10.3576 -4.06144 -4.85005 0
M  V30 90 C 9.0216 -4.44207 -4.98234 0
M  V30 91 H 8.2916 -0.134217 -0.728743 0
M  V30 92 H 10.9386 -1.01094 -1.62641 0
M  V30 93 H 9.2436 0.246146 -3.91026 0
M  V30 94 H 10.9406 -0.132844 -4.0078 0
M  V30 95 H 7.5306 -1.56639 -3.98951 0
M  V30 96 H 11.7146 -2.50097 -4.28679 0
M  V30 97 H 6.9706 -3.8308 -4.76508 0
M  V30 98 H 11.1446 -4.76796 -5.07581 0
M  V30 99 H 8.7716 -5.43814 -5.31197 0
M  V30 100 N 10.3467 1.47872 -0.545128 0
M  V30 101 C 11.5867 2.04391 -0.0187854 0
M  V30 102 C 11.9507 1.41162 1.30144 0
M  V30 103 O 13.1517 1.88656 1.91474 0
M  V30 104 C 11.4227 3.57299 0.0850867 0
M  V30 105 S 12.9817 4.35221 0.559302 0
M  V30 106 H 9.7997 0.710737 -0.0193301 0
M  V30 107 H 12.4017 1.81395 -0.729125 0
M  V30 108 H 11.1057 4.00847 -0.880351 0
M  V30 109 H 10.6367 3.84773 0.819348 0
M  V30 110 H 12.6517 4.61571 1.82118 0
M  V30 111 N 11.8248 0.280983 1.55075 0
M  V30 112 C 13.2408 -0.0729964 1.59433 0
M  V30 113 C 13.4408 -1.5411 1.29817 0
M  V30 114 O 12.4968 -2.29086 1.06187 0
M  V30 115 C 13.8098 0.306921 2.9913 0
M  V30 116 C 15.3578 0.254023 3.11968 0
M  V30 117 C 15.8328 0.608467 4.5394 0
M  V30 118 N 17.3238 0.560241 4.59799 0
M  V30 119 C 18.0588 0.80722 5.6769 0
M  V30 120 N 17.5548 1.11912 6.83701 0
M  V30 121 N 19.3478 0.735623 5.57266 0
M  V30 122 H 11.4988 1.238 1.7259 0
M  V30 123 H 13.7618 0.500547 0.805082 0
M  V30 124 H 13.4678 1.32816 3.25657 0
M  V30 125 H 13.3418 -0.349363 3.75579 0
M  V30 126 H 15.7288 -0.75794 2.852 0
M  V30 127 H 15.8098 0.944649 2.37718 0
M  V30 128 H 15.4538 1.61814 4.81434 0
M  V30 129 H 15.3838 -0.104013 5.26497 0
M  V30 130 H 17.8748 0.329288 3.76463 0
M  V30 131 H 18.1878 1.29409 7.61888 0
M  V30 132 H 16.5328 1.15695 6.85303 0
M  V30 133 H 19.7238 0.491752 4.6551 0
M  V30 134 H 19.8968 0.931482 6.4127 0
M  V30 135 N 13.3029 -1.57598 0.00835791 0
M  V30 136 C 14.2329 -2.1198 -0.979113 0
M  V30 137 C 15.2139 -1.03091 -1.35301 0
M  V30 138 O 16.3989 -1.30818 -1.43528 0
M  V30 139 C 13.5289 -2.62995 -2.26828 0
M  V30 140 C 12.4829 -3.76485 -2.03576 0
M  V30 141 C 11.8089 -4.13846 -3.38579 0
M  V30 142 C 13.1089 -5.0342 -1.39161 0
M  V30 143 H 14.8029 -2.94738 -0.526281 0
M  V30 144 H 12.3489 -1.41783 -0.251704 0
M  V30 145 H 14.3019 -2.99669 -2.96271 0
M  V30 146 H 13.0259 -1.7737 -2.7424 0
M  V30 147 H 11.6849 -3.40217 -1.36557 0
M  V30 148 H 11.3329 -3.25232 -3.83709 0
M  V30 149 H 11.0329 -4.90312 -3.23834 0
M  V30 150 H 12.5569 -4.53086 -4.09323 0
M  V30 151 H 13.9709 -5.37812 -1.98573 0
M  V30 152 H 12.3679 -5.84746 -1.34878 0
M  V30 153 H 13.4379 -4.83548 -0.361868 0
M  V30 154 N 14.781 0.264519 -1.55364 0
M  V30 155 C 15.711 1.33121 -1.91836 0
M  V30 156 C 16.692 1.51101 -0.781192 0
M  V30 157 O 17.877 1.64003 -1.04003 0
M  V30 158 C 15.007 2.68921 -2.19769 0
M  V30 159 C 13.961 2.65661 -3.35571 0
M  V30 160 C 13.287 4.05093 -3.49004 0
M  V30 161 C 14.587 2.24187 -4.71739 0
M  V30 162 H 16.281 1.02844 -2.81182 0
M  V30 163 H 13.827 0.493286 -1.35287 0
M  V30 164 H 15.78 3.43663 -2.43872 0
M  V30 165 H 14.504 3.00799 -1.27231 0
M  V30 166 H 13.163 1.93377 -3.1145 0
M  V30 167 H 12.811 4.34206 -2.53917 0
M  V30 168 H 12.511 4.03804 -4.26868 0
M  V30 169 H 14.035 4.81561 -3.75408 0
M  V30 170 H 15.449 2.88654 -4.9533 0
M  V30 171 H 13.846 2.34044 -5.52579 0
M  V30 172 H 14.916 1.19327 -4.69988 0
M  V30 173 N 16.2591 1.48442 0.529413 0
M  V30 174 C 17.2071 1.63452 1.65487 0
M  V30 175 C 18.2011 0.500955 1.61823 0
M  V30 176 O 19.4071 0.679695 1.66674 0
M  V30 177 H 15.7821 0.514905 0.548066 0
M  V30 178 H 17.7531 2.57975 1.49971 0
M  V30 179 C 16.5021 1.69196 3.03756 0
M  V30 180 H 15.8251 2.55784 3.07269 0
M  V30 181 H 17.2651 1.83743 3.82119 0
M  V30 182 C 15.7241 0.430765 3.34135 0
M  V30 183 O 16.2541 -0.4561 3.99102 0
M  V30 184 N 14.4601 0.302293 2.89023 0
M  V30 185 H 14.0071 1.02496 2.36331 0
M  V30 186 H 13.9651 -0.540546 3.09718 0
M  V30 187 N 17.7372 -0.778329 1.37039 0
M  V30 188 C 19.1532 -1.07796 1.17695 0
M  V30 189 C 19.3532 -2.01498 0.00860115 0
M  V30 190 O 18.4092 -2.43901 -0.653352 0
M  V30 191 C 19.7222 -1.68178 2.49272 0
M  V30 192 C 21.2702 -1.80467 2.55735 0
M  V30 193 C 21.7452 -2.44263 3.87427 0
M  V30 194 N 23.2362 -2.51721 3.88833 0
M  V30 195 C 23.9712 -3.01919 4.87476 0
M  V30 196 N 23.4672 -3.5234 5.96513 0
M  V30 197 N 25.2602 -3.00733 4.74885 0
M  V30 198 H 17.4112 -0.156032 2.11826 0
M  V30 199 H 19.6742 -0.131844 0.938787 0
M  V30 200 H 19.3802 -1.06796 3.35093 0
M  V30 201 H 19.2542 -2.67554 2.65885 0
M  V30 202 H 21.6412 -2.40984 1.70325 0
M  V30 203 H 21.7222 -0.798656 2.43013 0
M  V30 204 H 21.3662 -1.84388 4.73248 0
M  V30 205 H 21.2962 -3.45458 3.9745 0
M  V30 206 H 23.7872 -2.1603 3.10063 0
M  V30 207 H 24.1002 -3.89027 6.67741 0
M  V30 208 H 22.4452 -3.50462 6.00168 0
M  V30 209 H 25.6362 -2.60638 3.88826 0
M  V30 210 H 25.8092 -3.39545 5.51918 0
M  V30 211 N 19.2153 -1.21501 -1.00376 0
M  V30 212 C 20.4553 -1.04444 -1.75701 0
M  V30 213 C 20.8193 0.414644 -1.87469 0
M  V30 214 O 22.0203 0.705763 -2.59369 0
M  V30 215 C 20.2913 -1.72389 -3.13077 0
M  V30 216 S 21.8503 -1.70604 -4.04277 0
M  V30 217 H 18.6683 -0.374249 -0.604532 0
M  V30 218 H 21.2703 -1.54267 -1.20091 0
M  V30 219 H 19.9743 -2.77734 -3.02146 0
M  V30 220 H 19.5053 -1.22751 -3.73759 0
M  V30 221 H 21.5203 -0.748012 -4.9053 0
M  V30 222 N 20.6934 1.19889 -1.02296 0
M  V30 223 C 21.9414 1.89046 -0.714558 0
M  V30 224 C 22.2624 1.79636 0.758681 0
M  V30 225 O 21.5324 1.20292 1.54618 0
M  V30 226 H 20.1124 0.699802 -0.261317 0
M  V30 227 H 22.7744 1.45574 -1.29592 0
M  V30 228 H 21.8704 2.95524 -1.0036 0
M  V30 229 N 22.1715 0.800033 1.35784 0
M  V30 230 C 23.0815 0.207204 2.33683 0
M  V30 231 C 24.0975 -0.64631 1.61551 0
M  V30 232 O 25.2735 -0.559604 1.93469 0
M  V30 233 C 22.3385 -0.639659 3.40748 0
M  V30 234 C 21.3995 0.233585 4.28664 0
M  V30 235 C 20.6325 -0.572954 5.30616 0
M  V30 236 O 20.8555 -1.80816 5.40982 0
M  V30 237 O 19.7895 0.0327285 6.01891 0
M  V30 238 H 23.6155 1.01692 2.86169 0
M  V30 239 H 21.2005 0.561691 1.38439 0
M  V30 240 H 23.0825 -1.12223 4.06182 0
M  V30 241 H 21.7575 -1.42708 2.90544 0
M  V30 242 H 20.6645 0.763147 3.66233 0
M  V30 243 H 21.9975 0.984784 4.82248 0
M  V30 244 N 23.6496 -1.47581 0.552962 0
M  V30 245 C 24.6126 -2.28439 -0.186605 0
M  V30 246 C 25.6126 -1.36706 -0.84665 0
M  V30 247 O 26.8026 -1.59378 -0.703164 0
M  V30 248 C 23.9346 -3.16264 -1.2724 0
M  V30 249 H 25.1276 -2.95294 0.523609 0
M  V30 250 H 22.6806 -1.532 0.309745 0
M  V30 251 H 23.4156 -2.54091 -2.01514 0
M  V30 252 H 23.2006 -3.83769 -0.803968 0
M  V30 253 H 24.6906 -3.77198 -1.79196 0
M  V30 254 N 25.1277 -0.289203 -1.54924 0
M  V30 255 C 26.0907 0.579144 -2.21762 0
M  V30 256 C 27.0907 1.07047 -1.1999 0
M  V30 257 O 28.2807 0.968384 -1.44803 0
M  V30 258 C 25.4127 1.80055 -2.8947 0
M  V30 259 H 26.6057 -0.00464908 -2.999 0
M  V30 260 H 24.1587 -0.0399306 -1.56249 0
M  V30 261 H 24.8937 2.42449 -2.15381 0
M  V30 262 H 24.6787 1.45602 -3.64064 0
M  V30 263 H 26.1687 2.41773 -3.40493 0
M  V30 264 N 26.6058 1.57591 -0.0167156 0
M  V30 265 C 28.0218 1.55946 0.339557 0
M  V30 266 C 28.2218 1.02109 1.73713 0
M  V30 267 O 27.2778 0.662303 2.43659 0
M  V30 268 C 28.5908 3.00037 0.199499 0
M  V30 269 C 30.1388 3.11805 0.273193 0
M  V30 270 C 30.6138 4.57713 0.162068 0
M  V30 271 N 32.1048 4.6268 0.219444 0
M  V30 272 C 32.8398 5.73185 0.157054 0
M  V30 273 N 32.3358 6.92786 0.0442936 0
M  V30 274 N 34.1288 5.61707 0.21014 0
M  V30 275 H 26.2798 1.90921 -0.930758 0
M  V30 276 H 28.5428 0.877674 -0.358319 0
M  V30 277 H 28.2488 3.4333 -0.76273 0
M  V30 278 H 28.1228 3.64387 0.974786 0
M  V30 279 H 30.5098 2.68433 1.22587 0
M  V30 280 H 30.5908 2.50201 -0.532256 0
M  V30 281 H 30.2348 5.01763 -0.78714 0
M  V30 282 H 30.1648 5.17283 0.986222 0
M  V30 283 H 32.6558 3.76649 0.307246 0
M  V30 284 H 32.9688 7.728 0.00304069 0
M  V30 285 H 31.3138 6.94999 0.00968457 0
M  V30 286 H 34.5048 4.6716 0.296546 0
M  V30 287 H 34.6778 6.47807 0.158054 0
M  V30 288 N 28.0839 -0.256276 1.55502 0
M  V30 289 C 29.3089 -1.00766 1.81276 0
M  V30 290 C 29.7339 -1.78524 0.59252 0
M  V30 291 O 29.0919 -1.75413 -0.45827 0
M  V30 292 C 29.1399 -1.92869 3.04687 0
M  V30 293 O 28.2439 -3.019 2.80945 0
M  V30 294 H 27.5849 -0.287224 0.598664 0
M  V30 295 H 30.1149 -0.280109 2.02674 0
M  V30 296 H 30.1249 -2.34511 3.33869 0
M  V30 297 H 28.7999 -1.35689 3.93143 0
M  V30 298 H 27.3769 -2.64454 2.62904 0
M  V30 299 N 29.562 -1.4872 -0.521534 0
M  V30 300 C 30.492 -1.66771 -1.63431 0
M  V30 301 C 31.473 -0.516499 -1.62069 0
M  V30 302 O 32.658 -0.750013 -1.79132 0
M  V30 303 C 29.788 -1.71515 -3.01993 0
M  V30 304 C 28.742 -2.86222 -3.18216 0
M  V30 305 C 28.068 -2.76061 -4.57924 0
M  V30 306 C 29.368 -4.27419 -3.00184 0
M  V30 307 H 31.062 -2.59932 -1.48579 0
M  V30 308 H 28.608 -1.25089 -0.713358 0
M  V30 309 H 30.561 -1.82731 -3.7972 0
M  V30 310 H 29.285 -0.749393 -3.17886 0
M  V30 311 H 27.944 -2.74575 -2.42908 0
M  V30 312 H 27.592 -1.77437 -4.70665 0
M  V30 313 H 27.292 -3.53037 -4.69722 0
M  V30 314 H 28.816 -2.89256 -5.37739 0
M  V30 315 H 30.23 -4.39855 -3.67697 0
M  V30 316 H 28.627 -5.05458 -3.2347 0
M  V30 317 H 29.697 -4.43293 -1.96518 0
M  V30 318 N 31.0401 0.771051 -1.3745 0
M  V30 319 C 32.4511 1.34737 -1.29239 0
M  V30 320 C 32.8021 1.96109 0.0596908 0
M  V30 321 O 31.9271 1.93865 0.961534 0
M  V30 322 C 32.5221 2.44973 -2.34037 0
M  V30 323 C 31.0811 2.98372 -2.29458 0
M  V30 324 C 30.2281 1.71595 -2.17831 0
M  V30 325 H 33.1791 0.571256 -1.48062 0
M  V30 326 H 33.2001 3.24471 -1.98744 0
M  V30 327 H 32.7121 2.00276 -3.32432 0
M  V30 328 H 30.8131 3.47443 -1.34589 0
M  V30 329 H 30.9261 3.53939 -3.229 0
M  V30 330 H 29.2901 1.94547 -1.64388 0
M  V30 331 H 30.0731 1.29001 -3.18141 0
M  V30 332 N 32.5182 1.22032 0.997298 0
M  V30 333 C 33.4482 1.01065 2.10495 0
M  V30 334 C 34.4292 -0.0669542 1.69968 0
M  V30 335 O 35.6142 0.0943987 1.9397 0
M  V30 336 C 32.7442 0.582874 3.42374 0
M  V30 337 C 31.6982 1.60592 3.96729 0
M  V30 338 C 31.0242 1.03412 5.24605 0
M  V30 339 C 32.3242 2.99478 4.27914 0
M  V30 340 H 34.0182 1.93708 2.28292 0
M  V30 341 H 31.5642 0.932761 1.09707 0
M  V30 342 H 33.5172 0.423332 4.19268 0
M  V30 343 H 32.2412 -0.379213 3.24391 0
M  V30 344 H 30.9002 1.75316 3.21963 0
M  V30 345 H 30.5482 0.063518 5.0296 0
M  V30 346 H 30.2482 1.71754 5.61938 0
M  V30 347 H 31.7722 0.886066 6.04137 0
M  V30 348 H 33.1862 2.88153 4.95622 0
M  V30 349 H 31.5832 3.64903 4.76409 0
M  V30 350 H 32.6532 3.49742 3.3587 0
M  V30 351 N 33.9963 -1.19345 1.0293 0
M  V30 352 C 35.2443 -1.88665 0.724574 0
M  V30 353 C 35.5653 -1.80036 -0.749144 0
M  V30 354 O 34.8353 -1.2111 -1.53978 0
M  V30 355 H 33.4153 -0.698406 0.265025 0
M  V30 356 H 36.0773 -1.44885 1.30362 0
M  V30 357 H 35.1733 -2.94987 1.01926 0
M  V30 358 N 35.4744 -0.807222 -1.35358 0
M  V30 359 C 36.4374 -0.223665 -2.28106 0
M  V30 360 C 37.4374 0.589354 -1.4961 0
M  V30 361 O 38.6274 0.407745 -1.69361 0
M  V30 362 C 35.7594 0.688149 -3.33882 0
M  V30 363 H 36.9524 -1.04169 -2.81227 0
M  V30 364 H 34.5054 -0.577921 -1.45223 0
M  V30 365 H 35.2404 1.52984 -2.85948 0
M  V30 366 H 35.0254 0.10687 -3.91954 0
M  V30 367 H 36.5154 1.09075 -4.03104 0
M  V30 368 N 36.9525 1.47285 -0.560781 0
M  V30 369 C 38.3685 1.58065 -0.22081 0
M  V30 370 C 38.5685 1.55892 1.27671 0
M  V30 371 O 37.6245 1.46422 2.0571 0
M  V30 372 C 38.9375 2.88418 -0.850625 0
M  V30 373 C 40.4855 3.02009 -0.822184 0
M  V30 374 C 40.9605 4.35066 -1.43113 0
M  V30 375 N 42.4515 4.41711 -1.39448 0
M  V30 376 C 43.1865 5.43237 -1.83525 0
M  V30 377 N 42.6825 6.51555 -2.35474 0
M  V30 378 N 44.4755 5.34304 -1.74574 0
M  V30 379 H 36.6265 1.46941 -1.53369 0
M  V30 380 H 38.8895 0.699558 -0.639783 0
M  V30 381 H 38.5955 2.95755 -1.9032 0
M  V30 382 H 38.4695 3.75612 -0.345773 0
M  V30 383 H 40.8565 2.94266 0.221714 0
M  V30 384 H 40.9375 2.16347 -1.36483 0
M  V30 385 H 40.5815 4.43565 -2.47412 0
M  V30 386 H 40.5115 5.19465 -0.863899 0
M  V30 387 H 43.0025 3.64027 -1.01452 0
M  V30 388 H 43.3155 7.25203 -2.67021 0
M  V30 389 H 41.6605 6.52435 -2.39487 0
M  V30 390 H 44.8515 4.48581 -1.33763 0
M  V30 391 H 45.0245 6.13288 -2.09242 0
M  V30 392 N 38.4306 0.297415 1.54768 0
M  V30 393 C 39.6706 -0.313829 2.01976 0
M  V30 394 C 40.0346 -1.51366 1.1812 0
M  V30 395 O 41.2356 -2.19603 1.5501 0
M  V30 396 C 39.5066 -0.664964 3.51159 0
M  V30 397 S 41.0656 -1.25958 4.20333 0
M  V30 398 H 37.8836 -0.0965014 0.704421 0
M  V30 399 H 40.4856 0.424451 1.90837 0
M  V30 400 H 39.1896 0.21681 4.09827 0
M  V30 401 H 38.7206 -1.43413 3.66328 0
M  V30 402 H 40.7356 -2.54751 4.25813 0
M  V30 403 N 39.9087 -1.5758 0.0250728 0
M  V30 404 C 41.1557 -1.91633 -0.654444 0
M  V30 405 C 41.4837 -0.901103 -1.72367 0
M  V30 406 O 40.7387 0.0905647 -1.9549 0
M  V30 407 C 41.0377 -3.32421 -1.31268 0
M  V30 408 C 40.7037 -4.49344 -0.374223 0
M  V30 409 C 39.3657 -4.8106 -0.115911 0
M  V30 410 C 41.7177 -5.20498 0.270432 0
M  V30 411 C 39.0457 -5.8129 0.79493 0
M  V30 412 C 41.3977 -6.21699 1.1693 0
M  V30 413 C 40.0617 -6.51859 1.43655 0
M  V30 414 H 39.3317 -0.701236 -0.239478 0
M  V30 415 H 41.9787 -1.91307 0.0859734 0
M  V30 416 H 40.2837 -3.28989 -2.12775 0
M  V30 417 H 41.9807 -3.56038 -1.84494 0
M  V30 418 H 38.5707 -4.24579 -0.58573 0
M  V30 419 H 42.7547 -4.96229 0.0839194 0
M  V30 420 H 38.0107 -6.03005 1.00973 0
M  V30 421 H 42.1847 -6.75955 1.67504 0
M  V30 422 H 39.8117 -7.2934 2.144 0
M  V30 423 N 41.3868 0.248026 -1.55636 0
M  V30 424 C 42.6348 0.974295 -1.77065 0
M  V30 425 C 42.9558 1.85897 -0.588849 0
M  V30 426 O 42.2258 1.91868 0.395407 0
M  V30 427 H 40.8058 0.362733 -0.653019 0
M  V30 428 H 43.4678 0.266244 -1.93073 0
M  V30 429 H 42.5638 1.59667 -2.68166 0
M  V30 430 N 42.8649 1.48995 0.513639 0
M  V30 431 C 44.1109 1.58076 1.27042 0
M  V30 432 C 44.4439 0.261026 1.92438 0
M  V30 433 O 43.7189 -0.734393 1.80103 0
M  V30 434 C 44.0019 2.73091 2.34719 0
M  V30 435 C 43.8549 4.14821 1.73907 0
M  V30 436 C 45.1739 2.83796 3.36375 0
M  V30 437 H 42.2929 0.575391 0.460536 0
M  V30 438 H 44.9349 1.81232 0.570516 0
M  V30 439 H 43.0849 2.53479 2.94416 0
M  V30 440 H 44.7569 4.45917 1.18135 0
M  V30 441 H 42.9999 4.21058 1.0437 0
M  V30 442 H 43.6709 4.91147 2.51949 0
M  V30 443 H 46.1469 3.01611 2.86653 0
M  V30 444 H 45.0229 3.65971 4.09093 0
M  V30 445 H 45.2839 1.92624 3.9793 0
M  V30 446 N 44.343 -0.763751 1.37857 0
M  V30 447 C 45.759 -1.06542 1.18832 0
M  V30 448 C 45.959 -2.01478 0.0299722 0
M  V30 449 O 45.015 -2.4458 -0.627447 0
M  V30 450 C 46.328 -1.65525 2.51042 0
M  V30 451 C 47.876 -1.77745 2.57635 0
M  V30 452 C 48.351 -2.4014 3.89996 0
M  V30 453 N 49.842 -2.47582 3.91481 0
M  V30 454 C 50.577 -2.96732 4.9065 0
M  V30 455 N 50.073 -3.45993 6.00217 0
M  V30 456 N 51.866 -2.95679 4.78048 0
M  V30 457 H 44.017 -0.133556 2.1198 0
M  V30 458 H 46.28 -0.121879 0.940133 0
M  V30 459 H 45.986 -1.03236 3.36207 0
M  V30 460 H 45.86 -2.64719 2.68707 0
M  V30 461 H 48.247 -2.39164 1.72872 0
M  V30 462 H 48.328 -0.772836 2.43846 0
M  V30 463 H 47.972 -1.79358 4.75177 0
M  V30 464 H 47.902 -3.41223 4.01092 0
M  V30 465 H 50.393 -2.1273 3.12337 0
M  V30 466 H 50.706 -3.81922 6.7183 0
M  V30 467 H 49.051 -3.44077 6.03851 0
M  V30 468 H 52.242 -2.56499 3.91568 0
M  V30 469 H 52.415 -3.33672 5.55488 0
M  V30 470 N 45.8211 -1.22559 -0.990812 0
M  V30 471 C 47.0671 -1.05297 -1.73322 0
M  V30 472 C 47.4001 0.410655 -1.89808 0
M  V30 473 O 46.6751 1.30439 -1.44277 0
M  V30 474 C 46.9581 -1.76713 -3.13759 0
M  V30 475 C 46.8111 -3.30684 -3.04907 0
M  V30 476 C 48.1301 -1.52121 -4.12974 0
M  V30 477 H 45.2491 -0.38392 -0.629106 0
M  V30 478 H 47.8911 -1.50926 -1.15418 0
M  V30 479 H 46.0411 -1.37924 -3.63193 0
M  V30 480 H 47.7131 -3.7893 -2.63077 0
M  V30 481 H 45.9561 -3.60253 -2.41661 0
M  V30 482 H 46.6271 -3.75833 -4.04294 0
M  V30 483 H 49.1031 -1.85819 -3.72304 0
M  V30 484 H 47.9791 -2.04582 -5.0935 0
M  V30 485 H 48.2401 -0.454257 -4.3976 0
M  V30 486 N 47.2992 1.18797 -1.03562 0
M  V30 487 C 48.5242 1.9314 -0.755764 0
M  V30 488 C 48.9492 1.7537 0.68022 0
M  V30 489 O 48.3072 1.06046 1.47051 0
M  V30 490 C 48.3552 3.42747 -1.12058 0
M  V30 491 O 47.4592 4.11683 -0.243124 0
M  V30 492 H 46.8002 0.602724 -0.278604 0
M  V30 493 H 49.3302 1.50678 -1.3841 0
M  V30 494 H 49.3402 3.93437 -1.08035 0
M  V30 495 H 48.0152 3.55002 -2.16672 0
M  V30 496 H 46.5922 3.71323 -0.342539 0
M  V30 497 N 48.7773 0.814389 1.34928 0
M  V30 498 C 50.1883 0.458364 1.80986 0
M  V30 499 C 50.5393 -1.02042 1.67577 0
M  V30 500 O 49.6643 -1.79352 1.21086 0
M  V30 501 C 50.2593 0.825212 3.28597 0
M  V30 502 C 48.8183 0.521677 3.72767 0
M  V30 503 C 47.9653 1.04668 2.56788 0
M  V30 504 H 50.9163 1.00533 1.22795 0
M  V30 505 H 50.9373 0.12571 3.80292 0
M  V30 506 H 50.4493 1.90154 3.38324 0
M  V30 507 H 48.5503 -0.545589 3.68584 0
M  V30 508 H 48.6633 1.05977 4.67232 0
M  V30 509 H 47.0273 0.468622 2.50352 0
M  V30 510 H 47.8103 2.12927 2.6929 0
M  V30 511 N 50.2554 -1.46986 0.568584 0
M  V30 512 C 51.4834 -2.0683 0.0539956 0
M  V30 513 C 51.8984 -1.41953 -1.24478 0
M  V30 514 O 51.2554 -0.519933 -1.74937 0
M  V30 515 C 51.3064 -3.61254 -0.133362 0
M  V30 516 O 51.0274 -4.237 1.11399 0
M  V30 517 C 52.5284 -4.37992 -0.683927 0
M  V30 518 H 49.7484 -0.669058 0.0510141 0
M  V30 519 H 52.2924 -1.88824 0.785234 0
M  V30 520 H 50.4474 -3.78735 -0.81477 0
M  V30 521 H 50.8614 -5.16388 0.91888 0
M  V30 522 H 52.3354 -5.46684 -0.764263 0
M  V30 523 H 52.8124 -4.05058 -1.69778 0
M  V30 524 H 53.4184 -4.25283 -0.0378494 0
M  V30 525 N 51.7335 -0.305618 -1.54608 0
M  V30 526 C 52.9815 0.301701 -1.99835 0
M  V30 527 C 53.3025 1.54054 -1.19551 0
M  V30 528 O 52.5725 1.93702 -0.292658 0
M  V30 529 H 51.1525 0.114468 -0.738178 0
M  V30 530 H 53.8145 -0.418016 -1.90364 0
M  V30 531 H 52.9105 0.570548 -3.06841 0
M  V30 532 N 53.2116 1.57565 -0.0334293 0
M  V30 533 C 54.1216 2.13943 0.962572 0
M  V30 534 C 55.1376 1.09276 1.35406 0
M  V30 535 O 56.3136 1.41355 1.4346 0
M  V30 536 C 53.3786 2.65887 2.22497 0
M  V30 537 C 52.4396 3.85286 1.8935 0
M  V30 538 C 51.6726 4.34743 3.09571 0
M  V30 539 O 51.8956 3.83352 4.22371 0
M  V30 540 O 50.8296 5.26538 2.91618 0
M  V30 541 H 54.6556 2.99333 0.513169 0
M  V30 542 H 52.2406 1.4822 0.18743 0
M  V30 543 H 54.1226 2.99346 2.96598 0
M  V30 544 H 52.7976 1.83578 2.6661 0
M  V30 545 H 51.7046 3.56746 1.1262 0
M  V30 546 H 53.0376 4.68771 1.5005 0
M  V30 547 N 54.6897 -0.239769 1.55765 0
M  V30 548 C 55.6367 -1.29696 1.90913 0
M  V30 549 C 56.6067 -1.47478 0.764164 0
M  V30 550 O 57.7917 -1.61345 1.01845 0
M  V30 551 C 54.9317 -2.64598 2.21544 0
M  V30 552 C 54.0447 -2.54765 3.48882 0
M  V30 553 C 53.1797 -3.82069 3.69049 0
M  V30 554 C 52.2187 -3.66883 4.89963 0
M  V30 555 N 51.3557 -4.86094 5.06614 0
M  V30 556 H 56.1957 -0.990224 2.81067 0
M  V30 557 H 53.7327 -0.477684 1.39128 0
M  V30 558 H 55.6907 -3.43132 2.3731 0
M  V30 559 H 54.3207 -2.93405 1.34585 0
M  V30 560 H 53.3727 -1.67763 3.41409 0
M  V30 561 H 54.6847 -2.39457 4.37563 0
M  V30 562 H 53.8387 -4.69046 3.84812 0
M  V30 563 H 52.5777 -4.00282 2.78614 0
M  V30 564 H 51.5827 -2.78289 4.74168 0
M  V30 565 H 52.8077 -3.50157 5.81865 0
M  V30 566 H 50.7537 -5.04655 4.19117 0
M  V30 567 H 50.6707 -4.73443 5.89396 0
M  V30 568 H 51.9387 -5.74549 5.26795 0
M  V30 569 N 56.1678 -1.49265 -0.50573 0
M  V30 570 C 57.4138 -1.58748 -1.26202 0
M  V30 571 C 57.7468 -0.271227 -1.92297 0
M  V30 572 O 57.0218 0.724831 -1.80489 0
M  V30 573 C 57.3048 -2.74332 -2.33268 0
M  V30 574 C 57.1578 -4.15737 -1.71705 0
M  V30 575 C 58.4768 -2.85576 -3.34865 0
M  V30 576 H 55.5958 -0.577826 -0.457478 0
M  V30 577 H 58.2378 -1.81532 -0.560897 0
M  V30 578 H 56.3878 -2.55036 -2.93068 0
M  V30 579 H 58.0598 -4.46537 -1.15769 0
M  V30 580 H 56.3028 -4.21605 -1.02135 0
M  V30 581 H 56.9738 -4.92477 -2.49341 0
M  V30 582 H 59.4498 -3.03127 -2.8505 0
M  V30 583 H 58.3258 -3.68135 -4.07146 0
M  V30 584 H 58.5868 -1.94732 -3.96903 0
M  V30 585 N 57.6459 0.756429 -1.3826 0
M  V30 586 C 58.8739 1.54565 -1.3754 0
M  V30 587 C 59.2889 1.88767 0.0355331 0
M  V30 588 O 58.6459 1.52572 1.0014 0
M  V30 589 C 58.6969 2.84654 -2.22833 0
M  V30 590 O 58.4179 2.51912 -3.5843 0
M  V30 591 C 59.9189 3.78807 -2.30261 0
M  V30 592 H 57.1389 0.478353 -0.470553 0
M  V30 593 H 59.6829 0.936381 -1.81803 0
M  V30 594 H 57.8379 3.41965 -1.8204 0
M  V30 595 H 58.2519 3.35325 -4.03308 0
M  V30 596 H 59.7259 4.67045 -2.94233 0
M  V30 597 H 60.2029 4.19038 -1.31545 0
M  V30 598 H 60.8089 3.2742 -2.71433 0
M  V30 599 N 59.124 1.23083 0.984299 0
M  V30 600 C 60.074 0.975749 2.06066 0
M  V30 601 C 61.058 -0.0768251 1.60716 0
M  V30 602 O 62.25 0.134805 1.76486 0
M  V30 603 C 59.379 0.564673 3.38624 0
M  V30 604 C 58.465 1.65244 3.90583 0
M  V30 605 N 58.856 2.88193 4.15666 0
M  V30 606 C 57.154 1.52612 4.19077 0
M  V30 607 C 57.855 3.58593 4.58024 0
M  V30 608 N 56.831 2.86093 4.62225 0
M  V30 609 H 60.633 1.90957 2.23411 0
M  V30 610 H 58.147 1.12963 1.16675 0
M  V30 611 H 60.144 0.36322 4.15315 0
M  V30 612 H 58.804 -0.362147 3.22674 0
M  V30 613 H 59.815 3.24537 4.03604 0
M  V30 614 H 56.492 0.666121 4.12152 0
M  V30 615 H 57.882 4.63974 4.85982 0
M  V30 616 N 60.6021 -1.18246 1.0419 0
M  V30 617 C 61.8301 -1.92195 0.766072 0
M  V30 618 C 62.2451 -1.76247 -0.676933 0
M  V30 619 O 61.6021 -1.09293 -1.46155 0
M  V30 620 C 61.6531 -3.43568 1.12442 0
M  V30 621 O 61.3741 -3.59015 2.51078 0
M  V30 622 C 62.8751 -4.34613 0.873275 0
M  V30 623 H 60.0951 -0.610114 0.279288 0
M  V30 624 H 62.6391 -1.50007 1.38989 0
M  V30 625 H 60.7941 -3.8354 0.545542 0
M  V30 626 H 61.2081 -4.5273 2.64831 0
M  V30 627 H 62.6821 -5.39374 1.17385 0
M  V30 628 H 63.1591 -4.38781 -0.191909 0
M  V30 629 H 63.7651 -4.00341 1.43551 0
M  V30 630 N 62.0802 -0.821533 -1.34494 0
M  V30 631 C 63.3282 -0.408139 -1.97936 0
M  V30 632 C 63.6492 1.03193 -1.65457 0
M  V30 633 O 62.9192 1.71622 -0.944595 0
M  V30 634 H 61.4992 -0.147928 -0.732206 0
M  V30 635 H 64.1612 -1.05067 -1.64155 0
M  V30 636 H 63.2572 -0.52601 -3.07635 0
M  V30 637 N 63.5583 1.46682 -0.576371 0
M  V30 638 C 64.4903 2.28341 0.198231 0
M  V30 639 C 65.5033 1.38141 0.861453 0
M  V30 640 O 66.6923 1.62797 0.732082 0
M  V30 641 C 63.7923 3.12986 1.29972 0
M  V30 642 C 62.9653 4.31271 0.729639 0
M  V30 643 C 62.0243 4.97363 1.71803 0
M  V30 644 O 61.0503 5.55156 1.25658 0
M  V30 645 N 62.2523 4.93796 3.05198 0
M  V30 646 H 65.0173 2.9546 -0.502324 0
M  V30 647 H 62.5783 1.56525 -0.413715 0
M  V30 648 H 64.5703 3.54066 1.96008 0
M  V30 649 H 63.1403 2.47984 1.90323 0
M  V30 650 H 62.3603 3.94052 -0.108012 0
M  V30 651 H 63.6483 5.07739 0.328438 0
M  V30 652 H 63.0463 4.48077 3.45317 0
M  V30 653 H 61.6033 5.38837 3.6674 0
M  V30 654 N 65.0364 0.313813 1.54444 0
M  V30 655 C 66.2824 -0.292108 2.00685 0
M  V30 656 C 66.6154 -1.52548 1.20177 0
M  V30 657 O 65.8904 -1.92452 0.281531 0
M  V30 658 C 66.1734 -0.635968 3.5444 0
M  V30 659 C 66.0264 0.607437 4.4568 0
M  V30 660 C 67.3454 -1.45747 4.15266 0
M  V30 661 H 64.4644 -0.104697 0.729526 0
M  V30 662 H 67.1064 0.428457 1.85106 0
M  V30 663 H 65.2564 -1.24986 3.67846 0
M  V30 664 H 66.9284 1.24581 4.44159 0
M  V30 665 H 65.1714 1.23822 4.15753 0
M  V30 666 H 65.8424 0.322515 5.51057 0
M  V30 667 H 68.3184 -0.938645 4.05375 0
M  V30 668 H 67.1944 -1.66683 5.2298 0
M  V30 669 H 67.4554 -2.45063 3.67963 0
M  V30 670 N 66.5145 -1.57545 0.0417849 0
M  V30 671 C 67.7445 -1.96339 -0.642995 0
M  V30 672 C 68.1525 -0.917536 -1.65463 0
M  V30 673 O 67.4955 0.107747 -1.83384 0
M  V30 674 C 67.5575 -3.31333 -1.39494 0
M  V30 675 C 67.2215 -4.53796 -0.540204 0
M  V30 676 C 68.2185 -5.19553 0.189806 0
M  V30 677 C 65.9035 -5.0006 -0.473886 0
M  V30 678 C 67.8975 -6.29904 0.974674 0
M  V30 679 C 65.5845 -6.10289 0.314677 0
M  V30 680 C 66.5825 -6.75072 1.03765 0
M  V30 681 O 66.2705 -7.83183 1.81327 0
M  V30 682 H 66.0025 -0.651241 -0.181277 0
M  V30 683 H 68.5565 -2.05148 0.101665 0
M  V30 684 H 66.7865 -3.19052 -2.18502 0
M  V30 685 H 68.4755 -3.54942 -1.96904 0
M  V30 686 H 69.2415 -4.84774 0.147981 0
M  V30 687 H 65.1205 -4.49433 -1.0262 0
M  V30 688 H 68.6645 -6.80401 1.5395 0
M  V30 689 H 64.5615 -6.44506 0.358174 0
M  V30 690 H 65.3295 -7.99913 1.73438 0
M  V30 691 N 67.9926 0.231505 -1.5589 0
M  V30 692 C 69.2696 0.981096 -1.69215 0
M  V30 693 C 69.6496 2.02799 -0.586164 0
M  V30 694 O 68.9976 2.24823 0.408253 0
M  V30 695 C 69.2076 1.60054 -3.10135 0
M  V30 696 C 70.5556 2.09658 -3.69227 0
M  V30 697 O 71.5796 1.69967 -3.13033 0
M  V30 698 O 70.4386 2.8258 -4.67772 0
M  V30 699 H 67.5326 0.457653 -0.688827 0
M  V30 700 H 70.0786 0.224073 -1.68214 0
M  V30 701 H 68.8506 0.844105 -3.82087 0
M  V30 702 H 68.4736 2.42336 -3.15212 0
M  V30 703 N 69.4707 1.49531 0.497807 0
M  V30 704 C 70.7477 1.49682 1.25915 0
M  V30 705 C 71.1277 0.226339 2.09883 0
M  V30 706 O 70.4757 -0.791189 2.14365 0
M  V30 707 C 70.6857 2.77755 2.11313 0
M  V30 708 C 72.0337 3.27371 2.70395 0
M  V30 709 O 73.0577 2.78894 2.21578 0
M  V30 710 O 71.9167 4.11808 3.59272 0
M  V30 711 H 69.0107 0.599228 0.56996 0
M  V30 712 H 71.5567 1.61798 0.511816 0
M  V30 713 H 70.3287 3.61713 1.49264 0
M  V30 714 H 69.9517 2.68515 2.93233 0
M  V30 715 N 70.9488 -0.749086 1.3866 0
M  V30 716 C 71.8958 -1.86291 1.36251 0
M  V30 717 C 72.8658 -1.64578 0.224347 0
M  V30 718 O 74.0508 -1.86181 0.417279 0
M  V30 719 C 71.1908 -3.23644 1.19786 0
M  V30 720 C 70.3038 -3.57158 2.43027 0
M  V30 721 C 69.4388 -4.83838 2.19258 0
M  V30 722 C 68.4778 -5.10152 3.38247 0
M  V30 723 N 67.6148 -6.28029 3.13884 0
M  V30 724 H 72.4548 -1.87685 2.3147 0
M  V30 725 H 69.9918 -0.917287 1.14997 0
M  V30 726 H 71.9498 -4.0291 1.08254 0
M  V30 727 H 70.5798 -3.21566 0.282031 0
M  V30 728 H 69.6318 -2.72701 2.65214 0
M  V30 729 H 70.9438 -3.7253 3.31697 0
M  V30 730 H 70.0978 -5.71057 2.04888 0
M  V30 731 H 68.8368 -4.70614 1.2796 0
M  V30 732 H 67.8418 -4.21401 3.53131 0
M  V30 733 H 69.0668 -5.25271 4.30427 0
M  V30 734 H 67.0128 -6.1612 2.25238 0
M  V30 735 H 66.9298 -6.43922 3.96106 0
M  V30 736 H 68.1978 -7.18124 3.03179 0
M  V30 737 N 72.4269 -1.23603 -0.977757 0
M  V30 738 C 73.7039 -0.977897 -1.69401 0
M  V30 739 C 74.0839 0.502738 -2.05026 0
M  V30 740 O 73.4319 1.47459 -1.74551 0
M  V30 741 C 73.6419 -1.89077 -2.93345 0
M  V30 742 C 74.9899 -2.15579 -3.65802 0
M  V30 743 O 76.0139 -1.86648 -3.03383 0
M  V30 744 O 74.8729 -2.64658 -4.78141 0
M  V30 745 H 71.9669 -0.369025 -0.740101 0
M  V30 746 H 74.5129 -1.34657 -1.03274 0
M  V30 747 H 73.2849 -2.89158 -2.63634 0
M  V30 748 H 72.9079 -1.52463 -3.67207 0
M  V30 749 N 73.905 1.17692 -1.04816 0
M  V30 750 C 75.135 1.91508 -0.775128 0
M  V30 751 C 75.543 1.76844 0.67253 0
M  V30 752 O 74.886 1.10057 1.47082 0
M  V30 753 C 74.948 3.43167 -1.0713 0
M  V30 754 C 74.612 3.81612 -2.51438 0
M  V30 755 C 75.609 3.84772 -3.49638 0
M  V30 756 C 73.294 4.12687 -2.86348 0
M  V30 757 C 75.288 4.18469 -4.80794 0
M  V30 758 C 72.975 4.46053 -4.17708 0
M  V30 759 C 73.973 4.48921 -5.14741 0
M  V30 760 O 73.661 4.81504 -6.43746 0
M  V30 761 H 73.393 0.614575 -0.281555 0
M  V30 762 H 75.947 1.50206 -1.40098 0
M  V30 763 H 74.177 3.84745 -0.388342 0
M  V30 764 H 75.866 3.98239 -0.784883 0
M  V30 765 H 76.632 3.60893 -3.24008 0
M  V30 766 H 72.511 4.09627 -2.11486 0
M  V30 767 H 76.055 4.20623 -5.56527 0
M  V30 768 H 71.952 4.69393 -4.43103 0
M  V30 769 H 72.72 4.99377 -6.4851 0
M  V30 770 N 75.3831 0.828654 1.34056 0
M  V30 771 C 76.7991 0.515135 1.51058 0
M  V30 772 C 76.9991 -0.959581 1.77184 0
M  V30 773 O 76.0551 -1.74382 1.82612 0
M  V30 774 C 77.3681 1.37963 2.67183 0
M  V30 775 C 78.9161 1.37735 2.81066 0
M  V30 776 C 79.3911 2.22645 4.00241 0
M  V30 777 N 80.8821 2.203 4.07458 0
M  V30 778 C 81.6171 2.82744 4.98842 0
M  V30 779 N 81.1131 3.54201 5.9541 0
M  V30 780 N 82.9061 2.72268 4.91759 0
M  V30 781 H 75.0571 1.78343 1.15358 0
M  V30 782 H 77.3201 0.760304 0.566252 0
M  V30 783 H 77.0261 2.42714 2.54525 0
M  V30 784 H 76.9001 1.0484 3.62338 0
M  V30 785 H 79.2871 0.337593 2.93163 0
M  V30 786 H 79.3681 1.74859 1.86703 0
M  V30 787 H 79.0121 3.26674 3.88905 0
M  V30 788 H 78.9421 1.82869 4.93829 0
M  V30 789 H 81.4331 1.68327 3.38341 0
M  V30 790 H 81.7461 3.9908 6.61782 0
M  V30 791 H 80.0911 3.58308 5.95517 0
M  V30 792 H 83.2821 2.16014 4.15278 0
M  V30 793 H 83.4551 3.21219 5.62781 0
M  V30 794 N 76.8612 -1.46375 0.584142 0
M  V30 795 C 78.2772 -1.57694 0.245929 0
M  V30 796 C 78.4772 -1.57903 -1.25175 0
M  V30 797 O 77.5332 -1.49676 -2.03355 0
M  V30 798 C 78.8462 -2.87028 0.896402 0
M  V30 799 C 80.3942 -3.00662 0.870127 0
M  V30 800 C 80.8692 -4.32734 1.50017 0
M  V30 801 N 82.3602 -4.39436 1.46458 0
M  V30 802 C 83.0952 -5.40248 1.92144 0
M  V30 803 N 82.5912 -6.47726 2.4581 0
M  V30 804 N 84.3842 -5.31459 1.83052 0
M  V30 805 H 76.5352 -1.44483 1.55687 0
M  V30 806 H 78.7982 -0.689291 0.650831 0
M  V30 807 H 78.5042 -2.9269 1.95002 0
M  V30 808 H 78.3782 -3.75014 0.405486 0
M  V30 809 H 80.7652 -2.94581 -0.174871 0
M  V30 810 H 80.8462 -2.14148 1.39908 0
M  V30 811 H 80.4902 -4.39573 2.54437 0
M  V30 812 H 80.4202 -5.18025 0.946432 0
M  V30 813 H 82.9112 -3.62367 1.07231 0
M  V30 814 H 83.2242 -7.20863 2.78525 0
M  V30 815 H 81.5692 -6.48542 2.49836 0
M  V30 816 H 84.7602 -4.46396 1.40883 0
M  V30 817 H 84.9332 -6.09881 2.18973 0
M  V30 818 N 78.3393 -0.321999 -1.54275 0
M  V30 819 C 79.5883 0.281931 -1.9972 0
M  V30 820 C 79.9013 1.53369 -1.21397 0
M  V30 821 O 81.1073 2.21352 -1.57211 0
M  V30 822 C 79.5633 0.5529 -3.55628 0
M  V30 823 C 79.1713 -0.681721 -4.42783 0
M  V30 824 C 80.9153 1.11687 -4.09544 0
M  V30 825 C 78.8223 -0.382742 -5.9016 0
M  V30 826 H 77.7523 0.109124 -0.746062 0
M  V30 827 H 80.4033 -0.43398 -1.78294 0
M  V30 828 H 78.7853 1.32896 -3.73035 0
M  V30 829 H 79.9593 -1.45723 -4.37151 0
M  V30 830 H 78.2743 -1.1658 -3.99748 0
M  V30 831 H 80.8713 1.35515 -5.17242 0
M  V30 832 H 81.2143 2.06575 -3.61431 0
M  V30 833 H 81.7473 0.402032 -3.95763 0
M  V30 834 H 78.4863 -1.30076 -6.42464 0
M  V30 835 H 78.0063 0.355094 -5.98748 0
M  V30 836 H 79.6853 0.00800157 -6.47 0
M  V30 837 N 79.8174 1.5752 -0.0501392 0
M  V30 838 C 81.2334 1.56631 0.306402 0
M  V30 839 C 81.4334 1.0577 1.71508 0
M  V30 840 O 80.4894 0.713837 2.422 0
M  V30 841 C 81.8024 3.00393 0.135811 0
M  V30 842 C 83.3504 3.12315 0.206993 0
M  V30 843 C 83.8254 4.57954 0.064944 0
M  V30 844 N 85.3164 4.63041 0.121254 0
M  V30 845 C 86.0514 5.73389 0.0354381 0
M  V30 846 N 85.5474 6.92724 -0.102666 0
M  V30 847 N 87.3404 5.62026 0.090946 0
M  V30 848 H 79.4914 1.88903 -0.971046 0
M  V30 849 H 81.7544 0.869876 -0.376855 0
M  V30 850 H 81.4604 3.41635 -0.835384 0
M  V30 851 H 81.3344 3.66373 0.897275 0
M  V30 852 H 83.7214 2.70973 1.16866 0
M  V30 853 H 83.8024 2.49016 -0.585208 0
M  V30 854 H 83.4464 4.99981 -0.893394 0
M  V30 855 H 83.3764 5.19258 0.876277 0
M  V30 856 H 85.8674 3.77216 0.227284 0
M  V30 857 H 86.1804 7.72633 -0.160882 0
M  V30 858 H 84.5254 6.94864 -0.137737 0
M  V30 859 H 87.7164 4.67684 0.197388 0
M  V30 860 H 87.8894 6.47997 0.0206089 0
M  V30 861 N 81.2955 -0.223234 1.56011 0
M  V30 862 C 82.5425 -0.947875 1.78946 0
M  V30 863 C 82.8705 -1.844 0.618608 0
M  V30 864 O 82.1255 -1.91629 -0.397093 0
M  V30 865 C 82.4245 -1.81948 3.0762 0
M  V30 866 C 82.0905 -1.07672 4.37856 0
M  V30 867 C 80.7525 -0.871544 4.73242 0
M  V30 868 C 83.1045 -0.552081 5.18268 0
M  V30 869 C 80.4325 -0.129791 5.86556 0
M  V30 870 C 82.7845 0.17632 6.32354 0
M  V30 871 C 81.4485 0.39277 6.66343 0
M  V30 872 H 80.7185 -0.346852 0.654809 0
M  V30 873 H 83.3655 -0.216171 1.90276 0
M  V30 874 H 81.6705 -2.61899 2.91404 0
M  V30 875 H 83.3675 -2.38227 3.22566 0
M  V30 876 H 79.9575 -1.24662 4.1007 0
M  V30 877 H 84.1415 -0.698076 4.91366 0
M  V30 878 H 79.3975 0.048153 6.11381 0
M  V30 879 H 83.5715 0.590367 6.93893 0
M  V30 880 H 81.1985 0.969466 7.53993 0
M  V30 881 N 82.7736 -1.49793 -0.48987 0
M  V30 882 C 84.0196 -1.60078 -1.24511 0
M  V30 883 C 84.3526 -0.291608 -1.91998 0
M  V30 884 O 83.6276 0.705647 -1.81248 0
M  V30 885 C 83.9106 -2.76791 -2.30345 0
M  V30 886 C 83.7636 -4.17535 -1.67286 0
M  V30 887 C 85.0826 -2.89111 -3.31817 0
M  V30 888 H 82.2016 -0.582645 -0.451324 0
M  V30 889 H 84.8436 -1.82117 -0.541612 0
M  V30 890 H 82.9936 -2.5813 -2.90346 0
M  V30 891 H 84.6656 -4.4774 -1.11026 0
M  V30 892 H 82.9086 -4.22665 -0.976577 0
M  V30 893 H 83.5796 -4.95094 -2.44103 0
M  V30 894 H 86.0556 -3.06133 -2.81819 0
M  V30 895 H 84.9316 -3.72433 -4.03219 0
M  V30 896 H 85.1926 -1.9893 -3.94815 0
M  V30 897 N 84.2517 0.741722 -1.39055 0
M  V30 898 C 85.4997 1.49818 -1.35643 0
M  V30 899 C 85.8207 1.94938 0.0491642 0
M  V30 900 O 85.0907 1.68505 0.999141 0
M  V30 901 H 83.6707 0.555755 -0.499144 0
M  V30 902 H 86.3327 0.880957 -1.73854 0
M  V30 903 H 85.4287 2.38348 -2.01486 0
M  V30 904 N 85.7298 1.2412 0.971189 0
M  V30 905 C 87.1458 1.00584 1.23916 0
M  V30 906 C 87.3458 -0.287481 1.99439 0
M  V30 907 O 86.4018 -1.00454 2.31658 0
M  V30 908 C 87.7148 2.21864 2.0297 0
M  V30 909 C 89.2628 2.26452 2.16076 0
M  V30 910 C 89.7378 3.47343 2.98524 0
M  V30 911 N 91.2288 3.47639 3.06107 0
M  V30 912 C 91.9638 4.37837 3.70251 0
M  V30 913 N 91.4598 5.38286 4.36142 0
M  V30 914 N 93.2528 4.25558 3.67228 0
M  V30 915 H 85.4038 2.07236 0.465499 0
M  V30 916 H 87.6668 0.909236 0.268315 0
M  V30 917 H 87.3728 3.15771 1.54861 0
M  V30 918 H 87.2468 2.23698 3.03709 0
M  V30 919 H 89.6338 1.33078 2.6339 0
M  V30 920 H 89.7148 2.28645 1.14696 0
M  V30 921 H 89.3588 4.41029 2.51905 0
M  V30 922 H 89.2888 3.42393 4.00093 0
M  V30 923 H 91.7798 2.74966 2.59233 0
M  V30 924 H 92.0928 6.03352 4.82894 0
M  V30 925 H 90.4378 5.42176 4.34822 0
M  V30 926 H 93.6288 3.46322 3.14927 0
M  V30 927 H 93.8018 4.96054 4.16935 0
M  V30 928 N 87.2079 -1.17134 1.05439 0
M  V30 929 C 88.1399 -2.2078 0.615539 0
M  V30 930 C 89.1529 -1.59584 -0.322001 0
M  V30 931 O 90.3419 -1.78133 -0.114344 0
M  V30 932 C 87.4419 -3.38691 -0.118938 0
M  V30 933 C 86.6149 -4.29454 0.829924 0
M  V30 934 C 85.6739 -5.26024 0.136258 0
M  V30 935 O 84.6999 -5.63952 0.77115 0
M  V30 936 N 85.9019 -5.69487 -1.1254 0
M  V30 937 H 88.6669 -2.59052 1.50705 0
M  V30 938 H 86.2279 -1.32058 0.936603 0
M  V30 939 H 88.2199 -4.00329 -0.593179 0
M  V30 940 H 86.7899 -2.98996 -0.91215 0
M  V30 941 H 86.0099 -3.65211 1.48373 0
M  V30 942 H 87.2979 -4.86984 1.47392 0
M  V30 943 H 86.6959 -5.4075 -1.6615 0
M  V30 944 H 85.2529 -6.33257 -1.54366 0
M  V30 945 N 88.686 -0.835752 -1.33615 0
M  V30 946 C 89.633 -0.26473 -2.29277 0
M  V30 947 C 90.603 0.617712 -1.54187 0
M  V30 948 O 91.788 0.556641 -1.825 0
M  V30 949 C 88.928 0.556777 -3.40579 0
M  V30 950 C 88.041 -0.349339 -4.30585 0
M  V30 951 C 87.176 0.482969 -5.29 0
M  V30 952 C 86.215 -0.421732 -6.10645 0
M  V30 953 N 85.352 0.372262 -7.01112 0
M  V30 954 H 90.192 -1.08582 -2.77514 0
M  V30 955 H 87.729 -0.546927 -1.36554 0
M  V30 956 H 89.687 1.04852 -4.03809 0
M  V30 957 H 88.317 1.34286 -2.93542 0
M  V30 958 H 87.369 -0.959372 -3.68104 0
M  V30 959 H 88.681 -1.04445 -4.87742 0
M  V30 960 H 87.835 1.03866 -5.97743 0
M  V30 961 H 86.574 1.21153 -4.72412 0
M  V30 962 H 85.579 -0.989464 -5.40823 0
M  V30 963 H 86.804 -1.14861 -6.69316 0
M  V30 964 H 84.75 1.08426 -6.46977 0
M  V30 965 H 84.667 -0.264198 -7.55538 0
M  V30 966 H 85.935 0.910293 -7.74167 0
M  V30 967 N 90.1641 1.46063 -0.591896 0
M  V30 968 C 91.0741 2.34192 0.13831 0
M  V30 969 C 92.0901 1.50305 0.876608 0
M  V30 970 O 93.2661 1.8315 0.837728 0
M  V30 971 C 90.3311 3.27656 1.13326 0
M  V30 972 C 89.3921 4.27445 0.39863 0
M  V30 973 C 88.6251 5.16443 1.34618 0
M  V30 974 O 88.8481 5.08553 2.58321 0
M  V30 975 O 87.7821 5.95843 0.851768 0
M  V30 976 H 91.6081 2.98002 -0.58552 0
M  V30 977 H 89.1931 1.45188 -0.352239 0
M  V30 978 H 91.0751 3.85291 1.70671 0
M  V30 979 H 89.7501 2.6643 1.83839 0
M  V30 980 H 88.6571 3.73471 -0.216895 0
M  V30 981 H 89.9901 4.91482 -0.265709 0
M  V30 982 N 91.6422 0.330177 1.54103 0
M  V30 983 C 92.8882 -0.270806 2.00984 0
M  V30 984 C 93.2212 -1.51265 1.21789 0
M  V30 985 O 92.4962 -1.92142 0.301927 0
M  V30 986 C 92.7792 -0.598339 3.55094 0
M  V30 987 C 92.6322 0.654674 4.4501 0
M  V30 988 C 93.9512 -1.41334 4.16789 0
M  V30 989 H 91.0702 -0.0969531 0.730595 0
M  V30 990 H 93.7122 0.448066 1.84641 0
M  V30 991 H 91.8622 -1.21078 3.69151 0
M  V30 992 H 93.5342 1.29285 4.42813 0
M  V30 993 H 91.7772 1.28224 4.14416 0
M  V30 994 H 92.4482 0.380944 5.50684 0
M  V30 995 H 94.9242 -0.895597 4.06347 0
M  V30 996 H 93.8002 -1.61127 5.24718 0
M  V30 997 H 94.0612 -2.41146 3.70541 0
M  V30 998 N 93.1203 -1.57491 0.0584922 0
M  V30 999 C 94.0683 -2.13148 -0.931168 0
M  V30 1000 C 95.0623 -1.06507 -1.31729 0
M  V30 1001 O 96.2683 -1.24906 -1.29609 0
M  V30 1002 H 92.6433 -0.68137 -0.31818 0
M  V30 1003 H 94.6143 -2.95187 -0.436707 0
M  V30 1004 C 93.3633 -2.69732 -2.19408 0
M  V30 1005 H 92.6863 -3.51454 -1.90578 0
M  V30 1006 H 94.1263 -3.12287 -2.86798 0
M  V30 1007 C 92.5853 -1.63855 -2.94369 0
M  V30 1008 O 93.1153 -1.05565 -3.87581 0
M  V30 1009 N 91.3213 -1.35202 -2.57233 0
M  V30 1010 H 90.8683 -1.82791 -1.81508 0
M  V30 1011 H 90.8263 -0.645922 -3.07693 0
M  V30 1012 N 94.5984 0.214957 -1.56127 0
M  V30 1013 C 95.5084 1.28727 -1.96129 0
M  V30 1014 C 96.5244 1.50916 -0.866044 0
M  V30 1015 O 97.7004 1.63918 -1.17016 0
M  V30 1016 C 94.7654 2.61569 -2.27558 0
M  V30 1017 C 93.8264 2.47625 -3.50685 0
M  V30 1018 C 93.0594 3.74132 -3.80606 0
M  V30 1019 O 93.2824 4.77438 -3.12104 0
M  V30 1020 O 92.2164 3.70849 -4.74083 0
M  V30 1021 H 96.0424 0.977855 -2.87527 0
M  V30 1022 H 93.6274 0.418358 -1.43423 0
M  V30 1023 H 95.5094 3.40012 -2.48938 0
M  V30 1024 H 94.1844 2.92178 -1.39332 0
M  V30 1025 H 93.0914 1.67361 -3.34576 0
M  V30 1026 H 94.4244 2.21954 -4.39315 0
M  V30 1027 N 96.0765 1.50051 0.48192 0
M  V30 1028 C 97.0245 1.68635 1.60203 0
M  V30 1029 C 98.0185 0.552184 1.60148 0
M  V30 1030 O 99.2245 0.732377 1.64427 0
M  V30 1031 H 95.5995 0.532081 0.531407 0
M  V30 1032 H 97.5705 2.62616 1.41688 0
M  V30 1033 C 96.3195 1.78775 2.9822 0
M  V30 1034 H 95.6425 2.6543 2.98976 0
M  V30 1035 H 97.0825 1.95806 3.7608 0
M  V30 1036 C 95.5415 0.536849 3.32595 0
M  V30 1037 O 96.0715 -0.328897 4.00351 0
M  V30 1038 N 94.2775 0.394091 2.87915 0
M  V30 1039 H 93.8245 1.09962 2.32951 0
M  V30 1040 H 93.7825 -0.441737 3.11281 0
M  V30 1041 N 97.5546 -0.734337 1.39446 0
M  V30 1042 C 98.8016 -1.49391 1.36706 0
M  V30 1043 C 99.1296 -1.94465 -0.0367813 0
M  V30 1044 O 98.3846 -1.67154 -1.01774 0
M  V30 1045 C 98.6836 -2.74711 2.28623 0
M  V30 1046 C 98.3496 -2.48501 3.76242 0
M  V30 1047 C 97.0116 -2.41062 4.16464 0
M  V30 1048 C 99.3636 -2.26098 4.69606 0
M  V30 1049 C 96.6916 -2.09262 5.48112 0
M  V30 1050 C 99.0436 -1.95814 6.01531 0
M  V30 1051 C 97.7076 -1.86845 6.40816 0
M  V30 1052 H 96.9776 -0.546661 0.500243 0
M  V30 1053 H 99.6246 -0.842788 1.71957 0
M  V30 1054 H 97.9296 -3.44569 1.86492 0
M  V30 1055 H 99.6266 -3.32741 2.23796 0
M  V30 1056 H 96.2166 -2.55169 3.44364 0
M  V30 1057 H 100.401 -2.30812 4.39363 0
M  V30 1058 H 95.6566 -2.00841 5.77471 0
M  V30 1059 H 99.8306 -1.77488 6.73403 0
M  V30 1060 H 97.4576 -1.6197 7.42745 0
M  V30 1061 N 99.0327 -1.24633 -0.964593 0
M  V30 1062 C 99.9957 -1.0424 -2.04124 0
M  V30 1063 C 100.996 0.00137563 -1.608 0
M  V30 1064 O 102.186 -0.239883 -1.7254 0
M  V30 1065 C 99.3177 -0.580588 -3.3592 0
M  V30 1066 H 100.511 -1.99803 -2.23649 0
M  V30 1067 H 98.0637 -1.06899 -1.14027 0
M  V30 1068 H 98.7987 0.3781 -3.22088 0
M  V30 1069 H 98.5837 -1.33398 -3.6871 0
M  V30 1070 H 100.074 -0.459034 -4.15069 0
M  V30 1071 N 100.511 1.16574 -1.06058 0
M  V30 1072 C 101.76 1.86385 -0.770944 0
M  V30 1073 C 102.073 1.82448 0.705129 0
M  V30 1074 O 103.279 2.47815 1.10905 0
M  V30 1075 C 101.735 3.34466 -1.32893 0
M  V30 1076 C 101.343 3.46883 -2.83507 0
M  V30 1077 C 103.087 4.09548 -1.11672 0
M  V30 1078 C 100.994 4.89036 -3.32562 0
M  V30 1079 H 99.9238 0.698181 -0.284709 0
M  V30 1080 H 102.575 1.31583 -1.27899 0
M  V30 1081 H 100.957 3.88859 -0.748662 0
M  V30 1082 H 102.131 3.02663 -3.47465 0
M  V30 1083 H 100.446 2.85232 -3.03368 0
M  V30 1084 H 103.043 5.14434 -1.45814 0
M  V30 1085 H 103.386 4.16264 -0.0549535 0
M  V30 1086 H 103.919 3.61387 -1.66265 0
M  V30 1087 H 100.658 4.87499 -4.38207 0
M  V30 1088 H 100.178 5.3389 -2.73351 0
M  V30 1089 H 101.857 5.57843 -3.2775 0
M  V30 1090 N 101.989 0.842826 1.3317 0
M  V30 1091 C 103.266 0.362216 1.92217 0
M  V30 1092 C 103.646 -1.15289 1.76838 0
M  V30 1093 O 102.994 -1.96914 1.15919 0
M  V30 1094 C 103.204 0.813495 3.39387 0
M  V30 1095 C 104.552 0.823804 4.16532 0
M  V30 1096 O 105.576 0.757358 3.48055 0
M  V30 1097 O 104.435 0.915193 5.38782 0
M  V30 1098 H 101.529 0.103317 0.820521 0
M  V30 1099 H 104.075 0.928942 1.42017 0
M  V30 1100 H 102.847 1.85624 3.4447 0
M  V30 1101 H 102.47 0.223561 3.96971 0
M  V30 1102 N 103.467 -1.45747 0.599634 0
M  V30 1103 C 104.397 -2.33235 -0.111306 0
M  V30 1104 C 105.378 -1.46359 -0.866781 0
M  V30 1105 O 106.563 -1.75146 -0.838904 0
M  V30 1106 C 103.693 -3.28932 -1.11451 0
M  V30 1107 C 102.647 -4.25381 -0.472772 0
M  V30 1108 C 101.973 -5.1071 -1.58365 0
M  V30 1109 C 103.273 -5.18831 0.600948 0
M  V30 1110 H 104.967 -2.92927 0.61919 0
M  V30 1111 H 102.513 -1.40857 0.299215 0
M  V30 1112 H 104.466 -3.89002 -1.62036 0
M  V30 1113 H 103.19 -2.67381 -1.8755 0
M  V30 1114 H 101.849 -3.66598 0.0121472 0
M  V30 1115 H 101.497 -4.45533 -2.33473 0
M  V30 1116 H 101.197 -5.7604 -1.15982 0
M  V30 1117 H 102.721 -5.73647 -2.09194 0
M  V30 1118 H 104.135 -5.73019 0.179491 0
M  V30 1119 H 102.532 -5.92595 0.946076 0
M  V30 1120 H 103.602 -4.6174 1.48068 0
M  V30 1121 N 104.945 -0.338344 -1.53925 0
M  V30 1122 C 106.194 0.260732 -2.00008 0
M  V30 1123 C 106.507 1.52073 -1.23017 0
M  V30 1124 O 107.713 2.19672 -1.5955 0
M  V30 1125 C 106.169 0.51515 -3.56194 0
M  V30 1126 C 105.777 -0.728645 -4.42035 0
M  V30 1127 C 107.521 1.07337 -4.10706 0
M  V30 1128 C 105.428 -0.445315 -5.89721 0
M  V30 1129 H 104.358 0.101205 -0.747177 0
M  V30 1130 H 107.009 -0.452866 -1.77824 0
M  V30 1131 H 105.391 1.28932 -3.74423 0
M  V30 1132 H 106.565 -1.50352 -4.35581 0
M  V30 1133 H 104.88 -1.20813 -3.98489 0
M  V30 1134 H 107.477 1.30022 -5.18651 0
M  V30 1135 H 107.82 2.0273 -3.63602 0
M  V30 1136 H 108.353 0.360034 -3.96167 0
M  V30 1137 H 105.092 -1.36883 -6.41049 0
M  V30 1138 H 104.612 0.291569 -5.99091 0
M  V30 1139 H 106.291 -0.0606218 -6.46972 0
M  V30 1140 N 106.423 1.57458 -0.0668435 0
M  V30 1141 C 107.386 2.11323 0.887422 0
M  V30 1142 C 108.386 1.03618 1.22964 0
M  V30 1143 O 109.576 1.29626 1.16373 0
M  V30 1144 C 106.708 2.61048 2.19242 0
M  V30 1145 H 107.901 2.96942 0.420194 0
M  V30 1146 H 105.454 1.55239 0.181793 0
M  V30 1147 H 106.189 1.78868 2.70512 0
M  V30 1148 H 105.974 3.39769 1.95702 0
M  V30 1149 H 107.464 3.02814 2.87565 0
M  V30 1150 N 107.901 -0.206675 1.56239 0
M  V30 1151 C 108.811 -1.27686 1.96808 0
M  V30 1152 C 109.827 -1.50455 0.874035 0
M  V30 1153 O 111.003 -1.63295 1.17884 0
M  V30 1154 C 108.068 -2.60358 2.28942 0
M  V30 1155 C 107.129 -2.45762 3.51994 0
M  V30 1156 C 106.362 -3.72108 3.82585 0
M  V30 1157 O 106.585 -4.75776 3.14631 0
M  V30 1158 O 105.519 -3.6833 4.76043 0
M  V30 1159 H 109.345 -0.962593 2.88041 0
M  V30 1160 H 106.93 -0.410746 1.43643 0
M  V30 1161 H 108.812 -3.38687 2.50737 0
M  V30 1162 H 107.487 -2.91435 1.4088 0
M  V30 1163 H 106.394 -1.65584 3.35459 0
M  V30 1164 H 107.727 -2.19621 4.40486 0
M  V30 1165 N 109.379 -1.50304 -0.473955 0
M  V30 1166 C 110.311 -1.65109 -1.58971 0
M  V30 1167 C 111.324 -0.532676 -1.53839 0
M  V30 1168 O 112.513 -0.805751 -1.59279 0
M  V30 1169 C 109.613 -1.61684 -2.97845 0
M  V30 1170 C 108.786 -2.8951 -3.27876 0
M  V30 1171 C 107.845 -2.78768 -4.4629 0
M  V30 1172 O 106.871 -3.52722 -4.46739 0
M  V30 1173 N 108.073 -1.9213 -5.47783 0
M  V30 1174 H 110.838 -2.61347 -1.46689 0
M  V30 1175 H 108.399 -1.47732 -0.662324 0
M  V30 1176 H 110.391 -1.52114 -3.75024 0
M  V30 1177 H 108.961 -0.731925 -3.03911 0
M  V30 1178 H 108.181 -3.13228 -2.39336 0
M  V30 1179 H 109.469 -3.74199 -3.4475 0
M  V30 1180 H 108.867 -1.31353 -5.50239 0
M  V30 1181 H 107.424 -1.88466 -6.23958 0
M  V30 1182 N 110.857 0.726932 -1.39834 0
M  V30 1183 C 112.268 1.30558 -1.3346 0
M  V30 1184 C 112.619 1.962 -0.00273003 0
M  V30 1185 O 111.744 1.96826 0.899371 0
M  V30 1186 C 112.339 2.37404 -2.41713 0
M  V30 1187 C 110.898 2.90921 -2.38835 0
M  V30 1188 C 110.045 1.64578 -2.2318 0
M  V30 1189 H 112.996 0.523862 -1.49804 0
M  V30 1190 H 113.017 3.17984 -2.08966 0
M  V30 1191 H 112.529 1.89599 -3.38635 0
M  V30 1192 H 110.63 3.42985 -1.45575 0
M  V30 1193 H 110.743 3.43487 -3.33997 0
M  V30 1194 H 109.107 1.89219 -1.70494 0
M  V30 1195 H 109.89 1.18814 -3.22084 0
M  V30 1196 N 112.336 1.25143 0.95797 0
M  V30 1197 C 113.582 1.09855 1.70469 0
M  V30 1198 C 113.915 -0.360187 1.90831 0
M  V30 1199 O 113.19 -1.26568 1.47685 0
M  V30 1200 C 113.473 1.8497 3.08963 0
M  V30 1201 C 113.326 3.38652 2.96032 0
M  V30 1202 C 114.645 1.63016 4.08795 0
M  V30 1203 H 111.764 0.400465 0.618706 0
M  V30 1204 H 114.406 1.53933 1.11376 0
M  V30 1205 H 112.556 1.47505 3.59409 0
M  V30 1206 H 114.228 3.85772 2.52938 0
M  V30 1207 H 112.471 3.66534 2.32025 0
M  V30 1208 H 113.142 3.8642 3.94187 0
M  V30 1209 H 115.618 1.95625 3.67247 0
M  V30 1210 H 114.494 2.18015 5.03747 0
M  V30 1211 H 114.755 0.570692 4.38401 0
M  V30 1212 N 113.814 -1.1601 1.06675 0
M  V30 1213 C 115.039 -1.91068 0.806706 0
M  V30 1214 C 115.464 -1.77112 -0.633485 0
M  V30 1215 O 114.822 -1.09908 -1.44187 0
M  V30 1216 C 114.87 -3.39655 1.21106 0
M  V30 1217 O 113.974 -4.10893 0.352189 0
M  V30 1218 H 113.315 -0.595125 0.294486 0
M  V30 1219 H 115.845 -1.46955 1.42356 0
M  V30 1220 H 115.855 -3.90434 1.18428 0
M  V30 1221 H 114.53 -3.49132 2.26008 0
M  V30 1222 H 113.107 -3.70285 0.440868 0
M  V30 1223 N 115.292 -0.849877 -1.32721 0
M  V30 1224 C 116.202 -0.293791 -2.32753 0
M  V30 1225 C 117.218 0.585906 -1.63839 0
M  V30 1226 O 118.394 0.487413 -1.95413 0
M  V30 1227 C 115.459 0.512752 -3.42887 0
M  V30 1228 C 114.52 -0.39252 -4.27502 0
M  V30 1229 C 113.753 0.375625 -5.32377 0
M  V30 1230 O 113.976 1.60613 -5.4732 0
M  V30 1231 O 112.91 -0.256094 -6.01355 0
M  V30 1232 H 116.736 -1.12242 -2.82197 0
M  V30 1233 H 114.321 -0.612685 -1.36259 0
M  V30 1234 H 116.203 0.970704 -4.10067 0
M  V30 1235 H 114.878 1.31826 -2.95641 0
M  V30 1236 H 113.785 -0.898547 -3.63149 0
M  V30 1237 H 115.118 -1.16309 -4.7826 0
M  V30 1238 N 116.77 1.45427 -0.607355 0
M  V30 1239 C 118.016 2.0254 -0.102607 0
M  V30 1240 C 118.349 1.47478 1.26348 0
M  V30 1241 O 117.624 0.64939 1.83339 0
M  V30 1242 C 117.907 3.60044 -0.0634347 0
M  V30 1243 C 117.76 4.2544 -1.46017 0
M  V30 1244 C 119.079 4.35646 0.624514 0
M  V30 1245 H 116.198 0.73598 -0.0387607 0
M  V30 1246 H 118.84 1.73284 -0.779282 0
M  V30 1247 H 116.99 3.85101 0.512808 0
M  V30 1248 H 118.662 4.11569 -2.08347 0
M  V30 1249 H 116.905 3.83849 -2.02094 0
M  V30 1250 H 117.576 5.34342 -1.385 0
M  V30 1251 H 120.052 4.15882 0.134723 0
M  V30 1252 H 118.928 5.45376 0.621028 0
M  V30 1253 H 119.189 4.08501 1.69055 0
M  V30 1254 N 118.248 0.346503 1.53744 0
M  V30 1255 C 119.158 -0.517293 2.28826 0
M  V30 1256 C 120.174 -1.10935 1.3405 0
M  V30 1257 O 121.35 -1.1244 1.6709 0
M  V30 1258 C 118.415 -1.65098 3.04866 0
M  V30 1259 C 117.476 -1.0884 4.15274 0
M  V30 1260 C 116.709 -2.16806 4.87679 0
M  V30 1261 O 116.932 -3.3758 4.59778 0
M  V30 1262 O 115.866 -1.80934 5.74061 0
M  V30 1263 H 119.692 0.0931396 3.03557 0
M  V30 1264 H 117.277 0.111458 1.48984 0
M  V30 1265 H 119.159 -2.31053 3.5241 0
M  V30 1266 H 117.834 -2.24717 2.32989 0
M  V30 1267 H 116.741 -0.3933 3.72027 0
M  V30 1268 H 118.074 -0.537036 4.89261 0
M  V30 1269 N 119.726 -1.57421 0.075193 0
M  V30 1270 C 120.954 -1.97946 -0.602076 0
M  V30 1271 C 121.369 -0.953674 -1.62943 0
M  V30 1272 O 120.726 0.0592551 -1.82404 0
M  V30 1273 C 120.777 -3.38546 -1.26762 0
M  V30 1274 O 120.498 -4.37195 -0.281376 0
M  V30 1275 C 121.999 -3.93966 -2.03239 0
M  V30 1276 H 119.219 -0.650918 -0.162931 0
M  V30 1277 H 121.763 -2.03959 0.148601 0
M  V30 1278 H 119.918 -3.33609 -1.96936 0
M  V30 1279 H 120.332 -5.18975 -0.759267 0
M  V30 1280 H 121.806 -4.94555 -2.45193 0
M  V30 1281 H 122.283 -3.30693 -2.8903 0
M  V30 1282 H 122.889 -4.02315 -1.37924 0
M  V30 1283 N 121.204 0.198386 -1.56346 0
M  V30 1284 C 122.62 0.549085 -1.49857 0
M  V30 1285 C 122.82 1.86016 -0.774611 0
M  V30 1286 O 121.876 2.50416 -0.323776 0
M  V30 1287 C 123.189 0.606868 -2.94512 0
M  V30 1288 C 124.737 0.695925 -3.05165 0
M  V30 1289 C 125.212 0.784848 -4.51225 0
M  V30 1290 N 126.703 0.848463 -4.55363 0
M  V30 1291 C 127.438 0.937378 -5.65686 0
M  V30 1292 N 126.934 0.9888 -6.85707 0
M  V30 1293 N 128.727 0.974312 -5.53592 0
M  V30 1294 H 120.878 -0.661655 -2.01831 0
M  V30 1295 H 123.141 -0.235261 -0.918344 0
M  V30 1296 H 122.847 -0.28732 -3.50524 0
M  V30 1297 H 122.721 1.46268 -3.47686 0
M  V30 1298 H 125.108 1.58055 -2.49204 0
M  V30 1299 H 125.189 -0.186022 -2.55123 0
M  V30 1300 H 124.833 -0.0954072 -5.0781 0
M  V30 1301 H 124.763 1.68255 -4.98997 0
M  V30 1302 H 127.254 0.818103 -3.68938 0
M  V30 1303 H 127.567 1.05707 -7.65536 0
M  V30 1304 H 125.912 0.957534 -6.88372 0
M  V30 1305 H 129.103 0.930954 -4.58749 0
M  V30 1306 H 129.276 1.04015 -6.39597 0
M  V30 1307 N 122.682 1.50554 0.465978 0
M  V30 1308 C 123.928 1.62038 1.21949 0
M  V30 1309 C 124.261 0.322116 1.9151 0
M  V30 1310 O 123.536 -0.676723 1.82348 0
M  V30 1311 C 123.819 2.80421 2.25912 0
M  V30 1312 C 123.672 4.20144 1.60622 0
M  V30 1313 C 124.991 2.94354 3.27176 0
M  V30 1314 H 122.11 0.589752 0.441998 0
M  V30 1315 H 124.752 1.82956 0.51257 0
M  V30 1316 H 122.902 2.62717 2.86203 0
M  V30 1317 H 124.574 4.49449 1.03889 0
M  V30 1318 H 122.817 4.24165 0.909211 0
M  V30 1319 H 123.488 4.98914 2.36196 0
M  V30 1320 H 125.964 3.10578 2.76913 0
M  V30 1321 H 124.84 3.788 3.97242 0
M  V30 1322 H 125.101 2.05186 3.916 0
M  V30 1323 N 124.16 -0.719506 1.40217 0
M  V30 1324 C 125.409 -1.47486 1.37589 0
M  V30 1325 C 125.722 -1.9559 -0.0201568 0
M  V30 1326 O 126.928 -2.70973 -0.169049 0
M  V30 1327 C 125.384 -2.66575 2.41796 0
M  V30 1328 C 124.992 -2.25358 3.87192 0
M  V30 1329 C 126.736 -3.4433 2.48269 0
M  V30 1330 C 124.643 -3.41262 4.83005 0
M  V30 1331 H 123.573 -0.553901 0.511576 0
M  V30 1332 H 126.224 -0.783427 1.65936 0
M  V30 1333 H 124.606 -3.3787 2.06543 0
M  V30 1334 H 125.78 -1.61509 4.31569 0
M  V30 1335 H 124.095 -1.60657 3.84159 0
M  V30 1336 H 126.692 -4.30569 3.17041 0
M  V30 1337 H 127.035 -3.87872 1.51198 0
M  V30 1338 H 127.568 -2.80076 2.82493 0
M  V30 1339 H 124.307 -3.02755 5.81394 0
M  V30 1340 H 123.827 -4.0404 4.43297 0
M  V30 1341 H 125.506 -4.07383 5.02641 0
M  V30 1342 N 125.638 -1.25649 -0.95132 0
M  V30 1343 C 126.601 -1.06399 -2.03007 0
M  V30 1344 C 127.601 -0.0156794 -1.60792 0
M  V30 1345 O 128.791 -0.25817 -1.72276 0
M  V30 1346 C 125.923 -0.616184 -3.35285 0
M  V30 1347 H 127.116 -2.02164 -2.21517 0
M  V30 1348 H 124.669 -1.08103 -1.12887 0
M  V30 1349 H 125.404 0.343917 -3.22471 0
M  V30 1350 H 125.189 -1.37301 -3.67275 0
M  V30 1351 H 126.679 -0.503032 -4.14559 0
M  V30 1352 N 127.117 1.15442 -1.07289 0
M  V30 1353 C 128.357 1.8788 -0.805012 0
M  V30 1354 C 128.721 1.80413 0.656907 0
M  V30 1355 O 129.922 2.47874 1.0398 0
M  V30 1356 C 128.193 3.3298 -1.29843 0
M  V30 1357 S 129.752 4.23158 -1.16114 0
M  V30 1358 H 126.57 0.64839 -0.291739 0
M  V30 1359 H 129.172 1.39285 -1.37186 0
M  V30 1360 H 127.876 3.35958 -2.35712 0
M  V30 1361 H 127.407 3.86629 -0.726767 0
M  V30 1362 H 129.422 4.96103 -0.0982778 0
M  V30 1363 N 128.595 0.856903 1.32268 0
M  V30 1364 C 129.872 0.382583 1.91822 0
M  V30 1365 C 130.252 -1.13407 1.78051 0
M  V30 1366 O 129.6 -1.95673 1.18001 0
M  V30 1367 C 129.81 0.849446 3.38505 0
M  V30 1368 C 131.158 0.867936 4.15634 0
M  V30 1369 O 132.182 0.794232 3.47232 0
M  V30 1370 O 131.041 0.972286 5.37781 0
M  V30 1371 H 128.135 0.112014 0.819379 0
M  V30 1372 H 130.681 0.943952 1.41024 0
M  V30 1373 H 129.453 1.89267 3.42482 0
M  V30 1374 H 129.076 0.265652 3.96712 0
M  V30 1375 N 130.073 -1.45103 0.615059 0
M  V30 1376 C 131.321 -2.01784 0.112955 0
M  V30 1377 C 131.642 -1.48504 -1.26378 0
M  V30 1378 O 130.912 -0.682245 -1.83636 0
M  V30 1379 H 129.492 -0.745993 0.0387668 0
M  V30 1380 H 132.154 -1.77808 0.798141 0
M  V30 1381 H 131.25 -3.12025 0.0684069 0
M  V30 1382 N 131.551 -0.354651 -1.53558 0
M  V30 1383 C 132.799 0.237972 -2.00694 0
M  V30 1384 C 133.12 1.50173 -1.24391 0
M  V30 1385 O 132.39 1.92673 -0.354135 0
M  V30 1386 H 130.97 0.0909256 -0.741446 0
M  V30 1387 H 133.632 -0.478368 -1.88938 0
M  V30 1388 H 132.728 0.47264 -3.085 0
M  V30 1389 N 133.029 1.57378 -0.0835403 0
M  V30 1390 C 134.277 1.93547 0.581718 0
M  V30 1391 C 134.598 0.96524 1.69435 0
M  V30 1392 O 133.868 0.0153369 1.95894 0
M  V30 1393 H 132.448 0.714521 0.217874 0
M  V30 1394 H 135.11 1.94366 -0.144158 0
M  V30 1395 H 134.206 2.95665 0.999423 0
M  V30 1396 N 134.507 -0.190092 1.56449 0
M  V30 1397 C 135.755 -0.907908 1.80559 0
M  V30 1398 C 136.076 -1.83583 0.657438 0
M  V30 1399 O 135.346 -1.93203 -0.323924 0
M  V30 1400 H 133.926 -0.338247 0.666032 0
M  V30 1401 H 136.588 -0.194403 1.93928 0
M  V30 1402 H 135.684 -1.49604 2.73907 0
M  V30 1403 N 135.985 -1.50799 -0.457987 0
M  V30 1404 C 136.948 -1.7005 -1.53674 0
M  V30 1405 C 137.948 -0.570881 -1.50325 0
M  V30 1406 O 139.138 -0.838126 -1.52712 0
M  V30 1407 C 136.27 -1.73788 -2.93276 0
M  V30 1408 H 137.463 -2.66306 -1.37917 0
M  V30 1409 H 135.016 -1.40477 -0.685271 0
M  V30 1410 H 135.751 -0.792717 -3.14462 0
M  V30 1411 H 135.536 -2.55864 -2.97113 0
M  V30 1412 H 137.026 -1.90591 -3.71571 0
M  V30 1413 N 137.463 0.71206 -1.40597 0
M  V30 1414 C 138.393 1.83889 -1.43899 0
M  V30 1415 C 139.374 1.67442 -0.299504 0
M  V30 1416 O 140.559 1.87421 -0.508624 0
M  V30 1417 C 137.689 3.21877 -1.30431 0
M  V30 1418 C 136.643 3.53002 -2.42019 0
M  V30 1419 C 135.969 4.90172 -2.13626 0
M  V30 1420 C 137.269 3.53643 -3.84362 0
M  V30 1421 H 138.963 1.81383 -2.38203 0
M  V30 1422 H 136.509 0.871237 -1.14654 0
M  V30 1423 H 138.462 4.00404 -1.31357 0
M  V30 1424 H 137.186 3.24968 -0.326049 0
M  V30 1425 H 135.845 2.76818 -2.40349 0
M  V30 1426 H 135.493 4.89869 -1.14182 0
M  V30 1427 H 135.193 5.11962 -2.88389 0
M  V30 1428 H 136.717 5.71028 -2.1624 0
M  V30 1429 H 138.131 4.22203 -3.87837 0
M  V30 1430 H 136.528 3.86961 -4.58673 0
M  V30 1431 H 137.598 2.52954 -4.13693 0
M  V30 1432 N 138.941 1.26152 0.944643 0
M  V30 1433 C 140.189 1.11271 1.6871 0
M  V30 1434 C 140.51 -0.345166 1.91921 0
M  V30 1435 O 139.78 -1.24387 1.51343 0
M  V30 1436 H 138.36 0.408783 0.625224 0
M  V30 1437 H 141.022 1.58427 1.1352 0
M  V30 1438 H 140.118 1.62879 2.66227 0
M  V30 1439 N 140.419 -1.14872 1.07899 0
M  V30 1440 C 141.369 -2.17809 0.674027 0
M  V30 1441 C 142.353 -1.58008 -0.303699 0
M  V30 1442 O 143.545 -1.76616 -0.11654 0
M  V30 1443 C 140.674 -3.43208 0.0793318 0
M  V30 1444 C 139.76 -4.10051 1.08253 0
M  V30 1445 N 140.151 -4.52296 2.2641 0
M  V30 1446 C 138.449 -4.36469 0.917124 0
M  V30 1447 C 139.15 -5.04199 2.901 0
M  V30 1448 N 138.126 -4.98088 2.17736 0
M  V30 1449 H 141.928 -2.48207 1.57386 0
M  V30 1450 H 139.442 -1.315 0.952976 0
M  V30 1451 H 141.439 -4.16272 -0.228719 0
M  V30 1452 H 140.099 -3.14291 -0.815551 0
M  V30 1453 H 141.11 -4.45504 2.64096 0
M  V30 1454 H 137.787 -4.17432 0.0756078 0
M  V30 1455 H 139.177 -5.46802 3.90458 0
M  V30 1456 N 141.898 -0.863906 -1.31812 0
M  V30 1457 C 143.309 -0.52522 -1.7916 0
M  V30 1458 C 143.66 0.957518 -1.71248 0
M  V30 1459 O 142.785 1.74734 -1.27659 0
M  V30 1460 C 143.38 -0.9466 -3.25307 0
M  V30 1461 C 141.939 -0.659668 -3.70574 0
M  V30 1462 C 141.086 -1.14126 -2.52726 0
M  V30 1463 H 144.037 -1.05022 -1.1898 0
M  V30 1464 H 144.058 -0.266766 -3.79564 0
M  V30 1465 H 143.57 -2.02579 -3.31034 0
M  V30 1466 H 141.671 0.408416 -3.70355 0
M  V30 1467 H 141.784 -1.23245 -4.62977 0
M  V30 1468 H 140.148 -0.561216 -2.4844 0
M  V30 1469 H 140.931 -2.22775 -2.61201 0
M  V30 1470 N 143.376 1.44774 -0.622745 0
M  V30 1471 C 144.323 2.30635 0.0871679 0
M  V30 1472 C 145.293 1.42994 0.845097 0
M  V30 1473 O 146.478 1.71907 0.827812 0
M  V30 1474 C 143.618 3.28144 1.06844 0
M  V30 1475 C 142.731 4.30888 0.309809 0
M  V30 1476 C 141.866 5.15494 1.28215 0
M  V30 1477 C 140.905 6.09953 0.512198 0
M  V30 1478 N 140.042 6.87287 1.43458 0
M  V30 1479 H 144.882 2.90803 -0.650974 0
M  V30 1480 H 142.419 1.43286 -0.33281 0
M  V30 1481 H 144.377 3.83157 1.65066 0
M  V30 1482 H 143.007 2.69695 1.77382 0
M  V30 1483 H 142.059 3.78414 -0.388181 0
M  V30 1484 H 143.371 4.97955 -0.290254 0
M  V30 1485 H 142.525 5.74983 1.93596 0
M  V30 1486 H 141.264 4.48481 1.91614 0
M  V30 1487 H 140.269 5.49581 -0.155151 0
M  V30 1488 H 141.494 6.78999 -0.116958 0
M  V30 1489 H 139.44 6.2295 2.05594 0
M  V30 1490 H 139.357 7.50763 0.888335 0
M  V30 1491 H 140.625 7.51306 2.07749 0
M  V30 1492 N 144.854 0.36279 1.53368 0
M  V30 1493 C 146.1 -0.228113 2.01513 0
M  V30 1494 C 146.433 -1.48648 1.2497 0
M  V30 1495 O 145.708 -1.91459 0.342616 0
M  V30 1496 C 145.991 -0.522884 3.56284 0
M  V30 1497 C 145.844 0.74892 4.43521 0
M  V30 1498 C 147.163 -1.32461 4.19693 0
M  V30 1499 H 144.282 -0.0814343 0.732487 0
M  V30 1500 H 146.924 0.48713 1.83649 0
M  V30 1501 H 145.074 -1.1322 3.71636 0
M  V30 1502 H 146.746 1.38648 4.39971 0
M  V30 1503 H 144.989 1.36986 4.11603 0
M  V30 1504 H 145.66 0.497667 5.49752 0
M  V30 1505 H 148.136 -0.809203 4.08156 0
M  V30 1506 H 147.012 -1.49961 5.28018 0
M  V30 1507 H 147.273 -2.33232 3.75573 0
M  V30 1508 N 146.332 -1.57332 0.0918853 0
M  V30 1509 C 147.562 -1.98286 -0.580205 0
M  V30 1510 C 147.97 -0.969713 -1.6246 0
M  V30 1511 O 147.313 0.0493501 -1.83634 0
M  V30 1512 C 147.375 -3.35603 -1.28882 0
M  V30 1513 C 147.039 -4.55285 -0.395559 0
M  V30 1514 C 148.036 -5.18687 0.355002 0
M  V30 1515 C 145.721 -5.01314 -0.314556 0
M  V30 1516 C 147.715 -6.26484 1.17458 0
M  V30 1517 C 145.402 -6.08979 0.508677 0
M  V30 1518 C 146.4 -6.71429 1.2519 0
M  V30 1519 O 146.088 -7.77018 2.06151 0
M  V30 1520 H 145.82 -0.656678 -0.160466 0
M  V30 1521 H 148.374 -2.04721 0.16688 0
M  V30 1522 H 146.604 -3.25842 -2.08241 0
M  V30 1523 H 148.293 -3.61026 -1.85512 0
M  V30 1524 H 149.059 -4.84058 0.302134 0
M  V30 1525 H 144.938 -4.5247 -0.882697 0
M  V30 1526 H 148.482 -6.75159 1.75518 0
M  V30 1527 H 144.379 -6.4304 0.563037 0
M  V30 1528 H 145.147 -7.93991 1.98799 0
M  V30 1529 N 147.81 0.181792 -1.56548 0
M  V30 1530 C 149.059 0.898348 -1.8059 0
M  V30 1531 C 149.372 1.83862 -0.667379 0
M  V30 1532 O 150.578 2.59678 -0.792446 0
M  V30 1533 C 149.034 1.64791 -3.19956 0
M  V30 1534 C 148.642 0.751789 -4.41647 0
M  V30 1535 C 150.386 2.35331 -3.53298 0
M  V30 1536 C 148.293 1.50098 -5.72035 0
M  V30 1537 H 147.223 0.339194 -0.673397 0
M  V30 1538 H 149.874 0.151413 -1.82874 0
M  V30 1539 H 148.256 2.43921 -3.11959 0
M  V30 1540 H 149.43 -0.0018076 -4.608 0
M  V30 1541 H 147.745 0.156562 -4.16106 0
M  V30 1542 H 150.342 2.91958 -4.47956 0
M  V30 1543 H 150.685 3.10164 -2.77676 0
M  V30 1544 H 151.218 1.63154 -3.62803 0
M  V30 1545 H 147.957 0.795175 -6.50659 0
M  V30 1546 H 147.477 2.22817 -5.56878 0
M  V30 1547 H 149.156 2.05125 -6.13622 0
M  V30 1548 N 149.288 1.51039 0.449983 0
M  V30 1549 C 150.236 1.71995 1.5659 0
M  V30 1550 C 151.23 0.586029 1.5894 0
M  V30 1551 O 152.436 0.76709 1.62837 0
M  V30 1552 H 148.811 0.543233 0.520001 0
M  V30 1553 H 150.782 2.65562 1.36085 0
M  V30 1554 C 149.531 1.8506 2.9436 0
M  V30 1555 H 148.854 2.71712 2.93279 0
M  V30 1556 H 150.294 2.0374 3.71842 0
M  V30 1557 C 148.753 0.607277 3.31382 0
M  V30 1558 O 149.283 -0.243903 4.00959 0
M  V30 1559 N 147.489 0.455073 2.87015 0
M  V30 1560 H 147.036 1.14879 2.30566 0
M  V30 1561 H 146.994 -0.375611 3.12148 0
M  V30 1562 N 150.766 -0.704594 1.40972 0
M  V30 1563 C 151.696 -1.83124 1.44872 0
M  V30 1564 C 152.677 -1.67281 0.30838 0
M  V30 1565 O 153.862 -1.87149 0.518556 0
M  V30 1566 C 150.992 -3.21181 1.32136 0
M  V30 1567 C 149.946 -3.51714 2.43888 0
M  V30 1568 C 149.272 -4.89032 2.16222 0
M  V30 1569 C 150.572 -3.516 3.86232 0
M  V30 1570 H 152.266 -1.80117 2.39161 0
M  V30 1571 H 149.812 -0.865145 1.15114 0
M  V30 1572 H 151.765 -3.99702 1.33479 0
M  V30 1573 H 150.489 -3.24791 0.343279 0
M  V30 1574 H 149.148 -2.75539 2.41813 0
M  V30 1575 H 148.796 -4.89256 1.16778 0
M  V30 1576 H 148.496 -5.10426 2.911 0
M  V30 1577 H 150.02 -5.69873 2.19265 0
M  V30 1578 H 151.434 -4.2014 3.9007 0
M  V30 1579 H 149.831 -3.84523 4.60719 0
M  V30 1580 H 150.901 -2.50757 4.15029 0
M  V30 1581 N 152.244 -1.26651 -0.937939 0
M  V30 1582 C 153.521 -1.0313 -1.66204 0
M  V30 1583 C 153.901 0.437256 -2.06522 0
M  V30 1584 O 153.249 1.41831 -1.79154 0
M  V30 1585 C 153.459 -1.98314 -2.87181 0
M  V30 1586 C 154.807 -2.27107 -3.58758 0
M  V30 1587 O 155.831 -1.96205 -2.97291 0
M  V30 1588 O 154.69 -2.79736 -4.69479 0
M  V30 1589 H 151.784 -0.392384 -0.727986 0
M  V30 1590 H 154.33 -1.37874 -0.989382 0
M  V30 1591 H 153.102 -2.97399 -2.54302 0
M  V30 1592 H 152.725 -1.64068 -3.6217 0
M  V30 1593 N 153.722 1.14298 -1.08507 0
M  V30 1594 C 154.669 2.19414 -0.715965 0
M  V30 1595 C 155.639 1.63399 0.298326 0
M  V30 1596 O 156.824 1.89929 0.182101 0
M  V30 1597 C 153.964 3.44845 -0.132534 0
M  V30 1598 C 153.077 4.15007 -1.19973 0
M  V30 1599 C 152.212 5.28024 -0.580048 0
M  V30 1600 C 151.251 5.9002 -1.62921 0
M  V30 1601 N 150.388 6.94485 -1.03125 0
M  V30 1602 H 155.228 2.50336 -1.61666 0
M  V30 1603 H 152.765 1.2293 -0.807882 0
M  V30 1604 H 154.723 4.16601 0.223454 0
M  V30 1605 H 153.353 3.14403 0.731467 0
M  V30 1606 H 152.405 3.41629 -1.67313 0
M  V30 1607 H 153.717 4.57178 -1.99473 0
M  V30 1608 H 152.871 6.06455 -0.172364 0
M  V30 1609 H 151.61 4.87076 0.246603 0
M  V30 1610 H 150.615 5.10291 -2.04654 0
M  V30 1611 H 151.84 6.33042 -2.45835 0
M  V30 1612 H 149.786 6.55612 -0.225711 0
M  V30 1613 H 149.703 7.35148 -1.76334 0
M  V30 1614 H 150.971 7.7679 -0.649458 0
M  V30 1615 N 155.201 0.870884 1.31352 0
M  V30 1616 C 156.111 0.330783 2.32256 0
M  V30 1617 C 157.127 -0.559767 1.6475 0
M  V30 1618 O 158.303 -0.456263 1.96164 0
M  V30 1619 C 155.368 -0.458137 3.4366 0
M  V30 1620 C 154.429 0.460482 4.26823 0
M  V30 1621 C 153.662 -0.290881 5.32907 0
M  V30 1622 O 153.885 -1.51885 5.49806 0
M  V30 1623 O 152.819 0.351732 6.00871 0
M  V30 1624 H 156.645 1.16718 2.80376 0
M  V30 1625 H 154.23 0.634285 1.35267 0
M  V30 1626 H 156.112 -0.905343 4.1156 0
M  V30 1627 H 154.787 -1.27106 2.97701 0
M  V30 1628 H 153.694 0.956207 3.61673 0
M  V30 1629 H 155.027 1.23903 4.7635 0
M  V30 1630 N 156.679 -1.44442 0.630414 0
M  V30 1631 C 157.907 -2.06414 0.141671 0
M  V30 1632 C 158.322 -1.47105 -1.18345 0
M  V30 1633 O 157.679 -0.593662 -1.72574 0
M  V30 1634 C 157.73 -3.61494 0.0199784 0
M  V30 1635 O 157.451 -4.18594 1.29269 0
M  V30 1636 C 158.952 -4.40499 -0.497544 0
M  V30 1637 H 156.172 -0.666292 0.0793452 0
M  V30 1638 H 158.716 -1.85323 0.864614 0
M  V30 1639 H 156.871 -3.8185 -0.653402 0
M  V30 1640 H 157.285 -5.12026 1.13707 0
M  V30 1641 H 158.759 -5.49433 -0.531708 0
M  V30 1642 H 159.236 -4.11895 -1.52445 0
M  V30 1643 H 159.842 -4.25061 0.142562 0
M  V30 1644 N 158.157 -0.370918 -1.53173 0
M  V30 1645 C 159.104 0.473035 -2.259 0
M  V30 1646 C 160.074 1.07311 -1.26781 0
M  V30 1647 O 161.259 1.1046 -1.55574 0
M  V30 1648 C 158.399 1.60405 -3.05556 0
M  V30 1649 C 157.512 1.02863 -4.19575 0
M  V30 1650 C 156.647 2.12918 -4.86661 0
M  V30 1651 C 155.686 1.52869 -5.92704 0
M  V30 1652 N 154.823 2.56779 -6.53459 0
M  V30 1653 H 159.663 -0.153649 -2.97604 0
M  V30 1654 H 157.2 -0.0875946 -1.46839 0
M  V30 1655 H 159.158 2.27034 -3.50016 0
M  V30 1656 H 157.788 2.20131 -2.36097 0
M  V30 1657 H 156.84 0.252465 -3.79561 0
M  V30 1658 H 158.152 0.549642 -4.95762 0
M  V30 1659 H 157.306 2.87356 -5.34333 0
M  V30 1660 H 156.045 2.6417 -4.09958 0
M  V30 1661 H 155.05 0.769479 -5.44389 0
M  V30 1662 H 156.275 1.02435 -6.7133 0
M  V30 1663 H 154.221 3.07235 -5.79606 0
M  V30 1664 H 154.138 2.13583 -7.25202 0
M  V30 1665 H 155.406 3.30903 -7.05779 0
M  V30 1666 N 159.635 1.57281 -0.100228 0
M  V30 1667 C 160.863 1.98879 0.570509 0
M  V30 1668 C 161.278 0.979476 1.61405 0
M  V30 1669 O 160.635 -0.0302288 1.82475 0
M  V30 1670 C 160.686 3.4052 1.2136 0
M  V30 1671 O 160.407 4.37588 0.211786 0
M  V30 1672 C 161.908 3.97149 1.96945 0
M  V30 1673 H 159.128 0.653428 0.152555 0
M  V30 1674 H 161.672 2.03697 -0.18103 0
M  V30 1675 H 159.827 3.367 1.91603 0
M  V30 1676 H 160.241 5.20118 0.676607 0
M  V30 1677 H 161.715 4.98393 2.37294 0
M  V30 1678 H 162.192 3.3525 2.83733 0
M  V30 1679 H 162.798 4.04458 1.31506 0
M  V30 1680 N 161.113 -0.173488 1.56642 0
M  V30 1681 C 162.361 -0.888706 1.81512 0
M  V30 1682 C 162.682 -1.82875 0.676872 0
M  V30 1683 O 161.952 -1.93536 -0.303414 0
M  V30 1684 H 160.532 -0.331164 0.669582 0
M  V30 1685 H 163.194 -0.173823 1.94123 0
M  V30 1686 H 162.29 -1.46691 2.75478 0
M  V30 1687 N 162.591 -1.51276 -0.441967 0
M  V30 1688 C 163.819 -1.67516 -1.21434 0
M  V30 1689 C 164.234 -0.37055 -1.85128 0
M  V30 1690 O 163.591 0.650498 -1.70513 0
M  V30 1691 C 163.642 -2.78748 -2.30177 0
M  V30 1692 O 163.363 -4.04154 -1.69089 0
M  V30 1693 C 164.864 -3.06217 -3.20541 0
M  V30 1694 H 162.084 -0.562276 -0.366178 0
M  V30 1695 H 164.628 -1.97666 -0.524244 0
M  V30 1696 H 162.783 -2.5121 -2.94911 0
M  V30 1697 H 163.197 -4.65894 -2.40922 0
M  V30 1698 H 164.671 -3.8764 -3.92987 0
M  V30 1699 H 165.148 -2.18439 -3.81026 0
M  V30 1700 H 165.754 -3.35397 -2.61513 0
M  V30 1701 N 164.069 0.697108 -1.41344 0
M  V30 1702 C 165.309 1.46939 -1.42085 0
M  V30 1703 C 165.673 1.9198 -0.0280397 0
M  V30 1704 O 166.874 2.6865 0.0897504 0
M  V30 1705 C 165.145 2.64985 -2.39828 0
M  V30 1706 S 166.704 3.54147 -2.59085 0
M  V30 1707 H 163.522 0.502146 -0.503359 0
M  V30 1708 H 166.124 0.813546 -1.77769 0
M  V30 1709 H 164.828 2.30098 -3.39828 0
M  V30 1710 H 164.359 3.35464 -2.05493 0
M  V30 1711 H 166.374 4.60137 -1.85711 0
M  V30 1712 N 165.547 1.27147 0.931209 0
M  V30 1713 C 166.795 1.13055 1.6752 0
M  V30 1714 C 167.116 -0.324791 1.92276 0
M  V30 1715 O 166.386 -1.22775 1.52654 0
M  V30 1716 H 164.966 0.415391 0.620854 0
M  V30 1717 H 167.628 1.59623 1.11833 0
M  V30 1718 H 166.724 1.65694 2.64485 0
M  V30 1719 N 167.025 -1.13721 1.09112 0
M  V30 1720 C 168.255 -1.88499 0.845671 0
M  V30 1721 C 168.663 -1.79218 -0.606432 0
M  V30 1722 O 168.006 -1.1544 -1.42896 0
M  V30 1723 C 168.068 -3.38954 1.19793 0
M  V30 1724 C 167.732 -3.72018 2.65428 0
M  V30 1725 C 168.729 -3.7153 3.63677 0
M  V30 1726 C 166.414 -4.01775 3.01467 0
M  V30 1727 C 168.408 -4.00336 4.95994 0
M  V30 1728 C 166.095 -4.30243 4.33975 0
M  V30 1729 C 167.093 -4.29508 5.31048 0
M  V30 1730 O 166.781 -4.5728 6.61173 0
M  V30 1731 H 166.513 -0.603702 0.304171 0
M  V30 1732 H 169.067 -1.44903 1.45576 0
M  V30 1733 H 167.297 -3.83039 0.530871 0
M  V30 1734 H 168.986 -3.95052 0.932146 0
M  V30 1735 H 169.752 -3.4862 3.37179 0
M  V30 1736 H 165.631 -4.01496 2.26544 0
M  V30 1737 H 169.175 -3.99678 5.71755 0
M  V30 1738 H 165.072 -4.52625 4.60219 0
M  V30 1739 H 165.84 -4.74964 6.66597 0
M  V30 1740 N 168.503 -0.877838 -1.30888 0
M  V30 1741 C 169.743 -0.499301 -1.98208 0
M  V30 1742 C 170.107 0.932649 -1.67826 0
M  V30 1743 O 171.308 1.41694 -2.28421 0
M  V30 1744 C 169.579 -0.758221 -3.49265 0
M  V30 1745 S 171.138 -0.480719 -4.36159 0
M  V30 1746 H 167.956 -0.186062 -0.686223 0
M  V30 1747 H 170.558 -1.13556 -1.59139 0
M  V30 1748 H 169.262 -1.79903 -3.68867 0
M  V30 1749 H 168.793 -0.109247 -3.93248 0
M  V30 1750 H 170.808 0.683698 -4.91467 0
M  V30 1751 N 169.982 1.44106 -0.638065 0
M  V30 1752 C 171.23 2.01579 -0.145043 0
M  V30 1753 C 171.551 1.50496 1.24 0
M  V30 1754 O 170.821 0.711374 1.82527 0
M  V30 1755 H 169.401 0.745282 -0.05063 0
M  V30 1756 H 172.063 1.76516 -0.826327 0
M  V30 1757 H 171.159 3.11877 -0.118039 0
M  V30 1758 N 171.46 0.379036 1.52974 0
M  V30 1759 C 172.39 -0.452706 2.29069 0
M  V30 1760 C 173.371 -1.07237 1.32039 0
M  V30 1761 O 174.556 -1.08708 1.60923 0
M  V30 1762 C 171.686 -1.5856 3.08992 0
M  V30 1763 C 170.64 -1.0925 4.13822 0
M  V30 1764 C 169.966 -2.31668 4.81907 0
M  V30 1765 C 171.266 -0.167702 5.22031 0
M  V30 1766 H 172.96 0.182181 2.98845 0
M  V30 1767 H 170.506 0.0890592 1.43724 0
M  V30 1768 H 172.459 -2.1742 3.6098 0
M  V30 1769 H 171.183 -2.24792 2.36931 0
M  V30 1770 H 169.842 -0.526494 3.628 0
M  V30 1771 H 169.49 -2.96386 4.06404 0
M  V30 1772 H 169.19 -1.9934 5.52754 0
M  V30 1773 H 170.714 -2.91189 5.36695 0
M  V30 1774 H 172.128 -0.664186 5.6944 0
M  V30 1775 H 170.525 0.0653265 6.00064 0
M  V30 1776 H 171.595 0.786347 4.78482 0
M  V30 1777 N 172.938 -1.57226 0.108567 0
M  V30 1778 C 173.87 -2.11809 -0.875752 0
M  V30 1779 C 174.883 -1.05839 -1.23701 0
M  V30 1780 O 176.072 -1.33245 -1.18778 0
M  V30 1781 C 173.172 -2.59411 -2.18081 0
M  V30 1782 C 172.345 -3.89364 -1.99284 0
M  V30 1783 C 171.404 -4.22672 -3.13424 0
M  V30 1784 O 170.43 -4.91668 -2.86795 0
M  V30 1785 N 171.632 -3.79154 -4.3957 0
M  V30 1786 H 174.397 -2.9689 -0.409477 0
M  V30 1787 H 171.958 -1.61721 -0.076158 0
M  V30 1788 H 173.95 -2.7873 -2.93414 0
M  V30 1789 H 172.52 -1.79268 -2.5609 0
M  V30 1790 H 171.74 -3.79059 -1.08203 0
M  V30 1791 H 173.028 -4.74358 -1.84017 0
M  V30 1792 H 172.426 -3.23486 -4.64083 0
M  V30 1793 H 170.983 -4.03602 -5.11809 0
M  V30 1794 N 174.416 0.165178 -1.56732 0
M  V30 1795 C 175.663 0.880807 -1.8234 0
M  V30 1796 C 175.991 1.81977 -0.686621 0
M  V30 1797 O 175.246 1.92971 0.325697 0
M  V30 1798 C 175.545 1.70405 -3.1416 0
M  V30 1799 C 175.211 0.913475 -4.4155 0
M  V30 1800 C 173.873 0.695303 -4.7615 0
M  V30 1801 C 176.225 0.359349 -5.1996 0
M  V30 1802 C 173.553 -0.0879947 -5.86634 0
M  V30 1803 C 175.905 -0.410893 -6.31264 0
M  V30 1804 C 174.569 -0.639808 -6.64427 0
M  V30 1805 H 173.839 0.32231 -0.667231 0
M  V30 1806 H 176.486 0.145402 -1.90947 0
M  V30 1807 H 174.791 2.50903 -3.00923 0
M  V30 1808 H 176.488 2.26091 -3.31186 0
M  V30 1809 H 173.078 1.09357 -4.14414 0
M  V30 1810 H 177.262 0.515228 -4.93618 0
M  V30 1811 H 172.518 -0.27503 -6.10781 0
M  V30 1812 H 176.692 -0.847494 -6.91224 0
M  V30 1813 H 174.319 -1.24864 -7.49875 0
M  V30 1814 N 175.894 1.51508 0.433938 0
M  V30 1815 C 177.31 1.39759 0.770682 0
M  V30 1816 C 177.51 0.482594 1.95636 0
M  V30 1817 O 176.566 -0.0609691 2.52426 0
M  V30 1818 C 177.879 2.81851 1.04787 0
M  V30 1819 C 179.427 2.91025 1.1521 0
M  V30 1820 C 179.902 4.34032 1.46219 0
M  V30 1821 N 181.393 4.37154 1.53136 0
M  V30 1822 C 182.128 5.4484 1.78709 0
M  V30 1823 N 181.624 6.62682 2.02051 0
M  V30 1824 N 183.417 5.32324 1.80519 0
M  V30 1825 H 175.568 2.09548 -0.346892 0
M  V30 1826 H 177.831 0.943446 -0.0928074 0
M  V30 1827 H 177.537 3.50815 0.249304 0
M  V30 1828 H 177.411 3.21386 1.97461 0
M  V30 1829 H 179.798 2.22257 1.94128 0
M  V30 1830 H 179.879 2.54983 0.204281 0
M  V30 1831 H 179.523 5.03351 0.678274 0
M  V30 1832 H 179.453 4.6759 2.42212 0
M  V30 1833 H 181.944 3.52197 1.36987 0
M  V30 1834 H 182.257 7.40543 2.20943 0
M  V30 1835 H 180.602 6.65791 1.99366 0
M  V30 1836 H 183.793 4.39246 1.61805 0
M  V30 1837 H 183.966 6.16328 2.00111 0
M  V30 1838 N 177.372 -0.689602 1.41712 0
M  V30 1839 C 178.304 -1.815 1.39966 0
M  V30 1840 C 179.317 -1.59995 0.300917 0
M  V30 1841 O 180.506 -1.69387 0.563039 0
M  V30 1842 C 177.606 -3.18364 1.16179 0
M  V30 1843 C 176.779 -3.66847 2.38206 0
M  V30 1844 C 175.838 -4.82398 2.10186 0
M  V30 1845 O 174.864 -4.93706 2.83272 0
M  V30 1846 N 176.066 -5.70064 1.0958 0
M  V30 1847 H 178.831 -1.83488 2.36965 0
M  V30 1848 H 176.392 -0.872149 1.36401 0
M  V30 1849 H 178.384 -3.93301 0.953756 0
M  V30 1850 H 176.954 -3.11365 0.27756 0
M  V30 1851 H 176.174 -2.82751 2.74673 0
M  V30 1852 H 177.462 -3.95978 3.19498 0
M  V30 1853 H 176.86 -5.63565 0.491019 0
M  V30 1854 H 175.417 -6.44874 0.947656 0
M  V30 1855 N 178.85 -1.27639 -0.924453 0
M  V30 1856 C 179.8 -1.07295 -2.01176 0
M  V30 1857 C 180.784 5.77352e-05 -1.609 0
M  V30 1858 O 181.976 -0.218855 -1.75642 0
M  V30 1859 C 179.105 -0.725592 -3.35544 0
M  V30 1860 C 178.191 -1.83691 -3.82254 0
M  V30 1861 N 178.582 -3.07697 -4.01443 0
M  V30 1862 C 176.88 -1.72433 -4.11319 0
M  V30 1863 C 177.581 -3.80037 -4.40394 0
M  V30 1864 N 176.557 -3.0782 -4.48049 0
M  V30 1865 H 180.359 -2.01399 -2.14046 0
M  V30 1866 H 177.873 -1.18401 -1.11153 0
M  V30 1867 H 179.87 -0.560959 -4.13109 0
M  V30 1868 H 178.53 0.207782 -3.24034 0
M  V30 1869 H 179.541 -3.43424 -3.8766 0
M  V30 1870 H 176.218 -0.862005 -4.08504 0
M  V30 1871 H 177.608 -4.86632 -4.63291 0
M  V30 1872 N 180.328 1.1314 -1.09713 0
M  V30 1873 C 181.278 2.16709 -0.708593 0
M  V30 1874 C 182.262 1.58471 0.278523 0
M  V30 1875 O 183.454 1.76779 0.088427 0
M  V30 1876 C 180.583 3.43039 -0.133923 0
M  V30 1877 C 179.669 4.08277 -1.14763 0
M  V30 1878 N 180.06 4.48637 -2.33577 0
M  V30 1879 C 178.358 4.34954 -0.986446 0
M  V30 1880 C 179.059 4.9952 -2.98085 0
M  V30 1881 N 178.035 4.94561 -2.25632 0
M  V30 1882 H 181.837 2.45672 -1.61315 0
M  V30 1883 H 179.351 1.29967 -0.973775 0
M  V30 1884 H 181.348 4.16583 0.162465 0
M  V30 1885 H 180.008 3.15549 0.765447 0
M  V30 1886 H 181.019 4.41246 -2.7115 0
M  V30 1887 H 177.696 4.17258 -0.142008 0
M  V30 1888 H 179.086 5.40521 -3.99108 0
M  V30 1889 N 181.806 0.884767 1.30421 0
M  V30 1890 C 182.756 0.322846 2.25703 0
M  V30 1891 C 183.74 -0.548582 1.51259 0
M  V30 1892 O 184.932 -0.39304 1.72581 0
M  V30 1893 C 182.061 -0.461787 3.4018 0
M  V30 1894 C 181.147 0.423717 4.21978 0
M  V30 1895 N 181.538 1.52408 4.82292 0
M  V30 1896 C 179.836 0.218795 4.45463 0
M  V30 1897 C 180.537 2.07136 5.43571 0
M  V30 1898 N 179.513 1.36635 5.26148 0
M  V30 1899 H 183.315 1.16363 2.69883 0
M  V30 1900 H 180.829 0.73415 1.44859 0
M  V30 1901 H 182.826 -0.880985 4.07485 0
M  V30 1902 H 181.486 -1.30001 2.9754 0
M  V30 1903 H 182.497 1.90693 4.81515 0
M  V30 1904 H 179.174 -0.582275 4.1342 0
M  V30 1905 H 180.564 2.99538 6.01437 0
M  V30 1906 O 183.323 -1.41116 0.785407 0
M  V30 1907 H 184.014 -1.90435 0.354159 0
M  V30 END ATOM
M  V30 BEGIN BOND
M  V30 END BOND
M  V30 END CTAB
M  END
$$$$
