drugbank_target|P19113 Histidine decarboxylase (DB00114; DB00117)
 OpenBabel12092119223D

  0  0  0     0  0            999 V3000
M  V30 BEGIN CTAB
M  V30 COUNTS 10408 10536 0 0 0
M  V30 BEGIN ATOM
M  V30 1 H -0.908 1.98254 -0.117106 0
M  V30 2 N 0 1.576 0 0
M  V30 3 C 0.933 2.03868 1.02534 0
M  V30 4 C 1.911 0.928543 1.3348 0
M  V30 5 O 3.095 1.19667 1.45644 0
M  V30 6 C 0.222 2.43627 2.35294 0
M  V30 7 C -0.732 3.65373 2.2001 0
M  V30 8 S 0.101 5.13292 1.52614 0
M  V30 9 C 1.257 5.56322 2.86805 0
M  V30 10 H 1.49 2.90518 0.631377 0
M  V30 11 H -0.977 1.52953 0.210867 0
M  V30 12 H 0.981 2.67203 3.11629 0
M  V30 13 H -0.358 1.57376 2.7183 0
M  V30 14 H -1.165 3.90944 3.18086 0
M  V30 15 H -1.563 3.418 1.51819 0
M  V30 16 H 0.729 5.58782 3.83104 0
M  V30 17 H 1.672 6.56266 2.65933 0
M  V30 18 H 2.08 4.83886 2.90714 0
M  V30 19 N 1.4781 -0.272755 1.55222 0
M  V30 20 C 2.4111 -1.3627 1.83046 0
M  V30 21 C 3.3891 -1.47536 0.683521 0
M  V30 22 O 4.5731 -1.64157 0.926545 0
M  V30 23 C 1.7001 -2.73908 1.99229 0
M  V30 24 C 0.7461 -2.79925 3.21783 0
M  V30 25 S 1.5791 -2.39146 4.79134 0
M  V30 26 C 2.7351 -3.78758 4.9829 0
M  V30 27 H 2.9681 -1.12464 2.75207 0
M  V30 28 H 0.5011 -0.472398 1.46996 0
M  V30 29 H 2.4591 -3.53171 2.09238 0
M  V30 30 H 1.1201 -2.94965 1.07956 0
M  V30 31 H 0.3131 -3.80946 3.29994 0
M  V30 32 H -0.0849 -2.08683 3.10367 0
M  V30 33 H 2.2071 -4.7403 4.84047 0
M  V30 34 H 3.1501 -3.75499 6.00338 0
M  V30 35 H 3.5581 -3.70072 4.26271 0
M  V30 36 N 2.9562 -1.48159 -0.537278 0
M  V30 37 C 3.8662 -1.64807 -1.6696 0
M  V30 38 C 4.8822 -0.530651 -1.65711 0
M  V30 39 O 6.0582 -0.800784 -1.84796 0
M  V30 40 C 3.1232 -1.67708 -3.03438 0
M  V30 41 C 2.1842 -2.91025 -3.156 0
M  V30 42 C 1.4172 -2.93778 -4.45567 0
M  V30 43 O 1.6402 -2.05153 -5.3223 0
M  V30 44 O 0.5742 -3.85868 -4.61941 0
M  V30 45 H 4.4002 -2.6066 -1.55853 0
M  V30 46 H 1.9852 -1.31475 -0.709549 0
M  V30 47 H 3.8672 -1.7218 -3.84619 0
M  V30 48 H 2.5422 -0.750278 -3.14885 0
M  V30 49 H 1.4492 -2.92089 -2.33741 0
M  V30 50 H 2.7822 -3.83065 -3.09066 0
M  V30 51 N 4.4343 0.785586 -1.36625 0
M  V30 52 C 5.8453 1.36101 -1.27803 0
M  V30 53 C 6.1963 1.96035 0.0804875 0
M  V30 54 O 5.3213 1.92834 0.982042 0
M  V30 55 C 5.9163 2.47442 -2.31426 0
M  V30 56 C 4.4753 3.00789 -2.26281 0
M  V30 57 C 3.6223 1.73896 -2.15999 0
M  V30 58 H 6.5733 0.586928 -1.47448 0
M  V30 59 H 6.5943 3.2656 -1.95291 0
M  V30 60 H 6.1063 2.03791 -3.30289 0
M  V30 61 H 4.2073 3.48851 -1.30896 0
M  V30 62 H 4.3203 3.57343 -3.19128 0
M  V30 63 H 2.6843 1.9628 -1.62316 0
M  V30 64 H 3.4673 1.32368 -3.16755 0
M  V30 65 N 5.9124 1.20967 1.01018 0
M  V30 66 C 6.8224 0.980157 2.13143 0
M  V30 67 C 7.8384 -0.0660665 1.73875 0
M  V30 68 O 9.0144 0.122821 2.01025 0
M  V30 69 C 6.0794 0.54216 3.42435 0
M  V30 70 C 5.1404 1.65999 3.95908 0
M  V30 71 C 4.3734 1.2428 5.19028 0
M  V30 72 O 4.5964 0.114196 5.70286 0
M  V30 73 O 3.5304 2.05271 5.65816 0
M  V30 74 H 7.3564 1.91913 2.35379 0
M  V30 75 H 4.9414 0.994099 1.11526 0
M  V30 76 H 6.8234 0.30744 4.20277 0
M  V30 77 H 5.4984 -0.36815 3.216 0
M  V30 78 H 4.4054 1.94906 3.19316 0
M  V30 79 H 5.7384 2.54753 4.21143 0
M  V30 80 N 7.3905 -1.2043 1.01659 0
M  V30 81 C 8.3005 -2.2689 0.596484 0
M  V30 82 C 9.3165 -1.70107 -0.36599 0
M  V30 83 O 10.4925 -2.00117 -0.226942 0
M  V30 84 C 7.5575 -3.4665 -0.0586659 0
M  V30 85 C 6.6185 -4.18662 0.949751 0
M  V30 86 C 5.8515 -5.32705 0.32577 0
M  V30 87 O 6.0745 -5.63656 -0.874509 0
M  V30 88 O 5.0085 -5.92803 1.04249 0
M  V30 89 H 8.8345 -2.65041 1.4828 0
M  V30 90 H 6.4195 -1.27048 0.786082 0
M  V30 91 H 8.3015 -4.19256 -0.424564 0
M  V30 92 H 6.9765 -3.10375 -0.91918 0
M  V30 93 H 5.8835 -3.48229 1.36702 0
M  V30 94 H 7.2165 -4.58878 1.78023 0
M  V30 95 N 8.8686 -0.792821 -1.36206 0
M  V30 96 C 10.0986 -0.378275 -2.03107 0
M  V30 97 C 10.5066 1.01119 -1.59911 0
M  V30 98 O 9.8496 1.66052 -0.785658 0
M  V30 99 C 9.9116 -0.366535 -3.57627 0
M  V30 100 C 9.5756 -1.70416 -4.24037 0
M  V30 101 C 10.5726 -2.6602 -4.46687 0
M  V30 102 C 8.2576 -1.98439 -4.6144 0
M  V30 103 C 10.2516 -3.8784 -5.05825 0
M  V30 104 C 7.9386 -3.20525 -5.20295 0
M  V30 105 C 8.9366 -4.15044 -5.42427 0
M  V30 106 O 8.6246 -5.34978 -6.00045 0
M  V30 107 H 8.3566 -0.153543 -0.658332 0
M  V30 108 H 10.9106 -1.07383 -1.75094 0
M  V30 109 H 9.1406 0.385539 -3.84773 0
M  V30 110 H 10.8296 0.0238088 -4.05893 0
M  V30 111 H 11.5956 -2.45658 -4.18183 0
M  V30 112 H 7.4746 -1.25686 -4.43536 0
M  V30 113 H 11.0186 -4.61628 -5.23015 0
M  V30 114 H 6.9156 -3.40764 -5.48225 0
M  V30 115 H 7.6836 -5.36088 -6.18508 0
M  V30 116 N 10.3467 1.47872 -0.545128 0
M  V30 117 C 11.7627 1.5829 -0.204032 0
M  V30 118 C 11.9627 1.54529 1.29317 0
M  V30 119 O 11.0187 1.44232 2.07252 0
M  V30 120 C 12.3317 2.89304 -0.819987 0
M  V30 121 C 13.8797 3.02864 -0.790105 0
M  V30 122 C 14.3547 4.3656 -1.38491 0
M  V30 123 N 15.8457 4.43165 -1.34755 0
M  V30 124 C 16.5807 5.45153 -1.77753 0
M  V30 125 N 16.0767 6.54016 -2.2855 0
M  V30 126 N 17.8697 5.36125 -1.68897 0
M  V30 127 H 10.0207 1.4856 -1.51802 0
M  V30 128 H 12.2837 0.706305 -0.632327 0
M  V30 129 H 11.9897 2.97757 -1.87173 0
M  V30 130 H 11.8637 3.75957 -0.305915 0
M  V30 131 H 14.2507 2.94014 0.252913 0
M  V30 132 H 14.3317 2.17782 -1.34181 0
M  V30 133 H 13.9757 4.46164 -2.42693 0
M  V30 134 H 13.9057 5.20353 -0.808754 0
M  V30 135 H 16.3967 3.65083 -0.975855 0
M  V30 136 H 16.7097 7.27994 -2.59314 0
M  V30 137 H 15.0547 6.54938 -2.32553 0
M  V30 138 H 18.2457 4.49975 -1.28998 0
M  V30 139 H 18.4187 6.15472 -2.02726 0
M  V30 140 N 11.8248 0.280983 1.55075 0
M  V30 141 C 12.7348 -0.61388 2.26426 0
M  V30 142 C 13.7508 -1.16521 1.29224 0
M  V30 143 O 14.9268 -1.19426 1.62171 0
M  V30 144 C 11.9918 -1.7788 2.9759 0
M  V30 145 C 11.0528 -1.26355 4.10284 0
M  V30 146 C 10.2858 -2.37295 4.78045 0
M  V30 147 O 10.5088 -3.56777 4.45047 0
M  V30 148 O 9.4428 -2.05119 5.65871 0
M  V30 149 H 13.2688 -0.0356932 3.03679 0
M  V30 150 H 10.8538 0.0481686 1.49322 0
M  V30 151 H 12.7358 -2.45791 3.42293 0
M  V30 152 H 11.4108 -2.34397 2.23249 0
M  V30 153 H 10.3178 -0.550735 3.70024 0
M  V30 154 H 11.6508 -0.744065 4.86543 0
M  V30 155 N 13.3029 -1.57598 0.00835791 0
M  V30 156 C 14.7189 -1.55764 -0.347822 0
M  V30 157 C 14.9189 -1.01186 -1.74252 0
M  V30 158 O 13.9749 -0.649371 -2.44007 0
M  V30 159 C 15.2879 -2.99927 -0.215407 0
M  V30 160 C 16.8359 -3.11656 -0.289725 0
M  V30 161 C 17.3109 -4.57621 -0.18634 0
M  V30 162 N 18.8019 -4.62557 -0.243978 0
M  V30 163 C 19.5369 -5.73094 -0.18745 0
M  V30 164 N 19.0329 -6.92753 -0.0810331 0
M  V30 165 N 20.8259 -5.61588 -0.239925 0
M  V30 166 H 12.9769 -1.91411 0.92062 0
M  V30 167 H 15.2399 -0.879562 0.353659 0
M  V30 168 H 14.9459 -3.43729 0.744512 0
M  V30 169 H 14.8199 -3.63865 -0.994097 0
M  V30 170 H 17.2069 -2.67779 -1.24009 0
M  V30 171 H 17.2879 -2.5048 0.51898 0
M  V30 172 H 16.9319 -5.02174 0.760519 0
M  V30 173 H 16.8619 -5.16752 -1.01364 0
M  V30 174 H 19.3529 -3.76481 -0.327217 0
M  V30 175 H 19.6659 -7.72787 -0.0440241 0
M  V30 176 H 18.0109 -6.94984 -0.0465419 0
M  V30 177 H 21.2019 -4.66996 -0.321317 0
M  V30 178 H 21.3749 -6.47714 -0.192407 0
M  V30 179 N 14.781 0.264519 -1.55364 0
M  V30 180 C 16.029 0.993021 -1.76021 0
M  V30 181 C 16.35 1.86511 -0.569099 0
M  V30 182 O 15.62 1.91438 0.415735 0
M  V30 183 H 14.2 0.369639 -0.649135 0
M  V30 184 H 16.862 0.286707 -1.9278 0
M  V30 185 H 15.958 1.62502 -2.66457 0
M  V30 186 N 16.2591 1.48442 0.529413 0
M  V30 187 C 17.6751 1.34575 0.858004 0
M  V30 188 C 17.8751 0.3572 1.98309 0
M  V30 189 O 16.9311 -0.221379 2.51528 0
M  V30 190 C 18.2441 2.74617 1.22499 0
M  V30 191 C 19.7921 2.83109 1.33484 0
M  V30 192 C 20.2671 4.23854 1.73526 0
M  V30 193 N 21.7581 4.2653 1.80628 0
M  V30 194 C 22.4931 5.32372 2.12997 0
M  V30 195 N 21.9891 6.48491 2.43786 0
M  V30 196 N 23.7821 5.19766 2.14008 0
M  V30 197 H 15.9331 2.1133 -0.212925 0
M  V30 198 H 18.1961 0.947439 -0.0326199 0
M  V30 199 H 17.9021 3.4852 0.471905 0
M  V30 200 H 17.7761 3.08177 2.17501 0
M  V30 201 H 20.1631 2.09462 2.0787 0
M  V30 202 H 20.2441 2.53168 0.366027 0
M  V30 203 H 19.8881 4.98018 0.997013 0
M  V30 204 H 19.8181 4.5124 2.71459 0
M  V30 205 H 22.3091 3.42772 1.59108 0
M  V30 206 H 22.6221 7.24993 2.67592 0
M  V30 207 H 20.9671 6.51765 2.41304 0
M  V30 208 H 24.1581 4.28066 1.89412 0
M  V30 209 H 24.3311 6.02354 2.38902 0
M  V30 210 N 17.7372 -0.778329 1.37039 0
M  V30 211 C 18.6472 -1.92253 1.34446 0
M  V30 212 C 19.6632 -1.72267 0.244991 0
M  V30 213 O 20.8392 -1.95615 0.479258 0
M  V30 214 C 17.9042 -3.27282 1.144 0
M  V30 215 C 16.9652 -3.59969 2.33925 0
M  V30 216 C 16.1982 -4.88555 2.14825 0
M  V30 217 O 16.4212 -5.59113 1.12912 0
M  V30 218 O 15.3552 -5.20153 3.02861 0
M  V30 219 H 19.1812 -1.97392 2.30803 0
M  V30 220 H 16.7662 -0.920154 1.17701 0
M  V30 221 H 18.6482 -4.08062 1.05182 0
M  V30 222 H 17.3232 -3.23011 0.211124 0
M  V30 223 H 16.2302 -2.7945 2.48714 0
M  V30 224 H 17.5632 -3.68976 3.25757 0
M  V30 225 N 19.2153 -1.21501 -1.00376 0
M  V30 226 C 20.1483 -0.918669 -2.08892 0
M  V30 227 C 21.1263 0.134277 -1.62045 0
M  V30 228 O 22.3103 0.00504255 -1.88499 0
M  V30 229 C 19.4373 -0.379645 -3.36566 0
M  V30 230 C 18.4833 -1.41559 -4.02323 0
M  V30 231 S 19.3163 -2.98521 -4.44574 0
M  V30 232 C 20.4723 -2.46228 -5.75433 0
M  V30 233 H 20.7053 -1.83761 -2.33707 0
M  V30 234 H 18.2383 -1.04489 -1.13673 0
M  V30 235 H 20.1963 -0.0752195 -4.10431 0
M  V30 236 H 18.8573 0.518008 -3.09799 0
M  V30 237 H 18.0503 -0.988076 -4.9422 0
M  V30 238 H 17.6523 -1.66815 -3.34737 0
M  V30 239 H 19.9443 -1.86791 -6.51241 0
M  V30 240 H 20.8873 -3.36572 -6.22997 0
M  V30 241 H 21.2953 -1.87894 -5.32312 0
M  V30 242 N 20.6934 1.19889 -1.02296 0
M  V30 243 C 21.9394 1.89701 -0.717033 0
M  V30 244 C 22.2724 1.7905 0.751989 0
M  V30 245 O 21.5474 1.17891 1.547 0
M  V30 246 C 21.8304 3.40858 -1.16136 0
M  V30 247 C 21.6834 3.60411 -2.69117 0
M  V30 248 C 23.0024 4.33876 -0.737549 0
M  V30 249 H 20.1214 0.688874 -0.261957 0
M  V30 250 H 22.7634 1.41154 -1.27183 0
M  V30 251 H 20.9134 3.82335 -0.689342 0
M  V30 252 H 22.5854 3.28145 -3.2422 0
M  V30 253 H 20.8284 3.03665 -3.0979 0
M  V30 254 H 21.4994 4.66396 -2.95261 0
M  V30 255 H 23.9754 4.00081 -1.14344 0
M  V30 256 H 22.8514 5.38242 -1.0764 0
M  V30 257 H 23.1124 4.40628 0.360436 0
M  V30 258 N 22.1715 0.800033 1.35784 0
M  V30 259 C 23.4485 0.30088 1.93272 0
M  V30 260 C 23.8285 -1.20857 1.73081 0
M  V30 261 O 23.1765 -2.00502 1.09596 0
M  V30 262 C 23.3865 0.70511 3.41803 0
M  V30 263 C 24.7345 0.690871 4.18942 0
M  V30 264 O 25.7585 0.646244 3.50289 0
M  V30 265 O 24.6175 0.74332 5.41421 0
M  V30 266 H 21.7115 0.0771605 0.823393 0
M  V30 267 H 24.2575 0.88329 1.449 0
M  V30 268 H 23.0295 1.74571 3.50201 0
M  V30 269 H 22.6525 0.0971541 3.97481 0
M  V30 270 N 23.6496 -1.47581 0.552962 0
M  V30 271 C 24.8796 -2.06575 0.0320091 0
M  V30 272 C 25.2876 -1.4067 -1.26525 0
M  V30 273 O 24.6306 -0.495808 -1.76883 0
M  V30 274 C 24.6926 -3.58705 -0.238913 0
M  V30 275 C 24.3566 -4.46625 0.968272 0
M  V30 276 C 25.3536 -4.85 1.87274 0
M  V30 277 C 23.0386 -4.88201 1.18175 0
M  V30 278 C 25.0326 -5.63745 2.9744 0
M  V30 279 C 22.7196 -5.66712 2.28651 0
M  V30 280 C 23.7176 -6.04394 3.18114 0
M  V30 281 O 23.4056 -6.81324 4.26676 0
M  V30 282 H 23.1376 -0.674763 0.0408689 0
M  V30 283 H 25.6916 -1.90634 0.764719 0
M  V30 284 H 23.9216 -3.72844 -1.02588 0
M  V30 285 H 25.6106 -3.99735 -0.704731 0
M  V30 286 H 26.3766 -4.53482 1.71984 0
M  V30 287 H 22.2556 -4.58339 0.494593 0
M  V30 288 H 25.7996 -5.93077 3.67296 0
M  V30 289 H 21.6966 -5.97642 2.43915 0
M  V30 290 H 22.4646 -6.99712 4.24671 0
M  V30 291 N 25.1277 -0.289203 -1.54924 0
M  V30 292 C 26.3767 0.324231 -1.99077 0
M  V30 293 C 26.6897 1.5591 -1.18117 0
M  V30 294 O 27.8957 2.24637 -1.52481 0
M  V30 295 C 26.3517 0.628209 -3.54375 0
M  V30 296 C 25.9597 -0.587647 -4.44129 0
M  V30 297 C 27.7037 1.20349 -4.07083 0
M  V30 298 C 25.6107 -0.257475 -5.90839 0
M  V30 299 H 24.5407 0.124924 -0.743579 0
M  V30 300 H 27.1917 -0.396063 -1.79175 0
M  V30 301 H 25.5737 1.40778 -3.70132 0
M  V30 302 H 26.7477 -1.36418 -4.40144 0
M  V30 303 H 25.0627 -1.08074 -4.0213 0
M  V30 304 H 27.6597 1.46456 -5.14252 0
M  V30 305 H 28.0027 2.14195 -3.56968 0
M  V30 306 H 28.5357 0.485889 -3.94821 0
M  V30 307 H 25.2747 -1.16419 -6.45079 0
M  V30 308 H 24.7947 0.482018 -5.9786 0
M  V30 309 H 26.4737 0.145238 -6.46837 0
M  V30 310 N 26.6058 1.57591 -0.0167156 0
M  V30 311 C 27.8458 1.93145 0.668902 0
M  V30 312 C 28.2098 0.892406 1.7 0
M  V30 313 O 29.4108 1.13373 2.43721 0
M  V30 314 C 27.6818 3.33678 1.28039 0
M  V30 315 S 29.2408 3.91142 1.9888 0
M  V30 316 H 26.0588 0.67593 0.220545 0
M  V30 317 H 28.6608 1.95347 -0.0774105 0
M  V30 318 H 27.3648 4.07126 0.517339 0
M  V30 319 H 26.8958 3.3489 2.06427 0
M  V30 320 H 28.9108 3.73571 3.26587 0
M  V30 321 N 28.0839 -0.256276 1.55502 0
M  V30 322 C 29.0159 -1.33981 1.85962 0
M  V30 323 C 30.0289 -1.44743 0.745212 0
M  V30 324 O 31.2179 -1.4626 1.02324 0
M  V30 325 C 28.3179 -2.7194 2.02242 0
M  V30 326 C 27.4909 -2.83562 3.33033 0
M  V30 327 C 26.5499 -4.02304 3.39172 0
M  V30 328 O 25.5759 -3.92273 4.12444 0
M  V30 329 N 26.7779 -5.15045 2.67784 0
M  V30 330 H 29.5429 -1.08191 2.7949 0
M  V30 331 H 27.1039 -0.446388 1.55624 0
M  V30 332 H 29.0959 -3.49697 2.03701 0
M  V30 333 H 27.6659 -2.90479 1.15502 0
M  V30 334 H 26.8859 -1.92555 3.43971 0
M  V30 335 H 28.1739 -2.88271 4.19258 0
M  V30 336 H 27.5719 -5.26085 2.07968 0
M  V30 337 H 26.1289 -5.90972 2.74947 0
M  V30 338 N 29.562 -1.4872 -0.521534 0
M  V30 339 C 30.792 -1.6061 -1.29954 0
M  V30 340 C 31.2 -0.268728 -1.87282 0
M  V30 341 O 30.543 0.753221 -1.67548 0
M  V30 342 C 30.605 -2.60013 -2.48261 0
M  V30 343 C 30.269 -4.04874 -2.11957 0
M  V30 344 C 31.266 -4.92304 -1.67132 0
M  V30 345 C 28.951 -4.5047 -2.22221 0
M  V30 346 C 30.945 -6.2336 -1.33047 0
M  V30 347 C 28.632 -5.81544 -1.87748 0
M  V30 348 C 29.63 -6.67812 -1.43234 0
M  V30 349 O 29.318 -7.96446 -1.09217 0
M  V30 350 H 29.05 -0.544116 -0.401141 0
M  V30 351 H 31.604 -1.95339 -0.634958 0
M  V30 352 H 29.834 -2.20422 -3.17728 0
M  V30 353 H 31.523 -2.61648 -3.10315 0
M  V30 354 H 32.289 -4.58312 -1.58665 0
M  V30 355 H 28.168 -3.83504 -2.55823 0
M  V30 356 H 31.712 -6.90649 -0.982299 0
M  V30 357 H 27.609 -6.15069 -1.95858 0
M  V30 358 H 28.377 -8.09275 -1.22542 0
M  V30 359 N 31.0401 0.771051 -1.3745 0
M  V30 360 C 31.9701 1.89827 -1.3597 0
M  V30 361 C 32.9511 1.68562 -0.228216 0
M  V30 362 O 34.1361 1.8941 -0.428675 0
M  V30 363 C 31.2661 3.2712 -1.16662 0
M  V30 364 C 30.2201 3.6295 -2.2683 0
M  V30 365 C 29.5461 4.98791 -1.92644 0
M  V30 366 C 30.8461 3.69627 -3.69017 0
M  V30 367 H 32.5401 1.91323 -2.30295 0
M  V30 368 H 30.0861 0.919082 -1.10855 0
M  V30 369 H 32.0391 4.05615 -1.14256 0
M  V30 370 H 30.7631 3.26059 -0.187926 0
M  V30 371 H 29.4221 2.86763 -2.28392 0
M  V30 372 H 29.0701 4.94271 -0.933021 0
M  V30 373 H 28.7701 5.23733 -2.66416 0
M  V30 374 H 30.2941 5.79685 -1.91826 0
M  V30 375 H 31.7081 4.38273 -3.69581 0
M  V30 376 H 30.1051 4.06067 -4.41848 0
M  V30 377 H 31.1751 2.70273 -4.02592 0
M  V30 378 N 32.5182 1.22032 0.997298 0
M  V30 379 C 33.7432 1.06921 1.77715 0
M  V30 380 C 34.1682 -0.376226 1.84299 0
M  V30 381 O 33.5262 -1.27165 1.29223 0
M  V30 382 C 33.5742 1.67996 3.19076 0
M  V30 383 O 32.6782 0.930653 4.01762 0
M  V30 384 H 32.0192 0.375814 0.547412 0
M  V30 385 H 34.5492 1.61737 1.25309 0
M  V30 386 H 34.5592 1.72538 3.69723 0
M  V30 387 H 33.2342 2.73182 3.13599 0
M  V30 388 H 31.8112 0.960917 3.60307 0
M  V30 389 N 33.9963 -1.19345 1.0293 0
M  V30 390 C 35.2243 -1.92997 0.745644 0
M  V30 391 C 35.6393 -1.75519 -0.695589 0
M  V30 392 O 34.9963 -1.07737 -1.47306 0
M  V30 393 C 35.0473 -3.44741 1.08792 0
M  V30 394 O 34.7683 -3.61658 2.47256 0
M  V30 395 C 36.2693 -4.35515 0.827129 0
M  V30 396 H 33.4893 -0.613042 0.272801 0
M  V30 397 H 36.0333 -1.51473 1.3739 0
M  V30 398 H 34.1883 -3.84097 0.504832 0
M  V30 399 H 34.6023 -4.55514 2.60015 0
M  V30 400 H 36.0763 -5.40589 1.11658 0
M  V30 401 H 36.5533 -4.38552 -0.238436 0
M  V30 402 H 37.1593 -4.01841 1.39297 0
M  V30 403 N 35.4744 -0.807222 -1.35358 0
M  V30 404 C 36.7204 -0.388463 -1.99045 0
M  V30 405 C 37.0534 1.04184 -1.63888 0
M  V30 406 O 36.3284 1.72292 -0.902535 0
M  V30 407 C 36.6114 -0.572783 -3.55515 0
M  V30 408 C 36.4644 -2.04807 -4.00468 0
M  V30 409 C 37.7834 0.00114064 -4.401 0
M  V30 410 H 34.9024 -0.142619 -0.723069 0
M  V30 411 H 37.5444 -1.01687 -1.60498 0
M  V30 412 H 35.6944 -0.0378425 -3.88482 0
M  V30 413 H 37.3664 -2.64544 -3.77908 0
M  V30 414 H 35.6094 -2.54427 -3.51353 0
M  V30 415 H 36.2804 -2.12792 -5.09337 0
M  V30 416 H 38.7564 -0.455716 -4.13597 0
M  V30 417 H 37.6324 -0.157737 -5.48673 0
M  V30 418 H 37.8934 1.09488 -4.28328 0
M  V30 419 N 36.9525 1.47285 -0.560781 0
M  V30 420 C 38.3685 1.58065 -0.22081 0
M  V30 421 C 38.5685 1.55892 1.27671 0
M  V30 422 O 37.6245 1.46422 2.0571 0
M  V30 423 C 38.9375 2.88418 -0.850625 0
M  V30 424 C 40.4855 3.02009 -0.822184 0
M  V30 425 C 40.9605 4.35066 -1.43113 0
M  V30 426 N 42.4515 4.41711 -1.39448 0
M  V30 427 C 43.1865 5.43237 -1.83525 0
M  V30 428 N 42.6825 6.51555 -2.35474 0
M  V30 429 N 44.4755 5.34304 -1.74574 0
M  V30 430 H 36.6265 1.46941 -1.53369 0
M  V30 431 H 38.8895 0.699558 -0.639783 0
M  V30 432 H 38.5955 2.95755 -1.9032 0
M  V30 433 H 38.4695 3.75612 -0.345773 0
M  V30 434 H 40.8565 2.94266 0.221714 0
M  V30 435 H 40.9375 2.16347 -1.36483 0
M  V30 436 H 40.5815 4.43565 -2.47412 0
M  V30 437 H 40.5115 5.19465 -0.863899 0
M  V30 438 H 43.0025 3.64027 -1.01452 0
M  V30 439 H 43.3155 7.25203 -2.67021 0
M  V30 440 H 41.6605 6.52435 -2.39487 0
M  V30 441 H 44.8515 4.48581 -1.33763 0
M  V30 442 H 45.0245 6.13288 -2.09242 0
M  V30 443 N 38.4306 0.297415 1.54768 0
M  V30 444 C 39.3406 -0.58983 2.27064 0
M  V30 445 C 40.3566 -1.15144 1.30453 0
M  V30 446 O 41.5326 -1.17699 1.63428 0
M  V30 447 C 38.5976 -1.74714 2.9946 0
M  V30 448 C 37.6586 -1.21997 4.11601 0
M  V30 449 C 36.8916 -2.32212 4.80535 0
M  V30 450 O 37.1146 -3.52036 4.48806 0
M  V30 451 O 36.0486 -1.99106 5.68014 0
M  V30 452 H 39.8746 -0.00348199 3.037 0
M  V30 453 H 37.4596 0.0640035 1.49263 0
M  V30 454 H 39.3416 -2.42147 3.44881 0
M  V30 455 H 38.0166 -2.32016 2.25722 0
M  V30 456 H 36.9236 -0.511458 3.70587 0
M  V30 457 H 38.2566 -0.692419 4.87305 0
M  V30 458 N 39.9087 -1.5758 0.0250728 0
M  V30 459 C 41.3247 -1.56124 -0.331282 0
M  V30 460 C 41.5247 -1.03029 -1.73169 0
M  V30 461 O 40.5807 -0.675215 -2.43305 0
M  V30 462 C 41.8937 -3.00139 -0.183584 0
M  V30 463 C 43.4417 -3.11946 -0.256654 0
M  V30 464 C 43.9167 -4.57793 -0.137792 0
M  V30 465 N 45.4077 -4.6279 -0.194904 0
M  V30 466 C 46.1427 -5.7326 -0.126655 0
M  V30 467 N 45.6387 -6.928 -0.00755288 0
M  V30 468 N 47.4317 -5.61811 -0.180348 0
M  V30 469 H 39.5827 -1.90424 0.94087 0
M  V30 470 H 41.8457 -0.875761 0.362968 0
M  V30 471 H 41.5517 -3.4292 0.780927 0
M  V30 472 H 41.4257 -3.64899 -0.955448 0
M  V30 473 H 43.8127 -2.69079 -1.21162 0
M  V30 474 H 43.8937 -2.49915 0.545517 0
M  V30 475 H 43.5377 -5.01339 0.813739 0
M  V30 476 H 43.4677 -5.17798 -0.958775 0
M  V30 477 H 45.9587 -3.76807 -0.287267 0
M  V30 478 H 46.2717 -7.72791 0.0379428 0
M  V30 479 H 44.6167 -6.94995 0.0271731 0
M  V30 480 H 47.8077 -4.6731 -0.271767 0
M  V30 481 H 47.9807 -6.47882 -0.123697 0
M  V30 482 N 41.3868 0.248026 -1.55636 0
M  V30 483 C 42.8028 0.596483 -1.48035 0
M  V30 484 C 43.0028 1.88386 -0.715039 0
M  V30 485 O 42.0588 2.51319 -0.243944 0
M  V30 486 C 43.3718 0.700258 -2.92433 0
M  V30 487 C 44.9198 0.792659 -3.02797 0
M  V30 488 C 45.3948 0.928005 -4.485 0
M  V30 489 N 46.8858 0.992903 -4.52433 0
M  V30 490 C 47.6208 1.11687 -5.62418 0
M  V30 491 N 47.1168 1.20645 -6.82214 0
M  V30 492 N 48.9098 1.14994 -5.50212 0
M  V30 493 H 41.0608 -0.597109 -2.03834 0
M  V30 494 H 43.3238 -0.205925 -0.925364 0
M  V30 495 H 43.0298 -0.175658 -3.51261 0
M  V30 496 H 42.9038 1.57255 -3.42857 0
M  V30 497 H 45.2908 1.65903 -2.4405 0
M  V30 498 H 45.3718 -0.104762 -2.55585 0
M  V30 499 H 45.0158 0.0661971 -5.07857 0
M  V30 500 H 44.9458 1.84045 -4.93391 0
M  V30 501 H 47.4368 0.935064 -3.66149 0
M  V30 502 H 47.7498 1.30008 -7.61786 0
M  V30 503 H 46.0948 1.17605 -6.84977 0
M  V30 504 H 49.2858 1.07643 -4.55555 0
M  V30 505 H 49.4588 1.24311 -6.35965 0
M  V30 506 N 42.8649 1.48995 0.513639 0
M  V30 507 C 44.1109 1.58076 1.27042 0
M  V30 508 C 44.4439 0.261026 1.92438 0
M  V30 509 O 43.7189 -0.734393 1.80103 0
M  V30 510 C 44.0019 2.73091 2.34719 0
M  V30 511 C 43.8549 4.14821 1.73907 0
M  V30 512 C 45.1739 2.83796 3.36375 0
M  V30 513 H 42.2929 0.575391 0.460536 0
M  V30 514 H 44.9349 1.81232 0.570516 0
M  V30 515 H 43.0849 2.53479 2.94416 0
M  V30 516 H 44.7569 4.45917 1.18135 0
M  V30 517 H 42.9999 4.21058 1.0437 0
M  V30 518 H 43.6709 4.91147 2.51949 0
M  V30 519 H 46.1469 3.01611 2.86653 0
M  V30 520 H 45.0229 3.65971 4.09093 0
M  V30 521 H 45.2839 1.92624 3.9793 0
M  V30 522 N 44.343 -0.763751 1.37857 0
M  V30 523 C 45.571 -1.55293 1.36718 0
M  V30 524 C 45.986 -1.88745 -0.0455434 0
M  V30 525 O 45.343 -1.52039 -1.00947 0
M  V30 526 C 45.394 -2.85831 2.2132 0
M  V30 527 O 45.115 -2.5381 3.57089 0
M  V30 528 C 46.616 -3.80023 2.28249 0
M  V30 529 H 43.836 -0.480841 0.468009 0
M  V30 530 H 46.38 -0.946009 1.81303 0
M  V30 531 H 44.535 -3.42926 1.80223 0
M  V30 532 H 44.949 -3.37459 4.01524 0
M  V30 533 H 46.423 -4.68599 2.91752 0
M  V30 534 H 46.9 -4.1973 1.2932 0
M  V30 535 H 47.506 -3.28855 2.69693 0
M  V30 536 N 45.8211 -1.22559 -0.990812 0
M  V30 537 C 47.2321 -1.04791 -1.54518 0
M  V30 538 C 47.5831 0.387998 -1.92325 0
M  V30 539 O 46.7081 1.27328 -1.74976 0
M  V30 540 C 47.3031 -1.896 -2.80779 0
M  V30 541 C 45.8621 -1.76124 -3.32652 0
M  V30 542 C 45.0091 -1.8594 -2.05722 0
M  V30 543 H 47.9601 -1.36374 -0.811662 0
M  V30 544 H 47.9811 -1.41464 -3.53225 0
M  V30 545 H 47.4931 -2.94101 -2.53231 0
M  V30 546 H 45.5941 -0.743643 -3.65104 0
M  V30 547 H 45.7071 -2.58913 -4.03114 0
M  V30 548 H 44.0711 -1.29403 -2.19379 0
M  V30 549 H 44.8541 -2.91976 -1.80568 0
M  V30 550 N 47.2992 1.18797 -1.03562 0
M  V30 551 C 48.5762 1.84469 -0.650434 0
M  V30 552 C 48.9562 1.92319 0.870433 0
M  V30 553 O 48.3042 1.44528 1.76986 0
M  V30 554 C 48.5142 3.2306 -1.32036 0
M  V30 555 C 49.8622 3.9915 -1.44792 0
M  V30 556 O 50.8862 3.32481 -1.27806 0
M  V30 557 O 49.7452 5.18587 -1.72423 0
M  V30 558 H 46.8392 0.795251 -0.226946 0
M  V30 559 H 49.3852 1.26231 -1.13419 0
M  V30 560 H 48.1572 3.1222 -2.3587 0
M  V30 561 H 47.7802 3.88949 -0.8249 0
M  V30 562 N 48.7773 0.814389 1.34928 0
M  V30 563 C 50.0233 0.399013 1.98836 0
M  V30 564 C 50.3563 -1.03314 1.64438 0
M  V30 565 O 49.6313 -1.71811 0.911659 0
M  V30 566 C 49.9143 0.591629 3.55207 0
M  V30 567 C 49.7673 2.06928 3.99376 0
M  V30 568 C 51.0863 0.022199 4.40094 0
M  V30 569 H 48.2053 0.146451 0.722303 0
M  V30 570 H 50.8473 1.02537 1.59957 0
M  V30 571 H 48.9973 0.0584441 3.88456 0
M  V30 572 H 50.6693 2.66544 3.76499 0
M  V30 573 H 48.9123 2.56287 3.49999 0
M  V30 574 H 49.5833 2.1549 5.08201 0
M  V30 575 H 52.0593 0.477643 4.13349 0
M  V30 576 H 50.9353 0.186832 5.48582 0
M  V30 577 H 51.1963 -1.07215 4.28902 0
M  V30 578 N 50.2554 -1.46986 0.568584 0
M  V30 579 C 51.1874 -2.28233 -0.210337 0
M  V30 580 C 52.2004 -1.37682 -0.868767 0
M  V30 581 O 53.3894 -1.62406 -0.740705 0
M  V30 582 C 50.4894 -3.12293 -1.3163 0
M  V30 583 C 49.6624 -4.30878 -0.7525 0
M  V30 584 C 48.7214 -4.96445 -1.74439 0
M  V30 585 O 47.7474 -5.54482 -1.286 0
M  V30 586 N 48.9494 -4.92171 -3.07812 0
M  V30 587 H 51.7144 -2.95723 0.486648 0
M  V30 588 H 49.2754 -1.56742 0.405409 0
M  V30 589 H 51.2674 -3.53022 -1.97883 0
M  V30 590 H 49.8374 -2.46971 -1.91636 0
M  V30 591 H 49.0574 -3.94104 0.0871128 0
M  V30 592 H 50.3454 -5.07558 -0.35536 0
M  V30 593 H 49.7434 -4.46239 -3.47688 0
M  V30 594 H 48.3004 -5.36884 -3.69592 0
M  V30 595 N 51.7335 -0.305618 -1.54608 0
M  V30 596 C 53.1445 0.186098 -1.8577 0
M  V30 597 C 53.4955 1.53058 -1.22751 0
M  V30 598 O 52.6205 2.09888 -0.526893 0
M  V30 599 C 53.2155 0.344449 -3.37044 0
M  V30 600 C 51.7745 0.780384 -3.68221 0
M  V30 601 C 50.9215 -0.108554 -2.77087 0
M  V30 602 H 53.8725 -0.526485 -1.49712 0
M  V30 603 H 53.8935 1.17828 -3.61796 0
M  V30 604 H 53.4055 -0.634235 -3.82883 0
M  V30 605 H 51.5065 1.76945 -3.27904 0
M  V30 606 H 51.6195 0.596572 -4.75371 0
M  V30 607 H 49.9835 0.412931 -2.5133 0
M  V30 608 H 50.7665 -1.08368 -3.25747 0
M  V30 609 N 53.2116 1.57565 -0.0334293 0
M  V30 610 C 54.4596 1.91598 0.642999 0
M  V30 611 C 54.7806 0.910847 1.7242 0
M  V30 612 O 54.0506 -0.0469931 1.95844 0
M  V30 613 H 52.6306 0.707228 0.240496 0
M  V30 614 H 55.2926 1.94726 -0.0822488 0
M  V30 615 H 54.3886 2.92336 1.09298 0
M  V30 616 N 54.6897 -0.239769 1.55765 0
M  V30 617 C 55.9197 -0.982743 1.8173 0
M  V30 618 C 56.3277 -1.7917 0.607835 0
M  V30 619 O 55.6707 -1.78525 -0.432973 0
M  V30 620 C 55.7327 -1.96332 3.01155 0
M  V30 621 C 55.3967 -1.34062 4.36894 0
M  V30 622 C 56.3937 -0.739539 5.14613 0
M  V30 623 C 54.0787 -1.35784 4.83599 0
M  V30 624 C 56.0727 -0.163989 6.37189 0
M  V30 625 C 53.7597 -0.778441 6.06122 0
M  V30 626 C 54.7577 -0.182548 6.82756 0
M  V30 627 O 54.4457 0.387887 8.02964 0
M  V30 628 H 54.1777 -0.294481 0.608487 0
M  V30 629 H 56.7317 -0.26572 2.03674 0
M  V30 630 H 54.9617 -2.71884 2.74984 0
M  V30 631 H 56.6507 -2.57032 3.14149 0
M  V30 632 H 57.4167 -0.718687 4.79646 0
M  V30 633 H 53.2957 -1.81105 4.23936 0
M  V30 634 H 56.8397 0.301753 6.96947 0
M  V30 635 H 52.7367 -0.796645 6.40565 0
M  V30 636 H 53.5047 0.28044 8.18019 0
M  V30 637 N 56.1678 -1.49265 -0.50573 0
M  V30 638 C 57.0978 -1.68495 -1.61653 0
M  V30 639 C 58.0788 -0.53366 -1.61512 0
M  V30 640 O 59.2638 -0.76897 -1.78327 0
M  V30 641 C 56.3938 -1.74709 -3.00157 0
M  V30 642 C 55.3478 -2.89581 -3.15162 0
M  V30 643 C 54.6738 -2.80903 -4.5497 0
M  V30 644 C 55.9738 -4.30578 -2.95634 0
M  V30 645 H 57.6678 -2.61493 -1.45814 0
M  V30 646 H 55.2138 -1.25838 -0.70005 0
M  V30 647 H 57.1668 -1.86748 -3.77761 0
M  V30 648 H 55.8908 -0.783067 -3.17074 0
M  V30 649 H 54.5498 -2.77136 -2.39982 0
M  V30 650 H 54.1978 -1.82419 -4.68756 0
M  V30 651 H 53.8978 -3.57999 -4.65951 0
M  V30 652 H 55.4218 -2.94944 -5.34641 0
M  V30 653 H 56.8358 -4.4373 -3.63011 0
M  V30 654 H 55.2328 -5.0886 -3.18091 0
M  V30 655 H 56.3028 -4.45352 -1.91806 0
M  V30 656 N 57.6459 0.756429 -1.3826 0
M  V30 657 C 59.0619 1.0591 -1.19395 0
M  V30 658 C 59.2619 2.01459 -0.0406567 0
M  V30 659 O 58.3179 2.44909 0.614467 0
M  V30 660 C 59.6309 1.64191 -2.51916 0
M  V30 661 C 61.1789 1.76376 -2.58574 0
M  V30 662 C 61.6539 2.38069 -3.91264 0
M  V30 663 N 63.1449 2.45503 -3.92788 0
M  V30 664 C 63.8799 2.94126 -4.92217 0
M  V30 665 N 63.3759 3.42805 -6.02043 0
M  V30 666 N 65.1689 2.9314 -4.7961 0
M  V30 667 H 57.3199 0.122313 -2.12048 0
M  V30 668 H 59.5829 0.116892 -0.940766 0
M  V30 669 H 59.2889 1.01451 -3.3675 0
M  V30 670 H 59.1629 2.6329 -2.70108 0
M  V30 671 H 61.5499 2.38244 -1.74137 0
M  V30 672 H 61.6309 0.759894 -2.44252 0
M  V30 673 H 61.2749 1.76835 -4.76121 0
M  V30 674 H 61.2049 3.39091 -4.02895 0
M  V30 675 H 63.6959 2.1107 -3.13461 0
M  V30 676 H 64.0089 3.78354 -6.73846 0
M  V30 677 H 62.3539 3.4087 -6.05667 0
M  V30 678 H 65.5449 2.54419 -3.92923 0
M  V30 679 H 65.7179 3.30721 -5.5725 0
M  V30 680 N 59.124 1.23083 0.984299 0
M  V30 681 C 60.087 1.00979 2.05757 0
M  V30 682 C 61.087 -0.0269573 1.60777 0
M  V30 683 O 62.277 0.212403 1.729 0
M  V30 684 C 59.409 0.527072 3.36801 0
M  V30 685 H 60.602 1.9622 2.26799 0
M  V30 686 H 58.155 1.05072 1.15714 0
M  V30 687 H 58.89 -0.429294 3.21446 0
M  V30 688 H 58.675 1.27515 3.70786 0
M  V30 689 H 60.165 0.392942 4.15747 0
M  V30 690 N 60.6021 -1.18246 1.0419 0
M  V30 691 C 61.5341 -2.2142 0.592088 0
M  V30 692 C 62.5471 -1.59233 -0.338909 0
M  V30 693 O 63.7361 -1.78002 -0.133231 0
M  V30 694 C 60.8361 -3.38546 -0.154854 0
M  V30 695 C 60.0091 -4.3031 0.784328 0
M  V30 696 C 59.0681 -5.26138 0.0804583 0
M  V30 697 O 58.0941 -5.64738 0.711292 0
M  V30 698 N 59.2961 -5.68261 -1.18574 0
M  V30 699 H 62.0611 -2.60636 1.47949 0
M  V30 700 H 59.6221 -1.33044 0.922544 0
M  V30 701 H 61.6141 -3.99678 -0.635606 0
M  V30 702 H 60.1841 -2.98012 -0.943811 0
M  V30 703 H 59.4041 -3.66764 1.44491 0
M  V30 704 H 60.6921 -4.8852 1.42218 0
M  V30 705 H 60.0901 -5.38957 -1.71876 0
M  V30 706 H 58.6471 -6.31584 -1.61074 0
M  V30 707 N 62.0802 -0.821533 -1.34494 0
M  V30 708 C 63.0102 -0.257138 -2.3208 0
M  V30 709 C 63.9912 0.625645 -1.58176 0
M  V30 710 O 65.1762 0.552811 -1.86166 0
M  V30 711 C 62.3062 0.582958 -3.42372 0
M  V30 712 C 61.2602 -0.202571 -4.2752 0
M  V30 713 C 60.5862 0.760179 -5.29269 0
M  V30 714 C 61.8862 -1.40998 -5.02908 0
M  V30 715 H 63.5802 -1.07247 -2.79532 0
M  V30 716 H 61.1262 -0.517163 -1.34393 0
M  V30 717 H 63.0792 0.987972 -4.09655 0
M  V30 718 H 61.8032 1.43133 -2.93565 0
M  V30 719 H 60.4622 -0.588936 -3.61838 0
M  V30 720 H 60.1102 1.60447 -4.76724 0
M  V30 721 H 59.8102 0.238809 -5.87115 0
M  V30 722 H 61.3342 1.16308 -5.9942 0
M  V30 723 H 62.7482 -1.07905 -5.63054 0
M  V30 724 H 61.1452 -1.86689 -5.70322 0
M  V30 725 H 62.2152 -2.1889 -4.32684 0
M  V30 726 N 63.5583 1.46682 -0.576371 0
M  V30 727 C 64.9693 1.86112 -0.148091 0
M  V30 728 C 65.3203 1.48073 1.2872 0
M  V30 729 O 64.4453 0.892656 1.97131 0
M  V30 730 C 65.0403 3.37786 -0.261982 0
M  V30 731 C 63.5993 3.76235 0.111384 0
M  V30 732 C 62.7463 2.70713 -0.60083 0
M  V30 733 H 65.6973 1.37927 -0.78497 0
M  V30 734 H 65.7183 3.77007 0.514364 0
M  V30 735 H 65.2303 3.6544 -1.30671 0
M  V30 736 H 63.3313 3.54198 1.15649 0
M  V30 737 H 63.4443 4.78391 -0.26052 0
M  V30 738 H 61.8083 2.54666 -0.0417783 0
M  V30 739 H 62.5913 3.01208 -1.64708 0
M  V30 740 N 65.0364 0.313813 1.54444 0
M  V30 741 C 65.9464 -0.565714 2.27677 0
M  V30 742 C 66.9624 -1.13754 1.31666 0
M  V30 743 O 68.1384 -1.15959 1.64668 0
M  V30 744 C 65.2034 -1.71528 3.01296 0
M  V30 745 C 64.2644 -1.17624 4.12872 0
M  V30 746 C 63.4974 -2.27102 4.8297 0
M  V30 747 O 63.7204 -3.47256 4.52514 0
M  V30 748 O 62.6544 -1.9307 5.70094 0
M  V30 749 H 66.4804 0.0287296 3.03686 0
M  V30 750 H 64.0654 0.0798312 1.49187 0
M  V30 751 H 65.9474 -2.38476 3.4743 0
M  V30 752 H 64.6224 -2.29608 2.2817 0
M  V30 753 H 63.5294 -0.472124 3.71109 0
M  V30 754 H 64.8624 -0.640695 4.88012 0
M  V30 755 N 66.5145 -1.57545 0.0417849 0
M  V30 756 C 67.7395 -1.97035 -0.647455 0
M  V30 757 C 68.1645 -0.918775 -1.64135 0
M  V30 758 O 67.5225 0.119006 -1.80909 0
M  V30 759 C 67.5705 -3.35609 -1.31905 0
M  V30 760 O 66.6745 -3.3287 -2.43457 0
M  V30 761 H 66.0155 -0.64211 -0.169086 0
M  V30 762 H 68.5455 -2.04318 0.107399 0
M  V30 763 H 68.5555 -3.72126 -1.67291 0
M  V30 764 H 67.2305 -4.11685 -0.590586 0
M  V30 765 H 65.8075 -3.08087 -2.10088 0
M  V30 766 N 67.9926 0.231505 -1.5589 0
M  V30 767 C 68.9556 1.27028 -1.90779 0
M  V30 768 C 69.9556 1.40308 -0.785507 0
M  V30 769 O 71.1456 1.38744 -1.05336 0
M  V30 770 C 68.2776 2.64566 -2.14983 0
M  V30 771 H 69.4706 0.973017 -2.83677 0
M  V30 772 H 67.0236 0.471486 -1.49019 0
M  V30 773 H 67.7586 2.99406 -1.24604 0
M  V30 774 H 67.5436 2.56305 -2.96732 0
M  V30 775 H 69.0336 3.39543 -2.43105 0
M  V30 776 N 69.4707 1.49531 0.497807 0
M  V30 777 C 70.8817 1.52344 1.07927 0
M  V30 778 C 71.2327 0.311469 1.93712 0
M  V30 779 O 70.3577 -0.578405 2.08527 0
M  V30 780 C 70.9527 2.76062 1.96405 0
M  V30 781 C 69.5117 2.81643 2.49709 0
M  V30 782 C 68.6587 2.46299 1.27404 0
M  V30 783 H 71.6097 1.56182 0.281576 0
M  V30 784 H 71.6307 2.56405 2.81135 0
M  V30 785 H 71.1427 3.64254 1.33943 0
M  V30 786 H 69.2437 1.97739 3.15801 0
M  V30 787 H 69.3567 3.83891 2.86643 0
M  V30 788 H 67.7207 1.98148 1.60029 0
M  V30 789 H 68.5037 3.36769 0.66645 0
M  V30 790 N 70.9488 -0.749086 1.3866 0
M  V30 791 C 71.8588 -1.89358 1.38494 0
M  V30 792 C 72.8748 -1.71708 0.281476 0
M  V30 793 O 74.0508 -1.94554 0.520643 0
M  V30 794 C 71.1158 -3.24782 1.21316 0
M  V30 795 C 70.1768 -3.54926 2.41508 0
M  V30 796 C 69.4098 -4.83888 2.2514 0
M  V30 797 O 69.6328 -5.56592 1.24746 0
M  V30 798 O 68.5668 -5.13612 3.13826 0
M  V30 799 H 72.3928 -1.92452 2.34938 0
M  V30 800 H 69.9778 -0.894981 1.19626 0
M  V30 801 H 71.8598 -4.05739 1.13814 0
M  V30 802 H 70.5348 -3.2249 0.279592 0
M  V30 803 H 69.4418 -2.74112 2.54585 0
M  V30 804 H 70.7748 -3.61983 3.3351 0
M  V30 805 N 72.4269 -1.23603 -0.977757 0
M  V30 806 C 73.7039 -0.977897 -1.69401 0
M  V30 807 C 74.0839 0.502738 -2.05026 0
M  V30 808 O 73.4319 1.47459 -1.74551 0
M  V30 809 C 73.6419 -1.89077 -2.93345 0
M  V30 810 C 74.9899 -2.15579 -3.65802 0
M  V30 811 O 76.0139 -1.86648 -3.03383 0
M  V30 812 O 74.8729 -2.64658 -4.78141 0
M  V30 813 H 71.9669 -0.369025 -0.740101 0
M  V30 814 H 74.5129 -1.34657 -1.03274 0
M  V30 815 H 73.2849 -2.89158 -2.63634 0
M  V30 816 H 72.9079 -1.52463 -3.67207 0
M  V30 817 N 73.905 1.17692 -1.04816 0
M  V30 818 C 75.316 1.69501 -0.782698 0
M  V30 819 C 75.667 1.83456 0.695577 0
M  V30 820 O 74.792 1.51942 1.54086 0
M  V30 821 C 75.387 3.07874 -1.41419 0
M  V30 822 C 73.946 3.56864 -1.19686 0
M  V30 823 C 73.093 2.3322 -1.50012 0
M  V30 824 H 76.044 1.02262 -1.2136 0
M  V30 825 H 76.065 3.71528 -0.821428 0
M  V30 826 H 75.577 2.97685 -2.49009 0
M  V30 827 H 73.678 3.72337 -0.140043 0
M  V30 828 H 73.791 4.39851 -1.89916 0
M  V30 829 H 72.155 2.37501 -0.920071 0
M  V30 830 H 72.938 2.25644 -2.58727 0
M  V30 831 N 75.3831 0.828654 1.34056 0
M  V30 832 C 76.6601 0.341809 1.9259 0
M  V30 833 C 77.0401 -1.17158 1.75605 0
M  V30 834 O 76.3881 -1.98132 1.13824 0
M  V30 835 C 76.5981 0.777453 3.4023 0
M  V30 836 C 77.9461 0.779579 4.17382 0
M  V30 837 O 78.9701 0.7204 3.48839 0
M  V30 838 O 77.8291 0.857996 5.39723 0
M  V30 839 H 74.9231 0.0946085 0.821571 0
M  V30 840 H 77.4691 0.913827 1.42994 0
M  V30 841 H 76.2411 1.8196 3.46419 0
M  V30 842 H 75.8641 0.181444 3.97186 0
M  V30 843 N 76.8612 -1.46375 0.584142 0
M  V30 844 C 78.0862 -2.07268 0.0740405 0
M  V30 845 C 78.5112 -1.42979 -1.22223 0
M  V30 846 O 77.8692 -0.514092 -1.73859 0
M  V30 847 C 77.9172 -3.60518 -0.0767769 0
M  V30 848 O 77.0212 -3.96533 -1.13292 0
M  V30 849 H 76.3622 -0.660961 0.0634524 0
M  V30 850 H 78.8922 -1.87991 0.807492 0
M  V30 851 H 78.9022 -4.07021 -0.282489 0
M  V30 852 H 77.5772 -4.06702 0.86986 0
M  V30 853 H 76.1542 -3.61738 -0.905553 0
M  V30 854 N 78.3393 -0.321999 -1.54275 0
M  V30 855 C 79.5853 0.274234 -2.01543 0
M  V30 856 C 79.9403 1.499 -1.20614 0
M  V30 857 O 79.2333 1.89546 -0.279804 0
M  V30 858 C 79.4273 0.661769 -3.5122 0
M  V30 859 C 79.2563 -0.523892 -4.46638 0
M  V30 860 C 78.0263 -1.02251 -4.94846 0
M  V30 861 C 80.2243 -1.37558 -4.95563 0
M  V30 862 N 78.2063 -2.17274 -5.74165 0
M  V30 863 C 79.5773 -2.37301 -5.7279 0
M  V30 864 C 81.6323 -1.40353 -4.77709 0
M  V30 865 C 80.3353 -3.3964 -6.34064 0
M  V30 866 C 82.3613 -2.41562 -5.39817 0
M  V30 867 C 81.7233 -3.40031 -6.16894 0
M  V30 868 H 77.8223 0.0642367 -0.779357 0
M  V30 869 H 80.4063 -0.456683 -1.89268 0
M  V30 870 H 78.5773 1.36182 -3.63743 0
M  V30 871 H 80.3093 1.23934 -3.85256 0
M  V30 872 H 77.0643 -0.594046 -4.6986 0
M  V30 873 H 77.4883 -2.75289 -6.18502 0
M  V30 874 H 82.1303 -0.655907 -4.17681 0
M  V30 875 H 79.8483 -4.15309 -6.93213 0
M  V30 876 H 83.4343 -2.44524 -5.2792 0
M  V30 877 H 82.3143 -4.17063 -6.64099 0
M  V30 878 N 79.8174 1.5752 -0.0501392 0
M  V30 879 C 81.0944 1.83996 0.663685 0
M  V30 880 C 81.4744 0.938339 1.89099 0
M  V30 881 O 80.8224 -0.00087759 2.285 0
M  V30 882 C 81.0324 3.33702 1.02196 0
M  V30 883 C 82.3804 4.00691 1.40469 0
M  V30 884 O 83.4044 3.38321 1.11433 0
M  V30 885 O 82.2634 5.10658 1.94654 0
M  V30 886 H 79.3574 0.759385 0.32751 0
M  V30 887 H 81.9034 1.69514 -0.0794238 0
M  V30 888 H 80.6754 3.91015 0.149364 0
M  V30 889 H 80.2984 3.53368 1.82255 0
M  V30 890 N 81.2955 -0.223234 1.56011 0
M  V30 891 C 82.5205 -0.968978 1.83373 0
M  V30 892 C 82.9455 -1.77227 0.630254 0
M  V30 893 O 82.3035 -1.76345 -0.420959 0
M  V30 894 C 82.3515 -1.86363 3.08709 0
M  V30 895 O 81.4555 -2.95873 2.87285 0
M  V30 896 H 80.7965 -0.274461 0.604622 0
M  V30 897 H 83.3265 -0.237056 2.03222 0
M  V30 898 H 83.3365 -2.27376 3.38768 0
M  V30 899 H 82.0115 -1.27319 3.95933 0
M  V30 900 H 80.5885 -2.58818 2.68454 0
M  V30 901 N 82.7736 -1.49793 -0.48987 0
M  V30 902 C 84.0226 -1.59085 -1.23995 0
M  V30 903 C 84.3356 -0.287907 -1.9347 0
M  V30 904 O 85.5416 -0.259506 -2.70257 0
M  V30 905 C 83.9976 -2.80736 -2.252 0
M  V30 906 C 83.6056 -4.17833 -1.61614 0
M  V30 907 C 85.3496 -2.99364 -3.00967 0
M  V30 908 C 83.2566 -5.30693 -2.60996 0
M  V30 909 H 82.1866 -0.592372 -0.466488 0
M  V30 910 H 84.8376 -1.76197 -0.51252 0
M  V30 911 H 83.2196 -2.57142 -3.01154 0
M  V30 912 H 84.3936 -4.51608 -0.915774 0
M  V30 913 H 82.7086 -4.04656 -0.981977 0
M  V30 914 H 85.3056 -3.80851 -3.75308 0
M  V30 915 H 85.6486 -2.10356 -3.59244 0
M  V30 916 H 86.1816 -3.2305 -2.32128 0
M  V30 917 H 82.9206 -6.21796 -2.07485 0
M  V30 918 H 82.4406 -5.01359 -3.2924 0
M  V30 919 H 84.1196 -5.6049 -3.23202 0
M  V30 920 N 84.2517 0.741722 -1.39055 0
M  V30 921 C 85.4987 1.50114 -1.35912 0
M  V30 922 C 85.8267 1.94443 0.0470937 0
M  V30 923 O 85.0817 1.66612 1.02659 0
M  V30 924 C 85.3807 2.7592 -2.27163 0
M  V30 925 C 85.0467 2.50493 -3.74919 0
M  V30 926 C 83.7087 2.43267 -4.1518 0
M  V30 927 C 86.0607 2.28585 -4.684 0
M  V30 928 C 83.3887 2.12166 -5.46994 0
M  V30 929 C 85.7407 1.99002 -6.00484 0
M  V30 930 C 84.4047 1.90241 -6.39816 0
M  V30 931 H 83.6747 0.549306 -0.497336 0
M  V30 932 H 86.3217 0.851896 -1.71508 0
M  V30 933 H 84.6267 3.45553 -1.84663 0
M  V30 934 H 86.3237 3.33923 -2.22028 0
M  V30 935 H 82.9137 2.56992 -3.43006 0
M  V30 936 H 87.0977 2.33139 -4.38132 0
M  V30 937 H 82.3537 2.03901 -5.76398 0
M  V30 938 H 86.5277 1.81057 -6.72452 0
M  V30 939 H 84.1547 1.65907 -7.41875 0
M  V30 940 N 85.7298 1.2412 0.971189 0
M  V30 941 C 86.9778 1.07668 1.71032 0
M  V30 942 C 87.2988 -0.385797 1.91146 0
M  V30 943 O 86.5688 -1.27569 1.4867 0
M  V30 944 H 85.1488 0.395429 0.633755 0
M  V30 945 H 87.8108 1.55984 1.16855 0
M  V30 946 H 86.9068 1.57195 2.69622 0
M  V30 947 N 87.2079 -1.17134 1.05439 0
M  V30 948 C 88.4849 -1.83411 0.679699 0
M  V30 949 C 88.8649 -1.9368 -0.839726 0
M  V30 950 O 88.2129 -1.47325 -1.74664 0
M  V30 951 C 88.4229 -3.20918 1.37159 0
M  V30 952 C 89.7709 -3.96796 1.51123 0
M  V30 953 O 90.7949 -3.30406 1.3308 0
M  V30 954 O 89.6539 -5.15778 1.80651 0
M  V30 955 H 86.7479 -0.79154 0.239569 0
M  V30 956 H 89.2939 -1.24411 1.15413 0
M  V30 957 H 88.0659 -3.08428 2.40807 0
M  V30 958 H 87.6889 -3.87587 0.886674 0
M  V30 959 N 88.686 -0.835752 -1.33615 0
M  V30 960 C 89.935 -0.426289 -1.97144 0
M  V30 961 C 90.248 1.01912 -1.66953 0
M  V30 962 O 91.454 1.53311 -2.24072 0
M  V30 963 C 89.91 -0.711321 -3.52801 0
M  V30 964 C 89.518 -2.1712 -3.91871 0
M  V30 965 C 91.262 -0.368654 -4.22896 0
M  V30 966 C 89.169 -2.40044 -5.40493 0
M  V30 967 H 88.099 -0.15567 -0.737755 0
M  V30 968 H 90.75 -1.0239 -1.52278 0
M  V30 969 H 89.132 -0.0433766 -3.95976 0
M  V30 970 H 90.306 -2.87936 -3.59763 0
M  V30 971 H 88.621 -2.47654 -3.34749 0
M  V30 972 H 91.218 -0.517601 -5.32189 0
M  V30 973 H 91.561 0.688078 -4.10574 0
M  V30 974 H 92.094 -0.991702 -3.8524 0
M  V30 975 H 88.833 -3.44271 -5.57815 0
M  V30 976 H 88.353 -1.73785 -5.74072 0
M  V30 977 H 90.032 -2.23042 -6.0734 0
M  V30 978 N 90.1641 1.46063 -0.591896 0
M  V30 979 C 91.0741 2.34192 0.13831 0
M  V30 980 C 92.0901 1.50305 0.876608 0
M  V30 981 O 93.2661 1.8315 0.837728 0
M  V30 982 C 90.3311 3.27656 1.13326 0
M  V30 983 C 89.3921 4.27445 0.39863 0
M  V30 984 C 88.6251 5.16443 1.34618 0
M  V30 985 O 88.8481 5.08553 2.58321 0
M  V30 986 O 87.7821 5.95843 0.851768 0
M  V30 987 H 91.6081 2.98002 -0.58552 0
M  V30 988 H 89.1931 1.45188 -0.352239 0
M  V30 989 H 91.0751 3.85291 1.70671 0
M  V30 990 H 89.7501 2.6643 1.83839 0
M  V30 991 H 88.6571 3.73471 -0.216895 0
M  V30 992 H 89.9901 4.91482 -0.265709 0
M  V30 993 N 91.6422 0.330177 1.54103 0
M  V30 994 C 93.0582 -0.0222371 1.59585 0
M  V30 995 C 93.2582 -1.49902 1.34654 0
M  V30 996 O 92.3142 -2.25592 1.13421 0
M  V30 997 C 93.6272 0.401932 2.98002 0
M  V30 998 C 95.1752 0.353145 3.11001 0
M  V30 999 C 95.6502 0.752576 4.51775 0
M  V30 1000 N 97.1412 0.706239 4.57784 0
M  V30 1001 C 97.8762 0.987417 5.64834 0
M  V30 1002 N 97.3722 1.33607 6.79795 0
M  V30 1003 N 99.1652 0.91254 5.54643 0
M  V30 1004 H 91.3162 1.29228 1.68564 0
M  V30 1005 H 93.5792 0.525906 0.78875 0
M  V30 1006 H 93.2852 1.4311 3.21267 0
M  V30 1007 H 93.1592 -0.229699 3.765 0
M  V30 1008 H 95.5462 -0.666822 2.87467 0
M  V30 1009 H 95.6272 1.0198 2.34593 0
M  V30 1010 H 95.2712 1.77049 4.76042 0
M  V30 1011 H 95.2012 0.0635409 5.26562 0
M  V30 1012 H 97.6922 0.44889 3.75224 0
M  V30 1013 H 98.0052 1.53582 7.57385 0
M  V30 1014 H 96.3502 1.37439 6.81275 0
M  V30 1015 H 99.5412 0.639601 4.6371 0
M  V30 1016 H 99.7142 1.13503 6.37982 0
M  V30 1017 N 93.1203 -1.57491 0.0584922 0
M  V30 1018 C 94.3693 -1.92155 -0.613146 0
M  V30 1019 C 94.6823 -0.939334 -1.71569 0
M  V30 1020 O 95.8883 -1.17829 -2.44599 0
M  V30 1021 C 94.3443 -3.41303 -1.14195 0
M  V30 1022 C 93.9523 -4.47944 -0.0711265 0
M  V30 1023 C 95.6963 -3.84988 -1.78841 0
M  V30 1024 C 93.6033 -5.88212 -0.613225 0
M  V30 1025 H 92.5333 -0.717162 -0.232796 0
M  V30 1026 H 95.1843 -1.83049 0.12857 0
M  V30 1027 H 93.5663 -3.45437 -1.93621 0
M  V30 1028 H 94.7403 -4.55408 0.702836 0
M  V30 1029 H 93.0553 -4.13644 0.478313 0
M  V30 1030 H 95.6523 -4.87159 -2.20408 0
M  V30 1031 H 95.9953 -3.21632 -2.64308 0
M  V30 1032 H 96.5283 -3.83401 -1.06059 0
M  V30 1033 H 93.2673 -6.55183 0.203978 0
M  V30 1034 H 92.7873 -5.84294 -1.35501 0
M  V30 1035 H 94.4663 -6.37687 -1.09383 0
M  V30 1036 N 94.5984 0.214957 -1.56127 0
M  V30 1037 C 95.8474 0.936451 -1.78643 0
M  V30 1038 C 96.1604 1.85237 -0.628229 0
M  V30 1039 O 97.3664 2.613 -0.737186 0
M  V30 1040 C 95.8224 1.7154 -3.16389 0
M  V30 1041 C 95.4304 0.845299 -4.39953 0
M  V30 1042 C 97.1744 2.42772 -3.48227 0
M  V30 1043 C 95.0814 1.62198 -5.68723 0
M  V30 1044 H 94.0114 0.353401 -0.666051 0
M  V30 1045 H 96.6624 0.190169 -1.82512 0
M  V30 1046 H 95.0444 2.50484 -3.06715 0
M  V30 1047 H 96.2184 0.0959353 -4.607 0
M  V30 1048 H 94.5334 0.244789 -4.1568 0
M  V30 1049 H 97.1304 3.01394 -4.41663 0
M  V30 1050 H 97.4734 3.15984 -2.71035 0
M  V30 1051 H 98.0064 1.70813 -3.5926 0
M  V30 1052 H 94.7454 0.933011 -6.48826 0
M  V30 1053 H 94.2654 2.34579 -5.52026 0
M  V30 1054 H 95.9444 2.18095 -6.09133 0
M  V30 1055 N 96.0765 1.50051 0.48192 0
M  V30 1056 C 97.0095 1.62749 1.59963 0
M  V30 1057 C 97.9875 0.475903 1.5548 0
M  V30 1058 O 99.1715 0.693986 1.7526 0
M  V30 1059 C 96.2985 1.60008 2.98522 0
M  V30 1060 C 95.3445 2.80596 3.21198 0
M  V30 1061 S 96.1775 4.42038 3.02262 0
M  V30 1062 C 97.3335 4.41973 4.43182 0
M  V30 1063 H 97.5665 2.57296 1.4895 0
M  V30 1064 H 95.0995 1.39179 0.668477 0
M  V30 1065 H 97.0575 1.59112 3.78409 0
M  V30 1066 H 95.7185 0.667153 3.06933 0
M  V30 1067 H 94.9115 2.74952 4.22395 0
M  V30 1068 H 94.5135 2.79003 2.49065 0
M  V30 1069 H 96.8055 4.14868 5.35622 0
M  V30 1070 H 97.7485 5.43512 4.53873 0
M  V30 1071 H 98.1565 3.71812 4.24755 0
M  V30 1072 N 97.5546 -0.734337 1.39446 0
M  V30 1073 C 98.9656 -1.31264 1.32766 0
M  V30 1074 C 99.3166 -1.96198 -0.00767497 0
M  V30 1075 O 98.4416 -1.96346 -0.909796 0
M  V30 1076 C 99.0366 -2.38682 2.4045 0
M  V30 1077 C 97.5956 -2.92184 2.37288 0
M  V30 1078 C 96.7426 -1.6576 2.22304 0
M  V30 1079 H 99.6936 -0.531799 1.49525 0
M  V30 1080 H 99.7146 -3.19087 2.07276 0
M  V30 1081 H 99.2266 -1.91392 3.37625 0
M  V30 1082 H 97.3276 -3.43752 1.43754 0
M  V30 1083 H 97.4406 -3.45253 3.3217 0
M  V30 1084 H 95.8046 -1.9012 1.69489 0
M  V30 1085 H 96.5876 -1.20521 3.21449 0
M  V30 1086 N 99.0327 -1.24633 -0.964593 0
M  V30 1087 C 100.281 -1.08573 -1.70459 0
M  V30 1088 C 100.602 0.375655 -1.91347 0
M  V30 1089 O 99.8717 1.26779 -1.49345 0
M  V30 1090 H 98.4517 -0.398784 -0.631649 0
M  V30 1091 H 101.114 -1.56601 -1.16026 0
M  V30 1092 H 100.21 -1.58623 -2.68785 0
M  V30 1093 N 100.511 1.16574 -1.06058 0
M  V30 1094 C 101.757 1.87324 -0.777022 0
M  V30 1095 C 102.09 1.81351 0.694645 0
M  V30 1096 O 101.365 1.22753 1.50871 0
M  V30 1097 C 101.648 3.36991 -1.26922 0
M  V30 1098 C 101.501 3.51667 -2.80447 0
M  V30 1099 C 102.82 4.3131 -0.87521 0
M  V30 1100 H 99.9388 0.680191 -0.28374 0
M  V30 1101 H 102.581 1.37036 -1.3161 0
M  V30 1102 H 100.731 3.79949 -0.81063 0
M  V30 1103 H 102.403 3.17664 -3.34495 0
M  V30 1104 H 100.646 2.93656 -3.19294 0
M  V30 1105 H 101.317 4.56766 -3.0995 0
M  V30 1106 H 103.793 3.9624 -1.27014 0
M  V30 1107 H 102.669 5.34545 -1.2471 0
M  V30 1108 H 102.93 4.41552 0.220071 0
M  V30 1109 N 101.989 0.842826 1.3317 0
M  V30 1110 C 103.235 0.441099 1.97945 0
M  V30 1111 C 103.568 -0.998024 1.66593 0
M  V30 1112 O 102.843 -1.69839 0.947898 0
M  V30 1113 C 103.126 0.666841 3.53872 0
M  V30 1114 C 102.979 2.15352 3.94897 0
M  V30 1115 C 104.298 0.115544 4.39948 0
M  V30 1116 H 101.417 0.161739 0.719034 0
M  V30 1117 H 104.059 1.05907 1.57746 0
M  V30 1118 H 102.209 0.140828 3.88245 0
M  V30 1119 H 103.881 2.7447 3.70761 0
M  V30 1120 H 102.124 2.63653 3.44484 0
M  V30 1121 H 102.795 2.26221 5.03516 0
M  V30 1122 H 105.271 0.565213 4.12243 0
M  V30 1123 H 104.147 0.303152 5.48062 0
M  V30 1124 H 104.408 -0.980935 4.3108 0
M  V30 1125 N 103.467 -1.45747 0.599634 0
M  V30 1126 C 104.417 -2.27538 -0.145107 0
M  V30 1127 C 105.401 -1.3686 -0.846055 0
M  V30 1128 O 106.593 -1.6091 -0.737357 0
M  V30 1129 C 103.722 -3.23569 -1.14708 0
M  V30 1130 C 102.808 -4.21734 -0.447383 0
M  V30 1131 N 103.199 -5.03257 0.506535 0
M  V30 1132 C 101.497 -4.40536 -0.695966 0
M  V30 1133 C 102.198 -5.74426 0.917068 0
M  V30 1134 N 101.174 -5.42966 0.26253 0
M  V30 1135 H 104.976 -2.87965 0.587672 0
M  V30 1136 H 102.49 -1.56803 0.422697 0
M  V30 1137 H 104.487 -3.8089 -1.69495 0
M  V30 1138 H 103.147 -2.64702 -1.8805 0
M  V30 1139 H 104.158 -5.10319 0.882899 0
M  V30 1140 H 100.835 -3.92802 -1.41467 0
M  V30 1141 H 102.225 -6.4995 1.70338 0
M  V30 1142 N 104.945 -0.338344 -1.53925 0
M  V30 1143 C 106.191 0.252842 -2.01822 0
M  V30 1144 C 106.546 1.48612 -1.22197 0
M  V30 1145 O 105.839 1.89238 -0.299892 0
M  V30 1146 C 106.033 0.62448 -3.51902 0
M  V30 1147 C 105.862 -0.571235 -4.46057 0
M  V30 1148 C 104.632 -1.07493 -4.93734 0
M  V30 1149 C 106.83 -1.42807 -4.94076 0
M  V30 1150 N 104.812 -2.23351 -5.71828 0
M  V30 1151 C 106.183 -2.43362 -5.70241 0
M  V30 1152 C 108.238 -1.45412 -4.76193 0
M  V30 1153 C 106.941 -3.46346 -6.30426 0
M  V30 1154 C 108.967 -2.47274 -5.37224 0
M  V30 1155 C 108.329 -3.46555 -6.13253 0
M  V30 1156 H 104.428 0.0559669 -0.779995 0
M  V30 1157 H 107.012 -0.476732 -1.88773 0
M  V30 1158 H 105.183 1.32317 -3.65167 0
M  V30 1159 H 106.915 1.19841 -3.86549 0
M  V30 1160 H 103.67 -0.643848 -4.69203 0
M  V30 1161 H 104.094 -2.81834 -6.15548 0
M  V30 1162 H 108.736 -0.700171 -4.16962 0
M  V30 1163 H 106.454 -4.22638 -6.88769 0
M  V30 1164 H 110.04 -2.50109 -5.25297 0
M  V30 1165 H 108.92 -4.24083 -6.59638 0
M  V30 1166 N 106.423 1.57458 -0.0668435 0
M  V30 1167 C 107.355 2.09413 0.931601 0
M  V30 1168 C 108.368 1.02522 1.26464 0
M  V30 1169 O 109.557 1.30049 1.22269 0
M  V30 1170 C 106.657 2.53537 2.24882 0
M  V30 1171 C 105.83 3.83944 2.09537 0
M  V30 1172 C 104.889 4.14214 3.2452 0
M  V30 1173 O 103.915 4.83891 2.9973 0
M  V30 1174 N 105.117 3.67367 4.49469 0
M  V30 1175 H 107.882 2.95699 0.488048 0
M  V30 1176 H 105.443 1.61462 0.119009 0
M  V30 1177 H 107.435 2.70853 3.00701 0
M  V30 1178 H 106.005 1.72415 2.60753 0
M  V30 1179 H 105.225 3.76057 1.18215 0
M  V30 1180 H 106.513 4.69312 1.96529 0
M  V30 1181 H 105.911 3.11068 4.72497 0
M  V30 1182 H 104.468 3.89891 5.2233 0
M  V30 1183 N 107.901 -0.206675 1.56239 0
M  V30 1184 C 109.126 -0.949474 1.8439 0
M  V30 1185 C 109.551 -1.76549 0.649016 0
M  V30 1186 O 108.909 -1.76782 -0.402231 0
M  V30 1187 C 108.957 -1.83078 3.10668 0
M  V30 1188 O 108.061 -2.9281 2.90407 0
M  V30 1189 H 107.402 -0.268033 0.607499 0
M  V30 1190 H 109.932 -0.215488 2.03462 0
M  V30 1191 H 109.942 -2.2377 3.41161 0
M  V30 1192 H 108.617 -1.23112 3.97261 0
M  V30 1193 H 107.194 -2.55956 2.71184 0
M  V30 1194 N 109.379 -1.50304 -0.473955 0
M  V30 1195 C 110.79 -1.54042 -1.0549 0
M  V30 1196 C 111.141 -0.342248 -1.93192 0
M  V30 1197 O 110.266 0.545157 -2.09421 0
M  V30 1198 C 110.861 -2.79152 -1.91989 0
M  V30 1199 C 109.42 -2.8558 -2.45196 0
M  V30 1200 C 108.567 -2.48295 -1.2347 0
M  V30 1201 H 111.518 -1.5661 -0.256693 0
M  V30 1202 H 111.539 -2.60845 -2.7702 0
M  V30 1203 H 111.051 -3.66339 -1.28131 0
M  V30 1204 H 109.152 -2.02738 -3.12615 0
M  V30 1205 H 109.265 -3.88403 -2.80499 0
M  V30 1206 H 107.629 -2.00669 -1.56856 0
M  V30 1207 H 108.412 -3.37787 -0.612789 0
M  V30 1208 N 110.857 0.726932 -1.39834 0
M  V30 1209 C 111.807 1.83232 -1.35683 0
M  V30 1210 C 112.791 1.59155 -0.236295 0
M  V30 1211 O 113.983 1.70522 -0.474488 0
M  V30 1212 C 111.112 3.21246 -1.21062 0
M  V30 1213 C 110.198 3.51125 -2.37849 0
M  V30 1214 N 110.589 3.51889 -3.63329 0
M  V30 1215 C 108.887 3.81527 -2.30982 0
M  V30 1216 C 109.588 3.79791 -4.40606 0
M  V30 1217 N 108.564 3.97971 -3.70297 0
M  V30 1218 H 112.366 1.8214 -2.30656 0
M  V30 1219 H 109.88 0.925545 -1.33444 0
M  V30 1220 H 111.877 4.00387 -1.16171 0
M  V30 1221 H 110.537 3.23572 -0.270458 0
M  V30 1222 H 111.548 3.33008 -3.96643 0
M  V30 1223 H 108.225 3.91411 -1.45272 0
M  V30 1224 H 109.615 3.86783 -5.49408 0
M  V30 1225 N 112.336 1.25143 0.95797 0
M  V30 1226 C 113.269 0.995565 2.05338 0
M  V30 1227 C 114.247 -0.0740423 1.62431 0
M  V30 1228 O 115.431 0.0649212 1.88388 0
M  V30 1229 C 112.558 0.504298 3.34925 0
M  V30 1230 C 111.604 1.56393 3.96792 0
M  V30 1231 S 112.437 3.14815 4.33188 0
M  V30 1232 C 113.593 2.67415 5.65898 0
M  V30 1233 H 113.826 1.92309 2.26726 0
M  V30 1234 H 111.359 1.08635 1.09716 0
M  V30 1235 H 113.317 0.227497 4.09869 0
M  V30 1236 H 111.978 -0.402671 3.11508 0
M  V30 1237 H 111.171 1.17082 4.90212 0
M  V30 1238 H 110.773 1.79124 3.28315 0
M  V30 1239 H 113.065 2.10833 6.4386 0
M  V30 1240 H 114.008 3.59463 6.10076 0
M  V30 1241 H 114.416 2.07521 5.24972 0
M  V30 1242 N 113.814 -1.1601 1.06675 0
M  V30 1243 C 114.764 -2.18512 0.650888 0
M  V30 1244 C 115.748 -1.57677 -0.320441 0
M  V30 1245 O 116.94 -1.76482 -0.135266 0
M  V30 1246 C 114.069 -3.43273 0.0429255 0
M  V30 1247 C 113.155 -4.11176 1.03898 0
M  V30 1248 N 113.546 -4.54672 2.216 0
M  V30 1249 C 111.844 -4.37417 0.870779 0
M  V30 1250 C 112.545 -5.07248 2.84736 0
M  V30 1251 N 111.521 -5.0037 2.12441 0
M  V30 1252 H 115.323 -2.49863 1.54745 0
M  V30 1253 H 112.837 -1.32503 0.938975 0
M  V30 1254 H 114.834 -4.16006 -0.272857 0
M  V30 1255 H 113.494 -3.13408 -0.84884 0
M  V30 1256 H 114.505 -4.4828 2.59356 0
M  V30 1257 H 111.182 -4.17488 0.0313293 0
M  V30 1258 H 112.572 -5.50912 3.84636 0
M  V30 1259 N 115.292 -0.849877 -1.32721 0
M  V30 1260 C 116.255 -0.296122 -2.27279 0
M  V30 1261 C 117.255 0.541458 -1.5141 0
M  V30 1262 O 118.445 0.353658 -1.70572 0
M  V30 1263 C 115.577 0.581579 -3.35902 0
M  V30 1264 H 116.77 -1.13064 -2.77771 0
M  V30 1265 H 114.323 -0.62383 -1.43311 0
M  V30 1266 H 115.058 1.43809 -2.9067 0
M  V30 1267 H 114.843 -0.0178814 -3.92096 0
M  V30 1268 H 116.333 0.961951 -4.0637 0
M  V30 1269 N 116.77 1.45427 -0.607355 0
M  V30 1270 C 118 2.06314 -0.108656 0
M  V30 1271 C 118.408 1.45269 1.21217 0
M  V30 1272 O 117.751 0.561115 1.74921 0
M  V30 1273 C 117.813 3.59345 0.105618 0
M  V30 1274 C 117.477 4.42723 -1.13337 0
M  V30 1275 C 118.474 4.77715 -2.05145 0
M  V30 1276 C 116.159 4.83478 -1.36213 0
M  V30 1277 C 118.153 5.52317 -3.18158 0
M  V30 1278 C 115.84 5.57835 -2.49527 0
M  V30 1279 C 116.838 5.92171 -3.40327 0
M  V30 1280 O 116.526 6.65019 -4.51669 0
M  V30 1281 H 116.258 0.672782 -0.0658842 0
M  V30 1282 H 118.812 1.87664 -0.834945 0
M  V30 1283 H 117.042 3.76394 0.886796 0
M  V30 1284 H 118.731 4.02076 0.555886 0
M  V30 1285 H 119.497 4.46787 -1.88697 0
M  V30 1286 H 115.376 4.56188 -0.664362 0
M  V30 1287 H 118.92 5.79036 -3.89054 0
M  V30 1288 H 114.817 5.88177 -2.65928 0
M  V30 1289 H 115.585 6.83469 -4.50348 0
M  V30 1290 N 118.248 0.346503 1.53744 0
M  V30 1291 C 119.478 -0.250047 2.05081 0
M  V30 1292 C 119.886 -1.44529 1.22098 0
M  V30 1293 O 119.229 -1.81992 0.249917 0
M  V30 1294 C 119.291 -0.725934 3.52094 0
M  V30 1295 C 118.955 0.350053 4.55657 0
M  V30 1296 C 119.952 1.19372 5.0601 0
M  V30 1297 C 117.637 0.504827 4.99757 0
M  V30 1298 C 119.631 2.17768 5.99046 0
M  V30 1299 C 117.318 1.49218 5.92602 0
M  V30 1300 C 118.316 2.32706 6.42135 0
M  V30 1301 O 118.004 3.2976 7.33153 0
M  V30 1302 H 117.736 -0.0515469 0.674032 0
M  V30 1303 H 120.29 0.497559 1.99282 0
M  V30 1304 H 118.52 -1.52483 3.55367 0
M  V30 1305 H 120.209 -1.24336 3.86388 0
M  V30 1306 H 120.975 1.08525 4.72702 0
M  V30 1307 H 116.854 -0.135178 4.60802 0
M  V30 1308 H 120.398 2.82971 6.37631 0
M  V30 1309 H 116.295 1.6012 6.25325 0
M  V30 1310 H 117.063 3.25265 7.51096 0
M  V30 1311 N 119.726 -1.57421 0.075193 0
M  V30 1312 C 121.137 -1.81021 -0.456964 0
M  V30 1313 C 121.488 -0.98936 -1.69429 0
M  V30 1314 O 120.613 -0.212865 -2.15351 0
M  V30 1315 C 121.208 -3.28329 -0.83581 0
M  V30 1316 C 119.767 -3.52764 -1.31281 0
M  V30 1317 C 118.914 -2.75676 -0.299648 0
M  V30 1318 H 121.865 -1.55822 0.300856 0
M  V30 1319 H 121.886 -3.40564 -1.69696 0
M  V30 1320 H 121.398 -3.88046 0.0649238 0
M  V30 1321 H 119.499 -2.98355 -2.23193 0
M  V30 1322 H 119.612 -4.61451 -1.28839 0
M  V30 1323 H 117.976 -2.42538 -0.777641 0
M  V30 1324 H 118.759 -3.38132 0.593417 0
M  V30 1325 N 121.204 0.198386 -1.56346 0
M  V30 1326 C 122.167 1.22952 -1.93431 0
M  V30 1327 C 123.167 1.38611 -0.815092 0
M  V30 1328 O 124.357 1.36479 -1.08255 0
M  V30 1329 C 121.489 2.59946 -2.20546 0
M  V30 1330 H 122.682 0.912626 -2.85677 0
M  V30 1331 H 120.235 0.43977 -1.49986 0
M  V30 1332 H 120.97 2.96696 -1.30927 0
M  V30 1333 H 120.755 2.49953 -3.02102 0
M  V30 1334 H 122.245 3.3431 -2.50253 0
M  V30 1335 N 122.682 1.50554 0.465978 0
M  V30 1336 C 123.612 1.72722 1.57128 0
M  V30 1337 C 124.593 0.576294 1.6004 0
M  V30 1338 O 125.778 0.81598 1.76225 0
M  V30 1339 C 122.908 1.82605 2.95419 0
M  V30 1340 C 121.862 2.97835 3.07373 0
M  V30 1341 C 121.188 2.92867 4.47363 0
M  V30 1342 C 122.488 4.38265 2.84114 0
M  V30 1343 H 124.182 2.65267 1.38829 0
M  V30 1344 H 121.728 1.2765 0.666441 0
M  V30 1345 H 123.681 1.96698 3.72677 0
M  V30 1346 H 122.405 0.866858 3.14886 0
M  V30 1347 H 121.064 2.83401 2.3255 0
M  V30 1348 H 120.712 1.94783 4.63755 0
M  V30 1349 H 120.412 3.70227 4.56296 0
M  V30 1350 H 121.936 3.09015 5.26633 0
M  V30 1351 H 123.35 4.53198 3.51118 0
M  V30 1352 H 121.747 5.17115 3.04487 0
M  V30 1353 H 122.817 4.50281 1.7993 0
M  V30 1354 N 124.16 -0.719506 1.40217 0
M  V30 1355 C 125.388 -1.50864 1.41589 0
M  V30 1356 C 125.803 -1.88794 0.0145275 0
M  V30 1357 O 125.16 -1.55174 -0.960594 0
M  V30 1358 C 125.211 -2.78646 2.30302 0
M  V30 1359 O 124.932 -2.42321 3.64983 0
M  V30 1360 C 126.433 -3.72569 2.40224 0
M  V30 1361 H 123.653 -0.465709 0.48307 0
M  V30 1362 H 126.197 -0.88785 1.84221 0
M  V30 1363 H 124.352 -3.37019 1.91042 0
M  V30 1364 H 124.766 -3.24514 4.12057 0
M  V30 1365 H 126.24 -4.5908 3.06512 0
M  V30 1366 H 126.717 -4.15403 1.42608 0
M  V30 1367 H 127.323 -3.20109 2.80019 0
M  V30 1368 N 125.638 -1.25649 -0.95132 0
M  V30 1369 C 126.863 -1.13443 -1.73624 0
M  V30 1370 C 127.288 0.307565 -1.85568 0
M  V30 1371 O 126.646 1.22282 -1.33854 0
M  V30 1372 C 126.694 -1.79723 -3.12621 0
M  V30 1373 O 125.798 -1.07912 -3.98031 0
M  V30 1374 H 125.139 -0.395872 -0.533086 0
M  V30 1375 H 127.669 -1.66276 -1.1922 0
M  V30 1376 H 127.679 -1.86141 -3.63064 0
M  V30 1377 H 126.354 -2.84633 -3.03244 0
M  V30 1378 H 124.931 -1.09398 -3.56492 0
M  V30 1379 N 127.117 1.15442 -1.07289 0
M  V30 1380 C 128.363 1.8672 -0.806679 0
M  V30 1381 C 128.718 1.80723 0.660084 0
M  V30 1382 O 128.011 1.21902 1.47819 0
M  V30 1383 C 128.205 3.3489 -1.24834 0
M  V30 1384 C 128.034 3.55313 -2.7565 0
M  V30 1385 C 126.804 3.7082 -3.4325 0
M  V30 1386 C 129.002 3.53188 -3.73848 0
M  V30 1387 N 126.984 3.7929 -4.82713 0
M  V30 1388 C 128.355 3.67765 -4.99149 0
M  V30 1389 C 130.41 3.36459 -3.67015 0
M  V30 1390 C 129.113 3.6734 -6.18428 0
M  V30 1391 C 131.139 3.37333 -4.85758 0
M  V30 1392 C 130.501 3.52438 -6.09891 0
M  V30 1393 H 126.6 0.700433 -0.347733 0
M  V30 1394 H 129.184 1.38441 -1.36902 0
M  V30 1395 H 127.355 3.81786 -0.713713 0
M  V30 1396 H 129.087 3.93875 -0.929745 0
M  V30 1397 H 125.842 3.71568 -2.93656 0
M  V30 1398 H 126.266 3.8727 -5.55294 0
M  V30 1399 H 130.908 3.237 -2.71989 0
M  V30 1400 H 128.626 3.78878 -7.13777 0
M  V30 1401 H 132.212 3.25617 -4.82146 0
M  V30 1402 H 131.092 3.53047 -7.00234 0
M  V30 1403 N 128.595 0.856903 1.32268 0
M  V30 1404 C 130.006 0.515711 1.79436 0
M  V30 1405 C 130.357 -0.966586 1.70738 0
M  V30 1406 O 129.482 -1.75409 1.26731 0
M  V30 1407 C 130.077 0.929335 3.25805 0
M  V30 1408 C 128.636 0.640006 3.70919 0
M  V30 1409 C 127.783 1.12784 2.53328 0
M  V30 1410 H 130.734 1.04389 1.19535 0
M  V30 1411 H 130.755 0.246633 3.797 0
M  V30 1412 H 130.267 2.00821 3.32103 0
M  V30 1413 H 128.368 -0.428051 3.70133 0
M  V30 1414 H 128.481 1.20788 4.63624 0
M  V30 1415 H 126.845 0.548033 2.48734 0
M  V30 1416 H 127.628 2.21387 2.62379 0
M  V30 1417 N 130.073 -1.45103 0.615059 0
M  V30 1418 C 131.298 -2.07064 0.117988 0
M  V30 1419 C 131.723 -1.4554 -1.19163 0
M  V30 1420 O 131.081 -0.550855 -1.72729 0
M  V30 1421 C 131.129 -3.606 -0.000288387 0
M  V30 1422 O 130.233 -3.98847 -1.04856 0
M  V30 1423 H 129.574 -0.659467 0.0774581 0
M  V30 1424 H 132.104 -1.86236 0.847186 0
M  V30 1425 H 132.114 -4.07529 -0.196091 0
M  V30 1426 H 130.789 -4.04765 0.955932 0
M  V30 1427 H 129.366 -3.63577 -0.828619 0
M  V30 1428 N 131.551 -0.354651 -1.53558 0
M  V30 1429 C 132.481 0.489091 -2.2832 0
M  V30 1430 C 133.462 1.09324 -1.30316 0
M  V30 1431 O 134.647 1.11255 -1.59173 0
M  V30 1432 C 131.777 1.63456 -3.0643 0
M  V30 1433 C 130.731 1.1582 -4.12031 0
M  V30 1434 C 130.057 2.39305 -4.7816 0
M  V30 1435 C 131.357 0.250731 -5.21698 0
M  V30 1436 H 133.051 -0.134614 -2.99097 0
M  V30 1437 H 130.597 -0.0661826 -1.43848 0
M  V30 1438 H 132.55 2.23136 -3.57475 0
M  V30 1439 H 131.274 2.28533 -2.33325 0
M  V30 1440 H 129.933 0.584146 -3.61916 0
M  V30 1441 H 129.581 3.02814 -4.01637 0
M  V30 1442 H 129.281 2.08109 -5.49513 0
M  V30 1443 H 130.805 2.99691 -5.31994 0
M  V30 1444 H 132.219 0.754695 -5.68311 0
M  V30 1445 H 130.616 0.0301468 -6.00092 0
M  V30 1446 H 131.686 -0.710125 -4.79672 0
M  V30 1447 N 133.029 1.57378 -0.0835403 0
M  V30 1448 C 133.959 2.1641 0.87686 0
M  V30 1449 C 134.94 1.09429 1.30228 0
M  V30 1450 O 136.125 1.37516 1.37124 0
M  V30 1451 C 133.255 2.73517 2.14022 0
M  V30 1452 C 132.209 3.85769 1.85381 0
M  V30 1453 C 131.535 4.29529 3.18448 0
M  V30 1454 C 132.835 5.09486 1.14984 0
M  V30 1455 H 134.529 2.96914 0.385059 0
M  V30 1456 H 132.075 1.42823 0.18377 0
M  V30 1457 H 134.028 3.13463 2.81636 0
M  V30 1458 H 132.752 1.90252 2.65465 0
M  V30 1459 H 131.411 3.46345 1.20169 0
M  V30 1460 H 131.059 3.43169 3.67755 0
M  V30 1461 H 130.759 5.05204 3.00071 0
M  V30 1462 H 132.283 4.72099 3.8724 0
M  V30 1463 H 133.697 5.46674 1.72687 0
M  V30 1464 H 132.094 5.90515 1.06826 0
M  V30 1465 H 133.164 4.84724 0.130749 0
M  V30 1466 N 134.507 -0.190092 1.56449 0
M  V30 1467 C 135.755 -0.907908 1.80559 0
M  V30 1468 C 136.076 -1.83583 0.657438 0
M  V30 1469 O 135.346 -1.93203 -0.323924 0
M  V30 1470 H 133.926 -0.338247 0.666032 0
M  V30 1471 H 136.588 -0.194403 1.93928 0
M  V30 1472 H 135.684 -1.49604 2.73907 0
M  V30 1473 N 135.985 -1.50799 -0.457987 0
M  V30 1474 C 137.262 -1.52968 -1.21902 0
M  V30 1475 C 137.642 -0.281906 -2.09209 0
M  V30 1476 O 136.99 0.734076 -2.16388 0
M  V30 1477 C 137.2 -2.8326 -2.03875 0
M  V30 1478 C 138.548 -3.34425 -2.6162 0
M  V30 1479 O 139.572 -2.8467 -2.14106 0
M  V30 1480 O 138.431 -4.21188 -3.48228 0
M  V30 1481 H 135.525 -0.614129 -0.553873 0
M  V30 1482 H 138.071 -1.63098 -0.468739 0
M  V30 1483 H 136.843 -3.65543 -1.39621 0
M  V30 1484 H 136.466 -2.76195 -2.8601 0
M  V30 1485 N 137.463 0.71206 -1.40597 0
M  V30 1486 C 138.396 1.83582 -1.35546 0
M  V30 1487 C 139.374 1.61032 -0.225284 0
M  V30 1488 O 140.558 1.83998 -0.409519 0
M  V30 1489 C 137.685 3.19983 -1.11034 0
M  V30 1490 C 136.731 3.61355 -2.2655 0
M  V30 1491 S 137.564 3.68062 -3.88961 0
M  V30 1492 C 138.72 5.07216 -3.66719 0
M  V30 1493 H 138.953 1.87586 -2.30648 0
M  V30 1494 H 136.486 0.879182 -1.26924 0
M  V30 1495 H 138.444 3.98734 -0.975761 0
M  V30 1496 H 137.105 3.13608 -0.175798 0
M  V30 1497 H 136.298 4.60403 -2.0505 0
M  V30 1498 H 135.9 2.8987 -2.36329 0
M  V30 1499 H 138.192 5.94238 -3.25404 0
M  V30 1500 H 139.135 5.33753 -4.6531 0
M  V30 1501 H 139.543 4.77976 -3.00332 0
M  V30 1502 N 138.941 1.26152 0.944643 0
M  V30 1503 C 139.871 1.09902 2.06019 0
M  V30 1504 C 140.852 0.00519538 1.70099 0
M  V30 1505 O 142.037 0.176583 1.93396 0
M  V30 1506 C 139.167 0.727562 3.39594 0
M  V30 1507 C 138.121 1.77274 3.89561 0
M  V30 1508 C 137.447 1.25569 5.19747 0
M  V30 1509 C 138.747 3.17357 4.14827 0
M  V30 1510 H 140.441 2.03217 2.19871 0
M  V30 1511 H 137.987 0.978452 1.05652 0
M  V30 1512 H 139.94 0.600777 4.17095 0
M  V30 1513 H 138.664 -0.241287 3.25707 0
M  V30 1514 H 137.323 1.88814 3.14237 0
M  V30 1515 H 136.971 0.276783 5.02238 0
M  V30 1516 H 136.671 1.95433 5.54148 0
M  V30 1517 H 138.195 1.1415 5.99835 0
M  V30 1518 H 139.609 3.08914 4.82954 0
M  V30 1519 H 138.006 3.84781 4.60504 0
M  V30 1520 H 139.076 3.63673 3.20734 0
M  V30 1521 N 140.419 -1.14872 1.07899 0
M  V30 1522 C 141.382 -2.17986 0.708161 0
M  V30 1523 C 142.382 -1.58775 -0.25442 0
M  V30 1524 O 143.572 -1.74166 -0.034645 0
M  V30 1525 C 140.704 -3.40871 0.0446929 0
M  V30 1526 H 141.897 -2.52306 1.62116 0
M  V30 1527 H 139.45 -1.2943 0.876218 0
M  V30 1528 H 140.185 -3.12124 -0.880281 0
M  V30 1529 H 139.97 -3.8511 0.737091 0
M  V30 1530 H 141.46 -4.17121 -0.19991 0
M  V30 1531 N 141.898 -0.863906 -1.31812 0
M  V30 1532 C 143.175 -0.39275 -1.91616 0
M  V30 1533 C 143.555 1.12461 -1.7865 0
M  V30 1534 O 142.903 1.95045 -1.19037 0
M  V30 1535 C 143.113 -0.867385 -3.38049 0
M  V30 1536 C 144.461 -0.889966 -4.15168 0
M  V30 1537 O 145.485 -0.812635 -3.46806 0
M  V30 1538 O 144.344 -1.00079 -5.37258 0
M  V30 1539 H 141.438 -0.116358 -0.818773 0
M  V30 1540 H 143.984 -0.951418 -1.40521 0
M  V30 1541 H 142.756 -1.91081 -3.41473 0
M  V30 1542 H 142.379 -0.286687 -3.96565 0
M  V30 1543 N 143.376 1.44774 -0.622745 0
M  V30 1544 C 144.339 2.29069 0.0774015 0
M  V30 1545 C 145.339 1.4059 0.780461 0
M  V30 1546 O 146.529 1.62551 0.626322 0
M  V30 1547 C 143.661 3.21974 1.12006 0
M  V30 1548 H 144.854 2.92459 -0.663901 0
M  V30 1549 H 142.407 1.51548 -0.382486 0
M  V30 1550 H 143.142 2.63417 1.89162 0
M  V30 1551 H 142.927 3.87168 0.619951 0
M  V30 1552 H 144.417 3.85318 1.60995 0
M  V30 1553 N 144.854 0.36279 1.53368 0
M  V30 1554 C 146.103 -0.22888 2.00397 0
M  V30 1555 C 146.416 -1.50096 1.25421 0
M  V30 1556 O 147.622 -2.17106 1.63025 0
M  V30 1557 C 146.078 -0.458417 3.56969 0
M  V30 1558 C 145.686 0.798877 4.4082 0
M  V30 1559 C 147.43 -1.00789 4.12361 0
M  V30 1560 C 145.337 0.539078 5.88938 0
M  V30 1561 H 144.267 -0.089305 0.748693 0
M  V30 1562 H 146.918 0.481099 1.77081 0
M  V30 1563 H 145.3 -1.22959 3.76427 0
M  V30 1564 H 146.474 1.57262 4.33134 0
M  V30 1565 H 144.789 1.27137 3.96516 0
M  V30 1566 H 147.386 -1.21754 5.20653 0
M  V30 1567 H 147.729 -1.9692 3.66781 0
M  V30 1568 H 148.262 -0.296961 3.9669 0
M  V30 1569 H 145.001 1.47064 6.3879 0
M  V30 1570 H 144.521 -0.196222 5.99479 0
M  V30 1571 H 146.2 0.163542 6.46793 0
M  V30 1572 N 146.332 -1.57332 0.0918853 0
M  V30 1573 C 147.28 -2.15075 -0.885747 0
M  V30 1574 C 148.274 -1.09277 -1.29441 0
M  V30 1575 O 149.48 -1.27627 -1.26931 0
M  V30 1576 H 145.855 -0.687966 -0.303656 0
M  V30 1577 H 147.826 -2.96047 -0.373995 0
M  V30 1578 C 146.575 -2.74325 -2.13638 0
M  V30 1579 H 145.898 -3.55418 -1.8308 0
M  V30 1580 H 147.338 -3.183 -2.80109 0
M  V30 1581 C 145.797 -1.70062 -2.90827 0
M  V30 1582 O 146.327 -1.13763 -3.85254 0
M  V30 1583 N 144.533 -1.40628 -2.54307 0
M  V30 1584 H 144.08 -1.866 -1.7759 0
M  V30 1585 H 144.038 -0.711043 -3.06254 0
M  V30 1586 N 147.81 0.181792 -1.56548 0
M  V30 1587 C 149.05 0.906711 -1.83189 0
M  V30 1588 C 149.414 1.79882 -0.671312 0
M  V30 1589 O 150.615 2.56054 -0.81792 0
M  V30 1590 C 148.886 1.69023 -3.14906 0
M  V30 1591 S 150.445 2.46535 -3.62996 0
M  V30 1592 H 147.263 0.303877 -0.642791 0
M  V30 1593 H 149.865 0.169107 -1.94767 0
M  V30 1594 H 148.569 1.02571 -3.97376 0
M  V30 1595 H 148.1 2.46941 -3.06241 0
M  V30 1596 H 150.115 3.71014 -3.29489 0
M  V30 1597 N 149.288 1.51039 0.449983 0
M  V30 1598 C 150.218 1.74379 1.55288 0
M  V30 1599 C 151.199 0.593236 1.5942 0
M  V30 1600 O 152.384 0.834625 1.7535 0
M  V30 1601 C 149.514 1.85728 2.93466 0
M  V30 1602 C 148.468 3.01078 3.04197 0
M  V30 1603 C 147.794 2.97595 4.44231 0
M  V30 1604 C 149.094 4.41254 2.7945 0
M  V30 1605 H 150.788 2.66725 1.36008 0
M  V30 1606 H 148.334 1.2835 0.652864 0
M  V30 1607 H 150.287 2.0064 3.70569 0
M  V30 1608 H 149.011 0.900207 3.13949 0
M  V30 1609 H 147.67 2.85851 2.29531 0
M  V30 1610 H 147.318 1.99691 4.61663 0
M  V30 1611 H 147.018 3.75046 4.52343 0
M  V30 1612 H 148.542 3.14583 5.23326 0
M  V30 1613 H 149.956 4.56897 3.46292 0
M  V30 1614 H 148.353 5.20315 2.98985 0
M  V30 1615 H 149.423 4.52164 1.75144 0
M  V30 1616 N 150.766 -0.704594 1.40972 0
M  V30 1617 C 152.014 -1.46169 1.39568 0
M  V30 1618 C 152.335 -1.95 0.00253745 0
M  V30 1619 O 151.605 -1.71095 -0.954114 0
M  V30 1620 H 150.185 -0.542326 0.513704 0
M  V30 1621 H 152.847 -0.834553 1.76128 0
M  V30 1622 H 151.943 -2.32922 2.07735 0
M  V30 1623 N 152.244 -1.26651 -0.937939 0
M  V30 1624 C 153.491 -1.12387 -1.6845 0
M  V30 1625 C 153.819 0.332208 -1.91642 0
M  V30 1626 O 153.074 1.2602 -1.49725 0
M  V30 1627 C 153.373 -1.84168 -3.06295 0
M  V30 1628 C 153.039 -3.34056 -3.02849 0
M  V30 1629 C 151.701 -3.74942 -3.01616 0
M  V30 1630 C 154.053 -4.29741 -2.9491 0
M  V30 1631 C 151.381 -5.09894 -2.90215 0
M  V30 1632 C 153.733 -5.64738 -2.8505 0
M  V30 1633 C 152.397 -6.0493 -2.82162 0
M  V30 1634 H 151.667 -0.411252 -0.616403 0
M  V30 1635 H 154.314 -1.57134 -1.09459 0
M  V30 1636 H 152.619 -1.319 -3.6893 0
M  V30 1637 H 154.316 -1.70569 -3.62915 0
M  V30 1638 H 150.906 -3.01534 -3.0459 0
M  V30 1639 H 155.09 -3.99133 -2.94969 0
M  V30 1640 H 150.346 -5.40194 -2.86358 0
M  V30 1641 H 154.52 -6.38561 -2.77872 0
M  V30 1642 H 152.147 -7.09457 -2.73084 0
M  V30 1643 N 153.722 1.14298 -1.08507 0
M  V30 1644 C 154.95 1.89219 -0.836876 0
M  V30 1645 C 155.365 1.78638 0.611054 0
M  V30 1646 O 154.722 1.14643 1.41998 0
M  V30 1647 C 154.773 3.39158 -1.25116 0
M  V30 1648 O 154.494 3.49449 -2.64229 0
M  V30 1649 C 155.995 4.31073 -1.03398 0
M  V30 1650 H 153.215 0.599328 -0.301739 0
M  V30 1651 H 155.759 1.44746 -1.44461 0
M  V30 1652 H 153.914 3.81251 -0.687514 0
M  V30 1653 H 154.328 4.42589 -2.81452 0
M  V30 1654 H 155.802 5.34646 -1.37323 0
M  V30 1655 H 156.279 4.3919 0.0289259 0
M  V30 1656 H 156.885 3.94738 -1.58311 0
M  V30 1657 N 155.201 0.870884 1.31352 0
M  V30 1658 C 156.447 0.492314 1.97352 0
M  V30 1659 C 156.802 -0.945174 1.67583 0
M  V30 1660 O 156.095 -1.65674 0.962423 0
M  V30 1661 C 156.289 0.687157 3.50732 0
M  V30 1662 C 156.118 2.14203 3.95407 0
M  V30 1663 C 154.888 2.78382 4.21701 0
M  V30 1664 C 157.086 3.1144 4.09279 0
M  V30 1665 N 155.068 4.14611 4.52737 0
M  V30 1666 C 156.439 4.32702 4.44037 0
M  V30 1667 C 158.494 3.07418 3.91661 0
M  V30 1668 C 157.197 5.50463 4.63015 0
M  V30 1669 C 159.223 4.24438 4.11833 0
M  V30 1670 C 158.585 5.44463 4.46923 0
M  V30 1671 H 154.684 0.229206 0.747655 0
M  V30 1672 H 157.268 1.12568 1.5886 0
M  V30 1673 H 155.439 0.083384 3.8831 0
M  V30 1674 H 157.171 0.276883 4.03752 0
M  V30 1675 H 153.926 2.29326 4.14375 0
M  V30 1676 H 154.35 4.84928 4.72413 0
M  V30 1677 H 158.992 2.15732 3.6362 0
M  V30 1678 H 156.71 6.42666 4.89904 0
M  V30 1679 H 160.296 4.2278 3.99685 0
M  V30 1680 H 159.176 6.33504 4.62214 0
M  V30 1681 N 156.679 -1.44442 0.630414 0
M  V30 1682 C 157.642 -2.29107 -0.0652523 0
M  V30 1683 C 158.642 -1.41002 -0.772995 0
M  V30 1684 O 159.832 -1.62881 -0.617692 0
M  V30 1685 C 156.964 -3.22564 -1.10296 0
M  V30 1686 H 158.157 -2.92103 0.679401 0
M  V30 1687 H 155.71 -1.51343 0.390517 0
M  V30 1688 H 156.445 -2.64416 -1.87762 0
M  V30 1689 H 156.23 -3.87491 -0.59941 0
M  V30 1690 H 157.72 -3.86167 -1.5895 0
M  V30 1691 N 158.157 -0.370918 -1.53173 0
M  V30 1692 C 159.382 0.220293 -2.06227 0
M  V30 1693 C 159.807 1.41243 -1.24225 0
M  V30 1694 O 159.165 1.79387 -0.262645 0
M  V30 1695 C 159.213 0.586663 -3.55796 0
M  V30 1696 O 158.317 1.68317 -3.76488 0
M  V30 1697 H 157.658 0.0308099 -0.663285 0
M  V30 1698 H 160.188 -0.533068 -1.97534 0
M  V30 1699 H 160.198 0.85617 -3.98916 0
M  V30 1700 H 158.873 -0.285013 -4.14922 0
M  V30 1701 H 157.45 1.40881 -3.45264 0
M  V30 1702 N 159.635 1.57281 -0.100228 0
M  V30 1703 C 160.86 1.99302 0.573881 0
M  V30 1704 C 161.285 0.979059 1.60611 0
M  V30 1705 O 160.643 -0.0517803 1.81226 0
M  V30 1706 C 160.691 3.40274 1.19358 0
M  V30 1707 O 159.795 3.41676 2.30935 0
M  V30 1708 H 159.136 0.647944 0.145138 0
M  V30 1709 H 161.666 2.03779 -0.183156 0
M  V30 1710 H 161.676 3.78078 1.53365 0
M  V30 1711 H 160.351 4.13594 0.437385 0
M  V30 1712 H 158.928 3.15672 1.98509 0
M  V30 1713 N 161.113 -0.173488 1.56642 0
M  V30 1714 C 162.524 -0.736155 1.71574 0
M  V30 1715 C 162.875 -1.82888 0.710389 0
M  V30 1716 O 162 -2.16017 -0.1287 0
M  V30 1717 C 162.595 -1.34211 3.11083 0
M  V30 1718 C 161.154 -1.85162 3.27707 0
M  V30 1719 C 160.301 -0.729765 2.67525 0
M  V30 1720 H 163.252 0.0518786 1.58615 0
M  V30 1721 H 163.273 -2.21178 3.09613 0
M  V30 1722 H 162.785 -0.546579 3.84232 0
M  V30 1723 H 160.886 -2.67366 2.59512 0
M  V30 1724 H 160.999 -1.99855 4.35425 0
M  V30 1725 H 159.363 -1.14965 2.27278 0
M  V30 1726 H 160.146 0.0538806 3.43258 0
M  V30 1727 N 162.591 -1.51276 -0.441967 0
M  V30 1728 C 163.554 -1.7167 -1.51862 0
M  V30 1729 C 164.554 -0.586793 -1.49711 0
M  V30 1730 O 165.744 -0.854276 -1.51815 0
M  V30 1731 C 162.876 -1.76889 -2.91416 0
M  V30 1732 H 164.069 -2.67754 -1.35084 0
M  V30 1733 H 161.622 -1.41196 -0.670333 0
M  V30 1734 H 162.357 -0.826026 -3.13604 0
M  V30 1735 H 162.142 -2.59001 -2.94382 0
M  V30 1736 H 163.632 -1.94522 -3.69528 0
M  V30 1737 N 164.069 0.697108 -1.41344 0
M  V30 1738 C 165.309 1.46939 -1.42085 0
M  V30 1739 C 165.673 1.9198 -0.0280397 0
M  V30 1740 O 166.874 2.6865 0.0897504 0
M  V30 1741 C 165.145 2.64985 -2.39828 0
M  V30 1742 S 166.704 3.54147 -2.59085 0
M  V30 1743 H 163.522 0.502146 -0.503359 0
M  V30 1744 H 166.124 0.813546 -1.77769 0
M  V30 1745 H 164.828 2.30098 -3.39828 0
M  V30 1746 H 164.359 3.35464 -2.05493 0
M  V30 1747 H 166.374 4.60137 -1.85711 0
M  V30 1748 N 165.547 1.27147 0.931209 0
M  V30 1749 C 166.775 1.16082 1.71267 0
M  V30 1750 C 167.19 -0.282772 1.8667 0
M  V30 1751 O 166.547 -1.19283 1.38122 0
M  V30 1752 C 166.598 1.8358 3.11417 0
M  V30 1753 O 166.319 3.22299 2.96741 0
M  V30 1754 C 167.82 1.78597 4.05732 0
M  V30 1755 H 165.04 0.403758 0.535929 0
M  V30 1756 H 167.584 1.67953 1.16671 0
M  V30 1757 H 165.739 1.35623 3.62885 0
M  V30 1758 H 166.153 3.55851 3.85319 0
M  V30 1759 H 167.627 2.30444 5.01597 0
M  V30 1760 H 168.104 0.754564 4.3267 0
M  V30 1761 H 168.71 2.26152 3.60188 0
M  V30 1762 N 167.025 -1.13721 1.09112 0
M  V30 1763 C 167.935 -2.22638 0.73957 0
M  V30 1764 C 168.951 -1.72091 -0.257068 0
M  V30 1765 O 170.127 -2.01155 -0.0992154 0
M  V30 1766 C 167.192 -3.46322 0.16191 0
M  V30 1767 C 166.253 -4.11775 1.21408 0
M  V30 1768 C 165.486 -5.29555 0.663891 0
M  V30 1769 O 165.709 -5.68077 -0.514274 0
M  V30 1770 O 164.643 -5.84973 1.41738 0
M  V30 1771 H 168.469 -2.55074 1.64836 0
M  V30 1772 H 166.054 -1.21791 0.865289 0
M  V30 1773 H 167.936 -4.21107 -0.157073 0
M  V30 1774 H 166.611 -3.15593 -0.719932 0
M  V30 1775 H 165.518 -3.3883 1.58571 0
M  V30 1776 H 166.851 -4.46627 2.06845 0
M  V30 1777 N 168.503 -0.877838 -1.30888 0
M  V30 1778 C 169.433 -0.35534 -2.3078 0
M  V30 1779 C 170.414 0.557994 -1.60687 0
M  V30 1780 O 171.599 0.473355 -1.88343 0
M  V30 1781 C 168.729 0.437221 -3.44537 0
M  V30 1782 C 167.683 -0.383715 -4.26276 0
M  V30 1783 C 167.009 0.535014 -5.32017 0
M  V30 1784 C 168.309 -1.62201 -4.96476 0
M  V30 1785 H 170.003 -1.19007 -2.74732 0
M  V30 1786 H 167.549 -0.573698 -1.32078 0
M  V30 1787 H 169.502 0.813334 -4.13477 0
M  V30 1788 H 168.226 1.30553 -2.99372 0
M  V30 1789 H 166.885 -0.741874 -3.59015 0
M  V30 1790 H 166.533 1.40083 -4.831 0
M  V30 1791 H 166.233 -0.0104211 -5.87599 0
M  V30 1792 H 167.757 0.907799 -6.03814 0
M  V30 1793 H 169.171 -1.31689 -5.5797 0
M  V30 1794 H 167.568 -2.10711 -5.61891 0
M  V30 1795 H 168.638 -2.37044 -4.23011 0
M  V30 1796 N 169.982 1.44106 -0.638065 0
M  V30 1797 C 170.892 2.34513 0.0637334 0
M  V30 1798 C 171.908 1.53018 0.828346 0
M  V30 1799 O 173.084 1.85723 0.779036 0
M  V30 1800 C 170.149 3.31095 1.02844 0
M  V30 1801 C 169.21 4.28497 0.26244 0
M  V30 1802 C 168.443 5.20465 1.1812 0
M  V30 1803 O 168.666 5.16514 2.42011 0
M  V30 1804 O 167.6 5.98251 0.661774 0
M  V30 1805 H 171.426 2.95989 -0.68003 0
M  V30 1806 H 169.011 1.43994 -0.398252 0
M  V30 1807 H 170.893 3.90526 1.58327 0
M  V30 1808 H 169.568 2.72144 1.7527 0
M  V30 1809 H 168.475 3.72592 -0.335602 0
M  V30 1810 H 169.808 4.90388 -0.421936 0
M  V30 1811 N 171.46 0.379036 1.52974 0
M  V30 1812 C 172.393 -0.504932 2.22544 0
M  V30 1813 C 173.371 -1.0723 1.22231 0
M  V30 1814 O 174.555 -1.12589 1.51182 0
M  V30 1815 C 171.682 -1.69794 2.93066 0
M  V30 1816 C 170.728 -1.25678 4.07563 0
M  V30 1817 S 171.561 -0.246852 5.34931 0
M  V30 1818 C 172.717 -1.44588 6.08971 0
M  V30 1819 H 172.95 0.0858666 2.97176 0
M  V30 1820 H 170.483 0.163183 1.53535 0
M  V30 1821 H 172.441 -2.38219 3.34308 0
M  V30 1822 H 171.102 -2.26002 2.18133 0
M  V30 1823 H 170.295 -2.14725 4.5597 0
M  V30 1824 H 169.897 -0.651584 3.6828 0
M  V30 1825 H 172.189 -2.37469 6.34519 0
M  V30 1826 H 173.132 -1.00292 7.00962 0
M  V30 1827 H 173.54 -1.65804 5.39601 0
M  V30 1828 N 172.938 -1.57226 0.108567 0
M  V30 1829 C 173.886 -2.16002 -0.862885 0
M  V30 1830 C 174.88 -1.10644 -1.28274 0
M  V30 1831 O 176.086 -1.28966 -1.2557 0
M  V30 1832 H 172.461 -0.691148 -0.296342 0
M  V30 1833 H 174.432 -2.96427 -0.342575 0
M  V30 1834 C 173.181 -2.76576 -2.10716 0
M  V30 1835 H 172.504 -3.5734 -1.793 0
M  V30 1836 H 173.944 -3.21253 -2.76717 0
M  V30 1837 C 172.403 -1.73137 -2.89007 0
M  V30 1838 O 172.933 -1.17842 -3.84026 0
M  V30 1839 N 171.139 -1.43317 -2.52801 0
M  V30 1840 H 170.686 -1.88473 -1.75601 0
M  V30 1841 H 170.644 -0.743485 -3.05483 0
M  V30 1842 N 174.416 0.165178 -1.56732 0
M  V30 1843 C 175.662 0.882112 -1.82611 0
M  V30 1844 C 175.995 1.81628 -0.687378 0
M  V30 1845 O 175.27 1.92009 0.310267 0
M  V30 1846 C 175.553 1.67245 -3.18906 0
M  V30 1847 C 175.406 0.760987 -4.43316 0
M  V30 1848 C 176.725 2.63884 -3.52212 0
M  V30 1849 H 173.844 0.319242 -0.664269 0
M  V30 1850 H 176.486 0.148052 -1.89422 0
M  V30 1851 H 174.636 2.29824 -3.1323 0
M  V30 1852 H 176.308 0.147596 -4.61064 0
M  V30 1853 H 174.551 0.0694102 -4.33744 0
M  V30 1854 H 175.222 1.34962 -5.35247 0
M  V30 1855 H 177.698 2.11429 -3.58381 0
M  V30 1856 H 176.574 3.16245 -4.48643 0
M  V30 1857 H 176.835 3.44377 -2.77231 0
M  V30 1858 N 175.894 1.51508 0.433938 0
M  V30 1859 C 176.827 1.67756 1.54704 0
M  V30 1860 C 177.805 0.525127 1.53887 0
M  V30 1861 O 178.989 0.749393 1.72963 0
M  V30 1862 C 176.116 1.69424 2.9328 0
M  V30 1863 C 175.162 2.90673 3.12108 0
M  V30 1864 S 175.995 4.51431 2.88046 0
M  V30 1865 C 177.151 4.55849 4.28897 0
M  V30 1866 H 177.384 2.61904 1.40689 0
M  V30 1867 H 174.917 1.41235 0.62386 0
M  V30 1868 H 176.875 1.7107 3.73156 0
M  V30 1869 H 175.536 0.764464 3.04655 0
M  V30 1870 H 174.729 2.88251 4.13434 0
M  V30 1871 H 174.331 2.86786 2.40062 0
M  V30 1872 H 176.623 4.31699 5.22152 0
M  V30 1873 H 177.566 5.57676 4.36351 0
M  V30 1874 H 177.974 3.85137 4.12711 0
M  V30 1875 N 177.372 -0.689602 1.41712 0
M  V30 1876 C 178.649 -1.44457 1.31877 0
M  V30 1877 C 179.029 -2.11039 -0.0508537 0
M  V30 1878 O 178.377 -2.02138 -1.06547 0
M  V30 1879 C 178.587 -2.45913 2.47645 0
M  V30 1880 C 179.935 -3.10991 2.89084 0
M  V30 1881 O 180.959 -2.56238 2.47428 0
M  V30 1882 O 179.818 -4.10174 3.61137 0
M  V30 1883 H 176.912 -0.64362 0.519309 0
M  V30 1884 H 179.458 -0.719576 1.53689 0
M  V30 1885 H 178.23 -1.95409 3.39015 0
M  V30 1886 H 177.853 -3.25913 2.27742 0
M  V30 1887 N 178.85 -1.27639 -0.924453 0
M  V30 1888 C 180.096 -1.15345 -1.67532 0
M  V30 1889 C 180.451 0.297096 -1.90092 0
M  V30 1890 O 179.744 1.21374 -1.48253 0
M  V30 1891 C 179.938 -1.87407 -3.04325 0
M  V30 1892 C 179.767 -3.3932 -2.95114 0
M  V30 1893 C 178.537 -4.08644 -2.97218 0
M  V30 1894 C 180.735 -4.35242 -2.73987 0
M  V30 1895 N 178.717 -5.47102 -2.78482 0
M  V30 1896 C 180.088 -5.6099 -2.63988 0
M  V30 1897 C 182.143 -4.25294 -2.589 0
M  V30 1898 C 180.846 -6.77924 -2.40442 0
M  V30 1899 C 182.872 -5.41952 -2.36731 0
M  V30 1900 C 182.234 -6.66658 -2.27478 0
M  V30 1901 H 178.333 -0.47696 -0.619704 0
M  V30 1902 H 180.917 -1.6115 -1.09265 0
M  V30 1903 H 179.088 -1.44053 -3.60699 0
M  V30 1904 H 180.82 -1.6759 -3.68369 0
M  V30 1905 H 177.575 -3.60136 -3.07569 0
M  V30 1906 H 177.999 -6.19852 -2.72236 0
M  V30 1907 H 182.641 -3.29598 -2.64811 0
M  V30 1908 H 180.359 -7.73699 -2.3327 0
M  V30 1909 H 183.945 -5.36137 -2.25938 0
M  V30 1910 H 182.825 -7.55405 -2.10555 0
M  V30 1911 N 180.328 1.1314 -1.09713 0
M  V30 1912 C 181.258 2.20748 -0.761102 0
M  V30 1913 C 182.239 1.68061 0.262566 0
M  V30 1914 O 183.424 1.93765 0.129977 0
M  V30 1915 C 180.554 3.46812 -0.184054 0
M  V30 1916 C 179.508 4.12606 -1.13757 0
M  V30 1917 C 178.834 5.33031 -0.422083 0
M  V30 1918 C 180.134 4.59603 -2.48118 0
M  V30 1919 H 181.828 2.49113 -1.66082 0
M  V30 1920 H 179.374 1.19734 -0.799987 0
M  V30 1921 H 181.327 4.21353 0.0631215 0
M  V30 1922 H 180.051 3.17851 0.750868 0
M  V30 1923 H 178.71 3.40036 -1.37007 0
M  V30 1924 H 178.358 5.00335 0.517072 0
M  V30 1925 H 178.058 5.77999 -1.05788 0
M  V30 1926 H 179.582 6.10325 -0.183277 0
M  V30 1927 H 180.996 5.25552 -2.29059 0
M  V30 1928 H 179.393 5.15321 -3.07514 0
M  V30 1929 H 180.463 3.73971 -3.08665 0
M  V30 1930 N 181.806 0.884767 1.30421 0
M  V30 1931 C 182.769 0.356277 2.26414 0
M  V30 1932 C 183.769 -0.501124 1.52792 0
M  V30 1933 O 184.959 -0.30831 1.7145 0
M  V30 1934 C 182.091 -0.492316 3.37326 0
M  V30 1935 H 183.284 1.20389 2.74675 0
M  V30 1936 H 180.837 0.661607 1.41607 0
M  V30 1937 H 181.572 -1.36052 2.94381 0
M  V30 1938 H 181.357 0.121832 3.91911 0
M  V30 1939 H 182.847 -0.853871 4.08777 0
M  V30 1940 N 183.284 -1.43765 0.645699 0
M  V30 1941 C 184.231 -2.30745 -0.0504648 0
M  V30 1942 C 185.201 -1.4432 -0.822241 0
M  V30 1943 O 186.386 -1.73202 -0.800358 0
M  V30 1944 C 183.526 -3.29802 -1.0161 0
M  V30 1945 C 182.639 -4.31326 -0.241219 0
M  V30 1946 C 181.774 -5.17469 -1.19998 0
M  V30 1947 C 180.813 -6.10691 -0.415094 0
M  V30 1948 N 179.95 -6.89483 -1.32506 0
M  V30 1949 H 184.79 -2.8973 0.697155 0
M  V30 1950 H 182.327 -1.42738 0.355563 0
M  V30 1951 H 184.285 -3.85734 -1.58949 0
M  V30 1952 H 182.915 -2.72483 -1.73069 0
M  V30 1953 H 181.967 -3.77749 0.448334 0
M  V30 1954 H 183.279 -4.9743 0.369437 0
M  V30 1955 H 182.433 -5.7799 -1.84424 0
M  V30 1956 H 181.172 -4.51473 -1.84455 0
M  V30 1957 H 180.177 -5.49265 0.242565 0
M  V30 1958 H 181.402 -6.78727 0.224966 0
M  V30 1959 H 179.348 -6.26142 -1.95657 0
M  V30 1960 H 179.265 -7.52081 -0.768783 0
M  V30 1961 H 180.533 -7.54516 -1.9577 0
M  V30 1962 N 184.763 -0.387143 -1.52771 0
M  V30 1963 C 185.696 0.493123 -2.22808 0
M  V30 1964 C 186.674 1.0658 -1.22798 0
M  V30 1965 O 187.858 1.11785 -1.51777 0
M  V30 1966 C 184.985 1.68238 -2.93962 0
M  V30 1967 C 184.031 1.23515 -4.08223 0
M  V30 1968 S 184.864 0.21848 -5.35054 0
M  V30 1969 C 186.02 1.41357 -6.09729 0
M  V30 1970 H 186.253 -0.101625 -2.97126 0
M  V30 1971 H 183.786 -0.171323 -1.53447 0
M  V30 1972 H 185.744 2.36443 -3.35567 0
M  V30 1973 H 184.405 2.24842 -2.19328 0
M  V30 1974 H 183.598 2.12304 -4.57103 0
M  V30 1975 H 183.2 0.632044 -3.68621 0
M  V30 1976 H 185.492 2.34101 -6.3577 0
M  V30 1977 H 186.435 0.965736 -7.01484 0
M  V30 1978 H 186.843 1.6294 -5.40473 0
M  V30 1979 N 186.241 1.57166 -0.116904 0
M  V30 1980 C 187.171 2.18222 0.830759 0
M  V30 1981 C 188.152 1.12167 1.27877 0
M  V30 1982 O 189.337 1.40394 1.34176 0
M  V30 1983 C 186.467 2.77996 2.08172 0
M  V30 1984 C 185.421 3.89614 1.77157 0
M  V30 1985 C 184.747 4.36187 3.09265 0
M  V30 1986 C 186.047 5.1181 1.04151 0
M  V30 1987 H 187.741 2.97664 0.321992 0
M  V30 1988 H 185.287 1.4318 0.153434 0
M  V30 1989 H 187.24 3.19366 2.74924 0
M  V30 1990 H 185.964 1.9584 2.6137 0
M  V30 1991 H 184.623 3.48816 1.12796 0
M  V30 1992 H 184.271 3.50893 3.60393 0
M  V30 1993 H 183.971 5.11455 2.89288 0
M  V30 1994 H 185.495 4.80207 3.77139 0
M  V30 1995 H 186.909 5.50214 1.61052 0
M  V30 1996 H 185.306 5.92648 0.942762 0
M  V30 1997 H 186.376 4.84892 0.0279022 0
M  V30 1998 N 187.719 -0.156864 1.56817 0
M  V30 1999 C 188.967 -0.869404 1.82444 0
M  V30 2000 C 189.288 -1.82147 0.69623 0
M  V30 2001 O 188.558 -1.93847 -0.28287 0
M  V30 2002 H 187.138 -0.324043 0.673056 0
M  V30 2003 H 189.8 -0.153224 1.94297 0
M  V30 2004 H 188.896 -1.43761 2.77019 0
M  V30 2005 N 189.197 -1.51736 -0.425897 0
M  V30 2006 C 190.127 -1.76827 -1.52494 0
M  V30 2007 C 191.108 -0.618524 -1.58456 0
M  V30 2008 O 192.293 -0.862416 -1.74 0
M  V30 2009 C 189.423 -1.90374 -2.90474 0
M  V30 2010 C 188.377 -3.0588 -2.99369 0
M  V30 2011 C 187.703 -3.04625 -4.3944 0
M  V30 2012 C 189.003 -4.45644 -2.72394 0
M  V30 2013 H 190.697 -2.68855 -1.31748 0
M  V30 2014 H 188.243 -1.29372 -0.632362 0
M  V30 2015 H 190.196 -2.0651 -3.6733 0
M  V30 2016 H 188.92 -0.95004 -3.12477 0
M  V30 2017 H 187.579 -2.89467 -2.24954 0
M  V30 2018 H 187.227 -2.0701 -4.58428 0
M  V30 2019 H 186.927 -3.82195 -4.46319 0
M  V30 2020 H 188.451 -3.22869 -5.18255 0
M  V30 2021 H 189.865 -4.62348 -3.38979 0
M  V30 2022 H 188.262 -5.25006 -2.9067 0
M  V30 2023 H 189.332 -4.54893 -1.67929 0
M  V30 2024 N 190.675 0.682077 -1.42076 0
M  V30 2025 C 192.086 1.26246 -1.37546 0
M  V30 2026 C 192.437 1.96092 -0.0651481 0
M  V30 2027 O 191.562 1.99587 0.836297 0
M  V30 2028 C 192.157 2.29594 -2.49143 0
M  V30 2029 C 190.716 2.83175 -2.47969 0
M  V30 2030 C 189.863 1.57395 -2.28303 0
M  V30 2031 H 192.814 0.475937 -1.51395 0
M  V30 2032 H 192.835 3.11175 -2.18976 0
M  V30 2033 H 192.347 1.78729 -3.44496 0
M  V30 2034 H 190.448 3.3818 -1.56413 0
M  V30 2035 H 190.561 3.32687 -3.44755 0
M  V30 2036 H 188.925 1.83699 -1.76428 0
M  V30 2037 H 189.708 1.08507 -3.25701 0
M  V30 2038 N 192.153 1.28127 0.917671 0
M  V30 2039 C 193.063 1.13556 2.05286 0
M  V30 2040 C 194.079 0.0630914 1.73886 0
M  V30 2041 O 195.255 0.271598 1.9956 0
M  V30 2042 C 192.32 0.794676 3.3747 0
M  V30 2043 C 191.381 1.94909 3.82504 0
M  V30 2044 C 190.614 1.62437 5.0838 0
M  V30 2045 O 190.837 0.536905 5.67867 0
M  V30 2046 O 189.771 2.46677 5.4903 0
M  V30 2047 H 193.597 2.08844 2.20495 0
M  V30 2048 H 191.182 1.07409 1.03845 0
M  V30 2049 H 193.064 0.618344 4.16839 0
M  V30 2050 H 191.739 -0.128581 3.23445 0
M  V30 2051 H 190.646 2.18055 3.03978 0
M  V30 2052 H 191.979 2.85291 4.01086 0
M  V30 2053 N 193.631 -1.12557 1.10312 0
M  V30 2054 C 194.581 -2.16331 0.720076 0
M  V30 2055 C 195.565 -1.58616 -0.270115 0
M  V30 2056 O 196.757 -1.76823 -0.0790507 0
M  V30 2057 C 193.886 -3.42963 0.152113 0
M  V30 2058 C 192.972 -4.07663 1.16927 0
M  V30 2059 N 193.363 -4.47392 2.35953 0
M  V30 2060 C 191.661 -4.34425 1.0095 0
M  V30 2061 C 192.362 -4.97932 3.0073 0
M  V30 2062 N 191.338 -4.93358 2.28252 0
M  V30 2063 H 195.14 -2.44813 1.62616 0
M  V30 2064 H 192.654 -1.29449 0.980654 0
M  V30 2065 H 194.651 -4.16664 -0.14037 0
M  V30 2066 H 193.311 -3.1595 -0.748701 0
M  V30 2067 H 194.322 -4.39802 2.73486 0
M  V30 2068 H 190.999 -4.17177 0.164134 0
M  V30 2069 H 192.389 -5.38397 4.01969 0
M  V30 2070 N 195.109 -0.891671 -1.2995 0
M  V30 2071 C 196.356 -0.513501 -1.95881 0
M  V30 2072 C 196.684 0.938655 -1.70351 0
M  V30 2073 O 195.939 1.67936 -1.00478 0
M  V30 2074 C 196.238 -0.742868 -3.49594 0
M  V30 2075 C 195.904 -2.17114 -3.95186 0
M  V30 2076 C 194.566 -2.56169 -4.07346 0
M  V30 2077 C 196.918 -3.10162 -4.18866 0
M  V30 2078 C 194.246 -3.87469 -4.4055 0
M  V30 2079 C 196.598 -4.41001 -4.53542 0
M  V30 2080 C 195.262 -4.79941 -4.63911 0
M  V30 2081 H 194.532 -0.187903 -0.71678 0
M  V30 2082 H 197.179 -1.1288 -1.54694 0
M  V30 2083 H 195.484 -0.044586 -3.91775 0
M  V30 2084 H 197.181 -0.429767 -3.9869 0
M  V30 2085 H 193.771 -1.85801 -3.86233 0
M  V30 2086 H 197.955 -2.81206 -4.08946 0
M  V30 2087 H 193.211 -4.17371 -4.46779 0
M  V30 2088 H 197.385 -5.13133 -4.70815 0
M  V30 2089 H 195.012 -5.81719 -4.89395 0
M  V30 2090 N 196.587 1.43421 -0.653314 0
M  V30 2091 C 197.517 2.33487 0.0246656 0
M  V30 2092 C 198.498 1.49475 0.811863 0
M  V30 2093 O 199.683 1.78139 0.773322 0
M  V30 2094 C 196.813 3.32841 0.99166 0
M  V30 2095 C 195.767 4.26842 0.314568 0
M  V30 2096 C 195.093 5.16236 1.39302 0
M  V30 2097 C 196.393 5.16243 -0.793095 0
M  V30 2098 H 198.087 2.90427 -0.727481 0
M  V30 2099 H 195.633 1.39649 -0.351287 0
M  V30 2100 H 197.586 3.94747 1.47487 0
M  V30 2101 H 196.31 2.74158 1.77497 0
M  V30 2102 H 194.969 3.663 -0.148199 0
M  V30 2103 H 194.617 4.53891 2.16776 0
M  V30 2104 H 194.317 5.79948 0.945223 0
M  V30 2105 H 195.841 5.81015 1.87759 0
M  V30 2106 H 197.255 5.71958 -0.392039 0
M  V30 2107 H 195.652 5.88676 -1.16536 0
M  V30 2108 H 196.722 4.55927 -1.65103 0
M  V30 2109 N 198.065 0.39524 1.52563 0
M  V30 2110 C 199.015 -0.4541 2.23432 0
M  V30 2111 C 199.999 -1.02482 1.24042 0
M  V30 2112 O 201.191 -0.949938 1.49349 0
M  V30 2113 C 198.32 -1.57769 3.049 0
M  V30 2114 C 197.406 -1.01842 4.1169 0
M  V30 2115 N 197.797 -0.184613 5.05463 0
M  V30 2116 C 196.095 -1.29033 4.26927 0
M  V30 2117 C 196.796 0.125013 5.81566 0
M  V30 2118 N 195.772 -0.480498 5.41472 0
M  V30 2119 H 199.574 0.189413 2.93289 0
M  V30 2120 H 197.088 0.204877 1.61102 0
M  V30 2121 H 199.085 -2.19862 3.54212 0
M  V30 2122 H 197.745 -2.22397 2.36579 0
M  V30 2123 H 198.756 0.178602 5.17592 0
M  V30 2124 H 195.433 -1.93721 3.69836 0
M  V30 2125 H 196.823 0.800962 6.67109 0
M  V30 2126 N 199.544 -1.57102 0.125237 0
M  V30 2127 C 200.494 -2.12202 -0.833936 0
M  V30 2128 C 201.478 -1.04433 -1.22403 0
M  V30 2129 O 202.67 -1.30655 -1.19408 0
M  V30 2130 C 199.799 -2.72994 -2.08157 0
M  V30 2131 C 198.885 -3.87852 -1.71556 0
M  V30 2132 N 199.276 -4.9464 -1.05662 0
M  V30 2133 C 197.574 -3.98153 -2.00973 0
M  V30 2134 C 198.275 -5.74953 -0.883376 0
M  V30 2135 N 197.251 -5.24985 -1.41036 0
M  V30 2136 H 201.053 -2.92141 -0.321035 0
M  V30 2137 H 198.567 -1.62217 -0.0770315 0
M  V30 2138 H 200.564 -3.10816 -2.77847 0
M  V30 2139 H 199.224 -1.9452 -2.59985 0
M  V30 2140 H 200.235 -5.12872 -0.719878 0
M  V30 2141 H 196.912 -3.30728 -2.54804 0
M  V30 2142 H 198.302 -6.70904 -0.365675 0
M  V30 2143 N 201.022 0.148545 -1.56898 0
M  V30 2144 C 201.972 1.1886 -1.94567 0
M  V30 2145 C 202.956 1.3863 -0.816735 0
M  V30 2146 O 204.148 1.40218 -1.08018 0
M  V30 2147 C 201.277 2.52262 -2.32849 0
M  V30 2148 C 200.363 2.36092 -3.52309 0
M  V30 2149 N 200.754 1.89674 -4.6889 0
M  V30 2150 C 199.052 2.66848 -3.57363 0
M  V30 2151 C 199.753 1.86511 -5.50989 0
M  V30 2152 N 198.729 2.29766 -4.92655 0
M  V30 2153 H 202.531 0.821793 -2.82177 0
M  V30 2154 H 200.045 0.356615 -1.58436 0
M  V30 2155 H 202.042 3.27447 -2.58039 0
M  V30 2156 H 200.702 2.89727 -1.46589 0
M  V30 2157 H 201.713 1.59663 -4.92674 0
M  V30 2158 H 198.39 3.08198 -2.81639 0
M  V30 2159 H 199.78 1.52128 -6.54452 0
M  V30 2160 N 202.5 1.5196 0.417844 0
M  V30 2161 C 203.911 1.57851 0.997 0
M  V30 2162 C 204.262 0.413714 1.91789 0
M  V30 2163 O 203.387 -0.467057 2.113 0
M  V30 2164 C 203.982 2.86085 1.81496 0
M  V30 2165 C 202.541 2.94483 2.34428 0
M  V30 2166 C 201.688 2.52707 1.14169 0
M  V30 2167 H 204.639 1.57455 0.198392 0
M  V30 2168 H 204.66 2.70947 2.67148 0
M  V30 2169 H 204.172 3.70842 1.14446 0
M  V30 2170 H 202.273 2.142 3.04875 0
M  V30 2171 H 202.386 3.98546 2.65891 0
M  V30 2172 H 200.75 2.06353 1.49301 0
M  V30 2173 H 201.533 3.39828 0.486999 0
M  V30 2174 N 203.978 -0.674533 1.42435 0
M  V30 2175 C 205.203 -1.46784 1.46524 0
M  V30 2176 C 205.628 -1.87938 0.078066 0
M  V30 2177 O 204.986 -1.56014 -0.92354 0
M  V30 2178 C 205.034 -2.69307 2.39805 0
M  V30 2179 O 204.138 -3.67587 1.86959 0
M  V30 2180 H 203.479 -0.440959 0.496439 0
M  V30 2181 H 206.009 -0.827326 1.87127 0
M  V30 2182 H 206.019 -3.17374 2.56393 0
M  V30 2183 H 204.694 -2.38692 3.40586 0
M  V30 2184 H 203.271 -3.2662 1.79927 0
M  V30 2185 N 205.456 -1.28612 -0.910864 0
M  V30 2186 C 206.681 -1.1891 -1.69927 0
M  V30 2187 C 207.106 0.248372 -1.86453 0
M  V30 2188 O 206.464 1.17961 -1.37676 0
M  V30 2189 C 206.512 -1.89578 -3.06745 0
M  V30 2190 O 205.616 -1.20521 -3.94396 0
M  V30 2191 H 204.957 -0.412632 -0.520222 0
M  V30 2192 H 207.487 -1.69985 -1.1387 0
M  V30 2193 H 207.497 -1.97597 -3.56958 0
M  V30 2194 H 206.172 -2.94136 -2.94035 0
M  V30 2195 H 204.749 -1.20684 -3.52831 0
M  V30 2196 N 206.934 1.1197 -1.10907 0
M  V30 2197 C 207.866 2.17592 -0.720175 0
M  V30 2198 C 208.879 1.60938 0.245495 0
M  V30 2199 O 210.068 1.78476 0.0292245 0
M  V30 2200 C 207.168 3.38873 -0.0427917 0
M  V30 2201 C 206.341 4.25006 -1.03388 0
M  V30 2202 C 205.4 5.24774 -0.387075 0
M  V30 2203 O 204.426 5.59631 -1.03934 0
M  V30 2204 N 205.628 5.74208 0.852407 0
M  V30 2205 H 208.393 2.51567 -1.62893 0
M  V30 2206 H 205.954 1.27439 -0.998543 0
M  V30 2207 H 207.946 4.02703 0.401501 0
M  V30 2208 H 206.516 3.03007 0.768456 0
M  V30 2209 H 205.736 3.57716 -1.65629 0
M  V30 2210 H 207.024 4.79397 -1.70458 0
M  V30 2211 H 206.422 5.48062 1.40161 0
M  V30 2212 H 204.979 6.39901 1.23977 0
M  V30 2213 N 208.412 0.89855 1.29475 0
M  V30 2214 C 209.66 0.522847 1.9522 0
M  V30 2215 C 209.981 -0.93371 1.71192 0
M  V30 2216 O 209.251 -1.65823 1.04305 0
M  V30 2217 H 207.831 0.190366 0.722336 0
M  V30 2218 H 210.493 1.14459 1.5775 0
M  V30 2219 H 209.589 0.704476 3.04045 0
M  V30 2220 N 209.89 -1.43072 0.660911 0
M  V30 2221 C 211.138 -2.01323 0.177094 0
M  V30 2222 C 211.459 -1.5245 -1.2159 0
M  V30 2223 O 210.729 -0.740322 -1.81373 0
M  V30 2224 H 209.309 -0.744382 0.0624804 0
M  V30 2225 H 211.971 -1.75179 0.854305 0
M  V30 2226 H 211.067 -3.11649 0.167641 0
M  V30 2227 N 211.368 -0.403325 -1.52352 0
M  V30 2228 C 212.616 0.174003 -2.0135 0
M  V30 2229 C 212.937 1.46139 -1.29106 0
M  V30 2230 O 212.207 1.91448 -0.415253 0
M  V30 2231 H 210.787 0.0672911 -0.743963 0
M  V30 2232 H 213.449 -0.538235 -1.87321 0
M  V30 2233 H 212.545 0.374254 -3.09848 0
M  V30 2234 N 212.846 1.57033 -0.133567 0
M  V30 2235 C 214.092 1.95976 0.521649 0
M  V30 2236 C 214.425 1.01779 1.65393 0
M  V30 2237 O 213.7 0.0576581 1.94415 0
M  V30 2238 C 213.983 3.44738 1.04057 0
M  V30 2239 C 213.836 4.49711 -0.0892897 0
M  V30 2240 C 215.155 3.95682 1.92675 0
M  V30 2241 H 212.274 0.712579 0.188149 0
M  V30 2242 H 214.916 1.88813 -0.212076 0
M  V30 2243 H 213.066 3.50973 1.66583 0
M  V30 2244 H 214.738 4.55565 -0.725152 0
M  V30 2245 H 212.981 4.27261 -0.750378 0
M  V30 2246 H 213.652 5.51099 0.315284 0
M  V30 2247 H 216.128 3.91841 1.39998 0
M  V30 2248 H 215.004 5.00262 2.25897 0
M  V30 2249 H 215.265 3.37239 2.85872 0
M  V30 2250 N 214.325 -0.140222 1.56975 0
M  V30 2251 C 215.255 -1.17456 2.01808 0
M  V30 2252 C 216.236 -1.44415 0.898794 0
M  V30 2253 O 217.421 -1.5522 1.16707 0
M  V30 2254 C 214.551 -2.50607 2.40444 0
M  V30 2255 C 213.505 -2.38155 3.55621 0
M  V30 2256 C 212.831 -3.76078 3.80091 0
M  V30 2257 C 214.131 -1.85991 4.88062 0
M  V30 2258 H 215.825 -0.801743 2.88466 0
M  V30 2259 H 213.371 -0.38422 1.38779 0
M  V30 2260 H 215.324 -3.23197 2.7041 0
M  V30 2261 H 214.048 -2.89737 1.50732 0
M  V30 2262 H 212.707 -1.68016 3.25832 0
M  V30 2263 H 212.355 -4.12656 2.87618 0
M  V30 2264 H 212.055 -3.68606 4.57606 0
M  V30 2265 H 213.579 -4.50206 4.12488 0
M  V30 2266 H 214.993 -2.4838 5.16701 0
M  V30 2267 H 213.39 -1.89393 5.6943 0
M  V30 2268 H 214.46 -0.816023 4.77984 0
M  V30 2269 N 215.803 -1.52179 -0.40978 0
M  V30 2270 C 216.735 -1.71703 -1.51825 0
M  V30 2271 C 217.748 -0.597445 -1.51441 0
M  V30 2272 O 218.937 -0.872582 -1.55719 0
M  V30 2273 C 216.037 -1.74171 -2.90719 0
M  V30 2274 C 215.21 -3.03156 -3.15302 0
M  V30 2275 C 214.269 -2.97445 -4.34065 0
M  V30 2276 O 213.295 -3.71352 -4.31377 0
M  V30 2277 N 214.497 -2.15191 -5.39141 0
M  V30 2278 H 217.262 -2.67334 -1.35472 0
M  V30 2279 H 214.823 -1.50409 -0.599069 0
M  V30 2280 H 216.815 -1.67884 -3.68235 0
M  V30 2281 H 215.385 -0.860166 -3.00533 0
M  V30 2282 H 214.605 -3.23097 -2.25836 0
M  V30 2283 H 215.893 -3.88484 -3.28569 0
M  V30 2284 H 215.291 -1.54573 -5.44173 0
M  V30 2285 H 213.848 -2.1476 -6.15403 0
M  V30 2286 N 217.281 0.66697 -1.42791 0
M  V30 2287 C 218.506 1.46004 -1.47301 0
M  V30 2288 C 218.931 1.87894 -0.0880317 0
M  V30 2289 O 218.289 1.56502 0.915253 0
M  V30 2290 C 218.337 2.68031 -2.41229 0
M  V30 2291 O 217.441 3.6659 -1.88906 0
M  V30 2292 H 216.782 0.43832 -0.49877 0
M  V30 2293 H 219.312 0.817391 -1.87563 0
M  V30 2294 H 219.322 3.1601 -2.58073 0
M  V30 2295 H 217.997 2.36883 -3.41847 0
M  V30 2296 H 216.574 3.25661 -1.81656 0
M  V30 2297 N 218.759 1.29093 0.90403 0
M  V30 2298 C 219.987 1.19689 1.68766 0
M  V30 2299 C 220.402 -0.243113 1.87228 0
M  V30 2300 O 219.759 -1.16326 1.40621 0
M  V30 2301 C 219.81 1.90144 3.07453 0
M  V30 2302 O 219.531 3.2852 2.89838 0
M  V30 2303 C 221.032 1.87162 4.01852 0
M  V30 2304 H 218.252 0.415035 0.527244 0
M  V30 2305 H 220.796 1.7039 1.13082 0
M  V30 2306 H 218.951 1.43289 3.59926 0
M  V30 2307 H 219.365 3.63944 3.77684 0
M  V30 2308 H 220.839 2.41032 4.96596 0
M  V30 2309 H 221.316 0.84617 4.30972 0
M  V30 2310 H 221.922 2.33741 3.5531 0
M  V30 2311 N 220.237 -1.11381 1.11499 0
M  V30 2312 C 221.483 -1.83403 0.865512 0
M  V30 2313 C 221.816 -1.84459 -0.607329 0
M  V30 2314 O 221.091 -1.29811 -1.44842 0
M  V30 2315 C 221.374 -3.30552 1.42855 0
M  V30 2316 C 221.227 -3.37886 2.96906 0
M  V30 2317 C 222.546 -4.26643 1.08 0
M  V30 2318 H 219.665 -0.665879 0.31587 0
M  V30 2319 H 222.307 -1.30601 1.37998 0
M  V30 2320 H 220.457 -3.75648 0.990985 0
M  V30 2321 H 222.129 -3.01343 3.49271 0
M  V30 2322 H 220.372 -2.78088 3.32941 0
M  V30 2323 H 221.043 -4.41458 3.31389 0
M  V30 2324 H 223.519 -3.89729 1.45775 0
M  V30 2325 H 222.395 -5.27986 1.50072 0
M  V30 2326 H 222.656 -4.42099 -0.00915037 0
M  V30 2327 N 221.715 -0.905404 -1.28997 0
M  V30 2328 C 222.94 -0.549175 -1.99997 0
M  V30 2329 C 223.365 0.860276 -1.67275 0
M  V30 2330 O 222.723 1.57355 -0.900502 0
M  V30 2331 C 222.771 -0.755185 -3.52604 0
M  V30 2332 O 221.875 0.189692 -4.11964 0
M  V30 2333 H 221.216 -0.213899 -0.628604 0
M  V30 2334 H 223.746 -1.21856 -1.64354 0
M  V30 2335 H 223.756 -0.662045 -4.02593 0
M  V30 2336 H 222.431 -1.78271 -3.75755 0
M  V30 2337 H 221.008 0.0485257 -3.72868 0
M  V30 2338 N 223.193 1.4272 -0.668489 0
M  V30 2339 C 224.103 2.34596 0.0139753 0
M  V30 2340 C 225.119 1.5474 0.795703 0
M  V30 2341 O 226.295 1.87334 0.739466 0
M  V30 2342 C 223.36 3.33202 0.957982 0
M  V30 2343 C 222.421 4.28957 0.17149 0
M  V30 2344 C 221.654 5.22853 1.07053 0
M  V30 2345 O 221.877 5.21531 2.31001 0
M  V30 2346 O 220.811 5.9952 0.534727 0
M  V30 2347 H 224.637 2.9448 -0.742661 0
M  V30 2348 H 222.222 1.43117 -0.428705 0
M  V30 2349 H 224.104 3.93796 1.50008 0
M  V30 2350 H 222.779 2.758 1.69458 0
M  V30 2351 H 221.686 3.71796 -0.414558 0
M  V30 2352 H 223.019 4.89383 -0.52586 0
M  V30 2353 N 224.671 0.411399 1.52136 0
M  V30 2354 C 225.896 -0.165538 2.06738 0
M  V30 2355 C 226.321 -1.379 1.27926 0
M  V30 2356 O 225.679 -1.78628 0.310114 0
M  V30 2357 C 225.727 -0.492124 3.57226 0
M  V30 2358 O 224.831 -1.58276 3.80818 0
M  V30 2359 H 224.172 -0.0132132 0.663869 0
M  V30 2360 H 226.702 0.585253 1.96051 0
M  V30 2361 H 226.712 -0.750104 4.01045 0
M  V30 2362 H 225.387 0.394922 4.14021 0
M  V30 2363 H 223.964 -1.31677 3.48877 0
M  V30 2364 N 226.149 -1.5696 0.141893 0
M  V30 2365 C 227.377 -2.00322 -0.517579 0
M  V30 2366 C 227.792 -1.02193 -1.58752 0
M  V30 2367 O 227.149 -0.0181619 -1.82491 0
M  V30 2368 C 227.2 -3.43618 -1.12289 0
M  V30 2369 O 226.921 -4.37995 -0.0956929 0
M  V30 2370 C 228.422 -4.02231 -1.86347 0
M  V30 2371 H 225.642 -0.657243 -0.135177 0
M  V30 2372 H 228.186 -2.03146 0.234973 0
M  V30 2373 H 226.341 -3.41662 -1.82609 0
M  V30 2374 H 226.755 -5.21729 -0.538469 0
M  V30 2375 H 228.229 -5.04509 -2.23997 0
M  V30 2376 H 228.706 -3.42655 -2.74744 0
M  V30 2377 H 229.312 -4.07802 -1.20737 0
M  V30 2378 N 227.627 0.131896 -1.57047 0
M  V30 2379 C 228.557 1.16384 -2.02428 0
M  V30 2380 C 229.538 1.43936 -0.90644 0
M  V30 2381 O 230.723 1.54599 -1.17528 0
M  V30 2382 C 227.853 2.49328 -2.4177 0
M  V30 2383 C 226.807 2.36266 -3.56879 0
M  V30 2384 C 226.133 3.74057 -3.8208 0
M  V30 2385 C 227.433 1.834 -4.89042 0
M  V30 2386 H 229.127 0.786433 -2.88887 0
M  V30 2387 H 226.673 0.376855 -1.38981 0
M  V30 2388 H 228.626 3.21759 -2.7212 0
M  V30 2389 H 227.35 2.88934 -1.52266 0
M  V30 2390 H 226.009 1.66286 -3.26718 0
M  V30 2391 H 225.657 4.11125 -2.89803 0
M  V30 2392 H 225.357 3.66174 -4.59554 0
M  V30 2393 H 226.881 4.48012 -4.1487 0
M  V30 2394 H 228.295 2.45636 -5.18011 0
M  V30 2395 H 226.692 1.8637 -5.70426 0
M  V30 2396 H 227.762 0.790662 -4.7841 0
M  V30 2397 N 229.106 1.52395 0.401703 0
M  V30 2398 C 230.355 1.66044 1.14509 0
M  V30 2399 C 230.668 0.400216 1.91462 0
M  V30 2400 O 231.874 0.416632 2.68284 0
M  V30 2401 C 230.33 2.93388 2.0845 0
M  V30 2402 C 229.938 4.26545 1.36978 0
M  V30 2403 C 231.682 3.16402 2.83001 0
M  V30 2404 C 229.589 5.45007 2.29611 0
M  V30 2405 H 228.519 0.618562 0.431158 0
M  V30 2406 H 231.17 1.78886 0.40892 0
M  V30 2407 H 229.552 2.74263 2.8565 0
M  V30 2408 H 230.726 4.56179 0.650916 0
M  V30 2409 H 229.041 4.09692 0.74438 0
M  V30 2410 H 231.638 4.02085 3.52465 0
M  V30 2411 H 231.981 2.30943 3.46368 0
M  V30 2412 H 232.514 3.36034 2.12898 0
M  V30 2413 H 229.253 6.32835 1.70879 0
M  V30 2414 H 228.773 5.19702 2.9945 0
M  V30 2415 H 230.452 5.7838 2.89974 0
M  V30 2416 N 230.584 -0.659388 1.43143 0
M  V30 2417 C 231.547 -1.75432 1.47501 0
M  V30 2418 C 232.547 -1.56707 0.360512 0
M  V30 2419 O 233.737 -1.62717 0.622002 0
M  V30 2420 C 230.869 -3.14239 1.32162 0
M  V30 2421 H 232.062 -1.7295 2.45006 0
M  V30 2422 H 229.615 -0.870469 1.29817 0
M  V30 2423 H 230.35 -3.22336 0.356401 0
M  V30 2424 H 230.135 -3.29235 2.12948 0
M  V30 2425 H 231.625 -3.94094 1.3813 0
M  V30 2426 N 232.062 -1.29571 -0.897171 0
M  V30 2427 C 232.992 -1.17473 -2.01798 0
M  V30 2428 C 233.973 -0.068323 -1.69963 0
M  V30 2429 O 235.158 -0.248239 -1.92607 0
M  V30 2430 C 232.288 -0.853099 -3.36659 0
M  V30 2431 C 231.242 -1.9161 -3.82713 0
M  V30 2432 C 230.568 -1.44773 -5.14728 0
M  V30 2433 C 231.868 -3.32535 -4.02763 0
M  V30 2434 H 233.562 -2.11237 -2.12177 0
M  V30 2435 H 231.108 -1.01699 -1.01948 0
M  V30 2436 H 233.061 -0.755165 -4.14578 0
M  V30 2437 H 231.785 0.120236 -3.26379 0
M  V30 2438 H 230.444 -2.00346 -3.07013 0
M  V30 2439 H 230.092 -0.462995 -5.00865 0
M  V30 2440 H 229.792 -2.15865 -5.46513 0
M  V30 2441 H 231.316 -1.36334 -5.95185 0
M  V30 2442 H 232.73 -3.26626 -4.71156 0
M  V30 2443 H 231.127 -4.01607 -4.45905 0
M  V30 2444 H 232.197 -3.75326 -3.07016 0
M  V30 2445 N 233.54 1.10788 -1.12088 0
M  V30 2446 C 234.47 2.19083 -0.807755 0
M  V30 2447 C 235.451 1.6858 0.226859 0
M  V30 2448 O 236.636 1.93997 0.0888475 0
M  V30 2449 C 233.766 3.46344 -0.257576 0
M  V30 2450 C 232.72 4.101 -1.22483 0
M  V30 2451 C 232.046 5.32016 -0.535052 0
M  V30 2452 C 233.346 4.54236 -2.57811 0
M  V30 2453 H 235.04 2.45534 -1.71328 0
M  V30 2454 H 232.586 1.1801 -0.825205 0
M  V30 2455 H 234.539 4.21392 -0.0262679 0
M  V30 2456 H 233.263 3.19373 0.683278 0
M  V30 2457 H 231.922 3.37054 -1.44189 0
M  V30 2458 H 231.57 5.01319 0.410827 0
M  V30 2459 H 231.27 5.75625 -1.18024 0
M  V30 2460 H 232.794 6.09799 -0.312695 0
M  V30 2461 H 234.208 5.20575 -2.40155 0
M  V30 2462 H 232.605 5.08682 -3.18375 0
M  V30 2463 H 233.675 3.6734 -3.16528 0
M  V30 2464 N 235.018 0.912232 1.28515 0
M  V30 2465 C 235.981 0.404223 2.25607 0
M  V30 2466 C 236.981 -0.468602 1.53821 0
M  V30 2467 O 238.171 -0.271873 1.72065 0
M  V30 2468 C 235.303 -0.420653 3.38295 0
M  V30 2469 H 236.496 1.26188 2.7206 0
M  V30 2470 H 234.049 0.691495 1.40171 0
M  V30 2471 H 234.784 -1.29777 2.97201 0
M  V30 2472 H 234.569 0.204935 3.91564 0
M  V30 2473 H 236.059 -0.766971 4.10496 0
M  V30 2474 N 236.496 -1.42363 0.676048 0
M  V30 2475 C 237.459 -2.29199 0.00766941 0
M  V30 2476 C 238.459 -1.43389 -0.727745 0
M  V30 2477 O 239.649 -1.64764 -0.56556 0
M  V30 2478 C 236.781 -3.2591 -0.999785 0
M  V30 2479 H 237.974 -2.89794 0.771988 0
M  V30 2480 H 235.527 -1.50024 0.438468 0
M  V30 2481 H 236.262 -2.70256 -1.79255 0
M  V30 2482 H 236.047 -3.89202 -0.475829 0
M  V30 2483 H 237.537 -3.91028 -1.46583 0
M  V30 2484 N 237.974 -0.419461 -1.51915 0
M  V30 2485 C 239.39 -0.0708431 -1.59443 0
M  V30 2486 C 239.59 1.41796 -1.43164 0
M  V30 2487 O 238.646 2.18596 -1.26381 0
M  V30 2488 C 239.959 -0.574991 -2.95151 0
M  V30 2489 C 241.507 -0.533867 -3.08413 0
M  V30 2490 C 241.982 -1.01469 -4.46618 0
M  V30 2491 N 243.473 -0.971939 -4.52888 0
M  V30 2492 C 244.208 -1.31505 -5.58116 0
M  V30 2493 N 243.704 -1.73014 -6.70849 0
M  V30 2494 N 245.497 -1.23436 -5.48379 0
M  V30 2495 H 237.648 -1.38836 -1.60743 0
M  V30 2496 H 239.911 -0.570998 -0.756747 0
M  V30 2497 H 239.617 -1.61597 -3.12377 0
M  V30 2498 H 239.491 0.00979777 -3.77199 0
M  V30 2499 H 241.878 0.498086 -2.90866 0
M  V30 2500 H 241.959 -1.15484 -2.28248 0
M  V30 2501 H 241.603 -2.04502 -4.6491 0
M  V30 2502 H 241.533 -0.370433 -5.25295 0
M  V30 2503 H 244.024 -0.666893 -3.71969 0
M  V30 2504 H 244.337 -1.97479 -7.47143 0
M  V30 2505 H 242.682 -1.76926 -6.72103 0
M  V30 2506 H 245.873 -0.908869 -4.59192 0
M  V30 2507 H 246.046 -1.50506 -6.30279 0
M  V30 2508 N 239.452 1.56882 -0.150215 0
M  V30 2509 C 240.399 2.16922 0.788244 0
M  V30 2510 C 241.369 1.10303 1.24187 0
M  V30 2511 O 242.554 1.38359 1.31383 0
M  V30 2512 C 239.694 2.79754 2.02068 0
M  V30 2513 C 238.807 4.00775 1.61257 0
M  V30 2514 C 237.942 4.51595 2.79705 0
M  V30 2515 C 236.981 5.65074 2.35282 0
M  V30 2516 N 236.118 6.10499 3.4675 0
M  V30 2517 H 240.958 2.96779 0.269444 0
M  V30 2518 H 238.495 1.46599 0.12128 0
M  V30 2519 H 240.453 3.14329 2.74323 0
M  V30 2520 H 239.083 2.02536 2.51354 0
M  V30 2521 H 238.135 3.72158 0.787553 0
M  V30 2522 H 239.447 4.82978 1.24633 0
M  V30 2523 H 238.601 4.88242 3.60145 0
M  V30 2524 H 237.34 3.68406 3.19576 0
M  V30 2525 H 236.345 5.28 1.53283 0
M  V30 2526 H 237.57 6.50052 1.96493 0
M  V30 2527 H 235.516 5.30243 3.86236 0
M  V30 2528 H 235.433 6.87637 3.14152 0
M  V30 2529 H 236.701 6.51791 4.27537 0
M  V30 2530 N 240.93 -0.123565 1.57115 0
M  V30 2531 C 241.878 -1.17082 2.00984 0
M  V30 2532 C 242.872 -1.43136 0.906009 0
M  V30 2533 O 244.078 -1.43152 1.09121 0
M  V30 2534 H 240.453 -0.394653 0.64012 0
M  V30 2535 H 242.424 -0.774292 2.88179 0
M  V30 2536 C 241.173 -2.49057 2.42623 0
M  V30 2537 H 240.496 -2.29846 3.27125 0
M  V30 2538 H 241.936 -3.20906 2.7712 0
M  V30 2539 C 240.395 -3.11305 1.28805 0
M  V30 2540 O 240.925 -3.97171 0.60153 0
M  V30 2541 N 239.131 -2.71111 1.04628 0
M  V30 2542 H 238.678 -2.01382 1.60634 0
M  V30 2543 H 238.636 -3.1309 0.286685 0
M  V30 2544 N 242.408 -1.52605 -0.393616 0
M  V30 2545 C 243.355 -1.77055 -1.48054 0
M  V30 2546 C 244.325 -0.61358 -1.54352 0
M  V30 2547 O 245.51 -0.852806 -1.70681 0
M  V30 2548 C 242.65 -1.94108 -2.85335 0
M  V30 2549 C 241.763 -3.21792 -2.88226 0
M  V30 2550 C 240.898 -3.29188 -4.16904 0
M  V30 2551 C 239.937 -4.51013 -4.13828 0
M  V30 2552 N 239.074 -4.55716 -5.34105 0
M  V30 2553 H 243.914 -2.69815 -1.26506 0
M  V30 2554 H 241.451 -1.33683 -0.61379 0
M  V30 2555 H 243.409 -2.01979 -3.65049 0
M  V30 2556 H 242.039 -1.04713 -3.05344 0
M  V30 2557 H 241.091 -3.23015 -2.00911 0
M  V30 2558 H 242.403 -4.11557 -2.8182 0
M  V30 2559 H 241.557 -3.36216 -5.05018 0
M  V30 2560 H 240.296 -2.37389 -4.26026 0
M  V30 2561 H 239.301 -4.44115 -3.24102 0
M  V30 2562 H 240.526 -5.44123 -4.06333 0
M  V30 2563 H 238.472 -3.66807 -5.43865 0
M  V30 2564 H 238.389 -5.39346 -5.29756 0
M  V30 2565 H 239.657 -4.66993 -6.2413 0
M  V30 2566 N 243.887 0.651787 -1.4349 0
M  V30 2567 C 245.136 1.40754 -1.44469 0
M  V30 2568 C 245.449 1.95463 -0.0731845 0
M  V30 2569 O 246.655 2.71471 0.0395721 0
M  V30 2570 C 245.111 2.54735 -2.5424 0
M  V30 2571 C 244.719 2.06628 -3.97504 0
M  V30 2572 C 246.463 3.32092 -2.64414 0
M  V30 2573 C 244.37 3.17829 -4.98737 0
M  V30 2574 H 243.3 0.528862 -0.53742 0
M  V30 2575 H 245.951 0.703365 -1.69485 0
M  V30 2576 H 244.333 3.2763 -2.22428 0
M  V30 2577 H 245.507 1.40734 -4.38783 0
M  V30 2578 H 243.822 1.42146 -3.91387 0
M  V30 2579 H 246.419 4.14952 -3.37223 0
M  V30 2580 H 246.762 3.80217 -1.69532 0
M  V30 2581 H 247.295 2.66279 -2.95534 0
M  V30 2582 H 244.034 2.74671 -5.95177 0
M  V30 2583 H 243.554 3.82429 -4.62069 0
M  V30 2584 H 245.233 3.82937 -5.21505 0
M  V30 2585 N 245.365 1.30045 0.890287 0
M  V30 2586 C 246.295 1.18541 2.01172 0
M  V30 2587 C 247.276 0.0773356 1.69924 0
M  V30 2588 O 248.461 0.25845 1.92473 0
M  V30 2589 C 245.591 0.870941 3.36202 0
M  V30 2590 C 244.545 1.93637 3.81692 0
M  V30 2591 C 243.871 1.475 5.13953 0
M  V30 2592 C 245.171 3.34666 4.00994 0
M  V30 2593 H 246.865 2.12359 2.11054 0
M  V30 2594 H 244.411 1.02238 1.01407 0
M  V30 2595 H 246.364 0.777141 4.14172 0
M  V30 2596 H 245.088 -0.102926 3.26438 0
M  V30 2597 H 243.747 2.01972 3.05946 0
M  V30 2598 H 243.395 0.489551 5.00612 0
M  V30 2599 H 243.095 2.1876 5.4536 0
M  V30 2600 H 244.619 1.39489 5.94454 0
M  V30 2601 H 246.033 3.2912 4.69417 0
M  V30 2602 H 244.43 4.03966 4.43769 0
M  V30 2603 H 245.5 3.76949 3.05021 0
M  V30 2604 N 246.843 -1.10192 1.12674 0
M  V30 2605 C 247.753 -2.20172 0.810026 0
M  V30 2606 C 248.769 -1.72821 -0.202188 0
M  V30 2607 O 249.945 -2.01369 -0.0351691 0
M  V30 2608 C 247.01 -3.45631 0.272007 0
M  V30 2609 C 246.071 -4.07704 1.34447 0
M  V30 2610 C 245.304 -5.27175 0.832029 0
M  V30 2611 O 245.527 -5.69425 -0.333284 0
M  V30 2612 O 244.461 -5.80168 1.60277 0
M  V30 2613 H 248.287 -2.49701 1.72867 0
M  V30 2614 H 245.872 -1.18977 0.903597 0
M  V30 2615 H 247.754 -4.21394 -0.0230219 0
M  V30 2616 H 246.429 -3.17723 -0.619164 0
M  V30 2617 H 245.336 -3.33614 1.6927 0
M  V30 2618 H 246.669 -4.3982 2.2095 0
M  V30 2619 N 248.321 -0.919034 -1.28029 0
M  V30 2620 C 249.254 -0.355887 -2.25408 0
M  V30 2621 C 250.232 0.542874 -1.5327 0
M  V30 2622 O 251.416 0.485338 -1.82145 0
M  V30 2623 C 248.543 0.490759 -3.35126 0
M  V30 2624 C 247.589 -0.343358 -4.25116 0
M  V30 2625 S 248.422 -1.75344 -5.05979 0
M  V30 2626 C 249.578 -0.914244 -6.19187 0
M  V30 2627 H 249.811 -1.18123 -2.72826 0
M  V30 2628 H 247.344 -0.720636 -1.36551 0
M  V30 2629 H 249.302 0.973404 -3.98792 0
M  V30 2630 H 247.963 1.29054 -2.86363 0
M  V30 2631 H 247.156 0.304266 -5.03081 0
M  V30 2632 H 246.758 -0.759851 -3.662 0
M  V30 2633 H 249.05 -0.146282 -6.77342 0
M  V30 2634 H 249.993 -1.66661 -6.88208 0
M  V30 2635 H 250.401 -0.460082 -5.62622 0
M  V30 2636 N 249.799 1.42003 -0.683588 0
M  V30 2637 C 250.746 2.30798 -0.0107309 0
M  V30 2638 C 251.716 1.4645 0.783688 0
M  V30 2639 O 252.901 1.75263 0.754156 0
M  V30 2640 C 250.041 3.3238 0.928306 0
M  V30 2641 C 249.154 4.31814 0.126776 0
M  V30 2642 C 248.289 5.20468 1.06236 0
M  V30 2643 C 247.328 6.11577 0.253035 0
M  V30 2644 N 246.465 6.92754 1.14179 0
M  V30 2645 H 251.305 2.8778 -0.773727 0
M  V30 2646 H 248.842 1.41745 -0.393283 0
M  V30 2647 H 250.8 3.89813 1.48666 0
M  V30 2648 H 249.43 2.76976 1.65783 0
M  V30 2649 H 248.482 3.76427 -0.54833 0
M  V30 2650 H 249.794 4.96276 -0.501192 0
M  V30 2651 H 248.948 5.82677 1.69035 0
M  V30 2652 H 247.687 4.56204 1.7242 0
M  V30 2653 H 246.692 5.48428 -0.388108 0
M  V30 2654 H 247.917 6.77892 -0.404839 0
M  V30 2655 H 245.863 6.3111 1.78987 0
M  V30 2656 H 245.78 7.53855 0.569111 0
M  V30 2657 H 247.048 7.59441 1.75697 0
M  V30 2658 N 251.277 0.427512 1.51691 0
M  V30 2659 C 252.505 -0.141191 2.06418 0
M  V30 2660 C 252.92 -1.37303 1.29589 0
M  V30 2661 O 252.277 -1.79059 0.352732 0
M  V30 2662 C 252.328 -0.473266 3.58389 0
M  V30 2663 O 252.049 0.709673 4.32314 0
M  V30 2664 C 253.55 -1.09371 4.29596 0
M  V30 2665 H 250.77 -0.0122747 0.670888 0
M  V30 2666 H 253.314 0.603764 1.95384 0
M  V30 2667 H 251.469 -1.16812 3.69369 0
M  V30 2668 H 251.883 0.42807 5.2275 0
M  V30 2669 H 253.357 -1.27613 5.37046 0
M  V30 2670 H 253.834 -2.072 3.87253 0
M  V30 2671 H 254.44 -0.43853 4.23033 0
M  V30 2672 N 252.755 -1.56801 0.158532 0
M  V30 2673 C 253.98 -2.01295 -0.499516 0
M  V30 2674 C 254.405 -1.03799 -1.56867 0
M  V30 2675 O 253.763 -0.0155162 -1.81293 0
M  V30 2676 C 253.811 -3.44469 -1.06647 0
M  V30 2677 O 252.915 -3.50012 -2.18095 0
M  V30 2678 H 252.256 -0.652884 -0.12099 0
M  V30 2679 H 254.786 -2.02958 0.258661 0
M  V30 2680 H 254.796 -3.8351 -1.39227 0
M  V30 2681 H 253.471 -4.14932 -0.283581 0
M  V30 2682 H 252.048 -3.22822 -1.86656 0
M  V30 2683 N 254.233 0.115231 -1.57178 0
M  V30 2684 C 255.143 1.15994 -2.03918 0
M  V30 2685 C 256.159 1.45103 -0.960268 0
M  V30 2686 O 257.335 1.56144 -1.27204 0
M  V30 2687 C 254.4 2.46568 -2.43732 0
M  V30 2688 C 253.461 2.24822 -3.65723 0
M  V30 2689 C 252.694 3.4917 -4.03629 0
M  V30 2690 O 252.917 4.56623 -3.41835 0
M  V30 2691 O 251.851 3.39949 -4.96708 0
M  V30 2692 H 255.677 0.793019 -2.93164 0
M  V30 2693 H 253.262 0.3263 -1.45793 0
M  V30 2694 H 255.144 3.23492 -2.70057 0
M  V30 2695 H 253.819 2.82726 -1.57631 0
M  V30 2696 H 252.726 1.45744 -3.44542 0
M  V30 2697 H 254.059 1.93566 -4.52541 0
M  V30 2698 N 255.711 1.52812 0.385517 0
M  V30 2699 C 257.122 1.5993 0.963293 0
M  V30 2700 C 257.473 0.454302 1.90868 0
M  V30 2701 O 256.598 -0.422132 2.12243 0
M  V30 2702 C 257.193 2.89871 1.75387 0
M  V30 2703 C 255.752 2.99389 2.28129 0
M  V30 2704 C 254.899 2.55071 1.08783 0
M  V30 2705 H 257.85 1.5784 0.164948 0
M  V30 2706 H 257.871 2.76553 2.61341 0
M  V30 2707 H 257.383 3.73186 1.06554 0
M  V30 2708 H 255.484 2.20619 3.00263 0
M  V30 2709 H 255.597 4.04096 2.57377 0
M  V30 2710 H 253.961 2.09473 1.4489 0
M  V30 2711 H 254.744 3.40785 0.414807 0
M  V30 2712 N 257.189 -0.644168 1.43834 0
M  V30 2713 C 258.466 -1.40188 1.36406 0
M  V30 2714 C 258.846 -2.11094 0.0163124 0
M  V30 2715 O 258.194 -2.05426 -1.00062 0
M  V30 2716 C 258.404 -2.3791 2.55343 0
M  V30 2717 C 259.752 -3.01637 2.98832 0
M  V30 2718 O 260.776 -2.48237 2.55455 0
M  V30 2719 O 259.635 -3.98477 3.74003 0
M  V30 2720 H 256.729 -0.626773 0.539523 0
M  V30 2721 H 259.275 -0.670317 1.559 0
M  V30 2722 H 258.047 -1.84525 3.4506 0
M  V30 2723 H 257.67 -3.18503 2.37995 0
M  V30 2724 N 258.668 -1.30515 -0.883378 0
M  V30 2725 C 259.631 -1.1701 -1.97082 0
M  V30 2726 C 260.631 -0.10089 -1.60483 0
M  V30 2727 O 261.821 -0.349127 -1.70666 0
M  V30 2728 C 258.953 -0.793045 -3.31547 0
M  V30 2729 H 260.146 -2.13622 -2.10489 0
M  V30 2730 H 257.699 -1.13935 -1.06998 0
M  V30 2731 H 258.434 0.172499 -3.23841 0
M  V30 2732 H 258.219 -1.56576 -3.5948 0
M  V30 2733 H 259.709 -0.722073 -4.1131 0
M  V30 2734 N 260.146 1.09593 -1.13257 0
M  V30 2735 C 261.423 1.78293 -0.804432 0
M  V30 2736 C 261.803 1.99004 0.70431 0
M  V30 2737 O 261.151 1.59007 1.641 0
M  V30 2738 C 261.361 3.10707 -1.5894 0
M  V30 2739 C 262.709 3.85443 -1.78099 0
M  V30 2740 O 263.733 3.20454 -1.55525 0
M  V30 2741 O 262.592 5.02108 -2.15753 0
M  V30 2742 H 259.686 0.773156 -0.293528 0
M  V30 2743 H 262.232 1.16164 -1.23709 0
M  V30 2744 H 261.004 2.91106 -2.61482 0
M  V30 2745 H 260.627 3.80558 -1.15157 0
M  V30 2746 N 261.624 0.925811 1.2754 0
M  V30 2747 C 262.534 0.428993 2.30644 0
M  V30 2748 C 263.55 -0.489387 1.66976 0
M  V30 2749 O 264.726 -0.372653 1.97922 0
M  V30 2750 C 261.791 -0.311967 3.45294 0
M  V30 2751 C 260.852 0.641098 4.24486 0
M  V30 2752 C 260.085 -0.0645955 5.33661 0
M  V30 2753 O 260.308 -1.28429 5.55754 0
M  V30 2754 O 259.242 0.606265 5.98839 0
M  V30 2755 H 263.068 1.28504 2.75173 0
M  V30 2756 H 260.653 0.691086 1.32455 0
M  V30 2757 H 262.535 -0.729972 4.15029 0
M  V30 2758 H 261.21 -1.14365 3.02824 0
M  V30 2759 H 260.117 1.10874 3.57292 0
M  V30 2760 H 261.45 1.43995 4.70666 0
M  V30 2761 N 263.102 -1.41638 0.69111 0
M  V30 2762 C 264.327 -2.06148 0.227583 0
M  V30 2763 C 264.752 -1.51652 -1.11281 0
M  V30 2764 O 264.11 -0.64164 -1.69566 0
M  V30 2765 C 264.158 -3.60095 0.190858 0
M  V30 2766 O 263.262 -4.03845 -0.835664 0
M  V30 2767 H 262.603 -0.654434 0.112306 0
M  V30 2768 H 265.133 -1.81484 0.944714 0
M  V30 2769 H 265.143 -4.07995 0.020207 0
M  V30 2770 H 263.818 -3.99129 1.16915 0
M  V30 2771 H 262.395 -3.67458 -0.63473 0
M  V30 2772 N 264.58 -0.43555 -1.51462 0
M  V30 2773 C 265.82 0.130708 -2.03982 0
M  V30 2774 C 266.184 1.40117 -1.31268 0
M  V30 2775 O 267.385 2.04755 -1.74152 0
M  V30 2776 C 265.656 0.346102 -3.5572 0
M  V30 2777 S 267.215 0.876022 -4.29967 0
M  V30 2778 H 264.033 0.0326881 -0.710248 0
M  V30 2779 H 266.635 -0.594544 -1.8624 0
M  V30 2780 H 265.339 -0.584911 -4.0621 0
M  V30 2781 H 264.87 1.09849 -3.77752 0
M  V30 2782 H 266.885 2.15379 -4.47019 0
M  V30 2783 N 266.058 1.56714 -0.166846 0
M  V30 2784 C 266.988 2.20754 0.760913 0
M  V30 2785 C 267.969 1.16178 1.24244 0
M  V30 2786 O 269.154 1.44592 1.29641 0
M  V30 2787 C 266.284 2.84478 1.99223 0
M  V30 2788 C 265.238 3.95053 1.64672 0
M  V30 2789 C 264.564 4.45805 2.95232 0
M  V30 2790 C 265.864 5.14865 0.878155 0
M  V30 2791 H 267.558 2.98537 0.22713 0
M  V30 2792 H 265.104 1.43596 0.107805 0
M  V30 2793 H 267.057 3.27951 2.64624 0
M  V30 2794 H 265.781 2.04056 2.55007 0
M  V30 2795 H 264.44 3.52228 1.01641 0
M  V30 2796 H 264.088 3.62181 3.49047 0
M  V30 2797 H 263.788 5.204 2.7287 0
M  V30 2798 H 265.312 4.91962 3.6167 0
M  V30 2799 H 266.726 5.55059 1.43466 0
M  V30 2800 H 265.123 5.95348 0.753738 0
M  V30 2801 H 266.193 4.84735 -0.126377 0
M  V30 2802 N 267.536 -0.106894 1.57237 0
M  V30 2803 C 268.484 -1.14944 2.02215 0
M  V30 2804 C 269.478 -1.42167 0.92114 0
M  V30 2805 O 270.684 -1.41987 1.10634 0
M  V30 2806 H 267.059 -0.387841 0.64427 0
M  V30 2807 H 269.03 -0.743683 2.88984 0
M  V30 2808 C 267.779 -2.4647 2.4525 0
M  V30 2809 H 267.102 -2.26363 3.29545 0
M  V30 2810 H 268.542 -3.17948 2.80508 0
M  V30 2811 C 267.001 -3.09921 1.321 0
M  V30 2812 O 267.531 -3.9651 0.643622 0
M  V30 2813 N 265.737 -2.69986 1.07497 0
M  V30 2814 H 265.284 -1.99667 1.62761 0
M  V30 2815 H 265.242 -3.12769 0.319876 0
M  V30 2816 N 269.014 -1.53014 -0.377408 0
M  V30 2817 C 269.977 -1.77957 -1.44444 0
M  V30 2818 C 270.977 -0.649763 -1.47087 0
M  V30 2819 O 272.167 -0.917897 -1.48055 0
M  V30 2820 C 269.299 -1.89089 -2.83651 0
M  V30 2821 H 270.492 -2.73243 -1.23606 0
M  V30 2822 H 268.045 -1.43912 -0.609844 0
M  V30 2823 H 268.78 -0.958293 -3.09818 0
M  V30 2824 H 268.565 -2.71254 -2.83132 0
M  V30 2825 H 270.055 -2.1002 -3.60945 0
M  V30 2826 N 270.492 0.636531 -1.44174 0
M  V30 2827 C 271.908 0.954104 -1.27941 0
M  V30 2828 C 272.108 2.0039 -0.211248 0
M  V30 2829 O 271.164 2.49236 0.404695 0
M  V30 2830 C 272.477 1.4225 -2.64925 0
M  V30 2831 C 274.025 1.53827 -2.72592 0
M  V30 2832 C 274.5 2.04053 -4.10032 0
M  V30 2833 N 275.991 2.11331 -4.12182 0
M  V30 2834 C 276.726 2.51352 -5.15374 0
M  V30 2835 N 276.222 2.90549 -6.2893 0
M  V30 2836 N 278.015 2.51438 -5.02728 0
M  V30 2837 H 270.166 -0.0578386 -2.12321 0
M  V30 2838 H 272.429 0.0367406 -0.947288 0
M  V30 2839 H 272.135 0.725466 -3.44136 0
M  V30 2840 H 272.009 2.39451 -2.9145 0
M  V30 2841 H 274.396 2.22628 -1.93702 0
M  V30 2842 H 274.477 0.550154 -2.49814 0
M  V30 2843 H 274.121 1.35848 -4.89395 0
M  V30 2844 H 274.051 3.03726 -4.30184 0
M  V30 2845 H 276.542 1.83745 -3.30222 0
M  V30 2846 H 276.855 3.19884 -7.03487 0
M  V30 2847 H 275.2 2.88313 -6.32377 0
M  V30 2848 H 278.391 2.20203 -4.13072 0
M  V30 2849 H 278.564 2.82304 -5.83274 0
M  V30 2850 N 271.97 1.30982 0.876444 0
M  V30 2851 C 272.9 1.20668 1.99903 0
M  V30 2852 C 273.881 0.095354 1.69833 0
M  V30 2853 O 275.066 0.27885 1.92188 0
M  V30 2854 C 272.196 0.90655 3.3526 0
M  V30 2855 C 271.15 1.97675 3.79617 0
M  V30 2856 C 270.476 1.52943 5.1236 0
M  V30 2857 C 271.776 3.389 3.97422 0
M  V30 2858 H 273.47 2.14586 2.0879 0
M  V30 2859 H 271.016 1.03308 1.00317 0
M  V30 2860 H 272.969 0.821025 4.13324 0
M  V30 2861 H 271.693 -0.0682969 3.26529 0
M  V30 2862 H 270.352 2.05205 3.03787 0
M  V30 2863 H 270 0.54262 5.00065 0
M  V30 2864 H 269.7 2.24532 5.43009 0
M  V30 2865 H 271.224 1.45786 5.92941 0
M  V30 2866 H 272.638 3.34081 4.659 0
M  V30 2867 H 271.035 4.0865 4.3946 0
M  V30 2868 H 272.105 3.80163 3.01006 0
M  V30 2869 N 273.449 -1.08991 1.13837 0
M  V30 2870 C 274.695 -1.81526 0.90422 0
M  V30 2871 C 275.028 -1.85706 -0.568066 0
M  V30 2872 O 274.303 -1.32855 -1.42056 0
M  V30 2873 C 274.586 -3.27447 1.49835 0
M  V30 2874 C 274.439 -3.31512 3.04006 0
M  V30 2875 C 275.758 -4.24256 1.17025 0
M  V30 2876 H 272.877 -0.659029 0.329923 0
M  V30 2877 H 275.519 -1.27644 1.40737 0
M  V30 2878 H 273.669 -3.73462 1.07044 0
M  V30 2879 H 275.341 -2.93867 3.55584 0
M  V30 2880 H 273.584 -2.70963 3.38765 0
M  V30 2881 H 274.255 -4.34329 3.40679 0
M  V30 2882 H 276.731 -3.86549 1.54009 0
M  V30 2883 H 275.607 -5.24684 1.61237 0
M  V30 2884 H 275.868 -4.42019 0.0846274 0
M  V30 2885 N 274.927 -0.932562 -1.27047 0
M  V30 2886 C 275.89 -0.440064 -2.24936 0
M  V30 2887 C 276.89 0.444071 -1.54547 0
M  V30 2888 O 278.08 0.244465 -1.72476 0
M  V30 2889 C 275.212 0.36678 -3.38921 0
M  V30 2890 H 276.405 -1.305 -2.70018 0
M  V30 2891 H 273.958 -0.713707 -1.39054 0
M  V30 2892 H 274.693 1.25033 -2.99228 0
M  V30 2893 H 274.478 -0.267204 -3.91188 0
M  V30 2894 H 275.968 0.701567 -4.11665 0
M  V30 2895 N 276.405 1.4127 -0.698611 0
M  V30 2896 C 277.635 2.05205 -0.239644 0
M  V30 2897 C 278.043 1.52684 1.11733 0
M  V30 2898 O 277.386 0.671222 1.70998 0
M  V30 2899 C 277.448 3.59289 -0.123126 0
M  V30 2900 C 277.112 4.34619 -1.41263 0
M  V30 2901 C 278.109 4.63701 -2.35111 0
M  V30 2902 C 275.794 4.73837 -1.66684 0
M  V30 2903 C 277.788 5.30966 -3.52639 0
M  V30 2904 C 275.475 5.40837 -2.84498 0
M  V30 2905 C 276.473 5.69329 -3.77298 0
M  V30 2906 O 276.161 6.34949 -4.93047 0
M  V30 2907 H 275.893 0.66723 -0.108537 0
M  V30 2908 H 278.447 1.81974 -0.952602 0
M  V30 2909 H 276.677 3.81272 0.645628 0
M  V30 2910 H 278.366 4.04797 0.299056 0
M  V30 2911 H 279.132 4.33882 -2.16729 0
M  V30 2912 H 275.011 4.51039 -0.953135 0
M  V30 2913 H 278.555 5.53121 -4.25091 0
M  V30 2914 H 274.452 5.70075 -3.02795 0
M  V30 2915 H 275.22 6.53445 -4.92902 0
M  V30 2916 N 277.883 0.443576 1.51229 0
M  V30 2917 C 278.846 -0.353132 2.26463 0
M  V30 2918 C 279.846 -0.944338 1.3015 0
M  V30 2919 O 281.036 -0.817813 1.5381 0
M  V30 2920 C 278.168 -1.50023 3.06114 0
M  V30 2921 H 279.361 0.3063 2.98332 0
M  V30 2922 H 276.914 0.196902 1.55055 0
M  V30 2923 H 277.649 -2.19553 2.38677 0
M  V30 2924 H 277.434 -1.08241 3.76864 0
M  V30 2925 H 278.924 -2.06296 3.63087 0
M  V30 2926 N 279.361 -1.56624 0.175154 0
M  V30 2927 C 280.586 -2.01813 -0.478137 0
M  V30 2928 C 281.011 -1.05457 -1.55757 0
M  V30 2929 O 280.369 -0.0347439 -1.81267 0
M  V30 2930 C 280.417 -3.45581 -1.02987 0
M  V30 2931 O 279.521 -3.52305 -2.14371 0
M  V30 2932 H 278.862 -0.65413 -0.114059 0
M  V30 2933 H 281.392 -2.02673 0.280173 0
M  V30 2934 H 281.402 -3.84965 -1.35151 0
M  V30 2935 H 280.077 -4.1521 -0.239556 0
M  V30 2936 H 278.654 -3.24783 -1.83222 0
M  V30 2937 N 280.839 0.0985539 -1.57292 0
M  V30 2938 C 282.116 0.834155 -1.76921 0
M  V30 2939 C 282.496 1.97101 -0.755928 0
M  V30 2940 O 281.844 2.27474 0.216245 0
M  V30 2941 C 282.054 1.33194 -3.22584 0
M  V30 2942 C 283.402 1.77611 -3.85668 0
M  V30 2943 O 284.426 1.42825 -3.26312 0
M  V30 2944 O 283.285 2.4192 -4.90038 0
M  V30 2945 H 280.379 0.397628 -0.725135 0
M  V30 2946 H 282.925 0.0807044 -1.69508 0
M  V30 2947 H 281.697 0.517248 -3.87866 0
M  V30 2948 H 281.32 2.1475 -3.34616 0
M  V30 2949 N 282.317 1.53212 0.369288 0
M  V30 2950 C 283.249 1.75668 1.47219 0
M  V30 2951 C 284.262 0.637387 1.49804 0
M  V30 2952 O 285.451 0.913561 1.5335 0
M  V30 2953 C 282.551 1.81818 2.85999 0
M  V30 2954 C 281.724 3.11409 3.07153 0
M  V30 2955 C 280.783 3.08849 4.26026 0
M  V30 2956 O 279.809 3.82659 4.2138 0
M  V30 2957 N 281.011 2.29409 5.33246 0
M  V30 2958 H 283.776 2.70832 1.28337 0
M  V30 2959 H 281.337 1.51944 0.55898 0
M  V30 2960 H 283.329 1.77588 3.63655 0
M  V30 2961 H 281.899 0.939544 2.98146 0
M  V30 2962 H 281.119 3.28971 2.1719 0
M  V30 2963 H 282.407 3.97059 3.18154 0
M  V30 2964 H 281.805 1.68946 5.39883 0
M  V30 2965 H 280.362 2.31001 6.09493 0
M  V30 2966 N 283.795 -0.628877 1.44509 0
M  V30 2967 C 284.758 -1.72263 1.51188 0
M  V30 2968 C 285.758 -1.55907 0.39367 0
M  V30 2969 O 286.948 -1.61361 0.656377 0
M  V30 2970 C 284.08 -3.11365 1.38798 0
M  V30 2971 H 285.273 -1.67714 2.4862 0
M  V30 2972 H 282.826 -0.842737 1.31634 0
M  V30 2973 H 283.561 -3.21507 0.424693 0
M  V30 2974 H 283.346 -3.24644 2.19884 0
M  V30 2975 H 284.836 -3.91075 1.46458 0
M  V30 2976 N 285.273 -1.31445 -0.869486 0
M  V30 2977 C 286.223 -1.15731 -1.96444 0
M  V30 2978 C 287.207 -0.0681855 -1.60755 0
M  V30 2979 O 288.399 -0.293154 -1.74555 0
M  V30 2980 C 285.528 -0.867255 -3.32165 0
M  V30 2981 C 284.614 -1.99738 -3.74119 0
M  V30 2982 N 285.005 -3.24447 -3.88031 0
M  V30 2983 C 283.303 -1.89723 -4.03635 0
M  V30 2984 C 284.004 -3.98374 -4.23879 0
M  V30 2985 N 282.98 -3.26547 -4.3459 0
M  V30 2986 H 286.782 -2.10296 -2.05312 0
M  V30 2987 H 284.296 -1.23009 -1.06031 0
M  V30 2988 H 286.293 -0.735668 -4.10358 0
M  V30 2989 H 284.953 0.0701614 -3.24624 0
M  V30 2990 H 285.964 -3.59557 -3.72746 0
M  V30 2991 H 282.641 -1.03449 -4.04481 0
M  V30 2992 H 284.031 -5.05844 -4.42235 0
M  V30 2993 N 286.751 1.08385 -1.14413 0
M  V30 2994 C 287.976 1.85057 -0.936413 0
M  V30 2995 C 288.401 1.81055 0.509971 0
M  V30 2996 O 287.759 1.1958 1.36273 0
M  V30 2997 C 287.807 3.30505 -1.44217 0
M  V30 2998 O 286.911 4.07491 -0.634409 0
M  V30 2999 H 286.252 0.573425 -0.334784 0
M  V30 3000 H 288.782 1.36799 -1.52142 0
M  V30 3001 H 288.792 3.81348 -1.45043 0
M  V30 3002 H 287.467 3.32734 -2.49522 0
M  V30 3003 H 286.044 3.66368 -0.694902 0
M  V30 3004 N 288.23 0.939286 1.26551 0
M  V30 3005 C 289.455 0.602008 1.98471 0
M  V30 3006 C 289.88 -0.815624 1.69497 0
M  V30 3007 O 289.238 -1.54912 0.941905 0
M  V30 3008 C 289.286 0.848407 3.50477 0
M  V30 3009 O 288.39 -0.0804009 4.12322 0
M  V30 3010 H 287.731 0.23049 0.622712 0
M  V30 3011 H 290.261 1.2617 1.61066 0
M  V30 3012 H 290.271 0.768553 4.00696 0
M  V30 3013 H 288.946 1.88171 3.70897 0
M  V30 3014 H 287.523 0.0503508 3.72866 0
M  V30 3015 N 289.708 -1.40897 0.706093 0
M  V30 3016 C 290.954 -2.01352 0.241889 0
M  V30 3017 C 291.287 -1.55832 -1.15888 0
M  V30 3018 O 290.562 -0.774145 -1.7843 0
M  V30 3019 C 290.845 -3.58752 0.311311 0
M  V30 3020 C 290.698 -4.1437 1.74978 0
M  V30 3021 C 292.017 -4.38914 -0.322922 0
M  V30 3022 H 289.136 -0.731562 0.0893687 0
M  V30 3023 H 291.778 -1.67504 0.896802 0
M  V30 3024 H 289.928 -3.87718 -0.246302 0
M  V30 3025 H 291.6 -3.96239 2.36205 0
M  V30 3026 H 289.843 -3.69016 2.28057 0
M  V30 3027 H 290.514 -5.23532 1.74981 0
M  V30 3028 H 292.99 -4.15822 0.152089 0
M  V30 3029 H 291.866 -5.48358 -0.243855 0
M  V30 3030 H 292.127 -4.19176 -1.40513 0
M  V30 3031 N 291.186 -0.45159 -1.50991 0
M  V30 3032 C 292.096 0.358431 -2.31846 0
M  V30 3033 C 293.112 1.01438 -1.41373 0
M  V30 3034 O 294.288 1.00663 -1.74439 0
M  V30 3035 C 291.353 1.43704 -3.15515 0
M  V30 3036 C 290.414 0.799742 -4.21785 0
M  V30 3037 C 289.647 1.82696 -5.01456 0
M  V30 3038 O 289.87 3.05105 -4.81941 0
M  V30 3039 O 288.804 1.40958 -5.85162 0
M  V30 3040 H 292.63 -0.302032 -3.02194 0
M  V30 3041 H 290.215 -0.213825 -1.47862 0
M  V30 3042 H 292.097 2.06227 -3.67489 0
M  V30 3043 H 290.772 2.08133 -2.47916 0
M  V30 3044 H 289.679 0.136084 -3.73852 0
M  V30 3045 H 291.012 0.198718 -4.91799 0
M  V30 3046 N 292.664 1.56529 -0.183458 0
M  V30 3047 C 293.611 2.18546 0.742055 0
M  V30 3048 C 294.581 1.12912 1.2182 0
M  V30 3049 O 295.766 1.41115 1.28418 0
M  V30 3050 C 292.906 2.83977 1.96089 0
M  V30 3051 C 292.019 4.04105 1.52719 0
M  V30 3052 C 291.154 4.57427 2.70063 0
M  V30 3053 C 290.193 5.69938 2.23243 0
M  V30 3054 N 289.33 6.17717 3.33722 0
M  V30 3055 H 294.17 2.97284 0.206432 0
M  V30 3056 H 291.707 1.46823 0.0901571 0
M  V30 3057 H 293.665 3.20077 2.67594 0
M  V30 3058 H 292.295 2.07822 2.47002 0
M  V30 3059 H 291.347 3.73745 0.708436 0
M  V30 3060 H 292.659 4.85513 1.1436 0
M  V30 3061 H 291.813 4.95772 3.49708 0
M  V30 3062 H 290.552 3.75101 3.11689 0
M  V30 3063 H 289.557 5.31133 1.42048 0
M  V30 3064 H 290.782 6.54073 1.82661 0
M  V30 3065 H 288.728 5.38317 3.74902 0
M  V30 3066 H 288.645 6.94146 2.99495 0
M  V30 3067 H 289.913 6.60713 4.13616 0
M  V30 3068 N 294.142 -0.090211 1.57342 0
M  V30 3069 C 295.105 -1.09335 2.01441 0
M  V30 3070 C 296.105 -1.32666 0.908641 0
M  V30 3071 O 297.295 -1.28697 1.174 0
M  V30 3072 C 294.427 -2.44136 2.3793 0
M  V30 3073 H 295.62 -0.713662 2.91285 0
M  V30 3074 H 293.173 -0.335404 1.52659 0
M  V30 3075 H 293.908 -2.86972 1.51055 0
M  V30 3076 H 293.693 -2.28548 3.18603 0
M  V30 3077 H 295.183 -3.16277 2.72688 0
M  V30 3078 N 295.62 -1.53406 -0.361157 0
M  V30 3079 C 296.868 -1.69467 -1.10115 0
M  V30 3080 C 297.189 -0.451352 -1.89705 0
M  V30 3081 O 296.459 0.534636 -1.88463 0
M  V30 3082 H 295.039 -0.624749 -0.409508 0
M  V30 3083 H 297.701 -1.90609 -0.406699 0
M  V30 3084 H 296.797 -2.55774 -1.78847 0
M  V30 3085 N 297.098 0.621204 -1.44841 0
M  V30 3086 C 298.028 1.74366 -1.55303 0
M  V30 3087 C 299.009 1.65199 -0.405385 0
M  V30 3088 O 300.194 1.83807 -0.626787 0
M  V30 3089 C 297.324 3.12931 -1.50637 0
M  V30 3090 C 296.278 3.36896 -2.63979 0
M  V30 3091 C 295.604 4.75594 -2.44366 0
M  V30 3092 C 296.904 3.28483 -4.06074 0
M  V30 3093 H 298.598 1.65867 -2.49256 0
M  V30 3094 H 296.144 0.796558 -1.19962 0
M  V30 3095 H 298.097 3.9124 -1.56555 0
M  V30 3096 H 296.821 3.22237 -0.532057 0
M  V30 3097 H 295.48 2.60972 -2.57467 0
M  V30 3098 H 295.128 4.81616 -1.45105 0
M  V30 3099 H 294.828 4.92586 -3.20364 0
M  V30 3100 H 296.352 5.5612 -2.52117 0
M  V30 3101 H 297.766 3.96684 -4.13902 0
M  V30 3102 H 296.163 3.57008 -4.82354 0
M  V30 3103 H 297.233 2.26133 -4.28943 0
M  V30 3104 N 298.576 1.31904 0.862503 0
M  V30 3105 C 299.825 1.21373 1.61094 0
M  V30 3106 C 300.138 -0.22504 1.94301 0
M  V30 3107 O 301.344 -0.452121 2.67709 0
M  V30 3108 C 299.8 2.12525 2.9045 0
M  V30 3109 C 299.408 3.61441 2.64697 0
M  V30 3110 C 301.152 2.10813 3.68454 0
M  V30 3111 C 299.059 4.44578 3.90006 0
M  V30 3112 H 297.989 0.450705 0.604468 0
M  V30 3113 H 300.64 1.56811 0.953027 0
M  V30 3114 H 299.022 1.69994 3.57656 0
M  V30 3115 H 300.196 4.12264 2.05851 0
M  V30 3116 H 298.511 3.65205 2.00036 0
M  V30 3117 H 301.108 2.70167 4.61426 0
M  V30 3118 H 301.451 1.09713 4.01583 0
M  V30 3119 H 301.984 2.51583 3.08141 0
M  V30 3120 H 298.723 5.46461 3.62023 0
M  V30 3121 H 298.243 3.98508 4.48276 0
M  V30 3122 H 299.922 4.57176 4.5782 0
M  V30 3123 N 300.054 -1.07777 1.14986 0
M  V30 3124 C 301.279 -1.84558 0.946213 0
M  V30 3125 C 301.704 -1.81323 -0.500362 0
M  V30 3126 O 301.062 -1.20301 -1.35637 0
M  V30 3127 C 301.11 -3.29736 1.45968 0
M  V30 3128 O 300.214 -4.07149 0.65601 0
M  V30 3129 H 299.555 -0.571641 0.33782 0
M  V30 3130 H 302.085 -1.35991 1.52865 0
M  V30 3131 H 302.095 -3.80574 1.47063 0
M  V30 3132 H 300.77 -3.31406 2.51283 0
M  V30 3133 H 299.347 -3.65994 0.714322 0
M  V30 3134 N 301.532 -0.945985 -1.26051 0
M  V30 3135 C 302.462 -0.477172 -2.28572 0
M  V30 3136 C 303.443 0.472032 -1.63419 0
M  V30 3137 O 304.628 0.372853 -1.90587 0
M  V30 3138 C 301.758 0.253975 -3.4637 0
M  V30 3139 C 300.712 -0.609135 -4.23643 0
M  V30 3140 C 300.038 0.252252 -5.34105 0
M  V30 3141 C 301.338 -1.8829 -4.8718 0
M  V30 3142 H 303.032 -1.33402 -2.68038 0
M  V30 3143 H 300.578 -0.642904 -1.28852 0
M  V30 3144 H 302.531 0.593016 -4.17207 0
M  V30 3145 H 301.255 1.145 -3.05871 0
M  V30 3146 H 299.914 -0.931138 -3.54578 0
M  V30 3147 H 299.562 1.14278 -4.89846 0
M  V30 3148 H 299.262 -0.32188 -5.86718 0
M  V30 3149 H 300.786 0.586454 -6.07777 0
M  V30 3150 H 302.2 -1.61081 -5.50205 0
M  V30 3151 H 300.597 -2.40199 -5.49931 0
M  V30 3152 H 301.667 -2.59134 -4.09851 0
M  V30 3153 N 303.011 1.40521 -0.713556 0
M  V30 3154 C 304.257 2.01221 -0.252564 0
M  V30 3155 C 304.59 1.56444 1.1506 0
M  V30 3156 O 303.865 0.783597 1.78017 0
M  V30 3157 C 304.148 3.58582 -0.330332 0
M  V30 3158 C 304.001 4.13437 -1.77173 0
M  V30 3159 C 305.32 4.39079 0.299641 0
M  V30 3160 H 302.439 0.731077 -0.0932471 0
M  V30 3161 H 305.081 1.67026 -0.905673 0
M  V30 3162 H 303.231 3.87844 0.225737 0
M  V30 3163 H 304.903 3.9498 -2.38303 0
M  V30 3164 H 303.146 3.67801 -2.3001 0
M  V30 3165 H 303.817 5.22597 -1.77755 0
M  V30 3166 H 306.293 4.15735 -0.174139 0
M  V30 3167 H 305.169 5.4848 0.214771 0
M  V30 3168 H 305.43 4.19915 1.38288 0
M  V30 3169 N 304.489 0.459591 1.5075 0
M  V30 3170 C 305.436 -0.340524 2.28274 0
M  V30 3171 C 306.406 -0.997371 1.32822 0
M  V30 3172 O 307.591 -1.01202 1.61749 0
M  V30 3173 C 304.731 -1.42317 3.14388 0
M  V30 3174 C 303.844 -0.782251 4.24859 0
M  V30 3175 C 302.979 -1.84182 4.98247 0
M  V30 3176 C 302.018 -1.18053 6.00608 0
M  V30 3177 N 301.155 -2.18244 6.67319 0
M  V30 3178 H 305.995 0.326899 2.96202 0
M  V30 3179 H 303.532 0.173057 1.46078 0
M  V30 3180 H 305.49 -2.06241 3.62658 0
M  V30 3181 H 304.12 -2.05992 2.4853 0
M  V30 3182 H 303.172 -0.0307404 3.80388 0
M  V30 3183 H 304.484 -0.259663 4.98124 0
M  V30 3184 H 303.638 -2.55714 5.50177 0
M  V30 3185 H 302.377 -2.39819 4.24662 0
M  V30 3186 H 301.382 -0.450776 5.47949 0
M  V30 3187 H 302.607 -0.631202 6.7616 0
M  V30 3188 H 300.553 -2.72919 5.96533 0
M  V30 3189 H 300.47 -1.70938 7.36421 0
M  V30 3190 H 301.738 -2.89191 7.23871 0
M  V30 3191 N 305.967 -1.56429 0.191757 0
M  V30 3192 C 306.9 -2.14829 -0.76967 0
M  V30 3193 C 307.878 -1.08405 -1.2119 0
M  V30 3194 O 309.062 -1.36498 -1.30002 0
M  V30 3195 C 306.189 -2.70446 -2.03903 0
M  V30 3196 C 305.235 -3.89428 -1.7392 0
M  V30 3197 S 306.068 -5.28048 -0.890265 0
M  V30 3198 C 307.224 -5.87085 -2.16984 0
M  V30 3199 H 307.457 -2.96042 -0.273204 0
M  V30 3200 H 304.99 -1.54383 -0.0231975 0
M  V30 3201 H 306.948 -3.03134 -2.76803 0
M  V30 3202 H 305.609 -1.89281 -2.50662 0
M  V30 3203 H 304.802 -4.26742 -2.68155 0
M  V30 3204 H 304.404 -3.57732 -1.09103 0
M  V30 3205 H 306.696 -6.01244 -3.12269 0
M  V30 3206 H 307.639 -6.83747 -1.84108 0
M  V30 3207 H 308.047 -5.15663 -2.29678 0
M  V30 3208 N 307.445 0.0818655 -1.57387 0
M  V30 3209 C 308.392 1.09834 -2.0299 0
M  V30 3210 C 309.362 1.39043 -0.908639 0
M  V30 3211 O 310.547 1.50282 -1.17559 0
M  V30 3212 C 307.687 2.40971 -2.47037 0
M  V30 3213 C 306.8 2.18379 -3.7274 0
M  V30 3214 C 305.935 3.43008 -4.0561 0
M  V30 3215 C 304.974 3.15736 -5.24383 0
M  V30 3216 N 304.111 4.32667 -5.52941 0
M  V30 3217 H 308.951 0.702472 -2.89602 0
M  V30 3218 H 306.488 0.33531 -1.43227 0
M  V30 3219 H 308.446 3.1752 -2.70623 0
M  V30 3220 H 307.076 2.78379 -1.63417 0
M  V30 3221 H 306.128 1.32569 -3.56552 0
M  V30 3222 H 307.44 1.94227 -4.59431 0
M  V30 3223 H 306.594 4.27958 -4.30043 0
M  V30 3224 H 305.333 3.70225 -3.17466 0
M  V30 3225 H 304.338 2.2918 -4.99757 0
M  V30 3226 H 305.563 2.8985 -6.14136 0
M  V30 3227 H 303.509 4.59935 -4.67756 0
M  V30 3228 H 303.426 4.11753 -6.34031 0
M  V30 3229 H 304.694 5.18644 -5.81918 0
M  V30 3230 N 308.923 1.53595 0.353017 0
M  V30 3231 C 310.17 1.70385 1.09431 0
M  V30 3232 C 310.498 0.462113 1.88931 0
M  V30 3233 O 309.753 -0.556074 1.87633 0
M  V30 3234 C 310.052 2.91313 2.07054 0
M  V30 3235 C 309.718 4.27308 1.43939 0
M  V30 3236 C 308.38 4.64287 1.26454 0
M  V30 3237 C 310.732 5.11829 0.983883 0
M  V30 3238 C 308.06 5.83412 0.620226 0
M  V30 3239 C 310.412 6.31611 0.353516 0
M  V30 3240 C 309.076 6.67293 0.166272 0
M  V30 3241 H 308.346 0.623484 0.400436 0
M  V30 3242 H 310.993 1.87799 0.374655 0
M  V30 3243 H 309.298 2.68463 2.85368 0
M  V30 3244 H 310.995 3.01497 2.64387 0
M  V30 3245 H 307.585 3.98198 1.58543 0
M  V30 3246 H 311.769 4.838 1.10685 0
M  V30 3247 H 307.025 6.09639 0.463681 0
M  V30 3248 H 311.199 6.964 -0.00757555 0
M  V30 3249 H 308.826 7.59461 -0.335047 0
M  V30 3250 N 310.401 -0.613514 1.45168 0
M  V30 3251 C 311.331 -1.7354 1.56225 0
M  V30 3252 C 312.312 -1.64981 0.41414 0
M  V30 3253 O 313.497 -1.83472 0.636526 0
M  V30 3254 C 310.627 -3.12128 1.52295 0
M  V30 3255 C 309.581 -3.35491 2.65762 0
M  V30 3256 C 308.907 -4.74291 2.46885 0
M  V30 3257 C 310.207 -3.26325 4.0781 0
M  V30 3258 H 311.901 -1.64543 2.50132 0
M  V30 3259 H 309.447 -0.790185 1.20383 0
M  V30 3260 H 311.4 -3.90404 1.58628 0
M  V30 3261 H 310.124 -3.2195 0.549139 0
M  V30 3262 H 308.783 -2.59603 2.58847 0
M  V30 3263 H 308.431 -4.80839 1.47657 0
M  V30 3264 H 308.131 -4.9088 3.22972 0
M  V30 3265 H 309.655 -5.54775 2.55063 0
M  V30 3266 H 311.069 -3.94483 4.16 0
M  V30 3267 H 309.466 -3.54445 4.8424 0
M  V30 3268 H 310.536 -2.23855 4.30136 0
M  V30 3269 N 311.879 -1.3236 -0.855495 0
M  V30 3270 C 313.29 -1.2056 -1.42556 0
M  V30 3271 C 313.641 0.182209 -1.95352 0
M  V30 3272 O 312.766 1.08088 -1.87472 0
M  V30 3273 C 313.361 -2.1826 -2.59129 0
M  V30 3274 C 311.92 -2.10351 -3.12137 0
M  V30 3275 C 311.067 -2.06674 -1.84882 0
M  V30 3276 H 314.018 -1.442 -0.662727 0
M  V30 3277 H 314.039 -1.78064 -3.36264 0
M  V30 3278 H 313.551 -3.19257 -2.20673 0
M  V30 3279 H 311.652 -1.12599 -3.55179 0
M  V30 3280 H 311.765 -3.00135 -3.73438 0
M  V30 3281 H 310.129 -1.51901 -2.04446 0
M  V30 3282 H 310.912 -3.09451 -1.48643 0
M  V30 3283 N 313.357 1.07166 -1.15556 0
M  V30 3284 C 314.603 1.80065 -0.932984 0
M  V30 3285 C 314.936 1.86586 0.53845 0
M  V30 3286 O 314.211 1.35098 1.39924 0
M  V30 3287 C 314.494 3.25022 -1.55025 0
M  V30 3288 C 314.347 3.26634 -3.09242 0
M  V30 3289 C 315.666 4.22341 -1.2376 0
M  V30 3290 H 312.785 0.653697 -0.340366 0
M  V30 3291 H 315.427 1.25389 -1.4275 0
M  V30 3292 H 313.577 3.71712 -1.12972 0
M  V30 3293 H 315.249 2.88173 -3.60214 0
M  V30 3294 H 313.492 2.65539 -3.43033 0
M  V30 3295 H 314.163 4.28854 -3.47546 0
M  V30 3296 H 316.639 3.8405 -1.60139 0
M  V30 3297 H 315.515 5.22053 -1.69564 0
M  V30 3298 H 315.776 4.41828 -0.154938 0
M  V30 3299 N 314.835 0.952656 1.25548 0
M  V30 3300 C 316.112 0.523818 1.88456 0
M  V30 3301 C 316.492 -0.998871 1.85973 0
M  V30 3302 O 315.84 -1.86381 1.3219 0
M  V30 3303 C 316.05 1.0982 3.31271 0
M  V30 3304 C 317.398 1.17385 4.08051 0
M  V30 3305 O 318.422 1.04961 3.40384 0
M  V30 3306 O 317.281 1.36852 5.29088 0
M  V30 3307 H 314.375 0.172485 0.808813 0
M  V30 3308 H 316.921 1.04596 1.33633 0
M  V30 3309 H 315.693 2.1415 3.27499 0
M  V30 3310 H 315.316 0.559191 3.93648 0
M  V30 3311 N 316.313 -1.40141 0.720998 0
M  V30 3312 C 317.59 -1.94677 0.189757 0
M  V30 3313 C 317.97 -1.65879 -1.30566 0
M  V30 3314 O 317.318 -0.979391 -2.06447 0
M  V30 3315 C 317.528 -3.45279 0.508304 0
M  V30 3316 C 318.876 -4.22209 0.449934 0
M  V30 3317 O 319.9 -3.53413 0.444677 0
M  V30 3318 O 318.759 -5.44788 0.432189 0
M  V30 3319 H 315.853 -0.826459 0.0299026 0
M  V30 3320 H 318.399 -1.49719 0.7989 0
M  V30 3321 H 317.171 -3.59619 1.54239 0
M  V30 3322 H 316.794 -3.97386 -0.130525 0
M  V30 3323 N 317.792 -0.46758 -1.50504 0
M  V30 3324 C 318.74 0.342482 -2.30065 0
M  V30 3325 C 319.734 0.993596 -1.37201 0
M  V30 3326 O 320.94 0.925102 -1.54408 0
M  V30 3327 H 317.315 0.129283 -0.740803 0
M  V30 3328 H 319.286 -0.34899 -2.96352 0
M  V30 3329 C 318.035 1.4139 -3.17654 0
M  V30 3330 H 317.358 0.922264 -3.89017 0
M  V30 3331 H 318.798 1.95335 -3.76325 0
M  V30 3332 C 317.257 2.4139 -2.35016 0
M  V30 3333 O 317.787 3.46586 -2.03079 0
M  V30 3334 N 315.993 2.13021 -1.97662 0
M  V30 3335 H 315.54 1.27499 -2.23834 0
M  V30 3336 H 315.498 2.80164 -1.42673 0
M  V30 3337 N 319.27 1.56325 -0.20005 0
M  V30 3338 C 320.517 1.97719 0.437411 0
M  V30 3339 C 320.845 1.08709 1.61284 0
M  V30 3340 O 320.1 0.127261 1.95286 0
M  V30 3341 C 320.399 3.4495 0.935103 0
M  V30 3342 C 320.065 4.5072 -0.12749 0
M  V30 3343 C 318.727 4.79368 -0.419451 0
M  V30 3344 C 321.079 5.14268 -0.847231 0
M  V30 3345 C 318.407 5.68854 -1.43604 0
M  V30 3346 C 320.759 6.04852 -1.85301 0
M  V30 3347 C 319.423 6.31855 -2.15211 0
M  V30 3348 H 318.693 0.723507 0.16006 0
M  V30 3349 H 321.34 1.89166 -0.298056 0
M  V30 3350 H 319.645 3.50599 1.74894 0
M  V30 3351 H 321.342 3.74337 1.43781 0
M  V30 3352 H 317.932 4.28458 0.11023 0
M  V30 3353 H 322.116 4.92222 -0.634901 0
M  V30 3354 H 317.372 5.88047 -1.67364 0
M  V30 3355 H 321.546 6.53152 -2.41591 0
M  V30 3356 H 319.173 7.00994 -2.94129 0
M  V30 3357 N 320.748 -0.0735177 1.57428 0
M  V30 3358 C 321.973 -0.789787 1.91774 0
M  V30 3359 C 322.398 -1.70413 0.796306 0
M  V30 3360 O 321.756 -1.79555 -0.250961 0
M  V30 3361 C 321.804 -1.5609 3.25067 0
M  V30 3362 O 320.908 -2.67144 3.14178 0
M  V30 3363 H 320.249 -0.215582 0.628029 0
M  V30 3364 H 322.779 -0.0422781 2.04556 0
M  V30 3365 H 322.789 -1.94052 3.58898 0
M  V30 3366 H 321.464 -0.890015 4.06265 0
M  V30 3367 H 320.041 -2.32052 2.91901 0
M  V30 3368 N 322.226 -1.5378 -0.344866 0
M  V30 3369 C 323.156 -1.84662 -1.42906 0
M  V30 3370 C 324.137 -0.701648 -1.54955 0
M  V30 3371 O 325.322 -0.953438 -1.69184 0
M  V30 3372 C 322.452 -2.05503 -2.79974 0
M  V30 3373 C 321.406 -3.21318 -2.82734 0
M  V30 3374 C 320.732 -3.2749 -4.22675 0
M  V30 3375 C 322.032 -4.59456 -2.48389 0
M  V30 3376 H 323.726 -2.75461 -1.17311 0
M  V30 3377 H 321.272 -1.32542 -0.562896 0
M  V30 3378 H 323.225 -2.25691 -3.55867 0
M  V30 3379 H 321.949 -1.11434 -3.07002 0
M  V30 3380 H 320.608 -3.00984 -2.09294 0
M  V30 3381 H 320.256 -2.31019 -4.4681 0
M  V30 3382 H 319.956 -4.05316 -4.25433 0
M  V30 3383 H 321.48 -3.49887 -5.00412 0
M  V30 3384 H 322.894 -4.79667 -3.13995 0
M  V30 3385 H 321.291 -5.39675 -2.62432 0
M  V30 3386 H 322.361 -4.63155 -1.4358 0
M  V30 3387 N 323.704 0.605807 -1.45491 0
M  V30 3388 C 325.12 0.926751 -1.29936 0
M  V30 3389 C 325.32 1.99896 -0.253706 0
M  V30 3390 O 324.376 2.50038 0.351737 0
M  V30 3391 C 325.689 1.36599 -2.67883 0
M  V30 3392 C 327.237 1.4801 -2.75793 0
M  V30 3393 C 327.712 1.95309 -4.14268 0
M  V30 3394 N 329.203 2.0254 -4.16571 0
M  V30 3395 C 329.938 2.40363 -5.20589 0
M  V30 3396 N 329.434 2.77143 -6.34952 0
M  V30 3397 N 331.227 2.40718 -5.07948 0
M  V30 3398 H 323.378 -0.102862 -2.12151 0
M  V30 3399 H 325.641 0.016639 -0.947854 0
M  V30 3400 H 325.347 0.652306 -3.45598 0
M  V30 3401 H 325.221 2.33215 -2.96463 0
M  V30 3402 H 327.608 2.1847 -1.98381 0
M  V30 3403 H 327.689 0.497041 -2.50925 0
M  V30 3404 H 327.333 1.25436 -4.92167 0
M  V30 3405 H 327.263 2.94532 -4.3653 0
M  V30 3406 H 329.754 1.76699 -3.34045 0
M  V30 3407 H 330.067 3.0489 -7.10114 0
M  V30 3408 H 328.412 2.74834 -6.3835 0
M  V30 3409 H 331.603 2.11392 -4.1765 0
M  V30 3410 H 331.776 2.69869 -5.89131 0
M  V30 3411 N 325.182 1.32811 0.848464 0
M  V30 3412 C 326.43 1.23479 1.59991 0
M  V30 3413 C 326.751 -0.201853 1.93952 0
M  V30 3414 O 326.021 -1.12818 1.60153 0
M  V30 3415 H 324.601 0.454034 0.593179 0
M  V30 3416 H 327.263 1.66412 1.01455 0
M  V30 3417 H 326.359 1.82178 2.53412 0
M  V30 3418 N 326.66 -1.06551 1.16123 0
M  V30 3419 C 327.57 -2.17484 0.879662 0
M  V30 3420 C 328.586 -1.73377 -0.147104 0
M  V30 3421 O 329.762 -2.01379 0.0289128 0
M  V30 3422 C 326.827 -3.44591 0.381829 0
M  V30 3423 C 325.888 -4.0322 1.4735 0
M  V30 3424 C 325.121 -5.24261 0.999324 0
M  V30 3425 O 325.344 -5.70198 -0.151957 0
M  V30 3426 O 324.278 -5.74775 1.78653 0
M  V30 3427 H 328.104 -2.44075 1.80724 0
M  V30 3428 H 325.689 -1.16042 0.940992 0
M  V30 3429 H 327.571 -4.21254 0.111053 0
M  V30 3430 H 326.246 -3.19532 -0.51777 0
M  V30 3431 H 325.153 -3.2806 1.79798 0
M  V30 3432 H 326.486 -4.32568 2.34831 0
M  V30 3433 N 328.138 -0.959301 -1.25041 0
M  V30 3434 C 329.101 -0.487677 -2.23952 0
M  V30 3435 C 330.101 0.41119 -1.55454 0
M  V30 3436 O 331.291 0.207825 -1.72956 0
M  V30 3437 C 328.423 0.294807 -3.39623 0
M  V30 3438 H 329.616 -1.36198 -2.67189 0
M  V30 3439 H 327.169 -0.743042 -1.37508 0
M  V30 3440 H 327.904 1.18658 -3.01813 0
M  V30 3441 H 327.689 -0.35012 -3.90534 0
M  V30 3442 H 329.179 0.614089 -4.1306 0
M  V30 3443 N 329.616 1.39756 -0.72842 0
M  V30 3444 C 330.546 2.33289 -0.0991354 0
M  V30 3445 C 331.527 1.53568 0.731489 0
M  V30 3446 O 332.712 1.81987 0.677807 0
M  V30 3447 C 329.842 3.3763 0.813834 0
M  V30 3448 C 328.796 4.2791 0.0878663 0
M  V30 3449 C 328.122 5.22894 1.11741 0
M  V30 3450 C 329.422 5.11314 -1.06563 0
M  V30 3451 H 331.116 2.86163 -0.880408 0
M  V30 3452 H 328.662 1.37591 -0.424819 0
M  V30 3453 H 330.615 4.0201 1.26355 0
M  V30 3454 H 329.339 2.83181 1.62715 0
M  V30 3455 H 327.998 3.65 -0.342159 0
M  V30 3456 H 327.646 4.64744 1.92412 0
M  V30 3457 H 327.346 5.84143 0.636477 0
M  V30 3458 H 328.87 5.90151 1.56697 0
M  V30 3459 H 330.284 5.69076 -0.694671 0
M  V30 3460 H 328.681 5.81671 -1.47577 0
M  V30 3461 H 329.751 4.46534 -1.89038 0
M  V30 3462 N 331.094 0.475555 1.50254 0
M  V30 3463 C 332.026 -0.352649 2.26471 0
M  V30 3464 C 333.039 -0.953165 1.3198 0
M  V30 3465 O 334.228 -0.840815 1.57457 0
M  V30 3466 C 331.328 -1.50902 3.0345 0
M  V30 3467 C 330.501 -1.02047 4.25329 0
M  V30 3468 C 329.56 -2.05142 4.84565 0
M  V30 3469 O 328.586 -1.63023 5.45355 0
M  V30 3470 N 329.788 -3.37987 4.71959 0
M  V30 3471 H 332.553 0.300767 2.98187 0
M  V30 3472 H 330.114 0.306598 1.5897 0
M  V30 3473 H 332.106 -2.19572 3.39956 0
M  V30 3474 H 330.676 -2.06705 2.34504 0
M  V30 3475 H 329.896 -0.159507 3.93877 0
M  V30 3476 H 331.184 -0.672061 5.04342 0
M  V30 3477 H 330.582 -3.74913 4.23623 0
M  V30 3478 H 329.139 -4.02443 5.12721 0
M  V30 3479 N 332.573 -1.56217 0.208337 0
M  V30 3480 C 333.52 -2.19699 -0.707192 0
M  V30 3481 C 334.49 -1.14836 -1.20008 0
M  V30 3482 O 335.675 -1.4314 -1.26157 0
M  V30 3483 C 332.815 -2.87061 -1.91546 0
M  V30 3484 C 331.928 -4.06483 -1.46271 0
M  V30 3485 C 331.063 -4.61665 -2.62752 0
M  V30 3486 C 330.102 -5.73417 -2.14147 0
M  V30 3487 N 329.239 -6.22948 -3.23853 0
M  V30 3488 H 334.079 -2.97575 -0.159111 0
M  V30 3489 H 331.616 -1.46948 -0.0667874 0
M  V30 3490 H 333.574 -3.24294 -2.62468 0
M  V30 3491 H 332.204 -2.11725 -2.43664 0
M  V30 3492 H 331.256 -3.74825 -0.648886 0
M  V30 3493 H 332.568 -4.87271 -1.06622 0
M  V30 3494 H 331.722 -5.01272 -3.41776 0
M  V30 3495 H 330.461 -3.80013 -3.05682 0
M  V30 3496 H 329.466 -5.33326 -1.33581 0
M  V30 3497 H 330.691 -6.56897 -1.72232 0
M  V30 3498 H 328.637 -5.44213 -3.6629 0
M  V30 3499 H 328.554 -6.98823 -2.88414 0
M  V30 3500 H 329.822 -6.6721 -4.03052 0
M  V30 3501 N 334.051 0.0651679 -1.57465 0
M  V30 3502 C 335.014 1.06117 -2.03155 0
M  V30 3503 C 336.014 1.31204 -0.929632 0
M  V30 3504 O 337.204 1.26813 -1.19432 0
M  V30 3505 C 334.336 2.4032 -2.41783 0
M  V30 3506 H 335.529 0.667231 -2.92383 0
M  V30 3507 H 333.082 0.311075 -1.53173 0
M  V30 3508 H 333.817 2.84532 -1.55601 0
M  V30 3509 H 333.602 2.23451 -3.22199 0
M  V30 3510 H 335.092 3.11898 -2.77685 0
M  V30 3511 N 335.529 1.53961 0.336706 0
M  V30 3512 C 336.778 1.70751 1.07363 0
M  V30 3513 C 337.091 0.481061 1.89592 0
M  V30 3514 O 338.297 0.530046 2.66276 0
M  V30 3515 C 336.753 3.01965 1.95818 0
M  V30 3516 C 336.361 4.31971 1.18764 0
M  V30 3517 C 338.105 3.28121 2.69327 0
M  V30 3518 C 336.012 5.54255 2.06289 0
M  V30 3519 H 334.942 0.636292 0.404535 0
M  V30 3520 H 337.593 1.80459 0.332681 0
M  V30 3521 H 335.975 2.86132 2.7376 0
M  V30 3522 H 337.149 4.5853 0.456849 0
M  V30 3523 H 335.464 4.12481 0.569946 0
M  V30 3524 H 338.061 4.16673 3.35094 0
M  V30 3525 H 338.404 2.45426 3.36261 0
M  V30 3526 H 338.937 3.44762 1.98454 0
M  V30 3527 H 335.676 6.39513 1.43885 0
M  V30 3528 H 335.196 5.31935 2.77138 0
M  V30 3529 H 336.875 5.90159 2.65182 0
M  V30 3530 N 337.007 -0.598083 1.45811 0
M  V30 3531 C 337.917 -1.73632 1.57763 0
M  V30 3532 C 338.933 -1.67763 0.461676 0
M  V30 3533 O 340.109 -1.87949 0.723685 0
M  V30 3534 C 337.174 -3.10114 1.55018 0
M  V30 3535 C 336.235 -3.27364 2.77726 0
M  V30 3536 C 335.468 -4.57334 2.75102 0
M  V30 3537 O 335.691 -5.40258 1.8297 0
M  V30 3538 O 334.625 -4.77502 3.66437 0
M  V30 3539 H 338.451 -1.66498 2.53992 0
M  V30 3540 H 336.036 -0.763308 1.28429 0
M  V30 3541 H 337.918 -3.9141 1.56129 0
M  V30 3542 H 336.593 -3.17718 0.619431 0
M  V30 3543 H 335.5 -2.45619 2.82174 0
M  V30 3544 H 336.833 -3.24641 3.69958 0
M  V30 3545 N 338.485 -1.33259 -0.841409 0
M  V30 3546 C 339.395 -1.25332 -1.98316 0
M  V30 3547 C 340.411 -0.164364 -1.73222 0
M  V30 3548 O 341.587 -0.387486 -1.97637 0
M  V30 3549 C 338.652 -0.990078 -3.32262 0
M  V30 3550 C 337.713 -2.16879 -3.70489 0
M  V30 3551 C 336.946 -1.91801 -4.98044 0
M  V30 3552 O 337.169 -0.867075 -5.63771 0
M  V30 3553 O 336.103 -2.78267 -5.33714 0
M  V30 3554 H 339.929 -2.21344 -2.07944 0
M  V30 3555 H 337.514 -1.1328 -0.974058 0
M  V30 3556 H 339.396 -0.860321 -4.12524 0
M  V30 3557 H 338.071 -0.0602155 -3.23644 0
M  V30 3558 H 336.978 -2.35407 -2.90748 0
M  V30 3559 H 338.311 -3.0819 -3.8377 0
M  V30 3560 N 339.963 1.05934 -1.16686 0
M  V30 3561 C 341.24 1.75643 -0.860747 0
M  V30 3562 C 341.62 2.01144 0.640641 0
M  V30 3563 O 340.968 1.64147 1.58959 0
M  V30 3564 C 341.178 3.05493 -1.68745 0
M  V30 3565 C 342.526 3.79581 -1.90271 0
M  V30 3566 O 343.55 3.15344 -1.65641 0
M  V30 3567 O 342.409 4.9499 -2.31618 0
M  V30 3568 H 339.503 0.763426 -0.317977 0
M  V30 3569 H 342.049 1.1217 -1.27342 0
M  V30 3570 H 340.821 2.8264 -2.70611 0
M  V30 3571 H 340.444 3.76702 -1.27206 0
M  V30 3572 N 341.441 0.965919 1.2453 0
M  V30 3573 C 342.388 0.49402 2.25451 0
M  V30 3574 C 343.358 -0.45948 1.59618 0
M  V30 3575 O 344.543 -0.370238 1.87173 0
M  V30 3576 C 341.683 -0.211359 3.44452 0
M  V30 3577 C 340.796 0.7807 4.24887 0
M  V30 3578 C 339.931 0.0516105 5.31175 0
M  V30 3579 C 338.97 1.03385 6.03306 0
M  V30 3580 N 338.107 0.334887 7.01301 0
M  V30 3581 H 342.947 1.35946 2.65184 0
M  V30 3582 H 340.484 0.681515 1.3036 0
M  V30 3583 H 342.442 -0.637 4.12308 0
M  V30 3584 H 341.072 -1.04077 3.05562 0
M  V30 3585 H 340.124 1.32479 3.56586 0
M  V30 3586 H 341.436 1.52978 4.74762 0
M  V30 3587 H 340.59 -0.432114 6.05159 0
M  V30 3588 H 339.329 -0.730179 4.82203 0
M  V30 3589 H 338.334 1.52847 5.28127 0
M  V30 3590 H 339.559 1.81606 6.54367 0
M  V30 3591 H 337.505 -0.427959 6.54603 0
M  V30 3592 H 337.422 1.02287 7.49048 0
M  V30 3593 H 338.69 -0.126928 7.79397 0
M  V30 3594 N 342.919 -1.39368 0.735821 0
M  V30 3595 C 343.851 -2.2913 0.0567723 0
M  V30 3596 C 344.864 -1.46859 -0.702589 0
M  V30 3597 O 346.053 -1.69925 -0.546616 0
M  V30 3598 C 343.153 -3.25492 -0.943823 0
M  V30 3599 C 342.326 -4.36709 -0.24581 0
M  V30 3600 C 341.385 -5.13376 -1.15463 0
M  V30 3601 O 340.411 -5.65683 -0.631803 0
M  V30 3602 N 341.613 -5.24656 -2.48427 0
M  V30 3603 H 344.378 -2.88047 0.827582 0
M  V30 3604 H 341.939 -1.50957 0.585112 0
M  V30 3605 H 343.931 -3.73657 -1.55443 0
M  V30 3606 H 342.501 -2.676 -1.61583 0
M  V30 3607 H 341.721 -3.9041 0.545286 0
M  V30 3608 H 343.009 -5.08244 0.237891 0
M  V30 3609 H 342.407 -4.83679 -2.93379 0
M  V30 3610 H 340.964 -5.76258 -3.04582 0
M  V30 3611 N 344.397 -0.483516 -1.5 0
M  V30 3612 C 345.813 -0.138404 -1.58999 0
M  V30 3613 C 346.013 1.35597 -1.4905 0
M  V30 3614 O 345.069 2.13039 -1.35539 0
M  V30 3615 C 346.382 -0.699658 -2.92447 0
M  V30 3616 C 347.93 -0.664195 -3.05872 0
M  V30 3617 C 348.405 -1.20321 -4.41913 0
M  V30 3618 N 349.896 -1.16315 -4.48358 0
M  V30 3619 C 350.631 -1.55058 -5.52037 0
M  V30 3620 N 350.127 -2.01311 -6.62907 0
M  V30 3621 N 351.92 -1.46584 -5.42651 0
M  V30 3622 H 344.071 -1.45529 -1.5471 0
M  V30 3623 H 346.334 -0.60258 -0.731848 0
M  V30 3624 H 346.04 -1.747 -3.05242 0
M  V30 3625 H 345.914 -0.150194 -3.76901 0
M  V30 3626 H 348.301 0.374272 -2.92717 0
M  V30 3627 H 348.382 -1.25061 -2.23144 0
M  V30 3628 H 348.026 -2.24037 -4.55818 0
M  V30 3629 H 347.956 -0.592896 -5.23252 0
M  V30 3630 H 350.447 -0.824058 -3.68806 0
M  V30 3631 H 350.76 -2.2899 -7.38095 0
M  V30 3632 H 349.105 -2.05273 -6.63994 0
M  V30 3633 H 352.296 -1.10281 -4.54924 0
M  V30 3634 H 352.469 -1.77103 -6.23329 0
M  V30 3635 N 345.875 1.56104 -0.216619 0
M  V30 3636 C 347.123 1.97781 0.415593 0
M  V30 3637 C 347.444 1.10536 1.60645 0
M  V30 3638 O 346.714 0.181303 1.95059 0
M  V30 3639 H 345.294 0.730415 0.156534 0
M  V30 3640 H 347.956 1.92445 -0.308366 0
M  V30 3641 H 347.052 3.03072 0.74525 0
M  V30 3642 N 347.353 -0.0568162 1.57498 0
M  V30 3643 C 348.283 -1.06593 2.0775 0
M  V30 3644 C 349.264 -1.39448 0.974082 0
M  V30 3645 O 350.449 -1.48815 1.24771 0
M  V30 3646 C 347.579 -2.37509 2.5339 0
M  V30 3647 C 346.533 -2.1897 3.67745 0
M  V30 3648 C 345.859 -3.55402 3.99492 0
M  V30 3649 C 347.159 -1.59859 4.97235 0
M  V30 3650 H 348.853 -0.647706 2.9231 0
M  V30 3651 H 346.399 -0.310116 1.40621 0
M  V30 3652 H 348.352 -3.08409 2.87162 0
M  V30 3653 H 347.076 -2.8134 1.65878 0
M  V30 3654 H 345.735 -1.50508 3.3428 0
M  V30 3655 H 345.383 -3.9683 3.09088 0
M  V30 3656 H 345.083 -3.43831 4.76502 0
M  V30 3657 H 346.607 -4.27708 4.35773 0
M  V30 3658 H 348.021 -2.20642 5.29141 0
M  V30 3659 H 346.418 -1.58942 5.78669 0
M  V30 3660 H 347.488 -0.561506 4.81638 0
M  V30 3661 N 348.832 -1.54138 -0.328536 0
M  V30 3662 C 350.078 -1.7236 -1.06865 0
M  V30 3663 C 350.411 -0.493231 -1.87832 0
M  V30 3664 O 349.686 0.5098 -1.877 0
M  V30 3665 C 349.969 -2.99621 -1.99747 0
M  V30 3666 C 349.822 -4.32899 -1.22143 0
M  V30 3667 C 351.141 -3.22615 -2.99345 0
M  V30 3668 H 348.26 -0.627151 -0.387105 0
M  V30 3669 H 350.902 -1.86827 -0.345767 0
M  V30 3670 H 349.052 -2.87418 -2.61387 0
M  V30 3671 H 350.724 -4.56978 -0.630017 0
M  V30 3672 H 348.967 -4.30628 -0.523628 0
M  V30 3673 H 349.638 -5.18154 -1.90318 0
M  V30 3674 H 352.114 -3.34248 -2.47826 0
M  V30 3675 H 350.99 -4.13027 -3.61524 0
M  V30 3676 H 351.251 -2.3961 -3.71536 0
M  V30 3677 N 350.31 0.590341 -1.46126 0
M  V30 3678 C 351.721 1.17243 -1.45296 0
M  V30 3679 C 352.072 1.95281 -0.189723 0
M  V30 3680 O 351.197 2.04502 0.707674 0
M  V30 3681 C 351.792 2.13284 -2.6324 0
M  V30 3682 C 350.351 2.66832 -2.65476 0
M  V30 3683 C 349.498 1.42557 -2.3785 0
M  V30 3684 H 352.449 0.378692 -1.54116 0
M  V30 3685 H 352.47 2.96619 -2.38323 0
M  V30 3686 H 351.982 1.56459 -3.55165 0
M  V30 3687 H 350.083 3.27548 -1.77603 0
M  V30 3688 H 350.196 3.10088 -3.65215 0
M  V30 3689 H 348.56 1.72107 -1.87753 0
M  V30 3690 H 349.343 0.875741 -3.31942 0
M  V30 3691 N 351.788 1.33704 0.83433 0
M  V30 3692 C 353.034 1.25603 1.59222 0
M  V30 3693 C 353.367 -0.176659 1.93395 0
M  V30 3694 O 352.642 -1.11915 1.59076 0
M  V30 3695 C 352.925 2.13576 2.89926 0
M  V30 3696 C 352.778 3.65326 2.62406 0
M  V30 3697 C 354.097 2.01238 3.91397 0
M  V30 3698 H 351.216 0.457613 0.577719 0
M  V30 3699 H 353.858 1.63848 0.961972 0
M  V30 3700 H 352.008 1.8109 3.43713 0
M  V30 3701 H 353.68 4.08124 2.15017 0
M  V30 3702 H 351.923 3.8698 1.96033 0
M  V30 3703 H 352.594 4.22232 3.55562 0
M  V30 3704 H 355.07 2.29738 3.46929 0
M  V30 3705 H 353.946 2.65036 4.80673 0
M  V30 3706 H 354.207 0.985951 4.30966 0
M  V30 3707 N 353.266 -1.05314 1.17247 0
M  V30 3708 C 354.513 -1.78293 0.960091 0
M  V30 3709 C 354.841 -1.87658 -0.51136 0
M  V30 3710 O 354.096 -1.3718 -1.39571 0
M  V30 3711 C 354.395 -3.2229 1.54479 0
M  V30 3712 C 354.061 -3.32987 3.04024 0
M  V30 3713 C 352.723 -3.35613 3.44844 0
M  V30 3714 C 355.075 -3.34102 4.00031 0
M  V30 3715 C 352.403 -3.36982 4.8027 0
M  V30 3716 C 354.755 -3.3701 5.35357 0
M  V30 3717 C 353.419 -3.37923 5.75642 0
M  V30 3718 H 352.689 -0.652422 0.351322 0
M  V30 3719 H 355.336 -1.23782 1.46117 0
M  V30 3720 H 353.641 -3.7972 0.965391 0
M  V30 3721 H 355.338 -3.77376 1.35603 0
M  V30 3722 H 351.928 -3.31655 2.71483 0
M  V30 3723 H 356.112 -3.31276 3.69554 0
M  V30 3724 H 351.368 -3.35999 5.10798 0
M  V30 3725 H 355.542 -3.36822 6.09528 0
M  V30 3726 H 353.169 -3.38738 6.80559 0
M  V30 3727 N 354.744 -0.972509 -1.24016 0
M  V30 3728 C 355.99 -0.637978 -1.92504 0
M  V30 3729 C 356.323 0.825383 -1.75787 0
M  V30 3730 O 355.598 1.59442 -1.11393 0
M  V30 3731 C 355.881 -1.01942 -3.45369 0
M  V30 3732 C 355.734 -2.53983 -3.71231 0
M  V30 3733 C 357.053 -0.55751 -4.36555 0
M  V30 3734 H 354.172 -0.233248 -0.699117 0
M  V30 3735 H 356.814 -1.21238 -1.46292 0
M  V30 3736 H 354.964 -0.530656 -3.84859 0
M  V30 3737 H 356.636 -3.10374 -3.41271 0
M  V30 3738 H 354.879 -2.96968 -3.16216 0
M  V30 3739 H 355.55 -2.75723 -4.78206 0
M  V30 3740 H 358.026 -0.977029 -4.04467 0
M  V30 3741 H 356.902 -0.85292 -5.42233 0
M  V30 3742 H 357.163 0.542328 -4.38761 0
M  V30 3743 N 356.222 1.38976 -0.743202 0
M  V30 3744 C 357.462 2.02193 -0.29954 0
M  V30 3745 C 357.826 1.5771 1.09506 0
M  V30 3746 O 359.027 2.13184 1.63726 0
M  V30 3747 C 357.298 3.55077 -0.406822 0
M  V30 3748 S 358.857 4.38778 -0.0442109 0
M  V30 3749 H 355.675 0.701335 -0.116836 0
M  V30 3750 H 358.277 1.69651 -0.971529 0
M  V30 3751 H 356.981 3.84942 -1.42295 0
M  V30 3752 H 356.512 3.92383 0.282707 0
M  V30 3753 H 358.527 4.82222 1.16947 0
M  V30 3754 N 357.7 0.491464 1.49741 0
M  V30 3755 C 358.663 -0.280906 2.27472 0
M  V30 3756 C 359.663 -0.902454 1.33088 0
M  V30 3757 O 360.853 -0.768465 1.56334 0
M  V30 3758 C 357.985 -1.40209 3.10732 0
M  V30 3759 H 359.178 0.401056 2.97206 0
M  V30 3760 H 356.731 0.246131 1.5435 0
M  V30 3761 H 357.466 -2.11849 2.45541 0
M  V30 3762 H 357.251 -0.961969 3.80117 0
M  V30 3763 H 358.741 -1.9464 3.69466 0
M  V30 3764 N 359.178 -1.55987 0.224894 0
M  V30 3765 C 360.406 -2.02784 -0.410665 0
M  V30 3766 C 360.821 -1.10464 -1.53112 0
M  V30 3767 O 360.178 -0.114871 -1.82138 0
M  V30 3768 C 360.229 -3.49087 -0.939165 0
M  V30 3769 O 359.95 -4.37887 0.136614 0
M  V30 3770 C 361.451 -4.11543 -1.64763 0
M  V30 3771 H 358.671 -0.663484 -0.100148 0
M  V30 3772 H 361.215 -2.01614 0.342326 0
M  V30 3773 H 359.37 -3.50861 -1.64242 0
M  V30 3774 H 359.784 -5.23849 -0.261155 0
M  V30 3775 H 361.258 -5.15673 -1.96939 0
M  V30 3776 H 361.735 -3.56736 -2.56195 0
M  V30 3777 H 362.341 -4.13629 -0.989503 0
M  V30 3778 N 360.656 0.0484629 -1.57525 0
M  V30 3779 C 361.586 1.0549 -2.08313 0
M  V30 3780 C 362.567 1.38929 -0.981463 0
M  V30 3781 O 363.752 1.48151 -1.25558 0
M  V30 3782 C 360.882 2.36162 -2.54646 0
M  V30 3783 C 359.836 2.17016 -3.68901 0
M  V30 3784 C 359.162 3.53278 -4.01371 0
M  V30 3785 C 360.462 1.57219 -4.98076 0
M  V30 3786 H 362.156 0.632195 -2.92649 0
M  V30 3787 H 359.702 0.302654 -1.40784 0
M  V30 3788 H 361.655 3.06882 -2.88793 0
M  V30 3789 H 360.379 2.80456 -1.67368 0
M  V30 3790 H 359.038 1.48733 -3.35073 0
M  V30 3791 H 358.686 3.95185 -3.11188 0
M  V30 3792 H 358.386 3.41299 -4.78318 0
M  V30 3793 H 359.91 4.25391 -4.38035 0
M  V30 3794 H 361.324 2.17832 -5.30304 0
M  V30 3795 H 359.721 1.55871 -5.79503 0
M  V30 3796 H 360.791 0.535956 -4.81929 0
M  V30 3797 N 362.134 1.5431 0.320358 0
M  V30 3798 C 363.382 1.72327 1.05583 0
M  V30 3799 C 363.703 0.50149 1.88441 0
M  V30 3800 O 362.973 -0.48448 1.89815 0
M  V30 3801 H 361.553 0.635387 0.3928 0
M  V30 3802 H 364.215 1.91621 0.356019 0
M  V30 3803 H 363.311 2.60426 1.72003 0
M  V30 3804 N 363.613 -0.582584 1.46437 0
M  V30 3805 C 364.841 -1.36682 1.55324 0
M  V30 3806 C 365.256 -1.87796 0.194409 0
M  V30 3807 O 364.613 -1.63623 -0.808318 0
M  V30 3808 C 364.664 -2.55426 2.55812 0
M  V30 3809 O 364.385 -2.0643 3.86417 0
M  V30 3810 C 365.886 -3.47976 2.74641 0
M  V30 3811 H 363.106 -0.417545 0.525259 0
M  V30 3812 H 365.65 -0.708219 1.91845 0
M  V30 3813 H 363.805 -3.17275 2.22295 0
M  V30 3814 H 364.219 -2.83762 4.41111 0
M  V30 3815 H 365.693 -4.27775 3.48874 0
M  V30 3816 H 366.17 -3.99919 1.81553 0
M  V30 3817 H 366.776 -2.91962 3.09255 0
M  V30 3818 N 365.091 -1.34144 -0.827227 0
M  V30 3819 C 366.319 -1.29325 -1.61501 0
M  V30 3820 C 366.734 0.13354 -1.88327 0
M  V30 3821 O 366.091 1.0793 -1.47164 0
M  V30 3822 C 366.142 -2.07746 -2.95844 0
M  V30 3823 O 365.863 -3.4486 -2.70191 0
M  V30 3824 C 367.364 -2.10273 -3.90256 0
M  V30 3825 H 364.584 -0.445069 -0.50215 0
M  V30 3826 H 367.128 -1.76693 -1.02955 0
M  V30 3827 H 365.283 -1.6403 -3.5096 0
M  V30 3828 H 365.697 -3.85345 -3.55822 0
M  V30 3829 H 367.171 -2.69575 -4.81698 0
M  V30 3830 H 367.648 -1.096 -4.25305 0
M  V30 3831 H 368.254 -2.54059 -3.41078 0
M  V30 3832 N 366.569 1.04691 -1.17803 0
M  V30 3833 C 367.817 1.7743 -0.967617 0
M  V30 3834 C 368.138 1.88359 0.504574 0
M  V30 3835 O 367.408 1.40402 1.36617 0
M  V30 3836 H 365.988 0.657242 -0.355024 0
M  V30 3837 H 368.65 1.2638 -1.48371 0
M  V30 3838 H 367.746 2.78924 -1.40027 0
M  V30 3839 N 368.047 0.979072 1.23499 0
M  V30 3840 C 369.293 0.648178 1.92163 0
M  V30 3841 C 369.626 -0.816049 1.76222 0
M  V30 3842 O 368.901 -1.58849 1.12237 0
M  V30 3843 C 369.184 1.03773 3.44824 0
M  V30 3844 C 369.037 2.55948 3.69879 0
M  V30 3845 C 370.356 0.580653 4.36253 0
M  V30 3846 H 367.475 0.236952 0.69787 0
M  V30 3847 H 370.117 1.22012 1.45647 0
M  V30 3848 H 368.267 0.551058 3.84572 0
M  V30 3849 H 369.939 3.12179 3.3962 0
M  V30 3850 H 368.182 2.98641 3.14636 0
M  V30 3851 H 368.853 2.78255 4.76737 0
M  V30 3852 H 371.329 0.998465 4.03943 0
M  V30 3853 H 370.205 0.881663 5.41773 0
M  V30 3854 H 370.466 -0.519052 4.39042 0
M  V30 3855 N 369.525 -1.3858 0.750561 0
M  V30 3856 C 370.765 -2.02032 0.310258 0
M  V30 3857 C 371.129 -1.58288 -1.08668 0
M  V30 3858 O 372.33 -2.14049 -1.62593 0
M  V30 3859 C 370.601 -3.54856 0.425647 0
M  V30 3860 S 372.16 -4.38748 0.0674797 0
M  V30 3861 H 368.978 -0.700705 0.120554 0
M  V30 3862 H 371.58 -1.69134 0.980512 0
M  V30 3863 H 370.284 -3.84182 1.44335 0
M  V30 3864 H 369.815 -3.92527 -0.261894 0
M  V30 3865 H 371.83 -4.82835 -1.14388 0
M  V30 3866 N 371.003 -0.499398 -1.49478 0
M  V30 3867 C 371.966 0.268838 -2.27618 0
M  V30 3868 C 372.966 0.895383 -1.33565 0
M  V30 3869 O 374.156 0.760164 -1.56739 0
M  V30 3870 C 371.288 1.38559 -3.11471 0
M  V30 3871 H 372.481 -0.416812 -2.96989 0
M  V30 3872 H 370.034 -0.254313 -1.54217 0
M  V30 3873 H 370.769 2.10544 -2.46661 0
M  V30 3874 H 370.554 0.941797 -3.80621 0
M  V30 3875 H 372.044 1.92678 -3.70493 0
M  V30 3876 N 372.481 1.55866 -0.233164 0
M  V30 3877 C 373.728 1.98603 0.395374 0
M  V30 3878 C 374.056 1.12105 1.58942 0
M  V30 3879 O 373.311 0.168656 1.94972 0
M  V30 3880 C 373.61 3.46856 0.861724 0
M  V30 3881 C 373.276 4.50348 -0.223066 0
M  V30 3882 C 371.938 4.78371 -0.521038 0
M  V30 3883 C 374.29 5.12355 -0.956124 0
M  V30 3884 C 371.618 5.6568 -1.55638 0
M  V30 3885 C 373.97 6.00786 -1.98089 0
M  V30 3886 C 372.634 6.27148 -2.28565 0
M  V30 3887 H 371.904 0.726739 0.144677 0
M  V30 3888 H 374.551 1.88491 -0.338114 0
M  V30 3889 H 372.856 3.5423 1.67418 0
M  V30 3890 H 374.553 3.77302 1.35809 0
M  V30 3891 H 371.143 4.28596 0.0193234 0
M  V30 3892 H 375.327 4.90765 -0.739166 0
M  V30 3893 H 370.583 5.84365 -1.798 0
M  V30 3894 H 374.757 6.4788 -2.55391 0
M  V30 3895 H 372.384 6.94597 -3.08932 0
M  V30 3896 N 373.959 -0.0401083 1.57549 0
M  V30 3897 C 375.236 -0.767917 1.79896 0
M  V30 3898 C 375.616 -1.9416 0.82856 0
M  V30 3899 O 374.964 -2.2812 -0.131671 0
M  V30 3900 C 375.174 -1.2113 3.27305 0
M  V30 3901 C 376.522 -1.63175 3.91994 0
M  V30 3902 O 377.546 -1.30616 3.31388 0
M  V30 3903 O 376.405 -2.23565 4.98679 0
M  V30 3904 H 373.499 -0.370441 0.739393 0
M  V30 3905 H 376.045 -0.017737 1.69691 0
M  V30 3906 H 374.817 -0.372937 3.89519 0
M  V30 3907 H 374.44 -2.02183 3.42356 0
M  V30 3908 N 375.437 -1.54477 -0.31217 0
M  V30 3909 C 376.677 -1.74958 -1.05684 0
M  V30 3910 C 377.041 -0.518414 -1.84869 0
M  V30 3911 O 378.242 -0.600759 -2.62001 0
M  V30 3912 C 376.513 -2.99656 -1.94785 0
M  V30 3913 S 378.072 -3.4109 -2.76049 0
M  V30 3914 H 374.89 -0.615104 -0.356606 0
M  V30 3915 H 377.492 -1.92669 -0.331514 0
M  V30 3916 H 376.196 -3.87397 -1.35468 0
M  V30 3917 H 375.727 -2.845 -2.71704 0
M  V30 3918 H 377.742 -2.97283 -3.97287 0
M  V30 3919 N 376.915 0.57481 -1.46744 0
M  V30 3920 C 377.845 1.69337 -1.60771 0
M  V30 3921 C 378.826 1.63825 -0.457736 0
M  V30 3922 O 380.011 1.8172 -0.684947 0
M  V30 3923 C 377.141 3.0798 -1.60517 0
M  V30 3924 C 376.095 3.28327 -2.74564 0
M  V30 3925 C 375.421 4.67578 -2.59373 0
M  V30 3926 C 376.721 3.15398 -4.16319 0
M  V30 3927 H 378.415 1.57853 -2.54407 0
M  V30 3928 H 375.961 0.75799 -1.22436 0
M  V30 3929 H 377.914 3.86061 -1.68923 0
M  V30 3930 H 376.638 3.20381 -0.634305 0
M  V30 3931 H 375.297 2.52649 -2.65639 0
M  V30 3932 H 374.945 4.76755 -1.60353 0
M  V30 3933 H 374.645 4.82144 -3.35873 0
M  V30 3934 H 376.169 5.47817 -2.69682 0
M  V30 3935 H 377.583 3.83315 -4.26313 0
M  V30 3936 H 375.98 3.41482 -4.93468 0
M  V30 3937 H 377.05 2.12372 -4.3592 0
M  V30 3938 N 378.394 1.34581 0.820102 0
M  V30 3939 C 379.619 1.30333 1.61332 0
M  V30 3940 C 380.044 -0.119339 1.87721 0
M  V30 3941 O 379.402 -1.08197 1.45475 0
M  V30 3942 C 379.45 2.10258 2.92957 0
M  V30 3943 O 378.554 1.47404 3.85157 0
M  V30 3944 H 377.895 0.447488 0.490561 0
M  V30 3945 H 380.425 1.77425 1.01889 0
M  V30 3946 H 380.435 2.21718 3.42498 0
M  V30 3947 H 379.11 3.13693 2.73074 0
M  V30 3948 H 377.687 1.44703 3.43679 0
M  V30 3949 N 379.872 -1.04064 1.18357 0
M  V30 3950 C 380.782 -2.15569 0.925596 0
M  V30 3951 C 381.798 -1.7365 -0.110295 0
M  V30 3952 O 382.974 -2.01273 0.0716218 0
M  V30 3953 C 380.039 -3.43704 0.454836 0
M  V30 3954 C 379.1 -4.00004 1.55869 0
M  V30 3955 C 378.333 -5.22023 1.1103 0
M  V30 3956 O 378.556 -5.70392 -0.0309756 0
M  V30 3957 O 377.49 -5.70856 1.90805 0
M  V30 3958 H 381.316 -2.40187 1.8586 0
M  V30 3959 H 378.901 -1.1402 0.965394 0
M  V30 3960 H 380.783 -4.20923 0.200382 0
M  V30 3961 H 379.458 -3.20559 -0.449876 0
M  V30 3962 H 378.365 -3.24172 1.86716 0
M  V30 3963 H 379.698 -4.2749 2.43953 0
M  V30 3964 N 381.35 -0.985608 -1.22978 0
M  V30 3965 C 382.28 -0.549649 -2.26939 0
M  V30 3966 C 383.261 0.419803 -1.64838 0
M  V30 3967 O 384.446 0.31203 -1.91677 0
M  V30 3968 C 381.576 0.143652 -3.47003 0
M  V30 3969 C 380.53 -0.743606 -4.21491 0
M  V30 3970 C 379.856 0.0822027 -5.34637 0
M  V30 3971 C 381.156 -2.03694 -4.80943 0
M  V30 3972 H 382.85 -1.41862 -2.63658 0
M  V30 3973 H 380.396 -0.683571 -1.26741 0
M  V30 3974 H 382.349 0.459985 -4.18882 0
M  V30 3975 H 381.073 1.04711 -3.09359 0
M  V30 3976 H 379.732 -1.04347 -3.51436 0
M  V30 3977 H 379.38 0.986359 -4.93234 0
M  V30 3978 H 379.08 -0.508377 -5.85397 0
M  V30 3979 H 380.604 0.392797 -6.09335 0
M  V30 3980 H 382.018 -1.78504 -5.44802 0
M  V30 3981 H 380.415 -2.57573 -5.42011 0
M  V30 3982 H 381.485 -2.72042 -4.01399 0
M  V30 3983 N 382.828 1.3818 -0.7579 0
M  V30 3984 C 384.076 1.99624 -0.315361 0
M  V30 3985 C 384.397 1.60464 1.10799 0
M  V30 3986 O 383.667 0.863507 1.75842 0
M  V30 3987 H 382.247 0.73831 -0.113611 0
M  V30 3988 H 384.909 1.68878 -0.972952 0
M  V30 3989 H 384.005 3.09754 -0.381931 0
M  V30 3990 N 384.306 0.507319 1.49211 0
M  V30 3991 C 385.717 0.0611118 1.866 0
M  V30 3992 C 386.068 -1.35488 1.41907 0
M  V30 3993 O 385.193 -2.0108 0.799726 0
M  V30 3994 C 385.788 0.104125 3.3864 0
M  V30 3995 C 384.347 -0.28677 3.75306 0
M  V30 3996 C 383.494 0.473893 2.73221 0
M  V30 3997 H 386.445 0.719775 1.41439 0
M  V30 3998 H 386.466 -0.689672 3.74198 0
M  V30 3999 H 385.978 1.13482 3.71138 0
M  V30 4000 H 384.079 -1.32046 3.48417 0
M  V30 4001 H 384.192 0.0370745 4.79086 0
M  V30 4002 H 382.556 -0.0770644 2.54583 0
M  V30 4003 H 383.339 1.50478 3.08563 0
M  V30 4004 N 385.784 -1.5574 0.241426 0
M  V30 4005 C 387.033 -1.97986 -0.385295 0
M  V30 4006 C 387.346 -1.13267 -1.59468 0
M  V30 4007 O 388.552 -1.45501 -2.2922 0
M  V30 4008 C 387.008 -3.52275 -0.736884 0
M  V30 4009 C 386.616 -4.45726 0.450796 0
M  V30 4010 C 388.36 -4.03189 -1.3281 0
M  V30 4011 C 386.267 -5.91352 0.0756662 0
M  V30 4012 H 385.197 -0.739386 -0.147731 0
M  V30 4013 H 387.848 -1.80308 0.340779 0
M  V30 4014 H 386.23 -3.65628 -1.52094 0
M  V30 4015 H 387.404 -4.44131 1.22819 0
M  V30 4016 H 385.719 -4.05264 0.956573 0
M  V30 4017 H 388.316 -5.09505 -1.62201 0
M  V30 4018 H 388.659 -3.50212 -2.25071 0
M  V30 4019 H 389.192 -3.93141 -0.607069 0
M  V30 4020 H 385.931 -6.48354 0.965272 0
M  V30 4021 H 385.451 -5.96095 -0.665635 0
M  V30 4022 H 387.13 -6.46084 -0.344075 0
M  V30 4023 N 387.262 0.0317525 -1.57568 0
M  V30 4024 C 388.502 0.727979 -1.90997 0
M  V30 4025 C 388.866 1.72664 -0.839708 0
M  V30 4026 O 390.067 2.47092 -1.05825 0
M  V30 4027 C 388.338 1.38239 -3.29583 0
M  V30 4028 S 389.897 2.10814 -3.84841 0
M  V30 4029 H 386.715 0.241226 -0.668828 0
M  V30 4030 H 389.317 -0.0173037 -1.95492 0
M  V30 4031 H 388.021 0.642288 -4.05343 0
M  V30 4032 H 387.552 2.16628 -3.28384 0
M  V30 4033 H 389.567 3.3792 -3.63352 0
M  V30 4034 N 388.74 1.54641 0.303973 0
M  V30 4035 C 389.703 1.84646 1.35789 0
M  V30 4036 C 390.703 0.7192 1.4382 0
M  V30 4037 O 391.893 0.987491 1.43507 0
M  V30 4038 C 389.025 2.02407 2.74307 0
M  V30 4039 H 390.218 2.78829 1.10429 0
M  V30 4040 H 387.771 1.46658 0.540487 0
M  V30 4041 H 388.506 1.10502 3.04893 0
M  V30 4042 H 388.291 2.84453 2.69868 0
M  V30 4043 H 389.781 2.27002 3.50514 0
M  V30 4044 N 390.218 -0.567019 1.47046 0
M  V30 4045 C 391.634 -0.891975 1.32348 0
M  V30 4046 C 391.834 -1.99154 0.306616 0
M  V30 4047 O 390.89 -2.50883 -0.28532 0
M  V30 4048 C 392.203 -1.29449 2.7141 0
M  V30 4049 C 393.751 -1.40646 2.79621 0
M  V30 4050 C 394.226 -1.84257 4.19301 0
M  V30 4051 N 395.717 -1.91424 4.21795 0
M  V30 4052 C 396.452 -2.26476 5.26779 0
M  V30 4053 N 395.948 -2.60211 6.42077 0
M  V30 4054 N 397.741 -2.27166 5.14152 0
M  V30 4055 H 389.892 0.159074 2.11803 0
M  V30 4056 H 392.155 0.00849752 0.947962 0
M  V30 4057 H 391.861 -0.560448 3.47206 0
M  V30 4058 H 391.735 -2.25273 3.02542 0
M  V30 4059 H 394.122 -2.13133 2.04104 0
M  V30 4060 H 394.203 -0.430339 2.52154 0
M  V30 4061 H 393.847 -1.12343 4.95319 0
M  V30 4062 H 393.777 -2.82855 4.44185 0
M  V30 4063 H 396.268 -1.6778 3.38612 0
M  V30 4064 H 396.581 -2.85956 7.17948 0
M  V30 4065 H 394.926 -2.57813 6.45413 0
M  V30 4066 H 398.117 -2.00244 4.23107 0
M  V30 4067 H 398.29 -2.54154 5.96079 0
M  V30 4068 N 391.696 -1.35014 -0.812953 0
M  V30 4069 C 392.606 -1.2951 -1.95613 0
M  V30 4070 C 393.622 -0.20107 -1.72834 0
M  V30 4071 O 394.798 -0.42932 -1.96771 0
M  V30 4072 C 391.863 -1.06033 -3.30088 0
M  V30 4073 C 390.924 -2.24688 -3.65805 0
M  V30 4074 C 390.157 -2.02322 -4.93864 0
M  V30 4075 O 390.38 -0.986464 -5.61805 0
M  V30 4076 O 389.314 -2.89525 -5.27692 0
M  V30 4077 H 393.14 -2.25705 -2.03202 0
M  V30 4078 H 390.725 -1.15321 -0.949811 0
M  V30 4079 H 392.607 -0.94763 -4.10607 0
M  V30 4080 H 391.282 -0.128852 -3.23443 0
M  V30 4081 H 390.189 -2.41521 -2.85689 0
M  V30 4082 H 391.522 -3.16261 -3.77147 0
M  V30 4083 N 393.175 1.03435 -1.18907 0
M  V30 4084 C 394.423 1.76394 -0.986382 0
M  V30 4085 C 394.744 1.88883 0.484567 0
M  V30 4086 O 394.014 1.41843 1.3512 0
M  V30 4087 H 392.594 0.65344 -0.361975 0
M  V30 4088 H 395.256 1.248 -1.49703 0
M  V30 4089 H 394.352 2.77424 -1.42978 0
M  V30 4090 N 394.653 0.992116 1.22453 0
M  V30 4091 C 395.583 0.561677 2.26644 0
M  V30 4092 C 396.564 -0.411055 1.65059 0
M  V30 4093 O 397.749 -0.301861 1.9184 0
M  V30 4094 C 394.879 -0.125247 3.47074 0
M  V30 4095 C 393.833 0.765948 4.21091 0
M  V30 4096 C 393.159 -0.0538484 5.34673 0
M  V30 4097 C 394.459 2.06242 4.79856 0
M  V30 4098 H 396.153 1.43259 2.62902 0
M  V30 4099 H 393.699 0.690283 1.26377 0
M  V30 4100 H 395.652 -0.437764 4.1912 0
M  V30 4101 H 394.376 -1.03069 3.0991 0
M  V30 4102 H 393.035 1.0621 3.50878 0
M  V30 4103 H 392.683 -0.960188 4.9375 0
M  V30 4104 H 392.383 0.539415 5.85119 0
M  V30 4105 H 393.907 -0.360477 6.09535 0
M  V30 4106 H 395.321 1.8139 5.43848 0
M  V30 4107 H 393.718 2.60444 5.40638 0
M  V30 4108 H 394.788 2.74167 3.99951 0
M  V30 4109 N 396.131 -1.37776 0.765217 0
M  V30 4110 C 397.377 -2.00604 0.336066 0
M  V30 4111 C 397.732 -1.59657 -1.07366 0
M  V30 4112 O 397.025 -0.829565 -1.7271 0
M  V30 4113 C 397.219 -3.5504 0.410053 0
M  V30 4114 C 397.048 -4.10985 1.82542 0
M  V30 4115 C 395.818 -4.42229 2.44461 0
M  V30 4116 C 398.016 -4.32438 2.78392 0
M  V30 4117 N 395.998 -4.8385 3.77839 0
M  V30 4118 C 397.369 -4.76596 3.96556 0
M  V30 4119 C 399.424 -4.14559 2.75764 0
M  V30 4120 C 398.127 -5.04748 5.12466 0
M  V30 4121 C 400.153 -4.43843 3.90842 0
M  V30 4122 C 399.515 -4.88235 5.07746 0
M  V30 4123 H 395.614 -0.763325 0.169881 0
M  V30 4124 H 398.198 -1.67197 0.997656 0
M  V30 4125 H 396.369 -3.87769 -0.221325 0
M  V30 4126 H 398.101 -4.0468 -0.0405285 0
M  V30 4127 H 394.856 -4.31079 1.96131 0
M  V30 4128 H 395.28 -5.08979 4.46396 0
M  V30 4129 H 399.922 -3.79415 1.86558 0
M  V30 4130 H 397.64 -5.38783 6.02277 0
M  V30 4131 H 401.226 -4.31603 3.90141 0
M  V30 4132 H 400.106 -5.10461 5.95315 0
M  V30 4133 N 397.609 -0.515225 -1.4894 0
M  V30 4134 C 398.539 0.244628 -2.32215 0
M  V30 4135 C 399.52 0.949136 -1.41157 0
M  V30 4136 O 400.705 0.937783 -1.70057 0
M  V30 4137 C 397.835 1.30096 -3.22013 0
M  V30 4138 C 396.789 0.715486 -4.21977 0
M  V30 4139 C 396.115 1.87339 -5.00808 0
M  V30 4140 C 397.415 -0.302982 -5.2142 0
M  V30 4141 H 399.109 -0.450501 -2.95991 0
M  V30 4142 H 396.655 -0.218098 -1.42339 0
M  V30 4143 H 398.608 1.84037 -3.79089 0
M  V30 4144 H 397.332 2.02547 -2.56207 0
M  V30 4145 H 395.991 0.197715 -3.66066 0
M  V30 4146 H 395.639 2.58592 -4.31438 0
M  V30 4147 H 395.339 1.48764 -5.68457 0
M  V30 4148 H 396.863 2.41686 -5.60732 0
M  V30 4149 H 398.277 0.148802 -5.73107 0
M  V30 4150 H 396.674 -0.60532 -5.97039 0
M  V30 4151 H 397.744 -1.21395 -4.69459 0
M  V30 4152 N 399.087 1.5561 -0.249682 0
M  V30 4153 C 400.037 2.18157 0.662673 0
M  V30 4154 C 401.021 1.1383 1.13717 0
M  V30 4155 O 402.213 1.39731 1.08648 0
M  V30 4156 C 399.342 2.88672 1.85805 0
M  V30 4157 C 398.428 4.00258 1.40193 0
M  V30 4158 N 398.819 5.01473 0.660213 0
M  V30 4159 C 397.117 4.12864 1.68698 0
M  V30 4160 C 397.818 5.80155 0.423695 0
M  V30 4161 N 396.794 5.34533 0.988721 0
M  V30 4162 H 400.596 2.93769 0.0878688 0
M  V30 4163 H 398.11 1.62316 -0.0521183 0
M  V30 4164 H 400.107 3.31912 2.5227 0
M  V30 4165 H 398.767 2.14564 2.43705 0
M  V30 4166 H 399.778 5.16971 0.310047 0
M  V30 4167 H 396.455 3.4993 2.27717 0
M  V30 4168 H 397.845 6.71688 -0.168616 0
M  V30 4169 N 400.565 -0.0233959 1.57583 0
M  V30 4170 C 401.814 -0.712133 1.8871 0
M  V30 4171 C 402.127 -1.76217 0.848944 0
M  V30 4172 O 403.333 -2.50389 1.04964 0
M  V30 4173 C 401.789 -1.3177 3.3491 0
M  V30 4174 C 401.397 -0.303715 4.46969 0
M  V30 4175 C 403.141 -1.98598 3.75179 0
M  V30 4176 C 401.048 -0.917945 5.84233 0
M  V30 4177 H 399.978 -0.269735 0.704101 0
M  V30 4178 H 402.629 0.0333114 1.8347 0
M  V30 4179 H 401.011 -2.11304 3.34913 0
M  V30 4180 H 402.185 0.465325 4.58445 0
M  V30 4181 H 400.5 0.2628 4.1557 0
M  V30 4182 H 403.097 -2.45416 4.75053 0
M  V30 4183 H 403.44 -2.80659 3.07468 0
M  V30 4184 H 403.973 -1.25831 3.77374 0
M  V30 4185 H 400.712 -0.136633 6.55358 0
M  V30 4186 H 400.232 -1.65669 5.76467 0
M  V30 4187 H 401.911 -1.4236 6.31144 0
M  V30 4188 N 402.043 -1.548 -0.295768 0
M  V30 4189 C 403.32 -1.65014 -1.05023 0
M  V30 4190 C 403.7 -0.501805 -2.05049 0
M  V30 4191 O 403.048 0.500869 -2.22943 0
M  V30 4192 C 403.258 -3.03252 -1.72741 0
M  V30 4193 C 404.606 -3.60242 -2.24746 0
M  V30 4194 O 405.63 -3.05737 -1.82765 0
M  V30 4195 O 404.489 -4.55687 -3.01681 0
M  V30 4196 H 401.583 -0.669314 -0.485744 0
M  V30 4197 H 404.129 -1.67144 -0.293438 0
M  V30 4198 H 402.901 -3.7827 -1.00138 0
M  V30 4199 H 402.524 -3.04922 -2.55163 0
M  V30 4200 N 403.521 0.559213 -1.47345 0
M  V30 4201 C 404.484 1.64854 -1.59235 0
M  V30 4202 C 405.484 1.53851 -0.467607 0
M  V30 4203 O 406.674 1.58045 -0.732617 0
M  V30 4204 C 403.806 3.04388 -1.53496 0
M  V30 4205 H 404.999 1.55662 -2.56339 0
M  V30 4206 H 402.552 0.778973 -1.35505 0
M  V30 4207 H 403.287 3.19115 -0.577604 0
M  V30 4208 H 403.072 3.13783 -2.35123 0
M  V30 4209 H 404.562 3.83642 -1.6495 0
M  V30 4210 N 404.999 1.35443 0.805782 0
M  V30 4211 C 405.962 1.28301 1.89925 0
M  V30 4212 C 406.962 0.194285 1.59622 0
M  V30 4213 O 408.152 0.448036 1.6834 0
M  V30 4214 C 405.284 0.984997 3.2636 0
M  V30 4215 H 406.477 2.2553 1.97677 0
M  V30 4216 H 404.03 1.19979 1.00173 0
M  V30 4217 H 404.765 0.016603 3.24296 0
M  V30 4218 H 404.55 1.77269 3.4974 0
M  V30 4219 H 406.04 0.960651 4.064 0
M  V30 4220 N 406.477 -1.02803 1.19454 0
M  V30 4221 C 407.707 -1.79581 1.02149 0
M  V30 4222 C 408.115 -1.84182 -0.432851 0
M  V30 4223 O 407.458 -1.28534 -1.31243 0
M  V30 4224 C 407.52 -3.25993 1.51554 0
M  V30 4225 C 407.184 -3.45025 2.99678 0
M  V30 4226 C 408.181 -3.35175 3.97434 0
M  V30 4227 C 405.866 -3.71212 3.38389 0
M  V30 4228 C 407.86 -3.51238 5.31893 0
M  V30 4229 C 405.547 -3.8692 4.73008 0
M  V30 4230 C 406.545 -3.76936 5.69569 0
M  V30 4231 O 406.233 -3.92179 7.01748 0
M  V30 4232 H 405.965 -0.571962 0.360327 0
M  V30 4233 H 408.519 -1.30367 1.58725 0
M  V30 4234 H 406.749 -3.76235 0.893543 0
M  V30 4235 H 408.438 -3.84368 1.30444 0
M  V30 4236 H 409.204 -3.14895 3.68872 0
M  V30 4237 H 405.083 -3.78075 2.6378 0
M  V30 4238 H 408.627 -3.43362 6.07247 0
M  V30 4239 H 404.524 -4.06699 5.01265 0
M  V30 4240 H 405.292 -4.09265 7.08833 0
M  V30 4241 N 407.956 -0.998596 -1.21925 0
M  V30 4242 C 408.919 -0.558679 -2.22287 0
M  V30 4243 C 409.919 0.361525 -1.56683 0
M  V30 4244 O 411.109 0.152695 -1.73529 0
M  V30 4245 C 408.241 0.18661 -3.40389 0
M  V30 4246 H 409.434 -1.4463 -2.62721 0
M  V30 4247 H 406.987 -0.786413 -1.35075 0
M  V30 4248 H 407.722 1.08996 -3.05435 0
M  V30 4249 H 407.507 -0.474188 -3.89222 0
M  V30 4250 H 408.997 0.482367 -4.14805 0
M  V30 4251 N 409.434 1.37368 -0.772513 0
M  V30 4252 C 410.682 1.99279 -0.336516 0
M  V30 4253 C 411.003 1.6163 1.09091 0
M  V30 4254 O 410.273 0.882109 1.74916 0
M  V30 4255 H 408.853 0.737063 -0.121435 0
M  V30 4256 H 411.515 1.67836 -0.990809 0
M  V30 4257 H 410.611 3.09332 -0.414763 0
M  V30 4258 N 410.912 0.523116 1.48665 0
M  V30 4259 C 412.14 -0.0096312 2.06898 0
M  V30 4260 C 412.555 -1.28784 1.38059 0
M  V30 4261 O 411.912 -1.76453 0.465893 0
M  V30 4262 C 411.963 -0.244386 3.60673 0
M  V30 4263 O 411.684 0.983172 4.26925 0
M  V30 4264 C 413.185 -0.818289 4.35682 0
M  V30 4265 H 410.405 0.0304161 0.67031 0
M  V30 4266 H 412.949 0.726799 1.91149 0
M  V30 4267 H 411.104 -0.930847 3.76051 0
M  V30 4268 H 411.518 0.759653 5.1897 0
M  V30 4269 H 412.992 -0.93201 5.44075 0
M  V30 4270 H 413.469 -1.82153 3.99646 0
M  V30 4271 H 414.075 -0.168609 4.24966 0
M  V30 4272 N 412.39 -1.55475 0.257931 0
M  V30 4273 C 413.353 -2.20551 -0.623706 0
M  V30 4274 C 414.353 -1.17809 -1.09443 0
M  V30 4275 O 415.543 -1.42823 -0.997362 0
M  V30 4276 C 412.675 -2.85784 -1.8585 0
M  V30 4277 H 413.868 -2.99848 -0.0557743 0
M  V30 4278 H 411.421 -1.56298 0.0084422 0
M  V30 4279 H 412.156 -2.10453 -2.46739 0
M  V30 4280 H 411.941 -3.61057 -1.52907 0
M  V30 4281 H 413.431 -3.35553 -2.48584 0
M  V30 4282 N 413.868 0.0150385 -1.57593 0
M  V30 4283 C 415.115 0.703001 -1.89906 0
M  V30 4284 C 415.443 1.74604 -0.856944 0
M  V30 4285 O 414.698 1.95197 0.140287 0
M  V30 4286 C 414.997 1.39686 -3.28972 0
M  V30 4287 C 414.663 0.488457 -4.48246 0
M  V30 4288 C 413.325 0.2383 -4.8061 0
M  V30 4289 C 415.677 -0.137881 -5.21018 0
M  V30 4290 C 413.005 -0.646738 -5.83125 0
M  V30 4291 C 415.357 -1.0107 -6.24474 0
M  V30 4292 C 414.021 -1.27019 -6.55303 0
M  V30 4293 H 413.291 0.257246 -0.694914 0
M  V30 4294 H 415.938 -0.037259 -1.91464 0
M  V30 4295 H 414.243 2.21079 -3.23468 0
M  V30 4296 H 415.94 1.93495 -3.51227 0
M  V30 4297 H 412.53 0.693593 -4.22951 0
M  V30 4298 H 416.714 0.0423953 -4.96282 0
M  V30 4299 H 411.97 -0.855937 -6.05379 0
M  V30 4300 H 416.144 -1.50247 -6.79999 0
M  V30 4301 H 413.771 -1.95769 -7.3456 0
M  V30 4302 N 415.346 1.54954 0.287554 0
M  V30 4303 C 416.276 1.89839 1.35954 0
M  V30 4304 C 417.257 0.758675 1.52244 0
M  V30 4305 O 418.442 1.01557 1.65529 0
M  V30 4306 C 415.572 2.15753 2.72154 0
M  V30 4307 C 414.526 3.3159 2.70614 0
M  V30 4308 C 413.852 3.42952 4.10229 0
M  V30 4309 C 415.152 4.68359 2.31165 0
M  V30 4310 H 416.846 2.79625 1.07007 0
M  V30 4311 H 414.392 1.3454 0.513316 0
M  V30 4312 H 416.345 2.38743 3.47246 0
M  V30 4313 H 415.069 1.22752 3.02654 0
M  V30 4314 H 413.728 3.08545 1.97979 0
M  V30 4315 H 413.376 2.47443 4.37928 0
M  V30 4316 H 413.076 4.20826 4.10097 0
M  V30 4317 H 414.6 3.68218 4.87081 0
M  V30 4318 H 416.014 4.9099 2.95976 0
M  V30 4319 H 414.411 5.49044 2.42221 0
M  V30 4320 H 415.481 4.68165 1.26291 0
M  V30 4321 N 416.824 -0.551391 1.4764 0
M  V30 4322 C 418.064 -1.31901 1.56145 0
M  V30 4323 C 418.428 -1.90724 0.221013 0
M  V30 4324 O 419.629 -2.6819 0.180945 0
M  V30 4325 C 417.9 -2.39517 2.65267 0
M  V30 4326 S 419.459 -3.26289 2.93395 0
M  V30 4327 H 416.277 -0.448965 0.551318 0
M  V30 4328 H 418.879 -0.630599 1.85051 0
M  V30 4329 H 417.583 -1.94747 3.6125 0
M  V30 4330 H 417.114 -3.13092 2.38195 0
M  V30 4331 H 419.129 -4.39122 2.31055 0
M  V30 4332 N 418.302 -1.35869 -0.798587 0
M  V30 4333 C 419.713 -1.26498 -1.37314 0
M  V30 4334 C 420.064 0.0991899 -1.95949 0
M  V30 4335 O 419.189 1.0004 -1.91888 0
M  V30 4336 C 419.784 -2.29054 -2.49639 0
M  V30 4337 C 418.343 -2.234 -3.02935 0
M  V30 4338 C 417.49 -2.14329 -1.75949 0
M  V30 4339 H 420.441 -1.46881 -0.600971 0
M  V30 4340 H 420.462 -1.92166 -3.28409 0
M  V30 4341 H 419.974 -3.2833 -2.06933 0
M  V30 4342 H 418.075 -1.27562 -3.50084 0
M  V30 4343 H 418.188 -3.15703 -3.60372 0
M  V30 4344 H 416.552 -1.60435 -1.9782 0
M  V30 4345 H 417.335 -3.15477 -1.35384 0
M  V30 4346 N 419.78 1.02168 -1.19998 0
M  V30 4347 C 420.69 2.14069 -0.959774 0
M  V30 4348 C 421.706 1.73804 0.082655 0
M  V30 4349 O 422.882 2.01133 -0.103633 0
M  V30 4350 C 419.947 3.42936 -0.509459 0
M  V30 4351 C 419.008 3.97474 -1.62213 0
M  V30 4352 C 418.241 5.2019 -1.19321 0
M  V30 4353 O 418.464 5.70369 -0.0597726 0
M  V30 4354 O 417.398 5.67749 -1.99863 0
M  V30 4355 H 421.224 2.37199 -1.89658 0
M  V30 4356 H 418.809 1.12469 -0.983411 0
M  V30 4357 H 420.691 4.20551 -0.267322 0
M  V30 4358 H 419.366 3.21234 0.398821 0
M  V30 4359 H 418.273 3.21161 -1.9185 0
M  V30 4360 H 419.606 4.23555 -2.50723 0
M  V30 4361 N 421.258 1.00505 1.21394 0
M  V30 4362 C 422.505 0.687774 1.90462 0
M  V30 4363 C 422.833 -0.78147 1.7811 0
M  V30 4364 O 422.088 -1.58208 1.1519 0
M  V30 4365 C 422.387 1.0546 3.41486 0
M  V30 4366 C 422.053 2.51812 3.74034 0
M  V30 4367 C 420.715 2.91804 3.82628 0
M  V30 4368 C 423.067 3.46614 3.8924 0
M  V30 4369 C 420.395 4.2556 4.03876 0
M  V30 4370 C 422.747 4.80044 4.11995 0
M  V30 4371 C 421.411 5.19759 4.18816 0
M  V30 4372 H 420.681 0.251674 0.696951 0
M  V30 4373 H 423.328 1.26349 1.43903 0
M  V30 4374 H 421.633 0.397133 3.89782 0
M  V30 4375 H 423.33 0.786976 3.93202 0
M  V30 4376 H 419.92 2.1982 3.67936 0
M  V30 4377 H 424.104 3.16883 3.81967 0
M  V30 4378 H 419.36 4.55901 4.07387 0
M  V30 4379 H 423.534 5.53439 4.22704 0
M  V30 4380 H 421.161 6.23418 4.35033 0
M  V30 4381 N 422.737 -1.36956 0.779787 0
M  V30 4382 C 424.153 -1.52817 0.460342 0
M  V30 4383 C 424.353 -1.7361 -1.02283 0
M  V30 4384 O 423.409 -1.76207 -1.80852 0
M  V30 4385 C 424.722 -2.71983 1.28241 0
M  V30 4386 C 426.27 -2.85849 1.27512 0
M  V30 4387 C 426.745 -4.08008 2.08072 0
M  V30 4388 N 428.236 -4.15135 2.05467 0
M  V30 4389 C 428.971 -5.08711 2.64577 0
M  V30 4390 N 428.467 -6.07792 3.32506 0
M  V30 4391 N 430.26 -5.01254 2.54363 0
M  V30 4392 H 422.411 -1.21713 1.74068 0
M  V30 4393 H 424.674 -0.593294 0.739396 0
M  V30 4394 H 424.38 -2.63109 2.33381 0
M  V30 4395 H 424.254 -3.65882 0.917088 0
M  V30 4396 H 426.641 -2.94189 0.231686 0
M  V30 4397 H 426.722 -1.92886 1.68014 0
M  V30 4398 H 426.366 -4.00429 3.12441 0
M  V30 4399 H 426.296 -5.001 1.64947 0
M  V30 4400 H 428.787 -3.44189 1.5602 0
M  V30 4401 H 429.1 -6.75739 3.74963 0
M  V30 4402 H 427.445 -6.08047 3.36606 0
M  V30 4403 H 430.636 -4.22795 2.00902 0
M  V30 4404 H 430.809 -5.73995 3.00722 0
M  V30 4405 N 424.215 -0.530993 -1.48385 0
M  V30 4406 C 425.463 0.00273189 -2.021 0
M  V30 4407 C 425.784 1.34672 -1.41027 0
M  V30 4408 O 425.054 1.8724 -0.576012 0
M  V30 4409 H 423.634 0.00399774 -0.746989 0
M  V30 4410 H 426.296 -0.695054 -1.82085 0
M  V30 4411 H 425.392 0.11031 -3.11905 0
M  V30 4412 N 425.693 1.55336 -0.266172 0
M  V30 4413 C 426.94 1.99397 0.353158 0
M  V30 4414 C 427.268 1.15451 1.56529 0
M  V30 4415 O 426.523 0.209974 1.9457 0
M  V30 4416 C 426.822 3.48606 0.787957 0
M  V30 4417 C 426.488 4.49773 -0.318541 0
M  V30 4418 C 425.15 4.77158 -0.62239 0
M  V30 4419 C 427.502 5.10212 -1.06459 0
M  V30 4420 C 424.83 5.62251 -1.67602 0
M  V30 4421 C 427.182 5.96449 -2.10788 0
M  V30 4422 C 425.846 6.22158 -2.41817 0
M  V30 4423 H 425.116 0.729644 0.12923 0
M  V30 4424 H 427.763 1.87732 -0.37802 0
M  V30 4425 H 426.068 3.57701 1.59866 0
M  V30 4426 H 427.765 3.80098 1.27775 0
M  V30 4427 H 424.355 4.2854 -0.0715925 0
M  V30 4428 H 428.539 4.89086 -0.843098 0
M  V30 4429 H 423.795 5.80419 -1.92155 0
M  V30 4430 H 427.969 6.42317 -2.69076 0
M  V30 4431 H 425.596 6.87888 -3.23596 0
M  V30 4432 N 427.171 -0.0066808 1.57599 0
M  V30 4433 C 428.101 -0.999296 2.11036 0
M  V30 4434 C 429.082 -1.36278 1.01795 0
M  V30 4435 O 430.267 -1.4477 1.29442 0
M  V30 4436 C 427.397 -2.29328 2.60818 0
M  V30 4437 C 426.351 -2.07159 3.74525 0
M  V30 4438 C 425.677 -3.42512 4.10596 0
M  V30 4439 C 426.977 -1.43959 5.02069 0
M  V30 4440 H 428.671 -0.554382 2.94223 0
M  V30 4441 H 426.217 -0.265221 1.41536 0
M  V30 4442 H 428.17 -2.99117 2.96828 0
M  V30 4443 H 426.894 -2.7592 1.74745 0
M  V30 4444 H 425.553 -1.39797 3.38899 0
M  V30 4445 H 425.201 -3.86795 3.21556 0
M  V30 4446 H 424.901 -3.28498 4.87199 0
M  V30 4447 H 426.425 -4.13628 4.4916 0
M  V30 4448 H 427.839 -2.03696 5.35893 0
M  V30 4449 H 426.236 -1.40452 5.83432 0
M  V30 4450 H 427.306 -0.407992 4.83181 0
M  V30 4451 N 428.649 -1.55105 -0.279332 0
M  V30 4452 C 429.596 -1.8755 -1.34513 0
M  V30 4453 C 430.566 -0.726384 -1.49375 0
M  V30 4454 O 431.751 -0.977063 -1.63884 0
M  V30 4455 C 428.891 -2.14738 -2.70151 0
M  V30 4456 C 428.004 -3.42285 -2.63562 0
M  V30 4457 C 427.139 -3.59206 -3.91337 0
M  V30 4458 C 426.178 -4.80467 -3.79233 0
M  V30 4459 N 425.315 -4.94079 -4.98829 0
M  V30 4460 H 430.155 -2.78456 -1.06143 0
M  V30 4461 H 427.692 -1.37867 -0.512936 0
M  V30 4462 H 429.65 -2.28501 -3.49061 0
M  V30 4463 H 428.28 -1.27075 -2.96735 0
M  V30 4464 H 427.332 -3.37029 -1.76397 0
M  V30 4465 H 428.644 -4.31328 -2.50515 0
M  V30 4466 H 427.798 -3.72751 -4.78687 0
M  V30 4467 H 426.537 -2.68337 -4.07243 0
M  V30 4468 H 425.542 -4.66932 -2.90266 0
M  V30 4469 H 426.767 -5.72765 -3.64852 0
M  V30 4470 H 424.713 -4.06139 -5.15158 0
M  V30 4471 H 424.63 -5.77156 -4.8829 0
M  V30 4472 H 425.898 -5.12003 -5.8777 0
M  V30 4473 N 430.127 0.543554 -1.4793 0
M  V30 4474 C 431.375 1.29752 -1.54948 0
M  V30 4475 C 431.696 1.93764 -0.219242 0
M  V30 4476 O 430.966 1.80639 0.75805 0
M  V30 4477 H 429.546 0.481874 -0.570795 0
M  V30 4478 H 432.208 0.633636 -1.84312 0
M  V30 4479 H 431.304 2.08392 -2.32334 0
M  V30 4480 N 431.605 1.3629 0.791371 0
M  V30 4481 C 432.854 1.29742 1.54434 0
M  V30 4482 C 433.167 -0.121729 1.95221 0
M  V30 4483 O 434.373 -0.309579 2.69729 0
M  V30 4484 C 432.829 2.27623 2.78776 0
M  V30 4485 C 432.437 3.74963 2.45166 0
M  V30 4486 C 434.181 2.30047 3.56761 0
M  V30 4487 C 432.088 4.64626 3.65891 0
M  V30 4488 H 431.018 0.482113 0.579727 0
M  V30 4489 H 433.669 1.61642 0.868565 0
M  V30 4490 H 432.051 1.88714 3.48142 0
M  V30 4491 H 433.225 4.22596 1.83709 0
M  V30 4492 H 431.54 3.75295 1.80396 0
M  V30 4493 H 434.137 2.94247 4.46456 0
M  V30 4494 H 434.48 1.30846 3.95203 0
M  V30 4495 H 435.013 2.67563 2.94372 0
M  V30 4496 H 431.752 5.64883 3.32547 0
M  V30 4497 H 431.272 4.2171 4.26521 0
M  V30 4498 H 432.951 4.80801 4.32943 0
M  V30 4499 N 433.083 -1.0153 1.20538 0
M  V30 4500 C 433.993 -2.13557 0.971113 0
M  V30 4501 C 435.009 -1.73845 -0.0734366 0
M  V30 4502 O 436.185 -2.01075 0.114299 0
M  V30 4503 C 433.25 -3.42661 0.527639 0
M  V30 4504 C 432.311 -3.96608 1.64319 0
M  V30 4505 C 431.544 -5.1955 1.22078 0
M  V30 4506 O 431.767 -5.70329 0.0900198 0
M  V30 4507 O 430.701 -5.66681 2.02871 0
M  V30 4508 H 434.527 -2.3619 1.90913 0
M  V30 4509 H 432.112 -1.11946 0.989362 0
M  V30 4510 H 433.994 -4.20404 0.289621 0
M  V30 4511 H 432.669 -3.21441 -0.381779 0
M  V30 4512 H 431.576 -3.20139 1.93551 0
M  V30 4513 H 432.909 -4.22219 2.52966 0
M  V30 4514 N 434.561 -1.01147 -1.20859 0
M  V30 4515 C 435.791 -0.715872 -1.93801 0
M  V30 4516 C 436.199 0.726592 -1.74692 0
M  V30 4517 O 435.542 1.50397 -1.05482 0
M  V30 4518 C 435.604 -0.965269 -3.46299 0
M  V30 4519 C 435.268 -2.39584 -3.89164 0
M  V30 4520 C 436.265 -3.3764 -3.95342 0
M  V30 4521 C 433.95 -2.73522 -4.21297 0
M  V30 4522 C 435.944 -4.67698 -4.33056 0
M  V30 4523 C 433.631 -4.03794 -4.58687 0
M  V30 4524 C 434.629 -5.00693 -4.64538 0
M  V30 4525 O 434.317 -6.28635 -5.01072 0
M  V30 4526 H 434.049 -0.262524 -0.622942 0
M  V30 4527 H 436.603 -1.35413 -1.54443 0
M  V30 4528 H 434.833 -0.269847 -3.85757 0
M  V30 4529 H 436.522 -0.662051 -4.00464 0
M  V30 4530 H 437.288 -3.12757 -3.70686 0
M  V30 4531 H 433.167 -1.9879 -4.15937 0
M  V30 4532 H 436.711 -5.4333 -4.37537 0
M  V30 4533 H 432.608 -4.28459 -4.82797 0
M  V30 4534 H 433.376 -6.32847 -5.19083 0
M  V30 4535 N 436.039 1.36541 -0.78704 0
M  V30 4536 C 437.002 2.28413 -0.189778 0
M  V30 4537 C 438.002 1.48719 0.611499 0
M  V30 4538 O 439.192 1.68737 0.432842 0
M  V30 4539 C 436.324 3.32824 0.737638 0
M  V30 4540 H 437.517 2.82743 -0.999831 0
M  V30 4541 H 435.07 1.46065 -0.556298 0
M  V30 4542 H 435.805 2.83646 1.57212 0
M  V30 4543 H 435.59 3.91752 0.165044 0
M  V30 4544 H 437.08 4.0144 1.15047 0
M  V30 4545 N 437.518 0.538854 1.48102 0
M  V30 4546 C 438.795 -0.0568108 1.95517 0
M  V30 4547 C 439.175 -1.50408 1.48124 0
M  V30 4548 O 438.523 -2.17133 0.711727 0
M  V30 4549 C 438.733 0.0696262 3.48931 0
M  V30 4550 C 440.081 -0.0851202 4.24515 0
M  V30 4551 O 441.105 -0.0037347 3.562 0
M  V30 4552 O 439.964 -0.257025 5.45895 0
M  V30 4553 H 437.058 -0.0743695 0.823649 0
M  V30 4554 H 439.604 0.604081 1.58584 0
M  V30 4555 H 438.376 1.07744 3.76174 0
M  V30 4556 H 437.999 -0.629714 3.92582 0
M  V30 4557 N 438.996 -1.55193 0.274407 0
M  V30 4558 C 440.221 -2.04446 -0.348824 0
M  V30 4559 C 440.646 -1.15149 -1.48735 0
M  V30 4560 O 440.004 -0.149952 -1.80679 0
M  V30 4561 C 440.052 -3.51431 -0.808009 0
M  V30 4562 O 439.156 -3.65225 -1.91531 0
M  V30 4563 H 438.497 -0.66006 -0.0722276 0
M  V30 4564 H 441.027 -2.00481 0.408498 0
M  V30 4565 H 441.037 -3.92781 -1.10395 0
M  V30 4566 H 439.712 -4.15892 0.0249865 0
M  V30 4567 H 438.289 -3.35778 -1.62196 0
M  V30 4568 N 440.474 -0.00167713 -1.576 0
M  V30 4569 C 441.721 0.68282 -1.90641 0
M  V30 4570 C 442.049 1.73686 -0.875415 0
M  V30 4571 O 441.304 1.95334 0.119575 0
M  V30 4572 C 441.603 1.36189 -3.30435 0
M  V30 4573 C 441.269 0.440887 -4.48739 0
M  V30 4574 C 439.931 0.187312 -4.80835 0
M  V30 4575 C 442.283 -0.193134 -5.20842 0
M  V30 4576 C 439.611 -0.70855 -5.82406 0
M  V30 4577 C 441.963 -1.07688 -6.23367 0
M  V30 4578 C 440.627 -1.33962 -6.53919 0
M  V30 4579 H 439.897 0.249862 -0.697603 0
M  V30 4580 H 442.544 -0.0575642 -1.91413 0
M  V30 4581 H 440.849 2.17636 -3.25794 0
M  V30 4582 H 442.546 1.89759 -3.5326 0
M  V30 4583 H 439.136 0.648694 -4.23663 0
M  V30 4584 H 443.32 -0.0102445 -4.96299 0
M  V30 4585 H 438.576 -0.920097 -6.04437 0
M  V30 4586 H 442.75 -1.57451 -6.78367 0
M  V30 4587 H 440.377 -2.03549 -7.32442 0
M  V30 4588 N 441.952 1.55251 0.271103 0
M  V30 4589 C 443.18 1.79974 1.02064 0
M  V30 4590 C 443.595 0.574003 1.79863 0
M  V30 4591 O 442.952 -0.456962 1.76686 0
M  V30 4592 C 443.003 3.02603 1.97772 0
M  V30 4593 O 442.724 4.20443 1.23124 0
M  V30 4594 C 444.225 3.39944 2.84522 0
M  V30 4595 H 441.445 0.599489 0.301419 0
M  V30 4596 H 443.989 2.02268 0.301313 0
M  V30 4597 H 442.144 2.8243 2.65165 0
M  V30 4598 H 442.558 4.89783 1.87651 0
M  V30 4599 H 444.032 4.28915 3.47471 0
M  V30 4600 H 444.509 2.59432 3.54389 0
M  V30 4601 H 445.115 3.62383 2.22618 0
M  V30 4602 N 443.43 -0.535701 1.48216 0
M  V30 4603 C 444.677 -1.29183 1.55942 0
M  V30 4604 C 445.005 -1.93125 0.230857 0
M  V30 4605 O 444.26 -1.79556 -0.778331 0
M  V30 4606 C 444.559 -2.4068 2.64212 0
M  V30 4607 C 444.225 -1.94428 4.06827 0
M  V30 4608 C 442.887 -1.81532 4.45645 0
M  V30 4609 C 445.239 -1.59405 4.96225 0
M  V30 4610 C 442.567 -1.31939 5.71672 0
M  V30 4611 C 444.919 -1.11276 6.22736 0
M  V30 4612 C 443.583 -0.969924 6.60416 0
M  V30 4613 H 442.853 -0.472715 0.570632 0
M  V30 4614 H 445.5 -0.598437 1.81909 0
M  V30 4615 H 443.805 -3.15666 2.32083 0
M  V30 4616 H 445.502 -2.98822 2.67407 0
M  V30 4617 H 442.092 -2.05415 3.76168 0
M  V30 4618 H 446.276 -1.68231 4.66917 0
M  V30 4619 H 441.532 -1.19562 5.99596 0
M  V30 4620 H 445.706 -0.832453 6.91407 0
M  V30 4621 H 443.333 -0.583436 7.57958 0
M  V30 4622 N 444.908 -1.36708 -0.784132 0
M  V30 4623 C 445.856 -1.31533 -1.91838 0
M  V30 4624 C 446.85 -0.206205 -1.6814 0
M  V30 4625 O 448.056 -0.373519 -1.76082 0
M  V30 4626 H 444.431 -0.409613 -0.630651 0
M  V30 4627 H 446.402 -2.2731 -1.9332 0
M  V30 4628 C 445.151 -1.12679 -3.28936 0
M  V30 4629 H 444.474 -1.97274 -3.4774 0
M  V30 4630 H 445.914 -1.13106 -4.08636 0
M  V30 4631 C 444.373 0.168281 -3.36479 0
M  V30 4632 O 444.903 1.15625 -3.84699 0
M  V30 4633 N 443.109 0.214762 -2.89805 0
M  V30 4634 H 442.656 -0.589852 -2.50756 0
M  V30 4635 H 442.614 1.08094 -2.95234 0
M  V30 4636 N 446.386 1.0089 -1.21074 0
M  V30 4637 C 447.797 1.56056 -1.02486 0
M  V30 4638 C 448.148 1.91728 0.416506 0
M  V30 4639 O 447.273 1.73066 1.29912 0
M  V30 4640 C 447.868 2.83563 -1.85411 0
M  V30 4641 C 446.427 3.3523 -1.71166 0
M  V30 4642 C 445.574 2.0846 -1.82865 0
M  V30 4643 H 448.525 0.831818 -1.35154 0
M  V30 4644 H 448.546 3.55286 -1.36205 0
M  V30 4645 H 448.058 2.57569 -2.9031 0
M  V30 4646 H 446.159 3.66167 -0.689361 0
M  V30 4647 H 446.272 4.06913 -2.52901 0
M  V30 4648 H 444.636 2.21275 -1.26132 0
M  V30 4649 H 445.419 1.84883 -2.89263 0
M  V30 4650 N 447.864 1.01787 1.20321 0
M  V30 4651 C 449.089 0.727009 1.9424 0
M  V30 4652 C 449.514 -0.706179 1.74341 0
M  V30 4653 O 448.872 -1.48609 1.03852 0
M  V30 4654 C 448.92 1.06958 3.44372 0
M  V30 4655 O 448.024 0.181983 4.11998 0
M  V30 4656 H 447.365 0.269626 0.606793 0
M  V30 4657 H 449.895 1.36158 1.52716 0
M  V30 4658 H 449.905 1.02182 3.94997 0
M  V30 4659 H 448.58 2.11378 3.58179 0
M  V30 4660 H 447.157 0.287378 3.71791 0
M  V30 4661 N 449.342 -1.36122 0.79427 0
M  V30 4662 C 450.289 -2.29982 0.194101 0
M  V30 4663 C 451.259 -1.52214 -0.664833 0
M  V30 4664 O 452.444 -1.80702 -0.612498 0
M  V30 4665 C 449.584 -3.38706 -0.661244 0
M  V30 4666 C 448.697 -4.31456 0.216766 0
M  V30 4667 C 447.832 -5.27265 -0.645411 0
M  V30 4668 C 446.871 -6.11653 0.233756 0
M  V30 4669 N 446.008 -6.99636 -0.587682 0
M  V30 4670 H 450.848 -2.80722 0.999965 0
M  V30 4671 H 448.385 -1.38172 0.504677 0
M  V30 4672 H 450.343 -4.00394 -1.17219 0
M  V30 4673 H 448.973 -2.89274 -1.43249 0
M  V30 4674 H 448.025 -3.7088 0.845724 0
M  V30 4675 H 449.337 -4.90724 0.893973 0
M  V30 4676 H 448.491 -5.94266 -1.22198 0
M  V30 4677 H 447.23 -4.68463 -1.35623 0
M  V30 4678 H 446.235 -5.4361 0.82269 0
M  V30 4679 H 447.46 -6.72531 0.942247 0
M  V30 4680 H 445.406 -6.43337 -1.2827 0
M  V30 4681 H 445.323 -7.55993 0.0317402 0
M  V30 4682 H 446.591 -7.71001 -1.14792 0
M  V30 4683 N 450.82 -0.546701 -1.47814 0
M  V30 4684 C 452.066 -0.0269594 -2.03382 0
M  V30 4685 C 452.421 1.30406 -1.41464 0
M  V30 4686 O 451.714 1.8332 -0.557151 0
M  V30 4687 C 451.908 0.134869 -3.57145 0
M  V30 4688 C 451.737 -1.17891 -4.33972 0
M  V30 4689 C 450.507 -1.74336 -4.74273 0
M  V30 4690 C 452.705 -2.09361 -4.69758 0
M  V30 4691 N 450.687 -2.99829 -5.35701 0
M  V30 4692 C 452.058 -3.19431 -5.31379 0
M  V30 4693 C 454.113 -2.09484 -4.51687 0
M  V30 4694 C 452.816 -4.2971 -5.76838 0
M  V30 4695 C 454.842 -3.18767 -4.98138 0
M  V30 4696 C 454.204 -4.27557 -5.59799 0
M  V30 4697 H 450.303 -0.0517733 -0.780284 0
M  V30 4698 H 452.887 -0.731673 -1.80429 0
M  V30 4699 H 451.058 0.80869 -3.79888 0
M  V30 4700 H 452.79 0.655726 -3.99352 0
M  V30 4701 H 449.545 -1.28265 -4.559 0
M  V30 4702 H 449.969 -3.63765 -5.70968 0
M  V30 4703 H 454.611 -1.26663 -4.03381 0
M  V30 4704 H 452.329 -5.13297 -6.24141 0
M  V30 4705 H 455.915 -3.19937 -4.85934 0
M  V30 4706 H 454.795 -5.10725 -5.95088 0
M  V30 4707 N 452.299 1.55045 -0.282633 0
M  V30 4708 C 453.232 2.18951 0.64311 0
M  V30 4709 C 454.21 1.15287 1.14664 0
M  V30 4710 O 455.394 1.43846 1.21822 0
M  V30 4711 C 452.521 2.81874 1.87789 0
M  V30 4712 C 451.567 3.98906 1.50919 0
M  V30 4713 S 452.4 5.3234 0.580884 0
M  V30 4714 C 453.556 5.98737 1.82387 0
M  V30 4715 H 453.789 2.97131 0.100138 0
M  V30 4716 H 451.322 1.54255 -0.0668514 0
M  V30 4717 H 453.28 3.18757 2.58658 0
M  V30 4718 H 451.941 2.03573 2.392 0
M  V30 4719 H 451.134 4.4165 2.42819 0
M  V30 4720 H 450.736 3.63485 0.88061 0
M  V30 4721 H 453.028 6.18427 2.76684 0
M  V30 4722 H 453.971 6.93318 1.4393 0
M  V30 4723 H 454.379 5.28177 1.99223 0
M  V30 4724 N 453.777 0.010035 1.57597 0
M  V30 4725 C 454.71 -1.01234 2.04516 0
M  V30 4726 C 455.688 -1.32886 0.937024 0
M  V30 4727 O 456.872 -1.44879 1.20592 0
M  V30 4728 C 453.999 -2.33738 2.45121 0
M  V30 4729 C 453.045 -2.17679 3.66767 0
M  V30 4730 S 453.878 -1.49343 5.14254 0
M  V30 4731 C 455.034 -2.83256 5.58137 0
M  V30 4732 H 455.267 -0.612866 2.90914 0
M  V30 4733 H 452.8 -0.201124 1.53084 0
M  V30 4734 H 454.758 -3.09922 2.69182 0
M  V30 4735 H 453.419 -2.70823 1.59103 0
M  V30 4736 H 452.612 -3.1559 3.92962 0
M  V30 4737 H 452.214 -1.4964 3.42759 0
M  V30 4738 H 454.506 -3.79538 5.6121 0
M  V30 4739 H 455.449 -2.61749 6.57946 0
M  V30 4740 H 455.857 -2.87627 4.85727 0
M  V30 4741 N 455.255 -1.55392 -0.262866 0
M  V30 4742 C 456.501 -1.76737 -0.99458 0
M  V30 4743 C 456.834 -0.572453 -1.85571 0
M  V30 4744 O 456.109 0.429732 -1.89693 0
M  V30 4745 C 456.392 -3.07824 -1.8686 0
M  V30 4746 C 456.245 -4.3769 -1.03672 0
M  V30 4747 C 457.564 -3.35021 -2.85393 0
M  V30 4748 H 454.683 -0.643005 -0.360157 0
M  V30 4749 H 457.325 -1.88126 -0.266216 0
M  V30 4750 H 455.475 -2.98245 -2.48962 0
M  V30 4751 H 457.147 -4.59238 -0.43563 0
M  V30 4752 H 455.39 -4.32461 -0.340513 0
M  V30 4753 H 456.061 -5.25759 -1.6817 0
M  V30 4754 H 458.537 -3.44458 -2.33426 0
M  V30 4755 H 457.413 -4.27989 -3.43681 0
M  V30 4756 H 457.674 -2.55153 -3.61039 0
M  V30 4757 N 456.733 0.527833 -1.48498 0
M  V30 4758 C 457.683 1.62844 -1.5958 0
M  V30 4759 C 458.667 1.54397 -0.452809 0
M  V30 4760 O 459.859 1.62381 -0.704364 0
M  V30 4761 C 456.988 3.01557 -1.64067 0
M  V30 4762 C 456.074 3.151 -2.83853 0
M  V30 4763 N 456.465 2.9861 -4.08247 0
M  V30 4764 C 454.763 3.46158 -2.8123 0
M  V30 4765 C 455.464 3.15626 -4.88626 0
M  V30 4766 N 454.44 3.43298 -4.21483 0
M  V30 4767 H 458.242 1.48708 -2.53502 0
M  V30 4768 H 455.756 0.733343 -1.44899 0
M  V30 4769 H 457.753 3.8062 -1.70101 0
M  V30 4770 H 456.413 3.16783 -0.712636 0
M  V30 4771 H 457.424 2.75329 -4.3865 0
M  V30 4772 H 454.101 3.67728 -1.97692 0
M  V30 4773 H 455.491 3.07596 -5.97356 0
M  V30 4774 N 458.211 1.37122 0.776871 0
M  V30 4775 C 459.458 1.32047 1.53524 0
M  V30 4776 C 459.786 -0.0965631 1.9426 0
M  V30 4777 O 459.041 -1.06866 1.63945 0
M  V30 4778 C 459.34 2.20068 2.81611 0
M  V30 4779 C 459.006 3.68423 2.59953 0
M  V30 4780 C 457.668 4.08854 2.53755 0
M  V30 4781 C 460.02 4.62431 2.40431 0
M  V30 4782 C 457.348 5.41417 2.26018 0
M  V30 4783 C 459.7 5.95225 2.14219 0
M  V30 4784 C 458.364 6.34767 2.06462 0
M  V30 4785 H 457.634 0.483196 0.561785 0
M  V30 4786 H 460.281 1.69284 0.895268 0
M  V30 4787 H 458.586 1.75809 3.50141 0
M  V30 4788 H 460.283 2.13458 3.39465 0
M  V30 4789 H 456.873 3.36354 2.65638 0
M  V30 4790 H 461.057 4.32057 2.44213 0
M  V30 4791 H 456.313 5.71022 2.18504 0
M  V30 4792 H 460.487 6.67626 1.98112 0
M  V30 4793 H 458.114 7.37413 1.84733 0
M  V30 4794 N 459.689 -1.00246 1.21608 0
M  V30 4795 C 460.966 -1.71336 0.943568 0
M  V30 4796 C 461.346 -2.03972 -0.543943 0
M  V30 4797 O 460.694 -1.71545 -1.50946 0
M  V30 4798 C 460.904 -2.97094 1.83128 0
M  V30 4799 C 462.252 -3.70071 2.08165 0
M  V30 4800 O 463.276 -3.07081 1.80498 0
M  V30 4801 O 462.135 -4.83376 2.54971 0
M  V30 4802 H 459.229 -0.747386 0.354039 0
M  V30 4803 H 461.775 -1.05967 1.32549 0
M  V30 4804 H 460.547 -2.69407 2.83788 0
M  V30 4805 H 460.17 -3.70204 1.45034 0
M  V30 4806 N 461.167 -1.02423 -1.1978 0
M  V30 4807 C 462.407 -0.726635 -1.91048 0
M  V30 4808 C 462.771 0.730947 -1.77542 0
M  V30 4809 O 463.972 1.14141 -2.43362 0
M  V30 4810 C 462.243 -1.15964 -3.38064 0
M  V30 4811 S 463.802 -0.985172 -4.27598 0
M  V30 4812 H 460.62 -0.264679 -0.659899 0
M  V30 4813 H 463.222 -1.31309 -1.44838 0
M  V30 4814 H 461.926 -2.21619 -3.45417 0
M  V30 4815 H 461.457 -0.566274 -3.89303 0
M  V30 4816 H 463.472 0.106946 -4.96085 0
M  V30 4817 N 462.645 1.35699 -0.801477 0
M  V30 4818 C 463.873 2.03157 -0.391768 0
M  V30 4819 C 464.288 1.60412 0.995668 0
M  V30 4820 O 463.645 0.799228 1.64069 0
M  V30 4821 C 463.696 3.58566 -0.459671 0
M  V30 4822 O 463.417 3.99756 -1.7924 0
M  V30 4823 C 464.918 4.4328 -0.0421205 0
M  V30 4824 H 462.138 0.651688 -0.159825 0
M  V30 4825 H 464.682 1.73426 -1.08368 0
M  V30 4826 H 462.837 3.86963 0.183939 0
M  V30 4827 H 463.251 4.94387 -1.75162 0
M  V30 4828 H 464.725 5.51821 -0.140754 0
M  V30 4829 H 465.202 4.27383 1.01196 0
M  V30 4830 H 465.808 4.20168 -0.658687 0
M  V30 4831 N 464.123 0.554532 1.47522 0
M  V30 4832 C 465.371 0.0294208 2.02079 0
M  V30 4833 C 465.692 -1.32411 1.43151 0
M  V30 4834 O 464.962 -1.863 0.605728 0
M  V30 4835 H 463.542 0.00788672 0.746958 0
M  V30 4836 H 466.204 0.723934 1.80956 0
M  V30 4837 H 465.3 -0.0606745 3.12041 0
M  V30 4838 N 465.601 -1.54893 0.290851 0
M  V30 4839 C 466.848 -1.99933 -0.321391 0
M  V30 4840 C 467.176 -1.17927 -1.54672 0
M  V30 4841 O 466.431 -0.240902 -1.94212 0
M  V30 4842 C 466.73 -3.49815 -0.732397 0
M  V30 4843 C 466.396 -4.4921 0.390056 0
M  V30 4844 C 465.058 -4.76107 0.698223 0
M  V30 4845 C 467.41 -5.08453 1.14562 0
M  V30 4846 C 464.738 -5.59514 1.76526 0
M  V30 4847 C 467.09 -5.9302 2.2025 0
M  V30 4848 C 465.754 -6.18232 2.51684 0
M  V30 4849 H 465.024 -0.731608 -0.117605 0
M  V30 4850 H 467.671 -1.87107 0.407839 0
M  V30 4851 H 465.976 -3.60199 -1.54155 0
M  V30 4852 H 467.673 -3.82083 -1.21712 0
M  V30 4853 H 464.263 -4.28372 0.13976 0
M  V30 4854 H 468.447 -4.87683 0.920801 0
M  V30 4855 H 463.703 -5.77289 2.01364 0
M  V30 4856 H 467.877 -6.37955 2.7926 0
M  V30 4857 H 465.504 -6.82653 3.34499 0
M  V30 4858 N 467.08 -0.0183926 -1.57589 0
M  V30 4859 C 468.326 0.657813 -1.92469 0
M  V30 4860 C 468.681 1.70349 -0.894375 0
M  V30 4861 O 467.974 1.91384 0.0910389 0
M  V30 4862 C 468.168 1.32676 -3.31861 0
M  V30 4863 C 467.997 0.347403 -4.48356 0
M  V30 4864 C 466.767 -0.0488653 -5.05276 0
M  V30 4865 C 468.965 -0.393931 -5.12789 0
M  V30 4866 N 466.947 -1.02451 -6.05291 0
M  V30 4867 C 468.318 -1.22367 -6.07804 0
M  V30 4868 C 470.373 -0.455789 -4.95809 0
M  V30 4869 C 469.076 -2.10966 -6.87667 0
M  V30 4870 C 471.102 -1.32908 -5.76272 0
M  V30 4871 C 470.464 -2.14662 -6.70894 0
M  V30 4872 H 466.563 0.21335 -0.752334 0
M  V30 4873 H 469.147 -0.0830547 -1.94523 0
M  V30 4874 H 467.318 2.03782 -3.30647 0
M  V30 4875 H 469.05 1.95913 -3.54119 0
M  V30 4876 H 465.805 0.323356 -4.72495 0
M  V30 4877 H 466.229 -1.50826 -6.59985 0
M  V30 4878 H 470.871 0.162017 -4.22489 0
M  V30 4879 H 468.589 -2.73807 -7.603 0
M  V30 4880 H 472.175 -1.38109 -5.6517 0
M  V30 4881 H 471.055 -2.81143 -7.32071 0
M  V30 4882 N 468.558 1.5553 0.254621 0
M  V30 4883 C 469.804 1.77262 0.985193 0
M  V30 4884 C 470.137 0.582286 1.85265 0
M  V30 4885 O 469.412 -0.419666 1.89919 0
M  V30 4886 C 469.695 3.0881 1.85225 0
M  V30 4887 C 469.548 4.38233 1.0135 0
M  V30 4888 C 470.867 3.3653 2.83612 0
M  V30 4889 H 467.986 0.644906 0.356742 0
M  V30 4890 H 470.628 1.88264 0.256236 0
M  V30 4891 H 468.778 2.99562 2.47376 0
M  V30 4892 H 470.45 4.59463 0.411269 0
M  V30 4893 H 468.693 4.32636 0.317574 0
M  V30 4894 H 469.364 5.26644 1.65379 0
M  V30 4895 H 471.84 3.45691 2.31596 0
M  V30 4896 H 470.716 4.29805 3.41407 0
M  V30 4897 H 470.977 2.57064 3.59681 0
M  V30 4898 N 470.036 -0.519951 1.48776 0
M  V30 4899 C 470.983 -1.62352 1.64044 0
M  V30 4900 C 471.953 -1.58945 0.482251 0
M  V30 4901 O 473.138 -1.77219 0.706971 0
M  V30 4902 C 470.278 -3.00579 1.69547 0
M  V30 4903 C 469.391 -3.14145 2.96541 0
M  V30 4904 C 468.526 -4.42991 2.93142 0
M  V30 4905 C 467.565 -4.50122 4.14797 0
M  V30 4906 N 466.702 -5.7037 4.09418 0
M  V30 4907 H 471.542 -1.48643 2.58281 0
M  V30 4908 H 469.079 -0.723516 1.28077 0
M  V30 4909 H 471.037 -3.80671 1.70719 0
M  V30 4910 H 469.667 -3.13036 0.787918 0
M  V30 4911 H 468.719 -2.27239 3.05068 0
M  V30 4912 H 470.031 -3.15275 3.86527 0
M  V30 4913 H 469.185 -5.31385 2.92772 0
M  V30 4914 H 467.924 -4.44398 2.00902 0
M  V30 4915 H 466.929 -3.60133 4.15433 0
M  V30 4916 H 468.154 -4.50445 5.08208 0
M  V30 4917 H 466.1 -5.72655 3.20004 0
M  V30 4918 H 466.017 -5.73036 4.93119 0
M  V30 4919 H 467.285 -6.61023 4.13121 0
M  V30 4920 N 471.514 -1.37532 -0.769588 0
M  V30 4921 C 472.791 -1.23392 -1.51768 0
M  V30 4922 C 473.171 0.17157 -2.10402 0
M  V30 4923 O 472.519 1.17943 -1.95708 0
M  V30 4924 C 472.729 -2.33163 -2.59685 0
M  V30 4925 C 474.077 -2.70809 -3.27028 0
M  V30 4926 O 475.101 -2.32355 -2.69981 0
M  V30 4927 O 473.96 -3.37066 -4.30173 0
M  V30 4928 H 471.054 -0.481617 -0.67229 0
M  V30 4929 H 473.6 -1.49318 -0.806368 0
M  V30 4930 H 472.372 -3.27273 -2.14494 0
M  V30 4931 H 471.995 -2.08713 -3.38415 0
M  V30 4932 N 472.992 0.995999 -1.22138 0
M  V30 4933 C 473.939 2.08551 -0.988687 0
M  V30 4934 C 474.909 1.65864 0.0885021 0
M  V30 4935 O 476.094 1.90704 -0.0604589 0
M  V30 4936 C 473.234 3.40374 -0.569191 0
M  V30 4937 C 472.347 3.96421 -1.71681 0
M  V30 4938 C 471.482 5.1639 -1.2456 0
M  V30 4939 C 470.521 5.64567 -2.36497 0
M  V30 4940 N 469.658 6.75777 -1.90445 0
M  V30 4941 H 474.498 2.2779 -1.92135 0
M  V30 4942 H 472.035 1.1168 -0.957388 0
M  V30 4943 H 473.993 4.16068 -0.307166 0
M  V30 4944 H 472.623 3.21145 0.326462 0
M  V30 4945 H 471.675 3.17628 -2.09324 0
M  V30 4946 H 472.987 4.2816 -2.55891 0
M  V30 4947 H 472.141 5.99362 -0.940774 0
M  V30 4948 H 470.88 4.86266 -0.373662 0
M  V30 4949 H 469.885 4.80185 -2.67772 0
M  V30 4950 H 471.11 5.96716 -3.24202 0
M  V30 4951 H 469.056 6.47443 -1.05609 0
M  V30 4952 H 468.973 7.06818 -2.68223 0
M  V30 4953 H 470.241 7.62262 -1.63022 0
M  V30 4954 N 474.47 1.03057 1.19235 0
M  V30 4955 C 475.7 0.746613 1.92638 0
M  V30 4956 C 476.108 -0.698708 1.75826 0
M  V30 4957 O 475.451 -1.487 1.07861 0
M  V30 4958 C 475.513 1.02024 3.44719 0
M  V30 4959 C 475.177 2.45745 3.85303 0
M  V30 4960 C 476.174 3.43887 3.8992 0
M  V30 4961 C 473.859 2.8019 4.16892 0
M  V30 4962 C 475.853 4.74529 4.2556 0
M  V30 4963 C 473.54 4.1104 4.52205 0
M  V30 4964 C 474.538 5.0802 4.56513 0
M  V30 4965 O 474.226 6.36527 4.91008 0
M  V30 4966 H 473.958 0.272401 0.618687 0
M  V30 4967 H 476.512 1.37853 1.52269 0
M  V30 4968 H 474.742 0.331184 3.85279 0
M  V30 4969 H 476.431 0.725677 3.9936 0
M  V30 4970 H 477.197 3.18614 3.65664 0
M  V30 4971 H 473.076 2.05382 4.12722 0
M  V30 4972 H 476.62 5.50222 4.28838 0
M  V30 4973 H 472.517 4.36086 4.7592 0
M  V30 4974 H 473.285 6.41025 5.08949 0
M  V30 4975 N 475.948 -1.35272 0.808662 0
M  V30 4976 C 476.895 -2.29764 0.218482 0
M  V30 4977 C 477.865 -1.52911 -0.648652 0
M  V30 4978 O 479.05 -1.81341 -0.593297 0
M  V30 4979 C 476.19 -3.39388 -0.625282 0
M  V30 4980 C 475.303 -4.31202 0.262516 0
M  V30 4981 C 474.438 -5.27919 -0.589451 0
M  V30 4982 C 473.477 -6.11371 0.298617 0
M  V30 4983 N 472.614 -7.0022 -0.513443 0
M  V30 4984 H 477.454 -2.79645 1.02968 0
M  V30 4985 H 474.991 -1.37629 0.519303 0
M  V30 4986 H 476.949 -4.01615 -1.12966 0
M  V30 4987 H 475.579 -2.90777 -1.40173 0
M  V30 4988 H 474.631 -3.69962 0.885013 0
M  V30 4989 H 475.943 -4.89748 0.945971 0
M  V30 4990 H 475.097 -5.95529 -1.15888 0
M  V30 4991 H 473.836 -4.69875 -1.30647 0
M  V30 4992 H 472.841 -5.42707 0.880301 0
M  V30 4993 H 474.066 -6.71494 1.01352 0
M  V30 4994 H 472.012 -6.44662 -1.21439 0
M  V30 4995 H 471.929 -7.55917 0.111922 0
M  V30 4996 H 473.197 -7.72175 -1.06608 0
M  V30 4997 N 477.426 -0.562348 -1.47226 0
M  V30 4998 C 478.356 0.170627 -2.32876 0
M  V30 4999 C 479.337 0.903748 -1.44106 0
M  V30 5000 O 480.522 0.883206 -1.72954 0
M  V30 5001 C 477.652 1.19786 -3.25989 0
M  V30 5002 C 476.606 0.580875 -4.2404 0
M  V30 5003 C 475.932 1.71311 -5.06514 0
M  V30 5004 C 477.232 -0.468714 -5.20193 0
M  V30 5005 H 478.926 -0.544441 -2.94408 0
M  V30 5006 H 476.472 -0.263271 -1.41573 0
M  V30 5007 H 478.425 1.71884 -3.84752 0
M  V30 5008 H 477.149 1.94294 -2.62521 0
M  V30 5009 H 475.808 0.0811538 -3.6651 0
M  V30 5010 H 475.456 2.44736 -4.39447 0
M  V30 5011 H 475.156 1.30604 -5.72902 0
M  V30 5012 H 476.68 2.23725 -5.68137 0
M  V30 5013 H 478.094 -0.0336028 -5.7329 0
M  V30 5014 H 476.491 -0.794957 -5.94811 0
M  V30 5015 H 477.561 -1.36269 -4.65359 0
M  V30 5016 N 478.904 1.54736 -0.299062 0
M  V30 5017 C 479.836 2.20891 0.61153 0
M  V30 5018 C 480.849 1.20104 1.09904 0
M  V30 5019 O 482.038 1.46707 1.01683 0
M  V30 5020 C 479.138 2.84018 1.84897 0
M  V30 5021 C 478.311 4.10719 1.50428 0
M  V30 5022 C 477.37 4.57667 2.59667 0
M  V30 5023 O 476.396 5.2291 2.24842 0
M  V30 5024 N 477.598 4.29821 3.90172 0
M  V30 5025 H 480.363 2.99666 0.0452001 0
M  V30 5026 H 477.924 1.61446 -0.121178 0
M  V30 5027 H 479.916 3.1236 2.5732 0
M  V30 5028 H 478.486 2.09095 2.32375 0
M  V30 5029 H 477.706 3.89408 0.612781 0
M  V30 5030 H 478.994 4.93223 1.24934 0
M  V30 5031 H 478.392 3.77549 4.21276 0
M  V30 5032 H 476.949 4.62877 4.58899 0
M  V30 5033 N 480.382 0.0267497 1.57577 0
M  V30 5034 C 481.314 -0.984594 2.06974 0
M  V30 5035 C 482.327 -1.29032 0.992705 0
M  V30 5036 O 483.516 -1.25539 1.26895 0
M  V30 5037 C 480.616 -2.31262 2.47732 0
M  V30 5038 C 479.789 -2.1924 3.78487 0
M  V30 5039 C 478.848 -3.34956 4.05821 0
M  V30 5040 O 477.874 -3.11948 4.76106 0
M  V30 5041 N 479.076 -4.58672 3.55809 0
M  V30 5042 H 481.841 -0.563143 2.94362 0
M  V30 5043 H 479.402 -0.160061 1.61107 0
M  V30 5044 H 481.394 -3.07496 2.63112 0
M  V30 5045 H 479.964 -2.65056 1.65723 0
M  V30 5046 H 479.184 -1.27747 3.72927 0
M  V30 5047 H 480.472 -2.08409 4.64158 0
M  V30 5048 H 479.87 -4.8026 2.98942 0
M  V30 5049 H 478.427 -5.32083 3.76472 0
M  V30 5050 N 481.861 -1.55662 -0.24637 0
M  V30 5051 C 483.089 -1.81575 -0.991876 0
M  V30 5052 C 483.504 -0.602545 -1.78927 0
M  V30 5053 O 482.861 0.428795 -1.77391 0
M  V30 5054 C 482.912 -3.05711 -1.92933 0
M  V30 5055 O 482.633 -4.22348 -1.1642 0
M  V30 5056 C 484.134 -3.44428 -2.79078 0
M  V30 5057 H 481.354 -0.604209 -0.291844 0
M  V30 5058 H 483.898 -2.02722 -0.269095 0
M  V30 5059 H 482.053 -2.86612 -2.60638 0
M  V30 5060 H 482.467 -4.92706 -1.79835 0
M  V30 5061 H 483.941 -4.34388 -3.40603 0
M  V30 5062 H 484.418 -2.65037 -3.50217 0
M  V30 5063 H 485.024 -3.65879 -2.16824 0
M  V30 5064 N 483.339 0.512053 -1.4905 0
M  V30 5065 C 484.586 1.26686 -1.57978 0
M  V30 5066 C 484.914 1.92733 -0.261553 0
M  V30 5067 O 484.169 1.80772 0.749667 0
M  V30 5068 C 484.468 2.36446 -2.68008 0
M  V30 5069 C 484.134 1.87932 -4.09869 0
M  V30 5070 C 482.796 1.74419 -4.48477 0
M  V30 5071 C 485.148 1.5149 -4.98698 0
M  V30 5072 C 482.476 1.22827 -5.73699 0
M  V30 5073 C 484.828 1.01355 -6.24428 0
M  V30 5074 C 483.492 0.864735 -6.61875 0
M  V30 5075 H 482.762 0.463577 -0.578081 0
M  V30 5076 H 485.409 0.569421 -1.82838 0
M  V30 5077 H 483.714 3.11933 -2.37076 0
M  V30 5078 H 485.411 2.9453 -2.72127 0
M  V30 5079 H 482.001 1.99405 -3.79389 0
M  V30 5080 H 486.185 1.60782 -4.69535 0
M  V30 5081 H 481.441 1.10008 -6.01422 0
M  V30 5082 H 485.615 0.722351 -6.92644 0
M  V30 5083 H 483.242 0.462777 -7.5879 0
M  V30 5084 N 484.817 1.37938 0.762283 0
M  V30 5085 C 486.042 1.37059 1.55659 0
M  V30 5086 C 486.467 -0.0396123 1.88058 0
M  V30 5087 O 485.825 -1.01929 1.49934 0
M  V30 5088 C 485.873 2.22494 2.83776 0
M  V30 5089 O 484.977 1.63607 3.78559 0
M  V30 5090 H 484.318 0.467892 0.47114 0
M  V30 5091 H 486.848 1.81587 0.942725 0
M  V30 5092 H 486.858 2.36045 3.32786 0
M  V30 5093 H 485.533 3.24993 2.59524 0
M  V30 5094 H 484.11 1.5915 3.37233 0
M  V30 5095 N 486.295 -0.989507 1.22664 0
M  V30 5096 C 487.541 -1.7321 1.05481 0
M  V30 5097 C 487.874 -1.89852 -0.408635 0
M  V30 5098 O 487.149 -1.44416 -1.30285 0
M  V30 5099 C 487.432 -3.1357 1.77047 0
M  V30 5100 C 487.285 -3.04555 3.31008 0
M  V30 5101 C 488.604 -4.12812 1.5256 0
M  V30 5102 H 485.723 -0.628697 0.384589 0
M  V30 5103 H 488.365 -1.15258 1.51049 0
M  V30 5104 H 486.515 -3.63046 1.3831 0
M  V30 5105 H 488.187 -2.62674 3.7921 0
M  V30 5106 H 486.43 -2.41278 3.6051 0
M  V30 5107 H 487.101 -4.03894 3.76263 0
M  V30 5108 H 489.577 -3.72106 1.86215 0
M  V30 5109 H 488.453 -5.09132 2.05124 0
M  V30 5110 H 488.714 -4.39711 0.458936 0
M  V30 5111 N 487.773 -1.03688 -1.18687 0
M  V30 5112 C 488.721 -0.618292 -2.24232 0
M  V30 5113 C 489.715 0.353045 -1.6568 0
M  V30 5114 O 490.921 0.220749 -1.78641 0
M  V30 5115 H 487.296 -0.181711 -0.729716 0
M  V30 5116 H 489.267 -1.51893 -2.56848 0
M  V30 5117 C 488.016 0.00677342 -3.47699 0
M  V30 5118 H 487.339 -0.731692 -3.93047 0
M  V30 5119 H 488.779 0.262492 -4.23187 0
M  V30 5120 C 487.238 1.25572 -3.12623 0
M  V30 5121 O 487.768 2.34691 -3.26011 0
M  V30 5122 N 485.974 1.14755 -2.66982 0
M  V30 5123 H 485.521 0.259601 -2.56289 0
M  V30 5124 H 485.479 1.98412 -2.43885 0
M  V30 5125 N 489.251 1.34841 -0.815825 0
M  V30 5126 C 490.662 1.80937 -0.46029 0
M  V30 5127 C 491.013 1.67685 1.01863 0
M  V30 5128 O 490.138 1.21277 1.79223 0
M  V30 5129 C 490.733 3.28509 -0.828708 0
M  V30 5130 C 489.292 3.72712 -0.525644 0
M  V30 5131 C 488.439 2.56676 -1.04941 0
M  V30 5132 H 491.39 1.22688 -1.00664 0
M  V30 5133 H 491.411 3.80279 -0.129757 0
M  V30 5134 H 490.923 3.38122 -1.90513 0
M  V30 5135 H 489.024 3.68642 0.541666 0
M  V30 5136 H 489.137 4.67119 -1.06474 0
M  V30 5137 H 487.501 2.50302 -0.471286 0
M  V30 5138 H 488.284 2.69063 -2.13214 0
M  V30 5139 N 490.729 0.570148 1.46925 0
M  V30 5140 C 491.978 0.0487352 2.01641 0
M  V30 5141 C 492.291 -1.31433 1.44861 0
M  V30 5142 O 493.497 -1.92638 1.91318 0
M  V30 5143 C 491.953 0.0365817 3.59881 0
M  V30 5144 C 491.561 1.39719 4.25655 0
M  V30 5145 C 493.305 -0.431545 4.22301 0
M  V30 5146 C 491.212 1.34345 5.75939 0
M  V30 5147 H 490.142 0.0144492 0.753862 0
M  V30 5148 H 492.793 0.719928 1.68788 0
M  V30 5149 H 491.175 -0.700522 3.89755 0
M  V30 5150 H 492.349 2.15303 4.07408 0
M  V30 5151 H 490.664 1.80431 3.75278 0
M  V30 5152 H 493.261 -0.490354 5.32447 0
M  V30 5153 H 493.604 -1.44638 3.90366 0
M  V30 5154 H 494.137 0.251102 3.97007 0
M  V30 5155 H 490.876 2.33469 6.12513 0
M  V30 5156 H 490.396 0.629615 5.96486 0
M  V30 5157 H 492.075 1.051 6.38407 0
M  V30 5158 N 492.207 -1.54576 0.307264 0
M  V30 5159 C 493.437 -2.04378 -0.302158 0
M  V30 5160 C 493.845 -1.18381 -1.47589 0
M  V30 5161 O 493.188 -0.20352 -1.82569 0
M  V30 5162 C 493.25 -3.50133 -0.815305 0
M  V30 5163 C 492.914 -4.56401 0.233977 0
M  V30 5164 C 493.911 -5.08884 1.06456 0
M  V30 5165 C 491.596 -5.0088 0.377478 0
M  V30 5166 C 493.59 -6.04394 2.02452 0
M  V30 5167 C 491.277 -5.96208 1.34088 0
M  V30 5168 C 492.275 -6.47849 2.16288 0
M  V30 5169 O 491.963 -7.41308 3.10994 0
M  V30 5170 H 491.695 -0.672502 -0.0686839 0
M  V30 5171 H 494.249 -2.00484 0.446682 0
M  V30 5172 H 492.479 -3.51371 -1.61478 0
M  V30 5173 H 494.168 -3.83098 -1.34129 0
M  V30 5174 H 494.934 -4.75311 0.964596 0
M  V30 5175 H 490.813 -4.60309 -0.252405 0
M  V30 5176 H 494.357 -6.44626 2.66652 0
M  V30 5177 H 490.254 -6.29198 1.44154 0
M  V30 5178 H 491.022 -7.5913 3.06045 0
M  V30 5179 N 493.685 -0.035106 -1.57561 0
M  V30 5180 C 494.615 0.942993 -2.13612 0
M  V30 5181 C 495.596 1.33531 -1.05373 0
M  V30 5182 O 496.781 1.41287 -1.33235 0
M  V30 5183 C 493.911 2.22332 -2.66807 0
M  V30 5184 C 492.865 1.97156 -3.79886 0
M  V30 5185 C 492.191 3.31506 -4.19533 0
M  V30 5186 C 493.491 1.30596 -5.05709 0
M  V30 5187 H 495.185 0.476179 -2.95589 0
M  V30 5188 H 492.731 0.227602 -1.4219 0
M  V30 5189 H 494.684 2.91142 -3.04654 0
M  V30 5190 H 493.408 2.7119 -1.81999 0
M  V30 5191 H 492.067 1.30763 -3.42486 0
M  V30 5192 H 491.715 3.78134 -3.31698 0
M  V30 5193 H 491.415 3.15465 -4.95738 0
M  V30 5194 H 492.939 4.01574 -4.59968 0
M  V30 5195 H 494.353 1.89416 -5.41105 0
M  V30 5196 H 492.75 1.24934 -5.86951 0
M  V30 5197 H 493.82 0.279742 -4.84092 0
M  V30 5198 N 495.163 1.55791 0.238111 0
M  V30 5199 C 496.579 1.48411 0.587045 0
M  V30 5200 C 496.779 0.72702 1.87927 0
M  V30 5201 O 495.835 0.259942 2.51158 0
M  V30 5202 C 497.148 2.92873 0.681623 0
M  V30 5203 C 498.696 3.03295 0.773363 0
M  V30 5204 C 499.171 4.49082 0.899428 0
M  V30 5205 N 500.662 4.53056 0.964075 0
M  V30 5206 C 501.397 5.63117 1.08104 0
M  V30 5207 N 500.893 6.82969 1.16299 0
M  V30 5208 N 502.686 5.50933 1.11488 0
M  V30 5209 H 494.837 2.0345 -0.610076 0
M  V30 5210 H 497.1 0.924034 -0.211813 0
M  V30 5211 H 496.806 3.51142 -0.19802 0
M  V30 5212 H 496.68 3.43851 1.55069 0
M  V30 5213 H 499.067 2.45101 1.64346 0
M  V30 5214 H 499.148 2.55513 -0.121034 0
M  V30 5215 H 498.792 5.07889 0.0338586 0
M  V30 5216 H 498.722 4.94553 1.809 0
M  V30 5217 H 501.213 3.66737 0.91173 0
M  V30 5218 H 501.526 7.62598 1.25155 0
M  V30 5219 H 499.871 6.85712 1.13241 0
M  V30 5220 H 503.062 4.56231 1.0474 0
M  V30 5221 H 503.235 6.36743 1.20259 0
M  V30 5222 N 496.642 -0.504142 1.49319 0
M  V30 5223 C 497.592 -1.60284 1.62151 0
M  V30 5224 C 498.576 -1.53657 0.477315 0
M  V30 5225 O 499.768 -1.6124 0.730108 0
M  V30 5226 C 496.897 -2.98909 1.68844 0
M  V30 5227 C 495.983 -3.10544 2.8883 0
M  V30 5228 N 496.374 -2.92078 4.12946 0
M  V30 5229 C 494.672 -3.4164 2.86702 0
M  V30 5230 C 495.373 -3.07812 4.93585 0
M  V30 5231 N 494.349 -3.36549 4.26891 0
M  V30 5232 H 498.151 -1.44656 2.55835 0
M  V30 5233 H 495.665 -0.710198 1.46048 0
M  V30 5234 H 497.662 -3.77865 1.76134 0
M  V30 5235 H 496.322 -3.15609 0.762943 0
M  V30 5236 H 497.333 -2.68316 4.42975 0
M  V30 5237 H 494.01 -3.64537 2.03517 0
M  V30 5238 H 495.4 -2.98054 6.02174 0
M  V30 5239 N 498.12 -1.38341 -0.754957 0
M  V30 5240 C 499.083 -1.35262 -1.85032 0
M  V30 5241 C 500.083 -0.253393 -1.58791 0
M  V30 5242 O 501.273 -0.510205 -1.66561 0
M  V30 5243 C 498.405 -1.10544 -3.22479 0
M  V30 5244 H 499.598 -2.32712 -1.8917 0
M  V30 5245 H 497.151 -1.23614 -0.956515 0
M  V30 5246 H 497.886 -0.136952 -3.24011 0
M  V30 5247 H 497.671 -1.90127 -3.4292 0
M  V30 5248 H 499.161 -1.11082 -4.02555 0
M  V30 5249 N 499.598 0.982988 -1.23187 0
M  V30 5250 C 500.546 2.09616 -1.00817 0
M  V30 5251 C 501.54 1.6932 0.0519995 0
M  V30 5252 O 502.746 1.79715 -0.101284 0
M  V30 5253 H 499.121 0.685628 -0.308899 0
M  V30 5254 H 501.092 2.25652 -1.95253 0
M  V30 5255 C 499.841 3.42249 -0.613243 0
M  V30 5256 H 499.164 3.73705 -1.42073 0
M  V30 5257 H 500.604 4.21086 -0.496208 0
M  V30 5258 C 499.063 3.30002 0.678233 0
M  V30 5259 O 499.593 3.6263 1.72807 0
M  V30 5260 N 497.799 2.83164 0.653165 0
M  V30 5261 H 497.346 2.56811 -0.201492 0
M  V30 5262 H 497.304 2.75352 1.51752 0
M  V30 5263 N 501.076 1.04316 1.18135 0
M  V30 5264 C 502.301 0.768047 1.92655 0
M  V30 5265 C 502.726 -0.66904 1.758 0
M  V30 5266 O 502.084 -1.46372 1.06981 0
M  V30 5267 C 502.132 1.14239 3.42026 0
M  V30 5268 O 501.236 0.269333 4.1152 0
M  V30 5269 H 500.577 0.282436 0.600937 0
M  V30 5270 H 503.107 1.39367 1.49793 0
M  V30 5271 H 503.117 1.10538 3.92741 0
M  V30 5272 H 501.792 2.18928 3.53615 0
M  V30 5273 H 500.369 0.366175 3.71098 0
M  V30 5274 N 502.554 -1.34406 0.822964 0
M  V30 5275 C 503.802 -1.97892 0.410245 0
M  V30 5276 C 504.123 -1.65567 -1.03017 0
M  V30 5277 O 503.393 -0.94642 -1.71522 0
M  V30 5278 H 501.973 -0.732049 0.148707 0
M  V30 5279 H 504.635 -1.64043 1.05242 0
M  V30 5280 H 503.731 -3.07579 0.529284 0
M  V30 5281 N 504.032 -0.577932 -1.46621 0
M  V30 5282 C 505.278 -0.0617793 -2.02706 0
M  V30 5283 C 505.611 1.29294 -1.44903 0
M  V30 5284 O 504.886 1.8461 -0.61232 0
M  V30 5285 C 505.169 0.00911824 -3.60099 0
M  V30 5286 C 505.022 -1.37416 -4.28295 0
M  V30 5287 C 506.341 0.712159 -4.343 0
M  V30 5288 H 503.46 -0.0239246 -0.736612 0
M  V30 5289 H 506.102 -0.744211 -1.74818 0
M  V30 5290 H 504.252 0.590292 -3.83989 0
M  V30 5291 H 505.924 -2.00013 -4.15683 0
M  V30 5292 H 504.167 -1.94319 -3.87843 0
M  V30 5293 H 504.838 -1.27707 -5.37024 0
M  V30 5294 H 507.314 0.218486 -4.15526 0
M  V30 5295 H 506.19 0.730782 -5.44014 0
M  V30 5296 H 506.451 1.77251 -4.05012 0
M  V30 5297 N 505.51 1.54411 -0.315457 0
M  V30 5298 C 506.473 2.22713 0.54142 0
M  V30 5299 C 507.473 1.2179 1.04995 0
M  V30 5300 O 508.663 1.46426 0.943667 0
M  V30 5301 C 505.795 2.92485 1.75116 0
M  V30 5302 H 506.988 2.99849 -0.0555508 0
M  V30 5303 H 504.541 1.56159 -0.0664453 0
M  V30 5304 H 505.276 2.19466 2.38758 0
M  V30 5305 H 505.061 3.66483 1.39401 0
M  V30 5306 H 506.551 3.44548 2.35959 0
M  V30 5307 N 506.988 0.0434614 1.5754 0
M  V30 5308 C 508.216 -0.641835 1.96693 0
M  V30 5309 C 508.631 -1.64832 0.920652 0
M  V30 5310 O 507.988 -1.82247 -0.095993 0
M  V30 5311 C 508.039 -1.33557 3.35924 0
M  V30 5312 O 507.76 -0.369403 4.3654 0
M  V30 5313 C 509.261 -2.11135 3.89791 0
M  V30 5314 H 506.481 -0.176013 0.647503 0
M  V30 5315 H 509.025 0.107478 2.04217 0
M  V30 5316 H 507.18 -2.03617 3.29574 0
M  V30 5317 H 507.594 -0.863674 5.1734 0
M  V30 5318 H 509.068 -2.55107 4.89514 0
M  V30 5319 H 509.545 -2.95634 3.24803 0
M  V30 5320 H 510.151 -1.46002 3.99454 0
M  V30 5321 N 508.466 -1.55915 -0.229846 0
M  V30 5322 C 509.743 -1.6932 -0.979295 0
M  V30 5323 C 510.123 -0.588321 -2.02736 0
M  V30 5324 O 509.471 0.40586 -2.24867 0
M  V30 5325 C 509.681 -3.10305 -1.59724 0
M  V30 5326 C 511.029 -3.6945 -2.09264 0
M  V30 5327 O 512.053 -3.13214 -1.69633 0
M  V30 5328 O 510.912 -4.68072 -2.82082 0
M  V30 5329 H 508.006 -0.689314 -0.456919 0
M  V30 5330 H 510.552 -1.68238 -0.222283 0
M  V30 5331 H 509.324 -3.82177 -0.840039 0
M  V30 5332 H 508.947 -3.1547 -2.42001 0
M  V30 5333 N 509.944 0.496216 -1.49584 0
M  V30 5334 C 511.191 1.25003 -1.59312 0
M  V30 5335 C 511.519 1.92445 -0.28198 0
M  V30 5336 O 510.774 1.81557 0.730452 0
M  V30 5337 C 511.073 2.3359 -2.705 0
M  V30 5338 C 510.739 1.83574 -4.11839 0
M  V30 5339 C 509.401 1.69653 -4.50302 0
M  V30 5340 C 511.753 1.46193 -5.00277 0
M  V30 5341 C 509.081 1.16736 -5.74969 0
M  V30 5342 C 511.433 0.947265 -6.25468 0
M  V30 5343 C 510.097 0.794485 -6.62755 0
M  V30 5344 H 509.367 0.45742 -0.582965 0
M  V30 5345 H 512.014 0.549996 -1.83432 0
M  V30 5346 H 510.319 3.09401 -2.40371 0
M  V30 5347 H 512.016 2.91627 -2.75235 0
M  V30 5348 H 508.606 1.9537 -3.81482 0
M  V30 5349 H 512.79 1.55793 -4.71214 0
M  V30 5350 H 508.046 1.03623 -6.02555 0
M  V30 5351 H 512.22 0.648846 -6.93371 0
M  V30 5352 H 509.847 0.382271 -7.59238 0
M  V30 5353 N 511.423 1.38739 0.74761 0
M  V30 5354 C 512.356 1.3083 1.86972 0
M  V30 5355 C 513.334 0.184229 1.61553 0
M  V30 5356 O 514.518 0.36256 1.8498 0
M  V30 5357 C 511.645 1.02854 3.22705 0
M  V30 5358 C 510.691 2.17281 3.67003 0
M  V30 5359 S 511.524 3.79468 3.77842 0
M  V30 5360 C 512.68 3.53692 5.16385 0
M  V30 5361 H 512.913 2.258 1.93395 0
M  V30 5362 H 510.446 1.24646 0.911199 0
M  V30 5363 H 512.404 0.87397 4.01089 0
M  V30 5364 H 511.065 0.0959295 3.13953 0
M  V30 5365 H 510.258 1.93267 4.65472 0
M  V30 5366 H 509.86 2.28876 2.9579 0
M  V30 5367 H 512.152 3.10176 6.02327 0
M  V30 5368 H 513.095 4.51576 5.45422 0
M  V30 5369 H 513.503 2.8807 4.85464 0
M  V30 5370 N 512.901 -0.976442 1.23707 0
M  V30 5371 C 513.851 -2.0544 0.988851 0
M  V30 5372 C 514.835 -1.60762 -0.0665901 0
M  V30 5373 O 516.027 -1.76396 0.14604 0
M  V30 5374 C 513.156 -3.38258 0.586223 0
M  V30 5375 C 512.242 -3.89523 1.67728 0
M  V30 5376 N 512.633 -4.13823 2.90834 0
M  V30 5377 C 510.931 -4.18097 1.55277 0
M  V30 5378 C 511.632 -4.55731 3.61502 0
M  V30 5379 N 510.608 -4.60394 2.8903 0
M  V30 5380 H 514.41 -2.22191 1.92376 0
M  V30 5381 H 511.924 -1.15954 1.13704 0
M  V30 5382 H 513.921 -4.15075 0.389658 0
M  V30 5383 H 512.581 -3.22898 -0.341594 0
M  V30 5384 H 513.592 -4.01529 3.271 0
M  V30 5385 H 510.269 -4.11719 0.692351 0
M  V30 5386 H 511.659 -4.83018 4.67059 0
M  V30 5387 N 514.379 -1.04941 -1.1758 0
M  V30 5388 C 515.625 -0.768896 -1.88307 0
M  V30 5389 C 515.98 0.696361 -1.79356 0
M  V30 5390 O 515.273 1.50245 -1.18899 0
M  V30 5391 C 515.467 -1.18062 -3.37337 0
M  V30 5392 C 515.296 -2.68436 -3.60794 0
M  V30 5393 C 514.066 -3.35709 -3.77661 0
M  V30 5394 C 516.264 -3.66657 -3.60649 0
M  V30 5395 N 514.246 -4.74974 -3.88939 0
M  V30 5396 C 515.617 -4.91638 -3.77747 0
M  V30 5397 C 517.672 -3.60162 -3.43785 0
M  V30 5398 C 516.375 -6.10902 -3.79726 0
M  V30 5399 C 518.401 -4.78863 -3.47051 0
M  V30 5400 C 517.763 -6.02666 -3.64654 0
M  V30 5401 H 513.862 -0.33355 -0.707296 0
M  V30 5402 H 516.446 -1.34085 -1.41171 0
M  V30 5403 H 514.617 -0.636648 -3.83147 0
M  V30 5404 H 516.349 -0.8502 -3.95669 0
M  V30 5405 H 513.104 -2.8611 -3.77409 0
M  V30 5406 H 513.528 -5.47378 -3.98379 0
M  V30 5407 H 518.17 -2.65412 -3.29114 0
M  V30 5408 H 515.888 -7.05998 -3.93182 0
M  V30 5409 H 519.474 -4.75488 -3.35265 0
M  V30 5410 H 518.354 -6.92979 -3.67083 0
M  V30 5411 N 515.857 1.33968 -0.830081 0
M  V30 5412 C 516.789 2.28194 -0.21448 0
M  V30 5413 C 517.802 1.5135 0.599752 0
M  V30 5414 O 518.991 1.73286 0.42826 0
M  V30 5415 C 516.091 3.31221 0.717356 0
M  V30 5416 C 515.264 4.37365 -0.055613 0
M  V30 5417 C 514.323 5.2011 0.798231 0
M  V30 5418 O 513.349 5.68691 0.240616 0
M  V30 5419 N 514.551 5.40523 2.11695 0
M  V30 5420 H 517.316 2.81662 -1.02405 0
M  V30 5421 H 514.877 1.46568 -0.687713 0
M  V30 5422 H 516.869 3.83477 1.29334 0
M  V30 5423 H 515.439 2.78095 1.42765 0
M  V30 5424 H 514.659 3.85727 -0.812936 0
M  V30 5425 H 515.947 5.05397 -0.587444 0
M  V30 5426 H 515.345 5.0274 2.59363 0
M  V30 5427 H 513.902 5.95871 2.64162 0
M  V30 5428 N 517.335 0.585699 1.46312 0
M  V30 5429 C 518.584 0.0701192 2.01578 0
M  V30 5430 C 518.897 -1.29889 1.46247 0
M  V30 5431 O 520.103 -1.90598 1.93351 0
M  V30 5432 C 518.559 0.0747499 3.59822 0
M  V30 5433 C 518.167 1.44226 4.24149 0
M  V30 5434 C 519.911 -0.38673 4.22735 0
M  V30 5435 C 517.818 1.40446 5.74481 0
M  V30 5436 H 516.748 0.0224441 0.753666 0
M  V30 5437 H 519.399 0.737789 1.68015 0
M  V30 5438 H 517.781 -0.659144 3.90476 0
M  V30 5439 H 518.955 2.19612 4.05101 0
M  V30 5440 H 517.27 1.84401 3.73343 0
M  V30 5441 H 519.867 -0.433853 5.32937 0
M  V30 5442 H 520.21 -1.40489 3.91878 0
M  V30 5443 H 520.743 0.293195 3.96718 0
M  V30 5444 H 517.482 2.39952 6.10003 0
M  V30 5445 H 517.002 0.692845 5.95785 0
M  V30 5446 H 518.681 1.11865 6.37256 0
M  V30 5447 N 518.813 -1.54241 0.323641 0
M  V30 5448 C 520.224 -1.85975 -0.164405 0
M  V30 5449 C 520.575 -1.24529 -1.51615 0
M  V30 5450 O 519.7 -0.551351 -2.09258 0
M  V30 5451 C 520.295 -3.37424 -0.305091 0
M  V30 5452 C 518.854 -3.69107 -0.737358 0
M  V30 5453 C 518.001 -2.76942 0.140884 0
M  V30 5454 H 520.952 -1.49088 0.543922 0
M  V30 5455 H 520.973 -3.63147 -1.13598 0
M  V30 5456 H 520.485 -3.82116 0.678876 0
M  V30 5457 H 518.586 -3.29947 -1.73107 0
M  V30 5458 H 518.699 -4.76035 -0.541053 0
M  V30 5459 H 517.063 -2.51795 -0.383572 0
M  V30 5460 H 517.846 -3.24461 1.12162 0
M  V30 5461 N 520.291 -0.0518155 -1.57515 0
M  V30 5462 C 521.221 0.920283 -2.146 0
M  V30 5463 C 522.202 1.32406 -1.06783 0
M  V30 5464 O 523.387 1.39866 -1.34726 0
M  V30 5465 C 520.517 2.1949 -2.6915 0
M  V30 5466 C 519.471 1.93116 -3.81956 0
M  V30 5467 C 518.797 3.27037 -4.23026 0
M  V30 5468 C 520.097 1.25225 -5.07066 0
M  V30 5469 H 521.791 0.444801 -2.96077 0
M  V30 5470 H 519.337 0.212508 -1.42423 0
M  V30 5471 H 521.29 2.87894 -3.07725 0
M  V30 5472 H 520.014 2.69244 -1.84865 0
M  V30 5473 H 518.673 1.27123 -3.43854 0
M  V30 5474 H 518.321 3.74595 -3.3569 0
M  V30 5475 H 518.021 3.10189 -4.99056 0
M  V30 5476 H 519.545 3.96673 -4.64202 0
M  V30 5477 H 520.959 1.83666 -5.43083 0
M  V30 5478 H 519.356 1.18702 -5.88243 0
M  V30 5479 H 520.426 0.228382 -4.84362 0
M  V30 5480 N 521.769 1.56035 0.221574 0
M  V30 5481 C 522.994 1.83476 0.967026 0
M  V30 5482 C 523.419 0.632139 1.7716 0
M  V30 5483 O 522.777 -0.419082 1.7639 0
M  V30 5484 C 522.825 3.08907 1.86034 0
M  V30 5485 O 521.929 2.876 2.95567 0
M  V30 5486 H 521.27 0.604913 0.273817 0
M  V30 5487 H 523.8 2.03247 0.234893 0
M  V30 5488 H 523.81 3.3901 2.27016 0
M  V30 5489 H 522.485 3.96068 1.26898 0
M  V30 5490 H 521.062 2.6873 2.58532 0
M  V30 5491 N 523.247 -0.488276 1.49845 0
M  V30 5492 C 524.663 -0.820566 1.3689 0
M  V30 5493 C 524.863 -1.97248 0.411752 0
M  V30 5494 O 523.919 -2.52042 -0.151931 0
M  V30 5495 C 525.232 -1.1488 2.77891 0
M  V30 5496 C 526.78 -1.25626 2.86683 0
M  V30 5497 C 527.255 -1.61772 4.28479 0
M  V30 5498 N 528.746 -1.68797 4.31349 0
M  V30 5499 C 529.481 -1.98235 5.38043 0
M  V30 5500 N 528.977 -2.2581 6.54967 0
M  V30 5501 N 530.77 -1.99593 5.2547 0
M  V30 5502 H 522.921 0.271123 2.10662 0
M  V30 5503 H 525.184 0.058735 0.946179 0
M  V30 5504 H 524.89 -0.375614 3.49688 0
M  V30 5505 H 524.764 -2.08919 3.14058 0
M  V30 5506 H 527.151 -2.02014 2.15114 0
M  V30 5507 H 527.232 -0.296072 2.54081 0
M  V30 5508 H 526.876 -0.859295 5.00578 0
M  V30 5509 H 526.806 -2.58912 4.58554 0
M  V30 5510 H 529.297 -1.49595 3.4703 0
M  V30 5511 H 529.61 -2.47497 7.32096 0
M  V30 5512 H 527.955 -2.23239 6.58171 0
M  V30 5513 H 531.146 -1.77535 4.33127 0
M  V30 5514 H 531.319 -2.222 6.08713 0
M  V30 5515 N 524.725 -1.39134 -0.740242 0
M  V30 5516 C 526.141 -1.20623 -1.0451 0
M  V30 5517 C 526.341 -0.0641651 -2.01398 0
M  V30 5518 O 525.397 0.585843 -2.4561 0
M  V30 5519 C 526.71 -2.53815 -1.6124 0
M  V30 5520 C 528.258 -2.60615 -1.73346 0
M  V30 5521 C 528.733 -3.94015 -2.33486 0
M  V30 5522 N 530.224 -3.95627 -2.40902 0
M  V30 5523 C 530.959 -4.95616 -2.88361 0
M  V30 5524 N 530.455 -6.06003 -3.35756 0
M  V30 5525 N 532.248 -4.82998 -2.87523 0
M  V30 5526 H 524.399 -2.12176 -0.0975576 0
M  V30 5527 H 526.662 -0.942066 -0.105904 0
M  V30 5528 H 526.368 -3.37911 -0.975144 0
M  V30 5529 H 526.242 -2.73162 -2.6012 0
M  V30 5530 H 528.629 -1.76906 -2.36195 0
M  V30 5531 H 528.71 -2.45123 -0.731336 0
M  V30 5532 H 528.354 -4.78153 -1.71267 0
M  V30 5533 H 528.284 -4.06825 -3.34366 0
M  V30 5534 H 530.775 -3.15903 -2.07398 0
M  V30 5535 H 531.088 -6.78215 -3.70464 0
M  V30 5536 H 529.433 -6.09604 -3.33778 0
M  V30 5537 H 532.624 -3.95866 -2.49816 0
M  V30 5538 H 532.797 -5.61072 -3.24196 0
M  V30 5539 N 526.204 0.969867 -1.24223 0
M  V30 5540 C 527.451 1.71256 -1.08063 0
M  V30 5541 C 527.779 1.90734 0.380872 0
M  V30 5542 O 527.034 1.46469 1.29789 0
M  V30 5543 C 527.333 3.10883 -1.76314 0
M  V30 5544 C 526.999 3.11252 -3.26241 0
M  V30 5545 C 525.661 3.1106 -3.67144 0
M  V30 5546 C 528.013 3.05751 -4.22097 0
M  V30 5547 C 525.341 3.03097 -5.02344 0
M  V30 5548 C 527.693 2.9933 -5.57301 0
M  V30 5549 C 526.357 2.97466 -5.97554 0
M  V30 5550 H 525.627 0.62667 -0.395431 0
M  V30 5551 H 528.274 1.13422 -1.54297 0
M  V30 5552 H 526.579 3.72168 -1.22468 0
M  V30 5553 H 528.276 3.67138 -1.61277 0
M  V30 5554 H 524.866 3.12165 -2.93685 0
M  V30 5555 H 529.05 3.05031 -3.91497 0
M  V30 5556 H 524.306 3.00013 -5.32731 0
M  V30 5557 H 528.48 2.94033 -6.31283 0
M  V30 5558 H 526.107 2.91051 -7.02277 0
M  V30 5559 N 527.682 1.05563 1.17022 0
M  V30 5560 C 529.098 0.777684 1.39371 0
M  V30 5561 C 529.298 -0.626269 1.91521 0
M  V30 5562 O 528.354 -1.38806 2.10924 0
M  V30 5563 C 529.667 1.83642 2.3811 0
M  V30 5564 C 531.215 1.85907 2.51809 0
M  V30 5565 C 531.69 2.90813 3.53824 0
M  V30 5566 N 533.181 2.898 3.61345 0
M  V30 5567 C 533.916 3.6762 4.40049 0
M  V30 5568 N 533.412 4.55237 5.22237 0
M  V30 5569 N 535.205 3.56044 4.34959 0
M  V30 5570 H 527.356 1.9614 0.815047 0
M  V30 5571 H 529.619 0.849527 0.420722 0
M  V30 5572 H 529.325 2.84425 2.06871 0
M  V30 5573 H 529.199 1.6812 3.37662 0
M  V30 5574 H 531.586 0.857865 2.82356 0
M  V30 5575 H 531.667 2.05506 1.52318 0
M  V30 5576 H 531.311 3.91122 3.24015 0
M  V30 5577 H 531.241 2.68465 4.53028 0
M  V30 5578 H 533.732 2.26274 3.02669 0
M  V30 5579 H 534.045 5.11291 5.79484 0
M  V30 5580 H 532.39 4.59296 5.21605 0
M  V30 5581 H 535.581 2.86986 3.69806 0
M  V30 5582 H 535.754 4.16938 4.96051 0
M  V30 5583 N 529.16 -1.33526 0.837174 0
M  V30 5584 C 530.385 -2.0258 0.444545 0
M  V30 5585 C 530.81 -1.6258 -0.946006 0
M  V30 5586 O 530.168 -0.817548 -1.6182 0
M  V30 5587 C 530.216 -3.5605 0.571006 0
M  V30 5588 O 529.32 -4.10422 -0.403431 0
M  V30 5589 H 528.661 -0.638866 0.180958 0
M  V30 5590 H 531.191 -1.70462 1.13154 0
M  V30 5591 H 531.201 -4.05488 0.452024 0
M  V30 5592 H 529.876 -3.84509 1.58512 0
M  V30 5593 H 528.453 -3.72113 -0.242147 0
M  V30 5594 N 530.638 -0.59345 -1.46 0
M  V30 5595 C 531.884 -0.0832754 -2.02629 0
M  V30 5596 C 532.217 1.27749 -1.46266 0
M  V30 5597 O 531.492 1.8395 -0.631866 0
M  V30 5598 C 531.775 -0.0290756 -3.60088 0
M  V30 5599 C 531.628 -1.41951 -4.26814 0
M  V30 5600 C 532.947 0.666055 -4.35031 0
M  V30 5601 H 530.066 -0.031736 -0.736316 0
M  V30 5602 H 532.708 -0.762711 -1.74019 0
M  V30 5603 H 530.858 0.549532 -3.84594 0
M  V30 5604 H 532.53 -2.04411 -4.13538 0
M  V30 5605 H 530.773 -1.98422 -3.8576 0
M  V30 5606 H 531.444 -1.33395 -5.3564 0
M  V30 5607 H 533.92 0.174401 -4.15734 0
M  V30 5608 H 532.796 0.673041 -5.44758 0
M  V30 5609 H 533.057 1.72946 -4.06869 0
M  V30 5610 N 532.116 1.54067 -0.331816 0
M  V30 5611 C 533.063 2.24623 0.530372 0
M  V30 5612 C 534.033 1.24009 1.10503 0
M  V30 5613 O 535.218 1.52712 1.14384 0
M  V30 5614 C 532.358 3.01374 1.68129 0
M  V30 5615 C 531.471 4.16821 1.13507 0
M  V30 5616 C 530.606 4.81085 2.25234 0
M  V30 5617 C 529.645 5.88621 1.67903 0
M  V30 5618 N 528.782 6.46713 2.73326 0
M  V30 5619 H 533.622 2.97898 -0.0778607 0
M  V30 5620 H 531.159 1.47014 -0.0501965 0
M  V30 5621 H 533.117 3.44125 2.35868 0
M  V30 5622 H 531.747 2.30419 2.26069 0
M  V30 5623 H 530.799 3.78796 0.348979 0
M  V30 5624 H 532.111 4.94203 0.675633 0
M  V30 5625 H 531.265 5.26846 3.00862 0
M  V30 5626 H 530.004 4.03102 2.74518 0
M  V30 5627 H 529.009 5.42254 0.907773 0
M  V30 5628 H 530.234 6.68506 1.19487 0
M  V30 5629 H 528.18 5.71599 3.21886 0
M  V30 5630 H 528.097 7.19532 2.3197 0
M  V30 5631 H 529.365 6.97129 3.48758 0
M  V30 5632 N 533.594 0.0601682 1.57485 0
M  V30 5633 C 534.524 -0.90889 2.15085 0
M  V30 5634 C 535.505 -1.31838 1.07484 0
M  V30 5635 O 536.69 -1.3915 1.35466 0
M  V30 5636 C 533.82 -2.18059 2.7031 0
M  V30 5637 C 532.774 -1.91088 3.82974 0
M  V30 5638 C 532.1 -3.24789 4.24754 0
M  V30 5639 C 533.4 -1.22535 5.07723 0
M  V30 5640 H 535.094 -0.429093 2.96309 0
M  V30 5641 H 532.64 -0.204952 1.42534 0
M  V30 5642 H 534.593 -2.86258 3.09248 0
M  V30 5643 H 533.317 -2.6826 1.8629 0
M  V30 5644 H 531.976 -1.25297 3.44523 0
M  V30 5645 H 531.624 -3.72809 3.37672 0
M  V30 5646 H 531.324 -3.07538 5.00694 0
M  V30 5647 H 532.848 -3.94205 4.66299 0
M  V30 5648 H 534.262 -1.80783 5.4405 0
M  V30 5649 H 532.659 -1.1558 5.88864 0
M  V30 5650 H 533.729 -0.202692 4.84476 0
M  V30 5651 N 535.072 -1.5615 -0.213296 0
M  V30 5652 C 536.318 -1.80718 -0.933402 0
M  V30 5653 C 536.673 -0.634441 -1.81639 0
M  V30 5654 O 535.966 0.371182 -1.8797 0
M  V30 5655 C 536.16 -3.08772 -1.79985 0
M  V30 5656 C 535.989 -4.38389 -1.00224 0
M  V30 5657 C 534.759 -5.00513 -0.693885 0
M  V30 5658 C 536.957 -5.13013 -0.363598 0
M  V30 5659 N 534.939 -6.13774 0.124266 0
M  V30 5660 C 536.31 -6.19186 0.31757 0
M  V30 5661 C 538.365 -4.97126 -0.277468 0
M  V30 5662 C 537.068 -7.11197 1.07664 0
M  V30 5663 C 539.094 -5.89544 0.468155 0
M  V30 5664 C 538.456 -6.95149 1.13784 0
M  V30 5665 H 534.555 -0.712833 -0.321549 0
M  V30 5666 H 537.139 -1.93633 -0.203588 0
M  V30 5667 H 535.31 -2.97126 -2.50142 0
M  V30 5668 H 537.042 -3.21499 -2.45806 0
M  V30 5669 H 533.797 -4.62619 -1.01391 0
M  V30 5670 H 534.221 -6.74981 0.522418 0
M  V30 5671 H 538.863 -4.15526 -0.78087 0
M  V30 5672 H 536.581 -7.92273 1.59153 0
M  V30 5673 H 540.167 -5.79327 0.535911 0
M  V30 5674 H 539.047 -7.65428 1.70557 0
M  V30 5675 N 536.55 0.480323 -1.50102 0
M  V30 5676 C 537.797 1.23307 -1.60629 0
M  V30 5677 C 538.125 1.92135 -0.302375 0
M  V30 5678 O 537.38 1.82321 0.711154 0
M  V30 5679 C 537.679 2.30708 -2.72963 0
M  V30 5680 C 537.345 1.79195 -4.13763 0
M  V30 5681 C 536.007 1.64867 -4.52076 0
M  V30 5682 C 538.359 1.40878 -5.018 0
M  V30 5683 C 535.687 1.10631 -5.76175 0
M  V30 5684 C 538.039 0.880872 -6.26437 0
M  V30 5685 C 536.703 0.724146 -6.6356 0
M  V30 5686 H 535.973 0.451211 -0.587784 0
M  V30 5687 H 538.62 0.53051 -1.84005 0
M  V30 5688 H 536.925 3.06834 -2.43639 0
M  V30 5689 H 538.622 2.88692 -2.78313 0
M  V30 5690 H 535.212 1.91313 -3.83533 0
M  V30 5691 H 539.396 1.50786 -4.7284 0
M  V30 5692 H 534.652 0.972263 -6.0362 0
M  V30 5693 H 538.826 0.575269 -6.9402 0
M  V30 5694 H 536.453 0.301722 -7.59601 0
M  V30 5695 N 538.028 1.39524 0.732853 0
M  V30 5696 C 539.274 1.37068 1.49467 0
M  V30 5697 C 539.607 -0.0327166 1.94172 0
M  V30 5698 O 538.882 -0.998071 1.66939 0
M  V30 5699 C 539.165 2.34494 2.73285 0
M  V30 5700 C 539.018 3.83784 2.34585 0
M  V30 5701 C 540.337 2.29717 3.75391 0
M  V30 5702 H 537.456 0.499206 0.542183 0
M  V30 5703 H 540.098 1.70532 0.837783 0
M  V30 5704 H 538.248 2.06087 3.29333 0
M  V30 5705 H 539.92 4.22949 1.84151 0
M  V30 5706 H 538.163 4.00455 1.66787 0
M  V30 5707 H 538.834 4.47444 3.23262 0
M  V30 5708 H 541.31 2.54839 3.28932 0
M  V30 5709 H 540.186 2.99962 4.59689 0
M  V30 5710 H 540.447 1.30291 4.22465 0
M  V30 5711 N 539.506 -0.963266 1.24736 0
M  V30 5712 C 540.755 -1.70115 1.08369 0
M  V30 5713 C 541.068 -1.91939 -0.376688 0
M  V30 5714 O 542.274 -2.6334 -0.660624 0
M  V30 5715 C 540.73 -3.06218 1.89099 0
M  V30 5716 C 540.338 -2.92221 3.39574 0
M  V30 5717 C 542.082 -3.83848 1.81275 0
M  V30 5718 C 539.989 -4.23662 4.12631 0
M  V30 5719 H 538.919 -0.637944 0.401924 0
M  V30 5720 H 541.57 -1.07304 1.48856 0
M  V30 5721 H 539.952 -3.69884 1.41429 0
M  V30 5722 H 541.126 -2.37541 3.94856 0
M  V30 5723 H 539.441 -2.28054 3.48397 0
M  V30 5724 H 542.038 -4.81188 2.33158 0
M  V30 5725 H 542.381 -4.08949 0.778895 0
M  V30 5726 H 542.914 -3.26918 2.26649 0
M  V30 5727 H 539.653 -4.03753 5.16395 0
M  V30 5728 H 539.173 -4.78141 3.62135 0
M  V30 5729 H 540.852 -4.92256 4.19873 0
M  V30 5730 N 540.985 -1.06182 -1.16461 0
M  V30 5731 C 542.401 -0.785065 -1.38956 0
M  V30 5732 C 542.601 0.616103 -1.9185 0
M  V30 5733 O 541.657 1.37686 -2.11657 0
M  V30 5734 C 542.97 -1.84902 -2.37132 0
M  V30 5735 C 544.518 -1.8724 -2.50819 0
M  V30 5736 C 544.993 -2.92686 -3.52277 0
M  V30 5737 N 546.484 -2.91712 -3.59803 0
M  V30 5738 C 547.219 -3.69949 -4.38093 0
M  V30 5739 N 546.715 -4.58 -5.19815 0
M  V30 5740 N 548.508 -3.58346 -4.33064 0
M  V30 5741 H 540.659 -1.96569 -0.804634 0
M  V30 5742 H 542.922 -0.851747 -0.416211 0
M  V30 5743 H 542.628 -2.85518 -2.0536 0
M  V30 5744 H 542.502 -1.69908 -3.36766 0
M  V30 5745 H 544.889 -0.872827 -2.81897 0
M  V30 5746 H 544.97 -2.06311 -1.51226 0
M  V30 5747 H 544.614 -3.92835 -3.21937 0
M  V30 5748 H 544.544 -2.70864 -4.51598 0
M  V30 5749 H 547.035 -2.27876 -3.01464 0
M  V30 5750 H 547.348 -5.14357 -5.76764 0
M  V30 5751 H 545.693 -4.62056 -5.19162 0
M  V30 5752 H 548.884 -2.88943 -3.68279 0
M  V30 5753 H 549.057 -4.19563 -4.93833 0
M  V30 5754 N 542.463 1.3308 -0.844243 0
M  V30 5755 C 543.688 2.02341 -0.455282 0
M  V30 5756 C 544.113 1.6308 0.93737 0
M  V30 5757 O 543.471 0.826118 1.61385 0
M  V30 5758 C 543.519 3.55743 -0.58988 0
M  V30 5759 O 542.623 4.1063 0.38166 0
M  V30 5760 H 541.964 0.637898 -0.184343 0
M  V30 5761 H 544.494 1.6986 -1.14056 0
M  V30 5762 H 544.504 4.05243 -0.473522 0
M  V30 5763 H 543.179 3.83662 -1.60549 0
M  V30 5764 H 541.756 3.72236 0.22241 0
M  V30 5765 N 543.941 0.601185 1.45683 0
M  V30 5766 C 545.188 0.0938811 2.02282 0
M  V30 5767 C 545.516 -1.27315 1.47041 0
M  V30 5768 O 544.771 -1.85193 0.632623 0
M  V30 5769 C 545.07 -0.00222425 3.574 0
M  V30 5770 C 544.736 1.29963 4.31764 0
M  V30 5771 C 543.398 1.65625 4.51798 0
M  V30 5772 C 545.75 2.1603 4.74321 0
M  V30 5773 C 543.078 2.87119 5.11644 0
M  V30 5774 C 545.43 3.36766 5.3551 0
M  V30 5775 C 544.094 3.72689 5.53768 0
M  V30 5776 H 543.364 0.0343535 0.740203 0
M  V30 5777 H 546.011 0.781522 1.74827 0
M  V30 5778 H 544.316 -0.773096 3.84097 0
M  V30 5779 H 546.013 -0.410794 3.9889 0
M  V30 5780 H 542.603 1.01204 4.1648 0
M  V30 5781 H 546.787 1.89778 4.58582 0
M  V30 5782 H 542.043 3.15065 5.2397 0
M  V30 5783 H 546.217 4.03713 5.67441 0
M  V30 5784 H 543.844 4.66918 5.99909 0
M  V30 5785 N 545.419 -1.53889 0.339982 0
M  V30 5786 C 546.667 -2.00458 -0.257112 0
M  V30 5787 C 546.988 -1.22953 -1.51353 0
M  V30 5788 O 546.258 -0.335734 -1.93002 0
M  V30 5789 H 544.838 -0.740544 -0.0979965 0
M  V30 5790 H 547.5 -1.89386 0.460317 0
M  V30 5791 H 546.596 -3.08035 -0.502057 0
M  V30 5792 N 546.897 -0.0685191 -1.57451 0
M  V30 5793 C 548.143 0.602239 -1.93652 0
M  V30 5794 C 548.476 1.6946 -0.948526 0
M  V30 5795 O 547.751 1.94487 0.022782 0
M  V30 5796 C 548.034 1.18223 -3.4014 0
M  V30 5797 C 547.887 0.0967431 -4.49696 0
M  V30 5798 C 549.206 2.08872 -3.87377 0
M  V30 5799 H 546.325 0.217453 -0.70419 0
M  V30 5800 H 548.967 -0.133821 -1.89528 0
M  V30 5801 H 547.117 1.80953 -3.43785 0
M  V30 5802 H 548.789 -0.536155 -4.58174 0
M  V30 5803 H 547.032 -0.573063 -4.29998 0
M  V30 5804 H 547.703 0.542894 -5.49324 0
M  V30 5805 H 550.179 1.56081 -3.85717 0
M  V30 5806 H 549.055 2.46389 -4.90493 0
M  V30 5807 H 549.316 2.99572 -3.25129 0
M  V30 5808 N 548.375 1.56261 0.205012 0
M  V30 5809 C 549.322 1.93754 1.25411 0
M  V30 5810 C 550.292 0.796826 1.45739 0
M  V30 5811 O 551.477 1.05414 1.59036 0
M  V30 5812 C 548.617 2.27383 2.59598 0
M  V30 5813 C 547.73 3.5447 2.46931 0
M  V30 5814 C 546.865 3.77468 3.73753 0
M  V30 5815 C 545.904 4.98014 3.55877 0
M  V30 5816 N 545.041 5.17316 4.74688 0
M  V30 5817 H 549.881 2.83203 0.92737 0
M  V30 5818 H 547.418 1.40158 0.446574 0
M  V30 5819 H 549.376 2.44895 3.37761 0
M  V30 5820 H 548.006 1.41088 2.90335 0
M  V30 5821 H 547.058 3.45061 1.60116 0
M  V30 5822 H 548.37 4.42789 2.29651 0
M  V30 5823 H 547.524 3.95165 4.60358 0
M  V30 5824 H 546.263 2.87461 3.93976 0
M  V30 5825 H 545.268 4.80249 2.67657 0
M  V30 5826 H 546.493 5.8952 3.37109 0
M  V30 5827 H 544.439 4.30255 4.95194 0
M  V30 5828 H 544.356 5.99796 4.60197 0
M  V30 5829 H 545.624 5.39463 5.62672 0
M  V30 5830 N 549.853 -0.472356 1.50355 0
M  V30 5831 C 550.801 -1.59126 1.69651 0
M  V30 5832 C 551.795 -1.59793 0.56237 0
M  V30 5833 O 553.001 -1.63957 0.742832 0
M  V30 5834 H 549.376 -0.528008 0.535454 0
M  V30 5835 H 551.347 -1.40013 2.63513 0
M  V30 5836 C 550.096 -2.97075 1.8067 0
M  V30 5837 H 549.419 -2.9728 2.67329 0
M  V30 5838 H 550.859 -3.74825 1.98197 0
M  V30 5839 C 549.318 -3.32247 0.558016 0
M  V30 5840 O 549.848 -4.00553 -0.303399 0
M  V30 5841 N 548.054 -2.87659 0.412415 0
M  V30 5842 H 547.601 -2.32246 1.11443 0
M  V30 5843 H 547.559 -3.11556 -0.421908 0
M  V30 5844 N 551.331 -1.39911 -0.725443 0
M  V30 5845 C 552.261 -1.42138 -1.85254 0
M  V30 5846 C 553.242 -0.283513 -1.67721 0
M  V30 5847 O 554.427 -0.490717 -1.87898 0
M  V30 5848 C 551.557 -1.27354 -3.23107 0
M  V30 5849 C 550.511 -2.3864 -3.55296 0
M  V30 5850 C 549.837 -2.08939 -4.92188 0
M  V30 5851 C 551.137 -3.8097 -3.57295 0
M  V30 5852 H 552.831 -2.36461 -1.83648 0
M  V30 5853 H 550.377 -1.13817 -0.882138 0
M  V30 5854 H 552.33 -1.2753 -4.01639 0
M  V30 5855 H 551.054 -0.295025 -3.25265 0
M  V30 5856 H 549.713 -2.37696 -2.79099 0
M  V30 5857 H 549.361 -1.09502 -4.90936 0
M  V30 5858 H 549.061 -2.83491 -5.14691 0
M  V30 5859 H 550.585 -2.10781 -5.73065 0
M  V30 5860 H 551.999 -3.8379 -4.25885 0
M  V30 5861 H 550.396 -4.5496 -3.9132 0
M  V30 5862 H 551.466 -4.11261 -2.5689 0
M  V30 5863 N 552.809 0.956637 -1.25245 0
M  V30 5864 C 553.741 2.05628 -1.01242 0
M  V30 5865 C 554.754 1.62785 0.0219579 0
M  V30 5866 O 555.943 1.77184 -0.216365 0
M  V30 5867 C 553.043 3.35069 -0.508161 0
M  V30 5868 C 552.216 4.06761 -1.60823 0
M  V30 5869 C 551.275 5.14473 -1.1047 0
M  V30 5870 O 550.301 5.40033 -1.79868 0
M  V30 5871 N 551.503 5.80474 0.0550773 0
M  V30 5872 H 554.268 2.2679 -1.95925 0
M  V30 5873 H 551.829 1.12505 -1.16423 0
M  V30 5874 H 553.821 4.044 -0.155819 0
M  V30 5875 H 552.391 3.10694 0.344683 0
M  V30 5876 H 551.611 3.31555 -2.13224 0
M  V30 5877 H 552.899 4.51418 -2.34733 0
M  V30 5878 H 552.297 5.62125 0.635004 0
M  V30 5879 H 550.854 6.50868 0.348469 0
M  V30 5880 N 554.287 1.06798 1.15896 0
M  V30 5881 C 555.25 0.687328 2.18651 0
M  V30 5882 C 556.25 -0.269559 1.58524 0
M  V30 5883 O 557.44 -0.0512627 1.74125 0
M  V30 5884 C 554.572 0.0121642 3.40898 0
M  V30 5885 H 555.765 1.59701 2.53842 0
M  V30 5886 H 553.318 0.863828 1.3026 0
M  V30 5887 H 554.053 -0.910025 3.1127 0
M  V30 5888 H 553.838 0.700309 3.85795 0
M  V30 5889 H 555.328 -0.239703 4.16911 0
M  V30 5890 N 555.766 -1.3263 0.851289 0
M  V30 5891 C 556.716 -2.26451 0.265302 0
M  V30 5892 C 557.7 -1.49814 -0.586899 0
M  V30 5893 O 558.892 -1.71525 -0.436834 0
M  V30 5894 C 556.021 -3.38895 -0.548212 0
M  V30 5895 C 555.107 -4.2292 0.316189 0
M  V30 5896 N 555.498 -4.86014 1.40084 0
M  V30 5897 C 553.796 -4.45876 0.105356 0
M  V30 5898 C 554.497 -5.48667 1.93235 0
M  V30 5899 N 553.473 -5.29455 1.232 0
M  V30 5900 H 557.275 -2.72757 1.09457 0
M  V30 5901 H 554.789 -1.4668 0.697047 0
M  V30 5902 H 556.786 -4.05111 -0.984402 0
M  V30 5903 H 555.446 -2.94135 -1.37531 0
M  V30 5904 H 556.457 -4.86212 1.78377 0
M  V30 5905 H 553.134 -4.11804 -0.687299 0
M  V30 5906 H 554.524 -6.08865 2.84135 0
M  V30 5907 N 557.244 -0.608902 -1.45362 0
M  V30 5908 C 558.49 -0.104762 -2.02529 0
M  V30 5909 C 558.823 1.26191 -1.47613 0
M  V30 5910 O 558.098 1.8327 -0.65134 0
M  V30 5911 C 558.381 -0.0672661 -3.60037 0
M  V30 5912 C 558.234 -1.4647 -4.25284 0
M  V30 5913 C 559.553 0.619877 -4.35713 0
M  V30 5914 H 556.672 -0.0395438 -0.735938 0
M  V30 5915 H 559.314 -0.781126 -1.73201 0
M  V30 5916 H 557.464 0.50871 -3.85155 0
M  V30 5917 H 559.136 -2.08785 -4.11347 0
M  V30 5918 H 557.379 -2.02502 -3.83634 0
M  V30 5919 H 558.05 -1.39069 -5.34195 0
M  V30 5920 H 560.526 0.130297 -4.15896 0
M  V30 5921 H 559.402 0.615224 -5.45441 0
M  V30 5922 H 559.663 1.68621 -4.0868 0
M  V30 5923 N 558.722 1.53707 -0.348139 0
M  V30 5924 C 560.138 1.596 0.00361134 0
M  V30 5925 C 560.338 1.36394 1.4832 0
M  V30 5926 O 559.394 1.16046 2.24253 0
M  V30 5927 C 560.707 2.97512 -0.436682 0
M  V30 5928 C 562.255 3.10568 -0.389416 0
M  V30 5929 C 562.73 4.50866 -0.805249 0
M  V30 5930 N 564.221 4.56929 -0.759616 0
M  V30 5931 C 564.956 5.63643 -1.05327 0
M  V30 5932 N 564.452 6.78189 -1.41531 0
M  V30 5933 N 566.245 5.5354 -0.977207 0
M  V30 5934 H 558.396 1.67044 -1.31187 0
M  V30 5935 H 560.659 0.782559 -0.535075 0
M  V30 5936 H 560.365 3.19575 -1.46849 0
M  V30 5937 H 560.239 3.76742 0.185744 0
M  V30 5938 H 562.626 2.88226 0.633228 0
M  V30 5939 H 562.707 2.33387 -1.04711 0
M  V30 5940 H 562.351 4.73943 -1.82593 0
M  V30 5941 H 562.281 5.26452 -0.124989 0
M  V30 5942 H 564.772 3.74675 -0.49265 0
M  V30 5943 H 565.085 7.55541 -1.62411 0
M  V30 5944 H 563.43 6.79624 -1.45381 0
M  V30 5945 H 566.621 4.62932 -0.693675 0
M  V30 5946 H 566.794 6.36614 -1.2094 0
M  V30 5947 N 560.2 0.0768682 1.57412 0
M  V30 5948 C 561.15 -0.898795 2.09537 0
M  V30 5949 C 562.134 -1.25556 1.0062 0
M  V30 5950 O 563.326 -1.23369 1.26921 0
M  V30 5951 C 560.455 -2.16453 2.66464 0
M  V30 5952 C 559.541 -1.83401 3.82393 0
M  V30 5953 N 559.932 -1.20823 4.91157 0
M  V30 5954 C 558.23 -2.13121 3.91785 0
M  V30 5955 C 558.931 -1.05976 5.71965 0
M  V30 5956 N 557.907 -1.57113 5.204 0
M  V30 5957 H 561.709 -0.410718 2.91016 0
M  V30 5958 H 559.223 -0.126878 1.61904 0
M  V30 5959 H 561.22 -2.87274 3.02125 0
M  V30 5960 H 559.88 -2.65844 1.86433 0
M  V30 5961 H 560.891 -0.877249 5.10416 0
M  V30 5962 H 557.568 -2.64854 3.22736 0
M  V30 5963 H 558.958 -0.571809 6.69462 0
M  V30 5964 N 561.678 -1.56367 -0.196722 0
M  V30 5965 C 562.926 -1.80172 -0.915554 0
M  V30 5966 C 563.247 -0.649649 -1.8386 0
M  V30 5967 O 562.517 0.332111 -1.93064 0
M  V30 5968 H 561.097 -0.664592 -0.341067 0
M  V30 5969 H 563.759 -1.93844 -0.202622 0
M  V30 5970 H 562.855 -2.7327 -1.50764 0
M  V30 5971 N 563.156 0.464375 -1.50603 0
M  V30 5972 C 564.384 1.23907 -1.65695 0
M  V30 5973 C 564.799 1.85658 -0.343027 0
M  V30 5974 O 564.156 1.69529 0.675739 0
M  V30 5975 C 564.207 2.3429 -2.75301 0
M  V30 5976 O 563.928 1.7507 -4.01599 0
M  V30 5977 C 565.429 3.25051 -3.01424 0
M  V30 5978 H 562.649 0.374485 -0.556778 0
M  V30 5979 H 565.193 0.55353 -1.96866 0
M  V30 5980 H 563.348 2.98607 -2.46804 0
M  V30 5981 H 563.762 2.47812 -4.62266 0
M  V30 5982 H 565.236 3.98699 -3.81763 0
M  V30 5983 H 565.713 3.84227 -2.12758 0
M  V30 5984 H 566.319 2.66463 -3.31477 0
M  V30 5985 N 564.634 1.40294 0.718013 0
M  V30 5986 C 565.544 1.42678 1.86226 0
M  V30 5987 C 566.56 0.319655 1.71039 0
M  V30 5988 O 567.736 0.563852 1.93346 0
M  V30 5989 C 564.801 1.2852 3.21999 0
M  V30 5990 C 563.862 2.49354 3.49458 0
M  V30 5991 C 563.095 2.35863 4.78753 0
M  V30 5992 O 563.318 1.37114 5.53675 0
M  V30 5993 O 562.252 3.25189 5.06494 0
M  V30 5994 H 566.078 2.39167 1.87171 0
M  V30 5995 H 563.663 1.2159 0.868112 0
M  V30 5996 H 565.545 1.22824 4.03103 0
M  V30 5997 H 564.22 0.351359 3.21787 0
M  V30 5998 H 563.127 2.60628 2.68373 0
M  V30 5999 H 564.46 3.41491 3.54464 0
M  V30 6000 N 566.112 -0.949982 1.2575 0
M  V30 6001 C 567.045 -2.047 1.00862 0
M  V30 6002 C 568.023 -1.62475 -0.0636982 0
M  V30 6003 O 569.207 -1.88343 0.0769153 0
M  V30 6004 C 566.334 -3.34597 0.525613 0
M  V30 6005 C 565.38 -3.95788 1.58916 0
M  V30 6006 S 566.213 -4.31175 3.17567 0
M  V30 6007 C 567.369 -5.64183 2.71013 0
M  V30 6008 H 567.602 -2.25497 1.93749 0
M  V30 6009 H 565.135 -1.09022 1.09332 0
M  V30 6010 H 567.093 -4.09716 0.25359 0
M  V30 6011 H 565.754 -3.11758 -0.382828 0
M  V30 6012 H 564.947 -4.89457 1.20201 0
M  V30 6013 H 564.549 -3.27168 1.81211 0
M  V30 6014 H 566.841 -6.42504 2.14928 0
M  V30 6015 H 567.784 -6.07774 3.6334 0
M  V30 6016 H 568.192 -5.2364 2.1086 0
M  V30 6017 N 567.59 -1.07411 -1.15328 0
M  V30 6018 C 568.553 -0.698914 -2.18284 0
M  V30 6019 C 569.553 0.261149 -1.58665 0
M  V30 6020 O 570.743 0.0420277 -1.74149 0
M  V30 6021 C 567.875 -0.0302427 -3.40887 0
M  V30 6022 H 569.068 -1.61045 -2.52991 0
M  V30 6023 H 566.621 -0.870724 -1.298 0
M  V30 6024 H 567.356 0.893505 -3.11748 0
M  V30 6025 H 567.141 -0.720759 -3.85419 0
M  V30 6026 H 568.631 0.21759 -4.17033 0
M  V30 6027 N 569.068 1.32177 -0.85831 0
M  V30 6028 C 570.015 2.28794 -0.303607 0
M  V30 6029 C 570.985 1.55213 0.591453 0
M  V30 6030 O 572.17 1.83418 0.525585 0
M  V30 6031 C 569.31 3.41475 0.49889 0
M  V30 6032 C 568.423 4.2993 -0.422373 0
M  V30 6033 C 567.558 5.29743 0.393111 0
M  V30 6034 C 566.597 6.09842 -0.525317 0
M  V30 6035 N 565.734 7.01643 0.253208 0
M  V30 6036 H 570.574 2.75631 -1.13276 0
M  V30 6037 H 568.111 1.35606 -0.570026 0
M  V30 6038 H 570.069 4.05531 0.979826 0
M  V30 6039 H 568.699 2.95779 1.29284 0
M  V30 6040 H 567.751 3.66422 -1.02171 0
M  V30 6041 H 569.063 4.85899 -1.12709 0
M  V30 6042 H 568.217 5.9942 0.937056 0
M  V30 6043 H 566.956 4.744 1.13117 0
M  V30 6044 H 565.961 5.39066 -1.08112 0
M  V30 6045 H 567.186 6.6727 -1.26205 0
M  V30 6046 H 565.132 6.48725 0.974295 0
M  V30 6047 H 565.049 7.54981 -0.392398 0
M  V30 6048 H 566.317 7.756 0.778761 0
M  V30 6049 N 570.547 0.616602 1.45037 0
M  V30 6050 C 571.777 0.121791 2.06241 0
M  V30 6051 C 572.185 -1.20289 1.46038 0
M  V30 6052 O 571.528 -1.7456 0.572242 0
M  V30 6053 C 571.59 -0.0827345 3.59405 0
M  V30 6054 C 571.254 1.16153 4.41993 0
M  V30 6055 C 572.251 2.08183 4.76399 0
M  V30 6056 C 569.936 1.39288 4.82601 0
M  V30 6057 C 571.93 3.21668 5.5028 0
M  V30 6058 C 569.617 2.53073 5.56235 0
M  V30 6059 C 570.615 3.44091 5.89992 0
M  V30 6060 O 570.303 4.55894 6.6213 0
M  V30 6061 H 570.035 0.0701667 0.672349 0
M  V30 6062 H 572.589 0.846877 1.87129 0
M  V30 6063 H 570.819 -0.862812 3.76952 0
M  V30 6064 H 572.508 -0.530273 4.02421 0
M  V30 6065 H 573.274 1.91538 4.45576 0
M  V30 6066 H 569.153 0.693396 4.55755 0
M  V30 6067 H 572.697 3.92733 5.76547 0
M  V30 6068 H 568.594 2.69667 5.86472 0
M  V30 6069 H 569.362 4.5469 6.80587 0
M  V30 6070 N 572.025 -1.5352 0.356285 0
M  V30 6071 C 573.272 -2.01117 -0.236303 0
M  V30 6072 C 573.6 -1.24381 -1.49531 0
M  V30 6073 O 572.855 -0.323057 -1.93015 0
M  V30 6074 C 573.154 -3.52607 -0.583369 0
M  V30 6075 C 572.82 -4.47151 0.58023 0
M  V30 6076 C 571.482 -4.72718 0.899528 0
M  V30 6077 C 573.834 -5.03137 1.36024 0
M  V30 6078 C 571.162 -5.51523 2.00098 0
M  V30 6079 C 573.514 -5.83145 2.45204 0
M  V30 6080 C 572.178 -6.07001 2.77679 0
M  V30 6081 H 571.448 -0.735938 -0.0864695 0
M  V30 6082 H 574.095 -1.85209 0.48683 0
M  V30 6083 H 572.4 -3.66413 -1.38739 0
M  V30 6084 H 574.097 -3.86901 -1.05397 0
M  V30 6085 H 570.687 -4.27394 0.321322 0
M  V30 6086 H 574.871 -4.83339 1.12682 0
M  V30 6087 H 570.127 -5.68229 2.25668 0
M  V30 6088 H 574.301 -6.25537 3.06067 0
M  V30 6089 H 571.928 -6.67851 3.63151 0
M  V30 6090 N 573.503 -0.0852151 -1.57369 0
M  V30 6091 C 574.413 0.891712 -2.16992 0
M  V30 6092 C 575.429 1.3174 -1.13669 0
M  V30 6093 O 576.605 1.38735 -1.45995 0
M  V30 6094 C 573.67 2.13635 -2.73059 0
M  V30 6095 C 572.731 1.7658 -3.91303 0
M  V30 6096 C 571.964 2.95111 -4.44686 0
M  V30 6097 O 572.187 4.09539 -3.97032 0
M  V30 6098 O 571.121 2.74149 -5.35841 0
M  V30 6099 H 574.947 0.414477 -3.00858 0
M  V30 6100 H 572.532 0.138598 -1.48756 0
M  V30 6101 H 574.414 2.86595 -3.08935 0
M  V30 6102 H 573.089 2.6043 -1.92244 0
M  V30 6103 H 571.996 1.00831 -3.60255 0
M  V30 6104 H 573.329 1.34557 -4.7345 0
M  V30 6105 N 574.981 1.5647 0.188427 0
M  V30 6106 C 576.206 1.85486 0.927891 0
M  V30 6107 C 576.631 0.669575 1.75779 0
M  V30 6108 O 575.989 -0.381573 1.77239 0
M  V30 6109 C 576.037 3.12784 1.7944 0
M  V30 6110 O 575.141 2.93805 2.894 0
M  V30 6111 H 574.482 0.610585 0.260925 0
M  V30 6112 H 577.012 2.037 0.191729 0
M  V30 6113 H 577.022 3.43749 2.19774 0
M  V30 6114 H 575.697 3.98671 1.18468 0
M  V30 6115 H 574.274 2.74153 2.52774 0
M  V30 6116 N 576.459 -0.456382 1.50847 0
M  V30 6117 C 577.389 -1.56025 1.73719 0
M  V30 6118 C 578.37 -1.5967 0.586473 0
M  V30 6119 O 579.555 -1.75702 0.827185 0
M  V30 6120 C 576.685 -2.94251 1.84483 0
M  V30 6121 C 575.639 -3.05471 2.99786 0
M  V30 6122 C 574.965 -4.45489 2.95709 0
M  V30 6123 C 576.265 -2.81318 4.40065 0
M  V30 6124 H 577.959 -1.37138 2.66146 0
M  V30 6125 H 575.505 -0.658299 1.28072 0
M  V30 6126 H 577.458 -3.71417 1.99067 0
M  V30 6127 H 576.182 -3.14328 0.886891 0
M  V30 6128 H 574.841 -2.30741 2.84876 0
M  V30 6129 H 574.489 -4.62505 1.97732 0
M  V30 6130 H 574.189 -4.53929 3.73125 0
M  V30 6131 H 575.713 -5.24655 3.12362 0
M  V30 6132 H 577.127 -3.48226 4.55425 0
M  V30 6133 H 575.524 -3.01188 5.19043 0
M  V30 6134 H 576.594 -1.7706 4.51418 0
M  V30 6135 N 577.937 -1.40673 -0.710563 0
M  V30 6136 C 579.183 -1.39428 -1.47267 0
M  V30 6137 C 579.516 0.00182129 -1.942 0
M  V30 6138 O 578.791 0.971387 -1.68506 0
M  V30 6139 C 579.074 -2.38812 -2.6952 0
M  V30 6140 C 578.927 -3.87467 -2.28449 0
M  V30 6141 C 580.246 -2.3566 -3.71689 0
M  V30 6142 H 577.365 -0.507768 -0.534173 0
M  V30 6143 H 580.007 -1.71843 -0.810547 0
M  V30 6144 H 578.157 -2.113 -3.26013 0
M  V30 6145 H 579.829 -4.25825 -1.77399 0
M  V30 6146 H 578.072 -4.03058 -1.60395 0
M  V30 6147 H 578.743 -4.5253 -3.16103 0
M  V30 6148 H 581.219 -2.6004 -3.24836 0
M  V30 6149 H 580.095 -3.07237 -4.54859 0
M  V30 6150 H 580.356 -1.36996 -4.20339 0
M  V30 6151 N 579.415 0.9433 -1.26252 0
M  V30 6152 C 580.831 1.21644 -1.03319 0
M  V30 6153 C 581.031 2.0003 0.242983 0
M  V30 6154 O 580.087 2.33838 0.952688 0
M  V30 6155 C 581.4 1.97978 -2.2633 0
M  V30 6156 C 582.948 2.10978 -2.31209 0
M  V30 6157 C 583.423 2.90713 -3.53907 0
M  V30 6158 N 584.914 2.98287 -3.54371 0
M  V30 6159 C 585.649 3.60406 -4.45976 0
M  V30 6160 N 585.145 4.24043 -5.47868 0
M  V30 6161 N 586.938 3.57658 -4.33633 0
M  V30 6162 H 579.089 0.419221 -2.08222 0
M  V30 6163 H 581.352 0.247995 -0.914988 0
M  V30 6164 H 581.058 1.47788 -3.19142 0
M  V30 6165 H 580.932 2.9865 -2.30408 0
M  V30 6166 H 583.319 2.6036 -1.38913 0
M  V30 6167 H 583.4 1.09575 -2.31143 0
M  V30 6168 H 583.044 2.42018 -4.46531 0
M  V30 6169 H 582.974 3.92367 -3.5122 0
M  V30 6170 H 585.465 2.53044 -2.80673 0
M  V30 6171 H 585.778 4.69334 -6.13959 0
M  V30 6172 H 584.123 4.22637 -5.51728 0
M  V30 6173 H 587.314 3.07134 -3.53251 0
M  V30 6174 H 587.487 4.05782 -5.05218 0
M  V30 6175 N 580.893 1.08022 1.14757 0
M  V30 6176 C 581.841 0.701088 2.21783 0
M  V30 6177 C 582.835 -0.291311 1.66876 0
M  V30 6178 O 584.041 -0.154296 1.79337 0
M  V30 6179 H 580.416 0.208668 0.722469 0
M  V30 6180 H 582.387 1.61321 2.51034 0
M  V30 6181 C 581.136 0.122278 3.47485 0
M  V30 6182 H 580.459 0.877065 3.90061 0
M  V30 6183 H 581.899 -0.105248 4.23869 0
M  V30 6184 C 580.358 -1.13883 3.17068 0
M  V30 6185 O 580.888 -2.22429 3.34497 0
M  V30 6186 N 579.094 -1.04767 2.71058 0
M  V30 6187 H 578.641 -0.164302 2.57075 0
M  V30 6188 H 578.599 -1.89224 2.51081 0
M  V30 6189 N 582.371 -1.3172 0.865308 0
M  V30 6190 C 583.648 -1.91574 0.394789 0
M  V30 6191 C 584.028 -1.78769 -1.12271 0
M  V30 6192 O 583.376 -1.19245 -1.94918 0
M  V30 6193 C 583.586 -3.37957 0.870982 0
M  V30 6194 C 584.934 -4.15073 0.894384 0
M  V30 6195 O 585.958 -3.4672 0.816325 0
M  V30 6196 O 584.817 -5.37151 1.00651 0
M  V30 6197 H 581.911 -0.818649 0.117229 0
M  V30 6198 H 584.457 -1.4042 0.952913 0
M  V30 6199 H 583.229 -3.41269 1.91444 0
M  V30 6200 H 582.852 -3.96534 0.290907 0
M  V30 6201 N 583.85 -0.624285 -1.44708 0
M  V30 6202 C 585.26 -0.2092 -1.85524 0
M  V30 6203 C 585.611 1.23783 -1.52225 0
M  V30 6204 O 584.736 1.94089 -0.956986 0
M  V30 6205 C 585.332 -0.372897 -3.36742 0
M  V30 6206 C 583.891 -0.012374 -3.76398 0
M  V30 6207 C 583.038 -0.68951 -2.68591 0
M  V30 6208 H 585.989 -0.829894 -1.35272 0
M  V30 6209 H 586.01 0.390134 -3.78495 0
M  V30 6210 H 585.522 -1.42615 -3.60947 0
M  V30 6211 H 583.623 1.03941 -3.57809 0
M  V30 6212 H 583.736 -0.417663 -4.77276 0
M  V30 6213 H 582.1 -0.125484 -2.54391 0
M  V30 6214 H 582.883 -1.74522 -2.9563 0
M  V30 6215 N 585.328 1.53329 -0.364422 0
M  V30 6216 C 586.553 2.06132 0.229033 0
M  V30 6217 C 586.978 1.23625 1.41769 0
M  V30 6218 O 586.336 0.255038 1.79497 0
M  V30 6219 C 586.384 3.55544 0.60174 0
M  V30 6220 O 585.488 3.75771 1.69912 0
M  V30 6221 H 584.829 0.663148 0.0336213 0
M  V30 6222 H 587.359 1.97758 -0.524689 0
M  V30 6223 H 587.369 3.98549 0.873073 0
M  V30 6224 H 586.044 4.15039 -0.267421 0
M  V30 6225 H 584.621 3.44663 1.42343 0
M  V30 6226 N 586.806 0.0935595 1.57322 0
M  V30 6227 C 588.053 -0.570509 1.94297 0
M  V30 6228 C 588.381 -1.68286 0.97519 0
M  V30 6229 O 587.636 -1.95699 -0.00548655 0
M  V30 6230 C 587.935 -1.16692 3.37813 0
M  V30 6231 C 587.601 -0.178509 4.50547 0
M  V30 6232 C 586.263 0.0933475 4.81109 0
M  V30 6233 C 588.615 0.496472 5.1883 0
M  V30 6234 C 585.943 1.0469 5.77284 0
M  V30 6235 C 588.295 1.43849 6.16028 0
M  V30 6236 C 586.959 1.71859 6.44997 0
M  V30 6237 H 586.229 -0.208764 0.710984 0
M  V30 6238 H 588.876 0.169066 1.90752 0
M  V30 6239 H 587.181 -1.98271 3.37929 0
M  V30 6240 H 588.878 -1.6884 3.63722 0
M  V30 6241 H 585.468 -0.400584 4.26724 0
M  V30 6242 H 589.652 0.299584 4.95395 0
M  V30 6243 H 584.908 1.27094 5.98044 0
M  V30 6244 H 589.082 1.96734 6.68034 0
M  V30 6245 H 586.709 2.45906 7.19329 0
M  V30 6246 N 588.284 -1.56567 -0.180126 0
M  V30 6247 C 589.194 -1.98947 -1.24327 0
M  V30 6248 C 590.21 -0.899446 -1.4895 0
M  V30 6249 O 591.386 -1.20639 -1.61271 0
M  V30 6250 C 588.451 -2.33328 -2.56435 0
M  V30 6251 C 587.512 -3.56114 -2.39752 0
M  V30 6252 C 586.745 -3.88845 -3.65561 0
M  V30 6253 O 586.968 -3.22662 -4.70368 0
M  V30 6254 O 585.902 -4.82226 -3.60197 0
M  V30 6255 H 589.728 -2.89634 -0.913565 0
M  V30 6256 H 587.313 -1.44319 -0.386306 0
M  V30 6257 H 589.195 -2.5645 -3.34382 0
M  V30 6258 H 587.87 -1.45806 -2.89002 0
M  V30 6259 H 586.777 -3.38221 -1.59866 0
M  V30 6260 H 588.11 -4.4415 -2.12113 0
M  V30 6261 N 589.762 0.448376 -1.51087 0
M  V30 6262 C 591.011 1.19561 -1.62444 0
M  V30 6263 C 591.324 1.92602 -0.341151 0
M  V30 6264 O 592.53 2.69439 -0.333936 0
M  V30 6265 C 590.986 2.17373 -2.8684 0
M  V30 6266 C 590.594 1.5003 -4.22131 0
M  V30 6267 C 592.338 2.92597 -3.0755 0
M  V30 6268 C 590.245 2.46262 -5.37689 0
M  V30 6269 H 589.175 0.449975 -0.605011 0
M  V30 6270 H 591.826 0.463735 -1.77544 0
M  V30 6271 H 590.208 2.93948 -2.65349 0
M  V30 6272 H 591.382 0.790886 -4.53962 0
M  V30 6273 H 589.697 0.870011 -4.0721 0
M  V30 6274 H 592.294 3.64663 -3.91056 0
M  V30 6275 H 592.637 3.53306 -2.20183 0
M  V30 6276 H 593.17 2.23131 -3.29329 0
M  V30 6277 H 589.909 1.90258 -6.27281 0
M  V30 6278 H 589.429 3.15289 -5.10248 0
M  V30 6279 H 591.108 3.07623 -5.6919 0
M  V30 6280 N 591.24 1.41047 0.703093 0
M  V30 6281 C 592.651 1.35657 1.28274 0
M  V30 6282 C 593.002 0.0360309 1.96167 0
M  V30 6283 O 592.127 -0.865833 1.98324 0
M  V30 6284 C 592.722 2.45707 2.33267 0
M  V30 6285 C 591.281 2.43738 2.86825 0
M  V30 6286 C 590.428 2.25941 1.60767 0
M  V30 6287 H 593.379 1.50672 0.49836 0
M  V30 6288 H 593.4 2.14333 3.14391 0
M  V30 6289 H 592.912 3.41805 1.83824 0
M  V30 6290 H 591.013 1.51375 3.40465 0
M  V30 6291 H 591.126 3.39779 3.37768 0
M  V30 6292 H 589.49 1.73681 1.86298 0
M  V30 6293 H 590.273 3.24054 1.1333 0
M  V30 6294 N 592.718 -0.936591 1.26751 0
M  V30 6295 C 593.681 -2.01752 1.08761 0
M  V30 6296 C 594.681 -1.60763 0.0344435 0
M  V30 6297 O 595.871 -1.71963 0.278258 0
M  V30 6298 C 593.003 -3.34543 0.655271 0
M  V30 6299 H 594.196 -2.19143 2.04735 0
M  V30 6300 H 591.749 -1.11618 1.09413 0
M  V30 6301 H 592.484 -3.22851 -0.30626 0
M  V30 6302 H 592.269 -3.65647 1.41578 0
M  V30 6303 H 593.759 -4.13944 0.551378 0
M  V30 6304 N 594.196 -1.08629 -1.14182 0
M  V30 6305 C 595.143 -0.718299 -2.19338 0
M  V30 6306 C 596.113 0.296587 -1.63431 0
M  V30 6307 O 597.298 0.180079 -1.89948 0
M  V30 6308 C 594.438 -0.136203 -3.44831 0
M  V30 6309 C 593.551 -1.20414 -4.14879 0
M  V30 6310 C 592.686 -0.585666 -5.27962 0
M  V30 6311 C 591.725 -1.63548 -5.89846 0
M  V30 6312 N 590.862 -1.03864 -6.94375 0
M  V30 6313 H 595.702 -1.61932 -2.50164 0
M  V30 6314 H 593.239 -0.80919 -1.22844 0
M  V30 6315 H 595.197 0.219021 -4.16625 0
M  V30 6316 H 593.827 0.728121 -3.14481 0
M  V30 6317 H 592.879 -1.67676 -3.41451 0
M  V30 6318 H 594.191 -1.99959 -4.56966 0
M  V30 6319 H 593.345 -0.178818 -6.06436 0
M  V30 6320 H 592.084 0.24142 -4.87102 0
M  V30 6321 H 591.089 -2.05197 -5.10073 0
M  V30 6322 H 592.314 -2.46509 -6.3278 0
M  V30 6323 H 590.26 -0.232687 -6.55587 0
M  V30 6324 H 590.177 -1.77116 -7.3496 0
M  V30 6325 H 591.445 -0.657724 -7.7672 0
M  V30 6326 N 595.674 1.31259 -0.872281 0
M  V30 6327 C 597.09 1.49283 -0.564521 0
M  V30 6328 C 597.29 1.80243 0.900807 0
M  V30 6329 O 596.346 1.88246 1.68284 0
M  V30 6330 C 597.659 2.62503 -1.46673 0
M  V30 6331 C 599.207 2.76386 -1.46901 0
M  V30 6332 C 599.682 3.92705 -2.35684 0
M  V30 6333 N 601.173 3.99995 -2.33577 0
M  V30 6334 C 601.908 4.89276 -2.98992 0
M  V30 6335 N 601.404 5.83443 -3.73585 0
M  V30 6336 N 603.197 4.82541 -2.88289 0
M  V30 6337 H 595.348 1.09432 -1.82039 0
M  V30 6338 H 597.611 0.540949 -0.77851 0
M  V30 6339 H 597.317 2.46407 -2.50951 0
M  V30 6340 H 597.191 3.58695 -1.16696 0
M  V30 6341 H 599.578 2.91894 -0.433796 0
M  V30 6342 H 599.659 1.80853 -1.80903 0
M  V30 6343 H 599.303 3.77954 -3.39283 0
M  V30 6344 H 599.233 4.87549 -1.99006 0
M  V30 6345 H 601.724 3.32624 -1.7936 0
M  V30 6346 H 602.037 6.48303 -4.20622 0
M  V30 6347 H 600.382 5.83415 -3.77694 0
M  V30 6348 H 603.573 4.07951 -2.2955 0
M  V30 6349 H 603.746 5.51916 -3.39549 0
M  V30 6350 N 597.152 0.631951 1.44375 0
M  V30 6351 C 598.102 -0.0943862 2.27805 0
M  V30 6352 C 599.086 -0.815359 1.38711 0
M  V30 6353 O 600.278 -0.701331 1.62513 0
M  V30 6354 C 597.407 -1.07472 3.26044 0
M  V30 6355 C 596.493 -0.353329 4.22626 0
M  V30 6356 N 596.884 0.618512 5.02004 0
M  V30 6357 C 595.182 -0.597662 4.41977 0
M  V30 6358 C 595.883 1.0448 5.7224 0
M  V30 6359 N 594.859 0.383413 5.42246 0
M  V30 6360 H 598.661 0.651672 2.86584 0
M  V30 6361 H 596.175 0.45752 1.55822 0
M  V30 6362 H 598.172 -1.60969 3.84571 0
M  V30 6363 H 596.832 -1.82107 2.68825 0
M  V30 6364 H 597.843 0.996356 5.08226 0
M  V30 6365 H 594.52 -1.32682 3.95856 0
M  V30 6366 H 595.91 1.84773 6.45994 0
M  V30 6367 N 598.631 -1.53133 0.372548 0
M  V30 6368 C 599.561 -2.28876 -0.462412 0
M  V30 6369 C 600.542 -1.31583 -1.07796 0
M  V30 6370 O 601.727 -1.60461 -1.09389 0
M  V30 6371 C 598.857 -3.08317 -1.59868 0
M  V30 6372 C 597.811 -4.13355 -1.11003 0
M  V30 6373 C 597.137 -4.8092 -2.33708 0
M  V30 6374 C 598.437 -5.21955 -0.18983 0
M  V30 6375 H 600.131 -2.9892 0.169511 0
M  V30 6376 H 597.677 -1.43761 0.0829658 0
M  V30 6377 H 599.63 -3.60055 -2.18949 0
M  V30 6378 H 598.354 -2.35976 -2.25794 0
M  V30 6379 H 597.013 -3.62573 -0.541869 0
M  V30 6380 H 596.661 -4.05144 -2.98106 0
M  V30 6381 H 596.361 -5.51904 -2.01682 0
M  V30 6382 H 597.885 -5.35455 -2.93462 0
M  V30 6383 H 599.299 -5.69153 -0.688319 0
M  V30 6384 H 597.696 -6.00087 0.0398887 0
M  V30 6385 H 598.766 -4.78811 0.766057 0
M  V30 6386 N 600.109 -0.101901 -1.5727 0
M  V30 6387 C 601.357 0.559091 -1.94213 0
M  V30 6388 C 601.678 1.68297 -0.984948 0
M  V30 6389 O 600.948 1.95863 -0.0381975 0
M  V30 6390 H 599.528 0.20952 -0.717015 0
M  V30 6391 H 602.19 -0.166831 -1.94185 0
M  V30 6392 H 601.286 0.96485 -2.96811 0
M  V30 6393 N 601.587 1.56661 0.17182 0
M  V30 6394 C 602.517 1.99401 1.21498 0
M  V30 6395 C 603.498 0.869516 1.46197 0
M  V30 6396 O 604.683 1.13556 1.57539 0
M  V30 6397 C 601.813 2.35346 2.55401 0
M  V30 6398 C 600.767 3.5075 2.45272 0
M  V30 6399 C 600.093 3.72437 3.8366 0
M  V30 6400 C 601.393 4.84216 1.95787 0
M  V30 6401 H 603.087 2.86792 0.859699 0
M  V30 6402 H 600.633 1.37977 0.412103 0
M  V30 6403 H 602.586 2.63843 3.2858 0
M  V30 6404 H 601.31 1.44864 2.92715 0
M  V30 6405 H 599.969 3.2238 1.74547 0
M  V30 6406 H 599.617 2.79246 4.18367 0
M  V30 6407 H 599.317 4.50087 3.77751 0
M  V30 6408 H 600.841 4.03334 4.58426 0
M  V30 6409 H 602.255 5.11592 2.5874 0
M  V30 6410 H 600.652 5.65498 2.00827 0
M  V30 6411 H 601.722 4.76243 0.912159 0
M  V30 6412 N 603.065 -0.440357 1.51323 0
M  V30 6413 C 604.311 -1.19181 1.64085 0
M  V30 6414 C 604.644 -1.90936 0.354575 0
M  V30 6415 O 603.919 -1.8347 -0.645675 0
M  V30 6416 C 604.202 -2.2112 2.84215 0
M  V30 6417 C 604.055 -1.53468 4.22809 0
M  V30 6418 C 605.374 -3.22133 2.99864 0
M  V30 6419 H 602.493 -0.431924 0.597169 0
M  V30 6420 H 605.135 -0.481443 1.83799 0
M  V30 6421 H 603.285 -2.81703 2.67537 0
M  V30 6422 H 604.957 -0.962455 4.51148 0
M  V30 6423 H 603.2 -0.837086 4.25647 0
M  V30 6424 H 603.871 -2.27694 5.02852 0
M  V30 6425 H 606.347 -2.71601 3.15233 0
M  V30 6426 H 605.223 -3.90756 3.85488 0
M  V30 6427 H 605.484 -3.88061 2.11804 0
M  V30 6428 N 604.543 -1.41418 -0.695603 0
M  V30 6429 C 605.789 -1.40982 -1.4578 0
M  V30 6430 C 606.122 -0.0187763 -1.94191 0
M  V30 6431 O 605.397 0.95346 -1.69527 0
M  V30 6432 C 605.68 -2.41657 -2.66972 0
M  V30 6433 C 605.533 -3.89869 -2.24327 0
M  V30 6434 C 606.852 -2.39589 -3.69168 0
M  V30 6435 H 603.971 -0.513405 -0.528757 0
M  V30 6436 H 606.613 -1.72693 -0.792275 0
M  V30 6437 H 604.763 -2.14746 -3.23754 0
M  V30 6438 H 606.435 -4.27683 -1.72872 0
M  V30 6439 H 604.678 -4.04737 -1.56111 0
M  V30 6440 H 605.349 -4.55857 -3.11285 0
M  V30 6441 H 607.825 -2.63471 -3.2206 0
M  V30 6442 H 606.701 -3.12044 -4.51575 0
M  V30 6443 H 606.962 -1.41447 -4.18862 0
M  V30 6444 N 606.021 0.929856 -1.27246 0
M  V30 6445 C 607.268 1.67731 -1.13457 0
M  V30 6446 C 607.596 1.9185 0.319998 0
M  V30 6447 O 606.851 1.50524 1.25064 0
M  V30 6448 C 607.15 3.05116 -1.86115 0
M  V30 6449 C 606.816 3.00715 -3.35978 0
M  V30 6450 C 605.478 2.99222 -3.76855 0
M  V30 6451 C 607.83 2.92168 -4.3161 0
M  V30 6452 C 605.158 2.86962 -5.11732 0
M  V30 6453 C 607.51 2.81449 -5.66542 0
M  V30 6454 C 606.174 2.78305 -6.06715 0
M  V30 6455 H 605.444 0.613772 -0.415168 0
M  V30 6456 H 608.091 1.08456 -1.57827 0
M  V30 6457 H 606.396 3.68083 -1.34246 0
M  V30 6458 H 608.093 3.61822 -1.72876 0
M  V30 6459 H 604.683 3.02664 -3.03468 0
M  V30 6460 H 608.867 2.92421 -4.01003 0
M  V30 6461 H 604.123 2.82913 -5.42006 0
M  V30 6462 H 608.297 2.738 -6.40317 0
M  V30 6463 H 605.924 2.68561 -7.11181 0
M  V30 6464 N 607.499 1.09233 1.13605 0
M  V30 6465 C 608.915 0.82163 1.36826 0
M  V30 6466 C 609.115 -0.565021 1.93416 0
M  V30 6467 O 608.171 -1.32026 2.15234 0
M  V30 6468 C 609.484 1.91124 2.32147 0
M  V30 6469 C 611.032 1.93824 2.45767 0
M  V30 6470 C 611.507 3.01923 3.44393 0
M  V30 6471 N 612.998 3.01149 3.51942 0
M  V30 6472 C 613.733 3.81434 4.2813 0
M  V30 6473 N 613.229 4.71621 5.07489 0
M  V30 6474 N 615.022 3.69702 4.23411 0
M  V30 6475 H 607.173 1.98633 0.752234 0
M  V30 6476 H 609.436 0.862482 0.393482 0
M  V30 6477 H 609.142 2.90862 1.97717 0
M  V30 6478 H 609.016 1.78777 3.32142 0
M  V30 6479 H 611.403 0.94726 2.79483 0
M  V30 6480 H 611.484 2.10248 1.45703 0
M  V30 6481 H 611.128 4.01232 3.11408 0
M  V30 6482 H 611.058 2.82742 4.44257 0
M  V30 6483 H 613.549 2.35789 2.95317 0
M  V30 6484 H 613.862 5.29468 5.62924 0
M  V30 6485 H 612.207 4.75658 5.06729 0
M  V30 6486 H 615.398 2.98606 3.60489 0
M  V30 6487 H 615.571 4.32509 4.82535 0
M  V30 6488 N 608.977 -1.30795 0.87923 0
M  V30 6489 C 609.907 -2.30742 0.357796 0
M  V30 6490 C 610.888 -1.60747 -0.556283 0
M  V30 6491 O 612.073 -1.88393 -0.47135 0
M  V30 6492 C 609.203 -3.44583 -0.433555 0
M  V30 6493 C 608.157 -4.26235 0.388251 0
M  V30 6494 C 607.483 -5.32073 -0.529352 0
M  V30 6495 C 608.783 -4.96303 1.62729 0
M  V30 6496 H 610.477 -2.74605 1.19299 0
M  V30 6497 H 608.023 -1.32017 0.575104 0
M  V30 6498 H 609.976 -4.13563 -0.808934 0
M  V30 6499 H 608.7 -2.99511 -1.30234 0
M  V30 6500 H 607.359 -3.58936 0.745695 0
M  V30 6501 H 607.007 -4.83249 -1.39569 0
M  V30 6502 H 606.707 -5.87598 0.0166741 0
M  V30 6503 H 608.231 -6.0391 -0.901373 0
M  V30 6504 H 609.645 -5.5783 1.32283 0
M  V30 6505 H 608.042 -5.61666 2.11309 0
M  V30 6506 H 609.112 -4.22758 2.37494 0
M  V30 6507 N 610.455 -0.639598 -1.44038 0
M  V30 6508 C 611.402 0.0602458 -2.30721 0
M  V30 6509 C 612.372 0.828352 -1.43971 0
M  V30 6510 O 613.557 0.807693 -1.72861 0
M  V30 6511 C 610.697 1.03008 -3.29368 0
M  V30 6512 C 609.81 0.259502 -4.3122 0
M  V30 6513 C 608.945 1.22191 -5.16955 0
M  V30 6514 C 607.984 0.440978 -6.10509 0
M  V30 6515 N 607.121 1.35428 -6.88915 0
M  V30 6516 H 611.961 -0.684867 -2.90023 0
M  V30 6517 H 609.498 -0.349509 -1.42888 0
M  V30 6518 H 611.456 1.60583 -3.85057 0
M  V30 6519 H 610.086 1.74222 -2.71747 0
M  V30 6520 H 609.138 -0.432317 -3.77935 0
M  V30 6521 H 610.45 -0.348347 -4.97582 0
M  V30 6522 H 609.604 1.86873 -5.77203 0
M  V30 6523 H 608.343 1.86367 -4.50687 0
M  V30 6524 H 607.348 -0.219279 -5.49363 0
M  V30 6525 H 608.573 -0.196192 -6.78817 0
M  V30 6526 H 606.519 1.9831 -6.25307 0
M  V30 6527 H 606.436 0.800657 -7.51748 0
M  V30 6528 H 607.704 1.98967 -7.53679 0
M  V30 6529 N 611.933 1.52934 -0.380664 0
M  V30 6530 C 613.181 2.01069 0.203874 0
M  V30 6531 C 613.502 1.26922 1.4804 0
M  V30 6532 O 612.772 0.386787 1.92044 0
M  V30 6533 H 611.352 0.742882 0.0783279 0
M  V30 6534 H 614.014 1.88099 -0.510368 0
M  V30 6535 H 613.11 3.09258 0.42021 0
M  V30 6536 N 613.412 0.11024 1.57214 0
M  V30 6537 C 614.823 -0.416527 1.81994 0
M  V30 6538 C 615.174 -1.67183 1.02686 0
M  V30 6539 O 614.299 -2.14823 0.260782 0
M  V30 6540 C 614.894 -0.762466 3.30109 0
M  V30 6541 C 613.453 -1.23391 3.556 0
M  V30 6542 C 612.6 -0.238166 2.76275 0
M  V30 6543 H 615.551 0.335491 1.55113 0
M  V30 6544 H 615.572 -1.62068 3.44259 0
M  V30 6545 H 615.084 0.151346 3.87805 0
M  V30 6546 H 613.185 -2.16492 3.03253 0
M  V30 6547 H 613.298 -1.18528 4.64207 0
M  V30 6548 H 611.662 -0.723421 2.4421 0
M  V30 6549 H 612.445 0.668591 3.36727 0
M  V30 6550 N 614.89 -1.56749 -0.16351 0
M  V30 6551 C 615.838 -1.97939 -1.22159 0
M  V30 6552 C 616.832 -0.869288 -1.45395 0
M  V30 6553 O 618.038 -1.05443 -1.45883 0
M  V30 6554 H 614.413 -0.629869 -0.410815 0
M  V30 6555 H 616.384 -2.86115 -0.847381 0
M  V30 6556 C 615.133 -2.36206 -2.55151 0
M  V30 6557 H 614.456 -3.2117 -2.38097 0
M  V30 6558 H 615.896 -2.68863 -3.27854 0
M  V30 6559 C 614.355 -1.20841 -3.14482 0
M  V30 6560 O 614.885 -0.500258 -3.98573 0
M  V30 6561 N 613.091 -0.976943 -2.73686 0
M  V30 6562 H 612.638 -1.55457 -2.05404 0
M  V30 6563 H 612.596 -0.206912 -3.13718 0
M  V30 6564 N 616.368 0.432326 -1.51554 0
M  V30 6565 C 617.608 1.19076 -1.66133 0
M  V30 6566 C 617.972 1.88364 -0.371873 0
M  V30 6567 O 619.173 2.65904 -0.39349 0
M  V30 6568 C 617.444 2.1768 -2.83461 0
M  V30 6569 S 619.003 3.01943 -3.18396 0
M  V30 6570 H 615.821 0.403735 -0.585251 0
M  V30 6571 H 618.423 0.481554 -1.89476 0
M  V30 6572 H 617.127 1.65424 -3.75583 0
M  V30 6573 H 616.658 2.93174 -2.62322 0
M  V30 6574 H 618.673 4.19373 -2.65219 0
M  V30 6575 N 617.846 1.41785 0.688094 0
M  V30 6576 C 618.776 1.47 1.8142 0
M  V30 6577 C 619.757 0.327881 1.6691 0
M  V30 6578 O 620.942 0.540362 1.86531 0
M  V30 6579 C 618.072 1.35876 3.19617 0
M  V30 6580 C 617.026 2.47976 3.48844 0
M  V30 6581 C 616.352 2.21915 4.86475 0
M  V30 6582 C 617.652 3.90309 3.47068 0
M  V30 6583 H 619.346 2.41247 1.77314 0
M  V30 6584 H 616.892 1.16116 0.851651 0
M  V30 6585 H 618.845 1.38134 3.98117 0
M  V30 6586 H 617.569 0.38116 3.24368 0
M  V30 6587 H 616.228 2.45013 2.72698 0
M  V30 6588 H 615.876 1.2248 4.8786 0
M  V30 6589 H 615.576 2.97037 5.06994 0
M  V30 6590 H 617.1 2.25901 5.67275 0
M  V30 6591 H 618.514 3.94947 4.1556 0
M  V30 6592 H 616.911 4.65175 3.7912 0
M  V30 6593 H 617.981 4.17927 2.45896 0
M  V30 6594 N 619.324 -0.923095 1.27737 0
M  V30 6595 C 620.552 -1.70525 1.17171 0
M  V30 6596 C 620.967 -1.86847 -0.270881 0
M  V30 6597 O 620.324 -1.38879 -1.18401 0
M  V30 6598 C 620.375 -3.10242 1.85559 0
M  V30 6599 O 620.096 -2.94683 3.24182 0
M  V30 6600 C 621.597 -4.04586 1.81176 0
M  V30 6601 H 618.817 -0.533347 0.407163 0
M  V30 6602 H 621.361 -1.15599 1.68692 0
M  V30 6603 H 619.516 -3.62014 1.3793 0
M  V30 6604 H 619.93 -3.83045 3.58297 0
M  V30 6605 H 621.404 -5.00119 2.33633 0
M  V30 6606 H 621.881 -4.3218 0.782099 0
M  V30 6607 H 622.487 -3.58741 2.2844 0
M  V30 6608 N 620.802 -1.09834 -1.13024 0
M  V30 6609 C 621.712 -0.753731 -2.22162 0
M  V30 6610 C 622.728 0.246105 -1.72251 0
M  V30 6611 O 623.904 0.0864051 -2.01215 0
M  V30 6612 C 620.969 -0.183958 -3.46212 0
M  V30 6613 C 620.03 -1.24028 -4.10993 0
M  V30 6614 C 619.263 -0.697597 -5.29121 0
M  V30 6615 O 619.486 0.478092 -5.68393 0
M  V30 6616 O 618.42 -1.4546 -5.84059 0
M  V30 6617 H 622.246 -1.66456 -2.5402 0
M  V30 6618 H 619.831 -0.873026 -1.21238 0
M  V30 6619 H 621.713 0.130257 -4.21199 0
M  V30 6620 H 620.388 0.699823 -3.16045 0
M  V30 6621 H 619.295 -1.60725 -3.37814 0
M  V30 6622 H 620.628 -2.09685 -4.45301 0
M  V30 6623 N 622.28 1.30327 -0.886154 0
M  V30 6624 C 623.228 2.30052 -0.343317 0
M  V30 6625 C 624.222 1.60212 0.550305 0
M  V30 6626 O 625.428 1.74674 0.434609 0
M  V30 6627 H 621.803 0.746306 -0.0923681 0
M  V30 6628 H 623.774 2.73294 -1.19804 0
M  V30 6629 C 622.523 3.45079 0.426107 0
M  V30 6630 H 621.846 3.99003 -0.25227 0
M  V30 6631 H 623.286 4.16931 0.771009 0
M  V30 6632 C 621.745 2.95195 1.62363 0
M  V30 6633 O 622.275 2.95323 2.723 0
M  V30 6634 N 620.481 2.51192 1.4612 0
M  V30 6635 H 620.028 2.51286 0.566832 0
M  V30 6636 H 619.986 2.18173 2.2638 0
M  V30 6637 N 623.758 0.647228 1.43697 0
M  V30 6638 C 625.004 0.158422 2.0218 0
M  V30 6639 C 625.337 -1.22233 1.50907 0
M  V30 6640 O 624.612 -1.81478 0.699702 0
M  V30 6641 C 624.895 0.1627 3.59732 0
M  V30 6642 C 624.748 1.57694 4.21251 0
M  V30 6643 C 626.067 -0.504138 4.37203 0
M  V30 6644 H 623.186 0.059042 0.734631 0
M  V30 6645 H 625.828 0.826772 1.71069 0
M  V30 6646 H 623.978 -0.406414 3.86368 0
M  V30 6647 H 625.65 2.19618 4.05667 0
M  V30 6648 H 623.893 2.12603 3.7813 0
M  V30 6649 H 624.564 1.53183 5.3032 0
M  V30 6650 H 627.04 -0.0199841 4.16095 0
M  V30 6651 H 625.916 -0.470394 5.46881 0
M  V30 6652 H 626.177 -1.57726 4.13007 0
M  V30 6653 N 625.236 -1.5273 0.388769 0
M  V30 6654 C 626.166 -2.29353 -0.438111 0
M  V30 6655 C 627.147 -1.32719 -1.06394 0
M  V30 6656 O 628.332 -1.61612 -1.07681 0
M  V30 6657 C 625.462 -3.09995 -1.56589 0
M  V30 6658 C 624.416 -4.14509 -1.06613 0
M  V30 6659 C 623.742 -4.83372 -2.28594 0
M  V30 6660 C 625.042 -5.22127 -0.134459 0
M  V30 6661 H 626.736 -2.98723 0.201206 0
M  V30 6662 H 624.282 -1.43665 0.0982089 0
M  V30 6663 H 626.235 -3.62357 -2.15118 0
M  V30 6664 H 624.959 -2.38357 -2.23279 0
M  V30 6665 H 623.618 -3.63128 -0.503383 0
M  V30 6666 H 623.266 -4.08283 -2.93792 0
M  V30 6667 H 622.966 -5.54012 -1.95817 0
M  V30 6668 H 624.49 -5.38538 -2.87766 0
M  V30 6669 H 625.904 -5.69851 -0.627914 0
M  V30 6670 H 624.301 -6.00011 0.103534 0
M  V30 6671 H 625.371 -4.77971 0.816798 0
M  V30 6672 N 626.714 -0.118576 -1.57153 0
M  V30 6673 C 627.661 0.831789 -2.1529 0
M  V30 6674 C 628.631 1.26385 -1.07778 0
M  V30 6675 O 629.816 1.34144 -1.35684 0
M  V30 6676 C 626.956 2.07664 -2.75626 0
M  V30 6677 C 626.069 1.69298 -3.97444 0
M  V30 6678 C 625.204 2.88747 -4.45868 0
M  V30 6679 C 624.243 2.46619 -5.60219 0
M  V30 6680 N 623.38 3.5898 -6.03389 0
M  V30 6681 H 628.22 0.329183 -2.96176 0
M  V30 6682 H 625.757 0.150792 -1.46325 0
M  V30 6683 H 627.715 2.80601 -3.08738 0
M  V30 6684 H 626.345 2.55384 -1.97431 0
M  V30 6685 H 625.397 0.862374 -3.70496 0
M  V30 6686 H 626.709 1.34338 -4.80369 0
M  V30 6687 H 625.863 3.69909 -4.80887 0
M  V30 6688 H 624.602 3.26933 -3.61892 0
M  V30 6689 H 623.607 1.63889 -5.24805 0
M  V30 6690 H 624.832 2.0955 -6.45961 0
M  V30 6691 H 622.778 3.9684 -5.22354 0
M  V30 6692 H 622.695 3.27942 -6.81168 0
M  V30 6693 H 623.963 4.40583 -6.43045 0
M  V30 6694 N 628.193 1.56834 0.155195 0
M  V30 6695 C 629.103 2.009 1.21146 0
M  V30 6696 C 630.119 0.923029 1.475 0
M  V30 6697 O 631.295 1.23189 1.59331 0
M  V30 6698 C 628.36 2.37378 2.52691 0
M  V30 6699 C 627.421 3.59883 2.34057 0
M  V30 6700 C 626.654 3.94612 3.59329 0
M  V30 6701 O 626.877 3.30104 4.65175 0
M  V30 6702 O 625.811 4.87895 3.52479 0
M  V30 6703 H 629.637 2.9105 0.867371 0
M  V30 6704 H 627.222 1.44916 0.363298 0
M  V30 6705 H 629.104 2.61737 3.3026 0
M  V30 6706 H 627.779 1.50385 2.86646 0
M  V30 6707 H 626.686 3.40722 1.54465 0
M  V30 6708 H 628.019 4.47468 2.0502 0
M  V30 6709 N 629.671 -0.424282 1.51781 0
M  V30 6710 C 630.92 -1.16961 1.64326 0
M  V30 6711 C 631.233 -1.92035 0.371749 0
M  V30 6712 O 632.439 -2.68873 0.37676 0
M  V30 6713 C 630.895 -2.12782 2.90262 0
M  V30 6714 C 630.503 -1.43295 4.24465 0
M  V30 6715 C 632.247 -2.87667 3.12166 0
M  V30 6716 C 630.154 -2.37676 5.41538 0
M  V30 6717 H 629.084 -0.440293 0.612093 0
M  V30 6718 H 631.735 -0.435431 1.78259 0
M  V30 6719 H 630.117 -2.8969 2.69992 0
M  V30 6720 H 631.291 -0.718564 4.55163 0
M  V30 6721 H 629.606 -0.805118 4.08542 0
M  V30 6722 H 632.203 -3.58395 3.96808 0
M  V30 6723 H 632.546 -3.49758 2.25776 0
M  V30 6724 H 633.079 -2.17863 3.32837 0
M  V30 6725 H 629.818 -1.80255 6.30229 0
M  V30 6726 H 629.338 -3.07132 5.15199 0
M  V30 6727 H 631.017 -2.98529 5.74012 0
M  V30 6728 N 631.149 -1.42148 -0.680565 0
M  V30 6729 C 632.112 -1.4488 -1.77602 0
M  V30 6730 C 633.112 -0.337209 -1.57224 0
M  V30 6731 O 634.302 -0.597778 -1.63622 0
M  V30 6732 C 631.434 -1.27483 -3.16166 0
M  V30 6733 H 632.627 -2.42412 -1.76568 0
M  V30 6734 H 630.18 -1.28511 -0.889645 0
M  V30 6735 H 630.915 -0.30851 -3.22829 0
M  V30 6736 H 630.7 -2.08037 -3.3236 0
M  V30 6737 H 632.19 -1.32265 -3.96101 0
M  V30 6738 N 632.627 0.916307 -1.28225 0
M  V30 6739 C 633.574 2.01841 -1.11932 0
M  V30 6740 C 634.544 1.66091 -0.0171604 0
M  V30 6741 O 635.729 1.89934 -0.181617 0
M  V30 6742 C 632.869 3.36065 -0.784504 0
M  V30 6743 C 631.982 3.847 -1.96544 0
M  V30 6744 C 631.117 5.07423 -1.57149 0
M  V30 6745 C 630.156 5.48384 -2.71922 0
M  V30 6746 N 629.293 6.62298 -2.33037 0
M  V30 6747 H 634.133 2.1511 -2.06232 0
M  V30 6748 H 631.67 1.05366 -1.02647 0
M  V30 6749 H 633.628 4.13272 -0.571148 0
M  V30 6750 H 632.258 3.22571 0.121565 0
M  V30 6751 H 631.31 3.03673 -2.291 0
M  V30 6752 H 632.622 4.1102 -2.82603 0
M  V30 6753 H 631.776 5.92165 -1.32004 0
M  V30 6754 H 630.515 4.82906 -0.682153 0
M  V30 6755 H 629.52 4.62184 -2.97768 0
M  V30 6756 H 630.745 5.7489 -3.61494 0
M  V30 6757 H 628.691 6.39416 -1.4657 0
M  V30 6758 H 628.608 6.8833 -3.12631 0
M  V30 6759 H 629.876 7.50352 -2.11169 0
M  V30 6760 N 634.105 1.10431 1.1244 0
M  V30 6761 C 635.068 0.756542 2.16354 0
M  V30 6762 C 636.068 -0.21899 1.59302 0
M  V30 6763 O 637.258 0.00415969 1.742 0
M  V30 6764 C 634.39 0.120612 3.40687 0
M  V30 6765 H 635.583 1.67696 2.48632 0
M  V30 6766 H 633.136 0.904832 1.27446 0
M  V30 6767 H 633.871 -0.810536 3.14008 0
M  V30 6768 H 633.656 0.822693 3.83372 0
M  V30 6769 H 635.146 -0.106945 4.17463 0
M  V30 6770 N 635.583 -1.29855 0.893053 0
M  V30 6771 C 636.831 -1.9544 0.514566 0
M  V30 6772 C 637.152 -1.70795 -0.940959 0
M  V30 6773 O 636.422 -1.03601 -1.66264 0
M  V30 6774 H 635.002 -0.723137 0.187302 0
M  V30 6775 H 637.664 -1.58234 1.13789 0
M  V30 6776 H 636.76 -3.04341 0.691581 0
M  V30 6777 N 637.061 -0.65484 -1.43351 0
M  V30 6778 C 638.477 -0.32255 -1.56307 0
M  V30 6779 C 638.677 1.17324 -1.63821 0
M  V30 6780 O 637.733 1.95813 -1.59417 0
M  V30 6781 C 639.046 -1.03533 -2.82314 0
M  V30 6782 C 640.594 -1.01574 -2.9606 0
M  V30 6783 C 641.069 -1.70945 -4.24902 0
M  V30 6784 N 642.56 -1.67716 -4.3177 0
M  V30 6785 C 643.295 -2.18265 -5.30234 0
M  V30 6786 N 642.791 -2.7711 -6.34966 0
M  V30 6787 N 644.584 -2.08756 -5.21898 0
M  V30 6788 H 636.735 -1.62549 -1.36717 0
M  V30 6789 H 638.998 -0.683676 -0.656727 0
M  V30 6790 H 638.704 -2.09045 -2.8283 0
M  V30 6791 H 638.578 -0.587913 -3.7259 0
M  V30 6792 H 640.965 0.0309834 -2.95084 0
M  V30 6793 H 641.046 -1.50186 -2.07069 0
M  V30 6794 H 640.69 -2.75574 -4.26639 0
M  V30 6795 H 640.62 -1.19797 -5.12793 0
M  V30 6796 H 643.111 -1.24777 -3.56706 0
M  V30 6797 H 643.424 -3.13353 -7.06421 0
M  V30 6798 H 641.769 -2.81171 -6.35585 0
M  V30 6799 H 644.96 -1.62488 -4.38994 0
M  V30 6800 H 645.133 -2.48459 -5.98475 0
M  V30 6801 N 638.539 1.52521 -0.396863 0
M  V30 6802 C 639.469 2.29582 0.425941 0
M  V30 6803 C 640.45 1.33281 1.05689 0
M  V30 6804 O 641.635 1.62181 1.06823 0
M  V30 6805 C 638.765 3.10821 1.54943 0
M  V30 6806 C 637.719 4.15069 1.04413 0
M  V30 6807 C 637.045 4.84578 2.26028 0
M  V30 6808 C 638.345 5.22191 0.106767 0
M  V30 6809 H 640.039 2.98612 -0.217045 0
M  V30 6810 H 637.585 1.43611 -0.105826 0
M  V30 6811 H 639.538 3.63492 2.13193 0
M  V30 6812 H 638.262 2.39538 2.22011 0
M  V30 6813 H 636.921 3.63389 0.484118 0
M  V30 6814 H 636.569 4.09835 2.91623 0
M  V30 6815 H 636.269 5.55043 1.92876 0
M  V30 6816 H 637.793 5.40056 2.84906 0
M  V30 6817 H 639.207 5.70176 0.597685 0
M  V30 6818 H 637.604 5.99947 -0.135352 0
M  V30 6819 H 638.674 4.77531 -0.842134 0
M  V30 6820 N 640.017 0.126909 1.57088 0
M  V30 6821 C 641.264 -0.529168 1.95464 0
M  V30 6822 C 641.592 -1.6618 1.01067 0
M  V30 6823 O 640.847 -1.95667 0.0360254 0
M  V30 6824 C 641.146 -1.095 3.40212 0
M  V30 6825 C 640.812 -0.0829015 4.50824 0
M  V30 6826 C 639.474 0.195377 4.80803 0
M  V30 6827 C 641.826 0.606411 5.1766 0
M  V30 6828 C 639.154 1.16912 5.74933 0
M  V30 6829 C 641.506 1.56884 6.12838 0
M  V30 6830 C 640.17 1.85502 6.41206 0
M  V30 6831 H 639.44 -0.193636 0.715252 0
M  V30 6832 H 642.087 0.209489 1.90351 0
M  V30 6833 H 640.392 -1.91058 3.42059 0
M  V30 6834 H 642.089 -1.61087 3.67222 0
M  V30 6835 H 638.679 -0.309979 4.27478 0
M  V30 6836 H 642.863 0.404597 4.94648 0
M  V30 6837 H 638.119 1.3975 5.95214 0
M  V30 6838 H 642.293 2.10859 6.6371 0
M  V30 6839 H 639.92 2.61109 7.13951 0
M  V30 6840 N 641.495 -1.56914 -0.146875 0
M  V30 6841 C 642.425 -2.01308 -1.1831 0
M  V30 6842 C 643.406 -0.892664 -1.44795 0
M  V30 6843 O 644.591 -1.16048 -1.55713 0
M  V30 6844 C 641.721 -2.3938 -2.51624 0
M  V30 6845 C 640.675 -3.54608 -2.3966 0
M  V30 6846 C 640.001 -3.78493 -3.77686 0
M  V30 6847 C 641.301 -4.87269 -1.88058 0
M  V30 6848 H 642.995 -2.88123 -0.813964 0
M  V30 6849 H 640.541 -1.38615 -0.3901 0
M  V30 6850 H 642.494 -2.69037 -3.24341 0
M  V30 6851 H 641.218 -1.49502 -2.90373 0
M  V30 6852 H 639.877 -3.25116 -1.69396 0
M  V30 6853 H 639.525 -2.85866 -4.13871 0
M  V30 6854 H 639.225 -4.56039 -3.70543 0
M  V30 6855 H 640.749 -4.10576 -4.51951 0
M  V30 6856 H 642.163 -5.15644 -2.50568 0
M  V30 6857 H 640.56 -5.68622 -1.91805 0
M  V30 6858 H 641.63 -4.77634 -0.836277 0
M  V30 6859 N 642.974 0.416227 -1.52004 0
M  V30 6860 C 644.223 1.16088 -1.64944 0
M  V30 6861 C 644.536 1.91835 -0.381928 0
M  V30 6862 O 645.742 2.6867 -0.391013 0
M  V30 6863 C 644.198 2.1124 -2.91386 0
M  V30 6864 C 643.806 1.41042 -4.25219 0
M  V30 6865 C 645.55 2.86008 -3.13688 0
M  V30 6866 C 643.457 2.34801 -5.42791 0
M  V30 6867 H 642.387 0.437041 -0.61442 0
M  V30 6868 H 645.038 0.425971 -1.78487 0
M  V30 6869 H 643.42 2.88254 -2.71525 0
M  V30 6870 H 644.594 0.694416 -4.55538 0
M  V30 6871 H 642.909 0.78344 -4.08964 0
M  V30 6872 H 645.506 3.56286 -3.98703 0
M  V30 6873 H 645.849 3.48556 -2.27628 0
M  V30 6874 H 646.382 2.16095 -3.33988 0
M  V30 6875 H 643.121 1.7691 -6.31176 0
M  V30 6876 H 642.641 3.04395 -5.16821 0
M  V30 6877 H 644.32 2.9548 -5.75587 0
M  V30 6878 N 644.452 1.42507 0.673017 0
M  V30 6879 C 645.863 1.38347 1.25367 0
M  V30 6880 C 646.214 0.0776327 1.96046 0
M  V30 6881 O 645.339 -0.823571 2.00116 0
M  V30 6882 C 645.934 2.506 2.28002 0
M  V30 6883 C 644.493 2.49767 2.81591 0
M  V30 6884 C 643.64 2.293 1.55938 0
M  V30 6885 H 646.591 1.51695 0.466288 0
M  V30 6886 H 646.612 2.20953 3.09774 0
M  V30 6887 H 646.124 3.45627 1.76532 0
M  V30 6888 H 644.225 1.58563 3.37177 0
M  V30 6889 H 644.338 3.46867 3.30485 0
M  V30 6890 H 642.702 1.77594 1.82572 0
M  V30 6891 H 643.485 3.26385 1.06431 0
M  V30 6892 N 645.93 -0.909495 1.28709 0
M  V30 6893 C 646.893 -1.99399 1.13016 0
M  V30 6894 C 647.893 -1.60654 0.068536 0
M  V30 6895 O 649.083 -1.71334 0.314671 0
M  V30 6896 C 646.215 -3.33078 0.726085 0
M  V30 6897 H 647.408 -2.14751 2.09338 0
M  V30 6898 H 644.961 -1.09272 1.11756 0
M  V30 6899 H 645.696 -3.23428 -0.23771 0
M  V30 6900 H 645.481 -3.62562 1.49302 0
M  V30 6901 H 646.971 -4.12681 0.639058 0
M  V30 6902 N 647.408 -1.11026 -1.11852 0
M  V30 6903 C 648.636 -0.878818 -1.87308 0
M  V30 6904 C 649.051 0.57111 -1.79955 0
M  V30 6905 O 648.408 1.39409 -1.17777 0
M  V30 6906 C 648.459 -1.3264 -3.36287 0
M  V30 6907 O 648.18 -2.71948 -3.43476 0
M  V30 6908 C 649.681 -1.12974 -4.28663 0
M  V30 6909 H 646.901 -0.315015 -0.592458 0
M  V30 6910 H 649.445 -1.47649 -1.41492 0
M  V30 6911 H 647.6 -0.772269 -3.79625 0
M  V30 6912 H 648.014 -2.91241 -4.3621 0
M  V30 6913 H 649.488 -1.49198 -5.31454 0
M  V30 6914 H 649.965 -0.0689127 -4.39146 0
M  V30 6915 H 650.571 -1.67064 -3.91113 0
M  V30 6916 N 648.886 1.2938 -0.899927 0
M  V30 6917 C 650.135 1.9483 -0.521937 0
M  V30 6918 C 650.448 1.71725 0.936473 0
M  V30 6919 O 651.654 2.31282 1.42199 0
M  V30 6920 C 650.11 3.48911 -0.88255 0
M  V30 6921 C 649.718 3.80815 -2.35974 0
M  V30 6922 C 651.462 4.20595 -0.57448 0
M  V30 6923 C 649.369 5.28142 -2.66121 0
M  V30 6924 H 648.299 0.729285 -0.191468 0
M  V30 6925 H 650.95 1.47103 -1.09695 0
M  V30 6926 H 649.332 3.95293 -0.236459 0
M  V30 6927 H 650.506 3.45291 -3.05141 0
M  V30 6928 H 648.821 3.22271 -2.63686 0
M  V30 6929 H 651.418 5.29031 -0.776556 0
M  V30 6930 H 651.761 4.13442 0.487005 0
M  V30 6931 H 652.294 3.79945 -1.17842 0
M  V30 6932 H 649.033 5.4036 -3.71068 0
M  V30 6933 H 648.553 5.64913 -2.01578 0
M  V30 6934 H 650.232 5.95738 -2.52399 0
M  V30 6935 N 650.364 0.662433 1.43002 0
M  V30 6936 C 651.296 -0.062326 2.29115 0
M  V30 6937 C 652.309 -0.777926 1.43011 0
M  V30 6938 O 653.498 -0.634146 1.66856 0
M  V30 6939 C 650.598 -1.11163 3.2015 0
M  V30 6940 C 649.771 -0.472327 4.34842 0
M  V30 6941 C 648.83 -1.41974 5.06685 0
M  V30 6942 O 647.856 -0.924795 5.61637 0
M  V30 6943 N 649.058 -2.75345 5.11043 0
M  V30 6944 H 651.823 0.676838 2.91957 0
M  V30 6945 H 649.384 0.505907 1.53793 0
M  V30 6946 H 651.376 -1.74643 3.65078 0
M  V30 6947 H 649.946 -1.75266 2.58845 0
M  V30 6948 H 649.166 0.341751 3.92716 0
M  V30 6949 H 650.454 -0.0264381 5.08793 0
M  V30 6950 H 649.852 -3.18108 4.67786 0
M  V30 6951 H 648.409 -3.34105 5.59658 0
M  V30 6952 N 651.842 -1.52309 0.404946 0
M  V30 6953 C 653.119 -1.94237 -0.230544 0
M  V30 6954 C 653.499 -1.34154 -1.6299 0
M  V30 6955 O 652.847 -0.515713 -2.22604 0
M  V30 6956 C 653.057 -3.48166 -0.241106 0
M  V30 6957 C 654.405 -4.22074 -0.462488 0
M  V30 6958 O 655.429 -3.54754 -0.320644 0
M  V30 6959 O 654.288 -5.41443 -0.741708 0
M  V30 6960 H 651.382 -0.813766 -0.147358 0
M  V30 6961 H 653.928 -1.6333 0.460587 0
M  V30 6962 H 652.7 -3.84269 0.738467 0
M  V30 6963 H 652.323 -3.85422 -0.97651 0
M  V30 6964 N 653.32 -0.135238 -1.57019 0
M  V30 6965 C 654.267 0.808908 -2.1616 0
M  V30 6966 C 655.237 1.25234 -1.09113 0
M  V30 6967 O 656.422 1.32697 -1.37099 0
M  V30 6968 C 653.562 2.04729 -2.77813 0
M  V30 6969 C 652.675 1.65074 -3.99218 0
M  V30 6970 C 651.81 2.84002 -4.48906 0
M  V30 6971 C 650.849 2.40663 -5.62803 0
M  V30 6972 N 649.986 3.5256 -6.07162 0
M  V30 6973 H 654.826 0.297751 -2.96509 0
M  V30 6974 H 652.363 0.135264 -1.46477 0
M  V30 6975 H 654.321 2.7731 -3.11697 0
M  V30 6976 H 652.951 2.53275 -2.00128 0
M  V30 6977 H 652.003 0.823029 -3.7139 0
M  V30 6978 H 653.315 1.29236 -4.81767 0
M  V30 6979 H 652.469 3.64788 -4.84783 0
M  V30 6980 H 651.208 3.23076 -3.65339 0
M  V30 6981 H 650.213 1.58314 -5.26514 0
M  V30 6982 H 651.438 2.02687 -6.48147 0
M  V30 6983 H 649.384 3.91278 -5.26534 0
M  V30 6984 H 649.301 3.20699 -6.84608 0
M  V30 6985 H 650.569 4.33738 -6.47682 0
M  V30 6986 N 654.798 1.5699 0.138552 0
M  V30 6987 C 655.728 2.01933 1.17241 0
M  V30 6988 C 656.709 0.90033 1.44319 0
M  V30 6989 O 657.894 1.16872 1.55095 0
M  V30 6990 C 655.024 2.40711 2.50351 0
M  V30 6991 C 653.978 3.55874 2.37776 0
M  V30 6992 C 653.304 3.80491 3.75674 0
M  V30 6993 C 654.604 4.8826 1.85472 0
M  V30 6994 H 656.298 2.88551 0.798672 0
M  V30 6995 H 653.844 1.3882 0.382743 0
M  V30 6996 H 655.797 2.70754 3.22909 0
M  V30 6997 H 654.521 1.5104 2.89576 0
M  V30 6998 H 653.18 3.2601 1.67669 0
M  V30 6999 H 652.828 2.88057 4.12349 0
M  V30 7000 H 652.528 4.57998 3.68119 0
M  V30 7001 H 654.052 4.12967 4.49767 0
M  V30 7002 H 655.466 5.16965 2.4783 0
M  V30 7003 H 653.863 5.69631 1.88787 0
M  V30 7004 H 654.933 4.78071 0.810935 0
M  V30 7005 N 656.276 -0.40816 1.52223 0
M  V30 7006 C 657.525 -1.15212 1.65557 0
M  V30 7007 C 657.838 -1.9163 0.392096 0
M  V30 7008 O 659.044 -2.68458 0.405256 0
M  V30 7009 C 657.5 -2.09691 2.92502 0
M  V30 7010 C 657.108 -1.38785 4.25961 0
M  V30 7011 C 658.852 -2.8434 3.152 0
M  V30 7012 C 656.759 -2.31919 5.44029 0
M  V30 7013 H 655.689 -0.433776 0.616729 0
M  V30 7014 H 658.34 -0.4165 1.78711 0
M  V30 7015 H 656.722 -2.8681 2.7305 0
M  V30 7016 H 657.896 -0.670248 4.55899 0
M  V30 7017 H 656.211 -0.761741 4.09373 0
M  V30 7018 H 658.808 -3.54166 4.00587 0
M  V30 7019 H 659.151 -3.47344 2.29473 0
M  V30 7020 H 659.684 -2.14321 3.35129 0
M  V30 7021 H 656.423 -1.7356 6.32105 0
M  V30 7022 H 655.943 -3.0165 5.18428 0
M  V30 7023 H 657.622 -2.92424 5.77146 0
M  V30 7024 N 657.755 -1.42862 -0.66545 0
M  V30 7025 C 659.004 -1.43119 -1.42126 0
M  V30 7026 C 659.317 -0.0545297 -1.95524 0
M  V30 7027 O 660.523 0.0654747 -2.71421 0
M  V30 7028 C 658.979 -2.51797 -2.5715 0
M  V30 7029 C 658.587 -3.95514 -2.10411 0
M  V30 7030 C 660.331 -2.61233 -3.346 0
M  V30 7031 C 658.238 -4.95682 -3.22573 0
M  V30 7032 H 657.168 -0.532349 -0.533966 0
M  V30 7033 H 659.819 -1.68806 -0.719506 0
M  V30 7034 H 658.201 -2.19292 -3.29738 0
M  V30 7035 H 659.375 -4.3742 -1.44915 0
M  V30 7036 H 657.69 -3.90012 -1.45874 0
M  V30 7037 H 660.287 -3.33248 -4.18151 0
M  V30 7038 H 660.63 -1.65896 -3.81817 0
M  V30 7039 H 661.163 -2.9298 -2.69087 0
M  V30 7040 H 657.902 -5.92529 -2.80338 0
M  V30 7041 H 657.422 -4.58399 -3.86821 0
M  V30 7042 H 659.101 -5.17828 -3.87896 0
M  V30 7043 N 659.233 0.902656 -1.29189 0
M  V30 7044 C 660.649 1.18296 -1.07137 0
M  V30 7045 C 660.849 2.00701 0.179223 0
M  V30 7046 O 659.905 2.3675 0.877812 0
M  V30 7047 C 661.218 1.90677 -2.32514 0
M  V30 7048 C 662.766 2.03515 -2.37804 0
M  V30 7049 C 663.241 2.79307 -3.62976 0
M  V30 7050 N 664.732 2.86862 -3.63681 0
M  V30 7051 C 665.467 3.46035 -4.57217 0
M  V30 7052 N 664.963 4.06399 -5.61081 0
M  V30 7053 N 666.756 3.43681 -4.44792 0
M  V30 7054 H 658.907 0.352765 -2.0945 0
M  V30 7055 H 661.17 0.21876 -0.922414 0
M  V30 7056 H 660.876 1.3756 -3.23682 0
M  V30 7057 H 660.75 2.91169 -2.39793 0
M  V30 7058 H 663.137 2.55809 -1.47125 0
M  V30 7059 H 663.218 1.02166 -2.34512 0
M  V30 7060 H 662.862 2.2769 -4.54004 0
M  V30 7061 H 662.792 3.80995 -3.63525 0
M  V30 7062 H 665.283 2.43987 -2.88581 0
M  V30 7063 H 665.596 4.49564 -6.2858 0
M  V30 7064 H 663.941 4.0487 -5.64894 0
M  V30 7065 H 667.132 2.9574 -3.62843 0
M  V30 7066 H 667.305 3.89503 -5.17872 0
M  V30 7067 N 660.711 1.11618 1.11262 0
M  V30 7068 C 661.958 0.86618 1.8304 0
M  V30 7069 C 662.286 -0.608149 1.84748 0
M  V30 7070 O 661.541 -1.46508 1.29745 0
M  V30 7071 C 661.84 1.37529 3.2988 0
M  V30 7072 C 661.506 2.86317 3.4833 0
M  V30 7073 C 660.168 3.26945 3.53073 0
M  V30 7074 C 662.52 3.82136 3.54431 0
M  V30 7075 C 659.848 4.62117 3.61475 0
M  V30 7076 C 662.2 5.17128 3.64365 0
M  V30 7077 C 660.864 5.57312 3.67369 0
M  V30 7078 H 660.134 0.316958 0.66979 0
M  V30 7079 H 662.781 1.3949 1.31205 0
M  V30 7080 H 661.086 0.766842 3.84222 0
M  V30 7081 H 662.783 1.15817 3.83911 0
M  V30 7082 H 659.373 2.53889 3.45309 0
M  V30 7083 H 663.557 3.51847 3.50025 0
M  V30 7084 H 658.813 4.92655 3.62079 0
M  V30 7085 H 662.987 5.91208 3.68029 0
M  V30 7086 H 660.614 6.62045 3.73632 0
M  V30 7087 N 662.189 -1.289 0.906776 0
M  V30 7088 C 663.417 -1.99401 0.551969 0
M  V30 7089 C 663.832 -1.67816 -0.865048 0
M  V30 7090 O 663.189 -0.927078 -1.57199 0
M  V30 7091 C 663.24 -3.53779 0.743152 0
M  V30 7092 O 662.961 -3.84248 2.1044 0
M  V30 7093 C 664.462 -4.41543 0.39424 0
M  V30 7094 H 661.682 -0.636926 0.211106 0
M  V30 7095 H 664.226 -1.64266 1.21807 0
M  V30 7096 H 662.381 -3.87201 0.124143 0
M  V30 7097 H 662.795 -4.78904 2.13895 0
M  V30 7098 H 664.269 -5.48957 0.578814 0
M  V30 7099 H 664.746 -4.34073 -0.669137 0
M  V30 7100 H 665.352 -4.13605 0.990491 0
M  V30 7101 N 663.667 -0.670007 -1.42649 0
M  V30 7102 C 664.913 -0.190568 -2.01903 0
M  V30 7103 C 665.246 1.19817 -1.52832 0
M  V30 7104 O 664.521 1.80342 -0.728485 0
M  V30 7105 C 664.804 -0.21991 -3.59428 0
M  V30 7106 C 664.657 -1.64376 -4.18689 0
M  V30 7107 C 665.976 0.434519 -4.3795 0
M  V30 7108 H 663.095 -0.0707219 -0.733599 0
M  V30 7109 H 665.737 -0.853883 -1.69732 0
M  V30 7110 H 663.887 0.344894 -3.86966 0
M  V30 7111 H 665.559 -2.26044 -4.02122 0
M  V30 7112 H 663.802 -2.18591 -3.747 0
M  V30 7113 H 664.473 -1.61601 -5.27815 0
M  V30 7114 H 666.949 -0.0462156 -4.16074 0
M  V30 7115 H 665.825 0.38333 -5.4756 0
M  V30 7116 H 666.086 1.51135 -4.15464 0
M  V30 7117 N 665.145 1.52092 -0.413018 0
M  V30 7118 C 666.373 2.06274 0.160881 0
M  V30 7119 C 666.788 1.28273 1.38533 0
M  V30 7120 O 666.145 0.33563 1.79387 0
M  V30 7121 C 666.196 3.57921 0.507443 0
M  V30 7122 O 665.917 4.32971 -0.668388 0
M  V30 7123 C 667.418 4.28533 1.13465 0
M  V30 7124 H 664.638 0.67074 0.0186759 0
M  V30 7125 H 667.182 1.95951 -0.585092 0
M  V30 7126 H 665.337 3.68238 1.20331 0
M  V30 7127 H 665.751 5.23135 -0.378169 0
M  V30 7128 H 667.225 5.35804 1.32732 0
M  V30 7129 H 667.702 3.85258 2.10886 0
M  V30 7130 H 668.308 4.22595 0.478876 0
M  V30 7131 N 666.623 0.143563 1.56945 0
M  V30 7132 C 667.848 -0.518701 2.00809 0
M  V30 7133 C 668.273 -1.5785 1.02298 0
M  V30 7134 O 667.631 -1.813 -0.0017839 0
M  V30 7135 C 667.679 -1.09929 3.43436 0
M  V30 7136 O 666.783 -2.21425 3.47915 0
M  V30 7137 H 666.124 -0.127215 0.6517 0
M  V30 7138 H 668.654 0.239283 2.03196 0
M  V30 7139 H 668.664 -1.4288 3.82164 0
M  V30 7140 H 667.339 -0.323162 4.14643 0
M  V30 7141 H 665.916 -1.89728 3.21026 0
M  V30 7142 N 668.101 -1.57061 -0.130224 0
M  V30 7143 C 669.033 -1.96147 -1.18571 0
M  V30 7144 C 670.046 -0.859347 -1.38272 0
M  V30 7145 O 671.235 -1.13769 -1.37545 0
M  V30 7146 C 668.335 -2.23484 -2.54771 0
M  V30 7147 C 667.508 -3.54786 -2.55824 0
M  V30 7148 C 666.567 -3.70467 -3.73686 0
M  V30 7149 O 665.593 -4.42693 -3.57787 0
M  V30 7150 N 666.795 -3.08389 -4.91809 0
M  V30 7151 H 669.56 -2.87295 -0.853333 0
M  V30 7152 H 667.121 -1.58714 -0.319621 0
M  V30 7153 H 669.113 -2.312 -3.32158 0
M  V30 7154 H 667.683 -1.38518 -2.80235 0
M  V30 7155 H 666.903 -3.5836 -1.64232 0
M  V30 7156 H 668.191 -4.4111 -2.53573 0
M  V30 7157 H 667.589 -2.49656 -5.0763 0
M  V30 7158 H 666.146 -3.21642 -5.66912 0
M  V30 7159 N 669.579 0.400081 -1.52437 0
M  V30 7160 C 670.826 1.14619 -1.6694 0
M  V30 7161 C 671.154 1.90262 -0.403797 0
M  V30 7162 O 670.409 1.85835 0.61351 0
M  V30 7163 C 670.708 2.15914 -2.84808 0
M  V30 7164 C 670.374 1.57011 -4.2268 0
M  V30 7165 C 669.036 1.40672 -4.60179 0
M  V30 7166 C 671.388 1.14081 -5.08562 0
M  V30 7167 C 668.716 0.799335 -5.81229 0
M  V30 7168 C 671.068 0.547573 -6.30226 0
M  V30 7169 C 669.732 0.371389 -6.66466 0
M  V30 7170 H 669.002 0.419419 -0.610875 0
M  V30 7171 H 671.649 0.432227 -1.86558 0
M  V30 7172 H 669.954 2.93488 -2.59561 0
M  V30 7173 H 671.651 2.73533 -2.93225 0
M  V30 7174 H 668.241 1.70713 -3.93135 0
M  V30 7175 H 672.425 1.2551 -4.80168 0
M  V30 7176 H 667.681 0.65093 -6.07925 0
M  V30 7177 H 671.855 0.206575 -6.96094 0
M  V30 7178 H 669.482 -0.10135 -7.60132 0
M  V30 7179 N 671.057 1.43213 0.657864 0
M  V30 7180 C 672.285 1.48015 1.44566 0
M  V30 7181 C 672.7 0.0965951 1.88553 0
M  V30 7182 O 672.057 -0.892221 1.59203 0
M  V30 7183 C 672.108 2.42199 2.68369 0
M  V30 7184 O 671.829 3.75173 2.26223 0
M  V30 7185 C 673.33 2.56195 3.61772 0
M  V30 7186 H 670.55 0.502861 0.444266 0
M  V30 7187 H 673.094 1.87907 0.806917 0
M  V30 7188 H 671.249 2.05514 3.28394 0
M  V30 7189 H 671.663 4.25776 3.06293 0
M  V30 7190 H 673.137 3.26182 4.4532 0
M  V30 7191 H 673.614 1.60534 4.0881 0
M  V30 7192 H 674.22 2.93671 3.07632 0
M  V30 7193 N 672.536 -0.895792 1.29666 0
M  V30 7194 C 673.764 -1.68001 1.20761 0
M  V30 7195 C 674.179 -1.87379 -0.231187 0
M  V30 7196 O 673.536 -1.41359 -1.15429 0
M  V30 7197 C 673.587 -3.06236 1.92098 0
M  V30 7198 O 673.308 -2.8774 3.30359 0
M  V30 7199 C 674.809 -4.00652 1.89717 0
M  V30 7200 H 672.029 -0.524591 0.418384 0
M  V30 7201 H 674.573 -1.11995 1.71106 0
M  V30 7202 H 672.728 -3.59007 1.45578 0
M  V30 7203 H 673.142 -3.75359 3.66342 0
M  V30 7204 H 674.616 -4.95051 2.44189 0
M  V30 7205 H 675.093 -4.30424 0.873595 0
M  V30 7206 H 675.699 -3.53815 2.35998 0
M  V30 7207 N 674.014 -1.12206 -1.10668 0
M  V30 7208 C 675.43 -0.857619 -1.346 0
M  V30 7209 C 675.63 0.513542 -1.94846 0
M  V30 7210 O 674.686 1.26273 -2.18658 0
M  V30 7211 C 675.999 -1.97212 -2.26998 0
M  V30 7212 C 677.547 -2.00272 -2.40542 0
M  V30 7213 C 678.022 -3.10948 -3.36267 0
M  V30 7214 N 679.513 -3.10375 -3.43834 0
M  V30 7215 C 680.248 -3.92651 -4.17867 0
M  V30 7216 N 679.744 -4.84911 -4.94807 0
M  V30 7217 N 681.537 -3.80798 -4.1346 0
M  V30 7218 H 673.688 -2.00558 -0.699306 0
M  V30 7219 H 675.951 -0.872612 -0.370477 0
M  V30 7220 H 675.657 -2.96002 -1.89936 0
M  V30 7221 H 675.531 -1.87521 -3.27286 0
M  V30 7222 H 677.918 -1.02103 -2.76874 0
M  V30 7223 H 677.999 -2.14037 -1.40077 0
M  V30 7224 H 677.643 -4.09348 -3.00661 0
M  V30 7225 H 677.573 -2.94421 -4.36605 0
M  V30 7226 H 680.064 -2.43536 -2.88961 0
M  V30 7227 H 680.377 -5.44207 -5.48688 0
M  V30 7228 H 678.722 -4.88926 -4.93939 0
M  V30 7229 H 681.913 -3.08058 -3.52445 0
M  V30 7230 H 682.086 -4.4515 -4.70898 0
M  V30 7231 N 675.492 1.28418 -0.913599 0
M  V30 7232 C 676.769 1.89977 -0.465619 0
M  V30 7233 C 677.149 1.82813 1.05559 0
M  V30 7234 O 676.497 1.26397 1.90358 0
M  V30 7235 C 676.707 3.34492 -0.995813 0
M  V30 7236 C 678.055 4.11468 -1.04782 0
M  V30 7237 O 679.079 3.43451 -0.944445 0
M  V30 7238 O 677.938 5.33046 -1.20518 0
M  V30 7239 H 675.032 0.813734 -0.147532 0
M  V30 7240 H 677.578 1.36786 -1.00437 0
M  V30 7241 H 676.35 3.33929 -2.03978 0
M  V30 7242 H 675.973 3.95181 -0.437878 0
M  V30 7243 N 676.97 0.677563 1.42291 0
M  V30 7244 C 678.247 0.129803 1.95169 0
M  V30 7245 C 678.627 -1.35605 1.61786 0
M  V30 7246 O 677.975 -2.09361 0.915444 0
M  V30 7247 C 678.185 0.401889 3.46678 0
M  V30 7248 C 679.533 0.319889 4.23393 0
M  V30 7249 O 680.557 0.33579 3.54614 0
M  V30 7250 O 679.416 0.264459 5.4586 0
M  V30 7251 H 676.51 0.00447433 0.826988 0
M  V30 7252 H 679.056 0.752483 1.52105 0
M  V30 7253 H 677.828 1.43108 3.64192 0
M  V30 7254 H 677.451 -0.252662 3.96796 0
M  V30 7255 N 678.448 -1.51871 0.421078 0
M  V30 7256 C 679.697 -2.01125 -0.152206 0
M  V30 7257 C 680.01 -1.3106 -1.45199 0
M  V30 7258 O 681.216 -1.71195 -2.10724 0
M  V30 7259 C 679.672 -3.58458 -0.3218 0
M  V30 7260 C 679.28 -4.37448 0.96659 0
M  V30 7261 C 681.024 -4.15908 -0.84973 0
M  V30 7262 C 678.931 -5.86451 0.763529 0
M  V30 7263 H 677.861 -0.751556 -0.0606565 0
M  V30 7264 H 680.512 -1.75115 0.548354 0
M  V30 7265 H 678.894 -3.80847 -1.08498 0
M  V30 7266 H 680.068 -4.26814 1.73684 0
M  V30 7267 H 678.383 -3.91373 1.42183 0
M  V30 7268 H 680.98 -5.24922 -1.01788 0
M  V30 7269 H 681.323 -3.74031 -1.82774 0
M  V30 7270 H 681.856 -3.97535 -0.145297 0
M  V30 7271 H 678.595 -6.3271 1.71344 0
M  V30 7272 H 678.115 -5.99791 0.0327889 0
M  V30 7273 H 679.794 -6.45697 0.410354 0
M  V30 7274 N 679.926 -0.151884 -1.56866 0
M  V30 7275 C 680.856 0.781943 -2.20018 0
M  V30 7276 C 681.837 1.25347 -1.14987 0
M  V30 7277 O 683.022 1.31015 -1.43348 0
M  V30 7278 C 680.152 2.01928 -2.82564 0
M  V30 7279 C 679.106 1.68434 -3.93464 0
M  V30 7280 C 678.432 2.99472 -4.42968 0
M  V30 7281 C 679.732 0.927244 -5.14003 0
M  V30 7282 H 681.426 0.255607 -2.98307 0
M  V30 7283 H 678.972 0.121502 -1.43486 0
M  V30 7284 H 680.925 2.67741 -3.25411 0
M  V30 7285 H 679.649 2.56943 -2.01614 0
M  V30 7286 H 678.308 1.04998 -3.51242 0
M  V30 7287 H 677.956 3.52488 -3.58834 0
M  V30 7288 H 677.656 2.77823 -5.17772 0
M  V30 7289 H 679.18 3.66348 -4.88489 0
M  V30 7290 H 680.594 1.48756 -5.53665 0
M  V30 7291 H 678.991 0.810513 -5.94601 0
M  V30 7292 H 680.061 -0.0801163 -4.84834 0
M  V30 7293 N 681.404 1.57128 0.121893 0
M  V30 7294 C 682.82 1.52357 0.47534 0
M  V30 7295 C 683.02 0.864417 1.82017 0
M  V30 7296 O 682.076 0.445529 2.48538 0
M  V30 7297 C 683.389 2.97122 0.4625 0
M  V30 7298 C 684.937 3.08196 0.546255 0
M  V30 7299 C 685.412 4.54516 0.563833 0
M  V30 7300 N 686.903 4.58959 0.625353 0
M  V30 7301 C 687.638 5.69585 0.660354 0
M  V30 7302 N 687.134 6.89714 0.653175 0
M  V30 7303 N 688.927 5.57685 0.703143 0
M  V30 7304 H 681.078 1.98364 -0.75931 0
M  V30 7305 H 683.341 0.905777 -0.279772 0
M  V30 7306 H 683.047 3.48706 -0.457943 0
M  V30 7307 H 682.921 3.54406 1.29136 0
M  V30 7308 H 685.308 2.56617 1.45712 0
M  V30 7309 H 685.389 2.53912 -0.310234 0
M  V30 7310 H 685.033 5.06741 -0.342974 0
M  V30 7311 H 684.963 5.06609 1.43716 0
M  V30 7312 H 687.454 3.72489 0.637182 0
M  V30 7313 H 687.767 7.69781 0.682425 0
M  V30 7314 H 686.112 6.92223 0.620646 0
M  V30 7315 H 689.303 4.62744 0.706095 0
M  V30 7316 H 689.476 6.43909 0.726952 0
M  V30 7317 N 682.882 -0.391992 1.52647 0
M  V30 7318 C 684.159 -1.15136 1.58123 0
M  V30 7319 C 684.539 -2.07786 0.372597 0
M  V30 7320 O 683.887 -2.19374 -0.639304 0
M  V30 7321 C 684.097 -1.91367 2.91856 0
M  V30 7322 C 685.445 -2.46833 3.45483 0
M  V30 7323 O 686.469 -2.01527 2.9371 0
M  V30 7324 O 685.328 -3.29587 4.3593 0
M  V30 7325 H 682.422 -0.526649 0.637629 0
M  V30 7326 H 684.968 -0.397386 1.64982 0
M  V30 7327 H 683.74 -1.23597 3.71268 0
M  V30 7328 H 683.363 -2.73732 2.88369 0
M  V30 7329 N 684.36 -1.4356 -0.65026 0
M  V30 7330 C 685.606 -1.46545 -1.41054 0
M  V30 7331 C 685.961 -0.0894113 -1.92192 0
M  V30 7332 O 685.254 0.892427 -1.69547 0
M  V30 7333 C 685.448 -2.44528 -2.60654 0
M  V30 7334 C 685.277 -3.91524 -2.21222 0
M  V30 7335 C 684.047 -4.59866 -2.09408 0
M  V30 7336 C 686.245 -4.81276 -1.81323 0
M  V30 7337 N 684.227 -5.91772 -1.63337 0
M  V30 7338 C 685.598 -6.02478 -1.46356 0
M  V30 7339 C 687.653 -4.6851 -1.68532 0
M  V30 7340 C 686.356 -7.12332 -0.998805 0
M  V30 7341 C 688.382 -5.78369 -1.23461 0
M  V30 7342 C 687.744 -6.98699 -0.894337 0
M  V30 7343 H 683.843 -0.59135 -0.511693 0
M  V30 7344 H 686.427 -1.79759 -0.747978 0
M  V30 7345 H 684.598 -2.13336 -3.24565 0
M  V30 7346 H 686.33 -2.37932 -3.27369 0
M  V30 7347 H 683.085 -4.14412 -2.29259 0
M  V30 7348 H 683.509 -6.61799 -1.42655 0
M  V30 7349 H 688.151 -3.75933 -1.93479 0
M  V30 7350 H 685.869 -8.04734 -0.736835 0
M  V30 7351 H 689.455 -5.70512 -1.1405 0
M  V30 7352 H 688.335 -7.82263 -0.550901 0
M  V30 7353 N 685.838 0.888903 -1.30139 0
M  V30 7354 C 686.786 2.0156 -1.16088 0
M  V30 7355 C 687.78 1.69239 -0.0737413 0
M  V30 7356 O 688.986 1.78468 -0.234313 0
M  V30 7357 H 685.361 0.660825 -0.358907 0
M  V30 7358 H 687.332 2.10547 -2.11453 0
M  V30 7359 C 686.081 3.36758 -0.865426 0
M  V30 7360 H 685.404 3.62137 -1.69402 0
M  V30 7361 H 686.844 4.16246 -0.807192 0
M  V30 7362 C 685.303 3.34124 0.431577 0
M  V30 7363 O 685.833 3.7445 1.45431 0
M  V30 7364 N 684.039 2.87229 0.441321 0
M  V30 7365 H 683.586 2.54609 -0.391433 0
M  V30 7366 H 683.544 2.8585 1.30909 0
M  V30 7367 N 687.317 1.12792 1.10072 0
M  V30 7368 C 688.247 0.821688 2.18565 0
M  V30 7369 C 689.228 -0.21612 1.68721 0
M  V30 7370 O 690.413 -0.0764932 1.94049 0
M  V30 7371 C 687.543 0.279624 3.46172 0
M  V30 7372 C 686.497 1.25092 4.09312 0
M  V30 7373 C 685.823 0.568916 5.31665 0
M  V30 7374 C 687.123 2.60699 4.52585 0
M  V30 7375 H 688.817 1.72888 2.44438 0
M  V30 7376 H 686.363 0.832702 1.17482 0
M  V30 7377 H 688.316 0.053099 4.21367 0
M  V30 7378 H 687.04 -0.662929 3.19801 0
M  V30 7379 H 685.699 1.46332 3.36129 0
M  V30 7380 H 685.347 -0.378898 5.01571 0
M  V30 7381 H 685.047 1.21687 5.74862 0
M  V30 7382 H 686.571 0.351517 6.09587 0
M  V30 7383 H 687.985 2.43465 5.19035 0
M  V30 7384 H 686.382 3.21608 5.06644 0
M  V30 7385 H 687.452 3.1886 3.65317 0
M  V30 7386 N 688.795 -1.27931 0.920396 0
M  V30 7387 C 690.044 -1.93975 0.552867 0
M  V30 7388 C 690.357 -1.73193 -0.909035 0
M  V30 7389 O 691.563 -2.33515 -1.38502 0
M  V30 7390 C 690.019 -3.47463 0.937947 0
M  V30 7391 C 689.627 -3.77013 2.42003 0
M  V30 7392 C 691.371 -4.19628 0.64132 0
M  V30 7393 C 689.278 -5.23841 2.74489 0
M  V30 7394 H 688.208 -0.726146 0.203046 0
M  V30 7395 H 690.859 -1.45339 1.12022 0
M  V30 7396 H 689.241 -3.94867 0.299317 0
M  V30 7397 H 690.415 -3.40393 3.10595 0
M  V30 7398 H 688.73 -3.18035 2.6878 0
M  V30 7399 H 691.327 -5.27729 0.860622 0
M  V30 7400 H 691.67 -4.14164 -0.421168 0
M  V30 7401 H 692.203 -3.78022 1.23872 0
M  V30 7402 H 688.942 -5.34388 3.79618 0
M  V30 7403 H 688.462 -5.61634 2.1054 0
M  V30 7404 H 690.141 -5.91647 2.61845 0
M  V30 7405 N 690.273 -0.685099 -1.4193 0
M  V30 7406 C 691.689 -0.355632 -1.55587 0
M  V30 7407 C 691.889 1.13823 -1.66273 0
M  V30 7408 O 690.945 1.92387 -1.63534 0
M  V30 7409 C 692.258 -1.09498 -2.80055 0
M  V30 7410 C 693.806 -1.07831 -2.93839 0
M  V30 7411 C 694.281 -1.79919 -4.21181 0
M  V30 7412 N 695.772 -1.76837 -4.28115 0
M  V30 7413 C 696.507 -2.29463 -5.25485 0
M  V30 7414 N 696.003 -2.90516 -6.28945 0
M  V30 7415 N 697.796 -2.19779 -5.17353 0
M  V30 7416 H 689.947 -1.65412 -1.33239 0
M  V30 7417 H 692.21 -0.697453 -0.642078 0
M  V30 7418 H 691.916 -2.14997 -2.78333 0
M  V30 7419 H 691.79 -0.666813 -3.71259 0
M  V30 7420 H 694.177 -0.0316152 -2.95083 0
M  V30 7421 H 694.258 -1.54545 -2.03837 0
M  V30 7422 H 693.902 -2.84562 -4.20698 0
M  V30 7423 H 693.832 -1.30647 -5.10136 0
M  V30 7424 H 696.323 -1.32315 -3.53979 0
M  V30 7425 H 696.636 -3.28266 -6.99615 0
M  V30 7426 H 694.981 -2.94589 -6.29478 0
M  V30 7427 H 698.172 -1.71763 -4.35448 0
M  V30 7428 H 698.345 -2.61097 -5.9307 0
M  V30 7429 N 691.751 1.51645 -0.429126 0
M  V30 7430 C 693.028 1.94579 0.199614 0
M  V30 7431 C 693.408 1.3673 1.60836 0
M  V30 7432 O 692.756 0.551062 2.21756 0
M  V30 7433 C 692.966 3.48506 0.185685 0
M  V30 7434 C 694.314 4.22756 0.395282 0
M  V30 7435 O 695.338 3.55219 0.264165 0
M  V30 7436 O 694.197 5.42555 0.655475 0
M  V30 7437 H 691.291 0.816007 0.134393 0
M  V30 7438 H 693.837 1.62577 -0.486513 0
M  V30 7439 H 692.609 3.83045 -0.799508 0
M  V30 7440 H 692.232 3.86927 0.91507 0
M  V30 7441 N 693.229 0.160201 1.56784 0
M  V30 7442 C 694.192 -0.760405 2.16219 0
M  V30 7443 C 695.192 -1.16595 1.10735 0
M  V30 7444 O 696.382 -1.08472 1.36306 0
M  V30 7445 C 693.514 -2.03358 2.73603 0
M  V30 7446 H 694.707 -0.243173 2.98912 0
M  V30 7447 H 692.26 -0.0893139 1.56045 0
M  V30 7448 H 692.995 -2.59416 1.94612 0
M  V30 7449 H 692.78 -1.75186 3.50788 0
M  V30 7450 H 694.27 -2.69081 3.19351 0
M  V30 7451 N 694.707 -1.5719 -0.113559 0
M  V30 7452 C 695.67 -1.99796 -1.12314 0
M  V30 7453 C 696.67 -0.888847 -1.34001 0
M  V30 7454 O 697.86 -1.15476 -1.30426 0
M  V30 7455 C 694.992 -2.34279 -2.47641 0
M  V30 7456 H 696.185 -2.90193 -0.756825 0
M  V30 7457 H 693.738 -1.52144 -0.358029 0
M  V30 7458 H 694.473 -1.46778 -2.89183 0
M  V30 7459 H 694.258 -3.15175 -2.33253 0
M  V30 7460 H 695.748 -2.67963 -3.2029 0
M  V30 7461 N 696.185 0.383891 -1.52853 0
M  V30 7462 C 697.413 1.1495 -1.7203 0
M  V30 7463 C 697.828 1.83578 -0.440957 0
M  V30 7464 O 697.185 1.72872 0.584925 0
M  V30 7465 C 697.236 2.19368 -2.87333 0
M  V30 7466 O 696.957 1.53536 -4.10315 0
M  V30 7467 C 698.458 3.08616 -3.18231 0
M  V30 7468 H 695.678 0.344445 -0.575846 0
M  V30 7469 H 698.222 0.448397 -1.99524 0
M  V30 7470 H 696.377 2.85105 -2.62286 0
M  V30 7471 H 696.791 2.2296 -4.74752 0
M  V30 7472 H 698.265 3.77902 -4.02361 0
M  V30 7473 H 698.742 3.72409 -2.32826 0
M  V30 7474 H 699.348 2.48518 -3.45136 0
M  V30 7475 N 697.663 1.43903 0.642637 0
M  V30 7476 C 698.593 1.52697 1.76652 0
M  V30 7477 C 699.574 0.380816 1.65782 0
M  V30 7478 O 700.759 0.599432 1.84717 0
M  V30 7479 C 697.889 1.45975 3.15133 0
M  V30 7480 C 696.843 2.58949 3.40778 0
M  V30 7481 C 696.169 2.37279 4.79169 0
M  V30 7482 C 697.469 4.01153 3.34475 0
M  V30 7483 H 699.163 2.46766 1.69549 0
M  V30 7484 H 696.709 1.18767 0.814279 0
M  V30 7485 H 698.662 1.5073 3.93521 0
M  V30 7486 H 697.386 0.484162 3.22991 0
M  V30 7487 H 696.045 2.53564 2.64765 0
M  V30 7488 H 695.693 1.37939 4.83717 0
M  V30 7489 H 695.393 3.13016 4.97287 0
M  V30 7490 H 696.917 2.43834 5.59801 0
M  V30 7491 H 698.331 4.07968 4.02784 0
M  V30 7492 H 696.728 4.77001 3.64129 0
M  V30 7493 H 697.798 4.25539 2.32475 0
M  V30 7494 N 699.141 -0.881989 1.30609 0
M  V30 7495 C 700.39 -1.62878 1.18969 0
M  V30 7496 C 700.703 -1.93946 -0.253859 0
M  V30 7497 O 701.909 -2.67008 -0.491813 0
M  V30 7498 C 700.365 -2.93573 2.0819 0
M  V30 7499 C 699.973 -2.70034 3.57471 0
M  V30 7500 C 701.717 -3.71543 2.0532 0
M  V30 7501 C 699.624 -3.96563 4.38739 0
M  V30 7502 H 698.554 -0.611092 0.441682 0
M  V30 7503 H 701.205 -0.976201 1.55379 0
M  V30 7504 H 699.587 -3.6014 1.64666 0
M  V30 7505 H 700.761 -2.11949 4.09163 0
M  V30 7506 H 699.076 -2.05435 3.62195 0
M  V30 7507 H 701.673 -4.65386 2.63288 0
M  V30 7508 H 702.016 -4.03167 1.03739 0
M  V30 7509 H 702.549 -3.11842 2.46981 0
M  V30 7510 H 699.288 -3.70095 5.41027 0
M  V30 7511 H 698.808 -4.54142 3.9181 0
M  V30 7512 H 700.487 -4.64557 4.50329 0
M  V30 7513 N 700.619 -1.13374 -1.09472 0
M  V30 7514 C 701.549 -0.833268 -2.18126 0
M  V30 7515 C 702.53 0.207169 -1.68834 0
M  V30 7516 O 703.715 0.0662012 -1.94087 0
M  V30 7517 C 700.845 -0.297979 -3.46019 0
M  V30 7518 C 699.799 -1.27261 -4.08642 0
M  V30 7519 C 699.125 -0.597104 -5.31356 0
M  V30 7520 C 700.425 -2.63095 -4.51197 0
M  V30 7521 H 702.119 -1.74182 -2.43518 0
M  V30 7522 H 699.665 -0.838921 -1.17039 0
M  V30 7523 H 701.618 -0.0754444 -4.21332 0
M  V30 7524 H 700.342 0.645959 -3.20148 0
M  V30 7525 H 699.001 -1.48113 -3.35348 0
M  V30 7526 H 698.649 0.352293 -5.01765 0
M  V30 7527 H 698.349 -1.24734 -5.74208 0
M  V30 7528 H 699.873 -0.38384 -6.09392 0
M  V30 7529 H 701.287 -2.46214 -5.17737 0
M  V30 7530 H 699.684 -3.2429 -5.04932 0
M  V30 7531 H 700.754 -3.20793 -3.6362 0
M  V30 7532 N 702.098 1.27442 -0.927168 0
M  V30 7533 C 703.323 1.99036 -0.583042 0
M  V30 7534 C 703.748 1.68711 0.83176 0
M  V30 7535 O 703.106 0.927081 1.55804 0
M  V30 7536 C 703.154 3.51271 -0.814925 0
M  V30 7537 O 702.258 4.12226 0.119742 0
M  V30 7538 H 701.599 0.624883 -0.224538 0
M  V30 7539 H 704.129 1.62263 -1.24628 0
M  V30 7540 H 704.139 4.01411 -0.730282 0
M  V30 7541 H 702.814 3.72676 -1.84623 0
M  V30 7542 H 701.391 3.72897 -0.0147688 0
M  V30 7543 N 703.576 0.692616 1.41565 0
M  V30 7544 C 704.508 -0.0137132 2.29196 0
M  V30 7545 C 705.521 -0.747417 1.44629 0
M  V30 7546 O 706.71 -0.598611 1.68163 0
M  V30 7547 C 703.81 -1.04347 3.22436 0
M  V30 7548 C 702.983 -0.379985 4.35746 0
M  V30 7549 C 702.042 -1.31195 5.09583 0
M  V30 7550 O 701.068 -0.805455 5.63472 0
M  V30 7551 N 702.27 -2.64443 5.16769 0
M  V30 7552 H 705.035 0.738614 2.90456 0
M  V30 7553 H 702.596 0.538415 1.52685 0
M  V30 7554 H 704.588 -1.6686 3.687 0
M  V30 7555 H 703.158 -1.69736 2.62504 0
M  V30 7556 H 702.378 0.424975 3.91903 0
M  V30 7557 H 703.666 0.0814904 5.08735 0
M  V30 7558 H 703.064 -3.08114 4.74428 0
M  V30 7559 H 701.621 -3.22159 5.66619 0
M  V30 7560 N 705.054 -1.51416 0.437162 0
M  V30 7561 C 706.004 -2.24599 -0.392311 0
M  V30 7562 C 706.988 -1.2682 -0.990221 0
M  V30 7563 O 708.18 -1.51912 -0.908391 0
M  V30 7564 C 705.309 -3.09134 -1.49301 0
M  V30 7565 C 704.395 -4.14342 -0.904503 0
M  V30 7566 N 704.786 -5.0578 -0.0451511 0
M  V30 7567 C 703.084 -4.30323 -1.1721 0
M  V30 7568 C 703.785 -5.81 0.285344 0
M  V30 7569 N 702.761 -5.42591 -0.330993 0
M  V30 7570 H 706.563 -2.92655 0.270221 0
M  V30 7571 H 704.077 -1.60476 0.249226 0
M  V30 7572 H 706.074 -3.6014 -2.10011 0
M  V30 7573 H 704.734 -2.42622 -2.15788 0
M  V30 7574 H 705.745 -5.16903 0.321271 0
M  V30 7575 H 702.422 -3.75037 -1.83448 0
M  V30 7576 H 703.812 -6.64646 0.984626 0
M  V30 7577 N 706.532 -0.168513 -1.56696 0
M  V30 7578 C 707.772 0.479648 -1.98693 0
M  V30 7579 C 708.136 1.60609 -1.05209 0
M  V30 7580 O 709.337 2.3166 -1.36334 0
M  V30 7581 C 707.608 0.952852 -3.44464 0
M  V30 7582 S 709.167 1.60259 -4.08488 0
M  V30 7583 H 705.985 0.154377 -0.694038 0
M  V30 7584 H 708.587 -0.265312 -1.93691 0
M  V30 7585 H 707.291 0.12257 -4.10217 0
M  V30 7586 H 706.822 1.73192 -3.53225 0
M  V30 7587 H 708.837 2.89065 -4.03307 0
M  V30 7588 N 708.01 1.57248 0.105221 0
M  V30 7589 C 709.238 1.89768 0.82437 0
M  V30 7590 C 709.653 0.761192 1.72775 0
M  V30 7591 O 709.01 -0.267342 1.80531 0
M  V30 7592 C 709.061 3.2184 1.64625 0
M  V30 7593 O 708.782 4.31115 0.779217 0
M  V30 7594 C 710.283 3.68155 2.46935 0
M  V30 7595 H 707.503 0.628031 0.236259 0
M  V30 7596 H 710.047 2.04321 0.085485 0
M  V30 7597 H 708.202 3.08915 2.33775 0
M  V30 7598 H 708.616 5.06897 1.34745 0
M  V30 7599 H 710.09 4.6329 3.00111 0
M  V30 7600 H 710.567 2.95492 3.24932 0
M  V30 7601 H 711.173 3.83914 1.83002 0
M  V30 7602 N 709.488 -0.375779 1.53054 0
M  V30 7603 C 710.713 -1.14484 1.7294 0
M  V30 7604 C 711.138 -1.82572 0.452668 0
M  V30 7605 O 710.496 -1.71343 -0.592567 0
M  V30 7606 C 710.544 -2.15857 2.88857 0
M  V30 7607 O 709.648 -3.22725 2.56753 0
M  V30 7608 H 708.989 -0.332666 0.574656 0
M  V30 7609 H 711.519 -0.436025 1.999 0
M  V30 7610 H 711.529 -2.59631 3.14731 0
M  V30 7611 H 710.204 -1.65689 3.81471 0
M  V30 7612 H 708.781 -2.83996 2.41663 0
M  V30 7613 N 710.966 -1.44241 -0.634997 0
M  V30 7614 C 711.898 -1.46793 -1.76024 0
M  V30 7615 C 712.911 -0.361781 -1.58729 0
M  V30 7616 O 714.1 -0.627297 -1.67114 0
M  V30 7617 C 711.2 -1.28248 -3.13697 0
M  V30 7618 C 710.373 -2.52038 -3.57485 0
M  V30 7619 C 709.432 -2.2845 -4.74022 0
M  V30 7620 O 708.458 -3.01915 -4.82531 0
M  V30 7621 N 709.66 -1.31264 -5.65464 0
M  V30 7622 H 712.425 -2.43797 -1.74307 0
M  V30 7623 H 709.986 -1.39631 -0.819438 0
M  V30 7624 H 711.978 -1.10321 -3.89373 0
M  V30 7625 H 710.548 -0.39623 -3.10079 0
M  V30 7626 H 709.768 -2.85268 -2.72059 0
M  V30 7627 H 711.056 -3.34382 -3.83492 0
M  V30 7628 H 710.454 -0.705817 -5.6128 0
M  V30 7629 H 709.011 -1.19316 -6.40786 0
M  V30 7630 N 712.444 0.87505 -1.31075 0
M  V30 7631 C 713.855 1.4433 -1.18431 0
M  V30 7632 C 714.206 1.9506 0.211189 0
M  V30 7633 O 713.331 1.85847 1.10859 0
M  V30 7634 C 713.926 2.62341 -2.14389 0
M  V30 7635 C 712.485 3.15225 -2.05694 0
M  V30 7636 C 711.632 1.87929 -2.03907 0
M  V30 7637 H 714.583 0.684061 -1.432 0
M  V30 7638 H 714.604 3.3887 -1.73053 0
M  V30 7639 H 714.116 2.25388 -3.15946 0
M  V30 7640 H 712.217 3.56812 -1.07314 0
M  V30 7641 H 712.33 3.77853 -2.94558 0
M  V30 7642 H 710.694 2.06679 -1.48849 0
M  V30 7643 H 711.477 1.53221 -3.07211 0
M  V30 7644 N 713.922 1.13953 1.08869 0
M  V30 7645 C 715.147 0.928559 1.85452 0
M  V30 7646 C 715.572 -0.517642 1.80837 0
M  V30 7647 O 714.93 -1.36779 1.19001 0
M  V30 7648 C 714.978 1.42814 3.31114 0
M  V30 7649 O 714.082 0.617129 4.07756 0
M  V30 7650 H 713.423 0.33235 0.574839 0
M  V30 7651 H 715.953 1.5156 1.37443 0
M  V30 7652 H 715.963 1.43425 3.8196 0
M  V30 7653 H 714.638 2.48109 3.33788 0
M  V30 7654 H 713.215 0.679365 3.66659 0
M  V30 7655 N 715.4 -1.26948 0.933913 0
M  V30 7656 C 716.811 -1.76058 0.621324 0
M  V30 7657 C 717.162 -1.76175 -0.863522 0
M  V30 7658 O 716.287 -1.36921 -1.67576 0
M  V30 7659 C 716.882 -3.19713 1.12111 0
M  V30 7660 C 715.441 -3.66465 0.859074 0
M  V30 7661 C 714.588 -2.46186 1.27624 0
M  V30 7662 H 717.539 -1.13127 1.11301 0
M  V30 7663 H 717.56 -3.77566 0.471608 0
M  V30 7664 H 717.072 -3.19596 2.20182 0
M  V30 7665 H 715.173 -3.72021 -0.207566 0
M  V30 7666 H 715.286 -4.55636 1.48098 0
M  V30 7667 H 713.65 -2.45042 0.694727 0
M  V30 7668 H 714.433 -2.48774 2.36572 0
M  V30 7669 N 716.879 -0.700114 -1.41195 0
M  V30 7670 C 718.295 -0.372114 -1.55201 0
M  V30 7671 C 718.495 1.12053 -1.6747 0
M  V30 7672 O 717.551 1.90642 -1.65566 0
M  V30 7673 C 718.864 -1.12462 -2.78878 0
M  V30 7674 C 720.412 -1.10941 -2.92679 0
M  V30 7675 C 720.887 -1.84376 -4.19249 0
M  V30 7676 N 722.378 -1.81368 -4.26216 0
M  V30 7677 C 723.113 -2.35024 -5.23021 0
M  V30 7678 N 722.609 -2.9717 -6.25829 0
M  V30 7679 N 724.402 -2.25254 -5.14992 0
M  V30 7680 H 716.553 -1.66816 -1.31477 0
M  V30 7681 H 718.816 -0.704223 -0.634644 0
M  V30 7682 H 718.522 -2.17937 -2.76037 0
M  V30 7683 H 718.396 -0.706152 -3.70531 0
M  V30 7684 H 720.783 -0.062911 -2.95033 0
M  V30 7685 H 720.864 -1.56698 -2.02187 0
M  V30 7686 H 720.508 -2.89008 -4.17656 0
M  V30 7687 H 720.438 -1.3605 -5.08722 0
M  V30 7688 H 722.929 -1.36062 -3.52556 0
M  V30 7689 H 723.242 -3.35668 -6.96094 0
M  V30 7690 H 721.587 -3.01249 -6.26318 0
M  V30 7691 H 724.778 -1.76372 -4.33602 0
M  V30 7692 H 724.951 -2.67373 -5.90268 0
M  V30 7693 N 718.357 1.51182 -0.445186 0
M  V30 7694 C 719.603 2.02452 0.11882 0
M  V30 7695 C 719.936 1.32824 1.41673 0
M  V30 7696 O 719.211 0.445637 1.89326 0
M  V30 7697 C 719.494 3.5859 0.329475 0
M  V30 7698 C 719.347 4.38823 -0.987638 0
M  V30 7699 C 720.666 4.26241 1.09575 0
M  V30 7700 H 717.785 0.735819 0.0417092 0
M  V30 7701 H 720.427 1.80747 -0.585718 0
M  V30 7702 H 718.577 3.77214 0.9296 0
M  V30 7703 H 720.249 4.3183 -1.62235 0
M  V30 7704 H 718.492 4.03594 -1.59041 0
M  V30 7705 H 719.163 5.46257 -0.794192 0
M  V30 7706 H 721.639 4.11934 0.587328 0
M  V30 7707 H 720.515 5.35354 1.21191 0
M  V30 7708 H 720.776 3.87635 2.12584 0
M  V30 7709 N 719.835 0.176821 1.56605 0
M  V30 7710 C 721.083 -0.465793 1.96659 0
M  V30 7711 C 721.404 -1.63406 1.06412 0
M  V30 7712 O 720.674 -1.95457 0.131603 0
M  V30 7713 H 719.254 -0.175072 0.726195 0
M  V30 7714 H 721.916 0.25929 1.93168 0
M  V30 7715 H 721.012 -0.822138 3.01077 0
M  V30 7716 N 721.313 -1.57302 -0.09688 0
M  V30 7717 C 722.261 -2.02942 -1.13654 0
M  V30 7718 C 723.255 -0.930173 -1.41577 0
M  V30 7719 O 724.461 -1.11535 -1.41279 0
M  V30 7720 H 720.836 -0.646726 -0.383731 0
M  V30 7721 H 722.807 -2.89452 -0.725267 0
M  V30 7722 C 721.556 -2.46815 -2.44903 0
M  V30 7723 H 720.879 -3.30979 -2.24261 0
M  V30 7724 H 722.319 -2.82527 -3.16156 0
M  V30 7725 C 720.778 -1.34071 -3.09074 0
M  V30 7726 O 721.308 -0.668856 -3.96092 0
M  V30 7727 N 719.514 -1.09214 -2.69296 0
M  V30 7728 H 719.061 -1.64029 -1.98626 0
M  V30 7729 H 719.019 -0.339785 -3.12559 0
M  V30 7730 N 722.791 0.367657 -1.53252 0
M  V30 7731 C 723.721 1.45632 -1.8252 0
M  V30 7732 C 724.702 1.55979 -0.678568 0
M  V30 7733 O 725.887 1.70581 -0.928217 0
M  V30 7734 C 723.017 2.82994 -2.01325 0
M  V30 7735 C 721.971 2.87473 -3.17086 0
M  V30 7736 C 721.297 4.2749 -3.21179 0
M  V30 7737 C 722.597 2.55182 -4.55719 0
M  V30 7738 H 724.291 1.21387 -2.73689 0
M  V30 7739 H 721.837 0.58251 -1.31692 0
M  V30 7740 H 723.79 3.59179 -2.20383 0
M  V30 7741 H 722.514 3.08622 -1.06864 0
M  V30 7742 H 721.173 2.13739 -2.97844 0
M  V30 7743 H 720.821 4.5019 -2.24361 0
M  V30 7744 H 720.521 4.31403 -3.98955 0
M  V30 7745 H 722.045 5.0555 -3.42419 0
M  V30 7746 H 723.459 3.21081 -4.74953 0
M  V30 7747 H 721.856 2.70414 -5.3572 0
M  V30 7748 H 722.926 1.5044 -4.60973 0
M  V30 7749 N 724.269 1.44576 0.627338 0
M  V30 7750 C 725.518 1.46837 1.38281 0
M  V30 7751 C 725.831 0.10635 1.95311 0
M  V30 7752 O 727.037 0.00651084 2.71499 0
M  V30 7753 C 725.493 2.58527 2.50384 0
M  V30 7754 C 725.101 4.00953 1.99851 0
M  V30 7755 C 726.845 2.70013 3.27557 0
M  V30 7756 C 724.752 5.0406 3.09318 0
M  V30 7757 H 723.682 0.546319 0.519664 0
M  V30 7758 H 726.333 1.70654 0.674497 0
M  V30 7759 H 724.715 2.27957 3.23808 0
M  V30 7760 H 725.889 4.41108 1.33267 0
M  V30 7761 H 724.204 3.93743 1.35482 0
M  V30 7762 H 726.801 3.44217 4.09168 0
M  V30 7763 H 727.144 1.75961 3.77284 0
M  V30 7764 H 727.677 3.00011 2.61224 0
M  V30 7765 H 724.416 5.99753 2.6453 0
M  V30 7766 H 723.936 4.68493 3.74532 0
M  V30 7767 H 725.615 5.2793 3.74031 0
M  V30 7768 N 725.747 -0.868086 1.31537 0
M  V30 7769 C 726.972 -1.65926 1.24432 0
M  V30 7770 C 727.397 -1.87169 -0.186936 0
M  V30 7771 O 726.755 -1.4148 -1.13371 0
M  V30 7772 C 726.803 -3.00347 1.9956 0
M  V30 7773 O 725.907 -3.90221 1.33422 0
M  V30 7774 H 725.248 -0.506375 0.429512 0
M  V30 7775 H 727.778 -1.0822 1.73637 0
M  V30 7776 H 727.788 -3.50269 2.09226 0
M  V30 7777 H 726.463 -2.84205 3.03645 0
M  V30 7778 H 725.04 -3.48672 1.32219 0
M  V30 7779 N 727.225 -1.14528 -1.08264 0
M  V30 7780 C 728.157 -0.791325 -2.15106 0
M  V30 7781 C 729.17 0.192449 -1.61659 0
M  V30 7782 O 730.359 -0.0294704 -1.78476 0
M  V30 7783 C 727.459 -0.154183 -3.38549 0
M  V30 7784 C 726.632 -1.17305 -4.21377 0
M  V30 7785 C 725.691 -0.559401 -5.23218 0
M  V30 7786 O 724.717 -1.22277 -5.55911 0
M  V30 7787 N 725.919 0.663159 -5.767 0
M  V30 7788 H 728.684 -1.71076 -2.46075 0
M  V30 7789 H 726.245 -1.0399 -1.24087 0
M  V30 7790 H 728.237 0.268884 -4.03806 0
M  V30 7791 H 726.807 0.668418 -3.0537 0
M  V30 7792 H 726.027 -1.773 -3.52077 0
M  V30 7793 H 727.315 -1.86128 -4.73533 0
M  V30 7794 H 726.713 1.22066 -5.52373 0
M  V30 7795 H 725.27 1.02871 -6.43631 0
M  V30 7796 N 728.703 1.26451 -0.940633 0
M  V30 7797 C 729.952 1.93071 -0.583656 0
M  V30 7798 C 730.265 1.74618 0.881366 0
M  V30 7799 O 731.471 2.35689 1.34769 0
M  V30 7800 C 729.927 3.45927 -0.993106 0
M  V30 7801 C 729.535 3.73115 -2.4797 0
M  V30 7802 C 731.279 4.18554 -0.707998 0
M  V30 7803 C 729.186 5.19408 -2.82788 0
M  V30 7804 H 728.116 0.722824 -0.214572 0
M  V30 7805 H 730.767 1.43538 -1.1432 0
M  V30 7806 H 729.149 3.94341 -0.362099 0
M  V30 7807 H 730.323 3.35408 -3.15971 0
M  V30 7808 H 728.638 3.13719 -2.73805 0
M  V30 7809 H 731.235 5.26293 -0.94447 0
M  V30 7810 H 731.578 4.14782 0.355225 0
M  V30 7811 H 732.111 3.76003 -1.2987 0
M  V30 7812 H 728.85 5.28281 -3.88071 0
M  V30 7813 H 728.37 5.58214 -2.19449 0
M  V30 7814 H 730.049 5.87407 -2.71224 0
M  V30 7815 N 730.181 0.707592 1.40822 0
M  V30 7816 C 731.597 0.38034 1.55002 0
M  V30 7817 C 731.797 -1.11163 1.68062 0
M  V30 7818 O 730.853 -1.89761 1.66574 0
M  V30 7819 C 732.166 1.1394 2.78277 0
M  V30 7820 C 733.714 1.12492 2.92087 0
M  V30 7821 C 734.189 1.86597 4.18265 0
M  V30 7822 N 735.68 1.83626 4.25248 0
M  V30 7823 C 736.415 2.37794 5.21768 0
M  V30 7824 N 735.911 3.00485 6.24244 0
M  V30 7825 N 737.704 2.27982 5.13791 0
M  V30 7826 H 729.855 1.67511 1.3059 0
M  V30 7827 H 732.118 0.707579 0.630901 0
M  V30 7828 H 731.824 2.19398 2.74877 0
M  V30 7829 H 731.698 0.725793 3.70151 0
M  V30 7830 H 734.085 0.0785564 2.94995 0
M  V30 7831 H 734.166 1.57768 2.01353 0
M  V30 7832 H 733.81 2.91219 4.16118 0
M  V30 7833 H 733.74 1.38746 5.07993 0
M  V30 7834 H 736.231 1.3793 3.51829 0
M  V30 7835 H 736.544 3.39355 6.94304 0
M  V30 7836 H 734.889 3.04567 6.24711 0
M  V30 7837 H 738.08 1.78669 4.3266 0
M  V30 7838 H 738.253 2.70499 5.88841 0
M  V30 7839 N 731.66 -1.50943 0.453197 0
M  V30 7840 C 732.908 -2.01813 -0.107709 0
M  V30 7841 C 733.229 -1.33841 -1.41816 0
M  V30 7842 O 732.499 -0.477973 -1.8998 0
M  V30 7843 H 731.079 -0.745773 -0.0427948 0
M  V30 7844 H 733.741 -1.8545 0.599531 0
M  V30 7845 H 732.837 -3.10911 -0.27218 0
M  V30 7846 N 733.138 -0.185124 -1.56509 0
M  V30 7847 C 734.101 0.72591 -2.17401 0
M  V30 7848 C 735.101 1.14819 -1.12575 0
M  V30 7849 O 736.291 1.0629 -1.38015 0
M  V30 7850 C 733.423 1.98979 -2.76803 0
M  V30 7851 H 734.616 0.195588 -2.99262 0
M  V30 7852 H 732.169 0.0644772 -1.56167 0
M  V30 7853 H 732.904 2.56287 -1.98714 0
M  V30 7854 H 732.689 1.69583 -3.53531 0
M  V30 7855 H 734.179 2.63966 -3.23592 0
M  V30 7856 N 734.616 1.57351 0.0885366 0
M  V30 7857 C 736.032 1.53331 0.442916 0
M  V30 7858 C 736.232 0.902831 1.80142 0
M  V30 7859 O 735.288 0.498147 2.47537 0
M  V30 7860 C 736.601 2.98036 0.399372 0
M  V30 7861 C 738.149 3.09286 0.480759 0
M  V30 7862 C 738.624 4.5561 0.467296 0
M  V30 7863 N 740.115 4.60182 0.52786 0
M  V30 7864 C 740.85 5.70857 0.539388 0
M  V30 7865 N 740.346 6.90944 0.506729 0
M  V30 7866 N 742.139 5.59051 0.584691 0
M  V30 7867 H 734.29 1.96709 -0.801215 0
M  V30 7868 H 736.553 0.899639 -0.298922 0
M  V30 7869 H 736.259 3.47656 -0.531806 0
M  V30 7870 H 736.133 3.57066 1.21589 0
M  V30 7871 H 738.52 2.5965 1.40236 0
M  V30 7872 H 738.601 2.53197 -0.364023 0
M  V30 7873 H 738.245 5.05899 -0.450384 0
M  V30 7874 H 738.175 5.09544 1.32938 0
M  V30 7875 H 740.666 3.73757 0.558028 0
M  V30 7876 H 740.979 7.71055 0.518989 0
M  V30 7877 H 739.324 6.93384 0.473675 0
M  V30 7878 H 742.515 4.64138 0.607781 0
M  V30 7879 H 742.688 6.45307 0.590206 0
M  V30 7880 N 736.094 -0.359525 1.53444 0
M  V30 7881 C 737.057 -1.42357 1.7963 0
M  V30 7882 C 738.057 -1.46319 0.666884 0
M  V30 7883 O 739.247 -1.46974 0.935113 0
M  V30 7884 C 736.379 -2.81425 1.92387 0
M  V30 7885 H 737.572 -1.20409 2.74666 0
M  V30 7886 H 735.125 -0.593007 1.44614 0
M  V30 7887 H 735.86 -3.08679 0.994384 0
M  V30 7888 H 735.645 -2.79947 2.74539 0
M  V30 7889 H 737.135 -3.5847 2.14218 0
M  V30 7890 N 737.572 -1.44907 -0.619662 0
M  V30 7891 C 738.818 -1.49504 -1.37914 0
M  V30 7892 C 739.173 -0.130158 -1.91959 0
M  V30 7893 O 738.466 0.856263 -1.71402 0
M  V30 7894 C 738.66 -2.50002 -2.55409 0
M  V30 7895 C 738.489 -3.96128 -2.12867 0
M  V30 7896 C 737.259 -4.64204 -1.99606 0
M  V30 7897 C 739.457 -4.85014 -1.71074 0
M  V30 7898 N 737.439 -5.95104 -1.50748 0
M  V30 7899 C 738.81 -6.05447 -1.33544 0
M  V30 7900 C 740.865 -4.71979 -1.58557 0
M  V30 7901 C 739.568 -7.1429 -0.847484 0
M  V30 7902 C 741.594 -5.80858 -1.11165 0
M  V30 7903 C 740.956 -7.00439 -0.745932 0
M  V30 7904 H 737.055 -0.60207 -0.499034 0
M  V30 7905 H 739.639 -1.81305 -0.70968 0
M  V30 7906 H 737.81 -2.20172 -3.19967 0
M  V30 7907 H 739.542 -2.44823 -3.22248 0
M  V30 7908 H 736.297 -4.19182 -2.20417 0
M  V30 7909 H 736.721 -6.64676 -1.28585 0
M  V30 7910 H 741.363 -3.79953 -1.85461 0
M  V30 7911 H 739.081 -8.06116 -0.565974 0
M  V30 7912 H 742.667 -5.72803 -1.01923 0
M  V30 7913 H 741.547 -7.83255 -0.384848 0
M  V30 7914 N 739.05 0.861098 -1.31996 0
M  V30 7915 C 740.013 1.95068 -1.20338 0
M  V30 7916 C 741.013 1.60289 -0.128114 0
M  V30 7917 O 742.203 1.70048 -0.378044 0
M  V30 7918 C 739.335 3.30153 -0.849205 0
M  V30 7919 H 740.528 2.06833 -2.17164 0
M  V30 7920 H 738.081 1.05049 -1.15734 0
M  V30 7921 H 738.816 3.24087 0.117508 0
M  V30 7922 H 738.601 3.56771 -1.62655 0
M  V30 7923 H 740.091 4.10025 -0.791782 0
M  V30 7924 N 740.528 1.15101 1.07655 0
M  V30 7925 C 741.768 0.934462 1.81789 0
M  V30 7926 C 742.132 -0.529101 1.84566 0
M  V30 7927 O 743.333 -0.863868 2.5454 0
M  V30 7928 C 741.604 1.52817 3.23082 0
M  V30 7929 S 743.163 1.45429 4.14 0
M  V30 7930 H 739.981 0.336379 0.626395 0
M  V30 7931 H 742.583 1.46593 1.29347 0
M  V30 7932 H 741.287 2.58635 3.18647 0
M  V30 7933 H 740.818 0.995432 3.80598 0
M  V30 7934 H 742.833 0.445058 4.942 0
M  V30 7935 N 742.006 -1.2595 0.947325 0
M  V30 7936 C 743.254 -1.93081 0.596996 0
M  V30 7937 C 743.575 -1.74632 -0.867672 0
M  V30 7938 O 742.845 -1.1056 -1.6172 0
M  V30 7939 H 741.425 -0.714542 0.217805 0
M  V30 7940 H 744.087 -1.53265 1.20398 0
M  V30 7941 H 743.183 -3.01134 0.82004 0
M  V30 7942 N 743.484 -0.715051 -1.40445 0
M  V30 7943 C 744.712 -0.263959 -2.05209 0
M  V30 7944 C 745.127 1.09403 -1.53871 0
M  V30 7945 O 744.484 1.68746 -0.695064 0
M  V30 7946 C 744.535 -0.234545 -3.60738 0
M  V30 7947 O 744.256 -1.53891 -4.10182 0
M  V30 7948 C 745.757 0.235164 -4.42676 0
M  V30 7949 H 742.977 -0.11876 -0.660407 0
M  V30 7950 H 745.521 -0.973107 -1.79864 0
M  V30 7951 H 743.676 0.425563 -3.85055 0
M  V30 7952 H 744.09 -1.43903 -5.04373 0
M  V30 7953 H 745.564 0.204598 -5.51621 0
M  V30 7954 H 746.041 1.27724 -4.20218 0
M  V30 7955 H 746.647 -0.394649 -4.23465 0
M  V30 7956 N 744.962 1.50701 -0.461195 0
M  V30 7957 C 746.187 2.07171 0.0974773 0
M  V30 7958 C 746.612 1.32391 1.3362 0
M  V30 7959 O 745.97 0.368676 1.77512 0
M  V30 7960 C 746.018 3.58651 0.374409 0
M  V30 7961 O 745.122 3.85816 1.4567 0
M  V30 7962 H 744.463 0.663944 -0.00862047 0
M  V30 7963 H 746.993 1.94021 -0.649394 0
M  V30 7964 H 747.003 4.03295 0.617843 0
M  V30 7965 H 745.678 4.12498 -0.530829 0
M  V30 7966 H 744.255 3.53018 1.20136 0
M  V30 7967 N 746.441 0.193421 1.56409 0
M  V30 7968 C 747.371 -0.723334 2.22014 0
M  V30 7969 C 748.352 -1.22254 1.1827 0
M  V30 7970 O 749.537 -1.27168 1.46771 0
M  V30 7971 C 746.667 -1.94366 2.87818 0
M  V30 7972 C 745.621 -1.57943 3.97791 0
M  V30 7973 C 744.947 -2.87623 4.50752 0
M  V30 7974 C 746.247 -0.790639 5.16281 0
M  V30 7975 H 747.941 -0.176426 2.9888 0
M  V30 7976 H 745.487 -0.0834166 1.43758 0
M  V30 7977 H 747.44 -2.5902 3.32396 0
M  V30 7978 H 746.164 -2.51507 2.08355 0
M  V30 7979 H 744.823 -0.956482 3.53903 0
M  V30 7980 H 744.471 -3.4285 3.68053 0
M  V30 7981 H 744.171 -2.63998 5.24956 0
M  V30 7982 H 745.695 -3.53268 4.9803 0
M  V30 7983 H 747.109 -1.34024 5.57414 0
M  V30 7984 H 745.506 -0.65258 5.96541 0
M  V30 7985 H 746.576 0.208633 4.84451 0
M  V30 7986 N 747.919 -1.57396 -0.0801906 0
M  V30 7987 C 748.851 -1.9982 -1.12271 0
M  V30 7988 C 749.864 -0.902902 -1.35468 0
M  V30 7989 O 751.053 -1.18088 -1.33856 0
M  V30 7990 C 748.153 -2.31476 -2.47532 0
M  V30 7991 C 747.326 -3.62745 -2.44407 0
M  V30 7992 C 746.385 -3.82168 -3.6171 0
M  V30 7993 O 745.411 -4.53852 -3.43522 0
M  V30 7994 N 746.613 -3.2388 -4.81749 0
M  V30 7995 H 749.378 -2.89864 -0.761501 0
M  V30 7996 H 746.939 -1.5965 -0.268965 0
M  V30 7997 H 748.931 -2.4165 -3.24634 0
M  V30 7998 H 747.501 -1.47364 -2.75686 0
M  V30 7999 H 746.721 -3.63403 -1.52747 0
M  V30 8000 H 748.009 -4.48954 -2.39412 0
M  V30 8001 H 747.407 -2.6568 -4.9943 0
M  V30 8002 H 745.964 -3.39515 -5.56392 0
M  V30 8003 N 749.397 0.351382 -1.53633 0
M  V30 8004 C 750.622 1.11718 -1.74739 0
M  V30 8005 C 751.047 1.81829 -0.481657 0
M  V30 8006 O 750.405 1.72264 0.565233 0
M  V30 8007 C 750.453 2.11234 -2.92254 0
M  V30 8008 O 749.557 3.186 -2.61855 0
M  V30 8009 H 748.898 0.323482 -0.579875 0
M  V30 8010 H 751.428 0.404167 -2.00568 0
M  V30 8011 H 751.438 2.54591 -3.18822 0
M  V30 8012 H 750.113 1.59599 -3.84058 0
M  V30 8013 H 748.69 2.80115 -2.4615 0
M  V30 8014 N 750.875 1.45233 0.611969 0
M  V30 8015 C 752.121 1.49242 1.37312 0
M  V30 8016 C 752.454 0.131963 1.93751 0
M  V30 8017 O 751.729 -0.852999 1.74798 0
M  V30 8018 C 752.012 2.56811 2.52428 0
M  V30 8019 C 751.865 4.02284 2.01215 0
M  V30 8020 C 753.184 2.60705 3.54572 0
M  V30 8021 H 750.303 0.54336 0.497925 0
M  V30 8022 H 752.945 1.77019 0.690242 0
M  V30 8023 H 751.095 2.33256 3.10683 0
M  V30 8024 H 752.767 4.37035 1.47643 0
M  V30 8025 H 751.01 4.1315 1.32248 0
M  V30 8026 H 751.681 4.7323 2.84178 0
M  V30 8027 H 754.157 2.81799 3.06151 0
M  V30 8028 H 753.033 3.37841 4.32614 0
M  V30 8029 H 753.294 1.65627 4.09903 0
M  V30 8030 N 752.353 -0.854086 1.3245 0
M  V30 8031 C 753.578 -1.64597 1.26185 0
M  V30 8032 C 754.003 -1.87357 -0.167074 0
M  V30 8033 O 753.361 -1.42675 -1.11864 0
M  V30 8034 C 753.409 -2.98213 2.02734 0
M  V30 8035 O 752.513 -3.88784 1.37554 0
M  V30 8036 H 751.854 -0.50179 0.434859 0
M  V30 8037 H 754.384 -1.06372 1.74775 0
M  V30 8038 H 754.394 -3.4803 2.1293 0
M  V30 8039 H 753.069 -2.80969 3.06642 0
M  V30 8040 H 751.646 -3.4725 1.3591 0
M  V30 8041 N 753.831 -1.1567 -1.07043 0
M  V30 8042 C 755.079 -0.931673 -1.79344 0
M  V30 8043 C 755.4 0.542421 -1.87304 0
M  V30 8044 O 754.67 1.39418 -1.37621 0
M  V30 8045 H 753.25 -0.34171 -0.664262 0
M  V30 8046 H 755.912 -1.45795 -1.29344 0
M  V30 8047 H 755.008 -1.34379 -2.81689 0
M  V30 8048 N 755.309 1.25446 -0.953992 0
M  V30 8049 C 756.272 2.24156 -0.478179 0
M  V30 8050 C 757.272 1.55278 0.417776 0
M  V30 8051 O 758.462 1.72866 0.215155 0
M  V30 8052 C 755.594 3.39495 0.309202 0
M  V30 8053 H 756.787 2.67764 -1.35064 0
M  V30 8054 H 754.34 1.37822 -0.737206 0
M  V30 8055 H 755.075 3.01307 1.19936 0
M  V30 8056 H 754.86 3.90679 -0.333562 0
M  V30 8057 H 756.35 4.12796 0.631594 0
M  V30 8058 N 756.787 0.722489 1.40064 0
M  V30 8059 C 758.035 0.264455 2.00362 0
M  V30 8060 C 758.356 -1.14847 1.57592 0
M  V30 8061 O 757.626 -1.77982 0.818477 0
M  V30 8062 H 756.206 0.0947846 0.740962 0
M  V30 8063 H 758.868 0.929659 1.71299 0
M  V30 8064 H 757.964 0.302977 3.10626 0
M  V30 8065 N 758.265 -1.50454 0.469181 0
M  V30 8066 C 759.542 -1.9504 -0.147955 0
M  V30 8067 C 759.922 -1.40946 -1.57154 0
M  V30 8068 O 759.27 -0.609663 -2.20217 0
M  V30 8069 C 759.48 -3.48875 -0.0932198 0
M  V30 8070 C 760.828 -4.23655 -0.283056 0
M  V30 8071 O 761.852 -3.55795 -0.169892 0
M  V30 8072 O 760.711 -5.44102 -0.511396 0
M  V30 8073 H 757.805 -0.819283 -0.11271 0
M  V30 8074 H 760.351 -1.6123 0.529446 0
M  V30 8075 H 759.123 -3.80791 0.900784 0
M  V30 8076 H 758.746 -3.89217 -0.812161 0
M  V30 8077 N 759.743 -0.201713 -1.56304 0
M  V30 8078 C 761.02 0.483273 -1.89536 0
M  V30 8079 C 761.4 1.79176 -1.11621 0
M  V30 8080 O 760.748 2.27445 -0.219339 0
M  V30 8081 C 760.958 0.695604 -3.41998 0
M  V30 8082 C 762.306 1.012 -4.12364 0
M  V30 8083 O 763.33 0.783094 -3.47485 0
M  V30 8084 O 762.189 1.44534 -5.27041 0
M  V30 8085 H 759.283 0.252801 -0.787414 0
M  V30 8086 H 761.829 -0.24242 -1.6796 0
M  V30 8087 H 760.601 -0.228165 -3.90634 0
M  V30 8088 H 760.224 1.47351 -3.69288 0
M  V30 8089 N 761.222 1.57436 0.0718424 0
M  V30 8090 C 762.633 1.75975 0.623678 0
M  V30 8091 C 762.984 0.827155 1.77912 0
M  V30 8092 O 762.109 0.0112425 2.16397 0
M  V30 8093 C 762.704 3.1911 1.13816 0
M  V30 8094 C 761.263 3.38994 1.63586 0
M  V30 8095 C 760.41 2.71684 0.555261 0
M  V30 8096 H 763.361 1.57948 -0.154328 0
M  V30 8097 H 763.382 3.23267 2.00696 0
M  V30 8098 H 762.894 3.86962 0.296998 0
M  V30 8099 H 760.995 2.76256 2.50027 0
M  V30 8100 H 761.108 4.47436 1.71283 0
M  V30 8101 H 759.472 2.34236 1.00029 0
M  V30 8102 H 760.255 3.42191 -0.275712 0
M  V30 8103 N 762.7 -0.34323 1.53817 0
M  V30 8104 C 763.946 -1.08504 1.71332 0
M  V30 8105 C 764.279 -1.88294 0.475285 0
M  V30 8106 O 763.554 -1.87205 -0.527688 0
M  V30 8107 C 763.837 -2.02597 2.97702 0
M  V30 8108 C 763.69 -1.26268 4.31713 0
M  V30 8109 C 765.009 -3.0241 3.19744 0
M  V30 8110 H 762.128 -0.393072 0.623429 0
M  V30 8111 H 764.77 -0.363579 1.86489 0
M  V30 8112 H 762.92 -2.64118 2.8491 0
M  V30 8113 H 764.592 -0.673594 4.56356 0
M  V30 8114 H 762.835 -0.564696 4.30109 0
M  V30 8115 H 763.506 -1.95253 5.16314 0
M  V30 8116 H 765.982 -2.51004 3.31868 0
M  V30 8117 H 764.858 -3.65449 4.09558 0
M  V30 8118 H 765.119 -3.73806 2.36054 0
M  V30 8119 N 764.178 -1.45556 -0.604258 0
M  V30 8120 C 765.11 -1.50494 -1.72871 0
M  V30 8121 C 766.123 -0.395368 -1.57926 0
M  V30 8122 O 767.312 -0.662603 -1.65746 0
M  V30 8123 C 764.412 -1.34874 -3.10906 0
M  V30 8124 C 763.585 -2.59564 -3.52058 0
M  V30 8125 C 762.644 -2.38453 -4.6907 0
M  V30 8126 O 761.67 -3.12082 -4.76018 0
M  V30 8127 N 762.872 -1.43229 -5.62553 0
M  V30 8128 H 765.637 -2.4744 -1.69097 0
M  V30 8129 H 763.198 -1.41338 -0.789636 0
M  V30 8130 H 765.19 -1.18556 -3.86945 0
M  V30 8131 H 763.76 -0.461913 -3.09168 0
M  V30 8132 H 762.98 -2.90974 -2.65946 0
M  V30 8133 H 764.268 -3.42441 -3.76313 0
M  V30 8134 H 763.666 -0.824714 -5.59656 0
M  V30 8135 H 762.223 -1.32882 -6.38111 0
M  V30 8136 N 765.656 0.84705 -1.32902 0
M  V30 8137 C 766.619 1.9378 -1.224 0
M  V30 8138 C 767.619 1.60144 -0.145108 0
M  V30 8139 O 768.809 1.69638 -0.396058 0
M  V30 8140 C 765.941 3.29234 -0.884174 0
M  V30 8141 H 767.134 2.04518 -2.19345 0
M  V30 8142 H 764.687 1.03816 -1.16842 0
M  V30 8143 H 765.422 3.24193 0.0831277 0
M  V30 8144 H 765.207 3.55026 -1.6643 0
M  V30 8145 H 766.697 4.09162 -0.835226 0
M  V30 8146 N 767.134 1.16236 1.06428 0
M  V30 8147 C 768.55 0.906983 1.31324 0
M  V30 8148 C 768.75 -0.440872 1.96618 0
M  V30 8149 O 767.806 -1.1807 2.23194 0
M  V30 8150 C 769.119 2.05501 2.19522 0
M  V30 8151 C 770.667 2.09061 2.32943 0
M  V30 8152 C 771.142 3.23214 3.24495 0
M  V30 8153 N 772.633 3.22922 3.32078 0
M  V30 8154 C 773.368 4.07889 4.03006 0
M  V30 8155 N 772.864 5.02941 4.76469 0
M  V30 8156 N 774.657 3.95881 3.99043 0
M  V30 8157 H 766.808 2.03015 0.624388 0
M  V30 8158 H 769.071 0.88576 0.337835 0
M  V30 8159 H 768.777 3.02847 1.78819 0
M  V30 8160 H 768.651 1.99538 3.201 0
M  V30 8161 H 771.038 1.12308 2.72893 0
M  V30 8162 H 771.119 2.19089 1.32037 0
M  V30 8163 H 770.763 4.20225 2.85261 0
M  V30 8164 H 770.693 3.10423 4.25377 0
M  V30 8165 H 773.184 2.54093 2.79724 0
M  V30 8166 H 773.497 5.64196 5.28112 0
M  V30 8167 H 771.842 5.06922 4.75453 0
M  V30 8168 H 775.033 3.20927 3.40769 0
M  V30 8169 H 775.206 4.62321 4.54052 0
M  V30 8170 N 768.612 -1.24939 0.960631 0
M  V30 8171 C 769.559 -2.25658 0.484459 0
M  V30 8172 C 770.529 -1.59422 -0.466242 0
M  V30 8173 O 771.714 -1.87015 -0.378169 0
M  V30 8174 C 768.854 -3.44359 -0.225958 0
M  V30 8175 C 767.967 -4.25214 0.762682 0
M  V30 8176 C 767.102 -5.31192 0.0290931 0
M  V30 8177 C 766.141 -6.03739 1.00827 0
M  V30 8178 N 765.278 -7.01437 0.305155 0
M  V30 8179 H 770.118 -2.65758 1.34821 0
M  V30 8180 H 767.655 -1.30648 0.675983 0
M  V30 8181 H 769.613 -4.12035 -0.654472 0
M  V30 8182 H 768.243 -3.05118 -1.05371 0
M  V30 8183 H 767.295 -3.57144 1.30966 0
M  V30 8184 H 768.607 -4.75406 1.50964 0
M  V30 8185 H 767.761 -6.04971 -0.457763 0
M  V30 8186 H 766.5 -4.81889 -0.750614 0
M  V30 8187 H 765.505 -5.2877 1.50607 0
M  V30 8188 H 766.73 -6.55131 1.7883 0
M  V30 8189 H 764.676 -6.54415 -0.455704 0
M  V30 8190 H 764.593 -7.49475 0.991104 0
M  V30 8191 H 765.861 -7.79336 -0.159966 0
M  V30 8192 N 770.09 -0.729906 -1.39679 0
M  V30 8193 C 771.339 -0.272534 -1.9985 0
M  V30 8194 C 771.652 1.14519 -1.58571 0
M  V30 8195 O 772.858 1.70182 -2.11543 0
M  V30 8196 C 771.314 -0.436322 -3.57245 0
M  V30 8197 C 770.922 -1.86161 -4.0749 0
M  V30 8198 C 772.666 -0.0404679 -4.24481 0
M  V30 8199 C 770.573 -1.97522 -5.5744 0
M  V30 8200 H 769.503 -0.0981428 -0.747585 0
M  V30 8201 H 772.154 -0.903056 -1.59741 0
M  V30 8202 H 770.536 0.263015 -3.95126 0
M  V30 8203 H 771.71 -2.59248 -3.80955 0
M  V30 8204 H 770.025 -2.21021 -3.529 0
M  V30 8205 H 772.622 -0.104437 -5.34598 0
M  V30 8206 H 772.965 1.00357 -4.04023 0
M  V30 8207 H 773.498 -0.690774 -3.91757 0
M  V30 8208 H 770.237 -3.00096 -5.82771 0
M  V30 8209 H 769.757 -1.28864 -5.85794 0
M  V30 8210 H 771.436 -1.754 -6.22771 0
M  V30 8211 N 771.568 1.50203 -0.477153 0
M  V30 8212 C 772.817 2.01551 0.0774548 0
M  V30 8213 C 773.13 1.36359 1.40234 0
M  V30 8214 O 774.336 1.78898 2.04225 0
M  V30 8215 C 772.792 3.59406 0.188539 0
M  V30 8216 C 772.4 4.3356 -1.12828 0
M  V30 8217 C 774.144 4.18776 0.694782 0
M  V30 8218 C 772.051 5.83213 -0.98066 0
M  V30 8219 H 770.981 0.75329 0.0327212 0
M  V30 8220 H 773.632 1.72959 -0.612969 0
M  V30 8221 H 772.014 3.84611 0.942881 0
M  V30 8222 H 773.188 4.20074 -1.89405 0
M  V30 8223 H 771.503 3.85827 -1.5661 0
M  V30 8224 H 774.1 5.28338 0.822356 0
M  V30 8225 H 774.443 3.80557 1.68766 0
M  V30 8226 H 774.976 3.978 -0.00234519 0
M  V30 8227 H 771.715 6.25914 -1.94709 0
M  V30 8228 H 771.235 5.99256 -0.255375 0
M  V30 8229 H 772.914 6.4373 -0.649717 0
M  V30 8230 N 773.046 0.209999 1.56195 0
M  V30 8231 C 773.993 -0.704854 2.19774 0
M  V30 8232 C 774.963 -1.19886 1.14964 0
M  V30 8233 O 776.148 -1.26005 1.43274 0
M  V30 8234 C 773.288 -1.91241 2.87265 0
M  V30 8235 C 772.401 -1.45838 4.06639 0
M  V30 8236 C 771.536 -2.6226 4.61945 0
M  V30 8237 C 770.575 -2.13537 5.73645 0
M  V30 8238 N 769.712 -3.2319 6.23292 0
M  V30 8239 H 774.552 -0.155944 2.97592 0
M  V30 8240 H 772.089 -0.0652235 1.46955 0
M  V30 8241 H 774.047 -2.62123 3.24573 0
M  V30 8242 H 772.677 -2.43439 2.11985 0
M  V30 8243 H 771.729 -0.644897 3.74894 0
M  V30 8244 H 773.041 -1.06103 4.87384 0
M  V30 8245 H 772.195 -3.41243 5.01636 0
M  V30 8246 H 770.934 -3.05278 3.80338 0
M  V30 8247 H 769.939 -1.33013 5.33468 0
M  V30 8248 H 771.164 -1.71533 6.57079 0
M  V30 8249 H 769.11 -3.65711 5.44602 0
M  V30 8250 H 769.027 -2.8767 6.99129 0
M  V30 8251 H 770.295 -4.02342 6.67639 0
M  V30 8252 N 774.524 -1.57472 -0.0634922 0
M  V30 8253 C 775.456 -2.00999 -1.10145 0
M  V30 8254 C 776.469 -0.917219 -1.34503 0
M  V30 8255 O 777.658 -1.19501 -1.32596 0
M  V30 8256 C 774.758 -2.34089 -2.45063 0
M  V30 8257 C 773.931 -3.65317 -2.40546 0
M  V30 8258 C 772.99 -3.85982 -3.57637 0
M  V30 8259 O 772.016 -4.5747 -3.38689 0
M  V30 8260 N 773.218 -3.28971 -4.78287 0
M  V30 8261 H 775.983 -2.90656 -0.730714 0
M  V30 8262 H 773.544 -1.59926 -0.252017 0
M  V30 8263 H 775.536 -2.4508 -3.22053 0
M  V30 8264 H 774.106 -1.50279 -2.74107 0
M  V30 8265 H 773.326 -3.65003 -1.48885 0
M  V30 8266 H 774.614 -4.51468 -2.34636 0
M  V30 8267 H 774.012 -2.70962 -4.96584 0
M  V30 8268 H 772.569 -3.45398 -5.5276 0
M  V30 8269 N 776.003 0.335068 -1.53997 0
M  V30 8270 C 777.414 0.910191 -1.6301 0
M  V30 8271 C 777.765 1.89271 -0.516809 0
M  V30 8272 O 776.89 2.13516 0.352123 0
M  V30 8273 C 777.485 1.65761 -2.9548 0
M  V30 8274 C 776.044 2.18163 -3.06728 0
M  V30 8275 C 775.191 1.00338 -2.5851 0
M  V30 8276 H 778.142 0.112965 -1.58297 0
M  V30 8277 H 778.163 2.52107 -2.84995 0
M  V30 8278 H 777.675 0.94227 -3.76488 0
M  V30 8279 H 775.776 2.92847 -2.30372 0
M  V30 8280 H 775.889 2.43952 -4.1234 0
M  V30 8281 H 774.253 1.37925 -2.14124 0
M  V30 8282 H 775.036 0.30254 -3.41964 0
M  V30 8283 N 777.481 1.45874 0.596531 0
M  V30 8284 C 778.413 1.51408 1.7207 0
M  V30 8285 C 779.426 0.403738 1.57714 0
M  V30 8286 O 780.615 0.671384 1.65393 0
M  V30 8287 C 777.715 1.3652 3.10186 0
M  V30 8288 C 776.888 2.61428 3.50677 0
M  V30 8289 C 775.947 2.40937 4.67799 0
M  V30 8290 O 774.973 3.14602 4.74357 0
M  V30 8291 N 776.175 1.4621 5.61785 0
M  V30 8292 H 778.94 2.48333 1.67782 0
M  V30 8293 H 776.501 1.41755 0.782129 0
M  V30 8294 H 778.493 1.20606 3.86311 0
M  V30 8295 H 777.063 0.478302 3.08919 0
M  V30 8296 H 776.283 2.92381 2.644 0
M  V30 8297 H 777.571 3.44432 3.74491 0
M  V30 8298 H 776.969 0.854382 5.59211 0
M  V30 8299 H 775.526 1.36264 6.37397 0
M  V30 8300 N 778.959 -0.83999 1.33349 0
M  V30 8301 C 780.375 -1.13049 1.12659 0
M  V30 8302 C 780.575 -2.01328 -0.0832613 0
M  V30 8303 O 779.631 -2.40669 -0.763856 0
M  V30 8304 C 780.944 -1.79366 2.41347 0
M  V30 8305 C 782.492 -1.91937 2.47243 0
M  V30 8306 C 782.967 -2.6167 3.75889 0
M  V30 8307 N 784.458 -2.69184 3.76954 0
M  V30 8308 C 785.193 -3.23827 4.73206 0
M  V30 8309 N 784.689 -3.79166 5.79832 0
M  V30 8310 N 786.482 -3.22068 4.60683 0
M  V30 8311 H 778.633 -0.252432 2.10895 0
M  V30 8312 H 780.896 -0.174501 0.931801 0
M  V30 8313 H 780.602 -1.2196 3.29877 0
M  V30 8314 H 780.476 -2.79396 2.53412 0
M  V30 8315 H 782.863 -2.48498 1.59163 0
M  V30 8316 H 782.944 -0.908604 2.39119 0
M  V30 8317 H 782.588 -2.05769 4.64351 0
M  V30 8318 H 782.518 -3.63217 3.81289 0
M  V30 8319 H 785.009 -2.2994 2.99893 0
M  V30 8320 H 785.322 -4.19061 6.49313 0
M  V30 8321 H 783.667 -3.77457 5.83568 0
M  V30 8322 H 786.858 -2.78092 3.7654 0
M  V30 8323 H 787.031 -3.64351 5.35866 0
M  V30 8324 N 780.437 -1.16799 -1.0581 0
M  V30 8325 C 781.683 -0.953935 -1.78963 0
M  V30 8326 C 782.016 0.516638 -1.87202 0
M  V30 8327 O 781.291 1.38338 -1.36721 0
M  V30 8328 C 781.574 -1.58808 -3.23191 0
M  V30 8329 C 781.427 -3.13032 -3.23003 0
M  V30 8330 C 782.746 -1.2868 -4.20867 0
M  V30 8331 H 779.865 -0.347972 -0.64968 0
M  V30 8332 H 782.507 -1.44204 -1.23715 0
M  V30 8333 H 780.657 -1.17303 -3.70368 0
M  V30 8334 H 782.329 -3.63553 -2.83949 0
M  V30 8335 H 780.572 -3.46108 -2.61518 0
M  V30 8336 H 781.243 -3.52527 -4.24769 0
M  V30 8337 H 783.719 -1.6461 -3.82155 0
M  V30 8338 H 782.595 -1.75645 -5.20038 0
M  V30 8339 H 782.856 -0.206491 -4.41618 0
M  V30 8340 N 781.915 1.24427 -0.967243 0
M  V30 8341 C 783.163 1.92107 -0.627638 0
M  V30 8342 C 783.484 1.75991 0.83978 0
M  V30 8343 O 782.754 1.13118 1.59941 0
M  V30 8344 H 781.334 0.710986 -0.229145 0
M  V30 8345 H 783.996 1.51331 -1.22821 0
M  V30 8346 H 783.092 2.99791 -0.867844 0
M  V30 8347 N 783.393 0.737304 1.3929 0
M  V30 8348 C 784.356 0.10731 2.28949 0
M  V30 8349 C 785.356 -0.664716 1.46418 0
M  V30 8350 O 786.546 -0.493392 1.67067 0
M  V30 8351 C 783.678 -0.857145 3.29948 0
M  V30 8352 H 784.871 0.89725 2.86163 0
M  V30 8353 H 782.424 0.503279 1.47976 0
M  V30 8354 H 783.159 -1.67336 2.77794 0
M  V30 8355 H 782.944 -0.306167 3.90903 0
M  V30 8356 H 784.434 -1.29444 3.97031 0
M  V30 8357 N 784.871 -1.49948 0.485112 0
M  V30 8358 C 786.119 -2.01996 -0.0648775 0
M  V30 8359 C 786.44 -1.36819 -1.38945 0
M  V30 8360 O 785.71 -0.518163 -1.88923 0
M  V30 8361 H 784.29 -0.746513 -0.0269662 0
M  V30 8362 H 786.952 -1.84136 0.638733 0
M  V30 8363 H 786.048 -3.11418 -0.20617 0
M  V30 8364 N 786.349 -0.21828 -1.56081 0
M  V30 8365 C 787.76 0.290166 -1.84431 0
M  V30 8366 C 788.111 1.59712 -1.13958 0
M  V30 8367 O 787.236 2.12516 -0.40815 0
M  V30 8368 C 787.831 0.53325 -3.34577 0
M  V30 8369 C 786.39 0.986011 -3.63256 0
M  V30 8370 C 785.537 0.0472798 -2.7726 0
M  V30 8371 H 788.488 -0.441548 -1.52434 0
M  V30 8372 H 788.509 1.37967 -3.54606 0
M  V30 8373 H 788.021 -0.418137 -3.85841 0
M  V30 8374 H 786.122 1.95087 -3.17446 0
M  V30 8375 H 786.235 0.862684 -4.71269 0
M  V30 8376 H 784.599 0.553471 -2.48614 0
M  V30 8377 H 785.382 -0.898966 -3.31321 0
M  V30 8378 N 787.827 1.57504 0.0551401 0
M  V30 8379 C 788.76 2.00155 1.09604 0
M  V30 8380 C 789.738 0.881274 1.36647 0
M  V30 8381 O 790.922 1.14498 1.49742 0
M  V30 8382 C 788.049 2.35246 2.43674 0
M  V30 8383 C 787.095 3.57452 2.32659 0
M  V30 8384 S 787.928 5.07639 1.7048 0
M  V30 8385 C 789.084 5.45947 3.06093 0
M  V30 8386 H 789.317 2.88131 0.732635 0
M  V30 8387 H 786.85 1.52122 0.264252 0
M  V30 8388 H 788.808 2.56136 3.20787 0
M  V30 8389 H 787.469 1.47769 2.7717 0
M  V30 8390 H 786.662 3.79576 3.31569 0
M  V30 8391 H 786.264 3.36279 1.63685 0
M  V30 8392 H 788.556 5.45036 4.0242 0
M  V30 8393 H 789.499 6.4656 2.88732 0
M  V30 8394 H 789.907 4.73419 3.07466 0
M  V30 8395 N 789.305 -0.326896 1.54172 0
M  V30 8396 C 790.252 -1.40216 1.83325 0
M  V30 8397 C 791.222 -1.51538 0.680107 0
M  V30 8398 O 792.407 -1.66811 0.926206 0
M  V30 8399 C 789.547 -2.76626 2.0633 0
M  V30 8400 C 788.66 -2.73963 3.34019 0
M  V30 8401 C 787.795 -4.02198 3.47002 0
M  V30 8402 C 786.834 -3.93828 4.68578 0
M  V30 8403 N 785.971 -5.13787 4.78506 0
M  V30 8404 H 790.811 -1.14656 2.7506 0
M  V30 8405 H 788.348 -0.555089 1.36225 0
M  V30 8406 H 790.306 -3.55922 2.17659 0
M  V30 8407 H 788.936 -3.00503 1.1789 0
M  V30 8408 H 787.988 -1.86677 3.31445 0
M  V30 8409 H 789.3 -2.6366 4.2342 0
M  V30 8410 H 788.454 -4.89923 3.57855 0
M  V30 8411 H 787.193 -4.15302 2.55687 0
M  V30 8412 H 786.198 -3.04487 4.57786 0
M  V30 8413 H 787.423 -3.82292 5.61275 0
M  V30 8414 H 785.369 -5.27403 3.90105 0
M  V30 8415 H 785.286 -5.05807 5.61868 0
M  V30 8416 H 786.554 -6.03236 4.93686 0
M  V30 8417 N 790.784 -1.46188 -0.588786 0
M  V30 8418 C 792.2 -1.31009 -0.911524 0
M  V30 8419 C 792.4 -0.277017 -1.99587 0
M  V30 8420 O 791.456 0.322532 -2.50432 0
M  V30 8421 C 792.769 -2.69459 -1.33463 0
M  V30 8422 C 794.317 -2.77502 -1.44782 0
M  V30 8423 C 794.792 -4.1652 -1.90461 0
M  V30 8424 N 796.283 -4.18907 -1.97665 0
M  V30 8425 C 797.018 -5.23359 -2.34271 0
M  V30 8426 N 796.514 -6.38143 -2.69714 0
M  V30 8427 N 798.307 -5.10723 -2.34774 0
M  V30 8428 H 790.458 -2.12016 0.127614 0
M  V30 8429 H 792.721 -0.947984 -0.00557599 0
M  V30 8430 H 792.427 -3.46336 -0.611929 0
M  V30 8431 H 792.301 -2.99165 -2.2974 0
M  V30 8432 H 794.688 -2.00917 -2.1614 0
M  V30 8433 H 794.769 -2.51488 -0.467724 0
M  V30 8434 H 794.413 -4.93597 -1.19684 0
M  V30 8435 H 794.343 -4.39937 -2.89418 0
M  V30 8436 H 796.834 -3.36084 -1.72789 0
M  V30 8437 H 797.147 -7.13624 -2.96582 0
M  V30 8438 H 795.492 -6.41514 -2.67366 0
M  V30 8439 H 798.683 -4.20088 -2.06503 0
M  V30 8440 H 798.856 -5.9224 -2.62975 0
M  V30 8441 N 792.262 0.832906 -1.33792 0
M  V30 8442 C 793.172 1.97514 -1.26592 0
M  V30 8443 C 794.188 1.73114 -0.175391 0
M  V30 8444 O 795.364 1.97387 -0.400062 0
M  V30 8445 C 792.429 3.31625 -1.01121 0
M  V30 8446 C 791.49 3.69101 -2.19233 0
M  V30 8447 C 790.723 4.96813 -1.94968 0
M  V30 8448 O 790.946 5.63208 -0.902955 0
M  V30 8449 O 789.88 5.31932 -2.8166 0
M  V30 8450 H 793.706 2.0653 -2.22664 0
M  V30 8451 H 791.291 0.966826 -1.13898 0
M  V30 8452 H 793.173 4.11968 -0.886571 0
M  V30 8453 H 791.848 3.23599 -0.080822 0
M  V30 8454 H 790.755 2.89243 -2.37253 0
M  V30 8455 H 792.088 3.818 -3.10628 0
M  V30 8456 N 793.74 1.17359 1.05189 0
M  V30 8457 C 794.688 0.886527 2.15043 0
M  V30 8458 C 795.682 -0.148834 1.68745 0
M  V30 8459 O 796.888 -0.00175123 1.8 0
M  V30 8460 H 793.263 0.269147 0.702185 0
M  V30 8461 H 795.234 1.82016 2.36459 0
M  V30 8462 C 793.983 0.416333 3.45198 0
M  V30 8463 H 793.306 1.20449 3.81225 0
M  V30 8464 H 794.746 0.254362 4.23236 0
M  V30 8465 C 793.205 -0.866016 3.25579 0
M  V30 8466 O 793.735 -1.9328 3.52144 0
M  V30 8467 N 791.941 -0.814179 2.78961 0
M  V30 8468 H 791.488 0.0541618 2.57543 0
M  V30 8469 H 791.446 -1.67264 2.66214 0
M  V30 8470 N 795.218 -1.23913 0.973828 0
M  V30 8471 C 796.466 -1.91771 0.637817 0
M  V30 8472 C 796.787 -1.76434 -0.830435 0
M  V30 8473 O 796.057 -1.13965 -1.59339 0
M  V30 8474 H 794.637 -0.709761 0.232912 0
M  V30 8475 H 797.299 -1.50677 1.23622 0
M  V30 8476 H 796.395 -2.99327 0.883731 0
M  V30 8477 N 796.696 -0.74468 -1.38897 0
M  V30 8478 C 797.626 -0.126355 -2.33158 0
M  V30 8479 C 798.607 0.713517 -1.54412 0
M  V30 8480 O 799.792 0.656523 -1.82766 0
M  V30 8481 C 796.922 0.774375 -3.38557 0
M  V30 8482 C 795.876 0.0379214 -4.27983 0
M  V30 8483 C 795.202 1.05631 -5.24162 0
M  V30 8484 C 796.502 -1.12523 -5.10035 0
M  V30 8485 H 798.196 -0.913744 -2.85116 0
M  V30 8486 H 795.742 -0.440847 -1.37086 0
M  V30 8487 H 797.695 1.21655 -4.03458 0
M  V30 8488 H 796.419 1.59399 -2.85061 0
M  V30 8489 H 795.078 -0.384733 -3.64576 0
M  V30 8490 H 794.726 1.86975 -4.66958 0
M  V30 8491 H 794.426 0.568261 -5.84846 0
M  V30 8492 H 795.95 1.49799 -5.9194 0
M  V30 8493 H 797.364 -0.761037 -5.68226 0
M  V30 8494 H 795.761 -1.54355 -5.79909 0
M  V30 8495 H 796.831 -1.94237 -4.44297 0
M  V30 8496 N 798.174 1.49689 -0.493057 0
M  V30 8497 C 799.124 2.25901 0.308682 0
M  V30 8498 C 800.108 1.30408 0.94247 0
M  V30 8499 O 801.3 1.55179 0.851384 0
M  V30 8500 C 798.429 3.14463 1.37725 0
M  V30 8501 C 797.515 4.17414 0.7501 0
M  V30 8502 N 797.906 5.05599 -0.142597 0
M  V30 8503 C 796.204 4.34377 1.01159 0
M  V30 8504 C 796.905 5.7954 -0.500782 0
M  V30 8505 N 795.881 5.43446 0.129386 0
M  V30 8506 H 799.683 2.91451 -0.378652 0
M  V30 8507 H 797.197 1.59441 -0.308614 0
M  V30 8508 H 799.194 3.67687 1.965 0
M  V30 8509 H 797.854 2.50464 2.06635 0
M  V30 8510 H 798.865 5.15354 -0.512894 0
M  V30 8511 H 795.542 3.81588 1.69402 0
M  V30 8512 H 796.932 6.60534 -1.23063 0
M  V30 8513 N 799.652 0.226554 1.55963 0
M  V30 8514 C 800.582 -0.676079 2.23498 0
M  V30 8515 C 801.563 -1.19718 1.20837 0
M  V30 8516 O 802.748 -1.24027 1.49436 0
M  V30 8517 C 799.878 -1.88217 2.91876 0
M  V30 8518 C 798.832 -1.4947 4.01052 0
M  V30 8519 C 798.158 -2.77997 4.56751 0
M  V30 8520 C 799.458 -0.680951 5.17842 0
M  V30 8521 H 801.152 -0.112989 2.99187 0
M  V30 8522 H 798.698 -0.0529046 1.43903 0
M  V30 8523 H 800.651 -2.51911 3.37815 0
M  V30 8524 H 799.375 -2.47031 2.13643 0
M  V30 8525 H 798.034 -0.881199 3.55852 0
M  V30 8526 H 797.682 -3.34966 3.75243 0
M  V30 8527 H 797.382 -2.52803 5.30438 0
M  V30 8528 H 798.906 -3.42625 5.05411 0
M  V30 8529 H 800.32 -1.22171 5.60131 0
M  V30 8530 H 798.717 -0.525898 5.97791 0
M  V30 8531 H 799.787 0.311346 4.83899 0
M  V30 8532 N 801.13 -1.57531 -0.0467866 0
M  V30 8533 C 802.04 -2.08768 -1.07018 0
M  V30 8534 C 803.056 -1.02245 -1.40791 0
M  V30 8535 O 804.232 -1.33873 -1.50466 0
M  V30 8536 C 801.297 -2.54221 -2.35738 0
M  V30 8537 C 800.358 -3.75152 -2.08709 0
M  V30 8538 C 799.591 -4.18428 -3.31291 0
M  V30 8539 O 799.814 -3.61365 -4.4133 0
M  V30 8540 O 798.748 -5.11018 -3.18032 0
M  V30 8541 H 802.574 -2.96334 -0.664812 0
M  V30 8542 H 800.159 -1.47074 -0.262605 0
M  V30 8543 H 802.041 -2.83866 -3.11445 0
M  V30 8544 H 800.716 -1.69774 -2.75605 0
M  V30 8545 H 799.623 -3.50553 -1.30627 0
M  V30 8546 H 800.956 -4.60528 -1.73708 0
M  V30 8547 N 802.608 0.318715 -1.54344 0
M  V30 8548 C 803.836 1.0755 -1.7675 0
M  V30 8549 C 804.251 1.81543 -0.518422 0
M  V30 8550 O 803.608 1.75198 0.511078 0
M  V30 8551 C 803.659 2.06983 -2.96378 0
M  V30 8552 O 803.38 1.35995 -4.16458 0
M  V30 8553 C 804.881 2.94841 -3.31034 0
M  V30 8554 H 802.101 0.319711 -0.589937 0
M  V30 8555 H 804.645 0.363369 -2.01246 0
M  V30 8556 H 802.8 2.73724 -2.74142 0
M  V30 8557 H 803.214 2.02623 -4.83781 0
M  V30 8558 H 804.688 3.60496 -4.18027 0
M  V30 8559 H 805.165 3.62199 -2.48412 0
M  V30 8560 H 805.771 2.33656 -3.55366 0
M  V30 8561 N 804.086 1.46499 0.581025 0
M  V30 8562 C 805.016 1.60052 1.70017 0
M  V30 8563 C 805.997 0.450788 1.64018 0
M  V30 8564 O 807.182 0.677237 1.82009 0
M  V30 8565 C 804.312 1.5921 3.08658 0
M  V30 8566 C 803.266 2.73169 3.29488 0
M  V30 8567 C 802.592 2.57389 4.68674 0
M  V30 8568 C 803.892 4.14978 3.1716 0
M  V30 8569 H 805.586 2.53735 1.5893 0
M  V30 8570 H 803.132 1.22113 0.763173 0
M  V30 8571 H 805.085 1.67285 3.86773 0
M  V30 8572 H 803.809 0.620718 3.20647 0
M  V30 8573 H 802.468 2.64566 2.53773 0
M  V30 8574 H 802.116 1.58331 4.77431 0
M  V30 8575 H 801.816 3.33826 4.83564 0
M  V30 8576 H 803.34 2.67358 5.48956 0
M  V30 8577 H 804.754 4.24684 3.85119 0
M  V30 8578 H 803.151 4.92016 3.4357 0
M  V30 8579 H 804.221 4.35016 2.14218 0
M  V30 8580 N 805.565 -0.825799 1.34232 0
M  V30 8581 C 806.495 -1.95151 1.28212 0
M  V30 8582 C 807.476 -1.69345 0.160123 0
M  V30 8583 O 808.661 -1.90983 0.352019 0
M  V30 8584 C 805.791 -3.31554 1.03388 0
M  V30 8585 C 804.745 -3.71793 2.12023 0
M  V30 8586 C 804.071 -5.06147 1.72392 0
M  V30 8587 C 805.371 -3.84193 3.53826 0
M  V30 8588 H 807.065 -2.00445 2.22401 0
M  V30 8589 H 804.611 -0.962996 1.07063 0
M  V30 8590 H 806.564 -4.09889 0.978225 0
M  V30 8591 H 805.288 -3.26551 0.0564142 0
M  V30 8592 H 803.947 -2.95731 2.16654 0
M  V30 8593 H 803.595 -4.97628 0.733137 0
M  V30 8594 H 803.295 -5.34041 2.451 0
M  V30 8595 H 804.819 -5.86943 1.68317 0
M  V30 8596 H 806.233 -4.52806 3.51624 0
M  V30 8597 H 804.63 -4.23538 4.2513 0
M  V30 8598 H 805.7 -2.86272 3.91377 0
M  V30 8599 N 807.043 -1.17915 -1.04565 0
M  V30 8600 C 808.32 -0.881187 -1.74627 0
M  V30 8601 C 808.7 0.617123 -2.01878 0
M  V30 8602 O 808.048 1.57032 -1.65991 0
M  V30 8603 C 808.258 -1.72299 -3.03503 0
M  V30 8604 C 809.606 -1.94688 -3.77335 0
M  V30 8605 O 810.63 -1.6931 -3.13389 0
M  V30 8606 O 809.489 -2.37379 -4.92253 0
M  V30 8607 H 806.583 -0.326864 -0.759664 0
M  V30 8608 H 809.129 -1.28642 -1.10676 0
M  V30 8609 H 807.901 -2.73891 -2.79462 0
M  V30 8610 H 807.524 -1.31593 -3.75192 0
M  V30 8611 N 808.521 1.23394 -0.980386 0
M  V30 8612 C 809.932 1.73631 -0.686239 0
M  V30 8613 C 810.283 1.79259 0.797541 0
M  V30 8614 O 809.408 1.43046 1.62379 0
M  V30 8615 C 810.003 3.15332 -1.239 0
M  V30 8616 C 808.562 3.63024 -0.994494 0
M  V30 8617 C 807.709 2.41279 -1.36673 0
M  V30 8618 H 810.66 1.08918 -1.15423 0
M  V30 8619 H 810.681 3.75556 -0.611414 0
M  V30 8620 H 810.193 3.11204 -2.31892 0
M  V30 8621 H 808.294 3.72535 0.0693492 0
M  V30 8622 H 808.407 4.49825 -1.64906 0
M  V30 8623 H 806.771 2.42295 -0.785195 0
M  V30 8624 H 807.554 2.39822 -2.45642 0
M  V30 8625 N 809.999 0.752036 1.385 0
M  V30 8626 C 811.245 0.307958 2.00448 0
M  V30 8627 C 811.578 -1.10702 1.59558 0
M  V30 8628 O 810.853 -1.75788 0.832391 0
M  V30 8629 C 811.136 0.429092 3.57534 0
M  V30 8630 C 810.989 1.88507 4.08393 0
M  V30 8631 C 812.308 -0.178442 4.39738 0
M  V30 8632 H 809.427 0.113373 0.728228 0
M  V30 8633 H 812.069 0.951389 1.64465 0
M  V30 8634 H 810.219 -0.118695 3.88319 0
M  V30 8635 H 811.891 2.49104 3.88259 0
M  V30 8636 H 810.134 2.40066 3.61318 0
M  V30 8637 H 810.805 1.92099 5.17496 0
M  V30 8638 H 813.281 0.28872 4.15097 0
M  V30 8639 H 812.157 -0.0634349 5.48863 0
M  V30 8640 H 812.418 -1.26655 4.23569 0
M  V30 8641 N 811.477 -1.49425 0.500989 0
M  V30 8642 C 812.754 -1.9531 -0.106551 0
M  V30 8643 C 813.134 -1.44248 -1.54129 0
M  V30 8644 O 812.482 -0.656237 -2.18874 0
M  V30 8645 C 812.692 -3.48995 -0.0191972 0
M  V30 8646 C 814.04 -4.24161 -0.193129 0
M  V30 8647 O 815.064 -3.56075 -0.0943843 0
M  V30 8648 O 813.923 -5.45064 -0.395869 0
M  V30 8649 H 811.017 -0.82149 -0.0953068 0
M  V30 8650 H 813.563 -1.6007 0.563526 0
M  V30 8651 H 812.335 -3.78794 0.981353 0
M  V30 8652 H 811.958 -3.90852 -0.72942 0
M  V30 8653 N 812.955 -0.234822 -1.55841 0
M  V30 8654 C 814.232 0.442961 -1.90518 0
M  V30 8655 C 814.612 1.76768 -1.15397 0
M  V30 8656 O 813.96 2.26928 -0.267534 0
M  V30 8657 C 814.17 0.622905 -3.43396 0
M  V30 8658 C 815.518 0.9243 -4.14417 0
M  V30 8659 O 816.542 0.709211 -3.49068 0
M  V30 8660 O 815.401 1.33323 -5.29988 0
M  V30 8661 H 812.495 0.236042 -0.792599 0
M  V30 8662 H 815.041 -0.277992 -1.67408 0
M  V30 8663 H 813.813 -0.310973 -3.90062 0
M  V30 8664 H 813.436 1.39485 -3.7233 0
M  V30 8665 N 814.433 1.57553 0.0384317 0
M  V30 8666 C 815.673 1.90687 0.736069 0
M  V30 8667 C 816.037 0.832381 1.73019 0
M  V30 8668 O 817.238 1.04777 2.47538 0
M  V30 8669 C 815.509 3.28994 1.39635 0
M  V30 8670 S 817.068 3.83944 2.12444 0
M  V30 8671 H 813.886 0.667799 0.244059 0
M  V30 8672 H 816.488 1.95498 -0.00901643 0
M  V30 8673 H 815.192 4.05067 0.659465 0
M  V30 8674 H 814.723 3.27463 2.18018 0
M  V30 8675 H 816.738 3.61916 3.39457 0
M  V30 8676 N 815.911 -0.310526 1.54511 0
M  V30 8677 C 817.158 -1.04691 1.73338 0
M  V30 8678 C 817.486 -1.87584 0.514038 0
M  V30 8679 O 816.741 -1.89096 -0.504119 0
M  V30 8680 C 817.04 -1.98942 2.96912 0
M  V30 8681 C 816.706 -1.321 4.31115 0
M  V30 8682 C 815.368 -1.13603 4.67598 0
M  V30 8683 C 817.72 -0.842362 5.14348 0
M  V30 8684 C 815.048 -0.459102 5.84901 0
M  V30 8685 C 817.4 -0.179202 6.32346 0
M  V30 8686 C 816.064 0.0178111 6.67498 0
M  V30 8687 H 815.334 -0.38309 0.634289 0
M  V30 8688 H 817.981 -0.322723 1.88761 0
M  V30 8689 H 816.286 -2.77856 2.76231 0
M  V30 8690 H 817.983 -2.55972 3.08674 0
M  V30 8691 H 814.573 -1.47502 4.02419 0
M  V30 8692 H 818.757 -0.973013 4.86668 0
M  V30 8693 H 814.013 -0.295385 6.10686 0
M  V30 8694 H 818.187 0.199619 6.96114 0
M  V30 8695 H 815.814 0.544356 7.58249 0
M  V30 8696 N 817.389 -1.46805 -0.573248 0
M  V30 8697 C 818.614 -1.56433 -1.36175 0
M  V30 8698 C 819.039 -0.209336 -1.86932 0
M  V30 8699 O 818.397 0.812146 -1.62092 0
M  V30 8700 C 818.445 -2.58055 -2.51873 0
M  V30 8701 O 817.549 -2.12214 -3.53609 0
M  V30 8702 H 816.89 -0.526068 -0.405153 0
M  V30 8703 H 819.42 -1.92456 -0.694405 0
M  V30 8704 H 819.43 -2.77966 -2.98662 0
M  V30 8705 H 818.105 -3.56448 -2.14284 0
M  V30 8706 H 816.682 -2.02333 -3.13234 0
M  V30 8707 N 818.867 0.818669 -1.34668 0
M  V30 8708 C 819.777 1.9616 -1.2868 0
M  V30 8709 C 820.793 1.72918 -0.193742 0
M  V30 8710 O 821.969 1.96951 -0.420975 0
M  V30 8711 C 819.034 3.30534 -1.04633 0
M  V30 8712 C 818.095 3.66755 -2.23136 0
M  V30 8713 C 817.328 4.94717 -2.00227 0
M  V30 8714 O 817.551 5.62218 -0.96264 0
M  V30 8715 O 816.485 5.28915 -2.87286 0
M  V30 8716 H 820.311 2.04157 -2.24842 0
M  V30 8717 H 817.896 0.954691 -1.14917 0
M  V30 8718 H 819.778 4.11005 -0.930216 0
M  V30 8719 H 818.453 3.23495 -0.115139 0
M  V30 8720 H 817.36 2.8671 -2.40308 0
M  V30 8721 H 818.693 3.78484 -3.1466 0
M  V30 8722 N 820.346 1.18468 1.03938 0
M  V30 8723 C 821.256 0.927889 2.1547 0
M  V30 8724 C 822.272 -0.108447 1.73662 0
M  V30 8725 O 823.448 0.0737636 2.01265 0
M  V30 8726 C 820.513 0.458494 3.43655 0
M  V30 8727 C 819.574 1.56295 3.99838 0
M  V30 8728 C 818.807 1.11586 5.21904 0
M  V30 8729 O 819.03 -0.0249057 5.70395 0
M  V30 8730 O 817.964 1.91412 5.70653 0
M  V30 8731 H 821.79 1.86116 2.39989 0
M  V30 8732 H 819.375 0.966607 1.13917 0
M  V30 8733 H 821.257 0.204861 4.20902 0
M  V30 8734 H 819.932 -0.446464 3.20606 0
M  V30 8735 H 818.839 1.87061 3.23974 0
M  V30 8736 H 820.172 2.44408 4.2723 0
M  V30 8737 N 821.824 -1.22873 0.986916 0
M  V30 8738 C 822.787 -2.2281 0.537442 0
M  V30 8739 C 823.787 -1.56331 -0.37646 0
M  V30 8740 O 824.977 -1.73376 -0.169247 0
M  V30 8741 C 822.109 -3.40195 -0.219082 0
M  V30 8742 H 823.302 -2.64089 1.42116 0
M  V30 8743 H 820.855 -1.35819 0.773488 0
M  V30 8744 H 821.59 -3.04381 -1.11905 0
M  V30 8745 H 821.375 -3.89657 0.437026 0
M  V30 8746 H 822.865 -4.14326 -0.521926 0
M  V30 8747 N 823.302 -0.75937 -1.38099 0
M  V30 8748 C 824.713 -0.385078 -1.82686 0
M  V30 8749 C 825.064 1.0871 -1.6333 0
M  V30 8750 O 824.189 1.84084 -1.13762 0
M  V30 8751 C 824.784 -0.692161 -3.31654 0
M  V30 8752 C 823.343 -0.371077 -3.74566 0
M  V30 8753 C 822.49 -0.942375 -2.60796 0
M  V30 8754 H 825.441 -0.955048 -1.26746 0
M  V30 8755 H 825.462 0.0276001 -3.8049 0
M  V30 8756 H 824.974 -1.76369 -3.4571 0
M  V30 8757 H 823.075 0.693637 -3.66087 0
M  V30 8758 H 823.188 -0.870672 -4.71122 0
M  V30 8759 H 821.552 -0.367383 -2.52036 0
M  V30 8760 H 822.335 -2.01905 -2.77649 0
M  V30 8761 N 824.78 1.49157 -0.508906 0
M  V30 8762 C 826.057 1.95363 0.0961913 0
M  V30 8763 C 826.437 1.45064 1.53362 0
M  V30 8764 O 825.785 0.667835 2.18523 0
M  V30 8765 C 825.995 3.49 0.000688881 0
M  V30 8766 C 827.343 4.24257 0.170632 0
M  V30 8767 O 828.367 3.5612 0.0754994 0
M  V30 8768 O 827.226 5.45267 0.366957 0
M  V30 8769 H 824.32 0.821984 0.0909489 0
M  V30 8770 H 826.866 1.59769 -0.572007 0
M  V30 8771 H 825.638 3.78269 -1.00143 0
M  V30 8772 H 825.261 3.91233 0.708682 0
M  V30 8773 N 826.258 0.243083 1.55714 0
M  V30 8774 C 827.221 -0.644723 2.19945 0
M  V30 8775 C 828.221 -1.10562 1.16759 0
M  V30 8776 O 829.411 -1.01095 1.41865 0
M  V30 8777 C 826.543 -1.88569 2.83997 0
M  V30 8778 H 827.736 -0.0843839 2.99781 0
M  V30 8779 H 825.289 -0.00647246 1.56299 0
M  V30 8780 H 826.024 -2.48736 2.08089 0
M  V30 8781 H 825.809 -1.56345 3.59581 0
M  V30 8782 H 827.299 -2.51774 3.33166 0
M  V30 8783 N 827.736 -1.57571 -0.0300757 0
M  V30 8784 C 828.964 -1.93485 -0.732891 0
M  V30 8785 C 829.379 -0.842758 -1.68947 0
M  V30 8786 O 828.736 0.180904 -1.81601 0
M  V30 8787 C 828.787 -3.29328 -1.49082 0
M  V30 8788 O 828.508 -4.34341 -0.572639 0
M  V30 8789 C 830.009 -3.79517 -2.29088 0
M  V30 8790 H 827.229 -0.638588 -0.206026 0
M  V30 8791 H 829.773 -2.04496 0.0120966 0
M  V30 8792 H 827.928 -3.19716 -2.1877 0
M  V30 8793 H 828.342 -5.12748 -1.10406 0
M  V30 8794 H 829.816 -4.77081 -2.77665 0
M  V30 8795 H 830.293 -3.10659 -3.10464 0
M  V30 8796 H 830.899 -3.92208 -1.64477 0
M  V30 8797 N 829.214 0.302327 -1.54673 0
M  V30 8798 C 830.161 1.37282 -1.85532 0
M  V30 8799 C 831.131 1.50437 -0.704129 0
M  V30 8800 O 832.316 1.65317 -0.952627 0
M  V30 8801 C 829.456 2.73309 -2.10704 0
M  V30 8802 C 828.569 2.68614 -3.38335 0
M  V30 8803 C 827.704 3.96626 -3.53357 0
M  V30 8804 C 826.743 3.86324 -4.74784 0
M  V30 8805 N 825.88 5.06109 -4.86619 0
M  V30 8806 H 830.72 1.10265 -2.76849 0
M  V30 8807 H 828.257 0.533346 -1.37091 0
M  V30 8808 H 830.215 3.52414 -2.23294 0
M  V30 8809 H 828.845 2.98589 -1.22656 0
M  V30 8810 H 827.897 1.81381 -3.34373 0
M  V30 8811 H 829.209 2.56891 -4.27561 0
M  V30 8812 H 828.363 4.84168 -3.65604 0
M  V30 8813 H 827.102 4.11182 -2.62261 0
M  V30 8814 H 826.107 2.97166 -4.62572 0
M  V30 8815 H 827.332 3.73315 -5.67286 0
M  V30 8816 H 825.278 5.2113 -3.98446 0
M  V30 8817 H 825.195 4.96804 -5.69844 0
M  V30 8818 H 826.463 5.95306 -5.03221 0
M  V30 8819 N 830.692 1.47107 0.565454 0
M  V30 8820 C 831.642 1.55384 1.66852 0
M  V30 8821 C 832.626 0.413369 1.55499 0
M  V30 8822 O 833.818 0.66281 1.64121 0
M  V30 8823 C 830.947 1.5634 3.05635 0
M  V30 8824 C 830.033 2.75742 3.22222 0
M  V30 8825 N 830.424 4.00515 3.08903 0
M  V30 8826 C 828.722 2.7233 3.53203 0
M  V30 8827 C 829.423 4.80435 3.27959 0
M  V30 8828 N 828.399 4.1261 3.53913 0
M  V30 8829 H 832.201 2.49635 1.55111 0
M  V30 8830 H 829.715 1.42986 0.769982 0
M  V30 8831 H 831.712 1.60359 3.84825 0
M  V30 8832 H 830.372 0.631785 3.18494 0
M  V30 8833 H 831.383 4.31501 2.86404 0
M  V30 8834 H 828.06 1.8827 3.7264 0
M  V30 8835 H 829.45 5.89334 3.22699 0
M  V30 8836 N 832.17 -0.811516 1.35101 0
M  V30 8837 C 833.117 -1.92308 1.27617 0
M  V30 8838 C 834.087 -1.6543 0.149091 0
M  V30 8839 O 835.272 -1.8789 0.331974 0
M  V30 8840 C 832.412 -3.28768 1.04908 0
M  V30 8841 C 831.525 -3.67865 2.26493 0
M  V30 8842 C 830.66 -4.9333 1.96974 0
M  V30 8843 C 829.699 -5.25041 3.1464 0
M  V30 8844 N 828.836 -6.41685 2.84929 0
M  V30 8845 H 833.676 -1.98041 2.22674 0
M  V30 8846 H 831.213 -0.968755 1.10696 0
M  V30 8847 H 833.171 -4.07426 0.897749 0
M  V30 8848 H 831.801 -3.22517 0.135151 0
M  V30 8849 H 830.853 -2.84507 2.52507 0
M  V30 8850 H 832.165 -3.87263 3.14371 0
M  V30 8851 H 831.319 -5.79803 1.78643 0
M  V30 8852 H 830.058 -4.75958 1.06374 0
M  V30 8853 H 829.063 -4.3706 3.33554 0
M  V30 8854 H 830.288 -5.44346 4.06035 0
M  V30 8855 H 828.234 -6.25747 1.96918 0
M  V30 8856 H 828.151 -6.6131 3.66341 0
M  V30 8857 H 829.419 -7.31198 2.70128 0
M  V30 8858 N 833.648 -1.19017 -1.03309 0
M  V30 8859 C 834.578 -0.94772 -2.13402 0
M  V30 8860 C 835.559 0.117383 -1.69694 0
M  V30 8861 O 836.744 -0.0367733 -1.94165 0
M  V30 8862 C 833.874 -0.480977 -3.43953 0
M  V30 8863 C 832.828 -1.48743 -4.01322 0
M  V30 8864 C 832.154 -0.877924 -5.27443 0
M  V30 8865 C 833.454 -2.86642 -4.36616 0
M  V30 8866 H 835.148 -1.86846 -2.33942 0
M  V30 8867 H 832.694 -0.899781 -1.12427 0
M  V30 8868 H 834.647 -0.298677 -4.2034 0
M  V30 8869 H 833.371 0.475348 -3.23122 0
M  V30 8870 H 832.03 -1.65681 -3.27025 0
M  V30 8871 H 831.678 0.0858232 -5.02927 0
M  V30 8872 H 831.378 -1.54996 -5.66789 0
M  V30 8873 H 832.902 -0.706326 -6.06501 0
M  V30 8874 H 834.316 -2.73312 -5.03958 0
M  V30 8875 H 832.713 -3.50599 -4.87032 0
M  V30 8876 H 833.783 -3.39617 -3.46105 0
M  V30 8877 N 835.127 1.22348 -0.993418 0
M  V30 8878 C 836.352 1.95666 -0.687727 0
M  V30 8879 C 836.777 1.72883 0.741161 0
M  V30 8880 O 836.135 1.00837 1.50671 0
M  V30 8881 C 836.183 3.46457 -0.99998 0
M  V30 8882 O 835.287 4.12281 -0.0989386 0
M  V30 8883 H 834.628 0.612102 -0.257346 0
M  V30 8884 H 837.158 1.55428 -1.33054 0
M  V30 8885 H 837.168 3.96976 -0.942035 0
M  V30 8886 H 835.843 3.62365 -2.04118 0
M  V30 8887 H 834.42 3.72295 -0.212413 0
M  V30 8888 N 836.605 0.766683 1.37694 0
M  V30 8889 C 837.83 0.338715 2.04615 0
M  V30 8890 C 838.255 -1.02918 1.57447 0
M  V30 8891 O 837.613 -1.65849 0.732386 0
M  V30 8892 C 837.661 0.385284 3.58536 0
M  V30 8893 O 836.765 -0.616081 4.07772 0
M  V30 8894 H 836.106 0.147527 0.647404 0
M  V30 8895 H 838.636 1.04146 1.7611 0
M  V30 8896 H 838.646 0.240782 4.07289 0
M  V30 8897 H 837.321 1.38325 3.92223 0
M  V30 8898 H 835.898 -0.435115 3.70353 0
M  V30 8899 N 838.083 -1.48885 0.516809 0
M  V30 8900 C 839.33 -2.02488 -0.0220602 0
M  V30 8901 C 839.658 -1.39513 -1.35523 0
M  V30 8902 O 838.913 -0.52558 -1.8851 0
M  V30 8903 C 839.212 -3.56801 -0.206798 0
M  V30 8904 C 838.878 -4.38496 1.05035 0
M  V30 8905 C 837.54 -4.60538 1.39492 0
M  V30 8906 C 839.892 -4.85909 1.88525 0
M  V30 8907 C 837.22 -5.2724 2.57361 0
M  V30 8908 C 839.572 -5.53909 3.05561 0
M  V30 8909 C 838.236 -5.74193 3.4038 0
M  V30 8910 H 837.506 -0.740956 -0.00807238 0
M  V30 8911 H 840.153 -1.79014 0.680168 0
M  V30 8912 H 838.458 -3.79042 -0.991687 0
M  V30 8913 H 840.155 -3.95885 -0.638447 0
M  V30 8914 H 836.745 -4.2159 0.771984 0
M  V30 8915 H 840.929 -4.68694 1.63218 0
M  V30 8916 H 836.185 -5.41145 2.84556 0
M  V30 8917 H 840.359 -5.89619 3.7057 0
M  V30 8918 H 837.986 -6.25652 4.31814 0
M  V30 8919 N 839.561 -0.251338 -1.55583 0
M  V30 8920 C 840.491 0.640437 -2.24545 0
M  V30 8921 C 841.472 1.17781 -1.22726 0
M  V30 8922 O 842.657 1.21633 -1.5139 0
M  V30 8923 C 839.787 1.8355 -2.94834 0
M  V30 8924 C 838.741 1.4307 -4.03379 0
M  V30 8925 C 838.067 2.70695 -4.61116 0
M  V30 8926 C 839.367 0.59848 -5.1886 0
M  V30 8927 H 841.061 0.0653772 -2.99329 0
M  V30 8928 H 838.607 0.0300042 -1.43969 0
M  V30 8929 H 840.56 2.46505 -3.4178 0
M  V30 8930 H 839.284 2.43601 -2.17546 0
M  V30 8931 H 837.943 0.824474 -3.57209 0
M  V30 8932 H 837.591 3.28954 -3.80524 0
M  V30 8933 H 837.291 2.44332 -5.34393 0
M  V30 8934 H 838.815 3.34541 -5.10798 0
M  V30 8935 H 840.229 1.13244 -5.62004 0
M  V30 8936 H 838.626 0.430728 -5.98552 0
M  V30 8937 H 839.696 -0.38829 -4.83343 0
M  V30 8938 N 841.039 1.57585 0.0217189 0
M  V30 8939 C 842.286 1.89606 0.711045 0
M  V30 8940 C 842.614 0.849535 1.74966 0
M  V30 8941 O 841.869 -0.14856 1.95135 0
M  V30 8942 C 842.168 3.28377 1.41079 0
M  V30 8943 C 841.834 4.48035 0.507454 0
M  V30 8944 C 840.496 4.80504 0.258672 0
M  V30 8945 C 842.848 5.21071 -0.115793 0
M  V30 8946 C 840.176 5.83393 -0.622013 0
M  V30 8947 C 842.528 6.24897 -0.984224 0
M  V30 8948 C 841.192 6.55836 -1.2424 0
M  V30 8949 H 840.462 0.693817 0.26019 0
M  V30 8950 H 843.109 1.91478 -0.0291424 0
M  V30 8951 H 841.414 3.22528 2.22448 0
M  V30 8952 H 843.111 3.50404 1.94982 0
M  V30 8953 H 839.701 4.22653 0.711516 0
M  V30 8954 H 843.885 4.96259 0.0634327 0
M  V30 8955 H 839.141 6.05736 -0.830267 0
M  V30 8956 H 843.315 6.8063 -1.47363 0
M  V30 8957 H 840.942 7.35383 -1.92653 0
M  V30 8958 N 842.517 -0.29412 1.54831 0
M  V30 8959 C 843.742 -1.05156 1.78765 0
M  V30 8960 C 844.167 -1.79916 0.548809 0
M  V30 8961 O 843.525 -1.74243 -0.500909 0
M  V30 8962 C 843.573 -2.00242 2.99893 0
M  V30 8963 O 842.677 -3.08662 2.73499 0
M  V30 8964 H 842.018 -0.301737 0.591482 0
M  V30 8965 H 844.548 -0.329449 2.0193 0
M  V30 8966 H 844.558 -2.42583 3.28051 0
M  V30 8967 H 843.233 -1.45235 3.89717 0
M  V30 8968 H 841.81 -2.70786 2.56377 0
M  V30 8969 N 843.995 -1.47404 -0.557645 0
M  V30 8970 C 845.225 -1.57393 -1.33832 0
M  V30 8971 C 845.633 -0.222978 -1.87881 0
M  V30 8972 O 844.976 0.793854 -1.65661 0
M  V30 8973 C 845.038 -2.53882 -2.54528 0
M  V30 8974 C 844.702 -3.99585 -2.21767 0
M  V30 8975 C 845.699 -4.88082 -1.79087 0
M  V30 8976 C 843.384 -4.44917 -2.3314 0
M  V30 8977 C 845.378 -6.1993 -1.48209 0
M  V30 8978 C 843.065 -5.76793 -2.01874 0
M  V30 8979 C 844.063 -6.64121 -1.59476 0
M  V30 8980 O 843.751 -7.93546 -1.28607 0
M  V30 8981 H 843.483 -0.534172 -0.41429 0
M  V30 8982 H 846.037 -1.93733 -0.682404 0
M  V30 8983 H 844.267 -2.12609 -3.23009 0
M  V30 8984 H 845.956 -2.54003 -3.16603 0
M  V30 8985 H 846.722 -4.54307 -1.69794 0
M  V30 8986 H 842.601 -3.77152 -2.65099 0
M  V30 8987 H 846.145 -6.88049 -1.15043 0
M  V30 8988 H 842.042 -6.1011 -2.10799 0
M  V30 8989 H 842.81 -8.06046 -1.42241 0
M  V30 8990 N 845.473 0.80434 -1.35529 0
M  V30 8991 C 846.403 1.93086 -1.31301 0
M  V30 8992 C 847.384 1.69068 -0.187044 0
M  V30 8993 O 848.569 1.90399 -0.382359 0
M  V30 8994 C 845.699 3.29867 -1.0865 0
M  V30 8995 C 844.653 3.68373 -2.17911 0
M  V30 8996 C 843.979 5.0334 -1.80423 0
M  V30 8997 C 845.279 3.78516 -3.59893 0
M  V30 8998 H 846.973 1.96882 -2.25561 0
M  V30 8999 H 844.519 0.945841 -1.08581 0
M  V30 9000 H 846.472 4.08281 -1.04331 0
M  V30 9001 H 845.196 3.2642 -0.108359 0
M  V30 9002 H 843.855 2.92247 -2.21331 0
M  V30 9003 H 843.503 4.96399 -0.812213 0
M  V30 9004 H 843.203 5.30074 -2.53565 0
M  V30 9005 H 844.727 5.84191 -1.77633 0
M  V30 9006 H 846.141 4.47155 -3.58783 0
M  V30 9007 H 844.538 4.16721 -4.31814 0
M  V30 9008 H 845.608 2.8001 -3.95882 0
M  V30 9009 N 846.951 1.19563 1.02676 0
M  V30 9010 C 848.176 1.02556 1.80269 0
M  V30 9011 C 848.601 -0.421056 1.83327 0
M  V30 9012 O 847.959 -1.30279 1.26084 0
M  V30 9013 C 848.007 1.60165 3.23078 0
M  V30 9014 O 847.111 0.832404 4.03912 0
M  V30 9015 H 846.452 0.362354 0.556413 0
M  V30 9016 H 848.982 1.58633 1.29216 0
M  V30 9017 H 848.992 1.6347 3.7382 0
M  V30 9018 H 847.667 2.65454 3.20167 0
M  V30 9019 H 846.244 0.872768 3.62543 0
M  V30 9020 N 848.429 -1.21819 0.999893 0
M  V30 9021 C 849.675 -1.91035 0.680701 0
M  V30 9022 C 850.008 -1.77582 -0.786021 0
M  V30 9023 O 849.283 -1.14917 -1.56921 0
M  V30 9024 C 849.566 -3.43013 1.0961 0
M  V30 9025 C 849.419 -3.65481 2.6219 0
M  V30 9026 C 850.738 -4.35204 0.654616 0
M  V30 9027 H 847.857 -0.693748 0.248763 0
M  V30 9028 H 850.499 -1.43555 1.24466 0
M  V30 9029 H 848.649 -3.83581 0.616253 0
M  V30 9030 H 850.321 -3.34273 3.17899 0
M  V30 9031 H 848.564 -3.09522 3.03938 0
M  V30 9032 H 849.235 -4.71945 2.86307 0
M  V30 9033 H 851.711 -4.0219 1.06688 0
M  V30 9034 H 850.587 -5.40198 0.973492 0
M  V30 9035 H 850.848 -4.3986 -0.444458 0
M  V30 9036 N 849.908 -0.773975 -1.37286 0
M  V30 9037 C 850.84 -0.119938 -2.28886 0
M  V30 9038 C 851.853 0.661822 -1.48741 0
M  V30 9039 O 853.042 0.499548 -1.71367 0
M  V30 9040 C 850.142 0.853703 -3.27971 0
M  V30 9041 C 849.315 0.125286 -4.37221 0
M  V30 9042 C 848.374 1.01261 -5.16365 0
M  V30 9043 O 847.4 0.475565 -5.6721 0
M  V30 9044 N 848.602 2.33864 -5.31308 0
M  V30 9045 H 851.367 -0.906702 -2.85655 0
M  V30 9046 H 848.928 -0.626519 -1.49286 0
M  V30 9047 H 850.92 1.4508 -3.77801 0
M  V30 9048 H 849.49 1.54142 -2.71954 0
M  V30 9049 H 848.71 -0.652742 -3.88758 0
M  V30 9050 H 849.998 -0.377959 -5.07394 0
M  V30 9051 H 849.396 2.79929 -4.91585 0
M  V30 9052 H 847.953 2.88575 -5.84438 0
M  V30 9053 N 851.386 1.48609 -0.524698 0
M  V30 9054 C 852.614 2.06899 0.00742946 0
M  V30 9055 C 853.029 1.38196 1.28637 0
M  V30 9056 O 852.386 0.467771 1.76403 0
M  V30 9057 C 852.437 3.60699 0.240548 0
M  V30 9058 O 852.158 4.26821 -0.987715 0
M  V30 9059 C 853.659 4.35769 0.813652 0
M  V30 9060 H 850.879 0.670278 -0.0311294 0
M  V30 9061 H 853.423 1.91071 -0.728832 0
M  V30 9062 H 851.578 3.76149 0.926845 0
M  V30 9063 H 851.992 5.18889 -0.765175 0
M  V30 9064 H 853.466 5.44174 0.926219 0
M  V30 9065 H 853.943 3.9984 1.81728 0
M  V30 9066 H 854.549 4.24983 0.164086 0
M  V30 9067 N 852.864 0.259585 1.55447 0
M  V30 9068 C 853.811 -0.634578 2.21905 0
M  V30 9069 C 854.781 -1.16168 1.18719 0
M  V30 9070 O 855.966 -1.21383 1.4721 0
M  V30 9071 C 853.106 -1.82005 2.93203 0
M  V30 9072 C 852.219 -1.32828 4.11073 0
M  V30 9073 C 851.354 -2.47431 4.70055 0
M  V30 9074 C 850.393 -1.95179 5.80148 0
M  V30 9075 N 849.53 -3.03197 6.33258 0
M  V30 9076 H 854.37 -0.0611886 2.97937 0
M  V30 9077 H 851.907 -0.0184378 1.47088 0
M  V30 9078 H 853.865 -2.51664 3.32748 0
M  V30 9079 H 852.495 -2.36571 2.19622 0
M  V30 9080 H 851.547 -0.525301 3.76756 0
M  V30 9081 H 852.859 -0.905435 4.90513 0
M  V30 9082 H 852.013 -3.25111 5.12238 0
M  V30 9083 H 850.752 -2.93023 3.89857 0
M  V30 9084 H 849.757 -1.15974 5.37429 0
M  V30 9085 H 850.982 -1.50541 6.62204 0
M  V30 9086 H 848.928 -3.48199 5.55961 0
M  V30 9087 H 848.845 -2.65282 7.07928 0
M  V30 9088 H 850.113 -3.80898 6.80101 0
M  V30 9089 N 854.342 -1.57594 -0.0133615 0
M  V30 9090 C 855.289 -2.07574 -1.00905 0
M  V30 9091 C 856.259 -0.968231 -1.34961 0
M  V30 9092 O 857.444 -1.23981 -1.45028 0
M  V30 9093 C 854.584 -2.5728 -2.30002 0
M  V30 9094 C 853.697 -3.81881 -2.01967 0
M  V30 9095 C 852.832 -4.20139 -3.25049 0
M  V30 9096 C 851.871 -5.37614 -2.92639 0
M  V30 9097 N 851.008 -5.71229 -4.08218 0
M  V30 9098 H 855.848 -2.92382 -0.575899 0
M  V30 9099 H 853.385 -1.4455 -0.272722 0
M  V30 9100 H 855.343 -2.84171 -3.05454 0
M  V30 9101 H 853.973 -1.75365 -2.71011 0
M  V30 9102 H 853.025 -3.61979 -1.16942 0
M  V30 9103 H 854.337 -4.67441 -1.74069 0
M  V30 9104 H 853.491 -4.48242 -4.08857 0
M  V30 9105 H 852.23 -3.33262 -3.56073 0
M  V30 9106 H 851.235 -5.09248 -2.07235 0
M  V30 9107 H 852.46 -6.26157 -2.62876 0
M  V30 9108 H 850.406 -4.8731 -4.39164 0
M  V30 9109 H 850.323 -6.51333 -3.83799 0
M  V30 9110 H 851.591 -6.03917 -4.92854 0
M  V30 9111 N 855.82 0.285905 -1.54985 0
M  V30 9112 C 856.767 1.35306 -1.86978 0
M  V30 9113 C 857.737 1.49682 -0.720046 0
M  V30 9114 O 858.922 1.64297 -0.970107 0
M  V30 9115 C 856.062 2.71059 -2.13591 0
M  V30 9116 C 855.175 2.6501 -3.41165 0
M  V30 9117 C 854.31 3.92856 -3.57544 0
M  V30 9118 C 853.349 3.81266 -4.78855 0
M  V30 9119 N 852.486 5.00919 -4.9196 0
M  V30 9120 H 857.326 1.07323 -2.78003 0
M  V30 9121 H 854.863 0.518776 -1.37649 0
M  V30 9122 H 856.821 3.50026 -2.27019 0
M  V30 9123 H 855.451 2.97271 -1.25816 0
M  V30 9124 H 854.503 1.77824 -3.36278 0
M  V30 9125 H 855.815 2.52342 -4.30262 0
M  V30 9126 H 854.969 4.80263 -3.70718 0
M  V30 9127 H 853.708 4.08377 -2.66608 0
M  V30 9128 H 852.713 2.92243 -4.65698 0
M  V30 9129 H 853.938 3.67277 -5.71213 0
M  V30 9130 H 851.884 5.16875 -4.03951 0
M  V30 9131 H 851.801 4.90732 -5.75081 0
M  V30 9132 H 853.069 5.89935 -5.09507 0
M  V30 9133 N 857.298 1.47698 0.54982 0
M  V30 9134 C 858.526 1.5833 1.33188 0
M  V30 9135 C 858.941 0.236193 1.87317 0
M  V30 9136 O 858.298 -0.77167 1.65383 0
M  V30 9137 C 858.349 2.61438 2.49664 0
M  V30 9138 O 858.07 3.9092 1.97771 0
M  V30 9139 C 859.571 2.82324 3.41772 0
M  V30 9140 H 856.791 0.53443 0.405741 0
M  V30 9141 H 859.335 1.93375 0.665309 0
M  V30 9142 H 857.49 2.29307 3.12245 0
M  V30 9143 H 857.904 4.47323 2.73866 0
M  V30 9144 H 859.378 3.58316 4.19897 0
M  V30 9145 H 859.855 1.90416 3.95776 0
M  V30 9146 H 860.461 3.15682 2.85 0
M  V30 9147 N 858.776 -0.797141 1.35954 0
M  V30 9148 C 860.022 -1.55698 1.29946 0
M  V30 9149 C 860.355 -1.93808 -0.123259 0
M  V30 9150 O 859.63 -1.62102 -1.07486 0
M  V30 9151 C 859.913 -2.83926 2.2149 0
M  V30 9152 C 859.766 -2.52232 3.72423 0
M  V30 9153 C 861.085 -3.85698 2.11955 0
M  V30 9154 H 858.204 -0.56488 0.47337 0
M  V30 9155 H 860.846 -0.916421 1.66438 0
M  V30 9156 H 858.996 -3.38588 1.905 0
M  V30 9157 H 860.668 -2.0368 4.13899 0
M  V30 9158 H 858.911 -1.85286 3.92239 0
M  V30 9159 H 859.582 -3.43782 4.31877 0
M  V30 9160 H 862.058 -3.40462 2.39218 0
M  V30 9161 H 860.934 -4.73182 2.78191 0
M  V30 9162 H 861.195 -4.28083 1.10442 0
M  V30 9163 N 860.254 -1.20106 -1.0204 0
M  V30 9164 C 861.67 -0.955099 -1.27867 0
M  V30 9165 C 861.87 0.367595 -1.98119 0
M  V30 9166 O 860.926 1.09705 -2.27423 0
M  V30 9167 C 862.239 -2.13507 -2.11744 0
M  V30 9168 C 863.787 -2.17563 -2.25023 0
M  V30 9169 C 864.262 -3.35035 -3.12275 0
M  V30 9170 N 865.753 -3.35024 -3.19864 0
M  V30 9171 C 866.488 -4.22566 -3.8759 0
M  V30 9172 N 865.984 -5.20278 -4.57474 0
M  V30 9173 N 867.777 -4.10418 -3.84075 0
M  V30 9174 H 859.928 -2.05193 -0.54861 0
M  V30 9175 H 862.191 -0.897689 -0.304728 0
M  V30 9176 H 861.897 -3.09275 -1.67456 0
M  V30 9177 H 861.771 -2.11281 -3.12474 0
M  V30 9178 H 864.158 -1.22359 -2.68537 0
M  V30 9179 H 864.239 -2.23838 -1.23815 0
M  V30 9180 H 863.883 -4.30522 -2.69468 0
M  V30 9181 H 863.813 -3.25996 -4.13563 0
M  V30 9182 H 866.304 -2.64299 -2.701 0
M  V30 9183 H 866.617 -5.83408 -5.06809 0
M  V30 9184 H 864.962 -5.24219 -4.56311 0
M  V30 9185 H 868.153 -3.33353 -3.28623 0
M  V30 9186 H 868.326 -4.78854 -4.36581 0
M  V30 9187 N 861.732 1.21287 -1.00634 0
M  V30 9188 C 862.957 1.94925 -0.708441 0
M  V30 9189 C 863.382 1.73659 0.722783 0
M  V30 9190 O 862.74 1.02429 1.49593 0
M  V30 9191 C 862.788 3.45377 -1.03667 0
M  V30 9192 O 861.892 4.12153 -0.142661 0
M  V30 9193 H 861.233 0.609338 -0.263824 0
M  V30 9194 H 863.763 1.54008 -1.34695 0
M  V30 9195 H 863.773 3.95954 -0.984086 0
M  V30 9196 H 862.448 3.6018 -2.0795 0
M  V30 9197 H 861.025 3.72048 -0.251888 0
M  V30 9198 N 863.21 0.781244 1.36873 0
M  V30 9199 C 864.14 0.188128 2.32741 0
M  V30 9200 C 865.121 -0.672326 1.56249 0
M  V30 9201 O 866.306 -0.607835 1.84442 0
M  V30 9202 C 863.436 -0.684341 3.40491 0
M  V30 9203 C 862.39 0.0755641 4.27933 0
M  V30 9204 C 861.716 -0.916968 5.26779 0
M  V30 9205 C 863.016 1.26006 5.06873 0
M  V30 9206 H 864.71 0.989016 2.82593 0
M  V30 9207 H 862.256 0.477038 1.35869 0
M  V30 9208 H 864.209 -1.10915 4.06541 0
M  V30 9209 H 862.933 -1.51785 2.89187 0
M  V30 9210 H 861.592 0.481258 3.63427 0
M  V30 9211 H 861.24 -1.74528 4.71751 0
M  V30 9212 H 860.94 -0.413 5.86147 0
M  V30 9213 H 862.464 -1.34052 5.95703 0
M  V30 9214 H 863.878 0.911425 5.66009 0
M  V30 9215 H 862.275 1.69676 5.75613 0
M  V30 9216 H 863.345 2.05948 4.38991 0
M  V30 9217 N 864.689 -1.48329 0.532571 0
M  V30 9218 C 865.914 -2.074 0.00147755 0
M  V30 9219 C 866.339 -1.38615 -1.27151 0
M  V30 9220 O 865.697 -0.452949 -1.75551 0
M  V30 9221 C 865.745 -3.60029 -0.202866 0
M  V30 9222 O 864.849 -3.92327 -1.27097 0
M  V30 9223 H 864.19 -0.662777 0.0402883 0
M  V30 9224 H 866.72 -1.90701 0.741224 0
M  V30 9225 H 866.73 -4.05783 -0.424722 0
M  V30 9226 H 865.405 -4.09496 0.727033 0
M  V30 9227 H 863.982 -3.58348 -1.03156 0
M  V30 9228 N 866.167 -0.267825 -1.55308 0
M  V30 9229 C 867.407 0.352316 -2.01341 0
M  V30 9230 C 867.771 1.53593 -1.1521 0
M  V30 9231 O 868.972 2.22521 -1.50791 0
M  V30 9232 C 867.243 0.731857 -3.49827 0
M  V30 9233 S 868.802 1.33956 -4.17853 0
M  V30 9234 H 865.62 0.109927 -0.702451 0
M  V30 9235 H 868.222 -0.387955 -1.91612 0
M  V30 9236 H 866.926 -0.138561 -4.10166 0
M  V30 9237 H 866.457 1.50378 -3.63525 0
M  V30 9238 H 868.472 2.62831 -4.20874 0
M  V30 9239 N 867.645 1.57599 0.00500368 0
M  V30 9240 C 868.593 2.09223 1.01628 0
M  V30 9241 C 869.587 1.01113 1.35913 0
M  V30 9242 O 870.793 1.19583 1.34536 0
M  V30 9243 H 867.168 0.667999 0.345372 0
M  V30 9244 H 869.139 2.93188 0.555274 0
M  V30 9245 C 867.888 2.60674 2.30097 0
M  V30 9246 H 867.211 3.43491 2.04582 0
M  V30 9247 H 868.651 3.00479 2.99146 0
M  V30 9248 C 867.11 1.51862 3.00731 0
M  V30 9249 O 867.64 0.898651 3.91519 0
M  V30 9250 N 865.846 1.24729 2.62471 0
M  V30 9251 H 865.393 1.7533 1.88725 0
M  V30 9252 H 865.351 0.521437 3.10046 0
M  V30 9253 N 869.123 -0.277682 1.55134 0
M  V30 9254 C 870.348 -1.03254 1.7987 0
M  V30 9255 C 870.773 -1.79324 0.567861 0
M  V30 9256 O 870.131 -1.74764 -0.4824 0
M  V30 9257 C 870.179 -1.9705 3.02 0
M  V30 9258 O 869.283 -3.05744 2.76757 0
M  V30 9259 H 868.624 -0.295447 0.594649 0
M  V30 9260 H 871.154 -0.308013 2.02268 0
M  V30 9261 H 871.164 -2.3909 3.30606 0
M  V30 9262 H 869.839 -1.41094 3.91236 0
M  V30 9263 H 868.416 -2.68052 2.59235 0
M  V30 9264 N 870.601 -1.47988 -0.541979 0
M  V30 9265 C 871.847 -1.55623 -1.30036 0
M  V30 9266 C 872.18 -0.224254 -1.92901 0
M  V30 9267 O 871.455 0.768629 -1.78668 0
M  V30 9268 C 871.738 -2.68562 -2.39888 0
M  V30 9269 C 871.591 -4.11426 -1.81792 0
M  V30 9270 C 872.91 -2.77325 -3.41729 0
M  V30 9271 H 870.029 -0.566498 -0.471433 0
M  V30 9272 H 872.671 -1.8011 -0.604998 0
M  V30 9273 H 870.821 -2.47814 -2.992 0
M  V30 9274 H 872.493 -4.43581 -1.26624 0
M  V30 9275 H 870.736 -4.18989 -1.12386 0
M  V30 9276 H 871.407 -4.8625 -2.61276 0
M  V30 9277 H 873.883 -2.96085 -2.92357 0
M  V30 9278 H 872.759 -3.58097 -4.16002 0
M  V30 9279 H 873.02 -1.84995 -4.01534 0
M  V30 9280 N 872.079 0.78992 -1.36375 0
M  V30 9281 C 873.49 1.36506 -1.2737 0
M  V30 9282 C 873.841 1.96008 0.086711 0
M  V30 9283 O 872.966 1.92521 0.988159 0
M  V30 9284 C 873.561 2.48175 -2.30639 0
M  V30 9285 C 872.12 3.01506 -2.25325 0
M  V30 9286 C 871.267 1.74581 -2.15445 0
M  V30 9287 H 874.218 0.591606 -1.47261 0
M  V30 9288 H 874.239 3.27179 -1.94253 0
M  V30 9289 H 873.751 2.04838 -3.2964 0
M  V30 9290 H 871.852 3.49265 -1.29788 0
M  V30 9291 H 871.965 3.58355 -3.17992 0
M  V30 9292 H 870.329 1.96794 -1.61692 0
M  V30 9293 H 871.112 1.33373 -3.16333 0
M  V30 9294 N 873.557 1.20646 1.01402 0
M  V30 9295 C 874.803 1.0197 1.753 0
M  V30 9296 C 875.136 -0.446803 1.8899 0
M  V30 9297 O 874.411 -1.33169 1.41762 0
M  V30 9298 C 874.694 1.70693 3.17074 0
M  V30 9299 C 874.547 3.24805 3.11162 0
M  V30 9300 C 875.866 1.44212 4.15802 0
M  V30 9301 H 872.985 0.371844 0.636318 0
M  V30 9302 H 875.627 1.48696 1.18277 0
M  V30 9303 H 873.777 1.30968 3.65759 0
M  V30 9304 H 875.449 3.73841 2.70261 0
M  V30 9305 H 873.692 3.55576 2.48492 0
M  V30 9306 H 874.363 3.68049 4.11393 0
M  V30 9307 H 876.839 1.7868 3.75783 0
M  V30 9308 H 875.715 1.94825 5.13161 0
M  V30 9309 H 875.976 0.370252 4.40547 0
M  V30 9310 N 875.035 -1.20752 1.01276 0
M  V30 9311 C 876.26 -1.94547 0.718769 0
M  V30 9312 C 876.685 -1.7404 -0.713563 0
M  V30 9313 O 876.043 -1.03221 -1.49047 0
M  V30 9314 C 876.091 -3.44823 1.05497 0
M  V30 9315 O 875.195 -4.12072 0.164516 0
M  V30 9316 H 874.536 -0.607931 0.267051 0
M  V30 9317 H 877.066 -1.53292 1.35509 0
M  V30 9318 H 877.076 -3.95427 1.00507 0
M  V30 9319 H 875.751 -3.59072 2.09858 0
M  V30 9320 H 874.328 -3.71909 0.271615 0
M  V30 9321 N 876.513 -0.788492 -1.36457 0
M  V30 9322 C 877.476 -0.192209 -2.28393 0
M  V30 9323 C 878.476 0.609916 -1.48784 0
M  V30 9324 O 879.666 0.431046 -1.68783 0
M  V30 9325 C 876.798 0.734096 -3.32902 0
M  V30 9326 H 877.991 -1.00284 -2.82636 0
M  V30 9327 H 875.544 -0.557852 -1.46006 0
M  V30 9328 H 876.279 1.5691 -2.83813 0
M  V30 9329 H 876.064 0.160875 -3.9177 0
M  V30 9330 H 877.554 1.1462 -4.01562 0
M  V30 9331 N 877.991 1.48044 -0.54043 0
M  V30 9332 C 878.923 2.2779 0.253854 0
M  V30 9333 C 879.936 1.35999 0.894883 0
M  V30 9334 O 881.125 1.60963 0.771563 0
M  V30 9335 C 878.225 3.09724 1.37566 0
M  V30 9336 C 877.398 4.29364 0.83459 0
M  V30 9337 C 876.457 4.93026 1.83881 0
M  V30 9338 O 875.483 5.51927 1.39159 0
M  V30 9339 N 876.685 4.86207 3.17149 0
M  V30 9340 H 879.45 2.96597 -0.430125 0
M  V30 9341 H 877.011 1.57487 -0.375423 0
M  V30 9342 H 879.003 3.49181 2.04584 0
M  V30 9343 H 877.573 2.43269 1.96314 0
M  V30 9344 H 876.793 3.94198 -0.0118878 0
M  V30 9345 H 878.081 5.06787 0.452155 0
M  V30 9346 H 877.479 4.39523 3.56141 0
M  V30 9347 H 876.036 5.29733 3.79771 0
M  V30 9348 N 879.47 0.276058 1.55163 0
M  V30 9349 C 880.417 -0.611006 2.22565 0
M  V30 9350 C 881.387 -1.14902 1.19945 0
M  V30 9351 O 882.572 -1.19815 1.48489 0
M  V30 9352 C 879.712 -1.78885 2.95117 0
M  V30 9353 C 878.825 -1.2846 4.12458 0
M  V30 9354 C 877.96 -2.42432 4.72652 0
M  V30 9355 C 876.999 -1.89015 5.82185 0
M  V30 9356 N 876.136 -2.96463 6.36439 0
M  V30 9357 H 880.976 -0.0295849 2.97985 0
M  V30 9358 H 878.513 -0.00283607 1.471 0
M  V30 9359 H 880.471 -2.48121 3.35398 0
M  V30 9360 H 879.101 -2.34229 2.22119 0
M  V30 9361 H 878.153 -0.485312 3.77292 0
M  V30 9362 H 879.465 -0.853358 4.91446 0
M  V30 9363 H 878.619 -3.19659 5.15658 0
M  V30 9364 H 877.358 -2.88872 3.92943 0
M  V30 9365 H 876.363 -1.10267 5.38629 0
M  V30 9366 H 877.588 -1.43509 6.63763 0
M  V30 9367 H 875.534 -3.42283 5.59623 0
M  V30 9368 H 875.451 -2.57759 7.10701 0
M  V30 9369 H 876.719 -3.73663 6.84103 0
M  V30 9370 N 880.948 -1.576 0.00335426 0
M  V30 9371 C 882.359 -1.7875 -0.539008 0
M  V30 9372 C 882.71 -0.911097 -1.73763 0
M  V30 9373 O 881.835 -0.114476 -2.16097 0
M  V30 9374 C 882.43 -3.24177 -0.984611 0
M  V30 9375 C 880.989 -3.46412 -1.47226 0
M  V30 9376 C 880.136 -2.74024 -0.425004 0
M  V30 9377 H 883.087 -1.57032 0.229511 0
M  V30 9378 H 883.108 -3.32474 -1.85044 0
M  V30 9379 H 882.62 -3.87938 -0.112035 0
M  V30 9380 H 880.721 -2.8787 -2.36562 0
M  V30 9381 H 880.834 -4.55098 -1.49741 0
M  V30 9382 H 879.198 -2.38741 -0.887394 0
M  V30 9383 H 879.981 -3.40486 0.438662 0
M  V30 9384 N 882.426 0.269451 -1.5528 0
M  V30 9385 C 883.356 1.33729 -1.91413 0
M  V30 9386 C 884.337 1.51348 -0.776391 0
M  V30 9387 O 885.522 1.64332 -1.03482 0
M  V30 9388 C 882.652 2.69618 -2.18914 0
M  V30 9389 C 881.606 2.66725 -3.34726 0
M  V30 9390 C 880.932 4.06199 -3.47716 0
M  V30 9391 C 882.232 2.25684 -4.71025 0
M  V30 9392 H 883.926 1.03736 -2.80854 0
M  V30 9393 H 881.472 0.497579 -1.3513 0
M  V30 9394 H 883.425 3.44436 -2.42779 0
M  V30 9395 H 882.149 3.01201 -1.26275 0
M  V30 9396 H 880.808 1.94365 -3.10834 0
M  V30 9397 H 880.456 4.3501 -2.52537 0
M  V30 9398 H 880.156 4.05157 -4.25583 0
M  V30 9399 H 881.68 4.8275 -3.73877 0
M  V30 9400 H 883.094 2.90225 -4.94411 0
M  V30 9401 H 881.491 2.35797 -5.51833 0
M  V30 9402 H 882.561 1.20819 -4.69607 0
M  V30 9403 N 883.904 1.48273 0.534124 0
M  V30 9404 C 885.315 1.49667 1.1161 0
M  V30 9405 C 885.666 0.264139 1.94414 0
M  V30 9406 O 884.791 -0.629084 2.07054 0
M  V30 9407 C 885.386 2.71191 2.03079 0
M  V30 9408 C 883.945 2.7547 2.56502 0
M  V30 9409 C 883.092 2.43119 1.33373 0
M  V30 9410 H 886.043 1.55449 0.319578 0
M  V30 9411 H 886.064 2.49473 2.87304 0
M  V30 9412 H 885.576 3.60879 1.42785 0
M  V30 9413 H 883.677 1.89979 3.20529 0
M  V30 9414 H 883.79 3.76787 2.95919 0
M  V30 9415 H 882.154 1.94187 1.64813 0
M  V30 9416 H 882.937 3.35044 0.748375 0
M  V30 9417 N 885.382 -0.782676 1.36792 0
M  V30 9418 C 886.61 -1.57162 1.34565 0
M  V30 9419 C 887.025 -1.88664 -0.0715501 0
M  V30 9420 O 886.382 -1.50633 -1.03033 0
M  V30 9421 C 886.433 -2.88854 2.1736 0
M  V30 9422 O 886.154 -2.58707 3.53557 0
M  V30 9423 C 887.655 -3.83132 2.2299 0
M  V30 9424 H 884.875 -0.487245 0.461338 0
M  V30 9425 H 887.419 -0.970905 1.79982 0
M  V30 9426 H 885.574 -3.45377 1.7548 0
M  V30 9427 H 885.988 -3.42961 3.96835 0
M  V30 9428 H 887.462 -4.72575 2.85266 0
M  V30 9429 H 887.939 -4.21472 1.23524 0
M  V30 9430 H 888.545 -3.32541 2.65135 0
M  V30 9431 N 886.86 -1.21182 -1.00761 0
M  V30 9432 C 887.77 -0.984691 -2.12934 0
M  V30 9433 C 888.786 0.0623657 -1.73888 0
M  V30 9434 O 889.962 -0.1271 -2.00999 0
M  V30 9435 C 887.027 -0.549447 -3.42319 0
M  V30 9436 C 886.088 -1.66841 -3.95553 0
M  V30 9437 C 885.321 -1.25384 -5.18763 0
M  V30 9438 O 885.544 -0.126333 -5.7026 0
M  V30 9439 O 884.478 -2.06475 -5.65377 0
M  V30 9440 H 888.304 -1.92413 -2.3497 0
M  V30 9441 H 885.889 -0.99647 -1.11314 0
M  V30 9442 H 887.771 -0.316384 -4.20211 0
M  V30 9443 H 886.446 0.361304 -3.21677 0
M  V30 9444 H 885.353 -1.95585 -3.189 0
M  V30 9445 H 886.686 -2.55649 -4.206 0
M  V30 9446 N 888.338 1.20213 -1.01915 0
M  V30 9447 C 889.301 2.21307 -0.596327 0
M  V30 9448 C 890.301 1.57274 0.334879 0
M  V30 9449 O 891.491 1.73764 0.12322 0
M  V30 9450 C 888.623 3.40657 0.128808 0
M  V30 9451 H 889.816 2.60228 -1.49068 0
M  V30 9452 H 887.369 1.33721 -0.809226 0
M  V30 9453 H 888.104 3.07241 1.03796 0
M  V30 9454 H 887.889 3.88361 -0.540183 0
M  V30 9455 H 889.379 4.15564 0.411892 0
M  V30 9456 N 889.816 0.795718 1.36037 0
M  V30 9457 C 891.041 0.38204 2.03851 0
M  V30 9458 C 891.466 -0.995553 1.59594 0
M  V30 9459 O 890.824 -1.64258 0.767401 0
M  V30 9460 C 890.872 0.461248 3.57638 0
M  V30 9461 O 889.976 -0.529448 4.08987 0
M  V30 9462 H 889.317 0.161227 0.644129 0
M  V30 9463 H 891.847 1.07858 1.73861 0
M  V30 9464 H 891.857 0.32712 4.06687 0
M  V30 9465 H 890.532 1.46613 3.89201 0
M  V30 9466 H 889.109 -0.35646 3.71192 0
M  V30 9467 N 891.294 -1.47756 0.548274 0
M  V30 9468 C 892.54 -2.02789 0.0209265 0
M  V30 9469 C 892.873 -1.42268 -1.32187 0
M  V30 9470 O 892.148 -0.575001 -1.85806 0
M  V30 9471 C 892.431 -3.60007 -0.0816674 0
M  V30 9472 C 892.284 -4.30977 1.28759 0
M  V30 9473 C 893.603 -4.32777 -0.799515 0
M  V30 9474 H 890.722 -0.736944 0.00907884 0
M  V30 9475 H 893.364 -1.76282 0.708839 0
M  V30 9476 H 891.514 -3.82722 -0.667537 0
M  V30 9477 H 893.186 -4.19629 1.91597 0
M  V30 9478 H 891.429 -3.9168 1.86466 0
M  V30 9479 H 892.1 -5.39488 1.16861 0
M  V30 9480 H 894.576 -4.15001 -0.30216 0
M  V30 9481 H 893.452 -5.42431 -0.840239 0
M  V30 9482 H 893.713 -4.01358 -1.85375 0
M  V30 9483 N 892.772 -0.284283 -1.55015 0
M  V30 9484 C 893.719 0.599194 -2.22886 0
M  V30 9485 C 894.689 1.14264 -1.20553 0
M  V30 9486 O 895.874 1.19025 -1.49123 0
M  V30 9487 C 893.014 1.77317 -2.96062 0
M  V30 9488 C 892.127 1.26271 -4.13134 0
M  V30 9489 C 891.262 2.39922 -4.73931 0
M  V30 9490 C 890.301 1.85925 -5.8318 0
M  V30 9491 N 889.438 2.93084 -6.38002 0
M  V30 9492 H 894.278 0.0137816 -2.97997 0
M  V30 9493 H 891.815 -0.00496503 -1.47099 0
M  V30 9494 H 893.773 2.46339 -3.36709 0
M  V30 9495 H 892.403 2.33047 -2.23358 0
M  V30 9496 H 891.455 0.465296 -3.77544 0
M  V30 9497 H 892.767 0.827284 -4.91892 0
M  V30 9498 H 891.921 3.1692 -5.17346 0
M  V30 9499 H 890.66 2.86784 -3.9447 0
M  V30 9500 H 889.665 1.07409 -5.39206 0
M  V30 9501 H 890.89 1.39987 -6.64515 0
M  V30 9502 H 888.836 3.3931 -5.61431 0
M  V30 9503 H 888.753 2.53986 -7.12058 0
M  V30 9504 H 890.021 3.7003 -6.86075 0
M  V30 9505 N 894.251 1.57596 -0.0117121 0
M  V30 9506 C 895.199 2.1029 0.994035 0
M  V30 9507 C 896.193 1.02549 1.34833 0
M  V30 9508 O 897.399 1.21003 1.3326 0
M  V30 9509 H 893.774 0.671624 0.338268 0
M  V30 9510 H 895.745 2.93761 0.524147 0
M  V30 9511 C 894.494 2.63099 2.27319 0
M  V30 9512 H 893.817 3.45642 2.00927 0
M  V30 9513 H 895.257 3.03635 2.95942 0
M  V30 9514 C 893.716 1.55044 2.99104 0
M  V30 9515 O 894.246 0.940127 3.90544 0
M  V30 9516 N 892.452 1.27506 2.61133 0
M  V30 9517 H 891.999 1.77322 1.86855 0
M  V30 9518 H 891.957 0.554292 3.09475 0
M  V30 9519 N 895.729 -0.261212 1.5542 0
M  V30 9520 C 896.977 -0.989272 1.76232 0
M  V30 9521 C 897.298 -1.86389 0.573067 0
M  V30 9522 O 896.568 -1.91526 -0.41166 0
M  V30 9523 H 895.148 -0.368256 0.64992 0
M  V30 9524 H 897.81 -0.282603 1.9284 0
M  V30 9525 H 896.906 -1.61935 2.66802 0
M  V30 9526 N 897.207 -1.48554 -0.526253 0
M  V30 9527 C 898.455 -1.56452 -1.27935 0
M  V30 9528 C 898.776 -0.24184 -1.93495 0
M  V30 9529 O 898.046 0.736917 -1.81511 0
M  V30 9530 H 896.626 -0.576379 -0.47518 0
M  V30 9531 H 899.288 -1.85039 -0.612083 0
M  V30 9532 H 898.384 -2.34751 -2.05666 0
M  V30 9533 N 898.685 0.775411 -1.37205 0
M  V30 9534 C 899.91 1.5696 -1.35567 0
M  V30 9535 C 900.335 1.88012 0.0575554 0
M  V30 9536 O 899.693 1.48954 1.03355 0
M  V30 9537 C 899.741 2.85886 -2.19776 0
M  V30 9538 O 898.845 3.80103 -1.59987 0
M  V30 9539 H 898.186 0.475583 -0.463375 0
M  V30 9540 H 900.716 0.96001 -1.80679 0
M  V30 9541 H 900.726 3.35024 -2.32859 0
M  V30 9542 H 899.401 2.62613 -3.22502 0
M  V30 9543 H 897.978 3.38736 -1.55924 0
M  V30 9544 N 900.163 1.21714 1.00117 0
M  V30 9545 C 901.388 1.06357 1.78054 0
M  V30 9546 C 901.813 -0.382075 1.84179 0
M  V30 9547 O 901.171 -1.27575 1.28819 0
M  V30 9548 C 901.219 1.66982 3.19608 0
M  V30 9549 O 900.323 0.917892 4.02055 0
M  V30 9550 H 899.664 0.374074 0.548602 0
M  V30 9551 H 902.194 1.61338 1.25822 0
M  V30 9552 H 902.204 1.71363 3.70268 0
M  V30 9553 H 900.879 2.72185 3.14465 0
M  V30 9554 H 899.456 0.949473 3.6061 0
M  V30 9555 N 901.641 -1.19671 1.02551 0
M  V30 9556 C 903.057 -1.41305 0.741963 0
M  V30 9557 C 903.257 -1.89865 -0.674807 0
M  V30 9558 O 902.313 -2.07323 -1.44129 0
M  V30 9559 C 903.626 -2.42706 1.77522 0
M  V30 9560 C 905.174 -2.56458 1.79438 0
M  V30 9561 C 905.649 -3.61111 2.81715 0
M  V30 9562 N 907.14 -3.68603 2.8051 0
M  V30 9563 C 907.875 -4.49262 3.56302 0
M  V30 9564 N 907.371 -5.33653 4.41799 0
M  V30 9565 N 909.164 -4.43879 3.44859 0
M  V30 9566 H 901.315 -0.8647 1.94002 0
M  V30 9567 H 903.578 -0.442206 0.838545 0
M  V30 9568 H 903.284 -2.14042 2.79068 0
M  V30 9569 H 903.158 -3.41831 1.59472 0
M  V30 9570 H 905.545 -2.84447 0.78573 0
M  V30 9571 H 905.626 -1.57499 2.01563 0
M  V30 9572 H 905.27 -3.33864 3.82749 0
M  V30 9573 H 905.2 -4.59713 2.56849 0
M  V30 9574 H 907.691 -3.08329 2.18498 0
M  V30 9575 H 908.004 -5.92308 4.96378 0
M  V30 9576 H 906.349 -5.33125 4.45873 0
M  V30 9577 H 909.54 -3.7699 2.77482 0
M  V30 9578 H 909.713 -5.06501 4.04179 0
M  V30 9579 N 903.119 -0.802921 -1.35613 0
M  V30 9580 C 904.365 -0.382141 -1.99167 0
M  V30 9581 C 904.698 1.04704 -1.63556 0
M  V30 9582 O 903.973 1.72578 -0.89706 0
M  V30 9583 C 904.256 -0.561493 -3.55695 0
M  V30 9584 C 904.109 -2.03534 -4.01116 0
M  V30 9585 C 905.428 0.0151135 -4.40097 0
M  V30 9586 H 902.547 -0.140322 -0.723518 0
M  V30 9587 H 905.189 -1.01177 -1.6082 0
M  V30 9588 H 903.339 -0.0255083 -3.88492 0
M  V30 9589 H 905.011 -2.63343 -3.78746 0
M  V30 9590 H 903.254 -2.5331 -3.52159 0
M  V30 9591 H 903.925 -2.11173 -5.1001 0
M  V30 9592 H 906.401 -0.442582 -4.1374 0
M  V30 9593 H 905.277 -0.140316 -5.48721 0
M  V30 9594 H 905.538 1.10848 -4.27978 0
M  V30 9595 N 904.597 1.47463 -0.556102 0
M  V30 9596 C 906.013 1.58134 -0.21579 0
M  V30 9597 C 906.213 1.55486 1.28166 0
M  V30 9598 O 905.269 1.45768 2.06174 0
M  V30 9599 C 906.582 2.88686 -0.841464 0
M  V30 9600 C 908.13 3.02268 -0.812591 0
M  V30 9601 C 908.605 4.35518 -1.41731 0
M  V30 9602 N 910.096 4.42151 -1.38045 0
M  V30 9603 C 910.831 5.43817 -1.81799 0
M  V30 9604 N 910.327 6.52299 -2.33404 0
M  V30 9605 N 912.12 5.34855 -1.72877 0
M  V30 9606 H 904.271 1.47428 -1.52901 0
M  V30 9607 H 906.534 0.701586 -0.637559 0
M  V30 9608 H 906.24 2.96358 -1.8938 0
M  V30 9609 H 906.114 3.7572 -0.333846 0
M  V30 9610 H 908.501 2.94194 0.231056 0
M  V30 9611 H 908.582 2.16779 -1.35796 0
M  V30 9612 H 908.226 4.44348 -2.46002 0
M  V30 9613 H 908.156 5.19737 -0.847402 0
M  V30 9614 H 910.647 3.64348 -1.00296 0
M  V30 9615 H 910.96 7.26047 -2.64717 0
M  V30 9616 H 909.305 6.53192 -2.37414 0
M  V30 9617 H 912.496 4.49004 -1.32338 0
M  V30 9618 H 912.669 6.13949 -2.07294 0
M  V30 9619 N 906.075 0.2925 1.54862 0
M  V30 9620 C 907.324 -0.319994 1.99146 0
M  V30 9621 C 907.637 -1.55658 1.18448 0
M  V30 9622 O 908.843 -2.24312 1.52959 0
M  V30 9623 C 907.299 -0.620665 3.54508 0
M  V30 9624 C 906.907 0.597098 4.44003 0
M  V30 9625 C 908.651 -1.19482 4.07338 0
M  V30 9626 C 906.558 0.270049 5.90783 0
M  V30 9627 H 905.488 -0.123342 0.743843 0
M  V30 9628 H 908.139 0.399876 1.7909 0
M  V30 9629 H 906.521 -1.3999 3.7043 0
M  V30 9630 H 907.695 1.37354 4.39853 0
M  V30 9631 H 906.01 1.0893 4.019 0
M  V30 9632 H 908.607 -1.45362 5.14562 0
M  V30 9633 H 908.95 -2.13435 3.57423 0
M  V30 9634 H 909.483 -0.477485 3.94924 0
M  V30 9635 H 906.222 1.17791 6.4483 0
M  V30 9636 H 905.742 -0.469292 5.97961 0
M  V30 9637 H 907.421 -0.131471 6.46866 0
M  V30 9638 N 907.553 -1.57587 0.0200696 0
M  V30 9639 C 908.8 -1.91424 -0.660525 0
M  V30 9640 C 909.128 -0.895626 -1.72652 0
M  V30 9641 O 908.383 0.096771 -1.95461 0
M  V30 9642 C 908.682 -3.32002 -1.32323 0
M  V30 9643 C 908.348 -4.49223 -0.388487 0
M  V30 9644 C 907.01 -4.81021 -0.131184 0
M  V30 9645 C 909.362 -5.20581 0.253906 0
M  V30 9646 C 906.69 -5.81539 0.776471 0
M  V30 9647 C 909.042 -6.22067 1.14956 0
M  V30 9648 C 907.706 -6.52311 1.41584 0
M  V30 9649 H 906.976 -0.700472 -0.241703 0
M  V30 9650 H 909.623 -1.91333 0.0798991 0
M  V30 9651 H 907.928 -3.28312 -2.13819 0
M  V30 9652 H 909.625 -3.5545 -1.85623 0
M  V30 9653 H 906.215 -4.24391 -0.599207 0
M  V30 9654 H 910.399 -4.96253 0.068164 0
M  V30 9655 H 905.655 -6.03322 0.990575 0
M  V30 9656 H 909.829 -6.76484 1.65357 0
M  V30 9657 H 907.456 -7.30017 2.12083 0
M  V30 9658 N 909.032 0.252966 -1.55557 0
M  V30 9659 C 910.257 1.0038 -1.8149 0
M  V30 9660 C 910.682 1.78397 -0.596318 0
M  V30 9661 O 910.04 1.7551 0.454535 0
M  V30 9662 C 910.088 1.9222 -3.05096 0
M  V30 9663 O 909.192 3.01302 -2.81587 0
M  V30 9664 H 908.533 0.285949 -0.599274 0
M  V30 9665 H 911.063 0.275795 -2.02733 0
M  V30 9666 H 911.073 2.338 -3.34368 0
M  V30 9667 H 909.748 1.34852 -3.93431 0
M  V30 9668 H 908.325 2.63894 -2.63466 0
M  V30 9669 N 910.51 1.48831 0.518367 0
M  V30 9670 C 911.926 1.35209 0.847979 0
M  V30 9671 C 912.126 0.371927 1.98038 0
M  V30 9672 O 911.182 -0.202681 2.51685 0
M  V30 9673 C 912.495 2.7552 1.20455 0
M  V30 9674 C 914.043 2.84094 1.31377 0
M  V30 9675 C 914.518 4.25132 1.70372 0
M  V30 9676 N 916.009 4.27861 1.77453 0
M  V30 9677 C 916.744 5.3394 2.09035 0
M  V30 9678 N 916.24 6.50285 2.3896 0
M  V30 9679 N 918.033 5.21343 2.10139 0
M  V30 9680 H 910.184 2.11166 -0.228624 0
M  V30 9681 H 912.447 0.94717 -0.0396599 0
M  V30 9682 H 912.153 3.48861 0.445991 0
M  V30 9683 H 912.027 3.09785 2.15204 0
M  V30 9684 H 914.414 2.11001 2.06307 0
M  V30 9685 H 914.495 2.53433 0.347203 0
M  V30 9686 H 914.139 4.98745 0.959975 0
M  V30 9687 H 914.069 4.53245 2.68098 0
M  V30 9688 H 916.56 3.43945 1.56557 0
M  V30 9689 H 916.873 7.26961 2.62196 0
M  V30 9690 H 915.218 6.5354 2.36454 0
M  V30 9691 H 918.409 4.29462 1.86225 0
M  V30 9692 H 918.582 6.04112 2.34419 0
M  V30 9693 N 911.988 -0.768124 1.37614 0
M  V30 9694 C 913.235 -1.5268 1.33022 0
M  V30 9695 C 913.563 -1.94318 -0.0841918 0
M  V30 9696 O 912.818 -1.64623 -1.0582 0
M  V30 9697 C 913.117 -2.80204 2.21856 0
M  V30 9698 C 912.783 -2.57602 3.7007 0
M  V30 9699 C 911.445 -2.51146 4.10462 0
M  V30 9700 C 913.797 -2.37482 4.63952 0
M  V30 9701 C 911.125 -2.22566 5.42846 0
M  V30 9702 C 913.477 -2.10425 5.96577 0
M  V30 9703 C 912.141 -2.02416 6.36069 0
M  V30 9704 H 911.411 -0.558697 0.486763 0
M  V30 9705 H 914.058 -0.88447 1.69851 0
M  V30 9706 H 912.363 -3.49014 1.78034 0
M  V30 9707 H 914.06 -3.38099 2.15615 0
M  V30 9708 H 910.65 -2.63491 3.38039 0
M  V30 9709 H 914.834 -2.41457 4.33604 0
M  V30 9710 H 910.09 -2.14863 5.72402 0
M  V30 9711 H 914.264 -1.93857 6.68874 0
M  V30 9712 H 911.891 -1.80034 7.38574 0
M  V30 9713 N 913.466 -1.22244 -0.994698 0
M  V30 9714 C 914.877 -1.043 -1.5485 0
M  V30 9715 C 915.228 0.394102 -1.92201 0
M  V30 9716 O 914.353 1.27883 -1.74571 0
M  V30 9717 C 914.948 -1.88708 -2.8138 0
M  V30 9718 C 913.507 -1.75067 -3.3321 0
M  V30 9719 C 912.654 -1.85286 -2.06312 0
M  V30 9720 H 915.605 -1.36115 -0.815988 0
M  V30 9721 H 915.626 -1.40342 -3.53673 0
M  V30 9722 H 915.138 -2.93296 -2.54164 0
M  V30 9723 H 913.239 -0.732047 -3.65338 0
M  V30 9724 H 913.352 -2.57632 -4.03934 0
M  V30 9725 H 911.716 -1.28706 -2.19788 0
M  V30 9726 H 912.499 -2.91401 -1.81494 0
M  V30 9727 N 914.944 1.19125 -1.03184 0
M  V30 9728 C 915.854 2.26112 -0.625329 0
M  V30 9729 C 916.87 1.7056 0.344298 0
M  V30 9730 O 918.046 2.0039 0.20144 0
M  V30 9731 C 915.111 3.46697 0.0145169 0
M  V30 9732 C 914.172 4.17419 -1.00299 0
M  V30 9733 C 913.405 5.32247 -0.393581 0
M  V30 9734 O 913.628 5.64724 0.802659 0
M  V30 9735 O 912.562 5.91428 -1.1179 0
M  V30 9736 H 916.388 2.63131 -1.51643 0
M  V30 9737 H 913.973 1.26036 -0.802197 0
M  V30 9738 H 915.855 4.19762 0.371139 0
M  V30 9739 H 914.53 3.11521 0.879581 0
M  V30 9740 H 913.437 3.4646 -1.41125 0
M  V30 9741 H 914.77 4.56573 -1.83852 0
M  V30 9742 N 916.422 0.810101 1.35185 0
M  V30 9743 C 917.699 0.315235 1.93043 0
M  V30 9744 C 918.079 -1.19567 1.73974 0
M  V30 9745 O 917.427 -1.99682 1.11083 0
M  V30 9746 C 917.637 0.730492 3.41269 0
M  V30 9747 C 918.985 0.721985 4.18417 0
M  V30 9748 O 920.009 0.672258 3.49799 0
M  V30 9749 O 918.868 0.783535 5.40854 0
M  V30 9750 H 915.962 0.0832774 0.822796 0
M  V30 9751 H 918.508 0.894034 1.4424 0
M  V30 9752 H 917.28 1.77169 3.48894 0
M  V30 9753 H 916.903 0.12669 3.97398 0
M  V30 9754 N 917.9 -1.47166 0.563914 0
M  V30 9755 C 918.833 -2.27058 -0.227989 0
M  V30 9756 C 919.811 -1.34468 -0.914179 0
M  V30 9757 O 920.995 -1.63857 -0.931829 0
M  V30 9758 C 918.122 -3.11689 -1.32543 0
M  V30 9759 C 917.168 -4.19906 -0.747084 0
M  V30 9760 S 918.001 -5.33916 0.41153 0
M  V30 9761 C 919.157 -6.22112 -0.687566 0
M  V30 9762 H 919.39 -2.93876 0.449939 0
M  V30 9763 H 916.923 -1.50372 0.350382 0
M  V30 9764 H 918.881 -3.61017 -1.95389 0
M  V30 9765 H 917.542 -2.44221 -1.97522 0
M  V30 9766 H 916.735 -4.78876 -1.57141 0
M  V30 9767 H 916.337 -3.73493 -0.194671 0
M  V30 9768 H 918.629 -6.58867 -1.578 0
M  V30 9769 H 919.572 -7.07971 -0.135058 0
M  V30 9770 H 919.98 -5.55871 -0.983255 0
M  V30 9771 N 919.378 -0.300708 -1.54705 0
M  V30 9772 C 920.311 0.617513 -2.19686 0
M  V30 9773 C 921.289 1.1331 -1.16617 0
M  V30 9774 O 922.473 1.20135 -1.45258 0
M  V30 9775 C 919.6 1.84486 -2.84047 0
M  V30 9776 C 918.646 1.46253 -4.0064 0
M  V30 9777 S 919.479 0.518718 -5.32982 0
M  V30 9778 C 920.635 1.75387 -6.00825 0
M  V30 9779 H 920.868 0.0654548 -2.97228 0
M  V30 9780 H 918.401 -0.0848492 -1.54167 0
M  V30 9781 H 920.359 2.54921 -3.21754 0
M  V30 9782 H 919.02 2.36808 -2.06351 0
M  V30 9783 H 918.213 2.37648 -4.44454 0
M  V30 9784 H 917.815 0.838129 -3.64488 0
M  V30 9785 H 920.107 2.69448 -6.21614 0
M  V30 9786 H 921.05 1.35829 -6.9495 0
M  V30 9787 H 921.458 1.93045 -5.30466 0
M  V30 9788 N 920.856 1.57574 -0.0284266 0
M  V30 9789 C 921.789 2.05684 0.988401 0
M  V30 9790 C 922.767 0.952468 1.31783 0
M  V30 9791 O 923.951 1.22274 1.43462 0
M  V30 9792 C 921.078 2.47832 2.30862 0
M  V30 9793 C 920.124 3.69282 2.13384 0
M  V30 9794 S 920.957 5.15962 1.43331 0
M  V30 9795 C 922.113 5.61404 2.76723 0
M  V30 9796 H 922.346 2.9161 0.578873 0
M  V30 9797 H 919.879 1.53309 0.183244 0
M  V30 9798 H 921.837 2.7278 3.06759 0
M  V30 9799 H 920.498 1.62253 2.68947 0
M  V30 9800 H 919.691 3.96618 3.10983 0
M  V30 9801 H 919.293 3.44482 1.45629 0
M  V30 9802 H 921.585 5.65601 3.72963 0
M  V30 9803 H 922.528 6.60956 2.54053 0
M  V30 9804 H 922.936 4.89051 2.81939 0
M  V30 9805 N 922.334 -0.244713 1.55689 0
M  V30 9806 C 923.264 -1.30667 1.93516 0
M  V30 9807 C 924.245 -1.50094 0.800371 0
M  V30 9808 O 925.43 -1.62665 1.06083 0
M  V30 9809 C 922.56 -2.66101 2.23176 0
M  V30 9810 C 921.514 -2.61366 3.38927 0
M  V30 9811 C 920.84 -4.00616 3.54134 0
M  V30 9812 C 922.14 -2.18161 4.74555 0
M  V30 9813 H 923.834 -0.992546 2.82469 0
M  V30 9814 H 921.38 -0.476018 1.35905 0
M  V30 9815 H 923.333 -3.4053 2.48228 0
M  V30 9816 H 922.057 -2.99154 1.31051 0
M  V30 9817 H 920.716 -1.89395 3.13887 0
M  V30 9818 H 920.364 -4.30938 2.59426 0
M  V30 9819 H 920.064 -3.98335 4.31975 0
M  V30 9820 H 921.588 -4.76741 3.8151 0
M  V30 9821 H 923.002 -2.82323 4.98965 0
M  V30 9822 H 921.399 -2.26988 5.55515 0
M  V30 9823 H 922.469 -1.13333 4.7147 0
M  V30 9824 N 923.813 -1.49104 -0.510467 0
M  V30 9825 C 924.76 -1.65074 -1.61305 0
M  V30 9826 C 925.73 -0.492362 -1.58635 0
M  V30 9827 O 926.915 -0.718241 -1.76765 0
M  V30 9828 C 924.055 -1.71457 -2.99493 0
M  V30 9829 C 923.168 -2.98536 -3.12251 0
M  V30 9830 C 922.303 -2.95957 -4.41116 0
M  V30 9831 C 921.342 -4.17655 -4.47471 0
M  V30 9832 N 920.479 -4.13041 -5.67751 0
M  V30 9833 H 925.319 -2.59222 -1.46996 0
M  V30 9834 H 922.856 -1.28535 -0.715346 0
M  V30 9835 H 924.814 -1.7314 -3.79577 0
M  V30 9836 H 923.444 -0.807834 -3.12528 0
M  V30 9837 H 922.496 -3.06509 -2.25292 0
M  V30 9838 H 923.808 -3.88527 -3.12807 0
M  V30 9839 H 922.962 -2.96149 -5.2951 0
M  V30 9840 H 921.701 -2.03728 -4.4311 0
M  V30 9841 H 920.706 -4.17717 -3.57481 0
M  V30 9842 H 921.931 -5.11066 -4.472 0
M  V30 9843 H 919.877 -3.23643 -5.70606 0
M  V30 9844 H 919.794 -4.96757 -5.69884 0
M  V30 9845 H 921.062 -4.17322 -6.58379 0
M  V30 9846 N 925.291 0.760815 -1.38019 0
M  V30 9847 C 926.238 1.8744 -1.34666 0
M  V30 9848 C 927.208 1.64762 -0.210386 0
M  V30 9849 O 928.393 1.86528 -0.401479 0
M  V30 9850 C 925.533 3.24648 -1.17037 0
M  V30 9851 C 924.646 3.59206 -2.3999 0
M  V30 9852 C 923.781 4.8568 -2.15148 0
M  V30 9853 C 922.82 5.13002 -3.3391 0
M  V30 9854 N 921.957 6.30668 -3.08549 0
M  V30 9855 H 926.797 1.8964 -2.29871 0
M  V30 9856 H 924.334 0.927004 -1.14215 0
M  V30 9857 H 926.292 4.03814 -1.04834 0
M  V30 9858 H 924.922 3.21793 -0.254758 0
M  V30 9859 H 923.974 2.74939 -2.62893 0
M  V30 9860 H 925.286 3.75328 -3.28527 0
M  V30 9861 H 924.44 5.72773 -2.00039 0
M  V30 9862 H 923.179 4.71682 -1.23965 0
M  V30 9863 H 922.184 4.2438 -3.49545 0
M  V30 9864 H 923.409 5.28901 -4.25958 0
M  V30 9865 H 921.355 6.18008 -2.20006 0
M  V30 9866 H 921.272 6.47257 -3.90633 0
M  V30 9867 H 922.54 7.20669 -2.9708 0
M  V30 9868 N 926.769 1.22769 0.988202 0
M  V30 9869 C 927.994 1.08239 1.76915 0
M  V30 9870 C 928.419 -0.362519 1.84574 0
M  V30 9871 O 927.777 -1.26202 1.30165 0
M  V30 9872 C 927.825 1.70363 3.17819 0
M  V30 9873 O 926.929 0.960484 4.01059 0
M  V30 9874 H 926.27 0.379872 0.544604 0
M  V30 9875 H 928.8 1.62663 1.24104 0
M  V30 9876 H 928.81 1.7528 3.6843 0
M  V30 9877 H 927.485 2.75505 3.1156 0
M  V30 9878 H 926.062 0.987667 3.59582 0
M  V30 9879 N 928.247 -1.18576 1.03814 0
M  V30 9880 C 929.21 -2.2033 0.63146 0
M  V30 9881 C 930.21 -1.57787 -0.309816 0
M  V30 9882 O 931.4 -1.73938 -0.0955598 0
M  V30 9883 C 928.532 -3.40818 -0.0745963 0
M  V30 9884 H 929.725 -2.57824 1.53189 0
M  V30 9885 H 927.278 -1.32416 0.830398 0
M  V30 9886 H 928.013 -3.08853 -0.988947 0
M  V30 9887 H 927.798 -3.87453 0.6019 0
M  V30 9888 H 929.288 -4.16166 -0.345727 0
M  V30 9889 N 929.725 -0.817259 -1.34754 0
M  V30 9890 C 930.972 -0.402648 -1.98457 0
M  V30 9891 C 931.3 1.03287 -1.64809 0
M  V30 9892 O 930.555 1.73316 -0.908851 0
M  V30 9893 C 930.854 -0.5453 -3.53216 0
M  V30 9894 C 930.52 -1.9457 -4.06759 0
M  V30 9895 C 929.182 -2.32881 -4.21094 0
M  V30 9896 C 931.534 -2.86141 -4.35629 0
M  V30 9897 C 928.862 -3.62108 -4.61622 0
M  V30 9898 C 931.214 -4.14826 -4.776 0
M  V30 9899 C 929.878 -4.53121 -4.9014 0
M  V30 9900 H 929.148 -0.147339 -0.726204 0
M  V30 9901 H 931.795 -1.04011 -1.60791 0
M  V30 9902 H 930.1 0.175576 -3.91406 0
M  V30 9903 H 931.797 -0.205112 -4.00475 0
M  V30 9904 H 928.387 -1.6381 -3.96061 0
M  V30 9905 H 932.571 -2.57788 -4.24098 0
M  V30 9906 H 927.827 -3.91613 -4.69521 0
M  V30 9907 H 932.001 -4.85874 -4.98899 0
M  V30 9908 H 929.628 -5.53307 -5.21302 0
M  V30 9909 N 931.203 1.46865 -0.571711 0
M  V30 9910 C 932.15 2.30189 0.167808 0
M  V30 9911 C 933.12 1.3995 0.89461 0
M  V30 9912 O 934.305 1.68905 0.887451 0
M  V30 9913 C 931.445 3.24205 1.1826 0
M  V30 9914 C 930.558 4.2954 0.460376 0
M  V30 9915 C 929.693 5.10693 1.46173 0
M  V30 9916 C 928.732 6.07788 0.725291 0
M  V30 9917 N 927.869 6.81847 1.67417 0
M  V30 9918 H 932.709 2.92902 -0.548831 0
M  V30 9919 H 930.246 1.44362 -0.282474 0
M  V30 9920 H 932.204 3.77147 1.7837 0
M  V30 9921 H 930.834 2.63324 1.86709 0
M  V30 9922 H 929.886 3.79541 -0.255546 0
M  V30 9923 H 931.198 4.98665 -0.115855 0
M  V30 9924 H 930.352 5.67857 2.13595 0
M  V30 9925 H 929.091 4.41502 2.07188 0
M  V30 9926 H 928.096 5.49787 0.037228 0
M  V30 9927 H 929.321 6.78993 0.120678 0
M  V30 9928 H 927.267 6.15376 2.27263 0
M  V30 9929 H 927.184 7.47195 1.15046 0
M  V30 9930 H 928.452 7.43577 2.33908 0
M  V30 9931 N 932.681 0.308908 1.54543 0
M  V30 9932 C 933.628 -0.563659 2.23811 0
M  V30 9933 C 934.598 -1.12332 1.22355 0
M  V30 9934 O 935.783 -1.16638 1.50997 0
M  V30 9935 C 932.923 -1.72585 2.98845 0
M  V30 9936 C 932.036 -1.19682 4.1509 0
M  V30 9937 C 931.171 -2.32351 4.77688 0
M  V30 9938 C 930.21 -1.76623 5.86064 0
M  V30 9939 N 929.347 -2.82896 6.42584 0
M  V30 9940 H 934.187 0.0336288 2.97981 0
M  V30 9941 H 931.724 0.0283666 1.47073 0
M  V30 9942 H 933.682 -2.40951 3.40586 0
M  V30 9943 H 932.312 -2.29464 2.27037 0
M  V30 9944 H 931.364 -0.405173 3.78236 0
M  V30 9945 H 932.676 -0.748923 4.93146 0
M  V30 9946 H 931.83 -3.0865 5.22322 0
M  V30 9947 H 930.569 -2.80472 3.98982 0
M  V30 9948 H 929.574 -0.988171 5.40847 0
M  V30 9949 H 930.799 -1.29398 6.66658 0
M  V30 9950 H 928.745 -3.30336 5.66758 0
M  V30 9951 H 928.662 -2.42626 7.16009 0
M  V30 9952 H 929.93 -3.59068 6.91875 0
M  V30 9953 N 934.159 -1.57557 0.0367827 0
M  V30 9954 C 935.089 -2.13712 -0.940719 0
M  V30 9955 C 936.07 -1.05515 -1.33419 0
M  V30 9956 O 937.255 -1.33385 -1.41146 0
M  V30 9957 C 934.385 -2.67043 -2.22048 0
M  V30 9958 C 933.339 -3.80096 -1.96752 0
M  V30 9959 C 932.665 -4.19886 -3.31059 0
M  V30 9960 C 933.965 -5.05848 -1.30058 0
M  V30 9961 H 935.659 -2.9564 -0.473033 0
M  V30 9962 H 933.205 -1.42214 -0.226089 0
M  V30 9963 H 935.158 -3.04964 -2.90818 0
M  V30 9964 H 933.882 -1.82287 -2.70996 0
M  V30 9965 H 932.541 -3.42625 -1.30398 0
M  V30 9966 H 932.189 -3.32101 -3.77781 0
M  V30 9967 H 931.889 -4.96073 -3.14937 0
M  V30 9968 H 933.413 -4.60395 -4.01084 0
M  V30 9969 H 934.827 -5.41306 -1.8884 0
M  V30 9970 H 933.224 -5.87084 -1.24309 0
M  V30 9971 H 934.294 -4.84122 -0.274591 0
M  V30 9972 N 935.637 0.236453 -1.55816 0
M  V30 9973 C 936.886 0.960981 -1.77336 0
M  V30 9974 C 937.199 1.86085 -0.602641 0
M  V30 9975 O 938.405 2.62291 -0.701106 0
M  V30 9976 C 936.861 1.75884 -3.13995 0
M  V30 9977 C 936.469 0.905849 -4.38746 0
M  V30 9978 C 938.213 2.47548 -3.44848 0
M  V30 9979 C 936.12 1.7002 -5.66434 0
M  V30 9980 H 935.05 0.362547 -0.661117 0
M  V30 9981 H 937.701 0.215303 -1.82233 0
M  V30 9982 H 936.083 2.54687 -3.03234 0
M  V30 9983 H 937.257 0.159415 -4.60524 0
M  V30 9984 H 935.572 0.30205 -4.15303 0
M  V30 9985 H 938.169 3.07452 -4.37467 0
M  V30 9986 H 938.512 3.19689 -2.66655 0
M  V30 9987 H 939.045 1.75747 -3.56872 0
M  V30 9988 H 935.784 1.02234 -6.47479 0
M  V30 9989 H 935.304 2.42164 -5.48741 0
M  V30 9990 H 936.983 2.26469 -6.0607 0
M  V30 9991 N 937.115 1.49373 0.502552 0
M  V30 9992 C 938.062 1.65927 1.60427 0
M  V30 9993 C 939.032 0.500768 1.58371 0
M  V30 9994 O 940.217 0.727606 1.76382 0
M  V30 9995 C 937.357 1.73043 2.9858 0
M  V30 9996 C 936.47 3.00187 3.10663 0
M  V30 9997 C 935.605 2.98292 4.3954 0
M  V30 9998 C 934.644 4.20022 4.4525 0
M  V30 9999 N 933.781 4.16046 5.65553 0
M  V30 10000 H 938.621 2.59998 1.45619 0
M  V30 10001 H 936.158 1.28912 0.708519 0
M  V30 10002 H 938.116 1.7515 3.78653 0
M  V30 10003 H 936.746 0.824397 3.12095 0
M  V30 10004 H 935.798 3.07699 2.23663 0
M  V30 10005 H 937.11 3.9018 3.10742 0
M  V30 10006 H 936.264 2.98953 5.27932 0
M  V30 10007 H 935.003 2.06075 4.42023 0
M  V30 10008 H 934.008 4.19607 3.5526 0
M  V30 10009 H 935.233 5.13431 4.44484 0
M  V30 10010 H 933.179 3.26665 5.68881 0
M  V30 10011 H 933.096 4.99773 5.67242 0
M  V30 10012 H 934.364 4.20807 6.56156 0
M  V30 10013 N 938.594 -0.753485 1.38421 0
M  V30 10014 C 939.841 -1.51261 1.34634 0
M  V30 10015 C 940.169 -1.94396 -0.0635771 0
M  V30 10016 O 939.424 -1.65736 -1.04068 0
M  V30 10017 C 939.723 -2.77836 2.24816 0
M  V30 10018 C 939.389 -2.53662 3.72782 0
M  V30 10019 C 938.051 -2.46779 4.13103 0
M  V30 10020 C 940.403 -2.32548 4.66445 0
M  V30 10021 C 937.731 -2.16796 5.45176 0
M  V30 10022 C 940.083 -2.04085 5.98775 0
M  V30 10023 C 938.747 -1.95658 6.3818 0
M  V30 10024 H 938.017 -0.553503 0.492661 0
M  V30 10025 H 940.664 -0.866406 1.7078 0
M  V30 10026 H 938.969 -3.47106 1.81726 0
M  V30 10027 H 940.666 -3.35793 2.19189 0
M  V30 10028 H 937.256 -2.59891 3.40815 0
M  V30 10029 H 941.44 -2.36845 4.3614 0
M  V30 10030 H 936.696 -2.0878 5.74648 0
M  V30 10031 H 940.87 -1.86751 6.70893 0
M  V30 10032 H 938.497 -1.7219 7.40442 0
M  V30 10033 N 940.072 -1.23292 -0.981677 0
M  V30 10034 C 941.302 -1.0893 -1.7555 0
M  V30 10035 C 941.71 0.362219 -1.857 0
M  V30 10036 O 941.053 1.2624 -1.33451 0
M  V30 10037 C 941.115 -1.6389 -3.19969 0
M  V30 10038 C 940.779 -3.12632 -3.33332 0
M  V30 10039 C 941.776 -4.0994 -3.19758 0
M  V30 10040 C 939.461 -3.52314 -3.58022 0
M  V30 10041 C 941.455 -5.44915 -3.30676 0
M  V30 10042 C 939.142 -4.87434 -3.6858 0
M  V30 10043 C 940.14 -5.83544 -3.54916 0
M  V30 10044 O 939.828 -7.16209 -3.65102 0
M  V30 10045 H 939.56 -0.381901 -0.557788 0
M  V30 10046 H 942.114 -1.63586 -1.24213 0
M  V30 10047 H 940.344 -1.03653 -3.72549 0
M  V30 10048 H 942.033 -1.45023 -3.79108 0
M  V30 10049 H 942.799 -3.80625 -3.00582 0
M  V30 10050 H 938.678 -2.78022 -3.67729 0
M  V30 10051 H 942.222 -6.19913 -3.19928 0
M  V30 10052 H 938.119 -5.16426 -3.87265 0
M  V30 10053 H 938.887 -7.23941 -3.81905 0
M  V30 10054 N 941.55 1.18024 -1.04442 0
M  V30 10055 C 942.775 1.92573 -0.770097 0
M  V30 10056 C 943.2 1.75871 0.667169 0
M  V30 10057 O 942.558 1.07136 1.46258 0
M  V30 10058 C 942.606 3.41904 -1.14602 0
M  V30 10059 O 941.71 4.11491 -0.273712 0
M  V30 10060 H 941.051 0.600636 -0.283076 0
M  V30 10061 H 943.581 1.49645 -1.39526 0
M  V30 10062 H 943.591 3.92623 -1.10956 0
M  V30 10063 H 942.266 3.53382 -2.19304 0
M  V30 10064 H 940.843 3.71059 -0.370124 0
M  V30 10065 N 943.028 0.824394 1.34319 0
M  V30 10066 C 944.274 0.413779 1.98534 0
M  V30 10067 C 944.607 -1.02089 1.65201 0
M  V30 10068 O 943.882 -1.71129 0.924402 0
M  V30 10069 C 944.165 0.61801 3.54757 0
M  V30 10070 C 944.018 2.0989 3.97827 0
M  V30 10071 C 945.337 0.0549041 4.40066 0
M  V30 10072 H 942.456 0.151815 0.721194 0
M  V30 10073 H 945.098 1.03723 1.5919 0
M  V30 10074 H 943.248 0.0873107 3.88402 0
M  V30 10075 H 944.92 2.69335 3.74508 0
M  V30 10076 H 943.163 2.58881 3.48085 0
M  V30 10077 H 943.834 2.1926 5.06586 0
M  V30 10078 H 946.31 0.508348 4.12983 0
M  V30 10079 H 945.186 0.227595 5.48428 0
M  V30 10080 H 945.447 -1.04025 4.29687 0
M  V30 10081 N 944.506 -1.46559 0.579492 0
M  V30 10082 C 945.917 -1.8608 0.152052 0
M  V30 10083 C 946.268 -1.48346 -1.28405 0
M  V30 10084 O 945.393 -0.89685 -1.9694 0
M  V30 10085 C 945.988 -3.37729 0.269171 0
M  V30 10086 C 944.547 -3.76258 -0.103376 0
M  V30 10087 C 943.694 -2.70584 0.60659 0
M  V30 10088 H 946.645 -1.3776 0.787904 0
M  V30 10089 H 946.666 -3.77116 -0.506339 0
M  V30 10090 H 946.178 -3.65162 1.31448 0
M  V30 10091 H 944.279 -3.54443 -1.14895 0
M  V30 10092 H 944.392 -4.78335 0.270701 0
M  V30 10093 H 942.756 -2.54656 0.0471984 0
M  V30 10094 H 943.539 -3.00856 1.65349 0
M  V30 10095 N 945.984 -0.3171 -1.54377 0
M  V30 10096 C 947.209 0.292311 -2.0533 0
M  V30 10097 C 947.634 1.45503 -1.19207 0
M  V30 10098 O 946.992 1.80197 -0.199721 0
M  V30 10099 C 947.04 0.710787 -3.53525 0
M  V30 10100 O 946.144 1.81387 -3.70368 0
M  V30 10101 H 945.485 0.0539976 -0.661801 0
M  V30 10102 H 948.015 -0.463629 -1.99278 0
M  V30 10103 H 948.025 0.995216 -3.95676 0
M  V30 10104 H 946.7 -0.139668 -4.15665 0
M  V30 10105 H 945.277 1.52875 -3.40123 0
M  V30 10106 N 947.462 1.57535 -0.0451378 0
M  V30 10107 C 948.709 1.92451 0.629987 0
M  V30 10108 C 949.037 0.92298 1.71206 0
M  V30 10109 O 948.292 -0.0656626 1.9559 0
M  V30 10110 C 948.591 3.34065 1.27024 0
M  V30 10111 C 948.257 4.49785 0.316971 0
M  V30 10112 C 946.919 4.81169 0.0546406 0
M  V30 10113 C 949.271 5.20111 -0.336693 0
M  V30 10114 C 946.599 5.8023 -0.86889 0
M  V30 10115 C 948.951 6.2016 -1.24838 0
M  V30 10116 C 947.615 6.49976 -1.51944 0
M  V30 10117 H 946.885 0.704228 0.230529 0
M  V30 10118 H 949.532 1.91182 -0.110328 0
M  V30 10119 H 947.837 3.31672 2.08568 0
M  V30 10120 H 949.534 3.58359 1.79945 0
M  V30 10121 H 946.124 4.2529 0.531614 0
M  V30 10122 H 950.308 4.96082 -0.147105 0
M  V30 10123 H 945.564 6.0167 -1.08643 0
M  V30 10124 H 949.738 6.73767 -1.76098 0
M  V30 10125 H 947.365 7.26551 -2.2367 0
M  V30 10126 N 948.94 -0.228186 1.55939 0
M  V30 10127 C 950.351 -0.795734 1.68893 0
M  V30 10128 C 950.702 -1.85261 0.645967 0
M  V30 10129 O 949.827 -2.15434 -0.2042 0
M  V30 10130 C 950.422 -1.45013 3.06197 0
M  V30 10131 C 948.981 -1.96514 3.21028 0
M  V30 10132 C 948.128 -0.822918 2.64808 0
M  V30 10133 H 951.079 -0.0036485 1.587 0
M  V30 10134 H 951.1 -2.31875 3.01685 0
M  V30 10135 H 950.612 -0.680678 3.82084 0
M  V30 10136 H 948.713 -2.76282 2.49998 0
M  V30 10137 H 948.826 -2.14967 4.28166 0
M  V30 10138 H 947.19 -1.22846 2.23116 0
M  V30 10139 H 947.973 -0.0662493 3.43236 0
M  V30 10140 N 950.418 -1.49637 -0.494624 0
M  V30 10141 C 951.328 -1.69522 -1.62172 0
M  V30 10142 C 952.344 -0.577894 -1.64123 0
M  V30 10143 O 953.52 -0.853382 -1.82426 0
M  V30 10144 C 950.585 -1.7633 -2.9851 0
M  V30 10145 C 949.646 -2.99944 -3.07135 0
M  V30 10146 C 948.879 -3.06419 -4.36971 0
M  V30 10147 O 949.102 -2.20312 -5.26136 0
M  V30 10148 O 948.036 -3.9894 -4.507 0
M  V30 10149 H 951.862 -2.65017 -1.48324 0
M  V30 10150 H 949.447 -1.33454 -0.671603 0
M  V30 10151 H 951.329 -1.83125 -3.7953 0
M  V30 10152 H 950.004 -0.840155 -3.12607 0
M  V30 10153 H 948.911 -2.98664 -2.2528 0
M  V30 10154 H 950.244 -3.9176 -2.97968 0
M  V30 10155 N 951.896 0.746133 -1.38819 0
M  V30 10156 C 953.136 1.51821 -1.36857 0
M  V30 10157 C 953.5 1.9196 0.0391461 0
M  V30 10158 O 954.701 2.68172 0.183689 0
M  V30 10159 C 952.972 2.73214 -2.3041 0
M  V30 10160 S 954.531 3.62995 -2.46536 0
M  V30 10161 H 951.349 0.51945 -0.485482 0
M  V30 10162 H 953.951 0.875244 -1.74813 0
M  V30 10163 H 952.655 2.41847 -3.31569 0
M  V30 10164 H 952.186 3.42449 -1.9363 0
M  V30 10165 H 954.201 4.66353 -1.69498 0
M  V30 10166 N 953.375 1.23811 0.975125 0
M  V30 10167 C 954.6 1.10109 1.75757 0
M  V30 10168 C 955.025 -0.342922 1.84948 0
M  V30 10169 O 954.383 -1.24814 1.31496 0
M  V30 10170 C 954.431 1.73724 3.15994 0
M  V30 10171 O 953.535 1.00297 4.00018 0
M  V30 10172 H 952.876 0.385627 0.540544 0
M  V30 10173 H 955.406 1.63971 1.22372 0
M  V30 10174 H 955.416 1.79178 3.6655 0
M  V30 10175 H 954.091 2.78794 3.0862 0
M  V30 10176 H 952.668 1.02575 3.58515 0
M  V30 10177 N 954.853 -1.17469 1.05066 0
M  V30 10178 C 956.078 -1.92162 0.780298 0
M  V30 10179 C 956.503 -1.76222 -0.657832 0
M  V30 10180 O 955.861 -1.0791 -1.45688 0
M  V30 10181 C 955.909 -3.41292 1.16414 0
M  V30 10182 O 955.013 -4.1134 0.295531 0
M  V30 10183 H 954.354 -0.599127 0.286257 0
M  V30 10184 H 956.884 -1.48903 1.40318 0
M  V30 10185 H 956.894 -3.92029 1.13036 0
M  V30 10186 H 955.569 -3.52214 2.21175 0
M  V30 10187 H 954.146 -3.70857 0.389797 0
M  V30 10188 N 956.331 -0.831506 -1.3388 0
M  V30 10189 C 957.263 -0.216908 -2.28171 0
M  V30 10190 C 958.276 0.598141 -1.51414 0
M  V30 10191 O 959.465 0.426416 -1.73332 0
M  V30 10192 C 956.565 0.713831 -3.31297 0
M  V30 10193 C 955.738 -0.0602673 -4.37358 0
M  V30 10194 C 954.797 0.792696 -5.20195 0
M  V30 10195 O 953.823 0.234564 -5.68716 0
M  V30 10196 N 955.025 2.11119 -5.40748 0
M  V30 10197 H 957.79 -1.02704 -2.81553 0
M  V30 10198 H 955.351 -0.689272 -1.46495 0
M  V30 10199 H 957.343 1.28925 -3.83615 0
M  V30 10200 H 955.913 1.42469 -2.78247 0
M  V30 10201 H 955.133 -0.817041 -3.8564 0
M  V30 10202 H 956.421 -0.592822 -5.05335 0
M  V30 10203 H 955.819 2.58828 -5.03016 0
M  V30 10204 H 954.376 2.63527 -5.96151 0
M  V30 10205 N 957.809 1.4625 -0.587256 0
M  V30 10206 C 959.049 2.04254 -0.0773169 0
M  V30 10207 C 959.413 1.44831 1.26047 0
M  V30 10208 O 960.614 1.94063 1.85992 0
M  V30 10209 C 958.885 3.57396 -0.0172813 0
M  V30 10210 S 960.444 4.36644 0.434422 0
M  V30 10211 H 957.262 0.709892 -0.0396783 0
M  V30 10212 H 959.864 1.79232 -0.780779 0
M  V30 10213 H 958.568 3.98161 -0.994795 0
M  V30 10214 H 958.099 3.86962 0.70881 0
M  V30 10215 H 960.114 4.66597 1.68824 0
M  V30 10216 N 959.287 0.325282 1.54207 0
M  V30 10217 C 960.535 -0.276229 2.00203 0
M  V30 10218 C 960.856 -1.52519 1.21503 0
M  V30 10219 O 960.126 -1.93313 0.317302 0
M  V30 10220 H 958.706 -0.105059 0.739575 0
M  V30 10221 H 961.368 0.442225 1.89817 0
M  V30 10222 H 960.464 -0.531427 3.07542 0
M  V30 10223 N 960.765 -1.57509 0.0534917 0
M  V30 10224 C 961.695 -2.14698 -0.917999 0
M  V30 10225 C 962.676 -1.06924 -1.32292 0
M  V30 10226 O 963.861 -1.34875 -1.39723 0
M  V30 10227 C 960.991 -2.69383 -2.19203 0
M  V30 10228 C 959.945 -3.82161 -1.9271 0
M  V30 10229 C 959.271 -4.23373 -3.26587 0
M  V30 10230 C 960.571 -5.07199 -1.24686 0
M  V30 10231 H 962.265 -2.96125 -0.44165 0
M  V30 10232 H 959.811 -1.42446 -0.210993 0
M  V30 10233 H 961.764 -3.08031 -2.87567 0
M  V30 10234 H 960.488 -1.85151 -2.69048 0
M  V30 10235 H 959.147 -3.43989 -1.26757 0
M  V30 10236 H 958.795 -3.36089 -3.74237 0
M  V30 10237 H 958.495 -4.99385 -3.09658 0
M  V30 10238 H 960.019 -4.64623 -3.96178 0
M  V30 10239 H 961.433 -5.43279 -1.83088 0
M  V30 10240 H 959.83 -5.88369 -1.18076 0
M  V30 10241 H 960.9 -4.84386 -0.223227 0
M  V30 10242 N 962.243 0.219913 -1.56058 0
M  V30 10243 C 963.175 1.29604 -1.89038 0
M  V30 10244 C 964.188 1.42964 -0.778791 0
M  V30 10245 O 965.377 1.43832 -1.0571 0
M  V30 10246 C 962.477 2.67145 -2.08534 0
M  V30 10247 C 961.65 2.75712 -3.39561 0
M  V30 10248 C 960.709 3.94279 -3.48469 0
M  V30 10249 O 959.735 3.8254 -4.21487 0
M  V30 10250 N 960.937 5.08655 -2.79732 0
M  V30 10251 H 963.702 1.01638 -2.81939 0
M  V30 10252 H 961.263 0.409945 -1.56624 0
M  V30 10253 H 963.255 3.44847 -2.11808 0
M  V30 10254 H 961.825 2.87704 -1.2225 0
M  V30 10255 H 961.045 1.84475 -3.48371 0
M  V30 10256 H 962.333 2.78407 -4.25872 0
M  V30 10257 H 961.731 5.21088 -2.2019 0
M  V30 10258 H 960.288 5.84394 -2.88665 0
M  V30 10259 N 963.721 1.49897 0.486681 0
M  V30 10260 C 964.651 1.7054 1.59494 0
M  V30 10261 C 965.632 0.554184 1.60819 0
M  V30 10262 O 966.817 0.791617 1.77333 0
M  V30 10263 C 963.947 1.78517 2.97908 0
M  V30 10264 C 962.901 2.93571 3.11449 0
M  V30 10265 C 962.227 2.86674 4.51356 0
M  V30 10266 C 963.527 4.34308 2.90127 0
M  V30 10267 H 965.221 2.63329 1.42472 0
M  V30 10268 H 962.767 1.2672 0.683969 0
M  V30 10269 H 964.72 1.91544 3.75352 0
M  V30 10270 H 963.444 0.823381 3.16051 0
M  V30 10271 H 962.103 2.80169 2.36433 0
M  V30 10272 H 961.751 1.88373 4.66395 0
M  V30 10273 H 961.451 3.63903 4.61355 0
M  V30 10274 H 962.975 3.01728 5.30841 0
M  V30 10275 H 964.389 4.48317 3.57331 0
M  V30 10276 H 962.786 5.12869 3.11585 0
M  V30 10277 H 963.856 4.47759 1.86119 0
M  V30 10278 N 965.199 -0.738761 1.39212 0
M  V30 10279 C 966.61 -1.31684 1.32348 0
M  V30 10280 C 966.961 -1.96195 -0.0139041 0
M  V30 10281 O 966.086 -1.96056 -0.916025 0
M  V30 10282 C 966.681 -2.39444 2.39691 0
M  V30 10283 C 965.24 -2.92935 2.36359 0
M  V30 10284 C 964.387 -1.66465 2.21776 0
M  V30 10285 H 967.338 -0.536543 1.49355 0
M  V30 10286 H 967.359 -3.19744 2.06262 0
M  V30 10287 H 966.871 -1.92463 3.37016 0
M  V30 10288 H 964.972 -3.44207 1.42662 0
M  V30 10289 H 965.085 -3.46306 3.31073 0
M  V30 10290 H 963.449 -1.90657 1.68884 0
M  V30 10291 H 964.232 -1.21541 3.21065 0
M  V30 10292 N 966.677 -1.24326 -0.968545 0
M  V30 10293 C 967.917 -1.09434 -1.72637 0
M  V30 10294 C 968.281 0.360781 -1.8858 0
M  V30 10295 O 969.482 0.631188 -2.61284 0
M  V30 10296 C 967.753 -1.81285 -3.08011 0
M  V30 10297 S 969.312 -1.82113 -3.99225 0
M  V30 10298 H 966.13 -0.391409 -0.593565 0
M  V30 10299 H 968.732 -1.57643 -1.15624 0
M  V30 10300 H 967.436 -2.86274 -2.94067 0
M  V30 10301 H 966.967 -1.33405 -3.7009 0
M  V30 10302 H 968.982 -0.888196 -4.88186 0
M  V30 10303 N 968.156 1.1691 -1.05688 0
M  V30 10304 C 969.396 1.88972 -0.779044 0
M  V30 10305 C 969.76 1.7949 0.681708 0
M  V30 10306 O 970.961 2.46418 1.07386 0
M  V30 10307 C 969.232 3.34737 -1.25242 0
M  V30 10308 S 970.791 4.24718 -1.10272 0
M  V30 10309 H 967.609 0.652349 -0.282776 0
M  V30 10310 H 970.211 1.41162 -1.35254 0
M  V30 10311 H 968.915 3.39175 -2.3106 0
M  V30 10312 H 968.446 3.87593 -0.673417 0
M  V30 10313 H 970.461 4.96191 -0.0299004 0
M  V30 10314 N 969.634 0.838594 1.33437 0
M  V30 10315 C 971.045 0.490934 1.8013 0
M  V30 10316 C 971.396 -0.990024 1.6939 0
M  V30 10317 O 970.521 -1.77139 1.24302 0
M  V30 10318 C 971.116 0.884347 3.27055 0
M  V30 10319 C 969.675 0.588829 3.71766 0
M  V30 10320 C 968.822 1.09282 2.54858 0
M  V30 10321 H 971.773 1.02732 1.20962 0
M  V30 10322 H 971.794 0.194283 3.80004 0
M  V30 10323 H 971.306 1.96225 3.34839 0
M  V30 10324 H 969.407 -0.479018 3.69508 0
M  V30 10325 H 969.52 1.14387 4.65245 0
M  V30 10326 H 967.884 0.513702 2.49466 0
M  V30 10327 H 968.667 2.1775 2.65405 0
M  V30 10328 N 971.112 -1.45937 0.595003 0
M  V30 10329 C 972.042 -2.33198 -0.11871 0
M  V30 10330 C 973.023 -1.46083 -0.871423 0
M  V30 10331 O 974.208 -1.74879 -0.844461 0
M  V30 10332 C 971.338 -3.28576 -1.12495 0
M  V30 10333 C 970.292 -4.25229 -0.486275 0
M  V30 10334 C 969.618 -5.10204 -1.59986 0
M  V30 10335 C 970.918 -5.19019 0.584473 0
M  V30 10336 H 972.612 -2.93122 0.609886 0
M  V30 10337 H 970.158 -1.40951 0.294742 0
M  V30 10338 H 972.111 -3.88485 -1.6327 0
M  V30 10339 H 970.835 -2.66784 -1.88398 0
M  V30 10340 H 969.494 -3.666 0.000507962 0
M  V30 10341 H 969.142 -4.44789 -2.34886 0
M  V30 10342 H 968.842 -5.75669 -1.1781 0
M  V30 10343 H 970.366 -5.7298 -2.11014 0
M  V30 10344 H 971.78 -5.73073 0.161297 0
M  V30 10345 H 970.177 -5.92893 0.927256 0
M  V30 10346 H 971.247 -4.62208 1.46601 0
M  V30 10347 N 972.59 -0.333456 -1.54032 0
M  V30 10348 C 973.522 0.562174 -2.22199 0
M  V30 10349 C 974.535 1.07202 -1.22522 0
M  V30 10350 O 975.724 0.983897 -1.48935 0
M  V30 10351 C 972.824 1.78525 -2.88066 0
M  V30 10352 C 971.997 1.41242 -4.13968 0
M  V30 10353 C 971.056 2.49408 -4.63338 0
M  V30 10354 O 970.082 2.13138 -5.27789 0
M  V30 10355 N 971.284 3.805 -4.38406 0
M  V30 10356 H 974.049 -0.0215629 -2.99692 0
M  V30 10357 H 971.61 -0.157111 -1.61136 0
M  V30 10358 H 973.602 2.50298 -3.18014 0
M  V30 10359 H 972.172 2.2766 -2.14219 0
M  V30 10360 H 971.392 0.525887 -3.90676 0
M  V30 10361 H 972.68 1.13916 -4.95884 0
M  V30 10362 H 972.078 4.12761 -3.86839 0
M  V30 10363 H 970.635 4.48474 -4.72984 0
M  V30 10364 N 974.068 1.57479 -0.061844 0
M  V30 10365 C 975.031 2.1104 0.894127 0
M  V30 10366 C 976.031 1.03227 1.23292 0
M  V30 10367 O 977.221 1.29256 1.16784 0
M  V30 10368 C 974.353 2.6035 2.20069 0
M  V30 10369 H 975.546 2.96807 0.429619 0
M  V30 10370 H 973.099 1.55181 0.18672 0
M  V30 10371 H 973.834 1.78008 2.71079 0
M  V30 10372 H 973.619 3.39146 1.9678 0
M  V30 10373 H 975.109 3.019 2.88525 0
M  V30 10374 N 975.546 -0.211634 1.56173 0
M  V30 10375 C 976.479 -1.28982 1.88252 0
M  V30 10376 C 977.457 -1.4474 0.740889 0
M  V30 10377 O 978.641 -1.60394 0.990249 0
M  V30 10378 C 975.768 -2.65879 2.09824 0
M  V30 10379 C 974.814 -2.67082 3.3252 0
M  V30 10380 S 975.647 -2.2016 4.8815 0
M  V30 10381 C 976.803 -3.58913 5.12769 0
M  V30 10382 H 977.036 -1.01578 2.79409 0
M  V30 10383 H 974.569 -0.414351 1.48736 0
M  V30 10384 H 976.527 -3.44688 2.22935 0
M  V30 10385 H 975.188 -2.90502 1.19447 0
M  V30 10386 H 974.381 -3.67703 3.44689 0
M  V30 10387 H 973.983 -1.96343 3.18317 0
M  V30 10388 H 976.275 -4.54671 5.02276 0
M  V30 10389 H 977.218 -3.51652 6.14611 0
M  V30 10390 H 977.626 -3.5306 4.40465 0
M  V30 10391 N 977.024 -1.50153 -0.478725 0
M  V30 10392 C 978.27 -1.60998 -1.23318 0
M  V30 10393 C 978.603 -0.305868 -1.91776 0
M  V30 10394 O 977.878 0.692158 -1.81767 0
M  V30 10395 C 978.161 -2.78495 -2.28282 0
M  V30 10396 C 978.014 -4.18767 -1.64178 0
M  V30 10397 C 979.333 -2.91569 -3.2966 0
M  V30 10398 H 976.452 -0.585983 -0.446982 0
M  V30 10399 H 979.094 -1.82514 -0.528063 0
M  V30 10400 H 977.244 -2.60281 -2.8842 0
M  V30 10401 H 978.916 -4.48552 -1.07696 0
M  V30 10402 H 977.159 -4.23379 -0.94514 0
M  V30 10403 H 977.83 -4.96894 -2.40417 0
M  V30 10404 H 980.306 -3.08219 -2.79536 0
M  V30 10405 H 979.182 -3.75419 -4.0044 0
M  V30 10406 H 979.443 -2.01859 -3.93326 0
M  V30 10407 O 978.541 0.624207 -1.48949 0
M  V30 10408 H 979.232 1.27845 -1.45517 0
M  V30 END ATOM
M  V30 BEGIN BOND
M  V30 END BOND
M  V30 END CTAB
M  END
$$$$
