drugbank_target|P08709 Coagulation factor VII (DB00036; DB00100; DB04590; DB04593; DB04606; DB04758; DB04767; DB06552; DB07207; DB07247; DB07376; DB08232; DB09332; DB13151; DB13152; DB13933)
 OpenBabel12092119293D

  0  0  0     0  0            999 V3000
M  V30 BEGIN CTAB
M  V30 COUNTS 7157 7239 0 0 0
M  V30 BEGIN ATOM
M  V30 1 H -0.908 1.98254 -0.117106 0
M  V30 2 N 0 1.576 0 0
M  V30 3 C 0.933 2.03868 1.02534 0
M  V30 4 C 1.911 0.928543 1.3348 0
M  V30 5 O 3.095 1.19667 1.45644 0
M  V30 6 C 0.222 2.43627 2.35294 0
M  V30 7 C -0.732 3.65373 2.2001 0
M  V30 8 S 0.101 5.13292 1.52614 0
M  V30 9 C 1.257 5.56322 2.86805 0
M  V30 10 H 1.49 2.90518 0.631377 0
M  V30 11 H -0.977 1.52953 0.210867 0
M  V30 12 H 0.981 2.67203 3.11629 0
M  V30 13 H -0.358 1.57376 2.7183 0
M  V30 14 H -1.165 3.90944 3.18086 0
M  V30 15 H -1.563 3.418 1.51819 0
M  V30 16 H 0.729 5.58782 3.83104 0
M  V30 17 H 1.672 6.56266 2.65933 0
M  V30 18 H 2.08 4.83886 2.90714 0
M  V30 19 N 1.4781 -0.272755 1.55222 0
M  V30 20 C 2.7241 -1.00581 1.761 0
M  V30 21 C 3.0571 -1.85932 0.560625 0
M  V30 22 O 2.3321 -1.89416 -0.441801 0
M  V30 23 C 2.6151 -1.88816 3.06628 0
M  V30 24 C 2.4681 -1.06457 4.37021 0
M  V30 25 C 3.7871 -2.8752 3.33197 0
M  V30 26 H 0.9061 -0.364244 0.640699 0
M  V30 27 H 3.5481 -0.278189 1.87952 0
M  V30 28 H 1.6981 -2.50856 2.96654 0
M  V30 29 H 3.3701 -0.464863 4.58952 0
M  V30 30 H 1.6131 -0.368043 4.32236 0
M  V30 31 H 2.2841 -1.71514 5.24678 0
M  V30 32 H 4.7601 -2.35615 3.42965 0
M  V30 33 H 3.6361 -3.46399 4.25792 0
M  V30 34 H 3.8971 -3.62657 2.52849 0
M  V30 35 N 2.9562 -1.48159 -0.537278 0
M  V30 36 C 4.1812 -1.59707 -1.32319 0
M  V30 37 C 4.6062 -0.254859 -1.86365 0
M  V30 38 O 3.9642 0.772378 -1.64024 0
M  V30 39 C 4.0122 -2.6412 -2.45505 0
M  V30 40 O 3.1162 -2.20774 -3.48328 0
M  V30 41 H 2.4572 -0.535791 -0.392204 0
M  V30 42 H 4.9872 -1.94092 -0.647268 0
M  V30 43 H 4.9972 -2.85166 -2.91795 0
M  V30 44 H 3.6722 -3.61567 -2.05528 0
M  V30 45 H 2.2492 -2.09911 -3.08207 0
M  V30 46 N 4.4343 0.785586 -1.36625 0
M  V30 47 C 5.3663 1.90711 -1.2713 0
M  V30 48 C 6.3793 1.61688 -0.189986 0
M  V30 49 O 7.5683 1.72864 -0.445014 0
M  V30 50 C 4.6683 3.25611 -0.939713 0
M  V30 51 C 3.8413 3.82385 -2.12369 0
M  V30 52 C 2.9003 4.95732 -1.76456 0
M  V30 53 O 1.9263 5.12047 -2.48589 0
M  V30 54 N 3.1283 5.76258 -0.700492 0
M  V30 55 H 5.8933 1.99376 -2.23762 0
M  V30 56 H 3.4543 0.964041 -1.30069 0
M  V30 57 H 5.4463 3.98937 -0.680554 0
M  V30 58 H 4.0163 3.12538 -0.0624074 0
M  V30 59 H 3.2363 3.01001 -2.54543 0
M  V30 60 H 4.5243 4.17047 -2.9146 0
M  V30 61 H 3.9223 5.65609 -0.101624 0
M  V30 62 H 2.4793 6.4987 -0.501165 0
M  V30 63 N 5.9124 1.20967 1.01018 0
M  V30 64 C 6.8754 0.965918 2.07853 0
M  V30 65 C 7.8754 -0.0610545 1.60684 0
M  V30 66 O 9.0654 0.175681 1.73312 0
M  V30 67 C 6.1974 0.455513 3.37843 0
M  V30 68 H 7.3904 1.91365 2.3091 0
M  V30 69 H 4.9434 1.02594 1.17916 0
M  V30 70 H 5.6784 -0.497381 3.20463 0
M  V30 71 H 5.4634 1.19622 3.73407 0
M  V30 72 H 6.9534 0.304667 4.16487 0
M  V30 73 N 7.3905 -1.2043 1.01659 0
M  V30 74 C 8.3205 -2.25466 0.607226 0
M  V30 75 C 9.3015 -1.65853 -0.377716 0
M  V30 76 O 10.4865 -1.92409 -0.263149 0
M  V30 77 C 7.6165 -3.47256 -0.0552949 0
M  V30 78 C 6.5705 -4.19462 0.850632 0
M  V30 79 C 5.8965 -5.34673 0.0538859 0
M  V30 80 C 7.1965 -4.75603 2.15868 0
M  V30 81 H 8.8905 -2.59962 1.48526 0
M  V30 82 H 6.4365 -1.2496 0.715605 0
M  V30 83 H 8.3895 -4.19917 -0.353233 0
M  V30 84 H 7.1135 -3.11924 -0.968045 0
M  V30 85 H 5.7725 -3.48667 1.13257 0
M  V30 86 H 5.4205 -4.95585 -0.860514 0
M  V30 87 H 5.1205 -5.83913 0.657192 0
M  V30 88 H 6.6445 -6.10138 -0.237598 0
M  V30 89 H 8.0585 -5.40083 1.92311 0
M  V30 90 H 6.4555 -5.3528 2.71284 0
M  V30 91 H 7.5255 -3.94346 2.82169 0
M  V30 92 N 8.8686 -0.792821 -1.36206 0
M  V30 93 C 10.2846 -0.474903 -1.52371 0
M  V30 94 C 10.4846 1.00622 -1.74578 0
M  V30 95 O 9.5406 1.79162 -1.77924 0
M  V30 96 C 10.8536 -1.3083 -2.70747 0
M  V30 97 C 12.4016 -1.30234 -2.84619 0
M  V30 98 C 12.8766 -2.11956 -4.06004 0
M  V30 99 N 14.3676 -2.09419 -4.13156 0
M  V30 100 C 15.1026 -2.69419 -5.06163 0
M  V30 101 N 14.5986 -3.3829 -6.04592 0
M  V30 102 N 16.3916 -2.59134 -4.98804 0
M  V30 103 H 8.5426 -1.75222 -1.20046 0
M  V30 104 H 10.8056 -0.745024 -0.586211 0
M  V30 105 H 10.5116 -2.35881 -2.6087 0
M  V30 106 H 10.3856 -0.95196 -3.6499 0
M  V30 107 H 12.7726 -0.259748 -2.93955 0
M  V30 108 H 12.8536 -1.69847 -1.91274 0
M  V30 109 H 12.4976 -3.16248 -3.97429 0
M  V30 110 H 12.4276 -1.69711 -4.98503 0
M  V30 111 H 14.9186 -1.59297 -3.42685 0
M  V30 112 H 15.2316 -3.81394 -6.7213 0
M  V30 113 H 13.5766 -3.42393 -6.04807 0
M  V30 114 H 16.7676 -2.04927 -4.20859 0
M  V30 115 H 16.9406 -3.06185 -5.711 0
M  V30 116 N 10.3467 1.47872 -0.545128 0
M  V30 117 C 11.2767 2.32661 0.197793 0
M  V30 118 C 12.2577 1.43041 0.920504 0
M  V30 119 O 13.4427 1.71912 0.90333 0
M  V30 120 C 10.5727 3.24569 1.23582 0
M  V30 121 C 9.5267 4.23333 0.630323 0
M  V30 122 C 8.8527 5.0448 1.77211 0
M  V30 123 C 10.1527 5.20704 -0.407974 0
M  V30 124 H 11.8467 2.95024 -0.510045 0
M  V30 125 H 9.3927 1.4187 -0.246731 0
M  V30 126 H 11.3457 3.8272 1.76362 0
M  V30 127 H 10.0697 2.60236 1.97344 0
M  V30 128 H 8.7287 3.6639 0.123922 0
M  V30 129 H 8.3767 4.36561 2.49847 0
M  V30 130 H 8.0767 5.71339 1.37281 0
M  V30 131 H 9.6007 5.65487 2.3034 0
M  V30 132 H 11.0147 5.7329 0.033305 0
M  V30 133 H 9.4117 5.95699 -0.725486 0
M  V30 134 H 10.4817 4.66917 -1.30828 0
M  V30 135 N 11.8248 0.280983 1.55075 0
M  V30 136 C 12.7548 -0.597469 2.25727 0
M  V30 137 C 13.7358 -1.15417 1.24952 0
M  V30 138 O 14.9208 -1.18722 1.53684 0
M  V30 139 C 12.0508 -1.7789 2.98283 0
M  V30 140 C 11.0048 -1.35347 4.06036 0
M  V30 141 C 10.3308 -2.61846 4.66198 0
M  V30 142 C 11.6308 -0.499354 5.19907 0
M  V30 143 H 13.3248 -0.00824265 2.99399 0
M  V30 144 H 10.8708 -0.0025244 1.44 0
M  V30 145 H 12.8238 -2.39937 3.46422 0
M  V30 146 H 11.5478 -2.39405 2.22155 0
M  V30 147 H 10.2068 -0.756156 3.58717 0
M  V30 148 H 9.8548 -3.21632 3.86732 0
M  V30 149 H 9.5548 -2.3409 5.38958 0
M  V30 150 H 11.0788 -3.24732 5.1709 0
M  V30 151 H 12.4928 -1.02498 5.64063 0
M  V30 152 H 10.8898 -0.316424 5.99265 0
M  V30 153 H 11.9598 0.480459 4.82514 0
M  V30 154 N 13.3029 -1.57598 0.00835791 0
M  V30 155 C 14.5429 -1.92788 -0.679136 0
M  V30 156 C 14.9069 -0.883378 -1.70471 0
M  V30 157 O 16.1079 -1.12079 -2.44319 0
M  V30 158 C 14.3789 -3.32994 -1.29807 0
M  V30 159 S 15.9379 -3.90082 -2.00952 0
M  V30 160 H 12.7559 -0.67475 -0.224127 0
M  V30 161 H 15.3579 -1.95385 0.0670497 0
M  V30 162 H 14.0619 -4.06846 -0.538922 0
M  V30 163 H 13.5929 -3.33791 -2.082 0
M  V30 164 H 15.6079 -3.71834 -3.28563 0
M  V30 165 N 14.781 0.264519 -1.55364 0
M  V30 166 C 15.711 1.33121 -1.91836 0
M  V30 167 C 16.692 1.51101 -0.781192 0
M  V30 168 O 17.877 1.64003 -1.04003 0
M  V30 169 C 15.007 2.68921 -2.19769 0
M  V30 170 C 13.961 2.65661 -3.35571 0
M  V30 171 C 13.287 4.05093 -3.49004 0
M  V30 172 C 14.587 2.24187 -4.71739 0
M  V30 173 H 16.281 1.02844 -2.81182 0
M  V30 174 H 13.827 0.493286 -1.35287 0
M  V30 175 H 15.78 3.43663 -2.43872 0
M  V30 176 H 14.504 3.00799 -1.27231 0
M  V30 177 H 13.163 1.93377 -3.1145 0
M  V30 178 H 12.811 4.34206 -2.53917 0
M  V30 179 H 12.511 4.03804 -4.26868 0
M  V30 180 H 14.035 4.81561 -3.75408 0
M  V30 181 H 15.449 2.88654 -4.9533 0
M  V30 182 H 13.846 2.34044 -5.52579 0
M  V30 183 H 14.916 1.19327 -4.69988 0
M  V30 184 N 16.2591 1.48442 0.529413 0
M  V30 185 C 17.1891 1.65902 1.64313 0
M  V30 186 C 18.1701 0.507897 1.6234 0
M  V30 187 O 19.3551 0.740503 1.79528 0
M  V30 188 C 16.4851 1.69911 3.02898 0
M  V30 189 C 15.4391 2.8453 3.19729 0
M  V30 190 C 14.7651 2.73629 4.59381 0
M  V30 191 C 16.0651 4.25821 3.02447 0
M  V30 192 H 17.7591 2.5914 1.49955 0
M  V30 193 H 15.3051 1.24709 0.719982 0
M  V30 194 H 17.2581 1.80715 3.80684 0
M  V30 195 H 15.9821 0.732524 3.18279 0
M  V30 196 H 14.6411 2.73283 2.44361 0
M  V30 197 H 14.2891 1.74938 4.71599 0
M  V30 198 H 13.9891 3.50541 4.71588 0
M  V30 199 H 15.5131 2.86401 5.39265 0
M  V30 200 H 16.9271 4.37898 3.70024 0
M  V30 201 H 15.3241 5.03735 3.26146 0
M  V30 202 H 16.3941 4.42244 1.98867 0
M  V30 203 N 17.7372 -0.778329 1.37039 0
M  V30 204 C 18.6672 -1.90546 1.34962 0
M  V30 205 C 19.6482 -1.68681 0.219274 0
M  V30 206 O 20.8332 -1.89634 0.418624 0
M  V30 207 C 17.9632 -3.27734 1.14925 0
M  V30 208 C 16.9172 -3.64147 2.24902 0
M  V30 209 C 16.2432 -4.99806 1.89996 0
M  V30 210 C 17.5432 -3.71579 3.67051 0
M  V30 211 H 19.2372 -1.92541 2.29277 0
M  V30 212 H 16.7832 -0.924948 1.10366 0
M  V30 213 H 18.7362 -4.06215 1.12104 0
M  V30 214 H 17.4602 -3.26154 0.170631 0
M  V30 215 H 16.1192 -2.8797 2.26868 0
M  V30 216 H 15.7672 -4.94759 0.906796 0
M  V30 217 H 15.4672 -5.25139 2.63634 0
M  V30 218 H 16.9912 -5.80694 1.88749 0
M  V30 219 H 18.4052 -4.40227 3.67251 0
M  V30 220 H 16.8022 -4.08405 4.39688 0
M  V30 221 H 17.8722 -2.72404 4.01154 0
M  V30 222 N 19.2153 -1.21501 -1.00376 0
M  V30 223 C 20.4633 -1.03095 -1.73827 0
M  V30 224 C 20.7843 0.436341 -1.90055 0
M  V30 225 O 20.0543 1.31466 -1.45236 0
M  V30 226 H 18.6343 -0.378487 -0.644016 0
M  V30 227 H 21.2963 -1.52831 -1.20949 0
M  V30 228 H 20.3923 -1.49991 -2.73695 0
M  V30 229 N 20.6934 1.19889 -1.02296 0
M  V30 230 C 21.6234 2.25141 -0.619174 0
M  V30 231 C 22.6044 1.66051 0.368915 0
M  V30 232 O 23.7894 1.92546 0.252941 0
M  V30 233 C 20.9194 3.4728 0.0368783 0
M  V30 234 C 19.8734 4.19005 -0.872865 0
M  V30 235 C 19.1994 5.34637 -0.0822402 0
M  V30 236 C 20.4994 4.74452 -2.18387 0
M  V30 237 H 22.1934 2.59171 -1.49903 0
M  V30 238 H 19.7394 1.24579 -0.722222 0
M  V30 239 H 21.6924 4.20098 0.330958 0
M  V30 240 H 20.4164 3.12433 0.95149 0
M  V30 241 H 19.0754 3.48061 -1.15105 0
M  V30 242 H 18.7234 4.96034 0.83422 0
M  V30 243 H 18.4234 5.83557 -0.688149 0
M  V30 244 H 19.9474 6.10255 0.205238 0
M  V30 245 H 21.3614 5.39055 -1.95172 0
M  V30 246 H 19.7584 5.33834 -2.74119 0
M  V30 247 H 20.8284 3.92844 -2.84257 0
M  V30 248 N 22.1715 0.800033 1.35784 0
M  V30 249 C 23.1035 0.163596 2.28615 0
M  V30 250 C 24.1165 -0.633317 1.49976 0
M  V30 251 O 25.3055 -0.466754 1.72289 0
M  V30 252 C 22.4055 -0.790958 3.29541 0
M  V30 253 C 21.5785 -0.0418255 4.3738 0
M  V30 254 C 20.6375 -0.91389 5.18203 0
M  V30 255 O 19.6635 -0.367234 5.68014 0
M  V30 256 N 20.8655 -2.23682 5.35674 0
M  V30 257 H 23.6305 0.96105 2.83873 0
M  V30 258 H 21.1915 0.654894 1.48063 0
M  V30 259 H 23.1835 -1.37844 3.80501 0
M  V30 260 H 21.7535 -1.48925 2.74846 0
M  V30 261 H 20.9735 0.726813 3.87442 0
M  V30 262 H 22.2615 0.474719 5.06581 0
M  V30 263 H 21.6595 -2.70497 4.96838 0
M  V30 264 H 20.2165 -2.77369 5.89839 0
M  V30 265 N 23.6496 -1.47581 0.552962 0
M  V30 266 C 24.8976 -2.02082 0.0272703 0
M  V30 267 C 25.2186 -1.4301 -1.32563 0
M  V30 268 O 24.4886 -0.603745 -1.86365 0
M  V30 269 H 23.0686 -0.746966 0.00709182 0
M  V30 270 H 25.7306 -1.81033 0.722008 0
M  V30 271 H 24.8266 -3.12034 -0.0639951 0
M  V30 272 N 25.1277 -0.289203 -1.54924 0
M  V30 273 C 26.3677 0.324536 -2.01807 0
M  V30 274 C 26.7317 1.5199 -1.17316 0
M  V30 275 O 27.9327 2.20422 -1.53843 0
M  V30 276 C 26.2037 0.683578 -3.50802 0
M  V30 277 S 27.7627 1.28185 -4.19659 0
M  V30 278 H 24.5807 0.100236 -0.703899 0
M  V30 279 H 27.1827 -0.414325 -1.91059 0
M  V30 280 H 25.8867 -0.195073 -4.09936 0
M  V30 281 H 25.4177 1.45354 -3.65562 0
M  V30 282 H 27.4327 2.57006 -4.24456 0
M  V30 283 N 26.6058 1.57591 -0.0167156 0
M  V30 284 C 27.5358 2.12496 0.967858 0
M  V30 285 C 28.5168 1.03807 1.34752 0
M  V30 286 O 29.7018 1.31577 1.42833 0
M  V30 287 C 26.8318 2.64194 2.25431 0
M  V30 288 C 25.7858 3.77559 2.01576 0
M  V30 289 C 25.1118 4.15636 3.36379 0
M  V30 290 C 26.4118 5.04151 1.36489 0
M  V30 291 H 28.1058 2.95013 0.510643 0
M  V30 292 H 25.6518 1.41915 0.244181 0
M  V30 293 H 27.6048 3.01236 2.94678 0
M  V30 294 H 26.3288 1.78821 2.73296 0
M  V30 295 H 24.9878 3.40937 1.34751 0
M  V30 296 H 24.6358 3.27263 3.81979 0
M  V30 297 H 24.3358 4.92022 3.21229 0
M  V30 298 H 25.8598 4.5525 4.06915 0
M  V30 299 H 27.2738 5.38857 1.95718 0
M  V30 300 H 25.6708 5.85453 1.31776 0
M  V30 301 H 26.7408 4.83733 0.336219 0
M  V30 302 N 28.0839 -0.256276 1.55502 0
M  V30 303 C 29.0469 -1.30047 1.88734 0
M  V30 304 C 30.0469 -1.4154 0.763086 0
M  V30 305 O 31.2369 -1.40403 1.03115 0
M  V30 306 C 28.3689 -2.67953 2.10747 0
M  V30 307 H 29.5619 -1.01802 2.82093 0
M  V30 308 H 27.1149 -0.495134 1.4825 0
M  V30 309 H 27.8499 -3.01351 1.19825 0
M  V30 310 H 27.6349 -2.60993 2.92617 0
M  V30 311 H 29.1249 -3.43368 2.37673 0
M  V30 312 N 29.562 -1.4872 -0.521534 0
M  V30 313 C 30.525 -1.63379 -1.60748 0
M  V30 314 C 31.525 -0.50661 -1.52611 0
M  V30 315 O 32.715 -0.772601 -1.5613 0
M  V30 316 C 29.847 -1.61192 -3.00383 0
M  V30 317 H 31.04 -2.60217 -1.49087 0
M  V30 318 H 28.593 -1.37444 -0.744235 0
M  V30 319 H 29.328 -0.65863 -3.17541 0
M  V30 320 H 29.113 -2.43032 -3.07698 0
M  V30 321 H 30.603 -1.7466 -3.7932 0
M  V30 322 N 31.0401 0.771051 -1.3745 0
M  V30 323 C 32.2881 1.52661 -1.32435 0
M  V30 324 C 32.6091 1.9479 0.0905024 0
M  V30 325 O 31.8791 1.66348 1.03466 0
M  V30 326 H 30.4591 0.566218 -0.487244 0
M  V30 327 H 33.1211 0.917636 -1.71946 0
M  V30 328 H 32.2171 2.42568 -1.96385 0
M  V30 329 N 32.5182 1.22032 0.997298 0
M  V30 330 C 33.7662 1.04016 1.73278 0
M  V30 331 C 34.0872 -0.426255 1.90284 0
M  V30 332 O 33.3572 -1.30694 1.45931 0
M  V30 333 H 31.9372 0.381897 0.642 0
M  V30 334 H 34.5992 1.5347 1.20137 0
M  V30 335 H 33.6952 1.51441 2.72896 0
M  V30 336 N 33.9963 -1.19345 1.0293 0
M  V30 337 C 35.2423 -1.89318 0.727083 0
M  V30 338 C 35.5753 -1.79446 -0.742483 0
M  V30 339 O 34.8503 -1.1871 -1.54072 0
M  V30 340 C 35.1333 -3.40238 1.17942 0
M  V30 341 C 34.9863 -3.58979 2.71024 0
M  V30 342 C 36.3053 -4.33479 0.760548 0
M  V30 343 H 33.4243 -0.687475 0.265606 0
M  V30 344 H 36.0663 -1.40477 1.2793 0
M  V30 345 H 34.2163 -3.81964 0.709608 0
M  V30 346 H 35.8883 -3.26421 3.25955 0
M  V30 347 H 34.1313 -3.02018 3.11396 0
M  V30 348 H 34.8023 -4.64823 2.9773 0
M  V30 349 H 37.2783 -3.99469 1.16464 0
M  V30 350 H 36.1543 -5.37664 1.10493 0
M  V30 351 H 36.4153 -4.40813 -0.337063 0
M  V30 352 N 35.4744 -0.807222 -1.35358 0
M  V30 353 C 36.4374 -0.223665 -2.28106 0
M  V30 354 C 37.4374 0.589354 -1.4961 0
M  V30 355 O 38.6274 0.407745 -1.69361 0
M  V30 356 C 35.7594 0.688149 -3.33882 0
M  V30 357 H 36.9524 -1.04169 -2.81227 0
M  V30 358 H 34.5054 -0.577921 -1.45223 0
M  V30 359 H 35.2404 1.52984 -2.85948 0
M  V30 360 H 35.0254 0.10687 -3.91954 0
M  V30 361 H 36.5154 1.09075 -4.03104 0
M  V30 362 N 36.9525 1.47285 -0.560781 0
M  V30 363 C 37.8995 2.30058 0.18491 0
M  V30 364 C 38.8695 1.39281 0.904986 0
M  V30 365 O 40.0545 1.68241 0.899979 0
M  V30 366 C 37.1945 3.23317 1.20666 0
M  V30 367 C 36.3075 4.29186 0.492285 0
M  V30 368 C 35.4425 5.09592 1.49964 0
M  V30 369 C 34.4815 6.07232 0.770439 0
M  V30 370 N 33.6185 6.80584 1.72479 0
M  V30 371 H 38.4585 2.93302 -0.527048 0
M  V30 372 H 35.9955 1.44568 -0.271738 0
M  V30 373 H 37.9535 3.75811 1.81168 0
M  V30 374 H 36.5835 2.61929 1.88661 0
M  V30 375 H 35.6355 3.7972 -0.227333 0
M  V30 376 H 36.9475 4.98738 -0.0787929 0
M  V30 377 H 36.1015 5.66254 2.17809 0
M  V30 378 H 34.8405 4.3995 2.10464 0
M  V30 379 H 33.8455 5.49745 0.0780846 0
M  V30 380 H 35.0705 6.78884 0.171134 0
M  V30 381 H 33.0165 6.1367 2.3183 0
M  V30 382 H 32.9335 7.46319 1.20596 0
M  V30 383 H 34.2015 7.41818 2.39428 0
M  V30 384 N 38.4306 0.297415 1.54768 0
M  V30 385 C 39.3936 -0.567375 2.22066 0
M  V30 386 C 40.3936 -1.06409 1.20556 0
M  V30 387 O 41.5836 -0.960691 1.45315 0
M  V30 388 C 38.7156 -1.78517 2.90421 0
M  V30 389 H 39.9086 0.0205534 2.99893 0
M  V30 390 H 37.4616 0.0482163 1.56226 0
M  V30 391 H 38.1966 -2.41303 2.16664 0
M  V30 392 H 37.9816 -1.43669 3.64831 0
M  V30 393 H 39.4716 -2.39964 3.41771 0
M  V30 394 N 39.9087 -1.5758 0.0250728 0
M  V30 395 C 41.1337 -1.96337 -0.668317 0
M  V30 396 C 41.5587 -0.901314 -1.651 0
M  V30 397 O 40.9167 0.138187 -1.80773 0
M  V30 398 C 40.9647 -3.34191 -1.35457 0
M  V30 399 O 40.0687 -3.30269 -2.46974 0
M  V30 400 H 39.4097 -0.640281 -0.175887 0
M  V30 401 H 41.9397 -2.0442 0.0857224 0
M  V30 402 H 41.9497 -3.70331 -1.71228 0
M  V30 403 H 40.6247 -4.11036 -0.634218 0
M  V30 404 H 39.2017 -3.05841 -2.13344 0
M  V30 405 N 41.3868 0.248026 -1.55636 0
M  V30 406 C 42.6348 0.974295 -1.77065 0
M  V30 407 C 42.9558 1.85897 -0.588849 0
M  V30 408 O 42.2258 1.91868 0.395407 0
M  V30 409 H 40.8058 0.362733 -0.653019 0
M  V30 410 H 43.4678 0.266244 -1.93073 0
M  V30 411 H 42.5638 1.59667 -2.68166 0
M  V30 412 N 42.8649 1.48995 0.513639 0
M  V30 413 C 44.1129 1.57531 1.26604 0
M  V30 414 C 44.4339 0.258236 1.93283 0
M  V30 415 O 43.7039 -0.721502 1.8213 0
M  V30 416 H 42.2839 0.580387 0.470276 0
M  V30 417 H 44.9459 1.85552 0.596373 0
M  V30 418 H 44.0419 2.36486 2.03669 0
M  V30 419 N 44.343 -0.763751 1.37857 0
M  V30 420 C 45.253 -1.90817 1.36478 0
M  V30 421 C 46.269 -1.71997 0.263248 0
M  V30 422 O 47.445 -1.95095 0.499979 0
M  V30 423 C 44.51 -3.2605 1.17864 0
M  V30 424 C 43.571 -3.57467 2.3773 0
M  V30 425 C 42.804 -4.86249 2.19995 0
M  V30 426 O 43.027 -5.57884 1.18836 0
M  V30 427 O 41.961 -5.16911 3.08361 0
M  V30 428 H 45.787 -1.94933 2.32884 0
M  V30 429 H 43.372 -0.907619 1.1867 0
M  V30 430 H 45.254 -4.06924 1.09504 0
M  V30 431 H 43.929 -3.22769 0.245372 0
M  V30 432 H 42.836 -2.76796 2.51664 0
M  V30 433 H 44.169 -3.655 3.29652 0
M  V30 434 N 45.8211 -1.22559 -0.990812 0
M  V30 435 C 47.0491 -1.07779 -1.76611 0
M  V30 436 C 47.4641 0.371513 -1.85109 0
M  V30 437 O 46.8211 1.25737 -1.32274 0
M  V30 438 C 46.8721 -1.68512 -3.19822 0
M  V30 439 O 46.5931 -3.07774 -3.1178 0
M  V30 440 C 48.0941 -1.59035 -4.13791 0
M  V30 441 H 45.3141 -0.377729 -0.554583 0
M  V30 442 H 47.8581 -1.62195 -1.24551 0
M  V30 443 H 46.0131 -1.18154 -3.68942 0
M  V30 444 H 46.4271 -3.37062 -4.01858 0
M  V30 445 H 47.9011 -2.0625 -5.1202 0
M  V30 446 H 48.3781 -0.547273 -4.35777 0
M  V30 447 H 48.9841 -2.08709 -3.70568 0
M  V30 448 N 47.2992 1.18797 -1.03562 0
M  V30 449 C 48.7152 1.40671 -0.753917 0
M  V30 450 C 48.9152 1.9043 0.658686 0
M  V30 451 O 47.9712 2.08538 1.42366 0
M  V30 452 C 49.2842 2.41192 -1.79574 0
M  V30 453 C 50.8322 2.54928 -1.81606 0
M  V30 454 C 51.3072 3.58709 -2.84766 0
M  V30 455 N 52.7982 3.66212 -2.83625 0
M  V30 456 C 53.5332 4.46225 -3.60098 0
M  V30 457 N 53.0292 5.29888 -4.46308 0
M  V30 458 N 54.8222 4.40939 -3.4861 0
M  V30 459 H 46.9732 0.848221 -1.94728 0
M  V30 460 H 49.2362 0.435081 -0.842264 0
M  V30 461 H 48.9422 2.11669 -2.80872 0
M  V30 462 H 48.8162 3.40467 -1.62365 0
M  V30 463 H 51.2032 2.83771 -0.809817 0
M  V30 464 H 51.2842 1.55784 -2.02891 0
M  V30 465 H 50.9282 3.30607 -3.85566 0
M  V30 466 H 50.8582 4.57519 -2.60737 0
M  V30 467 H 53.3492 3.06466 -2.21105 0
M  V30 468 H 53.6622 5.88078 -5.01382 0
M  V30 469 H 52.0072 5.29326 -4.50377 0
M  V30 470 H 55.1982 3.74624 -2.80668 0
M  V30 471 H 55.3712 5.03056 -4.08459 0
M  V30 472 N 48.7773 0.814389 1.34928 0
M  V30 473 C 50.0543 0.321363 1.92942 0
M  V30 474 C 50.4343 -1.19014 1.74353 0
M  V30 475 O 49.7823 -1.99328 1.11716 0
M  V30 476 C 49.9923 0.741323 3.41036 0
M  V30 477 C 51.3403 0.735266 4.18185 0
M  V30 478 O 52.3643 0.68336 3.49584 0
M  V30 479 O 51.2233 0.800703 5.40602 0
M  V30 480 H 48.3173 0.0858893 0.822528 0
M  V30 481 H 50.8633 0.898609 1.43955 0
M  V30 482 H 49.6353 1.78276 3.4833 0
M  V30 483 H 49.2583 0.139307 3.97356 0
M  V30 484 N 50.2554 -1.46986 0.568584 0
M  V30 485 C 51.1884 -2.27129 -0.220779 0
M  V30 486 C 52.1664 -1.34757 -0.909905 0
M  V30 487 O 53.3504 -1.64152 -0.926622 0
M  V30 488 C 50.4774 -3.12108 -1.31553 0
M  V30 489 C 49.5234 -4.20141 -0.733748 0
M  V30 490 S 50.3564 -5.33783 0.428479 0
M  V30 491 C 51.5124 -6.22327 -0.667811 0
M  V30 492 H 51.7454 -2.93731 0.459267 0
M  V30 493 H 49.2784 -1.5026 0.355154 0
M  V30 494 H 51.2364 -3.61636 -1.94241 0
M  V30 495 H 49.8974 -2.44847 -1.96746 0
M  V30 496 H 49.0904 -4.79373 -1.5562 0
M  V30 497 H 48.6924 -3.73553 -0.182812 0
M  V30 498 H 50.9844 -6.59364 -1.55708 0
M  V30 499 H 51.9274 -7.0801 -0.11258 0
M  V30 500 H 52.3354 -5.5618 -0.965601 0
M  V30 501 N 51.7335 -0.305618 -1.54608 0
M  V30 502 C 53.1445 0.186098 -1.8577 0
M  V30 503 C 53.4955 1.53058 -1.22751 0
M  V30 504 O 52.6205 2.09888 -0.526893 0
M  V30 505 C 53.2155 0.344449 -3.37044 0
M  V30 506 C 51.7745 0.780384 -3.68221 0
M  V30 507 C 50.9215 -0.108554 -2.77087 0
M  V30 508 H 53.8725 -0.526485 -1.49712 0
M  V30 509 H 53.8935 1.17828 -3.61796 0
M  V30 510 H 53.4055 -0.634235 -3.82883 0
M  V30 511 H 51.5065 1.76945 -3.27904 0
M  V30 512 H 51.6195 0.596572 -4.75371 0
M  V30 513 H 49.9835 0.412931 -2.5133 0
M  V30 514 H 50.7665 -1.08368 -3.25747 0
M  V30 515 N 53.2116 1.57565 -0.0334293 0
M  V30 516 C 54.4576 1.93088 0.639417 0
M  V30 517 C 54.8126 0.910589 1.69488 0
M  V30 518 O 54.1056 -0.0727725 1.91462 0
M  V30 519 C 54.2996 3.33112 1.29504 0
M  V30 520 C 54.1286 4.48667 0.304604 0
M  V30 521 C 52.8986 5.05207 -0.0970777 0
M  V30 522 C 55.0966 5.1239 -0.442845 0
M  V30 523 N 53.0786 6.04286 -1.08223 0
M  V30 524 C 54.4496 6.06609 -1.28161 0
M  V30 525 C 56.5046 4.95352 -0.50308 0
M  V30 526 C 55.2076 6.85622 -2.17519 0
M  V30 527 C 57.2336 5.74978 -1.38401 0
M  V30 528 C 56.5956 6.68816 -2.21054 0
M  V30 529 H 52.6946 0.754335 0.206161 0
M  V30 530 H 55.2786 1.94435 -0.101613 0
M  V30 531 H 53.4496 3.32576 2.00618 0
M  V30 532 H 55.1816 3.55972 1.92525 0
M  V30 533 H 51.9366 4.72782 0.278255 0
M  V30 534 H 52.3606 6.58516 -1.57117 0
M  V30 535 H 57.0026 4.22625 0.121694 0
M  V30 536 H 54.7206 7.57652 -2.81049 0
M  V30 537 H 58.3066 5.63826 -1.43496 0
M  V30 538 H 57.1866 7.29355 -2.88116 0
M  V30 539 N 54.6897 -0.239769 1.55765 0
M  V30 540 C 55.6367 -1.29696 1.90913 0
M  V30 541 C 56.6067 -1.47478 0.764164 0
M  V30 542 O 57.7917 -1.61345 1.01845 0
M  V30 543 C 54.9317 -2.64598 2.21544 0
M  V30 544 C 54.0447 -2.54765 3.48882 0
M  V30 545 C 53.1797 -3.82069 3.69049 0
M  V30 546 C 52.2187 -3.66883 4.89963 0
M  V30 547 N 51.3557 -4.86094 5.06614 0
M  V30 548 H 56.1957 -0.990224 2.81067 0
M  V30 549 H 53.7327 -0.477684 1.39128 0
M  V30 550 H 55.6907 -3.43132 2.3731 0
M  V30 551 H 54.3207 -2.93405 1.34585 0
M  V30 552 H 53.3727 -1.67763 3.41409 0
M  V30 553 H 54.6847 -2.39457 4.37563 0
M  V30 554 H 53.8387 -4.69046 3.84812 0
M  V30 555 H 52.5777 -4.00282 2.78614 0
M  V30 556 H 51.5827 -2.78289 4.74168 0
M  V30 557 H 52.8077 -3.50157 5.81865 0
M  V30 558 H 50.7537 -5.04655 4.19117 0
M  V30 559 H 50.6707 -4.73443 5.89396 0
M  V30 560 H 51.9387 -5.74549 5.26795 0
M  V30 561 N 56.1678 -1.49265 -0.50573 0
M  V30 562 C 57.5788 -1.51769 -1.08734 0
M  V30 563 C 57.9298 -0.301192 -1.93874 0
M  V30 564 O 57.0548 0.589456 -2.08217 0
M  V30 565 C 57.6498 -2.75017 -1.97867 0
M  V30 566 C 56.2088 -2.80314 -2.51199 0
M  V30 567 C 55.3558 -2.4562 -1.28709 0
M  V30 568 H 58.3068 -1.56031 -0.289855 0
M  V30 569 H 58.3278 -2.5491 -2.82491 0
M  V30 570 H 57.8398 -3.63539 -1.35873 0
M  V30 571 H 55.9408 -1.96061 -3.16845 0
M  V30 572 H 56.0538 -3.82366 -2.88675 0
M  V30 573 H 54.4178 -1.97297 -1.61078 0
M  V30 574 H 55.2008 -3.36411 -0.6843 0
M  V30 575 N 57.6459 0.756429 -1.3826 0
M  V30 576 C 58.8939 1.51248 -1.34047 0
M  V30 577 C 59.2149 1.94875 0.0698372 0
M  V30 578 O 58.4849 1.67436 1.01696 0
M  V30 579 H 57.0649 0.561018 -0.493222 0
M  V30 580 H 59.7269 0.899347 -1.7291 0
M  V30 581 H 58.8229 2.40472 -1.98947 0
M  V30 582 N 59.124 1.23083 0.984299 0
M  V30 583 C 60.535 1.05609 1.5396 0
M  V30 584 C 60.886 -0.377793 1.92528 0
M  V30 585 O 60.011 -1.26398 1.75649 0
M  V30 586 C 60.606 1.91087 2.7977 0
M  V30 587 C 59.165 1.77885 3.31713 0
M  V30 588 C 58.312 1.87028 2.04733 0
M  V30 589 H 61.263 1.36802 0.804419 0
M  V30 590 H 61.284 1.43336 3.5247 0
M  V30 591 H 60.796 2.9544 2.51668 0
M  V30 592 H 58.897 0.762995 3.64704 0
M  V30 593 H 59.01 2.61047 4.01735 0
M  V30 594 H 57.374 1.30565 2.18689 0
M  V30 595 H 58.157 2.92929 1.79017 0
M  V30 596 N 60.6021 -1.18246 1.0419 0
M  V30 597 C 61.5521 -2.19843 0.604392 0
M  V30 598 C 62.5361 -1.56962 -0.353814 0
M  V30 599 O 63.7281 -1.76156 -0.17267 0
M  V30 600 C 60.8571 -3.43287 -0.0298975 0
M  V30 601 C 59.9431 -4.13288 0.951531 0
M  V30 602 N 60.3341 -4.59271 2.11906 0
M  V30 603 C 58.6321 -4.39165 0.7778 0
M  V30 604 C 59.3331 -5.13173 2.73912 0
M  V30 605 N 58.3091 -5.04763 2.01779 0
M  V30 606 H 62.1111 -2.53089 1.4941 0
M  V30 607 H 59.6251 -1.34465 0.910658 0
M  V30 608 H 61.6221 -4.15334 -0.361037 0
M  V30 609 H 60.2821 -3.11537 -0.915127 0
M  V30 610 H 61.2931 -4.5368 2.49789 0
M  V30 611 H 57.9701 -4.17461 -0.0572331 0
M  V30 612 H 59.3601 -5.58947 3.72864 0
M  V30 613 N 62.0802 -0.821533 -1.34494 0
M  V30 614 C 63.4962 -0.507117 -1.51329 0
M  V30 615 C 63.6962 0.968964 -1.76673 0
M  V30 616 O 62.7522 1.75348 -1.81685 0
M  V30 617 C 64.0652 -1.36544 -2.67911 0
M  V30 618 C 65.6132 -1.36242 -2.81793 0
M  V30 619 C 66.0882 -2.2052 -4.01416 0
M  V30 620 N 67.5792 -2.18136 -4.08621 0
M  V30 621 C 68.3142 -2.80095 -5.00334 0
M  V30 622 N 67.8102 -3.51039 -5.9728 0
M  V30 623 N 69.6032 -2.69656 -4.93196 0
M  V30 624 H 61.7542 -1.77729 -1.16302 0
M  V30 625 H 64.0172 -0.757291 -0.570276 0
M  V30 626 H 63.7232 -2.41361 -2.55808 0
M  V30 627 H 63.5972 -1.02917 -3.62888 0
M  V30 628 H 65.9842 -0.322041 -2.93338 0
M  V30 629 H 66.0652 -1.73866 -1.87628 0
M  V30 630 H 65.7092 -3.24607 -3.90631 0
M  V30 631 H 65.6392 -1.80247 -4.94791 0
M  V30 632 H 68.1302 -1.6653 -3.39229 0
M  V30 633 H 68.4432 -3.95565 -6.63889 0
M  V30 634 H 66.7882 -3.55145 -5.97409 0
M  V30 635 H 69.9792 -2.13808 -4.16418 0
M  V30 636 H 70.1522 -3.1823 -5.64476 0
M  V30 637 N 63.5583 1.46682 -0.576371 0
M  V30 638 C 64.8043 2.02712 -0.0596221 0
M  V30 639 C 65.1373 1.44765 1.29448 0
M  V30 640 O 64.4123 0.610355 1.84675 0
M  V30 641 C 64.6953 3.60098 0.0129503 0
M  V30 642 C 64.5483 4.28441 -1.3696 0
M  V30 643 C 65.8673 4.34224 0.71678 0
M  V30 644 H 62.9863 0.736637 -0.0231407 0
M  V30 645 H 65.6283 1.74898 -0.742351 0
M  V30 646 H 63.7783 3.83926 0.594378 0
M  V30 647 H 65.4503 4.15896 -1.9957 0
M  V30 648 H 63.6933 3.8805 -1.93907 0
M  V30 649 H 64.3643 5.3716 -1.27135 0
M  V30 650 H 66.8403 4.15503 0.222908 0
M  V30 651 H 65.7163 5.43936 0.73657 0
M  V30 652 H 65.9773 4.04823 1.77682 0
M  V30 653 N 65.0364 0.313813 1.54444 0
M  V30 654 C 66.2834 -0.291675 2.00388 0
M  V30 655 C 66.6114 -1.52904 1.2021 0
M  V30 656 O 65.8664 -1.93833 0.269707 0
M  V30 657 C 66.1654 -0.680386 3.50864 0
M  V30 658 C 65.8314 0.456699 4.48581 0
M  V30 659 C 64.4934 0.768824 4.75018 0
M  V30 660 C 66.8454 1.22098 5.06697 0
M  V30 661 C 64.1734 1.84812 5.56831 0
M  V30 662 C 66.5254 2.29029 5.89685 0
M  V30 663 C 65.1894 2.60834 6.14428 0
M  V30 664 H 64.4594 -0.106732 0.733273 0
M  V30 665 H 67.1064 0.43557 1.86481 0
M  V30 666 H 65.4114 -1.48791 3.62448 0
M  V30 667 H 67.1084 -1.16026 3.83847 0
M  V30 668 H 63.6984 0.203337 4.28117 0
M  V30 669 H 67.8824 0.993096 4.86263 0
M  V30 670 H 63.1384 2.09912 5.74236 0
M  V30 671 H 67.3124 2.887 6.33739 0
M  V30 672 H 64.9394 3.44596 6.77612 0
M  V30 673 N 66.5145 -1.57545 0.0417849 0
M  V30 674 C 67.7605 -1.92601 -0.635021 0
M  V30 675 C 68.0935 -0.919627 -1.71045 0
M  V30 676 O 67.3685 0.0557892 -1.9442 0
M  V30 677 C 67.6515 -3.38085 -1.23979 0
M  V30 678 C 67.5045 -4.49467 -0.173057 0
M  V30 679 C 68.8235 -3.83776 -2.15416 0
M  V30 680 H 65.9425 -0.700397 -0.229374 0
M  V30 681 H 68.5845 -1.89728 0.101633 0
M  V30 682 H 66.7345 -3.40664 -1.86762 0
M  V30 683 H 68.4065 -4.59018 0.458312 0
M  V30 684 H 66.6495 -4.30909 0.499996 0
M  V30 685 H 67.3205 -5.48323 -0.636054 0
M  V30 686 H 69.7965 -3.83013 -1.62605 0
M  V30 687 H 68.6725 -4.8624 -2.54679 0
M  V30 688 H 68.9335 -3.19998 -3.05047 0
M  V30 689 N 67.9926 0.231505 -1.5589 0
M  V30 690 C 69.2206 0.974505 -1.82513 0
M  V30 691 C 69.6356 1.78344 -0.619591 0
M  V30 692 O 68.9926 1.77792 0.411848 0
M  V30 693 C 69.0436 1.90007 -3.07538 0
M  V30 694 O 68.7646 1.12385 -4.2344 0
M  V30 695 C 70.2656 2.75779 -3.47075 0
M  V30 696 H 67.4856 0.286065 -0.606966 0
M  V30 697 H 70.0296 0.249739 -2.02969 0
M  V30 698 H 68.1846 2.57891 -2.89086 0
M  V30 699 H 68.5986 1.75125 -4.944 0
M  V30 700 H 70.0726 3.36443 -4.37619 0
M  V30 701 H 70.5496 3.47672 -2.68367 0
M  V30 702 H 71.1556 2.13323 -3.67931 0
M  V30 703 N 69.4707 1.49531 0.497807 0
M  V30 704 C 70.4027 1.62559 1.61578 0
M  V30 705 C 71.4157 0.508134 1.54667 0
M  V30 706 O 72.6047 0.780309 1.60541 0
M  V30 707 C 69.7047 1.56925 3.00379 0
M  V30 708 C 68.8777 2.84257 3.3244 0
M  V30 709 C 67.9367 2.71632 4.50669 0
M  V30 710 O 66.9627 3.4557 4.52294 0
M  V30 711 N 68.1647 1.83391 5.5077 0
M  V30 712 H 70.9297 2.58981 1.50828 0
M  V30 713 H 68.4907 1.4666 0.685743 0
M  V30 714 H 70.4827 1.46129 3.77397 0
M  V30 715 H 69.0527 0.683483 3.05037 0
M  V30 716 H 68.2727 3.09381 2.44289 0
M  V30 717 H 69.5607 3.68666 3.5066 0
M  V30 718 H 68.9587 1.22583 5.52259 0
M  V30 719 H 67.5157 1.78515 6.26878 0
M  V30 720 N 70.9488 -0.749086 1.3866 0
M  V30 721 C 71.8588 -1.89358 1.38494 0
M  V30 722 C 72.8748 -1.71708 0.281476 0
M  V30 723 O 74.0508 -1.94554 0.520643 0
M  V30 724 C 71.1158 -3.24782 1.21316 0
M  V30 725 C 70.1768 -3.54926 2.41508 0
M  V30 726 C 69.4098 -4.83888 2.2514 0
M  V30 727 O 69.6328 -5.56592 1.24746 0
M  V30 728 O 68.5668 -5.13612 3.13826 0
M  V30 729 H 72.3928 -1.92452 2.34938 0
M  V30 730 H 69.9778 -0.894981 1.19626 0
M  V30 731 H 71.8598 -4.05739 1.13814 0
M  V30 732 H 70.5348 -3.2249 0.279592 0
M  V30 733 H 69.4418 -2.74112 2.54585 0
M  V30 734 H 70.7748 -3.61983 3.3351 0
M  V30 735 N 72.4269 -1.23603 -0.977757 0
M  V30 736 C 73.3369 -1.03632 -2.1047 0
M  V30 737 C 74.3529 0.0199435 -1.73989 0
M  V30 738 O 75.5289 -0.176076 -2.00629 0
M  V30 739 C 72.5939 -0.63276 -3.40877 0
M  V30 740 C 71.6549 -1.76437 -3.91367 0
M  V30 741 C 70.8879 -1.37997 -5.15551 0
M  V30 742 O 71.1109 -0.265357 -5.69782 0
M  V30 743 O 70.0449 -2.20201 -5.60174 0
M  V30 744 H 73.8709 -1.98086 -2.30208 0
M  V30 745 H 71.4559 -1.02332 -1.08851 0
M  V30 746 H 73.3379 -0.418761 -4.19314 0
M  V30 747 H 72.0129 0.282754 -3.22463 0
M  V30 748 H 70.9199 -2.03304 -3.14036 0
M  V30 749 H 72.2529 -2.6583 -4.14241 0
M  V30 750 N 73.905 1.17692 -1.04816 0
M  V30 751 C 74.868 2.19787 -0.650117 0
M  V30 752 C 75.868 1.58044 0.296427 0
M  V30 753 O 77.058 1.74012 0.0808097 0
M  V30 754 C 74.19 3.40869 0.0456987 0
M  V30 755 H 75.383 2.56516 -1.5537 0
M  V30 756 H 72.936 1.31708 -0.841594 0
M  V30 757 H 73.671 3.09681 0.962726 0
M  V30 758 H 73.456 3.86928 -0.634727 0
M  V30 759 H 74.946 4.16445 0.310432 0
M  V30 760 N 75.3831 0.828654 1.34056 0
M  V30 761 C 76.3331 0.226828 2.26869 0
M  V30 762 C 77.3171 -0.612243 1.48796 0
M  V30 763 O 78.5091 -0.465884 1.70759 0
M  V30 764 C 75.6381 -0.605654 3.37915 0
M  V30 765 C 74.7241 0.244361 4.23395 0
M  V30 766 N 75.1151 1.31815 4.88322 0
M  V30 767 C 73.4131 0.0296616 4.4599 0
M  V30 768 C 74.1141 1.83895 5.51867 0
M  V30 769 N 73.0901 1.14196 5.3147 0
M  V30 770 H 76.8921 1.04811 2.74576 0
M  V30 771 H 74.4061 0.67205 1.47842 0
M  V30 772 H 76.4031 -1.05302 4.03382 0
M  V30 773 H 75.0631 -1.42504 2.91758 0
M  V30 774 H 76.0741 1.70099 4.8917 0
M  V30 775 H 72.7511 -0.757097 4.10578 0
M  V30 776 H 74.1411 2.7376 6.136 0
M  V30 777 N 76.8612 -1.46375 0.584142 0
M  V30 778 C 78.1092 -2.01978 0.0701287 0
M  V30 779 C 78.4302 -1.4579 -1.295 0
M  V30 780 O 77.7002 -0.64314 -1.85042 0
M  V30 781 H 76.2802 -0.746648 0.0229345 0
M  V30 782 H 78.9422 -1.79461 0.760245 0
M  V30 783 H 78.0382 -3.121 0.0022064 0
M  V30 784 N 78.3393 -0.321999 -1.54275 0
M  V30 785 C 79.5853 0.281461 -2.00837 0
M  V30 786 C 79.9183 1.51909 -1.20985 0
M  V30 787 O 79.1933 1.923 -0.291733 0
M  V30 788 C 79.4763 0.617162 -3.54772 0
M  V30 789 C 79.3293 -0.631064 -4.45351 0
M  V30 790 C 80.6483 1.43542 -4.16033 0
M  V30 791 H 77.7673 0.100826 -0.730071 0
M  V30 792 H 80.4093 -0.438268 -1.84876 0
M  V30 793 H 78.5593 1.23034 -3.68504 0
M  V30 794 H 80.2313 -1.26934 -4.43492 0
M  V30 795 H 78.4743 -1.26025 -4.15091 0
M  V30 796 H 79.1453 -0.351735 -5.50878 0
M  V30 797 H 81.6213 0.917134 -4.05867 0
M  V30 798 H 80.4973 1.63907 -5.23856 0
M  V30 799 H 80.7583 2.43108 -3.69257 0
M  V30 800 N 79.8174 1.5752 -0.0501392 0
M  V30 801 C 80.7474 2.14502 0.922566 0
M  V30 802 C 81.7284 1.06642 1.3252 0
M  V30 803 O 82.9134 1.34577 1.4001 0
M  V30 804 C 80.0434 2.68916 2.19776 0
M  V30 805 C 78.9974 3.8175 1.93523 0
M  V30 806 C 78.3234 4.22677 3.27487 0
M  V30 807 C 79.6234 5.06932 1.25765 0
M  V30 808 H 81.3174 2.9603 0.447952 0
M  V30 809 H 78.8634 1.42401 0.214024 0
M  V30 810 H 80.8164 3.07419 2.88222 0
M  V30 811 H 79.5404 1.84578 2.69441 0
M  V30 812 H 78.1994 3.43718 1.27489 0
M  V30 813 H 77.8474 3.35291 3.74952 0
M  V30 814 H 77.5474 4.98725 3.1072 0
M  V30 815 H 79.0714 4.63779 3.97166 0
M  V30 816 H 80.4854 5.42888 1.84244 0
M  V30 817 H 78.8824 5.88116 1.19328 0
M  V30 818 H 79.9524 4.84337 0.233536 0
M  V30 819 N 81.2955 -0.223234 1.56011 0
M  V30 820 C 82.2455 -1.28008 1.88674 0
M  V30 821 C 83.2295 -1.42369 0.749663 0
M  V30 822 O 84.4215 -1.45212 1.01205 0
M  V30 823 C 81.5505 -2.63084 2.20548 0
M  V30 824 C 80.6365 -2.52632 3.40643 0
M  V30 825 N 81.0275 -2.11829 4.59306 0
M  V30 826 C 79.3255 -2.83594 3.44224 0
M  V30 827 C 80.0265 -2.12587 5.41463 0
M  V30 828 N 79.0025 -2.5301 4.81131 0
M  V30 829 H 82.8045 -0.955487 2.77935 0
M  V30 830 H 80.3185 -0.431801 1.56554 0
M  V30 831 H 82.3155 -3.39385 2.42122 0
M  V30 832 H 80.9755 -2.96391 1.32599 0
M  V30 833 H 81.9865 -1.82988 4.84496 0
M  V30 834 H 78.6635 -3.21284 2.66614 0
M  V30 835 H 80.0535 -1.83179 6.46448 0
M  V30 836 N 82.7736 -1.49793 -0.48987 0
M  V30 837 C 84.1896 -1.36803 -0.822022 0
M  V30 838 C 84.3896 -0.409652 -1.97292 0
M  V30 839 O 83.4456 0.154614 -2.52026 0
M  V30 840 C 84.7586 -2.77768 -1.15175 0
M  V30 841 C 86.3066 -2.86549 -1.25931 0
M  V30 842 C 86.7816 -4.28306 -1.62228 0
M  V30 843 N 88.2726 -4.31169 -1.69256 0
M  V30 844 C 89.0076 -5.37832 -1.98807 0
M  V30 845 N 88.5036 -6.54726 -2.26507 0
M  V30 846 N 90.2966 -5.25258 -2.00152 0
M  V30 847 H 82.4476 -2.10691 0.268881 0
M  V30 848 H 84.7106 -0.946241 0.057728 0
M  V30 849 H 84.4166 -3.49648 -0.379335 0
M  V30 850 H 84.2906 -3.13836 -2.09253 0
M  V30 851 H 86.6776 -2.14899 -2.02243 0
M  V30 852 H 86.7586 -2.54049 -0.298776 0
M  V30 853 H 86.4026 -5.00486 -0.864622 0
M  V30 854 H 86.3326 -4.58279 -2.594 0
M  V30 855 H 88.8236 -3.4687 -1.49965 0
M  V30 856 H 89.1366 -7.31833 -2.48276 0
M  V30 857 H 87.4816 -6.57933 -2.23939 0
M  V30 858 H 90.6726 -4.32938 -1.77996 0
M  V30 859 H 90.8456 -6.08476 -2.22848 0
M  V30 860 N 84.2517 0.741722 -1.39055 0
M  V30 861 C 85.6677 1.04638 -1.20512 0
M  V30 862 C 85.8677 2.01405 -0.0620218 0
M  V30 863 O 84.9237 2.45547 0.588457 0
M  V30 864 C 86.2367 1.6151 -2.53643 0
M  V30 865 C 87.7847 1.73623 -2.6043 0
M  V30 866 C 88.2597 2.33906 -3.93767 0
M  V30 867 N 89.7507 2.41323 -3.9537 0
M  V30 868 C 90.4857 2.88888 -4.95309 0
M  V30 869 N 89.9817 3.36401 -6.05645 0
M  V30 870 N 91.7747 2.88037 -4.82692 0
M  V30 871 H 83.9257 0.0998155 -2.12165 0
M  V30 872 H 86.1887 0.106907 -0.941953 0
M  V30 873 H 85.8947 0.978739 -3.37807 0
M  V30 874 H 85.7687 2.60411 -2.72885 0
M  V30 875 H 88.1557 2.36384 -1.76655 0
M  V30 876 H 88.2367 0.733945 -2.45045 0
M  V30 877 H 87.8807 1.71776 -4.7797 0
M  V30 878 H 87.8107 3.34799 -4.06469 0
M  V30 879 H 90.3017 2.07734 -3.15682 0
M  V30 880 H 90.6147 3.71186 -6.77821 0
M  V30 881 H 88.9597 3.34427 -6.09248 0
M  V30 882 H 92.1507 2.50237 -3.95599 0
M  V30 883 H 92.3237 3.24792 -5.60726 0
M  V30 884 N 85.7298 1.2412 0.971189 0
M  V30 885 C 87.1458 1.00584 1.23916 0
M  V30 886 C 87.3458 -0.287481 1.99439 0
M  V30 887 O 86.4018 -1.00454 2.31658 0
M  V30 888 C 87.7148 2.21864 2.0297 0
M  V30 889 C 89.2628 2.26452 2.16076 0
M  V30 890 C 89.7378 3.47343 2.98524 0
M  V30 891 N 91.2288 3.47639 3.06107 0
M  V30 892 C 91.9638 4.37837 3.70251 0
M  V30 893 N 91.4598 5.38286 4.36142 0
M  V30 894 N 93.2528 4.25558 3.67228 0
M  V30 895 H 85.4038 2.07236 0.465499 0
M  V30 896 H 87.6668 0.909236 0.268315 0
M  V30 897 H 87.3728 3.15771 1.54861 0
M  V30 898 H 87.2468 2.23698 3.03709 0
M  V30 899 H 89.6338 1.33078 2.6339 0
M  V30 900 H 89.7148 2.28645 1.14696 0
M  V30 901 H 89.3588 4.41029 2.51905 0
M  V30 902 H 89.2888 3.42393 4.00093 0
M  V30 903 H 91.7798 2.74966 2.59233 0
M  V30 904 H 92.0928 6.03352 4.82894 0
M  V30 905 H 90.4378 5.42176 4.34822 0
M  V30 906 H 93.6288 3.46322 3.14927 0
M  V30 907 H 93.8018 4.96054 4.16935 0
M  V30 908 N 87.2079 -1.17134 1.05439 0
M  V30 909 C 88.6239 -1.39454 0.776201 0
M  V30 910 C 88.8239 -1.91454 -0.628307 0
M  V30 911 O 87.8799 -2.10777 -1.39031 0
M  V30 912 C 89.1929 -2.38305 1.83388 0
M  V30 913 C 90.7409 -2.52006 1.85639 0
M  V30 914 C 91.2159 -3.54133 2.90437 0
M  V30 915 N 92.7069 -3.61653 2.89415 0
M  V30 916 C 93.4419 -4.4044 3.67152 0
M  V30 917 N 92.9379 -5.22721 4.54681 0
M  V30 918 N 94.7309 -4.35337 3.55581 0
M  V30 919 H 86.8819 -0.817134 1.96053 0
M  V30 920 H 89.1449 -0.421626 0.849079 0
M  V30 921 H 88.8509 -2.07173 2.84204 0
M  V30 922 H 88.7249 -3.37841 1.67761 0
M  V30 923 H 91.1119 -2.82447 0.85486 0
M  V30 924 H 91.1929 -1.52537 2.05344 0
M  V30 925 H 90.8369 -3.24431 3.90777 0
M  V30 926 H 90.7669 -4.53313 2.67983 0
M  V30 927 H 93.2579 -3.02909 2.25952 0
M  V30 928 H 93.5709 -5.80027 5.10674 0
M  V30 929 H 91.9159 -5.22093 4.58741 0
M  V30 930 H 95.1069 -3.70112 2.86592 0
M  V30 931 H 95.2799 -4.96494 4.1641 0
M  V30 932 N 88.686 -0.835752 -1.33615 0
M  V30 933 C 89.649 -0.272 -2.2758 0
M  V30 934 C 90.649 0.557487 -1.50827 0
M  V30 935 O 91.839 0.37173 -1.70188 0
M  V30 936 C 88.971 0.617173 -3.35267 0
M  V30 937 H 90.164 -1.10111 -2.78954 0
M  V30 938 H 87.717 -0.608594 -1.43965 0
M  V30 939 H 88.452 1.46884 -2.89129 0
M  V30 940 H 88.237 0.0237066 -3.92093 0
M  V30 941 H 89.727 1.005 -4.05326 0
M  V30 942 N 90.1641 1.46063 -0.591896 0
M  V30 943 C 91.1121 2.32124 0.148739 0
M  V30 944 C 92.1061 1.45035 0.875286 0
M  V30 945 O 93.3121 1.61609 0.792632 0
M  V30 946 H 89.6871 0.749024 0.066832 0
M  V30 947 H 91.6581 2.92392 -0.595783 0
M  V30 948 C 90.4071 3.28373 1.1431 0
M  V30 949 H 89.7301 3.95371 0.59346 0
M  V30 950 H 91.1701 3.91352 1.63155 0
M  V30 951 C 89.6291 2.54393 2.20875 0
M  V30 952 O 90.1591 2.31373 3.28374 0
M  V30 953 N 88.3651 2.14797 1.95731 0
M  V30 954 H 87.9121 2.33719 1.08319 0
M  V30 955 H 87.8701 1.65619 2.67241 0
M  V30 956 N 91.6422 0.330177 1.54103 0
M  V30 957 C 92.6052 -0.520144 2.2322 0
M  V30 958 C 93.6052 -1.03828 1.22786 0
M  V30 959 O 94.7952 -0.929652 1.4732 0
M  V30 960 C 91.9272 -1.72317 2.94142 0
M  V30 961 H 93.1202 0.0841605 2.99782 0
M  V30 962 H 90.6732 0.0813433 1.56088 0
M  V30 963 H 91.4082 -2.36653 2.21734 0
M  V30 964 H 91.1932 -1.35898 3.67796 0
M  V30 965 H 92.6832 -2.3266 3.46784 0
M  V30 966 N 93.1203 -1.57491 0.0584922 0
M  V30 967 C 94.3673 -1.92978 -0.613648 0
M  V30 968 C 94.6953 -0.937461 -1.70417 0
M  V30 969 O 93.9503 0.049078 -1.95638 0
M  V30 970 C 94.2493 -3.3513 -1.24188 0
M  V30 971 C 93.9153 -4.50037 -0.278826 0
M  V30 972 C 92.5773 -4.81198 -0.0138447 0
M  V30 973 C 94.9293 -5.19807 0.380777 0
M  V30 974 C 92.2573 -5.79473 0.918052 0
M  V30 975 C 94.6093 -6.19079 1.30091 0
M  V30 976 C 93.2733 -6.48665 1.57449 0
M  V30 977 H 92.5433 -0.706157 -0.22455 0
M  V30 978 H 95.1903 -1.91082 0.126533 0
M  V30 979 H 93.4953 -3.33429 -2.05749 0
M  V30 980 H 95.1923 -3.59871 -1.769 0
M  V30 981 H 91.7823 -4.25726 -0.495539 0
M  V30 982 H 95.9663 -4.95939 0.189158 0
M  V30 983 H 91.2223 -6.00727 1.1374 0
M  V30 984 H 95.3963 -6.7225 1.81804 0
M  V30 985 H 93.0233 -7.24628 2.29822 0
M  V30 986 N 94.5984 0.214957 -1.56127 0
M  V30 987 C 95.5284 1.2695 -1.95974 0
M  V30 988 C 96.5094 1.48539 -0.828868 0
M  V30 989 O 97.6944 1.60611 -1.09168 0
M  V30 990 C 94.8244 2.61794 -2.28214 0
M  V30 991 C 93.7784 2.54851 -3.43853 0
M  V30 992 C 93.1044 3.93785 -3.61715 0
M  V30 993 C 94.4044 2.09065 -4.78632 0
M  V30 994 H 96.0984 0.93846 -2.84312 0
M  V30 995 H 93.6444 0.449996 -1.36788 0
M  V30 996 H 95.5974 3.35731 -2.54682 0
M  V30 997 H 94.3214 2.96599 -1.36736 0
M  V30 998 H 92.9804 1.8337 -3.17444 0
M  V30 999 H 92.6284 4.25908 -2.67602 0
M  V30 1000 H 92.3284 3.90019 -4.39498 0
M  V30 1001 H 93.8524 4.69374 -3.90539 0
M  V30 1002 H 95.2664 2.7275 -5.04262 0
M  V30 1003 H 93.6634 2.16346 -5.59745 0
M  V30 1004 H 94.7334 1.04315 -4.73547 0
M  V30 1005 N 96.0765 1.50051 0.48192 0
M  V30 1006 C 96.9865 1.7089 1.60728 0
M  V30 1007 C 98.0025 0.591788 1.63627 0
M  V30 1008 O 99.1785 0.868817 1.81696 0
M  V30 1009 C 96.2435 1.78855 2.97005 0
M  V30 1010 C 95.3045 3.02537 3.04581 0
M  V30 1011 C 94.5375 3.10112 4.34357 0
M  V30 1012 O 94.7605 2.24765 5.24249 0
M  V30 1013 O 93.6945 4.02747 4.47301 0
M  V30 1014 H 97.5205 2.66264 1.46072 0
M  V30 1015 H 95.1055 1.34018 0.660264 0
M  V30 1016 H 96.9875 1.86336 3.77964 0
M  V30 1017 H 95.6625 0.866628 3.11883 0
M  V30 1018 H 94.5695 3.00563 2.22739 0
M  V30 1019 H 95.9025 3.94272 2.94636 0
M  V30 1020 N 97.5546 -0.734337 1.39446 0
M  V30 1021 C 98.4646 -1.87879 1.40495 0
M  V30 1022 C 99.4806 -1.714 0.299672 0
M  V30 1023 O 100.657 -1.93991 0.541249 0
M  V30 1024 C 97.7216 -3.23477 1.24754 0
M  V30 1025 C 96.7826 -3.52344 2.45259 0
M  V30 1026 C 96.0156 -4.81473 2.30259 0
M  V30 1027 O 96.2386 -5.55237 1.30643 0
M  V30 1028 O 95.1726 -5.10254 3.19256 0
M  V30 1029 H 98.9986 -1.89949 2.36966 0
M  V30 1030 H 96.5836 -0.882243 1.20569 0
M  V30 1031 H 98.4656 -4.04509 1.18111 0
M  V30 1032 H 97.1406 -3.22176 0.313781 0
M  V30 1033 H 96.0476 -2.71396 2.57478 0
M  V30 1034 H 97.3806 -3.58426 3.37331 0
M  V30 1035 N 99.0327 -1.24633 -0.964593 0
M  V30 1036 C 99.9627 -1.06611 -2.07741 0
M  V30 1037 C 100.944 0.0218666 -1.70086 0
M  V30 1038 O 102.129 -0.145793 -1.93652 0
M  V30 1039 C 99.2587 -0.673444 -3.40708 0
M  V30 1040 C 98.2127 -1.71054 -3.92332 0
M  V30 1041 C 97.5387 -1.17285 -5.21678 0
M  V30 1042 C 98.8387 -3.10718 -4.19824 0
M  V30 1043 H 100.533 -1.99693 -2.23076 0
M  V30 1044 H 98.0787 -0.96152 -1.07195 0
M  V30 1045 H 100.032 -0.534345 -4.17998 0
M  V30 1046 H 98.7557 0.293073 -3.25282 0
M  V30 1047 H 97.4147 -1.83791 -3.17201 0
M  V30 1048 H 97.0627 -0.196847 -5.02615 0
M  V30 1049 H 96.7627 -1.86592 -5.57187 0
M  V30 1050 H 98.2867 -1.04593 -6.01575 0
M  V30 1051 H 99.7007 -3.01192 -4.87808 0
M  V30 1052 H 98.0977 -3.77406 -4.66567 0
M  V30 1053 H 99.1677 -3.58524 -3.26479 0
M  V30 1054 N 100.511 1.16574 -1.06058 0
M  V30 1055 C 101.927 1.3904 -0.783585 0
M  V30 1056 C 102.127 1.91784 0.618145 0
M  V30 1057 O 101.183 2.11511 1.37911 0
M  V30 1058 C 102.496 2.37329 -1.84649 0
M  V30 1059 C 104.044 2.51018 -1.86973 0
M  V30 1060 C 104.519 3.52588 -2.92311 0
M  V30 1061 N 106.01 3.60113 -2.91329 0
M  V30 1062 C 106.745 4.38486 -3.69482 0
M  V30 1063 N 106.241 5.20302 -4.57447 0
M  V30 1064 N 108.034 4.33446 -3.57885 0
M  V30 1065 H 100.185 0.806725 -1.96483 0
M  V30 1066 H 102.448 0.417117 -0.851303 0
M  V30 1067 H 102.154 2.05663 -2.85299 0
M  V30 1068 H 102.028 3.36946 -1.6955 0
M  V30 1069 H 104.415 2.81989 -0.869827 0
M  V30 1070 H 104.496 1.51445 -2.0615 0
M  V30 1071 H 104.14 3.22354 -3.92492 0
M  V30 1072 H 104.07 4.51886 -2.70383 0
M  V30 1073 H 106.561 3.01707 -2.27555 0
M  V30 1074 H 106.874 5.77311 -5.13743 0
M  V30 1075 H 105.219 5.19653 -4.61503 0
M  V30 1076 H 108.41 3.68586 -2.88551 0
M  V30 1077 H 108.583 4.94279 -4.19037 0
M  V30 1078 N 101.989 0.842826 1.3317 0
M  V30 1079 C 103.4 0.496651 1.79973 0
M  V30 1080 C 103.751 -0.984641 1.69703 0
M  V30 1081 O 102.876 -1.76743 1.24863 0
M  V30 1082 C 103.471 0.894727 3.26772 0
M  V30 1083 C 102.03 0.600629 3.71577 0
M  V30 1084 C 101.177 1.10091 2.5451 0
M  V30 1085 H 104.128 1.03116 1.20635 0
M  V30 1086 H 104.149 0.206347 3.7994 0
M  V30 1087 H 103.661 1.97287 3.34215 0
M  V30 1088 H 101.762 -0.467284 3.69658 0
M  V30 1089 H 101.875 1.15863 4.64879 0
M  V30 1090 H 100.239 0.52162 2.49301 0
M  V30 1091 H 101.022 2.18591 2.64713 0
M  V30 1092 N 103.467 -1.45747 0.599634 0
M  V30 1093 C 104.715 -2.01893 0.0915472 0
M  V30 1094 C 105.036 -1.47155 -1.27946 0
M  V30 1095 O 104.306 -0.66273 -1.84349 0
M  V30 1096 H 102.886 -0.746363 0.0308524 0
M  V30 1097 H 105.548 -1.78645 0.779237 0
M  V30 1098 H 104.644 -3.1208 0.0353086 0
M  V30 1099 N 104.945 -0.338344 -1.53925 0
M  V30 1100 C 106.17 0.263987 -2.05713 0
M  V30 1101 C 106.595 1.43847 -1.21201 0
M  V30 1102 O 105.953 1.79904 -0.224535 0
M  V30 1103 C 106.001 0.662 -3.54471 0
M  V30 1104 O 105.105 1.76265 -3.72833 0
M  V30 1105 H 104.446 0.0448722 -0.662482 0
M  V30 1106 H 106.976 -0.491048 -1.9862 0
M  V30 1107 H 106.986 0.940594 -3.9701 0
M  V30 1108 H 105.661 -0.196937 -4.15433 0
M  V30 1109 H 104.238 1.48173 -3.42198 0
M  V30 1110 N 106.423 1.57458 -0.0668435 0
M  V30 1111 C 107.353 2.15468 0.899764 0
M  V30 1112 C 108.334 1.08042 1.31381 0
M  V30 1113 O 109.519 1.36054 1.38574 0
M  V30 1114 C 106.649 2.71232 2.16911 0
M  V30 1115 C 105.603 3.83781 1.89463 0
M  V30 1116 C 104.929 4.26127 3.22986 0
M  V30 1117 C 106.229 5.08238 1.20381 0
M  V30 1118 H 107.923 2.96488 0.416529 0
M  V30 1119 H 105.469 1.4262 0.198908 0
M  V30 1120 H 107.422 3.10458 2.84945 0
M  V30 1121 H 106.146 1.87426 2.67468 0
M  V30 1122 H 104.805 3.45051 1.23836 0
M  V30 1123 H 104.453 3.39249 3.71374 0
M  V30 1124 H 104.153 5.01993 3.05413 0
M  V30 1125 H 105.677 4.67966 3.92225 0
M  V30 1126 H 107.091 5.44811 1.78475 0
M  V30 1127 H 105.488 5.89349 1.13083 0
M  V30 1128 H 106.558 4.84558 0.182153 0
M  V30 1129 N 107.901 -0.206675 1.56239 0
M  V30 1130 C 108.811 -1.27686 1.96808 0
M  V30 1131 C 109.827 -1.50455 0.874035 0
M  V30 1132 O 111.003 -1.63295 1.17884 0
M  V30 1133 C 108.068 -2.60358 2.28942 0
M  V30 1134 C 107.129 -2.45762 3.51994 0
M  V30 1135 C 106.362 -3.72108 3.82585 0
M  V30 1136 O 106.585 -4.75776 3.14631 0
M  V30 1137 O 105.519 -3.6833 4.76043 0
M  V30 1138 H 109.345 -0.962593 2.88041 0
M  V30 1139 H 106.93 -0.410746 1.43643 0
M  V30 1140 H 108.812 -3.38687 2.50737 0
M  V30 1141 H 107.487 -2.91435 1.4088 0
M  V30 1142 H 106.394 -1.65584 3.35459 0
M  V30 1143 H 107.727 -2.19621 4.40486 0
M  V30 1144 N 109.379 -1.50304 -0.473955 0
M  V30 1145 C 110.795 -1.37667 -0.807466 0
M  V30 1146 C 110.995 -0.430555 -1.96846 0
M  V30 1147 O 110.051 0.127874 -2.52176 0
M  V30 1148 C 111.364 -2.78974 -1.12223 0
M  V30 1149 C 112.912 -2.87868 -1.22885 0
M  V30 1150 C 113.387 -4.30003 -1.57676 0
M  V30 1151 N 114.878 -4.3294 -1.64673 0
M  V30 1152 C 115.613 -5.3991 -1.93091 0
M  V30 1153 N 115.109 -6.57092 -2.1955 0
M  V30 1154 N 116.902 -5.27351 -1.94569 0
M  V30 1155 H 109.053 -2.10394 0.291212 0
M  V30 1156 H 111.316 -0.945575 0.0677609 0
M  V30 1157 H 111.022 -3.50031 -0.342229 0
M  V30 1158 H 110.896 -3.16038 -2.05913 0
M  V30 1159 H 113.283 -2.17032 -1.99953 0
M  V30 1160 H 113.364 -2.54352 -0.271814 0
M  V30 1161 H 113.008 -5.01375 -0.81149 0
M  V30 1162 H 112.938 -4.61004 -2.54525 0
M  V30 1163 H 115.429 -3.48441 -1.46277 0
M  V30 1164 H 115.742 -7.34425 -2.405 0
M  V30 1165 H 114.087 -6.60272 -2.16948 0
M  V30 1166 H 117.278 -4.34801 -1.73394 0
M  V30 1167 H 117.451 -6.10805 -2.16381 0
M  V30 1168 N 110.857 0.726932 -1.39834 0
M  V30 1169 C 111.767 1.87131 -1.41489 0
M  V30 1170 C 112.783 1.71239 -0.308757 0
M  V30 1171 O 113.959 1.93701 -0.551529 0
M  V30 1172 C 111.024 3.22811 -1.26468 0
M  V30 1173 C 110.085 3.51039 -2.47124 0
M  V30 1174 C 109.318 4.80245 -2.3281 0
M  V30 1175 O 109.541 5.54537 -1.33585 0
M  V30 1176 O 108.475 5.08554 -3.21957 0
M  V30 1177 H 112.301 1.8869 -2.3797 0
M  V30 1178 H 109.886 0.875837 -1.21035 0
M  V30 1179 H 111.768 4.03877 -1.20255 0
M  V30 1180 H 110.443 3.22005 -0.330862 0
M  V30 1181 H 109.35 2.70027 -2.58914 0
M  V30 1182 H 110.683 3.56632 -3.39227 0
M  V30 1183 N 112.336 1.25143 0.95797 0
M  V30 1184 C 113.576 1.10893 1.71703 0
M  V30 1185 C 113.94 -0.34478 1.88879 0
M  V30 1186 O 115.141 -0.609014 2.6181 0
M  V30 1187 C 113.412 1.83889 3.06463 0
M  V30 1188 S 114.971 1.85491 3.97666 0
M  V30 1189 H 111.789 0.396428 0.590226 0
M  V30 1190 H 114.391 1.58618 1.14283 0
M  V30 1191 H 113.095 2.88756 2.9163 0
M  V30 1192 H 112.626 1.36538 3.68946 0
M  V30 1193 H 114.641 0.929553 4.87415 0
M  V30 1194 N 113.814 -1.1601 1.06675 0
M  V30 1195 C 114.761 -2.20525 0.680967 0
M  V30 1196 C 115.731 -1.62904 -0.324283 0
M  V30 1197 O 116.916 -1.89615 -0.212294 0
M  V30 1198 C 114.056 -3.45013 0.0776551 0
M  V30 1199 C 113.169 -4.16863 1.13355 0
M  V30 1200 C 112.304 -5.2888 0.49597 0
M  V30 1201 C 111.343 -5.92537 1.53513 0
M  V30 1202 N 110.48 -6.96038 0.920631 0
M  V30 1203 H 115.32 -2.52876 1.57663 0
M  V30 1204 H 112.857 -1.24199 0.788223 0
M  V30 1205 H 114.815 -4.16193 -0.289704 0
M  V30 1206 H 113.445 -3.132 -0.781393 0
M  V30 1207 H 112.497 -3.44248 1.61857 0
M  V30 1208 H 113.809 -4.60294 1.92174 0
M  V30 1209 H 112.963 -6.06653 0.0758604 0
M  V30 1210 H 111.702 -4.86622 -0.324062 0
M  V30 1211 H 110.707 -5.13482 1.9651 0
M  V30 1212 H 111.932 -6.36873 2.35733 0
M  V30 1213 H 109.878 -6.55888 0.12138 0
M  V30 1214 H 109.795 -7.3786 1.64616 0
M  V30 1215 H 111.063 -7.77725 0.525795 0
M  V30 1216 N 115.292 -0.849877 -1.32721 0
M  V30 1217 C 116.202 -0.293791 -2.32753 0
M  V30 1218 C 117.218 0.585906 -1.63839 0
M  V30 1219 O 118.394 0.487413 -1.95413 0
M  V30 1220 C 115.459 0.512752 -3.42887 0
M  V30 1221 C 114.52 -0.39252 -4.27502 0
M  V30 1222 C 113.753 0.375625 -5.32377 0
M  V30 1223 O 113.976 1.60613 -5.4732 0
M  V30 1224 O 112.91 -0.256094 -6.01355 0
M  V30 1225 H 116.736 -1.12242 -2.82197 0
M  V30 1226 H 114.321 -0.612685 -1.36259 0
M  V30 1227 H 116.203 0.970704 -4.10067 0
M  V30 1228 H 114.878 1.31826 -2.95641 0
M  V30 1229 H 113.785 -0.898547 -3.63149 0
M  V30 1230 H 115.118 -1.16309 -4.7826 0
M  V30 1231 N 116.77 1.45427 -0.607355 0
M  V30 1232 C 117.68 2.34325 0.113463 0
M  V30 1233 C 118.696 1.51226 0.860617 0
M  V30 1234 O 119.872 1.84029 0.818255 0
M  V30 1235 C 116.937 3.28839 1.09844 0
M  V30 1236 C 115.998 4.27844 0.353271 0
M  V30 1237 C 115.231 5.17842 1.29133 0
M  V30 1238 O 115.454 5.11264 2.52913 0
M  V30 1239 O 114.388 5.96713 0.788523 0
M  V30 1240 H 118.214 2.97364 -0.617094 0
M  V30 1241 H 115.799 1.44807 -0.367619 0
M  V30 1242 H 117.681 3.8708 1.66575 0
M  V30 1243 H 116.356 2.68365 1.81003 0
M  V30 1244 H 115.263 3.7322 -0.256494 0
M  V30 1245 H 116.596 4.91173 -0.317822 0
M  V30 1246 N 118.248 0.346503 1.53744 0
M  V30 1247 C 119.18 -0.543316 2.22667 0
M  V30 1248 C 120.193 -1.06159 1.23427 0
M  V30 1249 O 121.382 -0.971235 1.49764 0
M  V30 1250 C 118.482 -1.76076 2.89569 0
M  V30 1251 C 117.655 -1.37727 4.15151 0
M  V30 1252 C 116.714 -2.45471 4.65436 0
M  V30 1253 O 115.74 -2.08655 5.29577 0
M  V30 1254 N 116.942 -3.7677 4.41616 0
M  V30 1255 H 119.707 0.0469703 2.99663 0
M  V30 1256 H 117.268 0.170766 1.60997 0
M  V30 1257 H 119.26 -2.47593 3.20125 0
M  V30 1258 H 117.83 -2.25835 2.16142 0
M  V30 1259 H 117.05 -0.492746 3.91108 0
M  V30 1260 H 118.338 -1.09708 4.96832 0
M  V30 1261 H 117.736 -4.09467 3.90325 0
M  V30 1262 H 116.293 -4.44448 4.7677 0
M  V30 1263 N 119.726 -1.57421 0.075193 0
M  V30 1264 C 120.966 -1.95495 -0.596757 0
M  V30 1265 C 121.33 -0.954886 -1.66571 0
M  V30 1266 O 122.531 -1.22341 -2.39345 0
M  V30 1267 C 120.802 -3.382 -1.15566 0
M  V30 1268 S 122.361 -3.98254 -1.84226 0
M  V30 1269 H 119.179 -0.683649 -0.195307 0
M  V30 1270 H 121.781 -1.94925 0.149859 0
M  V30 1271 H 120.485 -4.08766 -0.36588 0
M  V30 1272 H 120.016 -3.42321 -1.93856 0
M  V30 1273 H 122.031 -3.85435 -3.12497 0
M  V30 1274 N 121.204 0.198386 -1.56346 0
M  V30 1275 C 122.429 0.939682 -1.84891 0
M  V30 1276 C 122.854 1.76202 -0.658369 0
M  V30 1277 O 122.212 1.76993 0.392851 0
M  V30 1278 C 122.26 1.81428 -3.11635 0
M  V30 1279 O 121.364 2.91265 -2.91956 0
M  V30 1280 H 120.705 0.264807 -0.608912 0
M  V30 1281 H 123.235 0.204695 -2.03573 0
M  V30 1282 H 123.245 2.21958 -3.42343 0
M  V30 1283 H 121.92 1.21004 -3.97908 0
M  V30 1284 H 120.497 2.54514 -2.72538 0
M  V30 1285 N 122.682 1.50554 0.465978 0
M  V30 1286 C 123.929 1.61798 1.21768 0
M  V30 1287 C 124.257 0.320696 1.91838 0
M  V30 1288 O 123.512 -0.693724 1.82992 0
M  V30 1289 C 123.811 2.75152 2.28093 0
M  V30 1290 C 123.477 4.15454 1.75239 0
M  V30 1291 C 122.139 4.53628 1.60546 0
M  V30 1292 C 124.491 5.03121 1.36083 0
M  V30 1293 C 121.819 5.77204 1.05128 0
M  V30 1294 C 124.171 6.27249 0.821056 0
M  V30 1295 C 122.835 6.64221 0.660795 0
M  V30 1296 H 122.105 0.592063 0.445582 0
M  V30 1297 H 124.752 1.84503 0.512927 0
M  V30 1298 H 123.057 2.46556 3.04496 0
M  V30 1299 H 124.754 2.81055 2.86023 0
M  V30 1300 H 121.344 3.85341 1.87644 0
M  V30 1301 H 125.528 4.74257 1.46267 0
M  V30 1302 H 120.784 6.0452 0.91462 0
M  V30 1303 H 124.958 6.94537 0.509018 0
M  V30 1304 H 122.585 7.59854 0.229226 0
M  V30 1305 N 124.16 -0.719506 1.40217 0
M  V30 1306 C 125.07 -1.86378 1.42479 0
M  V30 1307 C 126.086 -1.71073 0.317834 0
M  V30 1308 O 127.262 -1.93406 0.561794 0
M  V30 1309 C 124.327 -3.22136 1.28178 0
M  V30 1310 C 123.388 -3.49723 2.48982 0
M  V30 1311 C 122.621 -4.79004 2.35353 0
M  V30 1312 O 122.844 -5.53821 1.36524 0
M  V30 1313 O 121.778 -5.06839 3.2465 0
M  V30 1314 H 125.604 -1.87425 2.38968 0
M  V30 1315 H 123.189 -0.869405 1.21498 0
M  V30 1316 H 125.071 -4.03234 1.22395 0
M  V30 1317 H 123.746 -3.21825 0.347934 0
M  V30 1318 H 122.653 -2.6865 2.60342 0
M  V30 1319 H 123.986 -3.54828 3.41113 0
M  V30 1320 N 125.638 -1.25649 -0.95132 0
M  V30 1321 C 126.548 -1.08073 -2.08224 0
M  V30 1322 C 127.564 -0.0169666 -1.73992 0
M  V30 1323 O 128.74 -0.218593 -2.0021 0
M  V30 1324 C 125.805 -0.704922 -3.39458 0
M  V30 1325 C 124.866 -1.84699 -3.87537 0
M  V30 1326 C 124.099 -1.48902 -5.12508 0
M  V30 1327 O 124.322 -0.386156 -5.69091 0
M  V30 1328 O 123.256 -2.32033 -5.55378 0
M  V30 1329 H 127.082 -2.02924 -2.25954 0
M  V30 1330 H 124.667 -1.04618 -1.06656 0
M  V30 1331 H 126.549 -0.507609 -4.18332 0
M  V30 1332 H 125.224 0.214291 -3.2299 0
M  V30 1333 H 124.131 -2.09919 -3.09653 0
M  V30 1334 H 125.464 -2.74557 -4.08509 0
M  V30 1335 N 127.117 1.15442 -1.07289 0
M  V30 1336 C 128.08 2.18358 -0.696591 0
M  V30 1337 C 129.08 1.58637 0.262837 0
M  V30 1338 O 130.27 1.74145 0.0438809 0
M  V30 1339 C 127.402 3.4089 -0.0266151 0
M  V30 1340 H 128.595 2.53162 -1.60776 0
M  V30 1341 H 126.148 1.29893 -0.869342 0
M  V30 1342 H 126.883 3.11653 0.896822 0
M  V30 1343 H 126.668 3.85495 -0.716657 0
M  V30 1344 H 128.158 4.17009 0.222028 0
M  V30 1345 N 128.595 0.856903 1.32268 0
M  V30 1346 C 130.011 0.547061 1.49931 0
M  V30 1347 C 130.211 -0.921781 1.7918 0
M  V30 1348 O 129.267 -1.70469 1.8627 0
M  V30 1349 C 130.58 1.43599 2.64196 0
M  V30 1350 C 132.128 1.43665 2.78081 0
M  V30 1351 C 132.603 2.31085 3.95428 0
M  V30 1352 N 134.094 2.28893 4.02694 0
M  V30 1353 C 134.829 2.93262 4.92732 0
M  V30 1354 N 134.325 3.66751 5.87763 0
M  V30 1355 N 136.118 2.82638 4.85873 0
M  V30 1356 H 128.269 1.8075 1.11549 0
M  V30 1357 H 130.532 0.772144 0.549997 0
M  V30 1358 H 130.238 2.48058 2.49319 0
M  V30 1359 H 130.112 1.12502 3.60032 0
M  V30 1360 H 132.499 0.399701 2.92381 0
M  V30 1361 H 132.58 1.7878 1.82952 0
M  V30 1362 H 132.224 3.34849 3.81888 0
M  V30 1363 H 132.154 1.93302 4.89839 0
M  V30 1364 H 134.645 1.75466 3.34694 0
M  V30 1365 H 134.958 4.13027 6.53168 0
M  V30 1366 H 133.303 3.70859 5.87783 0
M  V30 1367 H 136.494 2.24774 4.10602 0
M  V30 1368 H 136.667 3.33084 5.55841 0
M  V30 1369 N 130.073 -1.45103 0.615059 0
M  V30 1370 C 130.983 -2.34382 -0.101034 0
M  V30 1371 C 131.999 -1.51681 -0.852585 0
M  V30 1372 O 133.175 -1.8446 -0.808484 0
M  V30 1373 C 130.24 -3.29417 -1.08099 0
M  V30 1374 C 129.301 -4.28025 -0.330577 0
M  V30 1375 C 128.534 -5.1852 -1.26385 0
M  V30 1376 O 128.757 -5.12598 -2.50198 0
M  V30 1377 O 127.691 -5.97122 -0.756866 0
M  V30 1378 H 131.517 -2.97033 0.632855 0
M  V30 1379 H 129.102 -1.4461 0.375293 0
M  V30 1380 H 130.984 -3.87958 -1.6452 0
M  V30 1381 H 129.659 -2.69321 -1.79577 0
M  V30 1382 H 128.566 -3.73078 0.276283 0
M  V30 1383 H 129.899 -4.90997 0.343866 0
M  V30 1384 N 131.551 -0.354651 -1.53558 0
M  V30 1385 C 132.8 0.239504 -2.00273 0
M  V30 1386 C 133.113 1.50759 -1.24623 0
M  V30 1387 O 134.319 2.17968 -1.61871 0
M  V30 1388 C 132.775 0.477341 -3.5672 0
M  V30 1389 C 132.383 -0.775488 -4.41237 0
M  V30 1390 C 134.127 1.02975 -4.11821 0
M  V30 1391 C 132.034 -0.507838 -5.89216 0
M  V30 1392 H 130.964 0.0932743 -0.748208 0
M  V30 1393 H 133.615 -0.471701 -1.77334 0
M  V30 1394 H 131.997 1.24953 -3.7577 0
M  V30 1395 H 133.171 -1.54963 -4.33962 0
M  V30 1396 H 131.486 -1.25033 -3.97185 0
M  V30 1397 H 134.083 1.24513 -5.2 0
M  V30 1398 H 134.426 1.98862 -3.65731 0
M  V30 1399 H 134.959 0.317994 -3.96527 0
M  V30 1400 H 131.698 -1.43674 -6.39561 0
M  V30 1401 H 131.218 0.228011 -5.99366 0
M  V30 1402 H 132.897 -0.129238 -6.46871 0
M  V30 1403 N 133.029 1.57378 -0.0835403 0
M  V30 1404 C 134.276 1.9393 0.58287 0
M  V30 1405 C 134.604 0.964455 1.68904 0
M  V30 1406 O 133.859 -0.0179474 1.95692 0
M  V30 1407 C 134.158 3.37063 1.1884 0
M  V30 1408 C 133.824 4.50424 0.207194 0
M  V30 1409 C 132.486 4.81159 -0.0627115 0
M  V30 1410 C 134.838 5.19136 -0.463426 0
M  V30 1411 C 132.166 5.77939 -1.01012 0
M  V30 1412 C 134.518 6.16931 -1.39924 0
M  V30 1413 C 133.182 6.46078 -1.67749 0
M  V30 1414 H 132.452 0.70964 0.213287 0
M  V30 1415 H 135.099 1.90856 -0.156916 0
M  V30 1416 H 133.404 3.3666 2.00418 0
M  V30 1417 H 135.101 3.6264 1.71153 0
M  V30 1418 H 131.691 4.2646 0.427747 0
M  V30 1419 H 135.875 4.95576 -0.268034 0
M  V30 1420 H 131.131 5.98842 -1.23283 0
M  V30 1421 H 135.305 6.69273 -1.92476 0
M  V30 1422 H 132.932 7.2088 -2.41321 0
M  V30 1423 N 134.507 -0.190092 1.56449 0
M  V30 1424 C 135.454 -1.23557 1.94942 0
M  V30 1425 C 136.424 -1.44972 0.810696 0
M  V30 1426 O 137.609 -1.58023 1.06927 0
M  V30 1427 C 134.749 -2.57416 2.2985 0
M  V30 1428 C 133.862 -2.43537 3.5681 0
M  V30 1429 C 132.997 -3.70134 3.81017 0
M  V30 1430 C 132.036 -3.51109 5.01387 0
M  V30 1431 N 131.173 -4.6973 5.21822 0
M  V30 1432 H 136.013 -0.900304 2.84075 0
M  V30 1433 H 133.55 -0.43318 1.40577 0
M  V30 1434 H 135.508 -3.35409 2.48106 0
M  V30 1435 H 134.138 -2.88975 1.43852 0
M  V30 1436 H 133.19 -1.56816 3.46573 0
M  V30 1437 H 134.502 -2.25415 4.4496 0
M  V30 1438 H 133.656 -4.56566 3.9954 0
M  V30 1439 H 132.395 -3.91215 2.91207 0
M  V30 1440 H 131.4 -2.63063 4.82782 0
M  V30 1441 H 132.625 -3.31468 5.9271 0
M  V30 1442 H 130.571 -4.91065 4.34961 0
M  V30 1443 H 130.488 -4.54452 6.0416 0
M  V30 1444 H 131.756 -5.57499 5.44808 0
M  V30 1445 N 135.985 -1.50799 -0.457987 0
M  V30 1446 C 137.262 -1.52968 -1.21902 0
M  V30 1447 C 137.642 -0.281906 -2.09209 0
M  V30 1448 O 136.99 0.734076 -2.16388 0
M  V30 1449 C 137.2 -2.8326 -2.03875 0
M  V30 1450 C 138.548 -3.34425 -2.6162 0
M  V30 1451 O 139.572 -2.8467 -2.14106 0
M  V30 1452 O 138.431 -4.21188 -3.48228 0
M  V30 1453 H 135.525 -0.614129 -0.553873 0
M  V30 1454 H 138.071 -1.63098 -0.468739 0
M  V30 1455 H 136.843 -3.65543 -1.39621 0
M  V30 1456 H 136.466 -2.76195 -2.8601 0
M  V30 1457 N 137.463 0.71206 -1.40597 0
M  V30 1458 C 138.426 1.80785 -1.40888 0
M  V30 1459 C 139.426 1.57937 -0.302103 0
M  V30 1460 O 140.616 1.64913 -0.561182 0
M  V30 1461 C 137.748 3.18927 -1.20409 0
M  V30 1462 H 138.941 1.81924 -2.38419 0
M  V30 1463 H 136.494 0.91805 -1.26497 0
M  V30 1464 H 137.229 3.23436 -0.236522 0
M  V30 1465 H 137.014 3.36911 -2.00582 0
M  V30 1466 H 138.504 3.98949 -1.23408 0
M  V30 1467 N 138.941 1.26152 0.944643 0
M  V30 1468 C 139.851 1.09176 2.07648 0
M  V30 1469 C 140.867 0.0261935 1.7398 0
M  V30 1470 O 142.043 0.229208 2.00091 0
M  V30 1471 C 139.108 0.722915 3.39079 0
M  V30 1472 C 138.169 1.86752 3.86552 0
M  V30 1473 C 137.402 1.51617 5.11711 0
M  V30 1474 O 137.625 0.416331 5.68879 0
M  V30 1475 O 136.559 2.34975 5.54139 0
M  V30 1476 H 140.385 2.0412 2.24875 0
M  V30 1477 H 137.97 1.05182 1.061 0
M  V30 1478 H 139.852 0.529787 4.18056 0
M  V30 1479 H 138.527 -0.197159 3.23099 0
M  V30 1480 H 137.434 2.11558 3.08535 0
M  V30 1481 H 138.767 2.76719 4.07047 0
M  V30 1482 N 140.419 -1.14872 1.07899 0
M  V30 1483 C 141.835 -1.37776 0.805606 0
M  V30 1484 C 142.035 -1.92743 -0.587555 0
M  V30 1485 O 141.091 -2.13678 -1.34528 0
M  V30 1486 C 142.404 -2.34361 1.88402 0
M  V30 1487 C 143.952 -2.48012 1.90942 0
M  V30 1488 C 144.427 -3.47893 2.97883 0
M  V30 1489 N 145.918 -3.55433 2.97021 0
M  V30 1490 C 146.653 -4.32553 3.76412 0
M  V30 1491 N 146.149 -5.12959 4.65666 0
M  V30 1492 N 147.942 -4.27697 3.64735 0
M  V30 1493 H 140.093 -0.775365 1.97742 0
M  V30 1494 H 142.356 -0.403521 0.857831 0
M  V30 1495 H 142.062 -2.01098 2.88535 0
M  V30 1496 H 141.936 -3.34206 1.74889 0
M  V30 1497 H 144.323 -2.8057 0.914579 0
M  V30 1498 H 144.404 -1.48147 2.08534 0
M  V30 1499 H 144.048 -3.16069 3.97571 0
M  V30 1500 H 143.978 -4.47527 2.77538 0
M  V30 1501 H 146.469 -2.98048 2.32326 0
M  V30 1502 H 146.782 -5.69065 5.22862 0
M  V30 1503 H 145.127 -5.12245 4.69712 0
M  V30 1504 H 148.318 -3.63949 2.94378 0
M  V30 1505 H 148.491 -4.8755 4.26848 0
M  V30 1506 N 141.898 -0.863906 -1.31812 0
M  V30 1507 C 143.126 -0.486111 -2.01108 0
M  V30 1508 C 143.541 0.919755 -1.64882 0
M  V30 1509 O 142.898 1.60162 -0.874893 0
M  V30 1510 C 142.949 -0.626435 -3.56031 0
M  V30 1511 O 142.67 -1.97693 -3.90959 0
M  V30 1512 C 144.171 -0.248857 -4.42601 0
M  V30 1513 H 141.391 -0.190052 -0.643523 0
M  V30 1514 H 143.935 -1.1634 -1.68182 0
M  V30 1515 H 142.09 0.00322717 -3.874 0
M  V30 1516 H 142.504 -1.98034 -4.85678 0
M  V30 1517 H 143.978 -0.398016 -5.50563 0
M  V30 1518 H 144.455 0.811489 -4.31638 0
M  V30 1519 H 145.061 -0.853971 -4.16638 0
M  V30 1520 N 143.376 1.44774 -0.622745 0
M  V30 1521 C 144.323 2.30635 0.0871679 0
M  V30 1522 C 145.293 1.42994 0.845097 0
M  V30 1523 O 146.478 1.71907 0.827812 0
M  V30 1524 C 143.618 3.28144 1.06844 0
M  V30 1525 C 142.731 4.30888 0.309809 0
M  V30 1526 C 141.866 5.15494 1.28215 0
M  V30 1527 C 140.905 6.09953 0.512198 0
M  V30 1528 N 140.042 6.87287 1.43458 0
M  V30 1529 H 144.882 2.90803 -0.650974 0
M  V30 1530 H 142.419 1.43286 -0.33281 0
M  V30 1531 H 144.377 3.83157 1.65066 0
M  V30 1532 H 143.007 2.69695 1.77382 0
M  V30 1533 H 142.059 3.78414 -0.388181 0
M  V30 1534 H 143.371 4.97955 -0.290254 0
M  V30 1535 H 142.525 5.74983 1.93596 0
M  V30 1536 H 141.264 4.48481 1.91614 0
M  V30 1537 H 140.269 5.49581 -0.155151 0
M  V30 1538 H 141.494 6.78999 -0.116958 0
M  V30 1539 H 139.44 6.2295 2.05594 0
M  V30 1540 H 139.357 7.50763 0.888335 0
M  V30 1541 H 140.625 7.51306 2.07749 0
M  V30 1542 N 144.854 0.36279 1.53368 0
M  V30 1543 C 145.784 -0.476976 2.28576 0
M  V30 1544 C 146.765 -1.08631 1.30894 0
M  V30 1545 O 147.95 -1.10409 1.59761 0
M  V30 1546 C 145.08 -1.61828 3.07293 0
M  V30 1547 C 144.034 -1.13633 4.1264 0
M  V30 1548 C 143.36 -2.36766 4.79423 0
M  V30 1549 C 144.66 -0.223061 5.21823 0
M  V30 1550 H 146.354 0.150474 2.99022 0
M  V30 1551 H 143.9 0.0738103 1.43811 0
M  V30 1552 H 145.853 -2.21237 3.58653 0
M  V30 1553 H 144.577 -2.27292 2.34533 0
M  V30 1554 H 143.236 -0.564945 3.62221 0
M  V30 1555 H 142.884 -3.0068 4.03238 0
M  V30 1556 H 142.584 -2.05192 5.50609 0
M  V30 1557 H 144.108 -2.96865 5.33576 0
M  V30 1558 H 145.522 -0.724545 5.68703 0
M  V30 1559 H 143.919 0.001678 6.001 0
M  V30 1560 H 144.989 0.735553 4.79289 0
M  V30 1561 N 146.332 -1.57332 0.0918853 0
M  V30 1562 C 147.579 -1.94236 -0.572577 0
M  V30 1563 C 147.907 -0.973398 -1.6839 0
M  V30 1564 O 147.162 0.00756912 -1.95699 0
M  V30 1565 C 147.461 -3.37689 -1.17051 0
M  V30 1566 C 147.127 -4.50527 -0.183304 0
M  V30 1567 C 145.789 -4.81119 0.0882276 0
M  V30 1568 C 148.141 -5.18883 0.49095 0
M  V30 1569 C 145.469 -5.77395 1.04076 0
M  V30 1570 C 147.821 -6.1618 1.43193 0
M  V30 1571 C 146.485 -6.45179 1.71173 0
M  V30 1572 H 145.755 -0.710762 -0.209521 0
M  V30 1573 H 148.402 -1.9077 0.167036 0
M  V30 1574 H 146.707 -3.37718 -1.9863 0
M  V30 1575 H 148.404 -3.63543 -1.69227 0
M  V30 1576 H 144.994 -4.26681 -0.405124 0
M  V30 1577 H 149.178 -4.95427 0.294312 0
M  V30 1578 H 144.434 -5.98179 1.26457 0
M  V30 1579 H 148.608 -6.68243 1.96023 0
M  V30 1580 H 146.235 -7.1959 2.4514 0
M  V30 1581 N 147.81 0.181792 -1.56548 0
M  V30 1582 C 149.056 0.896803 -1.82562 0
M  V30 1583 C 149.411 1.80324 -0.670908 0
M  V30 1584 O 148.704 1.8868 0.333235 0
M  V30 1585 C 148.898 1.73728 -3.12335 0
M  V30 1586 C 148.727 0.913714 -4.4032 0
M  V30 1587 C 147.497 0.592903 -5.01809 0
M  V30 1588 C 149.695 0.260164 -5.13642 0
M  V30 1589 N 147.677 -0.247901 -6.13399 0
M  V30 1590 C 149.048 -0.442256 -6.18421 0
M  V30 1591 C 151.103 0.177253 -4.97584 0
M  V30 1592 C 149.806 -1.21971 -7.08883 0
M  V30 1593 C 151.832 -0.586839 -5.88481 0
M  V30 1594 C 151.194 -1.27766 -6.92716 0
M  V30 1595 H 147.293 0.307122 -0.719166 0
M  V30 1596 H 149.877 0.164535 -1.94004 0
M  V30 1597 H 148.048 2.44105 -3.02105 0
M  V30 1598 H 149.78 2.39279 -3.26386 0
M  V30 1599 H 146.535 0.920502 -4.64568 0
M  V30 1600 H 146.959 -0.658304 -6.73792 0
M  V30 1601 H 151.601 0.696993 -4.17015 0
M  V30 1602 H 149.319 -1.75083 -7.88905 0
M  V30 1603 H 152.905 -0.652522 -5.78129 0
M  V30 1604 H 151.785 -1.85943 -7.61836 0
M  V30 1605 N 149.288 1.51039 0.449983 0
M  V30 1606 C 150.537 1.62317 1.19733 0
M  V30 1607 C 150.85 0.339101 1.92638 0
M  V30 1608 O 152.056 0.331069 2.69474 0
M  V30 1609 C 150.512 2.86608 2.17678 0
M  V30 1610 C 150.12 4.21972 1.50479 0
M  V30 1611 C 151.864 3.07239 2.92924 0
M  V30 1612 C 149.771 5.37426 2.46834 0
M  V30 1613 H 148.701 0.604532 0.450619 0
M  V30 1614 H 151.352 1.77494 0.465625 0
M  V30 1615 H 149.734 2.65037 2.94231 0
M  V30 1616 H 150.908 4.53878 0.795716 0
M  V30 1617 H 149.223 4.07117 0.874344 0
M  V30 1618 H 151.82 3.90668 3.65079 0
M  V30 1619 H 152.163 2.19807 3.5354 0
M  V30 1620 H 152.696 3.29091 2.23481 0
M  V30 1621 H 149.435 6.27079 1.90926 0
M  V30 1622 H 148.955 5.09912 3.15832 0
M  V30 1623 H 150.634 5.68862 3.08228 0
M  V30 1624 N 150.766 -0.704594 1.40972 0
M  V30 1625 C 151.991 -1.49858 1.43378 0
M  V30 1626 C 152.416 -1.88061 0.038184 0
M  V30 1627 O 151.774 -1.5402 -0.956425 0
M  V30 1628 C 151.822 -2.74333 2.34038 0
M  V30 1629 O 150.926 -3.7147 1.7912 0
M  V30 1630 H 150.267 -0.45139 0.486974 0
M  V30 1631 H 152.797 -0.866832 1.8533 0
M  V30 1632 H 152.807 -3.22741 2.49604 0
M  V30 1633 H 151.482 -2.45863 3.35446 0
M  V30 1634 H 150.059 -3.30363 1.72958 0
M  V30 1635 N 152.244 -1.26651 -0.937939 0
M  V30 1636 C 153.474 -1.15006 -1.71631 0
M  V30 1637 C 153.882 0.297026 -1.86854 0
M  V30 1638 O 153.225 1.21493 -1.37786 0
M  V30 1639 C 153.287 -1.74984 -3.14039 0
M  V30 1640 C 152.951 -3.24103 -3.2219 0
M  V30 1641 C 153.948 -4.20877 -3.05219 0
M  V30 1642 C 151.633 -3.64625 -3.45476 0
M  V30 1643 C 153.627 -5.56151 -3.11408 0
M  V30 1644 C 151.314 -5.00032 -3.513 0
M  V30 1645 C 152.312 -5.95604 -3.34282 0
M  V30 1646 O 152 -7.28545 -3.3982 0
M  V30 1647 H 151.732 -0.401183 -0.544085 0
M  V30 1648 H 154.286 -1.67832 -1.18413 0
M  V30 1649 H 152.516 -1.16624 -3.68695 0
M  V30 1650 H 154.205 -1.58199 -3.73802 0
M  V30 1651 H 154.971 -3.90908 -2.87081 0
M  V30 1652 H 150.85 -2.90718 -3.57777 0
M  V30 1653 H 154.394 -6.30727 -2.98043 0
M  V30 1654 H 150.291 -5.29659 -3.68959 0
M  V30 1655 H 151.059 -7.3686 -3.56343 0
M  V30 1656 N 153.722 1.14298 -1.08507 0
M  V30 1657 C 154.947 1.8976 -0.837001 0
M  V30 1658 C 155.372 1.78097 0.605228 0
M  V30 1659 O 154.73 1.12188 1.4242 0
M  V30 1660 C 154.778 3.37685 -1.26495 0
M  V30 1661 O 153.882 4.10281 -0.417514 0
M  V30 1662 H 153.223 0.590365 -0.303917 0
M  V30 1663 H 155.753 1.44672 -1.44676 0
M  V30 1664 H 155.763 3.88501 -1.24625 0
M  V30 1665 H 154.438 3.45492 -2.31534 0
M  V30 1666 H 153.015 3.69536 -0.499722 0
M  V30 1667 N 155.201 0.870884 1.31352 0
M  V30 1668 C 156.478 0.402907 1.91405 0
M  V30 1669 C 156.858 -1.11512 1.79244 0
M  V30 1670 O 156.206 -1.94411 1.2007 0
M  V30 1671 C 156.416 0.885301 3.37585 0
M  V30 1672 C 157.764 0.911971 4.14691 0
M  V30 1673 O 158.788 0.831016 3.46371 0
M  V30 1674 O 157.647 1.02927 5.3672 0
M  V30 1675 H 154.741 0.120698 0.818145 0
M  V30 1676 H 157.287 0.958857 1.40014 0
M  V30 1677 H 156.059 1.92889 3.40455 0
M  V30 1678 H 155.682 0.307714 3.96407 0
M  V30 1679 N 156.679 -1.44442 0.630414 0
M  V30 1680 C 157.927 -2.01653 0.134351 0
M  V30 1681 C 158.248 -1.49836 -1.24796 0
M  V30 1682 O 157.518 -0.701684 -1.82902 0
M  V30 1683 H 156.098 -0.74554 0.0466769 0
M  V30 1684 H 158.76 -1.76952 0.816955 0
M  V30 1685 H 157.856 -3.11935 0.101498 0
M  V30 1686 N 158.157 -0.370918 -1.53173 0
M  V30 1687 C 159.434 0.273754 -1.93675 0
M  V30 1688 C 159.814 1.65938 -1.3049 0
M  V30 1689 O 159.162 2.23698 -0.465999 0
M  V30 1690 C 159.372 0.318602 -3.47543 0
M  V30 1691 C 160.72 0.556392 -4.20939 0
M  V30 1692 O 161.744 0.399587 -3.53952 0
M  V30 1693 O 160.603 0.862133 -5.39657 0
M  V30 1694 H 157.697 0.165448 -0.810281 0
M  V30 1695 H 160.243 -0.42409 -1.64315 0
M  V30 1696 H 159.015 -0.652687 -3.85818 0
M  V30 1697 H 158.638 1.06212 -3.83151 0
M  V30 1698 N 159.635 1.57281 -0.100228 0
M  V30 1699 C 160.567 2.11342 0.886972 0
M  V30 1700 C 161.58 1.05182 1.24261 0
M  V30 1701 O 162.769 1.32613 1.19483 0
M  V30 1702 C 159.869 2.5825 2.19454 0
M  V30 1703 C 159.042 3.88302 2.01346 0
M  V30 1704 C 158.101 4.21004 3.15661 0
M  V30 1705 O 157.127 4.9014 2.89398 0
M  V30 1706 N 158.329 3.76818 4.41575 0
M  V30 1707 H 161.094 2.96668 0.425216 0
M  V30 1708 H 158.655 1.61678 0.0847334 0
M  V30 1709 H 160.647 2.7717 2.94888 0
M  V30 1710 H 159.217 1.77907 2.57037 0
M  V30 1711 H 158.437 3.7848 1.10212 0
M  V30 1712 H 159.725 4.73375 1.8653 0
M  V30 1713 H 159.123 3.2102 4.65792 0
M  V30 1714 H 157.68 4.00882 5.13942 0
M  V30 1715 N 161.113 -0.173488 1.56642 0
M  V30 1716 C 162.353 -0.896984 1.83667 0
M  V30 1717 C 162.717 -1.79523 0.680842 0
M  V30 1718 O 163.918 -2.55616 0.831488 0
M  V30 1719 C 162.189 -1.67351 3.15798 0
M  V30 1720 S 163.748 -2.44607 3.64298 0
M  V30 1721 H 160.566 -0.300464 0.644393 0
M  V30 1722 H 163.168 -0.158775 1.94854 0
M  V30 1723 H 161.872 -1.00462 3.97914 0
M  V30 1724 H 161.403 -2.45313 3.07546 0
M  V30 1725 H 163.418 -3.69261 3.31452 0
M  V30 1726 N 162.591 -1.51276 -0.441967 0
M  V30 1727 C 163.554 -1.7167 -1.51862 0
M  V30 1728 C 164.554 -0.586793 -1.49711 0
M  V30 1729 O 165.744 -0.854276 -1.51815 0
M  V30 1730 C 162.876 -1.76889 -2.91416 0
M  V30 1731 H 164.069 -2.67754 -1.35084 0
M  V30 1732 H 161.622 -1.41196 -0.670333 0
M  V30 1733 H 162.357 -0.826026 -3.13604 0
M  V30 1734 H 162.142 -2.59001 -2.94382 0
M  V30 1735 H 163.632 -1.94522 -3.69528 0
M  V30 1736 N 164.069 0.697108 -1.41344 0
M  V30 1737 C 165.294 1.49096 -1.44171 0
M  V30 1738 C 165.719 1.88038 -0.0481568 0
M  V30 1739 O 165.077 1.54525 0.948243 0
M  V30 1740 C 165.125 2.73088 -2.3549 0
M  V30 1741 O 164.229 3.70514 -1.81088 0
M  V30 1742 H 163.57 0.448801 -0.489361 0
M  V30 1743 H 166.1 0.856992 -1.85787 0
M  V30 1744 H 166.11 3.21413 -2.51312 0
M  V30 1745 H 164.785 2.44081 -3.36745 0
M  V30 1746 H 163.362 3.29441 -1.74708 0
M  V30 1747 N 165.547 1.27147 0.931209 0
M  V30 1748 C 166.772 1.16191 1.71797 0
M  V30 1749 C 167.197 -0.278004 1.86034 0
M  V30 1750 O 166.555 -1.20137 1.35782 0
M  V30 1751 C 166.603 1.84673 3.09723 0
M  V30 1752 O 165.707 1.14231 3.96264 0
M  V30 1753 H 165.048 0.404303 0.526721 0
M  V30 1754 H 167.578 1.68152 1.1656 0
M  V30 1755 H 167.588 1.91893 3.60057 0
M  V30 1756 H 166.263 2.89421 2.98677 0
M  V30 1757 H 164.84 1.15056 3.54706 0
M  V30 1758 N 167.025 -1.13721 1.09112 0
M  V30 1759 C 168.436 -1.6648 0.845068 0
M  V30 1760 C 168.787 -1.85911 -0.62701 0
M  V30 1761 O 167.912 -1.57556 -1.48341 0
M  V30 1762 C 168.507 -3.02413 1.52748 0
M  V30 1763 C 167.066 -3.52176 1.32849 0
M  V30 1764 C 166.213 -2.27492 1.58564 0
M  V30 1765 H 169.164 -0.976872 1.25072 0
M  V30 1766 H 169.185 -3.68223 0.958752 0
M  V30 1767 H 168.697 -2.88238 2.59885 0
M  V30 1768 H 166.798 -3.7156 0.278137 0
M  V30 1769 H 166.911 -4.32499 2.0611 0
M  V30 1770 H 165.275 -2.33923 1.00758 0
M  V30 1771 H 166.058 -2.15886 2.66924 0
M  V30 1772 N 168.503 -0.877838 -1.30888 0
M  V30 1773 C 169.743 -0.499301 -1.98208 0
M  V30 1774 C 170.107 0.932649 -1.67826 0
M  V30 1775 O 171.308 1.41694 -2.28421 0
M  V30 1776 C 169.579 -0.758221 -3.49265 0
M  V30 1777 S 171.138 -0.480719 -4.36159 0
M  V30 1778 H 167.956 -0.186062 -0.686223 0
M  V30 1779 H 170.558 -1.13556 -1.59139 0
M  V30 1780 H 169.262 -1.79903 -3.68867 0
M  V30 1781 H 168.793 -0.109247 -3.93248 0
M  V30 1782 H 170.808 0.683698 -4.91467 0
M  V30 1783 N 169.982 1.44106 -0.638065 0
M  V30 1784 C 170.914 2.28976 0.101205 0
M  V30 1785 C 171.927 1.4167 0.802088 0
M  V30 1786 O 173.116 1.65755 0.662375 0
M  V30 1787 C 170.216 3.18217 1.16581 0
M  V30 1788 C 169.389 4.33978 0.546066 0
M  V30 1789 C 168.448 5.04202 1.50554 0
M  V30 1790 O 167.474 5.59986 1.01999 0
M  V30 1791 N 168.676 5.06296 2.8398 0
M  V30 1792 H 171.441 2.93064 -0.627186 0
M  V30 1793 H 169.002 1.54629 -0.479731 0
M  V30 1794 H 170.994 3.62061 1.80815 0
M  V30 1795 H 169.564 2.55833 1.79634 0
M  V30 1796 H 168.784 3.93239 -0.275046 0
M  V30 1797 H 170.072 5.08675 0.112793 0
M  V30 1798 H 169.47 4.62319 3.26002 0
M  V30 1799 H 168.027 5.53907 3.43556 0
M  V30 1800 N 171.46 0.379036 1.52974 0
M  V30 1801 C 172.408 -0.476033 2.27677 0
M  V30 1802 C 173.402 -1.0719 1.31174 0
M  V30 1803 O 174.608 -1.01355 1.48752 0
M  V30 1804 H 170.983 -0.172255 0.732006 0
M  V30 1805 H 172.954 0.175615 2.97883 0
M  V30 1806 C 171.703 -1.5967 3.0887 0
M  V30 1807 H 171.026 -1.1475 3.82978 0
M  V30 1808 H 172.466 -2.16943 3.64296 0
M  V30 1809 C 170.925 -2.54682 2.20542 0
M  V30 1810 O 171.455 -3.57836 1.82527 0
M  V30 1811 N 169.661 -2.24183 1.84907 0
M  V30 1812 H 169.208 -1.40333 2.1602 0
M  V30 1813 H 169.166 -2.88006 1.26096 0
M  V30 1814 N 172.938 -1.57226 0.108567 0
M  V30 1815 C 174.186 -1.94448 -0.550853 0
M  V30 1816 C 174.507 -0.992074 -1.67878 0
M  V30 1817 O 173.777 -0.0465 -1.95845 0
M  V30 1818 H 172.357 -0.717897 -0.206479 0
M  V30 1819 H 175.019 -1.94112 0.175062 0
M  V30 1820 H 174.115 -2.97218 -0.952259 0
M  V30 1821 N 174.416 0.165178 -1.56732 0
M  V30 1822 C 175.664 0.879068 -1.8198 0
M  V30 1823 C 175.985 1.82514 -0.686561 0
M  V30 1824 O 175.255 1.93694 0.293146 0
M  V30 1825 H 173.835 0.327608 -0.671329 0
M  V30 1826 H 176.497 0.163526 -1.94213 0
M  V30 1827 H 175.593 1.45228 -2.76252 0
M  V30 1828 N 175.894 1.51508 0.433938 0
M  V30 1829 C 177.119 1.68443 1.21003 0
M  V30 1830 C 177.544 0.382636 1.84167 0
M  V30 1831 O 176.902 -0.65755 1.68956 0
M  V30 1832 C 176.95 2.80405 2.26727 0
M  V30 1833 O 176.054 2.44245 3.32292 0
M  V30 1834 H 175.395 0.561536 0.354363 0
M  V30 1835 H 177.925 1.9809 0.512024 0
M  V30 1836 H 177.935 3.0459 2.71457 0
M  V30 1837 H 176.61 3.74867 1.80132 0
M  V30 1838 H 175.187 2.30644 2.93015 0
M  V30 1839 N 177.372 -0.689602 1.41712 0
M  V30 1840 C 178.612 -1.46184 1.42862 0
M  V30 1841 C 178.976 -1.91962 0.0382204 0
M  V30 1842 O 180.177 -2.68694 -0.0755019 0
M  V30 1843 C 178.448 -2.6371 2.4123 0
M  V30 1844 S 180.007 -3.52768 2.6096 0
M  V30 1845 H 176.825 -0.49947 0.506015 0
M  V30 1846 H 179.427 -0.804107 1.78198 0
M  V30 1847 H 178.131 -2.28293 3.41044 0
M  V30 1848 H 177.662 -3.3437 2.07269 0
M  V30 1849 H 179.677 -4.59146 1.88148 0
M  V30 1850 N 178.85 -1.27639 -0.924453 0
M  V30 1851 C 179.797 -1.10644 -2.0255 0
M  V30 1852 C 180.767 -0.00658438 -1.66099 0
M  V30 1853 O 181.952 -0.16952 -1.90045 0
M  V30 1854 C 179.092 -0.76309 -3.36557 0
M  V30 1855 C 178.205 -1.94091 -3.85944 0
M  V30 1856 C 177.34 -1.53914 -5.08413 0
M  V30 1857 C 176.379 -2.68425 -5.50104 0
M  V30 1858 N 175.516 -2.28815 -6.63768 0
M  V30 1859 H 180.356 -2.04858 -2.16419 0
M  V30 1860 H 177.893 -1.01974 -1.06017 0
M  V30 1861 H 179.851 -0.544822 -4.13627 0
M  V30 1862 H 178.481 0.142102 -3.22487 0
M  V30 1863 H 177.533 -2.27162 -3.05125 0
M  V30 1864 H 178.845 -2.7998 -4.12811 0
M  V30 1865 H 177.999 -1.28231 -5.92994 0
M  V30 1866 H 176.738 -0.651391 -4.8333 0
M  V30 1867 H 175.743 -2.94819 -4.64071 0
M  V30 1868 H 176.968 -3.57826 -5.7718 0
M  V30 1869 H 174.914 -1.42495 -6.40337 0
M  V30 1870 H 174.831 -3.08242 -6.90306 0
M  V30 1871 H 176.099 -2.06387 -7.51681 0
M  V30 1872 N 180.328 1.1314 -1.09713 0
M  V30 1873 C 181.605 1.80762 -0.747302 0
M  V30 1874 C 181.985 1.96663 0.767265 0
M  V30 1875 O 181.333 1.53706 1.69076 0
M  V30 1876 C 181.543 3.15606 -1.48975 0
M  V30 1877 C 182.891 3.90914 -1.65746 0
M  V30 1878 O 183.915 3.25239 -1.45251 0
M  V30 1879 O 182.774 5.08718 -1.9967 0
M  V30 1880 H 179.868 0.782103 -0.268782 0
M  V30 1881 H 182.414 1.20041 -1.19951 0
M  V30 1882 H 181.186 2.99278 -2.52088 0
M  V30 1883 H 180.809 3.84029 -1.02991 0
M  V30 1884 N 181.806 0.884767 1.30421 0
M  V30 1885 C 182.738 0.308655 2.27112 0
M  V30 1886 C 183.751 -0.536655 1.53701 0
M  V30 1887 O 184.94 -0.35624 1.74909 0
M  V30 1888 C 182.04 -0.579782 3.33904 0
M  V30 1889 C 181.213 0.236417 4.36761 0
M  V30 1890 C 180.272 -0.582482 5.22966 0
M  V30 1891 O 179.298 -0.00525502 5.692 0
M  V30 1892 N 180.5 -1.89163 5.48815 0
M  V30 1893 H 183.265 1.13964 2.77186 0
M  V30 1894 H 180.826 0.747731 1.43599 0
M  V30 1895 H 182.818 -1.13366 3.88497 0
M  V30 1896 H 181.388 -1.31144 2.83761 0
M  V30 1897 H 180.608 0.97174 3.82035 0
M  V30 1898 H 181.896 0.795924 5.02536 0
M  V30 1899 H 181.294 -2.38352 5.13035 0
M  V30 1900 H 179.851 -2.39296 6.06284 0
M  V30 1901 N 183.284 -1.43765 0.645699 0
M  V30 1902 C 184.214 -2.33471 -0.0370477 0
M  V30 1903 C 185.195 -1.49042 -0.819779 0
M  V30 1904 O 186.38 -1.77726 -0.782758 0
M  V30 1905 C 183.51 -3.32311 -1.0093 0
M  V30 1906 C 182.464 -4.2667 -0.337201 0
M  V30 1907 C 181.79 -5.1549 -1.42037 0
M  V30 1908 C 183.09 -5.16657 0.765706 0
M  V30 1909 H 184.784 -2.90809 0.712069 0
M  V30 1910 H 182.33 -1.39834 0.343876 0
M  V30 1911 H 184.283 -3.9396 -1.49578 0
M  V30 1912 H 183.007 -2.73213 -1.78948 0
M  V30 1913 H 181.666 -3.66374 0.128771 0
M  V30 1914 H 181.314 -4.52735 -2.1918 0
M  V30 1915 H 181.014 -5.79438 -0.975966 0
M  V30 1916 H 182.538 -5.80012 -1.90838 0
M  V30 1917 H 183.952 -5.72158 0.361702 0
M  V30 1918 H 182.349 -5.89286 1.13413 0
M  V30 1919 H 183.419 -4.56796 1.62683 0
M  V30 1920 N 184.763 -0.387143 -1.52771 0
M  V30 1921 C 185.695 0.484089 -2.2403 0
M  V30 1922 C 186.708 1.02849 -1.26198 0
M  V30 1923 O 187.897 0.931186 -1.52286 0
M  V30 1924 C 184.997 1.68337 -2.94136 0
M  V30 1925 C 184.17 1.26672 -4.18656 0
M  V30 1926 C 183.229 2.33045 -4.7178 0
M  V30 1927 O 182.255 1.94541 -5.34923 0
M  V30 1928 N 183.457 3.64929 -4.5145 0
M  V30 1929 H 186.222 -0.126404 -2.99433 0
M  V30 1930 H 183.783 -0.213392 -1.60488 0
M  V30 1931 H 185.775 2.39019 -3.26577 0
M  V30 1932 H 184.345 2.20025 -2.22053 0
M  V30 1933 H 183.565 0.388878 -3.92277 0
M  V30 1934 H 184.853 0.964964 -4.99566 0
M  V30 1935 H 184.251 3.98974 -4.01044 0
M  V30 1936 H 182.808 4.31651 -4.88386 0
M  V30 1937 N 186.241 1.57166 -0.116904 0
M  V30 1938 C 187.466 1.999 0.55271 0
M  V30 1939 C 187.891 0.996039 1.59564 0
M  V30 1940 O 187.249 -0.032556 1.81271 0
M  V30 1941 C 187.297 3.4152 1.15742 0
M  V30 1942 O 186.401 3.44106 2.27299 0
M  V30 1943 H 185.742 0.649447 0.138258 0
M  V30 1944 H 188.272 2.03573 -0.204759 0
M  V30 1945 H 188.282 3.79684 1.49346 0
M  V30 1946 H 186.957 4.14034 0.393493 0
M  V30 1947 H 185.534 3.17759 1.9515 0
M  V30 1948 N 187.719 -0.156864 1.56817 0
M  V30 1949 C 188.949 -0.885031 1.86684 0
M  V30 1950 C 189.357 -1.75696 0.701954 0
M  V30 1951 O 188.7 -1.80569 -0.337732 0
M  V30 1952 C 188.762 -1.80092 3.11138 0
M  V30 1953 C 188.426 -1.10714 4.43386 0
M  V30 1954 C 189.423 -0.465714 5.1781 0
M  V30 1955 C 187.108 -1.09959 4.90117 0
M  V30 1956 C 189.102 0.174002 6.37162 0
M  V30 1957 C 186.789 -0.456055 6.09396 0
M  V30 1958 C 187.787 0.179622 6.82764 0
M  V30 1959 O 187.475 0.812975 7.99779 0
M  V30 1960 H 187.207 -0.261813 0.623242 0
M  V30 1961 H 189.761 -0.157383 2.04796 0
M  V30 1962 H 187.991 -2.56926 2.89009 0
M  V30 1963 H 189.68 -2.40018 3.27332 0
M  V30 1964 H 190.446 -0.463427 4.82781 0
M  V30 1965 H 186.325 -1.58378 4.3294 0
M  V30 1966 H 189.869 0.670765 6.94368 0
M  V30 1967 H 185.766 -0.455975 6.43888 0
M  V30 1968 H 186.534 0.71366 8.15383 0
M  V30 1969 N 189.197 -1.51736 -0.425897 0
M  V30 1970 C 190.446 -1.64201 -1.17136 0
M  V30 1971 C 190.759 -0.369705 -1.92074 0
M  V30 1972 O 191.965 -0.373898 -2.68913 0
M  V30 1973 C 190.421 -2.90035 -2.13091 0
M  V30 1974 C 190.029 -4.24312 -1.43747 0
M  V30 1975 C 191.773 -3.1186 -2.87999 0
M  V30 1976 C 189.68 -5.41285 -2.38253 0
M  V30 1977 H 188.61 -0.611624 -0.440944 0
M  V30 1978 H 191.261 -1.78212 -0.437328 0
M  V30 1979 H 189.643 -2.69684 -2.89977 0
M  V30 1980 H 190.817 -4.55086 -0.723408 0
M  V30 1981 H 189.132 -4.08456 -0.809465 0
M  V30 1982 H 191.729 -3.96427 -3.58817 0
M  V30 1983 H 192.072 -2.25403 -3.49999 0
M  V30 1984 H 192.605 -3.32605 -2.18217 0
M  V30 1985 H 189.344 -6.30037 -1.80925 0
M  V30 1986 H 188.864 -5.14872 -3.0768 0
M  V30 1987 H 190.543 -5.73694 -2.99139 0
M  V30 1988 N 190.675 0.682077 -1.42076 0
M  V30 1989 C 191.915 1.45424 -1.43636 0
M  V30 1990 C 192.279 1.91939 -0.0484001 0
M  V30 1991 O 193.48 2.6873 0.0612514 0
M  V30 1992 C 191.751 2.62427 -2.42625 0
M  V30 1993 S 193.31 3.51379 -2.62827 0
M  V30 1994 H 190.128 0.496779 -0.508657 0
M  V30 1995 H 192.73 0.794645 -1.78621 0
M  V30 1996 H 191.434 2.26481 -3.42249 0
M  V30 1997 H 190.965 3.33266 -2.09039 0
M  V30 1998 H 192.98 4.58141 -1.9058 0
M  V30 1999 N 192.153 1.28127 0.917671 0
M  V30 2000 C 193.4 1.15052 1.66641 0
M  V30 2001 C 193.728 -0.301677 1.92146 0
M  V30 2002 O 192.983 -1.23622 1.51711 0
M  V30 2003 C 193.282 1.89018 3.03327 0
M  V30 2004 C 192.948 3.38832 2.97496 0
M  V30 2005 C 191.61 3.79693 2.95613 0
M  V30 2006 C 193.962 4.34378 2.88036 0
M  V30 2007 C 191.29 5.14447 2.82066 0
M  V30 2008 C 193.642 5.69201 2.7603 0
M  V30 2009 C 192.306 6.09343 2.72502 0
M  V30 2010 H 191.576 0.421006 0.609783 0
M  V30 2011 H 194.223 1.58855 1.06945 0
M  V30 2012 H 192.528 1.37752 3.66785 0
M  V30 2013 H 194.225 1.76321 3.60156 0
M  V30 2014 H 190.815 3.06342 2.99754 0
M  V30 2015 H 194.999 4.03775 2.88581 0
M  V30 2016 H 190.255 5.44681 2.77728 0
M  V30 2017 H 194.429 6.42901 2.67678 0
M  V30 2018 H 192.056 7.13712 2.61762 0
M  V30 2019 N 193.631 -1.12557 1.10312 0
M  V30 2020 C 194.871 -1.8568 0.854543 0
M  V30 2021 C 195.235 -1.82091 -0.608843 0
M  V30 2022 O 196.436 -2.50544 -0.973717 0
M  V30 2023 C 194.707 -3.2942 1.38626 0
M  V30 2024 S 196.266 -4.19931 1.27293 0
M  V30 2025 H 193.084 -0.640427 0.308827 0
M  V30 2026 H 195.686 -1.35599 1.40831 0
M  V30 2027 H 194.39 -3.2959 2.44537 0
M  V30 2028 H 193.921 -3.84566 0.82902 0
M  V30 2029 H 195.936 -4.95668 0.229776 0
M  V30 2030 N 195.109 -0.891671 -1.2995 0
M  V30 2031 C 196.039 -0.379797 -2.30391 0
M  V30 2032 C 197.02 0.540919 -1.6127 0
M  V30 2033 O 198.205 0.453352 -1.88834 0
M  V30 2034 C 195.335 0.400654 -3.44981 0
M  V30 2035 C 194.289 -0.428905 -4.25846 0
M  V30 2036 C 193.615 0.478557 -5.32554 0
M  V30 2037 C 194.915 -1.67458 -4.94727 0
M  V30 2038 H 196.609 -1.21914 -2.73454 0
M  V30 2039 H 194.155 -0.587675 -1.31462 0
M  V30 2040 H 196.108 0.769434 -4.14316 0
M  V30 2041 H 194.832 1.27371 -3.0074 0
M  V30 2042 H 193.491 -0.779911 -3.58208 0
M  V30 2043 H 193.139 1.34951 -4.84559 0
M  V30 2044 H 192.839 -0.0727433 -5.87555 0
M  V30 2045 H 194.363 0.843705 -6.04743 0
M  V30 2046 H 195.777 -1.376 -5.56542 0
M  V30 2047 H 194.174 -2.16659 -5.59624 0
M  V30 2048 H 195.244 -2.41518 -4.20473 0
M  V30 2049 N 196.587 1.43421 -0.653314 0
M  V30 2050 C 197.998 1.85065 -0.246537 0
M  V30 2051 C 198.349 1.54688 1.2069 0
M  V30 2052 O 197.474 0.995896 1.92122 0
M  V30 2053 C 198.069 3.35922 -0.440666 0
M  V30 2054 C 196.628 3.76297 -0.0882064 0
M  V30 2055 C 195.775 2.67147 -0.743484 0
M  V30 2056 H 198.726 1.33572 -0.856979 0
M  V30 2057 H 198.747 3.79204 0.313798 0
M  V30 2058 H 198.259 3.58 -1.49858 0
M  V30 2059 H 196.36 3.5983 0.96711 0
M  V30 2060 H 196.473 4.76338 -0.513738 0
M  V30 2061 H 194.837 2.54086 -0.176712 0
M  V30 2062 H 195.62 2.92053 -1.80443 0
M  V30 2063 N 198.065 0.39524 1.52563 0
M  V30 2064 C 199.028 -0.425001 2.25225 0
M  V30 2065 C 200.028 -0.985266 1.27079 0
M  V30 2066 O 201.218 -0.866332 1.5113 0
M  V30 2067 C 198.35 -1.59686 3.01186 0
M  V30 2068 H 199.543 0.211233 2.99155 0
M  V30 2069 H 197.096 0.147472 1.55603 0
M  V30 2070 H 197.831 -2.27035 2.31572 0
M  V30 2071 H 197.616 -1.20176 3.73229 0
M  V30 2072 H 199.106 -2.17743 3.5634 0
M  V30 2073 N 199.544 -1.57102 0.125237 0
M  V30 2074 C 200.791 -1.95407 -0.531248 0
M  V30 2075 C 201.119 -1.0089 -1.66287 0
M  V30 2076 O 200.374 -0.0339431 -1.95671 0
M  V30 2077 C 200.673 -3.40096 -1.09862 0
M  V30 2078 C 200.339 -4.50815 -0.0876989 0
M  V30 2079 C 199.001 -4.80824 0.19026 0
M  V30 2080 C 201.353 -5.17724 0.600902 0
M  V30 2081 C 198.681 -5.75058 1.163 0
M  V30 2082 C 201.033 -6.13005 1.56231 0
M  V30 2083 C 199.697 -6.41403 1.8482 0
M  V30 2084 H 198.967 -0.715046 -0.194397 0
M  V30 2085 H 201.614 -1.90373 0.207463 0
M  V30 2086 H 199.919 -3.41855 -1.91422 0
M  V30 2087 H 201.616 -3.6705 -1.61478 0
M  V30 2088 H 198.206 -4.27444 -0.314528 0
M  V30 2089 H 202.39 -4.94691 0.399333 0
M  V30 2090 H 197.646 -5.95362 1.39117 0
M  V30 2091 H 201.82 -6.63934 2.10153 0
M  V30 2092 H 199.447 -7.14229 2.60349 0
M  V30 2093 N 201.022 0.148545 -1.56898 0
M  V30 2094 C 201.932 1.20293 -2.01412 0
M  V30 2095 C 202.948 1.47107 -0.929273 0
M  V30 2096 O 204.124 1.58807 -1.23863 0
M  V30 2097 C 201.189 2.51682 -2.38447 0
M  V30 2098 C 200.25 2.32529 -3.60872 0
M  V30 2099 C 199.483 3.57653 -3.96132 0
M  V30 2100 O 199.706 4.63771 -3.32073 0
M  V30 2101 O 198.64 3.50408 -4.89385 0
M  V30 2102 H 202.466 0.855025 -2.91416 0
M  V30 2103 H 200.051 0.357151 -1.45068 0
M  V30 2104 H 201.933 3.29147 -2.63135 0
M  V30 2105 H 200.608 2.86006 -1.51599 0
M  V30 2106 H 199.515 1.53019 -3.41373 0
M  V30 2107 H 200.848 2.03121 -4.48333 0
M  V30 2108 N 202.5 1.5196 0.417844 0
M  V30 2109 C 203.748 1.65263 1.16329 0
M  V30 2110 C 204.069 0.380634 1.91249 0
M  V30 2111 O 203.339 -0.604214 1.86349 0
M  V30 2112 H 201.919 0.60912 0.432414 0
M  V30 2113 H 204.581 1.88969 0.477162 0
M  V30 2114 H 203.677 2.4896 1.88217 0
M  V30 2115 N 203.978 -0.674533 1.42435 0
M  V30 2116 C 205.394 -0.98769 1.25367 0
M  V30 2117 C 205.594 -2.00879 0.158044 0
M  V30 2118 O 204.65 -2.48075 -0.470633 0
M  V30 2119 C 205.963 -1.49224 2.6106 0
M  V30 2120 C 207.511 -1.61 2.68417 0
M  V30 2121 C 207.986 -2.14852 4.04478 0
M  V30 2122 N 209.477 -2.22185 4.06434 0
M  V30 2123 C 210.212 -2.64928 5.08528 0
M  V30 2124 N 209.708 -3.07121 6.21006 0
M  V30 2125 N 211.501 -2.64679 4.95885 0
M  V30 2126 H 203.652 0.00152503 2.124 0
M  V30 2127 H 205.915 -0.0618434 0.945981 0
M  V30 2128 H 205.621 -0.816453 3.42092 0
M  V30 2129 H 205.495 -2.47094 2.84999 0
M  V30 2130 H 207.882 -2.27686 1.87732 0
M  V30 2131 H 207.963 -0.616195 2.48267 0
M  V30 2132 H 207.607 -1.48775 4.85622 0
M  V30 2133 H 207.537 -3.15024 4.2198 0
M  V30 2134 H 210.028 -1.92435 3.25234 0
M  V30 2135 H 210.341 -3.38423 6.94759 0
M  V30 2136 H 208.686 -3.04978 6.24511 0
M  V30 2137 H 211.877 -2.31078 4.07088 0
M  V30 2138 H 212.05 -2.9767 5.75584 0
M  V30 2139 N 205.456 -1.28612 -0.910864 0
M  V30 2140 C 206.404 -1.1265 -2.03501 0
M  V30 2141 C 207.398 -0.0450054 -1.6934 0
M  V30 2142 O 208.604 -0.203988 -1.7884 0
M  V30 2143 H 204.979 -0.347639 -0.666822 0
M  V30 2144 H 206.95 -2.07849 -2.14106 0
M  V30 2145 C 205.699 -0.808143 -3.38178 0
M  V30 2146 H 205.022 -1.63231 -3.6496 0
M  V30 2147 H 206.462 -0.736426 -4.17556 0
M  V30 2148 C 204.921 0.488226 -3.33344 0
M  V30 2149 O 205.451 1.51766 -3.71927 0
M  V30 2150 N 203.657 0.490009 -2.86439 0
M  V30 2151 H 203.204 -0.348161 -2.55236 0
M  V30 2152 H 203.162 1.35741 -2.83587 0
M  V30 2153 N 206.934 1.1197 -1.10907 0
M  V30 2154 C 208.174 1.85224 -0.864378 0
M  V30 2155 C 208.538 1.82411 0.599178 0
M  V30 2156 O 209.739 2.51057 0.960416 0
M  V30 2157 C 208.01 3.2868 -1.40371 0
M  V30 2158 S 209.569 4.1925 -1.29518 0
M  V30 2159 H 206.387 0.63878 -0.312219 0
M  V30 2160 H 208.989 1.3485 -1.41548 0
M  V30 2161 H 207.693 3.28289 -2.46281 0
M  V30 2162 H 207.224 3.84121 -0.849402 0
M  V30 2163 H 209.239 4.95539 -0.256059 0
M  V30 2164 N 208.412 0.89855 1.29475 0
M  V30 2165 C 209.322 0.379974 2.31502 0
M  V30 2166 C 210.338 -0.524695 1.659 0
M  V30 2167 O 211.514 -0.414551 1.97087 0
M  V30 2168 C 208.579 -0.385138 3.44554 0
M  V30 2169 C 207.64 0.550914 4.2575 0
M  V30 2170 C 206.873 -0.177778 5.33404 0
M  V30 2171 O 207.096 -1.40189 5.52904 0
M  V30 2172 O 206.03 0.479106 5.9999 0
M  V30 2173 H 209.856 1.22639 2.77837 0
M  V30 2174 H 207.441 0.662834 1.33891 0
M  V30 2175 H 209.323 -0.817841 4.13388 0
M  V30 2176 H 207.998 -1.20763 3.0033 0
M  V30 2177 H 206.905 1.03271 3.59564 0
M  V30 2178 H 208.238 1.33979 4.73614 0
M  V30 2179 N 209.89 -1.43072 0.660911 0
M  V30 2180 C 211.118 -2.06067 0.185422 0
M  V30 2181 C 211.533 -1.49582 -1.15198 0
M  V30 2182 O 210.89 -0.630134 -1.71276 0
M  V30 2183 C 210.941 -3.61371 0.0966523 0
M  V30 2184 O 210.662 -4.15758 1.38119 0
M  V30 2185 C 212.163 -4.41455 -0.403996 0
M  V30 2186 H 209.383 -0.664459 0.0934604 0
M  V30 2187 H 211.927 -1.83447 0.90373 0
M  V30 2188 H 210.082 -3.8315 -0.572259 0
M  V30 2189 H 210.496 -5.09499 1.24542 0
M  V30 2190 H 211.97 -5.50437 -0.415045 0
M  V30 2191 H 212.447 -4.15036 -1.43674 0
M  V30 2192 H 213.053 -4.24663 0.232691 0
M  V30 2193 N 211.368 -0.403325 -1.52352 0
M  V30 2194 C 212.318 0.442244 -2.2367 0
M  V30 2195 C 213.302 1.01823 -1.24583 0
M  V30 2196 O 214.494 0.942005 -1.49851 0
M  V30 2197 C 211.623 1.5615 -3.05732 0
M  V30 2198 C 210.709 0.996575 -4.12225 0
M  V30 2199 N 211.1 0.157804 -5.05554 0
M  V30 2200 C 209.398 1.26767 -4.27605 0
M  V30 2201 C 210.099 -0.155853 -5.81491 0
M  V30 2202 N 209.075 0.451775 -5.41719 0
M  V30 2203 H 212.877 -0.204964 -2.93184 0
M  V30 2204 H 210.391 -0.213418 -1.60992 0
M  V30 2205 H 212.388 2.17981 -3.55373 0
M  V30 2206 H 211.048 2.21139 -2.37755 0
M  V30 2207 H 212.059 -0.206049 -5.1749 0
M  V30 2208 H 208.736 1.91757 -3.70858 0
M  V30 2209 H 210.126 -0.836329 -6.66675 0
M  V30 2210 N 212.846 1.57033 -0.133567 0
M  V30 2211 C 213.793 2.16074 0.811208 0
M  V30 2212 C 214.763 1.08979 1.2535 0
M  V30 2213 O 215.948 1.36958 1.32843 0
M  V30 2214 C 213.088 2.77595 2.05024 0
M  V30 2215 C 212.201 3.99042 1.65498 0
M  V30 2216 C 211.336 4.48603 2.84479 0
M  V30 2217 C 210.375 5.62547 2.41262 0
M  V30 2218 N 209.512 6.06787 3.53206 0
M  V30 2219 H 214.352 2.96477 0.300906 0
M  V30 2220 H 211.889 1.46462 0.136822 0
M  V30 2221 H 213.847 3.11402 2.77642 0
M  V30 2222 H 212.477 1.99859 2.53488 0
M  V30 2223 H 211.529 3.71302 0.826981 0
M  V30 2224 H 212.841 4.81629 1.29748 0
M  V30 2225 H 211.995 4.84395 3.65303 0
M  V30 2226 H 210.734 3.64995 3.23465 0
M  V30 2227 H 209.739 5.26345 1.58874 0
M  V30 2228 H 210.964 6.47931 2.03377 0
M  V30 2229 H 208.91 5.26117 3.91838 0
M  V30 2230 H 208.827 6.84266 3.21427 0
M  V30 2231 H 210.095 6.4722 4.34427 0
M  V30 2232 N 214.325 -0.140222 1.56975 0
M  V30 2233 C 215.602 -0.880769 1.74648 0
M  V30 2234 C 215.982 -1.99036 0.703404 0
M  V30 2235 O 215.33 -2.26821 -0.27648 0
M  V30 2236 C 215.54 -1.417 3.18939 0
M  V30 2237 C 216.888 -1.87774 3.80823 0
M  V30 2238 O 217.912 -1.51427 3.2241 0
M  V30 2239 O 216.771 -2.54827 4.83452 0
M  V30 2240 H 213.865 -0.416713 0.714338 0
M  V30 2241 H 216.411 -0.125618 1.69234 0
M  V30 2242 H 215.183 -0.619902 3.86359 0
M  V30 2243 H 214.806 -2.23546 3.28805 0
M  V30 2244 N 215.803 -1.52179 -0.40978 0
M  V30 2245 C 217.08 -1.56769 -1.16974 0
M  V30 2246 C 217.46 -0.348322 -2.08206 0
M  V30 2247 O 216.808 0.664862 -2.18613 0
M  V30 2248 C 217.018 -2.89603 -1.9476 0
M  V30 2249 C 218.366 -3.42579 -2.50849 0
M  V30 2250 O 219.39 -2.91338 -2.04941 0
M  V30 2251 O 218.249 -4.32054 -3.34652 0
M  V30 2252 H 215.343 -0.631439 -0.534054 0
M  V30 2253 H 217.889 -1.64507 -0.416613 0
M  V30 2254 H 216.661 -3.698 -1.27921 0
M  V30 2255 H 216.284 -2.85155 -2.77079 0
M  V30 2256 N 217.281 0.66697 -1.42791 0
M  V30 2257 C 218.213 1.7925 -1.42836 0
M  V30 2258 C 219.226 1.59496 -0.326333 0
M  V30 2259 O 220.415 1.6847 -0.589916 0
M  V30 2260 C 217.515 3.16476 -1.21229 0
M  V30 2261 C 216.688 3.63011 -2.44013 0
M  V30 2262 C 215.747 4.78993 -2.17834 0
M  V30 2263 O 214.773 4.89137 -2.91091 0
M  V30 2264 N 215.975 5.68248 -1.18635 0
M  V30 2265 H 218.74 1.79695 -2.39854 0
M  V30 2266 H 216.301 0.850338 -1.37771 0
M  V30 2267 H 218.293 3.91734 -1.01621 0
M  V30 2268 H 216.863 3.10884 -0.32706 0
M  V30 2269 H 216.083 2.78346 -2.79137 0
M  V30 2270 H 217.371 3.90845 -3.25757 0
M  V30 2271 H 216.769 5.62712 -0.580615 0
M  V30 2272 H 215.326 6.43285 -1.05013 0
M  V30 2273 N 218.759 1.29093 0.90403 0
M  V30 2274 C 219.689 1.16401 2.02418 0
M  V30 2275 C 220.67 0.0593085 1.69997 0
M  V30 2276 O 221.855 0.238021 1.92736 0
M  V30 2277 C 218.985 0.835233 3.37107 0
M  V30 2278 C 217.939 1.89578 3.83724 0
M  V30 2279 C 217.265 1.42041 5.15489 0
M  V30 2280 C 218.565 3.30394 4.04521 0
M  V30 2281 H 220.259 2.10109 2.13295 0
M  V30 2282 H 217.805 1.01157 1.02486 0
M  V30 2283 H 219.758 0.733169 4.14973 0
M  V30 2284 H 218.482 -0.137543 3.2631 0
M  V30 2285 H 217.141 1.98715 3.08071 0
M  V30 2286 H 216.789 0.436426 5.01103 0
M  V30 2287 H 216.489 2.12964 5.4765 0
M  V30 2288 H 218.013 1.33176 5.959 0
M  V30 2289 H 219.427 3.24123 4.72882 0
M  V30 2290 H 217.824 3.99237 4.48029 0
M  V30 2291 H 218.894 3.73692 3.09002 0
M  V30 2292 N 220.237 -1.11381 1.11499 0
M  V30 2293 C 221.486 -1.82494 0.858993 0
M  V30 2294 C 221.799 -1.85605 -0.617278 0
M  V30 2295 O 223.005 -2.52824 -0.989552 0
M  V30 2296 C 221.461 -3.27745 1.48699 0
M  V30 2297 C 221.069 -3.32961 2.99735 0
M  V30 2298 C 222.813 -4.03754 1.31085 0
M  V30 2299 C 220.72 -4.72612 3.55516 0
M  V30 2300 H 219.65 -0.683802 0.317696 0
M  V30 2301 H 222.301 -1.25331 1.34031 0
M  V30 2302 H 220.683 -3.84844 0.933339 0
M  V30 2303 H 221.857 -2.85741 3.61509 0
M  V30 2304 H 220.172 -2.70433 3.16631 0
M  V30 2305 H 222.769 -5.06891 1.70192 0
M  V30 2306 H 223.112 -4.15527 0.253496 0
M  V30 2307 H 223.645 -3.53043 1.83318 0
M  V30 2308 H 220.384 -4.66036 4.60967 0
M  V30 2309 H 219.904 -5.2024 2.98513 0
M  V30 2310 H 221.583 -5.4157 3.53992 0
M  V30 2311 N 221.715 -0.905404 -1.28997 0
M  V30 2312 C 222.955 -0.541232 -1.97104 0
M  V30 2313 C 223.319 0.896841 -1.69767 0
M  V30 2314 O 224.52 1.36817 -2.31375 0
M  V30 2315 C 222.791 -0.832134 -3.47578 0
M  V30 2316 S 224.35 -0.573127 -4.35041 0
M  V30 2317 H 221.168 -0.200576 -0.682122 0
M  V30 2318 H 223.77 -1.16906 -1.56694 0
M  V30 2319 H 222.474 -1.87687 -3.64968 0
M  V30 2320 H 222.005 -0.192636 -3.92928 0
M  V30 2321 H 224.02 0.579297 -4.92807 0
M  V30 2322 N 223.193 1.4272 -0.668489 0
M  V30 2323 C 224.439 2.01923 -0.188419 0
M  V30 2324 C 224.772 1.52704 1.19979 0
M  V30 2325 O 224.047 0.726566 1.8042 0
M  V30 2326 C 224.33 3.59451 -0.216085 0
M  V30 2327 C 224.183 4.18864 -1.6393 0
M  V30 2328 C 225.502 4.37903 0.439179 0
M  V30 2329 H 222.621 0.733674 -0.0699412 0
M  V30 2330 H 225.263 1.69822 -0.852076 0
M  V30 2331 H 223.413 3.86929 0.349012 0
M  V30 2332 H 225.085 4.02362 -2.25616 0
M  V30 2333 H 223.328 3.74933 -2.18193 0
M  V30 2334 H 223.999 5.27987 -1.61039 0
M  V30 2335 H 226.475 4.16079 -0.0417878 0
M  V30 2336 H 225.351 5.47519 0.389157 0
M  V30 2337 H 225.612 4.15303 1.51577 0
M  V30 2338 N 224.671 0.411399 1.52136 0
M  V30 2339 C 225.619 -0.427633 2.28635 0
M  V30 2340 C 226.613 -1.04383 1.33419 0
M  V30 2341 O 227.819 -0.981772 1.50868 0
M  V30 2342 H 224.194 -0.156689 0.735495 0
M  V30 2343 H 226.165 0.238761 2.97443 0
M  V30 2344 C 224.914 -1.53082 3.12188 0
M  V30 2345 H 224.237 -1.06601 3.85326 0
M  V30 2346 H 225.677 -2.09167 3.68816 0
M  V30 2347 C 224.136 -2.49946 2.25895 0
M  V30 2348 O 224.666 -3.53884 1.90076 0
M  V30 2349 N 222.872 -2.2021 1.8962 0
M  V30 2350 H 222.419 -1.35719 2.18948 0
M  V30 2351 H 222.377 -2.85266 1.32176 0
M  V30 2352 N 226.149 -1.5696 0.141893 0
M  V30 2353 C 227.059 -2.20066 -0.812905 0
M  V30 2354 C 228.075 -1.18344 -1.27557 0
M  V30 2355 O 229.251 -1.50902 -1.33381 0
M  V30 2356 C 226.316 -2.80583 -2.03652 0
M  V30 2357 C 225.377 -3.97414 -1.62359 0
M  V30 2358 C 224.61 -4.55036 -2.78887 0
M  V30 2359 O 224.833 -4.11538 -3.94959 0
M  V30 2360 O 223.767 -5.45376 -2.54653 0
M  V30 2361 H 227.593 -3.02157 -0.305746 0
M  V30 2362 H 225.178 -1.49159 -0.0848799 0
M  V30 2363 H 227.06 -3.19067 -2.75272 0
M  V30 2364 H 225.735 -2.01508 -2.5333 0
M  V30 2365 H 224.642 -3.63656 -0.877775 0
M  V30 2366 H 225.975 -4.77994 -1.17401 0
M  V30 2367 N 227.627 0.131896 -1.57047 0
M  V30 2368 C 228.575 1.18146 -2.0036 0
M  V30 2369 C 229.569 1.43614 -0.898406 0
M  V30 2370 O 230.775 1.43729 -1.08361 0
M  V30 2371 H 227.15 0.398042 -0.638018 0
M  V30 2372 H 229.121 0.789564 -2.87765 0
M  V30 2373 C 227.87 2.50341 -2.41298 0
M  V30 2374 H 227.193 2.31578 -3.25902 0
M  V30 2375 H 228.633 3.22371 -2.75414 0
M  V30 2376 C 227.092 3.11984 -1.27153 0
M  V30 2377 O 227.622 3.97484 -0.580459 0
M  V30 2378 N 225.828 2.71662 -1.03189 0
M  V30 2379 H 225.375 2.02231 -1.59564 0
M  V30 2380 H 225.333 3.13238 -0.270077 0
M  V30 2381 N 229.106 1.52395 0.401703 0
M  V30 2382 C 230.354 1.66488 1.14569 0
M  V30 2383 C 230.675 0.400897 1.90835 0
M  V30 2384 O 229.945 -0.584415 1.8698 0
M  V30 2385 H 228.525 0.613672 0.425929 0
M  V30 2386 H 231.187 1.89464 0.457093 0
M  V30 2387 H 230.283 2.50942 1.85566 0
M  V30 2388 N 230.584 -0.659388 1.43143 0
M  V30 2389 C 231.832 -1.41654 1.44147 0
M  V30 2390 C 232.153 -1.94893 0.0645739 0
M  V30 2391 O 231.423 -1.74044 -0.899198 0
M  V30 2392 H 230.003 -0.525708 0.530697 0
M  V30 2393 H 232.665 -0.778097 1.78694 0
M  V30 2394 H 231.761 -2.26195 2.1504 0
M  V30 2395 N 232.062 -1.29571 -0.897171 0
M  V30 2396 C 233.302 -1.18959 -1.66217 0
M  V30 2397 C 233.666 0.254271 -1.90309 0
M  V30 2398 O 234.867 0.483407 -2.64417 0
M  V30 2399 C 233.138 -1.98302 -2.9734 0
M  V30 2400 S 234.697 -2.04253 -3.88364 0
M  V30 2401 H 231.515 -0.424137 -0.570639 0
M  V30 2402 H 234.117 -1.6389 -1.06585 0
M  V30 2403 H 232.821 -3.02342 -2.77521 0
M  V30 2404 H 232.352 -1.53986 -3.62011 0
M  V30 2405 H 234.367 -1.16105 -4.82425 0
M  V30 2406 N 233.54 1.10788 -1.12088 0
M  V30 2407 C 234.45 2.20599 -0.798338 0
M  V30 2408 C 235.466 1.72712 0.21135 0
M  V30 2409 O 236.642 2.01348 0.0458477 0
M  V30 2410 C 233.707 3.45771 -0.253674 0
M  V30 2411 C 232.768 4.08411 -1.32283 0
M  V30 2412 C 232.001 5.27608 -0.80406 0
M  V30 2413 O 232.224 5.69241 0.363478 0
M  V30 2414 O 231.158 5.8101 -1.57198 0
M  V30 2415 H 234.984 2.50614 -1.7154 0
M  V30 2416 H 232.569 1.19454 -0.897275 0
M  V30 2417 H 234.451 4.21376 0.0453691 0
M  V30 2418 H 233.126 3.1739 0.636005 0
M  V30 2419 H 232.033 3.34507 -1.67499 0
M  V30 2420 H 233.366 4.40986 -2.18614 0
M  V30 2421 N 235.018 0.912232 1.28515 0
M  V30 2422 C 235.95 0.35676 2.26406 0
M  V30 2423 C 236.963 -0.503933 1.54804 0
M  V30 2424 O 238.152 -0.319059 1.75625 0
M  V30 2425 C 235.252 -0.508825 3.35058 0
M  V30 2426 C 234.425 0.329007 4.36161 0
M  V30 2427 C 233.484 -0.471422 5.24084 0
M  V30 2428 O 232.51 0.115482 5.69083 0
M  V30 2429 N 233.712 -1.77479 5.52704 0
M  V30 2430 H 236.477 1.19818 2.74707 0
M  V30 2431 H 234.038 0.778022 1.4198 0
M  V30 2432 H 236.03 -1.051 3.90815 0
M  V30 2433 H 234.6 -1.25095 2.86478 0
M  V30 2434 H 233.82 1.05256 3.79888 0
M  V30 2435 H 235.108 0.90234 5.00735 0
M  V30 2436 H 234.506 -2.27417 5.17975 0
M  V30 2437 H 233.063 -2.26382 6.11224 0
M  V30 2438 N 236.496 -1.42363 0.676048 0
M  V30 2439 C 237.726 -2.05561 0.206967 0
M  V30 2440 C 238.134 -1.50887 -1.14148 0
M  V30 2441 O 237.477 -0.643933 -1.72044 0
M  V30 2442 C 237.539 -3.5944 0.0659508 0
M  V30 2443 C 237.203 -4.36812 1.34331 0
M  V30 2444 C 238.2 -4.67383 2.27704 0
M  V30 2445 C 235.885 -4.76429 1.59125 0
M  V30 2446 C 237.879 -5.36509 3.44147 0
M  V30 2447 C 235.566 -5.45294 2.75857 0
M  V30 2448 C 236.564 -5.75259 3.68193 0
M  V30 2449 O 236.252 -6.42712 4.82883 0
M  V30 2450 H 235.984 -0.668872 0.0979084 0
M  V30 2451 H 238.538 -1.83467 0.923531 0
M  V30 2452 H 236.768 -3.80197 -0.706204 0
M  V30 2453 H 238.457 -4.0427 -0.363418 0
M  V30 2454 H 239.223 -4.37275 2.09799 0
M  V30 2455 H 235.102 -4.52498 0.881258 0
M  V30 2456 H 238.646 -5.59814 4.16238 0
M  V30 2457 H 234.543 -5.7482 2.93688 0
M  V30 2458 H 235.311 -6.61204 4.82444 0
M  V30 2459 N 237.974 -0.419461 -1.51915 0
M  V30 2460 C 239.214 0.152336 -2.03832 0
M  V30 2461 C 239.578 1.41501 -1.29775 0
M  V30 2462 O 240.779 2.06591 -1.7197 0
M  V30 2463 C 239.05 0.383812 -3.55333 0
M  V30 2464 S 240.609 0.921577 -4.29013 0
M  V30 2465 H 237.427 0.0402193 -0.709862 0
M  V30 2466 H 240.029 -0.574758 -1.8686 0
M  V30 2467 H 238.733 -0.541794 -4.06808 0
M  V30 2468 H 238.264 1.13849 -3.76566 0
M  V30 2469 H 240.279 2.20108 -4.4471 0
M  V30 2470 N 239.452 1.56882 -0.150215 0
M  V30 2471 C 240.677 2.01027 0.510184 0
M  V30 2472 C 241.102 1.02966 1.57415 0
M  V30 2473 O 240.46 0.00590158 1.81299 0
M  V30 2474 C 240.508 3.43899 1.08472 0
M  V30 2475 O 239.612 3.4885 2.19948 0
M  V30 2476 H 238.953 0.652233 0.124451 0
M  V30 2477 H 241.483 2.03093 -0.247894 0
M  V30 2478 H 241.493 3.82766 1.41259 0
M  V30 2479 H 240.168 4.14776 0.305582 0
M  V30 2480 H 238.745 3.21827 1.88366 0
M  V30 2481 N 240.93 -0.123565 1.57115 0
M  V30 2482 C 242.207 -0.862196 1.75572 0
M  V30 2483 C 242.587 -1.98279 0.724475 0
M  V30 2484 O 241.935 -2.27102 -0.252407 0
M  V30 2485 C 242.145 -1.38309 3.20424 0
M  V30 2486 C 243.493 -1.83724 3.82793 0
M  V30 2487 O 244.517 -1.47999 3.23998 0
M  V30 2488 O 243.376 -2.49685 4.86127 0
M  V30 2489 H 240.47 -0.409113 0.718718 0
M  V30 2490 H 243.016 -0.107661 1.69358 0
M  V30 2491 H 241.788 -0.578889 3.86994 0
M  V30 2492 H 241.411 -2.20046 3.31158 0
M  V30 2493 N 242.408 -1.52605 -0.393616 0
M  V30 2494 C 243.358 -1.73436 -1.48 0
M  V30 2495 C 244.342 -0.588386 -1.49756 0
M  V30 2496 O 245.534 -0.846047 -1.5547 0
M  V30 2497 C 242.663 -1.90247 -2.85764 0
M  V30 2498 C 241.749 -3.10763 -2.88595 0
M  V30 2499 N 242.14 -4.33196 -2.61103 0
M  V30 2500 C 240.438 -3.10914 -3.19763 0
M  V30 2501 C 241.139 -5.1477 -2.70899 0
M  V30 2502 N 240.115 -4.50356 -3.04435 0
M  V30 2503 H 243.917 -2.65727 -1.25563 0
M  V30 2504 H 241.431 -1.5085 -0.601513 0
M  V30 2505 H 243.428 -2.03291 -3.63976 0
M  V30 2506 H 242.088 -0.991663 -3.09186 0
M  V30 2507 H 243.099 -4.61408 -2.35209 0
M  V30 2508 H 239.776 -2.29626 -3.4868 0
M  V30 2509 H 241.166 -6.22355 -2.53227 0
M  V30 2510 N 243.887 0.651787 -1.4349 0
M  V30 2511 C 245.115 1.43937 -1.48626 0
M  V30 2512 C 245.53 1.8851 -0.104587 0
M  V30 2513 O 244.887 1.5958 0.885464 0
M  V30 2514 C 244.938 2.6734 -2.43334 0
M  V30 2515 O 244.659 2.24631 -3.76128 0
M  V30 2516 C 246.16 3.60683 -2.57726 0
M  V30 2517 H 243.38 0.44213 -0.504739 0
M  V30 2518 H 245.924 0.798944 -1.88248 0
M  V30 2519 H 244.079 3.2752 -2.06904 0
M  V30 2520 H 244.493 3.04485 -4.2707 0
M  V30 2521 H 245.967 4.43933 -3.28067 0
M  V30 2522 H 246.444 4.08126 -1.62265 0
M  V30 2523 H 247.05 3.06384 -2.94973 0
M  V30 2524 N 245.365 1.30045 0.890287 0
M  V30 2525 C 246.613 1.18327 1.63839 0
M  V30 2526 C 246.934 -0.263455 1.93212 0
M  V30 2527 O 246.204 -1.17856 1.56482 0
M  V30 2528 H 244.784 0.434933 0.607324 0
M  V30 2529 H 247.446 1.631 1.06698 0
M  V30 2530 H 246.542 1.74024 2.59079 0
M  V30 2531 N 246.843 -1.10192 1.12674 0
M  V30 2532 C 248.071 -1.85983 0.906527 0
M  V30 2533 C 248.486 -1.80783 -0.544333 0
M  V30 2534 O 247.843 -1.19834 -1.37645 0
M  V30 2535 C 247.894 -3.34281 1.37618 0
M  V30 2536 O 247.615 -3.39401 2.77017 0
M  V30 2537 C 249.116 -4.26938 1.19325 0
M  V30 2538 H 246.336 -0.587716 0.323775 0
M  V30 2539 H 248.88 -1.39284 1.49734 0
M  V30 2540 H 247.035 -3.78436 0.828539 0
M  V30 2541 H 247.449 -4.31838 2.97684 0
M  V30 2542 H 248.923 -5.29181 1.57071 0
M  V30 2543 H 249.4 -4.38995 0.134097 0
M  V30 2544 H 250.006 -3.8859 1.72852 0
M  V30 2545 N 248.321 -0.919034 -1.28029 0
M  V30 2546 C 249.268 -0.410005 -2.27129 0
M  V30 2547 C 250.238 0.518405 -1.57803 0
M  V30 2548 O 251.423 0.439451 -1.8567 0
M  V30 2549 C 248.563 0.339054 -3.4343 0
M  V30 2550 C 247.676 -0.622468 -4.27492 0
M  V30 2551 C 246.811 0.145567 -5.31001 0
M  V30 2552 C 245.85 -0.809226 -6.06727 0
M  V30 2553 N 244.987 -0.0743728 -7.02061 0
M  V30 2554 H 249.827 -1.26011 -2.70047 0
M  V30 2555 H 247.364 -0.632663 -1.328 0
M  V30 2556 H 249.322 0.789586 -4.0966 0
M  V30 2557 H 247.952 1.15346 -3.01488 0
M  V30 2558 H 247.004 -1.19153 -3.61257 0
M  V30 2559 H 248.316 -1.35252 -4.80113 0
M  V30 2560 H 247.47 0.656417 -6.03139 0
M  V30 2561 H 246.209 0.908643 -4.79161 0
M  V30 2562 H 245.214 -1.3314 -5.33436 0
M  V30 2563 H 246.439 -1.57194 -6.60656 0
M  V30 2564 H 244.385 0.670616 -6.52563 0
M  V30 2565 H 244.302 -0.744157 -7.52329 0
M  V30 2566 H 245.57 0.416109 -7.78389 0
M  V30 2567 N 249.799 1.42003 -0.683588 0
M  V30 2568 C 251.215 1.55625 -0.353976 0
M  V30 2569 C 251.415 1.66151 1.14 0
M  V30 2570 O 250.471 1.63329 1.92561 0
M  V30 2571 C 251.784 2.80171 -1.092 0
M  V30 2572 C 253.332 2.93954 -1.07518 0
M  V30 2573 C 253.807 4.21372 -1.79471 0
M  V30 2574 N 255.298 4.28303 -1.76381 0
M  V30 2575 C 256.033 5.25729 -2.28904 0
M  V30 2576 N 255.529 6.29254 -2.89846 0
M  V30 2577 N 257.322 5.17586 -2.19228 0
M  V30 2578 H 249.473 1.33415 -1.6527 0
M  V30 2579 H 251.736 0.64282 -0.696769 0
M  V30 2580 H 251.442 2.78561 -2.14701 0
M  V30 2581 H 251.316 3.7133 -0.662862 0
M  V30 2582 H 253.703 2.95086 -0.028475 0
M  V30 2583 H 253.784 2.04002 -1.54328 0
M  V30 2584 H 253.428 4.21001 -2.84114 0
M  V30 2585 H 253.358 5.10275 -1.30104 0
M  V30 2586 H 255.849 3.54119 -1.31939 0
M  V30 2587 H 256.162 6.99964 -3.27522 0
M  V30 2588 H 254.507 6.29791 -2.93919 0
M  V30 2589 H 257.698 4.35631 -1.71299 0
M  V30 2590 H 257.871 5.93348 -2.60466 0
M  V30 2591 N 251.277 0.427512 1.51691 0
M  V30 2592 C 252.502 -0.143601 2.06902 0
M  V30 2593 C 252.927 -1.36536 1.29382 0
M  V30 2594 O 252.285 -1.78289 0.329043 0
M  V30 2595 C 252.333 -0.454207 3.57728 0
M  V30 2596 O 251.437 -1.54228 3.82475 0
M  V30 2597 H 250.778 -0.00617128 0.663971 0
M  V30 2598 H 253.308 0.606014 1.95419 0
M  V30 2599 H 253.318 -0.707525 4.01818 0
M  V30 2600 H 251.993 0.438812 4.13579 0
M  V30 2601 H 250.57 -1.2797 3.50254 0
M  V30 2602 N 252.755 -1.56801 0.158532 0
M  V30 2603 C 253.995 -1.98383 -0.49229 0
M  V30 2604 C 254.359 -1.04184 -1.61275 0
M  V30 2605 O 255.56 -1.34856 -2.32524 0
M  V30 2606 C 253.831 -3.4385 -0.974766 0
M  V30 2607 S 255.39 -4.07459 -1.62857 0
M  V30 2608 H 252.208 -0.693041 -0.158794 0
M  V30 2609 H 254.81 -1.93856 0.252974 0
M  V30 2610 H 253.514 -4.10131 -0.148688 0
M  V30 2611 H 253.045 -3.52115 -1.75438 0
M  V30 2612 H 255.06 -4.01458 -2.91627 0
M  V30 2613 N 254.233 0.115231 -1.57178 0
M  V30 2614 C 255.649 0.468877 -1.52557 0
M  V30 2615 C 255.849 1.81649 -0.872125 0
M  V30 2616 O 254.905 2.48347 -0.45606 0
M  V30 2617 C 256.218 0.4499 -2.97315 0
M  V30 2618 C 257.766 0.533185 -3.08425 0
M  V30 2619 C 258.241 0.54456 -4.54751 0
M  V30 2620 N 259.732 0.605892 -4.5922 0
M  V30 2621 C 260.467 0.636203 -5.6986 0
M  V30 2622 N 259.963 0.623931 -6.89985 0
M  V30 2623 N 261.756 0.679496 -5.57978 0
M  V30 2624 H 253.907 -0.767712 -1.9804 0
M  V30 2625 H 256.17 -0.283609 -0.904583 0
M  V30 2626 H 255.876 -0.472721 -3.48509 0
M  V30 2627 H 255.75 1.27632 -3.5495 0
M  V30 2628 H 258.137 1.44623 -2.57232 0
M  V30 2629 H 258.218 -0.320995 -2.53778 0
M  V30 2630 H 257.862 -0.364452 -5.06591 0
M  V30 2631 H 257.792 1.41568 -5.07214 0
M  V30 2632 H 260.283 0.621386 -3.72756 0
M  V30 2633 H 260.596 0.649787 -7.70063 0
M  V30 2634 H 258.941 0.591296 -6.9248 0
M  V30 2635 H 262.132 0.686472 -4.63039 0
M  V30 2636 H 262.305 0.69965 -6.44212 0
M  V30 2637 N 255.711 1.52812 0.385517 0
M  V30 2638 C 256.951 1.69716 1.13911 0
M  V30 2639 C 257.315 0.42962 1.87132 0
M  V30 2640 O 258.516 0.475071 2.64569 0
M  V30 2641 C 256.787 2.90021 2.0886 0
M  V30 2642 S 258.346 3.27531 2.92009 0
M  V30 2643 H 255.164 0.59739 0.385547 0
M  V30 2644 H 257.766 1.90868 0.423061 0
M  V30 2645 H 256.47 3.80493 1.53797 0
M  V30 2646 H 256.001 2.71213 2.84969 0
M  V30 2647 H 258.016 2.77989 4.11019 0
M  V30 2648 N 257.189 -0.644168 1.43834 0
M  V30 2649 C 258.139 -1.7501 1.46135 0
M  V30 2650 C 259.123 -1.57507 0.328685 0
M  V30 2651 O 260.315 -1.67465 0.5731 0
M  V30 2652 C 257.444 -3.13641 1.39585 0
M  V30 2653 C 256.53 -3.3666 2.57916 0
M  V30 2654 N 256.921 -3.30107 3.83227 0
M  V30 2655 C 255.219 -3.67411 2.52834 0
M  V30 2656 C 255.92 -3.53456 4.61999 0
M  V30 2657 N 254.896 -3.75705 3.9287 0
M  V30 2658 H 258.698 -1.68382 2.40883 0
M  V30 2659 H 256.212 -0.846169 1.38614 0
M  V30 2660 H 258.209 -3.92933 1.39317 0
M  V30 2661 H 256.869 -3.21444 0.45865 0
M  V30 2662 H 257.88 -3.09316 4.15384 0
M  V30 2663 H 254.557 -3.82275 1.67845 0
M  V30 2664 H 255.947 -3.54093 5.71024 0
M  V30 2665 N 258.668 -1.30515 -0.883378 0
M  V30 2666 C 259.578 -1.18959 -2.02203 0
M  V30 2667 C 260.594 -0.109172 -1.73657 0
M  V30 2668 O 261.77 -0.324413 -1.9877 0
M  V30 2669 C 258.835 -0.883871 -3.35244 0
M  V30 2670 C 257.896 -2.04982 -3.77201 0
M  V30 2671 C 257.129 -1.75859 -5.03894 0
M  V30 2672 O 257.352 -0.687276 -5.66244 0
M  V30 2673 O 256.286 -2.61146 -5.42297 0
M  V30 2674 H 260.112 -2.14616 -2.1488 0
M  V30 2675 H 257.697 -1.10124 -1.0096 0
M  V30 2676 H 259.579 -0.728644 -4.15053 0
M  V30 2677 H 258.254 0.0427798 -3.23672 0
M  V30 2678 H 257.161 -2.26038 -2.9809 0
M  V30 2679 H 258.494 -2.95825 -3.93381 0
M  V30 2680 N 260.146 1.09593 -1.13257 0
M  V30 2681 C 261.394 1.81375 -0.891492 0
M  V30 2682 C 261.715 1.86049 0.584009 0
M  V30 2683 O 260.985 1.34481 1.42449 0
M  V30 2684 H 259.565 0.671708 -0.326828 0
M  V30 2685 H 262.227 1.3256 -1.42877 0
M  V30 2686 H 261.323 2.84612 -1.28071 0
M  V30 2687 N 261.624 0.925811 1.2754 0
M  V30 2688 C 262.854 0.580666 1.98272 0
M  V30 2689 C 263.262 -0.845207 1.69272 0
M  V30 2690 O 262.605 -1.57306 0.948707 0
M  V30 2691 C 262.667 0.724418 3.52126 0
M  V30 2692 C 262.331 2.12206 4.04744 0
M  V30 2693 C 263.328 3.09604 4.17662 0
M  V30 2694 C 261.013 2.4385 4.39138 0
M  V30 2695 C 263.007 4.36755 4.64246 0
M  V30 2696 C 260.694 3.71237 4.85414 0
M  V30 2697 C 261.692 4.67503 4.97926 0
M  V30 2698 O 261.38 5.92624 5.43187 0
M  V30 2699 H 261.112 0.218987 0.639547 0
M  V30 2700 H 263.666 1.24452 1.63404 0
M  V30 2701 H 261.896 0.0034663 3.867 0
M  V30 2702 H 263.585 0.384607 4.04074 0
M  V30 2703 H 264.351 2.86478 3.91351 0
M  V30 2704 H 260.23 1.69665 4.28643 0
M  V30 2705 H 263.774 5.11898 4.73927 0
M  V30 2706 H 259.671 3.94182 5.11166 0
M  V30 2707 H 260.439 5.95585 5.61445 0
M  V30 2708 N 263.102 -1.41638 0.69111 0
M  V30 2709 C 264.327 -2.06148 0.227583 0
M  V30 2710 C 264.752 -1.51652 -1.11281 0
M  V30 2711 O 264.11 -0.64164 -1.69566 0
M  V30 2712 C 264.158 -3.60095 0.190858 0
M  V30 2713 O 263.262 -4.03845 -0.835664 0
M  V30 2714 H 262.603 -0.654434 0.112306 0
M  V30 2715 H 265.133 -1.81484 0.944714 0
M  V30 2716 H 265.143 -4.07995 0.020207 0
M  V30 2717 H 263.818 -3.99129 1.16915 0
M  V30 2718 H 262.395 -3.67458 -0.63473 0
M  V30 2719 N 264.58 -0.43555 -1.51462 0
M  V30 2720 C 265.51 0.367376 -2.30592 0
M  V30 2721 C 266.491 1.02263 -1.35928 0
M  V30 2722 O 267.676 1.02661 -1.64847 0
M  V30 2723 C 264.806 1.46983 -3.14664 0
M  V30 2724 C 263.76 0.938161 -4.17591 0
M  V30 2725 C 263.086 2.13622 -4.90173 0
M  V30 2726 C 264.386 -0.0261621 -5.22293 0
M  V30 2727 H 266.08 -0.292969 -2.97963 0
M  V30 2728 H 263.626 -0.14234 -1.43295 0
M  V30 2729 H 265.579 2.03873 -3.688 0
M  V30 2730 H 264.303 2.15843 -2.4511 0
M  V30 2731 H 262.962 0.391481 -3.64504 0
M  V30 2732 H 262.61 2.81098 -4.17124 0
M  V30 2733 H 262.31 1.78688 -5.59772 0
M  V30 2734 H 263.834 2.7107 -5.47132 0
M  V30 2735 H 265.248 0.452384 -5.71512 0
M  V30 2736 H 263.645 -0.287992 -5.99409 0
M  V30 2737 H 264.715 -0.963391 -4.75233 0
M  V30 2738 N 266.058 1.56714 -0.166846 0
M  V30 2739 C 266.988 2.20754 0.760913 0
M  V30 2740 C 267.969 1.16178 1.24244 0
M  V30 2741 O 269.154 1.44592 1.29641 0
M  V30 2742 C 266.284 2.84478 1.99223 0
M  V30 2743 C 265.238 3.95053 1.64672 0
M  V30 2744 C 264.564 4.45805 2.95232 0
M  V30 2745 C 265.864 5.14865 0.878155 0
M  V30 2746 H 267.558 2.98537 0.22713 0
M  V30 2747 H 265.104 1.43596 0.107805 0
M  V30 2748 H 267.057 3.27951 2.64624 0
M  V30 2749 H 265.781 2.04056 2.55007 0
M  V30 2750 H 264.44 3.52228 1.01641 0
M  V30 2751 H 264.088 3.62181 3.49047 0
M  V30 2752 H 263.788 5.204 2.7287 0
M  V30 2753 H 265.312 4.91962 3.6167 0
M  V30 2754 H 266.726 5.55059 1.43466 0
M  V30 2755 H 265.123 5.95348 0.753738 0
M  V30 2756 H 266.193 4.84735 -0.126377 0
M  V30 2757 N 267.536 -0.106894 1.57237 0
M  V30 2758 C 268.499 -1.11466 2.0027 0
M  V30 2759 C 269.499 -1.33623 0.894519 0
M  V30 2760 O 270.689 -1.29935 1.16028 0
M  V30 2761 C 267.821 -2.46646 2.35327 0
M  V30 2762 H 269.014 -0.744516 2.90512 0
M  V30 2763 H 266.567 -0.351576 1.52295 0
M  V30 2764 H 267.302 -2.88558 1.48003 0
M  V30 2765 H 267.087 -2.31915 3.16161 0
M  V30 2766 H 268.577 -3.19151 2.69318 0
M  V30 2767 N 269.014 -1.53014 -0.377408 0
M  V30 2768 C 270.291 -1.59215 -1.13622 0
M  V30 2769 C 270.671 -0.392407 -2.07421 0
M  V30 2770 O 270.019 0.618342 -2.19975 0
M  V30 2771 C 270.229 -2.93669 -1.88573 0
M  V30 2772 C 271.577 -3.47822 -2.43526 0
M  V30 2773 O 272.601 -2.9562 -1.98715 0
M  V30 2774 O 271.46 -4.39055 -3.25412 0
M  V30 2775 H 268.554 -0.642625 -0.52054 0
M  V30 2776 H 271.1 -1.65353 -0.381625 0
M  V30 2777 H 269.872 -3.7243 -1.20048 0
M  V30 2778 H 269.495 -2.90968 -2.70968 0
M  V30 2779 N 270.492 0.636531 -1.44174 0
M  V30 2780 C 271.74 1.39343 -1.46383 0
M  V30 2781 C 272.061 1.94766 -0.0955715 0
M  V30 2782 O 271.331 1.75452 0.871395 0
M  V30 2783 H 269.911 0.517199 -0.538994 0
M  V30 2784 H 272.573 0.74957 -1.7991 0
M  V30 2785 H 271.669 2.22746 -2.18611 0
M  V30 2786 N 271.97 1.30982 0.876444 0
M  V30 2787 C 273.216 1.20474 1.63138 0
M  V30 2788 C 273.549 -0.238096 1.92735 0
M  V30 2789 O 272.824 -1.1692 1.55435 0
M  V30 2790 C 273.107 2.04244 2.96574 0
M  V30 2791 C 272.96 3.56793 2.73896 0
M  V30 2792 C 274.279 1.88684 3.97601 0
M  V30 2793 H 271.398 0.439001 0.591985 0
M  V30 2794 H 274.04 1.60704 1.01361 0
M  V30 2795 H 272.19 1.70063 3.493 0
M  V30 2796 H 273.862 4.01077 2.27892 0
M  V30 2797 H 272.105 3.80548 2.08245 0
M  V30 2798 H 272.776 4.10706 3.68815 0
M  V30 2799 H 275.252 2.18584 3.54062 0
M  V30 2800 H 274.128 2.4961 4.88862 0
M  V30 2801 H 274.389 0.848343 4.33884 0
M  V30 2802 N 273.449 -1.08991 1.13837 0
M  V30 2803 C 274.674 -1.85551 0.926585 0
M  V30 2804 C 275.099 -1.80782 -0.519566 0
M  V30 2805 O 274.457 -1.18855 -1.36906 0
M  V30 2806 C 274.505 -3.31266 1.42462 0
M  V30 2807 O 273.609 -4.07822 0.612789 0
M  V30 2808 H 272.95 -0.575192 0.331738 0
M  V30 2809 H 275.48 -1.37604 1.51414 0
M  V30 2810 H 275.49 -3.82112 1.43019 0
M  V30 2811 H 274.165 -3.34052 2.47754 0
M  V30 2812 H 272.742 -3.66731 0.675463 0
M  V30 2813 N 274.927 -0.932562 -1.27047 0
M  V30 2814 C 276.167 -0.582919 -1.95912 0
M  V30 2815 C 276.531 0.860629 -1.71631 0
M  V30 2816 O 277.732 1.31878 -2.34225 0
M  V30 2817 C 276.003 -0.905673 -3.45734 0
M  V30 2818 S 277.562 -0.665277 -4.33727 0
M  V30 2819 H 274.38 -0.215 -0.677714 0
M  V30 2820 H 276.982 -1.20204 -1.54179 0
M  V30 2821 H 275.686 -1.95386 -3.60905 0
M  V30 2822 H 275.217 -0.275939 -3.92431 0
M  V30 2823 H 277.232 0.474635 -4.93925 0
M  V30 2824 N 276.405 1.4127 -0.698611 0
M  V30 2825 C 277.633 2.05503 -0.239992 0
M  V30 2826 C 278.048 1.52584 1.11191 0
M  V30 2827 O 277.405 0.675323 1.69545 0
M  V30 2828 C 277.456 3.60987 -0.192429 0
M  V30 2829 O 277.177 4.1195 -1.49094 0
M  V30 2830 C 278.678 4.42371 0.28681 0
M  V30 2831 H 275.898 0.661748 -0.111045 0
M  V30 2832 H 278.442 1.80987 -0.95205 0
M  V30 2833 H 276.597 3.84533 0.470472 0
M  V30 2834 H 277.011 5.06018 -1.38007 0
M  V30 2835 H 278.485 5.51344 0.26896 0
M  V30 2836 H 278.962 4.18699 1.32619 0
M  V30 2837 H 279.568 4.23897 -0.345201 0
M  V30 2838 N 277.883 0.443576 1.51229 0
M  V30 2839 C 279.294 -0.0180867 1.86691 0
M  V30 2840 C 279.645 -1.41384 1.36033 0
M  V30 2841 O 278.77 -2.04291 0.713722 0
M  V30 2842 C 279.365 -0.039597 3.38777 0
M  V30 2843 C 277.924 -0.445692 3.73752 0
M  V30 2844 C 277.071 0.357584 2.74985 0
M  V30 2845 H 280.022 0.659138 1.44364 0
M  V30 2846 H 280.043 -0.847761 3.70936 0
M  V30 2847 H 279.555 0.976382 3.75617 0
M  V30 2848 H 277.656 -1.46704 3.42503 0
M  V30 2849 H 277.769 -0.166155 4.78812 0
M  V30 2850 H 276.133 -0.184973 2.54027 0
M  V30 2851 H 276.916 1.37256 3.14668 0
M  V30 2852 N 279.361 -1.56624 0.175154 0
M  V30 2853 C 280.589 -2.01374 -0.474971 0
M  V30 2854 C 281.004 -1.05537 -1.56548 0
M  V30 2855 O 280.361 -0.0568668 -1.82411 0
M  V30 2856 C 280.412 -3.45923 -1.04975 0
M  V30 2857 O 280.133 -4.381 -0.00276605 0
M  V30 2858 C 281.634 -4.06093 -1.77773 0
M  V30 2859 H 278.854 -0.659962 -0.121206 0
M  V30 2860 H 281.398 -2.02601 0.27801 0
M  V30 2861 H 279.553 -3.45458 -1.75321 0
M  V30 2862 H 279.967 -5.22753 -0.427681 0
M  V30 2863 H 281.441 -5.09147 -2.13245 0
M  V30 2864 H 281.918 -3.48405 -2.67414 0
M  V30 2865 H 282.524 -4.10272 -1.12059 0
M  V30 2866 N 280.839 0.0985539 -1.57292 0
M  V30 2867 C 282.085 0.803867 -1.86188 0
M  V30 2868 C 282.418 1.78549 -0.763794 0
M  V30 2869 O 281.693 1.93153 0.22855 0
M  V30 2870 C 281.976 1.53568 -3.25713 0
M  V30 2871 C 281.829 0.572277 -4.46145 0
M  V30 2872 C 283.148 2.48708 -3.63087 0
M  V30 2873 H 280.267 0.290781 -0.677211 0
M  V30 2874 H 282.909 0.0675783 -1.8988 0
M  V30 2875 H 281.059 2.16332 -3.22696 0
M  V30 2876 H 282.731 -0.0480894 -4.61275 0
M  V30 2877 H 280.974 -0.114618 -4.33649 0
M  V30 2878 H 281.645 1.12139 -5.40489 0
M  V30 2879 H 284.121 1.96039 -3.67026 0
M  V30 2880 H 282.997 2.96932 -4.61652 0
M  V30 2881 H 283.258 3.32309 -2.91588 0
M  V30 2882 N 282.317 1.53212 0.369288 0
M  V30 2883 C 283.227 1.82342 1.47609 0
M  V30 2884 C 284.243 0.711532 1.58787 0
M  V30 2885 O 285.419 1.0012 1.74751 0
M  V30 2886 C 282.484 2.00393 2.8292 0
M  V30 2887 C 281.545 3.24297 2.81301 0
M  V30 2888 C 280.778 3.41478 4.10157 0
M  V30 2889 O 281.001 2.63033 5.06132 0
M  V30 2890 O 279.935 4.34817 4.16194 0
M  V30 2891 H 283.761 2.76366 1.25918 0
M  V30 2892 H 281.346 1.38547 0.559034 0
M  V30 2893 H 283.228 2.13859 3.63101 0
M  V30 2894 H 281.903 1.09559 3.04596 0
M  V30 2895 H 280.81 3.16257 1.99831 0
M  V30 2896 H 282.143 4.15041 2.64578 0
M  V30 2897 N 283.795 -0.628877 1.44509 0
M  V30 2898 C 285.025 -1.41349 1.50678 0
M  V30 2899 C 285.433 -1.88745 0.131075 0
M  V30 2900 O 284.776 -1.61592 -0.87371 0
M  V30 2901 C 284.838 -2.66608 2.41165 0
M  V30 2902 C 284.502 -2.40993 3.88293 0
M  V30 2903 C 285.499 -2.0268 4.78766 0
M  V30 2904 C 283.184 -2.54563 4.33016 0
M  V30 2905 C 285.178 -1.78269 6.11963 0
M  V30 2906 C 282.865 -2.29766 5.6626 0
M  V30 2907 C 283.863 -1.91678 6.55552 0
M  V30 2908 O 283.551 -1.67158 7.86329 0
M  V30 2909 H 283.283 -0.439851 0.51333 0
M  V30 2910 H 285.837 -0.776084 1.90174 0
M  V30 2911 H 284.067 -3.32994 1.96601 0
M  V30 2912 H 285.756 -3.28615 2.38259 0
M  V30 2913 H 286.522 -1.91751 4.45485 0
M  V30 2914 H 282.401 -2.83179 3.63773 0
M  V30 2915 H 285.945 -1.48465 6.81619 0
M  V30 2916 H 281.842 -2.40306 5.99102 0
M  V30 2917 H 282.61 -1.81386 7.98149 0
M  V30 2918 N 285.273 -1.31445 -0.869486 0
M  V30 2919 C 286.684 -1.19042 -1.43826 0
M  V30 2920 C 287.035 0.202919 -1.95148 0
M  V30 2921 O 286.16 1.10071 -1.86315 0
M  V30 2922 C 286.755 -2.15499 -2.6143 0
M  V30 2923 C 285.314 -2.07028 -3.14351 0
M  V30 2924 C 284.461 -2.04701 -1.87063 0
M  V30 2925 H 287.412 -1.43489 -0.677984 0
M  V30 2926 H 287.433 -1.74488 -3.38134 0
M  V30 2927 H 286.945 -3.16899 -2.24046 0
M  V30 2928 H 285.046 -1.08825 -3.56354 0
M  V30 2929 H 285.159 -2.96157 -3.766 0
M  V30 2930 H 283.523 -1.49724 -2.06046 0
M  V30 2931 H 284.306 -3.07857 -1.51917 0
M  V30 2932 N 286.751 1.08385 -1.14413 0
M  V30 2933 C 287.991 1.8238 -0.922868 0
M  V30 2934 C 288.355 1.84225 0.540842 0
M  V30 2935 O 289.556 2.53985 0.880058 0
M  V30 2936 C 287.827 3.24048 -1.50757 0
M  V30 2937 S 289.386 4.14917 -1.4279 0
M  V30 2938 H 286.204 0.628524 -0.332384 0
M  V30 2939 H 288.806 1.30278 -1.45766 0
M  V30 2940 H 287.51 3.20288 -2.56601 0
M  V30 2941 H 287.041 3.81224 -0.971178 0
M  V30 2942 H 289.056 4.94473 -0.413582 0
M  V30 2943 N 288.23 0.939286 1.26551 0
M  V30 2944 C 289.478 0.58469 1.93457 0
M  V30 2945 C 289.799 -0.878774 1.74076 0
M  V30 2946 O 289.069 -1.62421 1.09528 0
M  V30 2947 H 287.649 0.21325 0.715914 0
M  V30 2948 H 290.311 1.1942 1.54029 0
M  V30 2949 H 289.407 0.800849 3.0165 0
M  V30 2950 N 289.708 -1.40897 0.706093 0
M  V30 2951 C 290.655 -2.30751 0.0474474 0
M  V30 2952 C 291.625 -1.47678 -0.76029 0
M  V30 2953 O 292.81 -1.76441 -0.726177 0
M  V30 2954 C 289.95 -3.33815 -0.875309 0
M  V30 2955 C 289.063 -4.31961 -0.0580623 0
M  V30 2956 C 288.198 -5.22093 -0.979425 0
M  V30 2957 C 287.237 -6.11902 -0.155706 0
M  V30 2958 N 286.374 -6.94482 -1.03144 0
M  V30 2959 H 291.214 -2.86513 0.819413 0
M  V30 2960 H 288.751 -1.41102 0.415783 0
M  V30 2961 H 290.709 -3.92129 -1.42446 0
M  V30 2962 H 289.339 -2.79579 -1.61356 0
M  V30 2963 H 288.391 -3.75507 0.608147 0
M  V30 2964 H 289.703 -4.95415 0.580082 0
M  V30 2965 H 288.857 -5.85292 -1.59744 0
M  V30 2966 H 287.596 -4.5889 -1.65141 0
M  V30 2967 H 286.601 -5.47742 0.475309 0
M  V30 2968 H 287.826 -6.77162 0.512635 0
M  V30 2969 H 285.772 -6.33877 -1.68924 0
M  V30 2970 H 285.689 -7.54665 -0.449108 0
M  V30 2971 H 286.957 -7.6214 -1.63593 0
M  V30 2972 N 291.186 -0.45159 -1.50991 0
M  V30 2973 C 292.435 0.111653 -2.01391 0
M  V30 2974 C 292.748 1.42529 -1.33959 0
M  V30 2975 O 293.954 2.07232 -1.75405 0
M  V30 2976 C 292.41 0.249514 -3.59034 0
M  V30 2977 C 292.018 -1.05453 -4.35412 0
M  V30 2978 C 293.762 0.765762 -4.17536 0
M  V30 2979 C 291.669 -0.881529 -5.84793 0
M  V30 2980 H 290.599 0.0455022 -0.752626 0
M  V30 2981 H 293.25 -0.583524 -1.73975 0
M  V30 2982 H 291.632 1.00803 -3.82955 0
M  V30 2983 H 292.806 -1.82248 -4.23229 0
M  V30 2984 H 291.121 -1.50039 -3.88429 0
M  V30 2985 H 293.718 0.911913 -5.26866 0
M  V30 2986 H 294.061 1.75201 -3.77638 0
M  V30 2987 H 294.594 0.0651744 -3.97747 0
M  V30 2988 H 291.333 -1.84057 -6.29129 0
M  V30 2989 H 290.853 -0.153625 -5.99603 0
M  V30 2990 H 292.532 -0.540363 -6.4474 0
M  V30 2991 N 292.664 1.56529 -0.183458 0
M  V30 2992 C 294.075 1.83739 0.331177 0
M  V30 2993 C 294.426 1.10373 1.62211 0
M  V30 2994 O 293.551 0.36071 2.13373 0
M  V30 2995 C 294.146 3.33306 0.607646 0
M  V30 2996 C 292.705 3.60969 1.06668 0
M  V30 2997 C 291.852 2.77086 0.109029 0
M  V30 2998 H 294.803 1.53379 -0.407484 0
M  V30 2999 H 294.824 3.51444 1.45832 0
M  V30 3000 H 294.336 3.86677 -0.332086 0
M  V30 3001 H 292.437 3.13021 2.0211 0
M  V30 3002 H 292.55 4.69231 0.967447 0
M  V30 3003 H 290.914 2.47319 0.608714 0
M  V30 3004 H 291.697 3.33241 -0.82494 0
M  V30 3005 N 294.142 -0.090211 1.57342 0
M  V30 3006 C 295.391 -0.791531 1.8552 0
M  V30 3007 C 295.704 -1.79659 0.773441 0
M  V30 3008 O 296.91 -2.54616 0.942497 0
M  V30 3009 C 295.366 -1.45856 3.2902 0
M  V30 3010 C 294.974 -0.493017 4.45279 0
M  V30 3011 C 296.718 -2.14332 3.66418 0
M  V30 3012 C 294.625 -1.16491 5.79814 0
M  V30 3013 H 293.555 -0.299356 0.692027 0
M  V30 3014 H 296.206 -0.0445343 1.83446 0
M  V30 3015 H 294.588 -2.25318 3.2565 0
M  V30 3016 H 295.762 0.270464 4.60006 0
M  V30 3017 H 294.077 0.0863061 4.16311 0
M  V30 3018 H 296.674 -2.65344 4.64216 0
M  V30 3019 H 297.017 -2.93447 2.95287 0
M  V30 3020 H 297.55 -1.41724 3.71698 0
M  V30 3021 H 294.289 -0.41447 6.54188 0
M  V30 3022 H 293.809 -1.8997 5.68921 0
M  V30 3023 H 295.488 -1.69001 6.24538 0
M  V30 3024 N 295.62 -1.53406 -0.361157 0
M  V30 3025 C 296.55 -1.83136 -1.44857 0
M  V30 3026 C 297.531 -0.685174 -1.5569 0
M  V30 3027 O 298.716 -0.93544 -1.70186 0
M  V30 3028 C 295.846 -2.02522 -2.82138 0
M  V30 3029 C 294.8 -3.18302 -2.86126 0
M  V30 3030 C 294.126 -3.22989 -4.26125 0
M  V30 3031 C 295.426 -4.56796 -2.53248 0
M  V30 3032 H 297.12 -2.74201 -1.20226 0
M  V30 3033 H 294.666 -1.31938 -0.576922 0
M  V30 3034 H 296.619 -2.21904 -3.58241 0
M  V30 3035 H 295.343 -1.08172 -3.08166 0
M  V30 3036 H 294.002 -2.98747 -2.12475 0
M  V30 3037 H 293.65 -2.26267 -4.49235 0
M  V30 3038 H 293.35 -4.00781 -4.29708 0
M  V30 3039 H 294.874 -3.44559 -5.04094 0
M  V30 3040 H 296.288 -4.7631 -3.19064 0
M  V30 3041 H 294.685 -5.36862 -2.68141 0
M  V30 3042 H 295.755 -4.61606 -1.48484 0
M  V30 3043 N 297.098 0.621204 -1.44841 0
M  V30 3044 C 298.008 1.7612 -1.5498 0
M  V30 3045 C 299.024 1.68477 -0.434927 0
M  V30 3046 O 300.2 1.89076 -0.693693 0
M  V30 3047 C 297.265 3.1254 -1.50065 0
M  V30 3048 C 296.326 3.31741 -2.72482 0
M  V30 3049 C 295.559 4.61653 -2.67792 0
M  V30 3050 O 295.782 5.431 -1.74352 0
M  V30 3051 O 294.716 4.83271 -3.58794 0
M  V30 3052 H 298.542 1.70518 -2.51311 0
M  V30 3053 H 296.127 0.783643 -1.27198 0
M  V30 3054 H 298.009 3.93844 -1.49882 0
M  V30 3055 H 296.684 3.18663 -0.568806 0
M  V30 3056 H 295.591 2.50077 -2.7823 0
M  V30 3057 H 296.924 3.30486 -3.64746 0
M  V30 3058 N 298.576 1.31904 0.862503 0
M  V30 3059 C 299.523 1.20182 1.9704 0
M  V30 3060 C 300.493 0.0858247 1.65878 0
M  V30 3061 O 301.678 0.26 1.8902 0
M  V30 3062 C 298.818 0.922797 3.32533 0
M  V30 3063 C 297.931 2.12284 3.76244 0
M  V30 3064 C 297.066 1.77996 5.00491 0
M  V30 3065 C 296.105 2.94366 5.36671 0
M  V30 3066 N 295.242 2.60223 6.52095 0
M  V30 3067 H 300.082 2.14951 2.06398 0
M  V30 3068 H 297.619 1.06917 1.01031 0
M  V30 3069 H 299.577 0.741548 4.10557 0
M  V30 3070 H 298.207 0.0119227 3.22798 0
M  V30 3071 H 297.259 2.41461 2.9394 0
M  V30 3072 H 298.571 2.99357 3.98982 0
M  V30 3073 H 297.725 1.56377 5.862 0
M  V30 3074 H 296.464 0.881252 4.79672 0
M  V30 3075 H 295.469 3.16625 4.49476 0
M  V30 3076 H 296.694 3.84957 5.59451 0
M  V30 3077 H 294.64 1.72884 6.32809 0
M  V30 3078 H 294.557 3.40827 6.74814 0
M  V30 3079 H 295.825 2.42016 7.40978 0
M  V30 3080 N 300.054 -1.07777 1.14986 0
M  V30 3081 C 301.47 -1.32373 0.891596 0
M  V30 3082 C 301.67 -1.9609 -0.463788 0
M  V30 3083 O 300.726 -2.21801 -1.20667 0
M  V30 3084 C 302.039 -2.21905 2.02925 0
M  V30 3085 C 303.587 -2.35367 2.06329 0
M  V30 3086 C 304.062 -3.28245 3.19405 0
M  V30 3087 N 305.553 -3.35824 3.19024 0
M  V30 3088 C 306.288 -4.07739 4.03158 0
M  V30 3089 N 305.784 -4.82306 4.97346 0
M  V30 3090 N 307.577 -4.03635 3.91197 0
M  V30 3091 H 299.728 -0.648039 2.02273 0
M  V30 3092 H 301.991 -0.348149 0.881757 0
M  V30 3093 H 301.697 -1.82342 3.0074 0
M  V30 3094 H 301.571 -3.22407 1.95789 0
M  V30 3095 H 303.958 -2.74186 1.09116 0
M  V30 3096 H 304.039 -1.34585 2.17533 0
M  V30 3097 H 303.683 -2.90146 4.16867 0
M  V30 3098 H 303.613 -4.28971 3.05437 0
M  V30 3099 H 306.104 -2.8267 2.50811 0
M  V30 3100 H 306.417 -5.34661 5.57994 0
M  V30 3101 H 304.762 -4.81337 5.01338 0
M  V30 3102 H 307.953 -3.44491 3.16928 0
M  V30 3103 H 308.126 -4.59417 4.5699 0
M  V30 3104 N 301.532 -0.945985 -1.26051 0
M  V30 3105 C 302.48 -0.450259 -2.282 0
M  V30 3106 C 303.474 0.47497 -1.62605 0
M  V30 3107 O 304.68 0.352653 -1.76512 0
M  V30 3108 H 301.055 -0.127081 -0.741184 0
M  V30 3109 H 303.026 -1.32422 -2.67408 0
M  V30 3110 C 301.775 0.26467 -3.46691 0
M  V30 3111 H 301.098 -0.438123 -3.97392 0
M  V30 3112 H 302.538 0.575678 -4.20074 0
M  V30 3113 C 300.997 1.48416 -3.02447 0
M  V30 3114 O 301.527 2.58227 -3.07704 0
M  V30 3115 N 299.733 1.34243 -2.57735 0
M  V30 3116 H 299.28 0.448994 -2.53657 0
M  V30 3117 H 299.238 2.15957 -2.28495 0
M  V30 3118 N 303.011 1.40521 -0.713556 0
M  V30 3119 C 303.974 2.29098 -0.0684347 0
M  V30 3120 C 304.974 1.45268 0.689472 0
M  V30 3121 O 306.164 1.66205 0.521677 0
M  V30 3122 C 303.296 3.28446 0.913024 0
M  V30 3123 H 304.489 2.87645 -0.84855 0
M  V30 3124 H 302.042 1.48809 -0.47809 0
M  V30 3125 H 302.777 2.74913 1.72027 0
M  V30 3126 H 302.562 3.90327 0.372472 0
M  V30 3127 H 304.052 3.94777 1.36165 0
M  V30 3128 N 304.489 0.459591 1.5075 0
M  V30 3129 C 305.714 -0.0996819 2.0716 0
M  V30 3130 C 306.139 -1.33761 1.32249 0
M  V30 3131 O 305.497 -1.77551 0.366786 0
M  V30 3132 C 305.545 -0.378226 3.58611 0
M  V30 3133 O 304.649 -1.46081 3.85661 0
M  V30 3134 H 303.99 0.00791392 0.663953 0
M  V30 3135 H 306.52 0.647329 1.9409 0
M  V30 3136 H 306.53 -0.622135 4.03229 0
M  V30 3137 H 305.205 0.526439 4.12555 0
M  V30 3138 H 303.782 -1.20511 3.5289 0
M  V30 3139 N 305.967 -1.56429 0.191757 0
M  V30 3140 C 306.914 -2.18936 -0.730454 0
M  V30 3141 C 307.884 -1.13557 -1.21219 0
M  V30 3142 O 309.069 -1.41794 -1.27668 0
M  V30 3143 C 306.209 -2.85013 -1.9458 0
M  V30 3144 C 305.322 -4.04909 -1.50574 0
M  V30 3145 C 304.457 -4.58853 -2.67634 0
M  V30 3146 C 303.496 -5.71114 -2.20217 0
M  V30 3147 N 302.633 -6.19478 -3.30442 0
M  V30 3148 H 307.473 -2.97389 -0.190664 0
M  V30 3149 H 305.01 -1.46869 -0.0823694 0
M  V30 3150 H 306.968 -3.21492 -2.65893 0
M  V30 3151 H 305.598 -2.09129 -2.45896 0
M  V30 3152 H 304.65 -3.74115 -0.688605 0
M  V30 3153 H 305.962 -4.86113 -1.11784 0
M  V30 3154 H 305.116 -4.97619 -3.47074 0
M  V30 3155 H 303.855 -3.76749 -3.09696 0
M  V30 3156 H 302.86 -5.31879 -1.3923 0
M  V30 3157 H 304.085 -6.55033 -1.79189 0
M  V30 3158 H 302.031 -5.40297 -3.72041 0
M  V30 3159 H 301.948 -6.95725 -2.9581 0
M  V30 3160 H 303.216 -6.62898 -4.10106 0
M  V30 3161 N 307.445 0.0818655 -1.57387 0
M  V30 3162 C 308.856 0.634871 -1.75574 0
M  V30 3163 C 309.207 1.78435 -0.815809 0
M  V30 3164 O 308.332 2.164 0.0025366 0
M  V30 3165 C 308.927 1.15845 -3.18379 0
M  V30 3166 C 307.486 1.65741 -3.37945 0
M  V30 3167 C 306.633 0.572549 -2.71325 0
M  V30 3168 H 309.584 -0.144268 -1.58043 0
M  V30 3169 H 309.605 2.02751 -3.21982 0
M  V30 3170 H 309.117 0.321631 -3.86765 0
M  V30 3171 H 307.218 2.51781 -2.74658 0
M  V30 3172 H 307.331 1.74129 -4.46336 0
M  V30 3173 H 305.695 1.01518 -2.33594 0
M  V30 3174 H 306.478 -0.253918 -3.4236 0
M  V30 3175 N 308.923 1.53595 0.353017 0
M  V30 3176 C 309.855 1.77219 1.45348 0
M  V30 3177 C 310.868 0.65324 1.49119 0
M  V30 3178 O 312.057 0.929775 1.52373 0
M  V30 3179 C 309.157 1.84841 2.84055 0
M  V30 3180 C 308.33 3.14649 3.03833 0
M  V30 3181 C 307.389 3.13351 4.22727 0
M  V30 3182 O 306.415 3.87107 4.17297 0
M  V30 3183 N 307.617 2.35052 5.30783 0
M  V30 3184 H 310.382 2.72178 1.25457 0
M  V30 3185 H 307.943 1.52528 0.542833 0
M  V30 3186 H 309.935 1.81435 3.61751 0
M  V30 3187 H 308.505 0.971114 2.97133 0
M  V30 3188 H 307.725 3.31256 2.13689 0
M  V30 3189 H 309.013 4.00411 3.13925 0
M  V30 3190 H 308.411 1.74663 5.38061 0
M  V30 3191 H 306.968 2.37453 6.07009 0
M  V30 3192 N 310.401 -0.613514 1.45168 0
M  V30 3193 C 311.649 -1.36997 1.48581 0
M  V30 3194 C 311.97 -1.94589 0.126545 0
M  V30 3195 O 311.24 -1.76816 -0.843372 0
M  V30 3196 H 309.82 -0.508558 0.547154 0
M  V30 3197 H 312.482 -0.720853 1.81079 0
M  V30 3198 H 311.578 -2.1924 2.22127 0
M  V30 3199 N 311.879 -1.3236 -0.855495 0
M  V30 3200 C 313.295 -1.11332 -1.14356 0
M  V30 3201 C 313.495 0.106751 -2.01217 0
M  V30 3202 O 312.551 0.791891 -2.39761 0
M  V30 3203 C 313.864 -2.39237 -1.82171 0
M  V30 3204 C 315.412 -2.44986 -1.9481 0
M  V30 3205 C 315.887 -3.7281 -2.66039 0
M  V30 3206 N 317.378 -3.73787 -2.73565 0
M  V30 3207 C 318.113 -4.69394 -3.29327 0
M  V30 3208 N 317.609 -5.75367 -3.85907 0
M  V30 3209 N 319.402 -4.56893 -3.27423 0
M  V30 3210 H 311.553 -2.10586 -0.277027 0
M  V30 3211 H 313.816 -0.929701 -0.185364 0
M  V30 3212 H 313.522 -3.28431 -1.25802 0
M  V30 3213 H 313.396 -2.50134 -2.82335 0
M  V30 3214 H 315.783 -1.56252 -2.50338 0
M  V30 3215 H 315.864 -2.38043 -0.936448 0
M  V30 3216 H 315.508 -4.61918 -2.11174 0
M  V30 3217 H 315.438 -3.77024 -3.67642 0
M  V30 3218 H 317.929 -2.97189 -2.33424 0
M  V30 3219 H 318.242 -6.44378 -4.26611 0
M  V30 3220 H 316.587 -5.79123 -3.84242 0
M  V30 3221 H 319.778 -3.73269 -2.82467 0
M  V30 3222 H 319.951 -5.31577 -3.7058 0
M  V30 3223 N 313.357 1.07166 -1.15556 0
M  V30 3224 C 314.606 1.79181 -0.926132 0
M  V30 3225 C 314.919 1.87768 0.547967 0
M  V30 3226 O 316.125 2.56323 0.895036 0
M  V30 3227 C 314.581 3.22 -1.60761 0
M  V30 3228 C 314.189 3.21607 -3.11886 0
M  V30 3229 C 315.933 3.9861 -1.4598 0
M  V30 3230 C 313.84 4.59092 -3.72812 0
M  V30 3231 H 312.77 0.67154 -0.342856 0
M  V30 3232 H 315.421 1.2027 -1.3859 0
M  V30 3233 H 313.803 3.81115 -1.07553 0
M  V30 3234 H 314.977 2.72127 -3.71865 0
M  V30 3235 H 313.292 2.58495 -3.2645 0
M  V30 3236 H 315.889 5.00225 -1.88888 0
M  V30 3237 H 316.232 4.143 -0.407541 0
M  V30 3238 H 316.765 3.45996 -1.96295 0
M  V30 3239 H 313.504 4.48606 -4.77946 0
M  V30 3240 H 313.024 5.08803 -3.17616 0
M  V30 3241 H 314.703 5.28059 -3.73848 0
M  V30 3242 N 314.835 0.952656 1.25548 0
M  V30 3243 C 316.081 0.607272 1.93494 0
M  V30 3244 C 316.414 -0.853245 1.74452 0
M  V30 3245 O 315.689 -1.61194 1.08843 0
M  V30 3246 C 315.972 0.96435 3.46947 0
M  V30 3247 C 315.825 2.48045 3.75225 0
M  V30 3248 C 317.144 0.487987 4.37386 0
M  V30 3249 H 314.263 0.222096 0.702739 0
M  V30 3250 H 316.905 1.18895 1.48203 0
M  V30 3251 H 315.055 0.469361 3.85654 0
M  V30 3252 H 316.727 3.04905 3.46166 0
M  V30 3253 H 314.97 2.919 3.209 0
M  V30 3254 H 315.641 2.6808 4.82532 0
M  V30 3255 H 318.117 0.912558 4.0597 0
M  V30 3256 H 316.993 0.766547 5.43521 0
M  V30 3257 H 317.254 -0.612063 4.37843 0
M  V30 3258 N 316.313 -1.40141 0.720998 0
M  V30 3259 C 317.561 -2.0039 0.262323 0
M  V30 3260 C 317.882 -1.57469 -1.15015 0
M  V30 3261 O 317.152 -0.816582 -1.78069 0
M  V30 3262 H 315.732 -0.741063 0.093996 0
M  V30 3263 H 318.394 -1.71398 0.927835 0
M  V30 3264 H 317.49 -3.10658 0.299671 0
M  V30 3265 N 317.792 -0.46758 -1.50504 0
M  V30 3266 C 319.04 0.0884469 -2.01906 0
M  V30 3267 C 319.361 1.40532 -1.35188 0
M  V30 3268 O 318.631 1.89515 -0.496079 0
M  V30 3269 H 317.211 0.0356765 -0.746148 0
M  V30 3270 H 319.873 -0.6172 -1.84869 0
M  V30 3271 H 318.969 0.2425 -3.11156 0
M  V30 3272 N 319.27 1.56325 -0.20005 0
M  V30 3273 C 320.217 2.1932 0.718833 0
M  V30 3274 C 321.187 1.14198 1.20615 0
M  V30 3275 O 322.372 1.42469 1.26914 0
M  V30 3276 C 319.512 2.86041 1.93066 0
M  V30 3277 C 318.625 4.05702 1.48425 0
M  V30 3278 C 317.76 4.60266 2.65196 0
M  V30 3279 C 316.799 5.72273 2.17185 0
M  V30 3280 N 315.936 6.21221 3.27152 0
M  V30 3281 H 320.776 2.97486 0.17489 0
M  V30 3282 H 318.313 1.46911 0.0745794 0
M  V30 3283 H 320.271 3.22897 2.64184 0
M  V30 3284 H 318.901 2.1043 2.44783 0
M  V30 3285 H 317.953 3.74475 0.668755 0
M  V30 3286 H 319.265 4.86699 1.09204 0
M  V30 3287 H 318.419 4.99453 3.4443 0
M  V30 3288 H 317.158 3.78386 3.07693 0
M  V30 3289 H 316.163 5.3261 1.36407 0
M  V30 3290 H 317.388 6.55974 1.75713 0
M  V30 3291 H 315.334 5.42263 3.69171 0
M  V30 3292 H 315.251 6.97284 2.92116 0
M  V30 3293 H 316.519 6.65063 4.06585 0
M  V30 3294 N 320.748 -0.0735177 1.57428 0
M  V30 3295 C 321.994 -0.774145 1.87443 0
M  V30 3296 C 322.327 -1.77311 0.792103 0
M  V30 3297 O 321.602 -1.93492 -0.197793 0
M  V30 3298 C 321.885 -1.48367 3.28115 0
M  V30 3299 C 321.738 -0.501227 4.46999 0
M  V30 3300 C 323.057 -2.429 3.66998 0
M  V30 3301 H 320.176 -0.279971 0.681752 0
M  V30 3302 H 322.818 -0.0373616 1.89963 0
M  V30 3303 H 320.968 -2.11171 3.26097 0
M  V30 3304 H 322.64 0.121468 4.6114 0
M  V30 3305 H 320.883 0.183593 4.33411 0
M  V30 3306 H 321.554 -1.03526 5.42205 0
M  V30 3307 H 324.03 -1.90175 3.70098 0
M  V30 3308 H 322.906 -2.89549 4.66318 0
M  V30 3309 H 323.167 -3.27628 2.96837 0
M  V30 3310 N 322.226 -1.5378 -0.344866 0
M  V30 3311 C 323.466 -1.72677 -1.09371 0
M  V30 3312 C 323.83 -0.479084 -1.85927 0
M  V30 3313 O 325.031 -0.54505 -2.63216 0
M  V30 3314 C 323.302 -2.95457 -2.01097 0
M  V30 3315 S 324.861 -3.35158 -2.83222 0
M  V30 3316 H 321.679 -0.607402 -0.369573 0
M  V30 3317 H 324.281 -1.91922 -0.372307 0
M  V30 3318 H 322.985 -3.84437 -1.43655 0
M  V30 3319 H 322.516 -2.78673 -2.77678 0
M  V30 3320 H 324.531 -2.88789 -4.03504 0
M  V30 3321 N 323.704 0.605807 -1.45491 0
M  V30 3322 C 325.115 1.18777 -1.44045 0
M  V30 3323 C 325.466 1.95471 -0.169001 0
M  V30 3324 O 324.591 2.0374 0.729324 0
M  V30 3325 C 325.186 2.16064 -2.60963 0
M  V30 3326 C 323.745 2.69633 -2.62631 0
M  V30 3327 C 322.892 1.45072 -2.36325 0
M  V30 3328 H 325.843 0.395017 -1.53705 0
M  V30 3329 H 325.864 2.9913 -2.35163 0
M  V30 3330 H 325.376 1.60217 -3.53486 0
M  V30 3331 H 323.477 3.29414 -1.74119 0
M  V30 3332 H 323.59 3.13944 -3.61906 0
M  V30 3333 H 321.954 1.74089 -1.85917 0
M  V30 3334 H 322.737 0.910899 -3.30995 0
M  V30 3335 N 325.182 1.32811 0.848464 0
M  V30 3336 C 326.129 1.22265 1.95755 0
M  V30 3337 C 327.099 0.103413 1.65778 0
M  V30 3338 O 328.284 0.280033 1.88734 0
M  V30 3339 C 325.424 0.958014 3.31536 0
M  V30 3340 C 324.537 2.16262 3.73971 0
M  V30 3341 C 323.672 1.83295 4.98575 0
M  V30 3342 C 322.711 3.00041 5.33518 0
M  V30 3343 N 321.848 2.67125 6.49299 0
M  V30 3344 H 326.688 2.17128 2.04107 0
M  V30 3345 H 324.225 1.07982 0.998913 0
M  V30 3346 H 326.183 0.785052 4.09747 0
M  V30 3347 H 324.813 0.046159 3.22767 0
M  V30 3348 H 323.865 2.44565 2.91362 0
M  V30 3349 H 325.177 3.03572 3.95785 0
M  V30 3350 H 324.331 1.62586 5.84509 0
M  V30 3351 H 323.07 0.932078 4.7871 0
M  V30 3352 H 322.075 3.21374 4.46093 0
M  V30 3353 H 323.3 3.90869 5.55336 0
M  V30 3354 H 321.246 1.79586 6.3094 0
M  V30 3355 H 321.163 3.47965 6.71161 0
M  V30 3356 H 322.431 2.49861 7.3837 0
M  V30 3357 N 326.66 -1.06551 1.16123 0
M  V30 3358 C 327.908 -1.78947 0.939267 0
M  V30 3359 C 328.229 -1.87532 -0.534476 0
M  V30 3360 O 327.499 -1.38211 -1.38833 0
M  V30 3361 H 326.079 -0.662807 0.344523 0
M  V30 3362 H 328.741 -1.28725 1.46342 0
M  V30 3363 H 327.837 -2.81117 1.35572 0
M  V30 3364 N 328.138 -0.959301 -1.25041 0
M  V30 3365 C 329.048 -0.489994 -2.29426 0
M  V30 3366 C 330.064 0.444944 -1.68215 0
M  V30 3367 O 331.24 0.320046 -1.98841 0
M  V30 3368 C 328.305 0.220309 -3.45999 0
M  V30 3369 C 327.366 -0.753418 -4.22637 0
M  V30 3370 C 326.599 -0.076918 -5.33645 0
M  V30 3371 O 326.822 1.13649 -5.58963 0
M  V30 3372 O 325.756 -0.764824 -5.97021 0
M  V30 3373 H 329.582 -1.35755 -2.71669 0
M  V30 3374 H 327.167 -0.725961 -1.30576 0
M  V30 3375 H 329.049 0.619677 -4.16819 0
M  V30 3376 H 327.724 1.06296 -3.0575 0
M  V30 3377 H 326.631 -1.20308 -3.54227 0
M  V30 3378 H 327.964 -1.56423 -4.66683 0
M  V30 3379 N 329.616 1.39756 -0.72842 0
M  V30 3380 C 330.856 2.025 -0.278078 0
M  V30 3381 C 331.22 1.5654 1.11173 0
M  V30 3382 O 332.421 2.11435 1.65978 0
M  V30 3383 C 330.692 3.55489 -0.369139 0
M  V30 3384 S 332.251 4.388 0.00232983 0
M  V30 3385 H 329.069 0.702534 -0.109391 0
M  V30 3386 H 331.671 1.70672 -0.95348 0
M  V30 3387 H 330.375 3.86429 -1.38204 0
M  V30 3388 H 329.906 3.92061 0.324308 0
M  V30 3389 H 331.921 4.80954 1.22055 0
M  V30 3390 N 331.094 0.475555 1.50254 0
M  V30 3391 C 332.505 0.0215174 1.86688 0
M  V30 3392 C 332.856 -1.38467 1.39001 0
M  V30 3393 O 331.981 -2.02732 0.756894 0
M  V30 3394 C 332.576 0.0322715 3.38785 0
M  V30 3395 C 331.135 -0.366314 3.74613 0
M  V30 3396 C 330.282 0.415832 2.74164 0
M  V30 3397 H 333.233 0.689612 1.42934 0
M  V30 3398 H 333.254 -0.76889 3.7265 0
M  V30 3399 H 332.766 1.05584 3.73462 0
M  V30 3400 H 330.867 -1.39406 3.45538 0
M  V30 3401 H 330.98 -0.064555 4.79057 0
M  V30 3402 H 329.344 -0.131048 2.54363 0
M  V30 3403 H 330.127 1.43899 3.11686 0
M  V30 3404 N 332.573 -1.56217 0.208337 0
M  V30 3405 C 333.819 -1.98998 -0.42086 0
M  V30 3406 C 334.174 -1.09331 -1.58317 0
M  V30 3407 O 333.467 -0.140466 -1.91084 0
M  V30 3408 C 333.661 -3.45441 -0.916797 0
M  V30 3409 C 333.49 -4.49273 0.195925 0
M  V30 3410 C 332.26 -5.00998 0.657956 0
M  V30 3411 C 334.458 -5.04294 1.00956 0
M  V30 3412 N 332.44 -5.88514 1.74712 0
M  V30 3413 C 333.811 -5.88607 1.94785 0
M  V30 3414 C 335.866 -4.86692 1.05049 0
M  V30 3415 C 334.569 -6.572 2.9237 0
M  V30 3416 C 336.595 -5.56034 2.01446 0
M  V30 3417 C 335.957 -6.40105 2.94016 0
M  V30 3418 H 332.056 -0.772574 -0.121048 0
M  V30 3419 H 334.64 -1.92101 0.317075 0
M  V30 3420 H 332.811 -3.52812 -1.62413 0
M  V30 3421 H 334.543 -3.75164 -1.51771 0
M  V30 3422 H 331.298 -4.72945 0.248912 0
M  V30 3423 H 331.722 -6.36975 2.2933 0
M  V30 3424 H 336.364 -4.21359 0.348759 0
M  V30 3425 H 334.082 -7.21723 3.63512 0
M  V30 3426 H 337.668 -5.44385 2.0527 0
M  V30 3427 H 336.548 -6.92816 3.6739 0
M  V30 3428 N 334.051 0.0651679 -1.57465 0
M  V30 3429 C 334.983 1.10359 -2.00882 0
M  V30 3430 C 335.996 1.346 -0.915788 0
M  V30 3431 O 337.185 1.32723 -1.1936 0
M  V30 3432 C 334.285 2.45312 -2.33828 0
M  V30 3433 C 333.458 2.40934 -3.65061 0
M  V30 3434 C 332.517 3.58047 -3.85602 0
M  V30 3435 O 331.543 3.39175 -4.57109 0
M  V30 3436 N 332.745 4.78637 -3.28462 0
M  V30 3437 H 335.51 0.733807 -2.90578 0
M  V30 3438 H 333.071 0.253719 -1.599 0
M  V30 3439 H 335.063 3.22314 -2.44737 0
M  V30 3440 H 333.633 2.74267 -1.49988 0
M  V30 3441 H 332.853 1.49273 -3.64844 0
M  V30 3442 H 334.141 2.35117 -4.51218 0
M  V30 3443 H 333.539 4.96872 -2.70433 0
M  V30 3444 H 332.096 5.53127 -3.44809 0
M  V30 3445 N 335.529 1.53961 0.336706 0
M  V30 3446 C 336.775 1.7179 1.07777 0
M  V30 3447 C 337.108 0.483263 1.88091 0
M  V30 3448 O 336.383 -0.519747 1.87427 0
M  V30 3449 C 336.666 2.98558 2.01334 0
M  V30 3450 C 336.519 4.32245 1.24437 0
M  V30 3451 C 337.838 3.21023 3.01052 0
M  V30 3452 H 334.957 0.625089 0.390426 0
M  V30 3453 H 337.599 1.86641 0.35567 0
M  V30 3454 H 335.749 2.86028 2.62908 0
M  V30 3455 H 337.421 4.56637 0.654243 0
M  V30 3456 H 335.664 4.30344 0.546458 0
M  V30 3457 H 336.335 5.17137 1.93063 0
M  V30 3458 H 338.811 3.32929 2.49595 0
M  V30 3459 H 337.687 4.11104 3.6371 0
M  V30 3460 H 337.948 2.37637 3.72802 0
M  V30 3461 N 337.007 -0.598083 1.45811 0
M  V30 3462 C 337.937 -1.71873 1.58057 0
M  V30 3463 C 338.918 -1.64533 0.431615 0
M  V30 3464 O 340.103 -1.82787 0.65595 0
M  V30 3465 C 337.233 -3.10495 1.55597 0
M  V30 3466 C 336.187 -3.32654 2.69305 0
M  V30 3467 C 335.513 -4.71646 2.51902 0
M  V30 3468 C 336.813 -3.21981 4.11248 0
M  V30 3469 H 338.507 -1.61881 2.51863 0
M  V30 3470 H 336.053 -0.777372 1.21214 0
M  V30 3471 H 338.006 -3.88699 1.6276 0
M  V30 3472 H 336.73 -3.2135 0.583255 0
M  V30 3473 H 335.389 -2.56843 2.61586 0
M  V30 3474 H 335.037 -4.79246 1.52748 0
M  V30 3475 H 334.737 -4.87426 3.2816 0
M  V30 3476 H 336.261 -5.52038 2.60933 0
M  V30 3477 H 337.675 -3.90049 4.20161 0
M  V30 3478 H 336.072 -3.49289 4.87972 0
M  V30 3479 H 337.142 -2.1928 4.32486 0
M  V30 3480 N 338.485 -1.33259 -0.841409 0
M  V30 3481 C 339.415 -1.25926 -1.96634 0
M  V30 3482 C 340.396 -0.140349 -1.6952 0
M  V30 3483 O 341.581 -0.329707 -1.91381 0
M  V30 3484 C 338.711 -0.99512 -3.32738 0
M  V30 3485 C 337.665 -2.0767 -3.74242 0
M  V30 3486 C 336.991 -1.66474 -5.08125 0
M  V30 3487 C 338.291 -3.49318 -3.88297 0
M  V30 3488 H 339.985 -2.20046 -2.03027 0
M  V30 3489 H 337.531 -1.05931 -0.975425 0
M  V30 3490 H 339.484 -0.930323 -4.11002 0
M  V30 3491 H 338.208 -0.0183004 -3.26595 0
M  V30 3492 H 336.867 -2.13187 -2.98239 0
M  V30 3493 H 336.515 -0.675012 -4.9845 0
M  V30 3494 H 336.215 -2.3885 -5.36865 0
M  V30 3495 H 337.739 -1.61455 -5.88867 0
M  V30 3496 H 339.153 -3.46316 -4.56879 0
M  V30 3497 H 337.55 -4.20158 -4.28471 0
M  V30 3498 H 338.62 -3.8801 -2.9082 0
M  V30 3499 N 339.963 1.05934 -1.16686 0
M  V30 3500 C 340.893 2.1546 -0.899949 0
M  V30 3501 C 341.874 1.69391 0.155154 0
M  V30 3502 O 343.059 1.94199 0.00648693 0
M  V30 3503 C 340.189 3.44939 -0.404241 0
M  V30 3504 C 339.143 4.04536 -1.39767 0
M  V30 3505 C 338.469 5.29268 -0.760216 0
M  V30 3506 C 339.769 4.42893 -2.76845 0
M  V30 3507 H 341.463 2.38046 -1.81588 0
M  V30 3508 H 339.009 1.14404 -0.874514 0
M  V30 3509 H 340.962 4.20901 -0.204971 0
M  V30 3510 H 339.686 3.21983 0.547206 0
M  V30 3511 H 338.345 3.30635 -1.58355 0
M  V30 3512 H 337.993 5.02611 0.197831 0
M  V30 3513 H 337.693 5.70101 -1.42332 0
M  V30 3514 H 339.217 6.07924 -0.57105 0
M  V30 3515 H 340.631 5.09921 -2.62019 0
M  V30 3516 H 339.028 4.94721 -3.39663 0
M  V30 3517 H 340.098 3.53584 -3.31823 0
M  V30 3518 N 341.441 0.965919 1.2453 0
M  V30 3519 C 342.687 0.62776 1.92839 0
M  V30 3520 C 343.02 -0.834694 1.75347 0
M  V30 3521 O 342.295 -1.60031 1.10546 0
M  V30 3522 C 342.578 1.00109 3.45905 0
M  V30 3523 C 342.431 2.52011 3.72573 0
M  V30 3524 C 343.75 0.53435 4.36844 0
M  V30 3525 H 340.869 0.229537 0.700344 0
M  V30 3526 H 343.511 1.2046 1.46933 0
M  V30 3527 H 341.661 0.510238 3.85135 0
M  V30 3528 H 343.333 3.08559 3.42912 0
M  V30 3529 H 341.576 2.95287 3.17786 0
M  V30 3530 H 342.247 2.73183 4.79661 0
M  V30 3531 H 344.723 0.955565 4.04979 0
M  V30 3532 H 343.599 0.824152 5.42678 0
M  V30 3533 H 343.86 -0.565589 4.38467 0
M  V30 3534 N 342.919 -1.39368 0.735821 0
M  V30 3535 C 343.867 -2.32443 0.0855131 0
M  V30 3536 C 344.861 -1.53104 -0.724954 0
M  V30 3537 O 346.067 -1.68762 -0.626047 0
M  V30 3538 H 342.442 -0.751948 0.00885257 0
M  V30 3539 H 344.413 -2.84916 0.886883 0
M  V30 3540 C 343.162 -3.38206 -0.806983 0
M  V30 3541 H 342.485 -3.99335 -0.19274 0
M  V30 3542 H 343.925 -4.05779 -1.2296 0
M  V30 3543 C 342.384 -2.75321 -1.94165 0
M  V30 3544 O 342.914 -2.63231 -3.03435 0
M  V30 3545 N 341.12 -2.33396 -1.73132 0
M  V30 3546 H 340.667 -2.4343 -0.842596 0
M  V30 3547 H 340.625 -1.91661 -2.49225 0
M  V30 3548 N 344.397 -0.483516 -1.5 0
M  V30 3549 C 345.645 0.067027 -2.01989 0
M  V30 3550 C 345.966 1.3909 -1.36671 0
M  V30 3551 O 345.236 1.88978 -0.516152 0
M  V30 3552 H 343.816 0.0277606 -0.746484 0
M  V30 3553 H 346.478 -0.636773 -1.84204 0
M  V30 3554 H 345.574 0.209484 -3.11396 0
M  V30 3555 N 345.875 1.56104 -0.216619 0
M  V30 3556 C 346.838 2.18819 0.681962 0
M  V30 3557 C 347.838 1.14866 1.12528 0
M  V30 3558 O 349.028 1.40128 1.03488 0
M  V30 3559 C 346.16 2.80756 1.93362 0
M  V30 3560 H 347.353 2.99595 0.135254 0
M  V30 3561 H 344.906 1.56265 0.0330003 0
M  V30 3562 H 345.641 2.03837 2.52232 0
M  V30 3563 H 345.426 3.56876 1.62426 0
M  V30 3564 H 346.916 3.28844 2.57393 0
M  V30 3565 N 347.353 -0.0568162 1.57498 0
M  V30 3566 C 348.285 -1.09292 2.01464 0
M  V30 3567 C 349.298 -1.34112 0.922913 0
M  V30 3568 O 350.487 -1.32089 1.20062 0
M  V30 3569 C 347.587 -2.44068 2.35125 0
M  V30 3570 C 346.76 -2.38995 3.66333 0
M  V30 3571 C 345.819 -3.55997 3.87495 0
M  V30 3572 O 344.845 -3.36746 4.58901 0
M  V30 3573 N 346.047 -4.76888 3.30996 0
M  V30 3574 H 348.812 -0.718386 2.90963 0
M  V30 3575 H 346.373 -0.245235 1.60032 0
M  V30 3576 H 348.365 -3.21011 2.46443 0
M  V30 3577 H 346.935 -2.73468 1.5144 0
M  V30 3578 H 346.155 -1.47336 3.65631 0
M  V30 3579 H 347.443 -2.3272 4.52458 0
M  V30 3580 H 346.841 -4.95431 2.73065 0
M  V30 3581 H 345.398 -5.51291 3.47738 0
M  V30 3582 N 348.832 -1.54138 -0.328536 0
M  V30 3583 C 349.762 -1.86167 -1.40939 0
M  V30 3584 C 350.743 -0.718044 -1.54202 0
M  V30 3585 O 351.928 -0.971328 -1.68163 0
M  V30 3586 C 349.058 -2.08461 -2.77779 0
M  V30 3587 C 348.012 -3.24299 -2.7931 0
M  V30 3588 C 347.338 -3.31955 -4.19178 0
M  V30 3589 C 348.638 -4.62065 -2.43502 0
M  V30 3590 H 350.332 -2.76689 -1.14383 0
M  V30 3591 H 347.878 -1.33132 -0.548806 0
M  V30 3592 H 349.831 -2.29453 -3.53454 0
M  V30 3593 H 348.555 -1.14684 -3.05802 0
M  V30 3594 H 347.214 -3.03187 -2.0609 0
M  V30 3595 H 346.862 -2.35745 -4.44335 0
M  V30 3596 H 346.562 -4.09805 -4.2111 0
M  V30 3597 H 348.086 -3.55175 -4.96672 0
M  V30 3598 H 349.5 -4.8297 -3.08889 0
M  V30 3599 H 347.897 -5.42429 -2.56693 0
M  V30 3600 H 348.967 -4.64652 -1.38659 0
M  V30 3601 N 350.31 0.590341 -1.46126 0
M  V30 3602 C 351.55 1.35995 -1.52593 0
M  V30 3603 C 351.914 1.91243 -0.170368 0
M  V30 3604 O 353.115 2.68576 -0.109775 0
M  V30 3605 C 351.386 2.46465 -2.58823 0
M  V30 3606 S 352.945 3.33953 -2.84641 0
M  V30 3607 H 349.763 0.463425 -0.53922 0
M  V30 3608 H 352.365 0.67944 -1.83314 0
M  V30 3609 H 351.069 2.04256 -3.5596 0
M  V30 3610 H 350.6 3.19297 -2.2981 0
M  V30 3611 H 352.615 4.45094 -2.19331 0
M  V30 3612 N 351.788 1.33704 0.83433 0
M  V30 3613 C 353.036 1.25169 1.58673 0
M  V30 3614 C 353.357 -0.18127 1.94156 0
M  V30 3615 O 352.627 -1.11113 1.6134 0
M  V30 3616 H 351.207 0.4603 0.58833 0
M  V30 3617 H 353.869 1.67478 0.996847 0
M  V30 3618 H 352.965 1.84856 2.51465 0
M  V30 3619 N 353.266 -1.05314 1.17247 0
M  V30 3620 C 354.514 -1.77941 0.958194 0
M  V30 3621 C 354.835 -1.88089 -0.514556 0
M  V30 3622 O 354.105 -1.39676 -1.37359 0
M  V30 3623 H 352.685 -0.659116 0.351533 0
M  V30 3624 H 355.347 -1.27166 1.47699 0
M  V30 3625 H 354.443 -2.79663 1.38546 0
M  V30 3626 N 354.744 -0.972509 -1.24016 0
M  V30 3627 C 355.972 -0.654803 -1.96265 0
M  V30 3628 C 356.387 0.776708 -1.72083 0
M  V30 3629 O 355.744 1.52171 -1.00748 0
M  V30 3630 C 355.795 -0.92592 -3.49441 0
M  V30 3631 O 355.516 -2.30116 -3.72798 0
M  V30 3632 C 357.017 -0.623068 -4.38899 0
M  V30 3633 H 354.237 -0.243907 -0.6251 0
M  V30 3634 H 356.781 -1.30175 -1.57717 0
M  V30 3635 H 354.936 -0.325108 -3.86033 0
M  V30 3636 H 355.35 -2.38483 -4.67147 0
M  V30 3637 H 356.824 -0.863189 -5.45209 0
M  V30 3638 H 357.301 0.442754 -4.36963 0
M  V30 3639 H 357.907 -1.204 -4.07902 0
M  V30 3640 N 356.222 1.38976 -0.743202 0
M  V30 3641 C 357.152 2.33171 -0.123873 0
M  V30 3642 C 358.133 1.54336 0.71516 0
M  V30 3643 O 359.318 1.82696 0.658467 0
M  V30 3644 C 356.448 3.38474 0.777978 0
M  V30 3645 C 355.402 4.27979 0.0424758 0
M  V30 3646 C 354.728 5.2405 1.06189 0
M  V30 3647 C 356.028 5.10155 -1.1198 0
M  V30 3648 H 357.722 2.85213 -0.910709 0
M  V30 3649 H 355.268 1.37133 -0.439388 0
M  V30 3650 H 357.221 4.03328 1.22084 0
M  V30 3651 H 355.945 2.84891 1.59702 0
M  V30 3652 H 354.604 3.64616 -0.380853 0
M  V30 3653 H 354.252 4.66758 1.87472 0
M  V30 3654 H 353.952 5.84785 0.574485 0
M  V30 3655 H 355.476 5.9178 1.50428 0
M  V30 3656 H 356.89 5.68307 -0.75499 0
M  V30 3657 H 355.287 5.80073 -1.53738 0
M  V30 3658 H 356.357 4.44504 -1.93764 0
M  V30 3659 N 357.7 0.491464 1.49741 0
M  V30 3660 C 358.949 -0.0582189 2.01616 0
M  V30 3661 C 359.262 -1.38927 1.3769 0
M  V30 3662 O 360.468 -2.02509 1.80838 0
M  V30 3663 C 358.924 -0.154235 3.59569 0
M  V30 3664 C 358.532 1.1696 4.32463 0
M  V30 3665 C 360.276 -0.65479 4.1942 0
M  V30 3666 C 358.183 1.03627 5.8225 0
M  V30 3667 H 357.113 -0.0255317 0.753568 0
M  V30 3668 H 359.764 0.629445 1.72367 0
M  V30 3669 H 358.146 -0.906138 3.85493 0
M  V30 3670 H 359.32 1.93405 4.18248 0
M  V30 3671 H 357.635 1.60285 3.84315 0
M  V30 3672 H 360.232 -0.771903 5.29099 0
M  V30 3673 H 360.575 -1.65127 3.8215 0
M  V30 3674 H 361.108 0.040304 3.9778 0
M  V30 3675 H 357.847 2.00672 6.24028 0
M  V30 3676 H 357.367 0.312546 5.98985 0
M  V30 3677 H 359.046 0.711114 6.4308 0
M  V30 3678 N 359.178 -1.55987 0.224894 0
M  V30 3679 C 360.126 -2.21808 -0.700283 0
M  V30 3680 C 361.12 -1.19854 -1.19714 0
M  V30 3681 O 362.326 -1.37925 -1.15658 0
M  V30 3682 H 358.701 -0.711226 -0.244258 0
M  V30 3683 H 360.672 -2.98152 -0.121749 0
M  V30 3684 C 359.421 -2.91444 -1.8962 0
M  V30 3685 H 358.744 -3.69655 -1.52299 0
M  V30 3686 H 360.184 -3.40894 -2.52125 0
M  V30 3687 C 358.643 -1.94098 -2.75368 0
M  V30 3688 O 359.173 -1.46004 -3.74227 0
M  V30 3689 N 357.379 -1.61675 -2.41474 0
M  V30 3690 H 356.926 -2.00979 -1.61137 0
M  V30 3691 H 356.884 -0.968036 -2.99126 0
M  V30 3692 N 360.656 0.0484629 -1.57525 0
M  V30 3693 C 361.884 0.755421 -1.92616 0
M  V30 3694 C 362.299 1.69919 -0.822984 0
M  V30 3695 O 361.656 1.81378 0.202085 0
M  V30 3696 C 361.707 1.52915 -3.27566 0
M  V30 3697 O 361.428 0.62329 -4.33644 0
M  V30 3698 C 362.929 2.33502 -3.76818 0
M  V30 3699 H 360.149 0.213465 -0.63614 0
M  V30 3700 H 362.693 0.0117698 -2.04497 0
M  V30 3701 H 360.848 2.22486 -3.17142 0
M  V30 3702 H 361.262 1.16383 -5.11425 0
M  V30 3703 H 362.736 2.83214 -4.73808 0
M  V30 3704 H 363.213 3.14068 -3.07014 0
M  V30 3705 H 363.819 1.69043 -3.90262 0
M  V30 3706 N 362.134 1.5431 0.320358 0
M  V30 3707 C 363.383 1.7188 1.05546 0
M  V30 3708 C 363.696 0.501143 1.89071 0
M  V30 3709 O 364.902 0.558258 2.65699 0
M  V30 3710 C 363.358 3.04025 1.92605 0
M  V30 3711 C 362.966 4.33207 1.14176 0
M  V30 3712 C 364.71 3.30959 2.65832 0
M  V30 3713 C 362.617 5.56412 2.00399 0
M  V30 3714 H 361.547 0.640547 0.397763 0
M  V30 3715 H 364.198 1.80802 0.313522 0
M  V30 3716 H 362.58 2.89019 2.7071 0
M  V30 3717 H 363.754 4.58989 0.40819 0
M  V30 3718 H 362.069 4.13062 0.526165 0
M  V30 3719 H 364.666 4.20203 3.30656 0
M  V30 3720 H 365.009 2.48979 3.33639 0
M  V30 3721 H 365.542 3.46847 1.94787 0
M  V30 3722 H 362.281 6.41004 1.37094 0
M  V30 3723 H 361.801 5.34844 2.7148 0
M  V30 3724 H 363.48 5.92938 2.58908 0
M  V30 3725 N 363.613 -0.582584 1.46437 0
M  V30 3726 C 364.859 -1.34064 1.52965 0
M  V30 3727 C 365.214 -1.91566 0.178968 0
M  V30 3728 O 364.507 -1.73526 -0.812365 0
M  V30 3729 C 364.701 -2.48964 2.56421 0
M  V30 3730 C 364.53 -2.02717 4.01417 0
M  V30 3731 C 363.3 -1.87728 4.69134 0
M  V30 3732 C 365.498 -1.58675 4.8921 0
M  V30 3733 N 363.48 -1.35554 5.98747 0
M  V30 3734 C 364.851 -1.18093 6.08649 0
M  V30 3735 C 366.906 -1.46494 4.75861 0
M  V30 3736 C 365.609 -0.665427 7.16215 0
M  V30 3737 C 367.635 -0.96347 5.83499 0
M  V30 3738 C 366.997 -0.567432 7.02111 0
M  V30 3739 H 363.096 -0.483551 0.614575 0
M  V30 3740 H 365.68 -0.663309 1.83053 0
M  V30 3741 H 363.851 -3.1426 2.28244 0
M  V30 3742 H 365.583 -3.15913 2.52944 0
M  V30 3743 H 362.338 -2.09678 4.24655 0
M  V30 3744 H 362.762 -1.11628 6.67734 0
M  V30 3745 H 367.404 -1.75731 3.8455 0
M  V30 3746 H 365.122 -0.360639 8.07295 0
M  V30 3747 H 368.708 -0.873129 5.75211 0
M  V30 3748 H 367.588 -0.185389 7.83981 0
M  V30 3749 N 365.091 -1.34144 -0.827227 0
M  V30 3750 C 366.337 -1.26446 -1.58554 0
M  V30 3751 C 366.67 0.1664 -1.93486 0
M  V30 3752 O 365.945 1.1107 -1.59667 0
M  V30 3753 C 366.228 -2.15111 -2.8879 0
M  V30 3754 C 366.081 -3.66712 -2.60465 0
M  V30 3755 C 367.4 -2.03311 -3.90324 0
M  V30 3756 H 364.519 -0.46067 -0.575284 0
M  V30 3757 H 367.161 -1.64356 -0.953269 0
M  V30 3758 H 365.311 -1.8291 -3.42748 0
M  V30 3759 H 366.983 -4.09259 -2.1285 0
M  V30 3760 H 365.226 -3.88014 -1.93978 0
M  V30 3761 H 365.897 -4.24112 -3.53317 0
M  V30 3762 H 368.373 -2.31574 -3.45706 0
M  V30 3763 H 367.249 -2.67582 -4.79261 0
M  V30 3764 H 367.51 -1.00879 -4.30437 0
M  V30 3765 N 366.569 1.04691 -1.17803 0
M  V30 3766 C 367.815 1.78045 -0.970969 0
M  V30 3767 C 368.148 1.87686 0.498751 0
M  V30 3768 O 367.423 1.38035 1.37027 0
M  V30 3769 C 367.706 3.2166 -1.61884 0
M  V30 3770 C 367.559 3.20001 -3.161 0
M  V30 3771 C 368.878 4.1962 -1.3269 0
M  V30 3772 H 365.997 0.64633 -0.354155 0
M  V30 3773 H 368.639 1.22333 -1.45378 0
M  V30 3774 H 366.789 3.69232 -1.20831 0
M  V30 3775 H 368.461 2.80467 -3.66246 0
M  V30 3776 H 366.704 2.58203 -3.48588 0
M  V30 3777 H 367.375 4.21386 -3.56564 0
M  V30 3778 H 369.851 3.80567 -1.68249 0
M  V30 3779 H 368.727 5.18339 -1.80599 0
M  V30 3780 H 368.988 4.414 -0.248622 0
M  V30 3781 N 368.047 0.979072 1.23499 0
M  V30 3782 C 369.272 0.664845 1.96455 0
M  V30 3783 C 369.697 -0.761287 1.72006 0
M  V30 3784 O 369.055 -1.51837 0.990713 0
M  V30 3785 C 369.103 0.959479 3.47601 0
M  V30 3786 O 368.207 0.0508168 4.12369 0
M  V30 3787 H 367.548 0.250185 0.615064 0
M  V30 3788 H 370.078 1.31231 1.5697 0
M  V30 3789 H 370.088 0.895642 3.98048 0
M  V30 3790 H 368.763 1.99876 3.64723 0
M  V30 3791 H 367.34 0.16895 3.72517 0
M  V30 3792 N 369.525 -1.3858 0.750561 0
M  V30 3793 C 370.488 -2.28836 0.129152 0
M  V30 3794 C 371.488 -1.47045 -0.650714 0
M  V30 3795 O 372.678 -1.6753 -0.477428 0
M  V30 3796 C 369.81 -3.30751 -0.825622 0
M  V30 3797 H 371.003 -2.85294 0.924516 0
M  V30 3798 H 368.556 -1.47489 0.517376 0
M  V30 3799 H 369.291 -2.79378 -1.64677 0
M  V30 3800 H 369.076 -3.91177 -0.268852 0
M  V30 3801 H 370.566 -3.98249 -1.2565 0
M  V30 3802 N 371.003 -0.499398 -1.49478 0
M  V30 3803 C 371.966 0.268838 -2.27618 0
M  V30 3804 C 372.966 0.895383 -1.33565 0
M  V30 3805 O 374.156 0.760164 -1.56739 0
M  V30 3806 C 371.288 1.38559 -3.11471 0
M  V30 3807 H 372.481 -0.416812 -2.96989 0
M  V30 3808 H 370.034 -0.254313 -1.54217 0
M  V30 3809 H 370.769 2.10544 -2.46661 0
M  V30 3810 H 370.554 0.941797 -3.80621 0
M  V30 3811 H 372.044 1.92678 -3.70493 0
M  V30 3812 N 372.481 1.55866 -0.233164 0
M  V30 3813 C 373.431 2.17442 0.685774 0
M  V30 3814 C 374.415 1.12617 1.14918 0
M  V30 3815 O 375.607 1.3857 1.10124 0
M  V30 3816 C 372.736 2.86685 1.88856 0
M  V30 3817 C 371.822 3.98749 1.4443 0
M  V30 3818 N 372.213 5.00744 0.713364 0
M  V30 3819 C 370.511 4.11052 1.73068 0
M  V30 3820 C 371.212 5.79673 0.485205 0
M  V30 3821 N 370.188 5.33454 1.04536 0
M  V30 3822 H 373.99 2.93659 0.119022 0
M  V30 3823 H 371.504 1.62362 -0.0348995 0
M  V30 3824 H 373.501 3.29218 2.55776 0
M  V30 3825 H 372.161 2.11967 2.45967 0
M  V30 3826 H 373.172 5.16613 0.364861 0
M  V30 3827 H 369.849 3.47495 2.31416 0
M  V30 3828 H 371.239 6.71829 -0.097365 0
M  V30 3829 N 373.959 -0.0401083 1.57549 0
M  V30 3830 C 375.199 -0.738098 1.90608 0
M  V30 3831 C 375.563 -1.73107 0.830539 0
M  V30 3832 O 376.764 -2.4765 1.04513 0
M  V30 3833 C 375.035 -1.39985 3.28845 0
M  V30 3834 S 376.594 -2.12852 3.83718 0
M  V30 3835 H 373.412 -0.24477 0.667539 0
M  V30 3836 H 376.014 0.00693599 1.95499 0
M  V30 3837 H 374.718 -0.663775 4.04997 0
M  V30 3838 H 374.249 -2.18366 3.2723 0
M  V30 3839 H 376.264 -3.39842 3.61555 0
M  V30 3840 N 375.437 -1.54477 -0.31217 0
M  V30 3841 C 376.684 -1.73227 -1.04875 0
M  V30 3842 C 377.012 -0.512042 -1.87639 0
M  V30 3843 O 376.267 0.506131 -1.89042 0
M  V30 3844 C 376.566 -2.967 -1.99258 0
M  V30 3845 C 376.232 -4.30974 -1.32559 0
M  V30 3846 C 374.894 -4.67477 -1.141 0
M  V30 3847 C 377.246 -5.14258 -0.847835 0
M  V30 3848 C 374.574 -5.84852 -0.465326 0
M  V30 3849 C 376.926 -6.32327 -0.185931 0
M  V30 3850 C 375.59 -6.67499 0.0107077 0
M  V30 3851 H 374.86 -0.633881 -0.383765 0
M  V30 3852 H 377.507 -1.88727 -0.324731 0
M  V30 3853 H 375.812 -2.75935 -2.7815 0
M  V30 3854 H 377.509 -3.08401 -2.563 0
M  V30 3855 H 374.099 -4.02262 -1.4793 0
M  V30 3856 H 378.283 -4.86565 -0.978192 0
M  V30 3857 H 373.539 -6.10654 -0.301883 0
M  V30 3858 H 377.713 -6.96135 0.192211 0
M  V30 3859 H 375.34 -7.58306 0.536287 0
M  V30 3860 N 376.915 0.57481 -1.46744 0
M  V30 3861 C 378.192 1.3352 -1.4294 0
M  V30 3862 C 378.572 2.10775 -0.117009 0
M  V30 3863 O 377.92 2.09966 0.901474 0
M  V30 3864 C 378.13 2.25456 -2.66403 0
M  V30 3865 C 379.478 2.87035 -3.12883 0
M  V30 3866 O 380.502 2.35766 -2.67007 0
M  V30 3867 O 379.361 3.80179 -3.92589 0
M  V30 3868 H 376.455 0.600318 -0.568812 0
M  V30 3869 H 379.001 0.595171 -1.58921 0
M  V30 3870 H 377.773 1.67851 -3.53471 0
M  V30 3871 H 377.396 3.06785 -2.52921 0
M  V30 3872 N 378.394 1.34581 0.820102 0
M  V30 3873 C 379.341 1.2639 1.93117 0
M  V30 3874 C 380.311 0.138554 1.65521 0
M  V30 3875 O 381.496 0.320004 1.88097 0
M  V30 3876 C 378.636 1.02812 3.29429 0
M  V30 3877 C 377.749 2.24146 3.693 0
M  V30 3878 C 376.884 1.93829 4.94574 0
M  V30 3879 C 375.923 3.1129 5.27034 0
M  V30 3880 N 375.06 2.80838 6.43486 0
M  V30 3881 H 379.9 2.21408 1.99455 0
M  V30 3882 H 377.437 1.10077 0.975784 0
M  V30 3883 H 379.395 0.871788 4.0799 0
M  V30 3884 H 378.025 0.114612 3.22596 0
M  V30 3885 H 377.077 2.50691 2.86109 0
M  V30 3886 H 378.389 3.11899 3.89257 0
M  V30 3887 H 377.543 1.74948 5.80929 0
M  V30 3888 H 376.282 1.03341 4.76626 0
M  V30 3889 H 375.287 3.30764 4.39175 0
M  V30 3890 H 376.512 4.02561 5.4692 0
M  V30 3891 H 374.458 1.92929 6.26988 0
M  V30 3892 H 374.375 3.62123 6.63629 0
M  V30 3893 H 375.643 2.65467 7.32903 0
M  V30 3894 N 379.872 -1.04064 1.18357 0
M  V30 3895 C 381.121 -1.76662 0.973313 0
M  V30 3896 C 381.434 -1.89154 -0.497991 0
M  V30 3897 O 382.64 -2.58606 -0.826762 0
M  V30 3898 C 381.096 -3.17624 1.69242 0
M  V30 3899 C 380.704 -3.13225 3.20303 0
M  V30 3900 C 382.448 -3.946 1.56497 0
M  V30 3901 C 380.355 -4.49046 3.84853 0
M  V30 3902 H 379.285 -0.662214 0.36054 0
M  V30 3903 H 381.936 -1.16553 1.41731 0
M  V30 3904 H 380.318 -3.78129 1.1762 0
M  V30 3905 H 381.492 -2.62172 3.78949 0
M  V30 3906 H 379.807 -2.49749 3.33189 0
M  V30 3907 H 382.404 -4.95042 2.02084 0
M  V30 3908 H 382.747 -4.13074 0.517243 0
M  V30 3909 H 383.28 -3.4067 2.05399 0
M  V30 3910 H 380.019 -4.35777 4.89672 0
M  V30 3911 H 379.539 -5.00203 3.30994 0
M  V30 3912 H 381.218 -5.17961 3.87718 0
M  V30 3913 N 381.35 -0.985608 -1.22978 0
M  V30 3914 C 382.297 -0.529825 -2.24636 0
M  V30 3915 C 383.267 0.434028 -1.60329 0
M  V30 3916 O 384.452 0.340414 -1.87739 0
M  V30 3917 C 381.592 0.156533 -3.44745 0
M  V30 3918 C 380.705 -0.848197 -4.23591 0
M  V30 3919 C 379.84 -0.136109 -5.31026 0
M  V30 3920 C 378.879 -1.1297 -6.01585 0
M  V30 3921 N 378.016 -0.446415 -7.00679 0
M  V30 3922 H 382.856 -1.40148 -2.62988 0
M  V30 3923 H 380.393 -0.702168 -1.29259 0
M  V30 3924 H 382.351 0.571324 -4.1327 0
M  V30 3925 H 380.981 0.992025 -3.07179 0
M  V30 3926 H 380.033 -1.38135 -3.54433 0
M  V30 3927 H 381.345 -1.60512 -4.72268 0
M  V30 3928 H 380.499 0.335784 -6.0577 0
M  V30 3929 H 379.238 0.653373 -4.83304 0
M  V30 3930 H 378.243 -1.6123 -5.25628 0
M  V30 3931 H 379.468 -1.91993 -6.51395 0
M  V30 3932 H 377.414 0.323763 -6.55201 0
M  V30 3933 H 377.331 -1.1419 -7.47326 0
M  V30 3934 H 378.599 0.00291697 -7.795 0
M  V30 3935 N 382.828 1.3818 -0.7579 0
M  V30 3936 C 383.776 2.32277 -0.122482 0
M  V30 3937 C 384.77 1.54238 0.700505 0
M  V30 3938 O 385.976 1.69737 0.599119 0
M  V30 3939 H 382.351 0.751712 -0.0208143 0
M  V30 3940 H 384.322 2.83469 -0.932099 0
M  V30 3941 C 383.071 3.39447 0.753076 0
M  V30 3942 H 382.394 3.99591 0.129184 0
M  V30 3943 H 383.834 4.07684 1.16489 0
M  V30 3944 C 382.293 2.78375 1.8976 0
M  V30 3945 O 382.823 2.68025 2.99208 0
M  V30 3946 N 381.029 2.36121 1.69397 0
M  V30 3947 H 380.576 2.4474 0.803762 0
M  V30 3948 H 380.534 1.95602 2.46145 0
M  V30 3949 N 384.306 0.507319 1.49211 0
M  V30 3950 C 385.552 -0.0269732 2.03382 0
M  V30 3951 C 385.907 -1.34111 1.37957 0
M  V30 3952 O 385.2 -1.84733 0.508351 0
M  V30 3953 C 385.394 -0.229513 3.56662 0
M  V30 3954 C 385.223 1.06344 4.36945 0
M  V30 3955 C 383.993 1.617 4.78729 0
M  V30 3956 C 386.191 1.96833 4.75143 0
M  V30 3957 N 384.173 2.8552 5.43463 0
M  V30 3958 C 385.544 3.0523 5.39661 0
M  V30 3959 C 387.599 1.97434 4.57082 0
M  V30 3960 C 386.302 4.14265 5.88028 0
M  V30 3961 C 388.328 3.05448 5.06414 0
M  V30 3962 C 387.69 4.12564 5.70938 0
M  V30 3963 H 383.789 0.0310673 0.781383 0
M  V30 3964 H 386.373 0.683579 1.82305 0
M  V30 3965 H 384.544 -0.909127 3.7761 0
M  V30 3966 H 386.276 -0.761377 3.97473 0
M  V30 3967 H 383.031 1.16132 4.59141 0
M  V30 3968 H 383.455 3.48499 5.80412 0
M  V30 3969 H 388.097 1.15924 4.06597 0
M  V30 3970 H 385.815 4.96569 6.3753 0
M  V30 3971 H 389.401 3.06941 4.94246 0
M  V30 3972 H 388.281 4.94767 6.0842 0
M  V30 3973 N 385.784 -1.5574 0.241426 0
M  V30 3974 C 387.2 -1.59196 -0.113548 0
M  V30 3975 C 387.4 -1.25852 -1.57364 0
M  V30 3976 O 386.456 -1.00322 -2.31715 0
M  V30 3977 C 387.769 -2.99814 0.230695 0
M  V30 3978 C 389.317 -3.12513 0.174547 0
M  V30 3979 C 389.792 -4.55342 0.492744 0
M  V30 3980 N 391.283 -4.61076 0.443043 0
M  V30 3981 C 392.018 -5.6956 0.662484 0
M  V30 3982 N 391.514 -6.86328 0.944761 0
M  V30 3983 N 393.307 -5.58957 0.593564 0
M  V30 3984 H 385.458 -1.75685 1.19368 0
M  V30 3985 H 387.721 -0.81756 0.479896 0
M  V30 3986 H 387.427 -3.28932 1.24485 0
M  V30 3987 H 387.301 -3.74568 -0.444833 0
M  V30 3988 H 389.688 -2.83179 -0.830277 0
M  V30 3989 H 389.769 -2.40045 0.883845 0
M  V30 3990 H 389.413 -4.85396 1.4951 0
M  V30 3991 H 389.343 -5.26062 -0.23797 0
M  V30 3992 H 391.834 -3.77179 0.233374 0
M  V30 3993 H 392.147 -7.64935 1.09977 0
M  V30 3994 H 390.492 -6.88025 0.982175 0
M  V30 3995 H 393.683 -4.66611 0.373123 0
M  V30 3996 H 393.856 -6.43433 0.767981 0
M  V30 3997 N 387.262 0.0317525 -1.57568 0
M  V30 3998 C 388.21 1.05165 -2.07468 0
M  V30 3999 C 389.204 1.3761 -0.98792 0
M  V30 4000 O 390.41 1.36546 -1.17282 0
M  V30 4001 H 386.785 0.35666 -0.66204 0
M  V30 4002 H 388.756 0.604958 -2.92203 0
M  V30 4003 C 387.505 2.34488 -2.56731 0
M  V30 4004 H 386.828 2.10383 -3.39969 0
M  V30 4005 H 388.268 3.04203 -2.95358 0
M  V30 4006 C 386.727 3.03266 -1.46736 0
M  V30 4007 O 387.257 3.92988 -0.832069 0
M  V30 4008 N 385.463 2.6455 -1.20256 0
M  V30 4009 H 385.01 1.91674 -1.72102 0
M  V30 4010 H 384.968 3.10886 -0.468737 0
M  V30 4011 N 388.74 1.54641 0.303973 0
M  V30 4012 C 389.67 1.88386 1.3796 0
M  V30 4013 C 390.651 0.742485 1.5304 0
M  V30 4014 O 391.836 0.997959 1.66597 0
M  V30 4015 C 388.966 2.12854 2.74427 0
M  V30 4016 C 387.92 3.28702 2.74115 0
M  V30 4017 C 387.246 3.38582 4.13844 0
M  V30 4018 C 388.546 4.65881 2.3612 0
M  V30 4019 H 390.24 2.78474 1.09966 0
M  V30 4020 H 387.786 1.33988 0.527556 0
M  V30 4021 H 389.739 2.35047 3.49758 0
M  V30 4022 H 388.463 1.19535 3.03939 0
M  V30 4023 H 387.122 3.06428 2.0124 0
M  V30 4024 H 386.77 2.42784 4.40528 0
M  V30 4025 H 386.47 4.16453 4.14537 0
M  V30 4026 H 387.994 3.63031 4.90959 0
M  V30 4027 H 389.408 4.87823 3.01167 0
M  V30 4028 H 387.805 5.46444 2.48031 0
M  V30 4029 H 388.875 4.66799 1.3125 0
M  V30 4030 N 390.218 -0.567019 1.47046 0
M  V30 4031 C 391.467 -1.32091 1.5243 0
M  V30 4032 C 391.78 -1.94704 0.187021 0
M  V30 4033 O 392.986 -2.7124 0.118771 0
M  V30 4034 C 391.442 -2.39479 2.68659 0
M  V30 4035 C 391.05 -1.831 4.08874 0
M  V30 4036 C 392.794 -3.16111 2.83327 0
M  V30 4037 C 390.701 -2.8821 5.16419 0
M  V30 4038 H 389.631 -0.496629 0.56734 0
M  V30 4039 H 392.282 -0.603354 1.73297 0
M  V30 4040 H 390.664 -3.14105 2.41152 0
M  V30 4041 H 391.838 -1.14913 4.46242 0
M  V30 4042 H 390.153 -1.19085 3.99008 0
M  V30 4043 H 392.75 -3.94585 3.60842 0
M  V30 4044 H 393.093 -3.69686 1.91411 0
M  V30 4045 H 393.626 -2.48595 3.10556 0
M  V30 4046 H 390.365 -2.39504 6.10179 0
M  V30 4047 H 389.885 -3.54839 4.8358 0
M  V30 4048 H 391.564 -3.51881 5.42945 0
M  V30 4049 N 391.696 -1.35014 -0.812953 0
M  V30 4050 C 392.659 -1.27292 -1.90602 0
M  V30 4051 C 393.659 -0.185817 -1.59723 0
M  V30 4052 O 394.849 -0.439102 -1.68575 0
M  V30 4053 C 391.981 -0.967676 -3.26877 0
M  V30 4054 H 393.174 -2.24479 -1.9887 0
M  V30 4055 H 390.727 -1.19446 -1.00808 0
M  V30 4056 H 391.462 0.0005954 -3.243 0
M  V30 4057 H 391.247 -1.75412 -3.50675 0
M  V30 4058 H 392.737 -0.939085 -4.06904 0
M  V30 4059 N 393.175 1.03435 -1.18907 0
M  V30 4060 C 394.421 1.77005 -0.989798 0
M  V30 4061 C 394.754 1.88205 0.478816 0
M  V30 4062 O 394.029 1.39481 1.35556 0
M  V30 4063 C 394.312 3.19925 -1.65287 0
M  V30 4064 C 394.165 3.1663 -3.19477 0
M  V30 4065 C 395.484 4.18189 -1.37134 0
M  V30 4066 H 392.603 0.642538 -0.360991 0
M  V30 4067 H 395.245 1.20784 -1.46667 0
M  V30 4068 H 393.395 3.67929 -1.24741 0
M  V30 4069 H 395.067 2.76567 -3.692 0
M  V30 4070 H 393.31 2.54491 -3.51307 0
M  V30 4071 H 393.981 4.1758 -3.61013 0
M  V30 4072 H 396.457 3.78761 -1.72276 0
M  V30 4073 H 395.333 5.16394 -1.86087 0
M  V30 4074 H 395.594 4.41112 -0.295424 0
M  V30 4075 N 394.653 0.992116 1.22453 0
M  V30 4076 C 395.583 0.561677 2.26644 0
M  V30 4077 C 396.564 -0.411055 1.65059 0
M  V30 4078 O 397.749 -0.301861 1.9184 0
M  V30 4079 C 394.879 -0.125247 3.47074 0
M  V30 4080 C 393.833 0.765948 4.21091 0
M  V30 4081 C 393.159 -0.0538484 5.34673 0
M  V30 4082 C 394.459 2.06242 4.79856 0
M  V30 4083 H 396.153 1.43259 2.62902 0
M  V30 4084 H 393.699 0.690283 1.26377 0
M  V30 4085 H 395.652 -0.437764 4.1912 0
M  V30 4086 H 394.376 -1.03069 3.0991 0
M  V30 4087 H 393.035 1.0621 3.50878 0
M  V30 4088 H 392.683 -0.960188 4.9375 0
M  V30 4089 H 392.383 0.539415 5.85119 0
M  V30 4090 H 393.907 -0.360477 6.09535 0
M  V30 4091 H 395.321 1.8139 5.43848 0
M  V30 4092 H 393.718 2.60444 5.40638 0
M  V30 4093 H 394.788 2.74167 3.99951 0
M  V30 4094 N 396.131 -1.37776 0.765217 0
M  V30 4095 C 397.379 -1.99454 0.325943 0
M  V30 4096 C 397.7 -1.61049 -1.09947 0
M  V30 4097 O 396.97 -0.872821 -1.75381 0
M  V30 4098 H 395.55 -0.737697 0.117525 0
M  V30 4099 H 398.212 -1.68359 0.981895 0
M  V30 4100 H 397.308 -3.09547 0.398353 0
M  V30 4101 N 397.609 -0.515225 -1.4894 0
M  V30 4102 C 398.519 0.259774 -2.33157 0
M  V30 4103 C 399.535 0.953501 -1.45548 0
M  V30 4104 O 400.711 0.931735 -1.78552 0
M  V30 4105 C 397.776 1.30193 -3.21326 0
M  V30 4106 C 396.837 0.620129 -4.24797 0
M  V30 4107 C 396.07 1.61263 -5.08753 0
M  V30 4108 O 396.293 2.84389 -4.94448 0
M  V30 4109 O 395.227 1.16013 -5.90614 0
M  V30 4110 H 399.053 -0.429932 -3.00641 0
M  V30 4111 H 396.638 -0.276346 -1.46822 0
M  V30 4112 H 398.52 1.90455 -3.75905 0
M  V30 4113 H 397.195 1.97431 -2.56521 0
M  V30 4114 H 396.102 -0.0226019 -3.74093 0
M  V30 4115 H 397.435 -0.0100493 -4.92199 0
M  V30 4116 N 399.087 1.5561 -0.249682 0
M  V30 4117 C 400.037 2.18157 0.662673 0
M  V30 4118 C 401.021 1.1383 1.13717 0
M  V30 4119 O 402.213 1.39731 1.08648 0
M  V30 4120 C 399.342 2.88672 1.85805 0
M  V30 4121 C 398.428 4.00258 1.40193 0
M  V30 4122 N 398.819 5.01473 0.660213 0
M  V30 4123 C 397.117 4.12864 1.68698 0
M  V30 4124 C 397.818 5.80155 0.423695 0
M  V30 4125 N 396.794 5.34533 0.988721 0
M  V30 4126 H 400.596 2.93769 0.0878688 0
M  V30 4127 H 398.11 1.62316 -0.0521183 0
M  V30 4128 H 400.107 3.31912 2.5227 0
M  V30 4129 H 398.767 2.14564 2.43705 0
M  V30 4130 H 399.778 5.16971 0.310047 0
M  V30 4131 H 396.455 3.4993 2.27717 0
M  V30 4132 H 397.845 6.71688 -0.168616 0
M  V30 4133 N 400.565 -0.0233959 1.57583 0
M  V30 4134 C 401.842 -0.748794 1.807 0
M  V30 4135 C 402.222 -1.9327 0.849106 0
M  V30 4136 O 401.57 -2.28247 -0.107468 0
M  V30 4137 C 401.78 -1.17651 3.28571 0
M  V30 4138 C 403.128 -1.59008 3.93702 0
M  V30 4139 O 404.152 -1.27094 3.32755 0
M  V30 4140 O 403.011 -2.18264 5.01022 0
M  V30 4141 H 400.105 -0.362578 0.743281 0
M  V30 4142 H 402.651 0.000261958 1.697 0
M  V30 4143 H 401.423 -0.331603 3.89892 0
M  V30 4144 H 401.046 -1.98541 3.44481 0
M  V30 4145 N 402.043 -1.548 -0.295768 0
M  V30 4146 C 402.973 -1.89115 -1.36959 0
M  V30 4147 C 403.954 -0.75059 -1.52644 0
M  V30 4148 O 405.139 -1.00678 -1.66065 0
M  V30 4149 C 402.269 -2.14307 -2.73295 0
M  V30 4150 C 401.223 -3.30151 -2.72368 0
M  V30 4151 C 400.549 -3.40772 -4.12042 0
M  V30 4152 C 401.849 -4.67126 -2.33646 0
M  V30 4153 H 403.543 -2.79053 -1.08488 0
M  V30 4154 H 401.089 -1.34266 -0.520443 0
M  V30 4155 H 403.042 -2.36898 -3.48507 0
M  V30 4156 H 401.766 -1.21145 -3.03301 0
M  V30 4157 H 400.425 -3.0749 -1.99613 0
M  V30 4158 H 400.073 -2.45117 -4.39234 0
M  V30 4159 H 399.773 -4.18645 -4.12322 0
M  V30 4160 H 401.297 -3.6563 -4.89027 0
M  V30 4161 H 402.711 -4.89414 -2.98575 0
M  V30 4162 H 401.108 -5.47751 -2.45129 0
M  V30 4163 H 402.178 -4.67489 -1.28772 0
M  V30 4164 N 403.521 0.559213 -1.47345 0
M  V30 4165 C 404.746 1.34676 -1.57725 0
M  V30 4166 C 405.171 1.86723 -0.227164 0
M  V30 4167 O 404.529 1.6286 0.796642 0
M  V30 4168 C 404.577 2.49399 -2.60447 0
M  V30 4169 O 403.681 3.51567 -2.15578 0
M  V30 4170 H 403.022 0.400115 -0.52991 0
M  V30 4171 H 405.552 0.676009 -1.93109 0
M  V30 4172 H 405.562 2.95996 -2.80803 0
M  V30 4173 H 404.237 2.10873 -3.58477 0
M  V30 4174 H 402.814 3.11289 -2.05313 0
M  V30 4175 N 404.999 1.35443 0.805782 0
M  V30 4176 C 405.909 1.30546 1.94923 0
M  V30 4177 C 406.925 0.210233 1.72725 0
M  V30 4178 O 408.101 0.43975 1.9654 0
M  V30 4179 C 405.166 1.07782 3.29521 0
M  V30 4180 C 404.227 2.26625 3.64609 0
M  V30 4181 C 403.46 2.04938 4.92784 0
M  V30 4182 O 403.683 1.01624 5.61274 0
M  V30 4183 O 402.617 2.9232 5.26149 0
M  V30 4184 H 406.443 2.26779 2.02002 0
M  V30 4185 H 404.028 1.15823 0.943682 0
M  V30 4186 H 405.91 0.969392 4.10098 0
M  V30 4187 H 404.585 0.146003 3.23371 0
M  V30 4188 H 403.492 2.43033 2.84404 0
M  V30 4189 H 404.825 3.18257 3.75464 0
M  V30 4190 N 406.477 -1.02803 1.19454 0
M  V30 4191 C 407.427 -2.0945 0.900827 0
M  V30 4192 C 408.411 -1.60335 -0.134715 0
M  V30 4193 O 409.603 -1.76857 0.0710924 0
M  V30 4194 C 406.732 -3.4044 0.442229 0
M  V30 4195 C 405.818 -3.96286 1.51056 0
M  V30 4196 N 406.209 -4.25785 2.73021 0
M  V30 4197 C 404.507 -4.24307 1.37404 0
M  V30 4198 C 405.208 -4.70654 3.41848 0
M  V30 4199 N 404.184 -4.72238 2.69243 0
M  V30 4200 H 407.986 -2.3015 1.82779 0
M  V30 4201 H 405.5 -1.20672 1.08683 0
M  V30 4202 H 407.497 -4.16354 0.21326 0
M  V30 4203 H 406.157 -3.21159 -0.478238 0
M  V30 4204 H 407.168 -4.15041 3.09776 0
M  V30 4205 H 403.845 -4.14285 0.517103 0
M  V30 4206 H 405.235 -5.02392 4.46152 0
M  V30 4207 N 407.956 -0.998596 -1.21925 0
M  V30 4208 C 409.233 -0.593401 -1.86382 0
M  V30 4209 C 409.613 0.92916 -1.89552 0
M  V30 4210 O 408.961 1.81347 -1.39017 0
M  V30 4211 C 409.171 -1.22039 -3.26967 0
M  V30 4212 C 410.519 -1.32449 -4.03413 0
M  V30 4213 O 411.543 -1.17522 -3.36254 0
M  V30 4214 O 410.402 -1.56395 -5.23644 0
M  V30 4215 H 407.496 -0.202385 -0.801854 0
M  V30 4216 H 410.042 -1.09484 -1.29659 0
M  V30 4217 H 408.814 -2.26158 -3.19325 0
M  V30 4218 H 408.437 -0.704906 -3.91301 0
M  V30 4219 N 409.434 1.37368 -0.772513 0
M  V30 4220 C 410.682 1.99279 -0.336516 0
M  V30 4221 C 411.003 1.6163 1.09091 0
M  V30 4222 O 410.273 0.882109 1.74916 0
M  V30 4223 H 408.853 0.737063 -0.121435 0
M  V30 4224 H 411.515 1.67836 -0.990809 0
M  V30 4225 H 410.611 3.09332 -0.414763 0
M  V30 4226 N 410.912 0.523116 1.48665 0
M  V30 4227 C 412.189 -0.0775449 1.95446 0
M  V30 4228 C 412.569 -1.5197 1.4652 0
M  V30 4229 O 411.917 -2.17876 0.688657 0
M  V30 4230 C 412.127 0.0326135 3.48985 0
M  V30 4231 C 413.475 -0.130141 4.24401 0
M  V30 4232 O 414.499 -0.0415142 3.56176 0
M  V30 4233 O 413.358 -0.31491 5.45592 0
M  V30 4234 H 410.452 -0.0831012 0.822814 0
M  V30 4235 H 412.998 0.587227 1.59216 0
M  V30 4236 H 411.77 1.03748 3.77296 0
M  V30 4237 H 411.393 -0.671317 3.91892 0
M  V30 4238 N 412.39 -1.55475 0.257931 0
M  V30 4239 C 413.3 -2.2549 -0.647425 0
M  V30 4240 C 414.316 -1.2748 -1.18427 0
M  V30 4241 O 415.492 -1.6038 -1.2182 0
M  V30 4242 C 412.557 -2.94916 -1.82278 0
M  V30 4243 C 411.618 -4.08363 -1.32432 0
M  V30 4244 C 410.851 -4.74469 -2.44366 0
M  V30 4245 O 411.074 -4.39701 -3.63344 0
M  V30 4246 O 410.008 -5.62763 -2.13497 0
M  V30 4247 H 413.834 -3.03593 -0.0807707 0
M  V30 4248 H 411.419 -1.49377 0.0259962 0
M  V30 4249 H 413.301 -3.38606 -2.50846 0
M  V30 4250 H 411.976 -2.19744 -2.37685 0
M  V30 4251 H 410.883 -3.69166 -0.605605 0
M  V30 4252 H 412.216 -4.85385 -0.816211 0
M  V30 4253 N 413.868 0.0150385 -1.57593 0
M  V30 4254 C 414.8 1.03912 -2.04291 0
M  V30 4255 C 415.813 1.31618 -0.958146 0
M  V30 4256 O 417.002 1.28859 -1.23522 0
M  V30 4257 C 414.102 2.37749 -2.41514 0
M  V30 4258 C 413.275 2.29198 -3.72541 0
M  V30 4259 C 412.334 3.45598 -3.96797 0
M  V30 4260 O 411.36 3.24461 -4.67668 0
M  V30 4261 N 412.562 4.67945 -3.43523 0
M  V30 4262 H 415.327 0.64099 -2.92765 0
M  V30 4263 H 412.888 0.20272 -1.60626 0
M  V30 4264 H 414.88 3.14364 -2.54867 0
M  V30 4265 H 413.45 2.69357 -1.58637 0
M  V30 4266 H 412.67 1.3759 -3.69408 0
M  V30 4267 H 413.958 2.20642 -4.5847 0
M  V30 4268 H 413.356 4.88017 -2.86104 0
M  V30 4269 H 411.913 5.41878 -3.62232 0
M  V30 4270 N 415.346 1.54954 0.287554 0
M  V30 4271 C 416.571 1.79209 1.04397 0
M  V30 4272 C 416.996 0.556431 1.79682 0
M  V30 4273 O 416.354 -0.493518 1.74454 0
M  V30 4274 C 416.402 3.00739 1.98969 0
M  V30 4275 O 415.506 2.74805 3.075 0
M  V30 4276 H 414.847 0.592755 0.299227 0
M  V30 4277 H 417.377 2.02068 0.320886 0
M  V30 4278 H 417.387 3.29077 2.4119 0
M  V30 4279 H 416.062 3.90329 1.43582 0
M  V30 4280 H 414.639 2.57523 2.69697 0
M  V30 4281 N 416.824 -0.551391 1.4764 0
M  V30 4282 C 418.24 -0.877887 1.33287 0
M  V30 4283 C 418.44 -1.98817 0.327721 0
M  V30 4284 O 417.496 -2.51171 -0.258695 0
M  V30 4285 C 418.809 -1.26563 2.72768 0
M  V30 4286 C 420.357 -1.37673 2.81097 0
M  V30 4287 C 420.832 -1.79799 4.21232 0
M  V30 4288 N 422.323 -1.8694 4.23802 0
M  V30 4289 C 423.058 -2.20876 5.29151 0
M  V30 4290 N 422.554 -2.53386 6.448 0
M  V30 4291 N 424.347 -2.217 5.16532 0
M  V30 4292 H 416.498 0.18153 2.11623 0
M  V30 4293 H 418.761 0.0185514 0.947818 0
M  V30 4294 H 418.467 -0.523591 3.47781 0
M  V30 4295 H 418.341 -2.22052 3.04915 0
M  V30 4296 H 420.728 -2.10956 2.06353 0
M  V30 4297 H 420.809 -0.40357 2.52596 0
M  V30 4298 H 420.453 -1.07083 4.96483 0
M  V30 4299 H 420.383 -2.78128 4.4716 0
M  V30 4300 H 422.874 -1.64179 3.40373 0
M  V30 4301 H 423.187 -2.78325 7.20941 0
M  V30 4302 H 421.532 -2.50953 6.48111 0
M  V30 4303 H 424.723 -1.95745 4.25207 0
M  V30 4304 H 424.896 -2.47818 5.98741 0
M  V30 4305 N 418.302 -1.35869 -0.798587 0
M  V30 4306 C 419.718 -1.16082 -1.09532 0
M  V30 4307 C 419.918 0.0213124 -2.01489 0
M  V30 4308 O 418.974 0.689488 -2.42904 0
M  V30 4309 C 420.287 -2.46748 -1.7186 0
M  V30 4310 C 421.835 -2.53028 -1.84244 0
M  V30 4311 C 422.31 -3.83758 -2.49988 0
M  V30 4312 N 423.801 -3.85053 -2.57465 0
M  V30 4313 C 424.536 -4.8294 -3.09122 0
M  V30 4314 N 424.032 -5.91217 -3.61157 0
M  V30 4315 N 425.825 -4.70369 -3.0775 0
M  V30 4316 H 417.976 -2.11571 -0.187461 0
M  V30 4317 H 420.239 -0.936726 -0.145765 0
M  V30 4318 H 419.945 -3.33471 -1.11759 0
M  V30 4319 H 419.819 -2.61883 -2.71472 0
M  V30 4320 H 422.206 -1.66729 -2.43486 0
M  V30 4321 H 422.287 -2.418 -0.834643 0
M  V30 4322 H 421.931 -4.70459 -1.91393 0
M  V30 4323 H 421.861 -3.92278 -3.5132 0
M  V30 4324 H 424.352 -3.06822 -2.20609 0
M  V30 4325 H 424.665 -6.61892 -3.98896 0
M  V30 4326 H 423.01 -5.94899 -3.59333 0
M  V30 4327 H 426.201 -3.84914 -2.66381 0
M  V30 4328 H 426.374 -5.46816 -3.47701 0
M  V30 4329 N 419.78 1.02168 -1.19998 0
M  V30 4330 C 421.026 1.75945 -1.00852 0
M  V30 4331 C 421.359 1.88702 0.458828 0
M  V30 4332 O 420.634 1.40911 1.34069 0
M  V30 4333 C 420.917 3.18154 -1.68671 0
M  V30 4334 C 420.77 3.13224 -3.22817 0
M  V30 4335 C 422.089 4.16711 -1.41561 0
M  V30 4336 H 419.208 0.638673 -0.367785 0
M  V30 4337 H 421.85 1.19222 -1.4794 0
M  V30 4338 H 420 3.66586 -1.28636 0
M  V30 4339 H 421.672 2.72635 -3.72112 0
M  V30 4340 H 419.915 2.50751 -3.53986 0
M  V30 4341 H 420.586 4.13728 -3.65422 0
M  V30 4342 H 423.062 3.76913 -1.76284 0
M  V30 4343 H 421.938 5.14391 -1.91553 0
M  V30 4344 H 422.199 4.40774 -0.342193 0
M  V30 4345 N 421.258 1.00505 1.21394 0
M  V30 4346 C 422.221 0.570459 2.21987 0
M  V30 4347 C 423.221 -0.353211 1.56873 0
M  V30 4348 O 424.411 -0.14349 1.73608 0
M  V30 4349 C 421.543 -0.168555 3.40483 0
M  V30 4350 H 422.736 1.46021 2.6195 0
M  V30 4351 H 420.289 0.793565 1.34656 0
M  V30 4352 H 421.024 -1.07374 3.06009 0
M  V30 4353 H 420.809 0.494823 3.88965 0
M  V30 4354 H 422.299 -0.460362 4.15055 0
M  V30 4355 N 422.737 -1.36956 0.779787 0
M  V30 4356 C 423.669 -2.28833 0.129639 0
M  V30 4357 C 424.682 -1.4902 -0.655511 0
M  V30 4358 O 425.871 -1.71578 -0.492279 0
M  V30 4359 C 422.971 -3.2833 -0.839792 0
M  V30 4360 C 422.144 -4.3727 -0.10675 0
M  V30 4361 C 421.203 -5.16789 -0.990717 0
M  V30 4362 O 420.229 -5.67406 -0.451516 0
M  V30 4363 N 421.431 -5.32294 -2.3161 0
M  V30 4364 H 424.196 -2.85268 0.918803 0
M  V30 4365 H 421.757 -1.49019 0.632841 0
M  V30 4366 H 423.749 -3.78413 -1.43477 0
M  V30 4367 H 422.319 -2.72605 -1.52988 0
M  V30 4368 H 421.539 -3.88478 0.669216 0
M  V30 4369 H 422.827 -5.07229 0.399464 0
M  V30 4370 H 422.225 -4.92768 -2.77843 0
M  V30 4371 H 420.782 -5.85656 -2.86095 0
M  V30 4372 N 424.215 -0.530993 -1.48385 0
M  V30 4373 C 425.461 0.00274135 -2.028 0
M  V30 4374 C 425.794 1.33838 -1.40716 0
M  V30 4375 O 425.069 1.86465 -0.553277 0
M  V30 4376 C 425.352 0.123676 -3.59888 0
M  V30 4377 C 425.205 -1.2372 -4.3245 0
M  V30 4378 C 426.524 0.849967 -4.31814 0
M  V30 4379 H 423.643 -0.000477758 -0.737 0
M  V30 4380 H 426.285 -0.688217 -1.77098 0
M  V30 4381 H 424.435 0.712157 -3.81917 0
M  V30 4382 H 426.107 -1.86687 -4.21836 0
M  V30 4383 H 424.35 -1.81882 -3.93829 0
M  V30 4384 H 425.021 -1.10557 -5.40815 0
M  V30 4385 H 427.497 0.350572 -4.14621 0
M  V30 4386 H 426.373 0.903486 -5.41413 0
M  V30 4387 H 426.634 1.90047 -3.99167 0
M  V30 4388 N 425.693 1.55336 -0.266172 0
M  V30 4389 C 426.942 1.98574 0.353749 0
M  V30 4390 C 427.255 1.15789 1.57646 0
M  V30 4391 O 428.461 1.49129 2.26876 0
M  V30 4392 C 426.917 3.53403 0.680747 0
M  V30 4393 C 426.525 4.44953 -0.52165 0
M  V30 4394 C 428.269 4.05251 1.26379 0
M  V30 4395 C 426.176 5.91156 -0.169736 0
M  V30 4396 H 425.106 0.741643 0.135949 0
M  V30 4397 H 427.757 1.79743 -0.369421 0
M  V30 4398 H 426.139 3.68001 1.46257 0
M  V30 4399 H 427.313 4.42121 -1.29869 0
M  V30 4400 H 425.628 4.03691 -1.02093 0
M  V30 4401 H 428.225 5.12021 1.54074 0
M  V30 4402 H 428.568 3.53749 2.19471 0
M  V30 4403 H 429.101 3.94057 0.544447 0
M  V30 4404 H 425.84 6.46736 -1.0683 0
M  V30 4405 H 425.36 5.97079 0.570717 0
M  V30 4406 H 427.039 6.4655 0.241245 0
M  V30 4407 N 427.171 -0.0066808 1.57599 0
M  V30 4408 C 428.42 -0.692078 1.89455 0
M  V30 4409 C 428.733 -1.75306 0.867586 0
M  V30 4410 O 429.939 -2.49262 1.07614 0
M  V30 4411 C 428.395 -1.2821 3.36289 0
M  V30 4412 C 428.003 -0.256291 4.47266 0
M  V30 4413 C 429.747 -1.94608 3.77264 0
M  V30 4414 C 427.654 -0.855927 5.85173 0
M  V30 4415 H 426.584 -0.262252 0.706923 0
M  V30 4416 H 429.235 0.052769 1.83424 0
M  V30 4417 H 427.617 -2.0774 3.37135 0
M  V30 4418 H 428.791 0.513923 4.57925 0
M  V30 4419 H 427.106 0.306862 4.15268 0
M  V30 4420 H 429.703 -2.40364 4.77629 0
M  V30 4421 H 430.046 -2.77382 3.10427 0
M  V30 4422 H 430.579 -1.21822 3.78688 0
M  V30 4423 H 427.318 -0.0671161 6.55466 0
M  V30 4424 H 426.838 -1.59546 5.78191 0
M  V30 4425 H 428.517 -1.35658 6.32618 0
M  V30 4426 N 428.649 -1.55105 -0.279332 0
M  V30 4427 C 430.06 -1.66186 -0.850832 0
M  V30 4428 C 430.411 -0.584707 -1.87285 0
M  V30 4429 O 429.536 0.274919 -2.14647 0
M  V30 4430 C 430.131 -3.01264 -1.55001 0
M  V30 4431 C 428.69 -3.14394 -2.06963 0
M  V30 4432 C 427.837 -2.61959 -0.909536 0
M  V30 4433 H 430.788 -1.58602 -0.0558235 0
M  V30 4434 H 430.809 -2.93899 -2.41669 0
M  V30 4435 H 430.321 -3.7964 -0.805931 0
M  V30 4436 H 428.422 -2.4078 -2.84352 0
M  V30 4437 H 428.535 -4.20867 -2.28928 0
M  V30 4438 H 426.899 -2.18957 -1.30116 0
M  V30 4439 H 427.682 -3.42833 -0.179062 0
M  V30 4440 N 430.127 0.543554 -1.4793 0
M  V30 4441 C 431.352 1.32995 -1.59145 0
M  V30 4442 C 431.777 1.86472 -0.246956 0
M  V30 4443 O 431.135 1.63696 0.779324 0
M  V30 4444 C 431.183 2.46623 -2.63077 0
M  V30 4445 O 430.287 3.49261 -2.19295 0
M  V30 4446 H 429.628 0.394472 -0.534124 0
M  V30 4447 H 432.158 0.655489 -1.93816 0
M  V30 4448 H 432.168 2.93001 -2.83926 0
M  V30 4449 H 430.843 2.07059 -3.60693 0
M  V30 4450 H 429.42 3.09094 -2.08603 0
M  V30 4451 N 431.605 1.3629 0.791371 0
M  V30 4452 C 432.833 1.33562 1.58016 0
M  V30 4453 C 433.248 -0.0835616 1.88615 0
M  V30 4454 O 432.605 -1.0399 1.49974 0
M  V30 4455 C 432.656 2.15517 2.90232 0
M  V30 4456 O 432.377 3.51902 2.60953 0
M  V30 4457 C 433.878 2.20546 3.84544 0
M  V30 4458 H 431.098 0.458226 0.490173 0
M  V30 4459 H 433.642 1.79361 0.982345 0
M  V30 4460 H 431.797 1.73278 3.46487 0
M  V30 4461 H 432.211 3.94644 3.4548 0
M  V30 4462 H 433.685 2.82252 4.74382 0
M  V30 4463 H 434.162 1.20838 4.2225 0
M  V30 4464 H 434.768 2.63013 3.34222 0
M  V30 4465 N 433.083 -1.0153 1.20538 0
M  V30 4466 C 434.313 -1.78487 1.04048 0
M  V30 4467 C 434.721 -1.84631 -0.413292 0
M  V30 4468 O 434.064 -1.29919 -1.29872 0
M  V30 4469 C 434.126 -3.24367 1.55003 0
M  V30 4470 C 433.79 -3.41827 3.0332 0
M  V30 4471 C 434.787 -3.30941 4.00966 0
M  V30 4472 C 432.472 -3.67602 3.42307 0
M  V30 4473 C 434.466 -3.45577 5.35589 0
M  V30 4474 C 432.153 -3.81881 4.77085 0
M  V30 4475 C 433.151 -3.70874 5.73534 0
M  V30 4476 O 432.839 -3.84714 7.05868 0
M  V30 4477 H 432.571 -0.568108 0.366373 0
M  V30 4478 H 435.125 -1.28677 1.60098 0
M  V30 4479 H 433.355 -3.75266 0.933397 0
M  V30 4480 H 435.044 -3.82963 1.34514 0
M  V30 4481 H 435.81 -3.10964 3.72191 0
M  V30 4482 H 431.689 -3.75256 2.67776 0
M  V30 4483 H 435.233 -3.36902 6.10854 0
M  V30 4484 H 431.13 -4.01359 5.0555 0
M  V30 4485 H 431.898 -4.01724 7.13134 0
M  V30 4486 N 434.561 -1.01147 -1.20859 0
M  V30 4487 C 435.807 -0.698899 -1.90377 0
M  V30 4488 C 436.14 0.76904 -1.78324 0
M  V30 4489 O 435.415 1.55817 -1.16409 0
M  V30 4490 C 435.698 -1.12878 -3.41951 0
M  V30 4491 C 435.551 -2.65665 -3.62963 0
M  V30 4492 C 436.87 -0.696114 -4.3456 0
M  V30 4493 H 433.989 -0.255372 -0.691342 0
M  V30 4494 H 436.631 -1.25831 -1.42361 0
M  V30 4495 H 434.781 -0.652827 -3.82976 0
M  V30 4496 H 436.453 -3.21074 -3.31224 0
M  V30 4497 H 434.696 -3.06878 -3.06608 0
M  V30 4498 H 435.367 -2.90797 -4.69192 0
M  V30 4499 H 437.843 -1.10521 -4.01154 0
M  V30 4500 H 436.719 -1.025 -5.39245 0
M  V30 4501 H 436.98 0.402465 -4.40264 0
M  V30 4502 N 436.039 1.36541 -0.78704 0
M  V30 4503 C 437.45 1.81873 -0.421807 0
M  V30 4504 C 437.801 1.65487 1.05397 0
M  V30 4505 O 436.926 1.17448 1.81755 0
M  V30 4506 C 437.521 3.30192 -0.758841 0
M  V30 4507 C 436.08 3.73743 -0.446468 0
M  V30 4508 C 435.227 2.58844 -0.994728 0
M  V30 4509 H 438.178 1.24796 -0.98039 0
M  V30 4510 H 438.199 3.80468 -0.0490648 0
M  V30 4511 H 437.711 3.42087 -1.83299 0
M  V30 4512 H 435.812 3.6741 0.619739 0
M  V30 4513 H 435.925 4.69272 -0.965415 0
M  V30 4514 H 434.289 2.51245 -0.418087 0
M  V30 4515 H 435.072 2.73525 -2.07458 0
M  V30 4516 N 437.518 0.538854 1.48102 0
M  V30 4517 C 438.766 0.00798599 2.02098 0
M  V30 4518 C 439.087 -1.33922 1.41739 0
M  V30 4519 O 438.357 -1.86932 0.585934 0
M  V30 4520 H 436.937 -3.62179e-05 0.747 0
M  V30 4521 H 439.599 0.7047 1.81714 0
M  V30 4522 H 438.695 -0.0937672 3.11959 0
M  V30 4523 N 438.996 -1.55193 0.274407 0
M  V30 4524 C 440.224 -2.03987 -0.345943 0
M  V30 4525 C 440.639 -1.15279 -1.4952 0
M  V30 4526 O 439.996 -0.172759 -1.8168 0
M  V30 4527 C 440.047 -3.51898 -0.827631 0
M  V30 4528 O 439.768 -4.37231 0.275855 0
M  V30 4529 C 441.269 -4.16577 -1.51587 0
M  V30 4530 H 438.489 -0.666335 -0.0789892 0
M  V30 4531 H 441.033 -2.00423 0.406294 0
M  V30 4532 H 439.188 -3.55909 -1.52996 0
M  V30 4533 H 439.602 -5.24415 -0.0943638 0
M  V30 4534 H 441.076 -5.21678 -1.80433 0
M  V30 4535 H 441.553 -3.64707 -2.44716 0
M  V30 4536 H 442.159 -4.16568 -0.857409 0
M  V30 4537 N 440.474 -0.00167713 -1.576 0
M  V30 4538 C 441.702 0.693759 -1.94922 0
M  V30 4539 C 442.117 1.67215 -0.876626 0
M  V30 4540 O 441.474 1.81929 0.144279 0
M  V30 4541 C 441.525 1.42416 -3.32265 0
M  V30 4542 O 441.246 0.485014 -4.35407 0
M  V30 4543 C 442.747 2.21395 -3.84056 0
M  V30 4544 H 439.967 0.193118 -0.642609 0
M  V30 4545 H 442.511 -0.0532952 -2.04431 0
M  V30 4546 H 440.666 2.12284 -3.24059 0
M  V30 4547 H 441.08 1.00053 -5.14868 0
M  V30 4548 H 442.554 2.67996 -4.82578 0
M  V30 4549 H 443.031 3.04142 -3.16851 0
M  V30 4550 H 443.637 1.56542 -3.95443 0
M  V30 4551 N 441.952 1.55251 0.271103 0
M  V30 4552 C 442.9 1.89054 1.35504 0
M  V30 4553 C 443.894 0.767064 1.51038 0
M  V30 4554 O 445.1 0.951429 1.528 0
M  V30 4555 H 441.475 0.600072 0.45323 0
M  V30 4556 H 443.446 2.79598 1.04247 0
M  V30 4557 C 442.195 2.18068 2.70817 0
M  V30 4558 H 441.518 3.04005 2.59656 0
M  V30 4559 H 442.958 2.4564 3.45597 0
M  V30 4560 C 441.417 0.988901 3.2206 0
M  V30 4561 O 441.947 0.224501 4.01072 0
M  V30 4562 N 440.153 0.786085 2.79766 0
M  V30 4563 H 439.7 1.40937 2.15626 0
M  V30 4564 H 439.658 -0.00969349 3.14399 0
M  V30 4565 N 443.43 -0.535701 1.48216 0
M  V30 4566 C 444.38 -1.63688 1.58714 0
M  V30 4567 C 445.364 -1.54635 0.444615 0
M  V30 4568 O 446.556 -1.62753 0.695742 0
M  V30 4569 C 443.685 -3.02423 1.62466 0
M  V30 4570 C 442.771 -3.16601 2.82178 0
M  V30 4571 N 443.162 -3.00771 4.06658 0
M  V30 4572 C 441.46 -3.47645 2.79391 0
M  V30 4573 C 442.161 -3.18213 4.86945 0
M  V30 4574 N 441.137 -3.45528 4.19656 0
M  V30 4575 H 444.939 -1.5005 2.5271 0
M  V30 4576 H 442.453 -0.741018 1.44508 0
M  V30 4577 H 444.45 -3.81517 1.6808 0
M  V30 4578 H 443.11 -3.17157 0.695826 0
M  V30 4579 H 444.121 -2.77652 4.37184 0
M  V30 4580 H 440.798 -3.68771 1.95739 0
M  V30 4581 H 442.188 -3.1076 5.95716 0
M  V30 4582 N 444.908 -1.36708 -0.784132 0
M  V30 4583 C 446.185 -1.21776 -1.53069 0
M  V30 4584 C 446.565 0.193876 -2.10208 0
M  V30 4585 O 445.913 1.20012 -1.94446 0
M  V30 4586 C 446.123 -2.30395 -2.62143 0
M  V30 4587 C 447.471 -2.67325 -3.29882 0
M  V30 4588 O 448.495 -2.29478 -2.7243 0
M  V30 4589 O 447.354 -3.32485 -4.33724 0
M  V30 4590 H 444.448 -0.474459 -0.677361 0
M  V30 4591 H 446.994 -1.48454 -0.82216 0
M  V30 4592 H 445.766 -3.2498 -2.17953 0
M  V30 4593 H 445.389 -2.05112 -3.40609 0
M  V30 4594 N 446.386 1.0089 -1.21074 0
M  V30 4595 C 447.635 1.74019 -1.01981 0
M  V30 4596 C 447.948 1.90408 0.447665 0
M  V30 4597 O 449.154 2.60707 0.757906 0
M  V30 4598 C 447.61 3.13026 -1.77603 0
M  V30 4599 C 447.218 3.04623 -3.28495 0
M  V30 4600 C 448.962 3.90312 -1.66904 0
M  V30 4601 C 446.869 4.38685 -3.96623 0
M  V30 4602 H 445.799 0.652422 -0.377971 0
M  V30 4603 H 448.45 1.12755 -1.44771 0
M  V30 4604 H 446.832 3.74878 -1.27604 0
M  V30 4605 H 448.006 2.52032 -3.85767 0
M  V30 4606 H 446.321 2.40827 -3.39693 0
M  V30 4607 H 448.918 4.8951 -2.15138 0
M  V30 4608 H 449.261 4.11558 -0.62658 0
M  V30 4609 H 449.794 3.35104 -2.14359 0
M  V30 4610 H 446.533 4.22641 -5.01054 0
M  V30 4611 H 446.053 4.91252 -3.4414 0
M  V30 4612 H 447.732 5.075 -4.01314 0
M  V30 4613 N 447.864 1.01787 1.20321 0
M  V30 4614 C 448.827 0.593972 2.2137 0
M  V30 4615 C 449.827 -0.336553 1.57239 0
M  V30 4616 O 451.017 -0.125069 1.7375 0
M  V30 4617 C 448.149 -0.132433 3.40643 0
M  V30 4618 H 449.342 1.48791 2.60387 0
M  V30 4619 H 446.895 0.807803 1.33807 0
M  V30 4620 H 447.63 -1.04123 3.0713 0
M  V30 4621 H 447.415 0.53605 3.88418 0
M  V30 4622 H 448.905 -0.416314 4.1552 0
M  V30 4623 N 449.342 -1.36122 0.79427 0
M  V30 4624 C 450.272 -2.32551 0.210328 0
M  V30 4625 C 451.253 -1.56884 -0.657386 0
M  V30 4626 O 452.438 -1.85014 -0.590207 0
M  V30 4627 C 449.568 -3.41128 -0.651819 0
M  V30 4628 C 448.522 -4.27842 0.116395 0
M  V30 4629 C 447.848 -5.2763 -0.86666 0
M  V30 4630 C 449.148 -5.05647 1.30837 0
M  V30 4631 H 450.842 -2.81636 1.01594 0
M  V30 4632 H 448.388 -1.35407 0.489981 0
M  V30 4633 H 450.341 -4.07581 -1.07031 0
M  V30 4634 H 449.065 -2.90622 -1.49019 0
M  V30 4635 H 447.724 -3.62952 0.515915 0
M  V30 4636 H 447.372 -4.73395 -1.70019 0
M  V30 4637 H 447.072 -5.86514 -0.35705 0
M  V30 4638 H 448.596 -5.96955 -1.28361 0
M  V30 4639 H 450.01 -5.65113 0.965393 0
M  V30 4640 H 448.407 -5.73967 1.75161 0
M  V30 4641 H 449.477 -4.37006 2.10128 0
M  V30 4642 N 450.82 -0.546701 -1.47814 0
M  V30 4643 C 451.75 0.195317 -2.32682 0
M  V30 4644 C 452.731 0.918981 -1.43139 0
M  V30 4645 O 453.916 0.901501 -1.72008 0
M  V30 4646 C 451.046 1.23237 -3.247 0
M  V30 4647 C 450 0.625818 -4.234 0
M  V30 4648 C 449.326 1.76674 -5.04669 0
M  V30 4649 C 450.626 -0.413515 -5.2066 0
M  V30 4650 H 452.32 -0.513184 -2.94969 0
M  V30 4651 H 449.866 -0.248241 -1.41844 0
M  V30 4652 H 451.819 1.75955 -3.82907 0
M  V30 4653 H 450.543 1.97067 -2.60446 0
M  V30 4654 H 449.202 0.120023 -3.66403 0
M  V30 4655 H 448.85 2.49383 -4.36826 0
M  V30 4656 H 448.55 1.36673 -5.71484 0
M  V30 4657 H 450.074 2.29738 -5.65732 0
M  V30 4658 H 451.488 0.0272042 -5.73294 0
M  V30 4659 H 449.885 -0.731825 -5.95621 0
M  V30 4660 H 450.955 -1.31325 -4.66778 0
M  V30 4661 N 452.299 1.55045 -0.282633 0
M  V30 4662 C 453.715 1.59441 0.0712997 0
M  V30 4663 C 453.915 1.2998 1.53972 0
M  V30 4664 O 452.971 1.06431 2.28973 0
M  V30 4665 C 454.284 2.99097 -0.310104 0
M  V30 4666 C 455.832 3.1194 -0.257343 0
M  V30 4667 C 456.307 4.53875 -0.613297 0
M  V30 4668 N 457.798 4.5974 -0.565134 0
M  V30 4669 C 458.533 5.67603 -0.81326 0
M  V30 4670 N 458.029 6.83582 -1.1264 0
M  V30 4671 N 459.822 5.57187 -0.741553 0
M  V30 4672 H 451.973 1.72458 -1.23984 0
M  V30 4673 H 454.236 0.804549 -0.501403 0
M  V30 4674 H 453.942 3.25516 -1.33163 0
M  V30 4675 H 453.816 3.75616 0.345366 0
M  V30 4676 H 456.203 2.85281 0.754905 0
M  V30 4677 H 456.284 2.37618 -0.947178 0
M  V30 4678 H 455.928 4.81261 -1.62327 0
M  V30 4679 H 455.858 5.26508 0.09841 0
M  V30 4680 H 458.349 3.76427 -0.333294 0
M  V30 4681 H 458.662 7.6175 -1.30219 0
M  V30 4682 H 457.007 6.85179 -1.16425 0
M  V30 4683 H 460.198 4.65457 -0.496705 0
M  V30 4684 H 460.371 6.41171 -0.938306 0
M  V30 4685 N 453.777 0.010035 1.57597 0
M  V30 4686 C 454.707 -0.976857 2.12084 0
M  V30 4687 C 455.688 -1.35191 1.03235 0
M  V30 4688 O 456.873 -1.43389 1.3097 0
M  V30 4689 C 454.003 -2.26548 2.63236 0
M  V30 4690 C 452.957 -2.03175 3.76701 0
M  V30 4691 C 452.283 -3.38138 4.14206 0
M  V30 4692 C 453.583 -1.38625 5.03568 0
M  V30 4693 H 455.277 -0.523145 2.94794 0
M  V30 4694 H 452.823 -0.250195 1.4181 0
M  V30 4695 H 454.776 -2.95952 2.99984 0
M  V30 4696 H 453.5 -2.74051 1.77661 0
M  V30 4697 H 452.159 -1.36195 3.40362 0
M  V30 4698 H 451.807 -3.83363 3.25641 0
M  V30 4699 H 451.507 -3.23312 4.90656 0
M  V30 4700 H 453.031 -4.08841 4.53521 0
M  V30 4701 H 454.445 -1.98 5.38023 0
M  V30 4702 H 452.842 -1.34256 5.84889 0
M  V30 4703 H 453.912 -0.356722 4.83586 0
M  V30 4704 N 455.255 -1.55392 -0.262866 0
M  V30 4705 C 456.205 -1.85355 -1.32768 0
M  V30 4706 C 457.189 -0.713188 -1.44231 0
M  V30 4707 O 458.381 -0.974765 -1.47741 0
M  V30 4708 C 455.51 -2.13781 -2.68612 0
M  V30 4709 C 454.596 -3.34104 -2.61219 0
M  V30 4710 N 454.987 -4.53766 -2.2345 0
M  V30 4711 C 453.285 -3.36895 -2.92263 0
M  V30 4712 C 453.986 -5.35877 -2.26298 0
M  V30 4713 N 452.962 -4.74536 -2.65172 0
M  V30 4714 H 456.764 -2.75413 -1.02591 0
M  V30 4715 H 454.278 -1.55405 -0.471503 0
M  V30 4716 H 456.275 -2.33407 -3.45437 0
M  V30 4717 H 454.935 -1.25013 -2.99669 0
M  V30 4718 H 455.946 -4.79682 -1.95258 0
M  V30 4719 H 452.623 -2.58351 -3.27965 0
M  V30 4720 H 454.013 -6.41577 -1.99572 0
M  V30 4721 N 456.733 0.527833 -1.48498 0
M  V30 4722 C 457.665 1.6482 -1.5927 0
M  V30 4723 C 458.678 1.55659 -0.476869 0
M  V30 4724 O 459.867 1.62081 -0.747806 0
M  V30 4725 C 456.967 3.0348 -1.50842 0
M  V30 4726 C 456.14 3.381 -2.77502 0
M  V30 4727 C 455.199 4.5605 -2.62497 0
M  V30 4728 O 454.225 4.59165 -3.36387 0
M  V30 4729 N 455.427 5.54353 -1.72257 0
M  V30 4730 H 458.192 1.56015 -2.55889 0
M  V30 4731 H 455.753 0.715152 -1.45249 0
M  V30 4732 H 457.745 3.80264 -1.38496 0
M  V30 4733 H 456.315 3.06352 -0.621887 0
M  V30 4734 H 455.535 2.50473 -3.04396 0
M  V30 4735 H 456.823 3.58017 -3.61527 0
M  V30 4736 H 456.221 5.54617 -1.11431 0
M  V30 4737 H 454.778 6.30347 -1.65849 0
M  V30 4738 N 458.211 1.37122 0.776871 0
M  V30 4739 C 459.622 1.28667 1.35284 0
M  V30 4740 C 459.973 -0.0680035 1.96082 0
M  V30 4741 O 459.098 -0.969743 1.93455 0
M  V30 4742 C 459.693 2.32997 2.45963 0
M  V30 4743 C 458.252 2.28191 2.99342 0
M  V30 4744 C 457.399 2.17101 1.72517 0
M  V30 4745 H 460.35 1.47819 0.577527 0
M  V30 4746 H 460.371 1.97366 3.2531 0
M  V30 4747 H 459.883 3.3158 2.01684 0
M  V30 4748 H 457.984 1.33115 3.4801 0
M  V30 4749 H 458.097 3.21397 3.55304 0
M  V30 4750 H 456.461 1.63562 1.95242 0
M  V30 4751 H 457.244 3.17591 1.30348 0
M  V30 4752 N 459.689 -1.00246 1.21608 0
M  V30 4753 C 460.935 -1.74319 1.03638 0
M  V30 4754 C 461.268 -1.89408 -0.428749 0
M  V30 4755 O 460.543 -1.43026 -1.3181 0
M  V30 4756 C 460.826 -3.15431 1.73711 0
M  V30 4757 C 460.679 -3.08049 3.27759 0
M  V30 4758 C 461.998 -4.14407 1.48173 0
M  V30 4759 H 459.117 -0.632741 0.377899 0
M  V30 4760 H 461.759 -1.16853 1.49818 0
M  V30 4761 H 459.909 -3.64493 1.34452 0
M  V30 4762 H 461.581 -2.66681 3.76403 0
M  V30 4763 H 459.824 -2.45088 3.57931 0
M  V30 4764 H 460.495 -4.07862 3.71958 0
M  V30 4765 H 462.971 -3.74061 1.82258 0
M  V30 4766 H 461.847 -5.11279 1.99713 0
M  V30 4767 H 462.108 -4.40174 0.412273 0
M  V30 4768 N 461.167 -1.02423 -1.1978 0
M  V30 4769 C 462.413 -0.719051 -1.89625 0
M  V30 4770 C 462.746 0.750083 -1.7913 0
M  V30 4771 O 462.021 1.54574 -1.18056 0
M  V30 4772 C 462.304 -1.16499 -3.40735 0
M  V30 4773 C 462.157 -2.695 -3.60125 0
M  V30 4774 C 463.476 -0.742166 -4.33797 0
M  V30 4775 H 460.595 -0.26269 -0.688595 0
M  V30 4776 H 463.237 -1.27333 -1.41018 0
M  V30 4777 H 461.387 -0.69341 -3.82262 0
M  V30 4778 H 463.059 -3.24569 -3.278 0
M  V30 4779 H 461.302 -3.10113 -3.03336 0
M  V30 4780 H 461.973 -2.95757 -4.66081 0
M  V30 4781 H 464.449 -1.1477 -3.99959 0
M  V30 4782 H 463.325 -1.08213 -5.38127 0
M  V30 4783 H 463.586 0.355747 -4.40666 0
M  V30 4784 N 462.645 1.35699 -0.801477 0
M  V30 4785 C 463.575 2.32436 -0.222658 0
M  V30 4786 C 464.556 1.5723 0.649057 0
M  V30 4787 O 465.741 1.85324 0.580387 0
M  V30 4788 C 462.871 3.41469 0.633719 0
M  V30 4789 C 461.825 4.27774 -0.139083 0
M  V30 4790 C 461.151 5.28082 0.838666 0
M  V30 4791 C 462.451 5.04946 -1.33517 0
M  V30 4792 H 464.145 2.81094 -1.03086 0
M  V30 4793 H 461.691 1.35146 -0.497155 0
M  V30 4794 H 463.644 4.08143 1.04868 0
M  V30 4795 H 462.368 2.91408 1.47475 0
M  V30 4796 H 461.027 3.62673 -0.535156 0
M  V30 4797 H 460.675 4.7429 1.67506 0
M  V30 4798 H 460.375 5.86695 0.32594 0
M  V30 4799 H 461.899 5.97628 1.25194 0
M  V30 4800 H 463.313 5.64593 -0.995349 0
M  V30 4801 H 461.71 5.7303 -1.78202 0
M  V30 4802 H 462.78 4.35886 -2.12442 0
M  V30 4803 N 464.123 0.554532 1.47522 0
M  V30 4804 C 465.351 0.034257 2.06872 0
M  V30 4805 C 465.766 -1.25826 1.40759 0
M  V30 4806 O 465.123 -1.75425 0.503217 0
M  V30 4807 C 465.174 -0.167827 3.6111 0
M  V30 4808 O 464.895 1.07351 4.24744 0
M  V30 4809 C 466.396 -0.72569 4.3732 0
M  V30 4810 H 463.616 0.0446275 0.669514 0
M  V30 4811 H 466.16 0.767181 1.89564 0
M  V30 4812 H 464.315 -0.850872 3.7794 0
M  V30 4813 H 464.729 0.869563 5.17242 0
M  V30 4814 H 466.203 -0.816394 5.45929 0
M  V30 4815 H 466.68 -1.73635 4.0342 0
M  V30 4816 H 467.286 -0.0784292 4.25228 0
M  V30 4817 N 465.601 -1.54893 0.290851 0
M  V30 4818 C 466.878 -1.91991 -0.373989 0
M  V30 4819 C 467.258 -1.21694 -1.72493 0
M  V30 4820 O 466.606 -0.34917 -2.25816 0
M  V30 4821 C 466.816 -3.45419 -0.498703 0
M  V30 4822 C 468.164 -4.1748 -0.774298 0
M  V30 4823 O 469.188 -3.51398 -0.582908 0
M  V30 4824 O 468.047 -5.3445 -1.14129 0
M  V30 4825 H 465.141 -0.800593 -0.207315 0
M  V30 4826 H 467.687 -1.66297 0.338164 0
M  V30 4827 H 466.459 -3.88688 0.451392 0
M  V30 4828 H 466.082 -3.77117 -1.25972 0
M  V30 4829 N 467.08 -0.0183926 -1.57589 0
M  V30 4830 C 468.03 0.975944 -2.06057 0
M  V30 4831 C 469.014 1.29204 -0.958908 0
M  V30 4832 O 470.206 1.27995 -1.22255 0
M  V30 4833 C 467.335 2.26194 -2.58247 0
M  V30 4834 C 466.421 1.97467 -3.75323 0
M  V30 4835 N 466.812 1.38968 -4.86335 0
M  V30 4836 C 465.11 2.27515 -3.83605 0
M  V30 4837 C 465.811 1.27131 -5.67638 0
M  V30 4838 N 464.787 1.76319 -5.14211 0
M  V30 4839 H 468.589 0.518444 -2.89291 0
M  V30 4840 H 466.103 0.18688 -1.61321 0
M  V30 4841 H 468.1 2.98289 -2.91255 0
M  V30 4842 H 466.76 2.7258 -1.76438 0
M  V30 4843 H 467.771 1.06608 -5.06809 0
M  V30 4844 H 464.448 2.76649 -3.12684 0
M  V30 4845 H 465.838 0.819882 -6.66879 0
M  V30 4846 N 468.558 1.5553 0.254621 0
M  V30 4847 C 469.804 1.77262 0.985193 0
M  V30 4848 C 470.137 0.582286 1.85265 0
M  V30 4849 O 469.412 -0.419666 1.89919 0
M  V30 4850 C 469.695 3.0881 1.85225 0
M  V30 4851 C 469.548 4.38233 1.0135 0
M  V30 4852 C 470.867 3.3653 2.83612 0
M  V30 4853 H 467.986 0.644906 0.356742 0
M  V30 4854 H 470.628 1.88264 0.256236 0
M  V30 4855 H 468.778 2.99562 2.47376 0
M  V30 4856 H 470.45 4.59463 0.411269 0
M  V30 4857 H 468.693 4.32636 0.317574 0
M  V30 4858 H 469.364 5.26644 1.65379 0
M  V30 4859 H 471.84 3.45691 2.31596 0
M  V30 4860 H 470.716 4.29805 3.41407 0
M  V30 4861 H 470.977 2.57064 3.59681 0
M  V30 4862 N 470.036 -0.519951 1.48776 0
M  V30 4863 C 471.282 -1.27711 1.57536 0
M  V30 4864 C 471.615 -1.92547 0.252866 0
M  V30 4865 O 470.89 -1.7979 -0.742021 0
M  V30 4866 C 471.173 -2.35875 2.72094 0
M  V30 4867 C 471.026 -1.75664 4.1408 0
M  V30 4868 C 472.345 -3.37575 2.82367 0
M  V30 4869 H 469.464 -0.462971 0.573434 0
M  V30 4870 H 472.106 -0.578194 1.80989 0
M  V30 4871 H 470.256 -2.95488 2.52228 0
M  V30 4872 H 471.928 -1.20025 4.45412 0
M  V30 4873 H 470.171 -1.06154 4.20611 0
M  V30 4874 H 470.842 -2.54029 4.90075 0
M  V30 4875 H 473.318 -2.87929 3.00393 0
M  V30 4876 H 472.194 -4.1064 3.64233 0
M  V30 4877 H 472.455 -3.98743 1.90936 0
M  V30 4878 N 471.514 -1.37532 -0.769588 0
M  V30 4879 C 472.925 -1.29382 -1.346 0
M  V30 4880 C 473.276 0.0576039 -1.96115 0
M  V30 4881 O 472.401 0.95947 -1.93967 0
M  V30 4882 C 472.996 -2.34298 -2.44724 0
M  V30 4883 C 471.555 -2.29776 -2.98128 0
M  V30 4884 C 470.702 -2.18013 -1.71364 0
M  V30 4885 H 473.653 -1.48123 -0.56968 0
M  V30 4886 H 473.674 -1.99089 -3.24259 0
M  V30 4887 H 473.186 -3.32645 -1.99922 0
M  V30 4888 H 471.287 -1.34959 -3.47299 0
M  V30 4889 H 471.4 -3.23276 -3.53595 0
M  V30 4890 H 469.764 -1.64595 -1.94372 0
M  V30 4891 H 470.547 -3.18278 -1.28662 0
M  V30 4892 N 472.992 0.995999 -1.22138 0
M  V30 4893 C 473.922 2.10387 -1.01289 0
M  V30 4894 C 474.903 1.69975 0.0651454 0
M  V30 4895 O 476.088 1.9396 -0.0964628 0
M  V30 4896 C 473.218 3.42312 -0.586517 0
M  V30 4897 C 472.172 3.96558 -1.61014 0
M  V30 4898 C 471.498 5.24494 -1.0397 0
M  V30 4899 C 472.798 4.27595 -2.99933 0
M  V30 4900 H 474.492 2.28086 -1.93951 0
M  V30 4901 H 472.038 1.09607 -0.933928 0
M  V30 4902 H 473.991 4.19223 -0.427793 0
M  V30 4903 H 472.715 3.24431 0.375761 0
M  V30 4904 H 471.374 3.21776 -1.75658 0
M  V30 4905 H 471.022 5.02953 -0.0688703 0
M  V30 4906 H 470.722 5.61755 -1.72352 0
M  V30 4907 H 472.246 6.04042 -0.892494 0
M  V30 4908 H 473.66 4.95315 -2.8868 0
M  V30 4909 H 472.057 4.76021 -3.6541 0
M  V30 4910 H 473.127 3.35498 -3.50099 0
M  V30 4911 N 474.47 1.03057 1.19235 0
M  V30 4912 C 475.71 0.736757 1.9066 0
M  V30 4913 C 476.074 -0.721521 1.77927 0
M  V30 4914 O 477.275 -1.12849 2.43964 0
M  V30 4915 C 475.546 1.17755 3.37444 0
M  V30 4916 S 477.105 1.00783 4.27069 0
M  V30 4917 H 473.923 0.268174 0.658486 0
M  V30 4918 H 476.525 1.32076 1.4414 0
M  V30 4919 H 475.229 2.23448 3.44237 0
M  V30 4920 H 474.76 0.586912 3.88997 0
M  V30 4921 H 476.775 -0.0806356 4.96134 0
M  V30 4922 N 475.948 -1.35272 0.808662 0
M  V30 4923 C 476.878 -2.32315 0.234981 0
M  V30 4924 C 477.859 -1.57572 -0.64071 0
M  V30 4925 O 479.044 -1.8563 -0.570551 0
M  V30 4926 C 476.174 -3.41801 -0.615601 0
M  V30 4927 C 475.128 -4.27694 0.161767 0
M  V30 4928 C 474.454 -5.28519 -0.810649 0
M  V30 4929 C 475.754 -5.04231 1.36193 0
M  V30 4930 H 477.448 -2.80543 1.04575 0
M  V30 4931 H 474.994 -1.3488 0.504315 0
M  V30 4932 H 476.947 -4.08693 -1.02702 0
M  V30 4933 H 475.671 -2.92186 -1.45928 0
M  V30 4934 H 474.33 -3.62384 0.554382 0
M  V30 4935 H 473.978 -4.75171 -1.64988 0
M  V30 4936 H 473.678 -5.8686 -0.294822 0
M  V30 4937 H 475.202 -5.98283 -1.22023 0
M  V30 4938 H 476.616 -5.64058 1.02528 0
M  V30 4939 H 475.013 -5.72077 1.81239 0
M  V30 4940 H 476.083 -4.34753 2.14751 0
M  V30 4941 N 477.426 -0.562348 -1.47226 0
M  V30 4942 C 478.837 -0.130325 -1.86245 0
M  V30 4943 C 479.188 1.30128 -1.46838 0
M  V30 4944 O 478.313 1.97974 -0.873805 0
M  V30 4945 C 478.908 -0.229738 -3.3802 0
M  V30 4946 C 477.467 0.14728 -3.76112 0
M  V30 4947 C 476.614 -0.574971 -2.71274 0
M  V30 4948 H 479.565 -0.771773 -1.3867 0
M  V30 4949 H 479.586 0.550316 -3.76499 0
M  V30 4950 H 479.098 -1.27178 -3.66671 0
M  V30 4951 H 477.199 1.19023 -3.53078 0
M  V30 4952 H 477.312 -0.214858 -4.78618 0
M  V30 4953 H 475.676 -0.0174756 -2.54694 0
M  V30 4954 H 476.459 -1.61827 -3.02766 0
M  V30 4955 N 478.904 1.54736 -0.299062 0
M  V30 4956 C 479.814 2.27127 0.587413 0
M  V30 4957 C 480.83 1.30575 1.15005 0
M  V30 4958 O 482.006 1.63554 1.17525 0
M  V30 4959 C 479.071 2.99645 1.74395 0
M  V30 4960 C 478.132 4.11731 1.21559 0
M  V30 4961 C 477.365 4.80781 2.317 0
M  V30 4962 O 477.588 4.4918 3.51558 0
M  V30 4963 O 476.522 5.68226 1.98501 0
M  V30 4964 H 480.348 3.037 0.000250109 0
M  V30 4965 H 477.933 1.49256 -0.0655919 0
M  V30 4966 H 479.815 3.45138 2.4178 0
M  V30 4967 H 478.49 2.25969 2.31775 0
M  V30 4968 H 477.397 3.70641 0.507514 0
M  V30 4969 H 478.73 4.87379 0.687233 0
M  V30 4970 N 480.382 0.0267497 1.57577 0
M  V30 4971 C 481.798 -0.32962 1.56159 0
M  V30 4972 C 481.998 -1.73059 1.03213 0
M  V30 4973 O 481.054 -2.43233 0.677804 0
M  V30 4974 C 482.367 -0.18039 3.00158 0
M  V30 4975 C 483.915 -0.253334 3.11973 0
M  V30 4976 C 484.39 -0.132921 4.57807 0
M  V30 4977 N 485.881 -0.189979 4.6281 0
M  V30 4978 C 486.616 -0.120554 5.73273 0
M  V30 4979 N 486.112 -0.000180315 6.928 0
M  V30 4980 N 487.905 -0.174369 5.61829 0
M  V30 4981 H 480.056 0.942896 1.90324 0
M  V30 4982 H 482.319 0.3639 0.875375 0
M  V30 4983 H 482.025 0.784576 3.42837 0
M  V30 4984 H 481.899 -0.951565 3.65 0
M  V30 4985 H 484.286 -1.20876 2.69208 0
M  V30 4986 H 484.367 0.548177 2.49857 0
M  V30 4987 H 484.011 0.819073 5.01252 0
M  V30 4988 H 483.941 -0.953264 5.179 0
M  V30 4989 H 486.432 -0.283257 3.76837 0
M  V30 4990 H 486.745 0.0461666 7.72786 0
M  V30 4991 H 485.09 0.034569 6.94991 0
M  V30 4992 H 488.281 -0.266794 4.67339 0
M  V30 4993 H 488.454 -0.116802 6.47895 0
M  V30 4994 N 481.861 -1.55662 -0.24637 0
M  V30 4995 C 483.089 -1.81575 -0.991876 0
M  V30 4996 C 483.504 -0.602545 -1.78927 0
M  V30 4997 O 482.861 0.428795 -1.77391 0
M  V30 4998 C 482.912 -3.05711 -1.92933 0
M  V30 4999 O 482.633 -4.22348 -1.1642 0
M  V30 5000 C 484.134 -3.44428 -2.79078 0
M  V30 5001 H 481.354 -0.604209 -0.291844 0
M  V30 5002 H 483.898 -2.02722 -0.269095 0
M  V30 5003 H 482.053 -2.86612 -2.60638 0
M  V30 5004 H 482.467 -4.92706 -1.79835 0
M  V30 5005 H 483.941 -4.34388 -3.40603 0
M  V30 5006 H 484.418 -2.65037 -3.50217 0
M  V30 5007 H 485.024 -3.65879 -2.16824 0
M  V30 5008 N 483.339 0.512053 -1.4905 0
M  V30 5009 C 484.586 1.26686 -1.57978 0
M  V30 5010 C 484.914 1.92733 -0.261553 0
M  V30 5011 O 484.169 1.80772 0.749667 0
M  V30 5012 C 484.468 2.36446 -2.68008 0
M  V30 5013 C 484.134 1.87932 -4.09869 0
M  V30 5014 C 482.796 1.74419 -4.48477 0
M  V30 5015 C 485.148 1.5149 -4.98698 0
M  V30 5016 C 482.476 1.22827 -5.73699 0
M  V30 5017 C 484.828 1.01355 -6.24428 0
M  V30 5018 C 483.492 0.864735 -6.61875 0
M  V30 5019 H 482.762 0.463577 -0.578081 0
M  V30 5020 H 485.409 0.569421 -1.82838 0
M  V30 5021 H 483.714 3.11933 -2.37076 0
M  V30 5022 H 485.411 2.9453 -2.72127 0
M  V30 5023 H 482.001 1.99405 -3.79389 0
M  V30 5024 H 486.185 1.60782 -4.69535 0
M  V30 5025 H 481.441 1.10008 -6.01422 0
M  V30 5026 H 485.615 0.722351 -6.92644 0
M  V30 5027 H 483.242 0.462777 -7.5879 0
M  V30 5028 N 484.817 1.37938 0.762283 0
M  V30 5029 C 486.042 1.37059 1.55659 0
M  V30 5030 C 486.467 -0.0396123 1.88058 0
M  V30 5031 O 485.825 -1.01929 1.49934 0
M  V30 5032 C 485.873 2.22494 2.83776 0
M  V30 5033 O 484.977 1.63607 3.78559 0
M  V30 5034 H 484.318 0.467892 0.47114 0
M  V30 5035 H 486.848 1.81587 0.942725 0
M  V30 5036 H 486.858 2.36045 3.32786 0
M  V30 5037 H 485.533 3.24993 2.59524 0
M  V30 5038 H 484.11 1.5915 3.37233 0
M  V30 5039 N 486.295 -0.989507 1.22664 0
M  V30 5040 C 487.205 -2.11449 1.01619 0
M  V30 5041 C 488.221 -1.73962 -0.036545 0
M  V30 5042 O 489.397 -2.00788 0.156924 0
M  V30 5043 C 486.462 -3.41465 0.600204 0
M  V30 5044 C 485.523 -3.93033 1.72695 0
M  V30 5045 C 484.756 -5.16844 1.33071 0
M  V30 5046 O 484.979 -5.7001 0.210975 0
M  V30 5047 O 483.913 -5.6225 2.14845 0
M  V30 5048 H 487.739 -2.32088 1.9588 0
M  V30 5049 H 485.324 -1.09823 1.01289 0
M  V30 5050 H 487.206 -4.19695 0.37873 0
M  V30 5051 H 485.881 -3.22178 -0.313511 0
M  V30 5052 H 484.788 -3.15961 2.00298 0
M  V30 5053 H 486.121 -4.16758 2.61865 0
M  V30 5054 N 487.773 -1.03688 -1.18687 0
M  V30 5055 C 489.189 -0.755413 -1.4059 0
M  V30 5056 C 489.389 0.656659 -1.905 0
M  V30 5057 O 488.445 1.42144 -2.08689 0
M  V30 5058 C 489.758 -1.7983 -2.41001 0
M  V30 5059 C 491.306 -1.81877 -2.54735 0
M  V30 5060 C 491.781 -2.85148 -3.58406 0
M  V30 5061 N 493.272 -2.84015 -3.6591 0
M  V30 5062 C 494.007 -3.60573 -4.45841 0
M  V30 5063 N 493.503 -4.46871 -5.29413 0
M  V30 5064 N 495.296 -3.49079 -4.40568 0
M  V30 5065 H 487.447 -1.94818 -0.846148 0
M  V30 5066 H 489.71 -0.842727 -0.434184 0
M  V30 5067 H 489.416 -2.81097 -2.1137 0
M  V30 5068 H 489.29 -1.62727 -3.40294 0
M  V30 5069 H 491.677 -0.812836 -2.83685 0
M  V30 5070 H 491.758 -2.03057 -1.55568 0
M  V30 5071 H 491.402 -3.85918 -3.30197 0
M  V30 5072 H 491.332 -2.61224 -4.57241 0
M  V30 5073 H 493.823 -2.21431 -3.0623 0
M  V30 5074 H 494.136 -5.02007 -5.87545 0
M  V30 5075 H 492.481 -4.5094 -5.28846 0
M  V30 5076 H 495.672 -2.81066 -3.74325 0
M  V30 5077 H 495.845 -4.08994 -5.02621 0
M  V30 5078 N 489.251 1.34841 -0.815825 0
M  V30 5079 C 490.479 2.0273 -0.413294 0
M  V30 5080 C 490.894 1.61459 0.978599 0
M  V30 5081 O 490.251 0.816584 1.63212 0
M  V30 5082 C 490.302 3.58058 -0.497676 0
M  V30 5083 O 490.023 3.97832 -1.8347 0
M  V30 5084 C 491.524 4.4321 -0.0891339 0
M  V30 5085 H 488.744 0.649956 -0.166728 0
M  V30 5086 H 491.288 1.72267 -1.10201 0
M  V30 5087 H 489.443 3.87136 0.142886 0
M  V30 5088 H 489.857 4.92501 -1.80396 0
M  V30 5089 H 491.331 5.5164 -0.199274 0
M  V30 5090 H 491.808 4.28432 0.966571 0
M  V30 5091 H 492.414 4.19446 -0.703214 0
M  V30 5092 N 490.729 0.570148 1.46925 0
M  V30 5093 C 491.659 -0.158274 2.32963 0
M  V30 5094 C 492.64 -0.896093 1.44583 0
M  V30 5095 O 493.825 -0.874022 1.7342 0
M  V30 5096 C 490.955 -1.18055 3.26619 0
M  V30 5097 C 489.909 -0.558379 4.24342 0
M  V30 5098 C 489.235 -1.68623 5.07415 0
M  V30 5099 C 490.535 0.496295 5.19937 0
M  V30 5100 H 492.229 0.560046 2.94115 0
M  V30 5101 H 489.775 0.270775 1.41431 0
M  V30 5102 H 491.728 -1.69841 3.85658 0
M  V30 5103 H 490.452 -1.92899 2.63548 0
M  V30 5104 H 489.111 -0.0617157 3.66548 0
M  V30 5105 H 488.759 -2.42402 4.40738 0
M  V30 5106 H 488.459 -1.27564 5.73586 0
M  V30 5107 H 489.983 -2.20709 5.69315 0
M  V30 5108 H 491.397 0.0640052 5.73264 0
M  V30 5109 H 489.794 0.82649 5.94381 0
M  V30 5110 H 490.864 1.38735 4.6463 0
M  V30 5111 N 492.207 -1.54576 0.307264 0
M  V30 5112 C 493.17 -2.22423 -0.553224 0
M  V30 5113 C 494.17 -1.21231 -1.05639 0
M  V30 5114 O 495.36 -1.45923 -0.951419 0
M  V30 5115 C 492.492 -2.91552 -1.76664 0
M  V30 5116 H 493.685 -2.99874 0.0396484 0
M  V30 5117 H 491.238 -1.56192 0.0581629 0
M  V30 5118 H 491.973 -2.18196 -2.39918 0
M  V30 5119 H 491.758 -3.65738 -1.41343 0
M  V30 5120 H 493.248 -3.43292 -2.37783 0
M  V30 5121 N 493.685 -0.035106 -1.57561 0
M  V30 5122 C 494.932 0.642229 -1.92046 0
M  V30 5123 C 495.26 1.7179 -0.91206 0
M  V30 5124 O 494.515 1.95544 0.0781153 0
M  V30 5125 C 494.814 1.29149 -3.3325 0
M  V30 5126 C 494.48 0.345604 -4.49574 0
M  V30 5127 C 493.142 0.0852775 -4.81124 0
M  V30 5128 C 495.494 -0.303569 -5.20315 0
M  V30 5129 C 492.822 -0.831927 -5.80772 0
M  V30 5130 C 495.174 -1.20886 -6.20942 0
M  V30 5131 C 493.838 -1.47802 -6.50931 0
M  V30 5132 H 493.108 0.235008 -0.702746 0
M  V30 5133 H 495.755 -0.0981529 -1.91248 0
M  V30 5134 H 494.06 2.10676 -3.30337 0
M  V30 5135 H 495.757 1.82223 -3.57205 0
M  V30 5136 H 492.347 0.558683 -4.24943 0
M  V30 5137 H 496.531 -0.115515 -4.96166 0
M  V30 5138 H 491.787 -1.0481 -6.02349 0
M  V30 5139 H 495.961 -1.71804 -6.74875 0
M  V30 5140 H 493.588 -2.19039 -7.2796 0
M  V30 5141 N 495.163 1.55791 0.238111 0
M  V30 5142 C 496.409 1.78297 0.966337 0
M  V30 5143 C 496.742 0.601903 1.84637 0
M  V30 5144 O 496.017 -0.399499 1.90353 0
M  V30 5145 C 496.3 3.10758 1.81939 0
M  V30 5146 C 496.153 4.39283 0.966958 0
M  V30 5147 C 497.472 3.39519 2.80027 0
M  V30 5148 H 494.591 0.648654 0.349882 0
M  V30 5149 H 497.233 1.88525 0.236253 0
M  V30 5150 H 495.383 3.02168 2.44185 0
M  V30 5151 H 497.055 4.59873 0.362514 0
M  V30 5152 H 495.298 4.32948 0.271669 0
M  V30 5153 H 495.969 5.28368 1.59784 0
M  V30 5154 H 498.445 3.48128 2.27917 0
M  V30 5155 H 497.321 4.33402 3.36829 0
M  V30 5156 H 497.582 2.60864 3.56934 0
M  V30 5157 N 496.642 -0.504142 1.49319 0
M  V30 5158 C 498.058 -0.835039 1.36012 0
M  V30 5159 C 498.258 -1.97674 0.390808 0
M  V30 5160 O 497.314 -2.51867 -0.178655 0
M  V30 5161 C 498.627 -1.17821 2.76656 0
M  V30 5162 C 500.175 -1.2866 2.85334 0
M  V30 5163 C 500.65 -1.66307 4.26739 0
M  V30 5164 N 502.141 -1.73362 4.29534 0
M  V30 5165 C 502.876 -2.0393 5.35911 0
M  V30 5166 N 502.372 -2.32744 6.52535 0
M  V30 5167 N 504.165 -2.05155 5.23324 0
M  V30 5168 H 496.316 0.248764 2.10938 0
M  V30 5169 H 498.579 0.0486962 0.946748 0
M  V30 5170 H 498.285 -0.412682 3.4927 0
M  V30 5171 H 498.159 -2.12239 3.11825 0
M  V30 5172 H 500.546 -2.04285 2.1296 0
M  V30 5173 H 500.627 -0.323004 2.53752 0
M  V30 5174 H 500.271 -0.91234 4.99639 0
M  V30 5175 H 500.201 -2.63761 4.55782 0
M  V30 5176 H 502.692 -1.53268 3.45424 0
M  V30 5177 H 503.005 -2.55248 7.2943 0
M  V30 5178 H 501.35 -2.30207 6.55767 0
M  V30 5179 H 504.541 -1.82119 4.3122 0
M  V30 5180 H 504.714 -2.28644 6.06322 0
M  V30 5181 N 498.12 -1.38341 -0.754957 0
M  V30 5182 C 499.367 -1.34473 -1.51404 0
M  V30 5183 C 499.695 0.0656458 -1.94389 0
M  V30 5184 O 498.95 1.04244 -1.65625 0
M  V30 5185 C 499.249 -2.2452 -2.78075 0
M  V30 5186 C 498.915 -3.72512 -2.54059 0
M  V30 5187 C 497.577 -4.1284 -2.47218 0
M  V30 5188 C 499.929 -4.66197 -2.33044 0
M  V30 5189 C 497.257 -5.44945 -2.17376 0
M  V30 5190 C 499.609 -5.98558 -2.04723 0
M  V30 5191 C 498.273 -6.37972 -1.96337 0
M  V30 5192 H 497.543 -0.492072 -0.554027 0
M  V30 5193 H 500.19 -1.70687 -0.868223 0
M  V30 5194 H 498.495 -1.81357 -3.473 0
M  V30 5195 H 500.192 -2.18832 -3.36026 0
M  V30 5196 H 496.782 -3.40538 -2.60253 0
M  V30 5197 H 500.966 -4.35888 -2.37309 0
M  V30 5198 H 496.222 -5.74426 -2.09391 0
M  V30 5199 H 500.396 -6.70693 -1.87465 0
M  V30 5200 H 498.023 -7.40258 -1.72978 0
M  V30 5201 N 499.598 0.982988 -1.23187 0
M  V30 5202 C 500.823 1.76455 -1.08988 0
M  V30 5203 C 501.248 1.84726 0.354691 0
M  V30 5204 O 500.606 1.30699 1.25649 0
M  V30 5205 C 500.654 3.17094 -1.71708 0
M  V30 5206 O 499.758 4.00648 -0.977477 0
M  V30 5207 H 499.099 0.542988 -0.382177 0
M  V30 5208 H 501.629 1.23413 -1.63188 0
M  V30 5209 H 501.639 3.67684 -1.76841 0
M  V30 5210 H 500.314 3.10389 -2.76823 0
M  V30 5211 H 498.891 3.59161 -1.0029 0
M  V30 5212 N 501.076 1.04316 1.18135 0
M  V30 5213 C 502.006 0.657299 2.24058 0
M  V30 5214 C 502.987 -0.340678 1.66654 0
M  V30 5215 O 504.172 -0.220223 1.92947 0
M  V30 5216 C 501.302 0.0220715 3.47293 0
M  V30 5217 C 500.256 0.943857 4.17463 0
M  V30 5218 C 499.582 0.172973 5.3442 0
M  V30 5219 C 500.882 2.26409 4.70677 0
M  V30 5220 H 502.576 1.5428 2.56589 0
M  V30 5221 H 500.122 0.743263 1.23335 0
M  V30 5222 H 502.075 -0.259607 4.206 0
M  V30 5223 H 500.799 -0.898323 3.14003 0
M  V30 5224 H 499.458 1.20996 3.46057 0
M  V30 5225 H 499.106 -0.749907 4.97379 0
M  V30 5226 H 498.806 0.787098 5.82304 0
M  V30 5227 H 500.33 -0.101628 6.10515 0
M  V30 5228 H 501.744 2.04294 5.35665 0
M  V30 5229 H 500.141 2.8314 5.29105 0
M  V30 5230 H 501.211 2.90883 3.87962 0
M  V30 5231 N 502.554 -1.34406 0.822964 0
M  V30 5232 C 503.8 -1.98578 0.411666 0
M  V30 5233 C 504.133 -1.65093 -1.02264 0
M  V30 5234 O 503.408 -0.92258 -1.71227 0
M  V30 5235 C 503.691 -3.54823 0.614235 0
M  V30 5236 C 503.544 -3.9805 2.09466 0
M  V30 5237 C 504.863 -4.40071 0.050221 0
M  V30 5238 H 501.982 -0.721355 0.151047 0
M  V30 5239 H 504.624 -1.59301 1.03554 0
M  V30 5240 H 502.774 -3.88411 0.0831774 0
M  V30 5241 H 504.446 -3.74795 2.68936 0
M  V30 5242 H 502.689 -3.4836 2.5851 0
M  V30 5243 H 503.36 -5.06819 2.18721 0
M  V30 5244 H 505.836 -4.13037 0.503953 0
M  V30 5245 H 504.712 -5.48452 0.221759 0
M  V30 5246 H 504.973 -4.29576 -1.04482 0
M  V30 5247 N 504.032 -0.577932 -1.46621 0
M  V30 5248 C 505.257 -0.0652536 -2.07297 0
M  V30 5249 C 505.682 1.22828 -1.4246 0
M  V30 5250 O 505.04 1.74075 -0.506718 0
M  V30 5251 C 505.088 0.0920589 -3.60482 0
M  V30 5252 O 504.192 1.14972 -3.96049 0
M  V30 5253 H 503.533 -0.06065 -0.661224 0
M  V30 5254 H 506.063 -0.799515 -1.88332 0
M  V30 5255 H 506.073 0.299741 -4.06897 0
M  V30 5256 H 504.748 -0.852612 -4.07067 0
M  V30 5257 H 503.325 0.920879 -3.61351 0
M  V30 5258 N 505.51 1.54411 -0.315457 0
M  V30 5259 C 506.758 2.00023 0.288971 0
M  V30 5260 C 507.079 1.20529 1.5329 0
M  V30 5261 O 506.349 0.304986 1.93511 0
M  V30 5262 H 504.929 0.738891 0.109766 0
M  V30 5263 H 507.591 1.90094 -0.430129 0
M  V30 5264 H 506.687 3.07198 0.550999 0
M  V30 5265 N 506.988 0.0434614 1.5754 0
M  V30 5266 C 508.234 -0.627109 1.93491 0
M  V30 5267 C 508.589 -1.68904 0.921362 0
M  V30 5268 O 507.882 -1.91504 -0.0605799 0
M  V30 5269 C 508.076 -1.2738 3.3393 0
M  V30 5270 C 507.905 -0.27603 4.48852 0
M  V30 5271 C 506.675 0.129244 5.05135 0
M  V30 5272 C 508.873 0.475462 5.12098 0
M  V30 5273 N 506.855 1.12068 6.03584 0
M  V30 5274 C 508.226 1.32021 6.05781 0
M  V30 5275 C 510.281 0.534611 4.95022 0
M  V30 5276 C 508.984 2.2188 6.84223 0
M  V30 5277 C 511.01 1.42059 5.74085 0
M  V30 5278 C 510.372 2.25309 6.67394 0
M  V30 5279 H 506.471 -0.201354 0.755633 0
M  V30 5280 H 509.055 0.113991 1.94366 0
M  V30 5281 H 507.226 -1.98496 3.33847 0
M  V30 5282 H 508.958 -1.90255 3.57191 0
M  V30 5283 H 505.713 -0.248145 4.72949 0
M  V30 5284 H 506.137 1.61306 6.57502 0
M  V30 5285 H 510.779 -0.0947817 4.22694 0
M  V30 5286 H 508.497 2.85868 7.55847 0
M  V30 5287 H 512.083 1.47083 5.62901 0
M  V30 5288 H 510.963 2.92754 7.27506 0
M  V30 5289 N 508.466 -1.55915 -0.229846 0
M  V30 5290 C 509.714 -1.7819 -0.953565 0
M  V30 5291 C 510.035 -0.610504 -1.85197 0
M  V30 5292 O 509.305 0.372988 -1.92316 0
M  V30 5293 H 507.885 -0.657208 -0.355087 0
M  V30 5294 H 510.547 -1.9337 -0.243693 0
M  V30 5295 H 509.643 -2.70011 -1.56527 0
M  V30 5296 N 509.944 0.496216 -1.49584 0
M  V30 5297 C 510.876 1.61404 -1.62731 0
M  V30 5298 C 511.889 1.54613 -0.50978 0
M  V30 5299 O 513.078 1.60458 -0.782017 0
M  V30 5300 C 510.178 3.00212 -1.57245 0
M  V30 5301 C 509.351 3.32138 -2.84611 0
M  V30 5302 C 508.41 4.5038 -2.72112 0
M  V30 5303 O 507.436 4.51926 -3.46051 0
M  V30 5304 N 508.638 5.50575 -1.83977 0
M  V30 5305 H 511.403 1.50552 -2.59141 0
M  V30 5306 H 508.964 0.684182 -1.46733 0
M  V30 5307 H 510.956 3.77241 -1.4653 0
M  V30 5308 H 509.526 3.04964 -0.686729 0
M  V30 5309 H 508.746 2.4396 -3.09641 0
M  V30 5310 H 510.034 3.50268 -3.69039 0
M  V30 5311 H 509.432 5.52128 -1.23171 0
M  V30 5312 H 507.989 6.26687 -1.79182 0
M  V30 5313 N 511.423 1.38739 0.74761 0
M  V30 5314 C 512.353 1.39173 1.87492 0
M  V30 5315 C 513.334 0.256794 1.6815 0
M  V30 5316 O 514.519 0.460762 1.88655 0
M  V30 5317 C 511.649 1.22197 3.25093 0
M  V30 5318 C 510.603 2.32957 3.59047 0
M  V30 5319 C 509.929 2.01082 4.95449 0
M  V30 5320 C 511.229 3.75237 3.6331 0
M  V30 5321 H 512.923 2.3351 1.87386 0
M  V30 5322 H 510.469 1.12399 0.900134 0
M  V30 5323 H 512.422 1.21124 4.03617 0
M  V30 5324 H 511.146 0.243241 3.25693 0
M  V30 5325 H 509.805 2.33226 2.82845 0
M  V30 5326 H 509.453 1.01678 4.92616 0
M  V30 5327 H 509.153 2.75267 5.19136 0
M  V30 5328 H 510.677 2.01638 5.76346 0
M  V30 5329 H 512.091 3.76966 4.31937 0
M  V30 5330 H 510.488 4.48677 3.98509 0
M  V30 5331 H 511.558 4.07122 2.634 0
M  V30 5332 N 512.901 -0.976442 1.23707 0
M  V30 5333 C 513.831 -2.08749 1.04624 0
M  V30 5334 C 514.812 -1.70057 -0.0380956 0
M  V30 5335 O 515.997 -1.93782 0.127308 0
M  V30 5336 C 513.127 -3.41335 0.640902 0
M  V30 5337 C 512.081 -3.93947 1.67302 0
M  V30 5338 C 511.407 -5.22774 1.12301 0
M  V30 5339 C 512.707 -4.22769 3.06697 0
M  V30 5340 H 514.401 -2.24972 1.97555 0
M  V30 5341 H 511.947 -1.08108 0.951247 0
M  V30 5342 H 513.9 -4.18489 0.494434 0
M  V30 5343 H 512.624 -3.24988 -0.324099 0
M  V30 5344 H 511.283 -3.18941 1.80755 0
M  V30 5345 H 510.931 -5.0278 0.148877 0
M  V30 5346 H 510.631 -5.58942 1.81267 0
M  V30 5347 H 512.155 -6.02546 0.988479 0
M  V30 5348 H 513.569 -4.90659 2.96524 0
M  V30 5349 H 511.966 -4.70147 3.72937 0
M  V30 5350 H 513.036 -3.29885 3.55392 0
M  V30 5351 N 514.379 -1.04941 -1.1758 0
M  V30 5352 C 515.656 -0.671918 -1.83697 0
M  V30 5353 C 516.036 0.847929 -1.93322 0
M  V30 5354 O 515.384 1.75287 -1.46583 0
M  V30 5355 C 515.594 -1.35797 -3.21497 0
M  V30 5356 C 516.942 -1.4944 -3.97433 0
M  V30 5357 O 517.966 -1.31678 -3.30967 0
M  V30 5358 O 516.825 -1.78463 -5.1654 0
M  V30 5359 H 513.919 -0.236212 -0.792548 0
M  V30 5360 H 516.465 -1.14884 -1.24899 0
M  V30 5361 H 515.237 -2.39498 -3.09446 0
M  V30 5362 H 514.86 -0.870236 -3.8796 0
M  V30 5363 N 515.857 1.33968 -0.830081 0
M  V30 5364 C 517.273 1.51003 -0.516742 0
M  V30 5365 C 517.473 1.77286 0.957694 0
M  V30 5366 O 516.529 1.82797 1.74188 0
M  V30 5367 C 517.842 2.67036 -1.38247 0
M  V30 5368 C 519.39 2.80919 -1.38034 0
M  V30 5369 C 519.865 4.00004 -2.23071 0
M  V30 5370 N 521.356 4.07224 -2.20733 0
M  V30 5371 C 522.091 4.98541 -2.83275 0
M  V30 5372 N 521.587 5.95033 -3.54835 0
M  V30 5373 N 523.38 4.91469 -2.72791 0
M  V30 5374 H 515.531 1.15168 -1.78466 0
M  V30 5375 H 517.794 0.565443 -0.760906 0
M  V30 5376 H 517.5 2.54266 -2.42985 0
M  V30 5377 H 517.374 3.62226 -1.05225 0
M  V30 5378 H 519.761 2.93127 -0.340713 0
M  V30 5379 H 519.842 1.86517 -1.75057 0
M  V30 5380 H 519.486 3.88557 -3.27087 0
M  V30 5381 H 519.416 4.93634 -1.83394 0
M  V30 5382 H 521.907 3.38162 -1.68687 0
M  V30 5383 H 522.22 6.61357 -3.99784 0
M  V30 5384 H 520.565 5.95135 -3.58942 0
M  V30 5385 H 523.756 4.15048 -2.16456 0
M  V30 5386 H 523.929 5.62439 -3.21818 0
M  V30 5387 N 517.335 0.585699 1.46312 0
M  V30 5388 C 518.583 0.072278 2.01971 0
M  V30 5389 C 518.904 -1.29345 1.45928 0
M  V30 5390 O 518.174 -1.84973 0.645109 0
M  V30 5391 H 516.754 0.023729 0.746623 0
M  V30 5392 H 519.416 0.762155 1.7938 0
M  V30 5393 H 518.512 0.00552767 3.121 0
M  V30 5394 N 518.813 -1.54241 0.323641 0
M  V30 5395 C 519.776 -2.22997 -0.529602 0
M  V30 5396 C 520.776 -1.22345 -1.04347 0
M  V30 5397 O 521.966 -1.46924 -0.935889 0
M  V30 5398 C 519.098 -2.93409 -1.73562 0
M  V30 5399 H 520.291 -2.99815 0.0714518 0
M  V30 5400 H 517.844 -1.56121 0.0747258 0
M  V30 5401 H 518.579 -2.20729 -2.37591 0
M  V30 5402 H 518.364 -3.67217 -1.37456 0
M  V30 5403 H 519.854 -3.45794 -2.34128 0
M  V30 5404 N 520.291 -0.0518155 -1.57515 0
M  V30 5405 C 521.519 0.631395 -1.9703 0
M  V30 5406 C 521.934 1.64341 -0.92938 0
M  V30 5407 O 521.291 1.82296 0.0863266 0
M  V30 5408 C 521.342 1.31774 -3.36627 0
M  V30 5409 O 521.063 0.346247 -4.3673 0
M  V30 5410 C 522.564 2.09065 -3.90905 0
M  V30 5411 H 519.784 0.172576 -0.648428 0
M  V30 5412 H 522.328 -0.118306 -2.04158 0
M  V30 5413 H 520.483 2.01867 -3.30649 0
M  V30 5414 H 520.897 0.836226 -5.17791 0
M  V30 5415 H 522.371 2.52508 -4.9086 0
M  V30 5416 H 522.848 2.93908 -3.26366 0
M  V30 5417 H 523.454 1.43882 -4.00223 0
M  V30 5418 N 521.769 1.56035 0.221574 0
M  V30 5419 C 522.732 1.91584 1.2581 0
M  V30 5420 C 523.732 0.794425 1.39805 0
M  V30 5421 O 524.922 1.06217 1.38071 0
M  V30 5422 C 522.054 2.16663 2.63192 0
M  V30 5423 H 523.247 2.8429 0.954935 0
M  V30 5424 H 520.8 1.49316 0.461988 0
M  V30 5425 H 521.535 1.26508 2.98607 0
M  V30 5426 H 521.32 2.98358 2.5441 0
M  V30 5427 H 522.81 2.45262 3.37988 0
M  V30 5428 N 523.247 -0.488276 1.49845 0
M  V30 5429 C 524.177 -1.59675 1.70371 0
M  V30 5430 C 525.158 -1.60878 0.552473 0
M  V30 5431 O 526.343 -1.77417 0.78973 0
M  V30 5432 C 523.473 -2.98098 1.782 0
M  V30 5433 C 522.427 -3.11761 2.93239 0
M  V30 5434 C 521.753 -4.51661 2.86193 0
M  V30 5435 C 523.053 -2.90589 4.33999 0
M  V30 5436 H 524.747 -1.42752 2.63177 0
M  V30 5437 H 522.293 -0.685317 1.26647 0
M  V30 5438 H 524.246 -3.75555 1.91144 0
M  V30 5439 H 522.97 -3.16138 0.820018 0
M  V30 5440 H 521.629 -2.36732 2.79917 0
M  V30 5441 H 521.277 -4.66595 1.87877 0
M  V30 5442 H 520.977 -4.61742 3.63412 0
M  V30 5443 H 522.501 -5.31162 3.01163 0
M  V30 5444 H 523.915 -3.57807 4.47936 0
M  V30 5445 H 522.312 -3.1213 5.12538 0
M  V30 5446 H 523.382 -1.86595 4.4756 0
M  V30 5447 N 524.725 -1.39134 -0.740242 0
M  V30 5448 C 525.635 -1.39697 -1.88473 0
M  V30 5449 C 526.651 -0.292403 -1.71526 0
M  V30 5450 O 527.827 -0.533021 -1.94219 0
M  V30 5451 C 524.892 -1.23382 -3.24003 0
M  V30 5452 C 523.953 -2.43763 -3.53381 0
M  V30 5453 C 523.186 -2.28216 -4.82445 0
M  V30 5454 O 523.409 -1.28288 -5.55786 0
M  V30 5455 O 522.343 -3.1709 -5.11603 0
M  V30 5456 H 526.169 -2.36159 -1.90952 0
M  V30 5457 H 523.754 -1.20194 -0.887346 0
M  V30 5458 H 525.636 -1.16395 -4.05006 0
M  V30 5459 H 524.311 -0.300121 -3.22306 0
M  V30 5460 H 523.218 -2.56325 -2.72485 0
M  V30 5461 H 524.551 -3.35808 -3.59852 0
M  V30 5462 N 526.204 0.969867 -1.24223 0
M  V30 5463 C 527.134 2.08191 -1.05729 0
M  V30 5464 C 528.115 1.70075 0.0290765 0
M  V30 5465 O 529.3 1.93712 -0.137583 0
M  V30 5466 C 526.43 3.40991 -0.658995 0
M  V30 5467 C 525.384 3.93054 -1.69389 0
M  V30 5468 C 524.71 5.22171 -1.15072 0
M  V30 5469 C 526.01 4.21137 -3.08935 0
M  V30 5470 H 527.704 2.23921 -1.98746 0
M  V30 5471 H 525.25 1.07602 -0.956967 0
M  V30 5472 H 527.203 4.18221 -0.51662 0
M  V30 5473 H 525.927 3.25155 0.30686 0
M  V30 5474 H 524.586 3.17977 -1.82444 0
M  V30 5475 H 524.234 5.02694 -0.175539 0
M  V30 5476 H 523.934 5.57973 -1.84229 0
M  V30 5477 H 525.458 6.02013 -1.02042 0
M  V30 5478 H 526.872 4.8908 -2.99121 0
M  V30 5479 H 525.269 4.68163 -3.75425 0
M  V30 5480 H 526.339 3.27996 -3.57137 0
M  V30 5481 N 527.682 1.05563 1.17022 0
M  V30 5482 C 528.615 0.604197 2.20056 0
M  V30 5483 C 529.593 -0.369169 1.58354 0
M  V30 5484 O 530.777 -0.279898 1.8641 0
M  V30 5485 C 527.904 -0.115265 3.38504 0
M  V30 5486 C 526.95 0.813698 4.18666 0
M  V30 5487 S 527.783 2.30492 4.83357 0
M  V30 5488 C 528.939 1.59674 6.0519 0
M  V30 5489 H 529.172 1.47713 2.58008 0
M  V30 5490 H 526.705 0.867932 1.27696 0
M  V30 5491 H 528.663 -0.524162 4.0714 0
M  V30 5492 H 527.324 -0.964284 2.98932 0
M  V30 5493 H 526.517 0.256736 5.03346 0
M  V30 5494 H 526.119 1.16213 3.55486 0
M  V30 5495 H 528.411 0.898164 6.7152 0
M  V30 5496 H 529.354 2.42115 6.65422 0
M  V30 5497 H 529.762 1.08252 5.54023 0
M  V30 5498 N 529.16 -1.33526 0.837174 0
M  V30 5499 C 530.406 -1.9813 0.432704 0
M  V30 5500 C 530.739 -1.66168 -1.00508 0
M  V30 5501 O 530.014 -0.94069 -1.70239 0
M  V30 5502 C 530.297 -3.54151 0.651834 0
M  V30 5503 C 530.15 -3.95806 2.13676 0
M  V30 5504 C 531.469 -4.39993 0.0968937 0
M  V30 5505 H 528.588 -0.719713 0.15869 0
M  V30 5506 H 531.23 -1.58193 1.05237 0
M  V30 5507 H 529.38 -3.88301 0.124369 0
M  V30 5508 H 531.052 -3.71921 2.72896 0
M  V30 5509 H 529.295 -3.45599 2.62191 0
M  V30 5510 H 529.966 -5.0447 2.24084 0
M  V30 5511 H 532.442 -4.12479 0.547733 0
M  V30 5512 H 531.318 -5.48186 0.279917 0
M  V30 5513 H 531.579 -4.3066 -0.9992 0
M  V30 5514 N 530.638 -0.59345 -1.46 0
M  V30 5515 C 531.568 0.121192 -2.33185 0
M  V30 5516 C 532.549 0.872977 -1.4599 0
M  V30 5517 O 533.734 0.846321 -1.74789 0
M  V30 5518 C 530.864 1.12844 -3.28456 0
M  V30 5519 C 529.818 0.4908 -4.25177 0
M  V30 5520 C 529.144 1.60529 -5.10034 0
M  V30 5521 C 530.444 -0.578949 -5.19081 0
M  V30 5522 H 532.138 -0.606767 -2.93187 0
M  V30 5523 H 529.684 -0.293242 -1.40983 0
M  V30 5524 H 531.637 1.63684 -3.88311 0
M  V30 5525 H 530.361 1.88681 -2.66584 0
M  V30 5526 H 529.02 0.00339328 -3.666 0
M  V30 5527 H 528.668 2.35359 -4.44539 0
M  V30 5528 H 528.368 1.18422 -5.75543 0
M  V30 5529 H 529.892 2.11623 -5.72755 0
M  V30 5530 H 531.306 -0.155199 -5.7309 0
M  V30 5531 H 529.703 -0.920947 -5.92991 0
M  V30 5532 H 530.773 -1.46109 -4.62364 0
M  V30 5533 N 532.116 1.54067 -0.331816 0
M  V30 5534 C 533.064 2.26105 0.54582 0
M  V30 5535 C 534.058 1.27816 1.11173 0
M  V30 5536 O 535.264 1.45565 1.05882 0
M  V30 5537 H 531.639 0.726363 0.194683 0
M  V30 5538 H 533.61 2.98282 -0.083931 0
M  V30 5539 C 532.359 3.03814 1.69092 0
M  V30 5540 H 531.682 3.79269 1.26473 0
M  V30 5541 H 533.122 3.57453 2.28043 0
M  V30 5542 C 531.581 2.12606 2.61343 0
M  V30 5543 O 532.111 1.71437 3.6328 0
M  V30 5544 N 530.317 1.77925 2.29763 0
M  V30 5545 H 529.864 2.11602 1.46909 0
M  V30 5546 H 529.822 1.1718 2.91747 0
M  V30 5547 N 533.594 0.0601682 1.57485 0
M  V30 5548 C 534.84 -0.612501 1.93329 0
M  V30 5549 C 535.173 -1.6996 0.939526 0
M  V30 5550 O 534.448 -1.94472 -0.0330957 0
M  V30 5551 C 534.731 -1.20025 3.39508 0
M  V30 5552 C 534.584 -0.12059 4.49638 0
M  V30 5553 C 535.903 -2.10923 3.86264 0
M  V30 5554 H 533.022 -0.221185 0.703027 0
M  V30 5555 H 535.664 0.123768 1.89596 0
M  V30 5556 H 533.814 -1.82774 3.42821 0
M  V30 5557 H 535.486 0.51185 4.58452 0
M  V30 5558 H 533.729 0.550251 4.30296 0
M  V30 5559 H 534.4 -0.572019 5.49028 0
M  V30 5560 H 536.876 -1.58124 3.84884 0
M  V30 5561 H 535.752 -2.48987 4.8918 0
M  V30 5562 H 536.013 -3.01292 3.23536 0
M  V30 5563 N 535.072 -1.5615 -0.213296 0
M  V30 5564 C 536.483 -1.69645 -0.779582 0
M  V30 5565 C 536.834 -0.663615 -1.84636 0
M  V30 5566 O 535.959 0.183633 -2.15619 0
M  V30 5567 C 536.554 -3.07567 -1.42084 0
M  V30 5568 C 535.113 -3.22889 -1.93442 0
M  V30 5569 C 534.26 -2.65581 -0.797612 0
M  V30 5570 H 537.211 -1.58696 0.0114951 0
M  V30 5571 H 537.232 -3.03884 -2.28986 0
M  V30 5572 H 536.744 -3.82716 -0.644187 0
M  V30 5573 H 534.845 -2.52623 -2.73884 0
M  V30 5574 H 534.958 -4.30197 -2.10872 0
M  V30 5575 H 533.322 -2.24278 -1.20712 0
M  V30 5576 H 534.105 -3.43284 -0.033494 0
M  V30 5577 N 536.55 0.480323 -1.50102 0
M  V30 5578 C 537.966 0.813295 -1.37323 0
M  V30 5579 C 538.166 1.97027 -0.422206 0
M  V30 5580 O 537.222 2.5212 0.138563 0
M  V30 5581 C 538.535 1.13404 -2.78496 0
M  V30 5582 C 540.083 1.24104 -2.87345 0
M  V30 5583 C 540.558 1.59497 -4.29331 0
M  V30 5584 N 542.049 1.66507 -4.32238 0
M  V30 5585 C 542.784 1.95378 -5.39087 0
M  V30 5586 N 542.28 2.22333 -6.56155 0
M  V30 5587 N 544.073 1.96803 -5.26522 0
M  V30 5588 H 536.224 -0.282291 -2.10516 0
M  V30 5589 H 538.487 -0.063752 -0.945854 0
M  V30 5590 H 538.193 0.357064 -3.49883 0
M  V30 5591 H 538.067 2.07251 -3.15162 0
M  V30 5592 H 540.454 2.00871 -2.16183 0
M  V30 5593 H 540.535 0.282593 -2.54234 0
M  V30 5594 H 540.179 0.832736 -5.01027 0
M  V30 5595 H 540.109 2.56477 -4.59921 0
M  V30 5596 H 542.6 1.47753 -3.47818 0
M  V30 5597 H 542.913 2.43611 -7.33399 0
M  V30 5598 H 541.258 2.19745 -6.59346 0
M  V30 5599 H 544.449 1.75235 -4.34062 0
M  V30 5600 H 544.622 2.18969 -6.09883 0
M  V30 5601 N 538.028 1.39524 0.732853 0
M  V30 5602 C 538.958 1.41153 1.86005 0
M  V30 5603 C 539.939 0.274614 1.67869 0
M  V30 5604 O 541.124 0.480745 1.88155 0
M  V30 5605 C 538.254 1.25638 3.23778 0
M  V30 5606 C 537.208 2.36752 3.56556 0
M  V30 5607 C 536.534 2.06326 4.93289 0
M  V30 5608 C 537.834 3.79069 3.5931 0
M  V30 5609 H 539.528 2.35484 1.84899 0
M  V30 5610 H 537.074 1.13348 0.888162 0
M  V30 5611 H 539.027 1.25398 4.0231 0
M  V30 5612 H 537.751 0.277772 3.25417 0
M  V30 5613 H 536.41 2.36213 2.80355 0
M  V30 5614 H 536.058 1.06897 4.9151 0
M  V30 5615 H 535.758 2.80757 5.16187 0
M  V30 5616 H 537.282 2.07739 5.74175 0
M  V30 5617 H 538.696 3.81526 4.27914 0
M  V30 5618 H 537.093 4.52878 3.93728 0
M  V30 5619 H 538.163 4.09893 2.59068 0
M  V30 5620 N 539.506 -0.963266 1.24736 0
M  V30 5621 C 540.439 -2.05758 0.986852 0
M  V30 5622 C 541.417 -1.62398 -0.0809272 0
M  V30 5623 O 542.601 -1.88414 0.0569347 0
M  V30 5624 C 539.728 -3.35135 0.490095 0
M  V30 5625 C 538.774 -3.97451 1.54709 0
M  V30 5626 S 539.607 -4.34519 3.12976 0
M  V30 5627 C 540.763 -5.67026 2.65014 0
M  V30 5628 H 540.996 -2.27539 1.91346 0
M  V30 5629 H 538.529 -1.10176 1.08169 0
M  V30 5630 H 540.487 -4.09962 0.21012 0
M  V30 5631 H 539.148 -3.11335 -0.415873 0
M  V30 5632 H 538.341 -4.90704 1.15003 0
M  V30 5633 H 537.943 -3.29071 1.77731 0
M  V30 5634 H 540.235 -6.44748 2.08102 0
M  V30 5635 H 541.178 -6.11594 3.56873 0
M  V30 5636 H 541.586 -5.25847 2.05294 0
M  V30 5637 N 540.985 -1.06182 -1.16461 0
M  V30 5638 C 542.213 -0.798583 -1.90867 0
M  V30 5639 C 542.628 0.646921 -1.77371 0
M  V30 5640 O 541.985 1.44279 -1.11758 0
M  V30 5641 C 542.036 -1.18258 -3.4161 0
M  V30 5642 O 541.757 -2.57135 -3.54701 0
M  V30 5643 C 543.258 -0.946917 -4.33069 0
M  V30 5644 H 540.478 -0.289603 -0.605286 0
M  V30 5645 H 543.022 -1.41515 -1.47627 0
M  V30 5646 H 541.177 -0.610562 -3.82558 0
M  V30 5647 H 541.591 -2.72477 -4.4817 0
M  V30 5648 H 543.065 -1.26523 -5.37304 0
M  V30 5649 H 543.542 0.117406 -4.39043 0
M  V30 5650 H 544.148 -1.50326 -3.97847 0
M  V30 5651 N 542.463 1.3308 -0.844243 0
M  V30 5652 C 543.395 2.27954 -0.238671 0
M  V30 5653 C 544.408 1.51978 0.583665 0
M  V30 5654 O 545.597 1.73731 0.409857 0
M  V30 5655 C 542.697 3.31963 0.682185 0
M  V30 5656 C 541.87 4.37281 -0.101998 0
M  V30 5657 C 540.929 5.20928 0.743022 0
M  V30 5658 O 539.955 5.68914 0.180285 0
M  V30 5659 N 541.157 5.42738 2.0595 0
M  V30 5660 H 543.922 2.8056 -1.05386 0
M  V30 5661 H 541.483 1.4583 -0.70322 0
M  V30 5662 H 543.475 3.84828 1.25259 0
M  V30 5663 H 542.045 2.79594 1.39808 0
M  V30 5664 H 541.265 3.84843 -0.853802 0
M  V30 5665 H 542.553 5.04746 -0.641015 0
M  V30 5666 H 541.951 5.05463 2.54016 0
M  V30 5667 H 540.508 5.98639 2.57827 0
M  V30 5668 N 543.941 0.601185 1.45683 0
M  V30 5669 C 545.218 0.0261659 1.95582 0
M  V30 5670 C 545.598 -1.4399 1.5437 0
M  V30 5671 O 544.946 -2.13919 0.80318 0
M  V30 5672 C 545.156 0.217557 3.48321 0
M  V30 5673 C 546.504 0.0950076 4.24494 0
M  V30 5674 O 547.528 0.147345 3.55895 0
M  V30 5675 O 546.387 -0.025261 5.46494 0
M  V30 5676 H 543.481 -0.0393688 0.826062 0
M  V30 5677 H 546.027 0.670798 1.55879 0
M  V30 5678 H 544.799 1.23601 3.71266 0
M  V30 5679 H 544.422 -0.46264 3.94899 0
M  V30 5680 N 545.419 -1.53889 0.339982 0
M  V30 5681 C 546.659 -2.02765 -0.258011 0
M  V30 5682 C 547.023 -1.22249 -1.48051 0
M  V30 5683 O 548.224 -1.61007 -2.15245 0
M  V30 5684 C 546.495 -3.5286 -0.567872 0
M  V30 5685 S 548.054 -4.23647 -1.14318 0
M  V30 5686 H 544.872 -0.706814 -0.0770389 0
M  V30 5687 H 547.474 -1.89594 0.476917 0
M  V30 5688 H 546.178 -4.09073 0.329745 0
M  V30 5689 H 545.709 -3.70144 -1.33256 0
M  V30 5690 H 547.724 -4.32676 -2.42911 0
M  V30 5691 N 546.897 -0.0685191 -1.57451 0
M  V30 5692 C 547.827 0.89747 -2.15564 0
M  V30 5693 C 548.808 1.31266 -1.08181 0
M  V30 5694 O 549.993 1.38429 -1.36202 0
M  V30 5695 C 547.123 2.16623 -2.71463 0
M  V30 5696 C 546.077 1.89054 -3.83982 0
M  V30 5697 C 545.403 3.22532 -4.26471 0
M  V30 5698 C 546.703 1.1984 -5.08366 0
M  V30 5699 H 548.397 0.413373 -2.96533 0
M  V30 5700 H 545.943 0.197391 -1.42641 0
M  V30 5701 H 547.896 2.84614 -3.10761 0
M  V30 5702 H 546.62 2.67269 -1.8771 0
M  V30 5703 H 545.279 1.23469 -3.45183 0
M  V30 5704 H 544.927 3.71013 -3.39644 0
M  V30 5705 H 544.627 3.04879 -5.02317 0
M  V30 5706 H 546.151 3.91727 -4.68383 0
M  V30 5707 H 547.565 1.77896 -5.45001 0
M  V30 5708 H 545.962 1.12456 -5.89469 0
M  V30 5709 H 547.032 0.176996 -4.84577 0
M  V30 5710 N 548.375 1.56261 0.205012 0
M  V30 5711 C 549.307 1.90266 1.27795 0
M  V30 5712 C 550.32 0.792397 1.42214 0
M  V30 5713 O 551.509 1.07077 1.42817 0
M  V30 5714 C 548.609 2.11074 2.65143 0
M  V30 5715 C 547.782 3.42176 2.7246 0
M  V30 5716 C 546.841 3.52216 3.90936 0
M  V30 5717 O 545.867 4.25119 3.78501 0
M  V30 5718 N 547.069 2.84573 5.05963 0
M  V30 5719 H 549.834 2.82896 0.989434 0
M  V30 5720 H 547.395 1.57008 0.394981 0
M  V30 5721 H 549.387 2.15089 3.4281 0
M  V30 5722 H 547.957 1.2499 2.86524 0
M  V30 5723 H 547.177 3.50116 1.81142 0
M  V30 5724 H 548.465 4.28509 2.74331 0
M  V30 5725 H 547.863 2.25152 5.18963 0
M  V30 5726 H 546.42 2.94228 5.81613 0
M  V30 5727 N 549.853 -0.472356 1.50355 0
M  V30 5728 C 550.785 -1.58795 1.65278 0
M  V30 5729 C 551.798 -1.53782 0.534313 0
M  V30 5730 O 552.987 -1.59193 0.807446 0
M  V30 5731 C 550.087 -2.97672 1.62001 0
M  V30 5732 C 549.26 -3.27568 2.89859 0
M  V30 5733 C 548.319 -4.45993 2.79242 0
M  V30 5734 O 547.345 -4.46364 3.53197 0
M  V30 5735 N 548.547 -5.47578 1.92713 0
M  V30 5736 H 551.312 -1.46411 2.61503 0
M  V30 5737 H 548.873 -0.660751 1.47803 0
M  V30 5738 H 550.865 -3.74862 1.52513 0
M  V30 5739 H 549.435 -3.03832 0.735159 0
M  V30 5740 H 548.655 -2.39003 3.13483 0
M  V30 5741 H 549.943 -3.44352 3.74565 0
M  V30 5742 H 549.341 -5.50099 1.31939 0
M  V30 5743 H 547.898 -6.23757 1.8913 0
M  V30 5744 N 551.331 -1.39911 -0.725443 0
M  V30 5745 C 552.556 -1.41137 -1.5197 0
M  V30 5746 C 552.981 -0.010262 -1.88097 0
M  V30 5747 O 552.339 0.979184 -1.52583 0
M  V30 5748 C 552.387 -2.2994 -2.77777 0
M  V30 5749 O 551.491 -1.73586 -3.74088 0
M  V30 5750 H 550.832 -0.480219 -0.458569 0
M  V30 5751 H 553.362 -1.84023 -0.894249 0
M  V30 5752 H 553.372 -2.44785 -3.26411 0
M  V30 5753 H 552.047 -3.31759 -2.50816 0
M  V30 5754 H 550.624 -1.68035 -3.32894 0
M  V30 5755 N 552.809 0.956637 -1.25245 0
M  V30 5756 C 554.225 1.22733 -1.02023 0
M  V30 5757 C 554.425 1.99761 0.264186 0
M  V30 5758 O 553.481 2.32814 0.977436 0
M  V30 5759 C 554.794 2.00367 -2.24217 0
M  V30 5760 C 556.342 2.13418 -2.28958 0
M  V30 5761 C 556.817 2.9445 -3.50803 0
M  V30 5762 N 558.308 3.02029 -3.51187 0
M  V30 5763 C 559.043 3.65116 -4.42129 0
M  V30 5764 N 558.539 4.2983 -5.43339 0
M  V30 5765 N 560.332 3.62237 -4.29815 0
M  V30 5766 H 552.483 0.441282 -2.07765 0
M  V30 5767 H 554.746 0.257686 -0.912306 0
M  V30 5768 H 554.452 1.51165 -3.17556 0
M  V30 5769 H 554.326 3.01077 -2.27228 0
M  V30 5770 H 556.713 2.61819 -1.36143 0
M  V30 5771 H 556.794 1.1202 -2.29968 0
M  V30 5772 H 556.438 2.46741 -4.43939 0
M  V30 5773 H 556.368 3.9607 -3.47039 0
M  V30 5774 H 558.859 2.56007 -2.77973 0
M  V30 5775 H 559.172 4.75819 -6.08947 0
M  V30 5776 H 557.517 4.28465 -5.47214 0
M  V30 5777 H 560.708 3.10863 -3.49974 0
M  V30 5778 H 560.881 4.11117 -5.00886 0
M  V30 5779 N 554.287 1.06798 1.15896 0
M  V30 5780 C 555.234 0.683314 2.20453 0
M  V30 5781 C 556.204 -0.32255 1.62938 0
M  V30 5782 O 557.389 -0.210276 1.89638 0
M  V30 5783 C 554.529 0.0813266 3.45004 0
M  V30 5784 C 553.642 1.13799 4.16742 0
M  V30 5785 C 552.777 0.501598 5.28826 0
M  V30 5786 C 551.816 1.54144 5.92373 0
M  V30 5787 N 550.953 0.928038 6.9594 0
M  V30 5788 H 555.793 1.57932 2.52708 0
M  V30 5789 H 553.33 0.789544 1.24115 0
M  V30 5790 H 555.288 -0.285274 4.16224 0
M  V30 5791 H 553.918 -0.77806 3.13283 0
M  V30 5792 H 552.97 1.62223 3.44075 0
M  V30 5793 H 554.282 1.92664 4.60089 0
M  V30 5794 H 553.436 0.0823162 6.06644 0
M  V30 5795 H 552.175 -0.318883 4.86656 0
M  V30 5796 H 551.18 1.97056 5.13273 0
M  V30 5797 H 552.405 2.3641 6.36621 0
M  V30 5798 H 550.351 0.12836 6.55874 0
M  V30 5799 H 550.268 1.65401 7.37685 0
M  V30 5800 H 551.536 0.534071 7.77668 0
M  V30 5801 N 555.766 -1.3263 0.851289 0
M  V30 5802 C 557.012 -1.9766 0.453694 0
M  V30 5803 C 557.345 -1.67225 -0.987396 0
M  V30 5804 O 556.62 -0.958693 -1.69232 0
M  V30 5805 C 556.903 -3.5344 0.68936 0
M  V30 5806 C 556.756 -3.93517 2.17862 0
M  V30 5807 C 558.075 -4.39866 0.143555 0
M  V30 5808 H 555.194 -0.717989 0.166314 0
M  V30 5809 H 557.836 -1.57068 1.06909 0
M  V30 5810 H 555.986 -3.88147 0.165546 0
M  V30 5811 H 557.658 -3.69006 2.76826 0
M  V30 5812 H 555.901 -3.42798 2.65841 0
M  V30 5813 H 556.572 -5.02065 2.29422 0
M  V30 5814 H 559.048 -4.11875 0.591451 0
M  V30 5815 H 557.924 -5.47858 0.338043 0
M  V30 5816 H 558.185 -4.31696 -0.953466 0
M  V30 5817 N 557.244 -0.608902 -1.45362 0
M  V30 5818 C 558.492 -0.104401 -2.0183 0
M  V30 5819 C 558.813 1.27007 -1.47967 0
M  V30 5820 O 558.083 1.83924 -0.674455 0
M  V30 5821 H 556.663 -0.0356042 -0.746151 0
M  V30 5822 H 559.325 -0.790596 -1.78145 0
M  V30 5823 H 558.421 -0.0551793 -3.12051 0
M  V30 5824 N 558.722 1.53707 -0.348139 0
M  V30 5825 C 559.999 1.93247 0.302475 0
M  V30 5826 C 560.379 1.28012 1.67857 0
M  V30 5827 O 559.727 0.43274 2.24365 0
M  V30 5828 C 559.937 3.47031 0.370159 0
M  V30 5829 C 561.285 4.20066 0.61882 0
M  V30 5830 O 562.309 3.53319 0.452087 0
M  V30 5831 O 561.168 5.38318 0.94215 0
M  V30 5832 H 558.262 0.807736 0.177458 0
M  V30 5833 H 560.808 1.64927 -0.399651 0
M  V30 5834 H 559.58 3.86745 -0.59534 0
M  V30 5835 H 559.203 3.81532 1.11888 0
M  V30 5836 N 560.2 0.0768682 1.57412 0
M  V30 5837 C 561.425 -0.603404 1.98428 0
M  V30 5838 C 561.85 -1.62047 0.955108 0
M  V30 5839 O 561.208 -1.81129 -0.0786778 0
M  V30 5840 C 561.256 -1.24396 3.38464 0
M  V30 5841 O 560.36 -2.35982 3.3821 0
M  V30 5842 H 559.701 -0.154741 0.645718 0
M  V30 5843 H 562.231 0.152885 2.04028 0
M  V30 5844 H 562.241 -1.5896 3.7576 0
M  V30 5845 H 560.916 -0.498735 4.12899 0
M  V30 5846 H 559.493 -2.03173 3.1269 0
M  V30 5847 N 561.678 -1.56367 -0.196722 0
M  V30 5848 C 563.089 -1.70462 -0.761545 0
M  V30 5849 C 563.44 -0.683161 -1.83922 0
M  V30 5850 O 562.565 0.160753 -2.15802 0
M  V30 5851 C 563.16 -3.09057 -1.38814 0
M  V30 5852 C 561.719 -3.24922 -1.90007 0
M  V30 5853 C 560.866 -2.66412 -0.769399 0
M  V30 5854 H 563.817 -1.58675 0.0283263 0
M  V30 5855 H 563.838 -3.06296 -2.2575 0
M  V30 5856 H 563.35 -3.83378 -0.603559 0
M  V30 5857 H 561.451 -2.55514 -2.71189 0
M  V30 5858 H 561.564 -4.3241 -2.06297 0
M  V30 5859 H 559.928 -2.25546 -1.18326 0
M  V30 5860 H 560.711 -3.433 0.00291773 0
M  V30 5861 N 563.156 0.464375 -1.50603 0
M  V30 5862 C 564.104 1.58224 -1.70493 0
M  V30 5863 C 565.098 1.59492 -0.570836 0
M  V30 5864 O 566.304 1.63561 -0.751517 0
M  V30 5865 H 562.679 0.525161 -0.538247 0
M  V30 5866 H 564.65 1.38613 -2.64252 0
M  V30 5867 C 563.399 2.96113 -1.82243 0
M  V30 5868 H 562.722 2.95858 -2.68901 0
M  V30 5869 H 564.162 3.73769 -2.00182 0
M  V30 5870 C 562.621 3.31946 -0.575628 0
M  V30 5871 O 563.151 4.00708 0.282152 0
M  V30 5872 N 561.357 2.87436 -0.427665 0
M  V30 5873 H 560.904 2.31652 -1.12674 0
M  V30 5874 H 560.862 3.11776 0.405379 0
M  V30 5875 N 564.634 1.40294 0.718013 0
M  V30 5876 C 565.883 1.37746 1.4734 0
M  V30 5877 C 566.196 -0.0180754 1.95592 0
M  V30 5878 O 567.402 -0.166166 2.70991 0
M  V30 5879 C 565.858 2.4208 2.66318 0
M  V30 5880 C 565.466 3.87432 2.24945 0
M  V30 5881 C 567.21 2.48635 3.44065 0
M  V30 5882 C 565.117 4.83368 3.40748 0
M  V30 5883 H 564.047 0.512165 0.553356 0
M  V30 5884 H 566.698 1.66019 0.781661 0
M  V30 5885 H 565.08 2.06903 3.3765 0
M  V30 5886 H 566.254 4.3174 1.6105 0
M  V30 5887 H 564.569 3.8433 1.60249 0
M  V30 5888 H 567.166 3.17499 4.30231 0
M  V30 5889 H 567.509 1.51611 3.87711 0
M  V30 5890 H 568.042 2.82791 2.79775 0
M  V30 5891 H 564.781 5.81716 3.02136 0
M  V30 5892 H 564.301 4.43726 4.03568 0
M  V30 5893 H 565.98 5.03074 4.06848 0
M  V30 5894 N 566.112 -0.949982 1.2575 0
M  V30 5895 C 567.34 -1.72972 1.13527 0
M  V30 5896 C 567.755 -1.8623 -0.310453 0
M  V30 5897 O 567.112 -1.36336 -1.2132 0
M  V30 5898 C 567.163 -3.14108 1.78936 0
M  V30 5899 O 566.884 -3.01493 3.17858 0
M  V30 5900 C 568.385 -4.08338 1.72554 0
M  V30 5901 H 565.605 -0.541864 0.395758 0
M  V30 5902 H 568.149 -1.19151 1.66202 0
M  V30 5903 H 566.304 -3.64858 1.30221 0
M  V30 5904 H 566.718 -3.90559 3.50092 0
M  V30 5905 H 568.192 -5.04963 2.22973 0
M  V30 5906 H 568.669 -4.33742 0.690251 0
M  V30 5907 H 569.275 -3.63506 2.2078 0
M  V30 5908 N 567.59 -1.07411 -1.15328 0
M  V30 5909 C 568.5 -0.706438 -2.23711 0
M  V30 5910 C 569.516 0.282586 -1.7169 0
M  V30 5911 O 570.692 0.129066 -2.00986 0
M  V30 5912 C 567.757 -0.11048 -3.46524 0
M  V30 5913 C 566.818 -1.15282 -4.13532 0
M  V30 5914 C 566.051 -0.585205 -5.30482 0
M  V30 5915 O 566.274 0.598549 -5.67251 0
M  V30 5916 O 565.208 -1.33039 -5.87013 0
M  V30 5917 H 569.034 -1.61031 -2.57493 0
M  V30 5918 H 566.619 -0.847113 -1.23062 0
M  V30 5919 H 568.501 0.21957 -4.20828 0
M  V30 5920 H 567.176 0.766703 -3.14489 0
M  V30 5921 H 566.083 -1.53523 -3.41147 0
M  V30 5922 H 567.416 -2.00192 -4.49649 0
M  V30 5923 N 569.068 1.32177 -0.85831 0
M  V30 5924 C 570.298 2.01021 -0.476889 0
M  V30 5925 C 570.706 1.64653 0.931995 0
M  V30 5926 O 570.049 0.865713 1.62022 0
M  V30 5927 C 570.111 3.55413 -0.540528 0
M  V30 5928 C 569.775 4.1522 -1.90895 0
M  V30 5929 C 570.772 4.3318 -2.87491 0
M  V30 5930 C 568.457 4.51212 -2.20709 0
M  V30 5931 C 570.451 4.86306 -4.1205 0
M  V30 5932 C 568.138 5.04042 -3.45521 0
M  V30 5933 C 569.136 5.21538 -4.41007 0
M  V30 5934 O 568.824 5.73238 -5.63608 0
M  V30 5935 H 568.556 0.650059 -0.18547 0
M  V30 5936 H 571.11 1.69648 -1.15796 0
M  V30 5937 H 569.34 3.86196 0.19741 0
M  V30 5938 H 571.029 4.05526 -0.174191 0
M  V30 5939 H 571.795 4.05704 -2.65762 0
M  V30 5940 H 567.674 4.36878 -1.4717 0
M  V30 5941 H 571.218 4.99877 -4.86589 0
M  V30 5942 H 567.115 5.30952 -3.67098 0
M  V30 5943 H 567.883 5.91625 -5.65617 0
M  V30 5944 N 570.547 0.616602 1.45037 0
M  V30 5945 C 571.48 -0.145984 2.27733 0
M  V30 5946 C 572.458 -0.865108 1.37676 0
M  V30 5947 O 573.642 -0.872152 1.6711 0
M  V30 5948 C 570.769 -1.2122 3.16265 0
M  V30 5949 C 569.815 -0.595218 4.22326 0
M  V30 5950 S 570.648 0.603744 5.32086 0
M  V30 5951 C 571.804 -0.462842 6.24186 0
M  V30 5952 H 572.037 0.555591 2.92062 0
M  V30 5953 H 569.57 0.404364 1.49011 0
M  V30 5954 H 571.528 -1.82247 3.67827 0
M  V30 5955 H 570.189 -1.88589 2.51183 0
M  V30 5956 H 569.382 -1.39775 4.8423 0
M  V30 5957 H 568.984 -0.0598965 3.73952 0
M  V30 5958 H 571.276 -1.33945 6.64127 0
M  V30 5959 H 572.219 0.120259 7.07998 0
M  V30 5960 H 572.627 -0.782219 5.59054 0
M  V30 5961 N 572.025 -1.5352 0.356285 0
M  V30 5962 C 573.272 -2.01117 -0.236303 0
M  V30 5963 C 573.6 -1.24381 -1.49531 0
M  V30 5964 O 572.855 -0.323057 -1.93015 0
M  V30 5965 C 573.154 -3.52607 -0.583369 0
M  V30 5966 C 572.82 -4.47151 0.58023 0
M  V30 5967 C 571.482 -4.72718 0.899528 0
M  V30 5968 C 573.834 -5.03137 1.36024 0
M  V30 5969 C 571.162 -5.51523 2.00098 0
M  V30 5970 C 573.514 -5.83145 2.45204 0
M  V30 5971 C 572.178 -6.07001 2.77679 0
M  V30 5972 H 571.448 -0.735938 -0.0864695 0
M  V30 5973 H 574.095 -1.85209 0.48683 0
M  V30 5974 H 572.4 -3.66413 -1.38739 0
M  V30 5975 H 574.097 -3.86901 -1.05397 0
M  V30 5976 H 570.687 -4.27394 0.321322 0
M  V30 5977 H 574.871 -4.83339 1.12682 0
M  V30 5978 H 570.127 -5.68229 2.25668 0
M  V30 5979 H 574.301 -6.25537 3.06067 0
M  V30 5980 H 571.928 -6.67851 3.63151 0
M  V30 5981 N 573.503 -0.0852151 -1.57369 0
M  V30 5982 C 574.743 0.584297 -1.95871 0
M  V30 5983 C 575.107 1.6596 -0.965473 0
M  V30 5984 O 576.308 2.38561 -1.23862 0
M  V30 5985 C 574.579 1.13411 -3.38929 0
M  V30 5986 S 576.138 1.81687 -3.99419 0
M  V30 5987 H 572.956 0.19095 -0.684879 0
M  V30 5988 H 575.558 -0.162267 -1.94825 0
M  V30 5989 H 574.262 0.339845 -4.0899 0
M  V30 5990 H 573.793 1.91672 -3.43548 0
M  V30 5991 H 575.808 3.10037 -3.87417 0
M  V30 5992 N 574.981 1.5647 0.188427 0
M  V30 5993 C 575.944 1.9421 1.21718 0
M  V30 5994 C 576.944 0.823901 1.38089 0
M  V30 5995 O 578.134 1.09122 1.35787 0
M  V30 5996 C 575.266 2.22197 2.58537 0
M  V30 5997 H 576.459 2.86252 0.894418 0
M  V30 5998 H 574.012 1.50263 0.430211 0
M  V30 5999 H 574.747 1.32814 2.95856 0
M  V30 6000 H 574.532 3.03688 2.48025 0
M  V30 6001 H 576.022 2.52376 3.3271 0
M  V30 6002 N 576.459 -0.456382 1.50847 0
M  V30 6003 C 577.707 -1.20497 1.62249 0
M  V30 6004 C 578.028 -1.92156 0.331839 0
M  V30 6005 O 577.298 -1.84751 -0.651443 0
M  V30 6006 H 575.878 -0.447775 0.597918 0
M  V30 6007 H 578.54 -0.525099 1.87693 0
M  V30 6008 H 577.636 -1.94492 2.44089 0
M  V30 6009 N 577.937 -1.40673 -0.710563 0
M  V30 6010 C 579.167 -1.4234 -1.49742 0
M  V30 6011 C 579.575 -0.022821 -1.89186 0
M  V30 6012 O 578.918 0.964773 -1.56326 0
M  V30 6013 C 578.98 -2.25509 -2.79975 0
M  V30 6014 C 578.644 -3.73862 -2.62824 0
M  V30 6015 C 579.641 -4.66379 -2.29752 0
M  V30 6016 C 577.326 -4.17735 -2.78932 0
M  V30 6017 C 579.32 -6.00756 -2.13006 0
M  V30 6018 C 577.007 -5.5218 -2.61802 0
M  V30 6019 C 578.005 -6.43505 -2.28888 0
M  V30 6020 O 577.693 -7.75472 -2.11894 0
M  V30 6021 H 577.425 -0.487311 -0.468513 0
M  V30 6022 H 579.979 -1.8542 -0.883668 0
M  V30 6023 H 578.209 -1.77218 -3.43701 0
M  V30 6024 H 579.898 -2.19058 -3.41714 0
M  V30 6025 H 580.664 -4.33778 -2.16936 0
M  V30 6026 H 576.543 -3.46967 -3.03537 0
M  V30 6027 H 580.087 -6.72003 -1.87237 0
M  V30 6028 H 575.984 -5.84365 -2.74204 0
M  V30 6029 H 576.752 -7.86458 -2.26775 0
M  V30 6030 N 579.415 0.9433 -1.26252 0
M  V30 6031 C 580.64 1.72898 -1.14547 0
M  V30 6032 C 581.065 1.85761 0.295743 0
M  V30 6033 O 580.423 1.3463 1.21427 0
M  V30 6034 C 580.471 3.11471 -1.8171 0
M  V30 6035 O 579.575 3.97336 -1.10445 0
M  V30 6036 H 578.916 0.530555 -0.399259 0
M  V30 6037 H 581.446 1.18159 -1.67032 0
M  V30 6038 H 581.456 3.61872 -1.88449 0
M  V30 6039 H 580.131 3.01425 -2.86558 0
M  V30 6040 H 578.708 3.55788 -1.11666 0
M  V30 6041 N 580.893 1.08022 1.14757 0
M  V30 6042 C 582.17 0.720386 1.81851 0
M  V30 6043 C 582.55 -0.796375 1.95502 0
M  V30 6044 O 581.898 -1.71339 1.51179 0
M  V30 6045 C 582.108 1.44273 3.17783 0
M  V30 6046 C 583.456 1.59925 3.93331 0
M  V30 6047 O 584.48 1.40407 3.2736 0
M  V30 6048 O 583.339 1.92096 5.11626 0
M  V30 6049 H 580.433 0.257142 0.786007 0
M  V30 6050 H 582.979 1.18155 1.21809 0
M  V30 6051 H 581.751 2.47618 3.02987 0
M  V30 6052 H 581.374 0.97279 3.85516 0
M  V30 6053 N 582.371 -1.3172 0.865308 0
M  V30 6054 C 583.619 -1.96487 0.472995 0
M  V30 6055 C 583.94 -1.68761 -0.976975 0
M  V30 6056 O 583.21 -1.00051 -1.68424 0
M  V30 6057 H 581.79 -0.726947 0.171922 0
M  V30 6058 H 584.452 -1.60612 1.10407 0
M  V30 6059 H 583.548 -3.0574 0.62687 0
M  V30 6060 N 583.85 -0.624285 -1.44708 0
M  V30 6061 C 585.075 -0.131171 -2.06985 0
M  V30 6062 C 585.5 1.18234 -1.46295 0
M  V30 6063 O 584.858 1.72375 -0.561842 0
M  V30 6064 C 584.906 -0.0226724 -3.60593 0
M  V30 6065 O 584.01 1.02314 -3.99507 0
M  V30 6066 H 583.351 -0.0816556 -0.65896 0
M  V30 6067 H 585.88 -0.859027 -1.85693 0
M  V30 6068 H 585.891 0.170138 -4.07645 0
M  V30 6069 H 584.566 -0.981685 -4.04148 0
M  V30 6070 H 583.143 0.805452 -3.64097 0
M  V30 6071 N 585.328 1.53329 -0.364422 0
M  V30 6072 C 586.275 2.25698 0.482607 0
M  V30 6073 C 587.245 1.26325 1.07848 0
M  V30 6074 O 588.43 1.55104 1.11119 0
M  V30 6075 C 585.57 3.04873 1.61699 0
M  V30 6076 C 584.683 4.19135 1.0464 0
M  V30 6077 C 583.818 4.85754 2.14979 0
M  V30 6078 C 582.857 5.9205 1.5538 0
M  V30 6079 N 581.994 6.52365 2.59547 0
M  V30 6080 H 586.834 2.97666 -0.141032 0
M  V30 6081 H 584.371 1.46875 -0.0813692 0
M  V30 6082 H 586.329 3.49051 2.28516 0
M  V30 6083 H 584.959 2.35162 2.2113 0
M  V30 6084 H 584.011 3.79451 0.268553 0
M  V30 6085 H 585.323 4.95525 0.570653 0
M  V30 6086 H 584.477 5.3311 2.89619 0
M  V30 6087 H 583.216 4.08834 2.65906 0
M  V30 6088 H 582.221 5.44058 0.792549 0
M  V30 6089 H 583.446 6.7089 1.0528 0
M  V30 6090 H 581.392 5.78298 3.09689 0
M  V30 6091 H 581.309 7.2429 2.16655 0
M  V30 6092 H 582.577 7.0437 3.33892 0
M  V30 6093 N 586.806 0.0935595 1.57322 0
M  V30 6094 C 588.083 -0.612692 1.85756 0
M  V30 6095 C 588.463 -1.86439 0.99013 0
M  V30 6096 O 587.811 -2.28416 0.0621362 0
M  V30 6097 C 588.021 -0.929547 3.36393 0
M  V30 6098 C 589.369 -1.29366 4.04413 0
M  V30 6099 O 590.393 -1.02061 3.41265 0
M  V30 6100 O 589.252 -1.80498 5.15832 0
M  V30 6101 H 586.346 -0.306444 0.768128 0
M  V30 6102 H 588.892 0.126141 1.69231 0
M  V30 6103 H 587.664 -0.0414766 3.91278 0
M  V30 6104 H 587.287 -1.72441 3.5826 0
M  V30 6105 N 588.284 -1.56567 -0.180126 0
M  V30 6106 C 589.509 -1.85975 -0.918041 0
M  V30 6107 C 589.934 -0.678888 -1.75422 0
M  V30 6108 O 589.292 0.372168 -1.77439 0
M  V30 6109 C 589.34 -3.13731 -1.77779 0
M  V30 6110 O 588.444 -2.95335 -2.87838 0
M  V30 6111 H 587.785 -0.61196 -0.257683 0
M  V30 6112 H 590.315 -2.03798 -0.180923 0
M  V30 6113 H 590.325 -3.4491 -2.17948 0
M  V30 6114 H 589 -3.99293 -1.16352 0
M  V30 6115 H 587.577 -2.7549 -2.51316 0
M  V30 6116 N 589.762 0.448376 -1.51087 0
M  V30 6117 C 591.002 1.20832 -1.64861 0
M  V30 6118 C 591.366 1.88748 -0.351873 0
M  V30 6119 O 592.567 2.66307 -0.365265 0
M  V30 6120 C 590.838 2.20674 -2.81137 0
M  V30 6121 S 592.397 3.05303 -3.15176 0
M  V30 6122 H 589.215 0.40992 -0.580936 0
M  V30 6123 H 591.817 0.501624 -1.88955 0
M  V30 6124 H 590.521 1.69399 -3.73808 0
M  V30 6125 H 590.052 2.9594 -2.59198 0
M  V30 6126 H 592.067 4.22162 -2.60756 0
M  V30 6127 N 591.24 1.41047 0.703093 0
M  V30 6128 C 592.187 1.42302 1.81711 0
M  V30 6129 C 593.157 0.278336 1.63751 0
M  V30 6130 O 594.342 0.478266 1.84709 0
M  V30 6131 C 591.482 1.30362 3.19531 0
M  V30 6132 C 590.595 2.54638 3.48975 0
M  V30 6133 C 589.73 2.35047 4.76368 0
M  V30 6134 C 588.769 3.54837 4.98756 0
M  V30 6135 N 587.906 3.34363 6.1737 0
M  V30 6136 H 592.746 2.37516 1.79973 0
M  V30 6137 H 590.283 1.1795 0.878983 0
M  V30 6138 H 592.241 1.21443 3.99134 0
M  V30 6139 H 590.871 0.387602 3.20464 0
M  V30 6140 H 589.923 2.74037 2.63833 0
M  V30 6141 H 591.235 3.43766 3.61423 0
M  V30 6142 H 590.389 2.23552 5.64012 0
M  V30 6143 H 589.128 1.43363 4.66153 0
M  V30 6144 H 588.133 3.66795 4.09563 0
M  V30 6145 H 589.358 4.47464 5.10835 0
M  V30 6146 H 587.304 2.45373 6.08382 0
M  V30 6147 H 587.221 4.17063 6.30551 0
M  V30 6148 H 588.489 3.26626 7.07768 0
M  V30 6149 N 592.718 -0.936591 1.26751 0
M  V30 6150 C 593.966 -1.67998 1.12343 0
M  V30 6151 C 594.287 -1.92137 -0.332938 0
M  V30 6152 O 593.557 -1.52132 -1.23421 0
M  V30 6153 H 592.137 -0.622609 0.412756 0
M  V30 6154 H 594.799 -1.12509 1.59147 0
M  V30 6155 H 593.895 -2.65185 1.64571 0
M  V30 6156 N 594.196 -1.08629 -1.14182 0
M  V30 6157 C 595.473 -0.73002 -1.81466 0
M  V30 6158 C 595.853 0.785996 -1.95922 0
M  V30 6159 O 595.201 1.70535 -1.52086 0
M  V30 6160 C 595.411 -1.45957 -3.17014 0
M  V30 6161 C 596.759 -1.62008 -3.92477 0
M  V30 6162 O 597.783 -1.42141 -3.26611 0
M  V30 6163 O 596.642 -1.94806 -5.106 0
M  V30 6164 H 593.736 -0.261307 -0.784632 0
M  V30 6165 H 596.282 -1.188 -1.2118 0
M  V30 6166 H 595.054 -2.49221 -3.01669 0
M  V30 6167 H 594.677 -0.993222 -3.84995 0
M  V30 6168 N 595.674 1.31259 -0.872281 0
M  V30 6169 C 596.899 2.0133 -0.498099 0
M  V30 6170 C 597.324 1.65031 0.902568 0
M  V30 6171 O 596.682 0.860164 1.59596 0
M  V30 6172 C 596.73 3.54411 -0.665205 0
M  V30 6173 O 595.834 4.11347 0.294473 0
M  V30 6174 H 595.175 0.633844 -0.197832 0
M  V30 6175 H 597.705 1.67402 -1.17633 0
M  V30 6176 H 597.715 4.04147 -0.559373 0
M  V30 6177 H 596.39 3.80171 -1.68651 0
M  V30 6178 H 594.967 3.72624 0.143403 0
M  V30 6179 N 597.152 0.631951 1.44375 0
M  V30 6180 C 598.4 0.136497 2.01639 0
M  V30 6181 C 598.721 -1.24637 1.49969 0
M  V30 6182 O 597.991 -1.82827 0.70363 0
M  V30 6183 H 596.571 0.0474703 0.74549 0
M  V30 6184 H 599.233 0.818837 1.76865 0
M  V30 6185 H 598.329 0.104817 3.11924 0
M  V30 6186 N 598.631 -1.53133 0.372548 0
M  V30 6187 C 599.879 -2.00958 -0.214534 0
M  V30 6188 C 600.2 -1.26135 -1.48711 0
M  V30 6189 O 599.47 -0.376597 -1.92246 0
M  V30 6190 H 598.05 -0.742456 -0.0822664 0
M  V30 6191 H 600.712 -1.88367 0.500385 0
M  V30 6192 H 599.808 -3.09031 -0.436605 0
M  V30 6193 N 600.109 -0.101901 -1.5727 0
M  V30 6194 C 601.52 0.426173 -1.81771 0
M  V30 6195 C 601.871 1.67725 -1.01797 0
M  V30 6196 O 600.996 2.14958 -0.249386 0
M  V30 6197 C 601.591 0.779962 -3.297 0
M  V30 6198 C 600.15 1.25275 -3.54941 0
M  V30 6199 C 599.297 0.252814 -2.76145 0
M  V30 6200 H 602.248 -0.32726 -1.55289 0
M  V30 6201 H 602.269 1.63891 -3.43395 0
M  V30 6202 H 601.781 -0.130778 -3.8788 0
M  V30 6203 H 599.882 2.18097 -3.021 0
M  V30 6204 H 599.995 1.20988 -4.63572 0
M  V30 6205 H 598.359 0.736362 -2.43823 0
M  V30 6206 H 599.142 -0.650724 -3.37076 0
M  V30 6207 N 601.587 1.56661 0.17182 0
M  V30 6208 C 602.537 1.92781 1.21736 0
M  V30 6209 C 603.521 0.796065 1.39827 0
M  V30 6210 O 604.713 1.05924 1.41806 0
M  V30 6211 C 601.842 2.29079 2.55691 0
M  V30 6212 C 600.928 3.48765 2.41296 0
M  V30 6213 N 601.319 4.66022 1.96614 0
M  V30 6214 C 599.617 3.53362 2.72124 0
M  V30 6215 C 600.318 5.48159 1.94669 0
M  V30 6216 N 599.294 4.89189 2.37054 0
M  V30 6217 H 603.096 2.80926 0.863592 0
M  V30 6218 H 600.61 1.57889 0.380096 0
M  V30 6219 H 602.607 2.5315 3.31241 0
M  V30 6220 H 601.267 1.42272 2.91871 0
M  V30 6221 H 602.278 4.9025 1.66959 0
M  V30 6222 H 598.955 2.77033 3.12345 0
M  V30 6223 H 600.345 6.52121 1.61826 0
M  V30 6224 N 603.065 -0.440357 1.51323 0
M  V30 6225 C 604.028 -1.51679 1.71832 0
M  V30 6226 C 605.028 -1.49648 0.588386 0
M  V30 6227 O 606.218 -1.51724 0.855891 0
M  V30 6228 C 603.35 -2.91228 1.77199 0
M  V30 6229 H 604.543 -1.34799 2.67898 0
M  V30 6230 H 602.096 -0.66883 1.41267 0
M  V30 6231 H 602.831 -3.13516 0.829363 0
M  V30 6232 H 602.616 -2.94107 2.59314 0
M  V30 6233 H 604.106 -3.69321 1.94915 0
M  V30 6234 N 604.543 -1.41418 -0.695603 0
M  V30 6235 C 605.771 -1.4413 -1.48439 0
M  V30 6236 C 606.186 -0.0465698 -1.88743 0
M  V30 6237 O 605.543 0.934117 -1.56782 0
M  V30 6238 C 605.594 -2.34998 -2.74696 0
M  V30 6239 O 605.315 -3.69043 -2.36091 0
M  V30 6240 C 606.816 -2.46513 -3.68438 0
M  V30 6241 H 604.036 -0.490905 -0.457442 0
M  V30 6242 H 606.58 -1.85702 -0.856454 0
M  V30 6243 H 604.735 -1.96735 -3.33728 0
M  V30 6244 H 605.149 -4.17505 -3.17474 0
M  V30 6245 H 606.623 -3.1426 -4.53811 0
M  V30 6246 H 607.1 -1.49638 -4.12922 0
M  V30 6247 H 607.706 -2.85412 -3.1531 0
M  V30 6248 N 606.021 0.929856 -1.27246 0
M  V30 6249 C 606.971 2.01629 -1.06442 0
M  V30 6250 C 607.955 1.60899 0.00687842 0
M  V30 6251 O 609.147 1.75733 -0.211407 0
M  V30 6252 C 606.276 3.35849 -0.711361 0
M  V30 6253 C 605.362 3.8303 -1.82069 0
M  V30 6254 N 605.753 4.02743 -3.05993 0
M  V30 6255 C 604.051 4.12046 -1.70687 0
M  V30 6256 C 604.752 4.42001 -3.78167 0
M  V30 6257 N 603.728 4.4935 -3.05918 0
M  V30 6258 H 607.53 2.14898 -2.00489 0
M  V30 6259 H 605.044 1.11654 -1.17929 0
M  V30 6260 H 607.041 4.13343 -0.543442 0
M  V30 6261 H 605.701 3.23944 0.221517 0
M  V30 6262 H 606.712 3.89112 -3.41778 0
M  V30 6263 H 603.389 4.08866 -0.844681 0
M  V30 6264 H 604.779 4.6535 -4.84664 0
M  V30 6265 N 607.499 1.09233 1.13605 0
M  V30 6266 C 608.729 0.847677 1.88409 0
M  V30 6267 C 609.137 -0.604524 1.79282 0
M  V30 6268 O 608.48 -1.42773 1.15592 0
M  V30 6269 C 608.542 1.20153 3.38827 0
M  V30 6270 C 608.206 2.65824 3.71735 0
M  V30 6271 C 609.203 3.64072 3.71143 0
M  V30 6272 C 606.888 3.01894 4.01454 0
M  V30 6273 C 608.882 4.96419 3.99808 0
M  V30 6274 C 606.569 4.34433 4.29781 0
M  V30 6275 C 607.567 5.31505 4.28942 0
M  V30 6276 O 607.255 6.61659 4.56576 0
M  V30 6277 H 606.987 0.304813 0.603378 0
M  V30 6278 H 609.541 1.4573 1.44748 0
M  V30 6279 H 607.771 0.534946 3.82982 0
M  V30 6280 H 609.46 0.936349 3.94952 0
M  V30 6281 H 610.226 3.37549 3.4826 0
M  V30 6282 H 606.105 2.26971 4.01255 0
M  V30 6283 H 609.649 5.7218 3.99069 0
M  V30 6284 H 605.546 4.607 4.52135 0
M  V30 6285 H 606.314 6.67102 4.74254 0
M  V30 6286 N 608.977 -1.30795 0.87923 0
M  V30 6287 C 610.393 -1.48981 0.57243 0
M  V30 6288 C 610.593 -1.80719 -0.891236 0
M  V30 6289 O 609.649 -1.89136 -1.67283 0
M  V30 6290 C 610.962 -2.61721 1.48063 0
M  V30 6291 C 612.51 -2.75603 1.48365 0
M  V30 6292 C 612.985 -3.91449 2.37763 0
M  V30 6293 N 614.476 -3.98751 2.35695 0
M  V30 6294 C 615.211 -4.87684 3.01583 0
M  V30 6295 N 614.707 -5.81454 3.76674 0
M  V30 6296 N 616.5 -4.81005 2.90844 0
M  V30 6297 H 608.651 -1.08465 1.82617 0
M  V30 6298 H 610.914 -0.536813 0.781368 0
M  V30 6299 H 610.62 -2.45073 2.52254 0
M  V30 6300 H 610.494 -3.58071 1.18596 0
M  V30 6301 H 612.881 -2.9166 0.44927 0
M  V30 6302 H 612.962 -1.79891 1.81859 0
M  V30 6303 H 612.606 -3.76149 3.41283 0
M  V30 6304 H 612.536 -4.86487 2.01589 0
M  V30 6305 H 615.027 -3.31668 1.81121 0
M  V30 6306 H 615.34 -6.46063 4.24054 0
M  V30 6307 H 613.685 -5.81403 3.80782 0
M  V30 6308 H 616.876 -4.06728 2.31711 0
M  V30 6309 H 617.049 -5.50107 3.42471 0
M  V30 6310 N 610.455 -0.639598 -1.44038 0
M  V30 6311 C 611.703 -0.147188 -2.01563 0
M  V30 6312 C 612.024 1.2384 -1.50628 0
M  V30 6313 O 611.294 1.82452 -0.713316 0
M  V30 6314 H 609.874 -0.0514231 -0.745228 0
M  V30 6315 H 612.536 -0.828205 -1.76428 0
M  V30 6316 H 611.632 -0.121358 -3.11864 0
M  V30 6317 N 611.933 1.52934 -0.380664 0
M  V30 6318 C 613.161 2.05886 0.204599 0
M  V30 6319 C 613.576 1.25305 1.41223 0
M  V30 6320 O 612.933 0.297504 1.80059 0
M  V30 6321 C 612.984 3.56764 0.583249 0
M  V30 6322 O 612.705 4.34292 -0.576398 0
M  V30 6323 C 614.206 4.2603 1.2253 0
M  V30 6324 H 611.426 0.670193 0.0328991 0
M  V30 6325 H 613.97 1.97148 -0.543397 0
M  V30 6326 H 612.125 3.65603 1.28115 0
M  V30 6327 H 612.539 5.23819 -0.267119 0
M  V30 6328 H 614.013 5.32868 1.44068 0
M  V30 6329 H 614.49 3.80698 2.19011 0
M  V30 6330 H 615.096 4.21485 0.568407 0
M  V30 6331 N 613.412 0.11024 1.57214 0
M  V30 6332 C 614.658 -0.544479 1.95977 0
M  V30 6333 C 615.013 -1.64845 0.992171 0
M  V30 6334 O 614.306 -1.91589 0.0206981 0
M  V30 6335 C 614.5 -1.13102 3.39032 0
M  V30 6336 C 614.329 -0.0854079 4.49619 0
M  V30 6337 C 613.099 0.343373 5.04132 0
M  V30 6338 C 615.297 0.692232 5.0962 0
M  V30 6339 N 613.279 1.37567 5.98288 0
M  V30 6340 C 614.65 1.57596 5.99636 0
M  V30 6341 C 616.705 0.744085 4.92309 0
M  V30 6342 C 615.408 2.50701 6.74197 0
M  V30 6343 C 617.434 1.6628 5.67543 0
M  V30 6344 C 616.796 2.53412 6.57238 0
M  V30 6345 H 612.895 -0.169124 0.763493 0
M  V30 6346 H 615.479 0.196326 1.93708 0
M  V30 6347 H 613.65 -1.84158 3.41965 0
M  V30 6348 H 615.382 -1.74934 3.64939 0
M  V30 6349 H 612.137 -0.0473277 4.73576 0
M  V30 6350 H 612.561 1.89048 6.50069 0
M  V30 6351 H 617.203 0.0845825 4.22715 0
M  V30 6352 H 614.921 3.17669 7.43043 0
M  V30 6353 H 618.507 1.70825 5.56156 0
M  V30 6354 H 617.387 3.23347 7.14434 0
M  V30 6355 N 614.89 -1.56749 -0.16351 0
M  V30 6356 C 616.12 -1.86307 -0.892936 0
M  V30 6357 C 616.528 -0.6945 -1.75992 0
M  V30 6358 O 615.871 0.345384 -1.80424 0
M  V30 6359 C 615.933 -3.10372 -1.81409 0
M  V30 6360 C 615.597 -4.42913 -1.12593 0
M  V30 6361 C 616.594 -5.17608 -0.487661 0
M  V30 6362 C 614.279 -4.89646 -1.12035 0
M  V30 6363 C 616.273 -6.3723 0.14699 0
M  V30 6364 C 613.96 -6.09197 -0.481883 0
M  V30 6365 C 614.958 -6.82834 0.150678 0
M  V30 6366 O 614.646 -8.00116 0.779065 0
M  V30 6367 H 614.378 -0.622126 -0.264452 0
M  V30 6368 H 616.932 -2.04728 -0.166063 0
M  V30 6369 H 615.162 -2.87917 -2.58148 0
M  V30 6370 H 616.851 -3.26312 -2.41403 0
M  V30 6371 H 617.617 -4.8258 -0.483888 0
M  V30 6372 H 613.496 -4.32265 -1.60212 0
M  V30 6373 H 617.04 -6.94646 0.641325 0
M  V30 6374 H 612.937 -6.43688 -0.483266 0
M  V30 6375 H 613.705 -8.15678 0.679089 0
M  V30 6376 N 616.368 0.432326 -1.51554 0
M  V30 6377 C 617.298 1.53242 -1.76179 0
M  V30 6378 C 618.279 1.58717 -0.611801 0
M  V30 6379 O 619.464 1.74364 -0.855033 0
M  V30 6380 C 616.594 2.91278 -1.89141 0
M  V30 6381 C 615.548 3.00663 -3.04608 0
M  V30 6382 C 614.874 4.40728 -3.02759 0
M  V30 6383 C 616.174 2.74281 -4.44485 0
M  V30 6384 H 617.868 1.32886 -2.68294 0
M  V30 6385 H 615.414 0.637841 -1.29103 0
M  V30 6386 H 617.367 3.68203 -2.04951 0
M  V30 6387 H 616.091 3.12877 -0.936785 0
M  V30 6388 H 614.75 2.26179 -2.88511 0
M  V30 6389 H 614.398 4.59301 -2.05065 0
M  V30 6390 H 614.098 4.47936 -3.80299 0
M  V30 6391 H 615.622 5.19619 -3.20669 0
M  V30 6392 H 617.036 3.40936 -4.60907 0
M  V30 6393 H 615.433 2.92893 -5.23769 0
M  V30 6394 H 616.503 1.69856 -4.54177 0
M  V30 6395 N 617.846 1.41785 0.688094 0
M  V30 6396 C 619.074 1.44915 1.47673 0
M  V30 6397 C 619.489 0.0565786 1.88715 0
M  V30 6398 O 618.846 -0.92579 1.57275 0
M  V30 6399 C 618.897 2.36452 2.73446 0
M  V30 6400 O 618.618 3.7029 2.34131 0
M  V30 6401 C 620.119 2.48463 3.67125 0
M  V30 6402 H 617.339 0.493324 0.454832 0
M  V30 6403 H 619.883 1.86153 0.846594 0
M  V30 6404 H 618.038 1.98502 3.3268 0
M  V30 6405 H 618.452 4.19183 3.15255 0
M  V30 6406 H 619.926 3.16662 4.52138 0
M  V30 6407 H 620.403 1.51826 4.12123 0
M  V30 6408 H 621.009 2.8708 3.13792 0
M  V30 6409 N 619.324 -0.923095 1.27737 0
M  V30 6410 C 620.572 -1.66797 1.14119 0
M  V30 6411 C 620.893 -1.92479 -0.312541 0
M  V30 6412 O 620.163 -1.53432 -1.218 0
M  V30 6413 H 618.743 -0.618196 0.419336 0
M  V30 6414 H 621.405 -1.10815 1.60331 0
M  V30 6415 H 620.501 -2.63424 1.67374 0
M  V30 6416 N 620.802 -1.09834 -1.13024 0
M  V30 6417 C 622.051 -0.831806 -1.83749 0
M  V30 6418 C 622.364 0.644763 -1.84668 0
M  V30 6419 O 623.57 1.02697 -2.51327 0
M  V30 6420 C 622.026 -1.43817 -3.29916 0
M  V30 6421 C 621.634 -2.94759 -3.37374 0
M  V30 6422 C 623.378 -1.25077 -4.05655 0
M  V30 6423 C 621.285 -3.48461 -4.77838 0
M  V30 6424 H 620.215 -0.30751 -0.688443 0
M  V30 6425 H 622.866 -1.32156 -1.27307 0
M  V30 6426 H 621.248 -0.876106 -3.86187 0
M  V30 6427 H 622.422 -3.57228 -2.91076 0
M  V30 6428 H 620.737 -3.12581 -2.75103 0
M  V30 6429 H 623.334 -1.62649 -5.09362 0
M  V30 6430 H 623.677 -0.191782 -4.15858 0
M  V30 6431 H 624.21 -1.78057 -3.55725 0
M  V30 6432 H 620.949 -4.53998 -4.72828 0
M  V30 6433 H 620.469 -2.90757 -5.24615 0
M  V30 6434 H 622.148 -3.45914 -5.46766 0
M  V30 6435 N 622.28 1.30327 -0.886154 0
M  V30 6436 C 623.526 1.96388 -0.505941 0
M  V30 6437 C 623.859 1.69784 0.942712 0
M  V30 6438 O 623.134 1.00322 1.6663 0
M  V30 6439 C 623.417 3.51488 -0.782826 0
M  V30 6440 C 623.27 3.87603 -2.28219 0
M  V30 6441 C 624.589 4.39331 -0.260128 0
M  V30 6442 H 621.708 0.713327 -0.185292 0
M  V30 6443 H 624.35 1.54178 -1.11036 0
M  V30 6444 H 622.5 3.87572 -0.268399 0
M  V30 6445 H 624.172 3.61537 -2.86512 0
M  V30 6446 H 622.415 3.3563 -2.74837 0
M  V30 6447 H 623.086 4.95806 -2.42653 0
M  V30 6448 H 625.562 4.10162 -0.700444 0
M  V30 6449 H 624.438 5.46769 -0.483179 0
M  V30 6450 H 624.699 4.34072 0.838674 0
M  V30 6451 N 623.758 0.647228 1.43697 0
M  V30 6452 C 624.983 0.164083 2.0675 0
M  V30 6453 C 625.408 -1.15892 1.48158 0
M  V30 6454 O 624.766 -1.71459 0.589194 0
M  V30 6455 C 624.814 0.0800368 3.60511 0
M  V30 6456 O 623.918 -0.959453 4.01084 0
M  V30 6457 H 623.259 0.0921288 0.657578 0
M  V30 6458 H 625.789 0.88846 1.84303 0
M  V30 6459 H 625.799 -0.105263 4.07864 0
M  V30 6460 H 624.474 1.04586 4.02535 0
M  V30 6461 H 623.051 -0.747425 3.65333 0
M  V30 6462 N 625.236 -1.5273 0.388769 0
M  V30 6463 C 626.482 -2.02545 -0.186351 0
M  V30 6464 C 626.837 -1.27017 -1.44514 0
M  V30 6465 O 626.13 -0.361948 -1.8815 0
M  V30 6466 C 626.324 -3.53765 -0.508445 0
M  V30 6467 C 626.153 -4.43938 0.71758 0
M  V30 6468 C 624.923 -4.89933 1.23668 0
M  V30 6469 C 627.121 -4.89113 1.58974 0
M  V30 6470 N 625.103 -5.64176 2.42031 0
M  V30 6471 C 626.474 -5.61931 2.61979 0
M  V30 6472 C 628.529 -4.71155 1.60989 0
M  V30 6473 C 627.232 -6.18698 3.66886 0
M  V30 6474 C 629.258 -5.28804 2.64803 0
M  V30 6475 C 628.62 -6.01527 3.6653 0
M  V30 6476 H 624.719 -0.781413 -0.0302921 0
M  V30 6477 H 627.303 -1.87104 0.538539 0
M  V30 6478 H 625.474 -3.6932 -1.20239 0
M  V30 6479 H 627.206 -3.9028 -1.07067 0
M  V30 6480 H 623.961 -4.66833 0.797763 0
M  V30 6481 H 624.385 -6.05949 3.01919 0
M  V30 6482 H 629.027 -4.14435 0.836881 0
M  V30 6483 H 626.745 -6.74501 4.45055 0
M  V30 6484 H 630.331 -5.1679 2.67245 0
M  V30 6485 H 629.211 -6.45339 4.45542 0
M  V30 6486 N 626.714 -0.118576 -1.57153 0
M  V30 6487 C 627.962 0.538461 -1.94795 0
M  V30 6488 C 628.283 1.67243 -1.00274 0
M  V30 6489 O 627.553 1.95811 -0.0589692 0
M  V30 6490 H 626.133 0.201904 -0.719197 0
M  V30 6491 H 628.795 -0.187418 -1.93997 0
M  V30 6492 H 627.891 0.933315 -2.97818 0
M  V30 6493 N 628.193 1.56834 0.155195 0
M  V30 6494 C 629.125 1.94235 1.21677 0
M  V30 6495 C 630.138 0.83724 1.39621 0
M  V30 6496 O 631.327 1.11567 1.39338 0
M  V30 6497 C 628.427 2.19402 2.58294 0
M  V30 6498 C 627.6 3.50671 2.61436 0
M  V30 6499 C 626.659 3.64475 3.79532 0
M  V30 6500 O 625.685 4.36945 3.64784 0
M  V30 6501 N 626.887 3.00526 4.96653 0
M  V30 6502 H 629.652 2.85901 0.898932 0
M  V30 6503 H 627.213 1.58185 0.34483 0
M  V30 6504 H 629.205 2.25886 3.35794 0
M  V30 6505 H 627.775 1.34042 2.82403 0
M  V30 6506 H 626.995 3.55702 1.69912 0
M  V30 6507 H 628.283 4.3702 2.60559 0
M  V30 6508 H 627.681 2.41549 5.11538 0
M  V30 6509 H 626.238 3.12583 5.71958 0
M  V30 6510 N 629.671 -0.424282 1.51781 0
M  V30 6511 C 630.919 -1.17028 1.64769 0
M  V30 6512 C 631.24 -1.91409 0.372523 0
M  V30 6513 O 630.51 -1.86091 -0.612108 0
M  V30 6514 H 629.09 -0.434992 0.607282 0
M  V30 6515 H 631.752 -0.485169 1.88765 0
M  V30 6516 H 630.848 -1.8927 2.4816 0
M  V30 6517 N 631.149 -1.42148 -0.680565 0
M  V30 6518 C 632.389 -1.4379 -1.45271 0
M  V30 6519 C 632.753 -0.0504426 -1.91934 0
M  V30 6520 O 633.954 0.0583916 -2.68737 0
M  V30 6521 C 632.225 -2.42904 -2.62168 0
M  V30 6522 S 633.784 -2.63201 -3.51099 0
M  V30 6523 H 630.602 -0.509185 -0.496237 0
M  V30 6524 H 633.204 -1.78706 -0.792744 0
M  V30 6525 H 631.908 -3.4249 -2.26116 0
M  V30 6526 H 631.439 -2.09394 -3.33043 0
M  V30 6527 H 633.454 -1.91068 -4.57938 0
M  V30 6528 N 632.627 0.916307 -1.28225 0
M  V30 6529 C 633.59 1.99996 -1.11957 0
M  V30 6530 C 634.59 1.60688 -0.0600152 0
M  V30 6531 O 635.78 1.71499 -0.30558 0
M  V30 6532 C 632.912 3.33458 -0.708411 0
M  V30 6533 H 634.105 2.15858 -2.08196 0
M  V30 6534 H 631.658 1.09863 -1.11175 0
M  V30 6535 H 632.393 3.23297 0.254859 0
M  V30 6536 H 632.178 3.63349 -1.47377 0
M  V30 6537 H 633.668 4.13014 -0.617164 0
M  V30 6538 N 634.105 1.10431 1.1244 0
M  V30 6539 C 635.333 0.868872 1.87772 0
M  V30 6540 C 635.748 -0.580645 1.7965 0
M  V30 6541 O 635.105 -1.40031 1.17036 0
M  V30 6542 C 635.156 1.30855 3.36986 0
M  V30 6543 O 634.877 2.70123 3.44914 0
M  V30 6544 C 636.378 1.107 4.29256 0
M  V30 6545 H 633.598 0.311868 0.59412 0
M  V30 6546 H 636.142 1.46897 1.42273 0
M  V30 6547 H 634.297 0.752126 3.80029 0
M  V30 6548 H 634.711 2.88923 4.37748 0
M  V30 6549 H 636.185 1.46378 5.32238 0
M  V30 6550 H 636.662 0.0456228 4.39176 0
M  V30 6551 H 637.268 1.64988 3.91994 0
M  V30 6552 N 635.583 -1.29855 0.893053 0
M  V30 6553 C 636.829 -1.96116 0.516349 0
M  V30 6554 C 637.162 -1.70281 -0.933695 0
M  V30 6555 O 636.437 -1.01205 -1.66096 0
M  V30 6556 C 636.72 -3.51068 0.801455 0
M  V30 6557 C 636.573 -3.86387 2.30272 0
M  V30 6558 C 637.892 -4.39186 0.283423 0
M  V30 6559 H 635.011 -0.712335 0.189072 0
M  V30 6560 H 637.653 -1.53587 1.11852 0
M  V30 6561 H 635.803 -3.87424 0.288949 0
M  V30 6562 H 637.475 -3.60012 2.88425 0
M  V30 6563 H 635.718 -3.34167 2.76613 0
M  V30 6564 H 636.389 -4.94512 2.45279 0
M  V30 6565 H 638.865 -4.09785 0.722187 0
M  V30 6566 H 637.741 -5.46505 0.512169 0
M  V30 6567 H 638.002 -4.34511 -0.815643 0
M  V30 6568 N 637.061 -0.65484 -1.43351 0
M  V30 6569 C 638.309 -0.168559 -2.01396 0
M  V30 6570 C 638.63 1.22235 -1.51933 0
M  V30 6571 O 637.9 1.81685 -0.732627 0
M  V30 6572 H 636.48 -0.0593244 -0.744641 0
M  V30 6573 H 639.142 -0.846871 -1.75539 0
M  V30 6574 H 638.238 -0.154428 -3.11718 0
M  V30 6575 N 638.539 1.52521 -0.396863 0
M  V30 6576 C 639.489 2.2348 0.451722 0
M  V30 6577 C 640.473 1.2415 1.0235 0
M  V30 6578 O 641.665 1.4945 0.948348 0
M  V30 6579 C 638.794 3.05067 1.57445 0
M  V30 6580 C 637.88 4.11799 1.01404 0
M  V30 6581 N 638.271 5.05482 0.179234 0
M  V30 6582 C 636.569 4.27064 1.28578 0
M  V30 6583 C 637.27 5.81552 -0.131202 0
M  V30 6584 N 636.246 5.41523 0.474735 0
M  V30 6585 H 640.048 2.93269 -0.192534 0
M  V30 6586 H 637.562 1.61081 -0.206591 0
M  V30 6587 H 639.559 3.54446 2.19485 0
M  V30 6588 H 638.219 2.36816 2.22145 0
M  V30 6589 H 639.23 5.17573 -0.18411 0
M  V30 6590 H 635.907 3.70042 1.93327 0
M  V30 6591 H 637.297 6.67023 -0.808061 0
M  V30 6592 N 640.017 0.126909 1.57088 0
M  V30 6593 C 641.264 -0.529168 1.95464 0
M  V30 6594 C 641.592 -1.6618 1.01067 0
M  V30 6595 O 640.847 -1.95667 0.0360254 0
M  V30 6596 C 641.146 -1.095 3.40212 0
M  V30 6597 C 640.812 -0.0829015 4.50824 0
M  V30 6598 C 639.474 0.195377 4.80803 0
M  V30 6599 C 641.826 0.606411 5.1766 0
M  V30 6600 C 639.154 1.16912 5.74933 0
M  V30 6601 C 641.506 1.56884 6.12838 0
M  V30 6602 C 640.17 1.85502 6.41206 0
M  V30 6603 H 639.44 -0.193636 0.715252 0
M  V30 6604 H 642.087 0.209489 1.90351 0
M  V30 6605 H 640.392 -1.91058 3.42059 0
M  V30 6606 H 642.089 -1.61087 3.67222 0
M  V30 6607 H 638.679 -0.309979 4.27478 0
M  V30 6608 H 642.863 0.404597 4.94648 0
M  V30 6609 H 638.119 1.3975 5.95214 0
M  V30 6610 H 642.293 2.10859 6.6371 0
M  V30 6611 H 639.92 2.61109 7.13951 0
M  V30 6612 N 641.495 -1.56914 -0.146875 0
M  V30 6613 C 642.743 -1.82994 -0.85777 0
M  V30 6614 C 643.064 -0.707814 -1.817 0
M  V30 6615 O 642.334 0.270521 -1.94023 0
M  V30 6616 H 640.914 -0.675106 -0.319751 0
M  V30 6617 H 643.576 -1.9439 -0.140849 0
M  V30 6618 H 642.672 -2.77928 -1.41994 0
M  V30 6619 N 642.974 0.416227 -1.52004 0
M  V30 6620 C 644.22 1.16555 -1.6596 0
M  V30 6621 C 644.553 1.90347 -0.384906 0
M  V30 6622 O 643.828 1.84474 0.616405 0
M  V30 6623 C 644.111 2.1657 -2.87696 0
M  V30 6624 C 643.964 1.46722 -4.25197 0
M  V30 6625 C 645.283 3.17321 -3.04951 0
M  V30 6626 H 642.402 0.422369 -0.603965 0
M  V30 6627 H 645.044 0.452141 -1.84542 0
M  V30 6628 H 643.194 2.77411 -2.71985 0
M  V30 6629 H 644.866 0.89056 -4.52622 0
M  V30 6630 H 643.109 0.769263 -4.26925 0
M  V30 6631 H 643.78 2.19665 -5.0641 0
M  V30 6632 H 646.256 2.66552 -3.19514 0
M  V30 6633 H 645.132 3.84573 -3.91656 0
M  V30 6634 H 645.393 3.84643 -2.17951 0
M  V30 6635 N 644.452 1.42507 0.673017 0
M  V30 6636 C 645.682 1.46261 1.45916 0
M  V30 6637 C 646.09 0.0729724 1.89059 0
M  V30 6638 O 645.433 -0.922987 1.58829 0
M  V30 6639 C 645.495 2.32853 2.73898 0
M  V30 6640 C 645.159 3.80699 2.52819 0
M  V30 6641 C 646.156 4.72307 2.17306 0
M  V30 6642 C 643.841 4.24983 2.67758 0
M  V30 6643 C 645.835 6.06192 1.97003 0
M  V30 6644 C 643.522 5.58927 2.4707 0
M  V30 6645 C 644.52 6.49348 2.11746 0
M  V30 6646 O 644.208 7.80817 1.91259 0
M  V30 6647 H 643.94 0.499561 0.455428 0
M  V30 6648 H 646.494 1.87697 0.834196 0
M  V30 6649 H 644.724 1.86268 3.38882 0
M  V30 6650 H 646.413 2.28041 3.35786 0
M  V30 6651 H 647.179 4.39378 2.05359 0
M  V30 6652 H 643.058 3.54893 2.94231 0
M  V30 6653 H 646.602 6.76731 1.69355 0
M  V30 6654 H 642.499 5.91429 2.58615 0
M  V30 6655 H 643.267 7.92194 2.05843 0
M  V30 6656 N 645.93 -0.909495 1.28709 0
M  V30 6657 C 647.158 -1.69272 1.18973 0
M  V30 6658 C 647.573 -1.87123 -0.251048 0
M  V30 6659 O 646.93 -1.40127 -1.16922 0
M  V30 6660 C 646.981 -3.08257 1.88839 0
M  V30 6661 O 646.702 -2.91228 3.27289 0
M  V30 6662 C 648.203 -4.02642 1.85457 0
M  V30 6663 H 645.423 -0.528999 0.412797 0
M  V30 6664 H 647.967 -1.13803 1.69909 0
M  V30 6665 H 646.122 -3.6053 1.41762 0
M  V30 6666 H 646.536 -3.79223 3.6234 0
M  V30 6667 H 648.01 -4.97613 2.38925 0
M  V30 6668 H 648.487 -4.31327 0.827893 0
M  V30 6669 H 649.093 -3.56298 2.32233 0
M  V30 6670 N 647.408 -1.11026 -1.11852 0
M  V30 6671 C 648.824 -0.843294 -1.35502 0
M  V30 6672 C 649.024 0.534179 -1.9429 0
M  V30 6673 O 648.08 1.28585 -2.17307 0
M  V30 6674 C 649.393 -1.94793 -2.29077 0
M  V30 6675 C 650.941 -1.97709 -2.42652 0
M  V30 6676 C 651.416 -3.07364 -3.39546 0
M  V30 6677 N 652.907 -3.0671 -3.47107 0
M  V30 6678 C 653.642 -3.88197 -4.22008 0
M  V30 6679 N 653.138 -4.79635 -4.99922 0
M  V30 6680 N 654.931 -3.76391 -4.17476 0
M  V30 6681 H 647.082 -1.99805 -0.720538 0
M  V30 6682 H 649.345 -0.868633 -0.379711 0
M  V30 6683 H 649.051 -2.93971 -1.93065 0
M  V30 6684 H 648.925 -1.84039 -3.29256 0
M  V30 6685 H 651.312 -0.991604 -2.77941 0
M  V30 6686 H 651.393 -2.1254 -1.4234 0
M  V30 6687 H 651.037 -4.06136 -3.04985 0
M  V30 6688 H 650.967 -2.89774 -4.39703 0
M  V30 6689 H 653.458 -2.40457 -2.91528 0
M  V30 6690 H 653.771 -5.38357 -5.54429 0
M  V30 6691 H 652.116 -4.8366 -4.99097 0
M  V30 6692 H 655.307 -3.04303 -3.55693 0
M  V30 6693 H 655.48 -4.40131 -4.75593 0
M  V30 6694 N 648.886 1.2938 -0.899927 0
M  V30 6695 C 650.132 1.9584 -0.526742 0
M  V30 6696 C 650.465 1.70774 0.924651 0
M  V30 6697 O 649.74 1.02084 1.65557 0
M  V30 6698 C 650.023 3.50638 -0.820062 0
M  V30 6699 C 649.876 3.85161 -2.32317 0
M  V30 6700 C 651.195 4.3903 -0.30671 0
M  V30 6701 H 648.314 0.711322 -0.192848 0
M  V30 6702 H 650.956 1.52992 -1.12665 0
M  V30 6703 H 649.106 3.87265 -0.309491 0
M  V30 6704 H 650.778 3.58477 -2.9033 0
M  V30 6705 H 649.021 3.32696 -2.78381 0
M  V30 6706 H 649.692 4.93204 -2.47898 0
M  V30 6707 H 652.168 4.09396 -0.743908 0
M  V30 6708 H 651.044 5.46226 -0.541144 0
M  V30 6709 H 651.305 4.34937 0.792588 0
M  V30 6710 N 650.364 0.662433 1.43002 0
M  V30 6711 C 651.589 0.186003 2.06564 0
M  V30 6712 C 652.014 -1.14314 1.49379 0
M  V30 6713 O 651.372 -1.70824 0.607346 0
M  V30 6714 C 651.42 0.118269 3.60406 0
M  V30 6715 O 650.524 -0.916859 4.02079 0
M  V30 6716 H 649.865 0.0990981 0.656563 0
M  V30 6717 H 652.395 0.907958 1.8335 0
M  V30 6718 H 652.405 -0.0619981 4.07953 0
M  V30 6719 H 651.08 1.08849 4.01403 0
M  V30 6720 H 649.657 -0.708635 3.66105 0
M  V30 6721 N 651.842 -1.52309 0.404946 0
M  V30 6722 C 652.774 -2.24579 -0.45791 0
M  V30 6723 C 653.787 -1.2739 -1.01369 0
M  V30 6724 O 654.976 -1.53363 -0.91335 0
M  V30 6725 C 652.076 -2.9608 -1.64893 0
M  V30 6726 C 651.249 -4.20106 -1.21777 0
M  V30 6727 C 650.308 -4.74468 -2.27523 0
M  V30 6728 O 649.334 -5.37157 -1.88285 0
M  V30 6729 N 650.536 -4.55678 -3.59635 0
M  V30 6730 H 653.301 -2.99265 0.161341 0
M  V30 6731 H 650.862 -1.60228 0.232107 0
M  V30 6732 H 652.854 -3.29344 -2.35191 0
M  V30 6733 H 651.424 -2.24606 -2.17419 0
M  V30 6734 H 650.644 -3.92704 -0.343071 0
M  V30 6735 H 651.932 -5.00658 -0.906596 0
M  V30 6736 H 651.33 -4.05673 -3.94266 0
M  V30 6737 H 649.887 -4.9339 -4.25922 0
M  V30 6738 N 653.32 -0.135238 -1.57019 0
M  V30 6739 C 654.55 0.525303 -1.9981 0
M  V30 6740 C 654.958 1.59724 -1.01415 0
M  V30 6741 O 654.301 1.837 -0.00130938 0
M  V30 6742 C 654.363 1.19578 -3.3903 0
M  V30 6743 C 654.027 0.269855 -4.56203 0
M  V30 6744 C 655.024 -0.497905 -5.1751 0
M  V30 6745 C 652.709 0.176188 -5.01991 0
M  V30 6746 C 654.703 -1.3469 -6.23007 0
M  V30 6747 C 652.39 -0.676422 -6.07345 0
M  V30 6748 C 653.388 -1.43658 -6.67721 0
M  V30 6749 O 653.076 -2.27501 -7.71037 0
M  V30 6750 H 652.808 0.142296 -0.660854 0
M  V30 6751 H 655.362 -0.223272 -2.04183 0
M  V30 6752 H 653.592 1.99176 -3.3146 0
M  V30 6753 H 655.281 1.75486 -3.66005 0
M  V30 6754 H 656.047 -0.435507 -4.83041 0
M  V30 6755 H 651.926 0.757583 -4.54733 0
M  V30 6756 H 655.47 -1.9407 -6.70062 0
M  V30 6757 H 651.367 -0.740154 -6.41243 0
M  V30 6758 H 652.135 -2.20619 -7.88206 0
M  V30 6759 N 654.798 1.5699 0.138552 0
M  V30 6760 C 656.047 1.82998 0.848205 0
M  V30 6761 C 656.36 0.717829 1.81952 0
M  V30 6762 O 657.566 0.863756 2.57394 0
M  V30 6763 C 656.022 3.24379 1.55904 0
M  V30 6764 C 655.63 4.43552 0.62971 0
M  V30 6765 C 657.374 3.59654 2.25498 0
M  V30 6766 C 655.281 5.75957 1.34266 0
M  V30 6767 H 654.211 0.682495 0.320495 0
M  V30 6768 H 656.862 1.83222 0.100924 0
M  V30 6769 H 655.244 3.18567 2.35226 0
M  V30 6770 H 656.418 4.6062 -0.128882 0
M  V30 6771 H 654.733 4.16379 0.0417526 0
M  V30 6772 H 657.33 4.55837 2.79493 0
M  V30 6773 H 657.673 2.86124 3.02388 0
M  V30 6774 H 658.206 3.67164 1.53087 0
M  V30 6775 H 654.945 6.52604 0.615441 0
M  V30 6776 H 654.465 5.62811 2.07375 0
M  V30 6777 H 656.144 6.19046 1.88126 0
M  V30 6778 N 656.276 -0.40816 1.52223 0
M  V30 6779 C 657.186 -1.52202 1.78526 0
M  V30 6780 C 658.202 -1.60546 0.670892 0
M  V30 6781 O 659.378 -1.77242 0.956404 0
M  V30 6782 C 656.443 -2.87928 1.93128 0
M  V30 6783 C 655.504 -2.89463 3.17033 0
M  V30 6784 C 654.737 -4.18715 3.30929 0
M  V30 6785 O 654.96 -5.12662 2.50067 0
M  V30 6786 O 653.894 -4.27125 4.24084 0
M  V30 6787 H 657.72 -1.32911 2.73072 0
M  V30 6788 H 655.305 -0.594112 1.37079 0
M  V30 6789 H 657.187 -3.68426 2.04549 0
M  V30 6790 H 655.862 -3.07285 1.01772 0
M  V30 6791 H 654.769 -2.07815 3.11069 0
M  V30 6792 H 656.102 -2.75055 4.08174 0
M  V30 6793 N 657.755 -1.42862 -0.66545 0
M  V30 6794 C 659.001 -1.4504 -1.426 0
M  V30 6795 C 659.356 -0.0690217 -1.92276 0
M  V30 6796 O 658.649 0.91036 -1.68591 0
M  V30 6797 C 658.843 -2.4175 -2.63233 0
M  V30 6798 C 658.672 -3.89155 -2.25362 0
M  V30 6799 C 657.442 -4.57619 -2.14273 0
M  V30 6800 C 659.64 -4.79326 -1.86417 0
M  V30 6801 N 657.622 -5.90006 -1.69604 0
M  V30 6802 C 658.993 -6.00892 -1.52738 0
M  V30 6803 C 661.048 -4.66696 -1.73492 0
M  V30 6804 C 659.751 -7.11232 -1.0743 0
M  V30 6805 C 661.777 -5.77027 -1.29589 0
M  V30 6806 C 661.139 -6.97712 -0.968393 0
M  V30 6807 H 657.238 -0.585889 -0.517936 0
M  V30 6808 H 659.822 -1.78956 -0.767002 0
M  V30 6809 H 657.993 -2.09881 -3.26809 0
M  V30 6810 H 659.725 -2.34447 -3.29874 0
M  V30 6811 H 656.48 -4.11957 -2.33641 0
M  V30 6812 H 656.904 -6.60249 -1.49666 0
M  V30 6813 H 661.546 -3.7386 -1.97455 0
M  V30 6814 H 659.264 -8.03907 -0.822147 0
M  V30 6815 H 662.85 -5.6927 -1.20095 0
M  V30 6816 H 661.73 -7.81634 -0.63384 0
M  V30 6817 N 659.233 0.902656 -1.29189 0
M  V30 6818 C 660.163 2.02294 -1.16616 0
M  V30 6819 C 661.144 1.6999 -0.0611175 0
M  V30 6820 O 662.329 1.9271 -0.240072 0
M  V30 6821 C 659.459 3.37018 -0.83882 0
M  V30 6822 C 658.413 3.83522 -1.89986 0
M  V30 6823 C 657.739 5.15337 -1.42589 0
M  V30 6824 C 659.039 4.04169 -3.30824 0
M  V30 6825 H 660.733 2.13071 -2.10336 0
M  V30 6826 H 658.279 1.02378 -1.01266 0
M  V30 6827 H 660.232 4.14895 -0.737584 0
M  V30 6828 H 658.956 3.26325 0.134071 0
M  V30 6829 H 657.615 3.07859 -1.99043 0
M  V30 6830 H 657.263 5.01056 -0.441759 0
M  V30 6831 H 656.963 5.47423 -2.13547 0
M  V30 6832 H 658.487 5.95758 -1.3381 0
M  V30 6833 H 659.901 4.72537 -3.24626 0
M  V30 6834 H 658.298 4.47604 -3.99713 0
M  V30 6835 H 659.368 3.08604 -3.74021 0
M  V30 6836 N 660.711 1.11618 1.11262 0
M  V30 6837 C 661.643 0.734015 2.17129 0
M  V30 6838 C 662.656 -0.235243 1.61091 0
M  V30 6839 O 663.845 -0.0178597 1.78491 0
M  V30 6840 C 660.945 0.0643682 3.38839 0
M  V30 6841 C 660.118 1.06092 4.24339 0
M  V30 6842 C 659.177 0.420482 5.24517 0
M  V30 6843 O 658.203 1.07495 5.58957 0
M  V30 6844 N 659.405 -0.815828 5.74739 0
M  V30 6845 H 662.17 1.64492 2.50524 0
M  V30 6846 H 659.731 1.00664 1.26801 0
M  V30 6847 H 661.723 -0.375851 4.02951 0
M  V30 6848 H 660.293 -0.749147 3.03491 0
M  V30 6849 H 659.513 1.67903 3.56654 0
M  V30 6850 H 660.801 1.73507 4.78302 0
M  V30 6851 H 660.199 -1.36668 5.48943 0
M  V30 6852 H 658.756 -1.199 6.40677 0
M  V30 6853 N 662.189 -1.289 0.906776 0
M  V30 6854 C 663.136 -2.2751 0.388313 0
M  V30 6855 C 664.106 -1.57301 -0.533439 0
M  V30 6856 O 665.291 -1.85243 -0.457148 0
M  V30 6857 C 662.431 -3.43091 -0.37181 0
M  V30 6858 C 661.544 -4.28066 0.581647 0
M  V30 6859 C 660.679 -5.30837 -0.19623 0
M  V30 6860 C 659.718 -6.07472 0.751294 0
M  V30 6861 N 658.855 -7.021 0.00737727 0
M  V30 6862 H 663.695 -2.71237 1.23428 0
M  V30 6863 H 661.232 -1.33397 0.619962 0
M  V30 6864 H 663.19 -4.08888 -0.828641 0
M  V30 6865 H 661.82 -3.00374 -1.18218 0
M  V30 6866 H 660.872 -3.62378 1.157 0
M  V30 6867 H 662.184 -4.81382 1.30665 0
M  V30 6868 H 661.338 -6.02485 -0.71394 0
M  V30 6869 H 660.077 -4.78272 -0.954324 0
M  V30 6870 H 659.082 -5.34682 1.28044 0
M  V30 6871 H 660.307 -6.62126 1.50883 0
M  V30 6872 H 658.253 -6.51894 -0.732854 0
M  V30 6873 H 658.17 -7.53004 0.672334 0
M  V30 6874 H 659.438 -7.77956 -0.490365 0
M  V30 6875 N 663.667 -0.670007 -1.42649 0
M  V30 6876 C 664.597 -0.00258501 -2.335 0
M  V30 6877 C 665.578 0.794364 -1.50412 0
M  V30 6878 O 666.763 0.75248 -1.79029 0
M  V30 6879 C 663.893 0.952748 -3.33976 0
M  V30 6880 C 662.847 0.264733 -4.2718 0
M  V30 6881 C 662.173 1.33267 -5.17826 0
M  V30 6882 C 663.473 -0.853289 -5.15283 0
M  V30 6883 H 665.167 -0.761326 -2.89559 0
M  V30 6884 H 662.713 -0.367561 -1.3923 0
M  V30 6885 H 664.666 1.4287 -3.96442 0
M  V30 6886 H 663.39 1.74285 -2.7621 0
M  V30 6887 H 662.049 -0.190938 -3.66102 0
M  V30 6888 H 661.697 2.11464 -4.5639 0
M  V30 6889 H 661.397 0.877476 -5.81011 0
M  V30 6890 H 662.921 1.80965 -5.83167 0
M  V30 6891 H 664.335 -0.458763 -5.71462 0
M  V30 6892 H 662.732 -1.23398 -5.87276 0
M  V30 6893 H 663.802 -1.70412 -4.53969 0
M  V30 6894 N 665.145 1.52092 -0.413018 0
M  V30 6895 C 666.078 2.23613 0.455234 0
M  V30 6896 C 667.056 1.2459 1.04481 0
M  V30 6897 O 668.24 1.53653 1.09193 0
M  V30 6898 C 665.367 2.96775 1.63224 0
M  V30 6899 C 664.413 4.10261 1.16568 0
M  V30 6900 S 665.246 5.35348 0.127633 0
M  V30 6901 C 666.402 6.1204 1.30987 0
M  V30 6902 H 666.635 2.96911 -0.152042 0
M  V30 6903 H 664.168 1.53134 -0.197343 0
M  V30 6904 H 666.126 3.39532 2.30713 0
M  V30 6905 H 664.787 2.23113 2.21087 0
M  V30 6906 H 663.98 4.6064 2.04515 0
M  V30 6907 H 663.582 3.6964 0.569386 0
M  V30 6908 H 665.874 6.39651 2.23276 0
M  V30 6909 H 666.817 7.03022 0.846533 0
M  V30 6910 H 667.225 5.43161 1.53743 0
M  V30 6911 N 666.623 0.143563 1.56945 0
M  V30 6912 C 668.039 -0.212877 1.58174 0
M  V30 6913 C 668.239 -1.64926 1.15766 0
M  V30 6914 O 667.295 -2.37535 0.856361 0
M  V30 6915 C 668.608 0.0427573 3.0067 0
M  V30 6916 C 670.156 -0.0212221 3.12993 0
M  V30 6917 C 670.631 0.207036 4.57532 0
M  V30 6918 N 672.122 0.153845 4.62944 0
M  V30 6919 C 672.857 0.305018 5.72588 0
M  V30 6920 N 672.353 0.513722 6.90893 0
M  V30 6921 N 674.146 0.242862 5.61575 0
M  V30 6922 H 666.297 1.08148 1.82805 0
M  V30 6923 H 668.56 0.427831 0.84597 0
M  V30 6924 H 668.266 1.03672 3.36073 0
M  V30 6925 H 668.14 -0.678195 3.71053 0
M  V30 6926 H 670.527 -1.00574 2.77433 0
M  V30 6927 H 670.608 0.732004 2.45103 0
M  V30 6928 H 670.252 1.18863 4.93795 0
M  V30 6929 H 670.182 -0.566473 5.23544 0
M  V30 6930 H 672.673 -0.00294866 3.779 0
M  V30 6931 H 672.986 0.619273 7.70315 0
M  V30 6932 H 671.331 0.550001 6.9282 0
M  V30 6933 H 674.522 0.0806015 4.68031 0
M  V30 6934 H 674.695 0.364112 6.46976 0
M  V30 6935 N 668.101 -1.57061 -0.130224 0
M  V30 6936 C 669.326 -1.88802 -0.858409 0
M  V30 6937 C 669.751 -0.734353 -1.73173 0
M  V30 6938 O 669.109 0.315529 -1.78533 0
M  V30 6939 C 669.157 -3.19228 -1.67708 0
M  V30 6940 O 668.261 -3.04343 -2.78297 0
M  V30 6941 H 667.602 -0.619849 -0.238083 0
M  V30 6942 H 670.132 -2.04271 -0.115995 0
M  V30 6943 H 670.142 -3.51669 -2.06864 0
M  V30 6944 H 668.817 -4.02793 -1.0359 0
M  V30 6945 H 667.394 -2.83346 -2.42425 0
M  V30 6946 N 669.579 0.400081 -1.52437 0
M  V30 6947 C 670.489 1.51253 -1.79331 0
M  V30 6948 C 671.505 1.60188 -0.679396 0
M  V30 6949 O 672.681 1.76733 -0.965791 0
M  V30 6950 C 669.746 2.869 -1.94652 0
M  V30 6951 C 668.807 2.87777 -3.18564 0
M  V30 6952 C 668.04 4.16954 -3.33145 0
M  V30 6953 O 668.263 5.11329 -2.52783 0
M  V30 6954 O 667.197 4.2487 -4.26343 0
M  V30 6955 H 671.023 1.31461 -2.73773 0
M  V30 6956 H 668.608 0.586834 -1.37392 0
M  V30 6957 H 670.49 3.67336 -2.065 0
M  V30 6958 H 669.165 3.06741 -1.034 0
M  V30 6959 H 668.072 2.06162 -3.12167 0
M  V30 6960 H 669.405 2.72886 -4.09627 0
M  V30 6961 N 671.057 1.43213 0.657864 0
M  V30 6962 C 672.468 1.39669 1.23893 0
M  V30 6963 C 672.819 0.0984217 1.95953 0
M  V30 6964 O 671.944 -0.8023 2.00978 0
M  V30 6965 C 672.539 2.53004 2.25332 0
M  V30 6966 C 671.098 2.5274 2.78926 0
M  V30 6967 C 670.245 2.30941 1.53497 0
M  V30 6968 H 673.196 1.52181 0.450172 0
M  V30 6969 H 673.217 2.24226 3.07413 0
M  V30 6970 H 672.729 3.4748 1.72856 0
M  V30 6971 H 670.83 1.6213 3.35477 0
M  V30 6972 H 670.943 3.50352 3.26787 0
M  V30 6973 H 669.307 1.7952 1.80678 0
M  V30 6974 H 670.09 3.27496 1.02963 0
M  V30 6975 N 672.536 -0.895792 1.29666 0
M  V30 6976 C 673.952 -1.17726 1.07763 0
M  V30 6977 C 674.152 -2.00794 -0.168576 0
M  V30 6978 O 673.208 -2.37213 -0.865244 0
M  V30 6979 C 674.521 -1.89441 2.33522 0
M  V30 6980 C 676.069 -2.02251 2.3888 0
M  V30 6981 C 676.544 -2.77378 3.64452 0
M  V30 6982 N 678.035 -2.8493 3.65198 0
M  V30 6983 C 678.77 -3.43606 4.59045 0
M  V30 6984 N 678.266 -4.03417 5.63228 0
M  V30 6985 N 680.059 -3.41317 4.46608 0
M  V30 6986 H 672.21 -0.341652 2.09634 0
M  V30 6987 H 674.473 -0.213865 0.923561 0
M  V30 6988 H 674.179 -1.35842 3.24407 0
M  V30 6989 H 674.053 -2.89893 2.41334 0
M  V30 6990 H 676.44 -2.55025 1.4848 0
M  V30 6991 H 676.521 -1.0092 2.3505 0
M  V30 6992 H 676.165 -2.25279 4.55205 0
M  V30 6993 H 676.095 -3.79062 3.65541 0
M  V30 6994 H 678.586 -2.42453 2.89871 0
M  V30 6995 H 678.899 -4.46224 6.30955 0
M  V30 6996 H 677.244 -4.01868 5.67033 0
M  V30 6997 H 680.435 -2.93812 3.64407 0
M  V30 6998 H 680.608 -3.86751 5.1993 0
M  V30 6999 N 674.014 -1.12206 -1.10668 0
M  V30 7000 C 675.425 -0.890657 -1.64086 0
M  V30 7001 C 675.776 0.575502 -1.8757 0
M  V30 7002 O 674.901 1.4394 -1.61587 0
M  V30 7003 C 675.496 -1.61029 -2.98085 0
M  V30 7004 C 674.055 -1.4251 -3.48379 0
M  V30 7005 C 673.202 -1.64778 -2.23033 0
M  V30 7006 H 676.153 -1.27718 -0.94201 0
M  V30 7007 H 676.174 -1.05993 -3.65439 0
M  V30 7008 H 675.686 -2.67735 -2.80962 0
M  V30 7009 H 673.787 -0.380497 -3.70652 0
M  V30 7010 H 673.9 -2.17959 -4.26651 0
M  V30 7011 H 672.264 -1.07171 -2.31055 0
M  V30 7012 H 673.047 -2.72776 -2.08443 0
M  V30 7013 N 675.492 1.28418 -0.913599 0
M  V30 7014 C 676.74 1.94596 -0.545594 0
M  V30 7015 C 677.061 1.7227 0.913668 0
M  V30 7016 O 676.331 1.06233 1.64595 0
M  V30 7017 H 674.911 0.720065 -0.198783 0
M  V30 7018 H 677.573 1.56404 -1.16292 0
M  V30 7019 H 676.669 3.03202 -0.739911 0
M  V30 7020 N 676.97 0.677563 1.42291 0
M  V30 7021 C 678.216 0.201272 2.01799 0
M  V30 7022 C 678.549 -1.19004 1.53465 0
M  V30 7023 O 677.824 -1.79953 0.738039 0
M  V30 7024 C 678.107 0.238968 3.59306 0
M  V30 7025 C 677.96 1.66594 4.17812 0
M  V30 7026 C 679.279 -0.411287 4.38174 0
M  V30 7027 H 676.398 0.0746114 0.733214 0
M  V30 7028 H 679.04 0.862872 1.69276 0
M  V30 7029 H 677.19 -0.324368 3.87144 0
M  V30 7030 H 678.862 2.28173 4.00917 0
M  V30 7031 H 677.105 2.20576 3.73536 0
M  V30 7032 H 677.776 1.64398 5.26951 0
M  V30 7033 H 680.252 0.0682804 4.16044 0
M  V30 7034 H 679.128 -0.354286 5.47755 0
M  V30 7035 H 679.389 -1.4893 4.1626 0
M  V30 7036 N 678.448 -1.51871 0.421078 0
M  V30 7037 C 679.378 -2.30231 -0.389363 0
M  V30 7038 C 680.359 -1.34946 -1.03555 0
M  V30 7039 O 681.544 -1.63859 -1.04229 0
M  V30 7040 C 678.674 -3.13247 -1.49979 0
M  V30 7041 C 677.628 -4.16677 -0.977966 0
M  V30 7042 C 676.954 -4.88112 -2.1829 0
M  V30 7043 C 678.254 -5.22295 -0.0236775 0
M  V30 7044 H 679.948 -2.98229 0.264524 0
M  V30 7045 H 677.494 -1.43424 0.12866 0
M  V30 7046 H 679.447 -3.66838 -2.07383 0
M  V30 7047 H 678.171 -2.4304 -2.18173 0
M  V30 7048 H 676.83 -3.64114 -0.426245 0
M  V30 7049 H 676.478 -4.14423 -2.85066 0
M  V30 7050 H 676.178 -5.58041 -1.84021 0
M  V30 7051 H 677.702 -5.44521 -2.76278 0
M  V30 7052 H 679.116 -5.71055 -0.506899 0
M  V30 7053 H 677.513 -5.99656 0.230782 0
M  V30 7054 H 678.583 -4.76131 0.917999 0
M  V30 7055 N 679.926 -0.151884 -1.56866 0
M  V30 7056 C 680.856 0.781943 -2.20018 0
M  V30 7057 C 681.837 1.25347 -1.14987 0
M  V30 7058 O 683.022 1.31015 -1.43348 0
M  V30 7059 C 680.152 2.01928 -2.82564 0
M  V30 7060 C 679.106 1.68434 -3.93464 0
M  V30 7061 C 678.432 2.99472 -4.42968 0
M  V30 7062 C 679.732 0.927244 -5.14003 0
M  V30 7063 H 681.426 0.255607 -2.98307 0
M  V30 7064 H 678.972 0.121502 -1.43486 0
M  V30 7065 H 680.925 2.67741 -3.25411 0
M  V30 7066 H 679.649 2.56943 -2.01614 0
M  V30 7067 H 678.308 1.04998 -3.51242 0
M  V30 7068 H 677.956 3.52488 -3.58834 0
M  V30 7069 H 677.656 2.77823 -5.17772 0
M  V30 7070 H 679.18 3.66348 -4.88489 0
M  V30 7071 H 680.594 1.48756 -5.53665 0
M  V30 7072 H 678.991 0.810513 -5.94601 0
M  V30 7073 H 680.061 -0.0801163 -4.84834 0
M  V30 7074 N 681.404 1.57128 0.121893 0
M  V30 7075 C 682.82 1.52357 0.47534 0
M  V30 7076 C 683.02 0.864417 1.82017 0
M  V30 7077 O 682.076 0.445529 2.48538 0
M  V30 7078 C 683.389 2.97122 0.4625 0
M  V30 7079 C 684.937 3.08196 0.546255 0
M  V30 7080 C 685.412 4.54516 0.563833 0
M  V30 7081 N 686.903 4.58959 0.625353 0
M  V30 7082 C 687.638 5.69585 0.660354 0
M  V30 7083 N 687.134 6.89714 0.653175 0
M  V30 7084 N 688.927 5.57685 0.703143 0
M  V30 7085 H 681.078 1.98364 -0.75931 0
M  V30 7086 H 683.341 0.905777 -0.279772 0
M  V30 7087 H 683.047 3.48706 -0.457943 0
M  V30 7088 H 682.921 3.54406 1.29136 0
M  V30 7089 H 685.308 2.56617 1.45712 0
M  V30 7090 H 685.389 2.53912 -0.310234 0
M  V30 7091 H 685.033 5.06741 -0.342974 0
M  V30 7092 H 684.963 5.06609 1.43716 0
M  V30 7093 H 687.454 3.72489 0.637182 0
M  V30 7094 H 687.767 7.69781 0.682425 0
M  V30 7095 H 686.112 6.92223 0.620646 0
M  V30 7096 H 689.303 4.62744 0.706095 0
M  V30 7097 H 689.476 6.43909 0.726952 0
M  V30 7098 N 682.882 -0.391992 1.52647 0
M  V30 7099 C 683.845 -1.46135 1.7657 0
M  V30 7100 C 684.845 -1.47701 0.635698 0
M  V30 7101 O 686.035 -1.48924 0.903728 0
M  V30 7102 C 683.167 -2.85443 1.86374 0
M  V30 7103 H 684.36 -1.26208 2.72051 0
M  V30 7104 H 681.913 -0.623549 1.43323 0
M  V30 7105 H 682.648 -3.10718 0.928685 0
M  V30 7106 H 682.433 -2.85708 2.68539 0
M  V30 7107 H 683.923 -3.62933 2.06566 0
M  V30 7108 N 684.36 -1.4356 -0.65026 0
M  V30 7109 C 685.771 -1.40324 -1.2315 0
M  V30 7110 C 686.122 -0.108812 -1.95898 0
M  V30 7111 O 685.247 0.79163 -2.01401 0
M  V30 7112 C 685.842 -2.54195 -2.23987 0
M  V30 7113 C 684.401 -2.54215 -2.77582 0
M  V30 7114 C 683.548 -2.31752 -1.5227 0
M  V30 7115 H 686.499 -1.52418 -0.442095 0
M  V30 7116 H 686.52 -2.25854 -3.0622 0
M  V30 7117 H 686.032 -3.48392 -1.71011 0
M  V30 7118 H 684.133 -1.63907 -3.34612 0
M  V30 7119 H 684.246 -3.52081 -3.24925 0
M  V30 7120 H 682.61 -1.80476 -1.79723 0
M  V30 7121 H 683.393 -3.28037 -1.01225 0
M  V30 7122 N 685.838 0.888903 -1.30139 0
M  V30 7123 C 687.085 1.64037 -1.18736 0
M  V30 7124 C 687.413 1.92771 0.258801 0
M  V30 7125 O 686.668 1.54427 1.20212 0
M  V30 7126 C 686.967 2.99041 -1.95728 0
M  V30 7127 C 686.633 2.89874 -3.45375 0
M  V30 7128 C 685.295 2.87082 -3.86183 0
M  V30 7129 C 687.647 2.78289 -4.40687 0
M  V30 7130 C 684.975 2.70536 -5.20603 0
M  V30 7131 C 687.327 2.63282 -5.75209 0
M  V30 7132 C 685.991 2.58861 -6.15262 0
M  V30 7133 H 685.261 0.600253 -0.434485 0
M  V30 7134 H 687.908 1.0338 -1.61198 0
M  V30 7135 H 686.213 3.63626 -1.45888 0
M  V30 7136 H 687.91 3.56139 -1.843 0
M  V30 7137 H 684.5 2.92856 -3.12943 0
M  V30 7138 H 688.684 2.79516 -4.10103 0
M  V30 7139 H 683.94 2.65526 -5.50732 0
M  V30 7140 H 688.114 2.5329 -6.48704 0
M  V30 7141 H 685.741 2.45799 -7.19366 0
M  V30 7142 N 687.317 1.12792 1.10072 0
M  V30 7143 C 688.728 0.899346 1.63611 0
M  V30 7144 C 689.079 -0.565547 1.87872 0
M  V30 7145 O 688.204 -1.43081 1.62348 0
M  V30 7146 C 688.799 1.62608 2.97227 0
M  V30 7147 C 687.358 1.44356 3.47618 0
M  V30 7148 C 686.505 1.65958 2.22156 0
M  V30 7149 H 689.456 1.28216 0.935223 0
M  V30 7150 H 689.477 1.0793 3.64872 0
M  V30 7151 H 688.989 2.69221 2.79538 0
M  V30 7152 H 687.09 0.400148 3.70445 0
M  V30 7153 H 687.203 2.20218 4.25489 0
M  V30 7154 H 685.567 1.08395 2.30484 0
M  V30 7155 H 686.35 2.73877 2.06993 0
M  V30 7156 O 688.834 -1.22539 1.05197 0
M  V30 7157 H 689.525 -1.79492 0.728171 0
M  V30 END ATOM
M  V30 BEGIN BOND
M  V30 END BOND
M  V30 END CTAB
M  END
$$$$
