drugbank_target|P0C2S2 Endoglucanase A (DB02379)
 OpenBabel12092120033D

204208  0  0  0  0  0  0  0  0999 V2000
   -0.9080    1.9825   -0.1171 H   0  0  0  0  0 15  0  0  0  0  0  0
    0.0000    1.5760    0.0000 N   0  0  0  0  0 15  0  0  0  0  0  0
    0.9630    2.0737    0.9763 C   0  0  0  0  0 15  0  0  0  0  0  0
    1.9630    0.9831    1.2725 C   0  0  0  0  0 15  0  0  0  0  0  0
    3.1530    1.2457    1.2177 O   0  0  0  0  0 15  0  0  0  0  0  0
    0.2850    2.5151    2.3012 C   0  0  0  0  0 15  0  0  0  0  0  0
    1.4780    2.9489    0.5458 H   0  0  0  0  0 15  0  0  0  0  0  0
   -0.9690    1.5433    0.2475 H   0  0  0  0  0 15  0  0  0  0  0  0
   -0.2340    1.6723    2.7785 H   0  0  0  0  0 15  0  0  0  0  0  0
   -0.4490    3.3116    2.0994 H   0  0  0  0  0 15  0  0  0  0  0  0
    1.0410    2.9035    3.0015 H   0  0  0  0  0 15  0  0  0  0  0  0
    1.4781   -0.2728    1.5522 N   0  0  0  0  0 15  0  0  0  0  0  0
    2.7261   -1.0023    1.7549 C   0  0  0  0  0 15  0  0  0  0  0  0
    3.0471   -1.8681    0.5592 C   0  0  0  0  0 15  0  0  0  0  0  0
    2.3171   -1.9121   -0.4259 O   0  0  0  0  0 15  0  0  0  0  0  0
    0.8971   -0.3731    0.6472 H   0  0  0  0  0 15  0  0  0  0  0  0
    3.5591   -0.2969    1.9262 H   0  0  0  0  0 15  0  0  0  0  0  0
    2.6551   -1.6391    2.6559 H   0  0  0  0  0 15  0  0  0  0  0  0
    2.9562   -1.4816   -0.5373 N   0  0  0  0  0 15  0  0  0  0  0  0
    4.2022   -1.5604   -1.2954 C   0  0  0  0  0 15  0  0  0  0  0  0
    4.5352   -0.2304   -1.9283 C   0  0  0  0  0 15  0  0  0  0  0  0
    3.8102    0.7630   -1.7891 O   0  0  0  0  0 15  0  0  0  0  0  0
    4.0932   -2.6932   -2.3903 C   0  0  0  0  0 15  0  0  0  0  0  0
    3.9462   -4.1200   -1.8048 C   0  0  0  0  0 15  0  0  0  0  0  0
    5.2652   -2.7841   -3.4085 C   0  0  0  0  0 15  0  0  0  0  0  0
    2.3842   -0.5680   -0.4696 H   0  0  0  0  0 15  0  0  0  0  0  0
    5.0262   -1.8030   -0.5993 H   0  0  0  0  0 15  0  0  0  0  0  0
    3.1762   -2.4876   -2.9841 H   0  0  0  0  0 15  0  0  0  0  0  0
    4.8482   -4.4398   -1.2521 H   0  0  0  0  0 15  0  0  0  0  0  0
    3.0912   -4.1934   -1.1106 H   0  0  0  0  0 15  0  0  0  0  0  0
    3.7622   -4.8708   -2.5973 H   0  0  0  0  0 15  0  0  0  0  0  0
    6.2382   -2.9701   -2.9142 H   0  0  0  0  0 15  0  0  0  0  0  0
    5.1142   -3.5942   -4.1486 H   0  0  0  0  0 15  0  0  0  0  0  0
    5.3752   -1.8627   -4.0094 H   0  0  0  0  0 15  0  0  0  0  0  0
    4.4343    0.7856   -1.3662 N   0  0  0  0  0 15  0  0  0  0  0  0
    5.8453    1.3610   -1.2780 C   0  0  0  0  0 15  0  0  0  0  0  0
    6.1963    1.9603    0.0805 C   0  0  0  0  0 15  0  0  0  0  0  0
    5.3213    1.9283    0.9820 O   0  0  0  0  0 15  0  0  0  0  0  0
    5.9163    2.4744   -2.3143 C   0  0  0  0  0 15  0  0  0  0  0  0
    4.4753    3.0079   -2.2628 C   0  0  0  0  0 15  0  0  0  0  0  0
    3.6223    1.7390   -2.1600 C   0  0  0  0  0 15  0  0  0  0  0  0
    6.5733    0.5869   -1.4745 H   0  0  0  0  0 15  0  0  0  0  0  0
    6.5943    3.2656   -1.9529 H   0  0  0  0  0 15  0  0  0  0  0  0
    6.1063    2.0379   -3.3029 H   0  0  0  0  0 15  0  0  0  0  0  0
    4.2073    3.4885   -1.3090 H   0  0  0  0  0 15  0  0  0  0  0  0
    4.3203    3.5734   -3.1913 H   0  0  0  0  0 15  0  0  0  0  0  0
    2.6843    1.9628   -1.6232 H   0  0  0  0  0 15  0  0  0  0  0  0
    3.4673    1.3237   -3.1675 H   0  0  0  0  0 15  0  0  0  0  0  0
    5.9124    1.2097    1.0102 N   0  0  0  0  0 15  0  0  0  0  0  0
    7.1594    1.0237    1.7472 C   0  0  0  0  0 15  0  0  0  0  0  0
    7.4874   -0.4434    1.8938 C   0  0  0  0  0 15  0  0  0  0  0  0
    6.7424   -1.3453    1.4212 O   0  0  0  0  0 15  0  0  0  0  0  0
    7.0414    1.6600    3.1651 C   0  0  0  0  0 15  0  0  0  0  0  0
    6.7074    3.1583    3.2181 C   0  0  0  0  0 15  0  0  0  0  0  0
    5.3694    3.5672    3.2296 C   0  0  0  0  0 15  0  0  0  0  0  0
    7.7214    4.1182    3.1946 C   0  0  0  0  0 15  0  0  0  0  0  0
    5.0494    4.9211    3.1945 C   0  0  0  0  0 15  0  0  0  0  0  0
    7.4014    5.4716    3.1749 C   0  0  0  0  0 15  0  0  0  0  0  0
    6.0654    5.8745    3.1695 C   0  0  0  0  0 15  0  0  0  0  0  0
    5.3354    0.3746    0.6393 H   0  0  0  0  0 15  0  0  0  0  0  0
    7.9824    1.5048    1.1843 H   0  0  0  0  0 15  0  0  0  0  0  0
    6.2874    1.1017    3.7599 H   0  0  0  0  0 15  0  0  0  0  0  0
    7.9844    1.4912    3.7224 H   0  0  0  0  0 15  0  0  0  0  0  0
    4.5744    2.8326    3.2165 H   0  0  0  0  0 15  0  0  0  0  0  0
    8.7584    3.8126    3.1774 H   0  0  0  0  0 15  0  0  0  0  0  0
    4.0144    5.2258    3.1737 H   0  0  0  0  0 15  0  0  0  0  0  0
    8.1884    6.2127    3.1463 H   0  0  0  0  0 15  0  0  0  0  0  0
    5.8154    6.9233    3.1398 H   0  0  0  0  0 15  0  0  0  0  0  0
    7.3905   -1.2043    1.0166 N   0  0  0  0  0 15  0  0  0  0  0  0
    8.3385   -2.2525    0.5801 C   0  0  0  0  0 15  0  0  0  0  0  0
    9.3325   -1.6506   -0.3811 C   0  0  0  0  0 15  0  0  0  0  0  0
   10.5385   -1.7824   -0.2510 O   0  0  0  0  0 15  0  0  0  0  0  0
    6.9135   -0.7327    0.1693 H   0  0  0  0  0 15  0  0  0  0  0  0
    8.8845   -2.5939    1.4751 H   0  0  0  0  0 15  0  0  0  0  0  0
    7.6335   -3.4764   -0.0658 C   0  0  0  0  0 15  0  0  0  0  0  0
    6.9565   -3.9423    0.6649 H   0  0  0  0  0 15  0  0  0  0  0  0
    8.3965   -4.2268   -0.3343 H   0  0  0  0  0 15  0  0  0  0  0  0
    6.8555   -3.1045   -1.3086 C   0  0  0  0  0 15  0  0  0  0  0  0
    7.3855   -3.2198   -2.4019 O   0  0  0  0  0 15  0  0  0  0  0  0
    5.5915   -2.6500   -1.1927 N   0  0  0  0  0 15  0  0  0  0  0  0
    5.1385   -2.5581   -0.3031 H   0  0  0  0  0 15  0  0  0  0  0  0
    5.0965   -2.4048   -2.0252 H   0  0  0  0  0 15  0  0  0  0  0  0
    8.8686   -0.7928   -1.3621 N   0  0  0  0  0 15  0  0  0  0  0  0
   10.0966   -0.3788   -2.0340 C   0  0  0  0  0 15  0  0  0  0  0  0
   10.5116    1.0059   -1.5977 C   0  0  0  0  0 15  0  0  0  0  0  0
    9.8686    1.6457   -0.7888 O   0  0  0  0  0 15  0  0  0  0  0  0
    9.9196   -0.4368   -3.5885 C   0  0  0  0  0 15  0  0  0  0  0  0
    9.6406   -1.7669   -4.0089 O   0  0  0  0  0 15  0  0  0  0  0  0
   11.1416   -0.0139   -4.4330 C   0  0  0  0  0 15  0  0  0  0  0  0
    8.3616   -0.1557   -0.6527 H   0  0  0  0  0 15  0  0  0  0  0  0
   10.9056   -1.0726   -1.7411 H   0  0  0  0  0 15  0  0  0  0  0  0
    9.0606    0.2086   -3.8684 H   0  0  0  0  0 15  0  0  0  0  0  0
    9.4746   -1.7201   -4.9549 H   0  0  0  0  0 15  0  0  0  0  0  0
   10.9486   -0.1056   -5.5190 H   0  0  0  0  0 15  0  0  0  0  0  0
   11.4256    1.0392   -4.2673 H   0  0  0  0  0 15  0  0  0  0  0  0
   12.0316   -0.6319   -4.2058 H   0  0  0  0  0 15  0  0  0  0  0  0
   10.3467    1.4787   -0.5451 N   0  0  0  0  0 15  0  0  0  0  0  0
   11.2937    2.2985    0.2093 C   0  0  0  0  0 15  0  0  0  0  0  0
   12.2637    1.3831    0.9197 C   0  0  0  0  0 15  0  0  0  0  0  0
   13.4487    1.6728    0.9178 O   0  0  0  0  0 15  0  0  0  0  0  0
   10.5887    3.2202    1.2409 C   0  0  0  0  0 15  0  0  0  0  0  0
    9.7017    4.2864    0.5378 C   0  0  0  0  0 15  0  0  0  0  0  0
    8.8367    5.0797    1.5536 C   0  0  0  0  0 15  0  0  0  0  0  0
    7.8757    6.0638    0.8348 C   0  0  0  0  0 15  0  0  0  0  0  0
    7.0127    6.7872    1.7969 N   0  0  0  0  0 15  0  0  0  0  0  0
   11.8527    2.9384   -0.4959 H   0  0  0  0  0 15  0  0  0  0  0  0
    9.3897    1.4485   -0.2564 H   0  0  0  0  0 15  0  0  0  0  0  0
   11.3477    3.7387    1.8514 H   0  0  0  0  0 15  0  0  0  0  0  0
    9.9777    2.5991    1.9143 H   0  0  0  0  0 15  0  0  0  0  0  0
    9.0297    3.7994   -0.1870 H   0  0  0  0  0 15  0  0  0  0  0  0
   10.3417    4.9879   -0.0259 H   0  0  0  0  0 15  0  0  0  0  0  0
    9.4957    5.6391    2.2380 H   0  0  0  0  0 15  0  0  0  0  0  0
    8.2347    4.3769    2.1512 H   0  0  0  0  0 15  0  0  0  0  0  0
    7.2397    5.4963    0.1364 H   0  0  0  0  0 15  0  0  0  0  0  0
    8.4647    6.7866    0.2431 H   0  0  0  0  0 15  0  0  0  0  0  0
    6.4107    6.1118    2.3833 H   0  0  0  0  0 15  0  0  0  0  0  0
    6.3277    7.4500    1.2850 H   0  0  0  0  0 15  0  0  0  0  0  0
    7.5957    7.3924    2.4728 H   0  0  0  0  0 15  0  0  0  0  0  0
   11.8248    0.2810    1.5507 N   0  0  0  0  0 15  0  0  0  0  0  0
   13.0528   -0.3373    2.0413 C   0  0  0  0  0 15  0  0  0  0  0  0
   13.4678   -1.4903    1.1591 C   0  0  0  0  0 15  0  0  0  0  0  0
   12.8248   -1.8161    0.1805 O   0  0  0  0  0 15  0  0  0  0  0  0
   12.8758   -0.8127    3.5225 C   0  0  0  0  0 15  0  0  0  0  0  0
   12.5968    0.2944    4.3711 O   0  0  0  0  0 15  0  0  0  0  0  0
   14.0978   -1.4982    4.1722 C   0  0  0  0  0 15  0  0  0  0  0  0
   11.3178   -0.0762    0.6667 H   0  0  0  0  0 15  0  0  0  0  0  0
   13.8618    0.4148    2.0025 H   0  0  0  0  0 15  0  0  0  0  0  0
   12.0168   -1.5149    3.5655 H   0  0  0  0  0 15  0  0  0  0  0  0
   12.4308   -0.0721    5.2445 H   0  0  0  0  0 15  0  0  0  0  0  0
   13.9048   -1.7822    5.2244 H   0  0  0  0  0 15  0  0  0  0  0  0
   14.3818   -2.4317    3.6574 H   0  0  0  0  0 15  0  0  0  0  0  0
   14.9878   -0.8397    4.1693 H   0  0  0  0  0 15  0  0  0  0  0  0
   13.3029   -1.5760    0.0084 N   0  0  0  0  0 15  0  0  0  0  0  0
   14.7139   -1.7892   -0.5333 C   0  0  0  0  0 15  0  0  0  0  0  0
   15.0649   -0.9166   -1.7347 C   0  0  0  0  0 15  0  0  0  0  0  0
   14.1899   -0.1213   -2.1606 O   0  0  0  0  0 15  0  0  0  0  0  0
   14.7849   -3.2449   -0.9743 C   0  0  0  0  0 15  0  0  0  0  0  0
   13.3439   -3.4688   -1.4613 C   0  0  0  0  0 15  0  0  0  0  0  0
   12.4909   -2.7416   -0.4163 C   0  0  0  0  0 15  0  0  0  0  0  0
   15.4419   -1.5696    0.2345 H   0  0  0  0  0 15  0  0  0  0  0  0
   15.4629   -3.3306   -1.8399 H   0  0  0  0  0 15  0  0  0  0  0  0
   14.9749   -3.8797   -0.0997 H   0  0  0  0  0 15  0  0  0  0  0  0
   13.0759   -2.8862   -2.3565 H   0  0  0  0  0 15  0  0  0  0  0  0
   13.1889   -4.5557   -1.4829 H   0  0  0  0  0 15  0  0  0  0  0  0
   11.5529   -2.3902   -0.8798 H   0  0  0  0  0 15  0  0  0  0  0  0
   12.3359   -3.4034    0.4495 H   0  0  0  0  0 15  0  0  0  0  0  0
   14.7810    0.2645   -1.5536 N   0  0  0  0  0 15  0  0  0  0  0  0
   16.0110    1.0115   -1.8014 C   0  0  0  0  0 15  0  0  0  0  0  0
   16.4190    1.8011   -0.5793 C   0  0  0  0  0 15  0  0  0  0  0  0
   15.7620    1.7781    0.4613 O   0  0  0  0  0 15  0  0  0  0  0  0
   15.8240    2.0110   -2.9799 C   0  0  0  0  0 15  0  0  0  0  0  0
   15.4880    1.4100   -4.3471 C   0  0  0  0  0 15  0  0  0  0  0  0
   16.4850    0.8213   -5.1337 C   0  0  0  0  0 15  0  0  0  0  0  0
   14.1700    1.4346   -4.8138 C   0  0  0  0  0 15  0  0  0  0  0  0
   16.1640    0.2653   -6.3685 C   0  0  0  0  0 15  0  0  0  0  0  0
   13.8510    0.8748   -6.0481 C   0  0  0  0  0 15  0  0  0  0  0  0
   14.8490    0.2911   -6.8238 C   0  0  0  0  0 15  0  0  0  0  0  0
   14.5370   -0.2601   -8.0348 O   0  0  0  0  0 15  0  0  0  0  0  0
   14.2690    0.3041   -0.6037 H   0  0  0  0  0 15  0  0  0  0  0  0
   16.8230    0.2981   -2.0323 H   0  0  0  0  0 15  0  0  0  0  0  0
   15.0530    2.7622   -2.7062 H   0  0  0  0  0 15  0  0  0  0  0  0
   16.7420    2.6200   -3.1002 H   0  0  0  0  0 15  0  0  0  0  0  0
   17.5080    0.7949   -4.7844 H   0  0  0  0  0 15  0  0  0  0  0  0
   13.3870    1.8783   -4.2100 H   0  0  0  0  0 15  0  0  0  0  0  0
   16.9310   -0.1908   -6.9734 H   0  0  0  0  0 15  0  0  0  0  0  0
   12.8280    0.8985   -6.3922 H   0  0  0  0  0 15  0  0  0  0  0  0
   13.5960   -0.1503   -8.1836 H   0  0  0  0  0 15  0  0  0  0  0  0
   16.2591    1.4844    0.5294 N   0  0  0  0  0 15  0  0  0  0  0  0
   17.5071    1.5618    1.2827 C   0  0  0  0  0 15  0  0  0  0  0  0
   17.8281    0.2377    1.9355 C   0  0  0  0  0 15  0  0  0  0  0  0
   17.0981   -0.7408    1.8135 O   0  0  0  0  0 15  0  0  0  0  0  0
   15.6781    0.5754    0.4764 H   0  0  0  0  0 15  0  0  0  0  0  0
   18.3401    1.8491    0.6160 H   0  0  0  0  0 15  0  0  0  0  0  0
   17.4361    2.3431    2.0617 H   0  0  0  0  0 15  0  0  0  0  0  0
   17.7372   -0.7783    1.3704 N   0  0  0  0  0 15  0  0  0  0  0  0
   19.1482   -1.3542    1.2852 C   0  0  0  0  0 15  0  0  0  0  0  0
   19.4992   -1.9607   -0.0701 C   0  0  0  0  0 15  0  0  0  0  0  0
   18.6242   -1.9335   -0.9718 O   0  0  0  0  0 15  0  0  0  0  0  0
   19.2192   -2.4621    2.3273 C   0  0  0  0  0 15  0  0  0  0  0  0
   17.7782   -2.9958    2.2787 C   0  0  0  0  0 15  0  0  0  0  0  0
   16.9252   -1.7275    2.1692 C   0  0  0  0  0 15  0  0  0  0  0  0
   19.8762   -0.5791    1.4776 H   0  0  0  0  0 15  0  0  0  0  0  0
   19.8972   -3.2552    1.9702 H   0  0  0  0  0 15  0  0  0  0  0  0
   19.4092   -2.0204    3.3137 H   0  0  0  0  0 15  0  0  0  0  0  0
   17.5102   -3.4815    1.3274 H   0  0  0  0  0 15  0  0  0  0  0  0
   17.6232   -3.5565    3.2102 H   0  0  0  0  0 15  0  0  0  0  0  0
   15.9872   -1.9542    1.6335 H   0  0  0  0  0 15  0  0  0  0  0  0
   16.7702   -1.3069    3.1745 H   0  0  0  0  0 15  0  0  0  0  0  0
   19.2153   -1.2150   -1.0038 N   0  0  0  0  0 15  0  0  0  0  0  0
   20.4433   -1.0590   -1.7774 C   0  0  0  0  0 15  0  0  0  0  0  0
   20.8583    0.3911   -1.8470 C   0  0  0  0  0 15  0  0  0  0  0  0
   20.2153    1.2713   -1.3093 O   0  0  0  0  0 15  0  0  0  0  0  0
   20.2663   -1.6511   -3.2159 C   0  0  0  0  0 15  0  0  0  0  0  0
   19.9873   -3.0445   -3.1503 O   0  0  0  0  0 15  0  0  0  0  0  0
   21.4883   -1.5464   -4.1545 C   0  0  0  0  0 15  0  0  0  0  0  0
   18.7083   -0.3718   -0.5586 H   0  0  0  0  0 15  0  0  0  0  0  0
   21.2523   -1.6086   -1.2626 H   0  0  0  0  0 15  0  0  0  0  0  0
   19.4073   -1.1423   -3.7017 H   0  0  0  0  0 15  0  0  0  0  0  0
   19.8213   -3.3278   -4.0541 H   0  0  0  0  0 15  0  0  0  0  0  0
   21.2953   -2.0081   -5.1418 H   0  0  0  0  0 15  0  0  0  0  0  0
   21.7723   -0.5010   -4.3633 H   0  0  0  0  0 15  0  0  0  0  0  0
   22.3783   -2.0477   -3.7276 H   0  0  0  0  0 15  0  0  0  0  0  0
   20.7323    1.1343   -1.1496 O   0  0  0  0  0 15  0  0  0  0  0  0
   21.4233    1.7286   -0.8740 H   0  0  0  0  0 15  0  0  0  0  0  0
M  END
$$$$
