drugbank_target|P67870 Casein kinase II subunit beta (DB00171; DB04216)
 OpenBabel12092121023D

  0  0  0     0  0            999 V3000
M  V30 BEGIN CTAB
M  V30 COUNTS 3429 3480 0 0 0
M  V30 BEGIN ATOM
M  V30 1 H -0.908 1.98254 -0.117106 0
M  V30 2 N 0 1.576 0 0
M  V30 3 C 0.933 2.03868 1.02534 0
M  V30 4 C 1.911 0.928543 1.3348 0
M  V30 5 O 3.095 1.19667 1.45644 0
M  V30 6 C 0.222 2.43627 2.35294 0
M  V30 7 C -0.732 3.65373 2.2001 0
M  V30 8 S 0.101 5.13292 1.52614 0
M  V30 9 C 1.257 5.56322 2.86805 0
M  V30 10 H 1.49 2.90518 0.631377 0
M  V30 11 H -0.977 1.52953 0.210867 0
M  V30 12 H 0.981 2.67203 3.11629 0
M  V30 13 H -0.358 1.57376 2.7183 0
M  V30 14 H -1.165 3.90944 3.18086 0
M  V30 15 H -1.563 3.418 1.51819 0
M  V30 16 H 0.729 5.58782 3.83104 0
M  V30 17 H 1.672 6.56266 2.65933 0
M  V30 18 H 2.08 4.83886 2.90714 0
M  V30 19 N 1.4781 -0.272755 1.55222 0
M  V30 20 C 2.7031 -1.02683 1.80197 0
M  V30 21 C 3.1281 -1.79142 0.573551 0
M  V30 22 O 2.4861 -1.74917 -0.476849 0
M  V30 23 C 2.5341 -1.9609 3.02624 0
M  V30 24 O 1.6381 -3.04863 2.77727 0
M  V30 25 H 0.9791 -0.293557 0.595584 0
M  V30 26 H 3.5091 -0.30159 2.02365 0
M  V30 27 H 3.5191 -2.38039 3.31363 0
M  V30 28 H 2.1941 -1.39851 3.91682 0
M  V30 29 H 0.7711 -2.67228 2.60084 0
M  V30 30 N 2.9562 -1.48159 -0.537278 0
M  V30 31 C 4.1812 -1.59707 -1.32319 0
M  V30 32 C 4.6062 -0.254859 -1.86365 0
M  V30 33 O 3.9642 0.772378 -1.64024 0
M  V30 34 C 4.0122 -2.6412 -2.45505 0
M  V30 35 O 3.1162 -2.20774 -3.48328 0
M  V30 36 H 2.4572 -0.535791 -0.392204 0
M  V30 37 H 4.9872 -1.94092 -0.647268 0
M  V30 38 H 4.9972 -2.85166 -2.91795 0
M  V30 39 H 3.6722 -3.61567 -2.05528 0
M  V30 40 H 2.2492 -2.09911 -3.08207 0
M  V30 41 N 4.4343 0.785586 -1.36625 0
M  V30 42 C 5.6593 1.57963 -1.34397 0
M  V30 43 C 6.0843 1.87964 0.071526 0
M  V30 44 O 5.4423 1.48182 1.0446 0
M  V30 45 C 5.4903 2.87511 -2.17646 0
M  V30 46 O 4.5943 3.81281 -1.57158 0
M  V30 47 H 3.9353 0.479014 -0.459828 0
M  V30 48 H 6.4653 0.973411 -1.79961 0
M  V30 49 H 6.4753 3.36745 -2.30362 0
M  V30 50 H 5.1503 2.65002 -3.20541 0
M  V30 51 H 3.7273 3.39885 -1.53403 0
M  V30 52 N 5.9124 1.20967 1.01018 0
M  V30 53 C 6.8224 0.980157 2.13143 0
M  V30 54 C 7.8384 -0.0660665 1.73875 0
M  V30 55 O 9.0144 0.122821 2.01025 0
M  V30 56 C 6.0794 0.54216 3.42435 0
M  V30 57 C 5.1404 1.65999 3.95908 0
M  V30 58 C 4.3734 1.2428 5.19028 0
M  V30 59 O 4.5964 0.114196 5.70286 0
M  V30 60 O 3.5304 2.05271 5.65816 0
M  V30 61 H 7.3564 1.91913 2.35379 0
M  V30 62 H 4.9414 0.994099 1.11526 0
M  V30 63 H 6.8234 0.30744 4.20277 0
M  V30 64 H 5.4984 -0.36815 3.216 0
M  V30 65 H 4.4054 1.94906 3.19316 0
M  V30 66 H 5.7384 2.54753 4.21143 0
M  V30 67 N 7.3905 -1.2043 1.01659 0
M  V30 68 C 8.3005 -2.2689 0.596484 0
M  V30 69 C 9.3165 -1.70107 -0.36599 0
M  V30 70 O 10.4925 -2.00117 -0.226942 0
M  V30 71 C 7.5575 -3.4665 -0.0586659 0
M  V30 72 C 6.6185 -4.18662 0.949751 0
M  V30 73 C 5.8515 -5.32705 0.32577 0
M  V30 74 O 6.0745 -5.63656 -0.874509 0
M  V30 75 O 5.0085 -5.92803 1.04249 0
M  V30 76 H 8.8345 -2.65041 1.4828 0
M  V30 77 H 6.4195 -1.27048 0.786082 0
M  V30 78 H 8.3015 -4.19256 -0.424564 0
M  V30 79 H 6.9765 -3.10375 -0.91918 0
M  V30 80 H 5.8835 -3.48229 1.36702 0
M  V30 81 H 7.2165 -4.58878 1.78023 0
M  V30 82 N 8.8686 -0.792821 -1.36206 0
M  V30 83 C 10.1146 -0.36733 -1.99446 0
M  V30 84 C 10.4476 1.05917 -1.62774 0
M  V30 85 O 9.7226 1.7324 -0.88421 0
M  V30 86 C 10.0056 -0.535044 -3.56103 0
M  V30 87 C 9.8586 -2.00548 -4.02617 0
M  V30 88 C 11.1776 0.0478191 -4.40074 0
M  V30 89 H 8.2966 -0.134941 -0.724541 0
M  V30 90 H 10.9386 -0.999794 -1.61568 0
M  V30 91 H 9.0886 0.00336329 -3.885 0
M  V30 92 H 10.7606 -2.60521 -3.80692 0
M  V30 93 H 9.0036 -2.50686 -3.54032 0
M  V30 94 H 9.6746 -2.07377 -5.11565 0
M  V30 95 H 12.1506 -0.411822 -4.14057 0
M  V30 96 H 11.0266 -0.0995336 -5.4881 0
M  V30 97 H 11.2876 1.14025 -4.27142 0
M  V30 98 N 10.3467 1.47872 -0.545128 0
M  V30 99 C 11.5717 2.07391 -0.0190611 0
M  V30 100 C 11.9967 1.39688 1.25971 0
M  V30 101 O 11.3547 0.467816 1.7516 0
M  V30 102 C 11.4027 3.60188 0.172335 0
M  V30 103 O 10.5067 3.9339 1.23766 0
M  V30 104 H 9.8477 0.662411 -0.0459059 0
M  V30 105 H 12.3777 1.90066 -0.757365 0
M  V30 106 H 12.3877 4.06129 0.390305 0
M  V30 107 H 11.0627 4.08865 -0.761725 0
M  V30 108 H 9.6397 3.5921 1.00114 0
M  V30 109 N 11.8248 0.280983 1.55075 0
M  V30 110 C 13.0708 -0.327573 2.00745 0
M  V30 111 C 13.4258 -1.53045 1.16598 0
M  V30 112 O 12.7188 -1.90221 0.229451 0
M  V30 113 C 12.9128 -0.754656 3.49342 0
M  V30 114 C 12.7418 0.40529 4.4787 0
M  V30 115 C 11.5118 0.890947 4.97383 0
M  V30 116 C 13.7098 1.24371 4.99035 0
M  V30 117 N 11.6918 2.01975 5.79724 0
M  V30 118 C 13.0628 2.22031 5.7888 0
M  V30 119 C 15.1178 1.27638 4.81262 0
M  V30 120 C 13.8208 3.22709 6.42846 0
M  V30 121 C 15.8468 2.27164 5.46031 0
M  V30 122 C 15.2088 3.23556 6.25692 0
M  V30 123 H 11.3078 -0.0848774 0.77738 0
M  V30 124 H 13.8918 0.406342 1.90413 0
M  V30 125 H 12.0628 -1.45778 3.60005 0
M  V30 126 H 13.7948 -1.34105 3.81835 0
M  V30 127 H 10.5498 0.469262 4.71269 0
M  V30 128 H 10.9738 2.58794 6.25584 0
M  V30 129 H 15.6158 0.544936 4.19274 0
M  V30 130 H 13.3338 3.96784 7.0398 0
M  V30 131 H 16.9198 2.30441 5.34217 0
M  V30 132 H 15.7998 3.99309 6.74924 0
M  V30 133 N 13.3029 -1.57598 0.00835791 0
M  V30 134 C 14.5519 -1.90107 -0.673968 0
M  V30 135 C 14.8649 -0.884275 -1.7447 0
M  V30 136 O 16.0709 -1.09987 -2.48224 0
M  V30 137 C 14.5269 -3.37497 -1.24995 0
M  V30 138 C 14.1349 -4.47491 -0.2136 0
M  V30 139 C 15.8789 -3.79104 -1.90999 0
M  V30 140 C 13.7859 -5.85963 -0.80005 0
M  V30 141 H 12.7159 -0.709393 -0.255495 0
M  V30 142 H 15.3669 -1.83365 0.0702693 0
M  V30 143 H 13.7489 -3.39102 -2.04513 0
M  V30 144 H 14.9229 -4.57414 0.557596 0
M  V30 145 H 13.2379 -4.14956 0.346474 0
M  V30 146 H 15.8349 -4.79901 -2.35795 0
M  V30 147 H 16.1779 -3.1306 -2.74407 0
M  V30 148 H 16.7109 -3.79833 -1.18203 0
M  V30 149 H 13.4499 -6.555 -0.00456708 0
M  V30 150 H 12.9699 -5.79687 -1.54021 0
M  V30 151 H 14.6489 -6.33884 -1.29615 0
M  V30 152 N 14.781 0.264519 -1.55364 0
M  V30 153 C 16.006 1.01726 -1.80739 0
M  V30 154 C 16.431 1.78836 -0.583044 0
M  V30 155 O 15.789 1.75167 0.467566 0
M  V30 156 C 15.837 1.94482 -3.03659 0
M  V30 157 O 14.941 3.03386 -2.7934 0
M  V30 158 H 14.282 0.290395 -0.597132 0
M  V30 159 H 16.812 0.290854 -2.02522 0
M  V30 160 H 16.822 2.36278 -3.32621 0
M  V30 161 H 15.497 1.37772 -3.92418 0
M  V30 162 H 14.074 2.65844 -2.61498 0
M  V30 163 N 16.2591 1.48442 0.529413 0
M  V30 164 C 17.5051 1.57699 1.28463 0
M  V30 165 C 17.8601 0.247913 1.90796 0
M  V30 166 O 17.1531 -0.749279 1.76342 0
M  V30 167 C 17.3471 2.6523 2.39558 0
M  V30 168 C 17.1761 4.08464 1.88114 0
M  V30 169 C 15.9461 4.75596 1.70693 0
M  V30 170 C 18.1441 4.94613 1.40935 0
M  V30 171 N 16.1261 6.03245 1.13881 0
M  V30 172 C 17.4971 6.12511 0.960734 0
M  V30 173 C 19.5521 4.80833 1.29243 0
M  V30 174 C 18.2551 7.18149 0.406792 0
M  V30 175 C 20.2811 5.86593 0.752487 0
M  V30 176 C 19.6431 7.037 0.313946 0
M  V30 177 H 15.7421 0.631608 0.46108 0
M  V30 178 H 18.3261 1.85325 0.596886 0
M  V30 179 H 16.4971 2.39425 3.05827 0
M  V30 180 H 18.2291 2.64169 3.06589 0
M  V30 181 H 14.9841 4.31938 1.94232 0
M  V30 182 H 15.4081 6.71324 0.874831 0
M  V30 183 H 20.0501 3.90635 1.61754 0
M  V30 184 H 17.7681 8.0807 0.0693671 0
M  V30 185 H 21.3541 5.77985 0.665192 0
M  V30 186 H 20.2341 7.8414 -0.0973632 0
M  V30 187 N 17.7372 -0.778329 1.37039 0
M  V30 188 C 18.9842 -1.53665 1.31884 0
M  V30 189 C 19.3122 -1.9425 -0.0986303 0
M  V30 190 O 18.5672 -1.63832 -1.07041 0
M  V30 191 C 18.8662 -2.81845 2.19768 0
M  V30 192 C 18.5322 -2.60345 3.68146 0
M  V30 193 C 17.1942 -2.5419 4.08584 0
M  V30 194 C 19.5462 -2.40923 4.62175 0
M  V30 195 C 16.8742 -2.26594 5.41177 0
M  V30 196 C 19.2262 -2.14852 5.94997 0
M  V30 197 C 17.8902 -2.07137 6.34547 0
M  V30 198 H 17.1602 -0.562299 0.482598 0
M  V30 199 H 19.8072 -0.897069 1.69189 0
M  V30 200 H 18.1122 -3.50328 1.75436 0
M  V30 201 H 19.8092 -3.39692 2.13097 0
M  V30 202 H 16.3992 -2.65996 3.36072 0
M  V30 203 H 20.5832 -2.44673 4.31797 0
M  V30 204 H 15.8392 -2.19111 5.70789 0
M  V30 205 H 20.0132 -1.98822 6.67415 0
M  V30 206 H 17.6402 -1.85518 7.37216 0
M  V30 207 N 19.2153 -1.21501 -1.00376 0
M  V30 208 C 20.4553 -1.04444 -1.75701 0
M  V30 209 C 20.8193 0.414644 -1.87469 0
M  V30 210 O 22.0203 0.705763 -2.59369 0
M  V30 211 C 20.2913 -1.72389 -3.13077 0
M  V30 212 S 21.8503 -1.70604 -4.04277 0
M  V30 213 H 18.6683 -0.374249 -0.604532 0
M  V30 214 H 21.2703 -1.54267 -1.20091 0
M  V30 215 H 19.9743 -2.77734 -3.02146 0
M  V30 216 H 19.5053 -1.22751 -3.73759 0
M  V30 217 H 21.5203 -0.748012 -4.9053 0
M  V30 218 N 20.6934 1.19889 -1.02296 0
M  V30 219 C 21.9414 1.89046 -0.714558 0
M  V30 220 C 22.2624 1.79636 0.758681 0
M  V30 221 O 21.5324 1.20292 1.54618 0
M  V30 222 H 20.1124 0.699802 -0.261317 0
M  V30 223 H 22.7744 1.45574 -1.29592 0
M  V30 224 H 21.8704 2.95524 -1.0036 0
M  V30 225 N 22.1715 0.800033 1.35784 0
M  V30 226 C 23.1015 0.220184 2.3246 0
M  V30 227 C 24.0825 -0.65073 1.57161 0
M  V30 228 O 25.2675 -0.582359 1.85263 0
M  V30 229 C 22.3975 -0.637353 3.41402 0
M  V30 230 C 21.3515 0.134531 4.27789 0
M  V30 231 C 20.6775 -0.844285 5.27992 0
M  V30 232 C 21.9775 1.32979 5.05088 0
M  V30 233 H 23.6715 1.02787 2.81203 0
M  V30 234 H 21.2175 0.495717 1.35199 0
M  V30 235 H 23.1705 -1.05302 4.08031 0
M  V30 236 H 21.8945 -1.47785 2.91251 0
M  V30 237 H 20.5535 0.531296 3.6273 0
M  V30 238 H 20.2015 -1.68011 4.74111 0
M  V30 239 H 19.9015 -0.332184 5.8666 0
M  V30 240 H 21.4255 -1.2583 5.97494 0
M  V30 241 H 22.8395 0.98934 5.64699 0
M  V30 242 H 21.2365 1.77593 5.7322 0
M  V30 243 H 22.3065 2.11978 4.36111 0
M  V30 244 N 23.6496 -1.47581 0.552962 0
M  V30 245 C 25.0656 -1.5818 0.212424 0
M  V30 246 C 25.2656 -1.55213 -1.28496 0
M  V30 247 O 24.3216 -1.45329 -2.06484 0
M  V30 248 C 25.6346 -2.88865 0.835318 0
M  V30 249 C 27.1826 -3.0244 0.806156 0
M  V30 250 C 27.6576 -4.35819 1.40804 0
M  V30 251 N 29.1486 -4.42444 1.37103 0
M  V30 252 C 29.8836 -5.44202 1.80641 0
M  V30 253 N 29.3796 -6.52795 2.32015 0
M  V30 254 N 31.1726 -5.35222 1.71738 0
M  V30 255 H 23.3236 -1.47753 1.52587 0
M  V30 256 H 25.5866 -0.702941 0.636064 0
M  V30 257 H 25.2926 -2.9676 1.88749 0
M  V30 258 H 25.1666 -3.7579 0.325848 0
M  V30 259 H 27.5536 -2.94144 -0.237317 0
M  V30 260 H 27.6346 -2.17068 1.35334 0
M  V30 261 H 27.2786 -4.44871 2.45056 0
M  V30 262 H 27.2086 -5.19916 0.836338 0
M  V30 263 H 29.6996 -3.6456 0.995202 0
M  V30 264 H 30.0126 -7.26609 2.63171 0
M  V30 265 H 28.3576 -6.53696 2.36023 0
M  V30 266 H 31.5486 -4.49284 1.31382 0
M  V30 267 H 31.7216 -6.14389 2.05987 0
M  V30 268 N 25.1277 -0.289203 -1.54924 0
M  V30 269 C 26.3757 0.322879 -1.99504 0
M  V30 270 C 26.6967 1.55313 -1.1791 0
M  V30 271 O 25.9667 1.94001 -0.272097 0
M  V30 272 H 24.5467 0.122291 -0.736922 0
M  V30 273 H 27.2087 -0.397802 -1.90797 0
M  V30 274 H 26.3047 0.603061 -3.06218 0
M  V30 275 N 26.6058 1.57591 -0.0167156 0
M  V30 276 C 27.5538 2.10604 0.987353 0
M  V30 277 C 28.5478 1.02977 1.34507 0
M  V30 278 O 29.7538 1.21425 1.32875 0
M  V30 279 H 26.1288 0.672695 0.336134 0
M  V30 280 H 28.0998 2.93925 0.514817 0
M  V30 281 C 26.8488 2.6382 2.26483 0
M  V30 282 H 26.1718 3.46278 1.99829 0
M  V30 283 H 27.6118 3.04573 2.94977 0
M  V30 284 C 26.0708 1.55992 2.9861 0
M  V30 285 O 26.6008 0.952521 3.90243 0
M  V30 286 N 24.8068 1.28335 2.60727 0
M  V30 287 H 24.3538 1.77914 1.86291 0
M  V30 288 H 24.3118 0.564115 3.09298 0
M  V30 289 N 28.0839 -0.256276 1.55502 0
M  V30 290 C 28.9939 -1.33882 1.92647 0
M  V30 291 C 30.0099 -1.53159 0.825727 0
M  V30 292 O 31.1859 -1.66963 1.12629 0
M  V30 293 C 28.2509 -2.6751 2.20543 0
M  V30 294 C 27.3119 -2.56836 3.43997 0
M  V30 295 C 26.5449 -3.84092 3.70553 0
M  V30 296 O 26.7679 -4.85545 2.99336 0
M  V30 297 O 25.7019 -3.83288 4.64084 0
M  V30 298 H 29.5279 -1.05374 2.84833 0
M  V30 299 H 27.1129 -0.456237 1.42263 0
M  V30 300 H 28.9949 -3.46492 2.39835 0
M  V30 301 H 27.6699 -2.9577 1.31536 0
M  V30 302 H 26.5769 -1.76172 3.30021 0
M  V30 303 H 27.9099 -2.33523 4.33275 0
M  V30 304 N 29.562 -1.4872 -0.521534 0
M  V30 305 C 30.809 -1.57168 -1.27689 0
M  V30 306 C 31.137 -0.249275 -1.92896 0
M  V30 307 O 30.392 0.761162 -1.80291 0
M  V30 308 C 30.691 -2.66497 -2.38148 0
M  V30 309 C 30.357 -4.08664 -1.90538 0
M  V30 310 C 29.019 -4.47357 -1.77271 0
M  V30 311 C 31.371 -4.97724 -1.54663 0
M  V30 312 C 28.699 -5.72905 -1.26478 0
M  V30 313 C 31.051 -6.2377 -1.05329 0
M  V30 314 C 29.715 -6.61311 -0.906861 0
M  V30 315 H 28.985 -0.575117 -0.467249 0
M  V30 316 H 31.632 -1.82472 -0.581051 0
M  V30 317 H 29.937 -2.35085 -3.13437 0
M  V30 318 H 31.634 -2.70246 -2.96257 0
M  V30 319 H 28.224 -3.78111 -2.01816 0
M  V30 320 H 32.408 -4.68501 -1.63768 0
M  V30 321 H 27.664 -6.00709 -1.13835 0
M  V30 322 H 31.838 -6.9217 -0.76644 0
M  V30 323 H 29.465 -7.5848 -0.511083 0
M  V30 324 N 31.0401 0.771051 -1.3745 0
M  V30 325 C 32.2871 1.52963 -1.32697 0
M  V30 326 C 32.6151 1.94299 0.0883274 0
M  V30 327 O 31.8701 1.64397 1.0617 0
M  V30 328 C 32.1691 2.80676 -2.2126 0
M  V30 329 C 31.8351 2.58389 -3.69521 0
M  V30 330 C 30.4971 2.52019 -4.09927 0
M  V30 331 C 32.8491 2.38469 -4.63446 0
M  V30 332 C 30.1771 2.23721 -5.42371 0
M  V30 333 C 32.5291 2.11694 -5.96128 0
M  V30 334 C 31.1931 2.03769 -6.35637 0
M  V30 335 H 30.4631 0.559732 -0.485573 0
M  V30 336 H 33.1101 0.888083 -1.69662 0
M  V30 337 H 31.4151 3.49392 -1.77291 0
M  V30 338 H 33.1121 3.38557 -2.14895 0
M  V30 339 H 29.7021 2.6421 -3.37478 0
M  V30 340 H 33.8861 2.4238 -4.33089 0
M  V30 341 H 29.1421 2.16081 -5.71943 0
M  V30 342 H 33.3161 1.9528 -6.6846 0
M  V30 343 H 30.9431 1.81606 -7.38189 0
M  V30 344 N 32.5182 1.22032 0.997298 0
M  V30 345 C 33.7582 1.05375 1.75144 0
M  V30 346 C 34.1222 -0.404696 1.87686 0
M  V30 347 O 35.3232 -0.691998 2.5974 0
M  V30 348 C 33.5942 1.74046 3.12158 0
M  V30 349 S 35.1532 1.72745 4.03366 0
M  V30 350 H 31.9712 0.377449 0.602539 0
M  V30 351 H 34.5732 1.54902 1.19272 0
M  V30 352 H 33.2772 2.79332 3.00669 0
M  V30 353 H 32.8082 1.24731 3.73103 0
M  V30 354 H 34.8232 0.774015 4.90126 0
M  V30 355 N 33.9963 -1.19345 1.0293 0
M  V30 356 C 34.9063 -2.26245 0.620515 0
M  V30 357 C 35.9223 -1.70486 -0.347928 0
M  V30 358 O 37.0983 -2.00347 -0.205704 0
M  V30 359 C 34.1633 -3.46693 -0.0218957 0
M  V30 360 C 33.2243 -4.17632 0.994102 0
M  V30 361 C 32.4573 -5.32329 0.382253 0
M  V30 362 O 32.6803 -5.64552 -0.814676 0
M  V30 363 O 31.6143 -5.91664 1.10531 0
M  V30 364 H 35.4403 -2.63453 1.51083 0
M  V30 365 H 33.0253 -1.26207 0.799513 0
M  V30 366 H 34.9073 -4.19683 -0.380072 0
M  V30 367 H 33.5823 -3.11333 -0.886209 0
M  V30 368 H 32.4893 -3.4676 1.40387 0
M  V30 369 H 33.8223 -4.56964 1.8288 0
M  V30 370 N 35.4744 -0.807222 -1.35358 0
M  V30 371 C 36.7204 -0.388463 -1.99045 0
M  V30 372 C 37.0534 1.04184 -1.63888 0
M  V30 373 O 36.3284 1.72292 -0.902535 0
M  V30 374 C 36.6114 -0.572783 -3.55515 0
M  V30 375 C 36.4644 -2.04807 -4.00468 0
M  V30 376 C 37.7834 0.00114064 -4.401 0
M  V30 377 H 34.9024 -0.142619 -0.723069 0
M  V30 378 H 37.5444 -1.01687 -1.60498 0
M  V30 379 H 35.6944 -0.0378425 -3.88482 0
M  V30 380 H 37.3664 -2.64544 -3.77908 0
M  V30 381 H 35.6094 -2.54427 -3.51353 0
M  V30 382 H 36.2804 -2.12792 -5.09337 0
M  V30 383 H 38.7564 -0.455716 -4.13597 0
M  V30 384 H 37.6324 -0.157737 -5.48673 0
M  V30 385 H 37.8934 1.09488 -4.28328 0
M  V30 386 N 36.9525 1.47285 -0.560781 0
M  V30 387 C 38.2295 1.9558 0.0277798 0
M  V30 388 C 38.6095 1.5034 1.48192 0
M  V30 389 O 37.9575 0.743882 2.16052 0
M  V30 390 C 38.1675 3.48789 -0.121418 0
M  V30 391 C 39.5155 4.24594 0.0220912 0
M  V30 392 O 40.5395 3.56166 -0.0491439 0
M  V30 393 O 39.3985 5.46217 0.175958 0
M  V30 394 H 36.4925 0.824663 0.0621342 0
M  V30 395 H 39.0385 1.5767 -0.627556 0
M  V30 396 H 37.8105 3.74533 -1.13316 0
M  V30 397 H 37.4335 3.93473 0.571366 0
M  V30 398 N 38.4306 0.297415 1.54768 0
M  V30 399 C 39.3406 -0.58983 2.27064 0
M  V30 400 C 40.3566 -1.15144 1.30453 0
M  V30 401 O 41.5326 -1.17699 1.63428 0
M  V30 402 C 38.5976 -1.74714 2.9946 0
M  V30 403 C 37.6586 -1.21997 4.11601 0
M  V30 404 C 36.8916 -2.32212 4.80535 0
M  V30 405 O 37.1146 -3.52036 4.48806 0
M  V30 406 O 36.0486 -1.99106 5.68014 0
M  V30 407 H 39.8746 -0.00348199 3.037 0
M  V30 408 H 37.4596 0.0640035 1.49263 0
M  V30 409 H 39.3416 -2.42147 3.44881 0
M  V30 410 H 38.0166 -2.32016 2.25722 0
M  V30 411 H 36.9236 -0.511458 3.70587 0
M  V30 412 H 38.2566 -0.692419 4.87305 0
M  V30 413 N 39.9087 -1.5758 0.0250728 0
M  V30 414 C 41.1857 -1.82917 -0.692873 0
M  V30 415 C 41.5657 -0.908137 -1.90568 0
M  V30 416 O 40.9137 0.0372298 -2.2847 0
M  V30 417 C 41.1237 -3.32034 -1.07492 0
M  V30 418 C 42.4717 -3.98406 -1.46826 0
M  V30 419 O 43.4957 -3.36505 -1.16801 0
M  V30 420 O 42.3547 -5.07497 -2.02754 0
M  V30 421 H 39.4487 -0.754079 -0.33955 0
M  V30 422 H 41.9947 -1.69619 0.0524456 0
M  V30 423 H 40.7667 -3.90728 -0.211552 0
M  V30 424 H 40.3897 -3.50424 -1.87854 0
M  V30 425 N 41.3868 0.248026 -1.55636 0
M  V30 426 C 42.6168 0.992367 -1.81206 0
M  V30 427 C 43.0248 1.7949 -0.598324 0
M  V30 428 O 42.3678 1.78292 0.442434 0
M  V30 429 C 42.4298 1.97926 -3.00109 0
M  V30 430 C 42.0938 1.36377 -4.36177 0
M  V30 431 C 43.0908 0.76682 -5.14214 0
M  V30 432 C 40.7758 1.38347 -4.82872 0
M  V30 433 C 42.7698 0.197778 -6.37093 0
M  V30 434 C 40.4568 0.810574 -6.057 0
M  V30 435 C 41.4548 0.218754 -6.8265 0
M  V30 436 O 41.1428 -0.345298 -8.03158 0
M  V30 437 H 40.8748 0.297704 -0.606917 0
M  V30 438 H 43.4288 0.276517 -2.0353 0
M  V30 439 H 41.6588 2.73339 -2.73538 0
M  V30 440 H 43.3478 2.58694 -3.12781 0
M  V30 441 H 44.1138 0.744114 -4.79258 0
M  V30 442 H 39.9928 1.8335 -4.2297 0
M  V30 443 H 43.5368 -0.264788 -6.97097 0
M  V30 444 H 39.4338 0.830604 -6.40134 0
M  V30 445 H 40.2018 -0.237055 -8.18157 0
M  V30 446 N 42.8649 1.48995 0.513639 0
M  V30 447 C 44.1139 1.57093 1.2651 0
M  V30 448 C 44.4269 0.257091 1.93903 0
M  V30 449 O 45.6329 0.216478 2.70636 0
M  V30 450 C 44.0889 2.77118 2.29638 0
M  V30 451 C 43.6969 4.15209 1.68241 0
M  V30 452 C 45.4409 2.94538 3.05692 0
M  V30 453 C 43.3479 5.26474 2.69406 0
M  V30 454 H 42.2779 0.584876 0.475854 0
M  V30 455 H 44.9289 1.7536 0.540487 0
M  V30 456 H 43.3109 2.52319 3.05207 0
M  V30 457 H 44.4849 4.50094 0.987505 0
M  V30 458 H 42.7999 4.03042 1.04623 0
M  V30 459 H 45.3969 3.74832 3.8132 0
M  V30 460 H 45.7399 2.04614 3.62545 0
M  V30 461 H 46.2729 3.19316 2.37238 0
M  V30 462 H 43.0119 6.18417 2.17351 0
M  V30 463 H 42.5319 4.96058 3.37175 0
M  V30 464 H 44.2109 5.55277 3.32078 0
M  V30 465 N 44.343 -0.763751 1.37857 0
M  V30 466 C 45.275 -1.88664 1.30148 0
M  V30 467 C 46.288 -1.61365 0.215685 0
M  V30 468 O 47.477 -1.72134 0.472459 0
M  V30 469 C 44.577 -3.24075 0.991396 0
M  V30 470 C 43.75 -3.78958 2.18426 0
M  V30 471 C 42.809 -4.92862 1.8432 0
M  V30 472 O 41.835 -5.08027 2.56704 0
M  V30 473 N 43.037 -5.75071 0.792081 0
M  V30 474 H 45.802 -1.95791 2.26905 0
M  V30 475 H 43.363 -0.943226 1.31586 0
M  V30 476 H 45.355 -3.97804 0.743935 0
M  V30 477 H 43.925 -3.12399 0.112122 0
M  V30 478 H 43.145 -2.96913 2.59299 0
M  V30 479 H 44.433 -4.12357 2.98058 0
M  V30 480 H 43.831 -5.65375 0.191595 0
M  V30 481 H 42.388 -6.48991 0.60449 0
M  V30 482 N 45.8211 -1.22559 -0.990812 0
M  V30 483 C 47.0981 -0.959875 -1.70428 0
M  V30 484 C 47.4781 0.524455 -2.04481 0
M  V30 485 O 46.8261 1.49302 -1.72977 0
M  V30 486 C 47.0361 -1.85955 -2.95333 0
M  V30 487 C 48.3841 -2.11687 -3.68068 0
M  V30 488 O 49.4081 -1.8342 -3.05345 0
M  V30 489 O 48.2671 -2.59572 -4.80921 0
M  V30 490 H 45.3611 -0.361154 -0.743974 0
M  V30 491 H 47.9071 -1.33554 -1.04697 0
M  V30 492 H 46.6791 -2.86346 -2.66687 0
M  V30 493 H 46.3021 -1.4856 -3.68803 0
M  V30 494 N 47.2992 1.18797 -1.03562 0
M  V30 495 C 48.2462 2.22253 -0.622259 0
M  V30 496 C 49.2162 1.61987 0.36736 0
M  V30 497 O 50.4012 1.88986 0.262492 0
M  V30 498 C 47.5412 3.45097 0.0138462 0
M  V30 499 C 46.6542 4.19722 -1.02263 0
M  V30 500 C 45.7892 5.30009 -0.355573 0
M  V30 501 C 44.8282 5.96399 -1.37749 0
M  V30 502 N 43.9652 6.98234 -0.735766 0
M  V30 503 H 48.8052 2.56968 -1.50903 0
M  V30 504 H 46.3422 1.26245 -0.755017 0
M  V30 505 H 48.3002 4.15279 0.399948 0
M  V30 506 H 46.9302 3.11018 0.864158 0
M  V30 507 H 45.9822 3.48418 -1.52673 0
M  V30 508 H 47.2942 4.65227 -1.79903 0
M  V30 509 H 46.4482 6.0664 0.0850095 0
M  V30 510 H 45.1872 4.85592 0.452967 0
M  V30 511 H 44.1922 5.18512 -1.82826 0
M  V30 512 H 45.4172 6.42899 -2.18764 0
M  V30 513 H 43.3632 6.55979 0.0525597 0
M  V30 514 H 43.2802 7.41965 -1.44995 0
M  V30 515 H 44.5482 7.78845 -0.31941 0
M  V30 516 N 48.7773 0.814389 1.34928 0
M  V30 517 C 50.0243 0.398423 1.98542 0
M  V30 518 C 50.3523 -1.03638 1.64589 0
M  V30 519 O 49.6073 -1.73509 0.90516 0
M  V30 520 C 49.9063 0.537781 3.53331 0
M  V30 521 C 49.5723 1.93704 4.07172 0
M  V30 522 C 48.2343 2.31984 4.21589 0
M  V30 523 C 50.5863 2.85213 4.36237 0
M  V30 524 C 47.9143 3.61125 4.62391 0
M  V30 525 C 50.2663 4.13809 4.78482 0
M  V30 526 C 48.9303 4.52077 4.91104 0
M  V30 527 H 48.2003 0.145793 0.726516 0
M  V30 528 H 50.8473 1.03669 1.61012 0
M  V30 529 H 49.1523 -0.183906 3.91368 0
M  V30 530 H 50.8493 0.196588 4.00518 0
M  V30 531 H 47.4393 1.62966 3.96409 0
M  V30 532 H 51.6233 2.56885 4.24645 0
M  V30 533 H 46.8793 3.90612 4.70353 0
M  V30 534 H 51.0533 4.84811 4.99932 0
M  V30 535 H 48.6803 5.52196 5.22478 0
M  V30 536 N 50.2554 -1.46986 0.568584 0
M  V30 537 C 51.2034 -2.31858 -0.185649 0
M  V30 538 C 52.1974 -1.43624 -0.898249 0
M  V30 539 O 53.4034 -1.60327 -0.818242 0
M  V30 540 H 49.7784 -0.747866 -0.0787399 0
M  V30 541 H 51.7494 -2.93303 0.549191 0
M  V30 542 C 50.4984 -3.26513 -1.19519 0
M  V30 543 H 49.8214 -3.94377 -0.656285 0
M  V30 544 H 51.2614 -3.88707 -1.6936 0
M  V30 545 C 49.7204 -2.50847 -2.24894 0
M  V30 546 O 50.2504 -2.26119 -3.32014 0
M  V30 547 N 48.4564 -2.11656 -1.99124 0
M  V30 548 H 48.0034 -2.31966 -1.12024 0
M  V30 549 H 47.9614 -1.61347 -2.69842 0
M  V30 550 N 51.7335 -0.305618 -1.54608 0
M  V30 551 C 52.6635 0.561482 -2.26649 0
M  V30 552 C 53.6445 1.13415 -1.26772 0
M  V30 553 O 54.8295 1.16262 -1.55553 0
M  V30 554 C 51.9595 1.73122 -3.01075 0
M  V30 555 C 50.9135 1.2887 -4.08138 0
M  V30 556 C 50.2395 2.54396 -4.70305 0
M  V30 557 C 51.5395 0.416578 -5.20636 0
M  V30 558 H 53.2335 -0.0393902 -2.99374 0
M  V30 559 H 50.7795 -0.020385 -1.43986 0
M  V30 560 H 52.7325 2.34396 -3.50195 0
M  V30 561 H 51.4565 2.3584 -2.25936 0
M  V30 562 H 50.1155 0.698991 -3.59875 0
M  V30 563 H 49.7635 3.15439 -3.918 0
M  V30 564 H 49.4635 2.25486 -5.42614 0
M  V30 565 H 50.9875 3.16464 -5.2219 0
M  V30 566 H 52.4015 0.935116 -5.65622 0
M  V30 567 H 50.7985 0.221046 -5.99693 0
M  V30 568 H 51.8685 -0.557162 -4.81688 0
M  V30 569 N 53.2116 1.57565 -0.0334293 0
M  V30 570 C 54.4396 1.9628 0.654347 0
M  V30 571 C 54.8546 0.910138 1.65414 0
M  V30 572 O 54.2116 -0.107595 1.82183 0
M  V30 573 C 54.2626 3.35067 1.35693 0
M  V30 574 O 53.9836 4.36296 0.397191 0
M  V30 575 C 55.4846 3.88439 2.13613 0
M  V30 576 H 52.7046 0.646369 0.180132 0
M  V30 577 H 55.2486 2.04282 -0.0944721 0
M  V30 578 H 53.4036 3.2827 2.05712 0
M  V30 579 H 53.8176 5.1678 0.896597 0
M  V30 580 H 55.2916 4.8788 2.58219 0
M  V30 581 H 55.7686 3.22914 2.97696 0
M  V30 582 H 56.3746 3.98516 1.48543 0
M  V30 583 N 54.6897 -0.239769 1.55765 0
M  V30 584 C 55.9377 -0.964892 1.77579 0
M  V30 585 C 56.2587 -1.85582 0.598699 0
M  V30 586 O 55.5287 -1.92075 -0.385226 0
M  V30 587 H 54.1087 -0.359265 0.654933 0
M  V30 588 H 56.7707 -0.256001 1.93211 0
M  V30 589 H 55.8667 -1.58243 2.69009 0
M  V30 590 N 56.1678 -1.49265 -0.50573 0
M  V30 591 C 57.0978 -1.68495 -1.61653 0
M  V30 592 C 58.0788 -0.53366 -1.61512 0
M  V30 593 O 59.2638 -0.76897 -1.78327 0
M  V30 594 C 56.3938 -1.74709 -3.00157 0
M  V30 595 C 55.3478 -2.89581 -3.15162 0
M  V30 596 C 54.6738 -2.80903 -4.5497 0
M  V30 597 C 55.9738 -4.30578 -2.95634 0
M  V30 598 H 57.6678 -2.61493 -1.45814 0
M  V30 599 H 55.2138 -1.25838 -0.70005 0
M  V30 600 H 57.1668 -1.86748 -3.77761 0
M  V30 601 H 55.8908 -0.783067 -3.17074 0
M  V30 602 H 54.5498 -2.77136 -2.39982 0
M  V30 603 H 54.1978 -1.82419 -4.68756 0
M  V30 604 H 53.8978 -3.57999 -4.65951 0
M  V30 605 H 55.4218 -2.94944 -5.34641 0
M  V30 606 H 56.8358 -4.4373 -3.63011 0
M  V30 607 H 55.2328 -5.0886 -3.18091 0
M  V30 608 H 56.3028 -4.45352 -1.91806 0
M  V30 609 N 57.6459 0.756429 -1.3826 0
M  V30 610 C 58.5939 1.89149 -1.35372 0
M  V30 611 C 59.5879 1.67691 -0.24004 0
M  V30 612 O 60.7939 1.75294 -0.408919 0
M  V30 613 H 57.1689 0.622271 -0.422236 0
M  V30 614 H 59.1399 1.88701 -2.31159 0
M  V30 615 C 57.8889 3.26599 -1.19284 0
M  V30 616 H 57.2119 3.43695 -2.0424 0
M  V30 617 H 58.6519 4.06274 -1.21316 0
M  V30 618 C 57.1109 3.3675 0.100454 0
M  V30 619 O 57.6409 3.86951 1.07851 0
M  V30 620 N 55.8469 2.90179 0.15633 0
M  V30 621 H 55.3939 2.49517 -0.640253 0
M  V30 622 H 55.3519 2.97352 1.02123 0
M  V30 623 N 59.124 1.23083 0.984299 0
M  V30 624 C 60.034 1.02515 2.11016 0
M  V30 625 C 61.05 -0.0291702 1.73976 0
M  V30 626 O 62.226 0.165434 2.00719 0
M  V30 627 C 59.291 0.614673 3.41208 0
M  V30 628 C 58.352 1.74359 3.92297 0
M  V30 629 C 57.585 1.35261 5.16275 0
M  V30 630 O 57.808 0.235136 5.69915 0
M  V30 631 O 56.742 2.17227 5.61334 0
M  V30 632 H 60.568 1.96862 2.31255 0
M  V30 633 H 58.153 1.01753 1.09392 0
M  V30 634 H 60.035 0.396518 4.1953 0
M  V30 635 H 58.71 -0.299851 3.22308 0
M  V30 636 H 57.617 2.01635 3.1511 0
M  V30 637 H 58.95 2.63629 4.15645 0
M  V30 638 N 60.6021 -1.18246 1.0419 0
M  V30 639 C 61.5341 -2.2142 0.592088 0
M  V30 640 C 62.5471 -1.59233 -0.338909 0
M  V30 641 O 63.7361 -1.78002 -0.133231 0
M  V30 642 C 60.8361 -3.38546 -0.154854 0
M  V30 643 C 60.0091 -4.3031 0.784328 0
M  V30 644 C 59.0681 -5.26138 0.0804583 0
M  V30 645 O 58.0941 -5.64738 0.711292 0
M  V30 646 N 59.2961 -5.68261 -1.18574 0
M  V30 647 H 62.0611 -2.60636 1.47949 0
M  V30 648 H 59.6221 -1.33044 0.922544 0
M  V30 649 H 61.6141 -3.99678 -0.635606 0
M  V30 650 H 60.1841 -2.98012 -0.943811 0
M  V30 651 H 59.4041 -3.66764 1.44491 0
M  V30 652 H 60.6921 -4.8852 1.42218 0
M  V30 653 H 60.0901 -5.38957 -1.71876 0
M  V30 654 H 58.6471 -6.31584 -1.61074 0
M  V30 655 N 62.0802 -0.821533 -1.34494 0
M  V30 656 C 63.3262 -0.409552 -1.98622 0
M  V30 657 C 63.6592 1.0244 -1.64984 0
M  V30 658 O 62.9342 1.71325 -0.920758 0
M  V30 659 C 63.2172 -0.610458 -3.54888 0
M  V30 660 C 63.0702 -2.09043 -3.98273 0
M  V30 661 C 64.3892 -0.0455379 -4.40076 0
M  V30 662 H 61.5082 -0.15028 -0.721516 0
M  V30 663 H 64.1502 -1.03384 -1.59411 0
M  V30 664 H 62.3002 -0.079044 -3.8842 0
M  V30 665 H 63.9722 -2.68537 -3.75081 0
M  V30 666 H 62.2152 -2.58139 -3.48635 0
M  V30 667 H 62.8862 -2.18182 -5.07051 0
M  V30 668 H 65.3622 -0.499557 -4.1309 0
M  V30 669 H 64.2382 -0.215922 -5.48475 0
M  V30 670 H 64.4992 1.04939 -4.29465 0
M  V30 671 N 63.5583 1.46682 -0.576371 0
M  V30 672 C 64.9693 1.86112 -0.148091 0
M  V30 673 C 65.3203 1.48073 1.2872 0
M  V30 674 O 64.4453 0.892656 1.97131 0
M  V30 675 C 65.0403 3.37786 -0.261982 0
M  V30 676 C 63.5993 3.76235 0.111384 0
M  V30 677 C 62.7463 2.70713 -0.60083 0
M  V30 678 H 65.6973 1.37927 -0.78497 0
M  V30 679 H 65.7183 3.77007 0.514364 0
M  V30 680 H 65.2303 3.6544 -1.30671 0
M  V30 681 H 63.3313 3.54198 1.15649 0
M  V30 682 H 63.4443 4.78391 -0.26052 0
M  V30 683 H 61.8083 2.54666 -0.0417783 0
M  V30 684 H 62.5913 3.01208 -1.64708 0
M  V30 685 N 65.0364 0.313813 1.54444 0
M  V30 686 C 65.9864 -0.571898 2.20711 0
M  V30 687 C 66.9704 -1.08913 1.18435 0
M  V30 688 O 68.1624 -1.02777 1.44104 0
M  V30 689 C 65.2914 -1.7371 2.96108 0
M  V30 690 C 64.3774 -1.23522 4.05713 0
M  V30 691 N 64.7684 -0.452288 5.03774 0
M  V30 692 C 63.0664 -1.51482 4.19487 0
M  V30 693 C 63.7674 -0.183438 5.81411 0
M  V30 694 N 62.7434 -0.766845 5.38164 0
M  V30 695 H 66.5454 0.0336802 2.93881 0
M  V30 696 H 64.0594 0.119192 1.61962 0
M  V30 697 H 66.0564 -2.38329 3.4206 0
M  V30 698 H 64.7164 -2.34625 2.24458 0
M  V30 699 H 65.7274 -0.0960131 5.17811 0
M  V30 700 H 62.4044 -2.13053 3.59047 0
M  V30 701 H 63.7944 0.446216 6.70417 0
M  V30 702 N 66.5145 -1.57545 0.0417849 0
M  V30 703 C 67.7445 -1.96339 -0.642995 0
M  V30 704 C 68.1525 -0.917536 -1.65463 0
M  V30 705 O 67.4955 0.107747 -1.83384 0
M  V30 706 C 67.5575 -3.31333 -1.39494 0
M  V30 707 C 67.2215 -4.53796 -0.540204 0
M  V30 708 C 68.2185 -5.19553 0.189806 0
M  V30 709 C 65.9035 -5.0006 -0.473886 0
M  V30 710 C 67.8975 -6.29904 0.974674 0
M  V30 711 C 65.5845 -6.10289 0.314677 0
M  V30 712 C 66.5825 -6.75072 1.03765 0
M  V30 713 O 66.2705 -7.83183 1.81327 0
M  V30 714 H 66.0025 -0.651241 -0.181277 0
M  V30 715 H 68.5565 -2.05148 0.101665 0
M  V30 716 H 66.7865 -3.19052 -2.18502 0
M  V30 717 H 68.4755 -3.54942 -1.96904 0
M  V30 718 H 69.2415 -4.84774 0.147981 0
M  V30 719 H 65.1205 -4.49433 -1.0262 0
M  V30 720 H 68.6645 -6.80401 1.5395 0
M  V30 721 H 64.5615 -6.44506 0.358174 0
M  V30 722 H 65.3295 -7.99913 1.73438 0
M  V30 723 N 67.9926 0.231505 -1.5589 0
M  V30 724 C 69.4086 0.580748 -1.48659 0
M  V30 725 C 69.6086 1.87617 -0.73498 0
M  V30 726 O 68.6646 2.51046 -0.270586 0
M  V30 727 C 69.9776 0.669202 -2.93159 0
M  V30 728 C 71.5256 0.760499 -3.03621 0
M  V30 729 C 72.0006 0.880383 -4.49459 0
M  V30 730 N 73.4916 0.944861 -4.53461 0
M  V30 731 C 74.2266 1.05716 -5.63571 0
M  V30 732 N 73.7226 1.13403 -6.83456 0
M  V30 733 N 75.5156 1.09152 -5.514 0
M  V30 734 H 67.6666 -0.618695 -2.03189 0
M  V30 735 H 69.9296 -0.215728 -0.923128 0
M  V30 736 H 69.6356 -0.212904 -3.51055 0
M  V30 737 H 69.5096 1.5361 -3.44505 0
M  V30 738 H 71.8966 1.63305 -2.45796 0
M  V30 739 H 71.9776 -0.131864 -2.5546 0
M  V30 740 H 71.6216 0.0123284 -5.07899 0
M  V30 741 H 71.5516 1.78802 -4.95316 0
M  V30 742 H 74.0426 0.896176 -3.6712 0
M  V30 743 H 74.3556 1.21921 -7.63122 0
M  V30 744 H 72.7006 1.10333 -6.86186 0
M  V30 745 H 75.8916 1.02805 -4.56671 0
M  V30 746 H 76.0646 1.17558 -6.37247 0
M  V30 747 N 69.4707 1.49531 0.497807 0
M  V30 748 C 70.4027 1.62559 1.61578 0
M  V30 749 C 71.4157 0.508134 1.54667 0
M  V30 750 O 72.6047 0.780309 1.60541 0
M  V30 751 C 69.7047 1.56925 3.00379 0
M  V30 752 C 68.8777 2.84257 3.3244 0
M  V30 753 C 67.9367 2.71632 4.50669 0
M  V30 754 O 66.9627 3.4557 4.52294 0
M  V30 755 N 68.1647 1.83391 5.5077 0
M  V30 756 H 70.9297 2.58981 1.50828 0
M  V30 757 H 68.4907 1.4666 0.685743 0
M  V30 758 H 70.4827 1.46129 3.77397 0
M  V30 759 H 69.0527 0.683483 3.05037 0
M  V30 760 H 68.2727 3.09381 2.44289 0
M  V30 761 H 69.5607 3.68666 3.5066 0
M  V30 762 H 68.9587 1.22583 5.52259 0
M  V30 763 H 67.5157 1.78515 6.26878 0
M  V30 764 N 70.9488 -0.749086 1.3866 0
M  V30 765 C 71.9118 -1.84457 1.36045 0
M  V30 766 C 72.9118 -1.58682 0.260122 0
M  V30 767 O 74.1018 -1.66343 0.517261 0
M  V30 768 C 71.2338 -3.22008 1.11911 0
M  V30 769 H 72.4268 -1.88182 2.33512 0
M  V30 770 H 69.9798 -0.951266 1.24019 0
M  V30 771 H 70.7148 -3.2395 0.150686 0
M  V30 772 H 70.4998 -3.42111 1.91579 0
M  V30 773 H 71.9898 -4.0208 1.12788 0
M  V30 774 N 72.4269 -1.23603 -0.977757 0
M  V30 775 C 73.3569 -1.04401 -2.0886 0
M  V30 776 C 74.3379 0.0399052 -1.70053 0
M  V30 777 O 75.5229 -0.125246 -1.93796 0
M  V30 778 C 72.6529 -0.637269 -3.41403 0
M  V30 779 C 71.6069 -1.66883 -3.94124 0
M  V30 780 C 70.9329 -1.11745 -5.22893 0
M  V30 781 C 72.2329 -3.06247 -4.23096 0
M  V30 782 H 73.9269 -1.97316 -2.25182 0
M  V30 783 H 71.4729 -0.950096 -1.08209 0
M  V30 784 H 73.4259 -0.48998 -4.18542 0
M  V30 785 H 72.1499 0.327557 -3.24953 0
M  V30 786 H 70.8089 -1.80416 -3.19133 0
M  V30 787 H 70.4569 -0.143527 -5.02795 0
M  V30 788 H 70.1569 -1.80672 -5.59134 0
M  V30 789 H 71.6809 -0.982067 -6.02651 0
M  V30 790 H 73.0949 -2.96001 -4.90975 0
M  V30 791 H 71.4919 -3.72436 -4.70544 0
M  V30 792 H 72.5619 -3.55041 -3.30263 0
M  V30 793 N 73.905 1.17692 -1.04816 0
M  V30 794 C 75.182 1.83768 -0.669963 0
M  V30 795 C 75.562 1.93232 0.849986 0
M  V30 796 O 74.91 1.46397 1.75443 0
M  V30 797 C 75.12 3.21641 -1.35455 0
M  V30 798 C 76.468 3.97592 -1.49017 0
M  V30 799 O 77.492 3.31107 -1.31326 0
M  V30 800 O 76.351 5.16729 -1.77914 0
M  V30 801 H 73.445 0.792799 -0.235368 0
M  V30 802 H 75.991 1.25021 -1.14751 0
M  V30 803 H 74.763 3.097 -2.39168 0
M  V30 804 H 74.386 3.88052 -0.866107 0
M  V30 805 N 75.3831 0.828654 1.34056 0
M  V30 806 C 76.3161 0.199763 2.27324 0
M  V30 807 C 77.2941 -0.647168 1.49166 0
M  V30 808 O 78.4781 -0.609661 1.78369 0
M  V30 809 C 75.6051 -0.720455 3.30949 0
M  V30 810 C 74.6511 0.0496888 4.26471 0
M  V30 811 S 75.4841 1.40072 5.16856 0
M  V30 812 C 76.6401 0.485527 6.24014 0
M  V30 813 H 76.8731 0.990478 2.80316 0
M  V30 814 H 74.4061 0.624857 1.41191 0
M  V30 815 H 76.3641 -1.24581 3.91139 0
M  V30 816 H 75.0251 -1.48474 2.76793 0
M  V30 817 H 74.2181 -0.650104 4.9979 0
M  V30 818 H 73.8201 0.505779 3.70564 0
M  V30 819 H 76.1121 -0.320672 6.76741 0
M  V30 820 H 77.0551 1.18856 6.98054 0
M  V30 821 H 77.4631 0.0714109 5.64455 0
M  V30 822 N 76.8612 -1.46375 0.584142 0
M  V30 823 C 78.1102 -2.01585 0.0679741 0
M  V30 824 C 78.4232 -1.46109 -1.30045 0
M  V30 825 O 79.6292 -1.93148 -1.90804 0
M  V30 826 C 78.0852 -3.5983 0.0709207 0
M  V30 827 C 77.6932 -4.24303 1.43775 0
M  V30 828 C 79.4372 -4.22693 -0.391228 0
M  V30 829 C 77.3442 -5.74631 1.39834 0
M  V30 830 H 76.2742 -0.753689 0.0216421 0
M  V30 831 H 78.9252 -1.68093 0.736001 0
M  V30 832 H 77.3072 -3.90405 -0.663299 0
M  V30 833 H 78.4812 -4.05335 2.19181 0
M  V30 834 H 76.7962 -3.73539 1.84004 0
M  V30 835 H 79.3932 -5.3289 -0.439524 0
M  V30 836 H 79.7362 -3.91728 -1.40906 0
M  V30 837 H 80.2692 -3.96749 0.288974 0
M  V30 838 H 77.0082 -6.10258 2.39303 0
M  V30 839 H 76.5282 -5.95858 0.686505 0
M  V30 840 H 78.2072 -6.37375 1.11187 0
M  V30 841 N 78.3393 -0.321999 -1.54275 0
M  V30 842 C 79.2693 0.537411 -2.27231 0
M  V30 843 C 80.2503 1.12064 -1.27968 0
M  V30 844 O 81.4353 1.14606 -1.56777 0
M  V30 845 C 78.5653 1.69919 -3.02894 0
M  V30 846 C 77.5193 1.24534 -4.09482 0
M  V30 847 C 76.8453 2.49394 -4.72977 0
M  V30 848 C 78.1453 0.361335 -5.21049 0
M  V30 849 H 79.8393 -0.0711406 -2.99315 0
M  V30 850 H 77.3853 -0.0356555 -1.43956 0
M  V30 851 H 79.3383 2.30668 -3.52662 0
M  V30 852 H 78.0623 2.33431 -2.28424 0
M  V30 853 H 76.7213 0.660782 -3.60596 0
M  V30 854 H 76.3693 3.11265 -3.95124 0
M  V30 855 H 76.0693 2.19718 -5.44975 0
M  V30 856 H 77.5933 3.10908 -5.25517 0
M  V30 857 H 79.0073 0.875072 -5.66582 0
M  V30 858 H 77.4043 0.157428 -5.99893 0
M  V30 859 H 78.4743 -0.60822 -4.8107 0
M  V30 860 N 79.8174 1.5752 -0.0501392 0
M  V30 861 C 81.0944 1.83996 0.663685 0
M  V30 862 C 81.4744 0.938339 1.89099 0
M  V30 863 O 80.8224 -0.00087759 2.285 0
M  V30 864 C 81.0324 3.33702 1.02196 0
M  V30 865 C 82.3804 4.00691 1.40469 0
M  V30 866 O 83.4044 3.38321 1.11433 0
M  V30 867 O 82.2634 5.10658 1.94654 0
M  V30 868 H 79.3574 0.759385 0.32751 0
M  V30 869 H 81.9034 1.69514 -0.0794238 0
M  V30 870 H 80.6754 3.91015 0.149364 0
M  V30 871 H 80.2984 3.53368 1.82255 0
M  V30 872 N 81.2955 -0.223234 1.56011 0
M  V30 873 C 82.2255 -1.27988 1.95298 0
M  V30 874 C 83.2065 -1.48976 0.820979 0
M  V30 875 O 84.3915 -1.61188 1.08315 0
M  V30 876 C 81.5215 -2.63 2.26822 0
M  V30 877 C 80.4755 -2.56671 3.42497 0
M  V30 878 C 79.8015 -3.95697 3.59622 0
M  V30 879 C 81.1015 -2.11601 4.77517 0
M  V30 880 H 82.7955 -0.953525 2.8381 0
M  V30 881 H 80.3415 -0.457244 1.36548 0
M  V30 882 H 82.2945 -3.37077 2.52898 0
M  V30 883 H 81.0185 -2.9732 1.35161 0
M  V30 884 H 79.6775 -1.85051 3.16467 0
M  V30 885 H 79.3255 -4.27322 2.6534 0
M  V30 886 H 79.0255 -3.92345 4.37424 0
M  V30 887 H 80.5495 -4.71438 3.88044 0
M  V30 888 H 81.9635 -2.7542 5.02809 0
M  V30 889 H 80.3605 -2.19311 5.5859 0
M  V30 890 H 81.4305 -1.06824 4.72987 0
M  V30 891 N 82.7736 -1.49793 -0.48987 0
M  V30 892 C 83.6836 -1.70036 -1.61632 0
M  V30 893 C 84.6996 -0.583102 -1.63939 0
M  V30 894 O 85.8756 -0.859169 -1.82154 0
M  V30 895 C 82.9406 -1.77277 -2.97949 0
M  V30 896 C 82.0016 -3.00918 -3.06181 0
M  V30 897 C 81.2346 -3.07804 -4.35996 0
M  V30 898 O 81.4576 -2.21982 -5.25433 0
M  V30 899 O 80.3916 -4.00369 -4.49431 0
M  V30 900 H 84.2176 -2.65486 -1.47482 0
M  V30 901 H 81.8026 -1.33666 -0.667362 0
M  V30 902 H 83.6846 -1.84329 -3.78947 0
M  V30 903 H 82.3596 -0.850076 -3.12339 0
M  V30 904 H 81.2666 -2.99377 -2.2433 0
M  V30 905 H 82.5996 -3.92704 -2.96723 0
M  V30 906 N 84.2517 0.741722 -1.39055 0
M  V30 907 C 85.6627 1.31966 -1.32068 0
M  V30 908 C 86.0137 1.96192 0.0180797 0
M  V30 909 O 85.1387 1.95861 0.920196 0
M  V30 910 C 85.7337 2.39954 -2.39181 0
M  V30 911 C 84.2927 2.93438 -2.35735 0
M  V30 912 C 83.4397 1.66936 -2.21422 0
M  V30 913 H 86.3907 0.539721 -1.4924 0
M  V30 914 H 86.4117 3.20182 -2.05581 0
M  V30 915 H 85.9237 1.9318 -3.36605 0
M  V30 916 H 84.0247 3.4451 -1.41929 0
M  V30 917 H 84.1377 3.4701 -3.30335 0
M  V30 918 H 82.5017 1.91016 -1.68478 0
M  V30 919 H 83.2847 1.22224 -3.20806 0
M  V30 920 N 85.7298 1.2412 0.971189 0
M  V30 921 C 87.0068 0.986867 1.6888 0
M  V30 922 C 87.3868 -0.491857 2.0529 0
M  V30 923 O 86.7348 -1.46531 1.75331 0
M  V30 924 C 86.9448 1.9063 2.92338 0
M  V30 925 C 88.2928 2.17515 3.64654 0
M  V30 926 O 89.3168 1.88254 3.02388 0
M  V30 927 O 88.1758 2.6719 4.7673 0
M  V30 928 H 85.2698 0.372944 0.738134 0
M  V30 929 H 87.8158 1.35203 1.02559 0
M  V30 930 H 86.5878 2.90552 2.62097 0
M  V30 931 H 86.2108 1.54408 3.66393 0
M  V30 932 N 87.2079 -1.17134 1.05439 0
M  V30 933 C 88.1179 -2.24878 0.668365 0
M  V30 934 C 89.1339 -1.71186 -0.311687 0
M  V30 935 O 90.3099 -2.00738 -0.163161 0
M  V30 936 C 87.3749 -3.46662 0.051648 0
M  V30 937 C 86.4359 -4.15429 1.08246 0
M  V30 938 C 85.6689 -5.31399 0.495082 0
M  V30 939 O 85.8919 -5.66153 -0.694743 0
M  V30 940 O 84.8259 -5.89187 1.23056 0
M  V30 941 H 88.6519 -2.60189 1.56637 0
M  V30 942 H 86.2369 -1.24482 0.826104 0
M  V30 943 H 88.1189 -4.20394 -0.290966 0
M  V30 944 H 86.7939 -3.13142 -0.819971 0
M  V30 945 H 85.7009 -3.43704 1.47711 0
M  V30 946 H 87.0339 -4.52982 1.92532 0
M  V30 947 N 88.686 -0.835752 -1.33615 0
M  V30 948 C 89.596 -0.269088 -2.33052 0
M  V30 949 C 90.612 0.603251 -1.63208 0
M  V30 950 O 91.788 0.508112 -1.94885 0
M  V30 951 C 88.853 0.549091 -3.42324 0
M  V30 952 C 87.914 -0.347156 -4.27894 0
M  V30 953 C 87.147 0.43207 -5.31948 0
M  V30 954 O 87.37 1.66409 -5.45586 0
M  V30 955 O 86.304 -0.192298 -6.01593 0
M  V30 956 H 90.13 -1.09243 -2.83372 0
M  V30 957 H 87.715 -0.598198 -1.36901 0
M  V30 958 H 89.597 1.01414 -4.09015 0
M  V30 959 H 88.272 1.34955 -2.94226 0
M  V30 960 H 87.179 -0.859979 -3.64081 0
M  V30 961 H 88.512 -1.1123 -4.79467 0
M  V30 962 N 90.1641 1.46063 -0.591896 0
M  V30 963 C 91.0941 2.33172 0.123673 0
M  V30 964 C 92.0751 1.45897 0.87453 0
M  V30 965 O 93.2601 1.74698 0.848181 0
M  V30 966 C 90.3901 3.28336 1.13194 0
M  V30 967 C 89.3441 4.25124 0.495324 0
M  V30 968 C 88.6701 5.09863 1.61071 0
M  V30 969 C 89.9701 5.19143 -0.573425 0
M  V30 970 H 91.6641 2.93252 -0.603646 0
M  V30 971 H 89.2101 1.41014 -0.291741 0
M  V30 972 H 91.1631 3.88137 1.64097 0
M  V30 973 H 89.8871 2.66383 1.88965 0
M  V30 974 H 88.5461 3.66599 0.00729452 0
M  V30 975 H 88.1941 4.44288 2.35832 0
M  V30 976 H 87.8941 5.75417 1.19035 0
M  V30 977 H 89.4181 5.72529 2.12233 0
M  V30 978 H 90.8321 5.73106 -0.1491 0
M  V30 979 H 89.2291 5.93089 -0.914636 0
M  V30 980 H 90.2991 4.62519 -1.45617 0
M  V30 981 N 91.6422 0.330177 1.54103 0
M  V30 982 C 92.5522 -0.541534 2.28264 0
M  V30 983 C 93.5682 -1.12351 1.32866 0
M  V30 984 O 94.7442 -1.14206 1.65888 0
M  V30 985 C 91.8092 -1.68322 3.03098 0
M  V30 986 C 90.8702 -1.13238 4.14096 0
M  V30 987 C 90.1032 -2.21966 4.85352 0
M  V30 988 O 90.3262 -3.42437 4.56172 0
M  V30 989 O 89.2602 -1.87013 5.7211 0
M  V30 990 H 93.0862 0.060938 3.03639 0
M  V30 991 H 90.6712 0.09565 1.49093 0
M  V30 992 H 92.5532 -2.34777 3.49939 0
M  V30 993 H 91.2282 -2.27176 2.30593 0
M  V30 994 H 90.1352 -0.432736 3.71589 0
M  V30 995 H 91.4682 -0.588898 4.88664 0
M  V30 996 N 93.1203 -1.57491 0.0584922 0
M  V30 997 C 94.3973 -1.84346 -0.653918 0
M  V30 998 C 94.7773 -0.948355 -1.88599 0
M  V30 999 O 94.1253 -0.0112403 -2.28497 0
M  V30 1000 C 94.3353 -3.34239 -1.00425 0
M  V30 1001 C 95.6833 -4.01431 -1.38342 0
M  V30 1002 O 96.7073 -3.38907 -1.09637 0
M  V30 1003 O 95.5663 -5.11683 -1.91943 0
M  V30 1004 H 92.6603 -0.761112 -0.323478 0
M  V30 1005 H 95.2063 -1.6947 0.0884125 0
M  V30 1006 H 93.9783 -3.91089 -0.128625 0
M  V30 1007 H 93.6013 -3.54329 -1.80378 0
M  V30 1008 N 94.5984 0.214957 -1.56127 0
M  V30 1009 C 95.5464 1.28601 -1.93816 0
M  V30 1010 C 96.5404 1.48175 -0.821016 0
M  V30 1011 O 97.7464 1.49271 -1.0059 0
M  V30 1012 H 94.1214 0.431302 -0.616022 0
M  V30 1013 H 96.0924 0.940991 -2.83175 0
M  V30 1014 C 94.8414 2.62779 -2.27689 0
M  V30 1015 H 94.1644 2.48527 -3.13168 0
M  V30 1016 H 95.6044 3.36517 -2.57939 0
M  V30 1017 C 94.0634 3.18285 -1.10436 0
M  V30 1018 O 94.5934 4.00002 -0.368945 0
M  V30 1019 N 92.7994 2.7675 -0.886433 0
M  V30 1020 H 92.3464 2.10404 -1.48619 0
M  V30 1021 H 92.3044 3.14229 -0.103656 0
M  V30 1022 N 96.0765 1.50051 0.48192 0
M  V30 1023 C 97.4875 1.5348 1.06305 0
M  V30 1024 C 97.8385 0.331997 1.93371 0
M  V30 1025 O 96.9635 -0.556256 2.09129 0
M  V30 1026 C 97.5585 2.7813 1.93466 0
M  V30 1027 C 96.1175 2.84275 2.46707 0
M  V30 1028 C 95.2645 2.47637 1.24785 0
M  V30 1029 H 98.2155 1.56472 0.264995 0
M  V30 1030 H 98.2365 2.59372 2.78399 0
M  V30 1031 H 97.7485 3.65654 1.30072 0
M  V30 1032 H 95.8495 2.01077 3.13686 0
M  V30 1033 H 95.9625 3.8691 2.82555 0
M  V30 1034 H 94.3265 1.99835 1.57918 0
M  V30 1035 H 95.1095 3.37457 0.630694 0
M  V30 1036 N 97.5546 -0.734337 1.39446 0
M  V30 1037 C 98.5026 -1.86971 1.38364 0
M  V30 1038 C 99.4966 -1.67288 0.266687 0
M  V30 1039 O 100.703 -1.74621 0.436755 0
M  V30 1040 H 97.0776 -0.615474 0.432082 0
M  V30 1041 H 99.0486 -1.85 2.34132 0
M  V30 1042 C 97.7976 -3.2466 1.24465 0
M  V30 1043 H 97.1206 -3.40402 2.09682 0
M  V30 1044 H 98.5606 -4.04292 1.27764 0
M  V30 1045 C 97.0196 -3.36867 -0.0468674 0
M  V30 1046 O 97.5496 -3.88618 -1.01681 0
M  V30 1047 N 95.7556 -2.90391 -0.110145 0
M  V30 1048 H 95.3026 -2.48466 0.679868 0
M  V30 1049 H 95.2606 -2.98939 -0.973799 0
M  V30 1050 N 99.0327 -1.24633 -0.964593 0
M  V30 1051 C 99.9647 -0.999302 -2.06268 0
M  V30 1052 C 100.978 0.0323226 -1.62768 0
M  V30 1053 O 102.167 -0.205079 -1.77318 0
M  V30 1054 C 99.2667 -0.486816 -3.35385 0
M  V30 1055 C 98.4397 -1.5823 -4.07777 0
M  V30 1056 C 97.4987 -1.07191 -5.15166 0
M  V30 1057 O 96.5247 -1.76426 -5.41168 0
M  V30 1058 N 97.7267 0.0920373 -5.80427 0
M  V30 1059 H 100.492 -1.94477 -2.28033 0
M  V30 1060 H 98.0527 -1.15704 -1.13244 0
M  V30 1061 H 100.045 -0.130066 -4.04491 0
M  V30 1062 H 98.6147 0.364459 -3.10468 0
M  V30 1063 H 97.8347 -2.11109 -3.32906 0
M  V30 1064 H 99.1227 -2.31854 -4.52903 0
M  V30 1065 H 98.5207 0.670784 -5.61709 0
M  V30 1066 H 97.0777 0.389905 -6.50633 0
M  V30 1067 N 100.511 1.16574 -1.06058 0
M  V30 1068 C 101.736 1.91493 -0.796562 0
M  V30 1069 C 102.161 1.76773 0.642868 0
M  V30 1070 O 101.519 1.09142 1.44768 0
M  V30 1071 C 101.567 3.40293 -1.19303 0
M  V30 1072 O 100.671 4.11074 -0.330394 0
M  V30 1073 H 100.012 0.596678 -0.291326 0
M  V30 1074 H 102.542 1.47708 -1.41575 0
M  V30 1075 H 102.552 3.91057 -1.16356 0
M  V30 1076 H 101.227 3.50326 -2.24153 0
M  V30 1077 H 99.8038 3.70513 -0.421225 0
M  V30 1078 N 101.989 0.842826 1.3317 0
M  V30 1079 C 103.266 0.362216 1.92217 0
M  V30 1080 C 103.646 -1.15289 1.76838 0
M  V30 1081 O 102.994 -1.96914 1.15919 0
M  V30 1082 C 103.204 0.813495 3.39387 0
M  V30 1083 C 104.552 0.823804 4.16532 0
M  V30 1084 O 105.576 0.757358 3.48055 0
M  V30 1085 O 104.435 0.915193 5.38782 0
M  V30 1086 H 101.529 0.103317 0.820521 0
M  V30 1087 H 104.075 0.928942 1.42017 0
M  V30 1088 H 102.847 1.85624 3.4447 0
M  V30 1089 H 102.47 0.223561 3.96971 0
M  V30 1090 N 103.467 -1.45747 0.599634 0
M  V30 1091 C 104.397 -2.33235 -0.111306 0
M  V30 1092 C 105.378 -1.46359 -0.866781 0
M  V30 1093 O 106.563 -1.75146 -0.838904 0
M  V30 1094 C 103.693 -3.28932 -1.11451 0
M  V30 1095 C 102.647 -4.25381 -0.472772 0
M  V30 1096 C 101.973 -5.1071 -1.58365 0
M  V30 1097 C 103.273 -5.18831 0.600948 0
M  V30 1098 H 104.967 -2.92927 0.61919 0
M  V30 1099 H 102.513 -1.40857 0.299215 0
M  V30 1100 H 104.466 -3.89002 -1.62036 0
M  V30 1101 H 103.19 -2.67381 -1.8755 0
M  V30 1102 H 101.849 -3.66598 0.0121472 0
M  V30 1103 H 101.497 -4.45533 -2.33473 0
M  V30 1104 H 101.197 -5.7604 -1.15982 0
M  V30 1105 H 102.721 -5.73647 -2.09194 0
M  V30 1106 H 104.135 -5.73019 0.179491 0
M  V30 1107 H 102.532 -5.92595 0.946076 0
M  V30 1108 H 103.602 -4.6174 1.48068 0
M  V30 1109 N 104.945 -0.338344 -1.53925 0
M  V30 1110 C 106.194 0.260732 -2.00008 0
M  V30 1111 C 106.507 1.52073 -1.23017 0
M  V30 1112 O 107.713 2.19672 -1.5955 0
M  V30 1113 C 106.169 0.51515 -3.56194 0
M  V30 1114 C 105.777 -0.728645 -4.42035 0
M  V30 1115 C 107.521 1.07337 -4.10706 0
M  V30 1116 C 105.428 -0.445315 -5.89721 0
M  V30 1117 H 104.358 0.101205 -0.747177 0
M  V30 1118 H 107.009 -0.452866 -1.77824 0
M  V30 1119 H 105.391 1.28932 -3.74423 0
M  V30 1120 H 106.565 -1.50352 -4.35581 0
M  V30 1121 H 104.88 -1.20813 -3.98489 0
M  V30 1122 H 107.477 1.30022 -5.18651 0
M  V30 1123 H 107.82 2.0273 -3.63602 0
M  V30 1124 H 108.353 0.360034 -3.96167 0
M  V30 1125 H 105.092 -1.36883 -6.41049 0
M  V30 1126 H 104.612 0.291569 -5.99091 0
M  V30 1127 H 106.291 -0.0606218 -6.46972 0
M  V30 1128 N 106.423 1.57458 -0.0668435 0
M  V30 1129 C 107.333 2.15937 0.916975 0
M  V30 1130 C 108.349 1.12123 1.33058 0
M  V30 1131 O 109.525 1.44366 1.40429 0
M  V30 1132 C 106.59 2.70547 2.16807 0
M  V30 1133 C 105.651 3.89215 1.81135 0
M  V30 1134 C 104.884 4.41211 3.0028 0
M  V30 1135 O 105.107 3.92225 4.14144 0
M  V30 1136 O 104.041 5.32605 2.80384 0
M  V30 1137 H 107.867 3.00354 0.449561 0
M  V30 1138 H 105.452 1.48584 0.155949 0
M  V30 1139 H 107.334 3.0557 2.90181 0
M  V30 1140 H 106.009 1.89192 2.62656 0
M  V30 1141 H 104.916 3.59054 1.05028 0
M  V30 1142 H 106.249 4.71848 1.40073 0
M  V30 1143 N 107.901 -0.206675 1.56239 0
M  V30 1144 C 108.833 -1.27997 1.9013 0
M  V30 1145 C 109.846 -1.42299 0.790883 0
M  V30 1146 O 111.035 -1.42931 1.06925 0
M  V30 1147 C 108.135 -2.65368 2.10792 0
M  V30 1148 C 107.308 -2.72824 3.41886 0
M  V30 1149 C 106.367 -3.9131 3.51799 0
M  V30 1150 O 105.393 -3.78953 4.24716 0
M  V30 1151 N 106.595 -5.06265 2.84035 0
M  V30 1152 H 109.36 -0.992444 2.82791 0
M  V30 1153 H 106.921 -0.396652 1.56966 0
M  V30 1154 H 108.913 -3.43039 2.14724 0
M  V30 1155 H 107.483 -2.86657 1.24685 0
M  V30 1156 H 106.703 -1.81515 3.49923 0
M  V30 1157 H 107.991 -2.74786 4.28217 0
M  V30 1158 H 107.389 -5.19203 2.246 0
M  V30 1159 H 105.946 -5.81925 2.93609 0
M  V30 1160 N 109.379 -1.50304 -0.473955 0
M  V30 1161 C 110.342 -1.6841 -1.55469 0
M  V30 1162 C 111.342 -0.554905 -1.50922 0
M  V30 1163 O 112.532 -0.821882 -1.53593 0
M  V30 1164 C 109.664 -1.70667 -2.95102 0
M  V30 1165 H 110.857 -2.64828 -1.40733 0
M  V30 1166 H 108.41 -1.39742 -0.700132 0
M  V30 1167 H 109.145 -0.75932 -3.15285 0
M  V30 1168 H 108.93 -2.52698 -2.9981 0
M  V30 1169 H 110.42 -1.8664 -3.73571 0
M  V30 1170 N 110.857 0.726932 -1.39834 0
M  V30 1171 C 111.82 1.82269 -1.38962 0
M  V30 1172 C 112.82 1.58248 -0.285334 0
M  V30 1173 O 114.01 1.65499 -0.54366 0
M  V30 1174 C 111.142 3.20186 -1.17019 0
M  V30 1175 H 112.335 1.84443 -2.36476 0
M  V30 1176 H 109.888 0.931416 -1.25516 0
M  V30 1177 H 110.623 3.23669 -0.202204 0
M  V30 1178 H 110.408 3.3902 -1.96998 0
M  V30 1179 H 111.898 4.00235 -1.1917 0
M  V30 1180 N 112.336 1.25143 0.95797 0
M  V30 1181 C 113.246 1.06968 2.08794 0
M  V30 1182 C 114.262 0.00773911 1.73998 0
M  V30 1183 O 115.438 0.207972 2.00323 0
M  V30 1184 C 112.503 0.68691 3.39827 0
M  V30 1185 C 111.564 1.82641 3.88511 0
M  V30 1186 C 110.797 1.46181 5.1329 0
M  V30 1187 O 111.02 0.355971 5.69288 0
M  V30 1188 O 109.954 2.29085 5.566 0
M  V30 1189 H 113.78 2.01723 2.27027 0
M  V30 1190 H 111.365 1.04051 1.07209 0
M  V30 1191 H 113.247 0.485417 4.18595 0
M  V30 1192 H 111.922 -0.231417 3.22872 0
M  V30 1193 H 110.829 2.08274 3.10762 0
M  V30 1194 H 112.162 2.72386 4.09959 0
M  V30 1195 N 113.814 -1.1601 1.06675 0
M  V30 1196 C 114.747 -2.1947 0.625168 0
M  V30 1197 C 115.725 -1.58699 -0.354041 0
M  V30 1198 O 116.909 -1.86669 -0.262098 0
M  V30 1199 C 114.036 -3.38598 -0.0829593 0
M  V30 1200 C 113.082 -4.1787 0.853611 0
M  V30 1201 S 113.915 -4.81135 2.35094 0
M  V30 1202 C 115.071 -6.03639 1.65441 0
M  V30 1203 H 115.304 -2.56587 1.50168 0
M  V30 1204 H 112.837 -1.26862 0.880078 0
M  V30 1205 H 114.795 -4.07621 -0.485288 0
M  V30 1206 H 113.456 -2.99839 -0.935716 0
M  V30 1207 H 112.649 -5.03078 0.304755 0
M  V30 1208 H 112.251 -3.54361 1.196 0
M  V30 1209 H 114.543 -6.70632 0.962201 0
M  V30 1210 H 115.486 -6.63081 2.48454 0
M  V30 1211 H 115.894 -5.52965 1.13534 0
M  V30 1212 N 115.292 -0.849877 -1.32721 0
M  V30 1213 C 116.222 -0.306308 -2.31482 0
M  V30 1214 C 117.203 0.591952 -1.59468 0
M  V30 1215 O 118.388 0.513199 -1.87296 0
M  V30 1216 C 115.518 0.510204 -3.43532 0
M  V30 1217 C 114.472 -0.293209 -4.26994 0
M  V30 1218 C 113.798 0.647743 -5.30762 0
M  V30 1219 C 115.098 -1.51634 -4.99804 0
M  V30 1220 H 116.792 -1.13153 -2.77195 0
M  V30 1221 H 114.338 -0.545553 -1.33266 0
M  V30 1222 H 116.291 0.900856 -4.11658 0
M  V30 1223 H 115.015 1.36874 -2.96535 0
M  V30 1224 H 113.674 -0.665555 -3.60508 0
M  V30 1225 H 113.322 1.50299 -4.8002 0
M  V30 1226 H 113.022 0.11422 -5.87489 0
M  V30 1227 H 114.546 1.03567 -6.01753 0
M  V30 1228 H 115.96 -1.19824 -5.60638 0
M  V30 1229 H 114.357 -1.98745 -5.66234 0
M  V30 1230 H 115.427 -2.28018 -4.27943 0
M  V30 1231 N 116.77 1.45427 -0.607355 0
M  V30 1232 C 118 2.06314 -0.108656 0
M  V30 1233 C 118.408 1.45269 1.21217 0
M  V30 1234 O 117.751 0.561115 1.74921 0
M  V30 1235 C 117.813 3.59345 0.105618 0
M  V30 1236 C 117.477 4.42723 -1.13337 0
M  V30 1237 C 118.474 4.77715 -2.05145 0
M  V30 1238 C 116.159 4.83478 -1.36213 0
M  V30 1239 C 118.153 5.52317 -3.18158 0
M  V30 1240 C 115.84 5.57835 -2.49527 0
M  V30 1241 C 116.838 5.92171 -3.40327 0
M  V30 1242 O 116.526 6.65019 -4.51669 0
M  V30 1243 H 116.258 0.672782 -0.0658842 0
M  V30 1244 H 118.812 1.87664 -0.834945 0
M  V30 1245 H 117.042 3.76394 0.886796 0
M  V30 1246 H 118.731 4.02076 0.555886 0
M  V30 1247 H 119.497 4.46787 -1.88697 0
M  V30 1248 H 115.376 4.56188 -0.664362 0
M  V30 1249 H 118.92 5.79036 -3.89054 0
M  V30 1250 H 114.817 5.88177 -2.65928 0
M  V30 1251 H 115.585 6.83469 -4.50348 0
M  V30 1252 N 118.248 0.346503 1.53744 0
M  V30 1253 C 119.496 -0.248612 2.00565 0
M  V30 1254 C 119.817 -1.5083 1.23593 0
M  V30 1255 O 119.087 -1.92858 0.343912 0
M  V30 1256 H 117.667 -0.0948564 0.740953 0
M  V30 1257 H 120.329 0.468341 1.89189 0
M  V30 1258 H 119.425 -0.488994 3.08245 0
M  V30 1259 N 119.726 -1.57421 0.075193 0
M  V30 1260 C 120.656 -2.15942 -0.888324 0
M  V30 1261 C 121.637 -1.08737 -1.30806 0
M  V30 1262 O 122.822 -1.36787 -1.37851 0
M  V30 1263 C 119.952 -2.72379 -2.1547 0
M  V30 1264 C 118.906 -3.8478 -1.87425 0
M  V30 1265 C 118.232 -4.27834 -3.20721 0
M  V30 1266 C 119.532 -5.08869 -1.17684 0
M  V30 1267 H 121.226 -2.96705 -0.400799 0
M  V30 1268 H 118.772 -1.42723 -0.191342 0
M  V30 1269 H 120.725 -3.11965 -2.83295 0
M  V30 1270 H 119.449 -1.88841 -2.6647 0
M  V30 1271 H 118.108 -3.45703 -1.22004 0
M  V30 1272 H 117.756 -3.41214 -3.6957 0
M  V30 1273 H 117.456 -5.03605 -3.02746 0
M  V30 1274 H 118.98 -4.70039 -3.89738 0
M  V30 1275 H 120.394 -5.4575 -1.75584 0
M  V30 1276 H 118.791 -5.8994 -1.09956 0
M  V30 1277 H 119.861 -4.84648 -0.156453 0
M  V30 1278 N 121.204 0.198386 -1.56346 0
M  V30 1279 C 122.453 0.917451 -1.79627 0
M  V30 1280 C 122.766 1.8456 -0.64784 0
M  V30 1281 O 123.972 2.60504 -0.764859 0
M  V30 1282 C 122.428 1.68175 -3.18191 0
M  V30 1283 C 122.036 0.798589 -4.40825 0
M  V30 1284 C 123.78 2.39065 -3.50782 0
M  V30 1285 C 121.687 1.56157 -5.70411 0
M  V30 1286 H 120.617 0.346317 -0.669762 0
M  V30 1287 H 123.268 0.170801 -1.82703 0
M  V30 1288 H 121.65 2.47216 -3.09354 0
M  V30 1289 H 122.824 0.0470665 -4.60776 0
M  V30 1290 H 121.139 0.200686 -4.15916 0
M  V30 1291 H 123.736 2.96692 -4.44835 0
M  V30 1292 H 124.079 3.13091 -2.74371 0
M  V30 1293 H 124.612 1.66993 -3.61052 0
M  V30 1294 H 121.351 0.864142 -6.49779 0
M  V30 1295 H 120.871 2.2871 -5.54483 0
M  V30 1296 H 122.55 2.11622 -6.11412 0
M  V30 1297 N 122.682 1.50554 0.465978 0
M  V30 1298 C 123.632 1.66177 1.56106 0
M  V30 1299 C 124.616 0.516265 1.52393 0
M  V30 1300 O 125.808 0.770906 1.5933 0
M  V30 1301 C 122.937 1.76396 2.94515 0
M  V30 1302 C 122.023 2.9664 3.03093 0
M  V30 1303 N 122.414 4.20245 2.81474 0
M  V30 1304 C 120.712 2.95304 3.34233 0
M  V30 1305 C 121.413 5.01259 2.95151 0
M  V30 1306 N 120.389 4.35318 3.25576 0
M  V30 1307 H 124.191 2.59434 1.38099 0
M  V30 1308 H 121.705 1.47808 0.6728 0
M  V30 1309 H 123.702 1.85694 3.73261 0
M  V30 1310 H 122.362 0.843017 3.13565 0
M  V30 1311 H 123.373 4.4966 2.56956 0
M  V30 1312 H 120.05 2.12729 3.59239 0
M  V30 1313 H 121.44 6.09564 2.82632 0
M  V30 1314 N 124.16 -0.719506 1.40217 0
M  V30 1315 C 125.123 -1.8153 1.39927 0
M  V30 1316 C 126.123 -1.58095 0.293723 0
M  V30 1317 O 127.313 -1.65209 0.552429 0
M  V30 1318 C 124.445 -3.19561 1.18716 0
M  V30 1319 H 125.638 -1.83186 2.37451 0
M  V30 1320 H 123.191 -0.924746 1.26008 0
M  V30 1321 H 123.926 -3.23557 0.219366 0
M  V30 1322 H 123.711 -3.3797 1.98793 0
M  V30 1323 H 125.201 -3.99598 1.21291 0
M  V30 1324 N 125.638 -1.25649 -0.95132 0
M  V30 1325 C 127.054 -1.02542 -1.223 0
M  V30 1326 C 127.254 0.255715 -1.99871 0
M  V30 1327 O 126.31 0.967558 -2.33226 0
M  V30 1328 C 127.623 -2.25065 -1.99415 0
M  V30 1329 C 129.171 -2.29861 -2.12446 0
M  V30 1330 C 129.646 -3.52048 -2.92961 0
M  V30 1331 N 131.137 -3.52465 -3.00538 0
M  V30 1332 C 131.872 -4.43672 -3.63239 0
M  V30 1333 N 131.368 -5.45157 -4.27523 0
M  V30 1334 N 133.161 -4.31346 -3.60412 0
M  V30 1335 H 125.312 -2.07951 -0.432471 0
M  V30 1336 H 127.575 -0.91339 -0.253816 0
M  V30 1337 H 127.281 -3.18194 -1.49817 0
M  V30 1338 H 127.155 -2.28502 -3.00111 0
M  V30 1339 H 129.542 -1.37252 -2.61239 0
M  V30 1340 H 129.623 -2.3044 -1.11044 0
M  V30 1341 H 129.267 -4.44981 -2.44856 0
M  V30 1342 H 129.197 -3.48715 -3.94596 0
M  V30 1343 H 131.688 -2.79056 -2.54826 0
M  V30 1344 H 132.001 -6.10958 -4.73234 0
M  V30 1345 H 130.346 -5.49025 -4.26141 0
M  V30 1346 H 133.537 -3.51288 -3.09377 0
M  V30 1347 H 133.71 -5.02624 -4.0899 0
M  V30 1348 N 127.117 1.15442 -1.07289 0
M  V30 1349 C 128.347 1.89821 -0.815576 0
M  V30 1350 C 128.755 1.7823 0.634867 0
M  V30 1351 O 128.098 1.13152 1.44715 0
M  V30 1352 C 128.16 3.40817 -1.14385 0
M  V30 1353 C 127.824 3.76193 -2.59476 0
M  V30 1354 C 128.821 3.77269 -3.57721 0
M  V30 1355 C 126.506 4.0652 -2.95037 0
M  V30 1356 C 128.5 4.08176 -4.89562 0
M  V30 1357 C 126.187 4.37092 -4.27076 0
M  V30 1358 C 127.185 4.37902 -5.24148 0
M  V30 1359 O 126.873 4.67741 -6.53815 0
M  V30 1360 H 126.605 0.608465 -0.294528 0
M  V30 1361 H 129.159 1.472 -1.43252 0
M  V30 1362 H 127.389 3.83835 -0.469865 0
M  V30 1363 H 129.078 3.96485 -0.869179 0
M  V30 1364 H 129.844 3.5394 -3.3159 0
M  V30 1365 H 125.723 4.05049 -2.20128 0
M  V30 1366 H 129.267 4.08723 -5.65324 0
M  V30 1367 H 125.164 4.59889 -4.5296 0
M  V30 1368 H 125.932 4.85509 -6.58957 0
M  V30 1369 N 128.595 0.856903 1.32268 0
M  V30 1370 C 129.844 0.457599 1.96441 0
M  V30 1371 C 130.157 -0.992426 1.68553 0
M  V30 1372 O 131.363 -1.49727 2.26482 0
M  V30 1373 C 129.819 0.767358 3.51624 0
M  V30 1374 C 129.427 2.23326 3.88367 0
M  V30 1375 C 131.171 0.435887 4.22256 0
M  V30 1376 C 129.078 2.48613 5.36606 0
M  V30 1377 H 128.008 0.167387 0.735185 0
M  V30 1378 H 130.659 1.048 1.5063 0
M  V30 1379 H 129.041 0.106367 3.95857 0
M  V30 1380 H 130.215 2.93623 3.55137 0
M  V30 1381 H 128.53 2.52948 3.30766 0
M  V30 1382 H 131.127 0.602202 5.31298 0
M  V30 1383 H 131.47 -0.622672 4.11617 0
M  V30 1384 H 132.003 1.05286 3.83614 0
M  V30 1385 H 128.742 3.53101 5.52268 0
M  V30 1386 H 128.262 1.82896 5.71235 0
M  V30 1387 H 129.941 2.32676 6.03714 0
M  V30 1388 N 130.073 -1.45103 0.615059 0
M  V30 1389 C 131.003 -2.33339 -0.0865619 0
M  V30 1390 C 131.984 -1.4727 -0.851209 0
M  V30 1391 O 133.169 -1.76026 -0.820281 0
M  V30 1392 C 130.299 -3.30095 -1.07956 0
M  V30 1393 C 129.253 -4.25858 -0.427628 0
M  V30 1394 C 128.579 -5.12361 -1.5294 0
M  V30 1395 C 129.879 -5.18165 0.655944 0
M  V30 1396 H 131.573 -2.92254 0.650224 0
M  V30 1397 H 129.119 -1.40532 0.314138 0
M  V30 1398 H 131.072 -3.90698 -1.57901 0
M  V30 1399 H 129.796 -2.69355 -1.84703 0
M  V30 1400 H 128.455 -3.66564 0.0510292 0
M  V30 1401 H 128.103 -4.47984 -2.28734 0
M  V30 1402 H 127.803 -5.77238 -1.09865 0
M  V30 1403 H 129.327 -5.75833 -2.03098 0
M  V30 1404 H 130.741 -5.72796 0.240257 0
M  V30 1405 H 129.138 -5.91559 1.00888 0
M  V30 1406 H 130.208 -4.60144 1.52957 0
M  V30 1407 N 131.551 -0.354651 -1.53558 0
M  V30 1408 C 132.779 0.239515 -2.05509 0
M  V30 1409 C 133.194 1.4333 -1.2289 0
M  V30 1410 O 132.551 1.80538 -0.266899 0
M  V30 1411 C 132.602 0.643719 -3.55723 0
M  V30 1412 O 132.323 -0.502602 -4.35207 0
M  V30 1413 C 133.824 1.29743 -4.23889 0
M  V30 1414 H 131.044 0.0442697 -0.669538 0
M  V30 1415 H 133.588 -0.509856 -1.98042 0
M  V30 1416 H 131.743 1.34302 -3.63376 0
M  V30 1417 H 132.157 -0.178172 -5.24197 0
M  V30 1418 H 133.631 1.53091 -5.30346 0
M  V30 1419 H 134.108 2.25441 -3.76926 0
M  V30 1420 H 134.714 0.639865 -4.20459 0
M  V30 1421 N 133.029 1.57378 -0.0835403 0
M  V30 1422 C 133.977 2.14602 0.89714 0
M  V30 1423 C 134.971 1.08589 1.30018 0
M  V30 1424 O 136.177 1.26952 1.27606 0
M  V30 1425 H 132.552 0.686346 0.3073 0
M  V30 1426 H 134.523 2.95845 0.38969 0
M  V30 1427 C 133.272 2.73188 2.15089 0
M  V30 1428 H 132.595 3.54442 1.84962 0
M  V30 1429 H 134.035 3.1681 2.81793 0
M  V30 1430 C 132.494 1.68517 2.91725 0
M  V30 1431 O 133.024 1.11718 3.85852 0
M  V30 1432 N 131.23 1.39277 2.55049 0
M  V30 1433 H 130.777 1.85655 1.78577 0
M  V30 1434 H 130.735 0.694791 3.06627 0
M  V30 1435 N 134.507 -0.190092 1.56449 0
M  V30 1436 C 135.923 -0.54113 1.50146 0
M  V30 1437 C 136.123 -1.85603 0.784465 0
M  V30 1438 O 135.179 -2.5024 0.337051 0
M  V30 1439 C 136.492 -0.591241 2.9483 0
M  V30 1440 C 138.04 -0.679732 3.0553 0
M  V30 1441 C 138.515 -0.760908 4.51635 0
M  V30 1442 N 140.006 -0.824302 4.55806 0
M  V30 1443 C 140.741 -0.907365 5.66175 0
M  V30 1444 N 140.237 -0.952422 6.86222 0
M  V30 1445 N 142.03 -0.94494 5.541 0
M  V30 1446 H 134.181 0.67235 2.01478 0
M  V30 1447 H 136.444 0.240127 0.917084 0
M  V30 1448 H 136.15 0.305905 3.50367 0
M  V30 1449 H 136.024 -1.44422 3.48457 0
M  V30 1450 H 138.411 -1.56731 2.50039 0
M  V30 1451 H 138.492 0.199549 2.5502 0
M  V30 1452 H 138.136 0.122336 5.07753 0
M  V30 1453 H 138.066 -1.65606 4.99882 0
M  V30 1454 H 140.557 -0.798526 3.69367 0
M  V30 1455 H 140.87 -1.01645 7.66086 0
M  V30 1456 H 139.215 -0.921014 6.8887 0
M  V30 1457 H 142.406 -0.906612 4.59236 0
M  V30 1458 H 142.579 -1.00622 6.4014 0
M  V30 1459 N 135.985 -1.50799 -0.457987 0
M  V30 1460 C 137.233 -1.62121 -1.2067 0
M  V30 1461 C 137.554 -0.329793 -1.92191 0
M  V30 1462 O 136.824 0.653409 -1.84682 0
M  V30 1463 H 135.404 -0.597441 -0.448411 0
M  V30 1464 H 138.066 -1.87637 -0.527096 0
M  V30 1465 H 137.162 -2.43882 -1.94751 0
M  V30 1466 N 137.463 0.71206 -1.40597 0
M  V30 1467 C 138.712 1.46754 -1.38369 0
M  V30 1468 C 139.025 1.95598 0.0097839 0
M  V30 1469 O 140.231 2.71059 0.154677 0
M  V30 1470 C 138.687 2.65289 -2.43207 0
M  V30 1471 C 138.295 2.23301 -3.88382 0
M  V30 1472 C 140.039 3.43008 -2.50091 0
M  V30 1473 C 137.946 3.38696 -4.84808 0
M  V30 1474 H 136.876 0.55118 -0.514506 0
M  V30 1475 H 139.527 0.774616 -1.66349 0
M  V30 1476 H 137.909 3.36769 -2.08332 0
M  V30 1477 H 139.083 1.59218 -4.32419 0
M  V30 1478 H 137.398 1.58618 -3.85006 0
M  V30 1479 H 139.995 4.28881 -3.1932 0
M  V30 1480 H 140.338 3.87065 -1.53253 0
M  V30 1481 H 140.871 2.78574 -2.83974 0
M  V30 1482 H 137.61 2.99668 -5.82992 0
M  V30 1483 H 137.13 4.01683 -4.45433 0
M  V30 1484 H 138.809 4.04712 -5.04794 0
M  V30 1485 N 138.941 1.26152 0.944643 0
M  V30 1486 C 139.904 1.07474 2.0244 0
M  V30 1487 C 140.904 0.0242064 1.60782 0
M  V30 1488 O 142.094 0.267302 1.72137 0
M  V30 1489 C 139.226 0.633956 3.34953 0
M  V30 1490 H 140.419 2.03336 2.20442 0
M  V30 1491 H 137.972 1.087 1.12312 0
M  V30 1492 H 138.707 -0.326811 3.22649 0
M  V30 1493 H 138.492 1.39247 3.66542 0
M  V30 1494 H 139.982 0.52501 4.14287 0
M  V30 1495 N 140.419 -1.14872 1.07899 0
M  V30 1496 C 141.351 -2.19425 0.662231 0
M  V30 1497 C 142.364 -1.60231 -0.288079 0
M  V30 1498 O 143.553 -1.78336 -0.076534 0
M  V30 1499 C 140.653 -3.38867 -0.0470695 0
M  V30 1500 C 139.826 -4.27597 0.920831 0
M  V30 1501 C 138.885 -5.25616 0.247805 0
M  V30 1502 O 137.911 -5.62189 0.890599 0
M  V30 1503 N 139.113 -5.71746 -1.00435 0
M  V30 1504 H 141.878 -2.55797 1.56166 0
M  V30 1505 H 139.439 -1.30042 0.964404 0
M  V30 1506 H 141.431 -4.01497 -0.50813 0
M  V30 1507 H 140.001 -3.00864 -0.848523 0
M  V30 1508 H 139.221 -3.61982 1.56087 0
M  V30 1509 H 140.509 -4.83748 1.57688 0
M  V30 1510 H 139.907 -5.44153 -1.54642 0
M  V30 1511 H 138.464 -6.36389 -1.40899 0
M  V30 1512 N 141.898 -0.863906 -1.31812 0
M  V30 1513 C 142.831 -0.259963 -2.26714 0
M  V30 1514 C 143.809 0.607392 -1.50829 0
M  V30 1515 O 144.993 0.562155 -1.79922 0
M  V30 1516 C 142.12 0.632456 -3.32743 0
M  V30 1517 C 141.166 -0.162743 -4.26189 0
M  V30 1518 S 141.999 -1.53726 -5.12961 0
M  V30 1519 C 143.155 -0.650803 -6.22507 0
M  V30 1520 H 143.388 -1.06445 -2.77591 0
M  V30 1521 H 140.921 -0.662071 -1.39485 0
M  V30 1522 H 142.879 1.14167 -3.94305 0
M  V30 1523 H 141.54 1.41083 -2.80632 0
M  V30 1524 H 140.733 0.517366 -5.01338 0
M  V30 1525 H 140.335 -0.60385 -3.69093 0
M  V30 1526 H 142.627 0.141134 -6.77353 0
M  V30 1527 H 143.57 -1.37322 -6.94657 0
M  V30 1528 H 143.978 -0.221041 -5.64067 0
M  V30 1529 N 143.376 1.44774 -0.622745 0
M  V30 1530 C 144.306 2.33382 0.0741861 0
M  V30 1531 C 145.287 1.47719 0.843387 0
M  V30 1532 O 146.472 1.76458 0.810934 0
M  V30 1533 C 143.602 3.30663 1.06204 0
M  V30 1534 C 142.556 4.26079 0.405037 0
M  V30 1535 C 141.882 5.13165 1.5022 0
M  V30 1536 C 143.182 5.1781 -0.683414 0
M  V30 1537 H 144.876 2.91905 -0.665713 0
M  V30 1538 H 142.422 1.40363 -0.321587 0
M  V30 1539 H 144.375 3.9153 1.55827 0
M  V30 1540 H 143.099 2.70331 1.83272 0
M  V30 1541 H 141.758 3.66532 -0.0704683 0
M  V30 1542 H 141.406 4.49191 2.26355 0
M  V30 1543 H 141.106 5.77812 1.06803 0
M  V30 1544 H 142.63 5.76902 2.00041 0
M  V30 1545 H 144.044 5.72661 -0.270631 0
M  V30 1546 H 142.441 5.91015 -1.04023 0
M  V30 1547 H 143.511 4.59326 -1.55395 0
M  V30 1548 N 144.854 0.36279 1.53368 0
M  V30 1549 C 145.764 -0.492994 2.29362 0
M  V30 1550 C 146.78 -1.09507 1.35219 0
M  V30 1551 O 147.956 -1.10662 1.68273 0
M  V30 1552 C 145.021 -1.61855 3.066 0
M  V30 1553 C 144.082 -1.04429 4.16405 0
M  V30 1554 C 143.315 -2.11621 4.89951 0
M  V30 1555 O 143.538 -3.32684 4.63333 0
M  V30 1556 O 142.472 -1.74835 5.75948 0
M  V30 1557 H 146.298 0.125331 3.03441 0
M  V30 1558 H 143.883 0.127253 1.48857 0
M  V30 1559 H 145.765 -2.27302 3.54841 0
M  V30 1560 H 144.44 -2.22233 2.3536 0
M  V30 1561 H 143.347 -0.353819 3.72423 0
M  V30 1562 H 144.68 -0.485113 4.89804 0
M  V30 1563 N 146.332 -1.57332 0.0918853 0
M  V30 1564 C 147.279 -2.13847 -0.868211 0
M  V30 1565 C 148.249 -1.05618 -1.28196 0
M  V30 1566 O 149.434 -1.33387 -1.36427 0
M  V30 1567 C 146.574 -2.72062 -2.12312 0
M  V30 1568 C 145.687 -3.94514 -1.7602 0
M  V30 1569 C 144.822 -4.40903 -2.96273 0
M  V30 1570 C 143.861 -5.55953 -2.56092 0
M  V30 1571 N 142.998 -5.97209 -3.69169 0
M  V30 1572 H 147.838 -2.95575 -0.379406 0
M  V30 1573 H 145.375 -1.46048 -0.175606 0
M  V30 1574 H 147.333 -3.03931 -2.858 0
M  V30 1575 H 145.963 -1.93068 -2.58698 0
M  V30 1576 H 145.015 -3.68979 -0.925135 0
M  V30 1577 H 146.327 -4.7802 -1.42472 0
M  V30 1578 H 145.481 -4.74539 -3.78018 0
M  V30 1579 H 144.22 -3.56291 -3.33029 0
M  V30 1580 H 143.225 -5.21948 -1.72773 0
M  V30 1581 H 144.45 -6.42311 -2.20484 0
M  V30 1582 H 142.396 -5.15543 -4.05649 0
M  V30 1583 H 142.313 -6.75504 -3.39456 0
M  V30 1584 H 143.581 -6.35475 -4.51434 0
M  V30 1585 N 147.81 0.181792 -1.56548 0
M  V30 1586 C 149.04 0.914618 -1.85252 0
M  V30 1587 C 149.448 1.76791 -0.673914 0
M  V30 1588 O 148.791 1.80009 0.366416 0
M  V30 1589 C 148.853 1.85019 -3.08234 0
M  V30 1590 C 148.517 1.17754 -4.41569 0
M  V30 1591 C 149.514 0.548035 -5.17003 0
M  V30 1592 C 147.199 1.17742 -4.88305 0
M  V30 1593 C 149.193 -0.0726128 -6.37359 0
M  V30 1594 C 146.88 0.552946 -6.08593 0
M  V30 1595 C 147.878 -0.070978 -6.82963 0
M  V30 1596 O 147.566 -0.685635 -8.00971 0
M  V30 1597 H 147.298 0.271695 -0.618998 0
M  V30 1598 H 149.852 0.189944 -2.0452 0
M  V30 1599 H 148.082 2.61491 -2.84885 0
M  V30 1600 H 149.771 2.45195 -3.23472 0
M  V30 1601 H 150.537 0.540174 -4.81982 0
M  V30 1602 H 146.416 1.65246 -4.30366 0
M  V30 1603 H 149.96 -0.560213 -6.95347 0
M  V30 1604 H 145.857 0.558354 -6.43081 0
M  V30 1605 H 146.625 -0.58385 -8.16415 0
M  V30 1606 N 149.288 1.51039 0.449983 0
M  V30 1607 C 150.22 1.67617 1.56324 0
M  V30 1608 C 151.233 0.557083 1.52972 0
M  V30 1609 O 152.422 0.830989 1.57977 0
M  V30 1610 C 149.522 1.66402 2.95235 0
M  V30 1611 C 148.695 2.9469 3.23229 0
M  V30 1612 C 147.754 2.85832 4.41799 0
M  V30 1613 O 146.78 3.59785 4.41071 0
M  V30 1614 N 147.982 2.00821 5.44657 0
M  V30 1615 H 150.747 2.63648 1.42512 0
M  V30 1616 H 148.308 1.48767 0.638737 0
M  V30 1617 H 150.3 1.58062 3.72557 0
M  V30 1618 H 148.87 0.780182 3.02708 0
M  V30 1619 H 148.09 3.16996 2.34323 0
M  V30 1620 H 149.378 3.79636 3.38754 0
M  V30 1621 H 148.776 1.40091 5.48079 0
M  V30 1622 H 147.333 1.98368 6.20881 0
M  V30 1623 N 150.766 -0.704594 1.40972 0
M  V30 1624 C 151.698 -1.82974 1.38033 0
M  V30 1625 C 152.711 -1.60305 0.283931 0
M  V30 1626 O 153.9 -1.69975 0.545042 0
M  V30 1627 C 151 -3.19578 1.12795 0
M  V30 1628 C 150.173 -3.69352 2.34302 0
M  V30 1629 C 149.232 -4.84601 2.05058 0
M  V30 1630 O 148.258 -4.96682 2.7802 0
M  V30 1631 N 149.46 -5.71194 1.03528 0
M  V30 1632 H 152.225 -1.85991 2.35005 0
M  V30 1633 H 149.786 -0.886567 1.35468 0
M  V30 1634 H 151.778 -3.9429 0.911987 0
M  V30 1635 H 150.348 -3.11642 0.24452 0
M  V30 1636 H 149.568 -2.85649 2.71659 0
M  V30 1637 H 150.856 -3.99345 3.1528 0
M  V30 1638 H 150.254 -5.64054 0.431217 0
M  V30 1639 H 148.811 -6.45843 0.879205 0
M  V30 1640 N 152.244 -1.26651 -0.937939 0
M  V30 1641 C 153.492 -1.12165 -1.68118 0
M  V30 1642 C 153.813 0.334983 -1.92101 0
M  V30 1643 O 153.083 1.23583 -1.52 0
M  V30 1644 H 151.663 -0.412093 -0.623048 0
M  V30 1645 H 154.325 -1.59027 -1.12678 0
M  V30 1646 H 153.421 -1.64289 -2.6536 0
M  V30 1647 N 153.722 1.14298 -1.08507 0
M  V30 1648 C 154.999 1.81544 -0.728088 0
M  V30 1649 C 155.379 1.95838 0.78808 0
M  V30 1650 O 154.727 1.51904 1.70697 0
M  V30 1651 C 154.937 3.17169 -1.45619 0
M  V30 1652 C 156.285 3.9265 -1.61591 0
M  V30 1653 O 157.309 3.26762 -1.41793 0
M  V30 1654 O 156.168 5.10807 -1.94263 0
M  V30 1655 H 153.262 0.78491 -0.260471 0
M  V30 1656 H 155.808 1.21307 -1.18671 0
M  V30 1657 H 154.58 3.01934 -2.489 0
M  V30 1658 H 154.203 3.851 -0.989124 0
M  V30 1659 N 155.201 0.870884 1.31352 0
M  V30 1660 C 156.448 0.482273 1.96673 0
M  V30 1661 C 156.776 -0.965638 1.68836 0
M  V30 1662 O 156.031 -1.69514 0.977937 0
M  V30 1663 C 156.33 0.687157 3.50732 0
M  V30 1664 C 155.996 2.108 3.9859 0
M  V30 1665 C 154.658 2.49656 4.1137 0
M  V30 1666 C 157.01 3.03459 4.23748 0
M  V30 1667 C 154.338 3.80412 4.46659 0
M  V30 1668 C 156.69 4.3373 4.60501 0
M  V30 1669 C 155.354 4.725 4.71487 0
M  V30 1670 H 154.624 0.176476 0.719679 0
M  V30 1671 H 157.271 1.10405 1.56471 0
M  V30 1672 H 155.576 -0.0177476 3.91796 0
M  V30 1673 H 157.273 0.366284 3.99324 0
M  V30 1674 H 153.863 1.79633 3.8914 0
M  V30 1675 H 158.047 2.74665 4.13368 0
M  V30 1676 H 153.303 4.1021 4.53362 0
M  V30 1677 H 157.477 5.05578 4.78919 0
M  V30 1678 H 155.104 5.73859 4.98588 0
M  V30 1679 N 156.679 -1.44442 0.630414 0
M  V30 1680 C 157.927 -2.01653 0.134351 0
M  V30 1681 C 158.248 -1.49836 -1.24796 0
M  V30 1682 O 157.518 -0.701684 -1.82902 0
M  V30 1683 H 156.098 -0.74554 0.0466769 0
M  V30 1684 H 158.76 -1.76952 0.816955 0
M  V30 1685 H 157.856 -3.11935 0.101498 0
M  V30 1686 N 158.157 -0.370918 -1.53173 0
M  V30 1687 C 159.387 0.217389 -2.05453 0
M  V30 1688 C 159.795 1.42568 -1.24382 0
M  V30 1689 O 159.138 1.81571 -0.278839 0
M  V30 1690 C 159.2 0.669827 -3.53205 0
M  V30 1691 C 158.864 -0.4225 -4.55043 0
M  V30 1692 C 159.861 -1.27407 -5.04047 0
M  V30 1693 C 157.546 -0.58427 -4.9889 0
M  V30 1694 C 159.54 -2.27271 -5.95505 0
M  V30 1695 C 157.227 -1.58627 -5.90153 0
M  V30 1696 C 158.225 -2.42892 -6.38351 0
M  V30 1697 O 157.913 -3.41382 -7.27814 0
M  V30 1698 H 157.645 0.0408171 -0.674767 0
M  V30 1699 H 160.199 -0.5292 -1.98466 0
M  V30 1700 H 158.429 1.4681 -3.57748 0
M  V30 1701 H 160.118 1.18173 -3.88317 0
M  V30 1702 H 160.884 -1.16031 -4.70916 0
M  V30 1703 H 156.763 0.061851 -4.60959 0
M  V30 1704 H 160.307 -2.93079 -6.33049 0
M  V30 1705 H 156.204 -1.70048 -6.22699 0
M  V30 1706 H 156.972 -3.37173 -7.45826 0
M  V30 1707 N 159.635 1.57281 -0.100228 0
M  V30 1708 C 160.875 1.96419 0.56558 0
M  V30 1709 C 161.239 0.981265 1.65031 0
M  V30 1710 O 162.44 1.26133 2.37369 0
M  V30 1711 C 160.711 3.39996 1.10171 0
M  V30 1712 S 162.27 4.01134 1.77867 0
M  V30 1713 H 159.088 0.68667 0.184406 0
M  V30 1714 H 161.69 1.94662 -0.180851 0
M  V30 1715 H 160.394 4.09296 0.300803 0
M  V30 1716 H 159.925 3.45361 1.88385 0
M  V30 1717 H 161.94 3.90358 3.06326 0
M  V30 1718 N 161.113 -0.173488 1.56642 0
M  V30 1719 C 162.524 -0.736155 1.71574 0
M  V30 1720 C 162.875 -1.82888 0.710389 0
M  V30 1721 O 162 -2.16017 -0.1287 0
M  V30 1722 C 162.595 -1.34211 3.11083 0
M  V30 1723 C 161.154 -1.85162 3.27707 0
M  V30 1724 C 160.301 -0.729765 2.67525 0
M  V30 1725 H 163.252 0.0518786 1.58615 0
M  V30 1726 H 163.273 -2.21178 3.09613 0
M  V30 1727 H 162.785 -0.546579 3.84232 0
M  V30 1728 H 160.886 -2.67366 2.59512 0
M  V30 1729 H 160.999 -1.99855 4.35425 0
M  V30 1730 H 159.363 -1.14965 2.27278 0
M  V30 1731 H 160.146 0.0538806 3.43258 0
M  V30 1732 N 162.591 -1.51276 -0.441967 0
M  V30 1733 C 164.007 -1.39349 -0.778083 0
M  V30 1734 C 164.207 -0.472212 -1.95889 0
M  V30 1735 O 163.263 0.0743551 -2.5239 0
M  V30 1736 C 164.576 -2.81292 -1.0628 0
M  V30 1737 C 166.124 -2.9041 -1.16751 0
M  V30 1738 C 166.599 -4.33251 -1.48519 0
M  V30 1739 N 168.09 -4.36336 -1.55453 0
M  V30 1740 C 168.825 -5.43885 -1.81596 0
M  V30 1741 N 168.321 -6.61601 -2.05562 0
M  V30 1742 N 170.114 -5.3136 -1.8334 0
M  V30 1743 H 162.265 -2.09729 0.335774 0
M  V30 1744 H 164.528 -0.943925 0.0878028 0
M  V30 1745 H 164.234 -3.50678 -0.267905 0
M  V30 1746 H 164.108 -3.20334 -1.99163 0
M  V30 1747 H 166.495 -2.21225 -1.95304 0
M  V30 1748 H 166.576 -2.54871 -0.217801 0
M  V30 1749 H 166.22 -5.02984 -0.704958 0
M  V30 1750 H 166.15 -4.66299 -2.44689 0
M  V30 1751 H 168.641 -3.51466 -1.38853 0
M  V30 1752 H 168.954 -7.39361 -2.24867 0
M  V30 1753 H 167.299 -6.64725 -2.02894 0
M  V30 1754 H 170.49 -4.38382 -1.64132 0
M  V30 1755 H 170.663 -6.15258 -2.03377 0
M  V30 1756 N 164.069 0.697108 -1.41344 0
M  V30 1757 C 165.315 1.4593 -1.40827 0
M  V30 1758 C 165.648 1.94193 -0.0167098 0
M  V30 1759 O 164.923 1.69425 0.955263 0
M  V30 1760 C 165.206 2.67229 -2.41373 0
M  V30 1761 C 165.059 2.24741 -3.8963 0
M  V30 1762 C 166.378 3.69423 -2.39196 0
M  V30 1763 H 163.497 0.529303 -0.512842 0
M  V30 1764 H 166.139 0.794112 -1.72609 0
M  V30 1765 H 164.289 3.23982 -2.14401 0
M  V30 1766 H 165.961 1.73327 -4.27499 0
M  V30 1767 H 164.204 1.56542 -4.0457 0
M  V30 1768 H 164.875 3.1177 -4.55525 0
M  V30 1769 H 167.351 3.2234 -2.63128 0
M  V30 1770 H 166.227 4.51907 -3.11563 0
M  V30 1771 H 166.488 4.19012 -1.41001 0
M  V30 1772 N 165.547 1.27147 0.931209 0
M  V30 1773 C 166.777 1.15914 1.71019 0
M  V30 1774 C 167.185 -0.287112 1.87009 0
M  V30 1775 O 166.528 -1.20761 1.38429 0
M  V30 1776 C 166.59 1.76647 3.13107 0
M  V30 1777 C 166.254 3.25807 3.20467 0
M  V30 1778 C 167.251 4.22489 3.02983 0
M  V30 1779 C 164.936 3.66452 3.43538 0
M  V30 1780 C 166.93 5.57794 3.08454 0
M  V30 1781 C 164.617 5.01888 3.48643 0
M  V30 1782 C 165.615 5.97369 3.31119 0
M  V30 1783 O 165.303 7.30337 3.35952 0
M  V30 1784 H 165.035 0.404062 0.54195 0
M  V30 1785 H 167.589 1.68457 1.17521 0
M  V30 1786 H 165.819 1.18578 3.68071 0
M  V30 1787 H 167.508 1.60179 3.72958 0
M  V30 1788 H 168.274 3.92425 2.85004 0
M  V30 1789 H 164.153 2.92611 3.5623 0
M  V30 1790 H 167.697 6.32298 2.94694 0
M  V30 1791 H 163.594 5.31609 3.66145 0
M  V30 1792 H 164.362 7.38739 3.5243 0
M  V30 1793 N 167.025 -1.13721 1.09112 0
M  V30 1794 C 168.265 -1.86576 0.834801 0
M  V30 1795 C 168.629 -1.81435 -0.628122 0
M  V30 1796 O 169.83 -2.49497 -1.00024 0
M  V30 1797 C 168.101 -3.30872 1.35124 0
M  V30 1798 S 169.66 -4.21257 1.22832 0
M  V30 1799 H 166.478 -0.643666 0.302017 0
M  V30 1800 H 169.08 -1.37085 1.39385 0
M  V30 1801 H 167.784 -3.32166 2.41027 0
M  V30 1802 H 167.315 -3.85423 0.788185 0
M  V30 1803 H 169.33 -4.95884 0.177191 0
M  V30 1804 N 168.503 -0.877838 -1.30888 0
M  V30 1805 C 169.413 -0.343096 -2.32078 0
M  V30 1806 C 170.429 0.551022 -1.65045 0
M  V30 1807 O 171.605 0.445854 -1.96403 0
M  V30 1808 C 168.67 0.439905 -3.43898 0
M  V30 1809 C 167.731 -0.483111 -4.26573 0
M  V30 1810 C 166.964 0.262616 -5.33053 0
M  V30 1811 O 167.187 1.48967 -5.50604 0
M  V30 1812 O 166.121 -0.383593 -6.00676 0
M  V30 1813 H 169.947 -1.18203 -2.79753 0
M  V30 1814 H 167.532 -0.64145 -1.34929 0
M  V30 1815 H 169.414 0.883504 -4.12034 0
M  V30 1816 H 168.089 1.25526 -2.98371 0
M  V30 1817 H 166.996 -0.975374 -3.61161 0
M  V30 1818 H 168.329 -1.26427 -4.75686 0
M  V30 1819 N 169.982 1.44106 -0.638065 0
M  V30 1820 C 170.93 2.3248 0.0748149 0
M  V30 1821 C 171.924 1.47746 0.828702 0
M  V30 1822 O 173.13 1.64049 0.740816 0
M  V30 1823 H 169.505 0.750771 0.0429686 0
M  V30 1824 H 171.476 2.90348 -0.688504 0
M  V30 1825 C 170.225 3.31843 1.03805 0
M  V30 1826 H 169.548 3.97059 0.467375 0
M  V30 1827 H 170.988 3.96345 1.50622 0
M  V30 1828 C 169.447 2.61291 2.1267 0
M  V30 1829 O 169.977 2.41702 3.20847 0
M  V30 1830 N 168.183 2.20915 1.88798 0
M  V30 1831 H 167.73 2.37047 1.00829 0
M  V30 1832 H 167.688 1.74038 2.61836 0
M  V30 1833 N 171.46 0.379036 1.52974 0
M  V30 1834 C 172.392 -0.495963 2.2377 0
M  V30 1835 C 173.405 -1.03517 1.25651 0
M  V30 1836 O 174.594 -0.939249 1.51791 0
M  V30 1837 C 171.694 -1.69894 2.93239 0
M  V30 1838 C 170.867 -1.2889 4.17979 0
M  V30 1839 C 169.926 -2.35543 4.70538 0
M  V30 1840 O 168.952 -1.97375 5.33883 0
M  V30 1841 N 170.154 -3.67318 4.49508 0
M  V30 1842 H 172.919 0.110523 2.99496 0
M  V30 1843 H 170.48 0.204878 1.60598 0
M  V30 1844 H 172.472 -2.40747 3.25304 0
M  V30 1845 H 171.042 -2.212 2.20883 0
M  V30 1846 H 170.262 -0.409676 3.92065 0
M  V30 1847 H 171.55 -0.991443 4.99047 0
M  V30 1848 H 170.948 -4.01095 3.98923 0
M  V30 1849 H 169.505 -4.34235 4.8609 0
M  V30 1850 N 172.938 -1.57226 0.108567 0
M  V30 1851 C 174.349 -1.8195 -0.418464 0
M  V30 1852 C 174.7 -1.02508 -1.67292 0
M  V30 1853 O 173.825 -0.258496 -2.14851 0
M  V30 1854 C 174.42 -3.30028 -0.765979 0
M  V30 1855 C 172.979 -3.55469 -1.23769 0
M  V30 1856 C 172.126 -2.7625 -0.241106 0
M  V30 1857 H 175.077 -1.55149 0.33384 0
M  V30 1858 H 175.098 -3.44086 -1.62434 0
M  V30 1859 H 174.61 -3.87821 0.147219 0
M  V30 1860 H 172.711 -3.03022 -2.16814 0
M  V30 1861 H 172.824 -4.6408 -1.19022 0
M  V30 1862 H 171.188 -2.44133 -0.72602 0
M  V30 1863 H 171.971 -3.36797 0.665007 0
M  V30 1864 N 174.416 0.165178 -1.56732 0
M  V30 1865 C 175.349 1.23336 -1.91998 0
M  V30 1866 C 176.327 1.42476 -0.783531 0
M  V30 1867 O 177.511 1.57384 -1.03743 0
M  V30 1868 C 174.638 2.59533 -2.17625 0
M  V30 1869 C 173.684 2.57093 -3.40302 0
M  V30 1870 S 174.517 2.05571 -4.9447 0
M  V30 1871 C 175.673 3.43532 -5.23198 0
M  V30 1872 H 175.906 0.932387 -2.82301 0
M  V30 1873 H 173.439 0.370013 -1.49901 0
M  V30 1874 H 175.397 3.37918 -2.3307 0
M  V30 1875 H 174.058 2.86827 -1.28019 0
M  V30 1876 H 173.251 3.57308 -3.55453 0
M  V30 1877 H 172.853 1.86806 -3.24005 0
M  V30 1878 H 175.145 4.39559 -5.15552 0
M  V30 1879 H 176.088 3.33251 -6.2478 0
M  V30 1880 H 176.496 3.39828 -4.50752 0
M  V30 1881 N 175.894 1.51508 0.433938 0
M  V30 1882 C 176.824 1.76016 1.53429 0
M  V30 1883 C 177.805 0.610112 1.58782 0
M  V30 1884 O 178.99 0.853177 1.74455 0
M  V30 1885 C 176.12 1.88831 2.9148 0
M  V30 1886 C 175.074 3.04288 3.00987 0
M  V30 1887 C 174.4 3.0229 4.4105 0
M  V30 1888 C 175.7 4.44193 2.74754 0
M  V30 1889 H 177.394 2.68152 1.33171 0
M  V30 1890 H 174.94 1.29035 0.639214 0
M  V30 1891 H 176.893 2.04559 3.6842 0
M  V30 1892 H 175.617 0.933455 3.12976 0
M  V30 1893 H 174.276 2.8827 2.26486 0
M  V30 1894 H 173.924 2.04576 4.59519 0
M  V30 1895 H 173.624 3.79822 4.4834 0
M  V30 1896 H 175.148 3.20116 5.1996 0
M  V30 1897 H 176.562 4.60544 3.41426 0
M  V30 1898 H 174.959 5.23457 2.9345 0
M  V30 1899 H 176.029 4.53996 1.70339 0
M  V30 1900 N 177.372 -0.689602 1.41712 0
M  V30 1901 C 178.783 -1.26973 1.36875 0
M  V30 1902 C 179.134 -1.96124 0.054748 0
M  V30 1903 O 178.259 -1.99141 -0.84687 0
M  V30 1904 C 178.854 -2.30912 2.47922 0
M  V30 1905 C 177.413 -2.84486 2.46464 0
M  V30 1906 C 176.56 -1.58603 2.27465 0
M  V30 1907 H 179.511 -0.48396 1.51141 0
M  V30 1908 H 179.532 -3.12331 2.17323 0
M  V30 1909 H 179.044 -1.80554 3.43543 0
M  V30 1910 H 177.145 -3.39005 1.54617 0
M  V30 1911 H 177.258 -3.34511 3.42986 0
M  V30 1912 H 175.622 -1.84632 1.75451 0
M  V30 1913 H 176.405 -1.10233 3.25121 0
M  V30 1914 N 178.85 -1.27639 -0.924453 0
M  V30 1915 C 180.099 -1.13549 -1.66702 0
M  V30 1916 C 180.412 0.317487 -1.93006 0
M  V30 1917 O 181.618 0.579333 -2.65247 0
M  V30 1918 C 180.074 -1.98426 -3.00259 0
M  V30 1919 C 179.682 -3.484 -2.81641 0
M  V30 1920 C 181.426 -1.92993 -3.78092 0
M  V30 1921 C 179.333 -4.25464 -4.10773 0
M  V30 1922 H 178.263 -0.421351 -0.625283 0
M  V30 1923 H 180.914 -1.52085 -1.02676 0
M  V30 1924 H 179.296 -1.52736 -3.6536 0
M  V30 1925 H 180.47 -4.01973 -2.25287 0
M  V30 1926 H 178.785 -3.55245 -2.17232 0
M  V30 1927 H 181.382 -2.47844 -4.7379 0
M  V30 1928 H 181.725 -0.904281 -4.0636 0
M  V30 1929 H 182.258 -2.36595 -3.19793 0
M  V30 1930 H 178.997 -5.28566 -3.87683 0
M  V30 1931 H 178.517 -3.76667 -4.66779 0
M  V30 1932 H 180.196 -4.34812 -4.79111 0
M  V30 1933 N 180.328 1.1314 -1.09713 0
M  V30 1934 C 181.576 1.84119 -0.833338 0
M  V30 1935 C 181.897 1.84097 0.642904 0
M  V30 1936 O 181.167 1.29881 1.46655 0
M  V30 1937 H 179.747 0.681766 -0.305293 0
M  V30 1938 H 182.409 1.37038 -1.38588 0
M  V30 1939 H 181.505 2.88543 -1.18951 0
M  V30 1940 N 181.806 0.884767 1.30421 0
M  V30 1941 C 182.736 0.367574 2.30589 0
M  V30 1942 C 183.717 -0.549464 1.60981 0
M  V30 1943 O 184.902 -0.46336 1.88591 0
M  V30 1944 C 182.032 -0.418944 3.44764 0
M  V30 1945 C 180.986 0.406316 4.26067 0
M  V30 1946 C 180.312 -0.506793 5.32293 0
M  V30 1947 C 181.612 1.64832 4.95608 0
M  V30 1948 H 183.306 1.20462 2.74097 0
M  V30 1949 H 180.852 0.580695 1.31772 0
M  V30 1950 H 182.805 -0.791395 4.13902 0
M  V30 1951 H 181.529 -1.28964 3.0006 0
M  V30 1952 H 180.188 0.760903 3.58617 0
M  V30 1953 H 179.836 -1.37519 4.83836 0
M  V30 1954 H 179.536 0.0415828 5.87585 0
M  V30 1955 H 181.06 -0.875764 6.04287 0
M  V30 1956 H 182.474 1.34646 5.57264 0
M  V30 1957 H 180.871 2.13688 5.60765 0
M  V30 1958 H 181.941 2.39284 4.21748 0
M  V30 1959 N 183.284 -1.43765 0.645699 0
M  V30 1960 C 184.509 -2.06767 0.161883 0
M  V30 1961 C 184.934 -1.48034 -1.16049 0
M  V30 1962 O 184.292 -0.587369 -1.71522 0
M  V30 1963 C 184.34 -3.60519 0.0762003 0
M  V30 1964 O 183.444 -4.00982 -0.963721 0
M  V30 1965 H 182.785 -0.657675 0.091429 0
M  V30 1966 H 185.315 -1.84397 0.886499 0
M  V30 1967 H 185.325 -4.07853 -0.109604 0
M  V30 1968 H 184 -4.02646 1.04157 0
M  V30 1969 H 182.577 -3.65253 -0.751312 0
M  V30 1970 N 184.763 -0.387143 -1.52771 0
M  V30 1971 C 186.04 0.253197 -1.93954 0
M  V30 1972 C 186.42 1.64545 -1.32243 0
M  V30 1973 O 185.768 2.23191 -0.489699 0
M  V30 1974 C 185.978 0.281722 -3.47861 0
M  V30 1975 C 187.326 0.511715 -4.21505 0
M  V30 1976 O 188.35 0.362023 -3.54356 0
M  V30 1977 O 187.209 0.804847 -5.40541 0
M  V30 1978 H 184.303 0.156845 -0.811991 0
M  V30 1979 H 186.849 -0.441494 -1.63856 0
M  V30 1980 H 185.621 -0.693571 -3.85104 0
M  V30 1981 H 185.244 1.02142 -3.84256 0
M  V30 1982 N 186.241 1.57166 -0.116904 0
M  V30 1983 C 187.49 1.94298 0.541407 0
M  V30 1984 C 187.803 1.00236 1.67964 0
M  V30 1985 O 189.009 1.26826 2.40057 0
M  V30 1986 C 187.465 3.45306 1.01449 0
M  V30 1987 C 187.073 4.47899 -0.0951738 0
M  V30 1988 C 188.817 3.91361 1.6443 0
M  V30 1989 C 186.724 5.90083 0.394491 0
M  V30 1990 H 185.654 0.725308 0.206019 0
M  V30 1991 H 188.305 1.82446 -0.196419 0
M  V30 1992 H 186.687 3.52385 1.80667 0
M  V30 1993 H 187.861 4.52486 -0.871374 0
M  V30 1994 H 186.176 4.11583 -0.631505 0
M  V30 1995 H 188.773 4.95004 2.02176 0
M  V30 1996 H 189.116 3.3122 2.52189 0
M  V30 1997 H 189.649 3.87073 0.917559 0
M  V30 1998 H 186.388 6.53974 -0.447004 0
M  V30 1999 H 185.908 5.88921 1.13722 0
M  V30 2000 H 187.587 6.41307 0.856399 0
M  V30 2001 N 187.719 -0.156864 1.56817 0
M  V30 2002 C 189.13 -0.717916 1.72345 0
M  V30 2003 C 189.481 -1.82124 0.729747 0
M  V30 2004 O 188.606 -2.16141 -0.105781 0
M  V30 2005 C 189.201 -1.30904 3.12489 0
M  V30 2006 C 187.76 -1.81676 3.29653 0
M  V30 2007 C 186.907 -0.701349 2.68284 0
M  V30 2008 H 189.858 0.0686989 1.58551 0
M  V30 2009 H 189.879 -2.17882 3.11942 0
M  V30 2010 H 189.391 -0.505796 3.8479 0
M  V30 2011 H 187.492 -2.64598 2.62333 0
M  V30 2012 H 187.605 -1.95226 4.3752 0
M  V30 2013 H 185.969 -1.12548 2.28484 0
M  V30 2014 H 186.752 0.0902846 3.43181 0
M  V30 2015 N 189.197 -1.51736 -0.425897 0
M  V30 2016 C 190.445 -1.64644 -1.17204 0
M  V30 2017 C 190.766 -0.370486 -1.91448 0
M  V30 2018 O 190.036 0.614088 -1.86026 0
M  V30 2019 H 188.616 -0.606819 -0.435638 0
M  V30 2020 H 191.278 -1.88713 -0.487177 0
M  V30 2021 H 190.374 -2.47958 -1.89534 0
M  V30 2022 N 190.675 0.682077 -1.42076 0
M  V30 2023 C 191.585 1.82535 -1.47371 0
M  V30 2024 C 192.601 1.7017 -0.363079 0
M  V30 2025 O 193.777 1.91848 -0.612875 0
M  V30 2026 C 190.842 3.18624 -1.36674 0
M  V30 2027 C 189.903 3.42999 -2.58167 0
M  V30 2028 C 189.136 4.72595 -2.4797 0
M  V30 2029 O 189.359 5.50006 -1.5116 0
M  V30 2030 O 188.293 4.98054 -3.37974 0
M  V30 2031 H 192.119 1.81023 -2.43853 0
M  V30 2032 H 189.704 0.836887 -1.2376 0
M  V30 2033 H 191.586 3.99847 -1.33043 0
M  V30 2034 H 190.261 3.20789 -0.433138 0
M  V30 2035 H 189.168 2.61653 -2.67373 0
M  V30 2036 H 190.501 3.45659 -3.50401 0
M  V30 2037 N 192.153 1.28127 0.917671 0
M  V30 2038 C 193.116 1.11744 2.00115 0
M  V30 2039 C 194.116 0.0583052 1.60694 0
M  V30 2040 O 195.306 0.303755 1.71531 0
M  V30 2041 C 192.438 0.704862 3.33533 0
M  V30 2042 H 193.631 2.07966 2.16079 0
M  V30 2043 H 191.184 1.11058 1.09981 0
M  V30 2044 H 191.919 -0.258299 3.2327 0
M  V30 2045 H 191.704 1.4699 3.63505 0
M  V30 2046 H 193.194 0.612768 4.1308 0
M  V30 2047 N 193.631 -1.12557 1.10312 0
M  V30 2048 C 194.564 -2.1737 0.694674 0
M  V30 2049 C 195.542 -1.59745 -0.303373 0
M  V30 2050 O 196.726 -1.87408 -0.202578 0
M  V30 2051 C 193.853 -3.38691 0.0248052 0
M  V30 2052 C 192.899 -4.14943 0.986121 0
M  V30 2053 S 193.732 -4.73413 2.50281 0
M  V30 2054 C 194.888 -5.9807 1.84562 0
M  V30 2055 H 195.121 -2.5168 1.58255 0
M  V30 2056 H 192.654 -1.23998 0.919992 0
M  V30 2057 H 194.612 -4.08959 -0.355361 0
M  V30 2058 H 193.273 -3.02664 -0.839851 0
M  V30 2059 H 192.466 -5.01854 0.464651 0
M  V30 2060 H 192.068 -3.50377 1.30813 0
M  V30 2061 H 194.36 -6.67232 1.17507 0
M  V30 2062 H 195.303 -6.54841 2.69423 0
M  V30 2063 H 195.711 -5.49073 1.31069 0
M  V30 2064 N 195.109 -0.891671 -1.2995 0
M  V30 2065 C 196.355 -0.514261 -1.96171 0
M  V30 2066 C 196.688 0.935506 -1.70182 0
M  V30 2067 O 195.963 1.66204 -1.01028 0
M  V30 2068 C 196.246 -0.797719 -3.51153 0
M  V30 2069 C 196.099 -2.2986 -3.86632 0
M  V30 2070 C 197.418 -0.278749 -4.39216 0
M  V30 2071 H 194.537 -0.188314 -0.712535 0
M  V30 2072 H 197.179 -1.11689 -1.53706 0
M  V30 2073 H 195.329 -0.284826 -3.87455 0
M  V30 2074 H 197.001 -2.88042 -3.60319 0
M  V30 2075 H 195.244 -2.76257 -3.34462 0
M  V30 2076 H 195.915 -2.44753 -4.94773 0
M  V30 2077 H 198.391 -0.717825 -4.09862 0
M  V30 2078 H 197.267 -0.506353 -5.46559 0
M  V30 2079 H 197.528 0.820266 -4.34424 0
M  V30 2080 N 196.587 1.43421 -0.653314 0
M  V30 2081 C 197.534 2.30768 0.0382271 0
M  V30 2082 C 198.504 1.44755 0.814576 0
M  V30 2083 O 199.689 1.73624 0.791162 0
M  V30 2084 C 196.829 3.30336 0.998599 0
M  V30 2085 C 195.942 4.31448 0.218342 0
M  V30 2086 C 195.077 5.18098 1.17252 0
M  V30 2087 C 194.116 6.10902 0.382702 0
M  V30 2088 N 193.253 6.90176 1.28848 0
M  V30 2089 H 198.093 2.89357 -0.712511 0
M  V30 2090 H 195.63 1.42548 -0.363128 0
M  V30 2091 H 197.588 3.86572 1.56901 0
M  V30 2092 H 196.218 2.73397 1.71621 0
M  V30 2093 H 195.27 3.77506 -0.46836 0
M  V30 2094 H 196.582 4.97227 -0.395812 0
M  V30 2095 H 195.736 5.7896 1.81356 0
M  V30 2096 H 194.475 4.52444 1.82058 0
M  V30 2097 H 193.48 5.49128 -0.27169 0
M  V30 2098 H 194.705 6.78598 -0.260957 0
M  V30 2099 H 192.651 6.27171 1.92334 0
M  V30 2100 H 192.568 7.52478 0.728887 0
M  V30 2101 H 193.836 7.55543 1.91766 0
M  V30 2102 N 198.065 0.39524 1.52563 0
M  V30 2103 C 198.995 -0.428384 2.29537 0
M  V30 2104 C 199.976 -1.05831 1.33169 0
M  V30 2105 O 201.161 -1.06995 1.62067 0
M  V30 2106 C 198.291 -1.55274 3.10656 0
M  V30 2107 C 197.245 -1.04855 4.14957 0
M  V30 2108 C 196.571 -2.26543 4.84337 0
M  V30 2109 C 197.871 -0.112324 5.22179 0
M  V30 2110 H 199.565 0.213867 2.98635 0
M  V30 2111 H 197.111 0.104298 1.43622 0
M  V30 2112 H 199.064 -2.1358 3.63265 0
M  V30 2113 H 197.788 -2.22266 2.39302 0
M  V30 2114 H 196.447 -0.487985 3.63338 0
M  V30 2115 H 196.095 -2.92059 4.09525 0
M  V30 2116 H 195.795 -1.93466 5.54837 0
M  V30 2117 H 197.319 -2.85481 5.39753 0
M  V30 2118 H 198.733 -0.603752 5.70112 0
M  V30 2119 H 197.13 0.128968 5.99961 0
M  V30 2120 H 198.2 0.837052 4.77621 0
M  V30 2121 N 199.544 -1.57102 0.125237 0
M  V30 2122 C 200.774 -1.99472 -0.538015 0
M  V30 2123 C 201.182 -1.00395 -1.60366 0
M  V30 2124 O 200.525 0.0103875 -1.83697 0
M  V30 2125 C 200.587 -3.38262 -1.21734 0
M  V30 2126 C 200.251 -4.56021 -0.298897 0
M  V30 2127 C 201.248 -5.17817 0.464943 0
M  V30 2128 C 198.933 -5.01869 -0.208149 0
M  V30 2129 C 200.927 -6.23852 1.3072 0
M  V30 2130 C 198.614 -6.07763 0.637736 0
M  V30 2131 C 199.612 -6.68622 1.39403 0
M  V30 2132 O 199.3 -7.7247 2.22586 0
M  V30 2133 H 199.032 -0.659934 -0.146501 0
M  V30 2134 H 201.586 -2.04321 0.210267 0
M  V30 2135 H 199.816 -3.30185 -2.01282 0
M  V30 2136 H 201.505 -3.6488 -1.77813 0
M  V30 2137 H 202.271 -4.83308 0.404741 0
M  V30 2138 H 198.15 -4.54241 -0.786522 0
M  V30 2139 H 201.694 -6.71284 1.898 0
M  V30 2140 H 197.591 -6.41701 0.699309 0
M  V30 2141 H 198.359 -7.89595 2.15596 0
M  V30 2142 N 201.022 0.148545 -1.56898 0
M  V30 2143 C 202.262 0.86765 -1.85071 0
M  V30 2144 C 202.626 1.78417 -0.709317 0
M  V30 2145 O 203.827 2.54261 -0.872049 0
M  V30 2146 C 202.098 1.62306 -3.1842 0
M  V30 2147 S 203.657 2.3878 -3.68143 0
M  V30 2148 H 200.475 0.290174 -0.649092 0
M  V30 2149 H 203.077 0.127755 -1.95082 0
M  V30 2150 H 201.781 0.941192 -3.99462 0
M  V30 2151 H 201.312 2.4039 -3.1141 0
M  V30 2152 H 203.327 3.63942 -3.37285 0
M  V30 2153 N 202.5 1.5196 0.417844 0
M  V30 2154 C 203.911 1.57851 0.997 0
M  V30 2155 C 204.262 0.413714 1.91789 0
M  V30 2156 O 203.387 -0.467057 2.113 0
M  V30 2157 C 203.982 2.86085 1.81496 0
M  V30 2158 C 202.541 2.94483 2.34428 0
M  V30 2159 C 201.688 2.52707 1.14169 0
M  V30 2160 H 204.639 1.57455 0.198392 0
M  V30 2161 H 204.66 2.70947 2.67148 0
M  V30 2162 H 204.172 3.70842 1.14446 0
M  V30 2163 H 202.273 2.142 3.04875 0
M  V30 2164 H 202.386 3.98546 2.65891 0
M  V30 2165 H 200.75 2.06353 1.49301 0
M  V30 2166 H 201.533 3.39828 0.486999 0
M  V30 2167 N 203.978 -0.674533 1.42435 0
M  V30 2168 C 204.925 -1.78807 1.45934 0
M  V30 2169 C 205.895 -1.63157 0.311271 0
M  V30 2170 O 207.08 -1.83707 0.515383 0
M  V30 2171 C 204.22 -3.16839 1.36773 0
M  V30 2172 C 203.333 -3.43774 2.61617 0
M  V30 2173 C 202.468 -4.71536 2.44597 0
M  V30 2174 C 201.507 -4.91505 3.64814 0
M  V30 2175 N 200.644 -6.10508 3.46734 0
M  V30 2176 H 205.484 -1.75151 2.41093 0
M  V30 2177 H 203.021 -0.85504 1.19697 0
M  V30 2178 H 204.979 -3.96606 1.29459 0
M  V30 2179 H 203.609 -3.19619 0.452089 0
M  V30 2180 H 202.661 -2.58259 2.79297 0
M  V30 2181 H 203.973 -3.54423 3.50978 0
M  V30 2182 H 203.127 -5.59393 2.3487 0
M  V30 2183 H 201.866 -4.6317 1.52726 0
M  V30 2184 H 200.871 -4.0209 3.74972 0
M  V30 2185 H 202.096 -5.01716 4.57665 0
M  V30 2186 H 200.042 -6.03315 2.5758 0
M  V30 2187 H 199.959 -6.2202 4.29682 0
M  V30 2188 H 201.227 -7.01044 3.40819 0
M  V30 2189 N 205.456 -1.28612 -0.910864 0
M  V30 2190 C 206.696 -1.1719 -1.67469 0
M  V30 2191 C 207.06 0.274441 -1.90028 0
M  V30 2192 O 208.261 0.511425 -2.6389 0
M  V30 2193 C 206.532 -1.95137 -2.99427 0
M  V30 2194 S 208.091 -2.00122 -3.90508 0
M  V30 2195 H 204.909 -0.41806 -0.575106 0
M  V30 2196 H 207.511 -1.6275 -1.08317 0
M  V30 2197 H 206.215 -2.99381 -2.80712 0
M  V30 2198 H 205.746 -1.50137 -3.63624 0
M  V30 2199 H 207.761 -1.10981 -4.8363 0
M  V30 2200 N 206.934 1.1197 -1.10907 0
M  V30 2201 C 207.867 2.16998 -0.706192 0
M  V30 2202 C 208.845 1.59903 0.294897 0
M  V30 2203 O 210.029 1.87513 0.192636 0
M  V30 2204 C 207.156 3.38673 -0.0427664 0
M  V30 2205 C 206.202 4.14414 -1.00811 0
M  V30 2206 S 207.035 4.72079 -2.52789 0
M  V30 2207 C 208.191 5.97083 -1.87731 0
M  V30 2208 H 208.424 2.50837 -1.59587 0
M  V30 2209 H 205.957 1.23508 -0.926555 0
M  V30 2210 H 207.915 4.09142 0.333668 0
M  V30 2211 H 206.576 3.03105 0.823788 0
M  V30 2212 H 205.769 5.016 -0.491259 0
M  V30 2213 H 205.371 3.49678 -1.3267 0
M  V30 2214 H 207.663 6.66599 -1.21044 0
M  V30 2215 H 208.606 6.53403 -2.72892 0
M  V30 2216 H 209.014 5.4837 -1.33979 0
M  V30 2217 N 208.412 0.89855 1.29475 0
M  V30 2218 C 209.689 0.443416 1.90508 0
M  V30 2219 C 210.069 -1.07685 1.81569 0
M  V30 2220 O 209.417 -1.9182 1.24166 0
M  V30 2221 C 209.627 0.956708 3.35631 0
M  V30 2222 C 210.975 0.999728 4.12663 0
M  V30 2223 O 211.999 0.904299 3.4453 0
M  V30 2224 O 210.858 1.14289 5.34416 0
M  V30 2225 H 207.952 0.138025 0.815401 0
M  V30 2226 H 210.498 0.98834 1.37949 0
M  V30 2227 H 209.27 2.00067 3.36287 0
M  V30 2228 H 208.893 0.391728 3.95666 0
M  V30 2229 N 209.89 -1.43072 0.660911 0
M  V30 2230 C 211.136 -2.0202 0.177708 0
M  V30 2231 C 211.469 -1.52066 -1.20787 0
M  V30 2232 O 210.744 -0.716987 -1.80802 0
M  V30 2233 C 211.027 -3.59561 0.197019 0
M  V30 2234 C 210.88 -4.19727 1.61706 0
M  V30 2235 C 212.199 -4.37664 -0.462396 0
M  V30 2236 H 209.318 -0.734034 0.0660494 0
M  V30 2237 H 211.96 -1.70272 0.843058 0
M  V30 2238 H 210.11 -3.86739 -0.369527 0
M  V30 2239 H 211.782 -4.03553 2.23479 0
M  V30 2240 H 210.025 -3.76084 2.16201 0
M  V30 2241 H 210.696 -5.28834 1.58237 0
M  V30 2242 H 213.172 -4.16095 0.0197215 0
M  V30 2243 H 212.048 -5.47305 -0.418188 0
M  V30 2244 H 212.309 -4.14493 -1.53778 0
M  V30 2245 N 211.368 -0.403325 -1.52352 0
M  V30 2246 C 212.598 0.17376 -2.05868 0
M  V30 2247 C 213.006 1.39898 -1.27378 0
M  V30 2248 O 212.349 1.80939 -0.31729 0
M  V30 2249 C 212.411 0.594756 -3.54546 0
M  V30 2250 C 212.075 -0.518926 -4.54044 0
M  V30 2251 C 213.072 -1.3807 -5.01231 0
M  V30 2252 C 210.757 -0.689961 -4.97539 0
M  V30 2253 C 212.751 -2.39852 -5.90551 0
M  V30 2254 C 210.438 -1.71109 -5.86656 0
M  V30 2255 C 211.436 -2.56378 -6.33056 0
M  V30 2256 O 211.124 -3.56743 -7.20409 0
M  V30 2257 H 210.856 0.0264951 -0.675481 0
M  V30 2258 H 213.41 -0.571179 -1.97299 0
M  V30 2259 H 211.64 1.39189 -3.60782 0
M  V30 2260 H 213.329 1.0991 -3.90736 0
M  V30 2261 H 214.095 -1.25994 -4.68349 0
M  V30 2262 H 209.974 -0.035939 -4.60986 0
M  V30 2263 H 213.518 -3.06441 -6.26689 0
M  V30 2264 H 209.415 -1.83218 -6.18952 0
M  V30 2265 H 210.183 -3.52918 -7.38506 0
M  V30 2266 N 212.846 1.57033 -0.133567 0
M  V30 2267 C 214.074 2.00044 0.528195 0
M  V30 2268 C 214.489 1.01349 1.59291 0
M  V30 2269 O 213.846 0.00848369 1.82498 0
M  V30 2270 C 213.897 3.43018 1.1411 0
M  V30 2271 O 213.618 4.37939 0.11892 0
M  V30 2272 C 215.119 4.01237 1.88477 0
M  V30 2273 H 212.339 0.656517 0.138661 0
M  V30 2274 H 214.883 2.03267 -0.224196 0
M  V30 2275 H 213.038 3.40688 1.84418 0
M  V30 2276 H 213.452 5.21436 0.56613 0
M  V30 2277 H 214.926 5.03314 2.26669 0
M  V30 2278 H 215.403 3.41193 2.76558 0
M  V30 2279 H 216.009 4.07156 1.22898 0
M  V30 2280 N 214.325 -0.140222 1.56975 0
M  V30 2281 C 215.736 -0.699596 1.73097 0
M  V30 2282 C 216.087 -1.8134 0.749022 0
M  V30 2283 O 215.212 -2.16241 -0.0828503 0
M  V30 2284 C 215.807 -1.27582 3.1386 0
M  V30 2285 C 214.366 -1.78169 3.31561 0
M  V30 2286 C 213.513 -0.672855 2.69013 0
M  V30 2287 H 216.464 0.0855115 1.58469 0
M  V30 2288 H 216.485 -2.14561 3.14235 0
M  V30 2289 H 215.997 -0.464955 3.85305 0
M  V30 2290 H 214.098 -2.61801 2.65124 0
M  V30 2291 H 214.211 -1.90574 4.39566 0
M  V30 2292 H 212.575 -1.10118 2.29665 0
M  V30 2293 H 213.358 0.126679 3.43066 0
M  V30 2294 N 215.803 -1.52179 -0.40978 0
M  V30 2295 C 216.75 -1.75475 -1.49924 0
M  V30 2296 C 217.72 -0.597175 -1.54994 0
M  V30 2297 O 218.905 -0.834655 -1.71575 0
M  V30 2298 C 216.045 -1.9107 -2.87378 0
M  V30 2299 C 215.158 -3.18717 -2.91622 0
M  V30 2300 C 214.293 -3.24747 -4.20372 0
M  V30 2301 C 213.332 -4.46598 -4.18588 0
M  V30 2302 N 212.469 -4.50025 -5.38908 0
M  V30 2303 H 217.309 -2.68458 -1.29361 0
M  V30 2304 H 214.846 -1.33024 -0.627934 0
M  V30 2305 H 216.804 -1.98096 -3.6717 0
M  V30 2306 H 215.434 -1.01469 -3.06437 0
M  V30 2307 H 214.486 -3.20866 -2.04326 0
M  V30 2308 H 215.798 -4.08544 -2.86169 0
M  V30 2309 H 214.952 -3.30841 -5.08556 0
M  V30 2310 H 213.691 -2.32857 -4.28519 0
M  V30 2311 H 212.696 -4.40652 -3.28794 0
M  V30 2312 H 213.921 -5.39783 -4.12081 0
M  V30 2313 H 211.867 -3.61017 -5.47725 0
M  V30 2314 H 211.784 -5.33697 -5.35447 0
M  V30 2315 H 213.052 -4.60347 -6.29048 0
M  V30 2316 N 217.281 0.66697 -1.42791 0
M  V30 2317 C 218.506 1.46004 -1.47301 0
M  V30 2318 C 218.931 1.87894 -0.0880317 0
M  V30 2319 O 218.289 1.56502 0.915253 0
M  V30 2320 C 218.337 2.68031 -2.41229 0
M  V30 2321 O 217.441 3.6659 -1.88906 0
M  V30 2322 H 216.782 0.43832 -0.49877 0
M  V30 2323 H 219.312 0.817391 -1.87563 0
M  V30 2324 H 219.322 3.1601 -2.58073 0
M  V30 2325 H 217.997 2.36883 -3.41847 0
M  V30 2326 H 216.574 3.25661 -1.81656 0
M  V30 2327 N 218.759 1.29093 0.90403 0
M  V30 2328 C 219.984 1.19809 1.69294 0
M  V30 2329 C 220.409 -0.238481 1.86582 0
M  V30 2330 O 219.767 -1.1723 1.383 0
M  V30 2331 C 219.815 1.91202 3.05736 0
M  V30 2332 O 218.919 1.22611 3.93752 0
M  V30 2333 H 218.26 0.415385 0.518027 0
M  V30 2334 H 220.79 1.70586 1.12967 0
M  V30 2335 H 220.8 1.99487 3.55906 0
M  V30 2336 H 219.475 2.95692 2.92471 0
M  V30 2337 H 218.052 1.22554 3.52186 0
M  V30 2338 N 220.237 -1.11381 1.11499 0
M  V30 2339 C 221.653 -1.35143 0.849031 0
M  V30 2340 C 221.853 -1.94515 -0.525938 0
M  V30 2341 O 220.909 -2.1785 -1.27662 0
M  V30 2342 C 222.222 -2.28249 1.95762 0
M  V30 2343 C 223.77 -2.41812 1.98736 0
M  V30 2344 C 224.245 -3.3824 3.088 0
M  V30 2345 N 225.736 -3.45803 3.08179 0
M  V30 2346 C 226.471 -4.20358 3.89982 0
M  V30 2347 N 225.967 -4.97884 4.8175 0
M  V30 2348 N 227.76 -4.15877 3.78157 0
M  V30 2349 H 219.911 -0.712062 2.00109 0
M  V30 2350 H 222.174 -0.376025 0.870235 0
M  V30 2351 H 221.88 -1.91817 2.94787 0
M  V30 2352 H 221.754 -3.28473 1.85433 0
M  V30 2353 H 224.141 -2.77518 1.00338 0
M  V30 2354 H 224.222 -1.41437 2.13141 0
M  V30 2355 H 223.866 -3.03261 4.07425 0
M  V30 2356 H 223.796 -4.38471 2.91635 0
M  V30 2357 H 226.287 -2.90506 2.41691 0
M  V30 2358 H 226.6 -5.52142 5.40702 0
M  V30 2359 H 224.945 -4.97043 4.85771 0
M  V30 2360 H 228.136 -3.544 3.05808 0
M  V30 2361 H 228.309 -4.73723 4.42143 0
M  V30 2362 N 221.715 -0.905404 -1.28997 0
M  V30 2363 C 222.665 -0.358713 -2.25161 0
M  V30 2364 C 223.649 0.524449 -1.52113 0
M  V30 2365 O 224.841 0.365534 -1.73184 0
M  V30 2366 C 221.97 0.407609 -3.40872 0
M  V30 2367 C 221.056 -0.490797 -4.21251 0
M  V30 2368 N 221.447 -1.60061 -4.79806 0
M  V30 2369 C 219.745 -0.289636 -4.45059 0
M  V30 2370 C 220.446 -2.15757 -5.40207 0
M  V30 2371 N 219.422 -1.44988 -5.23908 0
M  V30 2372 H 223.224 -1.20642 -2.67998 0
M  V30 2373 H 220.738 -0.757103 -1.43672 0
M  V30 2374 H 222.735 0.816046 -4.08835 0
M  V30 2375 H 221.395 1.25251 -2.9957 0
M  V30 2376 H 222.406 -1.98329 -4.7842 0
M  V30 2377 H 219.083 0.51643 -4.14294 0
M  V30 2378 H 220.473 -3.09069 -5.96595 0
M  V30 2379 N 223.193 1.4272 -0.668489 0
M  V30 2380 C 224.143 2.27971 0.0363806 0
M  V30 2381 C 225.127 1.40741 0.779794 0
M  V30 2382 O 226.319 1.64245 0.659745 0
M  V30 2383 C 223.448 3.28673 0.991398 0
M  V30 2384 C 222.534 4.23388 0.245658 0
M  V30 2385 N 222.925 5.00267 -0.746069 0
M  V30 2386 C 221.223 4.43355 0.484988 0
M  V30 2387 C 221.924 5.69396 -1.19009 0
M  V30 2388 N 220.9 5.41095 -0.521287 0
M  V30 2389 H 224.702 2.84833 -0.724394 0
M  V30 2390 H 222.216 1.54607 -0.497028 0
M  V30 2391 H 224.213 3.88543 1.51129 0
M  V30 2392 H 222.873 2.73373 1.75207 0
M  V30 2393 H 223.884 5.05525 -1.12537 0
M  V30 2394 H 220.561 3.99104 1.22565 0
M  V30 2395 H 221.951 6.41083 -2.01153 0
M  V30 2396 N 224.671 0.411399 1.52136 0
M  V30 2397 C 225.621 -0.430376 2.23901 0
M  V30 2398 C 226.605 -1.0116 1.25121 0
M  V30 2399 O 227.797 -0.934044 1.50348 0
M  V30 2400 C 224.926 -1.54527 3.06556 0
M  V30 2401 C 224.012 -0.9747 4.12747 0
M  V30 2402 N 224.403 -0.130991 5.0563 0
M  V30 2403 C 222.701 -1.24497 4.28271 0
M  V30 2404 C 223.402 0.186689 5.814 0
M  V30 2405 N 222.378 -0.42304 5.41951 0
M  V30 2406 H 226.18 0.220509 2.93072 0
M  V30 2407 H 223.694 0.221952 1.60876 0
M  V30 2408 H 225.691 -2.16093 3.56524 0
M  V30 2409 H 224.351 -2.19875 2.38925 0
M  V30 2410 H 225.362 0.23349 5.17373 0
M  V30 2411 H 222.039 -1.89787 3.7187 0
M  V30 2412 H 223.429 0.871673 6.66222 0
M  V30 2413 N 226.149 -1.5696 0.141893 0
M  V30 2414 C 227.377 -2.00322 -0.517579 0
M  V30 2415 C 227.792 -1.02193 -1.58752 0
M  V30 2416 O 227.149 -0.0181619 -1.82491 0
M  V30 2417 C 227.2 -3.43618 -1.12289 0
M  V30 2418 O 226.921 -4.37995 -0.0956929 0
M  V30 2419 C 228.422 -4.02231 -1.86347 0
M  V30 2420 H 225.642 -0.657243 -0.135177 0
M  V30 2421 H 228.186 -2.03146 0.234973 0
M  V30 2422 H 226.341 -3.41662 -1.82609 0
M  V30 2423 H 226.755 -5.21729 -0.538469 0
M  V30 2424 H 228.229 -5.04509 -2.23997 0
M  V30 2425 H 228.706 -3.42655 -2.74744 0
M  V30 2426 H 229.312 -4.07802 -1.20737 0
M  V30 2427 N 227.627 0.131896 -1.57047 0
M  V30 2428 C 228.904 0.871495 -1.75112 0
M  V30 2429 C 229.284 1.9866 -0.713949 0
M  V30 2430 O 228.632 2.26965 0.264447 0
M  V30 2431 C 228.842 1.40007 -3.19686 0
M  V30 2432 C 230.19 1.85752 -3.81813 0
M  V30 2433 O 231.214 1.49715 -3.23209 0
M  V30 2434 O 230.073 2.5226 -4.84796 0
M  V30 2435 H 227.167 0.412919 -0.716538 0
M  V30 2436 H 229.713 0.116641 -1.69299 0
M  V30 2437 H 228.485 0.599404 -3.86682 0
M  V30 2438 H 228.108 2.218 -3.29986 0
M  V30 2439 N 229.106 1.52395 0.401703 0
M  V30 2440 C 230.354 1.66488 1.14569 0
M  V30 2441 C 230.675 0.400897 1.90835 0
M  V30 2442 O 229.945 -0.584415 1.8698 0
M  V30 2443 H 228.525 0.613672 0.425929 0
M  V30 2444 H 231.187 1.89464 0.457093 0
M  V30 2445 H 230.283 2.50942 1.85566 0
M  V30 2446 N 230.584 -0.659388 1.43143 0
M  V30 2447 C 231.547 -1.75432 1.47501 0
M  V30 2448 C 232.547 -1.56707 0.360512 0
M  V30 2449 O 233.737 -1.62717 0.622002 0
M  V30 2450 C 230.869 -3.14239 1.32162 0
M  V30 2451 H 232.062 -1.7295 2.45006 0
M  V30 2452 H 229.615 -0.870469 1.29817 0
M  V30 2453 H 230.35 -3.22336 0.356401 0
M  V30 2454 H 230.135 -3.29235 2.12948 0
M  V30 2455 H 231.625 -3.94094 1.3813 0
M  V30 2456 N 232.062 -1.29571 -0.897171 0
M  V30 2457 C 233.292 -1.20408 -1.67886 0
M  V30 2458 C 233.7 0.237429 -1.87704 0
M  V30 2459 O 233.043 1.17048 -1.41582 0
M  V30 2460 C 233.105 -1.84887 -3.08314 0
M  V30 2461 C 232.769 -3.34189 -3.11716 0
M  V30 2462 C 233.766 -4.30374 -2.91675 0
M  V30 2463 C 231.451 -3.75431 -3.33701 0
M  V30 2464 C 233.445 -5.65776 -2.93557 0
M  V30 2465 C 231.132 -5.10955 -3.35214 0
M  V30 2466 C 232.13 -6.05938 -3.15164 0
M  V30 2467 O 231.818 -7.38987 -3.1647 0
M  V30 2468 H 231.55 -0.418289 -0.531046 0
M  V30 2469 H 234.104 -1.71514 -1.13014 0
M  V30 2470 H 232.334 -1.28295 -3.64798 0
M  V30 2471 H 234.023 -1.70011 -3.6858 0
M  V30 2472 H 234.789 -3.99844 -2.74499 0
M  V30 2473 H 230.668 -3.01953 -3.48347 0
M  V30 2474 H 234.212 -6.39889 -2.77826 0
M  V30 2475 H 230.109 -5.4113 -3.51922 0
M  V30 2476 H 230.877 -7.47823 -3.3272 0
M  V30 2477 N 233.54 1.10788 -1.12088 0
M  V30 2478 C 234.787 1.82671 -0.873931 0
M  V30 2479 C 235.115 1.85004 0.600311 0
M  V30 2480 O 234.37 1.30365 1.45957 0
M  V30 2481 C 234.669 3.29294 -1.38926 0
M  V30 2482 C 234.335 3.47113 -2.87791 0
M  V30 2483 C 232.997 3.51684 -3.28439 0
M  V30 2484 C 235.349 3.52808 -3.83635 0
M  V30 2485 C 232.677 3.59513 -4.63646 0
M  V30 2486 C 235.029 3.62169 -5.18668 0
M  V30 2487 C 233.693 3.65003 -5.58864 0
M  V30 2488 H 232.963 0.668441 -0.319794 0
M  V30 2489 H 235.61 1.30613 -1.40045 0
M  V30 2490 H 233.915 3.83894 -0.783122 0
M  V30 2491 H 235.612 3.83416 -1.17443 0
M  V30 2492 H 232.202 3.4423 -2.5535 0
M  V30 2493 H 236.386 3.4853 -3.53328 0
M  V30 2494 H 231.642 3.59987 -4.94185 0
M  V30 2495 H 235.816 3.6552 -5.92763 0
M  V30 2496 H 233.443 3.70822 -6.63623 0
M  V30 2497 N 235.018 0.912232 1.28515 0
M  V30 2498 C 236.266 0.543523 1.94654 0
M  V30 2499 C 236.587 -0.9155 1.72173 0
M  V30 2500 O 235.857 -1.64708 1.06058 0
M  V30 2501 H 234.437 0.198017 0.720277 0
M  V30 2502 H 237.099 1.16126 1.56527 0
M  V30 2503 H 236.195 0.736684 3.03281 0
M  V30 2504 N 236.496 -1.42363 0.676048 0
M  V30 2505 C 237.724 -2.05859 0.207268 0
M  V30 2506 C 238.139 -1.50796 -1.13605 0
M  V30 2507 O 237.496 -0.648265 -1.70598 0
M  V30 2508 C 237.547 -3.61248 0.134975 0
M  V30 2509 O 237.268 -4.1427 1.42521 0
M  V30 2510 C 238.769 -4.41859 -0.357151 0
M  V30 2511 H 235.989 -0.663431 0.100503 0
M  V30 2512 H 238.533 -1.82479 0.923136 0
M  V30 2513 H 236.688 -3.83735 -0.531588 0
M  V30 2514 H 237.102 -5.0815 1.29939 0
M  V30 2515 H 238.576 -5.50847 -0.356641 0
M  V30 2516 H 239.053 -4.16536 -1.39264 0
M  V30 2517 H 239.659 -4.24392 0.27772 0
M  V30 2518 N 237.974 -0.419461 -1.51915 0
M  V30 2519 C 239.222 0.152637 -2.01523 0
M  V30 2520 C 239.543 1.44762 -1.30649 0
M  V30 2521 O 238.813 1.90997 -0.435535 0
M  V30 2522 H 237.393 0.0593966 -0.744635 0
M  V30 2523 H 240.055 -0.558073 -1.86739 0
M  V30 2524 H 239.151 0.341369 -3.10227 0
M  V30 2525 N 239.452 1.56882 -0.150215 0
M  V30 2526 C 240.699 1.96228 0.500093 0
M  V30 2527 C 241.027 1.03522 1.64661 0
M  V30 2528 O 240.282 0.0650683 1.95592 0
M  V30 2529 C 240.581 3.41801 1.04437 0
M  V30 2530 C 240.247 4.50897 0.0159671 0
M  V30 2531 C 238.909 4.8046 -0.266731 0
M  V30 2532 C 241.261 5.16703 -0.683192 0
M  V30 2533 C 238.589 5.73135 -1.25434 0
M  V30 2534 C 240.941 6.10441 -1.65964 0
M  V30 2535 C 239.605 6.38382 -1.95 0
M  V30 2536 H 238.875 0.718048 0.182997 0
M  V30 2537 H 241.522 1.90019 -0.237724 0
M  V30 2538 H 239.827 3.44857 1.85959 0
M  V30 2539 H 241.524 3.69573 1.55618 0
M  V30 2540 H 238.114 4.27891 0.246485 0
M  V30 2541 H 242.298 4.93993 -0.477983 0
M  V30 2542 H 237.554 5.93074 -1.48571 0
M  V30 2543 H 241.728 6.60507 -2.20689 0
M  V30 2544 H 239.355 7.09996 -2.71679 0
M  V30 2545 N 240.93 -0.123565 1.57115 0
M  V30 2546 C 242.341 -0.681198 1.73829 0
M  V30 2547 C 242.692 -1.80535 0.768214 0
M  V30 2548 O 241.817 -2.16317 -0.0599103 0
M  V30 2549 C 242.412 -1.24246 3.15196 0
M  V30 2550 C 240.971 -1.74643 3.33432 0
M  V30 2551 C 240.118 -0.644284 2.69711 0
M  V30 2552 H 243.069 0.102315 1.5837 0
M  V30 2553 H 243.09 -2.11216 3.16493 0
M  V30 2554 H 242.602 -0.424062 3.85776 0
M  V30 2555 H 240.703 -2.58974 2.67886 0
M  V30 2556 H 240.816 -1.85902 4.41562 0
M  V30 2557 H 239.18 -1.07676 2.3082 0
M  V30 2558 H 239.963 0.163058 3.42913 0
M  V30 2559 N 242.408 -1.52605 -0.393616 0
M  V30 2560 C 243.358 -1.73436 -1.48 0
M  V30 2561 C 244.342 -0.588386 -1.49756 0
M  V30 2562 O 245.534 -0.846047 -1.5547 0
M  V30 2563 C 242.663 -1.90247 -2.85764 0
M  V30 2564 C 241.749 -3.10763 -2.88595 0
M  V30 2565 N 242.14 -4.33196 -2.61103 0
M  V30 2566 C 240.438 -3.10914 -3.19763 0
M  V30 2567 C 241.139 -5.1477 -2.70899 0
M  V30 2568 N 240.115 -4.50356 -3.04435 0
M  V30 2569 H 243.917 -2.65727 -1.25563 0
M  V30 2570 H 241.431 -1.5085 -0.601513 0
M  V30 2571 H 243.428 -2.03291 -3.63976 0
M  V30 2572 H 242.088 -0.991663 -3.09186 0
M  V30 2573 H 243.099 -4.61408 -2.35209 0
M  V30 2574 H 239.776 -2.29626 -3.4868 0
M  V30 2575 H 241.166 -6.22355 -2.53227 0
M  V30 2576 N 243.887 0.651787 -1.4349 0
M  V30 2577 C 244.82 1.77668 -1.43211 0
M  V30 2578 C 245.798 1.59931 -0.29338 0
M  V30 2579 O 246.982 1.82095 -0.487191 0
M  V30 2580 C 244.109 3.14986 -1.24505 0
M  V30 2581 C 243.155 3.51421 -2.41673 0
M  V30 2582 S 243.988 3.51234 -4.04222 0
M  V30 2583 C 245.144 4.91206 -3.87902 0
M  V30 2584 H 245.377 1.77635 -2.38397 0
M  V30 2585 H 242.91 0.824558 -1.30539 0
M  V30 2586 H 244.868 3.94237 -1.144 0
M  V30 2587 H 243.529 3.1258 -0.308651 0
M  V30 2588 H 242.722 4.51291 -2.24393 0
M  V30 2589 H 242.324 2.79585 -2.48411 0
M  V30 2590 H 244.616 5.79902 -3.50315 0
M  V30 2591 H 245.559 5.13537 -4.8753 0
M  V30 2592 H 245.967 4.64808 -3.20334 0
M  V30 2593 N 245.365 1.30045 0.890287 0
M  V30 2594 C 246.295 1.18541 2.01172 0
M  V30 2595 C 247.276 0.0773356 1.69924 0
M  V30 2596 O 248.461 0.25845 1.92473 0
M  V30 2597 C 245.591 0.870941 3.36202 0
M  V30 2598 C 244.545 1.93637 3.81692 0
M  V30 2599 C 243.871 1.475 5.13953 0
M  V30 2600 C 245.171 3.34666 4.00994 0
M  V30 2601 H 246.865 2.12359 2.11054 0
M  V30 2602 H 244.411 1.02238 1.01407 0
M  V30 2603 H 246.364 0.777141 4.14172 0
M  V30 2604 H 245.088 -0.102926 3.26438 0
M  V30 2605 H 243.747 2.01972 3.05946 0
M  V30 2606 H 243.395 0.489551 5.00612 0
M  V30 2607 H 243.095 2.1876 5.4536 0
M  V30 2608 H 244.619 1.39489 5.94454 0
M  V30 2609 H 246.033 3.2912 4.69417 0
M  V30 2610 H 244.43 4.03966 4.43769 0
M  V30 2611 H 245.5 3.76949 3.05021 0
M  V30 2612 N 246.843 -1.10192 1.12674 0
M  V30 2613 C 248.09 -1.82205 0.883606 0
M  V30 2614 C 248.418 -1.8532 -0.590492 0
M  V30 2615 O 247.673 -1.31137 -1.45264 0
M  V30 2616 C 247.972 -3.28552 1.4067 0
M  V30 2617 C 247.638 -3.45582 2.89627 0
M  V30 2618 C 246.3 -3.49937 3.30299 0
M  V30 2619 C 248.652 -3.50768 3.85501 0
M  V30 2620 C 245.98 -3.57049 4.65546 0
M  V30 2621 C 248.332 -3.59414 5.20581 0
M  V30 2622 C 246.996 -3.62034 5.60792 0
M  V30 2623 H 246.266 -0.666735 0.323334 0
M  V30 2624 H 248.913 -1.29868 1.40736 0
M  V30 2625 H 247.218 -3.83473 0.80347 0
M  V30 2626 H 248.915 -3.82788 1.19475 0
M  V30 2627 H 245.505 -3.42871 2.57172 0
M  V30 2628 H 249.689 -3.46651 3.55171 0
M  V30 2629 H 244.945 -3.57361 4.96088 0
M  V30 2630 H 249.119 -3.62371 5.94693 0
M  V30 2631 H 246.746 -3.67298 6.6558 0
M  V30 2632 N 248.321 -0.919034 -1.28029 0
M  V30 2633 C 249.254 -0.355887 -2.25408 0
M  V30 2634 C 250.232 0.542874 -1.5327 0
M  V30 2635 O 251.416 0.485338 -1.82145 0
M  V30 2636 C 248.543 0.490759 -3.35126 0
M  V30 2637 C 247.589 -0.343358 -4.25116 0
M  V30 2638 S 248.422 -1.75344 -5.05979 0
M  V30 2639 C 249.578 -0.914244 -6.19187 0
M  V30 2640 H 249.811 -1.18123 -2.72826 0
M  V30 2641 H 247.344 -0.720636 -1.36551 0
M  V30 2642 H 249.302 0.973404 -3.98792 0
M  V30 2643 H 247.963 1.29054 -2.86363 0
M  V30 2644 H 247.156 0.304266 -5.03081 0
M  V30 2645 H 246.758 -0.759851 -3.662 0
M  V30 2646 H 249.05 -0.146282 -6.77342 0
M  V30 2647 H 249.993 -1.66661 -6.88208 0
M  V30 2648 H 250.401 -0.460082 -5.62622 0
M  V30 2649 N 249.799 1.42003 -0.683588 0
M  V30 2650 C 251.045 2.01712 -0.209825 0
M  V30 2651 C 251.378 1.53968 1.18353 0
M  V30 2652 O 250.653 0.745661 1.79639 0
M  V30 2653 C 250.936 3.59202 -0.254197 0
M  V30 2654 C 250.789 4.17102 -1.68363 0
M  V30 2655 C 252.108 4.38344 0.392709 0
M  V30 2656 H 249.227 0.732891 -0.0777189 0
M  V30 2657 H 251.869 1.68909 -0.87004 0
M  V30 2658 H 250.019 3.87278 0.307954 0
M  V30 2659 H 251.691 3.99946 -2.29871 0
M  V30 2660 H 249.934 3.72597 -2.22157 0
M  V30 2661 H 250.605 5.26249 -1.6663 0
M  V30 2662 H 253.081 4.16011 -0.0859162 0
M  V30 2663 H 251.957 5.47901 0.331063 0
M  V30 2664 H 252.218 4.16887 1.47164 0
M  V30 2665 N 251.277 0.427512 1.51691 0
M  V30 2666 C 252.227 -0.406604 2.24345 0
M  V30 2667 C 253.211 -0.998276 1.26187 0
M  V30 2668 O 254.403 -0.918045 1.51331 0
M  V30 2669 C 251.532 -1.51266 3.08177 0
M  V30 2670 C 250.618 -0.930868 4.13758 0
M  V30 2671 N 251.009 -0.0773552 5.05741 0
M  V30 2672 C 249.307 -1.19948 4.29568 0
M  V30 2673 C 250.008 0.248344 5.8117 0
M  V30 2674 N 248.984 -0.365535 5.4237 0
M  V30 2675 H 252.786 0.251581 2.92821 0
M  V30 2676 H 250.3 0.239003 1.60632 0
M  V30 2677 H 252.297 -2.123 3.58796 0
M  V30 2678 H 250.957 -2.17328 2.41244 0
M  V30 2679 H 251.968 0.288351 5.17097 0
M  V30 2680 H 248.645 -1.85832 3.73862 0
M  V30 2681 H 250.035 0.942286 6.6526 0
M  V30 2682 N 252.755 -1.56801 0.158532 0
M  V30 2683 C 254.166 -1.83189 -0.360366 0
M  V30 2684 C 254.517 -1.07778 -1.63946 0
M  V30 2685 O 253.642 -0.326718 -2.13919 0
M  V30 2686 C 254.237 -3.32297 -0.660595 0
M  V30 2687 C 252.796 -3.59227 -1.12398 0
M  V30 2688 C 251.943 -2.76877 -0.153097 0
M  V30 2689 H 254.894 -1.54008 0.383031 0
M  V30 2690 H 254.915 -3.4908 -1.51405 0
M  V30 2691 H 254.427 -3.87156 0.270527 0
M  V30 2692 H 252.528 -3.09766 -2.07064 0
M  V30 2693 H 252.641 -4.67632 -1.04197 0
M  V30 2694 H 251.005 -2.46319 -0.647983 0
M  V30 2695 H 251.788 -3.34511 0.77182 0
M  V30 2696 N 254.233 0.115231 -1.57178 0
M  V30 2697 C 255.143 1.15994 -2.03918 0
M  V30 2698 C 256.159 1.45103 -0.960268 0
M  V30 2699 O 257.335 1.56144 -1.27204 0
M  V30 2700 C 254.4 2.46568 -2.43732 0
M  V30 2701 C 253.461 2.24822 -3.65723 0
M  V30 2702 C 252.694 3.4917 -4.03629 0
M  V30 2703 O 252.917 4.56623 -3.41835 0
M  V30 2704 O 251.851 3.39949 -4.96708 0
M  V30 2705 H 255.677 0.793019 -2.93164 0
M  V30 2706 H 253.262 0.3263 -1.45793 0
M  V30 2707 H 255.144 3.23492 -2.70057 0
M  V30 2708 H 253.819 2.82726 -1.57631 0
M  V30 2709 H 252.726 1.45744 -3.44542 0
M  V30 2710 H 254.059 1.93566 -4.52541 0
M  V30 2711 N 255.711 1.52812 0.385517 0
M  V30 2712 C 256.941 1.71658 1.14966 0
M  V30 2713 C 257.349 0.436253 1.84102 0
M  V30 2714 O 256.692 -0.599313 1.73649 0
M  V30 2715 C 256.754 2.81309 2.23843 0
M  V30 2716 C 256.418 4.22313 1.74644 0
M  V30 2717 C 257.415 5.05352 1.22129 0
M  V30 2718 C 255.1 4.68648 1.80761 0
M  V30 2719 C 257.094 6.32807 0.763838 0
M  V30 2720 C 254.781 5.96086 1.34627 0
M  V30 2721 C 255.779 6.77996 0.825264 0
M  V30 2722 O 255.467 8.03045 0.370669 0
M  V30 2723 H 255.199 0.578022 0.350523 0
M  V30 2724 H 257.753 2.00263 0.456509 0
M  V30 2725 H 255.983 2.48133 2.96592 0
M  V30 2726 H 257.672 2.88524 2.85497 0
M  V30 2727 H 258.438 4.70736 1.16758 0
M  V30 2728 H 254.317 4.04979 2.20256 0
M  V30 2729 H 257.861 6.96689 0.356494 0
M  V30 2730 H 253.758 6.30205 1.39686 0
M  V30 2731 H 254.526 8.17021 0.491829 0
M  V30 2732 N 257.189 -0.644168 1.43834 0
M  V30 2733 C 258.605 -0.960875 1.27434 0
M  V30 2734 C 258.805 -2.00499 0.200618 0
M  V30 2735 O 257.861 -2.49018 -0.417906 0
M  V30 2736 C 259.174 -1.43653 2.64167 0
M  V30 2737 C 260.722 -1.55271 2.71772 0
M  V30 2738 C 261.197 -2.06224 4.08944 0
M  V30 2739 N 262.688 -2.13513 4.11055 0
M  V30 2740 C 263.423 -2.54081 5.14033 0
M  V30 2741 N 262.919 -2.9388 6.27381 0
M  V30 2742 N 264.712 -2.54101 5.01387 0
M  V30 2743 H 256.863 0.0465779 2.12349 0
M  V30 2744 H 259.126 -0.0417638 0.94708 0
M  V30 2745 H 258.832 -0.743706 3.43747 0
M  V30 2746 H 258.706 -2.40993 2.90176 0
M  V30 2747 H 261.093 -2.23653 1.92519 0
M  V30 2748 H 261.174 -0.563395 2.49519 0
M  V30 2749 H 260.818 -1.38441 4.88668 0
M  V30 2750 H 260.748 -3.06003 4.28567 0
M  V30 2751 H 263.239 -1.85493 3.29242 0
M  V30 2752 H 263.552 -3.2361 7.01781 0
M  V30 2753 H 261.897 -2.91663 6.30839 0
M  V30 2754 H 265.088 -2.22391 4.11898 0
M  V30 2755 H 265.261 -2.85394 5.81768 0
M  V30 2756 N 258.668 -1.30515 -0.883378 0
M  V30 2757 C 260.079 -1.17509 -1.45081 0
M  V30 2758 C 260.43 0.223605 -1.94922 0
M  V30 2759 O 259.555 1.12041 -1.85137 0
M  V30 2760 C 260.15 -2.12715 -2.63701 0
M  V30 2761 C 258.709 -2.03682 -3.16529 0
M  V30 2762 C 257.856 -2.02706 -1.89224 0
M  V30 2763 H 260.807 -1.42762 -0.693165 0
M  V30 2764 H 260.828 -1.70891 -3.39965 0
M  V30 2765 H 260.34 -3.14505 -2.27395 0
M  V30 2766 H 258.441 -1.05039 -3.57488 0
M  V30 2767 H 258.554 -2.92146 -3.7972 0
M  V30 2768 H 256.918 -1.4753 -2.07622 0
M  V30 2769 H 257.701 -3.06229 -1.55174 0
M  V30 2770 N 260.146 1.09593 -1.13257 0
M  V30 2771 C 261.093 2.1618 -0.808381 0
M  V30 2772 C 262.063 1.64517 0.228754 0
M  V30 2773 O 263.248 1.9053 0.101381 0
M  V30 2774 C 260.388 3.43973 -0.278675 0
M  V30 2775 C 259.501 4.09545 -1.37466 0
M  V30 2776 C 258.636 5.25088 -0.803479 0
M  V30 2777 C 257.675 5.82579 -1.87799 0
M  V30 2778 N 256.812 6.89486 -1.32488 0
M  V30 2779 H 261.652 2.43254 -1.72138 0
M  V30 2780 H 259.189 1.19392 -0.859294 0
M  V30 2781 H 261.147 4.17174 0.0465583 0
M  V30 2782 H 259.777 3.17223 0.597459 0
M  V30 2783 H 258.829 3.34226 -1.81652 0
M  V30 2784 H 260.141 4.48307 -2.18684 0
M  V30 2785 H 259.295 6.05178 -0.429427 0
M  V30 2786 H 258.034 4.87684 0.0397956 0
M  V30 2787 H 257.039 5.01152 -2.26113 0
M  V30 2788 H 258.264 6.22045 -2.72463 0
M  V30 2789 H 256.21 6.54064 -0.503575 0
M  V30 2790 H 256.127 7.27007 -2.07355 0
M  V30 2791 H 257.395 7.73336 -0.978336 0
M  V30 2792 N 261.624 0.925811 1.2754 0
M  V30 2793 C 263.04 0.625767 1.46821 0
M  V30 2794 C 263.24 -0.825506 1.83814 0
M  V30 2795 O 262.296 -1.60356 1.95044 0
M  V30 2796 C 263.609 1.57402 2.56213 0
M  V30 2797 C 265.157 1.58204 2.70075 0
M  V30 2798 C 265.632 2.51721 3.82623 0
M  V30 2799 N 267.123 2.49917 3.89994 0
M  V30 2800 C 267.858 3.18968 4.76494 0
M  V30 2801 N 267.354 3.97391 5.67496 0
M  V30 2802 N 269.147 3.07996 4.70208 0
M  V30 2803 H 261.298 1.86409 1.01811 0
M  V30 2804 H 263.561 0.800213 0.508295 0
M  V30 2805 H 263.267 2.60925 2.35819 0
M  V30 2806 H 263.141 1.31428 3.53563 0
M  V30 2807 H 265.528 0.554124 2.89851 0
M  V30 2808 H 265.609 1.88226 1.73218 0
M  V30 2809 H 265.253 3.54622 3.63601 0
M  V30 2810 H 265.183 2.18996 4.78903 0
M  V30 2811 H 267.674 1.9296 3.24923 0
M  V30 2812 H 267.987 4.4707 6.30356 0
M  V30 2813 H 266.332 4.01495 5.67298 0
M  V30 2814 H 269.523 2.46223 3.9811 0
M  V30 2815 H 269.696 3.6208 5.37403 0
M  V30 2816 N 263.102 -1.41638 0.69111 0
M  V30 2817 C 264.513 -1.84346 0.295517 0
M  V30 2818 C 264.864 -1.57833 -1.16547 0
M  V30 2819 O 263.989 -1.04648 -1.89414 0
M  V30 2820 C 264.584 -3.34636 0.529575 0
M  V30 2821 C 263.143 -3.7593 0.187944 0
M  V30 2822 C 262.29 -2.65082 0.814052 0
M  V30 2823 H 265.241 -1.31253 0.892092 0
M  V30 2824 H 265.262 -3.79903 -0.213148 0
M  V30 2825 H 264.774 -3.53901 1.59297 0
M  V30 2826 H 262.875 -3.62268 -0.871367 0
M  V30 2827 H 262.988 -4.74808 0.63985 0
M  V30 2828 H 261.352 -2.53528 0.244017 0
M  V30 2829 H 262.135 -2.87167 1.88123 0
M  V30 2830 N 264.58 -0.43555 -1.51462 0
M  V30 2831 C 265.543 0.365137 -2.26273 0
M  V30 2832 C 266.543 0.951227 -1.29647 0
M  V30 2833 O 267.733 0.825958 -1.53374 0
M  V30 2834 C 264.865 1.51645 -3.05314 0
M  V30 2835 H 266.058 -0.290474 -2.9849 0
M  V30 2836 H 263.611 -0.188676 -1.55157 0
M  V30 2837 H 264.346 2.20816 -2.3751 0
M  V30 2838 H 264.131 1.10238 -3.76284 0
M  V30 2839 H 265.621 2.08218 -3.61987 0
M  V30 2840 N 266.058 1.56714 -0.166846 0
M  V30 2841 C 267.006 2.19056 0.782123 0
M  V30 2842 C 268 1.15328 1.24079 0
M  V30 2843 O 269.206 1.33537 1.20697 0
M  V30 2844 H 265.581 0.70167 0.270486 0
M  V30 2845 H 267.552 2.97494 0.232322 0
M  V30 2846 C 266.301 2.84206 2.00306 0
M  V30 2847 H 265.624 3.63748 1.65914 0
M  V30 2848 H 267.064 3.31302 2.64604 0
M  V30 2849 C 265.523 1.83744 2.82382 0
M  V30 2850 O 266.053 1.32014 3.79388 0
M  V30 2851 N 264.259 1.52601 2.47308 0
M  V30 2852 H 263.806 1.9486 1.68485 0
M  V30 2853 H 263.764 0.856351 3.02513 0
M  V30 2854 N 267.536 -0.106894 1.57237 0
M  V30 2855 C 268.468 -1.15646 1.97885 0
M  V30 2856 C 269.481 -1.36981 0.879779 0
M  V30 2857 O 270.67 -1.35841 1.15799 0
M  V30 2858 C 267.77 -2.51425 2.27241 0
M  V30 2859 C 266.943 -2.50529 3.58545 0
M  V30 2860 C 266.002 -3.68145 3.75973 0
M  V30 2861 O 265.028 -3.51176 4.47956 0
M  V30 2862 N 266.23 -4.87177 3.15656 0
M  V30 2863 H 268.995 -0.81059 2.8853 0
M  V30 2864 H 266.556 -0.296024 1.59171 0
M  V30 2865 H 268.548 -3.28689 2.36105 0
M  V30 2866 H 267.118 -2.78147 1.42663 0
M  V30 2867 H 266.338 -1.58894 3.60758 0
M  V30 2868 H 267.626 -2.46997 4.44826 0
M  V30 2869 H 267.024 -5.03868 2.57165 0
M  V30 2870 H 265.581 -5.62075 3.30023 0
M  V30 2871 N 269.014 -1.53014 -0.377408 0
M  V30 2872 C 270.261 -1.68623 -1.12128 0
M  V30 2873 C 270.589 -0.431997 -1.89642 0
M  V30 2874 O 269.844 0.585855 -1.86725 0
M  V30 2875 C 270.143 -2.87982 -2.11663 0
M  V30 2876 C 269.809 -4.24964 -1.50719 0
M  V30 2877 C 268.471 -4.62217 -1.33825 0
M  V30 2878 C 270.823 -5.10199 -1.06519 0
M  V30 2879 C 268.151 -5.82352 -0.712963 0
M  V30 2880 C 270.503 -6.30969 -0.453955 0
M  V30 2881 C 269.167 -6.66944 -0.272411 0
M  V30 2882 H 268.437 -0.617034 -0.410305 0
M  V30 2883 H 271.084 -1.8718 -0.404484 0
M  V30 2884 H 269.389 -2.63889 -2.89603 0
M  V30 2885 H 271.086 -2.97253 -2.6915 0
M  V30 2886 H 267.676 -3.95626 -1.64858 0
M  V30 2887 H 271.86 -4.81978 -1.18368 0
M  V30 2888 H 267.116 -6.08824 -0.560611 0
M  V30 2889 H 271.29 -6.96324 -0.103217 0
M  V30 2890 H 268.917 -7.59898 0.214181 0
M  V30 2891 N 270.492 0.636531 -1.44174 0
M  V30 2892 C 271.738 1.39826 -1.4689 0
M  V30 2893 C 272.071 1.93947 -0.0990585 0
M  V30 2894 O 271.346 1.73325 0.882544 0
M  V30 2895 C 271.629 2.56751 -2.5249 0
M  V30 2896 C 271.482 2.08014 -3.98811 0
M  V30 2897 C 272.801 3.58946 -2.54649 0
M  V30 2898 H 269.92 0.507075 -0.53483 0
M  V30 2899 H 272.562 0.720188 -1.75822 0
M  V30 2900 H 270.712 3.14597 -2.2795 0
M  V30 2901 H 272.384 1.5504 -4.34466 0
M  V30 2902 H 270.627 1.39242 -4.10846 0
M  V30 2903 H 271.298 2.92169 -4.68339 0
M  V30 2904 H 273.774 3.1089 -2.76563 0
M  V30 2905 H 272.65 4.38286 -3.3045 0
M  V30 2906 H 272.911 4.12655 -1.58646 0
M  V30 2907 N 271.97 1.30982 0.876444 0
M  V30 2908 C 273.381 1.18277 1.44456 0
M  V30 2909 C 273.732 -0.213265 1.95037 0
M  V30 2910 O 272.857 -1.11057 1.85729 0
M  V30 2911 C 273.452 2.1411 2.62569 0
M  V30 2912 C 272.011 2.05358 3.15444 0
M  V30 2913 C 271.158 2.03706 1.88146 0
M  V30 2914 H 274.109 1.43127 0.685584 0
M  V30 2915 H 274.13 1.72692 3.39054 0
M  V30 2916 H 273.642 3.15706 2.25724 0
M  V30 2917 H 271.743 1.06934 3.56926 0
M  V30 2918 H 271.856 2.94156 3.78166 0
M  V30 2919 H 270.22 1.48629 2.06837 0
M  V30 2920 H 271.003 3.07047 1.53547 0
M  V30 2921 N 273.449 -1.08991 1.13837 0
M  V30 2922 C 274.865 -1.33312 0.877506 0
M  V30 2923 C 275.065 -1.95587 -0.48456 0
M  V30 2924 O 274.121 -2.20509 -1.23013 0
M  V30 2925 C 275.434 -2.24045 2.0056 0
M  V30 2926 C 276.982 -2.37542 2.03821 0
M  V30 2927 C 277.457 -3.31614 3.15905 0
M  V30 2928 N 278.948 -3.39189 3.15445 0
M  V30 2929 C 279.683 -4.11992 3.98811 0
M  V30 2930 N 279.179 -4.87553 4.92203 0
M  V30 2931 N 280.972 -4.07762 3.86894 0
M  V30 2932 H 273.123 -0.669456 2.01574 0
M  V30 2933 H 275.386 -0.357482 0.878015 0
M  V30 2934 H 275.092 -1.85521 2.98789 0
M  V30 2935 H 274.966 -3.24466 1.92359 0
M  V30 2936 H 277.353 -2.75327 1.06202 0
M  V30 2937 H 277.434 -1.36884 2.16093 0
M  V30 2938 H 277.078 -2.94551 4.13766 0
M  V30 2939 H 277.008 -4.32186 3.0087 0
M  V30 2940 H 279.499 -2.85314 2.47799 0
M  V30 2941 H 279.812 -5.40549 5.52292 0
M  V30 2942 H 278.157 -4.86627 4.96205 0
M  V30 2943 H 281.348 -3.47833 3.13257 0
M  V30 2944 H 281.521 -4.64238 4.52092 0
M  V30 2945 N 274.927 -0.932562 -1.27047 0
M  V30 2946 C 275.857 -0.452902 -2.29066 0
M  V30 2947 C 276.838 0.489338 -1.62909 0
M  V30 2948 O 278.023 0.393046 -1.90181 0
M  V30 2949 C 275.153 0.290698 -3.46081 0
M  V30 2950 C 274.107 -0.564168 -4.24265 0
M  V30 2951 C 273.433 0.308886 -5.33807 0
M  V30 2952 C 274.733 -1.83112 -4.89149 0
M  V30 2953 H 276.427 -1.30552 -2.69437 0
M  V30 2954 H 273.973 -0.629201 -1.29526 0
M  V30 2955 H 275.926 0.637233 -4.16554 0
M  V30 2956 H 274.65 1.17738 -3.0464 0
M  V30 2957 H 273.309 -0.893477 -3.55545 0
M  V30 2958 H 272.957 1.19467 -4.88607 0
M  V30 2959 H 272.657 -0.259633 -5.87026 0
M  V30 2960 H 274.181 0.650884 -6.07121 0
M  V30 2961 H 275.595 -1.55236 -5.51883 0
M  V30 2962 H 273.992 -2.34353 -5.52448 0
M  V30 2963 H 275.062 -2.54772 -4.12576 0
M  V30 2964 N 276.405 1.4127 -0.698611 0
M  V30 2965 C 277.635 2.05205 -0.239644 0
M  V30 2966 C 278.043 1.52684 1.11733 0
M  V30 2967 O 277.386 0.671222 1.70998 0
M  V30 2968 C 277.448 3.59289 -0.123126 0
M  V30 2969 C 277.112 4.34619 -1.41263 0
M  V30 2970 C 278.109 4.63701 -2.35111 0
M  V30 2971 C 275.794 4.73837 -1.66684 0
M  V30 2972 C 277.788 5.30966 -3.52639 0
M  V30 2973 C 275.475 5.40837 -2.84498 0
M  V30 2974 C 276.473 5.69329 -3.77298 0
M  V30 2975 O 276.161 6.34949 -4.93047 0
M  V30 2976 H 275.893 0.66723 -0.108537 0
M  V30 2977 H 278.447 1.81974 -0.952602 0
M  V30 2978 H 276.677 3.81272 0.645628 0
M  V30 2979 H 278.366 4.04797 0.299056 0
M  V30 2980 H 279.132 4.33882 -2.16729 0
M  V30 2981 H 275.011 4.51039 -0.953135 0
M  V30 2982 H 278.555 5.53121 -4.25091 0
M  V30 2983 H 274.452 5.70075 -3.02795 0
M  V30 2984 H 275.22 6.53445 -4.92902 0
M  V30 2985 N 277.883 0.443576 1.51229 0
M  V30 2986 C 279.131 -0.120557 2.0174 0
M  V30 2987 C 279.452 -1.42665 1.32935 0
M  V30 2988 O 278.722 -1.9028 0.465866 0
M  V30 2989 H 277.302 -0.0475426 0.745486 0
M  V30 2990 H 279.964 0.587711 1.85828 0
M  V30 2991 H 279.06 -0.291972 3.10731 0
M  V30 2992 N 279.361 -1.56624 0.175154 0
M  V30 2993 C 280.608 -1.96999 -0.468811 0
M  V30 2994 C 280.936 -1.06129 -1.62994 0
M  V30 2995 O 280.191 -0.0961771 -1.95464 0
M  V30 2996 C 280.49 -3.43419 -0.989864 0
M  V30 2997 C 280.156 -4.50866 0.0557687 0
M  V30 2998 C 278.818 -4.79975 0.343134 0
M  V30 2999 C 281.17 -5.15551 0.765308 0
M  V30 3000 C 278.498 -5.71066 1.34536 0
M  V30 3001 C 280.85 -6.07724 1.75654 0
M  V30 3002 C 279.514 -6.35199 2.05132 0
M  V30 3003 H 278.784 -0.720869 -0.17155 0
M  V30 3004 H 281.431 -1.89616 0.267924 0
M  V30 3005 H 279.736 -3.47772 -1.80449 0
M  V30 3006 H 281.433 -3.72002 -1.49719 0
M  V30 3007 H 278.023 -4.28229 -0.178381 0
M  V30 3008 H 282.207 -4.9317 0.556513 0
M  V30 3009 H 277.463 -5.90635 1.57988 0
M  V30 3010 H 281.637 -6.56912 2.31169 0
M  V30 3011 H 279.264 -7.05584 2.8294 0
M  V30 3012 N 280.839 0.0985539 -1.57292 0
M  V30 3013 C 281.786 1.11981 -2.01814 0
M  V30 3014 C 282.756 1.39999 -0.89384 0
M  V30 3015 O 283.941 1.5152 -1.15958 0
M  V30 3016 C 281.081 2.43577 -2.44467 0
M  V30 3017 C 280.194 2.2232 -3.70402 0
M  V30 3018 C 279.329 3.4729 -4.01949 0
M  V30 3019 C 278.368 3.2128 -5.21005 0
M  V30 3020 N 277.505 4.38507 -5.48321 0
M  V30 3021 H 282.345 0.733149 -2.88841 0
M  V30 3022 H 279.882 0.350482 -1.42864 0
M  V30 3023 H 281.84 3.20373 -2.6724 0
M  V30 3024 H 280.47 2.80097 -1.60455 0
M  V30 3025 H 279.522 1.36343 -3.55126 0
M  V30 3026 H 280.834 1.99089 -4.57345 0
M  V30 3027 H 279.988 4.32495 -4.25479 0
M  V30 3028 H 278.727 3.73572 -3.13521 0
M  V30 3029 H 277.732 2.34468 -4.97298 0
M  V30 3030 H 278.957 2.96348 -6.11028 0
M  V30 3031 H 276.903 4.64871 -4.62851 0
M  V30 3032 H 276.82 4.18455 -6.29628 0
M  V30 3033 H 278.088 5.24787 -5.76385 0
M  V30 3034 N 282.317 1.53212 0.369288 0
M  V30 3035 C 283.566 1.68436 1.10961 0
M  V30 3036 C 283.879 0.440738 1.9057 0
M  V30 3037 O 285.085 0.473446 2.6734 0
M  V30 3038 C 283.541 2.97744 2.0218 0
M  V30 3039 C 283.149 4.29355 1.279 0
M  V30 3040 C 284.893 3.22334 2.76226 0
M  V30 3041 C 282.8 5.49755 2.17999 0
M  V30 3042 H 281.73 0.627568 0.41794 0
M  V30 3043 H 284.381 1.79713 0.370884 0
M  V30 3044 H 282.763 2.8026 2.79768 0
M  V30 3045 H 283.937 4.57458 0.554007 0
M  V30 3046 H 282.252 4.11179 0.657311 0
M  V30 3047 H 284.849 4.09471 3.43857 0
M  V30 3048 H 285.192 2.38238 3.41392 0
M  V30 3049 H 285.725 3.40475 2.05723 0
M  V30 3050 H 282.464 6.36318 1.57417 0
M  V30 3051 H 281.984 5.25937 2.88359 0
M  V30 3052 H 283.663 5.84401 2.77641 0
M  V30 3053 N 283.795 -0.628877 1.44509 0
M  V30 3054 C 284.745 -1.7345 1.47983 0
M  V30 3055 C 285.729 -1.5715 0.345373 0
M  V30 3056 O 286.921 -1.66848 0.590829 0
M  V30 3057 C 284.05 -3.12143 1.42904 0
M  V30 3058 C 283.136 -3.33906 2.61472 0
M  V30 3059 N 283.527 -3.26024 3.86706 0
M  V30 3060 C 281.825 -3.64709 2.56716 0
M  V30 3061 C 282.526 -3.48536 4.65722 0
M  V30 3062 N 281.502 -3.71517 3.96832 0
M  V30 3063 H 285.304 -1.65818 2.42655 0
M  V30 3064 H 282.818 -0.831419 1.39503 0
M  V30 3065 H 284.815 -3.91433 1.43476 0
M  V30 3066 H 283.475 -3.2094 0.492717 0
M  V30 3067 H 284.486 -3.04893 4.18641 0
M  V30 3068 H 281.163 -3.80473 1.71891 0
M  V30 3069 H 282.553 -3.48016 5.74747 0
M  V30 3070 N 285.273 -1.31445 -0.869486 0
M  V30 3071 C 286.684 -1.19042 -1.43826 0
M  V30 3072 C 287.035 0.202919 -1.95148 0
M  V30 3073 O 286.16 1.10071 -1.86315 0
M  V30 3074 C 286.755 -2.15499 -2.6143 0
M  V30 3075 C 285.314 -2.07028 -3.14351 0
M  V30 3076 C 284.461 -2.04701 -1.87063 0
M  V30 3077 H 287.412 -1.43489 -0.677984 0
M  V30 3078 H 287.433 -1.74488 -3.38134 0
M  V30 3079 H 286.945 -3.16899 -2.24046 0
M  V30 3080 H 285.046 -1.08825 -3.56354 0
M  V30 3081 H 285.159 -2.96157 -3.766 0
M  V30 3082 H 283.523 -1.49724 -2.06046 0
M  V30 3083 H 284.306 -3.07857 -1.51917 0
M  V30 3084 N 286.751 1.08385 -1.14413 0
M  V30 3085 C 287.684 2.14642 -0.774871 0
M  V30 3086 C 288.662 1.60761 0.243876 0
M  V30 3087 O 289.846 1.88031 0.132883 0
M  V30 3088 C 286.973 3.38366 -0.150491 0
M  V30 3089 C 286.019 4.10997 -1.13945 0
M  V30 3090 S 286.852 4.63797 -2.67679 0
M  V30 3091 C 288.008 5.90808 -2.06631 0
M  V30 3092 H 288.241 2.45633 -1.67487 0
M  V30 3093 H 285.774 1.20498 -0.96538 0
M  V30 3094 H 287.732 4.09996 0.203334 0
M  V30 3095 H 286.393 3.05572 0.72694 0
M  V30 3096 H 285.586 4.99783 -0.65059 0
M  V30 3097 H 285.188 3.4528 -1.43727 0
M  V30 3098 H 287.48 6.62411 -1.4219 0
M  V30 3099 H 288.423 6.4439 -2.93542 0
M  V30 3100 H 288.831 5.4383 -1.51357 0
M  V30 3101 N 288.23 0.939286 1.26551 0
M  V30 3102 C 289.193 0.451987 2.24699 0
M  V30 3103 C 290.193 -0.435869 1.5478 0
M  V30 3104 O 291.383 -0.235314 1.72603 0
M  V30 3105 C 288.515 -0.348801 3.39111 0
M  V30 3106 H 289.708 1.3193 2.69322 0
M  V30 3107 H 287.261 0.721072 1.38673 0
M  V30 3108 H 287.996 -1.23444 2.99887 0
M  V30 3109 H 287.781 0.287945 3.91041 0
M  V30 3110 H 289.271 -0.679726 4.12031 0
M  V30 3111 N 289.708 -1.40897 0.706093 0
M  V30 3112 C 290.938 -2.05075 0.250523 0
M  V30 3113 C 291.346 -1.53275 -1.10921 0
M  V30 3114 O 290.689 -0.680281 -1.7064 0
M  V30 3115 C 290.751 -3.59219 0.142178 0
M  V30 3116 C 290.415 -4.33864 1.43566 0
M  V30 3117 C 291.412 -4.62448 2.37566 0
M  V30 3118 C 289.097 -4.72946 1.69195 0
M  V30 3119 C 291.091 -5.29088 3.5545 0
M  V30 3120 C 288.778 -5.3932 2.87362 0
M  V30 3121 C 289.776 -5.6732 3.80312 0
M  V30 3122 O 289.464 -6.32325 4.96408 0
M  V30 3123 H 289.196 -0.666645 0.112074 0
M  V30 3124 H 291.75 -1.81467 0.962239 0
M  V30 3125 H 289.98 -3.81609 -0.6254 0
M  V30 3126 H 291.669 -4.0495 -0.277584 0
M  V30 3127 H 292.435 -4.32727 2.19027 0
M  V30 3128 H 288.314 -4.50527 0.977042 0
M  V30 3129 H 291.858 -5.50859 4.28018 0
M  V30 3130 H 287.755 -5.68461 3.05814 0
M  V30 3131 H 288.523 -6.50821 4.9636 0
M  V30 3132 N 291.186 -0.45159 -1.50991 0
M  V30 3133 C 292.118 0.388634 -2.25881 0
M  V30 3134 C 293.131 0.974041 -1.30446 0
M  V30 3135 O 294.32 0.865758 -1.56099 0
M  V30 3136 C 291.42 1.5571 -3.01011 0
M  V30 3137 C 290.593 1.08801 -4.23652 0
M  V30 3138 C 289.652 2.12825 -4.8124 0
M  V30 3139 O 288.678 1.71678 -5.42693 0
M  V30 3140 N 289.88 3.45453 -4.66522 0
M  V30 3141 H 292.645 -0.25329 -2.98628 0
M  V30 3142 H 290.206 -0.281268 -1.59438 0
M  V30 3143 H 292.198 2.24952 -3.3642 0
M  V30 3144 H 290.768 2.10409 -2.31186 0
M  V30 3145 H 289.988 0.22215 -3.93574 0
M  V30 3146 H 291.276 0.752213 -5.03209 0
M  V30 3147 H 290.674 3.81605 -4.17605 0
M  V30 3148 H 289.231 4.10549 -5.06254 0
M  V30 3149 N 292.664 1.56529 -0.183458 0
M  V30 3150 C 293.594 2.21549 0.737456 0
M  V30 3151 C 294.575 1.17489 1.23005 0
M  V30 3152 O 295.76 1.45959 1.281 0
M  V30 3153 C 292.89 2.86575 1.96194 0
M  V30 3154 C 291.844 3.96778 1.60473 0
M  V30 3155 C 291.17 4.48911 2.90487 0
M  V30 3156 C 292.47 5.15767 0.823497 0
M  V30 3157 H 294.164 2.98761 0.195453 0
M  V30 3158 H 291.71 1.43702 0.0925686 0
M  V30 3159 H 293.663 3.30739 2.61131 0
M  V30 3160 H 292.387 2.06749 2.52828 0
M  V30 3161 H 291.046 3.53286 0.978997 0
M  V30 3162 H 290.694 3.65862 3.45186 0
M  V30 3163 H 290.394 5.23265 2.67335 0
M  V30 3164 H 291.918 4.95771 3.56432 0
M  V30 3165 H 293.332 5.56549 1.37571 0
M  V30 3166 H 291.729 5.96114 0.690551 0
M  V30 3167 H 292.799 4.84574 -0.177782 0
M  V30 3168 N 294.142 -0.090211 1.57342 0
M  V30 3169 C 295.074 -1.13541 1.99101 0
M  V30 3170 C 296.087 -1.3604 0.894258 0
M  V30 3171 O 297.276 -1.34606 1.17233 0
M  V30 3172 C 294.376 -2.49001 2.29895 0
M  V30 3173 C 293.549 -2.46712 3.61182 0
M  V30 3174 C 292.608 -3.64136 3.79857 0
M  V30 3175 O 291.634 -3.46405 4.51655 0
M  V30 3176 N 292.836 -4.83802 3.20806 0
M  V30 3177 H 295.601 -0.779942 2.89373 0
M  V30 3178 H 293.162 -0.279125 1.59476 0
M  V30 3179 H 295.154 -3.26166 2.39578 0
M  V30 3180 H 293.724 -2.76619 1.45605 0
M  V30 3181 H 292.944 -1.55058 3.62423 0
M  V30 3182 H 294.232 -2.42265 4.4742 0
M  V30 3183 H 293.63 -5.01112 2.62494 0
M  V30 3184 H 292.187 -5.58543 3.35966 0
M  V30 3185 N 295.62 -1.53406 -0.361157 0
M  V30 3186 C 296.55 -1.83136 -1.44857 0
M  V30 3187 C 297.531 -0.685174 -1.5569 0
M  V30 3188 O 298.716 -0.93544 -1.70186 0
M  V30 3189 C 295.846 -2.02522 -2.82138 0
M  V30 3190 C 294.8 -3.18302 -2.86126 0
M  V30 3191 C 294.126 -3.22989 -4.26125 0
M  V30 3192 C 295.426 -4.56796 -2.53248 0
M  V30 3193 H 297.12 -2.74201 -1.20226 0
M  V30 3194 H 294.666 -1.31938 -0.576922 0
M  V30 3195 H 296.619 -2.21904 -3.58241 0
M  V30 3196 H 295.343 -1.08172 -3.08166 0
M  V30 3197 H 294.002 -2.98747 -2.12475 0
M  V30 3198 H 293.65 -2.26267 -4.49235 0
M  V30 3199 H 293.35 -4.00781 -4.29708 0
M  V30 3200 H 294.874 -3.44559 -5.04094 0
M  V30 3201 H 296.288 -4.7631 -3.19064 0
M  V30 3202 H 294.685 -5.36862 -2.68141 0
M  V30 3203 H 295.755 -4.61606 -1.48484 0
M  V30 3204 N 297.098 0.621204 -1.44841 0
M  V30 3205 C 298.03 1.74615 -1.48466 0
M  V30 3206 C 299.043 1.58377 -0.37691 0
M  V30 3207 O 300.232 1.66508 -0.643215 0
M  V30 3208 C 297.332 3.12459 -1.31236 0
M  V30 3209 C 296.505 3.55064 -2.55438 0
M  V30 3210 C 295.564 4.71821 -2.32963 0
M  V30 3211 O 294.59 4.79628 -3.06505 0
M  V30 3212 N 295.792 5.64186 -1.36654 0
M  V30 3213 H 298.557 1.71973 -2.45449 0
M  V30 3214 H 296.118 0.806077 -1.40407 0
M  V30 3215 H 298.11 3.88302 -1.14032 0
M  V30 3216 H 296.68 3.09686 -0.4258 0
M  V30 3217 H 295.9 2.69324 -2.87851 0
M  V30 3218 H 297.188 3.80284 -3.38026 0
M  V30 3219 H 296.586 5.6058 -0.759344 0
M  V30 3220 H 295.143 6.39618 -1.25425 0
M  V30 3221 N 298.576 1.31904 0.862503 0
M  V30 3222 C 299.539 1.20131 1.95195 0
M  V30 3223 C 300.539 0.126409 1.60302 0
M  V30 3224 O 301.729 0.376234 1.70089 0
M  V30 3225 C 298.861 0.845691 3.30244 0
M  V30 3226 H 300.054 2.16943 2.07064 0
M  V30 3227 H 297.607 1.15622 1.05172 0
M  V30 3228 H 298.342 -0.120957 3.24074 0
M  V30 3229 H 298.127 1.62276 3.56944 0
M  V30 3230 H 299.617 0.787418 4.10109 0
M  V30 3231 N 300.054 -1.07777 1.14986 0
M  V30 3232 C 301.017 -2.13041 0.845358 0
M  V30 3233 C 302.017 -1.60071 -0.152931 0
M  V30 3234 O 303.207 -1.74033 0.0761879 0
M  V30 3235 C 300.339 -3.39896 0.261383 0
M  V30 3236 H 301.532 -2.41485 1.77834 0
M  V30 3237 H 299.085 -1.23595 0.956757 0
M  V30 3238 H 299.82 -3.17091 -0.68 0
M  V30 3239 H 299.605 -3.79642 0.980514 0
M  V30 3240 H 301.095 -4.17548 0.0657687 0
M  V30 3241 N 301.532 -0.945985 -1.26051 0
M  V30 3242 C 302.757 -0.612525 -1.98149 0
M  V30 3243 C 303.182 0.806623 -1.69927 0
M  V30 3244 O 302.54 1.54411 -0.950108 0
M  V30 3245 C 302.588 -0.866981 -3.50023 0
M  V30 3246 O 301.692 0.0585333 -4.12358 0
M  V30 3247 H 301.033 -0.23379 -0.621481 0
M  V30 3248 H 303.563 -1.27023 -1.60395 0
M  V30 3249 H 303.573 -0.789792 -4.00283 0
M  V30 3250 H 302.248 -1.90135 -3.69894 0
M  V30 3251 H 300.825 -0.0701241 -3.72834 0
M  V30 3252 N 303.011 1.40521 -0.713556 0
M  V30 3253 C 303.959 2.32549 -0.0485227 0
M  V30 3254 C 304.953 1.51931 0.74922 0
M  V30 3255 O 306.159 1.67745 0.652816 0
M  V30 3256 H 302.534 0.751994 0.00311138 0
M  V30 3257 H 304.505 2.86291 -0.841443 0
M  V30 3258 C 303.254 3.36879 0.860687 0
M  V30 3259 H 302.577 3.98978 0.256246 0
M  V30 3260 H 304.017 4.03772 1.294 0
M  V30 3261 C 302.476 2.72197 1.9852 0
M  V30 3262 O 303.006 2.5837 3.07584 0
M  V30 3263 N 301.212 2.30612 1.76823 0
M  V30 3264 H 300.759 2.42059 0.881217 0
M  V30 3265 H 300.717 1.87672 2.52243 0
M  V30 3266 N 304.489 0.459591 1.5075 0
M  V30 3267 C 305.736 -0.0993495 2.02256 0
M  V30 3268 C 306.064 -1.40751 1.34237 0
M  V30 3269 O 305.319 -1.90379 0.453228 0
M  V30 3270 C 305.618 -0.342866 3.55752 0
M  V30 3271 C 305.284 0.88218 4.42186 0
M  V30 3272 C 303.946 1.21808 4.65528 0
M  V30 3273 C 306.298 1.69837 4.92752 0
M  V30 3274 C 303.626 2.37045 5.36681 0
M  V30 3275 C 305.978 2.84192 5.65171 0
M  V30 3276 C 304.642 3.1821 5.8677 0
M  V30 3277 H 303.912 -0.0363545 0.740108 0
M  V30 3278 H 306.559 0.611329 1.8148 0
M  V30 3279 H 304.864 -1.13567 3.7498 0
M  V30 3280 H 306.561 -0.789121 3.93159 0
M  V30 3281 H 303.151 0.610467 4.2423 0
M  V30 3282 H 307.335 1.45205 4.74583 0
M  V30 3283 H 302.591 2.63689 5.51614 0
M  V30 3284 H 306.765 3.4779 6.03337 0
M  V30 3285 H 304.392 4.07613 6.41682 0
M  V30 3286 N 305.967 -1.56429 0.191757 0
M  V30 3287 C 306.914 -2.18936 -0.730454 0
M  V30 3288 C 307.884 -1.13557 -1.21219 0
M  V30 3289 O 309.069 -1.41794 -1.27668 0
M  V30 3290 C 306.209 -2.85013 -1.9458 0
M  V30 3291 C 305.322 -4.04909 -1.50574 0
M  V30 3292 C 304.457 -4.58853 -2.67634 0
M  V30 3293 C 303.496 -5.71114 -2.20217 0
M  V30 3294 N 302.633 -6.19478 -3.30442 0
M  V30 3295 H 307.473 -2.97389 -0.190664 0
M  V30 3296 H 305.01 -1.46869 -0.0823694 0
M  V30 3297 H 306.968 -3.21492 -2.65893 0
M  V30 3298 H 305.598 -2.09129 -2.45896 0
M  V30 3299 H 304.65 -3.74115 -0.688605 0
M  V30 3300 H 305.962 -4.86113 -1.11784 0
M  V30 3301 H 305.116 -4.97619 -3.47074 0
M  V30 3302 H 303.855 -3.76749 -3.09696 0
M  V30 3303 H 302.86 -5.31879 -1.3923 0
M  V30 3304 H 304.085 -6.55033 -1.79189 0
M  V30 3305 H 302.031 -5.40297 -3.72041 0
M  V30 3306 H 301.948 -6.95725 -2.9581 0
M  V30 3307 H 303.216 -6.62898 -4.10106 0
M  V30 3308 N 307.445 0.0818655 -1.57387 0
M  V30 3309 C 308.67 0.799946 -1.91352 0
M  V30 3310 C 309.095 1.70833 -0.787258 0
M  V30 3311 O 308.453 1.79419 0.26048 0
M  V30 3312 C 308.501 1.57812 -3.24234 0
M  V30 3313 O 307.605 2.68806 -3.12757 0
M  V30 3314 H 306.946 0.21891 -0.626877 0
M  V30 3315 H 309.476 0.0531256 -2.04531 0
M  V30 3316 H 309.486 1.95952 -3.57864 0
M  V30 3317 H 308.161 0.911548 -4.05788 0
M  V30 3318 H 306.738 2.33597 -2.90666 0
M  V30 3319 N 308.923 1.53595 0.353017 0
M  V30 3320 C 310.334 1.61937 0.929153 0
M  V30 3321 C 310.685 0.494686 1.89861 0
M  V30 3322 O 309.81 -0.377017 2.1309 0
M  V30 3323 C 310.405 2.93526 1.69199 0
M  V30 3324 C 308.964 3.04161 2.21727 0
M  V30 3325 C 308.111 2.57322 1.03348 0
M  V30 3326 H 311.062 1.58155 0.131431 0
M  V30 3327 H 311.083 2.82034 2.55416 0
M  V30 3328 H 310.595 3.75362 0.986144 0
M  V30 3329 H 308.696 2.26938 2.95516 0
M  V30 3330 H 308.809 4.09465 2.48748 0
M  V30 3331 H 307.173 2.12499 1.40414 0
M  V30 3332 H 307.956 3.41588 0.342428 0
M  V30 3333 N 310.401 -0.613514 1.45168 0
M  V30 3334 C 311.647 -1.37471 1.49096 0
M  V30 3335 C 311.98 -1.93765 0.129901 0
M  V30 3336 O 311.255 -1.74707 -0.854858 0
M  V30 3337 C 311.538 -2.52701 2.56542 0
M  V30 3338 C 311.391 -2.01643 4.0207 0
M  V30 3339 C 312.71 -3.54849 2.60327 0
M  V30 3340 H 309.829 -0.498502 0.54283 0
M  V30 3341 H 312.471 -0.692125 1.76945 0
M  V30 3342 H 310.621 -3.10931 2.32926 0
M  V30 3343 H 312.293 -1.48108 4.36877 0
M  V30 3344 H 310.536 -1.32688 4.13009 0
M  V30 3345 H 311.207 -2.84681 4.72928 0
M  V30 3346 H 313.683 -3.0645 2.81474 0
M  V30 3347 H 312.559 -4.32973 3.37381 0
M  V30 3348 H 312.82 -4.10079 1.6519 0
M  V30 3349 N 311.879 -1.3236 -0.855495 0
M  V30 3350 C 312.826 -1.21225 -1.964 0
M  V30 3351 C 313.796 -0.0946204 -1.6583 0
M  V30 3352 O 314.981 -0.27002 -1.8888 0
M  V30 3353 C 312.121 -0.940419 -3.32039 0
M  V30 3354 C 311.234 -2.14276 -3.75113 0
M  V30 3355 C 310.369 -1.80648 -4.9954 0
M  V30 3356 C 309.408 -2.97208 -5.35102 0
M  V30 3357 N 308.545 -2.63678 -6.50706 0
M  V30 3358 H 313.385 -2.16042 -2.05255 0
M  V30 3359 H 310.922 -1.07451 -1.00463 0
M  V30 3360 H 312.88 -0.763311 -4.10158 0
M  V30 3361 H 311.51 -0.0290413 -3.22787 0
M  V30 3362 H 310.562 -2.43017 -2.92655 0
M  V30 3363 H 311.874 -3.01468 -3.97389 0
M  V30 3364 H 311.028 -1.59484 -5.85363 0
M  V30 3365 H 309.767 -0.906678 -4.79198 0
M  V30 3366 H 308.772 -3.19004 -4.47791 0
M  V30 3367 H 309.997 -3.87918 -5.57401 0
M  V30 3368 H 307.943 -1.76238 -6.31883 0
M  V30 3369 H 307.86 -3.444 -6.72997 0
M  V30 3370 H 309.128 -2.45942 -7.39684 0
M  V30 3371 N 313.357 1.07166 -1.15556 0
M  V30 3372 C 314.585 1.83514 -0.955519 0
M  V30 3373 C 315 1.82163 0.49621 0
M  V30 3374 O 314.357 1.23441 1.34419 0
M  V30 3375 C 314.408 3.30515 -1.46432 0
M  V30 3376 O 314.129 3.31937 -2.85918 0
M  V30 3377 C 315.63 4.23625 -1.30603 0
M  V30 3378 H 312.85 0.578926 -0.339244 0
M  V30 3379 H 315.394 1.35265 -1.53374 0
M  V30 3380 H 313.549 3.76106 -0.928584 0
M  V30 3381 H 313.963 4.23794 -3.09029 0
M  V30 3382 H 315.437 5.24831 -1.71047 0
M  V30 3383 H 315.914 4.38485 -0.250441 0
M  V30 3384 H 316.52 3.83871 -1.83094 0
M  V30 3385 N 314.835 0.952656 1.25548 0
M  V30 3386 C 316.084 0.602053 1.92505 0
M  V30 3387 C 316.397 -0.864663 1.75451 0
M  V30 3388 O 317.603 -1.32514 2.36965 0
M  V30 3389 C 316.059 1.02607 3.44963 0
M  V30 3390 C 315.667 2.51519 3.70732 0
M  V30 3391 C 317.411 0.747905 4.1786 0
M  V30 3392 C 315.318 2.87732 5.16686 0
M  V30 3393 H 314.248 0.22146 0.720744 0
M  V30 3394 H 316.899 1.15684 1.42441 0
M  V30 3395 H 315.281 0.399712 3.93978 0
M  V30 3396 H 316.455 3.19157 3.32378 0
M  V30 3397 H 314.77 2.76786 3.11092 0
M  V30 3398 H 317.367 0.994647 5.25367 0
M  V30 3399 H 317.71 -0.315629 4.15102 0
M  V30 3400 H 318.243 1.33452 3.74747 0
M  V30 3401 H 314.982 3.93095 5.24554 0
M  V30 3402 H 314.502 2.24765 5.56094 0
M  V30 3403 H 316.181 2.76817 5.84792 0
M  V30 3404 N 316.313 -1.40141 0.720998 0
M  V30 3405 C 317.729 -1.54632 0.395113 0
M  V30 3406 C 317.929 -1.69115 -1.09555 0
M  V30 3407 O 316.985 -1.68377 -1.88163 0
M  V30 3408 C 318.298 -2.77177 1.1659 0
M  V30 3409 C 319.846 -2.91 1.15274 0
M  V30 3410 C 320.321 -4.16465 1.90579 0
M  V30 3411 N 321.812 -4.23476 1.87675 0
M  V30 3412 C 322.547 -5.19475 2.42762 0
M  V30 3413 N 322.043 -6.21348 3.06428 0
M  V30 3414 N 323.836 -5.11592 2.32874 0
M  V30 3415 H 315.987 -1.28986 1.68749 0
M  V30 3416 H 318.25 -0.62412 0.713567 0
M  V30 3417 H 317.956 -2.72771 2.22011 0
M  V30 3418 H 317.83 -3.69442 0.76108 0
M  V30 3419 H 320.217 -2.94907 0.106702 0
M  V30 3420 H 320.298 -1.99838 1.59682 0
M  V30 3421 H 319.942 -4.1332 2.95176 0
M  V30 3422 H 319.872 -5.06646 1.43587 0
M  V30 3423 H 322.363 -3.50497 1.41281 0
M  V30 3424 H 322.676 -6.91034 3.45965 0
M  V30 3425 H 321.021 -6.21777 3.10514 0
M  V30 3426 H 324.212 -4.30936 1.82789 0
M  V30 3427 H 324.385 -5.86233 2.76106 0
M  V30 3428 O 317.83 -0.609464 -1.49559 0
M  V30 3429 H 318.521 -0.121877 -1.93316 0
M  V30 END ATOM
M  V30 BEGIN BOND
M  V30 END BOND
M  V30 END CTAB
M  END
$$$$
