drugbank_target|Q8NI60 Atypical kinase COQ8A, mitochondrial (DB12010)
 OpenBabel12092121133D

  0  0  0     0  0            999 V3000
M  V30 BEGIN CTAB
M  V30 COUNTS 10065 10178 0 0 0
M  V30 BEGIN ATOM
M  V30 1 H -0.908 1.98254 -0.117106 0
M  V30 2 N 0 1.576 0 0
M  V30 3 C 0.933 2.03868 1.02534 0
M  V30 4 C 1.911 0.928543 1.3348 0
M  V30 5 O 3.095 1.19667 1.45644 0
M  V30 6 C 0.222 2.43627 2.35294 0
M  V30 7 C -0.732 3.65373 2.2001 0
M  V30 8 S 0.101 5.13292 1.52614 0
M  V30 9 C 1.257 5.56322 2.86805 0
M  V30 10 H 1.49 2.90518 0.631377 0
M  V30 11 H -0.977 1.52953 0.210867 0
M  V30 12 H 0.981 2.67203 3.11629 0
M  V30 13 H -0.358 1.57376 2.7183 0
M  V30 14 H -1.165 3.90944 3.18086 0
M  V30 15 H -1.563 3.418 1.51819 0
M  V30 16 H 0.729 5.58782 3.83104 0
M  V30 17 H 1.672 6.56266 2.65933 0
M  V30 18 H 2.08 4.83886 2.90714 0
M  V30 19 N 1.4781 -0.272755 1.55222 0
M  V30 20 C 2.4411 -1.32041 1.87344 0
M  V30 21 C 3.4411 -1.42342 0.74803 0
M  V30 22 O 4.6311 -1.41488 1.0162 0
M  V30 23 C 1.7631 -2.70173 2.07893 0
M  V30 24 H 2.9561 -1.04789 2.80997 0
M  V30 25 H 0.5091 -0.51083 1.47717 0
M  V30 26 H 1.2441 -3.02605 1.16622 0
M  V30 27 H 1.0291 -2.64082 2.89833 0
M  V30 28 H 2.5191 -3.45869 2.34017 0
M  V30 29 N 2.9562 -1.48159 -0.537278 0
M  V30 30 C 3.9192 -1.61665 -1.62472 0
M  V30 31 C 4.9192 -0.490395 -1.5314 0
M  V30 32 O 6.1092 -0.755998 -1.5694 0
M  V30 33 C 3.2412 -1.57997 -3.02076 0
M  V30 34 H 4.4342 -2.58621 -1.51839 0
M  V30 35 H 1.9872 -1.36647 -0.758771 0
M  V30 36 H 2.7222 -0.624913 -3.18222 0
M  V30 37 H 2.5072 -2.39755 -3.10258 0
M  V30 38 H 3.9972 -1.70627 -3.81151 0
M  V30 39 N 4.4343 0.785586 -1.36625 0
M  V30 40 C 5.6833 1.53883 -1.30396 0
M  V30 41 C 5.9963 1.95271 0.113452 0
M  V30 42 O 7.2023 2.69858 0.298142 0
M  V30 43 C 5.6583 2.77808 -2.28802 0
M  V30 44 C 5.2663 2.43574 -3.75999 0
M  V30 45 C 7.0103 3.55783 -2.31558 0
M  V30 46 C 4.9173 3.63919 -4.66173 0
M  V30 47 H 3.8473 0.577678 -0.484566 0
M  V30 48 H 6.4983 0.861705 -1.62009 0
M  V30 49 H 4.8803 3.47339 -1.90188 0
M  V30 50 H 6.0543 1.81916 -4.23371 0
M  V30 51 H 4.3693 1.78803 -3.76056 0
M  V30 52 H 6.9663 4.45205 -2.96137 0
M  V30 53 H 7.3093 3.94644 -1.3252 0
M  V30 54 H 7.8423 2.93235 -2.68809 0
M  V30 55 H 4.5813 3.3015 -5.66287 0
M  V30 56 H 4.1013 4.2473 -4.23515 0
M  V30 57 H 5.7803 4.30901 -4.82632 0
M  V30 58 N 5.9124 1.20967 1.01018 0
M  V30 59 C 6.8424 0.988272 2.11555 0
M  V30 60 C 7.8234 -0.0849778 1.69888 0
M  V30 61 O 9.0084 0.0738202 1.9406 0
M  V30 62 C 6.1384 0.546528 3.42973 0
M  V30 63 C 5.0924 1.56375 3.9841 0
M  V30 64 C 4.4184 0.97842 5.25672 0
M  V30 65 C 5.7184 2.94922 4.31066 0
M  V30 66 H 7.4124 1.91276 2.30334 0
M  V30 67 H 4.9584 0.921073 1.1069 0
M  V30 68 H 6.9114 0.378839 4.19694 0
M  V30 69 H 5.6354 -0.413598 3.23971 0
M  V30 70 H 4.2944 1.71891 3.23804 0
M  V30 71 H 3.9424 0.0101688 5.02999 0
M  V30 72 H 3.6424 1.65784 5.63728 0
M  V30 73 H 5.1664 0.821939 6.05043 0
M  V30 74 H 6.5804 2.8288 4.9865 0
M  V30 75 H 4.9774 3.5983 4.80253 0
M  V30 76 H 6.0474 3.4616 3.39561 0
M  V30 77 N 7.3905 -1.2043 1.01659 0
M  V30 78 C 8.6385 -1.89423 0.704522 0
M  V30 79 C 8.9595 -1.79231 -0.768197 0
M  V30 80 O 8.2295 -1.1947 -1.55254 0
M  V30 81 H 6.8095 -0.701178 0.257602 0
M  V30 82 H 9.4715 -1.4626 1.28818 0
M  V30 83 H 8.5675 -2.96052 0.987916 0
M  V30 84 N 8.8686 -0.792821 -1.36206 0
M  V30 85 C 10.1456 -0.290627 -1.93429 0
M  V30 86 C 10.5256 1.21773 -1.72437 0
M  V30 87 O 9.8736 2.0108 -1.08531 0
M  V30 88 C 10.0836 -0.686973 -3.42172 0
M  V30 89 C 11.4316 -0.668643 -4.19302 0
M  V30 90 O 12.4556 -0.627658 -3.50626 0
M  V30 91 O 11.3146 -0.714597 -5.41808 0
M  V30 92 H 8.4086 -0.0727927 -0.82379 0
M  V30 93 H 10.9546 -0.875593 -1.45367 0
M  V30 94 H 9.7266 -1.72711 -3.51122 0
M  V30 95 H 9.3496 -0.0760733 -3.97527 0
M  V30 96 N 10.3467 1.47872 -0.545128 0
M  V30 97 C 11.5747 2.06889 -0.021084 0
M  V30 98 C 11.9897 1.39955 1.2672 0
M  V30 99 O 11.3467 0.492036 1.75742 0
M  V30 100 C 11.3977 3.60996 0.190817 0
M  V30 101 O 11.1187 4.25419 -1.04644 0
M  V30 102 C 12.6197 4.36849 0.753521 0
M  V30 103 H 9.8397 0.669785 -0.0403635 0
M  V30 104 H 12.3837 1.90049 -0.755095 0
M  V30 105 H 10.5387 3.77391 0.87492 0
M  V30 106 H 10.9527 5.17785 -0.836611 0
M  V30 107 H 12.4267 5.45399 0.851139 0
M  V30 108 H 12.9037 4.02306 1.762 0
M  V30 109 H 13.5097 4.25169 0.105503 0
M  V30 110 N 11.8248 0.280983 1.55075 0
M  V30 111 C 13.0738 -0.334784 1.98902 0
M  V30 112 C 13.3868 -1.56534 1.17288 0
M  V30 113 O 14.5928 -2.25443 1.51287 0
M  V30 114 C 13.0488 -0.646994 3.54037 0
M  V30 115 C 12.6568 0.564085 4.44435 0
M  V30 116 C 14.4008 -1.22506 4.06439 0
M  V30 117 C 12.3078 0.226137 5.90967 0
M  V30 118 H 11.2378 -0.128866 0.742906 0
M  V30 119 H 13.8888 0.386556 1.79382 0
M  V30 120 H 12.2708 -1.42739 3.6938 0
M  V30 121 H 13.4448 1.34082 4.40861 0
M  V30 122 H 11.7598 1.0594 4.02698 0
M  V30 123 H 14.3568 -1.49182 5.13468 0
M  V30 124 H 14.6998 -2.16085 3.55827 0
M  V30 125 H 15.2328 -0.50682 3.94558 0
M  V30 126 H 11.9718 1.12996 6.45687 0
M  V30 127 H 11.4918 -0.513717 5.97596 0
M  V30 128 H 13.1708 -0.179539 6.46751 0
M  V30 129 N 13.3029 -1.57598 0.00835791 0
M  V30 130 C 14.2359 -2.04409 -1.01451 0
M  V30 131 C 15.2139 -0.935609 -1.32985 0
M  V30 132 O 16.3979 -1.20437 -1.45007 0
M  V30 133 C 13.5249 -2.44872 -2.33999 0
M  V30 134 C 12.5709 -3.66535 -2.18069 0
M  V30 135 S 13.4039 -5.14095 -1.4989 0
M  V30 136 C 14.5599 -5.57835 -2.8385 0
M  V30 137 H 14.7929 -2.90849 -0.615961 0
M  V30 138 H 12.3259 -1.53063 -0.202752 0
M  V30 139 H 14.2839 -2.68852 -3.10208 0
M  V30 140 H 12.9449 -1.58815 -2.70992 0
M  V30 141 H 12.1379 -3.92626 -3.16008 0
M  V30 142 H 11.7399 -3.426 -1.50004 0
M  V30 143 H 14.0319 -5.60806 -3.80136 0
M  V30 144 H 14.9749 -6.57667 -2.62449 0
M  V30 145 H 15.3829 -4.85421 -2.88144 0
M  V30 146 N 14.781 0.264519 -1.55364 0
M  V30 147 C 16.027 0.99646 -1.76631 0
M  V30 148 C 16.36 1.85632 -0.570478 0
M  V30 149 O 15.635 1.89647 0.43175 0
M  V30 150 C 15.918 1.87187 -3.07625 0
M  V30 151 C 15.771 1.04138 -4.37579 0
M  V30 152 C 17.09 2.85749 -3.34717 0
M  V30 153 H 14.209 0.360841 -0.642622 0
M  V30 154 H 16.851 0.268218 -1.88097 0
M  V30 155 H 15.001 2.49279 -2.9798 0
M  V30 156 H 16.673 0.440517 -4.59192 0
M  V30 157 H 14.916 0.345115 -4.32425 0
M  V30 158 H 15.587 1.68729 -5.2558 0
M  V30 159 H 18.063 2.33793 -3.4421 0
M  V30 160 H 16.939 3.44136 -4.27623 0
M  V30 161 H 17.2 3.61311 -2.54768 0
M  V30 162 N 16.2591 1.48442 0.529413 0
M  V30 163 C 17.2221 1.62524 1.61612 0
M  V30 164 C 18.2221 0.498509 1.52877 0
M  V30 165 O 19.4121 0.76431 1.56537 0
M  V30 166 C 16.5441 1.59597 3.01233 0
M  V30 167 H 17.7371 2.59423 1.50465 0
M  V30 168 H 15.2901 1.37047 0.751514 0
M  V30 169 H 16.0251 0.641781 3.17886 0
M  V30 170 H 15.8101 2.41397 3.08982 0
M  V30 171 H 17.3001 1.72646 3.80241 0
M  V30 172 N 17.7372 -0.778329 1.37039 0
M  V30 173 C 18.6842 -1.89139 1.32269 0
M  V30 174 C 19.6542 -1.65017 0.189387 0
M  V30 175 O 20.8392 -1.87024 0.377693 0
M  V30 176 C 17.9792 -3.26112 1.12894 0
M  V30 177 C 17.0922 -3.62233 2.35396 0
M  V30 178 C 16.2272 -4.8838 2.08946 0
M  V30 179 C 15.2662 -5.17212 3.2735 0
M  V30 180 N 14.4032 -6.34546 3.00492 0
M  V30 181 H 19.2432 -1.92552 2.27437 0
M  V30 182 H 16.7802 -0.941473 1.13025 0
M  V30 183 H 18.7382 -4.05116 0.996835 0
M  V30 184 H 17.3682 -3.22091 0.213758 0
M  V30 185 H 16.4202 -2.78265 2.5937 0
M  V30 186 H 17.7322 -3.79481 3.23721 0
M  V30 187 H 16.8862 -5.75274 1.92729 0
M  V30 188 H 15.6252 -4.73222 1.17949 0
M  V30 189 H 14.6302 -4.28796 3.44113 0
M  V30 190 H 15.8552 -5.34283 4.19188 0
M  V30 191 H 13.8012 -6.20759 2.12118 0
M  V30 192 H 13.7182 -6.52179 3.82358 0
M  V30 193 H 14.9862 -7.24394 2.87879 0
M  V30 194 N 19.2153 -1.21501 -1.00376 0
M  V30 195 C 20.4633 -1.03095 -1.73827 0
M  V30 196 C 20.7843 0.436341 -1.90055 0
M  V30 197 O 20.0543 1.31466 -1.45236 0
M  V30 198 H 18.6343 -0.378487 -0.644016 0
M  V30 199 H 21.2963 -1.52831 -1.20949 0
M  V30 200 H 20.3923 -1.49991 -2.73695 0
M  V30 201 N 20.6934 1.19889 -1.02296 0
M  V30 202 C 21.6234 2.25141 -0.619174 0
M  V30 203 C 22.6044 1.66051 0.368915 0
M  V30 204 O 23.7894 1.92546 0.252941 0
M  V30 205 C 20.9194 3.4728 0.0368783 0
M  V30 206 C 19.8734 4.19005 -0.872865 0
M  V30 207 C 19.1994 5.34637 -0.0822402 0
M  V30 208 C 20.4994 4.74452 -2.18387 0
M  V30 209 H 22.1934 2.59171 -1.49903 0
M  V30 210 H 19.7394 1.24579 -0.722222 0
M  V30 211 H 21.6924 4.20098 0.330958 0
M  V30 212 H 20.4164 3.12433 0.95149 0
M  V30 213 H 19.0754 3.48061 -1.15105 0
M  V30 214 H 18.7234 4.96034 0.83422 0
M  V30 215 H 18.4234 5.83557 -0.688149 0
M  V30 216 H 19.9474 6.10255 0.205238 0
M  V30 217 H 21.3614 5.39055 -1.95172 0
M  V30 218 H 19.7584 5.33834 -2.74119 0
M  V30 219 H 20.8284 3.92844 -2.84257 0
M  V30 220 N 22.1715 0.800033 1.35784 0
M  V30 221 C 23.4175 0.377901 1.99248 0
M  V30 222 C 23.7505 -1.05052 1.63333 0
M  V30 223 O 23.0255 -1.72768 0.893385 0
M  V30 224 C 23.3085 0.553922 3.55814 0
M  V30 225 C 23.1615 2.0268 4.01548 0
M  V30 226 C 24.4805 -0.0244802 4.40093 0
M  V30 227 H 21.5995 0.138782 0.723815 0
M  V30 228 H 24.2415 1.00835 1.61035 0
M  V30 229 H 22.3915 0.0172398 3.88496 0
M  V30 230 H 24.0635 2.62536 3.79305 0
M  V30 231 H 22.3065 2.5256 3.52698 0
M  V30 232 H 22.9775 2.10087 5.10458 0
M  V30 233 H 25.4535 0.433775 4.13833 0
M  V30 234 H 24.3295 0.128637 5.48749 0
M  V30 235 H 24.5905 -1.11758 4.27741 0
M  V30 236 N 23.6496 -1.47581 0.552962 0
M  V30 237 C 24.5966 -2.29957 -0.197108 0
M  V30 238 C 25.5666 -1.38799 -0.912359 0
M  V30 239 O 26.7516 -1.67761 -0.908888 0
M  V30 240 C 23.8916 -3.22672 -1.22379 0
M  V30 241 C 23.0046 -4.28919 -0.515038 0
M  V30 242 C 22.1396 -5.0879 -1.52664 0
M  V30 243 C 21.1786 -6.06815 -0.802631 0
M  V30 244 N 20.3156 -6.7966 -1.76086 0
M  V30 245 H 25.1556 -2.93578 0.511486 0
M  V30 246 H 22.6926 -1.4471 0.264067 0
M  V30 247 H 24.6506 -3.74845 -1.83159 0
M  V30 248 H 23.2806 -2.60925 -1.90047 0
M  V30 249 H 22.3326 -3.79835 0.207192 0
M  V30 250 H 23.6446 -4.98773 0.0523425 0
M  V30 251 H 22.7986 -5.65091 -2.20809 0
M  V30 252 H 21.5376 -4.38828 -2.12794 0
M  V30 253 H 20.5426 -5.49695 -0.107238 0
M  V30 254 H 21.7676 -6.78784 -0.207135 0
M  V30 255 H 19.7136 -6.12432 -2.35081 0
M  V30 256 H 19.6306 -7.45669 -1.24552 0
M  V30 257 H 20.8986 -7.40538 -2.43359 0
M  V30 258 N 25.1277 -0.289203 -1.54924 0
M  V30 259 C 26.0577 0.58549 -2.2604 0
M  V30 260 C 27.0387 1.14753 -1.25562 0
M  V30 261 O 28.2237 1.17906 -1.54311 0
M  V30 262 C 25.3537 1.76305 -2.99222 0
M  V30 263 C 24.3077 1.33191 -4.06748 0
M  V30 264 C 23.6337 2.5937 -4.6758 0
M  V30 265 C 24.9337 0.471775 -5.20165 0
M  V30 266 H 26.6277 -0.00763532 -2.99399 0
M  V30 267 H 24.1737 -0.00511229 -1.43999 0
M  V30 268 H 26.1267 2.38097 -3.47689 0
M  V30 269 H 24.8507 2.38223 -2.23422 0
M  V30 270 H 23.5097 0.737121 -3.59113 0
M  V30 271 H 23.1577 3.19576 -3.88433 0
M  V30 272 H 22.8577 2.31228 -5.40192 0
M  V30 273 H 24.3817 3.21985 -5.18804 0
M  V30 274 H 25.7957 0.995056 -5.64599 0
M  V30 275 H 24.1927 0.284639 -5.99425 0
M  V30 276 H 25.2627 -0.506041 -4.82252 0
M  V30 277 N 26.6058 1.57591 -0.0167156 0
M  V30 278 C 27.8338 1.95575 0.675128 0
M  V30 279 C 28.2488 0.892542 1.6637 0
M  V30 280 O 27.6058 -0.126912 1.82058 0
M  V30 281 C 27.6568 3.33608 1.39239 0
M  V30 282 O 27.3778 4.3585 0.443444 0
M  V30 283 C 28.8788 3.86151 2.17721 0
M  V30 284 H 26.0988 0.644423 0.186978 0
M  V30 285 H 28.6428 2.0437 -0.0728 0
M  V30 286 H 26.7978 3.2607 2.09182 0
M  V30 287 H 27.2118 5.158 0.951358 0
M  V30 288 H 28.6858 4.85114 2.63379 0
M  V30 289 H 29.1628 3.19738 3.01105 0
M  V30 290 H 29.7688 3.96918 1.52761 0
M  V30 291 N 28.0839 -0.256276 1.55502 0
M  V30 292 C 29.0159 -1.33981 1.85962 0
M  V30 293 C 30.0289 -1.44743 0.745212 0
M  V30 294 O 31.2179 -1.4626 1.02324 0
M  V30 295 C 28.3179 -2.7194 2.02242 0
M  V30 296 C 27.4909 -2.83562 3.33033 0
M  V30 297 C 26.5499 -4.02304 3.39172 0
M  V30 298 O 25.5759 -3.92273 4.12444 0
M  V30 299 N 26.7779 -5.15045 2.67784 0
M  V30 300 H 29.5429 -1.08191 2.7949 0
M  V30 301 H 27.1039 -0.446388 1.55624 0
M  V30 302 H 29.0959 -3.49697 2.03701 0
M  V30 303 H 27.6659 -2.90479 1.15502 0
M  V30 304 H 26.8859 -1.92555 3.43971 0
M  V30 305 H 28.1739 -2.88271 4.19258 0
M  V30 306 H 27.5719 -5.26085 2.07968 0
M  V30 307 H 26.1289 -5.90972 2.74947 0
M  V30 308 N 29.562 -1.4872 -0.521534 0
M  V30 309 C 30.525 -1.63379 -1.60748 0
M  V30 310 C 31.525 -0.50661 -1.52611 0
M  V30 311 O 32.715 -0.772601 -1.5613 0
M  V30 312 C 29.847 -1.61192 -3.00383 0
M  V30 313 H 31.04 -2.60217 -1.49087 0
M  V30 314 H 28.593 -1.37444 -0.744235 0
M  V30 315 H 29.328 -0.65863 -3.17541 0
M  V30 316 H 29.113 -2.43032 -3.07698 0
M  V30 317 H 30.603 -1.7466 -3.7932 0
M  V30 318 N 31.0401 0.771051 -1.3745 0
M  V30 319 C 32.0031 1.86598 -1.33093 0
M  V30 320 C 33.0031 1.59076 -0.234845 0
M  V30 321 O 34.1931 1.67145 -0.490732 0
M  V30 322 C 31.3251 3.23747 -1.06773 0
M  V30 323 H 32.5181 1.91873 -2.30488 0
M  V30 324 H 30.0711 0.970876 -1.2249 0
M  V30 325 H 30.8061 3.24148 -0.099129 0
M  V30 326 H 30.5911 3.45115 -1.86112 0
M  V30 327 H 32.0811 4.03824 -1.06377 0
M  V30 328 N 32.5182 1.22032 0.997298 0
M  V30 329 C 33.7642 1.04376 1.73878 0
M  V30 330 C 34.0972 -0.420716 1.89588 0
M  V30 331 O 33.3722 -1.31202 1.43583 0
M  V30 332 C 33.6552 1.75047 3.14691 0
M  V30 333 C 33.5082 3.29062 3.06656 0
M  V30 334 C 34.8272 1.49928 4.13775 0
M  V30 335 H 31.9462 0.380578 0.631133 0
M  V30 336 H 34.5882 1.50312 1.16217 0
M  V30 337 H 32.7382 1.35996 3.63919 0
M  V30 338 H 34.4102 3.7753 2.65083 0
M  V30 339 H 32.6532 3.58967 2.43568 0
M  V30 340 H 33.3242 3.73683 4.06282 0
M  V30 341 H 35.8002 1.83842 3.73285 0
M  V30 342 H 34.6762 2.01878 5.10428 0
M  V30 343 H 34.9372 0.430929 4.39995 0
M  V30 344 N 33.9963 -1.19345 1.0293 0
M  V30 345 C 34.9063 -2.26245 0.620515 0
M  V30 346 C 35.9223 -1.70486 -0.347928 0
M  V30 347 O 37.0983 -2.00347 -0.205704 0
M  V30 348 C 34.1633 -3.46693 -0.0218957 0
M  V30 349 C 33.2243 -4.17632 0.994102 0
M  V30 350 C 32.4573 -5.32329 0.382253 0
M  V30 351 O 32.6803 -5.64552 -0.814676 0
M  V30 352 O 31.6143 -5.91664 1.10531 0
M  V30 353 H 35.4403 -2.63453 1.51083 0
M  V30 354 H 33.0253 -1.26207 0.799513 0
M  V30 355 H 34.9073 -4.19683 -0.380072 0
M  V30 356 H 33.5823 -3.11333 -0.886209 0
M  V30 357 H 32.4893 -3.4676 1.40387 0
M  V30 358 H 33.8223 -4.56964 1.8288 0
M  V30 359 N 35.4744 -0.807222 -1.35358 0
M  V30 360 C 36.7024 -0.400377 -2.02989 0
M  V30 361 C 37.1174 0.988859 -1.60832 0
M  V30 362 O 36.4744 1.63729 -0.806175 0
M  V30 363 C 36.5254 -0.474867 -3.58368 0
M  V30 364 O 36.2464 -1.80933 -3.98992 0
M  V30 365 C 37.7474 -0.0609112 -4.43258 0
M  V30 366 H 34.9674 -0.162587 -0.651004 0
M  V30 367 H 37.5114 -1.09102 -1.72965 0
M  V30 368 H 35.6664 0.167534 -3.87038 0
M  V30 369 H 36.0804 -1.77256 -4.9364 0
M  V30 370 H 37.5544 -0.164145 -5.51756 0
M  V30 371 H 38.0314 0.993831 -4.27808 0
M  V30 372 H 38.6374 -0.676492 -4.19885 0
M  V30 373 N 36.9525 1.47285 -0.560781 0
M  V30 374 C 37.9025 2.27073 0.205384 0
M  V30 375 C 38.8865 1.34569 0.882044 0
M  V30 376 O 40.0785 1.58899 0.77976 0
M  V30 377 C 37.2075 3.20414 1.23247 0
M  V30 378 C 36.2935 4.20399 0.559041 0
M  V30 379 N 36.6845 5.04423 -0.372927 0
M  V30 380 C 34.9825 4.38536 0.812522 0
M  V30 381 C 35.6835 5.76655 -0.764446 0
M  V30 382 N 34.6595 5.43471 -0.11848 0
M  V30 383 H 38.4615 2.89422 -0.511117 0
M  V30 384 H 35.9755 1.57868 -0.380975 0
M  V30 385 H 37.9725 3.76262 1.79534 0
M  V30 386 H 36.6325 2.59623 1.95002 0
M  V30 387 H 37.6435 5.1248 -0.747287 0
M  V30 388 H 34.3205 3.88913 1.51832 0
M  V30 389 H 35.7105 6.54238 -1.53045 0
M  V30 390 N 38.4306 0.297415 1.54768 0
M  V30 391 C 39.3606 -0.573494 2.26348 0
M  V30 392 C 40.3416 -1.14085 1.26169 0
M  V30 393 O 41.5266 -1.17086 1.54934 0
M  V30 394 C 38.6566 -1.74716 3.00153 0
M  V30 395 C 37.6106 -1.31032 4.07449 0
M  V30 396 C 36.9366 -2.56887 4.68949 0
M  V30 397 C 38.2366 -0.444183 5.20408 0
M  V30 398 H 39.9306 0.0235131 2.99391 0
M  V30 399 H 37.4766 0.0127488 1.43994 0
M  V30 400 H 39.4296 -2.3625 3.48947 0
M  V30 401 H 38.1536 -2.37035 2.24682 0
M  V30 402 H 36.8126 -0.718066 3.59499 0
M  V30 403 H 36.4606 -3.17512 3.90122 0
M  V30 404 H 36.1606 -2.2836 5.41411 0
M  V30 405 H 37.6846 -3.19229 5.20505 0
M  V30 406 H 39.0986 -0.9651 5.65118 0
M  V30 407 H 37.4956 -0.252846 5.99567 0
M  V30 408 H 38.5656 0.531609 4.81977 0
M  V30 409 N 39.9087 -1.5758 0.0250728 0
M  V30 410 C 40.8407 -2.06869 -0.986796 0
M  V30 411 C 41.8537 -0.991332 -1.29137 0
M  V30 412 O 43.0427 -1.26761 -1.25674 0
M  V30 413 C 40.1427 -2.47486 -2.31525 0
M  V30 414 C 39.3157 -3.78253 -2.19643 0
M  V30 415 C 38.3747 -4.05464 -3.35388 0
M  V30 416 O 37.4007 -4.75774 -3.12454 0
M  V30 417 N 38.6027 -3.55321 -4.59051 0
M  V30 418 H 41.3677 -2.94302 -0.566276 0
M  V30 419 H 38.9287 -1.6109 -0.161776 0
M  V30 420 H 40.9207 -2.62785 -3.07776 0
M  V30 421 H 39.4907 -1.65441 -2.65232 0
M  V30 422 H 38.7107 -3.7279 -1.28144 0
M  V30 423 H 39.9987 -4.63936 -2.08903 0
M  V30 424 H 39.3967 -2.98431 -4.80578 0
M  V30 425 H 37.9537 -3.75905 -5.32483 0
M  V30 426 N 41.3868 0.248026 -1.55636 0
M  V30 427 C 42.3368 1.30994 -1.86614 0
M  V30 428 C 43.3208 1.43543 -0.726918 0
M  V30 429 O 44.5128 1.46804 -0.988818 0
M  V30 430 C 41.6418 2.6656 -2.16335 0
M  V30 431 C 40.7278 2.58019 -3.36581 0
M  V30 432 N 41.1188 2.1911 -4.55878 0
M  V30 433 C 39.4168 2.89035 -3.39669 0
M  V30 434 C 40.1178 2.21174 -5.38012 0
M  V30 435 N 39.0938 2.60632 -4.77045 0
M  V30 436 H 42.8958 0.999583 -2.76379 0
M  V30 437 H 40.4098 0.456652 -1.55848 0
M  V30 438 H 42.4068 3.43194 -2.36692 0
M  V30 439 H 41.0668 2.98463 -1.27867 0
M  V30 440 H 42.0778 1.90672 -4.81523 0
M  V30 441 H 38.7548 3.25485 -2.61469 0
M  V30 442 H 40.1448 1.9344 -6.43452 0
M  V30 443 N 42.8649 1.48995 0.513639 0
M  V30 444 C 43.7949 1.67636 1.62544 0
M  V30 445 C 44.7759 0.525087 1.61793 0
M  V30 446 O 45.9609 0.759502 1.78732 0
M  V30 447 C 43.0909 1.73114 3.01079 0
M  V30 448 C 42.0449 2.87905 3.16693 0
M  V30 449 C 41.3709 2.78486 4.56453 0
M  V30 450 C 42.6709 4.29005 2.97913 0
M  V30 451 H 44.3649 2.60716 1.47198 0
M  V30 452 H 41.9109 1.25465 0.706714 0
M  V30 453 H 43.8639 1.84742 3.78746 0
M  V30 454 H 42.5879 0.766241 3.17484 0
M  V30 455 H 41.2469 2.75859 2.41448 0
M  V30 456 H 40.8949 1.7993 4.69717 0
M  V30 457 H 40.5949 3.55523 4.67843 0
M  V30 458 H 42.1189 2.92104 5.36197 0
M  V30 459 H 43.5329 4.41798 3.65359 0
M  V30 460 H 41.9299 5.07166 3.20785 0
M  V30 461 H 42.9999 4.44329 1.94165 0
M  V30 462 N 44.343 -0.763751 1.37857 0
M  V30 463 C 45.591 -1.51957 1.33243 0
M  V30 464 C 45.912 -1.94835 -0.0801709 0
M  V30 465 O 45.182 -1.66894 -1.02582 0
M  V30 466 H 43.762 -0.563626 0.49024 0
M  V30 467 H 46.424 -0.908504 1.7243 0
M  V30 468 H 45.52 -2.41523 1.97669 0
M  V30 469 N 45.8211 -1.22559 -0.990812 0
M  V30 470 C 47.0701 -1.04553 -1.72486 0
M  V30 471 C 47.3831 0.419349 -1.91052 0
M  V30 472 O 48.5891 0.719121 -2.61803 0
M  V30 473 C 47.0451 -1.82231 -3.10355 0
M  V30 474 C 46.6531 -3.32981 -2.99713 0
M  V30 475 C 48.3971 -1.7268 -3.87791 0
M  V30 476 C 46.3041 -4.03091 -4.32748 0
M  V30 477 H 45.2341 -0.387614 -0.646739 0
M  V30 478 H 47.8851 -1.46429 -1.10593 0
M  V30 479 H 46.2671 -1.33155 -3.72942 0
M  V30 480 H 47.4411 -3.89466 -2.46278 0
M  V30 481 H 45.7561 -3.43231 -2.35758 0
M  V30 482 H 48.3531 -2.22381 -4.86262 0
M  V30 483 H 48.6961 -0.687607 -4.10582 0
M  V30 484 H 49.2291 -2.1931 -3.31885 0
M  V30 485 H 45.9681 -5.07273 -4.15156 0
M  V30 486 H 45.4881 -3.51394 -4.86089 0
M  V30 487 H 47.1671 -4.08804 -5.01486 0
M  V30 488 N 47.2992 1.18797 -1.03562 0
M  V30 489 C 48.5472 1.88278 -0.734569 0
M  V30 490 C 48.8682 1.8043 0.739586 0
M  V30 491 O 48.1382 1.21925 1.53333 0
M  V30 492 H 46.7182 0.696991 -0.268725 0
M  V30 493 H 49.3802 1.44192 -1.31129 0
M  V30 494 H 48.4762 2.94443 -1.03489 0
M  V30 495 N 48.7773 0.814389 1.34928 0
M  V30 496 C 50.0253 0.397636 1.9815 0
M  V30 497 C 50.3463 -1.04069 1.64908 0
M  V30 498 O 49.6163 -1.72121 0.93548 0
M  V30 499 H 48.1963 0.144043 0.732981 0
M  V30 500 H 50.8583 1.04195 1.6471 0
M  V30 501 H 49.9543 0.509688 3.0791 0
M  V30 502 N 50.2554 -1.46986 0.568584 0
M  V30 503 C 51.1654 -2.33942 -0.17555 0
M  V30 504 C 52.1814 -1.48891 -0.90041 0
M  V30 505 O 53.3574 -1.81794 -0.86676 0
M  V30 506 C 50.4224 -3.25811 -1.18524 0
M  V30 507 C 49.4834 -4.26757 -0.466582 0
M  V30 508 C 48.7164 -5.14236 -1.42817 0
M  V30 509 O 48.9394 -5.04379 -2.66379 0
M  V30 510 O 47.8734 -5.94412 -0.946453 0
M  V30 511 H 51.6994 -2.98896 0.538036 0
M  V30 512 H 49.2844 -1.4573 0.329097 0
M  V30 513 H 51.1664 -3.82527 -1.76779 0
M  V30 514 H 49.8414 -2.63471 -1.88055 0
M  V30 515 H 48.7484 -3.73769 0.157451 0
M  V30 516 H 50.0814 -4.91843 0.187485 0
M  V30 517 N 51.7335 -0.305618 -1.54608 0
M  V30 518 C 52.6635 0.561482 -2.26649 0
M  V30 519 C 53.6445 1.13415 -1.26772 0
M  V30 520 O 54.8295 1.16262 -1.55553 0
M  V30 521 C 51.9595 1.73122 -3.01075 0
M  V30 522 C 50.9135 1.2887 -4.08138 0
M  V30 523 C 50.2395 2.54396 -4.70305 0
M  V30 524 C 51.5395 0.416578 -5.20636 0
M  V30 525 H 53.2335 -0.0393902 -2.99374 0
M  V30 526 H 50.7795 -0.020385 -1.43986 0
M  V30 527 H 52.7325 2.34396 -3.50195 0
M  V30 528 H 51.4565 2.3584 -2.25936 0
M  V30 529 H 50.1155 0.698991 -3.59875 0
M  V30 530 H 49.7635 3.15439 -3.918 0
M  V30 531 H 49.4635 2.25486 -5.42614 0
M  V30 532 H 50.9875 3.16464 -5.2219 0
M  V30 533 H 52.4015 0.935116 -5.65622 0
M  V30 534 H 50.7985 0.221046 -5.99693 0
M  V30 535 H 51.8685 -0.557162 -4.81688 0
M  V30 536 N 53.2116 1.57565 -0.0334293 0
M  V30 537 C 54.4606 1.91155 0.643639 0
M  V30 538 C 54.7736 0.91192 1.73042 0
M  V30 539 O 55.9796 1.13923 2.46442 0
M  V30 540 C 54.4356 3.39443 1.1961 0
M  V30 541 C 54.0436 4.47774 0.142381 0
M  V30 542 C 55.7876 3.82094 1.84944 0
M  V30 543 C 53.6946 5.87162 0.706727 0
M  V30 544 H 52.6246 0.713368 0.244176 0
M  V30 545 H 55.2756 1.8323 -0.0994323 0
M  V30 546 H 53.6576 3.42313 1.99092 0
M  V30 547 H 54.8316 4.56469 -0.630296 0
M  V30 548 H 53.1466 4.14352 -0.412446 0
M  V30 549 H 55.7436 4.83591 2.2813 0
M  V30 550 H 56.0866 3.17386 2.69392 0
M  V30 551 H 56.6196 3.81665 1.12145 0
M  V30 552 H 53.3586 6.55424 -0.0997178 0
M  V30 553 H 52.8786 5.82064 1.44779 0
M  V30 554 H 54.5576 6.35866 1.19514 0
M  V30 555 N 54.6897 -0.239769 1.55765 0
M  V30 556 C 55.6227 -1.32356 1.85895 0
M  V30 557 C 56.6007 -1.46053 0.714662 0
M  V30 558 O 57.7847 -1.62154 0.961157 0
M  V30 559 C 54.9117 -2.6962 2.04994 0
M  V30 560 C 53.9577 -2.73036 3.27648 0
M  V30 561 S 54.7907 -2.28929 4.84099 0
M  V30 562 C 55.9467 -3.68103 5.06212 0
M  V30 563 H 56.1797 -1.06601 2.77531 0
M  V30 564 H 53.7127 -0.441112 1.47965 0
M  V30 565 H 55.6707 -3.48653 2.16682 0
M  V30 566 H 54.3317 -2.92609 1.14188 0
M  V30 567 H 53.5247 -3.7386 3.38 0
M  V30 568 H 53.1267 -2.02052 3.14723 0
M  V30 569 H 55.4187 -4.63656 4.93993 0
M  V30 570 H 56.3617 -3.6268 6.08168 0
M  V30 571 H 56.7697 -3.60947 4.34025 0
M  V30 572 N 56.1678 -1.49265 -0.50573 0
M  V30 573 C 57.1308 -1.65075 -1.59006 0
M  V30 574 C 58.1308 -0.522768 -1.52065 0
M  V30 575 O 59.3208 -0.789117 -1.55302 0
M  V30 576 C 56.4528 -1.64369 -2.98656 0
M  V30 577 H 57.6458 -2.61784 -1.46319 0
M  V30 578 H 55.1988 -1.38226 -0.729616 0
M  V30 579 H 55.9338 -0.692272 -3.16825 0
M  V30 580 H 55.7188 -2.46282 -3.05103 0
M  V30 581 H 57.2088 -1.78674 -3.77446 0
M  V30 582 N 57.6459 0.756429 -1.3826 0
M  V30 583 C 58.6089 1.85176 -1.35065 0
M  V30 584 C 59.6089 1.58818 -0.251703 0
M  V30 585 O 60.7989 1.66615 -0.508433 0
M  V30 586 C 57.9309 3.22596 -1.10201 0
M  V30 587 H 59.1239 1.89417 -2.3251 0
M  V30 588 H 56.6769 0.95783 -1.23512 0
M  V30 589 H 57.4119 3.24025 -0.133504 0
M  V30 590 H 57.1969 3.43122 -1.89762 0
M  V30 591 H 58.6869 4.02673 -1.10654 0
M  V30 592 N 59.124 1.23083 0.984299 0
M  V30 593 C 60.54 0.992637 1.24975 0
M  V30 594 C 60.74 -0.308618 1.99123 0
M  V30 595 O 59.796 -1.02905 2.30579 0
M  V30 596 C 61.109 2.19698 2.05312 0
M  V30 597 C 62.657 2.24147 2.18465 0
M  V30 598 C 63.132 3.44157 3.02192 0
M  V30 599 N 64.623 3.44372 3.09777 0
M  V30 600 C 65.358 4.33886 3.74874 0
M  V30 601 N 64.854 5.3363 4.41827 0
M  V30 602 N 66.647 4.21639 3.71721 0
M  V30 603 H 58.798 2.06731 0.487453 0
M  V30 604 H 61.061 0.906339 0.277944 0
M  V30 605 H 60.767 3.1411 1.58201 0
M  V30 606 H 60.641 2.20465 3.06064 0
M  V30 607 H 63.028 1.30277 2.64786 0
M  V30 608 H 63.109 2.27415 1.17115 0
M  V30 609 H 62.753 4.38332 2.56568 0
M  V30 610 H 62.683 3.3813 4.03702 0
M  V30 611 H 65.174 2.72201 2.62135 0
M  V30 612 H 65.487 5.98196 4.89266 0
M  V30 613 H 63.832 5.37534 4.40548 0
M  V30 614 H 67.023 3.42962 3.18582 0
M  V30 615 H 67.196 4.91604 4.22173 0
M  V30 616 N 60.6021 -1.18246 1.0419 0
M  V30 617 C 61.5651 -2.20128 0.638452 0
M  V30 618 C 62.5651 -1.57885 -0.304805 0
M  V30 619 O 63.7551 -1.73967 -0.0900369 0
M  V30 620 C 60.8871 -3.4084 -0.0637751 0
M  V30 621 H 62.0801 -2.57336 1.54007 0
M  V30 622 H 59.6331 -1.32152 0.834598 0
M  V30 623 H 60.3681 -3.09166 -0.979136 0
M  V30 624 H 60.1531 -3.8726 0.614198 0
M  V30 625 H 61.6431 -4.16274 -0.332512 0
M  V30 626 N 62.0802 -0.821533 -1.34494 0
M  V30 627 C 63.0102 -0.257138 -2.3208 0
M  V30 628 C 63.9912 0.625645 -1.58176 0
M  V30 629 O 65.1762 0.552811 -1.86166 0
M  V30 630 C 62.3062 0.582958 -3.42372 0
M  V30 631 C 61.2602 -0.202571 -4.2752 0
M  V30 632 C 60.5862 0.760179 -5.29269 0
M  V30 633 C 61.8862 -1.40998 -5.02908 0
M  V30 634 H 63.5802 -1.07247 -2.79532 0
M  V30 635 H 61.1262 -0.517163 -1.34393 0
M  V30 636 H 63.0792 0.987972 -4.09655 0
M  V30 637 H 61.8032 1.43133 -2.93565 0
M  V30 638 H 60.4622 -0.588936 -3.61838 0
M  V30 639 H 60.1102 1.60447 -4.76724 0
M  V30 640 H 59.8102 0.238809 -5.87115 0
M  V30 641 H 61.3342 1.16308 -5.9942 0
M  V30 642 H 62.7482 -1.07905 -5.63054 0
M  V30 643 H 61.1452 -1.86689 -5.70322 0
M  V30 644 H 62.2152 -2.1889 -4.32684 0
M  V30 645 N 63.5583 1.46682 -0.576371 0
M  V30 646 C 64.4903 2.28341 0.198231 0
M  V30 647 C 65.5033 1.38141 0.861453 0
M  V30 648 O 66.6923 1.62797 0.732082 0
M  V30 649 C 63.7923 3.12986 1.29972 0
M  V30 650 C 62.9653 4.31271 0.729639 0
M  V30 651 C 62.0243 4.97363 1.71803 0
M  V30 652 O 61.0503 5.55156 1.25658 0
M  V30 653 N 62.2523 4.93796 3.05198 0
M  V30 654 H 65.0173 2.9546 -0.502324 0
M  V30 655 H 62.5783 1.56525 -0.413715 0
M  V30 656 H 64.5703 3.54066 1.96008 0
M  V30 657 H 63.1403 2.47984 1.90323 0
M  V30 658 H 62.3603 3.94052 -0.108012 0
M  V30 659 H 63.6483 5.07739 0.328438 0
M  V30 660 H 63.0463 4.48077 3.45317 0
M  V30 661 H 61.6033 5.38837 3.6674 0
M  V30 662 N 65.0364 0.313813 1.54444 0
M  V30 663 C 66.2614 -0.296681 2.05267 0
M  V30 664 C 66.6864 -1.45757 1.18897 0
M  V30 665 O 66.0444 -1.80239 0.195886 0
M  V30 666 C 66.0924 -0.71831 3.53373 0
M  V30 667 O 65.1964 -1.82175 3.69981 0
M  V30 668 H 64.5374 -0.0554061 0.661684 0
M  V30 669 H 67.0674 0.459387 1.99376 0
M  V30 670 H 67.0774 -1.00364 3.95463 0
M  V30 671 H 65.7524 0.130821 4.15694 0
M  V30 672 H 64.3294 -1.53598 3.39797 0
M  V30 673 N 66.5145 -1.57545 0.0417849 0
M  V30 674 C 67.7425 -1.96624 -0.643928 0
M  V30 675 C 68.1575 -0.918897 -1.64929 0
M  V30 676 O 67.5145 0.0979323 -1.82237 0
M  V30 677 C 67.5655 -3.35781 -1.33914 0
M  V30 678 O 67.2865 -4.365 -0.374048 0
M  V30 679 C 68.7875 -3.89566 -2.1155 0
M  V30 680 H 66.0075 -0.647316 -0.176702 0
M  V30 681 H 68.5515 -2.04229 0.105304 0
M  V30 682 H 66.7065 -3.29357 -2.03968 0
M  V30 683 H 67.1205 -5.17248 -0.869179 0
M  V30 684 H 68.5945 -4.89242 -2.55628 0
M  V30 685 H 69.0715 -3.24488 -2.9598 0
M  V30 686 H 69.6775 -3.99298 -1.46427 0
M  V30 687 N 67.9926 0.231505 -1.5589 0
M  V30 688 C 68.9556 1.27028 -1.90779 0
M  V30 689 C 69.9556 1.40308 -0.785507 0
M  V30 690 O 71.1456 1.38744 -1.05336 0
M  V30 691 C 68.2776 2.64566 -2.14983 0
M  V30 692 H 69.4706 0.973017 -2.83677 0
M  V30 693 H 67.0236 0.471486 -1.49019 0
M  V30 694 H 67.7586 2.99406 -1.24604 0
M  V30 695 H 67.5436 2.56305 -2.96732 0
M  V30 696 H 69.0336 3.39543 -2.43105 0
M  V30 697 N 69.4707 1.49531 0.497807 0
M  V30 698 C 70.7167 1.59415 1.25358 0
M  V30 699 C 71.0497 0.281422 1.9215 0
M  V30 700 O 70.3247 -0.715249 1.80871 0
M  V30 701 C 70.6077 2.75566 2.3181 0
M  V30 702 C 70.4607 4.16642 1.69498 0
M  V30 703 C 71.7797 2.87347 3.33346 0
M  V30 704 H 68.8987 0.580244 0.454408 0
M  V30 705 H 71.5407 1.81827 0.551262 0
M  V30 706 H 69.6907 2.56587 2.91711 0
M  V30 707 H 71.3627 4.47145 1.13399 0
M  V30 708 H 69.6057 4.22141 0.998978 0
M  V30 709 H 70.2767 4.93792 2.46725 0
M  V30 710 H 72.7527 3.04634 2.83438 0
M  V30 711 H 71.6287 3.70289 4.05188 0
M  V30 712 H 71.8897 1.96834 3.95865 0
M  V30 713 N 70.9488 -0.749086 1.3866 0
M  V30 714 C 71.8588 -1.89358 1.38494 0
M  V30 715 C 72.8748 -1.71708 0.281476 0
M  V30 716 O 74.0508 -1.94554 0.520643 0
M  V30 717 C 71.1158 -3.24782 1.21316 0
M  V30 718 C 70.1768 -3.54926 2.41508 0
M  V30 719 C 69.4098 -4.83888 2.2514 0
M  V30 720 O 69.6328 -5.56592 1.24746 0
M  V30 721 O 68.5668 -5.13612 3.13826 0
M  V30 722 H 72.3928 -1.92452 2.34938 0
M  V30 723 H 69.9778 -0.894981 1.19626 0
M  V30 724 H 71.8598 -4.05739 1.13814 0
M  V30 725 H 70.5348 -3.2249 0.279592 0
M  V30 726 H 69.4418 -2.74112 2.54585 0
M  V30 727 H 70.7748 -3.61983 3.3351 0
M  V30 728 N 72.4269 -1.23603 -0.977757 0
M  V30 729 C 73.3589 -0.977369 -2.07317 0
M  V30 730 C 74.3719 0.0495845 -1.62724 0
M  V30 731 O 75.5609 -0.186261 -1.77526 0
M  V30 732 C 72.6609 -0.451216 -3.35883 0
M  V30 733 C 71.8339 -1.53896 -4.09432 0
M  V30 734 C 70.8929 -1.01721 -5.16274 0
M  V30 735 O 69.9189 -1.70676 -5.43009 0
M  V30 736 N 71.1209 0.153594 -5.80297 0
M  V30 737 H 73.8859 -1.92047 -2.30082 0
M  V30 738 H 71.4469 -1.14497 -1.14465 0
M  V30 739 H 73.4389 -0.0871574 -4.04606 0
M  V30 740 H 72.0089 0.397368 -3.10064 0
M  V30 741 H 71.2289 -2.07566 -3.35127 0
M  V30 742 H 72.5169 -2.27037 -4.55337 0
M  V30 743 H 71.9149 0.730323 -5.60966 0
M  V30 744 H 70.4719 0.458892 -6.50183 0
M  V30 745 N 73.905 1.17692 -1.04816 0
M  V30 746 C 75.154 1.87192 -0.751132 0
M  V30 747 C 75.467 1.8169 0.724441 0
M  V30 748 O 76.673 2.46625 1.13527 0
M  V30 749 C 75.129 3.35857 -1.29338 0
M  V30 750 C 74.737 3.4987 -2.79812 0
M  V30 751 C 76.481 4.10709 -1.07322 0
M  V30 752 C 74.388 4.92536 -3.27356 0
M  V30 753 H 73.318 0.701162 -0.277288 0
M  V30 754 H 75.969 1.32932 -1.26496 0
M  V30 755 H 74.351 3.89631 -0.707376 0
M  V30 756 H 75.525 3.06332 -3.44235 0
M  V30 757 H 73.84 2.88433 -3.00325 0
M  V30 758 H 76.437 5.15952 -1.4035 0
M  V30 759 H 76.78 4.16299 -0.0108001 0
M  V30 760 H 77.313 3.6313 -1.62423 0
M  V30 761 H 74.052 4.92119 -4.33012 0
M  V30 762 H 73.572 5.3676 -2.67673 0
M  V30 763 H 75.251 5.61288 -3.21815 0
M  V30 764 N 75.3831 0.828654 1.34056 0
M  V30 765 C 76.6311 0.41863 1.97717 0
M  V30 766 C 76.9521 -1.02314 1.66002 0
M  V30 767 O 76.2221 -1.71119 0.953683 0
M  V30 768 H 74.8021 0.151809 0.731412 0
M  V30 769 H 77.4641 1.05936 1.63596 0
M  V30 770 H 76.5601 0.542318 3.07352 0
M  V30 771 N 76.8612 -1.46375 0.584142 0
M  V30 772 C 77.7942 -2.27351 -0.196676 0
M  V30 773 C 78.7722 -1.35715 -0.895561 0
M  V30 774 O 79.9562 -1.65126 -0.90916 0
M  V30 775 C 77.0832 -3.13486 -1.28235 0
M  V30 776 C 76.1292 -4.20896 -0.689145 0
M  V30 777 S 76.9622 -5.33299 0.48507 0
M  V30 778 C 78.1182 -6.23 -0.601767 0
M  V30 779 H 78.3512 -2.93228 0.490395 0
M  V30 780 H 75.8842 -1.49875 0.371071 0
M  V30 781 H 77.8422 -3.63676 -1.90395 0
M  V30 782 H 76.5032 -2.4692 -1.94138 0
M  V30 783 H 75.6962 -4.80997 -1.50527 0
M  V30 784 H 75.2982 -3.73726 -0.143181 0
M  V30 785 H 77.5902 -6.60979 -1.48705 0
M  V30 786 H 78.5332 -7.0809 -0.0374799 0
M  V30 787 H 78.9412 -5.57173 -0.906557 0
M  V30 788 N 78.3393 -0.321999 -1.54275 0
M  V30 789 C 79.5863 0.281044 -2.0054 0
M  V30 790 C 79.9143 1.52265 -1.21019 0
M  V30 791 O 79.1693 1.93687 -0.279982 0
M  V30 792 C 79.4683 0.661769 -3.5122 0
M  V30 793 C 79.1343 -0.480482 -4.48333 0
M  V30 794 C 77.7963 -0.794005 -4.74604 0
M  V30 795 C 80.1483 -1.24783 -5.06042 0
M  V30 796 C 77.4763 -1.87763 -5.55844 0
M  V30 797 C 79.8283 -2.32153 -5.88462 0
M  V30 798 C 78.4923 -2.64089 -6.13036 0
M  V30 799 H 77.7623 0.102841 -0.733829 0
M  V30 800 H 80.4093 -0.445453 -1.86247 0
M  V30 801 H 78.7143 1.46867 -3.63232 0
M  V30 802 H 80.4113 1.13989 -3.84457 0
M  V30 803 H 77.0013 -0.226039 -4.28004 0
M  V30 804 H 81.1853 -1.01887 -4.85729 0
M  V30 805 H 76.4413 -2.12954 -5.73115 0
M  V30 806 H 80.6153 -2.92057 -6.32199 0
M  V30 807 H 78.2423 -3.48185 -6.75775 0
M  V30 808 N 79.8174 1.5752 -0.0501392 0
M  V30 809 C 80.7474 2.14502 0.922566 0
M  V30 810 C 81.7284 1.06642 1.3252 0
M  V30 811 O 82.9134 1.34577 1.4001 0
M  V30 812 C 80.0434 2.68916 2.19776 0
M  V30 813 C 78.9974 3.8175 1.93523 0
M  V30 814 C 78.3234 4.22677 3.27487 0
M  V30 815 C 79.6234 5.06932 1.25765 0
M  V30 816 H 81.3174 2.9603 0.447952 0
M  V30 817 H 78.8634 1.42401 0.214024 0
M  V30 818 H 80.8164 3.07419 2.88222 0
M  V30 819 H 79.5404 1.84578 2.69441 0
M  V30 820 H 78.1994 3.43718 1.27489 0
M  V30 821 H 77.8474 3.35291 3.74952 0
M  V30 822 H 77.5474 4.98725 3.1072 0
M  V30 823 H 79.0714 4.63779 3.97166 0
M  V30 824 H 80.4854 5.42888 1.84244 0
M  V30 825 H 78.8824 5.88116 1.19328 0
M  V30 826 H 79.9524 4.84337 0.233536 0
M  V30 827 N 81.2955 -0.223234 1.56011 0
M  V30 828 C 82.5435 -0.946003 1.78592 0
M  V30 829 C 82.8645 -1.84936 0.618349 0
M  V30 830 O 82.1345 -1.92473 -0.364833 0
M  V30 831 H 80.7145 -0.352298 0.658707 0
M  V30 832 H 83.3765 -0.235494 1.93472 0
M  V30 833 H 82.4725 -1.55381 2.70672 0
M  V30 834 N 82.7736 -1.49793 -0.48987 0
M  V30 835 C 83.7206 -1.67281 -1.59014 0
M  V30 836 C 84.6906 -0.514177 -1.57941 0
M  V30 837 O 85.8756 -0.742533 -1.75759 0
M  V30 838 C 83.0156 -1.75569 -2.97102 0
M  V30 839 C 82.1286 -3.0281 -3.08107 0
M  V30 840 C 81.2636 -3.02008 -4.36995 0
M  V30 841 C 80.3026 -4.23782 -4.41673 0
M  V30 842 N 79.4396 -4.20826 -5.62005 0
M  V30 843 H 84.2796 -2.61224 -1.43409 0
M  V30 844 H 81.8166 -1.29508 -0.697565 0
M  V30 845 H 83.7746 -1.78354 -3.77155 0
M  V30 846 H 82.4046 -0.850827 -3.11385 0
M  V30 847 H 81.4566 -3.09584 -2.21047 0
M  V30 848 H 82.7686 -3.92801 -3.07423 0
M  V30 849 H 81.9226 -3.03418 -5.25378 0
M  V30 850 H 80.6616 -2.09815 -4.4026 0
M  V30 851 H 79.6666 -4.22604 -3.5169 0
M  V30 852 H 80.8916 -5.17181 -4.40115 0
M  V30 853 H 78.8376 -3.31476 -5.66091 0
M  V30 854 H 78.7546 -5.04564 -5.62984 0
M  V30 855 H 80.0226 -4.26355 -6.52565 0
M  V30 856 N 84.2517 0.741722 -1.39055 0
M  V30 857 C 85.4977 1.50336 -1.36113 0
M  V30 858 C 85.8307 1.94148 0.0450796 0
M  V30 859 O 85.1057 1.66301 1.00868 0
M  V30 860 C 85.3887 2.74773 -2.32749 0
M  V30 861 C 85.2417 2.37023 -3.82283 0
M  V30 862 C 86.5607 3.76846 -2.27322 0
M  V30 863 H 83.6797 0.545351 -0.495743 0
M  V30 864 H 86.3217 0.848624 -1.69995 0
M  V30 865 H 84.4717 3.30639 -2.03986 0
M  V30 866 H 86.1437 1.8684 -4.21768 0
M  V30 867 H 84.3867 1.69334 -3.99385 0
M  V30 868 H 85.0577 3.26104 -4.45376 0
M  V30 869 H 87.5337 3.30548 -2.5274 0
M  V30 870 H 86.4097 4.6159 -2.97028 0
M  V30 871 H 86.6707 4.23286 -1.27599 0
M  V30 872 N 85.7298 1.2412 0.971189 0
M  V30 873 C 86.6618 0.988349 2.06795 0
M  V30 874 C 87.6748 -0.0409541 1.62748 0
M  V30 875 O 88.8638 0.195673 1.77424 0
M  V30 876 C 85.9638 0.469023 3.35639 0
M  V30 877 C 85.1368 1.56065 4.08611 0
M  V30 878 C 84.1958 1.04458 5.15728 0
M  V30 879 O 83.2218 1.73553 5.42096 0
M  V30 880 N 84.4238 -0.122817 5.8037 0
M  V30 881 H 87.1888 1.93265 2.29061 0
M  V30 882 H 84.7498 1.15102 1.13856 0
M  V30 883 H 86.7418 0.108613 4.04554 0
M  V30 884 H 85.3118 -0.380919 3.1027 0
M  V30 885 H 84.5318 2.09341 3.34021 0
M  V30 886 H 85.8198 2.29449 4.54126 0
M  V30 887 H 85.2178 -0.700563 5.61345 0
M  V30 888 H 83.7748 -0.424404 6.50417 0
M  V30 889 N 87.2079 -1.17134 1.05439 0
M  V30 890 C 88.4559 -1.87085 0.764429 0
M  V30 891 C 88.7769 -1.81584 -0.710787 0
M  V30 892 O 88.0469 -1.24349 -1.51374 0
M  V30 893 H 86.6269 -0.692627 0.279779 0
M  V30 894 H 89.2889 -1.42087 1.33406 0
M  V30 895 H 88.3849 -2.92759 1.0816 0
M  V30 896 N 88.686 -0.835752 -1.33615 0
M  V30 897 C 89.618 -0.224151 -2.28101 0
M  V30 898 C 90.631 0.593331 -1.51603 0
M  V30 899 O 91.82 0.420911 -1.73466 0
M  V30 900 C 88.92 0.703309 -3.31522 0
M  V30 901 C 88.093 -0.0741528 -4.37337 0
M  V30 902 C 87.152 0.776176 -5.20444 0
M  V30 903 O 86.178 0.216506 -5.68788 0
M  V30 904 N 87.38 2.09401 -5.41416 0
M  V30 905 H 90.145 -1.03598 -2.81225 0
M  V30 906 H 87.706 -0.69392 -1.46275 0
M  V30 907 H 89.698 1.27707 -3.84022 0
M  V30 908 H 88.268 1.41585 -2.78698 0
M  V30 909 H 87.488 -0.82928 -3.85378 0
M  V30 910 H 88.776 -0.608863 -5.05144 0
M  V30 911 H 88.174 2.57229 -5.03835 0
M  V30 912 H 86.731 2.61633 -5.96985 0
M  V30 913 N 90.1641 1.46063 -0.591896 0
M  V30 914 C 91.4411 1.95595 -0.0137119 0
M  V30 915 C 91.8211 1.5345 1.4497 0
M  V30 916 O 91.1691 0.789543 2.14426 0
M  V30 917 C 91.3791 3.48453 -0.195373 0
M  V30 918 C 92.7271 4.24546 -0.0679765 0
M  V30 919 O 93.7511 3.55982 -0.124681 0
M  V30 920 O 92.6101 5.46467 0.0600579 0
M  V30 921 H 89.7041 0.825795 0.0446279 0
M  V30 922 H 92.2501 1.56303 -0.660859 0
M  V30 923 H 91.0221 3.72045 -1.21235 0
M  V30 924 H 90.6451 3.94597 0.487775 0
M  V30 925 N 91.6422 0.330177 1.54103 0
M  V30 926 C 92.5892 -0.532762 2.24567 0
M  V30 927 C 93.5592 -1.10635 1.23892 0
M  V30 928 O 94.7442 -1.14546 1.5259 0
M  V30 929 C 91.8842 -1.6845 3.01195 0
M  V30 930 C 90.9972 -1.13951 4.167 0
M  V30 931 C 90.1322 -2.25746 4.80845 0
M  V30 932 C 89.1712 -1.6853 5.88442 0
M  V30 933 N 88.3082 -2.74014 6.46421 0
M  V30 934 H 93.1482 0.0746905 2.97906 0
M  V30 935 H 90.6852 0.048632 1.4702 0
M  V30 936 H 92.6432 -2.36234 3.43874 0
M  V30 937 H 91.2732 -2.26314 2.30178 0
M  V30 938 H 90.3252 -0.35301 3.78758 0
M  V30 939 H 91.6372 -0.680892 4.94131 0
M  V30 940 H 90.7912 -3.01422 5.26526 0
M  V30 941 H 89.5302 -2.74947 4.0281 0
M  V30 942 H 88.5352 -0.913543 5.42157 0
M  V30 943 H 89.7602 -1.20198 6.68378 0
M  V30 944 H 87.7062 -3.22494 5.71256 0
M  V30 945 H 87.6232 -2.32735 7.19285 0
M  V30 946 H 88.8912 -3.49499 6.96757 0
M  V30 947 N 93.1203 -1.57491 0.0584922 0
M  V30 948 C 94.0703 -2.08474 -0.923188 0
M  V30 949 C 95.0543 -0.991479 -1.26722 0
M  V30 950 O 96.2463 -1.25473 -1.24842 0
M  V30 951 C 93.3753 -2.6392 -2.19548 0
M  V30 952 C 92.4613 -3.80227 -1.87852 0
M  V30 953 N 92.8523 -4.89714 -1.26546 0
M  V30 954 C 91.1503 -3.89271 -2.17679 0
M  V30 955 C 91.8513 -5.70689 -1.12644 0
M  V30 956 N 90.8273 -5.18531 -1.63176 0
M  V30 957 H 94.6293 -2.90517 -0.444653 0
M  V30 958 H 92.1433 -1.61745 -0.145764 0
M  V30 959 H 94.1403 -2.98752 -2.9078 0
M  V30 960 H 92.8003 -1.83318 -2.68001 0
M  V30 961 H 93.8113 -5.09358 -0.936757 0
M  V30 962 H 90.4883 -3.19623 -2.68602 0
M  V30 963 H 91.8783 -6.6875 -0.6499 0
M  V30 964 N 94.5984 0.214957 -1.56127 0
M  V30 965 C 95.5084 1.28727 -1.96129 0
M  V30 966 C 96.5244 1.50916 -0.866044 0
M  V30 967 O 97.7004 1.63918 -1.17016 0
M  V30 968 C 94.7654 2.61569 -2.27558 0
M  V30 969 C 93.8264 2.47625 -3.50685 0
M  V30 970 C 93.0594 3.74132 -3.80606 0
M  V30 971 O 93.2824 4.77438 -3.12104 0
M  V30 972 O 92.2164 3.70849 -4.74083 0
M  V30 973 H 96.0424 0.977855 -2.87527 0
M  V30 974 H 93.6274 0.418358 -1.43423 0
M  V30 975 H 95.5094 3.40012 -2.48938 0
M  V30 976 H 94.1844 2.92178 -1.39332 0
M  V30 977 H 93.0914 1.67361 -3.34576 0
M  V30 978 H 94.4244 2.21954 -4.39315 0
M  V30 979 N 96.0765 1.50051 0.48192 0
M  V30 980 C 96.9865 1.7089 1.60728 0
M  V30 981 C 98.0025 0.591788 1.63627 0
M  V30 982 O 99.1785 0.868817 1.81696 0
M  V30 983 C 96.2435 1.78855 2.97005 0
M  V30 984 C 95.3045 3.02537 3.04581 0
M  V30 985 C 94.5375 3.10112 4.34357 0
M  V30 986 O 94.7605 2.24765 5.24249 0
M  V30 987 O 93.6945 4.02747 4.47301 0
M  V30 988 H 97.5205 2.66264 1.46072 0
M  V30 989 H 95.1055 1.34018 0.660264 0
M  V30 990 H 96.9875 1.86336 3.77964 0
M  V30 991 H 95.6625 0.866628 3.11883 0
M  V30 992 H 94.5695 3.00563 2.22739 0
M  V30 993 H 95.9025 3.94272 2.94636 0
M  V30 994 N 97.5546 -0.734337 1.39446 0
M  V30 995 C 98.7846 -1.52137 1.39778 0
M  V30 996 C 99.1926 -1.89198 -0.00929312 0
M  V30 997 O 98.5356 -1.54666 -0.991168 0
M  V30 998 C 98.5976 -2.83762 2.20724 0
M  V30 999 C 98.2616 -2.69131 3.69347 0
M  V30 1000 C 99.2586 -2.37635 4.62413 0
M  V30 1001 C 96.9436 -2.85982 4.1294 0
M  V30 1002 C 98.9376 -2.23172 5.97054 0
M  V30 1003 C 96.6246 -2.71137 5.47657 0
M  V30 1004 C 97.6226 -2.39777 6.39528 0
M  V30 1005 O 97.3106 -2.25026 7.71763 0
M  V30 1006 H 97.0426 -0.476717 0.479288 0
M  V30 1007 H 99.5966 -0.915012 1.83893 0
M  V30 1008 H 97.8266 -3.4666 1.71359 0
M  V30 1009 H 99.5156 -3.45383 2.13226 0
M  V30 1010 H 100.282 -2.24267 4.30034 0
M  V30 1011 H 96.1606 -3.09383 3.41765 0
M  V30 1012 H 99.7046 -1.98617 6.68728 0
M  V30 1013 H 95.6016 -2.84083 5.79626 0
M  V30 1014 H 96.3696 -2.40091 7.82495 0
M  V30 1015 N 99.0327 -1.24633 -0.964593 0
M  V30 1016 C 100.28 -1.08788 -1.70796 0
M  V30 1017 C 100.608 0.372783 -1.90894 0
M  V30 1018 O 99.8627 1.29167 -1.47018 0
M  V30 1019 C 100.162 -1.7763 -3.10133 0
M  V30 1020 C 99.8277 -3.27557 -3.09866 0
M  V30 1021 C 98.4897 -3.6846 -3.09501 0
M  V30 1022 C 100.842 -4.23389 -3.03959 0
M  V30 1023 C 98.1697 -5.03624 -3.00965 0
M  V30 1024 C 100.522 -5.58565 -2.96965 0
M  V30 1025 C 99.1857 -5.98809 -2.9493 0
M  V30 1026 H 98.4557 -0.398084 -0.624988 0
M  V30 1027 H 101.103 -1.54777 -1.12767 0
M  V30 1028 H 99.4077 -1.24044 -3.71645 0
M  V30 1029 H 101.105 -1.62832 -3.66451 0
M  V30 1030 H 97.6947 -2.95006 -3.10917 0
M  V30 1031 H 101.879 -3.92787 -3.03368 0
M  V30 1032 H 97.1347 -5.33998 -2.97752 0
M  V30 1033 H 101.309 -6.32523 -2.91354 0
M  V30 1034 H 98.9357 -7.03505 -2.88071 0
M  V30 1035 N 100.511 1.16574 -1.06058 0
M  V30 1036 C 101.474 2.19085 -0.673392 0
M  V30 1037 C 102.474 1.5835 0.279648 0
M  V30 1038 O 103.664 1.74088 0.0623488 0
M  V30 1039 C 100.796 3.40899 0.00954234 0
M  V30 1040 H 101.989 2.54853 -1.58081 0
M  V30 1041 H 99.5418 1.30808 -0.855516 0
M  V30 1042 H 100.277 3.10684 0.929826 0
M  V30 1043 H 100.062 3.86233 -0.67573 0
M  V30 1044 H 101.552 4.1675 0.266245 0
M  V30 1045 N 101.989 0.842826 1.3317 0
M  V30 1046 C 102.899 0.281444 2.32906 0
M  V30 1047 C 103.915 -0.594587 1.63526 0
M  V30 1048 O 105.091 -0.49777 1.95152 0
M  V30 1049 C 102.156 -0.530929 3.42611 0
M  V30 1050 C 101.217 0.369843 4.27704 0
M  V30 1051 C 100.45 -0.403853 5.3217 0
M  V30 1052 O 100.673 -1.63513 5.46461 0
M  V30 1053 O 99.6069 0.224199 6.01482 0
M  V30 1054 H 103.433 1.10744 2.82789 0
M  V30 1055 H 101.018 0.60545 1.36582 0
M  V30 1056 H 102.9 -0.992437 4.09547 0
M  V30 1057 H 101.575 -1.33392 2.94938 0
M  V30 1058 H 100.482 0.879275 3.6362 0
M  V30 1059 H 101.815 1.13771 4.78871 0
M  V30 1060 N 103.467 -1.45747 0.599634 0
M  V30 1061 C 104.415 -2.322 -0.136426 0
M  V30 1062 C 105.409 -1.45497 -0.867583 0
M  V30 1063 O 106.615 -1.62027 -0.78405 0
M  V30 1064 H 102.99 -0.749368 -0.0628588 0
M  V30 1065 H 104.961 -2.92072 0.611281 0
M  V30 1066 C 103.71 -3.28974 -1.12567 0
M  V30 1067 H 103.033 -3.9568 -0.572484 0
M  V30 1068 H 104.473 -3.92212 -1.61077 0
M  V30 1069 C 102.932 -2.55561 -2.19523 0
M  V30 1070 O 103.462 -2.33111 -3.27143 0
M  V30 1071 N 101.668 -2.15832 -1.94589 0
M  V30 1072 H 101.215 -2.3429 -1.07078 0
M  V30 1073 H 101.173 -1.67034 -2.66359 0
M  V30 1074 N 104.945 -0.338344 -1.53925 0
M  V30 1075 C 106.192 0.259758 -2.00827 0
M  V30 1076 C 106.52 1.50973 -1.22628 0
M  V30 1077 O 105.775 1.93379 -0.300509 0
M  V30 1078 C 106.074 0.62448 -3.51902 0
M  V30 1079 C 105.74 -0.528006 -4.47798 0
M  V30 1080 C 104.402 -0.844298 -4.73735 0
M  V30 1081 C 106.754 -1.30143 -5.0469 0
M  V30 1082 C 104.082 -1.93648 -5.53821 0
M  V30 1083 C 106.434 -2.38382 -5.85967 0
M  V30 1084 C 105.098 -2.70576 -6.10201 0
M  V30 1085 H 104.368 0.0950523 -0.734878 0
M  V30 1086 H 107.015 -0.465182 -1.85764 0
M  V30 1087 H 105.32 1.43006 -3.64769 0
M  V30 1088 H 107.017 1.09905 -3.85645 0
M  V30 1089 H 103.607 -0.271421 -4.2774 0
M  V30 1090 H 107.791 -1.07033 -4.84621 0
M  V30 1091 H 103.047 -2.19021 -5.70824 0
M  V30 1092 H 107.221 -2.98746 -6.29066 0
M  V30 1093 H 104.848 -3.55333 -6.72044 0
M  V30 1094 N 106.423 1.57458 -0.0668435 0
M  V30 1095 C 107.671 1.92919 0.602214 0
M  V30 1096 C 107.992 0.947215 1.70449 0
M  V30 1097 O 107.262 -0.00544117 1.95899 0
M  V30 1098 H 105.842 0.71217 0.22544 0
M  V30 1099 H 108.504 1.94508 -0.123535 0
M  V30 1100 H 107.6 2.94589 1.03073 0
M  V30 1101 N 107.901 -0.206675 1.56239 0
M  V30 1102 C 109.149 -0.927007 1.79586 0
M  V30 1103 C 109.47 -1.8427 0.637929 0
M  V30 1104 O 108.74 -1.92849 -0.344398 0
M  V30 1105 H 107.32 -0.345292 0.662407 0
M  V30 1106 H 109.982 -0.21496 1.93711 0
M  V30 1107 H 109.078 -1.52501 2.72305 0
M  V30 1108 N 109.379 -1.50304 -0.473955 0
M  V30 1109 C 110.79 -1.54042 -1.0549 0
M  V30 1110 C 111.141 -0.342248 -1.93192 0
M  V30 1111 O 110.266 0.545157 -2.09421 0
M  V30 1112 C 110.861 -2.79152 -1.91989 0
M  V30 1113 C 109.42 -2.8558 -2.45196 0
M  V30 1114 C 108.567 -2.48295 -1.2347 0
M  V30 1115 H 111.518 -1.5661 -0.256693 0
M  V30 1116 H 111.539 -2.60845 -2.7702 0
M  V30 1117 H 111.051 -3.66339 -1.28131 0
M  V30 1118 H 109.152 -2.02738 -3.12615 0
M  V30 1119 H 109.265 -3.88403 -2.80499 0
M  V30 1120 H 107.629 -2.00669 -1.56856 0
M  V30 1121 H 108.412 -3.37787 -0.612789 0
M  V30 1122 N 110.857 0.726932 -1.39834 0
M  V30 1123 C 111.767 1.87131 -1.41489 0
M  V30 1124 C 112.783 1.71239 -0.308757 0
M  V30 1125 O 113.959 1.93701 -0.551529 0
M  V30 1126 C 111.024 3.22811 -1.26468 0
M  V30 1127 C 110.085 3.51039 -2.47124 0
M  V30 1128 C 109.318 4.80245 -2.3281 0
M  V30 1129 O 109.541 5.54537 -1.33585 0
M  V30 1130 O 108.475 5.08554 -3.21957 0
M  V30 1131 H 112.301 1.8869 -2.3797 0
M  V30 1132 H 109.886 0.875837 -1.21035 0
M  V30 1133 H 111.768 4.03877 -1.20255 0
M  V30 1134 H 110.443 3.22005 -0.330862 0
M  V30 1135 H 109.35 2.70027 -2.58914 0
M  V30 1136 H 110.683 3.56632 -3.39227 0
M  V30 1137 N 112.336 1.25143 0.95797 0
M  V30 1138 C 113.584 1.09476 1.69881 0
M  V30 1139 C 113.905 -0.365502 1.91544 0
M  V30 1140 O 113.175 -1.25985 1.50015 0
M  V30 1141 H 111.755 0.402128 0.629525 0
M  V30 1142 H 114.417 1.57214 1.15194 0
M  V30 1143 H 113.513 1.60046 2.6794 0
M  V30 1144 N 113.814 -1.1601 1.06675 0
M  V30 1145 C 114.724 -2.24156 0.692179 0
M  V30 1146 C 115.74 -1.71507 -0.293513 0
M  V30 1147 O 116.916 -2.009 -0.141861 0
M  V30 1148 C 113.981 -3.46587 0.0884131 0
M  V30 1149 C 113.042 -4.14257 1.12646 0
M  V30 1150 C 112.275 -5.30844 0.551416 0
M  V30 1151 O 112.498 -5.66858 -0.634656 0
M  V30 1152 O 111.432 -5.87848 1.29298 0
M  V30 1153 H 115.258 -2.58513 1.59388 0
M  V30 1154 H 112.843 -1.23599 0.83926 0
M  V30 1155 H 114.725 -4.20679 -0.246361 0
M  V30 1156 H 113.4 -3.13994 -0.786712 0
M  V30 1157 H 112.307 -3.42118 1.51348 0
M  V30 1158 H 113.64 -4.50914 1.97325 0
M  V30 1159 N 115.292 -0.849877 -1.32721 0
M  V30 1160 C 116.539 -0.450923 -1.97416 0
M  V30 1161 C 116.867 0.992376 -1.67279 0
M  V30 1162 O 116.122 1.71048 -0.950845 0
M  V30 1163 C 116.421 -0.631272 -3.51781 0
M  V30 1164 C 116.087 -2.04432 -4.01894 0
M  V30 1165 C 114.749 -2.4308 -4.1529 0
M  V30 1166 C 117.101 -2.96679 -4.28522 0
M  V30 1167 C 114.429 -3.73257 -4.52654 0
M  V30 1168 C 116.781 -4.26349 -4.67343 0
M  V30 1169 C 115.445 -4.64939 -4.78945 0
M  V30 1170 H 114.715 -0.165004 -0.722395 0
M  V30 1171 H 117.362 -1.07901 -1.58207 0
M  V30 1172 H 115.667 0.0800767 -3.91718 0
M  V30 1173 H 117.364 -0.302709 -3.99856 0
M  V30 1174 H 113.954 -1.73419 -3.91949 0
M  V30 1175 H 118.138 -2.68054 -4.17685 0
M  V30 1176 H 113.394 -4.02946 -4.59831 0
M  V30 1177 H 117.568 -4.97895 -4.86902 0
M  V30 1178 H 115.195 -5.65855 -5.07654 0
M  V30 1179 N 116.77 1.45427 -0.607355 0
M  V30 1180 C 117.72 2.27612 0.133038 0
M  V30 1181 C 118.704 1.37307 0.838785 0
M  V30 1182 O 119.896 1.61299 0.728813 0
M  V30 1183 C 117.025 3.24173 1.12991 0
M  V30 1184 C 116.111 4.21965 0.425011 0
M  V30 1185 N 116.502 5.02982 -0.533217 0
M  V30 1186 C 114.8 4.40899 0.672593 0
M  V30 1187 C 115.501 5.73931 -0.947518 0
M  V30 1188 N 114.477 5.42819 -0.291321 0
M  V30 1189 H 118.279 2.87649 -0.602935 0
M  V30 1190 H 115.793 1.56576 -0.431006 0
M  V30 1191 H 117.79 3.81783 1.67473 0
M  V30 1192 H 116.45 2.65696 1.86644 0
M  V30 1193 H 117.461 5.09843 -0.90995 0
M  V30 1194 H 114.138 3.93547 1.39382 0
M  V30 1195 H 115.528 6.49037 -1.73782 0
M  V30 1196 N 118.248 0.346503 1.53744 0
M  V30 1197 C 119.495 -0.249104 2.00962 0
M  V30 1198 C 119.823 -1.5032 1.23426 0
M  V30 1199 O 119.078 -1.93217 0.310761 0
M  V30 1200 C 119.377 -0.605809 3.52228 0
M  V30 1201 C 119.043 0.551747 4.47512 0
M  V30 1202 C 117.705 0.86941 4.73281 0
M  V30 1203 C 120.057 1.32818 5.03993 0
M  V30 1204 C 117.385 1.96582 5.52786 0
M  V30 1205 C 119.737 2.41486 5.84694 0
M  V30 1206 C 118.401 2.73808 6.08757 0
M  V30 1207 H 117.671 -0.0911538 0.735372 0
M  V30 1208 H 120.318 0.475027 1.85515 0
M  V30 1209 H 118.623 -1.4107 3.65522 0
M  V30 1210 H 120.32 -1.07858 3.86222 0
M  V30 1211 H 116.91 0.294102 4.2759 0
M  V30 1212 H 121.094 1.09602 4.84047 0
M  V30 1213 H 116.35 2.22045 5.69654 0
M  V30 1214 H 120.524 3.02078 6.27473 0
M  V30 1215 H 118.151 3.58892 6.7015 0
M  V30 1216 N 119.726 -1.57421 0.075193 0
M  V30 1217 C 120.951 -1.98364 -0.605515 0
M  V30 1218 C 121.376 -0.953383 -1.62149 0
M  V30 1219 O 120.734 0.0806053 -1.81121 0
M  V30 1220 C 120.782 -3.38332 -1.24756 0
M  V30 1221 O 119.886 -3.37959 -2.36342 0
M  V30 1222 H 119.227 -0.645553 -0.155428 0
M  V30 1223 H 121.757 -2.04044 0.150714 0
M  V30 1224 H 121.767 -3.75591 -1.5936 0
M  V30 1225 H 120.442 -4.12846 -0.503129 0
M  V30 1226 H 119.019 -3.12474 -2.03506 0
M  V30 1227 N 121.204 0.198386 -1.56346 0
M  V30 1228 C 122.45 0.920648 -1.80698 0
M  V30 1229 C 122.783 1.83045 -0.648697 0
M  V30 1230 O 122.058 1.91308 0.350925 0
M  V30 1231 C 122.341 1.73971 -3.15287 0
M  V30 1232 C 122.194 0.85485 -4.41602 0
M  V30 1233 C 123.513 2.71296 -3.46535 0
M  V30 1234 H 120.632 0.333261 -0.657348 0
M  V30 1235 H 123.274 0.188198 -1.89066 0
M  V30 1236 H 121.424 2.36416 -3.08285 0
M  V30 1237 H 123.096 0.245362 -4.60647 0
M  V30 1238 H 121.339 0.161398 -4.335 0
M  V30 1239 H 122.01 1.46286 -5.32264 0
M  V30 1240 H 124.486 2.18983 -3.53816 0
M  V30 1241 H 123.362 3.2569 -4.41834 0
M  V30 1242 H 123.623 3.5018 -2.69864 0
M  V30 1243 N 122.682 1.50554 0.465978 0
M  V30 1244 C 124.093 1.54599 1.04671 0
M  V30 1245 C 124.444 0.352488 1.93008 0
M  V30 1246 O 123.569 -0.534044 2.09707 0
M  V30 1247 C 124.164 2.80166 1.90505 0
M  V30 1248 C 122.723 2.86876 2.43678 0
M  V30 1249 C 121.87 2.48947 1.22151 0
M  V30 1250 H 124.821 1.56744 0.248384 0
M  V30 1251 H 124.842 2.62311 2.75633 0
M  V30 1252 H 124.354 3.67013 1.26186 0
M  V30 1253 H 122.455 2.04393 3.11536 0
M  V30 1254 H 122.568 3.89885 2.78436 0
M  V30 1255 H 120.932 2.01498 1.5579 0
M  V30 1256 H 121.715 3.38107 0.594866 0
M  V30 1257 N 124.16 -0.719506 1.40217 0
M  V30 1258 C 125.11 -1.8251 1.36653 0
M  V30 1259 C 126.094 -1.59028 0.244732 0
M  V30 1260 O 127.286 -1.70268 0.483524 0
M  V30 1261 C 124.415 -3.20599 1.22763 0
M  V30 1262 C 123.501 -3.49858 2.39708 0
M  V30 1263 N 123.892 -3.49957 3.6519 0
M  V30 1264 C 122.19 -3.80297 2.33002 0
M  V30 1265 C 122.891 -3.77449 4.42614 0
M  V30 1266 N 121.867 -3.96002 3.72402 0
M  V30 1267 H 125.669 -1.80914 2.31619 0
M  V30 1268 H 123.183 -0.918455 1.33933 0
M  V30 1269 H 125.18 -3.99766 1.18292 0
M  V30 1270 H 123.84 -3.23424 0.287614 0
M  V30 1271 H 124.851 -3.309 3.98404 0
M  V30 1272 H 121.528 -3.90635 1.47346 0
M  V30 1273 H 122.918 -3.83863 5.51451 0
M  V30 1274 N 125.638 -1.25649 -0.95132 0
M  V30 1275 C 126.601 -1.06399 -2.03007 0
M  V30 1276 C 127.601 -0.0156794 -1.60792 0
M  V30 1277 O 128.791 -0.25817 -1.72276 0
M  V30 1278 C 125.923 -0.616184 -3.35285 0
M  V30 1279 H 127.116 -2.02164 -2.21517 0
M  V30 1280 H 124.669 -1.08103 -1.12887 0
M  V30 1281 H 125.404 0.343917 -3.22471 0
M  V30 1282 H 125.189 -1.37301 -3.67275 0
M  V30 1283 H 126.679 -0.503032 -4.14559 0
M  V30 1284 N 127.117 1.15442 -1.07289 0
M  V30 1285 C 128.08 2.18358 -0.696591 0
M  V30 1286 C 129.08 1.58637 0.262837 0
M  V30 1287 O 130.27 1.74145 0.0438809 0
M  V30 1288 C 127.402 3.4089 -0.0266151 0
M  V30 1289 H 128.595 2.53162 -1.60776 0
M  V30 1290 H 126.148 1.29893 -0.869342 0
M  V30 1291 H 126.883 3.11653 0.896822 0
M  V30 1292 H 126.668 3.85495 -0.716657 0
M  V30 1293 H 128.158 4.17009 0.222028 0
M  V30 1294 N 128.595 0.856903 1.32268 0
M  V30 1295 C 129.843 0.460474 1.96784 0
M  V30 1296 C 130.164 -0.987701 1.68135 0
M  V30 1297 O 129.434 -1.69058 0.989765 0
M  V30 1298 H 128.014 0.167289 0.728027 0
M  V30 1299 H 130.676 1.09383 1.61312 0
M  V30 1300 H 129.772 0.60739 3.06133 0
M  V30 1301 N 130.073 -1.45103 0.615059 0
M  V30 1302 C 131.036 -2.29025 -0.0895485 0
M  V30 1303 C 132.036 -1.40174 -0.787906 0
M  V30 1304 O 133.226 -1.62217 -0.634933 0
M  V30 1305 C 130.358 -3.21376 -1.13711 0
M  V30 1306 H 131.551 -2.92807 0.648382 0
M  V30 1307 H 129.104 -1.51749 0.374444 0
M  V30 1308 H 129.839 -2.6241 -1.90556 0
M  V30 1309 H 129.624 -3.86834 -0.640475 0
M  V30 1310 H 131.114 -3.84459 -1.63036 0
M  V30 1311 N 131.551 -0.354651 -1.53558 0
M  V30 1312 C 132.776 0.242153 -2.05981 0
M  V30 1313 C 133.201 1.42553 -1.2272 0
M  V30 1314 O 132.559 1.79656 -0.243604 0
M  V30 1315 C 132.607 0.624367 -3.55154 0
M  V30 1316 O 131.711 1.72301 -3.74681 0
M  V30 1317 H 131.052 0.0378432 -0.662921 0
M  V30 1318 H 133.582 -0.512087 -1.98088 0
M  V30 1319 H 133.592 0.898433 -3.97985 0
M  V30 1320 H 132.267 -0.240989 -4.15201 0
M  V30 1321 H 130.844 1.44535 -3.4375 0
M  V30 1322 N 133.029 1.57378 -0.0835403 0
M  V30 1323 C 134.257 1.98263 0.59157 0
M  V30 1324 C 134.672 0.962302 1.62435 0
M  V30 1325 O 134.029 -0.049581 1.82433 0
M  V30 1326 C 134.08 3.39214 1.24965 0
M  V30 1327 O 133.801 4.37339 0.258186 0
M  V30 1328 C 135.302 3.95038 2.01147 0
M  V30 1329 H 132.522 0.651773 0.159477 0
M  V30 1330 H 135.066 2.03878 -0.159415 0
M  V30 1331 H 133.221 3.34649 1.95164 0
M  V30 1332 H 133.635 5.19371 0.731734 0
M  V30 1333 H 135.109 4.95848 2.42567 0
M  V30 1334 H 135.586 3.32222 2.87272 0
M  V30 1335 H 136.192 4.0304 1.35789 0
M  V30 1336 N 134.507 -0.190092 1.56449 0
M  V30 1337 C 135.784 -0.935886 1.71757 0
M  V30 1338 C 136.164 -2.01173 0.639726 0
M  V30 1339 O 135.512 -2.25827 -0.348502 0
M  V30 1340 C 135.722 -1.51775 3.1427 0
M  V30 1341 C 137.07 -1.99794 3.74656 0
M  V30 1342 O 138.094 -1.61607 3.1743 0
M  V30 1343 O 136.953 -2.70079 4.751 0
M  V30 1344 H 134.047 -0.439229 0.700719 0
M  V30 1345 H 136.593 -0.179395 1.68749 0
M  V30 1346 H 135.365 -0.742505 3.84191 0
M  V30 1347 H 134.988 -2.33894 3.21527 0
M  V30 1348 N 135.985 -1.50799 -0.457987 0
M  V30 1349 C 137.232 -1.62442 -1.20908 0
M  V30 1350 C 137.56 -0.330865 -1.91665 0
M  V30 1351 O 136.815 0.68401 -1.83357 0
M  V30 1352 C 137.114 -2.76358 -2.2663 0
M  V30 1353 C 136.78 -4.16378 -1.73033 0
M  V30 1354 C 135.442 -4.54473 -1.58138 0
M  V30 1355 C 137.794 -5.03836 -1.33413 0
M  V30 1356 C 135.122 -5.77754 -1.02065 0
M  V30 1357 C 137.474 -6.27676 -0.78778 0
M  V30 1358 C 136.138 -6.64562 -0.625561 0
M  V30 1359 H 135.408 -0.594417 -0.442435 0
M  V30 1360 H 138.055 -1.84772 -0.503136 0
M  V30 1361 H 136.36 -2.48167 -3.03184 0
M  V30 1362 H 138.057 -2.82568 -2.84528 0
M  V30 1363 H 134.647 -3.86331 -1.85598 0
M  V30 1364 H 138.831 -4.75026 -1.4375 0
M  V30 1365 H 134.087 -6.04997 -0.882547 0
M  V30 1366 H 138.261 -6.94797 -0.472177 0
M  V30 1367 H 135.888 -7.59965 -0.188926 0
M  V30 1368 N 137.463 0.71206 -1.40597 0
M  V30 1369 C 138.688 1.50617 -1.42581 0
M  V30 1370 C 139.113 1.88079 -0.0282102 0
M  V30 1371 O 138.471 1.53511 0.964579 0
M  V30 1372 C 138.519 2.7557 -2.3258 0
M  V30 1373 O 137.623 3.72414 -1.77148 0
M  V30 1374 H 136.964 0.453966 -0.484573 0
M  V30 1375 H 139.494 0.876649 -1.84868 0
M  V30 1376 H 139.504 3.2406 -2.47889 0
M  V30 1377 H 138.179 2.47639 -3.34138 0
M  V30 1378 H 136.756 3.31276 -1.71204 0
M  V30 1379 N 138.941 1.26152 0.944643 0
M  V30 1380 C 140.166 1.14363 1.7302 0
M  V30 1381 C 140.591 -0.29772 1.85729 0
M  V30 1382 O 139.949 -1.2157 1.34501 0
M  V30 1383 C 139.997 1.81378 3.11664 0
M  V30 1384 O 139.101 1.10022 3.97453 0
M  V30 1385 H 138.442 0.398694 0.53098 0
M  V30 1386 H 140.972 1.66906 1.18337 0
M  V30 1387 H 140.982 1.88064 3.62072 0
M  V30 1388 H 139.657 2.86237 3.0173 0
M  V30 1389 H 138.234 1.11287 3.55907 0
M  V30 1390 N 140.419 -1.14872 1.07899 0
M  V30 1391 C 141.382 -2.17986 0.708161 0
M  V30 1392 C 142.382 -1.58775 -0.25442 0
M  V30 1393 O 143.572 -1.74166 -0.034645 0
M  V30 1394 C 140.704 -3.40871 0.0446929 0
M  V30 1395 H 141.897 -2.52306 1.62116 0
M  V30 1396 H 139.45 -1.2943 0.876218 0
M  V30 1397 H 140.185 -3.12124 -0.880281 0
M  V30 1398 H 139.97 -3.8511 0.737091 0
M  V30 1399 H 141.46 -4.17121 -0.19991 0
M  V30 1400 N 141.898 -0.863906 -1.31812 0
M  V30 1401 C 143.123 -0.48527 -2.01643 0
M  V30 1402 C 143.548 0.913058 -1.64453 0
M  V30 1403 O 142.906 1.6014 -0.849985 0
M  V30 1404 C 142.954 -0.642625 -3.54828 0
M  V30 1405 O 142.058 0.320659 -4.11151 0
M  V30 1406 H 141.399 -0.193793 -0.635091 0
M  V30 1407 H 143.929 -1.16565 -1.68148 0
M  V30 1408 H 143.939 -0.533628 -4.04495 0
M  V30 1409 H 142.614 -1.66227 -3.81237 0
M  V30 1410 H 141.191 0.167126 -3.72525 0
M  V30 1411 N 143.376 1.44774 -0.622745 0
M  V30 1412 C 144.339 2.29069 0.0774015 0
M  V30 1413 C 145.339 1.4059 0.780461 0
M  V30 1414 O 146.529 1.62551 0.626322 0
M  V30 1415 C 143.661 3.21974 1.12006 0
M  V30 1416 H 144.854 2.92459 -0.663901 0
M  V30 1417 H 142.407 1.51548 -0.382486 0
M  V30 1418 H 143.142 2.63417 1.89162 0
M  V30 1419 H 142.927 3.87168 0.619951 0
M  V30 1420 H 144.417 3.85318 1.60995 0
M  V30 1421 N 144.854 0.36279 1.53368 0
M  V30 1422 C 146.265 -0.117022 1.86333 0
M  V30 1423 C 146.616 -1.48397 1.28347 0
M  V30 1424 O 145.741 -2.07787 0.604428 0
M  V30 1425 C 146.336 -0.21912 3.38091 0
M  V30 1426 C 144.895 -0.643184 3.70864 0
M  V30 1427 C 144.042 0.211318 2.76494 0
M  V30 1428 H 146.993 0.581687 1.47655 0
M  V30 1429 H 147.014 -1.04319 3.6592 0
M  V30 1430 H 146.526 0.775902 3.80265 0
M  V30 1431 H 144.627 -1.64654 3.34245 0
M  V30 1432 H 144.74 -0.41973 4.77258 0
M  V30 1433 H 143.104 -0.319367 2.5269 0
M  V30 1434 H 143.887 1.20383 3.21501 0
M  V30 1435 N 146.332 -1.57332 0.0918853 0
M  V30 1436 C 147.609 -1.85691 -0.614668 0
M  V30 1437 C 147.989 -0.988146 -1.86545 0
M  V30 1438 O 147.337 -0.0597055 -2.28422 0
M  V30 1439 C 147.547 -3.36294 -0.933126 0
M  V30 1440 C 148.895 -4.04275 -1.29796 0
M  V30 1441 O 149.919 -3.41157 -1.02424 0
M  V30 1442 O 148.778 -5.1564 -1.81047 0
M  V30 1443 H 145.872 -0.767802 -0.307261 0
M  V30 1444 H 148.418 -1.69244 0.12434 0
M  V30 1445 H 147.19 -3.91273 -0.0456404 0
M  V30 1446 H 146.813 -3.58076 -1.72822 0
M  V30 1447 N 147.81 0.181792 -1.56548 0
M  V30 1448 C 148.742 1.24956 -1.92142 0
M  V30 1449 C 149.755 1.41022 -0.813422 0
M  V30 1450 O 150.944 1.41212 -1.09186 0
M  V30 1451 C 148.044 2.61981 -2.14987 0
M  V30 1452 C 147.217 2.6735 -3.46183 0
M  V30 1453 C 146.276 3.85664 -3.5798 0
M  V30 1454 O 145.302 3.72148 -4.30691 0
M  V30 1455 N 146.504 5.01683 -2.92053 0
M  V30 1456 H 149.269 0.947329 -2.84334 0
M  V30 1457 H 146.83 0.371629 -1.57577 0
M  V30 1458 H 148.822 3.3958 -2.20154 0
M  V30 1459 H 147.392 2.84637 -1.2923 0
M  V30 1460 H 146.612 1.75925 -3.52766 0
M  V30 1461 H 147.9 2.67939 -4.32534 0
M  V30 1462 H 147.298 5.15564 -2.32832 0
M  V30 1463 H 145.855 5.77181 -3.0283 0
M  V30 1464 N 149.288 1.51039 0.449983 0
M  V30 1465 C 150.513 1.6715 1.22783 0
M  V30 1466 C 150.938 0.363081 1.84563 0
M  V30 1467 O 150.296 -0.675433 1.68249 0
M  V30 1468 C 150.344 2.77985 2.29689 0
M  V30 1469 O 149.448 2.40707 3.34864 0
M  V30 1470 H 148.789 0.557746 0.360299 0
M  V30 1471 H 151.319 1.97535 0.533005 0
M  V30 1472 H 151.329 3.01693 2.74673 0
M  V30 1473 H 150.004 3.72935 1.84098 0
M  V30 1474 H 148.581 2.27523 2.95445 0
M  V30 1475 N 150.766 -0.704594 1.40972 0
M  V30 1476 C 151.729 -1.80035 1.41845 0
M  V30 1477 C 152.729 -1.57774 0.310474 0
M  V30 1478 O 153.919 -1.64613 0.56992 0
M  V30 1479 C 151.051 -3.18284 1.22098 0
M  V30 1480 H 152.244 -1.80658 2.3938 0
M  V30 1481 H 149.797 -0.911329 1.26982 0
M  V30 1482 H 150.532 -3.23306 0.253672 0
M  V30 1483 H 150.317 -3.35843 2.02366 0
M  V30 1484 H 151.807 -3.98289 1.25522 0
M  V30 1485 N 152.244 -1.26651 -0.937939 0
M  V30 1486 C 153.655 -1.1125 -1.49934 0
M  V30 1487 C 154.006 0.306077 -1.93798 0
M  V30 1488 O 153.131 1.19792 -1.80219 0
M  V30 1489 C 153.726 -2.01339 -2.72485 0
M  V30 1490 C 152.285 -1.90074 -3.24883 0
M  V30 1491 C 151.432 -1.94498 -1.97651 0
M  V30 1492 H 154.383 -1.39693 -0.753091 0
M  V30 1493 H 154.404 -1.56319 -3.46907 0
M  V30 1494 H 153.916 -3.04577 -2.40529 0
M  V30 1495 H 152.017 -0.897827 -3.61621 0
M  V30 1496 H 152.13 -2.75778 -3.9177 0
M  V30 1497 H 150.494 -1.38591 -2.13693 0
M  V30 1498 H 151.277 -2.99372 -1.68022 0
M  V30 1499 N 153.722 1.14298 -1.08507 0
M  V30 1500 C 155.133 1.66926 -0.836227 0
M  V30 1501 C 155.484 1.85576 0.63686 0
M  V30 1502 O 154.609 1.56767 1.49175 0
M  V30 1503 C 155.204 3.03219 -1.51142 0
M  V30 1504 C 153.763 3.52876 -1.30979 0
M  V30 1505 C 152.91 2.2833 -1.57356 0
M  V30 1506 H 155.861 0.983491 -1.24552 0
M  V30 1507 H 155.882 3.68726 -0.939211 0
M  V30 1508 H 155.394 2.89612 -2.58353 0
M  V30 1509 H 153.495 3.71703 -0.258429 0
M  V30 1510 H 153.608 4.33586 -2.03814 0
M  V30 1511 H 151.972 2.34454 -0.995164 0
M  V30 1512 H 152.755 2.17298 -2.65775 0
M  V30 1513 N 155.201 0.870884 1.31352 0
M  V30 1514 C 156.426 0.495957 2.01383 0
M  V30 1515 C 156.851 -0.904324 1.64935 0
M  V30 1516 O 156.209 -1.59687 0.858466 0
M  V30 1517 C 156.257 0.661433 3.54482 0
M  V30 1518 O 155.361 -0.298851 4.11316 0
M  V30 1519 H 154.702 0.197158 0.634054 0
M  V30 1520 H 157.232 1.17455 1.67527 0
M  V30 1521 H 157.242 0.555072 4.04207 0
M  V30 1522 H 155.917 1.68246 3.8035 0
M  V30 1523 H 154.494 -0.147368 3.72609 0
M  V30 1524 N 156.679 -1.44442 0.630414 0
M  V30 1525 C 157.609 -2.33418 -0.0618083 0
M  V30 1526 C 158.59 -1.48165 -0.835541 0
M  V30 1527 O 159.775 -1.76886 -0.801564 0
M  V30 1528 C 156.905 -3.31222 -1.04449 0
M  V30 1529 C 155.859 -4.26288 -0.382436 0
M  V30 1530 C 155.185 -5.13954 -1.47497 0
M  V30 1531 C 156.485 -5.1744 0.710865 0
M  V30 1532 H 158.179 -2.91548 0.681184 0
M  V30 1533 H 155.725 -1.40191 0.329026 0
M  V30 1534 H 157.678 -3.92351 -1.53748 0
M  V30 1535 H 156.402 -2.71299 -1.81836 0
M  V30 1536 H 155.061 -3.6649 0.0899054 0
M  V30 1537 H 154.709 -4.50385 -2.2397 0
M  V30 1538 H 154.409 -5.7837 -1.03737 0
M  V30 1539 H 155.933 -5.77955 -1.96979 0
M  V30 1540 H 157.347 -5.72509 0.300996 0
M  V30 1541 H 155.744 -5.90455 1.07156 0
M  V30 1542 H 156.814 -4.58496 1.57829 0
M  V30 1543 N 158.157 -0.370918 -1.53173 0
M  V30 1544 C 159.405 0.216673 -2.00935 0
M  V30 1545 C 159.726 1.48845 -1.25977 0
M  V30 1546 O 158.996 1.92286 -0.374551 0
M  V30 1547 H 157.576 0.0830565 -0.742368 0
M  V30 1548 H 160.238 -0.49838 -1.8842 0
M  V30 1549 H 159.334 0.439893 -3.08984 0
M  V30 1550 N 159.635 1.57281 -0.100228 0
M  V30 1551 C 160.585 2.10848 0.86759 0
M  V30 1552 C 161.569 1.02473 1.24049 0
M  V30 1553 O 162.761 1.28739 1.21471 0
M  V30 1554 C 159.89 2.69648 2.12474 0
M  V30 1555 C 158.976 3.85074 1.77704 0
M  V30 1556 N 159.367 4.92897 1.13518 0
M  V30 1557 C 157.665 3.94905 2.07282 0
M  V30 1558 C 158.366 5.73475 0.974735 0
M  V30 1559 N 157.342 5.22675 1.4937 0
M  V30 1560 H 161.144 2.91594 0.367471 0
M  V30 1561 H 158.658 1.62074 0.102829 0
M  V30 1562 H 160.655 3.06356 2.82757 0
M  V30 1563 H 159.315 1.90359 2.63047 0
M  V30 1564 H 160.326 5.11662 0.801381 0
M  V30 1565 H 157.003 3.26633 2.60033 0
M  V30 1566 H 158.393 6.70238 0.472364 0
M  V30 1567 N 161.113 -0.173488 1.56642 0
M  V30 1568 C 162.076 -1.19859 1.95362 0
M  V30 1569 C 163.076 -1.37296 0.83704 0
M  V30 1570 O 164.266 -1.34739 1.10413 0
M  V30 1571 C 161.398 -2.56405 2.24654 0
M  V30 1572 H 162.591 -0.867062 2.87092 0
M  V30 1573 H 160.144 -0.415853 1.50666 0
M  V30 1574 H 160.879 -2.94576 1.35631 0
M  V30 1575 H 160.664 -2.45115 3.06041 0
M  V30 1576 H 162.154 -3.30287 2.5554 0
M  V30 1577 N 162.591 -1.51276 -0.441967 0
M  V30 1578 C 163.541 -1.6864 -1.53442 0
M  V30 1579 C 164.525 -0.540444 -1.51552 0
M  V30 1580 O 165.717 -0.796157 -1.58083 0
M  V30 1581 C 162.846 -1.8106 -2.91672 0
M  V30 1582 C 161.932 -3.01424 -2.98336 0
M  V30 1583 N 162.323 -4.2467 -2.74752 0
M  V30 1584 C 160.621 -3.00584 -3.29493 0
M  V30 1585 C 161.322 -5.05891 -2.87139 0
M  V30 1586 N 160.298 -4.40442 -3.18609 0
M  V30 1587 H 164.1 -2.61598 -1.33954 0
M  V30 1588 H 161.614 -1.4886 -0.6492 0
M  V30 1589 H 163.611 -1.91609 -3.70259 0
M  V30 1590 H 162.271 -0.892795 -3.12185 0
M  V30 1591 H 163.282 -4.53691 -2.49769 0
M  V30 1592 H 159.959 -2.18417 -3.55809 0
M  V30 1593 H 161.349 -6.13983 -2.72899 0
M  V30 1594 N 164.069 0.697108 -1.41344 0
M  V30 1595 C 165.294 1.49096 -1.44171 0
M  V30 1596 C 165.719 1.88038 -0.0481568 0
M  V30 1597 O 165.077 1.54525 0.948243 0
M  V30 1598 C 165.125 2.73088 -2.3549 0
M  V30 1599 O 164.229 3.70514 -1.81088 0
M  V30 1600 H 163.57 0.448801 -0.489361 0
M  V30 1601 H 166.1 0.856992 -1.85787 0
M  V30 1602 H 166.11 3.21413 -2.51312 0
M  V30 1603 H 164.785 2.44081 -3.36745 0
M  V30 1604 H 163.362 3.29441 -1.74708 0
M  V30 1605 N 165.547 1.27147 0.931209 0
M  V30 1606 C 166.457 1.11372 2.06478 0
M  V30 1607 C 167.473 0.044645 1.73943 0
M  V30 1608 O 168.649 0.250417 1.99837 0
M  V30 1609 C 165.714 0.758838 3.38294 0
M  V30 1610 C 164.775 1.90841 3.84549 0
M  V30 1611 C 164.008 1.57036 5.10074 0
M  V30 1612 O 164.231 0.476645 5.68405 0
M  V30 1613 O 163.165 2.40839 5.51616 0
M  V30 1614 H 166.991 2.06493 2.22698 0
M  V30 1615 H 164.576 1.06301 1.04978 0
M  V30 1616 H 166.458 0.574098 4.17471 0
M  V30 1617 H 165.133 -0.162879 3.2329 0
M  V30 1618 H 164.04 2.14819 3.06274 0
M  V30 1619 H 165.373 2.81021 4.04089 0
M  V30 1620 N 167.025 -1.13721 1.09112 0
M  V30 1621 C 168.273 -1.84559 0.823562 0
M  V30 1622 C 168.594 -1.83754 -0.652658 0
M  V30 1623 O 167.864 -1.29102 -1.47342 0
M  V30 1624 H 166.444 -0.683376 0.301673 0
M  V30 1625 H 169.106 -1.37771 1.37859 0
M  V30 1626 H 168.202 -2.8917 1.17419 0
M  V30 1627 N 168.503 -0.877838 -1.30888 0
M  V30 1628 C 169.914 -0.544193 -1.78593 0
M  V30 1629 C 170.265 0.939301 -1.72254 0
M  V30 1630 O 169.39 1.7337 -1.29505 0
M  V30 1631 C 169.985 -0.98105 -3.24285 0
M  V30 1632 C 168.544 -0.698935 -3.69854 0
M  V30 1633 C 167.691 -1.168 -2.51502 0
M  V30 1634 H 170.642 -1.06278 -1.17859 0
M  V30 1635 H 170.663 -0.307009 -3.79259 0
M  V30 1636 H 170.175 -2.06079 -3.28866 0
M  V30 1637 H 168.276 0.369112 -3.70767 0
M  V30 1638 H 168.389 -1.28148 -4.61644 0
M  V30 1639 H 166.753 -0.587535 -2.47831 0
M  V30 1640 H 167.536 -2.25533 -2.58824 0
M  V30 1641 N 169.982 1.44106 -0.638065 0
M  V30 1642 C 170.945 2.29138 0.0531013 0
M  V30 1643 C 171.945 1.41409 0.765506 0
M  V30 1644 O 173.135 1.63206 0.609046 0
M  V30 1645 C 170.267 3.23144 1.08584 0
M  V30 1646 H 171.46 2.91739 -0.694883 0
M  V30 1647 H 169.013 1.51134 -0.398538 0
M  V30 1648 H 169.748 2.65408 1.86357 0
M  V30 1649 H 169.533 3.87804 0.578852 0
M  V30 1650 H 171.023 3.87004 1.56899 0
M  V30 1651 N 171.46 0.379036 1.52974 0
M  V30 1652 C 172.871 -0.0972525 1.86447 0
M  V30 1653 C 173.222 -1.47027 1.29914 0
M  V30 1654 O 172.347 -2.07135 0.626433 0
M  V30 1655 C 172.942 -0.183248 3.38304 0
M  V30 1656 C 171.501 -0.603812 3.71525 0
M  V30 1657 C 170.648 0.240632 2.76254 0
M  V30 1658 H 173.599 0.597316 1.4703 0
M  V30 1659 H 173.62 -1.00432 3.67006 0
M  V30 1660 H 173.132 0.816191 3.79421 0
M  V30 1661 H 171.233 -1.61099 3.35973 0
M  V30 1662 H 171.346 -0.369086 4.77676 0
M  V30 1663 H 169.71 -0.292548 2.53014 0
M  V30 1664 H 170.493 1.23786 3.20206 0
M  V30 1665 N 172.938 -1.57226 0.108567 0
M  V30 1666 C 173.901 -2.13602 -0.831082 0
M  V30 1667 C 174.901 -1.06841 -1.20173 0
M  V30 1668 O 176.091 -1.32666 -1.12895 0
M  V30 1669 C 173.223 -2.66769 -2.12243 0
M  V30 1670 H 174.416 -2.97951 -0.341317 0
M  V30 1671 H 171.969 -1.55667 -0.14057 0
M  V30 1672 H 172.704 -1.85977 -2.65675 0
M  V30 1673 H 172.489 -3.44839 -1.86625 0
M  V30 1674 H 173.979 -3.10332 -2.79435 0
M  V30 1675 N 174.416 0.165178 -1.56732 0
M  V30 1676 C 175.646 0.894919 -1.86212 0
M  V30 1677 C 176.054 1.76066 -0.692627 0
M  V30 1678 O 175.397 1.80387 0.347303 0
M  V30 1679 C 175.459 1.8174 -3.10179 0
M  V30 1680 C 175.123 1.13064 -4.42793 0
M  V30 1681 C 176.12 0.493169 -5.17556 0
M  V30 1682 C 173.805 1.12556 -4.89527 0
M  V30 1683 C 175.799 -0.140209 -6.37246 0
M  V30 1684 C 173.486 0.488366 -6.09145 0
M  V30 1685 C 174.484 -0.143411 -6.82849 0
M  V30 1686 O 174.172 -0.77055 -8.00199 0
M  V30 1687 H 173.904 0.265114 -0.621844 0
M  V30 1688 H 176.458 0.168242 -2.0471 0
M  V30 1689 H 174.688 2.58455 -2.87642 0
M  V30 1690 H 176.377 2.4175 -3.26055 0
M  V30 1691 H 177.143 0.489023 -4.82528 0
M  V30 1692 H 173.022 1.60672 -4.32094 0
M  V30 1693 H 176.566 -0.633932 -6.94714 0
M  V30 1694 H 172.463 0.490116 -6.43637 0
M  V30 1695 H 173.231 -0.670408 -8.1575 0
M  V30 1696 N 175.894 1.51508 0.433938 0
M  V30 1697 C 177.14 1.64588 1.18484 0
M  V30 1698 C 177.473 0.362666 1.90784 0
M  V30 1699 O 176.748 -0.637892 1.83742 0
M  V30 1700 C 177.031 2.85149 2.19913 0
M  V30 1701 C 176.884 4.23456 1.51674 0
M  V30 1702 C 178.203 3.01227 3.20858 0
M  V30 1703 H 175.322 0.598994 0.429389 0
M  V30 1704 H 177.964 1.84002 0.473647 0
M  V30 1705 H 176.114 2.68729 2.80566 0
M  V30 1706 H 177.786 4.51552 0.943322 0
M  V30 1707 H 176.029 4.25998 0.819035 0
M  V30 1708 H 176.7 5.03812 2.2556 0
M  V30 1709 H 179.176 3.16382 2.70263 0
M  V30 1710 H 178.052 3.87141 3.89118 0
M  V30 1711 H 178.313 2.13447 3.8716 0
M  V30 1712 N 177.372 -0.689602 1.41712 0
M  V30 1713 C 178.335 -1.78521 1.43746 0
M  V30 1714 C 179.335 -1.57436 0.327191 0
M  V30 1715 O 180.525 -1.64 0.587348 0
M  V30 1716 C 177.657 -3.16971 1.25467 0
M  V30 1717 H 178.85 -1.78108 2.41283 0
M  V30 1718 H 176.403 -0.89781 1.27942 0
M  V30 1719 H 177.138 -3.23019 0.287948 0
M  V30 1720 H 176.923 -3.33678 2.05917 0
M  V30 1721 H 178.413 -3.96935 1.2974 0
M  V30 1722 N 178.85 -1.27639 -0.924453 0
M  V30 1723 C 180.075 -1.17101 -1.71179 0
M  V30 1724 C 180.5 0.268134 -1.86179 0
M  V30 1725 O 179.858 1.19415 -1.36418 0
M  V30 1726 C 179.906 -1.86313 -3.08739 0
M  V30 1727 O 179.01 -1.16331 -3.95652 0
M  V30 1728 H 178.351 -0.407091 -0.524569 0
M  V30 1729 H 180.881 -1.68767 -1.15666 0
M  V30 1730 H 180.891 -1.938 -3.59034 0
M  V30 1731 H 179.566 -2.91001 -2.97138 0
M  V30 1732 H 178.143 -1.16935 -3.54091 0
M  V30 1733 N 180.328 1.1314 -1.09713 0
M  V30 1734 C 181.576 1.84119 -0.833338 0
M  V30 1735 C 181.897 1.84097 0.642904 0
M  V30 1736 O 181.167 1.29881 1.46655 0
M  V30 1737 H 179.747 0.681766 -0.305293 0
M  V30 1738 H 182.409 1.37038 -1.38588 0
M  V30 1739 H 181.505 2.88543 -1.18951 0
M  V30 1740 N 181.806 0.884767 1.30421 0
M  V30 1741 C 183.217 0.553656 1.78302 0
M  V30 1742 C 183.568 -0.930153 1.7275 0
M  V30 1743 O 182.693 -1.72681 1.30423 0
M  V30 1744 C 183.288 0.998234 3.2376 0
M  V30 1745 C 181.847 0.71854 3.69478 0
M  V30 1746 C 180.994 1.18132 2.50879 0
M  V30 1747 H 183.945 1.06901 1.17294 0
M  V30 1748 H 183.966 0.327118 3.79091 0
M  V30 1749 H 183.478 2.0782 3.27769 0
M  V30 1750 H 181.579 -0.349444 3.70958 0
M  V30 1751 H 181.692 1.30595 4.60958 0
M  V30 1752 H 180.056 0.600669 2.47516 0
M  V30 1753 H 180.839 2.26902 2.57624 0
M  V30 1754 N 183.284 -1.43765 0.645699 0
M  V30 1755 C 184.531 -2.01898 0.15604 0
M  V30 1756 C 184.859 -1.50887 -1.22733 0
M  V30 1757 O 184.114 -0.689271 -1.8316 0
M  V30 1758 C 184.413 -3.57238 0.107679 0
M  V30 1759 C 184.079 -4.27564 1.43178 0
M  V30 1760 C 182.741 -4.46492 1.7944 0
M  V30 1761 C 185.093 -4.67454 2.30513 0
M  V30 1762 C 182.421 -5.02573 3.02716 0
M  V30 1763 C 184.773 -5.24901 3.53074 0
M  V30 1764 C 183.437 -5.42046 3.89541 0
M  V30 1765 H 182.707 -0.738797 0.057099 0
M  V30 1766 H 185.354 -1.72341 0.834912 0
M  V30 1767 H 183.659 -3.86293 -0.654618 0
M  V30 1768 H 185.356 -3.99965 -0.287938 0
M  V30 1769 H 181.946 -4.13171 1.13963 0
M  V30 1770 H 186.13 -4.5253 2.0379 0
M  V30 1771 H 181.386 -5.14033 3.31028 0
M  V30 1772 H 185.56 -5.54758 4.20971 0
M  V30 1773 H 183.187 -5.85268 4.85145 0
M  V30 1774 N 184.763 -0.387143 -1.52771 0
M  V30 1775 C 186.179 -0.037007 -1.59557 0
M  V30 1776 C 186.379 1.44801 -1.40124 0
M  V30 1777 O 185.435 2.21227 -1.21716 0
M  V30 1778 C 186.748 -0.512256 -2.96305 0
M  V30 1779 C 188.296 -0.468328 -3.09476 0
M  V30 1780 C 188.771 -0.919731 -4.4867 0
M  V30 1781 N 190.262 -0.875656 -4.54848 0
M  V30 1782 C 190.997 -1.19637 -5.6078 0
M  V30 1783 N 190.493 -1.58745 -6.74368 0
M  V30 1784 N 192.286 -1.11776 -5.50874 0
M  V30 1785 H 184.437 -1.35395 -1.63652 0
M  V30 1786 H 186.7 -0.554818 -0.768688 0
M  V30 1787 H 186.406 -1.54935 -3.15734 0
M  V30 1788 H 186.28 0.089805 -3.77093 0
M  V30 1789 H 188.667 0.559671 -2.89744 0
M  V30 1790 H 188.748 -1.10616 -2.30646 0
M  V30 1791 H 188.392 -1.94595 -4.69143 0
M  V30 1792 H 188.322 -0.258927 -5.25963 0
M  V30 1793 H 190.813 -0.587843 -3.733 0
M  V30 1794 H 191.126 -1.81586 -7.51163 0
M  V30 1795 H 189.471 -1.6263 -6.75705 0
M  V30 1796 H 192.662 -0.811264 -4.61016 0
M  V30 1797 H 192.835 -1.37103 -6.3333 0
M  V30 1798 N 186.241 1.57166 -0.116904 0
M  V30 1799 C 187.151 2.18745 0.847812 0
M  V30 1800 C 188.167 1.163 1.29423 0
M  V30 1801 O 189.343 1.48761 1.35765 0
M  V30 1802 C 186.408 2.77307 2.0809 0
M  V30 1803 C 185.469 3.94781 1.68661 0
M  V30 1804 C 184.702 4.50541 2.86091 0
M  V30 1805 O 184.925 4.05202 4.01456 0
M  V30 1806 O 183.859 5.41256 2.63298 0
M  V30 1807 H 187.685 3.01632 0.353778 0
M  V30 1808 H 185.27 1.49005 0.108599 0
M  V30 1809 H 187.152 3.14647 2.80313 0
M  V30 1810 H 185.827 1.97452 2.56504 0
M  V30 1811 H 184.734 3.62214 0.935518 0
M  V30 1812 H 186.067 4.76065 1.24991 0
M  V30 1813 N 187.719 -0.156864 1.56817 0
M  V30 1814 C 188.682 -1.17781 1.96622 0
M  V30 1815 C 189.682 -1.36401 0.851555 0
M  V30 1816 O 190.872 -1.33561 1.11836 0
M  V30 1817 C 188.004 -2.54008 2.27361 0
M  V30 1818 H 189.197 -0.836564 2.87996 0
M  V30 1819 H 186.75 -0.39985 1.51099 0
M  V30 1820 H 187.485 -2.9312 1.38748 0
M  V30 1821 H 187.27 -2.41856 3.08623 0
M  V30 1822 H 188.76 -3.27558 2.59029 0
M  V30 1823 N 189.197 -1.51736 -0.425897 0
M  V30 1824 C 190.445 -1.64644 -1.17204 0
M  V30 1825 C 190.766 -0.370486 -1.91448 0
M  V30 1826 O 190.036 0.614088 -1.86026 0
M  V30 1827 H 188.616 -0.606819 -0.435638 0
M  V30 1828 H 191.278 -1.88713 -0.487177 0
M  V30 1829 H 190.374 -2.47958 -1.89534 0
M  V30 1830 N 190.675 0.682077 -1.42076 0
M  V30 1831 C 191.922 1.44215 -1.42156 0
M  V30 1832 C 192.25 1.94468 -0.0354186 0
M  V30 1833 O 191.505 1.70816 0.955002 0
M  V30 1834 C 191.804 2.66036 -2.38662 0
M  V30 1835 C 191.47 2.34366 -3.85206 0
M  V30 1836 C 190.132 2.25439 -4.25124 0
M  V30 1837 C 192.484 2.08513 -4.77673 0
M  V30 1838 C 189.812 1.88775 -5.55501 0
M  V30 1839 C 192.164 1.73354 -6.08384 0
M  V30 1840 C 190.828 1.62933 -6.47309 0
M  V30 1841 H 190.098 0.527718 -0.520187 0
M  V30 1842 H 192.745 0.778387 -1.74967 0
M  V30 1843 H 191.05 3.3741 -1.99152 0
M  V30 1844 H 192.747 3.24205 -2.35991 0
M  V30 1845 H 189.337 2.42213 -3.53597 0
M  V30 1846 H 193.521 2.14346 -4.47626 0
M  V30 1847 H 188.777 1.7927 -5.84527 0
M  V30 1848 H 192.951 1.52373 -6.79526 0
M  V30 1849 H 190.578 1.34292 -7.48244 0
M  V30 1850 N 192.153 1.28127 0.917671 0
M  V30 1851 C 193.564 1.13622 1.48145 0
M  V30 1852 C 193.915 -0.275207 1.9426 0
M  V30 1853 O 193.04 -1.1691 1.82102 0
M  V30 1854 C 193.635 2.05648 2.69248 0
M  V30 1855 C 192.194 1.95219 3.21818 0
M  V30 1856 C 191.341 1.97618 1.94532 0
M  V30 1857 H 194.292 1.40874 0.730772 0
M  V30 1858 H 194.313 1.61818 3.44377 0
M  V30 1859 H 193.825 3.08365 2.35653 0
M  V30 1860 H 191.926 0.955244 3.60147 0
M  V30 1861 H 192.039 2.81976 3.87333 0
M  V30 1862 H 190.403 1.41973 2.11461 0
M  V30 1863 H 191.186 3.02007 1.63238 0
M  V30 1864 N 193.631 -1.12557 1.10312 0
M  V30 1865 C 194.879 -1.83675 0.843091 0
M  V30 1866 C 195.2 -1.84435 -0.633131 0
M  V30 1867 O 194.47 -1.30657 -1.45964 0
M  V30 1868 H 193.05 -0.680138 0.308904 0
M  V30 1869 H 195.712 -1.36301 1.39313 0
M  V30 1870 H 194.808 -2.87908 1.2048 0
M  V30 1871 N 195.109 -0.891671 -1.2995 0
M  V30 1872 C 196.041 -0.320695 -2.26945 0
M  V30 1873 C 197.054 0.528497 -1.53983 0
M  V30 1874 O 198.243 0.346959 -1.75096 0
M  V30 1875 C 195.343 0.562066 -3.34207 0
M  V30 1876 C 194.516 -0.259576 -4.36629 0
M  V30 1877 C 193.575 0.554739 -5.23268 0
M  V30 1878 O 192.601 -0.0249311 -5.69195 0
M  V30 1879 N 193.803 1.8625 -5.4981 0
M  V30 1880 H 196.568 -1.15432 -2.76578 0
M  V30 1881 H 194.129 -0.755336 -1.432 0
M  V30 1882 H 196.121 1.11304 -3.89093 0
M  V30 1883 H 194.691 1.29637 -2.84452 0
M  V30 1884 H 193.911 -0.991986 -3.81514 0
M  V30 1885 H 195.199 -0.822564 -5.02107 0
M  V30 1886 H 194.597 2.35628 -5.14292 0
M  V30 1887 H 193.154 2.36078 -6.07545 0
M  V30 1888 N 196.587 1.43421 -0.653314 0
M  V30 1889 C 197.55 2.29182 0.0287951 0
M  V30 1890 C 198.55 1.42213 0.750465 0
M  V30 1891 O 199.74 1.63843 0.591701 0
M  V30 1892 C 196.872 3.24278 1.05151 0
M  V30 1893 H 198.065 2.90985 -0.725786 0
M  V30 1894 H 195.618 1.50702 -0.414545 0
M  V30 1895 H 196.353 2.6737 1.83532 0
M  V30 1896 H 196.138 3.88396 0.537687 0
M  V30 1897 H 197.628 3.88647 1.52786 0
M  V30 1898 N 198.065 0.39524 1.52563 0
M  V30 1899 C 199.29 -0.187456 2.06551 0
M  V30 1900 C 199.715 -1.39249 1.26457 0
M  V30 1901 O 199.073 -1.78947 0.291151 0
M  V30 1902 C 199.121 -0.529985 3.56684 0
M  V30 1903 O 198.225 -1.62307 3.79118 0
M  V30 1904 H 197.566 -0.0202537 0.663691 0
M  V30 1905 H 200.096 0.564426 1.96661 0
M  V30 1906 H 200.106 -0.792598 4.00227 0
M  V30 1907 H 198.781 0.350987 4.14416 0
M  V30 1908 H 197.358 -1.3537 3.47461 0
M  V30 1909 N 199.544 -1.57102 0.125237 0
M  V30 1910 C 200.769 -2.0019 -0.542101 0
M  V30 1911 C 201.194 -1.00449 -1.59034 0
M  V30 1912 O 200.552 0.0229423 -1.81285 0
M  V30 1913 C 200.6 -3.42129 -1.13929 0
M  V30 1914 O 199.704 -3.45307 -2.2547 0
M  V30 1915 H 199.045 -0.650171 -0.134812 0
M  V30 1916 H 201.575 -2.03461 0.215553 0
M  V30 1917 H 201.585 -3.80471 -1.4733 0
M  V30 1918 H 200.26 -4.14237 -0.371531 0
M  V30 1919 H 198.837 -3.1879 -1.93462 0
M  V30 1920 N 201.022 0.148545 -1.56898 0
M  V30 1921 C 202.433 0.708766 -1.72723 0
M  V30 1922 C 202.784 1.81734 -0.739395 0
M  V30 1923 O 201.909 2.16194 0.0943169 0
M  V30 1924 C 202.504 1.29245 -3.13179 0
M  V30 1925 C 201.063 1.79925 -3.30611 0
M  V30 1926 C 200.21 0.687111 -2.68652 0
M  V30 1927 H 203.161 -0.0771063 -1.58513 0
M  V30 1928 H 203.182 2.16224 -3.13093 0
M  V30 1929 H 202.694 0.485382 -3.85053 0
M  V30 1930 H 200.795 2.63203 -2.63732 0
M  V30 1931 H 200.908 1.92903 -4.38549 0
M  V30 1932 H 199.272 1.11335 -2.29078 0
M  V30 1933 H 200.055 -0.108483 -3.43129 0
M  V30 1934 N 202.5 1.5196 0.417844 0
M  V30 1935 C 203.43 1.77634 1.51554 0
M  V30 1936 C 204.411 0.626918 1.58126 0
M  V30 1937 O 205.596 0.871632 1.7354 0
M  V30 1938 C 202.726 1.91911 2.8946 0
M  V30 1939 C 201.68 3.07463 2.97743 0
M  V30 1940 C 201.006 3.06951 4.37819 0
M  V30 1941 C 202.306 4.47082 2.70027 0
M  V30 1942 H 204 2.6955 1.3032 0
M  V30 1943 H 201.546 1.29706 0.625492 0
M  V30 1944 H 203.499 2.08455 3.6623 0
M  V30 1945 H 202.223 0.966598 3.11969 0
M  V30 1946 H 200.882 2.90656 2.23416 0
M  V30 1947 H 200.53 2.09438 4.57323 0
M  V30 1948 H 200.23 3.84556 4.44286 0
M  V30 1949 H 201.754 3.25613 5.16535 0
M  V30 1950 H 203.168 4.6414 3.36522 0
M  V30 1951 H 201.565 5.2654 2.87881 0
M  V30 1952 H 202.635 4.55777 1.65514 0
M  V30 1953 N 203.978 -0.674533 1.42435 0
M  V30 1954 C 205.226 -1.43175 1.42637 0
M  V30 1955 C 205.547 -1.94951 0.0438992 0
M  V30 1956 O 204.817 -1.7308 -0.917607 0
M  V30 1957 H 203.397 -0.531307 0.525092 0
M  V30 1958 H 206.059 -0.797006 1.77859 0
M  V30 1959 H 205.155 -2.28463 2.12629 0
M  V30 1960 N 205.456 -1.28612 -0.910864 0
M  V30 1961 C 206.872 -1.06381 -1.18976 0
M  V30 1962 C 207.072 0.191998 -2.00583 0
M  V30 1963 O 206.128 0.892869 -2.36187 0
M  V30 1964 C 207.441 -2.31295 -1.92154 0
M  V30 1965 C 208.989 -2.36503 -2.05025 0
M  V30 1966 C 209.464 -3.61191 -2.81612 0
M  V30 1967 N 210.955 -3.61847 -2.89172 0
M  V30 1968 C 211.69 -4.55004 -3.4894 0
M  V30 1969 N 211.186 -5.58482 -4.09963 0
M  V30 1970 N 212.979 -4.42594 -3.46506 0
M  V30 1971 H 205.13 -2.09221 -0.366094 0
M  V30 1972 H 207.393 -0.921003 -0.224629 0
M  V30 1973 H 207.099 -3.228 -1.39618 0
M  V30 1974 H 206.973 -2.37934 -2.9269 0
M  V30 1975 H 209.36 -1.45494 -2.5674 0
M  V30 1976 H 209.441 -2.33857 -1.03657 0
M  V30 1977 H 209.085 -4.52545 -2.30576 0
M  V30 1978 H 209.015 -3.61092 -3.83302 0
M  V30 1979 H 211.506 -2.87022 -2.45819 0
M  V30 1980 H 211.819 -6.25704 -4.53557 0
M  V30 1981 H 210.164 -5.62305 -4.08459 0
M  V30 1982 H 213.355 -3.60953 -2.98045 0
M  V30 1983 H 213.528 -5.15381 -3.92793 0
M  V30 1984 N 206.934 1.1197 -1.10907 0
M  V30 1985 C 207.897 2.16031 -0.765707 0
M  V30 1986 C 208.897 1.59393 0.212235 0
M  V30 1987 O 210.087 1.74196 -0.0115441 0
M  V30 1988 C 207.219 3.40632 -0.135053 0
M  V30 1989 H 208.412 2.47919 -1.68748 0
M  V30 1990 H 205.965 1.27061 -0.910226 0
M  V30 1991 H 206.7 3.14348 0.797218 0
M  V30 1992 H 206.485 3.8302 -0.838937 0
M  V30 1993 H 207.975 4.17505 0.0892469 0
M  V30 1994 N 208.412 0.89855 1.29475 0
M  V30 1995 C 209.36 0.365253 2.29714 0
M  V30 1996 C 210.354 -0.534993 1.6073 0
M  V30 1997 O 211.56 -0.417921 1.75081 0
M  V30 1998 H 207.935 0.0994853 0.74539 0
M  V30 1999 H 209.906 1.22406 2.72138 0
M  V30 2000 C 208.655 -0.393159 3.4547 0
M  V30 2001 H 207.978 0.290332 3.98744 0
M  V30 2002 H 209.418 -0.731189 4.17648 0
M  V30 2003 C 207.877 -1.59539 2.9673 0
M  V30 2004 O 208.407 -2.69469 2.97908 0
M  V30 2005 N 206.613 -1.43716 2.52575 0
M  V30 2006 H 206.16 -0.542828 2.51816 0
M  V30 2007 H 206.118 -2.24288 2.20323 0
M  V30 2008 N 209.89 -1.43072 0.660911 0
M  V30 2009 C 211.138 -2.01323 0.177094 0
M  V30 2010 C 211.459 -1.5245 -1.2159 0
M  V30 2011 O 210.729 -0.740322 -1.81373 0
M  V30 2012 H 209.309 -0.744382 0.0624804 0
M  V30 2013 H 211.971 -1.75179 0.854305 0
M  V30 2014 H 211.067 -3.11649 0.167641 0
M  V30 2015 N 211.368 -0.403325 -1.52352 0
M  V30 2016 C 212.784 -0.0539281 -1.59509 0
M  V30 2017 C 212.984 1.43307 -1.41652 0
M  V30 2018 O 212.04 2.19924 -1.24056 0
M  V30 2019 C 213.353 -0.543654 -2.95745 0
M  V30 2020 C 214.901 -0.501125 -3.08962 0
M  V30 2021 C 215.376 -0.967267 -4.47669 0
M  V30 2022 N 216.867 -0.923849 -4.53893 0
M  V30 2023 C 217.602 -1.25578 -5.5948 0
M  V30 2024 N 217.098 -1.65889 -6.72646 0
M  V30 2025 N 218.891 -1.17613 -5.49658 0
M  V30 2026 H 211.042 -1.37123 -1.62206 0
M  V30 2027 H 213.305 -0.56294 -0.76276 0
M  V30 2028 H 213.011 -1.58275 -3.14073 0
M  V30 2029 H 212.885 0.0498042 -3.77167 0
M  V30 2030 H 215.272 0.528909 -2.90321 0
M  V30 2031 H 215.353 -1.13056 -2.2946 0
M  V30 2032 H 214.997 -1.9956 -4.67053 0
M  V30 2033 H 214.927 -0.314698 -5.25659 0
M  V30 2034 H 217.418 -0.627403 -3.72655 0
M  V30 2035 H 217.731 -1.89543 -7.49195 0
M  V30 2036 H 216.076 -1.69787 -6.73942 0
M  V30 2037 H 219.267 -0.860115 -4.6013 0
M  V30 2038 H 219.44 -1.43812 -6.3184 0
M  V30 2039 N 212.846 1.57033 -0.133567 0
M  V30 2040 C 213.776 2.1909 0.807567 0
M  V30 2041 C 214.757 1.13517 1.26681 0
M  V30 2042 O 215.942 1.41809 1.32679 0
M  V30 2043 C 213.072 2.80188 2.05212 0
M  V30 2044 C 212.026 3.91471 1.73015 0
M  V30 2045 C 211.352 4.39443 3.04622 0
M  V30 2046 C 212.652 5.12886 0.987168 0
M  V30 2047 H 214.346 2.97988 0.290403 0
M  V30 2048 H 211.892 1.43335 0.138239 0
M  V30 2049 H 213.845 3.22264 2.71521 0
M  V30 2050 H 212.569 1.98601 2.59278 0
M  V30 2051 H 211.228 3.49993 1.0909 0
M  V30 2052 H 210.876 3.54695 3.56651 0
M  V30 2053 H 210.576 5.14495 2.83847 0
M  V30 2054 H 212.1 4.8418 3.72024 0
M  V30 2055 H 213.514 5.51891 1.55208 0
M  V30 2056 H 211.911 5.93615 0.87985 0
M  V30 2057 H 212.981 4.84894 -0.0235286 0
M  V30 2058 N 214.325 -0.140222 1.56975 0
M  V30 2059 C 215.572 -0.851687 1.83719 0
M  V30 2060 C 215.9 -1.80862 0.715485 0
M  V30 2061 O 215.155 -1.93464 -0.294956 0
M  V30 2062 C 215.454 -1.65386 3.16832 0
M  V30 2063 C 215.12 -0.843112 4.42947 0
M  V30 2064 C 213.782 -0.619464 4.77196 0
M  V30 2065 C 216.134 -0.276582 5.20466 0
M  V30 2066 C 213.462 0.181312 5.8642 0
M  V30 2067 C 215.814 0.51127 6.30531 0
M  V30 2068 C 214.478 0.745432 6.63325 0
M  V30 2069 H 213.748 -0.311654 0.672274 0
M  V30 2070 H 216.395 -0.115006 1.91154 0
M  V30 2071 H 214.7 -2.46084 3.04877 0
M  V30 2072 H 216.397 -2.20793 3.34741 0
M  V30 2073 H 212.987 -1.0275 4.16101 0
M  V30 2074 H 217.171 -0.436632 4.94376 0
M  V30 2075 H 212.427 0.372165 6.10266 0
M  V30 2076 H 216.601 0.957354 6.89788 0
M  V30 2077 H 214.228 1.36778 7.47794 0
M  V30 2078 N 215.803 -1.52179 -0.40978 0
M  V30 2079 C 216.766 -1.74853 -1.48186 0
M  V30 2080 C 217.766 -0.618417 -1.48433 0
M  V30 2081 O 218.956 -0.886286 -1.49969 0
M  V30 2082 C 216.088 -1.8303 -2.87598 0
M  V30 2083 H 217.281 -2.70559 -1.29374 0
M  V30 2084 H 214.834 -1.42586 -0.640233 0
M  V30 2085 H 215.569 -0.89236 -3.11781 0
M  V30 2086 H 215.354 -2.65187 -2.88822 0
M  V30 2087 H 216.844 -2.02316 -3.65319 0
M  V30 2088 N 217.281 0.66697 -1.42791 0
M  V30 2089 C 218.229 1.80157 -1.47127 0
M  V30 2090 C 219.223 1.65825 -0.346199 0
M  V30 2091 O 220.429 1.72338 -0.519572 0
M  V30 2092 H 216.804 0.594158 -0.460956 0
M  V30 2093 H 218.775 1.73619 -2.42692 0
M  V30 2094 C 217.524 3.18351 -1.39813 0
M  V30 2095 H 216.847 3.3001 -2.25684 0
M  V30 2096 H 218.287 3.97736 -1.46908 0
M  V30 2097 C 216.746 3.36707 -0.11391 0
M  V30 2098 O 217.276 3.93027 0.830241 0
M  V30 2099 N 215.482 2.90586 -0.0285295 0
M  V30 2100 H 215.029 2.4494 -0.79764 0
M  V30 2101 H 214.987 3.03245 0.830063 0
M  V30 2102 N 218.759 1.29093 0.90403 0
M  V30 2103 C 220.17 1.15186 1.46932 0
M  V30 2104 C 220.521 -0.254587 1.94541 0
M  V30 2105 O 219.646 -1.14972 1.83332 0
M  V30 2106 C 220.241 2.08492 2.67051 0
M  V30 2107 C 218.8 1.98621 3.19729 0
M  V30 2108 C 217.947 1.9967 1.92425 0
M  V30 2109 H 220.898 1.41641 0.715789 0
M  V30 2110 H 220.919 1.65461 3.42641 0
M  V30 2111 H 220.431 3.10847 2.3237 0
M  V30 2112 H 218.532 0.993389 3.59114 0
M  V30 2113 H 218.645 2.86068 3.8432 0
M  V30 2114 H 217.009 1.44208 2.09943 0
M  V30 2115 H 217.792 3.03721 1.60026 0
M  V30 2116 N 220.237 -1.11381 1.11499 0
M  V30 2117 C 221.653 -1.35143 0.849031 0
M  V30 2118 C 221.853 -1.94515 -0.525938 0
M  V30 2119 O 220.909 -2.1785 -1.27662 0
M  V30 2120 C 222.222 -2.28249 1.95762 0
M  V30 2121 C 223.77 -2.41812 1.98736 0
M  V30 2122 C 224.245 -3.3824 3.088 0
M  V30 2123 N 225.736 -3.45803 3.08179 0
M  V30 2124 C 226.471 -4.20358 3.89982 0
M  V30 2125 N 225.967 -4.97884 4.8175 0
M  V30 2126 N 227.76 -4.15877 3.78157 0
M  V30 2127 H 219.911 -0.712062 2.00109 0
M  V30 2128 H 222.174 -0.376025 0.870235 0
M  V30 2129 H 221.88 -1.91817 2.94787 0
M  V30 2130 H 221.754 -3.28473 1.85433 0
M  V30 2131 H 224.141 -2.77518 1.00338 0
M  V30 2132 H 224.222 -1.41437 2.13141 0
M  V30 2133 H 223.866 -3.03261 4.07425 0
M  V30 2134 H 223.796 -4.38471 2.91635 0
M  V30 2135 H 226.287 -2.90506 2.41691 0
M  V30 2136 H 226.6 -5.52142 5.40702 0
M  V30 2137 H 224.945 -4.97043 4.85771 0
M  V30 2138 H 228.136 -3.544 3.05808 0
M  V30 2139 H 228.309 -4.73723 4.42143 0
M  V30 2140 N 221.715 -0.905404 -1.28997 0
M  V30 2141 C 222.992 -0.453513 -1.9027 0
M  V30 2142 C 223.372 1.06721 -1.82137 0
M  V30 2143 O 222.72 1.91159 -1.25182 0
M  V30 2144 C 222.93 -0.974494 -3.35119 0
M  V30 2145 C 224.278 -1.0216 -4.12127 0
M  V30 2146 O 225.302 -0.922557 -3.44046 0
M  V30 2147 O 224.161 -1.17121 -5.33802 0
M  V30 2148 H 221.255 -0.142347 -0.814657 0
M  V30 2149 H 223.801 -0.995642 -1.37423 0
M  V30 2150 H 222.573 -2.01848 -3.35221 0
M  V30 2151 H 222.196 -0.412706 -3.95452 0
M  V30 2152 N 223.193 1.4272 -0.668489 0
M  V30 2153 C 224.418 2.06484 -0.194758 0
M  V30 2154 C 224.843 1.49862 1.13679 0
M  V30 2155 O 224.201 0.614582 1.70565 0
M  V30 2156 C 224.249 3.60353 -0.133546 0
M  V30 2157 O 223.353 4.02464 0.899806 0
M  V30 2158 H 222.694 0.656137 -0.10188 0
M  V30 2159 H 225.224 1.82964 -0.915722 0
M  V30 2160 H 225.234 4.07976 0.0447041 0
M  V30 2161 H 223.909 4.00938 -1.1055 0
M  V30 2162 H 222.486 3.66402 0.693109 0
M  V30 2163 N 224.671 0.411399 1.52136 0
M  V30 2164 C 225.918 -0.163645 2.01838 0
M  V30 2165 C 226.246 -1.4495 1.29691 0
M  V30 2166 O 225.501 -1.91725 0.392431 0
M  V30 2167 C 225.8 -0.455872 3.54481 0
M  V30 2168 C 225.466 0.741055 4.44769 0
M  V30 2169 C 224.128 1.06936 4.69167 0
M  V30 2170 C 226.48 1.54075 4.97906 0
M  V30 2171 C 223.808 2.19851 5.43951 0
M  V30 2172 C 226.16 2.66067 5.73926 0
M  V30 2173 C 224.824 2.99381 5.96596 0
M  V30 2174 H 224.094 -0.0598821 0.738576 0
M  V30 2175 H 226.741 0.553283 1.83333 0
M  V30 2176 H 225.046 -1.2544 3.71177 0
M  V30 2177 H 226.743 -0.913802 3.90449 0
M  V30 2178 H 223.333 0.475192 4.25958 0
M  V30 2179 H 227.517 1.30033 4.78963 0
M  V30 2180 H 222.773 2.46006 5.59724 0
M  V30 2181 H 226.947 3.28419 6.14096 0
M  V30 2182 H 224.574 3.86992 6.54325 0
M  V30 2183 N 226.149 -1.5696 0.141893 0
M  V30 2184 C 227.374 -2.00754 -0.520838 0
M  V30 2185 C 227.799 -1.0213 -1.57959 0
M  V30 2186 O 227.157 0.00371324 -1.813 0
M  V30 2187 C 227.205 -3.43318 -1.10294 0
M  V30 2188 O 226.309 -3.47679 -2.21795 0
M  V30 2189 H 225.65 -0.651564 -0.127908 0
M  V30 2190 H 228.18 -2.03221 0.23712 0
M  V30 2191 H 228.19 -3.82012 -1.43287 0
M  V30 2192 H 226.865 -4.14608 -0.327574 0
M  V30 2193 H 225.442 -3.20824 -1.9007 0
M  V30 2194 N 227.627 0.131896 -1.57047 0
M  V30 2195 C 228.59 1.14638 -1.98471 0
M  V30 2196 C 229.59 1.35029 -0.873148 0
M  V30 2197 O 230.78 1.31764 -1.13946 0
M  V30 2198 C 227.912 2.50358 -2.31373 0
M  V30 2199 H 229.105 0.79064 -2.8929 0
M  V30 2200 H 226.658 0.375761 -1.51716 0
M  V30 2201 H 227.393 2.90876 -1.43393 0
M  V30 2202 H 227.178 2.36915 -3.12432 0
M  V30 2203 H 228.668 3.23395 -2.64207 0
M  V30 2204 N 229.106 1.52395 0.401703 0
M  V30 2205 C 230.039 1.70999 1.51111 0
M  V30 2206 C 231.017 0.55765 1.52738 0
M  V30 2207 O 232.201 0.785912 1.71335 0
M  V30 2208 C 229.328 1.75607 2.8962 0
M  V30 2209 C 228.374 2.97227 3.05873 0
M  V30 2210 S 229.207 4.57439 2.78405 0
M  V30 2211 C 230.363 4.64844 4.19131 0
M  V30 2212 H 230.596 2.6483 1.35102 0
M  V30 2213 H 228.129 1.42527 0.593762 0
M  V30 2214 H 230.087 1.78947 3.69443 0
M  V30 2215 H 228.748 0.828914 3.02965 0
M  V30 2216 H 227.941 2.96955 4.07227 0
M  V30 2217 H 227.543 2.91813 2.33925 0
M  V30 2218 H 229.835 4.42677 5.12877 0
M  V30 2219 H 230.778 5.66807 4.24424 0
M  V30 2220 H 231.186 3.93804 4.04448 0
M  V30 2221 N 230.584 -0.659388 1.43143 0
M  V30 2222 C 231.832 -1.41654 1.44147 0
M  V30 2223 C 232.153 -1.94893 0.0645739 0
M  V30 2224 O 231.423 -1.74044 -0.899198 0
M  V30 2225 H 230.003 -0.525708 0.530697 0
M  V30 2226 H 232.665 -0.778097 1.78694 0
M  V30 2227 H 231.761 -2.26195 2.1504 0
M  V30 2228 N 232.062 -1.29571 -0.897171 0
M  V30 2229 C 233.309 -1.17689 -1.6479 0
M  V30 2230 C 233.637 0.27107 -1.92602 0
M  V30 2231 O 232.892 1.21193 -1.53658 0
M  V30 2232 C 233.191 -1.9382 -3.00281 0
M  V30 2233 C 232.857 -3.43522 -2.92068 0
M  V30 2234 C 231.519 -3.84348 -2.89535 0
M  V30 2235 C 233.871 -4.38906 -2.81089 0
M  V30 2236 C 231.199 -5.18869 -2.73846 0
M  V30 2237 C 233.551 -5.73521 -2.66939 0
M  V30 2238 C 232.215 -6.13601 -2.62774 0
M  V30 2239 H 231.485 -0.430654 -0.603008 0
M  V30 2240 H 234.132 -1.60536 -1.04404 0
M  V30 2241 H 232.437 -1.4357 -3.64547 0
M  V30 2242 H 234.134 -1.82028 -3.57305 0
M  V30 2243 H 230.724 -3.11072 -2.94842 0
M  V30 2244 H 234.908 -4.08315 -2.82121 0
M  V30 2245 H 230.164 -5.4903 -2.69027 0
M  V30 2246 H 234.338 -6.47078 -2.57416 0
M  V30 2247 H 231.965 -7.17786 -2.50375 0
M  V30 2248 N 233.54 1.10788 -1.12088 0
M  V30 2249 C 234.472 2.16816 -0.743213 0
M  V30 2250 C 235.485 1.6119 0.228412 0
M  V30 2251 O 236.674 1.78497 0.0102931 0
M  V30 2252 C 233.774 3.38809 -0.0787313 0
M  V30 2253 C 232.947 4.23885 -1.0789 0
M  V30 2254 C 232.006 5.24334 -0.442713 0
M  V30 2255 O 231.032 5.58497 -1.09864 0
M  V30 2256 N 232.234 5.75079 0.791457 0
M  V30 2257 H 234.999 2.49825 -1.65552 0
M  V30 2258 H 232.56 1.26373 -1.012 0
M  V30 2259 H 234.552 4.03107 0.358766 0
M  V30 2260 H 233.122 3.03805 0.736275 0
M  V30 2261 H 232.342 3.55939 -1.69414 0
M  V30 2262 H 233.63 4.77562 -1.75533 0
M  V30 2263 H 233.028 5.49517 1.3434 0
M  V30 2264 H 231.585 6.4118 1.17183 0
M  V30 2265 N 235.018 0.912232 1.28515 0
M  V30 2266 C 236.434 0.610159 1.47476 0
M  V30 2267 C 236.634 -0.844955 1.82928 0
M  V30 2268 O 235.69 -1.62416 1.93332 0
M  V30 2269 C 237.003 1.54675 2.57868 0
M  V30 2270 C 238.551 1.55331 2.71738 0
M  V30 2271 C 239.026 2.47649 3.85272 0
M  V30 2272 N 240.517 2.45767 3.92623 0
M  V30 2273 C 241.252 3.13896 4.79851 0
M  V30 2274 N 240.748 3.9135 5.71679 0
M  V30 2275 N 242.541 3.02991 4.73448 0
M  V30 2276 H 234.692 1.85318 1.03783 0
M  V30 2277 H 236.955 0.794777 0.516753 0
M  V30 2278 H 236.661 2.5841 2.38574 0
M  V30 2279 H 236.535 1.27671 3.54937 0
M  V30 2280 H 238.922 0.52335 2.90422 0
M  V30 2281 H 239.003 1.86378 1.75205 0
M  V30 2282 H 238.647 3.50745 3.67342 0
M  V30 2283 H 238.577 2.13904 4.81199 0
M  V30 2284 H 241.068 1.89503 3.26951 0
M  V30 2285 H 241.381 4.40359 6.35062 0
M  V30 2286 H 239.726 3.95455 5.71524 0
M  V30 2287 H 242.917 2.41987 4.007 0
M  V30 2288 H 243.09 3.5636 5.41213 0
M  V30 2289 N 236.496 -1.42363 0.676048 0
M  V30 2290 C 237.912 -1.55811 0.345718 0
M  V30 2291 C 238.112 -1.65544 -1.14879 0
M  V30 2292 O 237.168 -1.62306 -1.93424 0
M  V30 2293 C 238.481 -2.80746 1.07713 0
M  V30 2294 C 240.029 -2.9452 1.05958 0
M  V30 2295 C 240.504 -4.22318 1.77233 0
M  V30 2296 N 241.995 -4.29233 1.74108 0
M  V30 2297 C 242.73 -5.26935 2.26113 0
M  V30 2298 N 242.226 -6.30783 2.86505 0
M  V30 2299 N 244.019 -5.18741 2.1648 0
M  V30 2300 H 236.17 -1.34289 1.6456 0
M  V30 2301 H 238.433 -0.646506 0.69335 0
M  V30 2302 H 238.139 -2.79696 2.13221 0
M  V30 2303 H 238.013 -3.71676 0.64316 0
M  V30 2304 H 240.4 -2.95097 0.0128255 0
M  V30 2305 H 240.481 -2.04817 1.53244 0
M  V30 2306 H 240.125 -4.22502 2.81877 0
M  V30 2307 H 240.055 -5.10958 1.27396 0
M  V30 2308 H 242.546 -3.54814 1.30059 0
M  V30 2309 H 242.859 -7.01691 3.23805 0
M  V30 2310 H 241.204 -6.31341 2.90575 0
M  V30 2311 H 244.395 -4.36533 1.68987 0
M  V30 2312 H 244.568 -5.94721 2.57316 0
M  V30 2313 N 237.974 -0.419461 -1.51915 0
M  V30 2314 C 239.221 0.152939 -2.01922 0
M  V30 2315 C 239.549 1.4426 -1.30458 0
M  V30 2316 O 238.804 1.91514 -0.402593 0
M  V30 2317 C 239.103 0.437067 -3.54717 0
M  V30 2318 C 238.769 -0.764632 -4.44369 0
M  V30 2319 C 237.431 -1.09423 -4.68594 0
M  V30 2320 C 239.783 -1.56713 -4.97082 0
M  V30 2321 C 237.111 -2.22732 -5.42777 0
M  V30 2322 C 239.463 -2.69107 -5.72507 0
M  V30 2323 C 238.127 -3.02541 -5.95 0
M  V30 2324 H 237.397 0.0559644 -0.738884 0
M  V30 2325 H 240.044 -0.562998 -1.83037 0
M  V30 2326 H 238.349 1.23469 -3.71837 0
M  V30 2327 H 240.046 0.893083 -3.90928 0
M  V30 2328 H 236.636 -0.497775 -4.257 0
M  V30 2329 H 240.82 -1.32571 -4.78266 0
M  V30 2330 H 236.076 -2.48971 -5.58411 0
M  V30 2331 H 240.25 -3.31671 -6.12346 0
M  V30 2332 H 237.877 -3.90457 -6.52264 0
M  V30 2333 N 239.452 1.56882 -0.150215 0
M  V30 2334 C 240.699 1.96228 0.500093 0
M  V30 2335 C 241.027 1.03522 1.64661 0
M  V30 2336 O 240.282 0.0650683 1.95592 0
M  V30 2337 C 240.581 3.41801 1.04437 0
M  V30 2338 C 240.247 4.50897 0.0159671 0
M  V30 2339 C 238.909 4.8046 -0.266731 0
M  V30 2340 C 241.261 5.16703 -0.683192 0
M  V30 2341 C 238.589 5.73135 -1.25434 0
M  V30 2342 C 240.941 6.10441 -1.65964 0
M  V30 2343 C 239.605 6.38382 -1.95 0
M  V30 2344 H 238.875 0.718048 0.182997 0
M  V30 2345 H 241.522 1.90019 -0.237724 0
M  V30 2346 H 239.827 3.44857 1.85959 0
M  V30 2347 H 241.524 3.69573 1.55618 0
M  V30 2348 H 238.114 4.27891 0.246485 0
M  V30 2349 H 242.298 4.93993 -0.477983 0
M  V30 2350 H 237.554 5.93074 -1.48571 0
M  V30 2351 H 241.728 6.60507 -2.20689 0
M  V30 2352 H 239.355 7.09996 -2.71679 0
M  V30 2353 N 240.93 -0.123565 1.57115 0
M  V30 2354 C 241.88 -1.1575 1.96433 0
M  V30 2355 C 242.864 -1.37313 0.838686 0
M  V30 2356 O 244.056 -1.38482 1.10235 0
M  V30 2357 C 241.185 -2.48526 2.36833 0
M  V30 2358 C 240.271 -2.30457 3.5602 0
M  V30 2359 N 240.662 -1.8219 4.71848 0
M  V30 2360 C 238.96 -2.61129 3.61563 0
M  V30 2361 C 239.661 -1.77721 5.53886 0
M  V30 2362 N 238.637 -2.21899 4.96248 0
M  V30 2363 H 242.439 -0.776797 2.83449 0
M  V30 2364 H 239.953 -0.331364 1.58983 0
M  V30 2365 H 241.95 -3.233 2.63216 0
M  V30 2366 H 240.61 -2.87358 1.5118 0
M  V30 2367 H 241.621 -1.51805 4.95152 0
M  V30 2368 H 238.298 -3.03678 2.86507 0
M  V30 2369 H 239.688 -1.41697 6.56789 0
M  V30 2370 N 242.408 -1.52605 -0.393616 0
M  V30 2371 C 243.34 -1.73303 -1.49995 0
M  V30 2372 C 244.353 -0.613473 -1.50799 0
M  V30 2373 O 245.542 -0.889049 -1.54784 0
M  V30 2374 C 242.642 -1.77245 -2.88855 0
M  V30 2375 C 241.815 -3.06483 -3.12069 0
M  V30 2376 C 240.874 -3.02033 -4.30886 0
M  V30 2377 O 239.9 -3.75907 -4.27414 0
M  V30 2378 N 241.102 -2.20897 -5.36828 0
M  V30 2379 H 243.867 -2.68756 -1.32629 0
M  V30 2380 H 241.428 -1.51036 -0.583083 0
M  V30 2381 H 243.42 -1.7178 -3.66434 0
M  V30 2382 H 241.99 -0.891993 -2.99603 0
M  V30 2383 H 241.21 -3.25474 -2.22396 0
M  V30 2384 H 242.498 -3.91947 -3.2443 0
M  V30 2385 H 241.896 -1.60336 -5.42502 0
M  V30 2386 H 240.453 -2.21275 -6.13091 0
M  V30 2387 N 243.887 0.651787 -1.4349 0
M  V30 2388 C 245.164 1.40909 -1.35661 0
M  V30 2389 C 245.544 2.11099 -0.00511733 0
M  V30 2390 O 244.892 2.04892 1.0115 0
M  V30 2391 C 245.102 2.3926 -2.54078 0
M  V30 2392 C 246.45 3.03217 -2.97228 0
M  V30 2393 O 247.474 2.49588 -2.54135 0
M  V30 2394 O 246.333 4.00455 -3.71885 0
M  V30 2395 H 243.427 0.629625 -0.536191 0
M  V30 2396 H 245.973 0.678575 -1.55542 0
M  V30 2397 H 244.745 1.86352 -3.44076 0
M  V30 2398 H 244.368 3.1976 -2.36303 0
M  V30 2399 N 245.365 1.30045 0.890287 0
M  V30 2400 C 246.297 1.11786 2.00091 0
M  V30 2401 C 247.31 0.0626307 1.62679 0
M  V30 2402 O 248.499 0.308112 1.75821 0
M  V30 2403 C 245.599 0.681527 3.31977 0
M  V30 2404 C 244.772 1.81735 3.97858 0
M  V30 2405 C 243.831 1.37045 5.08041 0
M  V30 2406 O 242.857 2.07677 5.29961 0
M  V30 2407 N 244.059 0.246525 5.79976 0
M  V30 2408 H 246.824 2.07441 2.16306 0
M  V30 2409 H 244.385 1.2211 1.06305 0
M  V30 2410 H 246.377 0.365675 4.03045 0
M  V30 2411 H 244.947 -0.182828 3.12065 0
M  V30 2412 H 244.167 2.30159 3.20032 0
M  V30 2413 H 245.455 2.57865 4.38615 0
M  V30 2414 H 244.853 -0.34215 5.64664 0
M  V30 2415 H 243.41 -0.00990438 6.51799 0
M  V30 2416 N 246.843 -1.10192 1.12674 0
M  V30 2417 C 248.068 -1.86523 0.906853 0
M  V30 2418 C 248.493 -1.80221 -0.538711 0
M  V30 2419 O 247.851 -1.17396 -1.38158 0
M  V30 2420 C 247.899 -3.32758 1.3894 0
M  V30 2421 O 247.003 -4.08449 0.5695 0
M  V30 2422 H 246.344 -0.578678 0.325619 0
M  V30 2423 H 248.874 -1.39203 1.49946 0
M  V30 2424 H 248.884 -3.83608 1.38958 0
M  V30 2425 H 247.559 -3.36661 2.44197 0
M  V30 2426 H 246.136 -3.67427 0.636528 0
M  V30 2427 N 248.321 -0.919034 -1.28029 0
M  V30 2428 C 249.732 -0.600735 -1.76771 0
M  V30 2429 C 250.083 0.884024 -1.75156 0
M  V30 2430 O 249.208 1.69163 -1.34956 0
M  V30 2431 C 249.803 -1.08372 -3.21 0
M  V30 2432 C 248.362 -0.816248 -3.67443 0
M  V30 2433 C 247.509 -1.24742 -2.47658 0
M  V30 2434 H 250.46 -1.09974 -1.14418 0
M  V30 2435 H 250.481 -0.427512 -3.78091 0
M  V30 2436 H 249.993 -2.16437 -3.22144 0
M  V30 2437 H 248.094 0.250968 -3.71754 0
M  V30 2438 H 248.207 -1.4277 -4.57333 0
M  V30 2439 H 246.571 -0.666083 -2.45836 0
M  V30 2440 H 247.354 -2.33653 -2.51518 0
M  V30 2441 N 249.799 1.42003 -0.683588 0
M  V30 2442 C 251.045 2.01712 -0.209825 0
M  V30 2443 C 251.378 1.53968 1.18353 0
M  V30 2444 O 250.653 0.745661 1.79639 0
M  V30 2445 C 250.936 3.59202 -0.254197 0
M  V30 2446 C 250.789 4.17102 -1.68363 0
M  V30 2447 C 252.108 4.38344 0.392709 0
M  V30 2448 H 249.227 0.732891 -0.0777189 0
M  V30 2449 H 251.869 1.68909 -0.87004 0
M  V30 2450 H 250.019 3.87278 0.307954 0
M  V30 2451 H 251.691 3.99946 -2.29871 0
M  V30 2452 H 249.934 3.72597 -2.22157 0
M  V30 2453 H 250.605 5.26249 -1.6663 0
M  V30 2454 H 253.081 4.16011 -0.0859162 0
M  V30 2455 H 251.957 5.47901 0.331063 0
M  V30 2456 H 252.218 4.16887 1.47164 0
M  V30 2457 N 251.277 0.427512 1.51691 0
M  V30 2458 C 252.525 -0.141948 2.01601 0
M  V30 2459 C 252.846 -1.44067 1.31414 0
M  V30 2460 O 252.116 -1.90763 0.445658 0
M  V30 2461 H 250.696 -0.0554468 0.744939 0
M  V30 2462 H 253.358 0.567968 1.86441 0
M  V30 2463 H 252.454 -0.324913 3.10404 0
M  V30 2464 N 252.755 -1.56801 0.158532 0
M  V30 2465 C 254.003 -1.96102 -0.488712 0
M  V30 2466 C 254.324 -1.04498 -1.64636 0
M  V30 2467 O 253.594 -0.108783 -1.95598 0
M  V30 2468 H 252.174 -0.724102 -0.183535 0
M  V30 2469 H 254.836 -1.93457 0.236728 0
M  V30 2470 H 253.932 -3.00097 -0.857219 0
M  V30 2471 N 254.233 0.115231 -1.57178 0
M  V30 2472 C 255.163 1.1423 -2.03651 0
M  V30 2473 C 256.144 1.42967 -0.921655 0
M  V30 2474 O 257.329 1.53343 -1.19162 0
M  V30 2475 C 254.459 2.4675 -2.44401 0
M  V30 2476 C 253.413 2.32467 -3.59365 0
M  V30 2477 C 252.739 3.69984 -3.86026 0
M  V30 2478 C 254.039 1.78203 -4.90959 0
M  V30 2479 H 255.733 0.755749 -2.89705 0
M  V30 2480 H 253.279 0.362093 -1.39373 0
M  V30 2481 H 255.232 3.18854 -2.75517 0
M  V30 2482 H 253.956 2.87302 -1.55322 0
M  V30 2483 H 252.615 1.62811 -3.28463 0
M  V30 2484 H 252.263 4.08028 -2.94147 0
M  V30 2485 H 251.963 3.61279 -4.63412 0
M  V30 2486 H 253.487 4.43587 -4.19599 0
M  V30 2487 H 254.901 2.40128 -5.20587 0
M  V30 2488 H 253.298 1.8031 -5.72371 0
M  V30 2489 H 254.368 0.739876 -4.79222 0
M  V30 2490 N 255.711 1.52812 0.385517 0
M  V30 2491 C 256.939 1.71907 1.15133 0
M  V30 2492 C 257.354 0.439004 1.83625 0
M  V30 2493 O 256.711 -0.586765 1.7281 0
M  V30 2494 C 256.762 2.87099 2.19673 0
M  V30 2495 O 256.483 4.10151 1.53973 0
M  V30 2496 C 257.984 3.17902 3.08955 0
M  V30 2497 H 255.204 0.575479 0.345057 0
M  V30 2498 H 257.748 1.99476 0.45052 0
M  V30 2499 H 255.903 2.61982 2.85384 0
M  V30 2500 H 256.317 4.74514 2.23465 0
M  V30 2501 H 257.791 4.01959 3.7833 0
M  V30 2502 H 258.268 2.3243 3.72657 0
M  V30 2503 H 258.874 3.44871 2.48885 0
M  V30 2504 N 257.189 -0.644168 1.43834 0
M  V30 2505 C 258.152 -1.73857 1.49353 0
M  V30 2506 C 259.152 -1.56315 0.377112 0
M  V30 2507 O 260.342 -1.62048 0.639226 0
M  V30 2508 C 257.474 -3.12819 1.35488 0
M  V30 2509 H 258.667 -1.70342 2.46827 0
M  V30 2510 H 256.22 -0.856652 1.30733 0
M  V30 2511 H 256.955 -3.2194 0.390569 0
M  V30 2512 H 256.74 -3.26958 2.16428 0
M  V30 2513 H 258.23 -3.92606 1.42302 0
M  V30 2514 N 258.668 -1.30515 -0.883378 0
M  V30 2515 C 259.578 -1.18959 -2.02203 0
M  V30 2516 C 260.594 -0.109172 -1.73657 0
M  V30 2517 O 261.77 -0.324413 -1.9877 0
M  V30 2518 C 258.835 -0.883871 -3.35244 0
M  V30 2519 C 257.896 -2.04982 -3.77201 0
M  V30 2520 C 257.129 -1.75859 -5.03894 0
M  V30 2521 O 257.352 -0.687276 -5.66244 0
M  V30 2522 O 256.286 -2.61146 -5.42297 0
M  V30 2523 H 260.112 -2.14616 -2.1488 0
M  V30 2524 H 257.697 -1.10124 -1.0096 0
M  V30 2525 H 259.579 -0.728644 -4.15053 0
M  V30 2526 H 258.254 0.0427798 -3.23672 0
M  V30 2527 H 257.161 -2.26038 -2.9809 0
M  V30 2528 H 258.494 -2.95825 -3.93381 0
M  V30 2529 N 260.146 1.09593 -1.13257 0
M  V30 2530 C 261.423 1.78293 -0.804432 0
M  V30 2531 C 261.803 1.99004 0.70431 0
M  V30 2532 O 261.151 1.59007 1.641 0
M  V30 2533 C 261.361 3.10707 -1.5894 0
M  V30 2534 C 262.709 3.85443 -1.78099 0
M  V30 2535 O 263.733 3.20454 -1.55525 0
M  V30 2536 O 262.592 5.02108 -2.15753 0
M  V30 2537 H 259.686 0.773156 -0.293528 0
M  V30 2538 H 262.232 1.16164 -1.23709 0
M  V30 2539 H 261.004 2.91106 -2.61482 0
M  V30 2540 H 260.627 3.80558 -1.15157 0
M  V30 2541 N 261.624 0.925811 1.2754 0
M  V30 2542 C 262.873 0.561084 1.93739 0
M  V30 2543 C 263.186 -0.901685 1.73577 0
M  V30 2544 O 264.392 -1.37511 2.34101 0
M  V30 2545 C 262.848 0.952668 3.47062 0
M  V30 2546 C 262.456 2.43599 3.75983 0
M  V30 2547 C 264.2 0.659103 4.19352 0
M  V30 2548 C 262.107 2.76707 5.22673 0
M  V30 2549 H 261.037 0.206122 0.725279 0
M  V30 2550 H 263.688 1.12637 1.44863 0
M  V30 2551 H 262.07 0.316053 3.94737 0
M  V30 2552 H 263.244 3.12035 3.39073 0
M  V30 2553 H 261.559 2.70125 3.16893 0
M  V30 2554 H 264.156 0.882985 5.27359 0
M  V30 2555 H 264.499 -0.403607 4.14339 0
M  V30 2556 H 265.032 1.25473 3.77494 0
M  V30 2557 H 261.771 3.8188 5.32774 0
M  V30 2558 H 261.291 2.12919 5.60737 0
M  V30 2559 H 262.97 2.6435 5.90532 0
M  V30 2560 N 263.102 -1.41638 0.69111 0
M  V30 2561 C 264.012 -2.34588 0.0233487 0
M  V30 2562 C 265.028 -1.55987 -0.770984 0
M  V30 2563 O 266.204 -1.88486 -0.709569 0
M  V30 2564 C 263.269 -3.34684 -0.904851 0
M  V30 2565 C 262.33 -4.29176 -0.103225 0
M  V30 2566 C 261.563 -5.2449 -0.987216 0
M  V30 2567 O 261.786 -5.2514 -2.22674 0
M  V30 2568 O 260.72 -6.00295 -0.439281 0
M  V30 2569 H 264.546 -2.93261 0.789416 0
M  V30 2570 H 262.131 -1.42417 0.45142 0
M  V30 2571 H 264.013 -3.96133 -1.43724 0
M  V30 2572 H 262.688 -2.78461 -1.65049 0
M  V30 2573 H 261.595 -3.71089 0.473655 0
M  V30 2574 H 262.928 -4.88484 0.60365 0
M  V30 2575 N 264.58 -0.43555 -1.51462 0
M  V30 2576 C 265.527 0.376797 -2.27703 0
M  V30 2577 C 266.497 1.01838 -1.31219 0
M  V30 2578 O 267.682 1.03762 -1.60119 0
M  V30 2579 C 264.822 1.47301 -3.12084 0
M  V30 2580 C 263.935 0.849744 -4.2356 0
M  V30 2581 C 263.07 1.92086 -4.95254 0
M  V30 2582 C 262.109 1.27593 -5.98654 0
M  V30 2583 N 261.246 2.28833 -6.63762 0
M  V30 2584 H 266.086 -0.279734 -2.96684 0
M  V30 2585 H 263.623 -0.149795 -1.46335 0
M  V30 2586 H 265.581 2.11984 -3.59331 0
M  V30 2587 H 264.211 2.0992 -2.45221 0
M  V30 2588 H 263.263 0.0912529 -3.80291 0
M  V30 2589 H 264.575 0.338878 -4.97648 0
M  V30 2590 H 263.729 2.64435 -5.46039 0
M  V30 2591 H 262.468 2.46545 -4.20793 0
M  V30 2592 H 261.473 0.537893 -5.47162 0
M  V30 2593 H 262.698 0.738693 -6.7507 0
M  V30 2594 H 260.644 2.82375 -5.92115 0
M  V30 2595 H 260.561 1.82632 -7.33608 0
M  V30 2596 H 261.829 3.00671 -7.19178 0
M  V30 2597 N 266.058 1.56714 -0.166846 0
M  V30 2598 C 267.021 2.16539 0.751232 0
M  V30 2599 C 268.021 1.11228 1.16125 0
M  V30 2600 O 269.211 1.36765 1.07894 0
M  V30 2601 C 266.343 2.74462 2.02196 0
M  V30 2602 H 267.536 2.99013 0.230499 0
M  V30 2603 H 265.089 1.56081 0.0826982 0
M  V30 2604 H 265.824 1.95709 2.58589 0
M  V30 2605 H 265.609 3.51527 1.73698 0
M  V30 2606 H 267.099 3.20489 2.67725 0
M  V30 2607 N 267.536 -0.106894 1.57237 0
M  V30 2608 C 268.952 -0.46078 1.52804 0
M  V30 2609 C 269.152 -1.81184 0.881746 0
M  V30 2610 O 268.208 -2.48102 0.469224 0
M  V30 2611 C 269.521 -0.434127 2.9755 0
M  V30 2612 C 271.069 -0.516821 3.08704 0
M  V30 2613 C 271.544 -0.520436 4.55033 0
M  V30 2614 N 273.035 -0.58153 4.59535 0
M  V30 2615 C 273.77 -0.605973 5.70189 0
M  V30 2616 N 273.266 -0.587331 6.90306 0
M  V30 2617 N 275.059 -0.649895 5.5833 0
M  V30 2618 H 267.21 0.778203 1.9763 0
M  V30 2619 H 269.473 0.288403 0.903066 0
M  V30 2620 H 269.179 0.491197 3.48253 0
M  V30 2621 H 269.053 -1.25748 3.55622 0
M  V30 2622 H 271.44 -1.43256 2.57995 0
M  V30 2623 H 271.521 0.334449 2.53604 0
M  V30 2624 H 271.165 0.391313 5.0639 0
M  V30 2625 H 271.095 -1.38876 5.07958 0
M  V30 2626 H 273.586 -0.60161 3.73081 0
M  V30 2627 H 273.899 -0.60894 7.70397 0
M  V30 2628 H 272.244 -0.554564 6.92784 0
M  V30 2629 H 275.435 -0.661907 4.63397 0
M  V30 2630 H 275.608 -0.665476 6.44574 0
M  V30 2631 N 269.014 -1.53014 -0.377408 0
M  V30 2632 C 269.946 -1.74884 -1.48149 0
M  V30 2633 C 270.959 -0.629433 -1.5014 0
M  V30 2634 O 272.148 -0.905416 -1.53833 0
M  V30 2635 C 269.248 -1.80299 -2.86959 0
M  V30 2636 C 268.421 -3.09776 -3.08801 0
M  V30 2637 C 267.48 -3.06586 -4.27658 0
M  V30 2638 O 266.506 -3.80419 -4.23403 0
M  V30 2639 N 267.708 -2.26578 -5.34455 0
M  V30 2640 H 270.473 -2.70147 -1.29771 0
M  V30 2641 H 268.034 -1.51646 -0.56703 0
M  V30 2642 H 270.026 -1.75657 -3.64591 0
M  V30 2643 H 268.596 -0.92372 -2.98641 0
M  V30 2644 H 267.816 -3.27815 -2.18931 0
M  V30 2645 H 269.104 -3.95366 -3.20255 0
M  V30 2646 H 268.502 -1.66081 -5.40771 0
M  V30 2647 H 267.059 -2.27766 -6.10709 0
M  V30 2648 N 270.492 0.636531 -1.44174 0
M  V30 2649 C 271.455 1.73063 -1.50273 0
M  V30 2650 C 272.455 1.56113 -0.385397 0
M  V30 2651 O 273.645 1.61707 -0.64781 0
M  V30 2652 C 270.777 3.12096 -1.37145 0
M  V30 2653 H 271.97 1.69031 -2.47727 0
M  V30 2654 H 269.523 0.849706 -1.31186 0
M  V30 2655 H 270.258 3.21728 -0.407636 0
M  V30 2656 H 270.043 3.25805 -2.18159 0
M  V30 2657 H 271.533 3.91846 -1.44382 0
M  V30 2658 N 271.97 1.30982 0.876444 0
M  V30 2659 C 272.917 1.18085 1.98304 0
M  V30 2660 C 273.887 0.0682263 1.6596 0
M  V30 2661 O 275.072 0.239937 1.89285 0
M  V30 2662 C 272.212 0.887475 3.33493 0
M  V30 2663 C 271.325 2.08281 3.78475 0
M  V30 2664 C 270.46 1.72678 5.0235 0
M  V30 2665 C 269.499 2.88657 5.39762 0
M  V30 2666 N 268.636 2.53292 6.54819 0
M  V30 2667 H 273.476 2.1275 2.08666 0
M  V30 2668 H 271.013 1.05839 1.02159 0
M  V30 2669 H 272.971 0.697961 4.1132 0
M  V30 2670 H 271.601 -0.022315 3.22792 0
M  V30 2671 H 270.653 2.3833 2.96484 0
M  V30 2672 H 271.965 2.95108 4.02135 0
M  V30 2673 H 271.119 1.50151 5.87826 0
M  V30 2674 H 269.858 0.830327 4.8058 0
M  V30 2675 H 268.863 3.1184 4.52809 0
M  V30 2676 H 270.088 3.79002 5.63502 0
M  V30 2677 H 268.034 1.66163 6.34607 0
M  V30 2678 H 267.951 3.3365 6.7839 0
M  V30 2679 H 269.219 2.34143 7.43503 0
M  V30 2680 N 273.449 -1.08991 1.13837 0
M  V30 2681 C 274.412 -2.13925 0.822715 0
M  V30 2682 C 275.412 -1.599 -0.1699 0
M  V30 2683 O 276.602 -1.74104 0.0577251 0
M  V30 2684 C 273.734 -3.40155 0.225318 0
M  V30 2685 H 274.927 -2.43358 1.75262 0
M  V30 2686 H 272.48 -1.24603 0.943594 0
M  V30 2687 H 273.215 -3.16352 -0.713594 0
M  V30 2688 H 273 -3.80661 0.940193 0
M  V30 2689 H 274.49 -4.17594 0.0214784 0
M  V30 2690 N 274.927 -0.932562 -1.27047 0
M  V30 2691 C 276.343 -0.633544 -1.46487 0
M  V30 2692 C 276.543 0.815746 -1.84249 0
M  V30 2693 O 275.599 1.59319 -1.95892 0
M  V30 2694 C 276.912 -1.58758 -2.55375 0
M  V30 2695 C 278.46 -1.59634 -2.69232 0
M  V30 2696 C 278.935 -2.53747 -3.81283 0
M  V30 2697 N 280.426 -2.51982 -3.88664 0
M  V30 2698 C 281.161 -3.21491 -4.74796 0
M  V30 2699 N 280.657 -4.00395 -5.65381 0
M  V30 2700 N 282.45 -3.10485 -4.68568 0
M  V30 2701 H 274.601 -1.86946 -1.00821 0
M  V30 2702 H 276.864 -0.802897 -0.504044 0
M  V30 2703 H 276.57 -2.62172 -2.34432 0
M  V30 2704 H 276.444 -1.33301 -3.52861 0
M  V30 2705 H 278.831 -0.569488 -2.89553 0
M  V30 2706 H 278.912 -1.89142 -1.72218 0
M  V30 2707 H 278.556 -3.56545 -3.61715 0
M  V30 2708 H 278.486 -2.21532 -4.77735 0
M  V30 2709 H 280.977 -1.94681 -3.23895 0
M  V30 2710 H 281.29 -4.50406 -6.27976 0
M  V30 2711 H 279.635 -4.04498 -5.65161 0
M  V30 2712 H 282.826 -2.48331 -3.96799 0
M  V30 2713 H 282.999 -3.64925 -5.35475 0
M  V30 2714 N 276.405 1.4127 -0.698611 0
M  V30 2715 C 277.816 1.84187 -0.305289 0
M  V30 2716 C 278.167 1.58449 1.15708 0
M  V30 2717 O 277.292 1.05651 1.88856 0
M  V30 2718 C 277.887 3.3435 -0.547314 0
M  V30 2719 C 276.446 3.75826 -0.207878 0
M  V30 2720 C 275.593 2.64647 -0.828099 0
M  V30 2721 H 278.544 1.30778 -0.89904 0
M  V30 2722 H 278.565 3.8001 0.192998 0
M  V30 2723 H 278.077 3.53051 -1.61172 0
M  V30 2724 H 276.178 3.62725 0.852143 0
M  V30 2725 H 276.291 4.74462 -0.665021 0
M  V30 2726 H 274.655 2.53395 -0.257458 0
M  V30 2727 H 275.438 2.86165 -1.89643 0
M  V30 2728 N 277.883 0.443576 1.51229 0
M  V30 2729 C 278.793 -0.370721 2.31652 0
M  V30 2730 C 279.809 -1.02186 1.40833 0
M  V30 2731 O 280.985 -1.01586 1.73903 0
M  V30 2732 C 278.05 -1.45376 3.14749 0
M  V30 2733 C 277.111 -0.822099 4.21355 0
M  V30 2734 C 276.344 -1.85353 5.0048 0
M  V30 2735 O 276.567 -3.07656 4.80316 0
M  V30 2736 O 275.501 -1.4406 5.84406 0
M  V30 2737 H 279.327 0.286002 3.0235 0
M  V30 2738 H 276.912 0.20598 1.47973 0
M  V30 2739 H 278.794 -2.08173 3.66391 0
M  V30 2740 H 277.469 -2.09445 2.46809 0
M  V30 2741 H 276.376 -0.155909 3.73775 0
M  V30 2742 H 277.709 -0.224797 4.91686 0
M  V30 2743 N 279.361 -1.56624 0.175154 0
M  V30 2744 C 280.309 -2.19468 -0.770495 0
M  V30 2745 C 281.303 -1.15985 -1.23466 0
M  V30 2746 O 282.509 -1.34176 -1.19987 0
M  V30 2747 H 278.884 -0.703095 -0.266761 0
M  V30 2748 H 280.855 -2.97613 -0.216542 0
M  V30 2749 C 279.604 -2.85264 -1.98796 0
M  V30 2750 H 278.927 -3.64623 -1.63983 0
M  V30 2751 H 280.367 -3.327 -2.62843 0
M  V30 2752 C 278.826 -1.85239 -2.81404 0
M  V30 2753 O 279.356 -1.34024 -3.78682 0
M  V30 2754 N 277.562 -1.53911 -2.46495 0
M  V30 2755 H 277.109 -1.95751 -1.67449 0
M  V30 2756 H 277.067 -0.872382 -3.02054 0
M  V30 2757 N 280.839 0.0985539 -1.57292 0
M  V30 2758 C 281.786 1.11981 -2.01814 0
M  V30 2759 C 282.756 1.39999 -0.89384 0
M  V30 2760 O 283.941 1.5152 -1.15958 0
M  V30 2761 C 281.081 2.43577 -2.44467 0
M  V30 2762 C 280.194 2.2232 -3.70402 0
M  V30 2763 C 279.329 3.4729 -4.01949 0
M  V30 2764 C 278.368 3.2128 -5.21005 0
M  V30 2765 N 277.505 4.38507 -5.48321 0
M  V30 2766 H 282.345 0.733149 -2.88841 0
M  V30 2767 H 279.882 0.350482 -1.42864 0
M  V30 2768 H 281.84 3.20373 -2.6724 0
M  V30 2769 H 280.47 2.80097 -1.60455 0
M  V30 2770 H 279.522 1.36343 -3.55126 0
M  V30 2771 H 280.834 1.99089 -4.57345 0
M  V30 2772 H 279.988 4.32495 -4.25479 0
M  V30 2773 H 278.727 3.73572 -3.13521 0
M  V30 2774 H 277.732 2.34468 -4.97298 0
M  V30 2775 H 278.957 2.96348 -6.11028 0
M  V30 2776 H 276.903 4.64871 -4.62851 0
M  V30 2777 H 276.82 4.18455 -6.29628 0
M  V30 2778 H 278.088 5.24787 -5.76385 0
M  V30 2779 N 282.317 1.53212 0.369288 0
M  V30 2780 C 283.249 1.75668 1.47219 0
M  V30 2781 C 284.262 0.637387 1.49804 0
M  V30 2782 O 285.451 0.913561 1.5335 0
M  V30 2783 C 282.551 1.81818 2.85999 0
M  V30 2784 C 281.724 3.11409 3.07153 0
M  V30 2785 C 280.783 3.08849 4.26026 0
M  V30 2786 O 279.809 3.82659 4.2138 0
M  V30 2787 N 281.011 2.29409 5.33246 0
M  V30 2788 H 283.776 2.70832 1.28337 0
M  V30 2789 H 281.337 1.51944 0.55898 0
M  V30 2790 H 283.329 1.77588 3.63655 0
M  V30 2791 H 281.899 0.939544 2.98146 0
M  V30 2792 H 281.119 3.28971 2.1719 0
M  V30 2793 H 282.407 3.97059 3.18154 0
M  V30 2794 H 281.805 1.68946 5.39883 0
M  V30 2795 H 280.362 2.31001 6.09493 0
M  V30 2796 N 283.795 -0.628877 1.44509 0
M  V30 2797 C 284.745 -1.7345 1.47983 0
M  V30 2798 C 285.729 -1.5715 0.345373 0
M  V30 2799 O 286.921 -1.66848 0.590829 0
M  V30 2800 C 284.05 -3.12143 1.42904 0
M  V30 2801 C 283.136 -3.33906 2.61472 0
M  V30 2802 N 283.527 -3.26024 3.86706 0
M  V30 2803 C 281.825 -3.64709 2.56716 0
M  V30 2804 C 282.526 -3.48536 4.65722 0
M  V30 2805 N 281.502 -3.71517 3.96832 0
M  V30 2806 H 285.304 -1.65818 2.42655 0
M  V30 2807 H 282.818 -0.831419 1.39503 0
M  V30 2808 H 284.815 -3.91433 1.43476 0
M  V30 2809 H 283.475 -3.2094 0.492717 0
M  V30 2810 H 284.486 -3.04893 4.18641 0
M  V30 2811 H 281.163 -3.80473 1.71891 0
M  V30 2812 H 282.553 -3.48016 5.74747 0
M  V30 2813 N 285.273 -1.31445 -0.869486 0
M  V30 2814 C 286.22 -1.19135 -1.97675 0
M  V30 2815 C 287.19 -0.0770266 -1.65921 0
M  V30 2816 O 288.375 -0.249972 -1.89155 0
M  V30 2817 C 285.515 -0.905149 -3.33018 0
M  V30 2818 C 284.628 -2.10285 -3.77365 0
M  V30 2819 C 283.763 -1.75339 -5.01427 0
M  V30 2820 C 282.802 -2.91515 -5.38224 0
M  V30 2821 N 281.939 -2.56762 -6.53466 0
M  V30 2822 H 286.779 -2.13853 -2.07535 0
M  V30 2823 H 284.316 -1.06379 -1.01597 0
M  V30 2824 H 286.274 -0.719765 -4.10944 0
M  V30 2825 H 284.904 0.00519624 -3.228 0
M  V30 2826 H 283.956 -2.39899 -2.95216 0
M  V30 2827 H 285.268 -2.97237 -4.00564 0
M  V30 2828 H 284.422 -1.53266 -5.87022 0
M  V30 2829 H 283.161 -0.855801 -4.80133 0
M  V30 2830 H 282.166 -3.14237 -4.51149 0
M  V30 2831 H 283.391 -3.81985 -5.61484 0
M  V30 2832 H 281.337 -1.69526 -6.33717 0
M  V30 2833 H 281.254 -3.37243 -6.76612 0
M  V30 2834 H 282.522 -2.38083 -7.42251 0
M  V30 2835 N 286.751 1.08385 -1.14413 0
M  V30 2836 C 287.683 2.1519 -0.789036 0
M  V30 2837 C 288.696 1.61638 0.19417 0
M  V30 2838 O 289.885 1.78479 -0.0275711 0
M  V30 2839 C 286.985 3.38565 -0.15058 0
M  V30 2840 C 286.158 4.21501 -1.16857 0
M  V30 2841 C 285.217 5.23277 -0.553832 0
M  V30 2842 O 284.243 5.56041 -1.21686 0
M  V30 2843 N 285.445 5.76629 0.669296 0
M  V30 2844 H 288.21 2.46257 -1.70814 0
M  V30 2845 H 285.771 1.24198 -1.03858 0
M  V30 2846 H 287.763 4.03777 0.273181 0
M  V30 2847 H 286.333 3.05299 0.671667 0
M  V30 2848 H 285.553 3.52265 -1.76926 0
M  V30 2849 H 286.841 4.73731 -1.85624 0
M  V30 2850 H 286.239 5.52243 1.22654 0
M  V30 2851 H 284.796 6.43521 1.03556 0
M  V30 2852 N 288.23 0.939286 1.26551 0
M  V30 2853 C 289.458 0.602536 1.97932 0
M  V30 2854 C 289.873 -0.82206 1.69964 0
M  V30 2855 O 289.23 -1.54789 0.966784 0
M  V30 2856 C 289.281 0.832946 3.51773 0
M  V30 2857 O 289.002 2.20151 3.78768 0
M  V30 2858 C 290.503 0.506483 4.40397 0
M  V30 2859 H 287.723 0.227248 0.631347 0
M  V30 2860 H 290.267 1.25948 1.61113 0
M  V30 2861 H 288.422 0.222644 3.8676 0
M  V30 2862 H 288.836 2.26013 4.73306 0
M  V30 2863 H 290.31 0.718333 5.47306 0
M  V30 2864 H 290.787 -0.558451 4.35635 0
M  V30 2865 H 291.393 1.09543 4.10951 0
M  V30 2866 N 289.708 -1.40897 0.706093 0
M  V30 2867 C 290.638 -2.33418 0.0620085 0
M  V30 2868 C 291.619 -1.52385 -0.755827 0
M  V30 2869 O 292.804 -1.80886 -0.706674 0
M  V30 2870 C 289.934 -3.36293 -0.867445 0
M  V30 2871 C 288.888 -4.27716 -0.155932 0
M  V30 2872 C 288.214 -5.2105 -1.20046 0
M  V30 2873 C 289.514 -5.12944 0.984149 0
M  V30 2874 H 291.208 -2.87527 0.83477 0
M  V30 2875 H 288.754 -1.38249 0.402875 0
M  V30 2876 H 290.707 -3.99949 -1.32735 0
M  V30 2877 H 289.431 -2.80556 -1.67199 0
M  V30 2878 H 288.09 -3.65498 0.284047 0
M  V30 2879 H 287.738 -4.61624 -1.99781 0
M  V30 2880 H 287.438 -5.83056 -0.729328 0
M  V30 2881 H 288.962 -5.87584 -1.66066 0
M  V30 2882 H 290.376 -5.70109 0.604048 0
M  V30 2883 H 288.773 -5.83945 1.38304 0
M  V30 2884 H 289.843 -4.49485 1.81911 0
M  V30 2885 N 291.186 -0.45159 -1.50991 0
M  V30 2886 C 292.411 0.110667 -2.07105 0
M  V30 2887 C 292.836 1.3446 -1.31538 0
M  V30 2888 O 292.194 1.77743 -0.357365 0
M  V30 2889 C 292.242 0.397238 -3.58405 0
M  V30 2890 O 291.346 1.48124 -3.84881 0
M  V30 2891 H 290.687 -0.00439271 -0.663985 0
M  V30 2892 H 293.217 -0.637026 -1.9443 0
M  V30 2893 H 293.227 0.64351 -4.02893 0
M  V30 2894 H 291.902 -0.504553 -4.12828 0
M  V30 2895 H 290.479 1.22381 -3.52246 0
M  V30 2896 N 292.664 1.56529 -0.183458 0
M  V30 2897 C 293.574 2.22144 0.754272 0
M  V30 2898 C 294.59 1.21684 1.24374 0
M  V30 2899 O 295.766 1.54385 1.29333 0
M  V30 2900 C 292.831 2.85884 1.96141 0
M  V30 2901 C 291.892 4.01579 1.51765 0
M  V30 2902 C 291.125 4.6227 2.66725 0
M  V30 2903 O 291.348 4.21865 3.83909 0
M  V30 2904 O 290.282 5.51936 2.40104 0
M  V30 2905 H 294.108 3.02861 0.225527 0
M  V30 2906 H 291.693 1.49331 0.0453032 0
M  V30 2907 H 293.575 3.26253 2.66715 0
M  V30 2908 H 292.25 2.08154 2.47899 0
M  V30 2909 H 291.157 3.65856 0.781049 0
M  V30 2910 H 292.49 4.80938 1.04686 0
M  V30 2911 N 294.142 -0.090211 1.57342 0
M  V30 2912 C 295.092 -1.11557 1.98844 0
M  V30 2913 C 296.076 -1.35503 0.867624 0
M  V30 2914 O 297.268 -1.36113 1.13148 0
M  V30 2915 C 294.397 -2.43446 2.42051 0
M  V30 2916 C 293.483 -2.22853 3.60828 0
M  V30 2917 N 293.874 -1.72141 4.75606 0
M  V30 2918 C 292.172 -2.53401 3.67021 0
M  V30 2919 C 292.873 -1.65932 5.57531 0
M  V30 2920 N 291.849 -2.11323 5.00843 0
M  V30 2921 H 295.651 -0.716499 2.85032 0
M  V30 2922 H 293.165 -0.297567 1.59651 0
M  V30 2923 H 295.162 -3.17644 2.70014 0
M  V30 2924 H 293.822 -2.84087 1.57241 0
M  V30 2925 H 294.833 -1.41268 4.98261 0
M  V30 2926 H 291.51 -2.97532 2.92884 0
M  V30 2927 H 292.9 -1.27733 6.59647 0
M  V30 2928 N 295.62 -1.53406 -0.361157 0
M  V30 2929 C 296.583 -1.79479 -1.42548 0
M  V30 2930 C 297.583 -0.665327 -1.4639 0
M  V30 2931 O 298.773 -0.933549 -1.47073 0
M  V30 2932 C 295.905 -1.92087 -2.8163 0
M  V30 2933 H 297.098 -2.74538 -1.20701 0
M  V30 2934 H 294.651 -1.4455 -0.594546 0
M  V30 2935 H 295.386 -0.991099 -3.08784 0
M  V30 2936 H 295.171 -2.74241 -2.80239 0
M  V30 2937 H 296.661 -2.13836 -3.58697 0
M  V30 2938 N 297.098 0.621204 -1.44841 0
M  V30 2939 C 298.514 0.94048 -1.28946 0
M  V30 2940 C 298.714 2.00154 -0.23249 0
M  V30 2941 O 297.77 2.49651 0.378237 0
M  V30 2942 C 299.083 1.39433 -2.66419 0
M  V30 2943 C 300.631 1.50927 -2.74208 0
M  V30 2944 C 301.106 1.99692 -4.12174 0
M  V30 2945 N 302.597 2.06947 -4.144 0
M  V30 2946 C 303.332 2.45871 -5.1801 0
M  V30 2947 N 302.828 2.83862 -6.31977 0
M  V30 2948 N 304.621 2.46092 -5.05366 0
M  V30 2949 H 296.772 -0.0803548 -2.12248 0
M  V30 2950 H 299.035 0.0266913 -0.947624 0
M  V30 2951 H 298.741 0.688925 -3.44887 0
M  V30 2952 H 298.615 2.36347 -2.93973 0
M  V30 2953 H 301.002 2.20561 -1.96053 0
M  V30 2954 H 301.083 0.523627 -2.50383 0
M  V30 2955 H 300.727 1.30649 -4.90809 0
M  V30 2956 H 300.657 2.99146 -4.33381 0
M  V30 2957 H 303.148 1.80232 -3.32152 0
M  V30 2958 H 303.461 3.12405 -7.0684 0
M  V30 2959 H 301.806 2.8159 -6.35399 0
M  V30 2960 H 304.997 2.1581 -4.15384 0
M  V30 2961 H 305.17 2.76102 -5.86235 0
M  V30 2962 N 298.576 1.31904 0.862503 0
M  V30 2963 C 299.486 1.22161 2.00285 0
M  V30 2964 C 300.502 0.136785 1.73462 0
M  V30 2965 O 301.678 0.355994 1.98229 0
M  V30 2966 C 298.743 0.937093 3.33796 0
M  V30 2967 C 297.804 2.10957 3.73893 0
M  V30 2968 C 297.037 1.83853 5.01033 0
M  V30 2969 O 297.26 0.777274 5.65079 0
M  V30 2970 O 296.194 2.69741 5.38074 0
M  V30 2971 H 300.02 2.18008 2.11439 0
M  V30 2972 H 297.605 1.11716 0.991957 0
M  V30 2973 H 299.487 0.794583 4.13841 0
M  V30 2974 H 298.162 0.00871894 3.23699 0
M  V30 2975 H 297.069 2.30752 2.94456 0
M  V30 2976 H 298.402 3.02046 3.88625 0
M  V30 2977 N 300.054 -1.07777 1.14986 0
M  V30 2978 C 301.47 -1.32373 0.891596 0
M  V30 2979 C 301.67 -1.9609 -0.463788 0
M  V30 2980 O 300.726 -2.21801 -1.20667 0
M  V30 2981 C 302.039 -2.21905 2.02925 0
M  V30 2982 C 303.587 -2.35367 2.06329 0
M  V30 2983 C 304.062 -3.28245 3.19405 0
M  V30 2984 N 305.553 -3.35824 3.19024 0
M  V30 2985 C 306.288 -4.07739 4.03158 0
M  V30 2986 N 305.784 -4.82306 4.97346 0
M  V30 2987 N 307.577 -4.03635 3.91197 0
M  V30 2988 H 299.728 -0.648039 2.02273 0
M  V30 2989 H 301.991 -0.348149 0.881757 0
M  V30 2990 H 301.697 -1.82342 3.0074 0
M  V30 2991 H 301.571 -3.22407 1.95789 0
M  V30 2992 H 303.958 -2.74186 1.09116 0
M  V30 2993 H 304.039 -1.34585 2.17533 0
M  V30 2994 H 303.683 -2.90146 4.16867 0
M  V30 2995 H 303.613 -4.28971 3.05437 0
M  V30 2996 H 306.104 -2.8267 2.50811 0
M  V30 2997 H 306.417 -5.34661 5.57994 0
M  V30 2998 H 304.762 -4.81337 5.01338 0
M  V30 2999 H 307.953 -3.44491 3.16928 0
M  V30 3000 H 308.126 -4.59417 4.5699 0
M  V30 3001 N 301.532 -0.945985 -1.26051 0
M  V30 3002 C 302.479 -0.45809 -2.26208 0
M  V30 3003 C 303.449 0.484816 -1.58867 0
M  V30 3004 O 304.634 0.399969 -1.86561 0
M  V30 3005 C 301.774 0.266131 -3.44072 0
M  V30 3006 C 300.887 -0.713005 -4.26075 0
M  V30 3007 C 300.022 0.0329013 -5.3119 0
M  V30 3008 C 299.061 -0.93774 -6.04874 0
M  V30 3009 N 298.198 -0.223274 -7.01745 0
M  V30 3010 H 303.038 -1.3171 -2.67313 0
M  V30 3011 H 300.575 -0.66069 -1.31428 0
M  V30 3012 H 302.533 0.702514 -4.11243 0
M  V30 3013 H 301.163 1.08925 -3.03867 0
M  V30 3014 H 300.215 -1.26789 -3.58648 0
M  V30 3015 H 301.527 -1.45406 -4.77136 0
M  V30 3016 H 300.681 0.528335 -6.04395 0
M  V30 3017 H 299.42 0.806801 -4.8098 0
M  V30 3018 H 298.425 -1.44425 -5.30492 0
M  V30 3019 H 299.65 -1.71172 -6.57173 0
M  V30 3020 H 297.596 0.532046 -6.53839 0
M  V30 3021 H 297.513 -0.90357 -7.50581 0
M  V30 3022 H 298.781 0.250907 -7.79096 0
M  V30 3023 N 303.011 1.40521 -0.713556 0
M  V30 3024 C 304.257 2.01221 -0.252564 0
M  V30 3025 C 304.59 1.56444 1.1506 0
M  V30 3026 O 303.865 0.783597 1.78017 0
M  V30 3027 C 304.148 3.58582 -0.330332 0
M  V30 3028 C 304.001 4.13437 -1.77173 0
M  V30 3029 C 305.32 4.39079 0.299641 0
M  V30 3030 H 302.439 0.731077 -0.0932471 0
M  V30 3031 H 305.081 1.67026 -0.905673 0
M  V30 3032 H 303.231 3.87844 0.225737 0
M  V30 3033 H 304.903 3.9498 -2.38303 0
M  V30 3034 H 303.146 3.67801 -2.3001 0
M  V30 3035 H 303.817 5.22597 -1.77755 0
M  V30 3036 H 306.293 4.15735 -0.174139 0
M  V30 3037 H 305.169 5.4848 0.214771 0
M  V30 3038 H 305.43 4.19915 1.38288 0
M  V30 3039 N 304.489 0.459591 1.5075 0
M  V30 3040 C 305.9 0.00171547 1.867 0
M  V30 3041 C 306.251 -1.39934 1.37525 0
M  V30 3042 O 305.376 -2.03523 0.735349 0
M  V30 3043 C 305.971 -0.00366298 3.388 0
M  V30 3044 C 304.53 -0.406026 3.74204 0
M  V30 3045 C 303.677 0.38673 2.7459 0
M  V30 3046 H 306.628 0.674413 1.43657 0
M  V30 3047 H 306.649 -0.808371 3.71814 0
M  V30 3048 H 306.161 1.01617 3.74561 0
M  V30 3049 H 304.262 -1.43063 3.4404 0
M  V30 3050 H 304.375 -0.115362 4.78961 0
M  V30 3051 H 302.739 -0.158019 2.54209 0
M  V30 3052 H 303.522 1.40585 3.13194 0
M  V30 3053 N 305.967 -1.56429 0.191757 0
M  V30 3054 C 307.213 -1.97777 -0.448554 0
M  V30 3055 C 307.546 -1.07847 -1.61501 0
M  V30 3056 O 306.821 -0.129774 -1.94067 0
M  V30 3057 C 307.104 -3.48362 -0.911906 0
M  V30 3058 C 306.957 -4.4907 0.256136 0
M  V30 3059 C 308.276 -4.02561 -1.77857 0
M  V30 3060 H 305.395 -0.719071 -0.161572 0
M  V30 3061 H 308.037 -1.87896 0.282007 0
M  V30 3062 H 306.187 -3.56914 -1.53442 0
M  V30 3063 H 307.859 -4.5256 0.893733 0
M  V30 3064 H 306.102 -4.24181 0.908436 0
M  V30 3065 H 306.773 -5.51889 -0.11053 0
M  V30 3066 H 309.249 -3.96767 -1.25359 0
M  V30 3067 H 308.125 -5.08301 -2.07174 0
M  V30 3068 H 308.386 -3.47616 -2.73158 0
M  V30 3069 N 307.445 0.0818655 -1.57387 0
M  V30 3070 C 308.673 0.796108 -1.9097 0
M  V30 3071 C 309.088 1.71626 -0.786757 0
M  V30 3072 O 308.445 1.80908 0.240513 0
M  V30 3073 C 308.496 1.59829 -3.24248 0
M  V30 3074 O 308.217 0.715131 -4.32224 0
M  V30 3075 C 309.718 2.41442 -3.7178 0
M  V30 3076 H 306.938 0.22691 -0.631469 0
M  V30 3077 H 309.482 0.0551439 -2.04426 0
M  V30 3078 H 307.637 2.29163 -3.12351 0
M  V30 3079 H 308.051 1.27205 -5.08841 0
M  V30 3080 H 309.525 2.932 -4.67694 0
M  V30 3081 H 310.002 3.2051 -3.00283 0
M  V30 3082 H 310.608 1.77283 -3.86589 0
M  V30 3083 N 308.923 1.53595 0.353017 0
M  V30 3084 C 310.339 1.43648 0.695516 0
M  V30 3085 C 310.539 0.585617 1.92802 0
M  V30 3086 O 309.595 0.0729223 2.52395 0
M  V30 3087 C 310.908 2.8701 0.896991 0
M  V30 3088 C 312.456 2.96723 0.996209 0
M  V30 3089 C 312.931 4.41173 1.23007 0
M  V30 3090 N 314.422 4.44657 1.29749 0
M  V30 3091 C 315.157 5.53547 1.49577 0
M  V30 3092 N 314.653 6.72461 1.66639 0
M  V30 3093 N 316.446 5.41145 1.52048 0
M  V30 3094 H 308.597 2.07415 -0.457481 0
M  V30 3095 H 310.86 0.9372 -0.142687 0
M  V30 3096 H 310.566 3.51644 0.0629938 0
M  V30 3097 H 310.44 3.31401 1.80148 0
M  V30 3098 H 312.827 2.32235 1.82074 0
M  V30 3099 H 312.908 2.55707 0.0688331 0
M  V30 3100 H 312.552 5.06238 0.410505 0
M  V30 3101 H 312.482 4.79772 2.17086 0
M  V30 3102 H 314.973 3.58963 1.18126 0
M  V30 3103 H 315.286 7.51214 1.81378 0
M  V30 3104 H 313.631 6.75423 1.63794 0
M  V30 3105 H 316.822 4.47205 1.38294 0
M  V30 3106 H 316.995 6.26068 1.67159 0
M  V30 3107 N 310.401 -0.613514 1.45168 0
M  V30 3108 C 311.65 -1.36874 1.4815 0
M  V30 3109 C 311.963 -1.952 0.124982 0
M  V30 3110 O 313.169 -2.71481 0.0324176 0
M  V30 3111 C 311.625 -2.47905 2.60904 0
M  V30 3112 C 311.233 -1.96016 4.02842 0
M  V30 3113 C 312.977 -3.24965 2.73126 0
M  V30 3114 C 310.884 -3.04494 5.06988 0
M  V30 3115 H 309.814 -0.514428 0.551253 0
M  V30 3116 H 312.465 -0.658182 1.7129 0
M  V30 3117 H 310.847 -3.21618 2.31037 0
M  V30 3118 H 312.021 -1.29051 4.4236 0
M  V30 3119 H 310.336 -1.31719 3.95018 0
M  V30 3120 H 312.933 -4.05865 3.48106 0
M  V30 3121 H 313.276 -3.75588 1.79553 0
M  V30 3122 H 313.809 -2.5835 3.0249 0
M  V30 3123 H 310.548 -2.58795 6.0225 0
M  V30 3124 H 310.068 -3.70044 4.72046 0
M  V30 3125 H 311.747 -3.68976 5.31475 0
M  V30 3126 N 311.879 -1.3236 -0.855495 0
M  V30 3127 C 313.127 -1.22629 -1.60644 0
M  V30 3128 C 313.448 0.212136 -1.93843 0
M  V30 3129 O 312.718 1.13666 -1.59552 0
M  V30 3130 H 311.298 -0.450882 -0.595579 0
M  V30 3131 H 313.96 -1.65871 -1.02337 0
M  V30 3132 H 313.056 -1.80832 -2.54374 0
M  V30 3133 N 313.357 1.07166 -1.15556 0
M  V30 3134 C 314.773 1.31899 -0.898603 0
M  V30 3135 C 314.973 1.96333 0.453383 0
M  V30 3136 O 314.029 2.22438 1.19489 0
M  V30 3137 C 315.342 2.20826 -2.04099 0
M  V30 3138 C 316.89 2.34269 -2.07574 0
M  V30 3139 C 317.365 3.26546 -3.21141 0
M  V30 3140 N 318.856 3.34127 -3.20801 0
M  V30 3141 C 319.591 4.05595 -4.05315 0
M  V30 3142 N 319.087 4.79661 -4.99897 0
M  V30 3143 N 320.88 4.01555 -3.93332 0
M  V30 3144 H 313.031 0.637302 -2.02613 0
M  V30 3145 H 315.294 0.343468 -0.883591 0
M  V30 3146 H 315 1.80744 -3.01703 0
M  V30 3147 H 314.874 3.21364 -1.97496 0
M  V30 3148 H 317.261 2.73603 -1.10568 0
M  V30 3149 H 317.342 1.33429 -2.18244 0
M  V30 3150 H 316.986 2.87931 -4.184 0
M  V30 3151 H 316.916 4.27345 -3.07708 0
M  V30 3152 H 319.407 2.81336 -2.52306 0
M  V30 3153 H 319.72 5.31694 -5.60822 0
M  V30 3154 H 318.065 4.78671 -5.03884 0
M  V30 3155 H 321.256 3.42806 -3.18751 0
M  V30 3156 H 321.429 4.56987 -4.5942 0
M  V30 3157 N 314.835 0.952656 1.25548 0
M  V30 3158 C 315.765 0.489287 2.28316 0
M  V30 3159 C 316.746 -0.463359 1.63667 0
M  V30 3160 O 317.931 -0.36274 1.90782 0
M  V30 3161 C 315.061 -0.235603 3.465 0
M  V30 3162 C 314.015 0.631593 4.23314 0
M  V30 3163 C 313.341 -0.223923 5.34231 0
M  V30 3164 C 314.641 1.90871 4.86174 0
M  V30 3165 H 316.335 1.34822 2.67326 0
M  V30 3166 H 313.881 0.649728 1.28509 0
M  V30 3167 H 315.834 -0.570882 4.17515 0
M  V30 3168 H 314.558 -1.12877 3.06474 0
M  V30 3169 H 313.217 0.949929 3.54079 0
M  V30 3170 H 312.865 -1.11678 4.90446 0
M  V30 3171 H 312.565 0.35299 5.86539 0
M  V30 3172 H 314.089 -0.554214 6.0808 0
M  V30 3173 H 315.503 1.63997 5.49343 0
M  V30 3174 H 313.9 2.43112 5.4865 0
M  V30 3175 H 314.97 2.61304 4.08471 0
M  V30 3176 N 316.313 -1.40141 0.720998 0
M  V30 3177 C 317.276 -2.29058 0.0805834 0
M  V30 3178 C 318.276 -1.45632 -0.681758 0
M  V30 3179 O 319.466 -1.6648 -0.512856 0
M  V30 3180 C 316.598 -3.28925 -0.895593 0
M  V30 3181 H 317.791 -2.87191 0.863793 0
M  V30 3182 H 315.344 -1.48553 0.485975 0
M  V30 3183 H 316.079 -2.75822 -1.70566 0
M  V30 3184 H 315.864 -3.90519 -0.351766 0
M  V30 3185 H 317.354 -3.95494 -1.34069 0
M  V30 3186 N 317.792 -0.46758 -1.50504 0
M  V30 3187 C 318.74 0.342482 -2.30065 0
M  V30 3188 C 319.734 0.993596 -1.37201 0
M  V30 3189 O 320.94 0.925102 -1.54408 0
M  V30 3190 H 317.315 0.129283 -0.740803 0
M  V30 3191 H 319.286 -0.34899 -2.96352 0
M  V30 3192 C 318.035 1.4139 -3.17654 0
M  V30 3193 H 317.358 0.922264 -3.89017 0
M  V30 3194 H 318.798 1.95335 -3.76325 0
M  V30 3195 C 317.257 2.4139 -2.35016 0
M  V30 3196 O 317.787 3.46586 -2.03079 0
M  V30 3197 N 315.993 2.13021 -1.97662 0
M  V30 3198 H 315.54 1.27499 -2.23834 0
M  V30 3199 H 315.498 2.80164 -1.42673 0
M  V30 3200 N 319.27 1.56325 -0.20005 0
M  V30 3201 C 320.517 1.97719 0.437411 0
M  V30 3202 C 320.845 1.08709 1.61284 0
M  V30 3203 O 320.1 0.127261 1.95286 0
M  V30 3204 C 320.399 3.4495 0.935103 0
M  V30 3205 C 320.065 4.5072 -0.12749 0
M  V30 3206 C 318.727 4.79368 -0.419451 0
M  V30 3207 C 321.079 5.14268 -0.847231 0
M  V30 3208 C 318.407 5.68854 -1.43604 0
M  V30 3209 C 320.759 6.04852 -1.85301 0
M  V30 3210 C 319.423 6.31855 -2.15211 0
M  V30 3211 H 318.693 0.723507 0.16006 0
M  V30 3212 H 321.34 1.89166 -0.298056 0
M  V30 3213 H 319.645 3.50599 1.74894 0
M  V30 3214 H 321.342 3.74337 1.43781 0
M  V30 3215 H 317.932 4.28458 0.11023 0
M  V30 3216 H 322.116 4.92222 -0.634901 0
M  V30 3217 H 317.372 5.88047 -1.67364 0
M  V30 3218 H 321.546 6.53152 -2.41591 0
M  V30 3219 H 319.173 7.00994 -2.94129 0
M  V30 3220 N 320.748 -0.0735177 1.57428 0
M  V30 3221 C 321.996 -0.771472 1.86796 0
M  V30 3222 C 322.317 -1.78201 0.791804 0
M  V30 3223 O 321.587 -1.95074 -0.179718 0
M  V30 3224 H 320.167 -0.28791 0.689287 0
M  V30 3225 H 322.829 -0.0500161 1.94836 0
M  V30 3226 H 321.925 -1.28874 2.8425 0
M  V30 3227 N 322.226 -1.5378 -0.344866 0
M  V30 3228 C 323.474 -1.70625 -1.08311 0
M  V30 3229 C 323.795 -0.471447 -1.89215 0
M  V30 3230 O 323.065 0.514616 -1.8902 0
M  V30 3231 H 321.645 -0.629058 -0.402859 0
M  V30 3232 H 324.307 -1.9103 -0.386459 0
M  V30 3233 H 323.403 -2.57656 -1.76124 0
M  V30 3234 N 323.704 0.605807 -1.45491 0
M  V30 3235 C 324.634 1.72709 -1.57143 0
M  V30 3236 C 325.615 1.6476 -0.422884 0
M  V30 3237 O 326.8 1.83132 -0.646247 0
M  V30 3238 C 323.93 3.11316 -1.53948 0
M  V30 3239 C 322.884 3.34077 -2.67537 0
M  V30 3240 C 322.21 4.72975 -2.49397 0
M  V30 3241 C 323.51 3.24158 -4.09535 0
M  V30 3242 H 325.204 1.63214 -2.51001 0
M  V30 3243 H 322.75 0.78379 -1.208 0
M  V30 3244 H 324.703 3.89557 -1.60696 0
M  V30 3245 H 323.427 3.21655 -0.566205 0
M  V30 3246 H 322.086 2.58227 -2.6022 0
M  V30 3247 H 321.734 4.8005 -1.50205 0
M  V30 3248 H 321.434 4.8916 -3.25571 0
M  V30 3249 H 322.958 5.53414 -2.58002 0
M  V30 3250 H 324.372 3.92271 -4.18086 0
M  V30 3251 H 322.769 3.51872 -4.86113 0
M  V30 3252 H 323.839 2.2157 -4.31317 0
M  V30 3253 N 325.182 1.32811 0.848464 0
M  V30 3254 C 326.145 1.22194 1.9391 0
M  V30 3255 C 327.145 0.143404 1.60159 0
M  V30 3256 O 328.335 0.394253 1.6968 0
M  V30 3257 C 325.467 0.88067 3.29328 0
M  V30 3258 H 326.66 2.19127 2.04752 0
M  V30 3259 H 324.213 1.16731 1.0394 0
M  V30 3260 H 324.948 -0.0865776 3.24184 0
M  V30 3261 H 324.733 1.66052 3.55203 0
M  V30 3262 H 326.223 0.830871 4.09251 0
M  V30 3263 N 326.66 -1.06551 1.16123 0
M  V30 3264 C 327.906 -1.79567 0.94252 0
M  V30 3265 C 328.239 -1.86869 -0.528547 0
M  V30 3266 O 327.514 -1.35838 -1.39206 0
M  V30 3267 C 327.797 -3.24195 1.56747 0
M  V30 3268 C 327.65 -3.24989 3.10969 0
M  V30 3269 C 328.969 -4.21678 1.25998 0
M  V30 3270 H 326.088 -0.651883 0.343828 0
M  V30 3271 H 328.73 -1.2463 1.43413 0
M  V30 3272 H 326.88 -3.71107 1.14942 0
M  V30 3273 H 328.552 -2.86258 3.61737 0
M  V30 3274 H 326.795 -2.63716 3.44436 0
M  V30 3275 H 327.466 -4.27005 3.49815 0
M  V30 3276 H 329.942 -3.83196 1.62174 0
M  V30 3277 H 328.818 -5.21146 1.7233 0
M  V30 3278 H 329.079 -4.4174 0.178367 0
M  V30 3279 N 328.138 -0.959301 -1.25041 0
M  V30 3280 C 329.386 -0.615393 -1.92503 0
M  V30 3281 C 329.707 0.850969 -1.75452 0
M  V30 3282 O 328.977 1.60658 -1.12098 0
M  V30 3283 H 327.557 -0.224613 -0.712431 0
M  V30 3284 H 330.219 -1.21855 -1.5211 0
M  V30 3285 H 329.315 -0.848738 -3.00338 0
M  V30 3286 N 329.616 1.39756 -0.72842 0
M  V30 3287 C 330.546 2.33289 -0.0991354 0
M  V30 3288 C 331.527 1.53568 0.731489 0
M  V30 3289 O 332.712 1.81987 0.677807 0
M  V30 3290 C 329.842 3.3763 0.813834 0
M  V30 3291 C 328.796 4.2791 0.0878663 0
M  V30 3292 C 328.122 5.22894 1.11741 0
M  V30 3293 C 329.422 5.11314 -1.06563 0
M  V30 3294 H 331.116 2.86163 -0.880408 0
M  V30 3295 H 328.662 1.37591 -0.424819 0
M  V30 3296 H 330.615 4.0201 1.26355 0
M  V30 3297 H 329.339 2.83181 1.62715 0
M  V30 3298 H 327.998 3.65 -0.342159 0
M  V30 3299 H 327.646 4.64744 1.92412 0
M  V30 3300 H 327.346 5.84143 0.636477 0
M  V30 3301 H 328.87 5.90151 1.56697 0
M  V30 3302 H 330.284 5.69076 -0.694671 0
M  V30 3303 H 328.681 5.81671 -1.47577 0
M  V30 3304 H 329.751 4.46534 -1.89038 0
M  V30 3305 N 331.094 0.475555 1.50254 0
M  V30 3306 C 332.342 -0.077738 2.0195 0
M  V30 3307 C 332.663 -1.39813 1.35931 0
M  V30 3308 O 331.933 -1.89249 0.506123 0
M  V30 3309 H 330.513 -0.031719 0.746326 0
M  V30 3310 H 333.175 0.626995 1.84539 0
M  V30 3311 H 332.271 -0.225995 3.11281 0
M  V30 3312 N 332.573 -1.56217 0.208337 0
M  V30 3313 C 333.82 -1.97949 -0.42692 0
M  V30 3314 C 334.148 -1.09562 -1.60706 0
M  V30 3315 O 333.403 -0.137616 -1.95216 0
M  V30 3316 C 333.702 -3.45441 -0.916797 0
M  V30 3317 C 333.368 -4.50646 0.151391 0
M  V30 3318 C 332.03 -4.79139 0.444867 0
M  V30 3319 C 334.382 -5.13811 0.874492 0
M  V30 3320 C 331.71 -5.68084 1.46619 0
M  V30 3321 C 334.062 -6.03861 1.88506 0
M  V30 3322 C 332.726 -6.30704 2.18559 0
M  V30 3323 H 331.996 -0.724345 -0.156221 0
M  V30 3324 H 334.643 -1.89006 0.308084 0
M  V30 3325 H 332.948 -3.51521 -1.73032 0
M  V30 3326 H 334.645 -3.75094 -1.41794 0
M  V30 3327 H 331.235 -4.28511 -0.0875068 0
M  V30 3328 H 335.419 -4.91879 0.660996 0
M  V30 3329 H 330.675 -5.87151 1.7048 0
M  V30 3330 H 334.849 -6.51861 2.45051 0
M  V30 3331 H 332.476 -6.99424 2.97843 0
M  V30 3332 N 334.051 0.0651679 -1.57465 0
M  V30 3333 C 335.299 0.761555 -1.87202 0
M  V30 3334 C 335.62 1.77778 -0.801243 0
M  V30 3335 O 334.89 1.95166 0.16937 0
M  V30 3336 H 333.47 0.284251 -0.690804 0
M  V30 3337 H 336.132 0.0396827 -1.9486 0
M  V30 3338 H 335.228 1.27365 -2.84929 0
M  V30 3339 N 335.529 1.53961 0.336706 0
M  V30 3340 C 336.492 1.81724 1.39675 0
M  V30 3341 C 337.492 0.688532 1.45313 0
M  V30 3342 O 338.682 0.956829 1.45569 0
M  V30 3343 C 335.814 1.96543 2.78538 0
M  V30 3344 H 337.007 2.76424 1.16318 0
M  V30 3345 H 334.56 1.45478 0.571474 0
M  V30 3346 H 335.295 1.0401 3.07168 0
M  V30 3347 H 335.08 2.78665 2.75841 0
M  V30 3348 H 336.57 2.19516 3.5525 0
M  V30 3349 N 337.007 -0.598083 1.45811 0
M  V30 3350 C 337.937 -1.71873 1.58057 0
M  V30 3351 C 338.918 -1.64533 0.431615 0
M  V30 3352 O 340.103 -1.82787 0.65595 0
M  V30 3353 C 337.233 -3.10495 1.55597 0
M  V30 3354 C 336.187 -3.32654 2.69305 0
M  V30 3355 C 335.513 -4.71646 2.51902 0
M  V30 3356 C 336.813 -3.21981 4.11248 0
M  V30 3357 H 338.507 -1.61881 2.51863 0
M  V30 3358 H 336.053 -0.777372 1.21214 0
M  V30 3359 H 338.006 -3.88699 1.6276 0
M  V30 3360 H 336.73 -3.2135 0.583255 0
M  V30 3361 H 335.389 -2.56843 2.61586 0
M  V30 3362 H 335.037 -4.79246 1.52748 0
M  V30 3363 H 334.737 -4.87426 3.2816 0
M  V30 3364 H 336.261 -5.52038 2.60933 0
M  V30 3365 H 337.675 -3.90049 4.20161 0
M  V30 3366 H 336.072 -3.49289 4.87972 0
M  V30 3367 H 337.142 -2.1928 4.32486 0
M  V30 3368 N 338.485 -1.33259 -0.841409 0
M  V30 3369 C 339.448 -1.23221 -1.9326 0
M  V30 3370 C 340.448 -0.151895 -1.60081 0
M  V30 3371 O 341.638 -0.403246 -1.69468 0
M  V30 3372 C 338.77 -0.898123 -3.28856 0
M  V30 3373 H 339.963 -2.2021 -2.03587 0
M  V30 3374 H 337.516 -1.17281 -1.03319 0
M  V30 3375 H 338.251 0.0693841 -3.24226 0
M  V30 3376 H 338.036 -1.67934 -3.54317 0
M  V30 3377 H 339.526 -0.852563 -4.08805 0
M  V30 3378 N 339.963 1.05934 -1.16686 0
M  V30 3379 C 340.873 2.17014 -0.891183 0
M  V30 3380 C 341.889 1.73453 0.137907 0
M  V30 3381 O 343.065 2.01361 -0.039592 0
M  V30 3382 C 340.13 3.44384 -0.400099 0
M  V30 3383 C 339.191 4.02433 -1.49486 0
M  V30 3384 C 338.424 5.23723 -1.02711 0
M  V30 3385 O 338.647 5.7027 0.121716 0
M  V30 3386 O 337.581 5.7382 -1.81699 0
M  V30 3387 H 341.407 2.43113 -1.82015 0
M  V30 3388 H 338.992 1.15541 -0.947132 0
M  V30 3389 H 340.874 4.21189 -0.133392 0
M  V30 3390 H 339.549 3.19802 0.500817 0
M  V30 3391 H 338.456 3.27102 -1.81535 0
M  V30 3392 H 339.789 4.31317 -2.37121 0
M  V30 3393 N 341.441 0.965919 1.2453 0
M  V30 3394 C 342.687 0.62776 1.92839 0
M  V30 3395 C 343.02 -0.834694 1.75347 0
M  V30 3396 O 342.295 -1.60031 1.10546 0
M  V30 3397 C 342.578 1.00109 3.45905 0
M  V30 3398 C 342.431 2.52011 3.72573 0
M  V30 3399 C 343.75 0.53435 4.36844 0
M  V30 3400 H 340.869 0.229537 0.700344 0
M  V30 3401 H 343.511 1.2046 1.46933 0
M  V30 3402 H 341.661 0.510238 3.85135 0
M  V30 3403 H 343.333 3.08559 3.42912 0
M  V30 3404 H 341.576 2.95287 3.17786 0
M  V30 3405 H 342.247 2.73183 4.79661 0
M  V30 3406 H 344.723 0.955565 4.04979 0
M  V30 3407 H 343.599 0.824152 5.42678 0
M  V30 3408 H 343.86 -0.565589 4.38467 0
M  V30 3409 N 342.919 -1.39368 0.735821 0
M  V30 3410 C 343.882 -2.2896 0.104874 0
M  V30 3411 C 344.882 -1.46347 -0.666274 0
M  V30 3412 O 346.072 -1.67014 -0.49517 0
M  V30 3413 C 343.204 -3.29857 -0.860656 0
M  V30 3414 H 344.397 -2.86259 0.894205 0
M  V30 3415 H 341.95 -1.48029 0.501704 0
M  V30 3416 H 342.685 -2.77615 -1.67631 0
M  V30 3417 H 342.47 -3.9087 -0.310327 0
M  V30 3418 H 343.96 -3.96893 -1.29867 0
M  V30 3419 N 344.397 -0.483516 -1.5 0
M  V30 3420 C 345.344 0.304164 -2.28787 0
M  V30 3421 C 346.314 0.976114 -1.34392 0
M  V30 3422 O 347.499 0.986156 -1.63339 0
M  V30 3423 C 344.639 1.37298 -3.16612 0
M  V30 3424 C 343.752 0.714561 -4.26049 0
M  V30 3425 C 342.887 1.76232 -5.01114 0
M  V30 3426 C 341.926 1.08483 -6.0241 0
M  V30 3427 N 341.063 2.076 -6.70706 0
M  V30 3428 H 345.903 -0.373981 -2.95644 0
M  V30 3429 H 343.44 -0.196275 -1.45785 0
M  V30 3430 H 345.398 2.00445 -3.65893 0
M  V30 3431 H 344.028 2.02012 -2.51776 0
M  V30 3432 H 343.08 -0.0297798 -3.80388 0
M  V30 3433 H 344.392 0.180383 -4.98474 0
M  V30 3434 H 343.546 2.46929 -5.54176 0
M  V30 3435 H 342.285 2.33033 -4.28424 0
M  V30 3436 H 341.29 0.363545 -5.48597 0
M  V30 3437 H 342.515 0.523551 -6.77079 0
M  V30 3438 H 340.461 2.63394 -6.00799 0
M  V30 3439 H 340.378 1.59201 -7.39047 0
M  V30 3440 H 341.646 2.77639 -7.2838 0
M  V30 3441 N 345.875 1.56104 -0.216619 0
M  V30 3442 C 346.822 2.2007 0.695531 0
M  V30 3443 C 347.792 1.15471 1.19397 0
M  V30 3444 O 348.977 1.43807 1.25396 0
M  V30 3445 C 346.117 2.88073 1.90021 0
M  V30 3446 C 345.23 4.07253 1.44113 0
M  V30 3447 C 344.365 4.63052 2.603 0
M  V30 3448 C 343.404 5.74545 2.11103 0
M  V30 3449 N 342.541 6.24656 3.20545 0
M  V30 3450 H 347.381 2.97655 0.143327 0
M  V30 3451 H 344.918 1.46982 0.0589934 0
M  V30 3452 H 346.876 3.25681 2.60745 0
M  V30 3453 H 345.506 2.13015 2.42538 0
M  V30 3454 H 344.558 3.75164 0.628999 0
M  V30 3455 H 345.87 4.8783 1.04036 0
M  V30 3456 H 345.024 5.03078 3.39113 0
M  V30 3457 H 343.763 3.81628 3.03663 0
M  V30 3458 H 342.768 5.34027 1.3075 0
M  V30 3459 H 343.993 6.57801 1.68746 0
M  V30 3460 H 341.939 5.46148 3.63399 0
M  V30 3461 H 341.856 7.00343 2.84704 0
M  V30 3462 H 343.124 6.69338 3.99508 0
M  V30 3463 N 347.353 -0.0568162 1.57498 0
M  V30 3464 C 348.578 -0.769402 1.92601 0
M  V30 3465 C 349.003 -1.69559 0.814336 0
M  V30 3466 O 348.361 -1.79811 -0.231903 0
M  V30 3467 C 348.409 -1.52634 3.26704 0
M  V30 3468 O 347.513 -2.63797 3.16994 0
M  V30 3469 H 346.854 -0.208909 0.63028 0
M  V30 3470 H 349.384 -0.0205798 2.0459 0
M  V30 3471 H 349.394 -1.90234 3.60936 0
M  V30 3472 H 348.069 -0.846875 4.07186 0
M  V30 3473 H 346.646 -2.28943 2.94346 0
M  V30 3474 N 348.832 -1.54138 -0.328536 0
M  V30 3475 C 349.762 -1.86167 -1.40939 0
M  V30 3476 C 350.743 -0.718044 -1.54202 0
M  V30 3477 O 351.928 -0.971328 -1.68163 0
M  V30 3478 C 349.058 -2.08461 -2.77779 0
M  V30 3479 C 348.012 -3.24299 -2.7931 0
M  V30 3480 C 347.338 -3.31955 -4.19178 0
M  V30 3481 C 348.638 -4.62065 -2.43502 0
M  V30 3482 H 350.332 -2.76689 -1.14383 0
M  V30 3483 H 347.878 -1.33132 -0.548806 0
M  V30 3484 H 349.831 -2.29453 -3.53454 0
M  V30 3485 H 348.555 -1.14684 -3.05802 0
M  V30 3486 H 347.214 -3.03187 -2.0609 0
M  V30 3487 H 346.862 -2.35745 -4.44335 0
M  V30 3488 H 346.562 -4.09805 -4.2111 0
M  V30 3489 H 348.086 -3.55175 -4.96672 0
M  V30 3490 H 349.5 -4.8297 -3.08889 0
M  V30 3491 H 347.897 -5.42429 -2.56693 0
M  V30 3492 H 348.967 -4.64652 -1.38659 0
M  V30 3493 N 350.31 0.590341 -1.46126 0
M  V30 3494 C 351.726 0.912917 -1.30912 0
M  V30 3495 C 351.926 1.99616 -0.274893 0
M  V30 3496 O 350.982 2.50397 0.325197 0
M  V30 3497 C 352.295 1.3375 -2.69317 0
M  V30 3498 C 353.843 1.45077 -2.77348 0
M  V30 3499 C 354.318 1.90904 -4.16317 0
M  V30 3500 N 355.809 1.9811 -4.18696 0
M  V30 3501 C 356.544 2.34828 -5.23109 0
M  V30 3502 N 356.04 2.70393 -6.37856 0
M  V30 3503 N 357.833 2.35317 -5.10473 0
M  V30 3504 H 349.984 -0.125358 -2.1203 0
M  V30 3505 H 352.247 0.00658481 -0.947977 0
M  V30 3506 H 351.953 0.615614 -3.4627 0
M  V30 3507 H 351.827 2.30058 -2.9892 0
M  V30 3508 H 354.214 2.16353 -2.00687 0
M  V30 3509 H 354.295 0.4704 -2.51438 0
M  V30 3510 H 353.939 1.20209 -4.9347 0
M  V30 3511 H 353.869 2.89886 -4.39629 0
M  V30 3512 H 356.36 1.73146 -3.359 0
M  V30 3513 H 356.673 2.97341 -7.13308 0
M  V30 3514 H 355.018 2.68048 -6.41229 0
M  V30 3515 H 358.209 2.0695 -4.19868 0
M  V30 3516 H 358.382 2.63605 -5.9196 0
M  V30 3517 N 351.788 1.33704 0.83433 0
M  V30 3518 C 353.013 1.28615 1.62705 0
M  V30 3519 C 353.438 -0.139242 1.87584 0
M  V30 3520 O 352.796 -1.09734 1.4432 0
M  V30 3521 C 352.844 2.07139 2.95171 0
M  V30 3522 O 351.948 1.4331 3.86699 0
M  V30 3523 H 351.289 0.44226 0.49528 0
M  V30 3524 H 353.819 1.76335 1.03766 0
M  V30 3525 H 353.829 2.18073 3.44831 0
M  V30 3526 H 352.504 3.10779 2.76386 0
M  V30 3527 H 351.081 1.4105 3.45195 0
M  V30 3528 N 353.266 -1.05314 1.17247 0
M  V30 3529 C 354.176 -2.16538 0.90268 0
M  V30 3530 C 355.192 -1.73523 -0.128707 0
M  V30 3531 O 356.368 -2.01337 0.0502701 0
M  V30 3532 C 353.433 -3.44167 0.418356 0
M  V30 3533 C 352.494 -4.01635 1.51618 0
M  V30 3534 C 351.727 -5.23171 1.05487 0
M  V30 3535 O 351.95 -5.70327 -0.0914715 0
M  V30 3536 O 350.884 -5.72848 1.8474 0
M  V30 3537 H 354.71 -2.42145 1.83302 0
M  V30 3538 H 352.295 -1.15037 0.953246 0
M  V30 3539 H 354.177 -4.21112 0.155726 0
M  V30 3540 H 352.852 -3.20063 -0.48385 0
M  V30 3541 H 351.759 -3.26135 1.83268 0
M  V30 3542 H 353.092 -4.30053 2.39405 0
M  V30 3543 N 354.744 -0.972509 -1.24016 0
M  V30 3544 C 356.021 -0.553733 -1.87598 0
M  V30 3545 C 356.401 0.969158 -1.87538 0
M  V30 3546 O 355.749 1.84255 -1.35139 0
M  V30 3547 C 355.959 -1.15076 -3.29482 0
M  V30 3548 C 357.307 -1.23862 -4.06132 0
M  V30 3549 O 358.331 -1.10363 -3.38672 0
M  V30 3550 O 357.19 -1.45252 -5.26844 0
M  V30 3551 H 354.284 -0.185331 -0.805966 0
M  V30 3552 H 356.83 -1.06709 -1.31952 0
M  V30 3553 H 355.602 -2.19333 -3.2405 0
M  V30 3554 H 355.225 -0.621746 -3.92709 0
M  V30 3555 N 356.222 1.38976 -0.743202 0
M  V30 3556 C 357.633 1.83123 -0.363732 0
M  V30 3557 C 357.984 1.6205 1.10609 0
M  V30 3558 O 357.109 1.11606 1.854 0
M  V30 3559 C 357.704 3.32439 -0.653408 0
M  V30 3560 C 356.263 3.74974 -0.327338 0
M  V30 3561 C 355.41 2.61878 -0.911875 0
M  V30 3562 H 358.361 1.27852 -0.940191 0
M  V30 3563 H 358.382 3.80432 0.0720031 0
M  V30 3564 H 357.894 3.47745 -1.72323 0
M  V30 3565 H 355.995 3.65252 0.736314 0
M  V30 3566 H 356.108 4.72106 -0.815631 0
M  V30 3567 H 354.472 2.52448 -0.337944 0
M  V30 3568 H 355.255 2.79987 -1.98651 0
M  V30 3569 N 357.7 0.491464 1.49741 0
M  V30 3570 C 358.925 -0.0557177 2.07325 0
M  V30 3571 C 359.35 -1.30925 1.35056 0
M  V30 3572 O 358.708 -1.76733 0.404365 0
M  V30 3573 C 358.756 -0.302074 3.59333 0
M  V30 3574 O 357.86 -1.37868 3.88672 0
M  V30 3575 H 357.201 0.0219956 0.663636 0
M  V30 3576 H 359.731 0.688352 1.92673 0
M  V30 3577 H 359.741 -0.536464 4.04458 0
M  V30 3578 H 358.416 0.61383 4.11345 0
M  V30 3579 H 356.993 -1.12999 3.55367 0
M  V30 3580 N 359.178 -1.55987 0.224894 0
M  V30 3581 C 360.426 -1.97998 -0.405099 0
M  V30 3582 C 360.747 -1.11387 -1.60056 0
M  V30 3583 O 360.017 -0.191645 -1.9496 0
M  V30 3584 H 358.597 -0.731235 -0.152658 0
M  V30 3585 H 361.259 -1.92279 0.318567 0
M  V30 3586 H 360.355 -3.03463 -0.729167 0
M  V30 3587 N 360.656 0.0484629 -1.57525 0
M  V30 3588 C 361.603 1.05504 -2.05275 0
M  V30 3589 C 362.573 1.37084 -0.937927 0
M  V30 3590 O 363.758 1.47754 -1.2072 0
M  V30 3591 C 360.898 2.35676 -2.52093 0
M  V30 3592 C 360.011 2.10423 -3.77288 0
M  V30 3593 C 359.146 3.34327 -4.12794 0
M  V30 3594 C 358.185 3.04542 -5.30962 0
M  V30 3595 N 357.322 4.20841 -5.61994 0
M  V30 3596 H 362.162 0.640885 -2.91027 0
M  V30 3597 H 359.699 0.304854 -1.43906 0
M  V30 3598 H 361.657 3.11709 -2.77297 0
M  V30 3599 H 360.287 2.7485 -1.69285 0
M  V30 3600 H 359.339 1.24976 -3.59284 0
M  V30 3601 H 360.651 1.84438 -4.63448 0
M  V30 3602 H 359.805 4.1874 -4.39024 0
M  V30 3603 H 358.544 3.63408 -3.25247 0
M  V30 3604 H 357.549 2.18528 -5.04505 0
M  V30 3605 H 358.774 2.76758 -6.20146 0
M  V30 3606 H 356.72 4.4991 -4.77406 0
M  V30 3607 H 356.637 3.98212 -6.42622 0
M  V30 3608 H 357.905 5.06184 -5.92789 0
M  V30 3609 N 362.134 1.5431 0.320358 0
M  V30 3610 C 363.081 1.83918 1.39438 0
M  V30 3611 C 364.051 0.686525 1.51248 0
M  V30 3612 O 365.236 0.933269 1.66417 0
M  V30 3613 C 362.376 2.075 2.75749 0
M  V30 3614 C 361.489 3.35177 2.72544 0
M  V30 3615 C 360.624 3.48704 4.00723 0
M  V30 3616 C 359.663 4.70244 3.91838 0
M  V30 3617 N 358.8 4.80679 5.11754 0
M  V30 3618 H 363.64 2.75544 1.13489 0
M  V30 3619 H 361.177 1.36459 0.549309 0
M  V30 3620 H 363.135 2.19166 3.54996 0
M  V30 3621 H 361.765 1.19163 3 0
M  V30 3622 H 360.817 3.32233 1.85271 0
M  V30 3623 H 362.129 4.24534 2.61863 0
M  V30 3624 H 361.283 3.59928 4.88402 0
M  V30 3625 H 360.022 2.57445 4.14214 0
M  V30 3626 H 359.027 4.59072 3.02544 0
M  V30 3627 H 360.252 5.6289 3.7991 0
M  V30 3628 H 358.198 3.92337 5.25745 0
M  V30 3629 H 358.115 5.64007 5.0342 0
M  V30 3630 H 359.383 4.96239 6.01138 0
M  V30 3631 N 363.613 -0.582584 1.46437 0
M  V30 3632 C 364.576 -1.67366 1.56592 0
M  V30 3633 C 365.576 -1.54575 0.443072 0
M  V30 3634 O 366.766 -1.59191 0.707381 0
M  V30 3635 C 363.898 -3.06791 1.48634 0
M  V30 3636 H 365.091 -1.5972 2.5383 0
M  V30 3637 H 362.644 -0.800432 1.34249 0
M  V30 3638 H 363.379 -3.19993 0.526763 0
M  V30 3639 H 363.164 -3.17484 2.30101 0
M  V30 3640 H 364.654 -3.86218 1.58826 0
M  V30 3641 N 365.091 -1.34144 -0.827227 0
M  V30 3642 C 366.337 -1.26446 -1.58554 0
M  V30 3643 C 366.67 0.1664 -1.93486 0
M  V30 3644 O 365.945 1.1107 -1.59667 0
M  V30 3645 C 366.228 -2.15111 -2.8879 0
M  V30 3646 C 366.081 -3.66712 -2.60465 0
M  V30 3647 C 367.4 -2.03311 -3.90324 0
M  V30 3648 H 364.519 -0.46067 -0.575284 0
M  V30 3649 H 367.161 -1.64356 -0.953269 0
M  V30 3650 H 365.311 -1.8291 -3.42748 0
M  V30 3651 H 366.983 -4.09259 -2.1285 0
M  V30 3652 H 365.226 -3.88014 -1.93978 0
M  V30 3653 H 365.897 -4.24112 -3.53317 0
M  V30 3654 H 368.373 -2.31574 -3.45706 0
M  V30 3655 H 367.249 -2.67582 -4.79261 0
M  V30 3656 H 367.51 -1.00879 -4.30437 0
M  V30 3657 N 366.569 1.04691 -1.17803 0
M  V30 3658 C 367.499 2.14494 -0.92275 0
M  V30 3659 C 368.48 1.69546 0.137179 0
M  V30 3660 O 369.665 1.94195 -0.0141108 0
M  V30 3661 C 366.795 3.44491 -0.440803 0
M  V30 3662 C 365.749 4.03031 -1.4405 0
M  V30 3663 C 365.075 5.28432 -0.81631 0
M  V30 3664 C 366.375 4.39932 -2.81527 0
M  V30 3665 H 368.069 2.36107 -1.84103 0
M  V30 3666 H 365.615 1.1347 -0.886599 0
M  V30 3667 H 367.568 4.2066 -0.249602 0
M  V30 3668 H 366.292 3.22546 0.513025 0
M  V30 3669 H 364.951 3.28937 -1.61853 0
M  V30 3670 H 364.599 5.02792 0.144511 0
M  V30 3671 H 364.299 5.68559 -1.48371 0
M  V30 3672 H 365.823 6.07284 -0.635496 0
M  V30 3673 H 367.237 5.07113 -2.67412 0
M  V30 3674 H 365.634 4.9109 -3.44892 0
M  V30 3675 H 366.704 3.50045 -3.35554 0
M  V30 3676 N 368.047 0.979072 1.23499 0
M  V30 3677 C 369.295 0.645941 1.91499 0
M  V30 3678 C 369.616 -0.822948 1.76784 0
M  V30 3679 O 368.886 -1.58854 1.14639 0
M  V30 3680 H 367.466 0.235919 0.708767 0
M  V30 3681 H 370.128 1.2426 1.50152 0
M  V30 3682 H 369.224 0.896411 2.9895 0
M  V30 3683 N 369.525 -1.3858 0.750561 0
M  V30 3684 C 370.75 -2.04997 0.314812 0
M  V30 3685 C 371.175 -1.56235 -1.04749 0
M  V30 3686 O 370.533 -0.712981 -1.66692 0
M  V30 3687 C 370.581 -3.58961 0.343415 0
M  V30 3688 O 369.685 -4.07025 -0.663628 0
M  V30 3689 H 369.026 -0.649081 0.139962 0
M  V30 3690 H 371.556 -1.77313 1.02084 0
M  V30 3691 H 371.566 -4.07542 0.193233 0
M  V30 3692 H 370.241 -3.93811 1.33738 0
M  V30 3693 H 368.818 -3.6982 -0.478307 0
M  V30 3694 N 371.003 -0.499398 -1.49478 0
M  V30 3695 C 372.228 0.044722 -2.07352 0
M  V30 3696 C 372.653 1.30207 -1.35749 0
M  V30 3697 O 372.011 1.76516 -0.413732 0
M  V30 3698 C 372.059 0.283013 -3.59488 0
M  V30 3699 O 371.163 1.35804 -3.89398 0
M  V30 3700 H 370.504 -0.0255147 -0.66351 0
M  V30 3701 H 373.034 -0.698561 -1.92305 0
M  V30 3702 H 373.044 0.515007 -4.04737 0
M  V30 3703 H 371.719 -0.635636 -4.11014 0
M  V30 3704 H 370.296 1.11113 -3.55961 0
M  V30 3705 N 372.481 1.55866 -0.233164 0
M  V30 3706 C 373.892 1.847 0.272554 0
M  V30 3707 C 374.243 1.15477 1.58617 0
M  V30 3708 O 373.368 0.42841 2.12117 0
M  V30 3709 C 373.963 3.35071 0.501299 0
M  V30 3710 C 372.522 3.6418 0.951304 0
M  V30 3711 C 371.669 2.77292 0.0208209 0
M  V30 3712 H 374.62 1.52005 -0.456074 0
M  V30 3713 H 374.641 3.55906 1.34577 0
M  V30 3714 H 374.153 3.85424 -0.454936 0
M  V30 3715 H 372.254 3.19293 1.92049 0
M  V30 3716 H 372.367 4.72071 0.817675 0
M  V30 3717 H 370.731 2.49131 0.529723 0
M  V30 3718 H 371.514 3.30448 -0.93054 0
M  V30 3719 N 373.959 -0.0401083 1.57549 0
M  V30 3720 C 375.206 -0.733125 1.88763 0
M  V30 3721 C 375.534 -1.75946 0.829058 0
M  V30 3722 O 374.789 -1.94949 -0.171323 0
M  V30 3723 C 375.088 -1.44902 3.26708 0
M  V30 3724 C 374.754 -0.559707 4.47413 0
M  V30 3725 C 373.416 -0.314731 4.8017 0
M  V30 3726 C 375.768 0.0549743 5.21171 0
M  V30 3727 C 373.096 0.553886 5.8408 0
M  V30 3728 C 375.448 0.911229 6.26003 0
M  V30 3729 C 374.112 1.16577 6.57241 0
M  V30 3730 H 373.382 -0.268269 0.690733 0
M  V30 3731 H 376.029 0.00679408 1.91499 0
M  V30 3732 H 374.334 -2.26197 3.1991 0
M  V30 3733 H 376.031 -1.99058 3.48105 0
M  V30 3734 H 372.621 -0.760793 4.21794 0
M  V30 3735 H 376.805 -0.121344 4.96152 0
M  V30 3736 H 372.061 0.759518 6.06664 0
M  V30 3737 H 376.235 1.3941 6.82303 0
M  V30 3738 H 373.862 1.84058 7.37582 0
M  V30 3739 N 375.437 -1.54477 -0.31217 0
M  V30 3740 C 376.367 -1.87652 -1.38957 0
M  V30 3741 C 377.348 -0.734358 -1.53431 0
M  V30 3742 O 378.533 -0.98911 -1.67123 0
M  V30 3743 C 375.663 -2.11396 -2.75552 0
M  V30 3744 C 374.617 -3.27243 -2.75855 0
M  V30 3745 C 373.943 -3.36382 -4.15633 0
M  V30 3746 C 375.243 -4.64622 -2.38587 0
M  V30 3747 H 376.937 -2.77887 -1.11442 0
M  V30 3748 H 374.483 -1.33707 -0.534655 0
M  V30 3749 H 376.436 -2.33189 -3.51 0
M  V30 3750 H 375.16 -1.17921 -3.04569 0
M  V30 3751 H 373.819 -3.05356 -2.02863 0
M  V30 3752 H 373.467 -2.40445 -4.41809 0
M  V30 3753 H 373.167 -4.14249 -4.1674 0
M  V30 3754 H 374.691 -3.60422 -4.92877 0
M  V30 3755 H 376.105 -4.86219 -3.03749 0
M  V30 3756 H 374.502 -5.45121 -2.50925 0
M  V30 3757 H 375.572 -4.66097 -1.33723 0
M  V30 3758 N 376.915 0.57481 -1.46744 0
M  V30 3759 C 378.14 1.36341 -1.56288 0
M  V30 3760 C 378.565 1.86954 -0.207347 0
M  V30 3761 O 377.923 1.62006 0.813871 0
M  V30 3762 C 377.971 2.52147 -2.57787 0
M  V30 3763 O 377.075 3.53834 -2.11838 0
M  V30 3764 H 376.416 0.405713 -0.525636 0
M  V30 3765 H 378.946 0.696453 -1.92382 0
M  V30 3766 H 378.956 2.98958 -2.77648 0
M  V30 3767 H 377.631 2.14663 -3.5622 0
M  V30 3768 H 376.208 3.1345 -2.01999 0
M  V30 3769 N 378.394 1.34581 0.820102 0
M  V30 3770 C 379.304 1.28471 1.96297 0
M  V30 3771 C 380.32 0.191902 1.72939 0
M  V30 3772 O 381.496 0.418879 1.96996 0
M  V30 3773 C 378.561 1.04281 3.30645 0
M  V30 3774 C 377.622 2.22745 3.66992 0
M  V30 3775 C 376.855 1.997 4.9493 0
M  V30 3776 O 377.078 0.956656 5.6232 0
M  V30 3777 O 376.012 2.86723 5.2922 0
M  V30 3778 H 379.838 2.24624 2.04396 0
M  V30 3779 H 377.423 1.14816 0.955913 0
M  V30 3780 H 379.305 0.925841 4.11104 0
M  V30 3781 H 377.98 0.111697 3.23507 0
M  V30 3782 H 376.887 2.40003 2.86966 0
M  V30 3783 H 378.22 3.14257 3.78819 0
M  V30 3784 N 379.872 -1.04064 1.18357 0
M  V30 3785 C 380.835 -2.10243 0.912707 0
M  V30 3786 C 381.835 -1.60477 -0.101928 0
M  V30 3787 O 383.025 -1.73703 0.131517 0
M  V30 3788 C 380.157 -3.38893 0.369387 0
M  V30 3789 H 381.35 -2.35706 1.85426 0
M  V30 3790 H 378.903 -1.20489 0.995594 0
M  V30 3791 H 379.638 -3.19094 -0.578776 0
M  V30 3792 H 379.423 -3.76331 1.1008 0
M  V30 3793 H 380.913 -4.17128 0.198575 0
M  V30 3794 N 381.35 -0.985608 -1.22978 0
M  V30 3795 C 382.298 -0.522631 -2.26652 0
M  V30 3796 C 383.292 0.422998 -1.64034 0
M  V30 3797 O 384.498 0.296319 -1.77544 0
M  V30 3798 H 380.873 -0.150597 -0.736766 0
M  V30 3799 H 382.844 -1.40863 -2.63059 0
M  V30 3800 C 381.593 0.154238 -3.47358 0
M  V30 3801 H 380.916 -0.564329 -3.95797 0
M  V30 3802 H 382.356 0.441744 -4.21693 0
M  V30 3803 C 380.815 1.38719 -3.07016 0
M  V30 3804 O 381.345 2.48307 -3.15764 0
M  V30 3805 N 379.551 1.25975 -2.61875 0
M  V30 3806 H 379.098 0.368068 -2.54957 0
M  V30 3807 H 379.056 2.08578 -2.3525 0
M  V30 3808 N 382.828 1.3818 -0.7579 0
M  V30 3809 C 383.791 2.28764 -0.141286 0
M  V30 3810 C 384.791 1.47388 0.642907 0
M  V30 3811 O 385.981 1.67781 0.468536 0
M  V30 3812 C 383.113 3.31184 0.808069 0
M  V30 3813 H 384.306 2.848 -0.939633 0
M  V30 3814 H 381.859 1.47212 -0.525191 0
M  V30 3815 H 382.594 2.80247 1.63193 0
M  V30 3816 H 382.379 3.91314 0.248104 0
M  V30 3817 H 383.869 3.98909 1.23536 0
M  V30 3818 N 384.306 0.507319 1.49211 0
M  V30 3819 C 385.216 -0.272136 2.33016 0
M  V30 3820 C 386.232 -0.961206 1.45041 0
M  V30 3821 O 387.408 -0.941191 1.78055 0
M  V30 3822 C 384.473 -1.31895 3.20631 0
M  V30 3823 C 383.534 -0.642648 4.24463 0
M  V30 3824 C 382.767 -1.63959 5.07891 0
M  V30 3825 O 382.99 -2.87007 4.92933 0
M  V30 3826 O 381.924 -1.19143 5.8999 0
M  V30 3827 H 385.75 0.413982 3.00865 0
M  V30 3828 H 383.335 0.268556 1.46966 0
M  V30 3829 H 385.217 -1.92446 3.7489 0
M  V30 3830 H 383.892 -1.98788 2.5547 0
M  V30 3831 H 382.799 0.00276252 3.741 0
M  V30 3832 H 384.132 -0.0160534 4.92197 0
M  V30 3833 N 385.784 -1.5574 0.241426 0
M  V30 3834 C 387.2 -1.59196 -0.113548 0
M  V30 3835 C 387.4 -1.25852 -1.57364 0
M  V30 3836 O 386.456 -1.00322 -2.31715 0
M  V30 3837 C 387.769 -2.99814 0.230695 0
M  V30 3838 C 389.317 -3.12513 0.174547 0
M  V30 3839 C 389.792 -4.55342 0.492744 0
M  V30 3840 N 391.283 -4.61076 0.443043 0
M  V30 3841 C 392.018 -5.6956 0.662484 0
M  V30 3842 N 391.514 -6.86328 0.944761 0
M  V30 3843 N 393.307 -5.58957 0.593564 0
M  V30 3844 H 385.458 -1.75685 1.19368 0
M  V30 3845 H 387.721 -0.81756 0.479896 0
M  V30 3846 H 387.427 -3.28932 1.24485 0
M  V30 3847 H 387.301 -3.74568 -0.444833 0
M  V30 3848 H 389.688 -2.83179 -0.830277 0
M  V30 3849 H 389.769 -2.40045 0.883845 0
M  V30 3850 H 389.413 -4.85396 1.4951 0
M  V30 3851 H 389.343 -5.26062 -0.23797 0
M  V30 3852 H 391.834 -3.77179 0.233374 0
M  V30 3853 H 392.147 -7.64935 1.09977 0
M  V30 3854 H 390.492 -6.88025 0.982175 0
M  V30 3855 H 393.683 -4.66611 0.373123 0
M  V30 3856 H 393.856 -6.43433 0.767981 0
M  V30 3857 N 387.262 0.0317525 -1.57568 0
M  V30 3858 C 388.511 0.722131 -1.8833 0
M  V30 3859 C 388.824 1.76664 -0.839587 0
M  V30 3860 O 390.03 2.50942 -1.03635 0
M  V30 3861 C 388.486 1.33544 -3.34207 0
M  V30 3862 C 388.094 0.327415 -4.46802 0
M  V30 3863 C 389.838 2.00585 -3.7412 0
M  V30 3864 C 387.745 0.948915 -5.83738 0
M  V30 3865 H 386.675 0.273466 -0.702661 0
M  V30 3866 H 389.326 -0.0235811 -1.83485 0
M  V30 3867 H 387.708 2.13077 -3.33788 0
M  V30 3868 H 388.882 -0.441006 -4.58685 0
M  V30 3869 H 387.197 -0.240758 -4.15703 0
M  V30 3870 H 389.794 2.47932 -4.73744 0
M  V30 3871 H 390.137 2.82285 -3.05975 0
M  V30 3872 H 390.67 1.27831 -3.76702 0
M  V30 3873 H 387.409 0.171387 -6.55276 0
M  V30 3874 H 386.929 1.68724 -5.7558 0
M  V30 3875 H 388.608 1.45705 -6.3038 0
M  V30 3876 N 388.74 1.54641 0.303973 0
M  V30 3877 C 389.986 1.74038 1.04109 0
M  V30 3878 C 390.319 0.523051 1.87024 0
M  V30 3879 O 389.594 -0.479874 1.88487 0
M  V30 3880 C 389.877 3.02761 1.94955 0
M  V30 3881 C 389.73 4.34787 1.1524 0
M  V30 3882 C 391.049 3.27336 2.94175 0
M  V30 3883 H 388.168 0.63323 0.377079 0
M  V30 3884 H 390.81 1.87354 0.316001 0
M  V30 3885 H 388.96 2.9154 2.56782 0
M  V30 3886 H 390.632 4.57922 0.557236 0
M  V30 3887 H 388.875 4.31407 0.455053 0
M  V30 3888 H 389.546 5.21116 1.8205 0
M  V30 3889 H 392.022 3.38148 2.42477 0
M  V30 3890 H 390.898 4.18726 3.54908 0
M  V30 3891 H 391.159 2.45491 3.67677 0
M  V30 3892 N 390.218 -0.567019 1.47046 0
M  V30 3893 C 391.634 -0.891975 1.32348 0
M  V30 3894 C 391.834 -1.99154 0.306616 0
M  V30 3895 O 390.89 -2.50883 -0.28532 0
M  V30 3896 C 392.203 -1.29449 2.7141 0
M  V30 3897 C 393.751 -1.40646 2.79621 0
M  V30 3898 C 394.226 -1.84257 4.19301 0
M  V30 3899 N 395.717 -1.91424 4.21795 0
M  V30 3900 C 396.452 -2.26476 5.26779 0
M  V30 3901 N 395.948 -2.60211 6.42077 0
M  V30 3902 N 397.741 -2.27166 5.14152 0
M  V30 3903 H 389.892 0.159074 2.11803 0
M  V30 3904 H 392.155 0.00849752 0.947962 0
M  V30 3905 H 391.861 -0.560448 3.47206 0
M  V30 3906 H 391.735 -2.25273 3.02542 0
M  V30 3907 H 394.122 -2.13133 2.04104 0
M  V30 3908 H 394.203 -0.430339 2.52154 0
M  V30 3909 H 393.847 -1.12343 4.95319 0
M  V30 3910 H 393.777 -2.82855 4.44185 0
M  V30 3911 H 396.268 -1.6778 3.38612 0
M  V30 3912 H 396.581 -2.85956 7.17948 0
M  V30 3913 H 394.926 -2.57813 6.45413 0
M  V30 3914 H 398.117 -2.00244 4.23107 0
M  V30 3915 H 398.29 -2.54154 5.96079 0
M  V30 3916 N 391.696 -1.35014 -0.812953 0
M  V30 3917 C 392.924 -1.31031 -1.6012 0
M  V30 3918 C 393.339 0.113558 -1.88458 0
M  V30 3919 O 392.696 1.06363 -1.48301 0
M  V30 3920 C 392.747 -2.10872 -2.93624 0
M  V30 3921 O 392.468 -3.47706 -2.66518 0
M  V30 3922 C 393.969 -2.14401 -3.88004 0
M  V30 3923 H 391.189 -0.45037 -0.497401 0
M  V30 3924 H 393.733 -1.77775 -1.01076 0
M  V30 3925 H 391.888 -1.67744 -3.492 0
M  V30 3926 H 392.302 -3.89097 -3.51715 0
M  V30 3927 H 393.776 -2.74669 -4.78812 0
M  V30 3928 H 394.253 -1.14105 -4.24119 0
M  V30 3929 H 394.859 -2.57662 -3.38364 0
M  V30 3930 N 393.175 1.03435 -1.18907 0
M  V30 3931 C 394.105 2.13503 -0.945448 0
M  V30 3932 C 395.086 1.69682 0.119189 0
M  V30 3933 O 396.271 1.94169 -0.034707 0
M  V30 3934 C 393.401 3.44004 -0.477316 0
M  V30 3935 C 392.355 4.0148 -1.48316 0
M  V30 3936 C 391.681 5.27537 -0.872311 0
M  V30 3937 C 392.981 4.36921 -2.86177 0
M  V30 3938 H 394.675 2.34141 -1.86597 0
M  V30 3939 H 392.221 1.12523 -0.898584 0
M  V30 3940 H 394.174 4.20372 -0.294204 0
M  V30 3941 H 392.898 3.23072 0.478786 0
M  V30 3942 H 391.557 3.27201 -1.65332 0
M  V30 3943 H 391.205 5.02917 0.0911752 0
M  V30 3944 H 390.905 5.66954 -1.54393 0
M  V30 3945 H 392.429 6.06576 -0.699871 0
M  V30 3946 H 393.843 5.04248 -2.72776 0
M  V30 3947 H 392.24 4.87405 -3.50081 0
M  V30 3948 H 393.31 3.46466 -3.39248 0
M  V30 3949 N 394.653 0.992116 1.22453 0
M  V30 3950 C 395.893 0.675727 1.92907 0
M  V30 3951 C 396.257 -0.777762 1.75542 0
M  V30 3952 O 397.458 -1.20553 2.40251 0
M  V30 3953 C 395.729 1.0696 3.4102 0
M  V30 3954 S 397.288 0.871456 4.30059 0
M  V30 3955 H 394.106 0.247089 0.666684 0
M  V30 3956 H 396.708 1.27423 1.48269 0
M  V30 3957 H 395.412 2.12383 3.51172 0
M  V30 3958 H 394.943 0.462858 3.90668 0
M  V30 3959 H 396.958 -0.238436 4.95627 0
M  V30 3960 N 396.131 -1.37776 0.765217 0
M  V30 3961 C 397.078 -2.30342 0.145274 0
M  V30 3962 C 398.048 -1.5077 -0.696971 0
M  V30 3963 O 399.233 -1.79362 -0.650689 0
M  V30 3964 C 396.373 -3.37227 -0.732939 0
M  V30 3965 C 395.486 -4.31819 0.125199 0
M  V30 3966 C 394.621 -5.25777 -0.757107 0
M  V30 3967 C 393.66 -6.12012 0.103963 0
M  V30 3968 N 392.797 -6.98232 -0.735953 0
M  V30 3969 H 397.637 -2.8278 0.940195 0
M  V30 3970 H 395.174 -1.39211 0.475255 0
M  V30 3971 H 397.132 -3.97818 -1.25686 0
M  V30 3972 H 395.762 -2.86171 -1.49353 0
M  V30 3973 H 394.814 -3.7259 0.766865 0
M  V30 3974 H 396.126 -4.92509 0.789683 0
M  V30 3975 H 395.28 -5.91541 -1.34776 0
M  V30 3976 H 394.019 -4.65481 -1.45529 0
M  V30 3977 H 393.024 -5.45233 0.707197 0
M  V30 3978 H 394.249 -6.74379 0.799381 0
M  V30 3979 H 392.195 -6.40472 -1.41887 0
M  V30 3980 H 392.112 -7.55891 -0.128624 0
M  V30 3981 H 393.38 -7.68393 -1.31121 0
M  V30 3982 N 397.609 -0.515225 -1.4894 0
M  V30 3983 C 398.855 0.0242508 -2.02785 0
M  V30 3984 C 399.188 1.35323 -1.39289 0
M  V30 3985 O 398.463 1.87041 -0.533469 0
M  V30 3986 C 398.746 0.16184 -3.59736 0
M  V30 3987 C 398.599 -1.19127 -4.33738 0
M  V30 3988 C 399.918 0.895719 -4.30888 0
M  V30 3989 H 397.037 0.00733914 -0.736963 0
M  V30 3990 H 399.679 -0.669395 -1.77818 0
M  V30 3991 H 397.829 0.752624 -3.8114 0
M  V30 3992 H 399.501 -1.82202 -4.23792 0
M  V30 3993 H 397.744 -1.77695 -3.95736 0
M  V30 3994 H 398.415 -1.04815 -5.41957 0
M  V30 3995 H 400.891 0.394528 -4.14225 0
M  V30 3996 H 399.767 0.960859 -5.40425 0
M  V30 3997 H 400.028 1.9427 -3.97129 0
M  V30 3998 N 399.087 1.5561 -0.249682 0
M  V30 3999 C 400.503 1.59254 0.105103 0
M  V30 4000 C 400.703 1.26685 1.56694 0
M  V30 4001 O 399.759 1.0155 2.31179 0
M  V30 4002 C 401.072 2.99687 -0.246592 0
M  V30 4003 C 402.62 3.12416 -0.191118 0
M  V30 4004 C 403.095 4.55074 -0.516885 0
M  V30 4005 N 404.586 4.60835 -0.467489 0
M  V30 4006 C 405.321 5.69201 -0.69268 0
M  V30 4007 N 404.817 6.85817 -0.981146 0
M  V30 4008 N 406.61 5.58635 -0.623198 0
M  V30 4009 H 398.761 1.75049 -1.20298 0
M  V30 4010 H 401.024 0.815003 -0.484225 0
M  V30 4011 H 400.73 3.28267 -1.26228 0
M  V30 4012 H 400.604 3.74798 0.424962 0
M  V30 4013 H 402.991 2.83615 0.815247 0
M  V30 4014 H 403.072 2.39573 -0.896563 0
M  V30 4015 H 402.716 4.84596 -1.52082 0
M  V30 4016 H 402.646 5.26181 0.210068 0
M  V30 4017 H 405.137 3.7705 -0.253373 0
M  V30 4018 H 405.45 7.64341 -1.14032 0
M  V30 4019 H 403.795 6.87494 -1.01865 0
M  V30 4020 H 406.986 4.66406 -0.397863 0
M  V30 4021 H 407.159 6.43017 -0.802093 0
M  V30 4022 N 400.565 -0.0233959 1.57583 0
M  V30 4023 C 401.813 -0.711654 1.89156 0
M  V30 4024 C 402.134 -1.75591 0.848096 0
M  V30 4025 O 401.404 -1.95547 -0.117566 0
M  V30 4026 H 399.984 -0.265835 0.698098 0
M  V30 4027 H 402.646 0.0119948 1.94896 0
M  V30 4028 H 401.742 -1.19766 2.88206 0
M  V30 4029 N 402.043 -1.548 -0.295768 0
M  V30 4030 C 403.006 -1.85363 -1.34808 0
M  V30 4031 C 404.006 -0.726817 -1.43436 0
M  V30 4032 O 405.196 -0.995088 -1.42981 0
M  V30 4033 C 402.328 -2.03859 -2.73229 0
M  V30 4034 H 403.521 -2.7941 -1.08949 0
M  V30 4035 H 401.074 -1.46942 -0.532702 0
M  V30 4036 H 401.809 -1.12117 -3.04303 0
M  V30 4037 H 401.594 -2.8588 -2.68356 0
M  V30 4038 H 403.084 -2.28857 -3.49305 0
M  V30 4039 N 403.521 0.559213 -1.47345 0
M  V30 4040 C 404.484 1.64854 -1.59235 0
M  V30 4041 C 405.484 1.53851 -0.467607 0
M  V30 4042 O 406.674 1.58045 -0.732617 0
M  V30 4043 C 403.806 3.04388 -1.53496 0
M  V30 4044 H 404.999 1.55662 -2.56339 0
M  V30 4045 H 402.552 0.778973 -1.35505 0
M  V30 4046 H 403.287 3.19115 -0.577604 0
M  V30 4047 H 403.072 3.13783 -2.35123 0
M  V30 4048 H 404.562 3.83642 -1.6495 0
M  V30 4049 N 404.999 1.35443 0.805782 0
M  V30 4050 C 405.929 1.31095 1.93226 0
M  V30 4051 C 406.91 0.185244 1.69088 0
M  V30 4052 O 408.095 0.380332 1.90439 0
M  V30 4053 C 405.225 1.08299 3.29983 0
M  V30 4054 C 404.179 2.17519 3.68605 0
M  V30 4055 C 403.505 1.79887 5.03532 0
M  V30 4056 C 404.805 3.5949 3.78898 0
M  V30 4057 H 406.499 2.25352 1.97122 0
M  V30 4058 H 404.045 1.0848 0.946996 0
M  V30 4059 H 405.998 1.03897 4.08391 0
M  V30 4060 H 404.722 0.104885 3.26432 0
M  V30 4061 H 403.381 2.2102 2.92482 0
M  V30 4062 H 403.029 0.80693 4.96485 0
M  V30 4063 H 402.729 2.53001 5.30344 0
M  V30 4064 H 404.253 1.77011 5.84379 0
M  V30 4065 H 405.667 3.58307 4.47536 0
M  V30 4066 H 404.064 4.31371 4.1718 0
M  V30 4067 H 405.134 3.95584 2.80431 0
M  V30 4068 N 406.477 -1.02803 1.19454 0
M  V30 4069 C 407.424 -2.11099 0.933046 0
M  V30 4070 C 408.394 -1.65571 -0.132447 0
M  V30 4071 O 409.579 -1.90797 0.00987576 0
M  V30 4072 C 406.719 -3.41763 0.478747 0
M  V30 4073 C 405.832 -4.00833 1.6111 0
M  V30 4074 C 404.967 -5.19511 1.10825 0
M  V30 4075 C 404.006 -5.70639 2.21445 0
M  V30 4076 N 403.143 -6.80589 1.72461 0
M  V30 4077 H 407.983 -2.32804 1.86028 0
M  V30 4078 H 405.52 -1.14179 0.927441 0
M  V30 4079 H 407.478 -4.16736 0.196745 0
M  V30 4080 H 406.108 -3.20166 -0.411493 0
M  V30 4081 H 405.16 -3.23066 2.00829 0
M  V30 4082 H 406.472 -4.34794 2.4445 0
M  V30 4083 H 405.626 -6.01645 0.781533 0
M  V30 4084 H 404.365 -4.87086 0.244606 0
M  V30 4085 H 403.37 -4.87116 2.54947 0
M  V30 4086 H 404.595 -6.05102 3.08267 0
M  V30 4087 H 402.541 -6.50016 0.884056 0
M  V30 4088 H 402.458 -7.13681 2.49389 0
M  V30 4089 H 403.726 -7.66317 1.42755 0
M  V30 4090 N 407.956 -0.998596 -1.21925 0
M  V30 4091 C 408.886 -0.573688 -2.26343 0
M  V30 4092 C 409.867 0.402296 -1.65274 0
M  V30 4093 O 411.052 0.291683 -1.91997 0
M  V30 4094 C 408.182 0.106839 -3.47136 0
M  V30 4095 C 407.136 -0.788269 -4.20678 0
M  V30 4096 C 406.462 0.0254927 -5.34694 0
M  V30 4097 C 407.762 -2.08784 -4.78755 0
M  V30 4098 H 409.456 -1.44651 -2.62138 0
M  V30 4099 H 407.002 -0.696975 -1.26009 0
M  V30 4100 H 408.955 0.415531 -4.19346 0
M  V30 4101 H 407.679 1.01424 -3.10452 0
M  V30 4102 H 406.338 -1.08069 -3.50309 0
M  V30 4103 H 405.986 0.933989 -4.94253 0
M  V30 4104 H 405.686 -0.570437 -5.84825 0
M  V30 4105 H 407.21 0.328147 -6.09718 0
M  V30 4106 H 408.624 -1.84272 -5.42878 0
M  V30 4107 H 407.021 -2.63307 -5.39249 0
M  V30 4108 H 408.091 -2.76284 -3.98491 0
M  V30 4109 N 409.434 1.37368 -0.772513 0
M  V30 4110 C 410.682 1.99279 -0.336516 0
M  V30 4111 C 411.003 1.6163 1.09091 0
M  V30 4112 O 410.273 0.882109 1.74916 0
M  V30 4113 H 408.853 0.737063 -0.121435 0
M  V30 4114 H 411.515 1.67836 -0.990809 0
M  V30 4115 H 410.611 3.09332 -0.414763 0
M  V30 4116 N 410.912 0.523116 1.48665 0
M  V30 4117 C 411.844 -0.280421 2.27478 0
M  V30 4118 C 412.857 -0.910694 1.34945 0
M  V30 4119 O 414.046 -0.790295 1.60052 0
M  V30 4120 C 411.146 -1.41171 3.08097 0
M  V30 4121 C 410.319 -0.884642 4.28361 0
M  V30 4122 C 409.378 -1.89622 4.90846 0
M  V30 4123 O 408.404 -1.4559 5.50265 0
M  V30 4124 N 409.606 -3.22801 4.82472 0
M  V30 4125 H 412.371 0.395481 2.97079 0
M  V30 4126 H 409.932 0.357018 1.57915 0
M  V30 4127 H 411.924 -2.08645 3.4677 0
M  V30 4128 H 410.494 -1.99139 2.40961 0
M  V30 4129 H 409.714 -0.0341177 3.94185 0
M  V30 4130 H 411.002 -0.511268 5.06225 0
M  V30 4131 H 410.4 -3.61246 4.35336 0
M  V30 4132 H 408.957 -3.85927 5.25265 0
M  V30 4133 N 412.39 -1.55475 0.257931 0
M  V30 4134 C 413.323 -2.179 -0.677862 0
M  V30 4135 C 414.301 -1.13448 -1.16483 0
M  V30 4136 O 415.485 -1.41889 -1.24095 0
M  V30 4137 C 412.612 -2.78851 -1.92249 0
M  V30 4138 C 411.658 -3.96454 -1.57246 0
M  V30 4139 S 412.491 -5.31349 -0.665501 0
M  V30 4140 C 413.647 -5.9576 -1.91889 0
M  V30 4141 H 413.88 -2.96934 -0.147396 0
M  V30 4142 H 411.413 -1.54342 0.0423023 0
M  V30 4143 H 413.371 -3.14602 -2.63697 0
M  V30 4144 H 412.032 -1.99742 -2.42409 0
M  V30 4145 H 411.225 -4.37731 -2.49814 0
M  V30 4146 H 410.827 -3.62038 -0.938325 0
M  V30 4147 H 413.119 -6.13947 -2.86487 0
M  V30 4148 H 414.062 -6.9094 -1.54942 0
M  V30 4149 H 414.47 -5.2494 -2.076 0
M  V30 4150 N 413.868 0.0150385 -1.57593 0
M  V30 4151 C 414.798 1.01047 -2.10503 0
M  V30 4152 C 415.779 1.36816 -1.01071 0
M  V30 4153 O 416.964 1.45455 -1.28672 0
M  V30 4154 C 414.094 2.30708 -2.59598 0
M  V30 4155 C 413.048 2.09142 -3.73421 0
M  V30 4156 C 412.374 3.44685 -4.08774 0
M  V30 4157 C 413.674 1.46619 -5.01298 0
M  V30 4158 H 415.368 0.569978 -2.93925 0
M  V30 4159 H 412.914 0.272724 -1.41394 0
M  V30 4160 H 414.867 3.00687 -2.95238 0
M  V30 4161 H 413.591 2.76843 -1.73279 0
M  V30 4162 H 412.25 1.41592 -3.38153 0
M  V30 4163 H 411.898 3.88495 -3.195 0
M  V30 4164 H 411.598 3.31077 -4.8545 0
M  V30 4165 H 413.122 4.16004 -4.4696 0
M  V30 4166 H 414.536 2.06535 -5.34805 0
M  V30 4167 H 412.933 1.43544 -5.82679 0
M  V30 4168 H 414.003 0.433611 -4.82957 0
M  V30 4169 N 415.346 1.54954 0.287554 0
M  V30 4170 C 416.571 1.79209 1.04397 0
M  V30 4171 C 416.996 0.556431 1.79682 0
M  V30 4172 O 416.354 -0.493518 1.74454 0
M  V30 4173 C 416.402 3.00739 1.98969 0
M  V30 4174 O 415.506 2.74805 3.075 0
M  V30 4175 H 414.847 0.592755 0.299227 0
M  V30 4176 H 417.377 2.02068 0.320886 0
M  V30 4177 H 417.387 3.29077 2.4119 0
M  V30 4178 H 416.062 3.90329 1.43582 0
M  V30 4179 H 414.639 2.57523 2.69697 0
M  V30 4180 N 416.824 -0.551391 1.4764 0
M  V30 4181 C 418.073 -1.30467 1.53822 0
M  V30 4182 C 418.386 -1.94495 0.207661 0
M  V30 4183 O 419.592 -2.71099 0.147533 0
M  V30 4184 C 418.048 -2.36616 2.71184 0
M  V30 4185 C 417.656 -1.78754 4.10793 0
M  V30 4186 C 419.4 -3.13088 2.86663 0
M  V30 4187 C 417.307 -2.82717 5.19447 0
M  V30 4188 H 416.237 -0.490584 0.572576 0
M  V30 4189 H 418.888 -0.58494 1.73927 0
M  V30 4190 H 417.27 -3.11529 2.4447 0
M  V30 4191 H 418.444 -1.10173 4.47435 0
M  V30 4192 H 416.759 -1.14846 4.00249 0
M  V30 4193 H 419.356 -3.90736 3.65007 0
M  V30 4194 H 419.699 -3.67635 1.95321 0
M  V30 4195 H 420.232 -2.45288 3.13175 0
M  V30 4196 H 416.971 -2.33018 6.12685 0
M  V30 4197 H 416.491 -3.4969 4.87316 0
M  V30 4198 H 418.17 -3.46102 5.46646 0
M  V30 4199 N 418.302 -1.35869 -0.798587 0
M  V30 4200 C 419.234 -1.25305 -1.91915 0
M  V30 4201 C 420.247 -0.174548 -1.61862 0
M  V30 4202 O 421.436 -0.428499 -1.73281 0
M  V30 4203 C 418.536 -0.9086 -3.26493 0
M  V30 4204 C 417.709 -2.08711 -3.84394 0
M  V30 4205 C 416.768 -1.71717 -4.97393 0
M  V30 4206 O 415.794 -2.43692 -5.14396 0
M  V30 4207 N 416.996 -0.645473 -5.769 0
M  V30 4208 H 419.761 -2.21849 -2.01502 0
M  V30 4209 H 417.322 -1.29143 -0.976408 0
M  V30 4210 H 419.314 -0.642455 -3.99568 0
M  V30 4211 H 417.884 -0.0325815 -3.12583 0
M  V30 4212 H 417.104 -2.51659 -3.03416 0
M  V30 4213 H 418.392 -2.87468 -4.19809 0
M  V30 4214 H 417.79 -0.047648 -5.6568 0
M  V30 4215 H 416.347 -0.43913 -6.50319 0
M  V30 4216 N 419.78 1.02168 -1.19998 0
M  V30 4217 C 421.057 1.72816 -0.916191 0
M  V30 4218 C 421.437 2.03081 0.576325 0
M  V30 4219 O 420.785 1.69122 1.53656 0
M  V30 4220 C 420.995 2.9997 -1.78378 0
M  V30 4221 C 422.343 3.73336 -2.02251 0
M  V30 4222 O 423.367 3.09914 -1.75589 0
M  V30 4223 O 422.226 4.87371 -2.47249 0
M  V30 4224 H 419.32 0.752924 -0.342103 0
M  V30 4225 H 421.866 1.08062 -1.30846 0
M  V30 4226 H 420.638 2.73888 -2.79466 0
M  V30 4227 H 420.261 3.72464 -1.39126 0
M  V30 4228 N 421.258 1.00505 1.21394 0
M  V30 4229 C 422.535 0.603277 1.86064 0
M  V30 4230 C 422.915 -0.919095 1.90042 0
M  V30 4231 O 422.263 -1.80607 1.39977 0
M  V30 4232 C 422.473 1.23772 3.26315 0
M  V30 4233 C 423.821 1.34586 4.02705 0
M  V30 4234 O 424.845 1.19304 3.35626 0
M  V30 4235 O 423.704 1.59169 5.22807 0
M  V30 4236 H 420.798 0.206634 0.800769 0
M  V30 4237 H 423.344 1.1017 1.29076 0
M  V30 4238 H 422.116 2.27848 3.18121 0
M  V30 4239 H 421.739 0.725648 3.90922 0
M  V30 4240 N 422.737 -1.36956 0.779787 0
M  V30 4241 C 423.7 -2.2851 0.177662 0
M  V30 4242 C 424.7 -1.48393 -0.619377 0
M  V30 4243 O 425.89 -1.68505 -0.441785 0
M  V30 4244 C 423.022 -3.32428 -0.755279 0
M  V30 4245 H 424.215 -2.83269 0.984823 0
M  V30 4246 H 421.768 -1.46358 0.548544 0
M  V30 4247 H 422.503 -2.82808 -1.58714 0
M  V30 4248 H 422.288 -3.91659 -0.185817 0
M  V30 4249 H 423.778 -4.00824 -1.17174 0
M  V30 4250 N 424.215 -0.530993 -1.48385 0
M  V30 4251 C 425.462 0.0027373 -2.025 0
M  V30 4252 C 425.79 1.34186 -1.40799 0
M  V30 4253 O 425.045 1.88 -0.543544 0
M  V30 4254 C 425.344 0.172742 -3.56982 0
M  V30 4255 C 425.01 -1.09215 -4.37473 0
M  V30 4256 C 423.672 -1.43881 -4.59186 0
M  V30 4257 C 426.024 -1.93153 -4.84088 0
M  V30 4258 C 423.352 -2.62381 -5.2476 0
M  V30 4259 C 425.704 -3.10833 -5.50968 0
M  V30 4260 C 424.368 -3.45843 -5.70919 0
M  V30 4261 H 423.638 0.00100165 -0.740999 0
M  V30 4262 H 426.285 -0.697219 -1.78357 0
M  V30 4263 H 424.59 0.955473 -3.79971 0
M  V30 4264 H 426.287 0.600642 -3.96476 0
M  V30 4265 H 422.877 -0.812177 -4.20834 0
M  V30 4266 H 427.061 -1.67683 -4.67115 0
M  V30 4267 H 422.317 -2.89707 -5.38405 0
M  V30 4268 H 426.491 -3.7618 -5.86056 0
M  V30 4269 H 424.118 -4.37764 -6.21503 0
M  V30 4270 N 425.693 1.55336 -0.266172 0
M  V30 4271 C 426.942 1.98574 0.353749 0
M  V30 4272 C 427.255 1.15789 1.57646 0
M  V30 4273 O 428.461 1.49129 2.26876 0
M  V30 4274 C 426.917 3.53403 0.680747 0
M  V30 4275 C 426.525 4.44953 -0.52165 0
M  V30 4276 C 428.269 4.05251 1.26379 0
M  V30 4277 C 426.176 5.91156 -0.169736 0
M  V30 4278 H 425.106 0.741643 0.135949 0
M  V30 4279 H 427.757 1.79743 -0.369421 0
M  V30 4280 H 426.139 3.68001 1.46257 0
M  V30 4281 H 427.313 4.42121 -1.29869 0
M  V30 4282 H 425.628 4.03691 -1.02093 0
M  V30 4283 H 428.225 5.12021 1.54074 0
M  V30 4284 H 428.568 3.53749 2.19471 0
M  V30 4285 H 429.101 3.94057 0.544447 0
M  V30 4286 H 425.84 6.46736 -1.0683 0
M  V30 4287 H 425.36 5.97079 0.570717 0
M  V30 4288 H 427.039 6.4655 0.241245 0
M  V30 4289 N 427.171 -0.0066808 1.57599 0
M  V30 4290 C 428.119 -1.01851 2.09115 0
M  V30 4291 C 429.113 -1.36021 1.00969 0
M  V30 4292 O 430.319 -1.34663 1.19439 0
M  V30 4293 H 426.694 -0.346083 0.667631 0
M  V30 4294 H 428.665 -0.558394 2.93129 0
M  V30 4295 C 427.414 -2.30374 2.60429 0
M  V30 4296 H 426.737 -2.04947 3.43273 0
M  V30 4297 H 428.177 -2.99466 3.00161 0
M  V30 4298 C 426.636 -3.00893 1.51542 0
M  V30 4299 O 427.166 -3.91614 0.894484 0
M  V30 4300 N 425.372 -2.62603 1.2445 0
M  V30 4301 H 424.919 -1.88911 1.75129 0
M  V30 4302 H 424.877 -3.10101 0.518137 0
M  V30 4303 N 428.649 -1.55105 -0.279332 0
M  V30 4304 C 430.06 -1.66186 -0.850832 0
M  V30 4305 C 430.411 -0.584707 -1.87285 0
M  V30 4306 O 429.536 0.274919 -2.14647 0
M  V30 4307 C 430.131 -3.01264 -1.55001 0
M  V30 4308 C 428.69 -3.14394 -2.06963 0
M  V30 4309 C 427.837 -2.61959 -0.909536 0
M  V30 4310 H 430.788 -1.58602 -0.0558235 0
M  V30 4311 H 430.809 -2.93899 -2.41669 0
M  V30 4312 H 430.321 -3.7964 -0.805931 0
M  V30 4313 H 428.422 -2.4078 -2.84352 0
M  V30 4314 H 428.535 -4.20867 -2.28928 0
M  V30 4315 H 426.899 -2.18957 -1.30116 0
M  V30 4316 H 427.682 -3.42833 -0.179062 0
M  V30 4317 N 430.127 0.543554 -1.4793 0
M  V30 4318 C 431.077 1.64527 -1.57844 0
M  V30 4319 C 432.061 1.54869 -0.436408 0
M  V30 4320 O 433.253 1.63119 -0.687101 0
M  V30 4321 C 430.382 3.03281 -1.6086 0
M  V30 4322 C 429.468 3.18093 -2.80495 0
M  V30 4323 N 429.859 3.02923 -4.05057 0
M  V30 4324 C 428.157 3.49121 -2.77543 0
M  V30 4325 C 428.858 3.20791 -4.85251 0
M  V30 4326 N 427.834 3.47749 -4.17818 0
M  V30 4327 H 431.636 1.51388 -2.5191 0
M  V30 4328 H 429.15 0.748671 -1.44113 0
M  V30 4329 H 431.147 3.82403 -1.66054 0
M  V30 4330 H 429.807 3.17521 -0.678996 0
M  V30 4331 H 430.818 2.79966 -4.35705 0
M  V30 4332 H 427.495 3.69804 -1.93781 0
M  V30 4333 H 428.885 3.13915 -5.9406 0
M  V30 4334 N 431.605 1.3629 0.791371 0
M  V30 4335 C 432.535 1.33137 1.91825 0
M  V30 4336 C 433.516 0.203168 1.68882 0
M  V30 4337 O 434.701 0.400509 1.90025 0
M  V30 4338 C 431.831 1.11793 3.28816 0
M  V30 4339 C 430.785 2.21417 3.66277 0
M  V30 4340 C 430.111 1.85218 5.01596 0
M  V30 4341 C 431.411 3.63489 3.75064 0
M  V30 4342 H 433.105 2.2743 1.9472 0
M  V30 4343 H 430.651 1.09479 0.935437 0
M  V30 4344 H 432.604 1.08222 4.07266 0
M  V30 4345 H 431.328 0.139501 3.26302 0
M  V30 4346 H 429.987 2.2411 2.90121 0
M  V30 4347 H 429.635 0.859544 4.95602 0
M  V30 4348 H 429.335 2.58611 5.27631 0
M  V30 4349 H 430.859 1.832 5.82469 0
M  V30 4350 H 432.273 3.63034 4.43711 0
M  V30 4351 H 430.67 4.35771 4.12582 0
M  V30 4352 H 431.74 3.98536 2.76219 0
M  V30 4353 N 433.083 -1.0153 1.20538 0
M  V30 4354 C 434.046 -2.0826 0.957098 0
M  V30 4355 C 435.046 -1.60657 -0.0678655 0
M  V30 4356 O 436.236 -1.73385 0.168332 0
M  V30 4357 C 433.368 -3.38033 0.441188 0
M  V30 4358 H 434.561 -2.31719 1.90384 0
M  V30 4359 H 432.114 -1.1835 1.02093 0
M  V30 4360 H 432.849 -3.20249 -0.510961 0
M  V30 4361 H 432.634 -3.73911 1.18038 0
M  V30 4362 H 434.124 -4.16613 0.287009 0
M  V30 4363 N 434.561 -1.01147 -1.20859 0
M  V30 4364 C 435.508 -0.577354 -2.23462 0
M  V30 4365 C 436.478 0.399922 -1.61214 0
M  V30 4366 O 437.663 0.300515 -1.88419 0
M  V30 4367 C 434.803 0.083372 -3.44999 0
M  V30 4368 C 433.916 -0.937856 -4.21697 0
M  V30 4369 C 433.051 -0.248717 -5.30617 0
M  V30 4370 C 432.09 -1.25705 -5.99053 0
M  V30 4371 N 431.227 -0.594939 -6.99575 0
M  V30 4372 H 436.067 -1.45695 -2.59956 0
M  V30 4373 H 433.604 -0.729428 -1.27741 0
M  V30 4374 H 435.562 0.483535 -4.14388 0
M  V30 4375 H 434.192 0.926645 -3.09214 0
M  V30 4376 H 433.244 -1.45622 -3.51423 0
M  V30 4377 H 434.556 -1.70493 -4.68757 0
M  V30 4378 H 433.71 0.207215 -6.06346 0
M  V30 4379 H 432.449 0.55071 -4.84581 0
M  V30 4380 H 431.454 -1.72343 -5.2209 0
M  V30 4381 H 432.679 -2.05767 -6.47176 0
M  V30 4382 H 430.625 0.184713 -6.5574 0
M  V30 4383 H 430.542 -1.30017 -7.44736 0
M  V30 4384 H 431.81 -0.162427 -7.79331 0
M  V30 4385 N 436.039 1.36541 -0.78704 0
M  V30 4386 C 437.288 1.98552 -0.35494 0
M  V30 4387 C 437.601 1.63171 1.07864 0
M  V30 4388 O 438.807 2.18399 1.61289 0
M  V30 4389 C 437.263 3.55136 -0.583671 0
M  V30 4390 C 436.871 3.99444 -2.02851 0
M  V30 4391 C 438.615 4.2395 -0.215957 0
M  V30 4392 C 436.522 5.48796 -2.20403 0
M  V30 4393 H 435.452 0.742888 -0.128972 0
M  V30 4394 H 438.103 1.5587 -0.968337 0
M  V30 4395 H 436.485 3.95875 0.0994046 0
M  V30 4396 H 437.659 3.6991 -2.74779 0
M  V30 4397 H 435.974 3.43459 -2.35425 0
M  V30 4398 H 438.571 5.33709 -0.325405 0
M  V30 4399 H 438.914 4.07827 0.835646 0
M  V30 4400 H 439.447 3.88565 -0.852175 0
M  V30 4401 H 436.186 5.69864 -3.23937 0
M  V30 4402 H 435.706 5.79964 -1.52977 0
M  V30 4403 H 437.385 6.14986 -2.01002 0
M  V30 4404 N 437.518 0.538854 1.48102 0
M  V30 4405 C 438.765 0.0080018 2.02498 0
M  V30 4406 C 439.093 -1.33437 1.41509 0
M  V30 4407 O 438.348 -1.87709 0.553507 0
M  V30 4408 C 438.647 -0.153808 3.57069 0
M  V30 4409 C 438.313 1.11533 4.36888 0
M  V30 4410 C 436.975 1.46314 4.58417 0
M  V30 4411 C 439.327 1.95718 4.83057 0
M  V30 4412 C 436.655 2.6516 5.23361 0
M  V30 4413 C 439.007 3.13751 5.49312 0
M  V30 4414 C 437.671 3.48866 5.69077 0
M  V30 4415 H 436.941 0.00292807 0.740994 0
M  V30 4416 H 439.588 0.706668 1.77984 0
M  V30 4417 H 437.893 -0.935309 3.80472 0
M  V30 4418 H 439.59 -0.579607 3.96789 0
M  V30 4419 H 436.18 0.834484 4.20398 0
M  V30 4420 H 440.364 1.70158 4.66219 0
M  V30 4421 H 435.62 2.92558 5.36861 0
M  V30 4422 H 439.794 3.79282 5.84053 0
M  V30 4423 H 437.421 4.41054 6.19173 0
M  V30 4424 N 438.996 -1.55193 0.274407 0
M  V30 4425 C 439.906 -2.26164 -0.623473 0
M  V30 4426 C 440.922 -1.28729 -1.17068 0
M  V30 4427 O 442.098 -1.61663 -1.20112 0
M  V30 4428 C 439.163 -2.96833 -1.7914 0
M  V30 4429 C 438.224 -4.09745 -1.28093 0
M  V30 4430 C 437.457 -4.77034 -2.3932 0
M  V30 4431 O 437.68 -4.4353 -3.5866 0
M  V30 4432 O 436.614 -5.64996 -2.07516 0
M  V30 4433 H 440.44 -3.03661 -0.0485661 0
M  V30 4434 H 438.025 -1.49341 0.0418382 0
M  V30 4435 H 439.907 -3.41248 -2.4724 0
M  V30 4436 H 438.582 -2.22253 -2.35341 0
M  V30 4437 H 437.489 -3.69787 -0.566416 0
M  V30 4438 H 438.822 -4.86224 -0.764683 0
M  V30 4439 N 440.474 -0.00167713 -1.576 0
M  V30 4440 C 441.89 0.354422 -1.55615 0
M  V30 4441 C 442.09 1.74679 -1.00447 0
M  V30 4442 O 441.146 2.4428 -0.639022 0
M  V30 4443 C 442.459 0.22812 -2.99833 0
M  V30 4444 C 444.007 0.302934 -3.11531 0
M  V30 4445 C 444.482 0.205737 -4.57538 0
M  V30 4446 N 445.973 0.263584 -4.62449 0
M  V30 4447 C 446.708 0.211742 -5.73009 0
M  V30 4448 N 446.204 0.110399 -6.92712 0
M  V30 4449 N 447.997 0.263729 -5.61481 0
M  V30 4450 H 440.148 -0.912498 -1.918 0
M  V30 4451 H 442.411 -0.349928 -0.881053 0
M  V30 4452 H 442.117 -0.729934 -3.44042 0
M  V30 4453 H 441.991 1.00951 -3.6344 0
M  V30 4454 H 444.378 1.25143 -2.67251 0
M  V30 4455 H 444.459 -0.508357 -2.50698 0
M  V30 4456 H 444.103 -0.739225 -5.02492 0
M  V30 4457 H 444.033 1.03554 -5.16318 0
M  V30 4458 H 446.524 0.343173 -3.76339 0
M  V30 4459 H 446.837 0.0767828 -7.72762 0
M  V30 4460 H 445.182 0.0760025 -6.94958 0
M  V30 4461 H 448.373 0.34111 -4.66855 0
M  V30 4462 H 448.546 0.219862 -6.47627 0
M  V30 4463 N 441.952 1.55251 0.271103 0
M  V30 4464 C 443.198 1.76207 1.00394 0
M  V30 4465 C 443.531 0.562604 1.85872 0
M  V30 4466 O 442.806 -0.439785 1.89463 0
M  V30 4467 C 443.089 3.06828 1.8849 0
M  V30 4468 C 442.942 4.37134 1.05992 0
M  V30 4469 C 444.261 3.33503 2.87165 0
M  V30 4470 H 441.38 0.641086 0.363562 0
M  V30 4471 H 444.022 1.87982 0.276189 0
M  V30 4472 H 442.172 2.96921 2.5054 0
M  V30 4473 H 443.844 4.59001 0.459978 0
M  V30 4474 H 442.087 4.32275 0.363443 0
M  V30 4475 H 442.758 5.2486 1.70955 0
M  V30 4476 H 445.234 3.43215 2.3525 0
M  V30 4477 H 444.11 4.2616 3.45946 0
M  V30 4478 H 444.371 2.53235 3.62387 0
M  V30 4479 N 443.43 -0.535701 1.48216 0
M  V30 4480 C 444.846 -0.863701 1.3421 0
M  V30 4481 C 445.046 -1.98458 0.34879 0
M  V30 4482 O 444.102 -2.51432 -0.23204 0
M  V30 4483 C 445.415 -1.23662 2.74095 0
M  V30 4484 C 446.963 -1.34683 2.82541 0
M  V30 4485 C 447.438 -1.75322 4.23115 0
M  V30 4486 N 448.929 -1.82434 4.2576 0
M  V30 4487 C 449.664 -2.15252 5.31464 0
M  V30 4488 N 449.16 -2.46533 6.47452 0
M  V30 4489 N 450.953 -2.16209 5.18855 0
M  V30 4490 H 443.104 0.203965 2.11418 0
M  V30 4491 H 445.367 0.0286033 0.947568 0
M  V30 4492 H 445.073 -0.486674 3.48316 0
M  V30 4493 H 444.947 -2.18805 3.07253 0
M  V30 4494 H 447.334 -2.08756 2.08579 0
M  V30 4495 H 447.415 -0.376756 2.5301 0
M  V30 4496 H 447.059 -1.01812 4.97591 0
M  V30 4497 H 446.989 -2.7337 4.50085 0
M  V30 4498 H 449.48 -1.6056 3.42095 0
M  V30 4499 H 449.793 -2.70662 7.23852 0
M  V30 4500 H 448.138 -2.44065 6.50736 0
M  V30 4501 H 451.329 -1.91224 4.2726 0
M  V30 4502 H 451.502 -2.41453 6.01335 0
M  V30 4503 N 444.908 -1.36708 -0.784132 0
M  V30 4504 C 445.84 -1.27333 -1.90575 0
M  V30 4505 C 446.853 -0.191706 -1.61667 0
M  V30 4506 O 448.042 -0.446854 -1.72816 0
M  V30 4507 C 445.142 -0.943177 -3.25511 0
M  V30 4508 C 444.315 -2.12776 -3.82158 0
M  V30 4509 C 443.374 -1.76983 -4.95544 0
M  V30 4510 O 442.4 -2.49134 -5.11782 0
M  V30 4511 N 443.602 -0.706624 -5.76183 0
M  V30 4512 H 446.367 -2.23974 -1.99138 0
M  V30 4513 H 443.928 -1.30171 -0.962656 0
M  V30 4514 H 445.92 -0.684799 -3.98864 0
M  V30 4515 H 444.49 -0.0657333 -3.12531 0
M  V30 4516 H 443.71 -2.54863 -3.0073 0
M  V30 4517 H 444.998 -2.91904 -4.16737 0
M  V30 4518 H 444.396 -0.107643 -5.65598 0
M  V30 4519 H 442.953 -0.50808 -6.49817 0
M  V30 4520 N 446.386 1.0089 -1.21074 0
M  V30 4521 C 447.611 1.78727 -1.05221 0
M  V30 4522 C 448.036 1.83932 0.393795 0
M  V30 4523 O 447.394 1.28004 1.28393 0
M  V30 4524 C 447.442 3.20665 -1.64944 0
M  V30 4525 O 446.546 4.02632 -0.892273 0
M  V30 4526 H 445.887 0.550973 -0.370574 0
M  V30 4527 H 448.417 1.26847 -1.60534 0
M  V30 4528 H 448.427 3.71352 -1.69002 0
M  V30 4529 H 447.102 3.16191 -2.70177 0
M  V30 4530 H 445.679 3.61207 -0.926492 0
M  V30 4531 N 447.864 1.01787 1.20321 0
M  V30 4532 C 448.827 0.593972 2.2137 0
M  V30 4533 C 449.827 -0.336553 1.57239 0
M  V30 4534 O 451.017 -0.125069 1.7375 0
M  V30 4535 C 448.149 -0.132433 3.40643 0
M  V30 4536 H 449.342 1.48791 2.60387 0
M  V30 4537 H 446.895 0.807803 1.33807 0
M  V30 4538 H 447.63 -1.04123 3.0713 0
M  V30 4539 H 447.415 0.53605 3.88418 0
M  V30 4540 H 448.905 -0.416314 4.1552 0
M  V30 4541 N 449.342 -1.36122 0.79427 0
M  V30 4542 C 450.619 -1.93398 0.292685 0
M  V30 4543 C 450.999 -1.72567 -1.21589 0
M  V30 4544 O 450.347 -1.08745 -2.00965 0
M  V30 4545 C 450.557 -3.42099 0.690614 0
M  V30 4546 C 451.905 -4.19231 0.673105 0
M  V30 4547 O 452.929 -3.50559 0.631389 0
M  V30 4548 O 451.788 -5.41732 0.720362 0
M  V30 4549 H 448.882 -0.823712 0.0736693 0
M  V30 4550 H 451.428 -1.45273 0.87714 0
M  V30 4551 H 450.2 -3.50938 1.73085 0
M  V30 4552 H 449.823 -3.97519 0.0803036 0
M  V30 4553 N 450.82 -0.546701 -1.47814 0
M  V30 4554 C 452.067 -0.0187407 -2.02491 0
M  V30 4555 C 452.395 1.32685 -1.42215 0
M  V30 4556 O 451.65 1.87413 -0.563454 0
M  V30 4557 C 451.949 0.134869 -3.57145 0
M  V30 4558 C 451.615 -1.13849 -4.3629 0
M  V30 4559 C 450.277 -1.48743 -4.57634 0
M  V30 4560 C 452.629 -1.98277 -4.82012 0
M  V30 4561 C 449.957 -2.67932 -5.21948 0
M  V30 4562 C 452.309 -3.16659 -5.4764 0
M  V30 4563 C 450.973 -3.51879 -5.67219 0
M  V30 4564 H 450.243 -0.0068577 -0.740968 0
M  V30 4565 H 452.89 -0.716097 -1.77607 0
M  V30 4566 H 451.195 0.915118 -3.80963 0
M  V30 4567 H 452.892 0.558556 -3.97091 0
M  V30 4568 H 449.482 -0.856767 -4.19949 0
M  V30 4569 H 453.666 -1.72628 -4.6531 0
M  V30 4570 H 448.922 -2.95401 -5.35302 0
M  V30 4571 H 453.096 -3.82374 -5.82033 0
M  V30 4572 H 450.723 -4.44331 -6.16825 0
M  V30 4573 N 452.299 1.55045 -0.282633 0
M  V30 4574 C 453.232 2.18951 0.64311 0
M  V30 4575 C 454.21 1.15287 1.14664 0
M  V30 4576 O 455.394 1.43846 1.21822 0
M  V30 4577 C 452.521 2.81874 1.87789 0
M  V30 4578 C 451.567 3.98906 1.50919 0
M  V30 4579 S 452.4 5.3234 0.580884 0
M  V30 4580 C 453.556 5.98737 1.82387 0
M  V30 4581 H 453.789 2.97131 0.100138 0
M  V30 4582 H 451.322 1.54255 -0.0668514 0
M  V30 4583 H 453.28 3.18757 2.58658 0
M  V30 4584 H 451.941 2.03573 2.392 0
M  V30 4585 H 451.134 4.4165 2.42819 0
M  V30 4586 H 450.736 3.63485 0.88061 0
M  V30 4587 H 453.028 6.18427 2.76684 0
M  V30 4588 H 453.971 6.93318 1.4393 0
M  V30 4589 H 454.379 5.28177 1.99223 0
M  V30 4590 N 453.777 0.010035 1.57597 0
M  V30 4591 C 455.188 -0.531426 1.78977 0
M  V30 4592 C 455.539 -1.73375 0.918454 0
M  V30 4593 O 454.664 -2.16047 0.123635 0
M  V30 4594 C 455.259 -0.97086 3.24592 0
M  V30 4595 C 453.818 -1.45756 3.47033 0
M  V30 4596 C 452.965 -0.413384 2.74201 0
M  V30 4597 H 455.916 0.236166 1.56933 0
M  V30 4598 H 455.937 -1.83633 3.33255 0
M  V30 4599 H 455.449 -0.0955893 3.87982 0
M  V30 4600 H 453.55 -2.35339 2.88871 0
M  V30 4601 H 453.663 -1.4781 4.55729 0
M  V30 4602 H 452.027 -0.877266 2.39115 0
M  V30 4603 H 452.81 0.453092 3.40297 0
M  V30 4604 N 455.255 -1.55392 -0.262866 0
M  V30 4605 C 456.185 -1.91978 -1.32917 0
M  V30 4606 C 457.166 -0.7828 -1.51017 0
M  V30 4607 O 458.351 -1.04178 -1.63892 0
M  V30 4608 C 455.481 -2.20055 -2.68687 0
M  V30 4609 C 454.435 -3.35854 -2.65304 0
M  V30 4610 C 453.761 -3.49435 -4.04721 0
M  V30 4611 C 455.061 -4.71977 -2.23685 0
M  V30 4612 H 456.755 -2.81292 -1.02544 0
M  V30 4613 H 454.301 -1.3534 -0.491846 0
M  V30 4614 H 456.254 -2.44237 -3.43404 0
M  V30 4615 H 454.978 -1.27551 -3.00663 0
M  V30 4616 H 453.637 -3.11655 -1.93045 0
M  V30 4617 H 453.285 -2.54379 -4.33936 0
M  V30 4618 H 452.985 -4.27297 -4.0335 0
M  V30 4619 H 454.509 -3.7592 -4.81161 0
M  V30 4620 H 455.923 -4.95637 -2.88127 0
M  V30 4621 H 454.32 -5.52828 -2.33456 0
M  V30 4622 H 455.39 -4.70115 -1.18827 0
M  V30 4623 N 456.733 0.527833 -1.48498 0
M  V30 4624 C 457.68 1.6322 -1.6318 0
M  V30 4625 C 458.65 1.59199 -0.473815 0
M  V30 4626 O 459.835 1.77591 -0.697563 0
M  V30 4627 C 456.975 3.01474 -1.67951 0
M  V30 4628 C 456.088 3.15713 -2.94871 0
M  V30 4629 C 455.223 4.44539 -2.90789 0
M  V30 4630 C 454.262 4.52315 -4.12404 0
M  V30 4631 N 453.399 5.72533 -4.06387 0
M  V30 4632 H 458.239 1.50011 -2.57489 0
M  V30 4633 H 455.776 0.730298 -1.27691 0
M  V30 4634 H 457.734 3.81572 -1.68698 0
M  V30 4635 H 456.364 3.1345 -0.771306 0
M  V30 4636 H 455.416 2.28854 -3.03859 0
M  V30 4637 H 456.728 3.1732 -3.8485 0
M  V30 4638 H 455.882 5.3293 -2.89949 0
M  V30 4639 H 454.621 4.45457 -1.98542 0
M  V30 4640 H 453.626 3.62331 -4.13517 0
M  V30 4641 H 454.851 4.53134 -5.05812 0
M  V30 4642 H 452.797 5.74344 -3.16962 0
M  V30 4643 H 452.714 5.75643 -4.90073 0
M  V30 4644 H 453.982 6.63204 -4.0961 0
M  V30 4645 N 458.211 1.37122 0.776871 0
M  V30 4646 C 459.143 1.28342 1.89897 0
M  V30 4647 C 460.156 0.200277 1.61563 0
M  V30 4648 O 461.345 0.456012 1.72577 0
M  V30 4649 C 458.445 0.960427 3.25006 0
M  V30 4650 C 457.618 2.148 3.81025 0
M  V30 4651 C 456.677 1.79608 4.94598 0
M  V30 4652 O 455.703 2.51845 5.10454 0
M  V30 4653 N 456.905 0.737171 5.758 0
M  V30 4654 H 459.67 2.25027 1.97947 0
M  V30 4655 H 457.231 1.3068 0.955739 0
M  V30 4656 H 459.223 0.705942 3.98495 0
M  V30 4657 H 457.793 0.0823066 3.12492 0
M  V30 4658 H 457.013 2.56454 2.99374 0
M  V30 4659 H 458.301 2.9411 4.15183 0
M  V30 4660 H 457.699 0.137637 5.65533 0
M  V30 4661 H 456.256 0.542534 6.49538 0
M  V30 4662 N 459.689 -1.00246 1.21608 0
M  V30 4663 C 460.622 -2.08794 0.920892 0
M  V30 4664 C 461.6 -1.62059 -0.132552 0
M  V30 4665 O 462.784 -1.885 -0.0030366 0
M  V30 4666 C 459.911 -3.36525 0.383226 0
M  V30 4667 C 458.957 -4.02172 1.41987 0
M  V30 4668 S 459.79 -4.44256 2.98994 0
M  V30 4669 C 460.946 -5.7517 2.4684 0
M  V30 4670 H 461.179 -2.33511 1.8401 0
M  V30 4671 H 458.712 -1.13562 1.04609 0
M  V30 4672 H 460.67 -4.10423 0.0795871 0
M  V30 4673 H 459.331 -3.09854 -0.514711 0
M  V30 4674 H 458.524 -4.94114 0.993335 0
M  V30 4675 H 458.126 -3.34559 1.67171 0
M  V30 4676 H 460.418 -6.51042 1.87484 0
M  V30 4677 H 461.361 -6.22638 3.37235 0
M  V30 4678 H 461.769 -5.32112 1.88461 0
M  V30 4679 N 461.167 -1.02423 -1.1978 0
M  V30 4680 C 462.1 -0.545641 -2.21581 0
M  V30 4681 C 463.078 0.411024 -1.57319 0
M  V30 4682 O 464.262 0.329223 -1.85603 0
M  V30 4683 C 461.389 0.204973 -3.38079 0
M  V30 4684 C 460.435 -0.70241 -4.20676 0
M  V30 4685 S 461.268 -2.17595 -4.89298 0
M  V30 4686 C 462.424 -1.43572 -6.09211 0
M  V30 4687 H 462.657 -1.4082 -2.61834 0
M  V30 4688 H 460.19 -0.833771 -1.29952 0
M  V30 4689 H 462.148 0.631924 -4.05607 0
M  V30 4690 H 460.809 1.0432 -2.9627 0
M  V30 4691 H 460.002 -0.123193 -5.03849 0
M  V30 4692 H 459.604 -1.06747 -3.58442 0
M  V30 4693 H 461.896 -0.719806 -6.73665 0
M  V30 4694 H 462.839 -2.24388 -6.71607 0
M  V30 4695 H 463.247 -0.935252 -5.56699 0
M  V30 4696 N 462.645 1.35699 -0.801477 0
M  V30 4697 C 463.592 2.29876 -0.206294 0
M  V30 4698 C 464.562 1.52565 0.656752 0
M  V30 4699 O 465.747 1.81024 0.602906 0
M  V30 4700 C 462.887 3.39052 0.643272 0
M  V30 4701 C 462 4.31335 -0.239644 0
M  V30 4702 C 461.135 5.27599 0.61744 0
M  V30 4703 C 460.174 6.11521 -0.26619 0
M  V30 4704 N 459.311 6.99938 0.550571 0
M  V30 4705 H 464.151 2.80187 -1.01484 0
M  V30 4706 H 461.688 1.37902 -0.511997 0
M  V30 4707 H 463.646 4.0101 1.15094 0
M  V30 4708 H 462.276 2.9003 1.41713 0
M  V30 4709 H 461.328 3.70426 -0.865381 0
M  V30 4710 H 462.64 4.90243 -0.919985 0
M  V30 4711 H 461.794 5.94906 1.19045 0
M  V30 4712 H 460.533 4.69176 1.33137 0
M  V30 4713 H 459.538 5.43166 -0.851507 0
M  V30 4714 H 460.763 6.72022 -0.9779 0
M  V30 4715 H 458.709 6.44008 1.24856 0
M  V30 4716 H 458.626 7.55966 -0.071832 0
M  V30 4717 H 459.894 7.71599 1.10702 0
M  V30 4718 N 464.123 0.554532 1.47522 0
M  V30 4719 C 465.351 0.034257 2.06872 0
M  V30 4720 C 465.766 -1.25826 1.40759 0
M  V30 4721 O 465.123 -1.75425 0.503217 0
M  V30 4722 C 465.174 -0.167827 3.6111 0
M  V30 4723 O 464.895 1.07351 4.24744 0
M  V30 4724 C 466.396 -0.72569 4.3732 0
M  V30 4725 H 463.616 0.0446275 0.669514 0
M  V30 4726 H 466.16 0.767181 1.89564 0
M  V30 4727 H 464.315 -0.850872 3.7794 0
M  V30 4728 H 464.729 0.869563 5.17242 0
M  V30 4729 H 466.203 -0.816394 5.45929 0
M  V30 4730 H 466.68 -1.73635 4.0342 0
M  V30 4731 H 467.286 -0.0784292 4.25228 0
M  V30 4732 N 465.601 -1.54893 0.290851 0
M  V30 4733 C 466.531 -2.26103 -0.583084 0
M  V30 4734 C 467.512 -1.25684 -1.14619 0
M  V30 4735 O 468.697 -1.54436 -1.17741 0
M  V30 4736 C 465.827 -2.99409 -1.75987 0
M  V30 4737 C 464.781 -4.0689 -1.32758 0
M  V30 4738 C 464.107 -4.67856 -2.58872 0
M  V30 4739 C 465.407 -5.20215 -0.46624 0
M  V30 4740 H 467.101 -2.99398 0.0108214 0
M  V30 4741 H 464.647 -1.43998 0.00664468 0
M  V30 4742 H 466.6 -3.47943 -2.37727 0
M  V30 4743 H 465.324 -2.23675 -2.37985 0
M  V30 4744 H 463.983 -3.59191 -0.733299 0
M  V30 4745 H 463.631 -3.88772 -3.19163 0
M  V30 4746 H 463.331 -5.40438 -2.30653 0
M  V30 4747 H 464.855 -5.19147 -3.21433 0
M  V30 4748 H 466.269 -5.64704 -0.989047 0
M  V30 4749 H 464.666 -5.99455 -0.27826 0
M  V30 4750 H 465.736 -4.82198 0.511173 0
M  V30 4751 N 467.08 -0.0183926 -1.57589 0
M  V30 4752 C 468.028 0.985111 -2.10709 0
M  V30 4753 C 469.022 1.34397 -1.0312 0
M  V30 4754 O 470.228 1.32746 -1.21567 0
M  V30 4755 H 466.603 0.335418 -0.673052 0
M  V30 4756 H 468.574 0.511689 -2.9398 0
M  V30 4757 C 467.323 2.26202 -2.64061 0
M  V30 4758 H 466.646 1.9946 -3.4649 0
M  V30 4759 H 468.086 2.94652 -3.04887 0
M  V30 4760 C 466.545 2.98444 -1.5631 0
M  V30 4761 O 467.075 3.90142 -0.956674 0
M  V30 4762 N 465.281 2.6059 -1.28612 0
M  V30 4763 H 464.828 1.86101 -1.78112 0
M  V30 4764 H 464.786 3.09238 -0.567406 0
M  V30 4765 N 468.558 1.5553 0.254621 0
M  V30 4766 C 469.506 1.9048 1.33492 0
M  V30 4767 C 470.5 0.78304 1.50216 0
M  V30 4768 O 471.706 0.967582 1.51782 0
M  V30 4769 H 468.081 0.604846 0.44684 0
M  V30 4770 H 470.052 2.80688 1.01275 0
M  V30 4771 C 468.801 2.20928 2.68489 0
M  V30 4772 H 468.124 3.06742 2.56417 0
M  V30 4773 H 469.564 2.49291 3.42972 0
M  V30 4774 C 468.023 1.023 3.20993 0
M  V30 4775 O 468.553 0.267027 4.00811 0
M  V30 4776 N 466.759 0.815714 2.78917 0
M  V30 4777 H 466.306 1.43217 2.14119 0
M  V30 4778 H 466.264 0.0236532 3.14391 0
M  V30 4779 N 470.036 -0.519951 1.48776 0
M  V30 4780 C 471.313 -1.28123 1.47797 0
M  V30 4781 C 471.693 -2.10196 0.195157 0
M  V30 4782 O 471.041 -2.13167 -0.822925 0
M  V30 4783 C 471.251 -2.15413 2.74587 0
M  V30 4784 C 472.599 -2.75225 3.23321 0
M  V30 4785 O 473.623 -2.25694 2.75574 0
M  V30 4786 O 472.482 -3.65346 4.06429 0
M  V30 4787 H 469.576 -0.578793 0.590701 0
M  V30 4788 H 472.122 -0.535779 1.6102 0
M  V30 4789 H 470.894 -1.54617 3.59457 0
M  V30 4790 H 470.517 -2.97186 2.64132 0
M  V30 4791 N 471.514 -1.37532 -0.769588 0
M  V30 4792 C 472.444 -1.36172 -1.89682 0
M  V30 4793 C 473.425 -0.23001 -1.68538 0
M  V30 4794 O 474.61 -0.43069 -1.89364 0
M  V30 4795 C 471.74 -1.1701 -3.26995 0
M  V30 4796 C 470.694 -2.27216 -3.62708 0
M  V30 4797 C 470.02 -1.93174 -4.98586 0
M  V30 4798 C 471.32 -3.6941 -3.69234 0
M  V30 4799 H 473.014 -2.30499 -1.91078 0
M  V30 4800 H 470.56 -1.10953 -0.917902 0
M  V30 4801 H 472.513 -1.14688 -4.05493 0
M  V30 4802 H 471.237 -0.191395 -3.26039 0
M  V30 4803 H 469.896 -2.28697 -2.86519 0
M  V30 4804 H 469.544 -0.938281 -4.94171 0
M  V30 4805 H 469.244 -2.66973 -5.23449 0
M  V30 4806 H 470.768 -1.92443 -5.79481 0
M  V30 4807 H 472.182 -3.70047 -4.37879 0
M  V30 4808 H 470.579 -4.4228 -4.05597 0
M  V30 4809 H 471.649 -4.0288 -2.69844 0
M  V30 4810 N 472.992 0.995999 -1.22138 0
M  V30 4811 C 474.24 1.73167 -1.042 0
M  V30 4812 C 474.561 1.90329 0.42423 0
M  V30 4813 O 473.831 1.4607 1.30539 0
M  V30 4814 H 472.411 0.641593 -0.38258 0
M  V30 4815 H 475.073 1.19974 -1.53598 0
M  V30 4816 H 474.169 2.72734 -1.51731 0
M  V30 4817 N 474.47 1.03057 1.19235 0
M  V30 4818 C 475.881 0.757449 1.70645 0
M  V30 4819 C 476.232 -0.722735 1.82403 0
M  V30 4820 O 475.357 -1.56325 1.49638 0
M  V30 4821 C 475.952 1.36833 3.09939 0
M  V30 4822 C 474.511 1.14375 3.58602 0
M  V30 4823 C 473.658 1.46533 2.35422 0
M  V30 4824 H 476.609 1.19828 1.04052 0
M  V30 4825 H 476.63 0.766184 3.72706 0
M  V30 4826 H 476.142 2.44562 3.01349 0
M  V30 4827 H 474.243 0.0847542 3.72504 0
M  V30 4828 H 474.356 1.83366 4.42622 0
M  V30 4829 H 472.72 0.884712 2.38841 0
M  V30 4830 H 473.503 2.55349 2.2946 0
M  V30 4831 N 475.948 -1.35272 0.808662 0
M  V30 4832 C 476.896 -2.31663 0.208606 0
M  V30 4833 C 477.89 -1.56731 -0.642778 0
M  V30 4834 O 479.096 -1.71843 -0.53571 0
M  V30 4835 H 475.471 -0.750421 0.0486993 0
M  V30 4836 H 477.442 -2.79814 1.03666 0
M  V30 4837 C 476.191 -3.42008 -0.626573 0
M  V30 4838 H 475.514 -3.99795 0.0192103 0
M  V30 4839 H 476.954 -4.11727 -1.01278 0
M  V30 4840 C 475.413 -2.85226 -1.79298 0
M  V30 4841 O 475.943 -2.78945 -2.89055 0
M  V30 4842 N 474.149 -2.42245 -1.60516 0
M  V30 4843 H 473.696 -2.47554 -0.712375 0
M  V30 4844 H 473.654 -2.04603 -2.38715 0
M  V30 4845 N 477.426 -0.562348 -1.47226 0
M  V30 4846 C 478.672 -0.0485293 -2.03342 0
M  V30 4847 C 479.027 1.28898 -1.42839 0
M  V30 4848 O 478.32 1.82719 -0.576563 0
M  V30 4849 C 478.514 0.0969817 -3.57268 0
M  V30 4850 C 478.343 -1.22487 -4.32697 0
M  V30 4851 C 477.113 -1.79357 -4.72397 0
M  V30 4852 C 479.311 -2.14332 -4.67511 0
M  V30 4853 N 477.293 -3.05493 -5.32491 0
M  V30 4854 C 478.664 -3.25049 -5.27961 0
M  V30 4855 C 480.719 -2.14263 -4.4944 0
M  V30 4856 C 479.422 -4.35804 -5.72248 0
M  V30 4857 C 481.448 -3.24033 -4.94729 0
M  V30 4858 C 480.81 -4.3347 -5.55233 0
M  V30 4859 H 476.909 -0.0600464 -0.779691 0
M  V30 4860 H 479.493 -0.750769 -1.79643 0
M  V30 4861 H 477.664 0.768353 -3.80724 0
M  V30 4862 H 479.396 0.613333 -4.00025 0
M  V30 4863 H 476.151 -1.33093 -4.54514 0
M  V30 4864 H 476.575 -3.698 -5.67077 0
M  V30 4865 H 481.217 -1.30935 -4.02015 0
M  V30 4866 H 478.935 -5.19888 -6.18661 0
M  V30 4867 H 482.521 -3.25073 -4.82513 0
M  V30 4868 H 481.401 -5.17008 -5.89638 0
M  V30 4869 N 478.904 1.54736 -0.299062 0
M  V30 4870 C 480.32 1.59507 0.0543849 0
M  V30 4871 C 480.52 1.31606 1.52585 0
M  V30 4872 O 479.576 1.08853 2.27832 0
M  V30 4873 C 480.889 2.98751 -0.34181 0
M  V30 4874 C 482.437 3.1165 -0.290414 0
M  V30 4875 C 482.912 4.53199 -0.661402 0
M  V30 4876 N 484.403 4.59114 -0.613863 0
M  V30 4877 C 485.138 5.66709 -0.873417 0
M  V30 4878 N 484.634 6.82349 -1.19884 0
M  V30 4879 N 486.427 5.56369 -0.800608 0
M  V30 4880 H 478.578 1.71133 -1.25806 0
M  V30 4881 H 480.841 0.799186 -0.509908 0
M  V30 4882 H 480.547 3.24085 -1.36608 0
M  V30 4883 H 480.421 3.75961 0.305508 0
M  V30 4884 H 482.808 2.86066 0.724605 0
M  V30 4885 H 482.889 2.366 -0.972327 0
M  V30 4886 H 482.533 4.79513 -1.67422 0
M  V30 4887 H 482.463 5.26583 0.0425612 0
M  V30 4888 H 484.954 3.76053 -0.3732 0
M  V30 4889 H 485.267 7.60326 -1.38291 0
M  V30 4890 H 483.612 6.83906 -1.23685 0
M  V30 4891 H 486.803 4.64904 -0.546045 0
M  V30 4892 H 486.976 6.40139 -1.00626 0
M  V30 4893 N 480.382 0.0267497 1.57577 0
M  V30 4894 C 481.659 -0.690926 1.82991 0
M  V30 4895 C 482.039 -1.90471 0.910164 0
M  V30 4896 O 481.387 -2.28474 -0.0347985 0
M  V30 4897 C 481.597 -1.07139 3.32148 0
M  V30 4898 C 482.945 -1.46402 3.98562 0
M  V30 4899 O 483.969 -1.16443 3.36629 0
M  V30 4900 O 482.828 -2.02214 5.07712 0
M  V30 4901 H 479.922 -0.338747 0.75444 0
M  V30 4902 H 482.468 0.0542506 1.69613 0
M  V30 4903 H 481.24 -0.207394 3.9075 0
M  V30 4904 H 480.863 -1.87481 3.50623 0
M  V30 4905 N 481.861 -1.55662 -0.24637 0
M  V30 4906 C 482.808 -1.90361 -1.30504 0
M  V30 4907 C 483.778 -0.757905 -1.47801 0
M  V30 4908 O 484.963 -1.01161 -1.61775 0
M  V30 4909 C 482.103 -2.2042 -2.65535 0
M  V30 4910 C 481.216 -3.47799 -2.56242 0
M  V30 4911 C 480.351 -3.67426 -3.8363 0
M  V30 4912 C 479.39 -4.88403 -3.68956 0
M  V30 4913 N 478.527 -5.04548 -4.88237 0
M  V30 4914 H 483.367 -2.80645 -1.00213 0
M  V30 4915 H 480.904 -1.38924 -0.483577 0
M  V30 4916 H 482.862 -2.35853 -3.44135 0
M  V30 4917 H 481.492 -1.3334 -2.93973 0
M  V30 4918 H 480.544 -3.40694 -1.69208 0
M  V30 4919 H 481.856 -4.36544 -2.4131 0
M  V30 4920 H 481.01 -3.82821 -4.70673 0
M  V30 4921 H 479.749 -2.76914 -4.01459 0
M  V30 4922 H 478.754 -4.72984 -2.80296 0
M  V30 4923 H 479.979 -5.80375 -3.52621 0
M  V30 4924 H 477.925 -4.16974 -5.06427 0
M  V30 4925 H 477.842 -5.87384 -4.75937 0
M  V30 4926 H 479.11 -5.24355 -5.76777 0
M  V30 4927 N 483.339 0.512053 -1.4905 0
M  V30 4928 C 484.269 1.62365 -1.67809 0
M  V30 4929 C 485.25 1.61737 -0.526809 0
M  V30 4930 O 486.435 1.78651 -0.761404 0
M  V30 4931 C 483.565 3.00895 -1.73435 0
M  V30 4932 C 482.519 3.16387 -2.88242 0
M  V30 4933 C 481.845 4.56157 -2.78971 0
M  V30 4934 C 483.145 2.97457 -4.29321 0
M  V30 4935 H 484.839 1.46921 -2.60873 0
M  V30 4936 H 482.385 0.705379 -1.2554 0
M  V30 4937 H 484.338 3.78549 -1.85145 0
M  V30 4938 H 483.062 3.17403 -0.769619 0
M  V30 4939 H 481.721 2.41155 -2.76116 0
M  V30 4940 H 481.369 4.69525 -1.8043 0
M  V30 4941 H 481.069 4.67465 -3.5602 0
M  V30 4942 H 482.593 5.35886 -2.92675 0
M  V30 4943 H 484.007 3.64888 -4.42187 0
M  V30 4944 H 482.404 3.20245 -5.07507 0
M  V30 4945 H 483.474 1.93692 -4.44535 0
M  V30 4946 N 484.817 1.37938 0.762283 0
M  V30 4947 C 485.727 1.36681 1.90671 0
M  V30 4948 C 486.743 0.265078 1.71969 0
M  V30 4949 O 487.919 0.502055 1.95042 0
M  V30 4950 C 484.984 1.18211 3.25925 0
M  V30 4951 C 484.045 2.3811 3.57214 0
M  V30 4952 C 483.278 2.20512 4.86014 0
M  V30 4953 O 483.501 1.19429 5.57757 0
M  V30 4954 O 482.435 3.08911 5.16583 0
M  V30 4955 H 486.261 2.33091 1.94685 0
M  V30 4956 H 483.846 1.18767 0.906356 0
M  V30 4957 H 485.728 1.09937 4.06807 0
M  V30 4958 H 484.403 0.248807 3.22742 0
M  V30 4959 H 483.31 2.51958 2.76529 0
M  V30 4960 H 484.643 3.30041 3.65149 0
M  V30 4961 N 486.295 -0.989507 1.22664 0
M  V30 4962 C 487.525 -1.7624 1.0781 0
M  V30 4963 C 487.933 -1.85466 -0.374036 0
M  V30 4964 O 487.276 -1.32645 -1.27087 0
M  V30 4965 C 487.338 -3.21007 1.61849 0
M  V30 4966 C 487.002 -3.35316 3.10503 0
M  V30 4967 C 487.999 -3.22362 4.07896 0
M  V30 4968 C 485.684 -3.60258 3.50028 0
M  V30 4969 C 487.678 -3.34139 5.42798 0
M  V30 4970 C 485.365 -3.71676 4.85078 0
M  V30 4971 C 486.363 -3.58625 5.81272 0
M  V30 4972 O 486.051 -3.69655 7.1387 0
M  V30 4973 H 485.783 -0.560209 0.378341 0
M  V30 4974 H 488.337 -1.25252 1.62792 0
M  V30 4975 H 486.567 -3.73202 1.01279 0
M  V30 4976 H 488.256 -3.80024 1.42606 0
M  V30 4977 H 489.022 -3.03 3.78703 0
M  V30 4978 H 484.901 -3.69492 2.75675 0
M  V30 4979 H 488.445 -3.23869 6.17863 0
M  V30 4980 H 484.342 -3.90545 5.1395 0
M  V30 4981 H 485.11 -3.86507 7.21495 0
M  V30 4982 N 487.773 -1.03688 -1.18687 0
M  V30 4983 C 489.02 -0.73803 -1.88572 0
M  V30 4984 C 489.348 0.733973 -1.8012 0
M  V30 4985 O 488.603 1.55098 -1.19344 0
M  V30 4986 C 488.902 -1.14477 -3.3857 0
M  V30 4987 C 488.568 -2.61641 -3.67226 0
M  V30 4988 C 487.23 -3.01846 -3.74757 0
M  V30 4989 C 489.582 -3.56812 -3.79914 0
M  V30 4990 C 486.91 -4.36118 -3.92451 0
M  V30 4991 C 489.262 -4.90799 -3.99123 0
M  V30 4992 C 487.926 -5.3068 -4.04888 0
M  V30 4993 H 487.196 -0.270064 -0.690034 0
M  V30 4994 H 489.843 -1.3012 -1.40503 0
M  V30 4995 H 488.148 -0.500337 -3.88592 0
M  V30 4996 H 489.845 -0.89095 -3.90977 0
M  V30 4997 H 486.435 -2.29498 -3.61979 0
M  V30 4998 H 490.619 -3.26899 -3.73431 0
M  V30 4999 H 485.875 -4.66542 -3.95157 0
M  V30 5000 H 490.049 -5.64451 -4.07882 0
M  V30 5001 H 487.676 -6.34733 -4.18351 0
M  V30 5002 N 489.251 1.34841 -0.815825 0
M  V30 5003 C 490.161 2.33425 -0.234462 0
M  V30 5004 C 491.177 1.62295 0.627413 0
M  V30 5005 O 492.353 1.94109 0.536987 0
M  V30 5006 C 489.418 3.41471 0.599849 0
M  V30 5007 C 488.479 4.28362 -0.283596 0
M  V30 5008 C 487.712 5.31248 0.51099 0
M  V30 5009 O 487.935 5.43056 1.7449 0
M  V30 5010 O 486.869 6.01812 -0.10297 0
M  V30 5011 H 490.695 2.84962 -1.05024 0
M  V30 5012 H 488.28 1.37774 -0.577809 0
M  V30 5013 H 490.162 4.07464 1.07475 0
M  V30 5014 H 488.837 2.9219 1.39308 0
M  V30 5015 H 487.744 3.65318 -0.805836 0
M  V30 5016 H 489.077 4.81066 -1.041 0
M  V30 5017 N 490.729 0.570148 1.46925 0
M  V30 5018 C 491.639 -0.173061 2.33961 0
M  V30 5019 C 492.655 -0.898825 1.48987 0
M  V30 5020 O 493.831 -0.864825 1.81887 0
M  V30 5021 C 490.896 -1.18177 3.25937 0
M  V30 5022 C 489.957 -0.462041 4.26806 0
M  V30 5023 C 489.19 -1.4227 5.14388 0
M  V30 5024 O 489.413 -2.65842 5.04662 0
M  V30 5025 O 488.347 -0.940127 5.94513 0
M  V30 5026 H 492.173 0.541216 2.98839 0
M  V30 5027 H 489.758 0.330647 1.45695 0
M  V30 5028 H 491.64 -1.76372 3.82715 0
M  V30 5029 H 490.315 -1.87774 2.63671 0
M  V30 5030 H 489.222 0.161429 3.73752 0
M  V30 5031 H 490.555 0.192719 4.91823 0
M  V30 5032 N 492.207 -1.54576 0.307264 0
M  V30 5033 C 493.623 -1.59534 -0.0459251 0
M  V30 5034 C 493.823 -1.32414 -1.51884 0
M  V30 5035 O 492.879 -1.1006 -2.27251 0
M  V30 5036 C 494.192 -2.98566 0.357649 0
M  V30 5037 C 495.74 -3.11491 0.306937 0
M  V30 5038 C 496.215 -4.52842 0.685427 0
M  V30 5039 N 497.706 -4.58782 0.638203 0
M  V30 5040 C 498.441 -5.66238 0.903458 0
M  V30 5041 N 497.937 -6.81703 1.23501 0
M  V30 5042 N 499.73 -5.55937 0.830102 0
M  V30 5043 H 491.881 -1.70464 1.26712 0
M  V30 5044 H 494.144 -0.79647 0.514139 0
M  V30 5045 H 493.85 -3.23356 1.38325 0
M  V30 5046 H 493.724 -3.76117 -0.285565 0
M  V30 5047 H 496.111 -2.86446 -0.709424 0
M  V30 5048 H 496.192 -2.36081 0.984861 0
M  V30 5049 H 495.836 -4.78618 1.69963 0
M  V30 5050 H 495.766 -5.26598 -0.0146346 0
M  V30 5051 H 498.257 -3.75849 0.393138 0
M  V30 5052 H 498.57 -7.59582 1.42322 0
M  V30 5053 H 496.915 -6.8324 1.27311 0
M  V30 5054 H 500.106 -4.64608 0.570693 0
M  V30 5055 H 500.279 -6.39597 1.04019 0
M  V30 5056 N 493.685 -0.035106 -1.57561 0
M  V30 5057 C 495.096 0.502885 -1.798 0
M  V30 5058 C 495.447 1.71892 -0.945921 0
M  V30 5059 O 494.572 2.15822 -0.157991 0
M  V30 5060 C 495.167 0.919097 -3.26095 0
M  V30 5061 C 493.726 1.40216 -3.49308 0
M  V30 5062 C 492.873 0.369709 -2.74824 0
M  V30 5063 H 495.824 -0.261102 -1.56537 0
M  V30 5064 H 495.845 1.78308 -3.36135 0
M  V30 5065 H 495.357 0.0338526 -3.88085 0
M  V30 5066 H 493.458 2.30714 -2.92578 0
M  V30 5067 H 493.571 1.40541 -4.58023 0
M  V30 5068 H 491.935 0.839113 -2.40481 0
M  V30 5069 H 492.718 -0.507173 -3.39533 0
M  V30 5070 N 495.163 1.55791 0.238111 0
M  V30 5071 C 496.41 1.78033 0.964907 0
M  V30 5072 C 496.738 0.600984 1.84982 0
M  V30 5073 O 495.993 -0.41536 1.91241 0
M  V30 5074 C 496.292 3.05869 1.84875 0
M  V30 5075 C 495.958 4.36808 1.11846 0
M  V30 5076 C 494.62 4.72388 0.916662 0
M  V30 5077 C 496.972 5.17717 0.60151 0
M  V30 5078 C 494.3 5.86406 0.185756 0
M  V30 5079 C 496.652 6.32494 -0.115972 0
M  V30 5080 C 495.316 6.66688 -0.329168 0
M  V30 5081 H 494.586 0.651469 0.353085 0
M  V30 5082 H 497.233 1.90061 0.234318 0
M  V30 5083 H 495.538 2.88891 2.64668 0
M  V30 5084 H 497.235 3.20278 2.41294 0
M  V30 5085 H 493.825 4.08862 1.28569 0
M  V30 5086 H 498.009 4.90678 0.744932 0
M  V30 5087 H 493.265 6.11399 0.0101886 0
M  V30 5088 H 497.439 6.94425 -0.524127 0
M  V30 5089 H 495.066 7.54884 -0.897474 0
M  V30 5090 N 496.642 -0.504142 1.49319 0
M  V30 5091 C 497.605 -1.5883 1.65244 0
M  V30 5092 C 498.605 -1.52009 0.524386 0
M  V30 5093 O 499.795 -1.55218 0.79077 0
M  V30 5094 C 496.927 -2.98481 1.64687 0
M  V30 5095 H 498.12 -1.4604 2.61939 0
M  V30 5096 H 495.673 -0.728144 1.38303 0
M  V30 5097 H 496.408 -3.16751 0.695644 0
M  V30 5098 H 496.193 -3.0484 2.46607 0
M  V30 5099 H 497.683 -3.77256 1.79075 0
M  V30 5100 N 498.12 -1.38341 -0.754957 0
M  V30 5101 C 499.083 -1.35262 -1.85032 0
M  V30 5102 C 500.083 -0.253393 -1.58791 0
M  V30 5103 O 501.273 -0.510205 -1.66561 0
M  V30 5104 C 498.405 -1.10544 -3.22479 0
M  V30 5105 H 499.598 -2.32712 -1.8917 0
M  V30 5106 H 497.151 -1.23614 -0.956515 0
M  V30 5107 H 497.886 -0.136952 -3.24011 0
M  V30 5108 H 497.671 -1.90127 -3.4292 0
M  V30 5109 H 499.161 -1.11082 -4.02555 0
M  V30 5110 N 499.598 0.982988 -1.23187 0
M  V30 5111 C 500.561 2.05649 -1.01198 0
M  V30 5112 C 501.561 1.6078 0.0252464 0
M  V30 5113 O 502.751 1.72878 -0.214243 0
M  V30 5114 C 499.883 3.36744 -0.530656 0
M  V30 5115 H 501.076 2.2659 -1.96461 0
M  V30 5116 H 498.629 1.15602 -1.05195 0
M  V30 5117 H 499.364 3.21492 0.425873 0
M  V30 5118 H 499.149 3.7065 -1.2791 0
M  V30 5119 H 500.639 4.15705 -0.397366 0
M  V30 5120 N 501.076 1.04316 1.18135 0
M  V30 5121 C 502.301 0.768047 1.92655 0
M  V30 5122 C 502.726 -0.66904 1.758 0
M  V30 5123 O 502.084 -1.46372 1.06981 0
M  V30 5124 C 502.132 1.14239 3.42026 0
M  V30 5125 O 501.236 0.269333 4.1152 0
M  V30 5126 H 500.577 0.282436 0.600937 0
M  V30 5127 H 503.107 1.39367 1.49793 0
M  V30 5128 H 503.117 1.10538 3.92741 0
M  V30 5129 H 501.792 2.18928 3.53615 0
M  V30 5130 H 500.369 0.366175 3.71098 0
M  V30 5131 N 502.554 -1.34406 0.822964 0
M  V30 5132 C 503.803 -1.97542 0.407458 0
M  V30 5133 C 504.116 -1.65973 -1.035 0
M  V30 5134 O 505.322 -2.22598 -1.55442 0
M  V30 5135 C 503.778 -3.53463 0.677623 0
M  V30 5136 C 503.386 -3.93925 2.1337 0
M  V30 5137 C 505.13 -4.23229 0.328284 0
M  V30 5138 C 503.037 -5.42759 2.34876 0
M  V30 5139 H 501.967 -0.739207 0.148623 0
M  V30 5140 H 504.618 -1.53248 1.00932 0
M  V30 5141 H 503 -3.96 0.00558965 0
M  V30 5142 H 504.174 -3.62494 2.8449 0
M  V30 5143 H 502.489 -3.37097 2.44448 0
M  V30 5144 H 505.086 -5.32659 0.466794 0
M  V30 5145 H 505.429 -4.09899 -0.727224 0
M  V30 5146 H 505.962 -3.86169 0.954896 0
M  V30 5147 H 502.701 -5.61075 3.38932 0
M  V30 5148 H 502.221 -5.75704 1.68299 0
M  V30 5149 H 503.9 -6.0944 2.17236 0
M  V30 5150 N 504.032 -0.577932 -1.46621 0
M  V30 5151 C 505.28 -0.061566 -2.02006 0
M  V30 5152 C 505.601 1.30117 -1.4524 0
M  V30 5153 O 504.871 1.85313 -0.63529 0
M  V30 5154 H 503.451 -0.0197692 -0.746738 0
M  V30 5155 H 506.113 -0.752631 -1.79782 0
M  V30 5156 H 505.209 0.0110238 -3.12098 0
M  V30 5157 N 505.51 1.54411 -0.315457 0
M  V30 5158 C 506.442 2.21527 0.588067 0
M  V30 5159 C 507.455 1.21263 1.08624 0
M  V30 5160 O 508.644 1.47777 1.00121 0
M  V30 5161 C 505.744 2.85963 1.81875 0
M  V30 5162 C 504.917 4.12291 1.46063 0
M  V30 5163 C 503.976 4.60396 2.54799 0
M  V30 5164 O 503.002 5.25265 2.19283 0
M  V30 5165 N 504.204 4.33935 3.85591 0
M  V30 5166 H 506.969 2.99697 0.013414 0
M  V30 5167 H 504.53 1.61308 -0.138295 0
M  V30 5168 H 506.522 3.15071 2.53993 0
M  V30 5169 H 505.092 2.11548 2.30144 0
M  V30 5170 H 504.312 3.90036 0.571445 0
M  V30 5171 H 505.6 4.9452 1.19695 0
M  V30 5172 H 504.998 3.81996 4.17248 0
M  V30 5173 H 503.555 4.67718 4.53964 0
M  V30 5174 N 506.988 0.0434614 1.5754 0
M  V30 5175 C 508.234 -0.632971 1.92669 0
M  V30 5176 C 508.567 -1.70947 0.921446 0
M  V30 5177 O 507.842 -1.94426 -0.0537202 0
M  V30 5178 C 508.125 -1.23619 3.38216 0
M  V30 5179 C 507.978 -0.168274 4.49485 0
M  V30 5180 C 509.297 -2.15008 3.84005 0
M  V30 5181 H 506.416 -0.228629 0.700641 0
M  V30 5182 H 509.058 0.103651 1.89717 0
M  V30 5183 H 507.208 -1.864 3.40863 0
M  V30 5184 H 508.88 0.463196 4.58969 0
M  V30 5185 H 507.123 0.504581 4.30855 0
M  V30 5186 H 507.794 -0.630218 5.48391 0
M  V30 5187 H 510.27 -1.62198 3.83185 0
M  V30 5188 H 509.146 -2.54161 4.86511 0
M  V30 5189 H 509.407 -3.04707 3.20322 0
M  V30 5190 N 508.466 -1.55915 -0.229846 0
M  V30 5191 C 509.416 -1.8813 -1.28807 0
M  V30 5192 C 510.4 -0.743621 -1.42685 0
M  V30 5193 O 511.592 -1.00588 -1.4564 0
M  V30 5194 C 508.721 -2.19431 -2.64017 0
M  V30 5195 C 507.807 -3.39569 -2.54074 0
M  V30 5196 N 508.198 -4.58404 -2.13774 0
M  V30 5197 C 506.496 -3.43019 -2.85051 0
M  V30 5198 C 507.197 -5.40557 -2.1488 0
M  V30 5199 N 506.173 -4.80054 -2.55047 0
M  V30 5200 H 509.975 -2.77527 -0.967261 0
M  V30 5201 H 507.489 -1.5637 -0.438433 0
M  V30 5202 H 509.486 -2.40681 -3.40409 0
M  V30 5203 H 508.146 -1.31341 -2.9695 0
M  V30 5204 H 509.157 -4.83716 -1.8504 0
M  V30 5205 H 505.834 -2.65249 -3.22411 0
M  V30 5206 H 507.224 -6.45666 -1.85918 0
M  V30 5207 N 509.944 0.496216 -1.49584 0
M  V30 5208 C 510.874 1.60576 -1.69521 0
M  V30 5209 C 511.855 1.61169 -0.543933 0
M  V30 5210 O 513.04 1.77834 -0.78031 0
M  V30 5211 C 510.17 2.99038 -1.76616 0
M  V30 5212 C 509.124 3.13312 -2.91581 0
M  V30 5213 C 508.45 4.53172 -2.83794 0
M  V30 5214 C 509.75 2.92886 -4.32452 0
M  V30 5215 H 511.444 1.44146 -2.62416 0
M  V30 5216 H 508.99 0.692024 -1.26282 0
M  V30 5217 H 510.943 3.76564 -1.8915 0
M  V30 5218 H 509.667 3.16568 -0.80324 0
M  V30 5219 H 508.326 2.38213 -2.78658 0
M  V30 5220 H 507.974 4.67585 -1.854 0
M  V30 5221 H 507.674 4.63662 -3.60958 0
M  V30 5222 H 509.198 5.32752 -2.98342 0
M  V30 5223 H 510.612 3.60178 -4.46032 0
M  V30 5224 H 509.009 3.14844 -5.10875 0
M  V30 5225 H 510.079 1.88966 -4.46565 0
M  V30 5226 N 511.423 1.38739 0.74761 0
M  V30 5227 C 512.386 1.36241 1.84312 0
M  V30 5228 C 513.386 0.261811 1.58654 0
M  V30 5229 O 514.576 0.519031 1.66288 0
M  V30 5230 C 511.708 1.12253 3.21888 0
M  V30 5231 H 512.901 2.33712 1.87933 0
M  V30 5232 H 510.454 1.2412 0.949946 0
M  V30 5233 H 511.189 0.154133 3.23934 0
M  V30 5234 H 510.974 1.91943 3.41907 0
M  V30 5235 H 512.464 1.13215 4.0196 0
M  V30 5236 N 512.901 -0.976442 1.23707 0
M  V30 5237 C 514.317 -1.24341 1.00058 0
M  V30 5238 C 514.517 -1.99315 -0.295932 0
M  V30 5239 O 513.573 -2.3123 -1.01435 0
M  V30 5240 C 514.886 -2.03909 2.21001 0
M  V30 5241 C 516.434 -2.17034 2.25534 0
M  V30 5242 C 516.909 -2.99994 3.46075 0
M  V30 5243 N 518.4 -3.07578 3.46338 0
M  V30 5244 C 519.135 -3.72104 4.36264 0
M  V30 5245 N 518.631 -4.3842 5.36432 0
M  V30 5246 N 520.424 -3.69029 4.23998 0
M  V30 5247 H 512.575 -0.47428 2.07037 0
M  V30 5248 H 514.838 -0.272167 0.908091 0
M  V30 5249 H 514.544 -1.56198 3.15111 0
M  V30 5250 H 514.418 -3.04654 2.22409 0
M  V30 5251 H 516.805 -2.63951 1.31961 0
M  V30 5252 H 516.886 -1.15664 2.28156 0
M  V30 5253 H 516.53 -2.53772 4.39957 0
M  V30 5254 H 516.46 -4.01541 3.40694 0
M  V30 5255 H 518.951 -2.60397 2.73865 0
M  V30 5256 H 519.264 -4.85447 6.013 0
M  V30 5257 H 517.609 -4.37116 5.40328 0
M  V30 5258 H 520.8 -3.16392 3.44984 0
M  V30 5259 H 520.973 -4.19034 4.94282 0
M  V30 5260 N 514.379 -1.04941 -1.1758 0
M  V30 5261 C 515.312 -0.592518 -2.20373 0
M  V30 5262 C 516.29 0.377561 -1.58156 0
M  V30 5263 O 517.474 0.28978 -1.86259 0
M  V30 5264 C 514.601 0.133215 -3.38438 0
M  V30 5265 C 513.647 -0.791484 -4.19092 0
M  V30 5266 S 514.48 -2.27925 -4.84572 0
M  V30 5267 C 515.636 -1.56462 -6.06028 0
M  V30 5268 H 515.869 -1.46342 -2.58788 0
M  V30 5269 H 513.402 -0.861148 -1.28155 0
M  V30 5270 H 515.36 0.545746 -4.06856 0
M  V30 5271 H 514.021 0.980124 -2.98416 0
M  V30 5272 H 513.214 -0.230039 -5.03475 0
M  V30 5273 H 512.816 -1.14326 -3.56098 0
M  V30 5274 H 515.108 -0.862539 -6.71987 0
M  V30 5275 H 516.051 -2.38583 -6.66696 0
M  V30 5276 H 516.459 -1.05313 -5.5459 0
M  V30 5277 N 515.857 1.33968 -0.830081 0
M  V30 5278 C 516.804 2.29387 -0.255008 0
M  V30 5279 C 517.774 1.53923 0.624243 0
M  V30 5280 O 518.959 1.82262 0.564372 0
M  V30 5281 C 516.099 3.4034 0.571209 0
M  V30 5282 C 515.212 4.30729 -0.331083 0
M  V30 5283 C 514.347 5.2879 0.505389 0
M  V30 5284 C 513.386 6.10819 -0.395843 0
M  V30 5285 N 512.523 7.00948 0.401979 0
M  V30 5286 H 517.363 2.77972 -1.07404 0
M  V30 5287 H 514.9 1.36785 -0.541133 0
M  V30 5288 H 516.858 4.03361 1.06562 0
M  V30 5289 H 515.488 2.9297 1.35529 0
M  V30 5290 H 514.54 3.68507 -0.943759 0
M  V30 5291 H 515.852 4.88181 -1.02377 0
M  V30 5292 H 515.006 5.97297 1.06399 0
M  V30 5293 H 513.745 4.71894 1.23155 0
M  V30 5294 H 512.75 5.41238 -0.966529 0
M  V30 5295 H 513.975 6.69797 -1.12023 0
M  V30 5296 H 511.921 6.46512 1.11168 0
M  V30 5297 H 511.838 7.55643 -0.232167 0
M  V30 5298 H 513.106 7.73774 0.943102 0
M  V30 5299 N 517.335 0.585699 1.46312 0
M  V30 5300 C 518.583 0.072278 2.01971 0
M  V30 5301 C 518.904 -1.29345 1.45928 0
M  V30 5302 O 518.174 -1.84973 0.645109 0
M  V30 5303 H 516.754 0.023729 0.746623 0
M  V30 5304 H 519.416 0.762155 1.7938 0
M  V30 5305 H 518.512 0.00552767 3.121 0
M  V30 5306 N 518.813 -1.54241 0.323641 0
M  V30 5307 C 520.061 -2.00174 -0.278359 0
M  V30 5308 C 520.382 -1.2134 -1.52648 0
M  V30 5309 O 519.652 -0.315244 -1.93347 0
M  V30 5310 H 518.232 -0.739463 -0.105845 0
M  V30 5311 H 520.894 -1.89864 0.440204 0
M  V30 5312 H 519.99 -3.07486 -0.5347 0
M  V30 5313 N 520.291 -0.0518155 -1.57515 0
M  V30 5314 C 521.707 0.304735 -1.56664 0
M  V30 5315 C 521.907 1.71395 -1.05953 0
M  V30 5316 O 520.963 2.42123 -0.716414 0
M  V30 5317 C 522.276 0.132614 -3.00407 0
M  V30 5318 C 523.824 0.20367 -3.12337 0
M  V30 5319 C 524.299 0.0600706 -4.57961 0
M  V30 5320 N 525.79 0.116326 -4.63054 0
M  V30 5321 C 526.525 0.0293363 -5.73392 0
M  V30 5322 N 526.021 -0.110038 -6.92713 0
M  V30 5323 N 527.814 0.0849651 -5.62036 0
M  V30 5324 H 519.965 -0.973056 -1.888 0
M  V30 5325 H 522.228 -0.377781 -0.869474 0
M  V30 5326 H 521.934 -0.839019 -3.41546 0
M  V30 5327 H 521.808 0.893376 -3.66468 0
M  V30 5328 H 524.195 1.16578 -2.71097 0
M  V30 5329 H 524.276 -0.587857 -2.48954 0
M  V30 5330 H 523.92 -0.898715 -4.99886 0
M  V30 5331 H 523.85 0.87075 -5.19351 0
M  V30 5332 H 526.341 0.22327 -3.7724 0
M  V30 5333 H 526.654 -0.169104 -7.72615 0
M  V30 5334 H 524.999 -0.145132 -6.94848 0
M  V30 5335 H 528.19 0.192411 -4.67704 0
M  V30 5336 H 528.363 0.0137131 -6.47999 0
M  V30 5337 N 521.769 1.56035 0.221574 0
M  V30 5338 C 522.679 1.95581 1.29558 0
M  V30 5339 C 523.695 0.859639 1.51282 0
M  V30 5340 O 524.871 1.16321 1.64413 0
M  V30 5341 C 521.936 2.26447 2.62531 0
M  V30 5342 C 520.997 3.49632 2.4911 0
M  V30 5343 C 520.23 3.79017 3.75742 0
M  V30 5344 O 520.453 3.10077 4.78757 0
M  V30 5345 O 519.387 4.72507 3.72855 0
M  V30 5346 H 523.213 2.8711 0.990035 0
M  V30 5347 H 520.798 1.43244 0.424434 0
M  V30 5348 H 522.68 2.47494 3.41064 0
M  V30 5349 H 521.355 1.38092 2.92766 0
M  V30 5350 H 520.262 3.33864 1.68777 0
M  V30 5351 H 521.595 4.3837 2.23814 0
M  V30 5352 N 523.247 -0.488276 1.49845 0
M  V30 5353 C 524.493 -1.24341 1.6021 0
M  V30 5354 C 524.826 -1.91967 0.293651 0
M  V30 5355 O 524.101 -1.81323 -0.703718 0
M  V30 5356 C 524.384 -2.3005 2.77036 0
M  V30 5357 C 524.237 -1.66842 4.17713 0
M  V30 5358 C 525.556 -3.31509 2.89464 0
M  V30 5359 H 522.675 -0.450704 0.583125 0
M  V30 5360 H 525.317 -0.539673 1.82174 0
M  V30 5361 H 523.467 -2.90071 2.58439 0
M  V30 5362 H 525.139 -1.1055 4.47858 0
M  V30 5363 H 523.382 -0.972079 4.22768 0
M  V30 5364 H 524.053 -2.43576 4.95353 0
M  V30 5365 H 526.529 -2.81493 3.06433 0
M  V30 5366 H 525.405 -4.02822 3.72861 0
M  V30 5367 H 525.666 -3.94603 1.99351 0
M  V30 5368 N 524.725 -1.39134 -0.740242 0
M  V30 5369 C 525.688 -1.37217 -1.83587 0
M  V30 5370 C 526.688 -0.270221 -1.58513 0
M  V30 5371 O 527.878 -0.527843 -1.6601 0
M  V30 5372 C 525.01 -1.13959 -3.21288 0
M  V30 5373 H 526.203 -2.34705 -1.86691 0
M  V30 5374 H 523.756 -1.24622 -0.94335 0
M  V30 5375 H 524.491 -0.17131 -3.23847 0
M  V30 5376 H 524.276 -1.93754 -3.40884 0
M  V30 5377 H 525.766 -1.15346 -4.01354 0
M  V30 5378 N 526.204 0.969867 -1.24223 0
M  V30 5379 C 527.137 2.06279 -0.975926 0
M  V30 5380 C 528.115 1.62353 0.0895385 0
M  V30 5381 O 529.299 1.88442 -0.0469418 0
M  V30 5382 C 526.426 3.35391 -0.472315 0
M  V30 5383 C 525.472 3.98266 -1.526 0
M  V30 5384 S 526.305 4.36172 -3.10667 0
M  V30 5385 C 527.461 5.68423 -2.62003 0
M  V30 5386 H 527.694 2.28551 -1.90137 0
M  V30 5387 H 525.227 1.10748 -1.07584 0
M  V30 5388 H 527.185 4.10068 -0.188376 0
M  V30 5389 H 525.846 3.1111 0.432378 0
M  V30 5390 H 525.039 4.91307 -1.12399 0
M  V30 5391 H 524.641 3.30009 -1.75983 0
M  V30 5392 H 526.933 6.45842 -2.0468 0
M  V30 5393 H 527.876 6.13478 -3.53625 0
M  V30 5394 H 528.284 5.26928 -2.02502 0
M  V30 5395 N 527.682 1.05563 1.17022 0
M  V30 5396 C 528.629 0.659893 2.21165 0
M  V30 5397 C 529.599 -0.339813 1.62587 0
M  V30 5398 O 530.784 -0.230378 1.89404 0
M  V30 5399 C 527.924 0.0447297 3.45071 0
M  V30 5400 C 527.037 1.09372 4.17926 0
M  V30 5401 C 526.172 0.445481 5.29329 0
M  V30 5402 C 525.211 1.47852 5.93975 0
M  V30 5403 N 524.348 0.854172 6.96885 0
M  V30 5404 H 529.188 1.55243 2.54369 0
M  V30 5405 H 526.725 0.776336 1.24946 0
M  V30 5406 H 528.683 -0.329404 4.15898 0
M  V30 5407 H 527.313 -0.811244 3.1244 0
M  V30 5408 H 526.365 1.58564 3.45777 0
M  V30 5409 H 527.677 1.87773 4.62107 0
M  V30 5410 H 526.831 0.0179688 6.06697 0
M  V30 5411 H 525.57 -0.370481 4.86291 0
M  V30 5412 H 524.575 1.91601 5.15334 0
M  V30 5413 H 525.8 2.29645 6.39093 0
M  V30 5414 H 523.746 0.0587882 6.55974 0
M  V30 5415 H 523.663 1.57567 7.39397 0
M  V30 5416 H 524.931 0.451559 7.78191 0
M  V30 5417 N 529.16 -1.33526 0.837174 0
M  V30 5418 C 530.409 -1.97098 0.428387 0
M  V30 5419 C 530.722 -1.67062 -1.01734 0
M  V30 5420 O 531.928 -2.24235 -1.53072 0
M  V30 5421 C 530.384 -3.52725 0.715075 0
M  V30 5422 C 529.992 -3.9164 2.17537 0
M  V30 5423 C 531.736 -4.22857 0.373154 0
M  V30 5424 C 529.643 -5.40237 2.40619 0
M  V30 5425 H 528.573 -0.737589 0.156455 0
M  V30 5426 H 531.224 -1.52169 1.02552 0
M  V30 5427 H 529.606 -3.95971 0.0475904 0
M  V30 5428 H 530.78 -3.59456 2.88319 0
M  V30 5429 H 529.095 -3.34485 2.4801 0
M  V30 5430 H 531.692 -5.32133 0.523264 0
M  V30 5431 H 532.035 -4.10647 -0.683708 0
M  V30 5432 H 532.568 -3.85135 0.995801 0
M  V30 5433 H 529.307 -5.57449 3.44864 0
M  V30 5434 H 528.827 -5.73887 1.74396 0
M  V30 5435 H 530.506 -6.07102 2.23688 0
M  V30 5436 N 530.638 -0.59345 -1.46 0
M  V30 5437 C 531.57 0.171569 -2.28557 0
M  V30 5438 C 532.583 0.845273 -1.39137 0
M  V30 5439 O 533.772 0.713033 -1.6364 0
M  V30 5440 C 530.872 1.26311 -3.14482 0
M  V30 5441 C 530.045 0.679258 -4.32094 0
M  V30 5442 C 529.104 1.65987 -4.99334 0
M  V30 5443 O 528.13 1.19171 -5.56585 0
M  V30 5444 N 529.332 2.99414 -4.97324 0
M  V30 5445 H 532.097 -0.536771 -2.94854 0
M  V30 5446 H 529.658 -0.431954 -1.56031 0
M  V30 5447 H 531.65 1.91863 -3.5633 0
M  V30 5448 H 530.22 1.87416 -2.50188 0
M  V30 5449 H 529.44 -0.153992 -3.93899 0
M  V30 5450 H 530.728 0.26916 -5.08088 0
M  V30 5451 H 530.126 3.40064 -4.52076 0
M  V30 5452 H 528.683 3.60426 -5.4308 0
M  V30 5453 N 532.116 1.54067 -0.331816 0
M  V30 5454 C 533.346 2.04833 0.269605 0
M  V30 5455 C 533.754 1.20714 1.45687 0
M  V30 5456 O 533.097 0.232539 1.82222 0
M  V30 5457 C 533.159 3.51386 0.759499 0
M  V30 5458 C 532.823 4.55971 -0.306557 0
M  V30 5459 C 533.82 5.07126 -1.14538 0
M  V30 5460 C 531.505 5.00216 -0.457116 0
M  V30 5461 C 533.499 6.01096 -2.12042 0
M  V30 5462 C 531.186 5.93999 -1.43556 0
M  V30 5463 C 532.184 6.44326 -2.26568 0
M  V30 5464 O 531.872 7.36267 -3.22749 0
M  V30 5465 H 531.604 0.673509 0.0579763 0
M  V30 5466 H 534.158 1.99748 -0.478521 0
M  V30 5467 H 532.388 3.53896 1.55867 0
M  V30 5468 H 534.077 3.85184 1.28017 0
M  V30 5469 H 534.843 4.73716 -1.04009 0
M  V30 5470 H 530.722 4.60652 0.179142 0
M  V30 5471 H 534.266 6.40302 -2.76873 0
M  V30 5472 H 530.163 6.26825 -1.54146 0
M  V30 5473 H 530.931 7.54165 -3.18083 0
M  V30 5474 N 533.594 0.0601682 1.57485 0
M  V30 5475 C 535.005 -0.474217 1.80577 0
M  V30 5476 C 535.356 -1.70365 0.973147 0
M  V30 5477 O 534.481 -2.15544 0.192306 0
M  V30 5478 C 535.076 -0.867102 3.27516 0
M  V30 5479 C 533.635 -1.34642 3.51495 0
M  V30 5480 C 532.782 -0.32594 2.75378 0
M  V30 5481 H 535.733 0.285973 1.56102 0
M  V30 5482 H 535.754 -1.72938 3.38929 0
M  V30 5483 H 535.266 0.0278927 3.8809 0
M  V30 5484 H 533.367 -2.2603 2.96212 0
M  V30 5485 H 533.48 -1.33237 4.60201 0
M  V30 5486 H 531.844 -0.800749 2.41785 0
M  V30 5487 H 532.627 0.561125 3.38683 0
M  V30 5488 N 535.072 -1.5615 -0.213296 0
M  V30 5489 C 536.32 -1.79191 -0.934612 0
M  V30 5490 C 536.641 -0.630112 -1.84539 0
M  V30 5491 O 535.911 0.35257 -1.92701 0
M  V30 5492 H 534.491 -0.660937 -0.348097 0
M  V30 5493 H 537.153 -1.93618 -0.22317 0
M  V30 5494 H 536.249 -2.71656 -1.53654 0
M  V30 5495 N 536.55 0.480323 -1.50102 0
M  V30 5496 C 537.796 1.23489 -1.60867 0
M  V30 5497 C 538.129 1.91809 -0.303827 0
M  V30 5498 O 537.404 1.81694 0.694092 0
M  V30 5499 C 537.687 2.28578 -2.78252 0
M  V30 5500 C 537.54 1.64624 -4.18592 0
M  V30 5501 C 538.859 3.2997 -2.91218 0
M  V30 5502 H 535.978 0.447605 -0.585507 0
M  V30 5503 H 538.62 0.530005 -1.82458 0
M  V30 5504 H 536.77 2.88697 -2.59974 0
M  V30 5505 H 538.442 1.08173 -4.48438 0
M  V30 5506 H 536.685 0.949645 -4.23278 0
M  V30 5507 H 537.356 2.40946 -4.96638 0
M  V30 5508 H 539.832 2.79864 -3.07921 0
M  V30 5509 H 538.708 4.00839 -3.74993 0
M  V30 5510 H 538.969 3.93541 -2.0144 0
M  V30 5511 N 538.028 1.39524 0.732853 0
M  V30 5512 C 538.991 1.38189 1.82857 0
M  V30 5513 C 539.991 0.278624 1.58368 0
M  V30 5514 O 541.181 0.536639 1.65728 0
M  V30 5515 C 538.313 1.15661 3.2068 0
M  V30 5516 H 539.506 2.35692 1.85444 0
M  V30 5517 H 537.059 1.2512 0.936728 0
M  V30 5518 H 537.794 0.188482 3.23752 0
M  V30 5519 H 537.579 1.95559 3.39852 0
M  V30 5520 H 539.069 1.17472 4.00737 0
M  V30 5521 N 539.506 -0.963266 1.24736 0
M  V30 5522 C 540.438 -2.06162 1.0015 0
M  V30 5523 C 541.451 -1.62771 -0.0305905 0
M  V30 5524 O 542.64 -1.77296 0.206966 0
M  V30 5525 C 539.74 -3.35333 0.490385 0
M  V30 5526 C 538.913 -4.07609 1.58663 0
M  V30 5527 C 537.972 -5.15052 1.0774 0
M  V30 5528 O 536.998 -5.4098 1.77002 0
M  V30 5529 N 538.2 -5.80436 -0.0858605 0
M  V30 5530 H 540.965 -2.27825 1.94719 0
M  V30 5531 H 538.526 -1.13121 1.15825 0
M  V30 5532 H 540.518 -4.04477 0.134371 0
M  V30 5533 H 539.088 -3.10507 -0.361155 0
M  V30 5534 H 538.308 -3.32681 2.11463 0
M  V30 5535 H 539.596 -4.52656 2.32336 0
M  V30 5536 H 538.994 -5.6178 -0.664806 0
M  V30 5537 H 537.551 -6.50674 -0.382981 0
M  V30 5538 N 540.985 -1.06182 -1.16461 0
M  V30 5539 C 542.21 -0.798599 -1.91408 0
M  V30 5540 C 542.635 0.640987 -1.76842 0
M  V30 5541 O 541.993 1.44652 -1.09296 0
M  V30 5542 C 542.041 -1.19665 -3.40165 0
M  V30 5543 O 541.145 -0.334768 -4.11039 0
M  V30 5544 H 540.486 -0.291961 -0.596368 0
M  V30 5545 H 543.016 -1.41732 -1.47557 0
M  V30 5546 H 543.026 -1.16772 -3.90933 0
M  V30 5547 H 541.701 -2.24526 -3.50087 0
M  V30 5548 H 540.278 -0.425168 -3.70468 0
M  V30 5549 N 542.463 1.3308 -0.844243 0
M  V30 5550 C 543.712 1.96868 -0.438833 0
M  V30 5551 C 544.025 1.67599 1.00846 0
M  V30 5552 O 545.231 2.25043 1.51881 0
M  V30 5553 C 543.687 3.5234 -0.73377 0
M  V30 5554 C 543.295 3.90481 -2.1961 0
M  V30 5555 C 545.039 4.22653 -0.395574 0
M  V30 5556 C 542.946 5.38954 -2.43481 0
M  V30 5557 H 541.876 0.736749 -0.160364 0
M  V30 5558 H 544.527 1.51623 -1.03358 0
M  V30 5559 H 542.909 3.95941 -0.068589 0
M  V30 5560 H 544.083 3.57922 -2.90221 0
M  V30 5561 H 542.398 3.33165 -2.4978 0
M  V30 5562 H 544.995 5.31848 -0.551477 0
M  V30 5563 H 545.338 4.11004 0.661921 0
M  V30 5564 H 545.871 3.84601 -1.01621 0
M  V30 5565 H 542.61 5.55612 -3.47816 0
M  V30 5566 H 542.13 5.72954 -1.77437 0
M  V30 5567 H 543.809 6.05907 -2.26905 0
M  V30 5568 N 543.941 0.601185 1.45683 0
M  V30 5569 C 544.889 -0.133955 2.32214 0
M  V30 5570 C 545.883 -0.866034 1.45589 0
M  V30 5571 O 547.089 -0.782326 1.6211 0
M  V30 5572 H 543.464 -0.0620613 0.749435 0
M  V30 5573 H 545.435 0.614389 2.92007 0
M  V30 5574 C 544.184 -1.12216 3.29094 0
M  V30 5575 H 543.507 -0.568273 3.95741 0
M  V30 5576 H 544.947 -1.60659 3.92383 0
M  V30 5577 C 543.406 -2.19251 2.55794 0
M  V30 5578 O 543.936 -3.26894 2.33459 0
M  V30 5579 N 542.142 -1.9436 2.16039 0
M  V30 5580 H 541.689 -1.06829 2.34404 0
M  V30 5581 H 541.647 -2.66181 1.67318 0
M  V30 5582 N 545.419 -1.53889 0.339982 0
M  V30 5583 C 546.644 -2.05741 -0.261798 0
M  V30 5584 C 547.069 -1.21354 -1.43718 0
M  V30 5585 O 546.427 -0.22645 -1.7988 0
M  V30 5586 C 546.475 -3.54542 -0.658228 0
M  V30 5587 O 545.579 -3.7302 -1.75869 0
M  V30 5588 H 544.92 -0.662529 -0.0441672 0
M  V30 5589 H 547.45 -1.98568 0.493161 0
M  V30 5590 H 547.46 -3.9711 -0.936368 0
M  V30 5591 H 546.135 -4.15412 0.201358 0
M  V30 5592 H 544.712 -3.42355 -1.47809 0
M  V30 5593 N 546.897 -0.0685191 -1.57451 0
M  V30 5594 C 548.174 0.642167 -1.84758 0
M  V30 5595 C 548.554 1.87991 -0.960344 0
M  V30 5596 O 547.902 2.28485 -0.0257894 0
M  V30 5597 C 548.112 0.982946 -3.34872 0
M  V30 5598 C 549.46 1.35784 -4.02303 0
M  V30 5599 O 550.484 1.07477 -3.39598 0
M  V30 5600 O 549.343 1.88681 -5.12895 0
M  V30 5601 H 546.437 0.318625 -0.763156 0
M  V30 5602 H 548.983 -0.0992015 -1.6941 0
M  V30 5603 H 547.755 0.10372 -3.91163 0
M  V30 5604 H 547.378 1.78119 -3.55471 0
M  V30 5605 N 548.375 1.56261 0.205012 0
M  V30 5606 C 549.621 1.80306 0.9283 0
M  V30 5607 C 549.954 0.640932 1.83319 0
M  V30 5608 O 549.229 -0.359032 1.91158 0
M  V30 5609 C 549.512 3.14547 1.75306 0
M  V30 5610 C 549.365 4.41236 0.873562 0
M  V30 5611 C 550.684 3.45382 2.72762 0
M  V30 5612 H 547.803 0.655929 0.336044 0
M  V30 5613 H 550.445 1.88984 0.196211 0
M  V30 5614 H 548.595 3.0728 2.37721 0
M  V30 5615 H 550.267 4.60539 0.264887 0
M  V30 5616 H 548.51 4.33427 0.179773 0
M  V30 5617 H 549.181 5.31639 1.48541 0
M  V30 5618 H 551.657 3.52884 2.20481 0
M  V30 5619 H 550.533 4.40449 3.2756 0
M  V30 5620 H 550.794 2.68377 3.51321 0
M  V30 5621 N 549.853 -0.472356 1.50355 0
M  V30 5622 C 550.801 -1.59126 1.69651 0
M  V30 5623 C 551.795 -1.59793 0.56237 0
M  V30 5624 O 553.001 -1.63957 0.742832 0
M  V30 5625 H 549.376 -0.528008 0.535454 0
M  V30 5626 H 551.347 -1.40013 2.63513 0
M  V30 5627 C 550.096 -2.97075 1.8067 0
M  V30 5628 H 549.419 -2.9728 2.67329 0
M  V30 5629 H 550.859 -3.74825 1.98197 0
M  V30 5630 C 549.318 -3.32247 0.558016 0
M  V30 5631 O 549.848 -4.00553 -0.303399 0
M  V30 5632 N 548.054 -2.87659 0.412415 0
M  V30 5633 H 547.601 -2.32246 1.11443 0
M  V30 5634 H 547.559 -3.11556 -0.421908 0
M  V30 5635 N 551.331 -1.39911 -0.725443 0
M  V30 5636 C 552.279 -1.39552 -1.86086 0
M  V30 5637 C 553.273 -0.277334 -1.67114 0
M  V30 5638 O 554.479 -0.447865 -1.74339 0
M  V30 5639 H 550.854 -0.435993 -0.612711 0
M  V30 5640 H 552.825 -2.35305 -1.83505 0
M  V30 5641 C 551.574 -1.26529 -3.2386 0
M  V30 5642 H 550.897 -2.11845 -3.3906 0
M  V30 5643 H 552.337 -1.30336 -4.03471 0
M  V30 5644 C 550.796 0.0254168 -3.3689 0
M  V30 5645 O 551.326 0.992048 -3.89257 0
M  V30 5646 N 549.532 0.0916528 -2.90455 0
M  V30 5647 H 549.079 -0.695675 -2.48028 0
M  V30 5648 H 549.037 0.954745 -2.99553 0
M  V30 5649 N 552.809 0.956637 -1.25245 0
M  V30 5650 C 553.739 2.07058 -1.07931 0
M  V30 5651 C 554.72 1.70096 0.0110361 0
M  V30 5652 O 555.905 1.93555 -0.158121 0
M  V30 5653 C 553.035 3.40272 -0.695124 0
M  V30 5654 C 551.989 3.91235 -1.73549 0
M  V30 5655 C 551.315 5.20921 -1.20604 0
M  V30 5656 C 552.615 4.17837 -3.13385 0
M  V30 5657 H 554.309 2.218 -2.01109 0
M  V30 5658 H 551.855 1.06581 -0.968326 0
M  V30 5659 H 553.808 4.1765 -0.560949 0
M  V30 5660 H 552.532 3.25462 0.272355 0
M  V30 5661 H 551.191 3.16025 -1.85807 0
M  V30 5662 H 550.839 5.02479 -0.228846 0
M  V30 5663 H 550.539 5.55987 -1.90136 0
M  V30 5664 H 552.063 6.00897 -1.08421 0
M  V30 5665 H 553.477 4.8588 -3.04292 0
M  V30 5666 H 551.874 4.64154 -3.80369 0
M  V30 5667 H 552.944 3.2419 -3.60595 0
M  V30 5668 N 554.287 1.06798 1.15896 0
M  V30 5669 C 555.22 0.627503 2.19403 0
M  V30 5670 C 556.198 -0.352352 1.58736 0
M  V30 5671 O 557.382 -0.260111 1.86697 0
M  V30 5672 C 554.509 -0.079356 3.38607 0
M  V30 5673 C 553.555 0.858057 4.17779 0
M  V30 5674 S 554.388 2.35605 4.80885 0
M  V30 5675 C 555.544 1.66083 6.03463 0
M  V30 5676 H 555.777 1.50441 2.56427 0
M  V30 5677 H 553.31 0.881427 1.26768 0
M  V30 5678 H 555.268 -0.48095 4.07673 0
M  V30 5679 H 553.929 -0.932524 2.99938 0
M  V30 5680 H 553.122 0.310108 5.03045 0
M  V30 5681 H 552.724 1.19977 3.54234 0
M  V30 5682 H 555.016 0.969337 6.7053 0
M  V30 5683 H 555.959 2.49159 6.62816 0
M  V30 5684 H 556.367 1.14122 5.52844 0
M  V30 5685 N 555.766 -1.3263 0.851289 0
M  V30 5686 C 556.729 -2.27247 0.298541 0
M  V30 5687 C 557.729 -1.51467 -0.539847 0
M  V30 5688 O 558.919 -1.7061 -0.351843 0
M  V30 5689 C 556.051 -3.35964 -0.578004 0
M  V30 5690 H 557.244 -2.7765 1.13359 0
M  V30 5691 H 554.797 -1.43245 0.625354 0
M  V30 5692 H 555.532 -2.90823 -1.435 0
M  V30 5693 H 555.317 -3.92094 0.0220539 0
M  V30 5694 H 556.807 -4.06472 -0.957626 0
M  V30 5695 N 557.244 -0.608902 -1.45362 0
M  V30 5696 C 558.49 -0.104762 -2.02529 0
M  V30 5697 C 558.823 1.26191 -1.47613 0
M  V30 5698 O 558.098 1.8327 -0.65134 0
M  V30 5699 C 558.381 -0.0672661 -3.60037 0
M  V30 5700 C 558.234 -1.4647 -4.25284 0
M  V30 5701 C 559.553 0.619877 -4.35713 0
M  V30 5702 H 556.672 -0.0395438 -0.735938 0
M  V30 5703 H 559.314 -0.781126 -1.73201 0
M  V30 5704 H 557.464 0.50871 -3.85155 0
M  V30 5705 H 559.136 -2.08785 -4.11347 0
M  V30 5706 H 557.379 -2.02502 -3.83634 0
M  V30 5707 H 558.05 -1.39069 -5.34195 0
M  V30 5708 H 560.526 0.130297 -4.15896 0
M  V30 5709 H 559.402 0.615224 -5.45441 0
M  V30 5710 H 559.663 1.68621 -4.0868 0
M  V30 5711 N 558.722 1.53707 -0.348139 0
M  V30 5712 C 559.652 2.28111 0.498766 0
M  V30 5713 C 560.633 1.29851 1.09876 0
M  V30 5714 O 561.818 1.587 1.11928 0
M  V30 5715 C 558.948 3.05735 1.64753 0
M  V30 5716 C 557.902 4.11537 1.17565 0
M  V30 5717 C 557.228 4.77142 2.4133 0
M  V30 5718 C 558.528 5.21587 0.272844 0
M  V30 5719 H 560.222 2.99152 -0.121934 0
M  V30 5720 H 557.768 1.43875 -0.0600842 0
M  V30 5721 H 559.721 3.56526 2.24649 0
M  V30 5722 H 558.445 2.32354 2.2952 0
M  V30 5723 H 557.104 3.61665 0.599483 0
M  V30 5724 H 556.752 4.0035 3.04514 0
M  V30 5725 H 556.452 5.48626 2.10436 0
M  V30 5726 H 557.976 5.30719 3.01943 0
M  V30 5727 H 559.39 5.67986 0.778779 0
M  V30 5728 H 557.787 6.00074 0.0555849 0
M  V30 5729 H 558.857 4.79969 -0.689785 0
M  V30 5730 N 560.2 0.0768682 1.57412 0
M  V30 5731 C 561.148 -0.906229 2.1422 0
M  V30 5732 C 562.142 -1.30477 1.08037 0
M  V30 5733 O 563.348 -1.28143 1.2641 0
M  V30 5734 H 559.723 -0.310207 0.685037 0
M  V30 5735 H 561.694 -0.402228 2.95677 0
M  V30 5736 C 560.443 -2.16245 2.72274 0
M  V30 5737 H 559.766 -1.86463 3.53655 0
M  V30 5738 H 561.206 -2.83134 3.15613 0
M  V30 5739 C 559.665 -2.92437 1.67279 0
M  V30 5740 O 560.195 -3.86322 1.10081 0
M  V30 5741 N 558.401 -2.55637 1.38195 0
M  V30 5742 H 557.948 -1.79363 1.84897 0
M  V30 5743 H 557.906 -3.06919 0.681787 0
M  V30 5744 N 561.678 -1.56367 -0.196722 0
M  V30 5745 C 562.611 -1.89475 -1.2718 0
M  V30 5746 C 563.589 -0.754667 -1.44026 0
M  V30 5747 O 564.773 -1.00551 -1.59442 0
M  V30 5748 C 561.9 -2.12352 -2.63864 0
M  V30 5749 C 560.946 -3.35053 -2.63897 0
M  V30 5750 S 561.779 -4.90228 -2.15492 0
M  V30 5751 C 562.935 -5.16171 -3.54004 0
M  V30 5752 H 563.168 -2.80365 -0.989075 0
M  V30 5753 H 560.701 -1.49125 -0.40014 0
M  V30 5754 H 562.659 -2.26214 -3.42545 0
M  V30 5755 H 561.32 -1.22214 -2.89349 0
M  V30 5756 H 560.513 -3.48182 -3.64397 0
M  V30 5757 H 560.115 -3.20176 -1.93296 0
M  V30 5758 H 562.407 -5.06591 -4.49857 0
M  V30 5759 H 563.35 -6.17938 -3.45771 0
M  V30 5760 H 563.758 -4.43814 -3.48841 0
M  V30 5761 N 563.156 0.464375 -1.50603 0
M  V30 5762 C 564.381 1.24372 -1.65971 0
M  V30 5763 C 564.806 1.84901 -0.345453 0
M  V30 5764 O 564.164 1.67596 0.691457 0
M  V30 5765 C 564.212 2.32331 -2.7578 0
M  V30 5766 O 563.316 3.37146 -2.375 0
M  V30 5767 H 562.657 0.365604 -0.554283 0
M  V30 5768 H 565.187 0.55183 -1.97018 0
M  V30 5769 H 565.197 2.77539 -2.99059 0
M  V30 5770 H 563.872 1.87648 -3.71162 0
M  V30 5771 H 562.449 2.97602 -2.24694 0
M  V30 5772 N 564.634 1.40294 0.718013 0
M  V30 5773 C 565.582 1.40536 1.85344 0
M  V30 5774 C 566.576 0.286192 1.66965 0
M  V30 5775 O 567.782 0.457105 1.74099 0
M  V30 5776 H 564.157 0.439236 0.61039 0
M  V30 5777 H 566.128 2.36275 1.82255 0
M  V30 5778 C 564.877 1.28245 3.23185 0
M  V30 5779 H 564.2 2.1364 3.37932 0
M  V30 5780 H 565.64 1.32474 4.02774 0
M  V30 5781 C 564.099 -0.0075503 3.36899 0
M  V30 5782 O 564.629 -0.971391 3.89778 0
M  V30 5783 N 562.835 -0.0762479 2.905 0
M  V30 5784 H 562.382 0.708819 2.47656 0
M  V30 5785 H 562.34 -0.938846 3.00055 0
M  V30 5786 N 566.112 -0.949982 1.2575 0
M  V30 5787 C 567.045 -2.047 1.00862 0
M  V30 5788 C 568.023 -1.62475 -0.0636982 0
M  V30 5789 O 569.207 -1.88343 0.0769153 0
M  V30 5790 C 566.334 -3.34597 0.525613 0
M  V30 5791 C 565.38 -3.95788 1.58916 0
M  V30 5792 S 566.213 -4.31175 3.17567 0
M  V30 5793 C 567.369 -5.64183 2.71013 0
M  V30 5794 H 567.602 -2.25497 1.93749 0
M  V30 5795 H 565.135 -1.09022 1.09332 0
M  V30 5796 H 567.093 -4.09716 0.25359 0
M  V30 5797 H 565.754 -3.11758 -0.382828 0
M  V30 5798 H 564.947 -4.89457 1.20201 0
M  V30 5799 H 564.549 -3.27168 1.81211 0
M  V30 5800 H 566.841 -6.42504 2.14928 0
M  V30 5801 H 567.784 -6.07774 3.6334 0
M  V30 5802 H 568.192 -5.2364 2.1086 0
M  V30 5803 N 567.59 -1.07411 -1.15328 0
M  V30 5804 C 568.52 -0.716472 -2.22236 0
M  V30 5805 C 569.501 0.296373 -1.67498 0
M  V30 5806 O 570.686 0.168989 -1.93463 0
M  V30 5807 C 567.816 -0.114142 -3.47112 0
M  V30 5808 C 566.77 -1.05421 -4.14814 0
M  V30 5809 C 566.096 -0.314604 -5.33774 0
M  V30 5810 C 567.396 -2.38808 -4.64508 0
M  V30 5811 H 569.09 -1.61029 -2.52408 0
M  V30 5812 H 566.636 -0.775702 -1.21321 0
M  V30 5813 H 568.589 0.148001 -4.2114 0
M  V30 5814 H 567.313 0.814755 -3.16274 0
M  V30 5815 H 565.972 -1.30128 -3.42728 0
M  V30 5816 H 565.62 0.617772 -4.99192 0
M  V30 5817 H 565.32 -0.941209 -5.80013 0
M  V30 5818 H 566.844 -0.0602747 -6.1057 0
M  V30 5819 H 568.258 -2.18424 -5.3006 0
M  V30 5820 H 566.655 -2.97069 -5.21412 0
M  V30 5821 H 567.725 -3.01067 -3.80114 0
M  V30 5822 N 569.068 1.32177 -0.85831 0
M  V30 5823 C 570.479 1.79381 -0.517621 0
M  V30 5824 C 570.83 1.70841 0.964769 0
M  V30 5825 O 569.955 1.26917 1.75274 0
M  V30 5826 C 570.55 3.25706 -0.932801 0
M  V30 5827 C 569.109 3.70851 -0.643953 0
M  V30 5828 C 568.256 2.53208 -1.13054 0
M  V30 5829 H 571.207 1.19424 -1.04516 0
M  V30 5830 H 571.228 3.79673 -0.250674 0
M  V30 5831 H 570.74 3.31889 -2.01174 0
M  V30 5832 H 568.841 3.70178 0.424112 0
M  V30 5833 H 568.954 4.63495 -1.21281 0
M  V30 5834 H 567.318 2.48676 -0.550679 0
M  V30 5835 H 568.101 2.62143 -2.21666 0
M  V30 5836 N 570.547 0.616602 1.45037 0
M  V30 5837 C 571.457 -0.0985401 2.34393 0
M  V30 5838 C 572.473 -0.850971 1.51771 0
M  V30 5839 O 573.649 -0.806521 1.84546 0
M  V30 5840 C 570.714 -1.07748 3.29532 0
M  V30 5841 C 569.775 -0.326022 4.2806 0
M  V30 5842 C 569.008 -1.25833 5.18654 0
M  V30 5843 O 569.231 -2.49652 5.12864 0
M  V30 5844 O 568.165 -0.750512 5.97203 0
M  V30 5845 H 571.991 0.636016 2.96966 0
M  V30 5846 H 569.576 0.376832 1.44569 0
M  V30 5847 H 571.458 -1.64107 3.88133 0
M  V30 5848 H 570.133 -1.79291 2.69512 0
M  V30 5849 H 569.04 0.280253 3.73049 0
M  V30 5850 H 570.373 0.349091 4.9096 0
M  V30 5851 N 572.025 -1.5352 0.356285 0
M  V30 5852 C 573.273 -2.00719 -0.235837 0
M  V30 5853 C 573.594 -1.24551 -1.5004 0
M  V30 5854 O 572.864 -0.356185 -1.92635 0
M  V30 5855 H 571.444 -0.741542 -0.0901366 0
M  V30 5856 H 574.106 -1.88887 0.480378 0
M  V30 5857 H 573.202 -3.08551 -0.469357 0
M  V30 5858 N 573.503 -0.0852151 -1.57369 0
M  V30 5859 C 574.433 0.874556 -2.16503 0
M  V30 5860 C 575.414 1.30111 -1.09568 0
M  V30 5861 O 576.599 1.36977 -1.37662 0
M  V30 5862 C 573.729 2.13731 -2.73745 0
M  V30 5863 C 572.683 1.84971 -3.85966 0
M  V30 5864 C 572.009 3.17991 -4.29867 0
M  V30 5865 C 573.309 1.14442 -5.09608 0
M  V30 5866 H 575.003 0.381899 -2.96954 0
M  V30 5867 H 572.549 0.18225 -1.42842 0
M  V30 5868 H 574.502 2.81302 -3.13763 0
M  V30 5869 H 573.226 2.65263 -1.90534 0
M  V30 5870 H 571.885 1.19801 -3.46473 0
M  V30 5871 H 571.533 3.6739 -3.4356 0
M  V30 5872 H 571.233 2.99534 -5.05523 0
M  V30 5873 H 572.757 3.86737 -4.72511 0
M  V30 5874 H 574.171 1.72105 -5.46857 0
M  V30 5875 H 572.568 1.06197 -5.90629 0
M  V30 5876 H 573.638 0.12559 -4.84737 0
M  V30 5877 N 574.981 1.5647 0.188427 0
M  V30 5878 C 576.228 1.81013 0.907779 0
M  V30 5879 C 576.556 0.65953 1.82977 0
M  V30 5880 O 575.811 -0.354308 1.92466 0
M  V30 5881 C 576.11 3.11596 1.7505 0
M  V30 5882 C 575.776 4.40145 0.978922 0
M  V30 5883 C 574.438 4.75066 0.765912 0
M  V30 5884 C 576.79 5.19369 0.436498 0
M  V30 5885 C 574.118 5.867 -0.00089868 0
M  V30 5886 C 576.47 6.31805 -0.317136 0
M  V30 5887 C 575.134 6.65303 -0.541103 0
M  V30 5888 H 574.404 0.662373 0.33218 0
M  V30 5889 H 577.051 1.9071 0.173732 0
M  V30 5890 H 575.356 2.97165 2.55343 0
M  V30 5891 H 577.053 3.27793 2.30983 0
M  V30 5892 H 573.643 4.12745 1.15497 0
M  V30 5893 H 577.827 4.92799 0.588449 0
M  V30 5894 H 573.083 6.11122 -0.184329 0
M  V30 5895 H 577.257 6.92406 -0.744788 0
M  V30 5896 H 574.884 7.51646 -1.13718 0
M  V30 5897 N 576.459 -0.456382 1.50847 0
M  V30 5898 C 577.87 -1.03685 1.55262 0
M  V30 5899 C 578.221 -1.92779 0.364771 0
M  V30 5900 O 577.346 -2.10043 -0.52068 0
M  V30 5901 C 577.941 -1.88718 2.81374 0
M  V30 5902 C 576.5 -2.41847 2.88422 0
M  V30 5903 C 575.647 -1.20564 2.49719 0
M  V30 5904 H 578.598 -0.238399 1.56899 0
M  V30 5905 H 578.619 -2.73957 2.6406 0
M  V30 5906 H 578.131 -1.23847 3.67809 0
M  V30 5907 H 576.232 -3.10228 2.06372 0
M  V30 5908 H 576.345 -2.75947 3.9165 0
M  V30 5909 H 574.709 -1.54504 2.02486 0
M  V30 5910 H 575.492 -0.573326 3.38479 0
M  V30 5911 N 577.937 -1.40673 -0.710563 0
M  V30 5912 C 578.847 -1.43663 -1.85467 0
M  V30 5913 C 579.863 -0.328721 -1.70867 0
M  V30 5914 O 581.039 -0.574098 -1.93044 0
M  V30 5915 C 578.104 -1.30226 -3.21313 0
M  V30 5916 C 577.165 -2.51204 -3.48131 0
M  V30 5917 C 576.398 -2.38398 -4.77495 0
M  V30 5918 O 576.621 -1.40048 -5.5294 0
M  V30 5919 O 575.555 -3.2787 -5.04762 0
M  V30 5920 H 579.381 -2.40156 -1.859 0
M  V30 5921 H 576.966 -1.22049 -0.861652 0
M  V30 5922 H 578.848 -1.2496 -4.02446 0
M  V30 5923 H 577.523 -0.368419 -3.21597 0
M  V30 5924 H 576.43 -2.62048 -2.66987 0
M  V30 5925 H 577.763 -3.43366 -3.52648 0
M  V30 5926 N 579.415 0.9433 -1.26252 0
M  V30 5927 C 580.365 2.02746 -1.04297 0
M  V30 5928 C 581.349 1.60882 0.0239435 0
M  V30 5929 O 582.541 1.75947 -0.192757 0
M  V30 5930 C 579.67 3.36585 -0.6757 0
M  V30 5931 C 578.756 3.84939 -1.77996 0
M  V30 5932 N 579.147 4.05966 -3.01704 0
M  V30 5933 C 577.445 4.13833 -1.66308 0
M  V30 5934 C 578.146 4.45987 -3.73458 0
M  V30 5935 N 577.122 4.52569 -3.01135 0
M  V30 5936 H 580.924 2.17012 -1.98199 0
M  V30 5937 H 578.438 1.12898 -1.16738 0
M  V30 5938 H 580.435 4.13896 -0.499571 0
M  V30 5939 H 579.095 3.2369 0.255863 0
M  V30 5940 H 580.106 3.92716 -3.37631 0
M  V30 5941 H 576.783 4.09739 -0.801267 0
M  V30 5942 H 578.173 4.70465 -4.79701 0
M  V30 5943 N 580.893 1.08022 1.14757 0
M  V30 5944 C 581.823 0.728248 2.21853 0
M  V30 5945 C 582.804 -0.287486 1.67653 0
M  V30 5946 O 583.989 -0.158727 1.9355 0
M  V30 5947 C 581.119 0.132549 3.47047 0
M  V30 5948 C 580.073 1.07619 4.14249 0
M  V30 5949 C 579.399 0.342907 5.33599 0
M  V30 5950 C 580.699 2.41268 4.63235 0
M  V30 5951 H 582.393 1.62365 2.51551 0
M  V30 5952 H 579.939 0.782125 1.20908 0
M  V30 5953 H 581.892 -0.125665 4.21213 0
M  V30 5954 H 580.616 -0.797971 3.16702 0
M  V30 5955 H 579.275 1.31944 3.42033 0
M  V30 5956 H 578.923 -0.59129 4.99513 0
M  V30 5957 H 578.623 0.971955 5.79506 0
M  V30 5958 H 580.147 0.0926538 6.1053 0
M  V30 5959 H 581.561 2.21232 5.28894 0
M  V30 5960 H 579.958 2.9983 5.19829 0
M  V30 5961 H 581.028 3.03079 3.78512 0
M  V30 5962 N 582.371 -1.3172 0.865308 0
M  V30 5963 C 583.62 -1.96145 0.470098 0
M  V30 5964 C 583.933 -1.69182 -0.981674 0
M  V30 5965 O 585.139 -2.27431 -1.48281 0
M  V30 5966 C 583.595 -3.51129 0.789732 0
M  V30 5967 C 583.203 -3.86938 2.25795 0
M  V30 5968 C 584.947 -4.2197 0.462765 0
M  V30 5969 C 582.854 -5.35012 2.52024 0
M  V30 5970 H 581.784 -0.734105 0.172065 0
M  V30 5971 H 584.435 -1.49959 1.05757 0
M  V30 5972 H 582.817 -3.95781 0.131571 0
M  V30 5973 H 583.991 -3.5326 2.95879 0
M  V30 5974 H 582.306 -3.29149 2.55049 0
M  V30 5975 H 584.903 -5.30904 0.636019 0
M  V30 5976 H 585.246 -4.12005 -0.59645 0
M  V30 5977 H 585.779 -3.82936 1.07727 0
M  V30 5978 H 582.518 -5.50008 3.56611 0
M  V30 5979 H 582.038 -5.70058 1.8653 0
M  V30 5980 H 583.717 -6.0222 2.36515 0
M  V30 5981 N 583.85 -0.624285 -1.44708 0
M  V30 5982 C 585.127 -0.0572781 -1.95516 0
M  V30 5983 C 585.507 1.41516 -1.56641 0
M  V30 5984 O 584.855 2.12614 -0.837111 0
M  V30 5985 C 585.065 -0.272944 -3.47931 0
M  V30 5986 C 586.413 -0.162529 -4.24289 0
M  V30 5987 O 587.437 -0.203946 -3.55616 0
M  V30 5988 O 586.296 -0.0616847 -5.46465 0
M  V30 5989 H 583.389 0.0262219 -0.826584 0
M  V30 5990 H 585.936 -0.695512 -1.54793 0
M  V30 5991 H 584.707 -1.29492 -3.69253 0
M  V30 5992 H 584.331 0.399756 -3.95585 0
M  V30 5993 N 585.328 1.53329 -0.364422 0
M  V30 5994 C 586.574 2.01537 0.225969 0
M  V30 5995 C 586.907 1.25128 1.48515 0
M  V30 5996 O 586.182 0.344653 1.91422 0
M  V30 5997 C 586.465 3.56339 0.519092 0
M  V30 5998 C 586.318 4.43441 -0.753639 0
M  V30 5999 C 587.637 4.19833 1.32015 0
M  V30 6000 H 584.756 0.732573 0.0806548 0
M  V30 6001 H 587.398 1.83597 -0.489084 0
M  V30 6002 H 585.548 3.71756 1.12825 0
M  V30 6003 H 587.22 4.39823 -1.39116 0
M  V30 6004 H 585.463 4.11457 -1.37424 0
M  V30 6005 H 586.134 5.49699 -0.503517 0
M  V30 6006 H 588.61 4.08242 0.804859 0
M  V30 6007 H 587.486 5.28177 1.49399 0
M  V30 6008 H 587.747 3.75821 2.32832 0
M  V30 6009 N 586.806 0.0935595 1.57322 0
M  V30 6010 C 587.736 -0.863062 2.16964 0
M  V30 6011 C 588.717 -1.29528 1.10256 0
M  V30 6012 O 589.902 -1.36245 1.38387 0
M  V30 6013 C 587.032 -2.12276 2.74875 0
M  V30 6014 C 585.986 -1.82921 3.86942 0
M  V30 6015 C 585.312 -3.15707 4.31548 0
M  V30 6016 C 586.612 -1.11737 5.10208 0
M  V30 6017 H 588.306 -0.366145 2.97153 0
M  V30 6018 H 585.852 -0.174673 1.42937 0
M  V30 6019 H 587.805 -2.79634 3.1525 0
M  V30 6020 H 586.529 -2.64248 1.91938 0
M  V30 6021 H 585.188 -1.17961 3.47103 0
M  V30 6022 H 584.836 -3.65563 3.45504 0
M  V30 6023 H 584.536 -2.96849 5.07104 0
M  V30 6024 H 586.06 -3.84226 4.74555 0
M  V30 6025 H 587.474 -1.69203 5.47762 0
M  V30 6026 H 585.871 -1.03064 5.91183 0
M  V30 6027 H 586.941 -0.0998818 4.84797 0
M  V30 6028 N 588.284 -1.56567 -0.180126 0
M  V30 6029 C 589.7 -1.50488 -0.531559 0
M  V30 6030 C 589.9 -0.796267 -1.851 0
M  V30 6031 O 588.956 -0.352978 -2.50021 0
M  V30 6032 C 590.269 -2.95201 -0.572456 0
M  V30 6033 C 591.817 -3.05957 -0.660264 0
M  V30 6034 C 592.292 -4.5211 -0.732135 0
M  V30 6035 N 593.783 -4.56322 -0.795262 0
M  V30 6036 C 594.518 -5.66742 -0.871296 0
M  V30 6037 N 594.014 -6.86815 -0.908708 0
M  V30 6038 N 595.807 -5.54691 -0.909639 0
M  V30 6039 H 587.958 -2.01045 0.685165 0
M  V30 6040 H 590.221 -0.915536 0.245962 0
M  V30 6041 H 589.927 -3.50165 0.328208 0
M  V30 6042 H 589.801 -3.49369 -1.422 0
M  V30 6043 H 592.188 -2.51032 -1.55136 0
M  V30 6044 H 592.269 -2.54888 0.215783 0
M  V30 6045 H 591.913 -5.07664 0.154664 0
M  V30 6046 H 591.843 -5.00926 -1.6242 0
M  V30 6047 H 594.334 -3.69868 -0.77499 0
M  V30 6048 H 594.647 -7.66718 -0.967654 0
M  V30 6049 H 592.992 -6.89443 -0.877132 0
M  V30 6050 H 596.183 -4.59804 -0.877353 0
M  V30 6051 H 596.356 -6.40768 -0.965434 0
M  V30 6052 N 589.762 0.448376 -1.51087 0
M  V30 6053 C 591.178 0.783984 -1.39017 0
M  V30 6054 C 591.378 1.96087 -0.463904 0
M  V30 6055 O 590.434 2.52357 0.0850534 0
M  V30 6056 C 591.747 1.07471 -2.80839 0
M  V30 6057 C 593.295 1.17981 -2.89913 0
M  V30 6058 C 593.77 1.50354 -4.32617 0
M  V30 6059 N 595.261 1.57301 -4.35673 0
M  V30 6060 C 595.996 1.839 -5.4311 0
M  V30 6061 N 595.492 2.08365 -6.60724 0
M  V30 6062 N 597.285 1.8559 -5.30578 0
M  V30 6063 H 589.436 -0.326881 -2.0987 0
M  V30 6064 H 591.699 -0.0838006 -0.944289 0
M  V30 6065 H 591.405 0.282768 -3.50561 0
M  V30 6066 H 591.279 2.00519 -3.19487 0
M  V30 6067 H 593.666 1.9624 -2.20395 0
M  V30 6068 H 593.747 0.228603 -2.54776 0
M  V30 6069 H 593.391 0.726273 -5.0268 0
M  V30 6070 H 593.321 2.46663 -4.65258 0
M  V30 6071 H 595.812 1.40342 -3.50874 0
M  V30 6072 H 596.125 2.27999 -7.38401 0
M  V30 6073 H 594.47 2.0571 -6.63859 0
M  V30 6074 H 597.661 1.65989 -4.37682 0
M  V30 6075 H 597.834 2.05983 -6.1439 0
M  V30 6076 N 591.24 1.41047 0.703093 0
M  V30 6077 C 592.15 1.44645 1.84703 0
M  V30 6078 C 593.166 0.337778 1.7069 0
M  V30 6079 O 594.342 0.584327 1.92737 0
M  V30 6080 C 591.407 1.31928 3.20618 0
M  V30 6081 C 590.468 2.53047 3.46794 0
M  V30 6082 C 589.701 2.40927 4.76224 0
M  V30 6083 O 589.924 1.42978 5.5219 0
M  V30 6084 O 588.858 3.30543 5.03016 0
M  V30 6085 H 592.684 2.41139 1.84624 0
M  V30 6086 H 590.269 1.22504 0.855167 0
M  V30 6087 H 592.151 1.27092 4.01778 0
M  V30 6088 H 590.826 0.385469 3.21397 0
M  V30 6089 H 589.733 2.6346 2.65593 0
M  V30 6090 H 591.066 3.45231 3.50822 0
M  V30 6091 N 592.718 -0.936591 1.26751 0
M  V30 6092 C 593.648 -2.05315 1.11212 0
M  V30 6093 C 594.629 -1.70092 0.0160262 0
M  V30 6094 O 595.814 -1.93279 0.188894 0
M  V30 6095 C 592.944 -3.39123 0.749171 0
M  V30 6096 C 591.898 -3.88425 1.79751 0
M  V30 6097 C 591.224 -5.18936 1.28876 0
M  V30 6098 C 592.524 -4.12798 3.19992 0
M  V30 6099 H 594.218 -2.18573 2.04613 0
M  V30 6100 H 591.764 -1.05027 0.985159 0
M  V30 6101 H 593.717 -4.16704 0.627323 0
M  V30 6102 H 592.441 -3.25855 -0.220543 0
M  V30 6103 H 591.1 -3.13028 1.90811 0
M  V30 6104 H 590.748 -5.02051 0.308757 0
M  V30 6105 H 590.448 -5.52892 1.98958 0
M  V30 6106 H 591.972 -5.99096 1.17967 0
M  V30 6107 H 593.386 -4.80977 3.11983 0
M  V30 6108 H 591.783 -4.58044 3.87705 0
M  V30 6109 H 592.853 -3.18412 3.65707 0
M  V30 6110 N 594.196 -1.08629 -1.14182 0
M  V30 6111 C 595.159 -0.722027 -2.1753 0
M  V30 6112 C 596.159 0.244305 -1.58933 0
M  V30 6113 O 597.349 0.0235545 -1.74184 0
M  V30 6114 C 594.481 -0.0663966 -3.40835 0
M  V30 6115 H 595.674 -1.63719 -2.51269 0
M  V30 6116 H 593.227 -0.884442 -1.28869 0
M  V30 6117 H 593.962 0.860389 -3.12678 0
M  V30 6118 H 593.747 -0.761598 -3.84632 0
M  V30 6119 H 595.237 0.173346 -4.1724 0
M  V30 6120 N 595.674 1.31259 -0.872281 0
M  V30 6121 C 596.604 2.30929 -0.345554 0
M  V30 6122 C 597.585 1.60449 0.5648 0
M  V30 6123 O 598.77 1.8814 0.481335 0
M  V30 6124 C 595.9 3.44348 0.451823 0
M  V30 6125 C 594.854 4.26435 -0.365641 0
M  V30 6126 C 594.18 5.31785 0.557562 0
M  V30 6127 C 595.48 4.97159 -1.60095 0
M  V30 6128 H 597.174 2.75234 -1.17841 0
M  V30 6129 H 594.72 1.3232 -0.568094 0
M  V30 6130 H 596.673 4.13128 0.830854 0
M  V30 6131 H 595.397 2.98816 1.31821 0
M  V30 6132 H 594.056 3.59326 -0.726649 0
M  V30 6133 H 593.704 4.82502 1.4213 0
M  V30 6134 H 593.404 5.87598 0.0144878 0
M  V30 6135 H 594.928 6.03424 0.933387 0
M  V30 6136 H 596.342 5.58523 -1.29323 0
M  V30 6137 H 594.739 5.62779 -2.08327 0
M  V30 6138 H 595.809 4.24012 -2.35249 0
M  V30 6139 N 597.152 0.631951 1.44375 0
M  V30 6140 C 598.062 -0.073674 2.34484 0
M  V30 6141 C 599.078 -0.834825 1.52665 0
M  V30 6142 O 600.254 -0.786902 1.85391 0
M  V30 6143 C 597.319 -1.04247 3.30656 0
M  V30 6144 C 596.38 -0.280602 4.28382 0
M  V30 6145 C 595.613 -1.20325 5.19959 0
M  V30 6146 O 595.836 -2.44199 5.15484 0
M  V30 6147 O 594.77 -0.687128 5.97965 0
M  V30 6148 H 598.596 0.667477 2.96274 0
M  V30 6149 H 596.181 0.392144 1.44162 0
M  V30 6150 H 598.063 -1.59981 3.89851 0
M  V30 6151 H 596.738 -1.76422 2.71398 0
M  V30 6152 H 595.645 0.319804 3.72731 0
M  V30 6153 H 596.978 0.401144 4.90563 0
M  V30 6154 N 598.631 -1.53133 0.372548 0
M  V30 6155 C 599.871 -2.03267 -0.214943 0
M  V30 6156 C 600.235 -1.25362 -1.45425 0
M  V30 6157 O 601.436 -1.65536 -2.11781 0
M  V30 6158 C 599.707 -3.53985 -0.492897 0
M  V30 6159 S 601.266 -4.25977 -1.05307 0
M  V30 6160 H 598.084 -0.708289 -0.062029 0
M  V30 6161 H 600.686 -1.88539 0.517025 0
M  V30 6162 H 599.39 -4.08282 0.416442 0
M  V30 6163 H 598.921 -3.72887 -1.25375 0
M  V30 6164 H 600.936 -4.37731 -2.33679 0
M  V30 6165 N 600.109 -0.101901 -1.5727 0
M  V30 6166 C 601.386 0.602832 -1.86079 0
M  V30 6167 C 601.766 1.85912 -1 0
M  V30 6168 O 601.114 2.28379 -0.0742488 0
M  V30 6169 C 601.324 0.911694 -3.36881 0
M  V30 6170 C 602.672 1.2722 -4.05093 0
M  V30 6171 O 603.696 1.0025 -3.41802 0
M  V30 6172 O 602.555 1.7776 -5.16782 0
M  V30 6173 H 599.649 0.302366 -0.769743 0
M  V30 6174 H 602.195 -0.135113 -1.69161 0
M  V30 6175 H 600.967 0.0207256 -3.91295 0
M  V30 6176 H 600.59 1.70538 -3.59169 0
M  V30 6177 N 601.587 1.56661 0.17182 0
M  V30 6178 C 602.817 1.85831 0.902804 0
M  V30 6179 C 603.225 0.685157 1.76358 0
M  V30 6180 O 602.568 -0.354947 1.80238 0
M  V30 6181 C 602.63 3.09406 1.83053 0
M  V30 6182 C 602.294 4.4231 1.1494 0
M  V30 6183 C 603.291 5.17342 0.515104 0
M  V30 6184 C 600.976 4.89045 1.14631 0
M  V30 6185 C 602.97 6.37299 -0.113194 0
M  V30 6186 C 600.657 6.08933 0.514184 0
M  V30 6187 C 601.655 6.82904 -0.114463 0
M  V30 6188 O 601.343 8.00518 -0.736622 0
M  V30 6189 H 601.075 0.620715 0.267748 0
M  V30 6190 H 603.629 2.04637 0.176918 0
M  V30 6191 H 601.859 2.86544 2.59672 0
M  V30 6192 H 603.548 3.25027 2.4313 0
M  V30 6193 H 604.314 4.82317 0.509474 0
M  V30 6194 H 600.193 4.31409 1.62502 0
M  V30 6195 H 603.737 6.94976 -0.604477 0
M  V30 6196 H 599.634 6.43423 0.517395 0
M  V30 6197 H 600.402 8.16027 -0.635822 0
M  V30 6198 N 603.065 -0.440357 1.51323 0
M  V30 6199 C 603.997 -1.55254 1.68609 0
M  V30 6200 C 605.01 -1.52614 0.566812 0
M  V30 6201 O 606.199 -1.57445 0.841032 0
M  V30 6202 C 603.299 -2.94169 1.68279 0
M  V30 6203 C 602.472 -3.21346 2.96742 0
M  V30 6204 C 601.531 -4.3997 2.8864 0
M  V30 6205 O 600.557 -4.38771 3.62586 0
M  V30 6206 N 601.759 -5.43367 2.04285 0
M  V30 6207 H 604.524 -1.40831 2.6455 0
M  V30 6208 H 602.085 -0.629251 1.49171 0
M  V30 6209 H 604.077 -3.71543 1.60431 0
M  V30 6210 H 602.647 -3.02205 0.799441 0
M  V30 6211 H 601.867 -2.32299 3.18482 0
M  V30 6212 H 603.155 -3.3633 3.81785 0
M  V30 6213 H 602.553 -5.47176 1.43578 0
M  V30 6214 H 601.11 -6.19605 2.02318 0
M  V30 6215 N 604.543 -1.41418 -0.695603 0
M  V30 6216 C 605.959 -1.23887 -1.00619 0
M  V30 6217 C 606.159 -0.128206 -2.01092 0
M  V30 6218 O 605.215 0.507408 -2.47349 0
M  V30 6219 C 606.528 -2.58816 -1.53083 0
M  V30 6220 C 608.076 -2.65998 -1.64967 0
M  V30 6221 C 608.551 -4.01244 -2.20833 0
M  V30 6222 N 610.042 -4.0309 -2.28194 0
M  V30 6223 C 610.777 -5.04539 -2.72448 0
M  V30 6224 N 610.273 -6.16378 -3.16306 0
M  V30 6225 N 612.066 -4.91901 -2.72011 0
M  V30 6226 H 604.217 -2.12379 -0.0300061 0
M  V30 6227 H 606.48 -0.944958 -0.0758797 0
M  V30 6228 H 606.186 -3.40842 -0.867147 0
M  V30 6229 H 606.06 -2.81299 -2.51298 0
M  V30 6230 H 608.447 -1.84331 -2.30448 0
M  V30 6231 H 608.528 -2.47325 -0.652982 0
M  V30 6232 H 608.172 -4.83359 -1.55968 0
M  V30 6233 H 608.102 -4.17257 -3.21254 0
M  V30 6234 H 610.593 -3.22341 -1.97242 0
M  V30 6235 H 610.906 -6.89658 -3.487 0
M  V30 6236 H 609.251 -6.19914 -3.14215 0
M  V30 6237 H 612.442 -4.03613 -2.37095 0
M  V30 6238 H 612.615 -5.71102 -3.06181 0
M  V30 6239 N 606.021 0.929856 -1.27246 0
M  V30 6240 C 606.931 2.0636 -1.11592 0
M  V30 6241 C 607.947 1.73938 -0.046496 0
M  V30 6242 O 609.123 1.9981 -0.252544 0
M  V30 6243 C 606.188 3.38213 -0.762437 0
M  V30 6244 C 605.249 3.84346 -1.9125 0
M  V30 6245 C 604.482 5.09906 -1.57579 0
M  V30 6246 O 604.705 5.68354 -0.482694 0
M  V30 6247 O 603.639 5.51359 -2.41426 0
M  V30 6248 H 607.465 2.22478 -2.0673 0
M  V30 6249 H 605.05 1.04865 -1.06413 0
M  V30 6250 H 606.932 4.1741 -0.57854 0
M  V30 6251 H 605.607 3.23307 0.159439 0
M  V30 6252 H 604.514 3.06045 -2.15144 0
M  V30 6253 H 605.847 4.0379 -2.81451 0
M  V30 6254 N 607.499 1.09233 1.13605 0
M  V30 6255 C 608.462 0.733553 2.17144 0
M  V30 6256 C 609.462 -0.235873 1.59061 0
M  V30 6257 O 610.652 -0.0143167 1.74194 0
M  V30 6258 C 607.784 0.084471 3.40795 0
M  V30 6259 H 608.977 1.65049 2.50397 0
M  V30 6260 H 606.53 0.891264 1.28399 0
M  V30 6261 H 607.265 -0.843795 3.1313 0
M  V30 6262 H 607.05 0.781985 3.84223 0
M  V30 6263 H 608.54 -0.151216 4.17326 0
M  V30 6264 N 608.977 -1.30795 0.87923 0
M  V30 6265 C 609.94 -2.26563 0.346676 0
M  V30 6266 C 610.94 -1.52578 -0.507597 0
M  V30 6267 O 612.13 -1.71318 -0.315575 0
M  V30 6268 C 609.262 -3.37115 -0.506611 0
M  V30 6269 H 610.455 -2.75183 1.19223 0
M  V30 6270 H 608.008 -1.41886 0.655598 0
M  V30 6271 H 608.743 -2.93802 -1.37299 0
M  V30 6272 H 608.528 -3.91959 0.105218 0
M  V30 6273 H 610.018 -4.08412 -0.871192 0
M  V30 6274 N 610.455 -0.639598 -1.44038 0
M  V30 6275 C 611.695 -0.150902 -2.03842 0
M  V30 6276 C 612.059 1.20744 -1.49281 0
M  V30 6277 O 613.26 1.78875 -2.00642 0
M  V30 6278 C 611.531 -0.146114 -3.57101 0
M  V30 6279 S 613.09 0.276725 -4.37927 0
M  V30 6280 H 609.908 -0.0652447 -0.708 0
M  V30 6281 H 612.51 -0.844886 -1.76301 0
M  V30 6282 H 611.214 -1.13769 -3.94316 0
M  V30 6283 H 610.745 0.568846 -3.89266 0
M  V30 6284 H 612.76 1.51893 -4.7238 0
M  V30 6285 N 611.933 1.52934 -0.380664 0
M  V30 6286 C 612.896 2.24809 0.446473 0
M  V30 6287 C 613.896 1.26133 0.997347 0
M  V30 6288 O 615.086 1.50297 0.880714 0
M  V30 6289 C 612.218 2.99649 1.62553 0
M  V30 6290 H 613.411 2.99343 -0.182677 0
M  V30 6291 H 610.964 1.55736 -0.132618 0
M  V30 6292 H 611.699 2.29395 2.29235 0
M  V30 6293 H 611.484 3.72066 1.23732 0
M  V30 6294 H 612.974 3.54246 2.21133 0
M  V30 6295 N 613.412 0.11024 1.57214 0
M  V30 6296 C 614.828 -0.24638 1.57687 0
M  V30 6297 C 615.028 -1.67344 1.12241 0
M  V30 6298 O 614.084 -2.39298 0.805783 0
M  V30 6299 C 615.397 -0.0210288 3.00693 0
M  V30 6300 C 616.945 -0.0876077 3.12877 0
M  V30 6301 C 617.42 0.10994 4.57868 0
M  V30 6302 N 618.911 0.0556135 4.63167 0
M  V30 6303 C 619.646 0.183495 5.73106 0
M  V30 6304 N 619.142 0.367058 6.91827 0
M  V30 6305 N 620.935 0.123689 5.61964 0
M  V30 6306 H 613.086 1.04246 1.85058 0
M  V30 6307 H 615.349 0.40979 0.854854 0
M  V30 6308 H 615.055 0.965203 3.38196 0
M  V30 6309 H 614.929 -0.756748 3.69531 0
M  V30 6310 H 617.316 -1.06436 2.75237 0
M  V30 6311 H 617.397 0.67985 2.466 0
M  V30 6312 H 617.041 1.08362 4.96206 0
M  V30 6313 H 616.971 -0.677397 5.22225 0
M  V30 6314 H 619.462 -0.0831062 3.77809 0
M  V30 6315 H 619.775 0.455739 7.71455 0
M  V30 6316 H 618.12 0.40292 6.93831 0
M  V30 6317 H 621.311 -0.0186928 4.68096 0
M  V30 6318 H 621.484 0.226797 6.47603 0
M  V30 6319 N 614.89 -1.56749 -0.16351 0
M  V30 6320 C 615.837 -1.97011 -1.2023 0
M  V30 6321 C 616.807 -0.835186 -1.43575 0
M  V30 6322 O 617.992 -1.09594 -1.56185 0
M  V30 6323 C 615.132 -2.34186 -2.53478 0
M  V30 6324 C 614.245 -3.60893 -2.37446 0
M  V30 6325 C 613.38 -3.87245 -3.63614 0
M  V30 6326 C 612.419 -5.07274 -3.42548 0
M  V30 6327 N 611.556 -5.29719 -4.60806 0
M  V30 6328 H 616.396 -2.85562 -0.851958 0
M  V30 6329 H 613.933 -1.41292 -0.409257 0
M  V30 6330 H 615.891 -2.53764 -3.31149 0
M  V30 6331 H 614.521 -1.48736 -2.86492 0
M  V30 6332 H 613.573 -3.49185 -1.50911 0
M  V30 6333 H 614.885 -4.48722 -2.1783 0
M  V30 6334 H 614.039 -4.07232 -4.49719 0
M  V30 6335 H 612.778 -2.97806 -3.86216 0
M  V30 6336 H 611.783 -4.87177 -2.5483 0
M  V30 6337 H 613.008 -5.98251 -3.2136 0
M  V30 6338 H 610.954 -4.43233 -4.83612 0
M  V30 6339 H 610.871 -6.11786 -4.44132 0
M  V30 6340 H 612.139 -5.54192 -5.48171 0
M  V30 6341 N 616.368 0.432326 -1.51554 0
M  V30 6342 C 617.615 1.18134 -1.64471 0
M  V30 6343 C 617.943 1.91076 -0.363349 0
M  V30 6344 O 617.198 1.84492 0.65279 0
M  V30 6345 C 617.497 2.21907 -2.80164 0
M  V30 6346 C 617.163 1.65941 -4.19255 0
M  V30 6347 C 615.825 1.50401 -4.57092 0
M  V30 6348 C 618.177 1.24843 -5.06027 0
M  V30 6349 C 615.505 0.922443 -5.79403 0
M  V30 6350 C 617.857 0.68113 -6.28922 0
M  V30 6351 C 616.521 0.512673 -6.65528 0
M  V30 6352 H 615.791 0.432283 -0.601841 0
M  V30 6353 H 618.438 0.471701 -1.856 0
M  V30 6354 H 616.743 2.98928 -2.53277 0
M  V30 6355 H 618.44 2.79691 -2.87357 0
M  V30 6356 H 615.03 1.79014 -3.89425 0
M  V30 6357 H 619.214 1.35667 -4.77397 0
M  V30 6358 H 614.47 0.779733 -6.06408 0
M  V30 6359 H 618.644 0.35418 -6.95499 0
M  V30 6360 H 616.271 0.0599084 -7.60176 0
M  V30 6361 N 617.846 1.41785 0.688094 0
M  V30 6362 C 619.262 1.24419 0.999608 0
M  V30 6363 C 619.462 0.138868 2.01021 0
M  V30 6364 O 618.518 -0.494283 2.47615 0
M  V30 6365 C 619.831 2.59625 1.51709 0
M  V30 6366 C 621.379 2.66869 1.63554 0
M  V30 6367 C 621.854 4.0241 2.18702 0
M  V30 6368 N 623.345 4.04295 2.26053 0
M  V30 6369 C 624.08 5.05977 2.69768 0
M  V30 6370 N 623.576 6.18047 3.13033 0
M  V30 6371 N 625.369 4.93336 2.69398 0
M  V30 6372 H 617.52 2.12392 0.0187427 0
M  V30 6373 H 619.783 0.945347 0.0708673 0
M  V30 6374 H 619.489 3.41297 0.849059 0
M  V30 6375 H 619.363 2.82628 2.49803 0
M  V30 6376 H 621.75 1.8555 2.29467 0
M  V30 6377 H 621.831 2.47668 0.639857 0
M  V30 6378 H 621.475 4.8418 1.53402 0
M  V30 6379 H 621.405 4.18955 3.19037 0
M  V30 6380 H 623.896 3.23383 1.9553 0
M  V30 6381 H 624.209 6.91498 3.45038 0
M  V30 6382 H 622.554 6.21572 3.10923 0
M  V30 6383 H 625.745 4.04865 2.34952 0
M  V30 6384 H 625.918 5.72717 3.03148 0
M  V30 6385 N 619.324 -0.923095 1.27737 0
M  V30 6386 C 620.601 -1.64989 1.05062 0
M  V30 6387 C 620.981 -2.07018 -0.413124 0
M  V30 6388 O 620.329 -1.80797 -1.39731 0
M  V30 6389 C 620.539 -2.84847 2.01652 0
M  V30 6390 C 621.887 -3.56083 2.31279 0
M  V30 6391 O 622.911 -2.94981 1.99662 0
M  V30 6392 O 621.77 -4.66182 2.85196 0
M  V30 6393 H 618.864 -0.723357 0.400853 0
M  V30 6394 H 621.41 -0.973224 1.3902 0
M  V30 6395 H 620.182 -2.50814 3.00347 0
M  V30 6396 H 619.805 -3.60231 1.68284 0
M  V30 6397 N 620.802 -1.09834 -1.13024 0
M  V30 6398 C 621.732 -0.763451 -2.20666 0
M  V30 6399 C 622.713 0.260778 -1.68089 0
M  V30 6400 O 623.898 0.127915 -1.93778 0
M  V30 6401 C 621.028 -0.187744 -3.46792 0
M  V30 6402 C 619.982 -1.14196 -4.12484 0
M  V30 6403 C 619.308 -0.427755 -5.32986 0
M  V30 6404 C 620.608 -2.48607 -4.59338 0
M  V30 6405 H 622.302 -1.66347 -2.48936 0
M  V30 6406 H 619.848 -0.801261 -1.19649 0
M  V30 6407 H 621.801 0.0586375 -4.21359 0
M  V30 6408 H 620.525 0.747485 -3.17931 0
M  V30 6409 H 619.184 -1.37369 -3.3989 0
M  V30 6410 H 618.832 0.511747 -5.0039 0
M  V30 6411 H 618.532 -1.06403 -5.77886 0
M  V30 6412 H 620.056 -0.189772 -6.10305 0
M  V30 6413 H 621.47 -2.29618 -5.25308 0
M  V30 6414 H 619.867 -3.08062 -5.14993 0
M  V30 6415 H 620.937 -3.09062 -3.73642 0
M  V30 6416 N 622.28 1.30327 -0.886154 0
M  V30 6417 C 623.21 2.30549 -0.370028 0
M  V30 6418 C 624.191 1.61039 0.547751 0
M  V30 6419 O 625.376 1.8864 0.461353 0
M  V30 6420 C 622.506 3.44808 0.415275 0
M  V30 6421 C 621.46 4.26024 -0.41085 0
M  V30 6422 C 620.786 5.32347 0.501128 0
M  V30 6423 C 622.086 4.95433 -1.65359 0
M  V30 6424 H 623.78 2.73969 -1.20754 0
M  V30 6425 H 621.326 1.3171 -0.582097 0
M  V30 6426 H 623.279 4.13986 0.78699 0
M  V30 6427 H 622.003 3.00197 1.28644 0
M  V30 6428 H 620.662 3.58535 -0.764719 0
M  V30 6429 H 620.31 4.83982 1.37004 0
M  V30 6430 H 620.01 5.87581 -0.0478356 0
M  V30 6431 H 621.534 6.0438 0.869333 0
M  V30 6432 H 622.948 5.5712 -1.35239 0
M  V30 6433 H 621.345 5.60537 -2.14284 0
M  V30 6434 H 622.415 4.21493 -2.39733 0
M  V30 6435 N 623.758 0.647228 1.43697 0
M  V30 6436 C 624.705 -0.0480092 2.3075 0
M  V30 6437 C 625.675 -0.820705 1.44408 0
M  V30 6438 O 626.86 -0.798515 1.73287 0
M  V30 6439 C 624 -1.01259 3.2991 0
M  V30 6440 C 623.113 -0.236629 4.31351 0
M  V30 6441 C 622.248 -1.19447 5.17596 0
M  V30 6442 C 621.287 -0.408595 6.10735 0
M  V30 6443 N 620.424 -1.31772 6.89623 0
M  V30 6444 H 625.264 0.700238 2.89656 0
M  V30 6445 H 622.801 0.357082 1.427 0
M  V30 6446 H 624.759 -1.58538 3.85903 0
M  V30 6447 H 623.389 -1.72778 2.72667 0
M  V30 6448 H 622.441 0.452353 3.77701 0
M  V30 6449 H 623.753 0.374731 4.9739 0
M  V30 6450 H 622.907 -1.83809 5.78186 0
M  V30 6451 H 621.646 -1.83975 4.51669 0
M  V30 6452 H 620.651 0.24841 5.49239 0
M  V30 6453 H 621.876 0.232188 6.78703 0
M  V30 6454 H 619.822 -1.94991 6.2635 0
M  V30 6455 H 619.739 -0.760779 7.52162 0
M  V30 6456 H 621.007 -1.94967 7.54724 0
M  V30 6457 N 625.236 -1.5273 0.388769 0
M  V30 6458 C 626.484 -2.01174 -0.193208 0
M  V30 6459 C 626.805 -1.27705 -1.47365 0
M  V30 6460 O 626.075 -0.396966 -1.91836 0
M  V30 6461 H 624.655 -0.743287 -0.0743871 0
M  V30 6462 H 627.317 -1.87826 0.520336 0
M  V30 6463 H 626.413 -3.09477 -0.403803 0
M  V30 6464 N 626.714 -0.118576 -1.57153 0
M  V30 6465 C 627.664 0.842924 -2.11846 0
M  V30 6466 C 628.648 1.22845 -1.03914 0
M  V30 6467 O 629.84 1.19961 -1.30148 0
M  V30 6468 C 626.969 2.09312 -2.72109 0
M  V30 6469 C 626.055 1.73198 -3.87122 0
M  V30 6470 N 626.446 1.07758 -4.94188 0
M  V30 6471 C 624.744 2.02659 -3.97298 0
M  V30 6472 C 625.445 0.907741 -5.74574 0
M  V30 6473 N 624.421 1.4326 -5.24383 0
M  V30 6474 H 628.223 0.333416 -2.92003 0
M  V30 6475 H 625.737 0.0839073 -1.62183 0
M  V30 6476 H 627.734 2.79162 -3.09635 0
M  V30 6477 H 626.394 2.60807 -1.93416 0
M  V30 6478 H 627.405 0.741613 -5.12563 0
M  V30 6479 H 624.082 2.56204 -3.29645 0
M  V30 6480 H 625.472 0.394112 -6.70743 0
M  V30 6481 N 628.193 1.56834 0.155195 0
M  V30 6482 C 629.604 1.72421 0.716082 0
M  V30 6483 C 629.955 0.731685 1.82046 0
M  V30 6484 O 629.08 -0.103481 2.16152 0
M  V30 6485 C 629.675 3.12629 1.30571 0
M  V30 6486 C 628.234 3.29846 1.81325 0
M  V30 6487 C 627.381 2.68359 0.698494 0
M  V30 6488 H 630.332 1.58544 -0.0703861 0
M  V30 6489 H 630.353 3.12174 2.1755 0
M  V30 6490 H 629.865 3.84844 0.501701 0
M  V30 6491 H 627.966 2.62614 2.64319 0
M  V30 6492 H 628.079 4.37727 1.9476 0
M  V30 6493 H 626.443 2.28604 1.12305 0
M  V30 6494 H 627.226 3.43171 -0.0939366 0
M  V30 6495 N 629.671 -0.424282 1.51781 0
M  V30 6496 C 630.918 -1.1726 1.65095 0
M  V30 6497 C 631.246 -1.90881 0.373477 0
M  V30 6498 O 630.501 -1.84835 -0.642997 0
M  V30 6499 C 630.8 -2.20418 2.81337 0
M  V30 6500 C 630.466 -1.63715 4.20129 0
M  V30 6501 C 629.128 -1.47975 4.57883 0
M  V30 6502 C 631.48 -1.22157 5.06682 0
M  V30 6503 C 628.808 -0.891703 5.79884 0
M  V30 6504 C 631.16 -0.647767 6.29275 0
M  V30 6505 C 629.824 -0.477371 6.65791 0
M  V30 6506 H 629.094 -0.429085 0.604125 0
M  V30 6507 H 631.741 -0.461852 1.85847 0
M  V30 6508 H 630.046 -2.97581 2.54859 0
M  V30 6509 H 631.743 -2.78163 2.88836 0
M  V30 6510 H 628.333 -1.76946 3.90369 0
M  V30 6511 H 632.517 -1.33133 4.7811 0
M  V30 6512 H 627.773 -0.747563 6.06813 0
M  V30 6513 H 631.947 -0.317291 6.95677 0
M  V30 6514 H 629.574 -0.0195936 7.60197 0
M  V30 6515 N 631.149 -1.42148 -0.680565 0
M  V30 6516 C 632.396 -1.4231 -1.44063 0
M  V30 6517 C 632.724 -0.037488 -1.94464 0
M  V30 6518 O 631.979 0.953184 -1.70918 0
M  V30 6519 C 632.278 -2.38945 -2.65782 0
M  V30 6520 C 631.944 -3.85455 -2.33956 0
M  V30 6521 C 630.606 -4.25364 -2.24987 0
M  V30 6522 C 632.958 -4.77895 -2.08004 0
M  V30 6523 C 630.286 -5.55701 -1.88184 0
M  V30 6524 C 632.638 -6.08568 -1.72706 0
M  V30 6525 C 631.302 -6.47482 -1.62244 0
M  V30 6526 H 630.572 -0.520748 -0.527164 0
M  V30 6527 H 633.219 -1.7505 -0.776524 0
M  V30 6528 H 631.524 -1.99511 -3.37198 0
M  V30 6529 H 633.221 -2.36336 -3.23954 0
M  V30 6530 H 629.811 -3.53855 -2.41836 0
M  V30 6531 H 633.995 -4.47854 -2.1387 0
M  V30 6532 H 629.251 -5.84718 -1.78648 0
M  V30 6533 H 633.425 -6.79688 -1.5165 0
M  V30 6534 H 631.052 -7.48387 -1.33496 0
M  V30 6535 N 632.627 0.916307 -1.28225 0
M  V30 6536 C 633.857 1.69654 -1.17902 0
M  V30 6537 C 634.265 1.87331 0.265268 0
M  V30 6538 O 633.608 1.39828 1.19137 0
M  V30 6539 C 633.67 3.11024 -1.80289 0
M  V30 6540 C 633.334 3.16643 -3.29525 0
M  V30 6541 C 634.331 2.98032 -4.25997 0
M  V30 6542 C 632.016 3.39238 -3.70436 0
M  V30 6543 C 634.01 3.01924 -5.61356 0
M  V30 6544 C 631.697 3.42762 -5.05922 0
M  V30 6545 C 632.695 3.24125 -6.01192 0
M  V30 6546 O 632.383 3.27406 -7.34208 0
M  V30 6547 H 632.115 0.537197 -0.41036 0
M  V30 6548 H 634.669 1.15547 -1.69817 0
M  V30 6549 H 632.899 3.66662 -1.22865 0
M  V30 6550 H 634.588 3.71063 -1.6452 0
M  V30 6551 H 635.354 2.80405 -3.95725 0
M  V30 6552 H 631.233 3.52791 -2.96749 0
M  V30 6553 H 634.777 2.87295 -6.35694 0
M  V30 6554 H 630.674 3.59916 -5.35846 0
M  V30 6555 H 631.442 3.43784 -7.42802 0
M  V30 6556 N 634.105 1.10431 1.1244 0
M  V30 6557 C 635.351 0.847972 1.84221 0
M  V30 6558 C 635.684 -0.624903 1.83871 0
M  V30 6559 O 634.959 -1.46074 1.28423 0
M  V30 6560 C 635.242 1.39695 3.319 0
M  V30 6561 C 635.095 2.93668 3.40704 0
M  V30 6562 C 636.414 1.03924 4.27654 0
M  V30 6563 H 633.533 0.309502 0.668863 0
M  V30 6564 H 636.175 1.36745 1.31912 0
M  V30 6565 H 634.325 0.955095 3.76577 0
M  V30 6566 H 635.997 3.46379 3.04662 0
M  V30 6567 H 634.24 3.30272 2.81252 0
M  V30 6568 H 634.911 3.27162 4.446 0
M  V30 6569 H 637.387 1.42049 3.91102 0
M  V30 6570 H 636.263 1.45027 5.29394 0
M  V30 6571 H 636.524 -0.051336 4.4207 0
M  V30 6572 N 635.583 -1.29855 0.893053 0
M  V30 6573 C 636.994 -1.77946 0.564998 0
M  V30 6574 C 637.345 -1.73339 -0.919134 0
M  V30 6575 O 636.47 -1.3152 -1.71847 0
M  V30 6576 C 637.065 -3.23118 1.01883 0
M  V30 6577 C 635.624 -3.69013 0.742051 0
M  V30 6578 C 634.771 -2.50121 1.19727 0
M  V30 6579 H 637.722 -1.16611 1.07646 0
M  V30 6580 H 637.743 -3.78875 0.351249 0
M  V30 6581 H 637.255 -3.26439 2.09903 0
M  V30 6582 H 635.356 -3.71173 -0.325816 0
M  V30 6583 H 635.469 -4.60117 1.33527 0
M  V30 6584 H 633.833 -2.47128 0.616418 0
M  V30 6585 H 634.616 -2.56174 2.28538 0
M  V30 6586 N 637.061 -0.65484 -1.43351 0
M  V30 6587 C 637.971 0.0363603 -2.34572 0
M  V30 6588 C 638.987 0.810432 -1.53974 0
M  V30 6589 O 640.163 0.757308 -1.86619 0
M  V30 6590 C 637.228 0.989733 -3.32273 0
M  V30 6591 C 636.289 0.212414 -4.28774 0
M  V30 6592 C 635.522 1.12038 -5.21808 0
M  V30 6593 O 635.745 2.35967 -5.19303 0
M  V30 6594 O 634.679 0.59191 -5.98982 0
M  V30 6595 H 638.505 -0.714527 -2.95175 0
M  V30 6596 H 636.09 -0.415029 -1.4352 0
M  V30 6597 H 637.972 1.53759 -3.92347 0
M  V30 6598 H 636.647 1.72082 -2.74171 0
M  V30 6599 H 635.554 -0.379062 -3.72175 0
M  V30 6600 H 636.887 -0.479138 -4.89862 0
M  V30 6601 N 638.539 1.52521 -0.396863 0
M  V30 6602 C 639.788 2.00857 0.184184 0
M  V30 6603 C 640.101 1.28733 1.47265 0
M  V30 6604 O 641.307 1.67821 2.13421 0
M  V30 6605 C 639.763 3.57901 0.378787 0
M  V30 6606 C 639.371 4.38931 -0.896873 0
M  V30 6607 C 641.115 4.14504 0.915789 0
M  V30 6608 C 639.022 5.87591 -0.670133 0
M  V30 6609 H 637.952 0.750496 0.0726055 0
M  V30 6610 H 640.603 1.75965 -0.520425 0
M  V30 6611 H 638.985 3.79072 1.14543 0
M  V30 6612 H 640.159 4.29524 -1.66872 0
M  V30 6613 H 638.474 3.93586 -1.35938 0
M  V30 6614 H 641.071 5.23236 1.10126 0
M  V30 6615 H 641.414 3.71076 1.88701 0
M  V30 6616 H 641.947 3.97253 0.208523 0
M  V30 6617 H 638.686 6.35355 -1.61257 0
M  V30 6618 H 638.206 5.99767 0.0626368 0
M  V30 6619 H 639.885 6.46268 -0.307577 0
M  V30 6620 N 640.017 0.126909 1.57088 0
M  V30 6621 C 641.263 -0.529952 1.95753 0
M  V30 6622 C 641.596 -1.65823 1.01077 0
M  V30 6623 O 640.871 -1.94437 0.0494162 0
M  V30 6624 C 641.154 -1.05517 3.44294 0
M  V30 6625 C 641.007 0.0702253 4.49745 0
M  V30 6626 C 642.326 -1.9435 3.94862 0
M  V30 6627 H 639.445 -0.191168 0.711775 0
M  V30 6628 H 642.087 0.204071 1.88901 0
M  V30 6629 H 640.237 -1.68069 3.50264 0
M  V30 6630 H 641.909 0.705834 4.55868 0
M  V30 6631 H 640.152 0.732259 4.27575 0
M  V30 6632 H 640.823 -0.338642 5.5096 0
M  V30 6633 H 643.299 -1.41658 3.91244 0
M  V30 6634 H 642.175 -2.28015 4.993 0
M  V30 6635 H 642.436 -2.87299 3.36024 0
M  V30 6636 N 641.495 -1.56914 -0.146875 0
M  V30 6637 C 642.772 -1.74273 -0.888165 0
M  V30 6638 C 643.152 -0.69496 -1.99333 0
M  V30 6639 O 642.5 0.286093 -2.26702 0
M  V30 6640 C 642.71 -3.18336 -1.43051 0
M  V30 6641 C 644.058 -3.80024 -1.89387 0
M  V30 6642 O 645.082 -3.21765 -1.52792 0
M  V30 6643 O 643.941 -4.82367 -2.56874 0
M  V30 6644 H 641.035 -0.712565 -0.419738 0
M  V30 6645 H 643.581 -1.6918 -0.132791 0
M  V30 6646 H 642.353 -3.86092 -0.636274 0
M  V30 6647 H 641.976 -3.27854 -2.24938 0
M  V30 6648 N 642.974 0.416227 -1.52004 0
M  V30 6649 C 643.884 1.53147 -1.77717 0
M  V30 6650 C 644.9 1.609 -0.662368 0
M  V30 6651 O 646.076 1.77747 -0.946991 0
M  V30 6652 C 643.141 2.88948 -1.91598 0
M  V30 6653 C 642.202 2.9114 -3.15493 0
M  V30 6654 C 641.435 4.20464 -3.28703 0
M  V30 6655 O 641.658 5.13981 -2.47345 0
M  V30 6656 O 640.592 4.29368 -4.21813 0
M  V30 6657 H 644.418 1.34357 -2.72363 0
M  V30 6658 H 642.003 0.601373 -1.36762 0
M  V30 6659 H 643.885 3.69505 -2.02593 0
M  V30 6660 H 642.56 3.07821 -1.00141 0
M  V30 6661 H 641.467 2.09461 -3.09962 0
M  V30 6662 H 642.8 2.77216 -4.06709 0
M  V30 6663 N 644.452 1.42507 0.673017 0
M  V30 6664 C 645.382 1.48916 1.79851 0
M  V30 6665 C 646.363 0.345566 1.66553 0
M  V30 6666 O 647.548 0.560116 1.85947 0
M  V30 6667 C 644.678 1.39258 3.18158 0
M  V30 6668 C 643.632 2.51662 3.46194 0
M  V30 6669 C 642.958 2.27062 4.84094 0
M  V30 6670 C 644.258 3.93968 3.42909 0
M  V30 6671 H 645.952 2.43114 1.74745 0
M  V30 6672 H 643.498 1.17013 0.839288 0
M  V30 6673 H 645.451 1.42349 3.96629 0
M  V30 6674 H 644.175 0.415542 3.23946 0
M  V30 6675 H 642.834 2.47891 2.70084 0
M  V30 6676 H 642.482 1.27648 4.86534 0
M  V30 6677 H 642.182 3.02398 5.03815 0
M  V30 6678 H 643.706 2.31905 5.64847 0
M  V30 6679 H 645.12 3.99332 4.11347 0
M  V30 6680 H 643.517 4.6917 3.74165 0
M  V30 6681 H 644.587 4.20512 2.41449 0
M  V30 6682 N 645.93 -0.909495 1.28709 0
M  V30 6683 C 647.17 -1.67344 1.17368 0
M  V30 6684 C 647.534 -1.90058 -0.272419 0
M  V30 6685 O 648.735 -2.63944 -0.508617 0
M  V30 6686 C 647.006 -2.99219 1.95455 0
M  V30 6687 S 648.565 -3.90295 2.00538 0
M  V30 6688 H 645.383 -0.57466 0.418672 0
M  V30 6689 H 647.985 -1.08144 1.62865 0
M  V30 6690 H 646.689 -2.80393 2.9968 0
M  V30 6691 H 646.22 -3.63464 1.50524 0
M  V30 6692 H 648.235 -4.83511 1.11496 0
M  V30 6693 N 647.408 -1.11026 -1.11852 0
M  V30 6694 C 648.633 -0.879064 -1.87849 0
M  V30 6695 C 649.058 0.565406 -1.79401 0
M  V30 6696 O 648.416 1.39886 -1.15333 0
M  V30 6697 C 648.464 -1.33985 -3.34784 0
M  V30 6698 O 647.568 -0.508803 -4.09249 0
M  V30 6699 H 646.909 -0.316992 -0.583448 0
M  V30 6700 H 649.439 -1.47863 -1.41413 0
M  V30 6701 H 649.449 -1.33248 -3.85628 0
M  V30 6702 H 648.124 -2.39172 -3.40249 0
M  V30 6703 H 646.701 -0.581913 -3.68332 0
M  V30 6704 N 648.886 1.2938 -0.899927 0
M  V30 6705 C 650.297 1.77644 -0.574427 0
M  V30 6706 C 650.648 1.73824 0.909928 0
M  V30 6707 O 649.773 1.32429 1.71147 0
M  V30 6708 C 650.368 3.22573 -1.03595 0
M  V30 6709 C 648.927 3.68614 -0.76161 0
M  V30 6710 C 648.074 2.49483 -1.21052 0
M  V30 6711 H 651.025 1.16038 -1.08263 0
M  V30 6712 H 651.046 3.78684 -0.371337 0
M  V30 6713 H 650.558 3.25321 -2.11631 0
M  V30 6714 H 648.659 3.7134 0.306127 0
M  V30 6715 H 648.772 4.59402 -1.35965 0
M  V30 6716 H 647.136 2.46798 -0.629515 0
M  V30 6717 H 647.919 2.54959 -2.29893 0
M  V30 6718 N 650.364 0.662433 1.43002 0
M  V30 6719 C 651.314 -0.0460442 2.27954 0
M  V30 6720 C 652.298 -0.785753 1.40409 0
M  V30 6721 O 653.49 -0.666701 1.63964 0
M  V30 6722 C 650.619 -1.00532 3.2825 0
M  V30 6723 C 649.705 -0.263604 4.2328 0
M  V30 6724 N 650.096 0.724855 5.00579 0
M  V30 6725 C 648.394 -0.503778 4.43146 0
M  V30 6726 C 649.095 1.16594 5.69895 0
M  V30 6727 N 648.071 0.498345 5.41311 0
M  V30 6728 H 651.873 0.712314 2.85137 0
M  V30 6729 H 649.387 0.490469 1.54817 0
M  V30 6730 H 651.384 -1.52775 3.87899 0
M  V30 6731 H 650.044 -1.76364 2.72628 0
M  V30 6732 H 651.055 1.10393 5.05998 0
M  V30 6733 H 647.732 -1.24255 3.98581 0
M  V30 6734 H 649.122 1.98434 6.4193 0
M  V30 6735 N 651.842 -1.52309 0.404946 0
M  V30 6736 C 653.088 -2.02065 -0.172455 0
M  V30 6737 C 653.421 -1.29022 -1.45145 0
M  V30 6738 O 652.696 -0.395284 -1.90441 0
M  V30 6739 C 652.979 -3.5759 -0.424433 0
M  V30 6740 C 652.832 -4.41287 0.870945 0
M  V30 6741 C 654.151 -4.23186 -1.20837 0
M  V30 6742 H 651.27 -0.734454 -0.0612035 0
M  V30 6743 H 653.912 -1.82236 0.53759 0
M  V30 6744 H 652.062 -3.74617 -1.02929 0
M  V30 6745 H 653.734 -4.3598 1.50729 0
M  V30 6746 H 651.977 -4.07669 1.48284 0
M  V30 6747 H 652.648 -5.48171 0.649083 0
M  V30 6748 H 655.124 -4.10232 -0.696338 0
M  V30 6749 H 654 -5.31953 -1.35343 0
M  V30 6750 H 654.261 -3.81862 -2.22786 0
M  V30 6751 N 653.32 -0.135238 -1.57019 0
M  V30 6752 C 654.25 0.805235 -2.19176 0
M  V30 6753 C 655.231 1.2656 -1.13651 0
M  V30 6754 O 656.416 1.32528 -1.4195 0
M  V30 6755 C 653.546 2.04914 -2.80406 0
M  V30 6756 C 652.5 1.72598 -3.91655 0
M  V30 6757 C 651.826 3.04154 -4.39766 0
M  V30 6758 C 653.126 0.981709 -5.12991 0
M  V30 6759 H 654.82 0.287232 -2.98019 0
M  V30 6760 H 652.366 0.136714 -1.4335 0
M  V30 6761 H 654.319 2.71178 -3.22553 0
M  V30 6762 H 653.043 2.59067 -1.98877 0
M  V30 6763 H 651.702 1.08717 -3.50109 0
M  V30 6764 H 651.35 3.56274 -3.55075 0
M  V30 6765 H 651.05 2.83299 -5.14796 0
M  V30 6766 H 652.574 3.71509 -4.84576 0
M  V30 6767 H 653.988 1.5462 -5.52056 0
M  V30 6768 H 652.385 0.873533 -5.93708 0
M  V30 6769 H 653.455 -0.0286887 -4.84892 0
M  V30 6770 N 654.798 1.5699 0.138552 0
M  V30 6771 C 656.026 1.87976 0.864437 0
M  V30 6772 C 656.441 0.724372 1.74351 0
M  V30 6773 O 655.798 -0.305575 1.79924 0
M  V30 6774 C 655.849 3.18276 1.71414 0
M  V30 6775 O 655.57 4.29365 0.870487 0
M  V30 6776 C 657.071 3.62834 2.54688 0
M  V30 6777 H 654.291 0.622878 0.249528 0
M  V30 6778 H 656.835 2.04094 0.128805 0
M  V30 6779 H 654.99 3.03886 2.40274 0
M  V30 6780 H 655.404 5.03924 1.45466 0
M  V30 6781 H 656.878 4.5682 3.0987 0
M  V30 6782 H 657.355 2.88533 3.31127 0
M  V30 6783 H 657.961 3.79946 1.91105 0
M  V30 6784 N 656.276 -0.40816 1.52223 0
M  V30 6785 C 657.504 -1.17672 1.70179 0
M  V30 6786 C 657.919 -1.84257 0.411696 0
M  V30 6787 O 657.276 -1.7192 -0.612354 0
M  V30 6788 C 657.327 -2.23911 2.83806 0
M  V30 6789 O 657.048 -1.60044 4.0782 0
M  V30 6790 C 658.549 -3.1364 3.13281 0
M  V30 6791 H 655.769 -0.353562 0.570293 0
M  V30 6792 H 658.313 -0.480083 1.98785 0
M  V30 6793 H 656.468 -2.89242 2.57717 0
M  V30 6794 H 656.882 -2.30484 4.71145 0
M  V30 6795 H 658.356 -3.84255 3.96298 0
M  V30 6796 H 658.833 -3.76066 2.26872 0
M  V30 6797 H 659.439 -2.53977 3.41139 0
M  V30 6798 N 657.755 -1.42862 -0.66545 0
M  V30 6799 C 658.665 -1.49491 -1.80803 0
M  V30 6800 C 659.681 -0.382914 -1.69734 0
M  V30 6801 O 660.857 -0.635223 -1.9112 0
M  V30 6802 C 657.922 -1.40383 -3.17007 0
M  V30 6803 C 656.983 -2.62152 -3.39963 0
M  V30 6804 C 656.216 -2.53469 -4.69669 0
M  V30 6805 O 656.439 -1.57568 -5.48205 0
M  V30 6806 O 655.373 -3.43763 -4.94075 0
M  V30 6807 H 659.199 -2.45949 -1.78165 0
M  V30 6808 H 656.784 -1.24728 -0.822387 0
M  V30 6809 H 658.666 -1.377 -3.98267 0
M  V30 6810 H 657.341 -0.470546 -3.20262 0
M  V30 6811 H 656.248 -2.70409 -2.58515 0
M  V30 6812 H 657.581 -3.54411 -3.41546 0
M  V30 6813 N 659.233 0.902656 -1.29189 0
M  V30 6814 C 660.163 2.02294 -1.16616 0
M  V30 6815 C 661.144 1.6999 -0.0611175 0
M  V30 6816 O 662.329 1.9271 -0.240072 0
M  V30 6817 C 659.459 3.37018 -0.83882 0
M  V30 6818 C 658.413 3.83522 -1.89986 0
M  V30 6819 C 657.739 5.15337 -1.42589 0
M  V30 6820 C 659.039 4.04169 -3.30824 0
M  V30 6821 H 660.733 2.13071 -2.10336 0
M  V30 6822 H 658.279 1.02378 -1.01266 0
M  V30 6823 H 660.232 4.14895 -0.737584 0
M  V30 6824 H 658.956 3.26325 0.134071 0
M  V30 6825 H 657.615 3.07859 -1.99043 0
M  V30 6826 H 657.263 5.01056 -0.441759 0
M  V30 6827 H 656.963 5.47423 -2.13547 0
M  V30 6828 H 658.487 5.95758 -1.3381 0
M  V30 6829 H 659.901 4.72537 -3.24626 0
M  V30 6830 H 658.298 4.47604 -3.99713 0
M  V30 6831 H 659.368 3.08604 -3.74021 0
M  V30 6832 N 660.711 1.11618 1.11262 0
M  V30 6833 C 661.957 0.867463 1.83311 0
M  V30 6834 C 662.29 -0.605366 1.84524 0
M  V30 6835 O 661.565 -1.44704 1.29965 0
M  V30 6836 C 661.848 1.43207 3.30399 0
M  V30 6837 C 661.701 2.97265 3.3757 0
M  V30 6838 C 663.02 1.08454 4.26528 0
M  V30 6839 H 660.139 0.316578 0.665543 0
M  V30 6840 H 662.781 1.38137 1.30454 0
M  V30 6841 H 660.931 0.994982 3.75543 0
M  V30 6842 H 662.603 3.49591 3.00971 0
M  V30 6843 H 660.846 3.33237 2.77733 0
M  V30 6844 H 661.517 3.31859 4.41105 0
M  V30 6845 H 663.993 1.4619 3.89574 0
M  V30 6846 H 662.869 1.50633 5.27826 0
M  V30 6847 H 663.13 -0.00444568 4.421 0
M  V30 6848 N 662.189 -1.289 0.906776 0
M  V30 6849 C 663.414 -1.99939 0.551303 0
M  V30 6850 C 663.839 -1.67366 -0.858496 0
M  V30 6851 O 663.197 -0.902176 -1.57259 0
M  V30 6852 C 663.245 -3.52523 0.758937 0
M  V30 6853 O 662.349 -4.11983 -0.185308 0
M  V30 6854 H 661.69 -0.628376 0.214568 0
M  V30 6855 H 664.22 -1.64225 1.2203 0
M  V30 6856 H 664.23 -4.02522 0.666329 0
M  V30 6857 H 662.905 -3.75566 1.78671 0
M  V30 6858 H 661.482 -3.72873 -0.0445577 0
M  V30 6859 N 663.667 -0.670007 -1.42649 0
M  V30 6860 C 664.915 -0.18991 -2.01206 0
M  V30 6861 C 665.236 1.20617 -1.53221 0
M  V30 6862 O 664.506 1.80898 -0.751856 0
M  V30 6863 H 663.086 -0.0672189 -0.743969 0
M  V30 6864 H 665.748 -0.865442 -1.74631 0
M  V30 6865 H 664.844 -0.187481 -3.11536 0
M  V30 6866 N 665.145 1.52092 -0.413018 0
M  V30 6867 C 666.392 2.01855 0.161497 0
M  V30 6868 C 666.72 1.29845 1.44812 0
M  V30 6869 O 665.975 0.394471 1.91683 0
M  V30 6870 C 666.274 3.54529 0.4521 0
M  V30 6871 C 665.94 4.4469 -0.745788 0
M  V30 6872 C 664.602 4.69053 -1.07435 0
M  V30 6873 C 666.954 4.97742 -1.54604 0
M  V30 6874 C 664.282 5.43717 -2.20429 0
M  V30 6875 C 666.634 5.73642 -2.66678 0
M  V30 6876 C 665.298 5.96277 -3.00016 0
M  V30 6877 H 664.568 0.73864 0.0590961 0
M  V30 6878 H 667.215 1.83274 -0.555234 0
M  V30 6879 H 665.52 3.7131 1.25045 0
M  V30 6880 H 667.217 3.90546 0.909647 0
M  V30 6881 H 663.807 4.25907 -0.479725 0
M  V30 6882 H 667.991 4.78824 -1.30543 0
M  V30 6883 H 663.247 5.59462 -2.46602 0
M  V30 6884 H 667.421 6.13746 -3.29072 0
M  V30 6885 H 665.048 6.53913 -3.87688 0
M  V30 6886 N 666.623 0.143563 1.56945 0
M  V30 6887 C 668.034 -0.37783 1.82837 0
M  V30 6888 C 668.385 -1.64967 1.06209 0
M  V30 6889 O 667.51 -2.14221 0.306291 0
M  V30 6890 C 668.105 -0.692274 3.31652 0
M  V30 6891 C 666.664 -1.1582 3.58138 0
M  V30 6892 C 665.811 -0.17951 2.76718 0
M  V30 6893 H 668.762 0.368317 1.54367 0
M  V30 6894 H 668.783 -1.54729 3.47619 0
M  V30 6895 H 668.295 0.233572 3.87397 0
M  V30 6896 H 666.396 -2.10011 3.07776 0
M  V30 6897 H 666.509 -1.08655 4.66616 0
M  V30 6898 H 664.873 -0.671458 2.4569 0
M  V30 6899 H 665.656 0.739865 3.35233 0
M  V30 6900 N 668.101 -1.57061 -0.130224 0
M  V30 6901 C 669.031 -2.02552 -1.16168 0
M  V30 6902 C 670.012 -0.907971 -1.4384 0
M  V30 6903 O 671.197 -1.17693 -1.54473 0
M  V30 6904 C 668.327 -2.42035 -2.49071 0
M  V30 6905 C 667.281 -3.5713 -2.35886 0
M  V30 6906 C 666.607 -3.82478 -3.7365 0
M  V30 6907 C 667.907 -4.89236 -1.8288 0
M  V30 6908 H 669.601 -2.8897 -0.783359 0
M  V30 6909 H 667.147 -1.39021 -0.375376 0
M  V30 6910 H 669.1 -2.72462 -3.21469 0
M  V30 6911 H 667.824 -1.52573 -2.88771 0
M  V30 6912 H 666.483 -3.26895 -1.65938 0
M  V30 6913 H 666.131 -2.9024 -4.10816 0
M  V30 6914 H 665.831 -4.59944 -3.65685 0
M  V30 6915 H 667.355 -4.15347 -4.47571 0
M  V30 6916 H 668.769 -5.18272 -2.45085 0
M  V30 6917 H 667.166 -5.70624 -1.85763 0
M  V30 6918 H 668.236 -4.78494 -0.785571 0
M  V30 6919 N 669.579 0.400081 -1.52437 0
M  V30 6920 C 670.856 1.15973 -1.57511 0
M  V30 6921 C 671.236 2.0798 -0.361572 0
M  V30 6922 O 670.584 2.19032 0.650929 0
M  V30 6923 C 670.794 1.92912 -2.90837 0
M  V30 6924 C 672.142 2.48662 -3.44169 0
M  V30 6925 O 673.166 2.03081 -2.92637 0
M  V30 6926 O 672.025 3.31894 -4.34176 0
M  V30 6927 H 669.119 0.530023 -0.634827 0
M  V30 6928 H 671.665 0.40613 -1.64769 0
M  V30 6929 H 670.437 1.25564 -3.70607 0
M  V30 6930 H 670.06 2.75257 -2.86913 0
M  V30 6931 N 671.057 1.43213 0.657864 0
M  V30 6932 C 671.989 1.43974 1.78337 0
M  V30 6933 C 673.002 0.336482 1.59285 0
M  V30 6934 O 674.191 0.600631 1.68091 0
M  V30 6935 C 671.291 1.23242 3.15697 0
M  V30 6936 C 670.464 2.46319 3.61449 0
M  V30 6937 C 669.523 2.2088 4.77597 0
M  V30 6938 O 668.549 2.942 4.87273 0
M  V30 6939 N 669.751 1.22251 5.67481 0
M  V30 6940 H 672.516 2.40993 1.78164 0
M  V30 6941 H 670.077 1.3831 0.841549 0
M  V30 6942 H 672.069 1.04113 3.91079 0
M  V30 6943 H 670.639 0.346849 3.1067 0
M  V30 6944 H 669.859 2.80904 2.76563 0
M  V30 6945 H 671.147 3.28239 3.88763 0
M  V30 6946 H 670.545 0.616433 5.62331 0
M  V30 6947 H 669.102 1.09107 6.42603 0
M  V30 6948 N 672.536 -0.895792 1.29666 0
M  V30 6949 C 673.499 -1.98189 1.15124 0
M  V30 6950 C 674.499 -1.60572 0.0855717 0
M  V30 6951 O 675.689 -1.70991 0.332826 0
M  V30 6952 C 672.821 -3.32289 0.761372 0
M  V30 6953 H 674.014 -2.12518 2.11603 0
M  V30 6954 H 671.567 -1.0808 1.12908 0
M  V30 6955 H 672.302 -3.23662 -0.203393 0
M  V30 6956 H 672.087 -3.60958 1.53139 0
M  V30 6957 H 673.577 -4.1198 0.682792 0
M  V30 6958 N 674.014 -1.12206 -1.10668 0
M  V30 6959 C 674.924 -0.800686 -2.20513 0
M  V30 6960 C 675.94 0.209512 -1.72734 0
M  V30 6961 O 677.116 0.043705 -2.01353 0
M  V30 6962 C 674.181 -0.257353 -3.45744 0
M  V30 6963 C 673.242 -1.32718 -4.0827 0
M  V30 6964 C 672.475 -0.809674 -5.27522 0
M  V30 6965 O 672.698 0.35742 -5.69279 0
M  V30 6966 O 671.632 -1.57816 -5.80842 0
M  V30 6967 H 675.458 -1.71807 -2.50432 0
M  V30 6968 H 673.043 -0.898546 -1.19359 0
M  V30 6969 H 674.925 0.0408849 -4.2138 0
M  V30 6970 H 673.6 0.632627 -3.17458 0
M  V30 6971 H 672.507 -1.67855 -3.34329 0
M  V30 6972 H 673.84 -2.19083 -4.40753 0
M  V30 6973 N 675.492 1.28418 -0.913599 0
M  V30 6974 C 676.74 1.94596 -0.545594 0
M  V30 6975 C 677.061 1.7227 0.913668 0
M  V30 6976 O 676.331 1.06233 1.64595 0
M  V30 6977 H 674.911 0.720065 -0.198783 0
M  V30 6978 H 677.573 1.56404 -1.16292 0
M  V30 6979 H 676.669 3.03202 -0.739911 0
M  V30 6980 N 676.97 0.677563 1.42291 0
M  V30 6981 C 677.9 0.014968 2.33495 0
M  V30 6982 C 678.881 -0.786376 1.50831 0
M  V30 6983 O 680.066 -0.742975 1.79426 0
M  V30 6984 C 677.196 -0.935023 3.34477 0
M  V30 6985 C 676.15 -0.242074 4.27315 0
M  V30 6986 C 675.476 -1.30519 5.18526 0
M  V30 6987 C 676.776 0.880604 5.14823 0
M  V30 6988 H 678.47 0.776671 2.89151 0
M  V30 6989 H 676.016 0.37494 1.39033 0
M  V30 6990 H 677.969 -1.40766 3.97194 0
M  V30 6991 H 676.693 -1.72818 2.77131 0
M  V30 6992 H 675.352 0.210351 3.65996 0
M  V30 6993 H 675 -2.09041 4.57505 0
M  V30 6994 H 674.7 -0.846652 5.81468 0
M  V30 6995 H 676.224 -1.7787 5.84119 0
M  V30 6996 H 677.638 0.489062 5.7121 0
M  V30 6997 H 676.035 1.26511 5.86613 0
M  V30 6998 H 677.105 1.72818 4.53059 0
M  V30 6999 N 678.448 -1.51871 0.421078 0
M  V30 7000 C 679.673 -2.0684 -0.152371 0
M  V30 7001 C 680.098 -1.28802 -1.37083 0
M  V30 7002 O 679.456 -0.321482 -1.78427 0
M  V30 7003 C 679.504 -3.57532 -0.469368 0
M  V30 7004 O 678.608 -3.81818 -1.55848 0
M  V30 7005 H 677.949 -0.663939 -0.00898586 0
M  V30 7006 H 680.479 -1.95674 0.597724 0
M  V30 7007 H 680.489 -4.01515 -0.724553 0
M  V30 7008 H 679.164 -4.13761 0.421276 0
M  V30 7009 H 677.741 -3.49709 -1.29453 0
M  V30 7010 N 679.926 -0.151884 -1.56866 0
M  V30 7011 C 680.858 0.817008 -2.14144 0
M  V30 7012 C 681.871 1.20735 -1.0921 0
M  V30 7013 O 683.06 1.15058 -1.36469 0
M  V30 7014 C 680.16 2.10844 -2.65326 0
M  V30 7015 C 679.333 1.88471 -3.94712 0
M  V30 7016 C 678.392 3.01649 -4.31155 0
M  V30 7017 O 677.418 2.73127 -4.9939 0
M  V30 7018 N 678.62 4.28947 -3.91132 0
M  V30 7019 H 681.385 0.327448 -2.97906 0
M  V30 7020 H 678.946 0.0315313 -1.61869 0
M  V30 7021 H 680.938 2.85616 -2.86715 0
M  V30 7022 H 679.508 2.51049 -1.86262 0
M  V30 7023 H 678.728 0.977088 -3.81899 0
M  V30 7024 H 680.016 1.70866 -4.79252 0
M  V30 7025 H 679.414 4.54986 -3.36161 0
M  V30 7026 H 677.971 5.00484 -4.17563 0
M  V30 7027 N 681.404 1.57128 0.121893 0
M  V30 7028 C 682.314 2.03425 1.16857 0
M  V30 7029 C 683.33 0.954108 1.45509 0
M  V30 7030 O 684.506 1.26541 1.56682 0
M  V30 7031 C 681.571 2.42685 2.47599 0
M  V30 7032 C 680.632 3.64767 2.2637 0
M  V30 7033 C 679.865 4.02145 3.50878 0
M  V30 7034 O 680.088 3.39897 4.58068 0
M  V30 7035 O 679.022 4.95262 3.42051 0
M  V30 7036 H 682.848 2.92825 0.80544 0
M  V30 7037 H 680.433 1.45654 0.332477 0
M  V30 7038 H 682.315 2.68684 3.24634 0
M  V30 7039 H 680.99 1.56432 2.83392 0
M  V30 7040 H 679.897 3.43922 1.47203 0
M  V30 7041 H 681.23 4.51716 1.95482 0
M  V30 7042 N 682.882 -0.391992 1.52647 0
M  V30 7043 C 684.131 -1.13449 1.6677 0
M  V30 7044 C 684.444 -1.91203 0.412399 0
M  V30 7045 O 685.65 -2.68013 0.433707 0
M  V30 7046 C 684.106 -2.06577 2.9471 0
M  V30 7047 C 683.714 -1.3426 4.27409 0
M  V30 7048 C 685.458 -2.80981 3.18198 0
M  V30 7049 C 683.365 -2.26136 5.46458 0
M  V30 7050 H 682.295 -0.427211 0.621295 0
M  V30 7051 H 684.946 -0.397522 1.79142 0
M  V30 7052 H 683.328 -2.83898 2.76076 0
M  V30 7053 H 684.502 -0.621856 4.56585 0
M  V30 7054 H 682.817 -0.718279 4.10158 0
M  V30 7055 H 685.414 -3.49898 4.04321 0
M  V30 7056 H 685.757 -3.44891 2.33144 0
M  V30 7057 H 686.29 -2.10754 3.37383 0
M  V30 7058 H 683.029 -1.66846 6.33911 0
M  V30 7059 H 682.549 -2.96134 5.21598 0
M  V30 7060 H 684.228 -2.86286 5.80215 0
M  V30 7061 N 684.36 -1.4356 -0.65026 0
M  V30 7062 C 685.776 -1.27025 -0.966269 0
M  V30 7063 C 685.976 -0.192117 -2.00582 0
M  V30 7064 O 685.032 0.428459 -2.48838 0
M  V30 7065 C 686.345 -2.63556 -1.44772 0
M  V30 7066 C 687.893 -2.71111 -1.56421 0
M  V30 7067 C 688.368 -4.08067 -2.07956 0
M  V30 7068 N 689.859 -4.10146 -2.15254 0
M  V30 7069 C 690.594 -5.12952 -2.56258 0
M  V30 7070 N 690.09 -6.26129 -2.96537 0
M  V30 7071 N 691.883 -5.00306 -2.56224 0
M  V30 7072 H 684.034 -2.12367 0.0375758 0
M  V30 7073 H 686.297 -0.946894 -0.0457782 0
M  V30 7074 H 686.003 -3.43429 -0.758271 0
M  V30 7075 H 685.877 -2.89152 -2.42221 0
M  V30 7076 H 688.264 -1.91569 -2.24467 0
M  V30 7077 H 688.345 -2.49277 -0.573967 0
M  V30 7078 H 687.989 -4.88077 -1.40511 0
M  V30 7079 H 687.919 -4.27266 -3.07817 0
M  V30 7080 H 690.41 -3.28453 -1.86887 0
M  V30 7081 H 690.723 -7.00403 -3.26582 0
M  V30 7082 H 689.068 -6.29597 -2.94334 0
M  V30 7083 H 692.259 -4.10952 -2.24135 0
M  V30 7084 H 692.432 -5.80553 -2.87857 0
M  V30 7085 N 685.838 0.888903 -1.30139 0
M  V30 7086 C 686.786 2.0156 -1.16088 0
M  V30 7087 C 687.78 1.69239 -0.0737413 0
M  V30 7088 O 688.986 1.78468 -0.234313 0
M  V30 7089 H 685.361 0.660825 -0.358907 0
M  V30 7090 H 687.332 2.10547 -2.11453 0
M  V30 7091 C 686.081 3.36758 -0.865426 0
M  V30 7092 H 685.404 3.62137 -1.69402 0
M  V30 7093 H 686.844 4.16246 -0.807192 0
M  V30 7094 C 685.303 3.34124 0.431577 0
M  V30 7095 O 685.833 3.7445 1.45431 0
M  V30 7096 N 684.039 2.87229 0.441321 0
M  V30 7097 H 683.586 2.54609 -0.391433 0
M  V30 7098 H 683.544 2.8585 1.30909 0
M  V30 7099 N 687.317 1.12792 1.10072 0
M  V30 7100 C 688.227 0.812369 2.20086 0
M  V30 7101 C 689.243 -0.200349 1.72843 0
M  V30 7102 O 690.419 -0.0330262 2.01373 0
M  V30 7103 C 687.484 0.275685 3.45602 0
M  V30 7104 C 686.545 1.34881 4.07561 0
M  V30 7105 C 685.778 0.837639 5.27086 0
M  V30 7106 O 686.001 -0.327224 5.69461 0
M  V30 7107 O 684.935 1.60894 5.79997 0
M  V30 7108 H 688.761 1.73133 2.49517 0
M  V30 7109 H 686.346 0.904863 1.18881 0
M  V30 7110 H 688.228 -0.0185375 4.21396 0
M  V30 7111 H 686.903 -0.615783 3.17789 0
M  V30 7112 H 685.81 1.69625 3.33434 0
M  V30 7113 H 687.143 2.21418 4.39585 0
M  V30 7114 N 688.795 -1.27931 0.920396 0
M  V30 7115 C 690.044 -1.93975 0.552867 0
M  V30 7116 C 690.357 -1.73193 -0.909035 0
M  V30 7117 O 691.563 -2.33515 -1.38502 0
M  V30 7118 C 690.019 -3.47463 0.937947 0
M  V30 7119 C 689.627 -3.77013 2.42003 0
M  V30 7120 C 691.371 -4.19628 0.64132 0
M  V30 7121 C 689.278 -5.23841 2.74489 0
M  V30 7122 H 688.208 -0.726146 0.203046 0
M  V30 7123 H 690.859 -1.45339 1.12022 0
M  V30 7124 H 689.241 -3.94867 0.299317 0
M  V30 7125 H 690.415 -3.40393 3.10595 0
M  V30 7126 H 688.73 -3.18035 2.6878 0
M  V30 7127 H 691.327 -5.27729 0.860622 0
M  V30 7128 H 691.67 -4.14164 -0.421168 0
M  V30 7129 H 692.203 -3.78022 1.23872 0
M  V30 7130 H 688.942 -5.34388 3.79618 0
M  V30 7131 H 688.462 -5.61634 2.1054 0
M  V30 7132 H 690.141 -5.91647 2.61845 0
M  V30 7133 N 690.273 -0.685099 -1.4193 0
M  V30 7134 C 691.513 -0.215676 -2.03259 0
M  V30 7135 C 691.877 1.15934 -1.53047 0
M  V30 7136 O 693.078 1.72401 -2.06231 0
M  V30 7137 C 691.349 -0.259649 -3.56456 0
M  V30 7138 S 692.908 0.137262 -4.38585 0
M  V30 7139 H 689.726 -0.0877362 -0.705566 0
M  V30 7140 H 692.328 -0.900547 -1.73523 0
M  V30 7141 H 691.032 -1.26256 -3.90497 0
M  V30 7142 H 690.563 0.444716 -3.90878 0
M  V30 7143 H 692.578 1.36787 -4.76973 0
M  V30 7144 N 691.751 1.51645 -0.429126 0
M  V30 7145 C 692.981 2.06133 0.138793 0
M  V30 7146 C 693.389 1.29735 1.37716 0
M  V30 7147 O 692.732 0.347955 1.80375 0
M  V30 7148 C 692.794 3.55504 0.534493 0
M  V30 7149 C 692.458 4.53098 -0.595917 0
M  V30 7150 C 693.455 4.98815 -1.46558 0
M  V30 7151 C 691.14 4.96296 -0.774309 0
M  V30 7152 C 693.134 5.86394 -2.4984 0
M  V30 7153 C 690.821 5.83667 -1.81042 0
M  V30 7154 C 691.819 6.28613 -2.67086 0
M  V30 7155 O 691.507 7.14251 -3.68919 0
M  V30 7156 H 691.239 0.675833 0.0150263 0
M  V30 7157 H 693.793 1.96301 -0.604584 0
M  V30 7158 H 692.023 3.63092 1.33045 0
M  V30 7159 H 693.712 3.92545 1.03262 0
M  V30 7160 H 694.478 4.66143 -1.33925 0
M  V30 7161 H 690.357 4.60859 -0.114178 0
M  V30 7162 H 693.901 6.21398 -3.17034 0
M  V30 7163 H 689.798 6.15753 -1.93698 0
M  V30 7164 H 690.566 7.3241 -3.65402 0
M  V30 7165 N 693.229 0.160201 1.56784 0
M  V30 7166 C 694.177 -0.791402 2.18723 0
M  V30 7167 C 695.171 -1.24567 1.14801 0
M  V30 7168 O 696.377 -1.21262 1.33025 0
M  V30 7169 H 692.752 -0.273458 0.700517 0
M  V30 7170 H 694.723 -0.244931 2.97393 0
M  V30 7171 C 693.472 -2.01509 2.83354 0
M  V30 7172 H 692.795 -1.67454 3.63041 0
M  V30 7173 H 694.235 -2.66006 3.30177 0
M  V30 7174 C 692.694 -2.83159 1.82545 0
M  V30 7175 O 693.224 -3.79944 1.30405 0
M  V30 7176 N 691.43 -2.47953 1.51552 0
M  V30 7177 H 690.977 -1.69309 1.94144 0
M  V30 7178 H 690.935 -3.02873 0.843519 0
M  V30 7179 N 694.707 -1.5719 -0.113559 0
M  V30 7180 C 695.956 -1.84325 -0.818984 0
M  V30 7181 C 696.269 -0.746685 -1.80787 0
M  V30 7182 O 697.475 -0.904596 -2.55987 0
M  V30 7183 C 695.931 -3.26818 -1.50724 0
M  V30 7184 C 695.539 -4.44498 -0.559065 0
M  V30 7185 C 697.283 -3.63196 -2.19748 0
M  V30 7186 C 695.19 -5.7802 -1.25086 0
M  V30 7187 H 694.12 -0.687507 -0.309596 0
M  V30 7188 H 696.771 -1.8336 -0.0717621 0
M  V30 7189 H 695.153 -3.22269 -2.30128 0
M  V30 7190 H 696.327 -4.60356 0.202146 0
M  V30 7191 H 694.642 -4.16393 0.024495 0
M  V30 7192 H 697.239 -4.60226 -2.72206 0
M  V30 7193 H 697.582 -2.90899 -2.97798 0
M  V30 7194 H 698.115 -3.69553 -1.47226 0
M  V30 7195 H 694.854 -6.53501 -0.511539 0
M  V30 7196 H 694.374 -5.66038 -1.98395 0
M  V30 7197 H 696.053 -6.2196 -1.78253 0
M  V30 7198 N 696.185 0.383891 -1.52853 0
M  V30 7199 C 697.115 1.47559 -1.80965 0
M  V30 7200 C 698.096 1.5669 -0.661986 0
M  V30 7201 O 699.281 1.71556 -0.910072 0
M  V30 7202 C 696.411 2.85114 -1.98312 0
M  V30 7203 C 695.365 2.9082 -3.14019 0
M  V30 7204 C 694.691 4.30873 -3.16627 0
M  V30 7205 C 695.991 2.60001 -4.52986 0
M  V30 7206 H 697.685 1.24283 -2.72386 0
M  V30 7207 H 695.231 0.596445 -1.31067 0
M  V30 7208 H 697.184 3.61496 -2.16561 0
M  V30 7209 H 695.908 3.09738 -1.03585 0
M  V30 7210 H 694.567 2.16886 -2.9556 0
M  V30 7211 H 694.215 4.52545 -2.19573 0
M  V30 7212 H 693.915 4.3561 -3.94357 0
M  V30 7213 H 695.439 5.09154 -3.37038 0
M  V30 7214 H 696.853 3.261 -4.71521 0
M  V30 7215 H 695.25 2.76081 -5.32822 0
M  V30 7216 H 696.32 1.5532 -4.59351 0
M  V30 7217 N 697.663 1.43903 0.642637 0
M  V30 7218 C 698.909 1.46296 1.40447 0
M  V30 7219 C 699.242 0.0908361 1.93987 0
M  V30 7220 O 698.517 -0.889884 1.72949 0
M  V30 7221 C 698.8 2.51399 2.57819 0
M  V30 7222 C 698.653 3.97926 2.09702 0
M  V30 7223 C 699.972 2.53125 3.60022 0
M  V30 7224 H 697.091 0.532676 0.509338 0
M  V30 7225 H 699.733 1.75515 0.727635 0
M  V30 7226 H 697.883 2.26614 3.1556 0
M  V30 7227 H 699.555 4.33804 1.5688 0
M  V30 7228 H 697.798 4.10252 1.40982 0
M  V30 7229 H 698.469 4.67096 2.94152 0
M  V30 7230 H 700.945 2.75242 3.12059 0
M  V30 7231 H 699.821 3.28589 4.39682 0
M  V30 7232 H 700.082 1.56895 4.13324 0
M  V30 7233 N 699.141 -0.881989 1.30609 0
M  V30 7234 C 700.071 -2.00413 1.1982 0
M  V30 7235 C 701.052 -1.69871 0.0881538 0
M  V30 7236 O 702.237 -1.92304 0.2707 0
M  V30 7237 C 699.367 -3.35641 0.89233 0
M  V30 7238 C 698.321 -3.80451 1.96064 0
M  V30 7239 C 697.647 -5.13003 1.5077 0
M  V30 7240 C 698.947 -3.98855 3.37213 0
M  V30 7241 H 700.641 -2.09698 2.13699 0
M  V30 7242 H 698.187 -1.00754 1.02882 0
M  V30 7243 H 700.14 -4.13669 0.803497 0
M  V30 7244 H 698.864 -3.26497 -0.0821381 0
M  V30 7245 H 697.523 -3.04654 2.03916 0
M  V30 7246 H 697.171 -5.0029 0.521417 0
M  V30 7247 H 696.871 -5.43956 2.22229 0
M  V30 7248 H 698.395 -5.93554 1.43271 0
M  V30 7249 H 699.809 -4.67312 3.32103 0
M  V30 7250 H 698.206 -4.41188 4.06784 0
M  V30 7251 H 699.276 -3.02614 3.78883 0
M  V30 7252 N 700.619 -1.13374 -1.09472 0
M  V30 7253 C 701.859 -0.905422 -1.83252 0
M  V30 7254 C 702.223 0.558396 -1.83701 0
M  V30 7255 O 703.424 0.904254 -2.53134 0
M  V30 7256 C 701.695 -1.47658 -3.25472 0
M  V30 7257 S 703.254 -1.38825 -4.16261 0
M  V30 7258 H 700.072 -0.326371 -0.631667 0
M  V30 7259 H 702.674 -1.44517 -1.31663 0
M  V30 7260 H 701.378 -2.53533 -3.22722 0
M  V30 7261 H 700.909 -0.934756 -3.82133 0
M  V30 7262 H 702.924 -0.366379 -4.94846 0
M  V30 7263 N 702.098 1.27442 -0.927168 0
M  V30 7264 C 703.028 2.29256 -0.443188 0
M  V30 7265 C 704.009 1.62701 0.49624 0
M  V30 7266 O 705.194 1.90013 0.401105 0
M  V30 7267 C 702.324 3.45955 0.305366 0
M  V30 7268 C 701.278 4.24501 -0.546178 0
M  V30 7269 C 700.604 5.33671 0.331512 0
M  V30 7270 C 701.904 4.89921 -1.81037 0
M  V30 7271 H 703.598 2.69988 -1.29409 0
M  V30 7272 H 701.144 1.29792 -0.623705 0
M  V30 7273 H 703.097 4.1628 0.654885 0
M  V30 7274 H 701.821 3.04138 1.19029 0
M  V30 7275 H 700.48 3.55921 -0.878398 0
M  V30 7276 H 700.128 4.88096 1.21537 0
M  V30 7277 H 699.828 5.87131 -0.234746 0
M  V30 7278 H 701.352 6.0684 0.676614 0
M  V30 7279 H 702.766 5.52536 -1.52895 0
M  V30 7280 H 701.163 5.53436 -2.32009 0
M  V30 7281 H 702.233 4.13652 -2.53021 0
M  V30 7282 N 703.576 0.692616 1.41565 0
M  V30 7283 C 704.992 0.363878 1.55397 0
M  V30 7284 C 705.192 -1.1294 1.66874 0
M  V30 7285 O 704.248 -1.91517 1.64552 0
M  V30 7286 C 705.561 1.10982 2.7947 0
M  V30 7287 C 707.109 1.09387 2.93263 0
M  V30 7288 C 707.584 1.8215 4.20221 0
M  V30 7289 N 709.075 1.79105 4.27172 0
M  V30 7290 C 709.81 2.32247 5.2426 0
M  V30 7291 N 709.306 2.93847 6.27396 0
M  V30 7292 N 711.099 2.22519 5.1618 0
M  V30 7293 H 703.25 1.66116 1.3236 0
M  V30 7294 H 705.513 0.700848 0.63837 0
M  V30 7295 H 705.219 2.1647 2.77188 0
M  V30 7296 H 705.093 0.686492 3.709 0
M  V30 7297 H 707.48 0.0472638 2.95062 0
M  V30 7298 H 707.561 1.55623 2.03015 0
M  V30 7299 H 707.205 2.86789 4.19183 0
M  V30 7300 H 707.135 1.33351 5.09436 0
M  V30 7301 H 709.626 1.34191 3.53272 0
M  V30 7302 H 709.939 3.31972 6.97864 0
M  V30 7303 H 708.284 2.97924 6.27906 0
M  V30 7304 H 711.475 1.7407 4.34531 0
M  V30 7305 H 711.648 2.64239 5.91677 0
M  V30 7306 N 705.054 -1.51416 0.437162 0
M  V30 7307 C 705.964 -2.31493 -0.380537 0
M  V30 7308 C 706.98 -1.40399 -1.02782 0
M  V30 7309 O 708.156 -1.73471 -1.02323 0
M  V30 7310 C 705.221 -3.1413 -1.46709 0
M  V30 7311 C 704.282 -4.21003 -0.839953 0
M  V30 7312 C 703.515 -4.9969 -1.87473 0
M  V30 7313 O 703.738 -4.79008 -3.09689 0
M  V30 7314 O 702.672 -5.8379 -1.46536 0
M  V30 7315 H 706.498 -3.02469 0.273183 0
M  V30 7316 H 704.083 -1.48059 0.199706 0
M  V30 7317 H 705.965 -3.65505 -2.09724 0
M  V30 7318 H 704.64 -2.45919 -2.10489 0
M  V30 7319 H 703.547 -3.73706 -0.171752 0
M  V30 7320 H 704.88 -4.91587 -0.245638 0
M  V30 7321 N 706.532 -0.168513 -1.56696 0
M  V30 7322 C 707.462 0.758563 -2.20835 0
M  V30 7323 C 708.443 1.24121 -1.1631 0
M  V30 7324 O 709.628 1.29487 -1.4473 0
M  V30 7325 C 706.758 1.9892 -2.8469 0
M  V30 7326 C 705.712 1.64252 -3.95228 0
M  V30 7327 C 705.038 2.94757 -4.46119 0
M  V30 7328 C 706.338 0.872675 -5.14958 0
M  V30 7329 H 708.032 0.223953 -2.98561 0
M  V30 7330 H 705.578 0.106277 -1.43607 0
M  V30 7331 H 707.531 2.64275 -3.28233 0
M  V30 7332 H 706.255 2.5479 -2.04327 0
M  V30 7333 H 704.914 1.01266 -3.52336 0
M  V30 7334 H 704.562 3.48662 -3.62552 0
M  V30 7335 H 704.262 2.72316 -5.2069 0
M  V30 7336 H 705.786 3.61147 -4.92347 0
M  V30 7337 H 707.2 1.42875 -5.55211 0
M  V30 7338 H 705.597 0.747402 -5.95428 0
M  V30 7339 H 706.667 -0.131535 -4.84722 0
M  V30 7340 N 708.01 1.57248 0.105221 0
M  V30 7341 C 709.257 1.8557 0.810552 0
M  V30 7342 C 709.585 0.755595 1.79223 0
M  V30 7343 O 708.84 -0.251788 1.94073 0
M  V30 7344 C 709.139 3.20437 1.58287 0
M  V30 7345 C 708.805 4.44716 0.744235 0
M  V30 7346 C 707.467 4.78458 0.513013 0
M  V30 7347 C 709.819 5.20953 0.160578 0
M  V30 7348 C 707.147 5.8587 -0.311894 0
M  V30 7349 C 709.499 6.29235 -0.651596 0
M  V30 7350 C 708.163 6.615 -0.893005 0
M  V30 7351 H 707.433 0.67905 0.296602 0
M  V30 7352 H 710.08 1.91363 0.0723968 0
M  V30 7353 H 708.385 3.10283 2.39232 0
M  V30 7354 H 710.082 3.39576 2.13282 0
M  V30 7355 H 706.672 4.18287 0.934555 0
M  V30 7356 H 710.856 4.95226 0.3264 0
M  V30 7357 H 706.112 6.09286 -0.508012 0
M  V30 7358 H 710.286 6.87484 -1.11077 0
M  V30 7359 H 707.913 7.44562 -1.53401 0
M  V30 7360 N 709.488 -0.375779 1.53054 0
M  V30 7361 C 710.398 -1.48381 1.81715 0
M  V30 7362 C 711.414 -1.59087 0.704795 0
M  V30 7363 O 712.59 -1.75174 0.993785 0
M  V30 7364 C 709.655 -2.83767 1.99192 0
M  V30 7365 C 708.716 -2.82673 3.23102 0
M  V30 7366 C 707.949 -4.11601 3.39736 0
M  V30 7367 O 708.172 -5.07243 2.60885 0
M  V30 7368 O 707.106 -4.18034 4.33049 0
M  V30 7369 H 710.932 -1.27089 2.7583 0
M  V30 7370 H 708.517 -0.564902 1.38308 0
M  V30 7371 H 710.399 -3.64004 2.12318 0
M  V30 7372 H 709.074 -3.05057 1.08267 0
M  V30 7373 H 707.981 -2.0117 3.15407 0
M  V30 7374 H 709.314 -2.66335 4.13916 0
M  V30 7375 N 710.966 -1.44241 -0.634997 0
M  V30 7376 C 712.213 -1.46821 -1.39463 0
M  V30 7377 C 712.541 -0.0993362 -1.94246 0
M  V30 7378 O 711.796 0.898325 -1.73864 0
M  V30 7379 C 712.095 -2.47279 -2.58046 0
M  V30 7380 C 711.761 -3.92703 -2.21574 0
M  V30 7381 C 710.423 -4.32306 -2.1134 0
M  V30 7382 C 712.775 -4.84271 -1.92695 0
M  V30 7383 C 710.103 -5.61407 -1.70409 0
M  V30 7384 C 712.455 -6.13755 -1.53258 0
M  V30 7385 C 711.119 -6.52316 -1.41562 0
M  V30 7386 H 710.389 -0.537256 -0.51033 0
M  V30 7387 H 713.036 -1.77431 -0.720441 0
M  V30 7388 H 711.341 -2.10138 -3.3068 0
M  V30 7389 H 713.038 -2.46523 -3.16271 0
M  V30 7390 H 709.628 -3.61369 -2.30456 0
M  V30 7391 H 713.812 -4.54432 -1.99513 0
M  V30 7392 H 709.068 -5.90105 -1.59955 0
M  V30 7393 H 713.242 -6.84168 -1.29949 0
M  V30 7394 H 710.869 -7.52255 -1.09619 0
M  V30 7395 N 712.444 0.87505 -1.31075 0
M  V30 7396 C 713.394 1.96933 -1.14898 0
M  V30 7397 C 714.378 1.60783 -0.0613703 0
M  V30 7398 O 715.57 1.74678 -0.285751 0
M  V30 7399 C 712.699 3.3253 -0.853166 0
M  V30 7400 C 711.785 3.74963 -1.98151 0
M  V30 7401 N 712.176 3.89403 -3.22799 0
M  V30 7402 C 710.474 4.04436 -1.8801 0
M  V30 7403 C 711.175 4.25563 -3.96574 0
M  V30 7404 N 710.151 4.3597 -3.24701 0
M  V30 7405 H 713.953 2.06201 -2.09424 0
M  V30 7406 H 711.467 1.06551 -1.22558 0
M  V30 7407 H 713.464 4.10666 -0.718266 0
M  V30 7408 H 712.124 3.24592 0.0839218 0
M  V30 7409 H 713.135 3.74266 -3.57974 0
M  V30 7410 H 709.812 4.04915 -1.01733 0
M  V30 7411 H 711.202 4.44375 -5.03965 0
M  V30 7412 N 713.922 1.13953 1.08869 0
M  V30 7413 C 715.169 0.90481 1.81161 0
M  V30 7414 C 715.497 -0.568824 1.85996 0
M  V30 7415 O 714.752 -1.43723 1.32823 0
M  V30 7416 C 715.051 1.44495 3.26888 0
M  V30 7417 C 714.717 2.93641 3.42178 0
M  V30 7418 C 713.379 3.34361 3.46059 0
M  V30 7419 C 715.731 3.89568 3.46246 0
M  V30 7420 C 713.059 4.69681 3.51592 0
M  V30 7421 C 715.411 5.2474 3.53314 0
M  V30 7422 C 714.075 5.64979 3.55465 0
M  V30 7423 H 713.345 0.331094 0.662916 0
M  V30 7424 H 715.992 1.42242 1.28217 0
M  V30 7425 H 714.297 0.848169 3.82509 0
M  V30 7426 H 715.994 1.23934 3.81368 0
M  V30 7427 H 712.584 2.61156 3.39846 0
M  V30 7428 H 716.768 3.59192 3.42483 0
M  V30 7429 H 712.024 5.00224 3.51547 0
M  V30 7430 H 716.198 5.98882 3.55406 0
M  V30 7431 H 713.825 6.69821 3.59505 0
M  V30 7432 N 715.4 -1.26948 0.933913 0
M  V30 7433 C 716.333 -2.24977 0.382169 0
M  V30 7434 C 717.311 -1.53893 -0.524949 0
M  V30 7435 O 718.495 -1.82699 -0.464048 0
M  V30 7436 C 715.622 -3.35676 -0.451615 0
M  V30 7437 C 714.668 -4.24686 0.392947 0
M  V30 7438 S 715.501 -5.03898 1.81237 0
M  V30 7439 C 716.657 -6.18078 0.986443 0
M  V30 7440 H 716.89 -2.71429 1.21299 0
M  V30 7441 H 714.423 -1.35701 0.736523 0
M  V30 7442 H 716.381 -3.99901 -0.926797 0
M  V30 7443 H 715.042 -2.8785 -1.25703 0
M  V30 7444 H 714.235 -5.03402 -0.245533 0
M  V30 7445 H 713.837 -3.65288 0.802537 0
M  V30 7446 H 716.129 -6.77125 0.225321 0
M  V30 7447 H 717.072 -6.86216 1.74682 0
M  V30 7448 H 717.48 -5.62047 0.525711 0
M  V30 7449 N 716.879 -0.700114 -1.41195 0
M  V30 7450 C 717.811 0.00155823 -2.292 0
M  V30 7451 C 718.824 0.739736 -1.45023 0
M  V30 7452 O 720.013 0.589684 -1.68478 0
M  V30 7453 C 717.113 1.02635 -3.22985 0
M  V30 7454 C 716.286 0.356871 -4.35942 0
M  V30 7455 C 715.345 1.28491 -5.10271 0
M  V30 7456 O 714.371 0.775562 -5.63892 0
M  V30 7457 N 715.573 2.61699 -5.18164 0
M  V30 7458 H 718.338 -0.754008 -2.9006 0
M  V30 7459 H 715.899 -0.546504 -1.52397 0
M  V30 7460 H 717.891 1.64902 -3.6958 0
M  V30 7461 H 716.461 1.68341 -2.63401 0
M  V30 7462 H 715.681 -0.445753 -3.91672 0
M  V30 7463 H 716.969 -0.108469 -5.08684 0
M  V30 7464 H 716.367 3.05594 -4.76056 0
M  V30 7465 H 714.924 3.19149 -5.6832 0
M  V30 7466 N 718.357 1.51182 -0.445186 0
M  V30 7467 C 719.585 2.06568 0.117091 0
M  V30 7468 C 720 1.31182 1.35781 0
M  V30 7469 O 719.357 0.373605 1.78635 0
M  V30 7470 C 719.408 3.58917 0.431408 0
M  V30 7471 O 719.129 4.31456 -0.760078 0
M  V30 7472 C 720.63 4.30843 1.0435 0
M  V30 7473 H 717.85 0.670985 0.00444436 0
M  V30 7474 H 720.394 1.94666 -0.626525 0
M  V30 7475 H 718.549 3.70708 1.12493 0
M  V30 7476 H 718.963 5.22215 -0.489048 0
M  V30 7477 H 720.437 5.38499 1.21337 0
M  V30 7478 H 720.914 3.89644 2.02667 0
M  V30 7479 H 721.52 4.23516 0.38913 0
M  V30 7480 N 719.835 0.176821 1.56605 0
M  V30 7481 C 721.112 -0.513365 1.88743 0
M  V30 7482 C 721.492 -1.80929 1.08757 0
M  V30 7483 O 720.84 -2.27765 0.183127 0
M  V30 7484 C 721.05 -0.749925 3.40848 0
M  V30 7485 C 722.398 -1.07747 4.10701 0
M  V30 7486 O 723.422 -0.838277 3.46196 0
M  V30 7487 O 722.281 -1.52901 5.24675 0
M  V30 7488 H 719.375 -0.265296 0.783292 0
M  V30 7489 H 721.921 0.215669 1.68324 0
M  V30 7490 H 720.693 0.16599 3.90948 0
M  V30 7491 H 720.316 -1.53208 3.66897 0
M  V30 7492 N 721.313 -1.57302 -0.09688 0
M  V30 7493 C 722.724 -1.7496 -0.651595 0
M  V30 7494 C 723.075 -0.798746 -1.79205 0
M  V30 7495 O 722.2 0.0231858 -2.16388 0
M  V30 7496 C 722.795 -3.17259 -1.18878 0
M  V30 7497 C 721.354 -3.36348 -1.68958 0
M  V30 7498 C 720.501 -2.70766 -0.598413 0
M  V30 7499 H 723.452 -1.58173 0.12918 0
M  V30 7500 H 723.473 -3.20033 -2.05814 0
M  V30 7501 H 722.985 -3.8644 -0.358523 0
M  V30 7502 H 721.086 -2.72243 -2.5439 0
M  V30 7503 H 721.199 -4.44654 -1.7838 0
M  V30 7504 H 719.563 -2.32615 -1.03743 0
M  V30 7505 H 720.346 -3.42586 0.221238 0
M  V30 7506 N 722.791 0.367657 -1.53252 0
M  V30 7507 C 723.739 1.47061 -1.8021 0
M  V30 7508 C 724.733 1.55539 -0.671112 0
M  V30 7509 O 725.939 1.58451 -0.854014 0
M  V30 7510 H 722.314 0.489868 -0.570555 0
M  V30 7511 H 724.285 1.21527 -2.72532 0
M  V30 7512 C 723.034 2.83924 -2.00706 0
M  V30 7513 H 722.357 2.78158 -2.87172 0
M  V30 7514 H 723.797 3.60281 -2.23547 0
M  V30 7515 C 722.256 3.27613 -0.785568 0
M  V30 7516 O 722.786 4.01691 0.0267459 0
M  V30 7517 N 720.992 2.84134 -0.609597 0
M  V30 7518 H 720.539 2.24017 -1.27178 0
M  V30 7519 H 720.497 3.13723 0.206281 0
M  V30 7520 N 724.269 1.44576 0.627338 0
M  V30 7521 C 725.515 1.4877 1.38705 0
M  V30 7522 C 725.87 0.119976 1.92026 0
M  V30 7523 O 725.163 -0.865341 1.70946 0
M  V30 7524 C 725.357 2.48644 2.56731 0
M  V30 7525 C 725.186 3.94994 2.14965 0
M  V30 7526 C 723.956 4.63139 2.02065 0
M  V30 7527 C 726.154 4.841 1.73643 0
M  V30 7528 N 724.136 5.94296 1.53902 0
M  V30 7529 C 725.507 6.0473 1.36753 0
M  V30 7530 C 727.562 4.71131 1.61058 0
M  V30 7531 C 726.265 7.13831 0.885353 0
M  V30 7532 C 728.291 5.8026 1.14244 0
M  V30 7533 C 727.653 7.00034 0.783067 0
M  V30 7534 H 723.752 0.599415 0.50222 0
M  V30 7535 H 726.336 1.80926 0.719285 0
M  V30 7536 H 724.507 2.18472 3.2113 0
M  V30 7537 H 726.239 2.4311 3.23542 0
M  V30 7538 H 722.994 4.18007 2.22637 0
M  V30 7539 H 723.418 6.63985 1.32108 0
M  V30 7540 H 728.06 3.78964 1.87473 0
M  V30 7541 H 725.778 8.05804 0.608716 0
M  V30 7542 H 729.364 5.72254 1.0496 0
M  V30 7543 H 728.244 7.8304 0.426381 0
M  V30 7544 N 725.747 -0.868086 1.31537 0
M  V30 7545 C 726.972 -1.65926 1.24432 0
M  V30 7546 C 727.397 -1.87169 -0.186936 0
M  V30 7547 O 726.755 -1.4148 -1.13371 0
M  V30 7548 C 726.803 -3.00347 1.9956 0
M  V30 7549 O 725.907 -3.90221 1.33422 0
M  V30 7550 H 725.248 -0.506375 0.429512 0
M  V30 7551 H 727.778 -1.0822 1.73637 0
M  V30 7552 H 727.788 -3.50269 2.09226 0
M  V30 7553 H 726.463 -2.84205 3.03645 0
M  V30 7554 H 725.04 -3.48672 1.32219 0
M  V30 7555 N 727.225 -1.14528 -1.08264 0
M  V30 7556 C 728.173 -0.829201 -2.17318 0
M  V30 7557 C 729.167 0.193521 -1.68291 0
M  V30 7558 O 730.373 0.0494744 -1.79932 0
M  V30 7559 H 726.748 -0.250435 -0.709074 0
M  V30 7560 H 728.719 -1.75683 -2.41201 0
M  V30 7561 C 727.468 -0.324663 -3.46181 0
M  V30 7562 H 726.791 -1.10299 -3.84284 0
M  V30 7563 H 728.231 -0.142059 -4.23762 0
M  V30 7564 C 726.69 0.952033 -3.23169 0
M  V30 7565 O 727.22 2.02549 -3.46896 0
M  V30 7566 N 725.426 0.887854 -2.76705 0
M  V30 7567 H 724.973 0.0141402 -2.57596 0
M  V30 7568 H 724.931 1.74263 -2.61686 0
M  V30 7569 N 728.703 1.26451 -0.940633 0
M  V30 7570 C 729.95 1.93778 -0.587909 0
M  V30 7571 C 730.278 1.73811 0.872935 0
M  V30 7572 O 729.533 1.06816 1.63978 0
M  V30 7573 C 729.832 3.46503 -0.875794 0
M  V30 7574 C 729.498 3.86609 -2.32043 0
M  V30 7575 C 728.16 3.97269 -2.71534 0
M  V30 7576 C 730.512 4.0672 -3.25927 0
M  V30 7577 C 727.84 4.25436 -4.04006 0
M  V30 7578 C 730.192 4.36375 -4.57995 0
M  V30 7579 C 728.856 4.45249 -4.97302 0
M  V30 7580 H 728.126 0.709084 -0.215131 0
M  V30 7581 H 730.773 1.50272 -1.18704 0
M  V30 7582 H 729.078 3.91319 -0.194124 0
M  V30 7583 H 730.775 3.96759 -0.581665 0
M  V30 7584 H 727.365 3.78858 -2.00411 0
M  V30 7585 H 731.549 3.97912 -2.96614 0
M  V30 7586 H 726.805 4.30519 -4.34124 0
M  V30 7587 H 730.979 4.50882 -5.30734 0
M  V30 7588 H 728.606 4.66829 -5.99979 0
M  V30 7589 N 730.181 0.707592 1.40822 0
M  V30 7590 C 731.428 0.243671 2.01029 0
M  V30 7591 C 731.756 -1.16057 1.5608 0
M  V30 7592 O 731.011 -1.7999 0.768251 0
M  V30 7593 C 731.31 0.262892 3.56432 0
M  V30 7594 C 730.976 1.61632 4.20935 0
M  V30 7595 C 729.638 1.98682 4.38268 0
M  V30 7596 C 731.99 2.50619 4.5699 0
M  V30 7597 C 729.318 3.2428 4.88937 0
M  V30 7598 C 731.67 3.75562 5.09054 0
M  V30 7599 C 730.334 4.12739 5.24598 0
M  V30 7600 H 729.604 0.0891654 0.735616 0
M  V30 7601 H 732.251 0.909051 1.68548 0
M  V30 7602 H 730.556 -0.486052 3.88773 0
M  V30 7603 H 732.253 -0.113775 4.00839 0
M  V30 7604 H 728.843 1.31818 4.07826 0
M  V30 7605 H 733.027 2.23272 4.43242 0
M  V30 7606 H 728.283 3.53064 4.99155 0
M  V30 7607 H 732.457 4.44692 5.35931 0
M  V30 7608 H 730.084 5.10132 5.63622 0
M  V30 7609 N 731.66 -1.50943 0.453197 0
M  V30 7610 C 732.89 -2.06328 -0.105981 0
M  V30 7611 C 733.298 -1.31909 -1.35634 0
M  V30 7612 O 732.641 -0.376607 -1.79798 0
M  V30 7613 C 732.703 -3.5631 -0.477868 0
M  V30 7614 C 732.367 -4.52093 0.667925 0
M  V30 7615 C 733.364 -4.96421 1.54475 0
M  V30 7616 C 731.049 -4.95001 0.853168 0
M  V30 7617 C 733.043 -5.82346 2.59138 0
M  V30 7618 C 730.73 -5.80713 1.90305 0
M  V30 7619 C 731.728 -6.24284 2.77053 0
M  V30 7620 O 731.416 -7.08291 3.80236 0
M  V30 7621 H 731.148 -0.675986 -0.00427247 0
M  V30 7622 H 733.702 -1.95314 0.635738 0
M  V30 7623 H 731.932 -3.65163 -1.27252 0
M  V30 7624 H 733.621 -3.94138 -0.970039 0
M  V30 7625 H 734.387 -4.63953 1.41324 0
M  V30 7626 H 730.266 -4.60619 0.187482 0
M  V30 7627 H 733.81 -6.16276 3.2688 0
M  V30 7628 H 729.707 -6.12593 2.03469 0
M  V30 7629 H 730.475 -7.26504 3.77007 0
M  V30 7630 N 733.138 -0.185124 -1.56509 0
M  V30 7631 C 734.415 0.503348 -1.89013 0
M  V30 7632 C 734.795 1.80349 -1.09715 0
M  V30 7633 O 734.143 2.27665 -0.195203 0
M  V30 7634 C 734.353 0.731839 -3.41241 0
M  V30 7635 C 735.701 1.05568 -4.11267 0
M  V30 7636 O 736.725 0.819906 -3.46635 0
M  V30 7637 O 735.584 1.50116 -5.25478 0
M  V30 7638 H 732.678 0.261139 -0.784688 0
M  V30 7639 H 735.224 -0.224592 -1.68207 0
M  V30 7640 H 733.996 -0.18672 -3.90854 0
M  V30 7641 H 733.619 1.5126 -3.67704 0
M  V30 7642 N 734.616 1.57351 0.0885366 0
M  V30 7643 C 736.027 1.75303 0.642308 0
M  V30 7644 C 736.378 0.808238 1.78779 0
M  V30 7645 O 735.503 -0.01171 2.16397 0
M  V30 7646 C 736.098 3.17885 1.17194 0
M  V30 7647 C 734.657 3.37239 1.67172 0
M  V30 7648 C 733.804 2.7108 0.584045 0
M  V30 7649 H 736.755 1.58103 -0.137567 0
M  V30 7650 H 736.776 3.2112 2.04114 0
M  V30 7651 H 736.288 3.86625 0.338024 0
M  V30 7652 H 734.389 2.73588 2.52943 0
M  V30 7653 H 734.502 4.45594 1.76019 0
M  V30 7654 H 732.866 2.33161 1.02508 0
M  V30 7655 H 733.649 3.42464 -0.239403 0
M  V30 7656 N 736.094 -0.359525 1.53444 0
M  V30 7657 C 737.026 -1.46098 1.76602 0
M  V30 7658 C 738.039 -1.49395 0.646912 0
M  V30 7659 O 739.228 -1.52765 0.923307 0
M  V30 7660 C 736.328 -2.84836 1.83635 0
M  V30 7661 C 735.501 -3.05164 3.13358 0
M  V30 7662 C 734.56 -4.24051 3.11556 0
M  V30 7663 O 733.586 -4.18935 3.85334 0
M  V30 7664 N 734.788 -5.31775 2.328 0
M  V30 7665 H 737.553 -1.2661 2.71643 0
M  V30 7666 H 735.114 -0.549294 1.52297 0
M  V30 7667 H 737.106 -3.62516 1.799 0
M  V30 7668 H 735.676 -2.97542 0.958509 0
M  V30 7669 H 734.896 -2.15091 3.30348 0
M  V30 7670 H 736.184 -3.15619 3.99076 0
M  V30 7671 H 735.582 -5.38796 1.7238 0
M  V30 7672 H 734.139 -6.0801 2.34877 0
M  V30 7673 N 737.572 -1.44907 -0.619662 0
M  V30 7674 C 738.504 -1.48652 -1.74457 0
M  V30 7675 C 739.517 -0.378596 -1.58337 0
M  V30 7676 O 740.706 -0.644987 -1.6644 0
M  V30 7677 C 737.806 -1.31568 -3.12319 0
M  V30 7678 C 736.979 -2.55816 -3.54792 0
M  V30 7679 C 736.038 -2.33465 -4.71573 0
M  V30 7680 O 735.064 -3.07015 -4.79302 0
M  V30 7681 N 736.266 -1.37254 -5.6404 0
M  V30 7682 H 739.031 -2.45632 -1.71712 0
M  V30 7683 H 736.592 -1.40492 -0.804582 0
M  V30 7684 H 738.584 -1.14445 -3.88181 0
M  V30 7685 H 737.154 -0.429095 -3.09641 0
M  V30 7686 H 736.374 -2.88137 -2.69018 0
M  V30 7687 H 737.662 -3.38431 -3.79924 0
M  V30 7688 H 737.06 -0.765309 -5.60499 0
M  V30 7689 H 735.617 -1.26106 -6.39485 0
M  V30 7690 N 739.05 0.861098 -1.31996 0
M  V30 7691 C 740 1.95703 -1.1698 0
M  V30 7692 C 740.984 1.60709 -0.0784201 0
M  V30 7693 O 742.176 1.74365 -0.304262 0
M  V30 7694 C 739.305 3.31606 -0.888388 0
M  V30 7695 C 738.391 3.7284 -2.02117 0
M  V30 7696 N 738.782 3.85957 -3.26911 0
M  V30 7697 C 737.08 4.02419 -1.92289 0
M  V30 7698 C 737.781 4.21333 -4.01065 0
M  V30 7699 N 736.757 4.32502 -3.29307 0
M  V30 7700 H 740.559 2.03968 -2.11599 0
M  V30 7701 H 738.073 1.05245 -1.23682 0
M  V30 7702 H 740.07 4.09881 -0.761782 0
M  V30 7703 H 738.73 3.24662 0.0494898 0
M  V30 7704 H 739.741 3.70449 -3.61923 0
M  V30 7705 H 736.418 4.03814 -1.06022 0
M  V30 7706 H 737.808 4.39005 -5.08649 0
M  V30 7707 N 740.528 1.15101 1.07655 0
M  V30 7708 C 741.475 0.844958 2.14777 0
M  V30 7709 C 742.445 -0.200798 1.64882 0
M  V30 7710 O 743.63 -0.0690278 1.90675 0
M  V30 7711 C 740.77 0.337018 3.4345 0
M  V30 7712 C 739.883 1.44398 4.07153 0
M  V30 7713 C 739.018 0.892487 5.23649 0
M  V30 7714 C 738.057 1.9766 5.79307 0
M  V30 7715 N 737.194 1.44171 6.87138 0
M  V30 7716 H 742.034 1.76242 2.40297 0
M  V30 7717 H 739.571 0.879435 1.17917 0
M  V30 7718 H 741.529 0.024256 4.17193 0
M  V30 7719 H 740.159 -0.543531 3.18191 0
M  V30 7720 H 739.211 1.87299 3.31094 0
M  V30 7721 H 740.523 2.26262 4.4453 0
M  V30 7722 H 739.677 0.532083 6.04362 0
M  V30 7723 H 738.416 0.0429854 4.87681 0
M  V30 7724 H 737.421 2.34586 4.97242 0
M  V30 7725 H 738.646 2.82982 6.17331 0
M  V30 7726 H 736.592 0.614518 6.53115 0
M  V30 7727 H 736.509 2.19665 7.23383 0
M  V30 7728 H 737.777 1.10945 7.71564 0
M  V30 7729 N 742.006 -1.2595 0.947325 0
M  V30 7730 C 743.252 -1.9375 0.599064 0
M  V30 7731 C 743.585 -1.74088 -0.860632 0
M  V30 7732 O 742.86 -1.08158 -1.61654 0
M  V30 7733 C 743.143 -3.47353 0.949634 0
M  V30 7734 C 742.996 -3.76273 2.46452 0
M  V30 7735 C 744.315 -4.37589 0.469442 0
M  V30 7736 H 741.434 -0.703674 0.219115 0
M  V30 7737 H 744.076 -1.48705 1.18266 0
M  V30 7738 H 742.226 -3.8585 0.453008 0
M  V30 7739 H 743.898 -3.47455 3.03435 0
M  V30 7740 H 742.141 -3.22135 2.90537 0
M  V30 7741 H 742.812 -4.83664 2.66032 0
M  V30 7742 H 745.288 -4.06353 0.89534 0
M  V30 7743 H 744.164 -5.43841 0.7435 0
M  V30 7744 H 744.425 -4.37579 -0.630618 0
M  V30 7745 N 743.484 -0.715051 -1.40445 0
M  V30 7746 C 744.447 -0.0708726 -2.2909 0
M  V30 7747 C 745.447 0.687926 -1.45342 0
M  V30 7748 O 746.637 0.519908 -1.66261 0
M  V30 7749 C 743.769 0.909528 -3.28543 0
M  V30 7750 H 744.962 -0.851611 -2.87555 0
M  V30 7751 H 742.515 -0.479674 -1.48758 0
M  V30 7752 H 743.25 1.71734 -2.75096 0
M  V30 7753 H 743.035 0.368318 -3.90366 0
M  V30 7754 H 744.525 1.35744 -3.94922 0
M  V30 7755 N 744.962 1.50701 -0.461195 0
M  V30 7756 C 745.892 2.31182 0.328184 0
M  V30 7757 C 746.873 1.37644 0.999408 0
M  V30 7758 O 748.058 1.66565 0.99848 0
M  V30 7759 C 745.188 3.17113 1.41621 0
M  V30 7760 C 744.142 4.19124 0.867148 0
M  V30 7761 C 743.468 4.93728 2.05272 0
M  V30 7762 C 744.768 5.22174 -0.114808 0
M  V30 7763 H 746.462 2.97423 -0.343501 0
M  V30 7764 H 744.008 1.43033 -0.166641 0
M  V30 7765 H 745.961 3.72208 1.97584 0
M  V30 7766 H 744.685 2.48739 2.11652 0
M  V30 7767 H 743.344 3.65116 0.329557 0
M  V30 7768 H 742.992 4.21835 2.73978 0
M  V30 7769 H 742.692 5.62724 1.69161 0
M  V30 7770 H 744.216 5.51654 2.61744 0
M  V30 7771 H 745.63 5.72198 0.355316 0
M  V30 7772 H 744.027 5.98833 -0.389689 0
M  V30 7773 H 745.097 4.7353 -1.04391 0
M  V30 7774 N 746.441 0.193421 1.56409 0
M  V30 7775 C 747.371 -0.723334 2.22014 0
M  V30 7776 C 748.352 -1.22254 1.1827 0
M  V30 7777 O 749.537 -1.27168 1.46771 0
M  V30 7778 C 746.667 -1.94366 2.87818 0
M  V30 7779 C 745.621 -1.57943 3.97791 0
M  V30 7780 C 744.947 -2.87623 4.50752 0
M  V30 7781 C 746.247 -0.790639 5.16281 0
M  V30 7782 H 747.941 -0.176426 2.9888 0
M  V30 7783 H 745.487 -0.0834166 1.43758 0
M  V30 7784 H 747.44 -2.5902 3.32396 0
M  V30 7785 H 746.164 -2.51507 2.08355 0
M  V30 7786 H 744.823 -0.956482 3.53903 0
M  V30 7787 H 744.471 -3.4285 3.68053 0
M  V30 7788 H 744.171 -2.63998 5.24956 0
M  V30 7789 H 745.695 -3.53268 4.9803 0
M  V30 7790 H 747.109 -1.34024 5.57414 0
M  V30 7791 H 745.506 -0.65258 5.96541 0
M  V30 7792 H 746.576 0.208633 4.84451 0
M  V30 7793 N 747.919 -1.57396 -0.0801906 0
M  V30 7794 C 749.196 -1.77883 -0.813451 0
M  V30 7795 C 749.576 -0.778879 -1.96206 0
M  V30 7796 O 748.924 0.189683 -2.27711 0
M  V30 7797 C 749.134 -3.24116 -1.2942 0
M  V30 7798 C 750.482 -3.87714 -1.73098 0
M  V30 7799 O 751.506 -3.27956 -1.39007 0
M  V30 7800 O 750.365 -4.92828 -2.36184 0
M  V30 7801 H 747.459 -0.729727 -0.389138 0
M  V30 7802 H 750.005 -1.69591 -0.0609166 0
M  V30 7803 H 748.777 -3.88443 -0.471947 0
M  V30 7804 H 748.4 -3.371 -2.1083 0
M  V30 7805 N 749.397 0.351382 -1.53633 0
M  V30 7806 C 750.644 1.0925 -1.70502 0
M  V30 7807 C 750.972 1.88881 -0.464123 0
M  V30 7808 O 750.227 1.87693 0.554077 0
M  V30 7809 C 750.526 2.06744 -2.91533 0
M  V30 7810 C 750.192 1.43484 -4.27461 0
M  V30 7811 C 748.854 1.2596 -4.64422 0
M  V30 7812 C 751.206 0.978436 -5.11934 0
M  V30 7813 C 748.534 0.614017 -5.83478 0
M  V30 7814 C 750.886 0.346795 -6.31649 0
M  V30 7815 C 749.55 0.15917 -6.6731 0
M  V30 7816 H 748.82 0.399773 -0.623909 0
M  V30 7817 H 751.467 0.372656 -1.87839 0
M  V30 7818 H 749.772 2.85082 -2.68767 0
M  V30 7819 H 751.469 2.64066 -3.01778 0
M  V30 7820 H 748.059 1.5812 -3.98367 0
M  V30 7821 H 752.243 1.1017 -4.83918 0
M  V30 7822 H 747.499 0.457194 -6.09688 0
M  V30 7823 H 751.673 -0.0149864 -6.96398 0
M  V30 7824 H 749.3 -0.343129 -7.59425 0
M  V30 7825 N 750.875 1.45233 0.611969 0
M  V30 7826 C 752.123 1.48727 1.36838 0
M  V30 7827 C 752.444 0.128616 1.94575 0
M  V30 7828 O 751.714 -0.84149 1.76906 0
M  V30 7829 H 750.294 0.547695 0.507976 0
M  V30 7830 H 752.956 1.81156 0.718925 0
M  V30 7831 H 752.052 2.2236 2.19003 0
M  V30 7832 N 752.353 -0.854086 1.3245 0
M  V30 7833 C 753.316 -1.94427 1.21371 0
M  V30 7834 C 754.316 -1.60219 0.136613 0
M  V30 7835 O 755.506 -1.69846 0.387057 0
M  V30 7836 C 752.638 -3.29698 0.866701 0
M  V30 7837 H 753.831 -2.05679 2.18257 0
M  V30 7838 H 751.384 -1.04434 1.1629 0
M  V30 7839 H 752.119 -3.24145 -0.100319 0
M  V30 7840 H 751.904 -3.55903 1.64545 0
M  V30 7841 H 753.394 -4.09599 0.813515 0
M  V30 7842 N 753.831 -1.1567 -1.07043 0
M  V30 7843 C 755.059 -0.957471 -1.83412 0
M  V30 7844 C 755.474 0.494271 -1.82215 0
M  V30 7845 O 754.831 1.34288 -1.23584 0
M  V30 7846 C 754.882 -1.46784 -3.30359 0
M  V30 7847 O 754.603 -2.86271 -3.31633 0
M  V30 7848 C 756.104 -1.31054 -4.23485 0
M  V30 7849 H 753.324 -0.33986 -0.578564 0
M  V30 7850 H 755.868 -1.53518 -1.35102 0
M  V30 7851 H 754.023 -0.932586 -3.76007 0
M  V30 7852 H 754.437 -3.0948 -4.23465 0
M  V30 7853 H 755.911 -1.71605 -5.24648 0
M  V30 7854 H 756.388 -0.255107 -4.38458 0
M  V30 7855 H 756.994 -1.83503 -3.83676 0
M  V30 7856 N 755.309 1.25446 -0.953992 0
M  V30 7857 C 756.725 1.4539 -0.658316 0
M  V30 7858 C 756.925 1.85607 0.784356 0
M  V30 7859 O 755.981 1.98568 1.55972 0
M  V30 7860 C 757.294 2.52643 -1.6307 0
M  V30 7861 C 758.842 2.66484 -1.64181 0
M  V30 7862 C 759.317 3.76921 -2.60182 0
M  V30 7863 N 760.808 3.84331 -2.58542 0
M  V30 7864 C 761.543 4.69271 -3.29503 0
M  V30 7865 N 761.039 5.58503 -4.09934 0
M  V30 7866 N 762.832 4.6323 -3.18393 0
M  V30 7867 H 754.983 0.976337 -1.8863 0
M  V30 7868 H 757.246 0.490343 -0.811337 0
M  V30 7869 H 756.952 2.29949 -2.66114 0
M  V30 7870 H 756.826 3.50547 -1.39271 0
M  V30 7871 H 759.213 2.88545 -0.618552 0
M  V30 7872 H 759.294 1.68982 -1.92038 0
M  V30 7873 H 758.938 3.55612 -3.62633 0
M  V30 7874 H 758.868 4.73906 -2.29609 0
M  V30 7875 H 761.359 3.20544 -2.0015 0
M  V30 7876 H 761.672 6.20241 -4.61 0
M  V30 7877 H 760.017 5.58214 -4.14032 0
M  V30 7878 H 763.208 3.92527 -2.5503 0
M  V30 7879 H 763.381 5.29204 -3.73961 0
M  V30 7880 N 756.787 0.722489 1.40064 0
M  V30 7881 C 757.697 0.0755984 2.34478 0
M  V30 7882 C 758.713 -0.736046 1.57665 0
M  V30 7883 O 759.889 -0.667407 1.9002 0
M  V30 7884 C 756.954 -0.830075 3.36616 0
M  V30 7885 C 756.015 -0.00759884 4.29299 0
M  V30 7886 C 755.248 -0.870139 5.26559 0
M  V30 7887 O 755.471 -2.10921 5.2997 0
M  V30 7888 O 754.405 -0.305454 6.01124 0
M  V30 7889 H 758.231 0.854545 2.9143 0
M  V30 7890 H 755.816 0.483032 1.41376 0
M  V30 7891 H 757.698 -1.34864 3.99236 0
M  V30 7892 H 756.373 -1.58805 2.82069 0
M  V30 7893 H 755.28 0.556199 3.69942 0
M  V30 7894 H 756.613 0.712312 4.87018 0
M  V30 7895 N 758.265 -1.50454 0.469181 0
M  V30 7896 C 759.495 -2.06429 -0.0840913 0
M  V30 7897 C 759.903 -1.3334 -1.34227 0
M  V30 7898 O 759.246 -0.395656 -1.79389 0
M  V30 7899 C 759.308 -3.56797 -0.440049 0
M  V30 7900 C 758.972 -4.51359 0.715838 0
M  V30 7901 C 759.969 -4.94754 1.59732 0
M  V30 7902 C 757.654 -4.94069 0.905621 0
M  V30 7903 C 759.648 -5.79564 2.653 0
M  V30 7904 C 757.335 -5.78662 1.96453 0
M  V30 7905 C 758.333 -6.21311 2.83658 0
M  V30 7906 O 758.021 -7.04218 3.87727 0
M  V30 7907 H 757.753 -0.675994 0.00289751 0
M  V30 7908 H 760.307 -1.94629 0.656417 0
M  V30 7909 H 758.537 -3.66492 -1.23372 0
M  V30 7910 H 760.226 -3.95145 -0.928181 0
M  V30 7911 H 760.992 -4.62428 1.46237 0
M  V30 7912 H 756.871 -4.60394 0.236326 0
M  V30 7913 H 760.415 -6.12774 3.33398 0
M  V30 7914 H 756.312 -6.10401 2.09955 0
M  V30 7915 H 757.08 -7.22464 3.84692 0
M  V30 7916 N 759.743 -0.201713 -1.56304 0
M  V30 7917 C 761.02 0.483273 -1.89536 0
M  V30 7918 C 761.4 1.79176 -1.11621 0
M  V30 7919 O 760.748 2.27445 -0.219339 0
M  V30 7920 C 760.958 0.695604 -3.41998 0
M  V30 7921 C 762.306 1.012 -4.12364 0
M  V30 7922 O 763.33 0.783094 -3.47485 0
M  V30 7923 O 762.189 1.44534 -5.27041 0
M  V30 7924 H 759.283 0.252801 -0.787414 0
M  V30 7925 H 761.829 -0.24242 -1.6796 0
M  V30 7926 H 760.601 -0.228165 -3.90634 0
M  V30 7927 H 760.224 1.47351 -3.69288 0
M  V30 7928 N 761.222 1.57436 0.0718424 0
M  V30 7929 C 762.638 1.53792 0.426628 0
M  V30 7930 C 762.838 0.921887 1.79174 0
M  V30 7931 O 761.894 0.524374 2.46995 0
M  V30 7932 C 763.207 2.98443 0.367739 0
M  V30 7933 C 764.755 3.09778 0.447928 0
M  V30 7934 C 765.23 4.5608 0.418946 0
M  V30 7935 N 766.721 4.60716 0.479022 0
M  V30 7936 C 767.456 5.71397 0.47881 0
M  V30 7937 N 766.952 6.91443 0.433417 0
M  V30 7938 N 768.745 5.59639 0.525364 0
M  V30 7939 H 760.896 1.95848 -0.822033 0
M  V30 7940 H 763.159 0.896418 -0.308447 0
M  V30 7941 H 762.865 3.47072 -0.56865 0
M  V30 7942 H 762.739 3.58335 1.17795 0
M  V30 7943 H 765.126 2.61122 1.37474 0
M  V30 7944 H 765.207 2.52796 -0.390857 0
M  V30 7945 H 764.851 5.05393 -0.504016 0
M  V30 7946 H 764.781 5.10925 1.27526 0
M  V30 7947 H 767.272 3.74328 0.518355 0
M  V30 7948 H 767.585 7.71562 0.43718 0
M  V30 7949 H 765.93 6.93847 0.400106 0
M  V30 7950 H 769.121 4.64756 0.558519 0
M  V30 7951 H 769.294 6.45896 0.52173 0
M  V30 7952 N 762.7 -0.34323 1.53817 0
M  V30 7953 C 763.925 -1.1079 1.75329 0
M  V30 7954 C 764.35 -1.81571 0.491293 0
M  V30 7955 O 763.708 -1.72561 -0.556089 0
M  V30 7956 C 763.756 -2.09681 2.9337 0
M  V30 7957 O 762.86 -3.17207 2.63541 0
M  V30 7958 H 762.201 -0.320402 0.581583 0
M  V30 7959 H 764.731 -0.393525 2.0078 0
M  V30 7960 H 764.741 -2.52897 3.20168 0
M  V30 7961 H 763.416 -1.5756 3.84899 0
M  V30 7962 H 761.993 -2.78806 2.47632 0
M  V30 7963 N 764.178 -1.45556 -0.604258 0
M  V30 7964 C 765.425 -1.49746 -1.36317 0
M  V30 7965 C 765.753 -0.140516 -1.93992 0
M  V30 7966 O 765.008 0.861244 -1.7573 0
M  V30 7967 C 765.307 -2.52697 -2.52743 0
M  V30 7968 C 764.973 -3.97315 -2.13195 0
M  V30 7969 C 763.635 -4.36692 -2.02123 0
M  V30 7970 C 765.987 -4.88249 -1.8238 0
M  V30 7971 C 763.315 -5.64895 -1.58463 0
M  V30 7972 C 765.667 -6.16867 -1.40205 0
M  V30 7973 C 764.331 -6.55172 -1.27694 0
M  V30 7974 H 763.601 -0.54796 -0.49882 0
M  V30 7975 H 766.248 -1.7892 -0.682643 0
M  V30 7976 H 764.553 -2.17105 -3.26148 0
M  V30 7977 H 766.25 -2.53176 -3.10971 0
M  V30 7978 H 762.84 -3.66176 -2.22739 0
M  V30 7979 H 767.024 -4.58561 -1.89829 0
M  V30 7980 H 762.28 -5.93365 -1.47402 0
M  V30 7981 H 766.454 -6.86771 -1.15408 0
M  V30 7982 H 764.081 -7.54411 -0.936375 0
M  V30 7983 N 765.656 0.84705 -1.32902 0
M  V30 7984 C 766.884 1.63403 -1.26913 0
M  V30 7985 C 767.299 1.88108 0.161483 0
M  V30 7986 O 766.656 1.45546 1.10103 0
M  V30 7987 C 766.707 2.98896 -2.03331 0
M  V30 7988 O 766.428 2.75281 -3.40811 0
M  V30 7989 C 767.929 3.93335 -2.04457 0
M  V30 7990 H 765.149 0.508701 -0.437566 0
M  V30 7991 H 767.693 1.05567 -1.75145 0
M  V30 7992 H 765.848 3.53356 -1.58802 0
M  V30 7993 H 766.262 3.61504 -3.8002 0
M  V30 7994 H 767.736 4.85647 -2.62394 0
M  V30 7995 H 768.213 4.26885 -1.03274 0
M  V30 7996 H 768.819 3.44812 -2.48967 0
M  V30 7997 N 767.134 1.16236 1.06428 0
M  V30 7998 C 768.411 0.853294 1.76006 0
M  V30 7999 C 768.791 -0.649162 2.00871 0
M  V30 8000 O 768.139 -1.59653 1.63472 0
M  V30 8001 C 768.349 1.67448 3.06206 0
M  V30 8002 C 769.697 1.8866 3.80385 0
M  V30 8003 O 770.721 1.64303 3.16043 0
M  V30 8004 O 769.58 2.29518 4.95968 0
M  V30 8005 H 766.674 0.314737 0.764767 0
M  V30 8006 H 769.22 1.26865 1.12709 0
M  V30 8007 H 767.992 2.69411 2.83784 0
M  V30 8008 H 767.615 1.25608 3.77238 0
M  V30 8009 N 768.612 -1.24939 0.960631 0
M  V30 8010 C 769.542 -2.28 0.503815 0
M  V30 8011 C 770.523 -1.63959 -0.452928 0
M  V30 8012 O 771.708 -1.91009 -0.350585 0
M  V30 8013 C 768.838 -3.46643 -0.213535 0
M  V30 8014 C 767.792 -4.22903 0.658535 0
M  V30 8015 C 767.118 -5.34363 -0.189902 0
M  V30 8016 C 768.418 -4.84949 1.93963 0
M  V30 8017 H 770.112 -2.66462 1.36521 0
M  V30 8018 H 767.658 -1.28093 0.657897 0
M  V30 8019 H 769.611 -4.1787 -0.544286 0
M  V30 8020 H 768.335 -3.07187 -1.10923 0
M  V30 8021 H 766.994 -3.53467 0.972455 0
M  V30 8022 H 766.642 -4.91147 -1.08553 0
M  V30 8023 H 766.342 -5.86302 0.390331 0
M  V30 8024 H 767.866 -6.0842 -0.515484 0
M  V30 8025 H 769.28 -5.48288 1.67491 0
M  V30 8026 H 767.677 -5.47091 2.46601 0
M  V30 8027 H 768.747 -4.06799 2.639 0
M  V30 8028 N 770.09 -0.729906 -1.39679 0
M  V30 8029 C 771.32 -0.285295 -2.04621 0
M  V30 8030 C 771.728 1.08304 -1.55135 0
M  V30 8031 O 771.071 1.6946 -0.709146 0
M  V30 8032 C 771.133 -0.203129 -3.58926 0
M  V30 8033 C 770.797 -1.50909 -4.31365 0
M  V30 8034 C 771.794 -2.45381 -4.58349 0
M  V30 8035 C 769.479 -1.77198 -4.70007 0
M  V30 8036 C 771.473 -3.64379 -5.22979 0
M  V30 8037 C 769.16 -2.96474 -5.34365 0
M  V30 8038 C 770.158 -3.89886 -5.60783 0
M  V30 8039 O 769.846 -5.07069 -6.23808 0
M  V30 8040 H 769.578 -0.123373 -0.664647 0
M  V30 8041 H 772.132 -0.992901 -1.79807 0
M  V30 8042 H 770.362 0.560538 -3.82616 0
M  V30 8043 H 772.051 0.208811 -4.05363 0
M  V30 8044 H 772.817 -2.2634 -4.28947 0
M  V30 8045 H 768.696 -1.05337 -4.48804 0
M  V30 8046 H 772.24 -4.37307 -5.43515 0
M  V30 8047 H 768.137 -3.15419 -5.63188 0
M  V30 8048 H 768.905 -5.07335 -6.42303 0
M  V30 8049 N 771.568 1.50203 -0.477153 0
M  V30 8050 C 772.817 2.01551 0.0774548 0
M  V30 8051 C 773.13 1.36359 1.40234 0
M  V30 8052 O 774.336 1.78898 2.04225 0
M  V30 8053 C 772.792 3.59406 0.188539 0
M  V30 8054 C 772.4 4.3356 -1.12828 0
M  V30 8055 C 774.144 4.18776 0.694782 0
M  V30 8056 C 772.051 5.83213 -0.98066 0
M  V30 8057 H 770.981 0.75329 0.0327212 0
M  V30 8058 H 773.632 1.72959 -0.612969 0
M  V30 8059 H 772.014 3.84611 0.942881 0
M  V30 8060 H 773.188 4.20074 -1.89405 0
M  V30 8061 H 771.503 3.85827 -1.5661 0
M  V30 8062 H 774.1 5.28338 0.822356 0
M  V30 8063 H 774.443 3.80557 1.68766 0
M  V30 8064 H 774.976 3.978 -0.00234519 0
M  V30 8065 H 771.715 6.25914 -1.94709 0
M  V30 8066 H 771.235 5.99256 -0.255375 0
M  V30 8067 H 772.914 6.4373 -0.649717 0
M  V30 8068 N 773.046 0.209999 1.56195 0
M  V30 8069 C 773.978 -0.736967 2.17029 0
M  V30 8070 C 774.991 -1.16599 1.13616 0
M  V30 8071 O 776.18 -1.09914 1.40646 0
M  V30 8072 C 773.28 -2.00852 2.72969 0
M  V30 8073 C 772.453 -1.73691 4.01435 0
M  V30 8074 C 771.512 -2.85439 4.42053 0
M  V30 8075 O 770.538 -2.54405 5.09183 0
M  V30 8076 N 771.74 -4.14135 4.06783 0
M  V30 8077 H 774.505 -0.216656 2.98916 0
M  V30 8078 H 772.066 0.0285672 1.61875 0
M  V30 8079 H 774.058 -2.74778 2.97118 0
M  V30 8080 H 772.628 -2.43963 1.95451 0
M  V30 8081 H 771.848 -0.834676 3.85262 0
M  V30 8082 H 773.136 -1.52961 4.85263 0
M  V30 8083 H 772.534 -4.42196 3.52816 0
M  V30 8084 H 771.091 -4.84642 4.35851 0
M  V30 8085 N 774.524 -1.57472 -0.0634922 0
M  V30 8086 C 775.773 -1.86837 -0.759928 0
M  V30 8087 C 776.086 -0.803823 -1.7832 0
M  V30 8088 O 777.292 -0.985578 -2.52979 0
M  V30 8089 C 775.748 -3.31448 -1.4025 0
M  V30 8090 C 775.356 -4.46052 -0.417368 0
M  V30 8091 C 777.1 -3.70003 -2.08082 0
M  V30 8092 C 775.007 -5.81707 -1.06633 0
M  V30 8093 H 773.937 -0.697009 -0.287567 0
M  V30 8094 H 776.588 -1.83495 -0.0133914 0
M  V30 8095 H 774.97 -3.29427 -2.19759 0
M  V30 8096 H 776.144 -4.5948 0.348503 0
M  V30 8097 H 774.459 -4.16104 0.156955 0
M  V30 8098 H 777.056 -4.68653 -2.57426 0
M  V30 8099 H 777.399 -3.00226 -2.88393 0
M  V30 8100 H 777.932 -3.7405 -1.35394 0
M  V30 8101 H 774.671 -6.54798 -0.303374 0
M  V30 8102 H 774.191 -5.72064 -1.80286 0
M  V30 8103 H 775.87 -6.27317 -1.58376 0
M  V30 8104 N 776.003 0.335068 -1.53997 0
M  V30 8105 C 777.252 1.07182 -1.70865 0
M  V30 8106 C 777.565 1.89541 -0.483078 0
M  V30 8107 O 778.771 2.66219 -0.532879 0
M  V30 8108 C 777.227 1.95497 -3.02174 0
M  V30 8109 C 776.835 1.18304 -4.32097 0
M  V30 8110 C 778.579 2.68978 -3.28407 0
M  V30 8111 C 776.486 2.05699 -5.54474 0
M  V30 8112 H 775.416 0.403857 -0.636722 0
M  V30 8113 H 778.067 0.33076 -1.80494 0
M  V30 8114 H 776.449 2.73456 -2.86423 0
M  V30 8115 H 777.623 0.451969 -4.58578 0
M  V30 8116 H 775.938 0.565556 -4.12541 0
M  V30 8117 H 778.535 3.34651 -4.17029 0
M  V30 8118 H 778.878 3.36 -2.45784 0
M  V30 8119 H 779.411 1.98087 -3.44973 0
M  V30 8120 H 776.15 1.43204 -6.39666 0
M  V30 8121 H 775.67 2.76572 -5.32229 0
M  V30 8122 H 777.349 2.64554 -5.90441 0
M  V30 8123 N 777.481 1.45874 0.596531 0
M  V30 8124 C 778.897 1.30524 0.918459 0
M  V30 8125 C 779.097 0.266429 1.99731 0
M  V30 8126 O 778.153 -0.335809 2.50257 0
M  V30 8127 C 779.466 2.68747 1.3489 0
M  V30 8128 C 781.014 2.7673 1.46251 0
M  V30 8129 C 781.489 4.15504 1.92667 0
M  V30 8130 N 782.98 4.17853 1.99883 0
M  V30 8131 C 783.715 5.22109 2.37044 0
M  V30 8132 N 783.211 6.36704 2.73094 0
M  V30 8133 N 785.004 5.09471 2.37479 0
M  V30 8134 H 777.155 2.12081 -0.116368 0
M  V30 8135 H 779.418 0.947941 0.0106033 0
M  V30 8136 H 779.124 3.46006 0.630288 0
M  V30 8137 H 778.998 2.97942 2.31323 0
M  V30 8138 H 781.385 1.99768 2.17202 0
M  V30 8139 H 781.466 2.51236 0.481054 0
M  V30 8140 H 781.11 4.92956 1.223 0
M  V30 8141 H 781.04 4.38396 2.91747 0
M  V30 8142 H 783.531 3.35163 1.74568 0
M  V30 8143 H 783.844 7.12041 3.00362 0
M  V30 8144 H 782.189 6.40087 2.70764 0
M  V30 8145 H 785.38 4.18987 2.08728 0
M  V30 8146 H 785.553 5.90837 2.66112 0
M  V30 8147 N 778.959 -0.83999 1.33349 0
M  V30 8148 C 779.922 -1.93128 1.23426 0
M  V30 8149 C 780.922 -1.60065 0.153599 0
M  V30 8150 O 782.112 -1.69425 0.405049 0
M  V30 8151 C 779.244 -3.28761 0.901622 0
M  V30 8152 H 780.437 -2.03352 2.20427 0
M  V30 8153 H 777.99 -1.03194 1.17391 0
M  V30 8154 H 778.725 -3.24233 -0.0659337 0
M  V30 8155 H 778.51 -3.54138 1.68311 0
M  V30 8156 H 780 -4.08714 0.856913 0
M  V30 8157 N 780.437 -1.16799 -1.0581 0
M  V30 8158 C 781.4 -0.881396 -2.11575 0
M  V30 8159 C 782.4 0.12574 -1.60308 0
M  V30 8160 O 783.59 -0.105716 -1.73879 0
M  V30 8161 C 780.722 -0.319037 -3.39404 0
M  V30 8162 H 781.915 -1.81907 -2.38432 0
M  V30 8163 H 779.468 -0.977597 -1.21954 0
M  V30 8164 H 780.203 0.626082 -3.18199 0
M  V30 8165 H 779.988 -1.04481 -3.77923 0
M  V30 8166 H 781.478 -0.13663 -4.17376 0
M  V30 8167 N 781.915 1.24427 -0.967243 0
M  V30 8168 C 782.878 2.23637 -0.501927 0
M  V30 8169 C 783.878 1.55712 0.401283 0
M  V30 8170 O 785.068 1.73085 0.196808 0
M  V30 8171 C 782.2 3.39804 0.273176 0
M  V30 8172 H 783.393 2.66317 -1.37897 0
M  V30 8173 H 780.946 1.37033 -0.751783 0
M  V30 8174 H 781.681 3.02562 1.16733 0
M  V30 8175 H 781.466 3.90303 -0.37498 0
M  V30 8176 H 782.956 4.13443 0.587776 0
M  V30 8177 N 783.393 0.737304 1.3929 0
M  V30 8178 C 784.67 0.212464 1.94443 0
M  V30 8179 C 785.05 -1.28621 1.67391 0
M  V30 8180 O 784.398 -2.0529 1.00342 0
M  V30 8181 C 784.608 0.548565 3.44662 0
M  V30 8182 C 785.956 0.499177 4.21656 0
M  V30 8183 O 786.98 0.485892 3.5287 0
M  V30 8184 O 785.839 0.495739 5.44247 0
M  V30 8185 H 782.933 0.0395457 0.826054 0
M  V30 8186 H 785.479 0.816319 1.48776 0
M  V30 8187 H 784.251 1.58426 3.57795 0
M  V30 8188 H 783.874 -0.0841399 3.97511 0
M  V30 8189 N 784.871 -1.49948 0.485112 0
M  V30 8190 C 786.287 -1.58984 0.140096 0
M  V30 8191 C 786.487 -1.49194 -1.35438 0
M  V30 8192 O 785.543 -1.35765 -2.12894 0
M  V30 8193 C 786.856 -2.92372 0.702769 0
M  V30 8194 C 788.404 -3.05801 0.66745 0
M  V30 8195 C 788.879 -4.41785 1.20791 0
M  V30 8196 N 790.37 -4.48234 1.16792 0
M  V30 8197 C 791.105 -5.51871 1.55646 0
M  V30 8198 N 790.601 -6.62692 2.02016 0
M  V30 8199 N 792.394 -5.42494 1.47161 0
M  V30 8200 H 784.545 -1.54555 1.45693 0
M  V30 8201 H 786.808 -0.731206 0.603359 0
M  V30 8202 H 786.514 -3.05056 1.75025 0
M  V30 8203 H 786.388 -3.76885 0.154205 0
M  V30 8204 H 788.775 -2.92757 -0.371157 0
M  V30 8205 H 788.856 -2.23011 1.25298 0
M  V30 8206 H 788.5 -4.55579 2.24522 0
M  V30 8207 H 788.43 -5.23188 0.598464 0
M  V30 8208 H 790.921 -3.68718 0.827982 0
M  V30 8209 H 791.234 -7.3785 2.29775 0
M  V30 8210 H 789.579 -6.63775 2.05979 0
M  V30 8211 H 792.77 -4.54806 1.10765 0
M  V30 8212 H 792.943 -6.2314 1.77766 0
M  V30 8213 N 786.349 -0.21828 -1.56081 0
M  V30 8214 C 787.626 0.463143 -1.90038 0
M  V30 8215 C 788.006 1.77982 -1.13515 0
M  V30 8216 O 787.354 2.27199 -0.24345 0
M  V30 8217 C 787.564 0.659292 -3.42716 0
M  V30 8218 C 788.912 0.968203 -4.13414 0
M  V30 8219 O 789.936 0.746195 -3.48296 0
M  V30 8220 O 788.795 1.38936 -5.28544 0
M  V30 8221 H 785.889 0.244435 -0.790051 0
M  V30 8222 H 788.435 -0.260221 -1.67693 0
M  V30 8223 H 787.207 -0.269584 -3.9037 0
M  V30 8224 H 786.83 1.43426 -3.7083 0
M  V30 8225 N 787.827 1.57504 0.0551401 0
M  V30 8226 C 789.243 1.54236 0.410292 0
M  V30 8227 C 789.443 0.940839 1.78187 0
M  V30 8228 O 788.499 0.550541 2.46425 0
M  V30 8229 C 789.812 2.98816 0.336064 0
M  V30 8230 C 791.36 3.10236 0.415047 0
M  V30 8231 C 791.835 4.56499 0.37055 0
M  V30 8232 N 793.326 4.61199 0.43013 0
M  V30 8233 C 794.061 5.71873 0.418179 0
M  V30 8234 N 793.557 6.91864 0.360056 0
M  V30 8235 N 795.35 5.60165 0.465977 0
M  V30 8236 H 787.501 1.94965 -0.842759 0
M  V30 8237 H 789.764 0.893096 -0.317937 0
M  V30 8238 H 789.47 3.4645 -0.605429 0
M  V30 8239 H 789.344 3.59564 1.13988 0
M  V30 8240 H 791.731 2.62566 1.34697 0
M  V30 8241 H 791.812 2.52367 -0.417648 0
M  V30 8242 H 791.456 5.0483 -0.557592 0
M  V30 8243 H 791.386 5.12249 1.221 0
M  V30 8244 H 793.877 3.74857 0.478623 0
M  V30 8245 H 794.19 7.71983 0.35532 0
M  V30 8246 H 792.535 6.94233 0.326492 0
M  V30 8247 H 795.726 4.65322 0.509194 0
M  V30 8248 H 795.899 6.46413 0.453194 0
M  V30 8249 N 789.305 -0.326896 1.54172 0
M  V30 8250 C 790.215 -1.42525 1.86343 0
M  V30 8251 C 791.231 -1.56764 0.75505 0
M  V30 8252 O 792.407 -1.71924 1.04901 0
M  V30 8253 C 789.472 -2.77286 2.08119 0
M  V30 8254 C 788.533 -2.7225 3.31931 0
M  V30 8255 C 787.766 -4.00584 3.52659 0
M  V30 8256 O 787.989 -4.98686 2.76891 0
M  V30 8257 O 786.923 -4.04045 4.46129 0
M  V30 8258 H 790.749 -1.18249 2.79734 0
M  V30 8259 H 788.334 -0.520614 1.40036 0
M  V30 8260 H 790.216 -3.57065 2.23791 0
M  V30 8261 H 788.891 -3.01459 1.17917 0
M  V30 8262 H 787.798 -1.91033 3.21647 0
M  V30 8263 H 789.131 -2.53032 4.2218 0
M  V30 8264 N 790.784 -1.46188 -0.588786 0
M  V30 8265 C 792.012 -1.54743 -1.37339 0
M  V30 8266 C 792.427 -0.186446 -1.87877 0
M  V30 8267 O 791.784 0.815247 -1.63279 0
M  V30 8268 C 791.835 -2.54727 -2.56508 0
M  V30 8269 O 791.556 -3.85539 -2.08066 0
M  V30 8270 C 793.057 -2.73163 -3.49137 0
M  V30 8271 H 790.277 -0.523484 -0.419768 0
M  V30 8272 H 792.821 -1.91543 -0.716345 0
M  V30 8273 H 790.976 -2.20948 -3.18215 0
M  V30 8274 H 791.39 -4.39905 -2.85629 0
M  V30 8275 H 792.864 -3.47057 -4.2925 0
M  V30 8276 H 793.341 -1.79856 -4.00685 0
M  V30 8277 H 793.947 -3.08014 -2.9327 0
M  V30 8278 N 792.262 0.832906 -1.33792 0
M  V30 8279 C 793.508 1.59089 -1.25772 0
M  V30 8280 C 793.841 1.93414 0.174601 0
M  V30 8281 O 793.116 1.59195 1.11746 0
M  V30 8282 C 793.399 2.89699 -2.13885 0
M  V30 8283 C 793.252 2.62017 -3.65605 0
M  V30 8284 C 794.571 3.91182 -2.01654 0
M  V30 8285 H 791.69 0.577232 -0.458227 0
M  V30 8286 H 794.332 0.960227 -1.6395 0
M  V30 8287 H 792.482 3.4352 -1.81456 0
M  V30 8288 H 794.154 2.14582 -4.08353 0
M  V30 8289 H 792.397 1.95621 -3.87189 0
M  V30 8290 H 793.068 3.55112 -4.2261 0
M  V30 8291 H 795.544 3.46684 -2.30107 0
M  V30 8292 H 794.42 4.80391 -2.65548 0
M  V30 8293 H 794.681 4.30861 -0.990536 0
M  V30 8294 N 793.74 1.17359 1.05189 0
M  V30 8295 C 795.156 0.920861 1.30355 0
M  V30 8296 C 795.356 -0.419993 1.97074 0
M  V30 8297 O 794.412 -1.15696 2.24434 0
M  V30 8298 C 795.725 2.07818 2.1733 0
M  V30 8299 C 797.273 2.1152 2.30712 0
M  V30 8300 C 797.748 3.26637 3.21048 0
M  V30 8301 N 799.239 3.26426 3.28634 0
M  V30 8302 C 799.974 4.12141 3.98657 0
M  V30 8303 N 799.47 5.07966 4.71107 0
M  V30 8304 N 801.263 4.00091 3.94821 0
M  V30 8305 H 793.414 2.03666 0.602821 0
M  V30 8306 H 795.677 0.889294 0.328421 0
M  V30 8307 H 795.383 3.04727 1.75597 0
M  V30 8308 H 795.257 2.02922 3.17966 0
M  V30 8309 H 797.644 1.15196 2.71687 0
M  V30 8310 H 797.725 2.20477 1.29706 0
M  V30 8311 H 797.369 4.23227 2.80788 0
M  V30 8312 H 797.299 3.14917 4.2206 0
M  V30 8313 H 799.79 2.57045 2.77013 0
M  V30 8314 H 800.103 5.69766 5.22099 0
M  V30 8315 H 798.448 5.11936 4.7005 0
M  V30 8316 H 801.639 3.24523 3.37346 0
M  V30 8317 H 801.812 4.6711 4.49123 0
M  V30 8318 N 795.218 -1.23913 0.973828 0
M  V30 8319 C 796.181 -2.23367 0.51378 0
M  V30 8320 C 797.181 -1.55923 -0.39302 0
M  V30 8321 O 798.371 -1.73187 -0.187626 0
M  V30 8322 C 795.503 -3.39944 -0.255152 0
M  V30 8323 H 796.696 -2.65581 1.39307 0
M  V30 8324 H 794.249 -1.36632 0.759039 0
M  V30 8325 H 794.984 -3.03177 -1.15127 0
M  V30 8326 H 794.769 -3.90098 0.395673 0
M  V30 8327 H 796.259 -4.13749 -0.565842 0
M  V30 8328 N 796.696 -0.74468 -1.38897 0
M  V30 8329 C 797.643 -0.111064 -2.30533 0
M  V30 8330 C 798.613 0.719276 -1.49719 0
M  V30 8331 O 799.798 0.677244 -1.78376 0
M  V30 8332 C 796.938 0.78292 -3.36102 0
M  V30 8333 C 796.051 -0.0610817 -4.31957 0
M  V30 8334 C 795.186 0.835075 -5.24595 0
M  V30 8335 C 794.225 -0.0130974 -6.12099 0
M  V30 8336 N 793.362 0.839525 -6.97063 0
M  V30 8337 H 798.202 -0.898113 -2.84144 0
M  V30 8338 H 795.739 -0.454537 -1.39901 0
M  V30 8339 H 797.697 1.31578 -3.95908 0
M  V30 8340 H 796.327 1.53585 -2.83922 0
M  V30 8341 H 795.379 -0.711469 -3.73687 0
M  V30 8342 H 796.691 -0.716482 -4.93627 0
M  V30 8343 H 795.845 1.43542 -5.89475 0
M  V30 8344 H 794.584 1.52423 -4.63269 0
M  V30 8345 H 793.589 -0.626179 -5.46223 0
M  V30 8346 H 794.814 -0.699181 -6.75491 0
M  V30 8347 H 792.76 1.5138 -6.38295 0
M  V30 8348 H 792.677 0.240823 -7.55616 0
M  V30 8349 H 793.945 1.42513 -7.66362 0
M  V30 8350 N 798.174 1.49689 -0.493057 0
M  V30 8351 C 799.399 2.07331 0.0535114 0
M  V30 8352 C 799.824 1.35196 1.30781 0
M  V30 8353 O 799.182 0.406246 1.7669 0
M  V30 8354 C 799.23 3.59364 0.29825 0
M  V30 8355 O 798.334 3.88819 1.37454 0
M  V30 8356 H 797.675 0.663612 -0.0227018 0
M  V30 8357 H 800.205 1.926 -0.690402 0
M  V30 8358 H 800.215 4.04515 0.532159 0
M  V30 8359 H 798.89 4.1128 -0.618207 0
M  V30 8360 H 797.467 3.55487 1.12621 0
M  V30 8361 N 799.652 0.226554 1.55963 0
M  V30 8362 C 800.901 -0.40417 1.97609 0
M  V30 8363 C 801.214 -1.60541 1.1174 0
M  V30 8364 O 802.42 -2.30598 1.43307 0
M  V30 8365 C 800.876 -0.770466 3.51556 0
M  V30 8366 C 800.484 0.408244 4.46136 0
M  V30 8367 C 802.228 -1.36651 4.01904 0
M  V30 8368 C 800.135 0.0192347 5.91397 0
M  V30 8369 H 799.065 -0.15478 0.737943 0
M  V30 8370 H 801.716 0.323558 1.80625 0
M  V30 8371 H 800.098 -1.55575 3.6416 0
M  V30 8372 H 801.272 1.18575 4.45283 0
M  V30 8373 H 799.587 0.917859 4.06158 0
M  V30 8374 H 802.184 -1.67055 5.07934 0
M  V30 8375 H 802.527 -2.28403 3.48049 0
M  V30 8376 H 803.06 -0.644556 3.92543 0
M  V30 8377 H 799.799 0.90336 6.49245 0
M  V30 8378 H 799.319 -0.722485 5.95433 0
M  V30 8379 H 800.998 -0.405711 6.45727 0
M  V30 8380 N 801.13 -1.57531 -0.0467866 0
M  V30 8381 C 802.04 -2.08768 -1.07018 0
M  V30 8382 C 803.056 -1.02245 -1.40791 0
M  V30 8383 O 804.232 -1.33873 -1.50466 0
M  V30 8384 C 801.297 -2.54221 -2.35738 0
M  V30 8385 C 800.358 -3.75152 -2.08709 0
M  V30 8386 C 799.591 -4.18428 -3.31291 0
M  V30 8387 O 799.814 -3.61365 -4.4133 0
M  V30 8388 O 798.748 -5.11018 -3.18032 0
M  V30 8389 H 802.574 -2.96334 -0.664812 0
M  V30 8390 H 800.159 -1.47074 -0.262605 0
M  V30 8391 H 802.041 -2.83866 -3.11445 0
M  V30 8392 H 800.716 -1.69774 -2.75605 0
M  V30 8393 H 799.623 -3.50553 -1.30627 0
M  V30 8394 H 800.956 -4.60528 -1.73708 0
M  V30 8395 N 802.608 0.318715 -1.54344 0
M  V30 8396 C 803.541 1.41644 -1.7892 0
M  V30 8397 C 804.519 1.495 -0.639421 0
M  V30 8398 O 805.703 1.66835 -0.877404 0
M  V30 8399 C 802.83 2.79701 -1.9101 0
M  V30 8400 C 801.876 2.89354 -3.13331 0
M  V30 8401 S 802.709 2.53264 -4.71824 0
M  V30 8402 C 803.865 3.93384 -4.86826 0
M  V30 8403 H 804.098 1.20585 -2.71747 0
M  V30 8404 H 801.631 0.515828 -1.45529 0
M  V30 8405 H 803.589 3.59227 -1.98661 0
M  V30 8406 H 802.25 2.9804 -0.991516 0
M  V30 8407 H 801.443 3.90574 -3.1854 0
M  V30 8408 H 801.045 2.17805 -3.04035 0
M  V30 8409 H 803.337 4.88191 -4.69761 0
M  V30 8410 H 804.28 3.93156 -5.88926 0
M  V30 8411 H 804.688 3.82564 -4.15097 0
M  V30 8412 N 804.086 1.46499 0.581025 0
M  V30 8413 C 805.033 1.5719 1.68997 0
M  V30 8414 C 806.003 0.416114 1.60803 0
M  V30 8415 O 807.188 0.633086 1.79991 0
M  V30 8416 C 804.328 1.56973 3.07333 0
M  V30 8417 C 803.441 2.83298 3.26139 0
M  V30 8418 C 802.576 2.74574 4.54734 0
M  V30 8419 C 801.615 3.9583 4.66889 0
M  V30 8420 N 800.752 3.85482 5.86811 0
M  V30 8421 H 805.592 2.51914 1.59196 0
M  V30 8422 H 803.129 1.24975 0.775857 0
M  V30 8423 H 805.087 1.54832 3.87405 0
M  V30 8424 H 803.717 0.657803 3.16027 0
M  V30 8425 H 802.769 2.95411 2.3966 0
M  V30 8426 H 804.081 3.7316 3.30988 0
M  V30 8427 H 803.235 2.70548 5.43036 0
M  V30 8428 H 801.974 1.82354 4.52325 0
M  V30 8429 H 800.979 4.00186 3.77003 0
M  V30 8430 H 802.204 4.89148 4.71075 0
M  V30 8431 H 800.15 2.96051 5.85397 0
M  V30 8432 H 800.067 4.69002 5.92936 0
M  V30 8433 H 801.335 3.85434 6.7754 0
M  V30 8434 N 805.565 -0.825799 1.34232 0
M  V30 8435 C 806.812 -1.58185 1.26427 0
M  V30 8436 C 807.14 -1.93786 -0.166533 0
M  V30 8437 O 806.395 -1.59986 -1.12707 0
M  V30 8438 C 806.694 -2.89362 2.09772 0
M  V30 8439 C 806.36 -2.73066 3.58812 0
M  V30 8440 C 805.022 -2.68329 3.99441 0
M  V30 8441 C 807.374 -2.56946 4.53462 0
M  V30 8442 C 804.702 -2.4539 5.32917 0
M  V30 8443 C 807.054 -2.35538 5.87115 0
M  V30 8444 C 805.718 -2.29212 6.26912 0
M  V30 8445 H 804.988 -0.57884 0.462629 0
M  V30 8446 H 807.635 -0.955714 1.65947 0
M  V30 8447 H 805.94 -3.56251 1.63071 0
M  V30 8448 H 807.637 -3.4694 2.01081 0
M  V30 8449 H 804.227 -2.77591 3.26559 0
M  V30 8450 H 808.411 -2.59631 4.22972 0
M  V30 8451 H 803.667 -2.38947 5.62774 0
M  V30 8452 H 807.841 -2.22051 6.6005 0
M  V30 8453 H 805.468 -2.11197 7.30274 0
M  V30 8454 N 807.043 -1.17915 -1.04565 0
M  V30 8455 C 807.973 -0.925033 -2.14395 0
M  V30 8456 C 808.954 0.135375 -1.6956 0
M  V30 8457 O 810.139 -0.0161774 -1.94193 0
M  V30 8458 C 807.269 -0.444469 -3.44444 0
M  V30 8459 C 806.223 -1.44478 -4.02877 0
M  V30 8460 C 805.549 -0.821933 -5.28345 0
M  V30 8461 C 806.849 -2.81995 -4.39632 0
M  V30 8462 H 808.543 -1.84354 -2.35911 0
M  V30 8463 H 806.089 -0.887806 -1.13375 0
M  V30 8464 H 808.042 -0.254078 -4.20633 0
M  V30 8465 H 806.766 0.509592 -3.226 0
M  V30 8466 H 805.425 -1.62203 -3.28764 0
M  V30 8467 H 805.073 0.139161 -5.02807 0
M  V30 8468 H 804.773 -1.48976 -5.68401 0
M  V30 8469 H 806.297 -0.641959 -6.07216 0
M  V30 8470 H 807.711 -2.67952 -5.06828 0
M  V30 8471 H 806.108 -3.45414 -4.90723 0
M  V30 8472 H 807.178 -3.35927 -3.49687 0
M  V30 8473 N 808.521 1.23394 -0.980386 0
M  V30 8474 C 809.749 1.95844 -0.667286 0
M  V30 8475 C 810.164 1.72574 0.765735 0
M  V30 8476 O 809.521 1.01715 1.51526 0
M  V30 8477 C 809.572 3.48844 -0.948151 0
M  V30 8478 O 809.293 3.71325 -2.32485 0
M  V30 8479 C 810.794 4.38494 -0.651002 0
M  V30 8480 H 808.014 0.623535 -0.247882 0
M  V30 8481 H 810.558 1.56885 -1.31176 0
M  V30 8482 H 808.713 3.85819 -0.349681 0
M  V30 8483 H 809.127 4.65619 -2.41452 0
M  V30 8484 H 810.601 5.44648 -0.897887 0
M  V30 8485 H 811.078 4.37236 0.414922 0
M  V30 8486 H 811.684 4.07127 -1.22995 0
M  V30 8487 N 809.999 0.752036 1.385 0
M  V30 8488 C 811.247 0.306895 1.99756 0
M  V30 8489 C 811.568 -1.11478 1.59992 0
M  V30 8490 O 810.838 -1.76206 0.856045 0
M  V30 8491 H 809.418 0.11048 0.738785 0
M  V30 8492 H 812.08 0.965785 1.69289 0
M  V30 8493 H 811.176 0.368797 3.09913 0
M  V30 8494 N 811.477 -1.49425 0.500989 0
M  V30 8495 C 812.707 -2.06561 -0.0402858 0
M  V30 8496 C 813.115 -1.36157 -1.31369 0
M  V30 8497 O 812.458 -0.433618 -1.78509 0
M  V30 8498 C 812.52 -3.5765 -0.364269 0
M  V30 8499 C 812.184 -4.49739 0.811417 0
M  V30 8500 C 813.181 -4.91255 1.7019 0
M  V30 8501 C 810.866 -4.92036 1.01022 0
M  V30 8502 C 812.86 -5.73806 2.77534 0
M  V30 8503 C 810.547 -5.74364 2.08683 0
M  V30 8504 C 811.545 -6.15154 2.96774 0
M  V30 8505 O 811.233 -6.95836 4.02577 0
M  V30 8506 H 810.965 -0.67578 0.0172357 0
M  V30 8507 H 813.519 -1.93193 0.697553 0
M  V30 8508 H 811.749 -3.69026 -1.1557 0
M  V30 8509 H 813.438 -3.97025 -0.844156 0
M  V30 8510 H 814.204 -4.59222 1.56013 0
M  V30 8511 H 810.083 -4.59789 0.333929 0
M  V30 8512 H 813.627 -6.05564 3.4632 0
M  V30 8513 H 809.524 -6.0581 2.22855 0
M  V30 8514 H 810.292 -7.14142 3.9993 0
M  V30 8515 N 812.955 -0.234822 -1.55841 0
M  V30 8516 C 813.865 0.680828 -2.24504 0
M  V30 8517 C 814.881 1.20306 -1.25708 0
M  V30 8518 O 816.057 1.24188 -1.58554 0
M  V30 8519 C 813.122 1.86636 -2.92178 0
M  V30 8520 C 812.183 1.3848 -4.06352 0
M  V30 8521 C 811.416 2.51382 -4.70789 0
M  V30 8522 O 811.639 3.69831 -4.34259 0
M  V30 8523 O 810.573 2.21828 -5.59532 0
M  V30 8524 H 814.399 0.12583 -3.03439 0
M  V30 8525 H 811.984 -0.00381817 -1.494 0
M  V30 8526 H 813.866 2.55845 -3.34845 0
M  V30 8527 H 812.541 2.40921 -2.16192 0
M  V30 8528 H 811.448 0.660341 -3.68226 0
M  V30 8529 H 812.781 0.888177 -4.8412 0
M  V30 8530 N 814.433 1.57553 0.0384317 0
M  V30 8531 C 815.679 1.89121 0.732199 0
M  V30 8532 C 816.012 0.831404 1.75503 0
M  V30 8533 O 815.287 -0.154642 1.93884 0
M  V30 8534 C 815.57 3.31338 1.41021 0
M  V30 8535 C 815.423 4.48004 0.401532 0
M  V30 8536 C 816.742 3.72318 2.34665 0
M  V30 8537 H 813.861 0.687819 0.264715 0
M  V30 8538 H 816.503 1.89999 -0.00496279 0
M  V30 8539 H 814.653 3.3072 2.03854 0
M  V30 8540 H 816.325 4.60755 -0.224159 0
M  V30 8541 H 814.568 4.32895 -0.280092 0
M  V30 8542 H 815.239 5.44377 0.91423 0
M  V30 8543 H 817.715 3.74243 1.81883 0
M  V30 8544 H 816.591 4.72652 2.7909 0
M  V30 8545 H 816.852 3.04062 3.20934 0
M  V30 8546 N 815.911 -0.310526 1.54511 0
M  V30 8547 C 816.858 -1.38264 1.84802 0
M  V30 8548 C 817.828 -1.50808 0.696141 0
M  V30 8549 O 819.013 -1.6582 0.943846 0
M  V30 8550 C 816.153 -2.74422 2.09252 0
M  V30 8551 C 815.266 -2.70405 3.36906 0
M  V30 8552 C 814.401 -3.98495 3.51248 0
M  V30 8553 C 813.44 -3.88836 4.72729 0
M  V30 8554 N 812.577 -5.08683 4.83928 0
M  V30 8555 H 817.417 -1.11732 2.76261 0
M  V30 8556 H 814.954 -0.540609 1.36806 0
M  V30 8557 H 816.912 -3.53593 2.21422 0
M  V30 8558 H 815.542 -2.99235 1.2107 0
M  V30 8559 H 814.594 -1.83151 3.33406 0
M  V30 8560 H 815.906 -2.59155 4.26193 0
M  V30 8561 H 815.06 -4.861 3.63031 0
M  V30 8562 H 813.799 -4.12567 2.60077 0
M  V30 8563 H 812.804 -2.99615 4.60989 0
M  V30 8564 H 814.029 -3.76318 5.65298 0
M  V30 8565 H 811.975 -5.23236 3.95677 0
M  V30 8566 H 811.892 -4.99819 5.67201 0
M  V30 8567 H 813.16 -5.97966 5.00057 0
M  V30 8568 N 817.389 -1.46805 -0.573248 0
M  V30 8569 C 818.635 -1.5283 -1.33307 0
M  V30 8570 C 818.968 -0.183287 -1.93333 0
M  V30 8571 O 818.243 0.806354 -1.76998 0
M  V30 8572 C 818.526 -2.63414 -2.45531 0
M  V30 8573 C 818.379 -4.07478 -1.90478 0
M  V30 8574 C 819.698 -2.70014 -3.47535 0
M  V30 8575 H 816.817 -0.556371 -0.483343 0
M  V30 8576 H 819.459 -1.78787 -0.643066 0
M  V30 8577 H 817.609 -2.41412 -3.04389 0
M  V30 8578 H 819.281 -4.40795 -1.36004 0
M  V30 8579 H 817.524 -4.16511 -1.21248 0
M  V30 8580 H 818.195 -4.80598 -2.71531 0
M  V30 8581 H 820.671 -2.89817 -2.98572 0
M  V30 8582 H 819.547 -3.49192 -4.23504 0
M  V30 8583 H 819.808 -1.76436 -4.05367 0
M  V30 8584 N 818.867 0.818669 -1.34668 0
M  V30 8585 C 819.8 1.93516 -1.20941 0
M  V30 8586 C 820.778 1.62292 -0.100061 0
M  V30 8587 O 821.962 1.86614 -0.265983 0
M  V30 8588 C 819.089 3.27612 -0.859524 0
M  V30 8589 C 818.135 3.77794 -1.97923 0
M  V30 8590 S 818.968 3.97043 -3.59329 0
M  V30 8591 C 820.124 5.3406 -3.2639 0
M  V30 8592 H 820.357 2.04864 -2.15449 0
M  V30 8593 H 817.89 0.974716 -1.19744 0
M  V30 8594 H 819.848 4.05087 -0.664444 0
M  V30 8595 H 818.509 3.14028 0.0672835 0
M  V30 8596 H 817.702 4.74883 -1.68827 0
M  V30 8597 H 817.304 3.0728 -2.13202 0
M  V30 8598 H 819.596 6.17626 -2.78469 0
M  V30 8599 H 820.539 5.68143 -4.22634 0
M  V30 8600 H 820.947 4.99773 -2.62464 0
M  V30 8601 N 820.346 1.18468 1.03938 0
M  V30 8602 C 821.256 0.927889 2.1547 0
M  V30 8603 C 822.272 -0.108447 1.73662 0
M  V30 8604 O 823.448 0.0737636 2.01265 0
M  V30 8605 C 820.513 0.458494 3.43655 0
M  V30 8606 C 819.574 1.56295 3.99838 0
M  V30 8607 C 818.807 1.11586 5.21904 0
M  V30 8608 O 819.03 -0.0249057 5.70395 0
M  V30 8609 O 817.964 1.91412 5.70653 0
M  V30 8610 H 821.79 1.86116 2.39989 0
M  V30 8611 H 819.375 0.966607 1.13917 0
M  V30 8612 H 821.257 0.204861 4.20902 0
M  V30 8613 H 819.932 -0.446464 3.20606 0
M  V30 8614 H 818.839 1.87061 3.23974 0
M  V30 8615 H 820.172 2.44408 4.2723 0
M  V30 8616 N 821.824 -1.22873 0.986916 0
M  V30 8617 C 823.101 -1.86939 0.575589 0
M  V30 8618 C 823.481 -1.88656 -0.947205 0
M  V30 8619 O 822.829 -1.3728 -1.82665 0
M  V30 8620 C 823.039 -3.28117 1.18914 0
M  V30 8621 C 824.387 -4.04659 1.28593 0
M  V30 8622 O 825.411 -3.3736 1.14308 0
M  V30 8623 O 824.27 -5.25112 1.51391 0
M  V30 8624 H 821.364 -0.803748 0.194724 0
M  V30 8625 H 823.91 -1.30698 1.08241 0
M  V30 8626 H 822.682 -3.21468 2.231 0
M  V30 8627 H 822.305 -3.91956 0.667535 0
M  V30 8628 N 823.302 -0.75937 -1.38099 0
M  V30 8629 C 824.265 -0.14372 -2.28749 0
M  V30 8630 C 825.265 0.641338 -1.47457 0
M  V30 8631 O 826.455 0.466751 -1.67831 0
M  V30 8632 C 823.587 0.804545 -3.3127 0
M  V30 8633 H 824.78 -0.942663 -2.847 0
M  V30 8634 H 822.333 -0.526757 -1.47156 0
M  V30 8635 H 823.068 1.62895 -2.80421 0
M  V30 8636 H 822.853 0.243939 -3.9134 0
M  V30 8637 H 824.343 1.23111 -3.99041 0
M  V30 8638 N 824.78 1.49157 -0.508906 0
M  V30 8639 C 825.73 2.26215 0.284705 0
M  V30 8640 C 826.714 1.31401 0.928586 0
M  V30 8641 O 827.906 1.56073 0.834877 0
M  V30 8642 C 825.035 3.15906 1.34382 0
M  V30 8643 C 824.121 4.18186 0.705785 0
M  V30 8644 N 824.512 5.05419 -0.196214 0
M  V30 8645 C 822.81 4.35425 0.965457 0
M  V30 8646 C 823.511 5.78977 -0.562222 0
M  V30 8647 N 822.487 5.43553 0.0717389 0
M  V30 8648 H 826.289 2.91033 -0.409543 0
M  V30 8649 H 823.803 1.59104 -0.325508 0
M  V30 8650 H 825.8 3.6975 1.92589 0
M  V30 8651 H 824.46 2.52642 2.03966 0
M  V30 8652 H 825.471 5.14781 -0.567526 0
M  V30 8653 H 822.148 3.83363 1.65346 0
M  V30 8654 H 823.538 6.59192 -1.30062 0
M  V30 8655 N 826.258 0.243083 1.55714 0
M  V30 8656 C 827.188 -0.652336 2.24203 0
M  V30 8657 C 828.169 -1.1843 1.221 0
M  V30 8658 O 829.354 -1.22435 1.50743 0
M  V30 8659 C 826.484 -1.85111 2.93856 0
M  V30 8660 C 825.438 -1.45208 4.02615 0
M  V30 8661 C 824.764 -2.73137 4.59674 0
M  V30 8662 C 826.064 -0.625988 5.18535 0
M  V30 8663 H 827.758 -0.0812504 2.9929 0
M  V30 8664 H 825.304 -0.0376388 1.43951 0
M  V30 8665 H 827.257 -2.48314 3.40468 0
M  V30 8666 H 825.981 -2.44751 2.16251 0
M  V30 8667 H 824.64 -0.843406 3.56766 0
M  V30 8668 H 824.288 -3.30967 3.78774 0
M  V30 8669 H 823.988 -2.47163 5.33089 0
M  V30 8670 H 825.512 -3.37245 5.09017 0
M  V30 8671 H 826.926 -1.16223 5.61396 0
M  V30 8672 H 825.323 -0.462465 5.98315 0
M  V30 8673 H 826.393 0.362652 4.83542 0
M  V30 8674 N 827.736 -1.57571 -0.0300757 0
M  V30 8675 C 829.013 -1.80381 -0.756447 0
M  V30 8676 C 829.393 -0.840906 -1.93628 0
M  V30 8677 O 828.741 0.117143 -2.282 0
M  V30 8678 C 828.951 -3.2807 -1.19043 0
M  V30 8679 C 830.299 -3.93025 -1.60676 0
M  V30 8680 O 831.323 -3.32213 -1.28503 0
M  V30 8681 O 830.182 -5.00092 -2.20386 0
M  V30 8682 H 827.276 -0.741737 -0.365725 0
M  V30 8683 H 829.822 -1.69699 -0.00693177 0
M  V30 8684 H 828.594 -3.89748 -0.348128 0
M  V30 8685 H 828.217 -3.43637 -1.99999 0
M  V30 8686 N 829.214 0.302327 -1.54673 0
M  V30 8687 C 830.177 1.35592 -1.8479 0
M  V30 8688 C 831.177 1.43743 -0.72073 0
M  V30 8689 O 832.367 1.43402 -0.989017 0
M  V30 8690 C 829.499 2.74091 -2.02699 0
M  V30 8691 H 830.692 1.10132 -2.78946 0
M  V30 8692 H 828.245 0.538926 -1.46715 0
M  V30 8693 H 828.98 3.04775 -1.10826 0
M  V30 8694 H 828.765 2.69565 -2.8474 0
M  V30 8695 H 830.255 3.50272 -2.27374 0
M  V30 8696 N 830.692 1.47107 0.565454 0
M  V30 8697 C 831.941 1.5257 1.31929 0
M  V30 8698 C 832.254 0.189092 1.94684 0
M  V30 8699 O 833.46 0.121657 2.71227 0
M  V30 8700 C 831.916 2.68914 2.39193 0
M  V30 8701 C 831.524 4.09069 1.82665 0
M  V30 8702 C 833.268 2.83663 3.1581 0
M  V30 8703 C 831.175 5.16726 2.87661 0
M  V30 8704 H 830.105 0.567869 0.496025 0
M  V30 8705 H 832.756 1.73361 0.60151 0
M  V30 8706 H 831.138 2.41486 3.13848 0
M  V30 8707 H 832.312 4.46364 1.14438 0
M  V30 8708 H 830.627 3.99135 1.1866 0
M  V30 8709 H 833.224 3.61261 3.94201 0
M  V30 8710 H 833.567 1.91804 3.69482 0
M  V30 8711 H 834.1 3.10821 2.48265 0
M  V30 8712 H 830.839 6.10433 2.38854 0
M  V30 8713 H 830.359 4.83957 3.54324 0
M  V30 8714 H 832.038 5.43319 3.51303 0
M  V30 8715 N 832.17 -0.811516 1.35101 0
M  V30 8716 C 833.1 -1.9378 1.30275 0
M  V30 8717 C 834.081 -1.69165 0.178075 0
M  V30 8718 O 835.266 -1.90599 0.372256 0
M  V30 8719 C 832.396 -3.30439 1.06899 0
M  V30 8720 C 831.35 -3.69523 2.15955 0
M  V30 8721 C 830.676 -5.0429 1.77751 0
M  V30 8722 C 831.976 -3.80419 3.57881 0
M  V30 8723 H 833.67 -1.98075 2.24514 0
M  V30 8724 H 831.216 -0.951586 1.08078 0
M  V30 8725 H 833.169 -4.08828 1.02164 0
M  V30 8726 H 831.893 -3.26473 0.0910462 0
M  V30 8727 H 830.552 -2.93416 2.19778 0
M  V30 8728 H 830.2 -4.96823 0.785876 0
M  V30 8729 H 829.9 -5.31411 2.5075 0
M  V30 8730 H 831.424 -5.85125 1.74533 0
M  V30 8731 H 832.838 -4.49051 3.56407 0
M  V30 8732 H 831.235 -4.19005 4.29598 0
M  V30 8733 H 832.305 -2.82105 3.94391 0
M  V30 8734 N 833.648 -1.19017 -1.03309 0
M  V30 8735 C 834.897 -0.984542 -1.76039 0
M  V30 8736 C 835.21 0.485937 -1.89468 0
M  V30 8737 O 836.416 0.810278 -2.59127 0
M  V30 8738 C 834.872 -1.71261 -3.1654 0
M  V30 8739 C 834.48 -3.22291 -3.11179 0
M  V30 8740 C 836.224 -1.59007 -3.93595 0
M  V30 8741 C 834.131 -3.87704 -4.46587 0
M  V30 8742 H 833.061 -0.364749 -0.659905 0
M  V30 8743 H 835.712 -1.4247 -1.15649 0
M  V30 8744 H 834.094 -1.20025 -3.77373 0
M  V30 8745 H 835.268 -3.80611 -2.59753 0
M  V30 8746 H 833.583 -3.34772 -2.47622 0
M  V30 8747 H 836.18 -2.05232 -4.93745 0
M  V30 8748 H 836.523 -0.543534 -4.12736 0
M  V30 8749 H 837.056 -2.07564 -3.39355 0
M  V30 8750 H 833.795 -4.92437 -4.3265 0
M  V30 8751 H 833.315 -3.34172 -4.98085 0
M  V30 8752 H 834.994 -3.91008 -5.15482 0
M  V30 8753 N 835.127 1.22348 -0.993418 0
M  V30 8754 C 836.057 2.26584 -0.564088 0
M  V30 8755 C 837.038 1.65102 0.409298 0
M  V30 8756 O 838.223 1.91872 0.299819 0
M  V30 8757 C 835.353 3.47087 0.121554 0
M  V30 8758 C 834.307 4.21009 -0.770429 0
M  V30 8759 C 833.633 5.34678 0.0481586 0
M  V30 8760 C 834.933 4.79636 -2.06752 0
M  V30 8761 H 836.627 2.62749 -1.43538 0
M  V30 8762 H 834.173 1.26303 -0.691628 0
M  V30 8763 H 836.126 4.19166 0.433303 0
M  V30 8764 H 834.85 3.1002 1.0274 0
M  V30 8765 H 833.509 3.50764 -1.06583 0
M  V30 8766 H 833.157 4.93852 0.954933 0
M  V30 8767 H 832.857 5.85061 -0.545641 0
M  V30 8768 H 834.381 6.09573 0.353991 0
M  V30 8769 H 835.795 5.43654 -1.81969 0
M  V30 8770 H 834.192 5.4036 -2.61019 0
M  V30 8771 H 835.262 3.99659 -2.74592 0
M  V30 8772 N 836.605 0.766683 1.37694 0
M  V30 8773 C 837.853 0.328065 1.9942 0
M  V30 8774 C 838.174 -1.09775 1.61166 0
M  V30 8775 O 837.444 -1.75288 0.874686 0
M  V30 8776 H 836.024 0.11831 0.737572 0
M  V30 8777 H 838.686 0.983686 1.68255 0
M  V30 8778 H 837.782 0.401647 3.09505 0
M  V30 8779 N 838.083 -1.48885 0.516809 0
M  V30 8780 C 838.993 -2.33185 -0.257293 0
M  V30 8781 C 840.009 -1.4565 -0.951952 0
M  V30 8782 O 841.185 -1.78651 -0.929834 0
M  V30 8783 C 838.25 -3.21465 -1.29851 0
M  V30 8784 C 837.311 -4.24863 -0.615608 0
M  V30 8785 C 836.544 -5.08925 -1.60722 0
M  V30 8786 O 836.767 -4.9475 -2.83863 0
M  V30 8787 O 835.701 -5.90737 -1.15384 0
M  V30 8788 H 839.527 -3.00596 0.433131 0
M  V30 8789 H 837.112 -1.46792 0.277908 0
M  V30 8790 H 838.994 -3.76108 -1.90055 0
M  V30 8791 H 837.669 -2.5673 -1.97158 0
M  V30 8792 H 836.576 -3.74091 0.0265829 0
M  V30 8793 H 837.909 -4.92198 0.0152871 0
M  V30 8794 N 839.561 -0.251338 -1.55583 0
M  V30 8795 C 840.524 0.63305 -2.20284 0
M  V30 8796 C 841.524 1.09941 -1.17344 0
M  V30 8797 O 842.714 1.00341 -1.42399 0
M  V30 8798 C 839.846 1.8706 -2.84993 0
M  V30 8799 H 841.039 0.0684846 -2.99822 0
M  V30 8800 H 838.592 -0.00181653 -1.563 0
M  V30 8801 H 839.327 2.47629 -2.09405 0
M  V30 8802 H 839.112 1.54436 -3.60405 0
M  V30 8803 H 840.602 2.50004 -3.34496 0
M  V30 8804 N 841.039 1.57585 0.0217189 0
M  V30 8805 C 842.286 1.89606 0.711045 0
M  V30 8806 C 842.614 0.849535 1.74966 0
M  V30 8807 O 841.869 -0.14856 1.95135 0
M  V30 8808 C 842.168 3.28377 1.41079 0
M  V30 8809 C 841.834 4.48035 0.507454 0
M  V30 8810 C 840.496 4.80504 0.258672 0
M  V30 8811 C 842.848 5.21071 -0.115793 0
M  V30 8812 C 840.176 5.83393 -0.622013 0
M  V30 8813 C 842.528 6.24897 -0.984224 0
M  V30 8814 C 841.192 6.55836 -1.2424 0
M  V30 8815 H 840.462 0.693817 0.26019 0
M  V30 8816 H 843.109 1.91478 -0.0291424 0
M  V30 8817 H 841.414 3.22528 2.22448 0
M  V30 8818 H 843.111 3.50404 1.94982 0
M  V30 8819 H 839.701 4.22653 0.711516 0
M  V30 8820 H 843.885 4.96259 0.0634327 0
M  V30 8821 H 839.141 6.05736 -0.830267 0
M  V30 8822 H 843.315 6.8063 -1.47363 0
M  V30 8823 H 840.942 7.35383 -1.92653 0
M  V30 8824 N 842.517 -0.29412 1.54831 0
M  V30 8825 C 843.48 -1.3461 1.85507 0
M  V30 8826 C 844.48 -1.43359 0.728343 0
M  V30 8827 O 845.67 -1.42875 0.996609 0
M  V30 8828 C 842.802 -2.73012 2.0415 0
M  V30 8829 H 843.995 -1.08651 2.79526 0
M  V30 8830 H 841.548 -0.531138 1.46999 0
M  V30 8831 H 842.283 -3.04183 1.12441 0
M  V30 8832 H 842.068 -2.68051 2.86166 0
M  V30 8833 H 843.558 -3.49061 2.29229 0
M  V30 8834 N 843.995 -1.47404 -0.557645 0
M  V30 8835 C 845.22 -1.57868 -1.34508 0
M  V30 8836 C 845.645 -0.229151 -1.86699 0
M  V30 8837 O 845.003 0.794908 -1.62944 0
M  V30 8838 C 845.051 -2.60712 -2.49122 0
M  V30 8839 O 844.155 -2.15952 -3.51338 0
M  V30 8840 H 843.496 -0.530335 -0.399551 0
M  V30 8841 H 846.026 -1.93181 -0.673954 0
M  V30 8842 H 846.036 -2.81118 -2.95697 0
M  V30 8843 H 844.711 -3.58701 -2.10491 0
M  V30 8844 H 843.288 -2.05644 -3.11071 0
M  V30 8845 N 845.473 0.80434 -1.35529 0
M  V30 8846 C 846.75 1.5486 -1.1949 0
M  V30 8847 C 847.13 2.09897 0.22506 0
M  V30 8848 O 846.478 1.92643 1.22886 0
M  V30 8849 C 846.688 2.65535 -2.26478 0
M  V30 8850 C 848.036 3.33814 -2.62399 0
M  V30 8851 O 849.06 2.75807 -2.25409 0
M  V30 8852 O 847.919 4.38612 -3.26009 0
M  V30 8853 H 845.013 0.68433 -0.464351 0
M  V30 8854 H 847.559 0.844107 -1.47217 0
M  V30 8855 H 846.331 2.22754 -3.21709 0
M  V30 8856 H 845.954 3.43617 -2.00033 0
M  V30 8857 N 846.951 1.19563 1.02676 0
M  V30 8858 C 847.861 0.950691 2.14474 0
M  V30 8859 C 848.877 -0.0900219 1.73767 0
M  V30 8860 O 850.053 0.0951063 2.01175 0
M  V30 8861 C 847.118 0.494917 3.43149 0
M  V30 8862 C 846.179 1.60527 3.98158 0
M  V30 8863 C 845.412 1.17115 5.20692 0
M  V30 8864 O 845.635 0.0355937 5.70389 0
M  V30 8865 O 844.569 1.97454 5.68591 0
M  V30 8866 H 848.395 1.88651 2.38001 0
M  V30 8867 H 845.98 0.978635 1.12885 0
M  V30 8868 H 847.862 0.249492 4.20661 0
M  V30 8869 H 846.537 -0.412434 3.21062 0
M  V30 8870 H 845.444 1.90487 3.21971 0
M  V30 8871 H 846.777 2.48925 4.24614 0
M  V30 8872 N 848.429 -1.21819 0.999893 0
M  V30 8873 C 849.84 -1.72517 0.713775 0
M  V30 8874 C 850.191 -1.80505 -0.768922 0
M  V30 8875 O 849.316 -1.45611 -1.60083 0
M  V30 8876 C 849.911 -3.13321 1.28901 0
M  V30 8877 C 848.47 -3.61396 1.05212 0
M  V30 8878 C 847.617 -2.39074 1.40494 0
M  V30 8879 H 850.568 -1.07068 1.17141 0
M  V30 8880 H 850.589 -3.74535 0.671084 0
M  V30 8881 H 850.101 -3.07475 2.36814 0
M  V30 8882 H 848.202 -3.72599 -0.0100732 0
M  V30 8883 H 848.315 -4.47145 1.72042 0
M  V30 8884 H 846.679 -2.41015 0.823642 0
M  V30 8885 H 847.462 -2.35884 2.49427 0
M  V30 8886 N 849.908 -0.773975 -1.37286 0
M  V30 8887 C 851.155 -0.339306 -1.99637 0
M  V30 8888 C 851.483 1.08478 -1.61439 0
M  V30 8889 O 850.738 1.7612 -0.853252 0
M  V30 8890 C 851.037 -0.432651 -3.54772 0
M  V30 8891 C 850.703 -1.81531 -4.12744 0
M  V30 8892 C 849.365 -2.19366 -4.2829 0
M  V30 8893 C 851.717 -2.72137 -4.44512 0
M  V30 8894 C 849.045 -3.47239 -4.72908 0
M  V30 8895 C 851.397 -3.99421 -4.90556 0
M  V30 8896 C 850.061 -4.37298 -5.04308 0
M  V30 8897 H 849.331 -0.124161 -0.730524 0
M  V30 8898 H 851.978 -0.988432 -1.64019 0
M  V30 8899 H 850.283 0.30001 -3.9065 0
M  V30 8900 H 851.98 -0.0776 -4.00925 0
M  V30 8901 H 848.57 -1.51126 -4.01072 0
M  V30 8902 H 852.754 -2.44165 -4.32084 0
M  V30 8903 H 848.01 -3.76477 -4.81742 0
M  V30 8904 H 852.184 -4.69756 -5.14104 0
M  V30 8905 H 849.811 -5.36442 -5.38641 0
M  V30 8906 N 851.386 1.48609 -0.524698 0
M  V30 8907 C 852.663 1.95454 0.075465 0
M  V30 8908 C 853.043 1.46682 1.51814 0
M  V30 8909 O 852.391 0.690975 2.17802 0
M  V30 8910 C 852.601 3.48981 -0.0363273 0
M  V30 8911 C 853.949 4.24414 0.125624 0
M  V30 8912 O 854.973 3.5618 0.0377239 0
M  V30 8913 O 853.832 5.45625 0.309104 0
M  V30 8914 H 850.926 0.822902 0.0822256 0
M  V30 8915 H 853.472 1.59153 -0.588921 0
M  V30 8916 H 852.244 3.77185 -1.04149 0
M  V30 8917 H 851.867 3.91963 0.667146 0
M  V30 8918 N 852.864 0.259585 1.55447 0
M  V30 8919 C 854.111 -0.361607 1.99245 0
M  V30 8920 C 854.439 -1.57017 1.14787 0
M  V30 8921 O 853.694 -1.94658 0.201724 0
M  V30 8922 C 853.993 -0.802727 3.48269 0
M  V30 8923 C 853.659 0.299472 4.49904 0
M  V30 8924 C 852.321 0.602157 4.77418 0
M  V30 8925 C 854.673 1.04295 5.10658 0
M  V30 8926 C 852.001 1.65217 5.62957 0
M  V30 8927 C 854.353 2.08257 5.97337 0
M  V30 8928 C 853.017 2.39177 6.23178 0
M  V30 8929 H 852.287 -0.132322 0.72909 0
M  V30 8930 H 854.934 0.370059 1.8789 0
M  V30 8931 H 853.239 -1.61381 3.5702 0
M  V30 8932 H 854.936 -1.29385 3.79553 0
M  V30 8933 H 851.526 0.0534256 4.28567 0
M  V30 8934 H 855.71 0.822358 4.89439 0
M  V30 8935 H 850.966 1.89692 5.81229 0
M  V30 8936 H 855.14 2.6635 6.43452 0
M  V30 8937 H 852.767 3.20677 6.89253 0
M  V30 8938 N 854.342 -1.57594 -0.0133615 0
M  V30 8939 C 855.59 -1.89605 -0.699596 0
M  V30 8940 C 855.911 -0.85926 -1.75048 0
M  V30 8941 O 855.181 0.105112 -1.95618 0
M  V30 8942 H 853.761 -0.699776 -0.261385 0
M  V30 8943 H 856.423 -1.94885 0.0244044 0
M  V30 8944 H 855.519 -2.88962 -1.17928 0
M  V30 8945 N 855.82 0.285905 -1.54985 0
M  V30 8946 C 857.048 1.03776 -1.78992 0
M  V30 8947 C 857.463 1.80402 -0.556814 0
M  V30 8948 O 856.82 1.76242 0.473801 0
M  V30 8949 C 856.871 2.0065 -3.00702 0
M  V30 8950 O 856.592 1.27131 -4.19249 0
M  V30 8951 C 858.093 2.87753 -3.37214 0
M  V30 8952 H 855.313 0.307126 -0.596586 0
M  V30 8953 H 857.857 0.3206 -2.01971 0
M  V30 8954 H 856.012 2.67847 -2.79887 0
M  V30 8955 H 856.426 1.92316 -4.8797 0
M  V30 8956 H 857.9 3.51548 -4.2558 0
M  V30 8957 H 858.377 3.56848 -2.56039 0
M  V30 8958 H 858.983 2.26065 -3.60242 0
M  V30 8959 N 857.298 1.47698 0.54982 0
M  V30 8960 C 858.23 1.56806 1.67166 0
M  V30 8961 C 859.243 0.453709 1.5635 0
M  V30 8962 O 860.432 0.723663 1.63173 0
M  V30 8963 C 857.532 1.4632 3.05686 0
M  V30 8964 C 856.705 2.72452 3.42182 0
M  V30 8965 C 855.764 2.55698 4.59897 0
M  V30 8966 O 854.79 3.29534 4.64108 0
M  V30 8967 N 855.992 1.64009 5.56849 0
M  V30 8968 H 858.757 2.53545 1.59797 0
M  V30 8969 H 856.318 1.44171 0.736635 0
M  V30 8970 H 858.31 1.32835 3.82279 0
M  V30 8971 H 856.88 0.57634 3.07241 0
M  V30 8972 H 856.1 3.00644 2.54964 0
M  V30 8973 H 857.388 3.56172 3.63344 0
M  V30 8974 H 856.786 1.03186 5.5621 0
M  V30 8975 H 855.343 1.56473 6.3274 0
M  V30 8976 N 858.776 -0.797141 1.35954 0
M  V30 8977 C 860.001 -1.59097 1.33053 0
M  V30 8978 C 860.426 -1.87897 -0.0874592 0
M  V30 8979 O 859.784 -1.47291 -1.05712 0
M  V30 8980 C 859.832 -2.89346 2.152 0
M  V30 8981 O 858.936 -3.826 1.5392 0
M  V30 8982 H 858.277 -0.482895 0.45575 0
M  V30 8983 H 860.807 -0.988633 1.79129 0
M  V30 8984 H 860.817 -3.38686 2.27499 0
M  V30 8985 H 859.492 -2.6771 3.18283 0
M  V30 8986 H 858.069 -3.41174 1.50516 0
M  V30 8987 N 860.254 -1.20106 -1.0204 0
M  V30 8988 C 861.482 -1.0344 -1.79186 0
M  V30 8989 C 861.897 0.416542 -1.84148 0
M  V30 8990 O 861.254 1.28925 -1.29168 0
M  V30 8991 C 861.305 -1.60663 -3.23836 0
M  V30 8992 O 861.026 -3.00079 -3.19193 0
M  V30 8993 C 862.527 -1.48897 -4.17546 0
M  V30 8994 H 859.747 -0.364093 -0.563629 0
M  V30 8995 H 862.291 -1.5911 -1.28469 0
M  V30 8996 H 860.446 -1.09122 -3.71714 0
M  V30 8997 H 860.86 -3.27162 -4.09958 0
M  V30 8998 H 862.334 -1.93703 -5.16898 0
M  V30 8999 H 862.811 -0.440843 -4.36982 0
M  V30 9000 H 863.417 -1.9961 -3.75547 0
M  V30 9001 N 861.732 1.21287 -1.00634 0
M  V30 9002 C 862.96 1.94385 -0.708678 0
M  V30 9003 C 863.375 1.7416 0.728957 0
M  V30 9004 O 862.732 1.04906 1.49335 0
M  V30 9005 C 862.783 3.46755 -1.02193 0
M  V30 9006 O 862.504 3.6631 -2.40309 0
M  V30 9007 C 864.005 4.37014 -0.743867 0
M  V30 9008 H 861.225 0.618136 -0.261052 0
M  V30 9009 H 863.769 1.54067 -1.34475 0
M  V30 9010 H 861.924 3.8499 -0.431441 0
M  V30 9011 H 862.338 4.60393 -2.51274 0
M  V30 9012 H 863.812 5.42621 -1.01321 0
M  V30 9013 H 864.289 4.38017 0.322084 0
M  V30 9014 H 864.895 4.04426 -1.31603 0
M  V30 9015 N 863.21 0.781244 1.36873 0
M  V30 9016 C 864.12 0.174981 2.33947 0
M  V30 9017 C 865.136 -0.668512 1.60645 0
M  V30 9018 O 866.312 -0.586213 1.9268 0
M  V30 9019 C 863.377 -0.686557 3.39834 0
M  V30 9020 C 862.438 0.174489 4.28945 0
M  V30 9021 C 861.671 -0.646024 5.29776 0
M  V30 9022 O 861.894 -1.88254 5.38439 0
M  V30 9023 O 860.828 -0.0502214 6.01879 0
M  V30 9024 H 864.654 0.977382 2.87543 0
M  V30 9025 H 862.239 0.542559 1.392 0
M  V30 9026 H 864.121 -1.1781 4.04597 0
M  V30 9027 H 862.796 -1.46699 2.8855 0
M  V30 9028 H 861.703 0.712604 3.6725 0
M  V30 9029 H 863.036 0.918232 4.83559 0
M  V30 9030 N 864.689 -1.48329 0.532571 0
M  V30 9031 C 865.636 -2.29663 -0.228779 0
M  V30 9032 C 866.606 -1.37529 -0.931401 0
M  V30 9033 O 867.791 -1.66493 -0.931921 0
M  V30 9034 C 864.931 -3.20955 -1.26814 0
M  V30 9035 C 864.044 -4.28168 -0.574099 0
M  V30 9036 C 863.179 -5.06638 -1.59661 0
M  V30 9037 C 862.218 -6.05651 -0.88618 0
M  V30 9038 N 861.355 -6.77169 -1.85436 0
M  V30 9039 H 866.195 -2.94255 0.47098 0
M  V30 9040 H 863.732 -1.45061 0.2441 0
M  V30 9041 H 865.69 -3.72285 -1.88307 0
M  V30 9042 H 864.32 -2.58281 -1.93625 0
M  V30 9043 H 863.372 -3.80085 0.154827 0
M  V30 9044 H 864.684 -4.98797 -0.0163984 0
M  V30 9045 H 863.838 -5.61995 -2.28576 0
M  V30 9046 H 862.577 -4.35854 -2.18821 0
M  V30 9047 H 861.582 -5.49495 -0.182981 0
M  V30 9048 H 862.807 -6.78434 -0.300659 0
M  V30 9049 H 860.753 -6.09134 -2.43499 0
M  V30 9050 H 860.67 -7.43882 -1.34816 0
M  V30 9051 H 861.938 -7.37114 -2.53541 0
M  V30 9052 N 866.167 -0.267825 -1.55308 0
M  V30 9053 C 867.416 0.351635 -1.98611 0
M  V30 9054 C 867.729 1.57522 -1.15957 0
M  V30 9055 O 868.935 2.26717 -1.49371 0
M  V30 9056 C 867.391 0.676986 -3.53475 0
M  V30 9057 C 866.999 -0.526385 -4.44897 0
M  V30 9058 C 868.743 1.25948 -4.05386 0
M  V30 9059 C 866.65 -0.176026 -5.91138 0
M  V30 9060 H 865.58 0.13516 -0.741787 0
M  V30 9061 H 868.231 -0.371333 -1.79704 0
M  V30 9062 H 866.613 1.45866 -3.68156 0
M  V30 9063 H 867.787 -1.30339 -4.41982 0
M  V30 9064 H 866.102 -1.02522 -4.03582 0
M  V30 9065 H 868.699 1.53529 -5.12184 0
M  V30 9066 H 869.042 2.19094 -3.53982 0
M  V30 9067 H 869.575 0.540253 -3.94114 0
M  V30 9068 H 866.314 -1.07518 -6.46622 0
M  V30 9069 H 865.834 0.564363 -5.97139 0
M  V30 9070 H 867.513 0.234365 -6.46575 0
M  V30 9071 N 867.645 1.57599 0.00500368 0
M  V30 9072 C 868.595 2.04585 1.00643 0
M  V30 9073 C 869.579 0.939622 1.30614 0
M  V30 9074 O 870.771 1.20342 1.29796 0
M  V30 9075 C 867.9 2.5486 2.30002 0
M  V30 9076 C 866.986 3.7235 2.03017 0
M  V30 9077 N 867.377 4.84218 1.46173 0
M  V30 9078 C 865.675 3.80185 2.33185 0
M  V30 9079 C 866.376 5.65688 1.35544 0
M  V30 9080 N 865.352 5.11536 1.83933 0
M  V30 9081 H 869.154 2.8849 0.561332 0
M  V30 9082 H 866.668 1.61026 0.210808 0
M  V30 9083 H 868.665 2.86794 3.0258 0
M  V30 9084 H 867.325 1.72372 2.75169 0
M  V30 9085 H 868.336 5.0517 1.1412 0
M  V30 9086 H 865.013 3.08543 2.81261 0
M  V30 9087 H 866.403 6.65588 0.918791 0
M  V30 9088 N 869.123 -0.277682 1.55134 0
M  V30 9089 C 870.071 -1.36305 1.88478 0
M  V30 9090 C 871.065 -1.51362 0.760654 0
M  V30 9091 O 872.271 -1.53202 0.944943 0
M  V30 9092 H 868.646 -0.45577 0.598146 0
M  V30 9093 H 870.617 -1.05431 2.79154 0
M  V30 9094 C 869.366 -2.71739 2.16918 0
M  V30 9095 H 868.689 -2.60942 3.02901 0
M  V30 9096 H 870.129 -3.46635 2.44172 0
M  V30 9097 C 868.588 -3.22476 0.975239 0
M  V30 9098 O 869.118 -4.01164 0.207497 0
M  V30 9099 N 867.324 -2.80097 0.774219 0
M  V30 9100 H 866.871 -2.16221 1.40022 0
M  V30 9101 H 866.829 -3.14392 -0.023021 0
M  V30 9102 N 870.601 -1.47988 -0.541979 0
M  V30 9103 C 871.531 -1.64503 -1.65713 0
M  V30 9104 C 872.512 -0.494116 -1.62765 0
M  V30 9105 O 873.697 -0.725256 -1.80149 0
M  V30 9106 C 870.827 -1.67337 -3.04328 0
M  V30 9107 C 869.781 -2.81809 -3.2213 0
M  V30 9108 C 869.107 -2.69724 -4.61685 0
M  V30 9109 C 870.407 -4.23241 -3.06046 0
M  V30 9110 H 872.101 -2.5786 -1.52147 0
M  V30 9111 H 869.647 -1.24094 -0.730529 0
M  V30 9112 H 871.6 -1.77481 -3.82202 0
M  V30 9113 H 870.324 -0.705514 -3.18889 0
M  V30 9114 H 868.983 -2.71201 -2.46669 0
M  V30 9115 H 868.631 -1.70934 -4.73065 0
M  V30 9116 H 868.331 -3.4653 -4.74543 0
M  V30 9117 H 869.855 -2.81818 -5.41674 0
M  V30 9118 H 871.269 -4.34746 -3.73723 0
M  V30 9119 H 869.666 -5.00952 -3.30405 0
M  V30 9120 H 870.736 -4.40543 -2.02609 0
M  V30 9121 N 872.079 0.78992 -1.36375 0
M  V30 9122 C 873.328 1.54296 -1.29906 0
M  V30 9123 C 873.641 1.95234 0.119651 0
M  V30 9124 O 874.847 2.69762 0.306708 0
M  V30 9125 C 873.303 2.78533 -2.27919 0
M  V30 9126 C 872.911 2.44767 -3.75224 0
M  V30 9127 C 874.655 3.56516 -2.30427 0
M  V30 9128 C 872.562 3.65397 -4.65015 0
M  V30 9129 H 871.492 0.579214 -0.482729 0
M  V30 9130 H 874.143 0.866845 -1.61735 0
M  V30 9131 H 872.525 3.47941 -1.89084 0
M  V30 9132 H 873.699 1.83259 -4.22792 0
M  V30 9133 H 872.014 1.79996 -3.75487 0
M  V30 9134 H 874.611 4.46143 -2.94722 0
M  V30 9135 H 874.954 3.95063 -1.31266 0
M  V30 9136 H 875.487 2.94087 -2.67876 0
M  V30 9137 H 872.226 3.31946 -5.65236 0
M  V30 9138 H 871.746 4.26072 -4.22164 0
M  V30 9139 H 873.425 4.32431 -4.81261 0
M  V30 9140 N 873.557 1.20646 1.01402 0
M  V30 9141 C 874.968 1.01823 1.56489 0
M  V30 9142 C 875.319 -0.42463 1.9155 0
M  V30 9143 O 874.444 -1.30644 1.72514 0
M  V30 9144 C 875.039 1.84208 2.84347 0
M  V30 9145 C 873.598 1.69743 3.35953 0
M  V30 9146 C 872.745 1.8198 2.09233 0
M  V30 9147 H 875.696 1.348 0.837539 0
M  V30 9148 H 875.717 1.34698 3.55861 0
M  V30 9149 H 875.229 2.89215 2.58798 0
M  V30 9150 H 873.33 0.673833 3.66456 0
M  V30 9151 H 873.443 2.51173 4.07981 0
M  V30 9152 H 871.807 1.25193 2.21808 0
M  V30 9153 H 872.59 2.88477 1.86107 0
M  V30 9154 N 875.035 -1.20752 1.01276 0
M  V30 9155 C 876.281 -1.90302 0.700924 0
M  V30 9156 C 876.614 -1.78406 -0.767142 0
M  V30 9157 O 875.889 -1.16575 -1.55694 0
M  V30 9158 C 876.172 -3.41831 1.13242 0
M  V30 9159 C 876.025 -3.6268 2.66051 0
M  V30 9160 C 877.344 -4.34486 0.700738 0
M  V30 9161 H 874.463 -0.69107 0.256107 0
M  V30 9162 H 877.105 -1.42227 1.25982 0
M  V30 9163 H 875.255 -3.82906 0.656902 0
M  V30 9164 H 876.927 -3.30882 3.21426 0
M  V30 9165 H 875.17 -3.06281 3.07204 0
M  V30 9166 H 875.841 -4.68882 2.91296 0
M  V30 9167 H 878.317 -4.01036 1.10948 0
M  V30 9168 H 877.193 -5.39136 1.03073 0
M  V30 9169 H 877.454 -4.40307 -0.39778 0
M  V30 9170 N 876.513 -0.788492 -1.36457 0
M  V30 9171 C 877.446 -0.132189 -2.27817 0
M  V30 9172 C 878.424 0.691166 -1.47179 0
M  V30 9173 O 879.608 0.662344 -1.7648 0
M  V30 9174 C 876.735 0.818386 -3.28664 0
M  V30 9175 C 875.781 0.0769392 -4.26431 0
M  V30 9176 S 876.614 -1.24666 -5.20786 0
M  V30 9177 C 877.77 -0.300063 -6.2518 0
M  V30 9178 H 878.003 -0.906824 -2.83132 0
M  V30 9179 H 875.536 -0.582666 -1.42984 0
M  V30 9180 H 877.494 1.36138 -3.87268 0
M  V30 9181 H 876.155 1.56626 -2.72263 0
M  V30 9182 H 875.348 0.79819 -4.97639 0
M  V30 9183 H 874.95 -0.395547 -3.71902 0
M  V30 9184 H 877.242 0.521434 -6.7549 0
M  V30 9185 H 878.185 -0.980808 -7.01274 0
M  V30 9186 H 878.593 0.0961898 -5.64418 0
M  V30 9187 N 877.991 1.48044 -0.54043 0
M  V30 9188 C 878.921 2.32597 0.205178 0
M  V30 9189 C 879.902 1.42748 0.925041 0
M  V30 9190 O 881.087 1.71624 0.908784 0
M  V30 9191 C 878.217 3.24175 1.24612 0
M  V30 9192 C 877.171 4.23131 0.64376 0
M  V30 9193 C 876.497 5.03915 1.78812 0
M  V30 9194 C 877.797 5.20831 -0.39144 0
M  V30 9195 H 879.491 2.95184 -0.500676 0
M  V30 9196 H 877.037 1.41948 -0.242225 0
M  V30 9197 H 878.99 3.82158 1.77576 0
M  V30 9198 H 877.714 2.59608 1.98169 0
M  V30 9199 H 876.373 3.66349 0.135554 0
M  V30 9200 H 876.021 4.35765 2.51232 0
M  V30 9201 H 875.721 5.709 1.39094 0
M  V30 9202 H 877.245 5.64753 2.32134 0
M  V30 9203 H 878.659 5.73277 0.0515064 0
M  V30 9204 H 877.056 5.95926 -0.706569 0
M  V30 9205 H 878.126 4.6733 -1.29345 0
M  V30 9206 N 879.47 0.276058 1.55163 0
M  V30 9207 C 880.886 -0.0780579 1.59409 0
M  V30 9208 C 881.086 -1.54521 1.29327 0
M  V30 9209 O 880.142 -2.29422 1.05459 0
M  V30 9210 C 881.455 0.297422 2.99225 0
M  V30 9211 C 883.003 0.244117 3.12047 0
M  V30 9212 C 883.478 0.594051 4.54131 0
M  V30 9213 N 884.969 0.54564 4.59975 0
M  V30 9214 C 885.704 0.789192 5.67943 0
M  V30 9215 N 885.2 1.09741 6.84053 0
M  V30 9216 N 886.993 0.717926 5.57496 0
M  V30 9217 H 879.144 1.23251 1.72982 0
M  V30 9218 H 881.407 0.497988 0.806667 0
M  V30 9219 H 881.113 1.31782 3.26077 0
M  V30 9220 H 880.987 -0.361286 3.75466 0
M  V30 9221 H 883.374 -0.766992 2.84958 0
M  V30 9222 H 883.455 0.937097 2.38017 0
M  V30 9223 H 883.099 1.60285 4.81945 0
M  V30 9224 H 883.029 -0.120728 5.26462 0
M  V30 9225 H 885.52 0.317334 3.76565 0
M  V30 9226 H 885.833 1.26989 7.62295 0
M  V30 9227 H 884.178 1.13519 6.85666 0
M  V30 9228 H 887.369 0.47697 4.65664 0
M  V30 9229 H 887.542 0.911118 6.41563 0
M  V30 9230 N 880.948 -1.576 0.00335426 0
M  V30 9231 C 881.898 -2.05116 -0.995562 0
M  V30 9232 C 882.882 -0.946535 -1.30113 0
M  V30 9233 O 884.074 -1.21028 -1.29156 0
M  V30 9234 C 881.203 -2.56077 -2.28648 0
M  V30 9235 C 880.289 -3.73422 -2.0104 0
M  V30 9236 N 880.68 -4.84986 -1.43603 0
M  V30 9237 C 878.978 -3.81416 -2.31166 0
M  V30 9238 C 879.679 -5.66399 -1.32542 0
M  V30 9239 N 878.655 -5.12505 -1.81218 0
M  V30 9240 H 882.457 -2.88783 -0.546025 0
M  V30 9241 H 879.971 -1.61135 -0.202265 0
M  V30 9242 H 881.968 -2.88395 -3.01055 0
M  V30 9243 H 880.628 -1.73829 -2.74251 0
M  V30 9244 H 881.639 -5.05768 -1.11439 0
M  V30 9245 H 878.316 -3.1003 -2.7962 0
M  V30 9246 H 879.706 -6.66066 -0.88348 0
M  V30 9247 N 882.426 0.269451 -1.5528 0
M  V30 9248 C 883.842 0.616827 -1.47199 0
M  V30 9249 C 884.042 1.89354 -0.68901 0
M  V30 9250 O 883.098 2.51631 -0.209287 0
M  V30 9251 C 884.411 0.740492 -2.9144 0
M  V30 9252 C 885.959 0.834312 -3.01676 0
M  V30 9253 C 886.434 0.989725 -4.47178 0
M  V30 9254 N 887.925 1.05516 -4.51022 0
M  V30 9255 C 888.66 1.19427 -5.60825 0
M  V30 9256 N 888.156 1.30035 -6.80487 0
M  V30 9257 N 889.949 1.22566 -5.48575 0
M  V30 9258 H 882.1 -0.568962 -2.04638 0
M  V30 9259 H 884.363 -0.193153 -0.928114 0
M  V30 9260 H 884.069 -0.127234 -3.5147 0
M  V30 9261 H 883.943 1.61965 -3.40657 0
M  V30 9262 H 886.33 1.6925 -2.4174 0
M  V30 9263 H 886.411 -0.0695298 -2.55705 0
M  V30 9264 H 886.055 0.136179 -5.07717 0
M  V30 9265 H 885.985 1.90827 -4.90808 0
M  V30 9266 H 888.476 0.985434 -3.64825 0
M  V30 9267 H 888.789 1.40494 -7.59922 0
M  V30 9268 H 887.134 1.27033 -6.83292 0
M  V30 9269 H 890.325 1.13911 -4.54029 0
M  V30 9270 H 890.498 1.33063 -6.34191 0
M  V30 9271 N 883.904 1.48273 0.534124 0
M  V30 9272 C 884.834 1.6538 1.64839 0
M  V30 9273 C 885.815 0.502741 1.62501 0
M  V30 9274 O 887 0.734799 1.79762 0
M  V30 9275 C 884.13 1.68949 3.03436 0
M  V30 9276 C 883.084 2.83513 3.20631 0
M  V30 9277 C 882.41 2.72169 4.60248 0
M  V30 9278 C 883.71 4.24858 3.03797 0
M  V30 9279 H 885.404 2.58663 1.50777 0
M  V30 9280 H 882.95 1.24479 0.723937 0
M  V30 9281 H 884.903 1.79505 3.81256 0
M  V30 9282 H 883.627 0.722415 3.1851 0
M  V30 9283 H 882.286 2.72505 2.45227 0
M  V30 9284 H 881.934 1.7344 4.72152 0
M  V30 9285 H 881.634 3.49042 4.72698 0
M  V30 9286 H 883.158 2.84687 5.40172 0
M  V30 9287 H 884.572 4.36721 3.71413 0
M  V30 9288 H 882.969 5.02697 3.27743 0
M  V30 9289 H 884.039 4.41611 2.0027 0
M  V30 9290 N 885.382 -0.782676 1.36792 0
M  V30 9291 C 886.628 -1.54311 1.3159 0
M  V30 9292 C 886.961 -1.93928 -0.102696 0
M  V30 9293 O 886.236 -1.63233 -1.05761 0
M  V30 9294 C 886.519 -2.81561 2.24489 0
M  V30 9295 C 886.372 -2.48268 3.75078 0
M  V30 9296 C 887.691 -3.83428 2.16034 0
M  V30 9297 H 884.81 -0.559828 0.479335 0
M  V30 9298 H 887.452 -0.898717 1.67401 0
M  V30 9299 H 885.602 -3.36549 1.9408 0
M  V30 9300 H 887.274 -1.99279 4.16036 0
M  V30 9301 H 885.517 -1.81116 3.94182 0
M  V30 9302 H 886.188 -3.39183 4.35499 0
M  V30 9303 H 888.664 -3.37905 2.42815 0
M  V30 9304 H 887.54 -4.70204 2.83194 0
M  V30 9305 H 887.801 -4.26887 1.14976 0
M  V30 9306 N 886.86 -1.21182 -1.00761 0
M  V30 9307 C 888.271 -1.02652 -1.55947 0
M  V30 9308 C 888.622 0.414466 -1.91772 0
M  V30 9309 O 887.747 1.29727 -1.73204 0
M  V30 9310 C 888.342 -1.85713 -2.83366 0
M  V30 9311 C 886.901 -1.71523 -3.35048 0
M  V30 9312 C 886.048 -1.83087 -2.08265 0
M  V30 9313 H 888.999 -1.35242 -0.830379 0
M  V30 9314 H 889.02 -1.36583 -3.55141 0
M  V30 9315 H 888.532 -2.90584 -2.5726 0
M  V30 9316 H 886.633 -0.693257 -3.66094 0
M  V30 9317 H 886.746 -2.53333 -4.06644 0
M  V30 9318 H 885.11 -1.26367 -2.21141 0
M  V30 9319 H 885.893 -2.8946 -1.84575 0
M  V30 9320 N 888.338 1.20213 -1.01915 0
M  V30 9321 C 889.749 1.7136 -0.741131 0
M  V30 9322 C 890.1 1.81705 0.740107 0
M  V30 9323 O 889.225 1.48139 1.57746 0
M  V30 9324 C 889.82 3.11231 -1.33869 0
M  V30 9325 C 888.379 3.59677 -1.10948 0
M  V30 9326 C 887.526 2.36809 -1.4428 0
M  V30 9327 H 890.477 1.05191 -1.1883 0
M  V30 9328 H 890.498 3.7342 -0.730585 0
M  V30 9329 H 890.01 3.03669 -2.41675 0
M  V30 9330 H 888.111 3.72568 -0.0492052 0
M  V30 9331 H 888.224 4.44351 -1.79134 0
M  V30 9332 H 886.588 2.39674 -0.861881 0
M  V30 9333 H 887.371 2.31886 -2.53148 0
M  V30 9334 N 889.816 0.795718 1.36037 0
M  V30 9335 C 891.227 0.433379 1.816 0
M  V30 9336 C 891.578 -1.04341 1.66155 0
M  V30 9337 O 890.703 -1.81004 1.18603 0
M  V30 9338 C 891.298 0.77985 3.29703 0
M  V30 9339 C 889.857 0.470256 3.73451 0
M  V30 9340 C 889.004 1.01119 2.58206 0
M  V30 9341 H 891.955 0.988317 1.24169 0
M  V30 9342 H 891.976 0.0732898 3.80429 0
M  V30 9343 H 891.488 1.85473 3.40913 0
M  V30 9344 H 889.589 -0.596332 3.67797 0
M  V30 9345 H 889.702 0.995276 4.68648 0
M  V30 9346 H 888.066 0.434077 2.50974 0
M  V30 9347 H 888.849 2.09196 2.72198 0
M  V30 9348 N 891.294 -1.47756 0.548274 0
M  V30 9349 C 892.204 -2.33678 -0.207773 0
M  V30 9350 C 893.22 -1.47636 -0.920843 0
M  V30 9351 O 894.396 -1.80583 -0.89173 0
M  V30 9352 C 891.461 -3.24147 -1.23003 0
M  V30 9353 C 890.522 -4.26073 -0.52535 0
M  V30 9354 C 889.755 -5.12219 -1.4989 0
M  V30 9355 O 889.978 -5.0066 -2.73305 0
M  V30 9356 O 888.912 -5.93051 -1.02828 0
M  V30 9357 H 892.738 -2.99609 0.496794 0
M  V30 9358 H 890.323 -1.4617 0.308982 0
M  V30 9359 H 892.205 -3.80055 -1.82034 0
M  V30 9360 H 890.88 -2.60855 -1.91668 0
M  V30 9361 H 889.787 -3.7395 0.105927 0
M  V30 9362 H 891.12 -4.92054 0.119686 0
M  V30 9363 N 892.772 -0.284283 -1.55015 0
M  V30 9364 C 893.682 0.60906 -2.26556 0
M  V30 9365 C 894.698 1.16246 -1.29472 0
M  V30 9366 O 895.874 1.1908 -1.62425 0
M  V30 9367 C 892.939 1.77246 -2.97968 0
M  V30 9368 C 892 1.25482 -4.10552 0
M  V30 9369 C 891.233 2.36277 -4.78549 0
M  V30 9370 O 891.456 3.55829 -4.45805 0
M  V30 9371 O 890.39 2.03914 -5.66306 0
M  V30 9372 H 894.216 0.0292298 -3.03686 0
M  V30 9373 H 891.801 -0.0513466 -1.49312 0
M  V30 9374 H 893.683 2.45062 -3.42815 0
M  V30 9375 H 892.358 2.33921 -2.23747 0
M  V30 9376 H 891.265 0.542859 -3.7014 0
M  V30 9377 H 892.598 0.733708 -4.86701 0
M  V30 9378 N 894.251 1.57596 -0.0117121 0
M  V30 9379 C 895.479 1.9536 0.681334 0
M  V30 9380 C 895.894 0.887255 1.66653 0
M  V30 9381 O 895.251 -0.132692 1.82017 0
M  V30 9382 C 895.302 3.33165 1.40298 0
M  V30 9383 O 895.023 4.35707 0.45728 0
M  V30 9384 C 896.524 3.85458 2.18946 0
M  V30 9385 H 893.744 0.643826 0.189023 0
M  V30 9386 H 896.288 2.04392 -0.066311 0
M  V30 9387 H 894.443 3.25404 2.10216 0
M  V30 9388 H 894.857 5.15495 0.96773 0
M  V30 9389 H 896.331 4.84275 2.64918 0
M  V30 9390 H 896.808 3.18781 3.02118 0
M  V30 9391 H 897.414 3.96431 1.5402 0
M  V30 9392 N 895.729 -0.261212 1.5542 0
M  V30 9393 C 896.959 -1.00769 1.80358 0
M  V30 9394 C 897.367 -1.79991 0.583085 0
M  V30 9395 O 896.71 -1.77911 -0.457534 0
M  V30 9396 C 896.772 -2.00463 2.9842 0
M  V30 9397 C 896.436 -1.4007 4.35005 0
M  V30 9398 C 897.433 -0.810388 5.13545 0
M  V30 9399 C 895.118 -1.42436 4.81682 0
M  V30 9400 C 897.112 -0.251784 6.36903 0
M  V30 9401 C 894.799 -0.861897 6.04991 0
M  V30 9402 C 895.797 -0.276622 6.8244 0
M  V30 9403 O 895.485 0.277194 8.03422 0
M  V30 9404 H 895.217 -0.302839 0.604371 0
M  V30 9405 H 897.771 -0.293763 2.03288 0
M  V30 9406 H 896.001 -2.75648 2.71211 0
M  V30 9407 H 897.69 -2.61336 3.10577 0
M  V30 9408 H 898.456 -0.784719 4.7861 0
M  V30 9409 H 894.335 -1.8693 4.214 0
M  V30 9410 H 897.879 0.205678 6.97297 0
M  V30 9411 H 893.776 -0.884846 6.39407 0
M  V30 9412 H 894.544 0.167682 8.18328 0
M  V30 9413 N 897.207 -1.48554 -0.526253 0
M  V30 9414 C 898.432 -1.60686 -1.31129 0
M  V30 9415 C 898.857 -0.268701 -1.86171 0
M  V30 9416 O 898.215 0.760167 -1.64594 0
M  V30 9417 C 898.263 -2.65938 -2.43536 0
M  V30 9418 O 897.367 -2.23356 -3.46678 0
M  V30 9419 H 896.708 -0.538691 -0.388211 0
M  V30 9420 H 899.238 -1.94567 -0.632826 0
M  V30 9421 H 899.248 -2.87327 -2.89668 0
M  V30 9422 H 897.923 -3.63085 -2.02835 0
M  V30 9423 H 896.5 -2.12196 -3.06639 0
M  V30 9424 N 898.685 0.775411 -1.37205 0
M  V30 9425 C 899.615 1.90258 -1.35367 0
M  V30 9426 C 900.596 1.68634 -0.222864 0
M  V30 9427 O 901.781 1.89545 -0.422659 0
M  V30 9428 C 898.911 3.27488 -1.15623 0
M  V30 9429 C 897.865 3.63668 -2.25676 0
M  V30 9430 C 897.191 4.994 -1.91059 0
M  V30 9431 C 898.491 3.70797 -3.67841 0
M  V30 9432 H 900.185 1.92053 -2.29687 0
M  V30 9433 H 897.731 0.922597 -1.10563 0
M  V30 9434 H 899.684 4.05976 -1.12968 0
M  V30 9435 H 898.408 3.26117 -0.177573 0
M  V30 9436 H 897.067 2.87486 -2.2748 0
M  V30 9437 H 896.715 4.94565 -0.917324 0
M  V30 9438 H 896.415 5.24576 -2.64751 0
M  V30 9439 H 897.939 5.80291 -1.89985 0
M  V30 9440 H 899.353 4.39444 -3.68187 0
M  V30 9441 H 897.75 4.07468 -4.40556 0
M  V30 9442 H 898.82 2.71549 -4.01732 0
M  V30 9443 N 900.163 1.21714 1.00117 0
M  V30 9444 C 901.113 0.947259 2.07391 0
M  V30 9445 C 902.097 -0.0989662 1.60595 0
M  V30 9446 O 903.289 0.11047 1.76655 0
M  V30 9447 C 900.418 0.517954 3.3937 0
M  V30 9448 C 899.504 1.59846 3.92823 0
M  V30 9449 N 899.895 2.82438 4.19598 0
M  V30 9450 C 898.193 1.46822 4.2114 0
M  V30 9451 C 898.894 3.52247 4.62922 0
M  V30 9452 N 897.87 2.79696 4.66124 0
M  V30 9453 H 901.672 1.8786 2.26022 0
M  V30 9454 H 899.186 1.11344 1.18221 0
M  V30 9455 H 901.183 0.305951 4.15776 0
M  V30 9456 H 899.843 -0.40658 3.22144 0
M  V30 9457 H 900.854 3.18944 4.08038 0
M  V30 9458 H 897.531 0.609259 4.13031 0
M  V30 9459 H 898.921 4.57232 4.9233 0
M  V30 9460 N 901.641 -1.19671 1.02551 0
M  V30 9461 C 903.057 -1.41305 0.741963 0
M  V30 9462 C 903.257 -1.89865 -0.674807 0
M  V30 9463 O 902.313 -2.07323 -1.44129 0
M  V30 9464 C 903.626 -2.42706 1.77522 0
M  V30 9465 C 905.174 -2.56458 1.79438 0
M  V30 9466 C 905.649 -3.61111 2.81715 0
M  V30 9467 N 907.14 -3.68603 2.8051 0
M  V30 9468 C 907.875 -4.49262 3.56302 0
M  V30 9469 N 907.371 -5.33653 4.41799 0
M  V30 9470 N 909.164 -4.43879 3.44859 0
M  V30 9471 H 901.315 -0.8647 1.94002 0
M  V30 9472 H 903.578 -0.442206 0.838545 0
M  V30 9473 H 903.284 -2.14042 2.79068 0
M  V30 9474 H 903.158 -3.41831 1.59472 0
M  V30 9475 H 905.545 -2.84447 0.78573 0
M  V30 9476 H 905.626 -1.57499 2.01563 0
M  V30 9477 H 905.27 -3.33864 3.82749 0
M  V30 9478 H 905.2 -4.59713 2.56849 0
M  V30 9479 H 907.691 -3.08329 2.18498 0
M  V30 9480 H 908.004 -5.92308 4.96378 0
M  V30 9481 H 906.349 -5.33125 4.45873 0
M  V30 9482 H 909.54 -3.7699 2.77482 0
M  V30 9483 H 909.713 -5.06501 4.04179 0
M  V30 9484 N 903.119 -0.802921 -1.35613 0
M  V30 9485 C 904.066 -0.20874 -2.29854 0
M  V30 9486 C 905.036 0.655128 -1.52634 0
M  V30 9487 O 906.221 0.600979 -1.81088 0
M  V30 9488 C 903.361 0.639663 -3.3912 0
M  V30 9489 C 902.474 -0.244234 -4.31309 0
M  V30 9490 C 901.609 0.611825 -5.27665 0
M  V30 9491 C 900.648 -0.272698 -6.11492 0
M  V30 9492 N 899.785 0.543122 -6.99996 0
M  V30 9493 H 904.625 -1.01782 -2.80079 0
M  V30 9494 H 902.162 -0.513465 -1.37848 0
M  V30 9495 H 904.12 1.14668 -4.01132 0
M  V30 9496 H 902.75 1.41404 -2.9018 0
M  V30 9497 H 901.802 -0.869322 -3.70334 0
M  V30 9498 H 903.114 -0.925202 -4.90144 0
M  V30 9499 H 902.268 1.18412 -5.95032 0
M  V30 9500 H 901.007 1.32637 -4.69317 0
M  V30 9501 H 900.012 -0.857287 -5.43075 0
M  V30 9502 H 901.237 -0.985051 -6.71918 0
M  V30 9503 H 899.183 1.24171 -6.44141 0
M  V30 9504 H 899.1 -0.0798767 -7.55958 0
M  V30 9505 H 900.368 1.09881 -7.71717 0
M  V30 9506 N 904.597 1.47463 -0.556102 0
M  V30 9507 C 905.53 2.26934 0.240027 0
M  V30 9508 C 906.508 1.33981 0.921297 0
M  V30 9509 O 907.692 1.63361 0.940506 0
M  V30 9510 C 904.819 3.10982 1.34194 0
M  V30 9511 C 903.865 4.19504 0.769342 0
M  V30 9512 S 904.698 5.34127 -0.383209 0
M  V30 9513 C 905.854 6.21739 0.720548 0
M  V30 9514 H 906.087 2.9411 -0.434348 0
M  V30 9515 H 903.62 1.50556 -0.342402 0
M  V30 9516 H 905.578 3.59976 1.973 0
M  V30 9517 H 904.239 2.4317 1.98814 0
M  V30 9518 H 903.432 4.78036 1.59679 0
M  V30 9519 H 903.034 3.73385 0.214475 0
M  V30 9520 H 905.326 6.58021 1.61292 0
M  V30 9521 H 906.269 7.0789 0.172602 0
M  V30 9522 H 906.677 5.55342 1.01272 0
M  V30 9523 N 906.075 0.2925 1.54862 0
M  V30 9524 C 907.323 -0.318633 1.99572 0
M  V30 9525 C 907.644 -1.55062 1.1824 0
M  V30 9526 O 906.914 -1.93943 0.276226 0
M  V30 9527 H 905.494 -0.120722 0.737181 0
M  V30 9528 H 908.156 0.401862 1.90712 0
M  V30 9529 H 907.252 -0.596542 3.06346 0
M  V30 9530 N 907.553 -1.57587 0.0200696 0
M  V30 9531 C 908.801 -1.91046 -0.65922 0
M  V30 9532 C 909.122 -0.896197 -1.73186 0
M  V30 9533 O 908.392 0.0635952 -1.95797 0
M  V30 9534 H 906.972 -0.705163 -0.246483 0
M  V30 9535 H 909.634 -1.94789 0.0657368 0
M  V30 9536 H 908.73 -2.91399 -1.11773 0
M  V30 9537 N 909.032 0.252966 -1.55557 0
M  V30 9538 C 910.257 1.0038 -1.8149 0
M  V30 9539 C 910.682 1.78397 -0.596318 0
M  V30 9540 O 910.04 1.7551 0.454535 0
M  V30 9541 C 910.088 1.9222 -3.05096 0
M  V30 9542 O 909.192 3.01302 -2.81587 0
M  V30 9543 H 908.533 0.285949 -0.599274 0
M  V30 9544 H 911.063 0.275795 -2.02733 0
M  V30 9545 H 911.073 2.338 -3.34368 0
M  V30 9546 H 909.748 1.34852 -3.93431 0
M  V30 9547 H 908.325 2.63894 -2.63466 0
M  V30 9548 N 910.51 1.48831 0.518367 0
M  V30 9549 C 911.757 1.57439 1.27355 0
M  V30 9550 C 912.085 0.25338 1.92843 0
M  V30 9551 O 911.34 -0.757323 1.80452 0
M  V30 9552 C 911.639 2.67003 2.3758 0
M  V30 9553 C 911.305 4.09069 1.89667 0
M  V30 9554 C 909.967 4.47733 1.76319 0
M  V30 9555 C 912.319 4.98052 1.53603 0
M  V30 9556 C 909.647 5.73173 1.25258 0
M  V30 9557 C 911.999 6.23992 1.04001 0
M  V30 9558 C 910.663 6.61503 0.892784 0
M  V30 9559 H 909.933 0.57611 0.466023 0
M  V30 9560 H 912.58 1.82595 0.577166 0
M  V30 9561 H 910.885 2.35751 3.12936 0
M  V30 9562 H 912.582 2.70876 2.95681 0
M  V30 9563 H 909.172 3.7854 2.01011 0
M  V30 9564 H 913.356 4.68849 1.62771 0
M  V30 9565 H 908.612 6.0095 1.12557 0
M  V30 9566 H 912.786 6.92331 0.751706 0
M  V30 9567 H 910.413 7.58587 0.494939 0
M  V30 9568 N 911.988 -0.768124 1.37614 0
M  V30 9569 C 912.918 -1.89537 1.36374 0
M  V30 9570 C 913.899 -1.68513 0.231803 0
M  V30 9571 O 915.084 -1.89318 0.432705 0
M  V30 9572 C 912.214 -3.26871 1.17358 0
M  V30 9573 C 911.168 -3.62466 2.27602 0
M  V30 9574 C 910.494 -4.9838 1.93705 0
M  V30 9575 C 911.794 -3.68841 3.69802 0
M  V30 9576 H 913.488 -1.90832 2.30702 0
M  V30 9577 H 911.034 -0.91672 1.11051 0
M  V30 9578 H 912.987 -4.05371 1.15119 0
M  V30 9579 H 911.711 -3.26018 0.194865 0
M  V30 9580 H 910.37 -2.86276 2.29002 0
M  V30 9581 H 910.018 -4.94071 0.943539 0
M  V30 9582 H 909.718 -5.23165 2.6753 0
M  V30 9583 H 911.242 -5.79276 1.93059 0
M  V30 9584 H 912.656 -4.37485 3.70513 0
M  V30 9585 H 911.053 -4.05126 4.42711 0
M  V30 9586 H 912.123 -2.69415 4.03167 0
M  V30 9587 N 913.466 -1.22244 -0.994698 0
M  V30 9588 C 914.715 -1.04005 -1.72817 0
M  V30 9589 C 915.028 0.425413 -1.90918 0
M  V30 9590 O 916.234 0.727429 -2.61574 0
M  V30 9591 C 914.69 -1.81244 -3.10932 0
M  V30 9592 C 914.298 -3.32028 -3.00768 0
M  V30 9593 C 916.042 -1.71448 -3.88337 0
M  V30 9594 C 913.949 -4.01716 -4.34026 0
M  V30 9595 H 912.879 -0.385559 -0.647966 0
M  V30 9596 H 915.53 -1.46077 -1.11058 0
M  V30 9597 H 913.912 -1.3197 -3.73363 0
M  V30 9598 H 915.086 -3.88682 -2.47513 0
M  V30 9599 H 913.401 -3.4248 -2.36846 0
M  V30 9600 H 915.998 -2.20836 -4.86965 0
M  V30 9601 H 916.341 -0.674568 -4.10798 0
M  V30 9602 H 916.874 -2.18256 -3.3258 0
M  V30 9603 H 913.613 -5.05952 -4.16765 0
M  V30 9604 H 913.133 -3.49849 -4.87202 0
M  V30 9605 H 914.812 -4.0721 -5.02782 0
M  V30 9606 N 914.944 1.19125 -1.03184 0
M  V30 9607 C 916.184 1.90582 -0.738785 0
M  V30 9608 C 916.548 1.78004 0.719627 0
M  V30 9609 O 917.749 2.44084 1.12589 0
M  V30 9610 C 916.02 3.37319 -1.18114 0
M  V30 9611 S 917.579 4.26962 -1.01238 0
M  V30 9612 H 914.397 0.6582 -0.268875 0
M  V30 9613 H 916.999 1.43999 -1.32229 0
M  V30 9614 H 915.703 3.43999 -2.23814 0
M  V30 9615 H 915.234 3.88935 -0.591051 0
M  V30 9616 H 917.249 4.96143 0.0753558 0
M  V30 9617 N 916.422 0.810101 1.35185 0
M  V30 9618 C 917.647 0.40364 2.03434 0
M  V30 9619 C 918.072 -0.97857 1.60641 0
M  V30 9620 O 917.43 -1.63435 0.784779 0
M  V30 9621 C 917.478 0.499154 3.57129 0
M  V30 9622 O 916.582 -0.486039 4.09526 0
M  V30 9623 H 915.923 0.168049 0.642383 0
M  V30 9624 H 918.453 1.09696 1.72708 0
M  V30 9625 H 918.463 0.370236 4.06317 0
M  V30 9626 H 917.138 1.50733 3.87624 0
M  V30 9627 H 915.715 -0.31707 3.7155 0
M  V30 9628 N 917.9 -1.47166 0.563914 0
M  V30 9629 C 918.847 -2.30097 -0.180013 0
M  V30 9630 C 919.817 -1.39473 -0.902019 0
M  V30 9631 O 921.002 -1.68432 -0.896396 0
M  V30 9632 C 918.142 -3.23573 -1.19978 0
M  V30 9633 C 917.255 -4.2929 -0.483149 0
M  V30 9634 C 916.39 -5.0991 -1.48879 0
M  V30 9635 C 915.429 -6.07395 -0.757513 0
M  V30 9636 N 914.566 -6.8095 -1.71031 0
M  V30 9637 H 919.406 -2.93189 0.53329 0
M  V30 9638 H 916.943 -1.4451 0.274814 0
M  V30 9639 H 918.901 -3.76196 -1.80368 0
M  V30 9640 H 917.531 -2.6233 -1.88103 0
M  V30 9641 H 916.583 -3.79671 0.235414 0
M  V30 9642 H 917.895 -4.9872 0.0894075 0
M  V30 9643 H 917.049 -5.66717 -2.16603 0
M  V30 9644 H 915.788 -4.40397 -2.09527 0
M  V30 9645 H 914.793 -5.4976 -0.0663841 0
M  V30 9646 H 916.018 -6.78919 -0.156685 0
M  V30 9647 H 913.964 -6.14162 -2.30524 0
M  V30 9648 H 913.881 -7.46574 -1.19007 0
M  V30 9649 H 915.149 -7.42326 -2.37849 0
M  V30 9650 N 919.378 -0.300708 -1.54705 0
M  V30 9651 C 920.308 0.568675 -2.26469 0
M  V30 9652 C 921.289 1.13817 -1.26411 0
M  V30 9653 O 922.474 1.16756 -1.55183 0
M  V30 9654 C 919.604 1.74077 -3.00524 0
M  V30 9655 C 918.558 1.30165 -4.07727 0
M  V30 9656 C 917.884 2.55888 -4.69495 0
M  V30 9657 C 919.184 0.433106 -5.20501 0
M  V30 9658 H 920.878 -0.0298851 -2.99385 0
M  V30 9659 H 918.424 -0.0158135 -1.43991 0
M  V30 9660 H 920.377 2.35506 -3.49449 0
M  V30 9661 H 919.101 2.36556 -2.25186 0
M  V30 9662 H 917.76 0.710414 -3.59651 0
M  V30 9663 H 917.408 3.16681 -3.90797 0
M  V30 9664 H 917.108 2.27207 -5.41895 0
M  V30 9665 H 918.632 3.18121 -5.21183 0
M  V30 9666 H 920.046 0.95307 -5.65322 0
M  V30 9667 H 918.443 0.240085 -5.9962 0
M  V30 9668 H 919.513 -0.541866 -4.81863 0
M  V30 9669 N 920.856 1.57574 -0.0284266 0
M  V30 9670 C 921.803 2.10176 0.953658 0
M  V30 9671 C 922.773 1.00367 1.32347 0
M  V30 9672 O 923.958 1.27783 1.4169 0
M  V30 9673 C 921.098 2.63287 2.231 0
M  V30 9674 C 920.211 3.87102 1.91771 0
M  V30 9675 C 919.346 4.28609 3.13795 0
M  V30 9676 C 918.385 5.45184 2.78282 0
M  V30 9677 N 917.522 5.81851 3.92929 0
M  V30 9678 H 922.362 2.93806 0.498176 0
M  V30 9679 H 919.899 1.45222 0.234302 0
M  V30 9680 H 921.857 2.9217 2.97813 0
M  V30 9681 H 920.487 1.82489 2.66266 0
M  V30 9682 H 919.539 3.64952 1.07303 0
M  V30 9683 H 920.851 4.71892 1.61615 0
M  V30 9684 H 920.005 4.58925 3.96829 0
M  V30 9685 H 918.744 3.42585 3.47112 0
M  V30 9686 H 917.749 5.14563 1.93661 0
M  V30 9687 H 918.974 6.32907 2.46182 0
M  V30 9688 H 916.92 4.98782 4.2609 0
M  V30 9689 H 916.837 6.6128 3.66395 0
M  V30 9690 H 918.105 6.16772 4.76669 0
M  V30 9691 N 922.334 -0.244713 1.55689 0
M  V30 9692 C 923.297 -1.2864 1.89695 0
M  V30 9693 C 924.297 -1.40969 0.773583 0
M  V30 9694 O 925.487 -1.39632 1.04156 0
M  V30 9695 C 922.619 -2.66379 2.12732 0
M  V30 9696 H 923.812 -0.997033 2.82841 0
M  V30 9697 H 921.365 -0.484103 1.48614 0
M  V30 9698 H 922.1 -3.00452 1.22062 0
M  V30 9699 H 921.885 -2.58812 2.94549 0
M  V30 9700 H 923.375 -3.41592 2.40218 0
M  V30 9701 N 923.813 -1.49104 -0.510467 0
M  V30 9702 C 925.229 -1.35657 -0.840797 0
M  V30 9703 C 925.429 -0.382425 -1.97838 0
M  V30 9704 O 924.485 0.189331 -2.51789 0
M  V30 9705 C 925.798 -2.76155 -1.18992 0
M  V30 9706 C 927.346 -2.84786 -1.29868 0
M  V30 9707 C 927.821 -4.2603 -1.68115 0
M  V30 9708 N 929.312 -4.28796 -1.75181 0
M  V30 9709 C 930.047 -5.35041 -2.062 0
M  V30 9710 N 929.543 -6.51543 -2.35508 0
M  V30 9711 N 931.336 -5.2245 -2.07371 0
M  V30 9712 H 923.487 -2.11042 0.23982 0
M  V30 9713 H 925.75 -0.946946 0.0446824 0
M  V30 9714 H 925.456 -3.49092 -0.427484 0
M  V30 9715 H 925.33 -3.10922 -2.13558 0
M  V30 9716 H 927.717 -2.12092 -2.05186 0
M  V30 9717 H 927.798 -2.53613 -0.333758 0
M  V30 9718 H 927.442 -4.99247 -0.933512 0
M  V30 9719 H 927.372 -4.5466 -2.65691 0
M  V30 9720 H 929.863 -3.44771 -1.5473 0
M  V30 9721 H 930.176 -7.28342 -2.58337 0
M  V30 9722 H 928.521 -6.54785 -2.32985 0
M  V30 9723 H 931.712 -4.30444 -1.83945 0
M  V30 9724 H 931.885 -6.05347 -2.31212 0
M  V30 9725 N 925.291 0.760815 -1.38019 0
M  V30 9726 C 926.538 1.51973 -1.3383 0
M  V30 9727 C 926.866 1.9436 0.0738855 0
M  V30 9728 O 926.121 1.65181 1.04946 0
M  V30 9729 C 926.42 2.79024 -2.23339 0
M  V30 9730 C 926.086 2.55636 -3.71431 0
M  V30 9731 C 924.748 2.48966 -4.11788 0
M  V30 9732 C 927.1 2.35018 -4.65205 0
M  V30 9733 C 924.428 2.19684 -5.44018 0
M  V30 9734 C 926.78 2.07258 -5.97685 0
M  V30 9735 C 925.444 1.9904 -6.37134 0
M  V30 9736 H 924.714 0.556108 -0.489719 0
M  V30 9737 H 927.361 0.87545 -1.70318 0
M  V30 9738 H 925.666 3.48065 -1.79883 0
M  V30 9739 H 927.363 3.36951 -2.17405 0
M  V30 9740 H 923.953 2.61695 -3.39432 0
M  V30 9741 H 928.137 2.39154 -4.34878 0
M  V30 9742 H 923.393 2.11825 -5.73533 0
M  V30 9743 H 927.567 1.90307 -6.69893 0
M  V30 9744 H 925.194 1.76115 -7.39519 0
M  V30 9745 N 926.769 1.22769 0.988202 0
M  V30 9746 C 928.18 1.0512 1.54294 0
M  V30 9747 C 928.531 -0.383904 1.92407 0
M  V30 9748 O 927.656 -1.26955 1.75246 0
M  V30 9749 C 928.251 1.90198 2.80375 0
M  V30 9750 C 926.81 1.76831 3.32276 0
M  V30 9751 C 925.957 1.86377 2.05326 0
M  V30 9752 H 928.908 1.36546 0.808758 0
M  V30 9753 H 928.929 1.42216 3.52923 0
M  V30 9754 H 928.441 2.9464 2.52605 0
M  V30 9755 H 926.542 0.751412 3.64945 0
M  V30 9756 H 926.655 2.59771 4.02562 0
M  V30 9757 H 925.019 1.2987 2.19103 0
M  V30 9758 H 925.802 2.9236 1.79946 0
M  V30 9759 N 928.247 -1.18576 1.03814 0
M  V30 9760 C 929.487 -1.90187 0.748882 0
M  V30 9761 C 929.851 -1.78383 -0.710177 0
M  V30 9762 O 931.052 -2.44678 -1.11293 0
M  V30 9763 C 929.323 -3.36688 1.19901 0
M  V30 9764 S 930.882 -4.26419 1.03501 0
M  V30 9765 H 927.7 -0.656765 0.272362 0
M  V30 9766 H 930.302 -1.43296 1.32991 0
M  V30 9767 H 929.006 -3.42808 2.25635 0
M  V30 9768 H 928.537 -3.88616 0.611669 0
M  V30 9769 H 930.552 -4.96176 -0.0490431 0
M  V30 9770 N 929.725 -0.817259 -1.34754 0
M  V30 9771 C 930.672 -0.233108 -2.2962 0
M  V30 9772 C 931.642 0.638902 -1.53321 0
M  V30 9773 O 932.827 0.581739 -1.81715 0
M  V30 9774 C 929.967 0.603659 -3.39779 0
M  V30 9775 C 929.08 -0.289967 -4.31026 0
M  V30 9776 C 928.215 0.555825 -5.28284 0
M  V30 9777 C 927.254 -0.337539 -6.11169 0
M  V30 9778 N 926.391 0.468847 -7.00533 0
M  V30 9779 H 931.231 -1.04747 -2.78984 0
M  V30 9780 H 928.768 -0.528056 -1.37295 0
M  V30 9781 H 930.726 1.10407 -4.02326 0
M  V30 9782 H 929.356 1.38319 -2.91664 0
M  V30 9783 H 928.408 -0.908552 -3.69391 0
M  V30 9784 H 929.72 -0.977136 -4.89135 0
M  V30 9785 H 928.874 1.12094 -5.96255 0
M  V30 9786 H 927.613 1.27652 -4.70698 0
M  V30 9787 H 926.618 -0.914839 -5.42135 0
M  V30 9788 H 927.843 -1.05626 -6.70835 0
M  V30 9789 H 925.789 1.17332 -6.45422 0
M  V30 9790 H 925.706 -0.160052 -7.55831 0
M  V30 9791 H 926.974 1.01689 -7.72839 0
M  V30 9792 N 931.203 1.46865 -0.571711 0
M  V30 9793 C 932.166 2.28658 0.157499 0
M  V30 9794 C 933.166 1.37773 0.829172 0
M  V30 9795 O 934.356 1.6026 0.682811 0
M  V30 9796 C 931.488 3.17859 1.23202 0
M  V30 9797 H 932.681 2.94603 -0.561171 0
M  V30 9798 H 930.234 1.52793 -0.329229 0
M  V30 9799 H 930.969 2.56637 1.98262 0
M  V30 9800 H 930.754 3.84762 0.755031 0
M  V30 9801 H 932.244 3.7945 1.74378 0
M  V30 9802 N 932.681 0.308908 1.54543 0
M  V30 9803 C 933.614 -0.605854 2.20011 0
M  V30 9804 C 934.592 -1.1269 1.17216 0
M  V30 9805 O 935.776 -1.19363 1.45893 0
M  V30 9806 C 932.903 -1.82977 2.85021 0
M  V30 9807 C 931.949 -1.44126 4.0141 0
M  V30 9808 S 932.782 -0.490445 5.33249 0
M  V30 9809 C 933.938 -1.72198 6.01746 0
M  V30 9810 H 934.171 -0.0496911 2.97258 0
M  V30 9811 H 931.704 0.0930238 1.5412 0
M  V30 9812 H 933.662 -2.53211 3.23102 0
M  V30 9813 H 932.323 -2.35711 2.07604 0
M  V30 9814 H 931.516 -2.35288 4.45708 0
M  V30 9815 H 931.118 -0.818788 3.64927 0
M  V30 9816 H 933.41 -2.66147 6.23034 0
M  V30 9817 H 934.353 -1.32142 6.95661 0
M  V30 9818 H 934.761 -1.90229 5.31482 0
M  V30 9819 N 934.159 -1.57557 0.0367827 0
M  V30 9820 C 935.406 -1.92114 -0.640185 0
M  V30 9821 C 935.734 -0.913887 -1.71693 0
M  V30 9822 O 934.989 0.0760343 -1.95552 0
M  V30 9823 C 935.288 -3.33387 -1.28794 0
M  V30 9824 C 934.954 -4.4961 -0.340819 0
M  V30 9825 C 933.616 -4.81133 -0.0801574 0
M  V30 9826 C 935.968 -5.20283 0.309106 0
M  V30 9827 C 933.296 -5.80683 0.838107 0
M  V30 9828 C 935.648 -6.20813 1.21547 0
M  V30 9829 C 934.312 -6.50773 1.48495 0
M  V30 9830 H 933.582 -0.702996 -0.23426 0
M  V30 9831 H 936.229 -1.91238 0.100188 0
M  V30 9832 H 934.534 -3.30561 -2.10324 0
M  V30 9833 H 936.231 -3.57399 -1.81843 0
M  V30 9834 H 932.821 -4.25002 -0.554161 0
M  V30 9835 H 937.005 -4.96153 0.120794 0
M  V30 9836 H 932.261 -6.02238 1.05451 0
M  V30 9837 H 936.435 -6.74692 1.72522 0
M  V30 9838 H 934.062 -7.27727 2.19814 0
M  V30 9839 N 935.637 0.236453 -1.55816 0
M  V30 9840 C 936.547 1.31418 -1.94336 0
M  V30 9841 C 937.563 1.52095 -0.845164 0
M  V30 9842 O 938.739 1.65515 -1.14746 0
M  V30 9843 C 935.804 2.6468 -2.23932 0
M  V30 9844 C 934.865 2.52435 -3.47239 0
M  V30 9845 C 934.098 3.79342 -3.75414 0
M  V30 9846 O 934.321 4.81694 -3.05495 0
M  V30 9847 O 933.255 3.77347 -4.68927 0
M  V30 9848 H 937.081 1.01739 -2.86152 0
M  V30 9849 H 934.666 0.438084 -1.42833 0
M  V30 9850 H 936.548 3.4341 -2.44228 0
M  V30 9851 H 935.223 2.94071 -1.35292 0
M  V30 9852 H 934.13 1.71955 -3.32238 0
M  V30 9853 H 935.463 2.27987 -4.36214 0
M  V30 9854 N 937.115 1.49373 0.502552 0
M  V30 9855 C 938.025 1.68659 1.63068 0
M  V30 9856 C 939.041 0.569182 1.64427 0
M  V30 9857 O 940.217 0.843695 1.82876 0
M  V30 9858 C 937.282 1.74745 2.99441 0
M  V30 9859 C 936.343 2.98311 3.08721 0
M  V30 9860 C 935.576 3.04097 4.38589 0
M  V30 9861 O 935.799 2.17519 5.27297 0
M  V30 9862 O 934.733 3.96544 4.52809 0
M  V30 9863 H 938.559 2.64226 1.49727 0
M  V30 9864 H 936.144 1.33096 0.67867 0
M  V30 9865 H 938.026 1.8111 3.80496 0
M  V30 9866 H 936.701 0.823565 3.13048 0
M  V30 9867 H 935.608 2.97465 2.2686 0
M  V30 9868 H 936.941 3.90174 3.00041 0
M  V30 9869 N 938.594 -0.753485 1.38421 0
M  V30 9870 C 939.557 -1.84888 1.35459 0
M  V30 9871 C 940.557 -1.58764 0.255083 0
M  V30 9872 O 941.747 -1.66507 0.511978 0
M  V30 9873 C 938.879 -3.22361 1.10888 0
M  V30 9874 H 940.072 -1.88922 2.32913 0
M  V30 9875 H 937.625 -0.955199 1.23716 0
M  V30 9876 H 938.36 -3.23996 0.1404 0
M  V30 9877 H 938.145 -3.42717 1.90492 0
M  V30 9878 H 939.635 -4.02437 1.1151 0
M  V30 9879 N 940.072 -1.23292 -0.981677 0
M  V30 9880 C 941.302 -1.0893 -1.7555 0
M  V30 9881 C 941.71 0.362219 -1.857 0
M  V30 9882 O 941.053 1.2624 -1.33451 0
M  V30 9883 C 941.115 -1.6389 -3.19969 0
M  V30 9884 C 940.779 -3.12632 -3.33332 0
M  V30 9885 C 941.776 -4.0994 -3.19758 0
M  V30 9886 C 939.461 -3.52314 -3.58022 0
M  V30 9887 C 941.455 -5.44915 -3.30676 0
M  V30 9888 C 939.142 -4.87434 -3.6858 0
M  V30 9889 C 940.14 -5.83544 -3.54916 0
M  V30 9890 O 939.828 -7.16209 -3.65102 0
M  V30 9891 H 939.56 -0.381901 -0.557788 0
M  V30 9892 H 942.114 -1.63586 -1.24213 0
M  V30 9893 H 940.344 -1.03653 -3.72549 0
M  V30 9894 H 942.033 -1.45023 -3.79108 0
M  V30 9895 H 942.799 -3.80625 -3.00582 0
M  V30 9896 H 938.678 -2.78022 -3.67729 0
M  V30 9897 H 942.222 -6.19913 -3.19928 0
M  V30 9898 H 938.119 -5.16426 -3.87265 0
M  V30 9899 H 938.887 -7.23941 -3.81905 0
M  V30 9900 N 941.55 1.18024 -1.04442 0
M  V30 9901 C 942.775 1.92573 -0.770097 0
M  V30 9902 C 943.2 1.75871 0.667169 0
M  V30 9903 O 942.558 1.07136 1.46258 0
M  V30 9904 C 942.606 3.41904 -1.14602 0
M  V30 9905 O 941.71 4.11491 -0.273712 0
M  V30 9906 H 941.051 0.600636 -0.283076 0
M  V30 9907 H 943.581 1.49645 -1.39526 0
M  V30 9908 H 943.591 3.92623 -1.10956 0
M  V30 9909 H 942.266 3.53382 -2.19304 0
M  V30 9910 H 940.843 3.71059 -0.370124 0
M  V30 9911 N 943.028 0.824394 1.34319 0
M  V30 9912 C 943.976 0.235628 2.31403 0
M  V30 9913 C 944.97 -0.624443 1.57471 0
M  V30 9914 O 946.176 -0.515618 1.72457 0
M  V30 9915 H 942.551 0.0574537 0.749802 0
M  V30 9916 H 944.522 1.06925 2.78585 0
M  V30 9917 C 943.271 -0.586617 3.42716 0
M  V30 9918 H 942.594 0.0658669 3.99746 0
M  V30 9919 H 944.034 -0.964661 4.1288 0
M  V30 9920 C 942.493 -1.75957 2.87299 0
M  V30 9921 O 943.023 -2.8578 2.82299 0
M  V30 9922 N 941.229 -1.57678 2.44102 0
M  V30 9923 H 940.776 -0.683436 2.48369 0
M  V30 9924 H 940.734 -2.36311 2.07375 0
M  V30 9925 N 944.506 -1.46559 0.579492 0
M  V30 9926 C 945.736 -2.06484 0.0692642 0
M  V30 9927 C 946.144 -1.4293 -1.23967 0
M  V30 9928 O 945.487 -0.527632 -1.75959 0
M  V30 9929 C 945.549 -3.59078 -0.174174 0
M  V30 9930 C 945.213 -4.44805 1.04867 0
M  V30 9931 C 946.21 -4.81543 1.95991 0
M  V30 9932 C 943.895 -4.8599 1.26961 0
M  V30 9933 C 945.889 -5.58288 3.0756 0
M  V30 9934 C 943.576 -5.62495 2.38836 0
M  V30 9935 C 944.574 -5.98558 3.28964 0
M  V30 9936 O 944.262 -6.73518 4.38896 0
M  V30 9937 H 943.994 -0.673917 0.0530331 0
M  V30 9938 H 946.548 -1.89223 0.79898 0
M  V30 9939 H 944.778 -3.74634 -0.958464 0
M  V30 9940 H 946.467 -4.00941 -0.632515 0
M  V30 9941 H 947.233 -4.50307 1.80136 0
M  V30 9942 H 943.112 -4.57372 0.577184 0
M  V30 9943 H 946.656 -5.86355 3.77933 0
M  V30 9944 H 942.553 -5.93145 2.54655 0
M  V30 9945 H 943.321 -6.91938 4.37223 0
M  V30 9946 N 945.984 -0.3171 -1.54377 0
M  V30 9947 C 947.224 0.288083 -2.0236 0
M  V30 9948 C 947.588 1.4985 -1.20038 0
M  V30 9949 O 948.789 2.17611 -1.57794 0
M  V30 9950 C 947.06 0.620192 -3.51978 0
M  V30 9951 S 948.619 1.20595 -4.21903 0
M  V30 9952 H 945.437 0.0875231 -0.705592 0
M  V30 9953 H 948.039 -0.448719 -1.90281 0
M  V30 9954 H 946.743 -0.268982 -4.09518 0
M  V30 9955 H 946.274 1.38736 -3.68125 0
M  V30 9956 H 948.289 2.49308 -4.29022 0
M  V30 9957 N 947.462 1.57535 -0.0451378 0
M  V30 9958 C 948.409 2.11176 0.931313 0
M  V30 9959 C 949.379 1.01765 1.31275 0
M  V30 9960 O 950.564 1.29279 1.40327 0
M  V30 9961 C 947.704 2.65639 2.20295 0
M  V30 9962 C 946.817 3.89114 1.87654 0
M  V30 9963 C 945.952 4.31914 3.09232 0
M  V30 9964 C 944.991 5.48105 2.72484 0
M  V30 9965 N 944.128 5.85986 3.86736 0
M  V30 9966 H 948.968 2.94318 0.466986 0
M  V30 9967 H 946.505 1.45462 0.218886 0
M  V30 9968 H 948.463 2.95312 2.94697 0
M  V30 9969 H 947.093 1.85303 2.64316 0
M  V30 9970 H 946.145 3.6607 1.03427 0
M  V30 9971 H 947.457 4.7358 1.56601 0
M  V30 9972 H 946.611 4.63108 3.91939 0
M  V30 9973 H 945.35 3.46247 3.43459 0
M  V30 9974 H 944.355 5.16589 1.88192 0
M  V30 9975 H 945.58 6.35482 2.39455 0
M  V30 9976 H 943.526 5.03273 4.20775 0
M  V30 9977 H 943.443 6.65129 3.5936 0
M  V30 9978 H 944.711 6.21793 4.701 0
M  V30 9979 N 948.94 -0.228186 1.55939 0
M  V30 9980 C 950.356 -0.577583 1.48782 0
M  V30 9981 C 950.556 -1.87461 0.738972 0
M  V30 9982 O 949.612 -2.50988 0.275929 0
M  V30 9983 C 950.925 -0.662961 2.93301 0
M  V30 9984 C 952.473 -0.754035 3.03782 0
M  V30 9985 C 952.948 -0.870815 4.49645 0
M  V30 9986 N 954.439 -0.935208 4.53661 0
M  V30 9987 C 955.174 -1.04516 5.63794 0
M  V30 9988 N 954.67 -1.11948 6.83696 0
M  V30 9989 N 956.463 -1.07978 5.51631 0
M  V30 9990 H 948.614 0.623018 2.03057 0
M  V30 9991 H 950.877 0.217692 0.922667 0
M  V30 9992 H 950.583 0.220375 3.51009 0
M  V30 9993 H 950.457 -1.52876 3.44831 0
M  V30 9994 H 952.844 -1.62782 2.46143 0
M  V30 9995 H 952.925 0.137301 2.55431 0
M  V30 9996 H 952.569 -0.0015186 5.079 0
M  V30 9997 H 952.499 -1.77747 4.95695 0
M  V30 9998 H 954.99 -0.88836 3.6731 0
M  V30 9999 H 955.303 -1.20297 7.6338 0
M  V30 10000 H 953.648 -1.08873 6.8642 0
M  V30 10001 H 956.839 -1.01833 4.56889 0
M  V30 10002 H 957.012 -1.16202 6.37496 0
M  V30 10003 N 950.418 -1.49637 -0.494624 0
M  V30 10004 C 951.35 -1.62902 -1.61231 0
M  V30 10005 C 952.363 -0.511425 -1.54558 0
M  V30 10006 O 953.552 -0.783724 -1.60375 0
M  V30 10007 C 950.652 -1.57564 -3.00045 0
M  V30 10008 C 949.825 -2.84964 -3.31835 0
M  V30 10009 C 948.884 -2.72591 -4.5009 0
M  V30 10010 O 947.91 -3.46532 -4.51558 0
M  V30 10011 N 949.112 -1.84563 -5.50379 0
M  V30 10012 H 951.877 -2.59301 -1.50276 0
M  V30 10013 H 949.438 -1.46806 -0.68262 0
M  V30 10014 H 951.43 -1.46932 -3.77085 0
M  V30 10015 H 950 -0.689974 -3.0489 0
M  V30 10016 H 949.22 -3.099 -2.4363 0
M  V30 10017 H 950.508 -3.69412 -3.49875 0
M  V30 10018 H 949.906 -1.23758 -5.51997 0
M  V30 10019 H 948.463 -1.79849 -6.26496 0
M  V30 10020 N 951.896 0.746133 -1.38819 0
M  V30 10021 C 952.859 1.84167 -1.36437 0
M  V30 10022 C 953.859 1.58626 -0.263499 0
M  V30 10023 O 955.049 1.66233 -0.520801 0
M  V30 10024 C 952.181 3.21769 -1.12596 0
M  V30 10025 H 953.374 1.87684 -2.33912 0
M  V30 10026 H 950.927 0.948625 -1.24221 0
M  V30 10027 H 951.662 3.23917 -0.15758 0
M  V30 10028 H 951.447 3.41702 -1.92307 0
M  V30 10029 H 952.937 4.0184 -1.13643 0
M  V30 10030 N 953.375 1.23811 0.975125 0
M  V30 10031 C 954.307 0.981779 2.07108 0
M  V30 10032 C 955.32 -0.0461211 1.62735 0
M  V30 10033 O 956.509 0.190039 1.77486 0
M  V30 10034 C 953.609 0.458364 3.35786 0
M  V30 10035 C 952.782 1.54767 4.09104 0
M  V30 10036 C 951.841 1.0282 5.16057 0
M  V30 10037 O 950.867 1.71831 5.42644 0
M  V30 10038 N 952.069 -0.141243 5.80328 0
M  V30 10039 H 954.834 1.92537 2.29673 0
M  V30 10040 H 952.395 1.1474 1.14221 0
M  V30 10041 H 954.387 0.0957686 4.04587 0
M  V30 10042 H 952.957 -0.390768 3.10148 0
M  V30 10043 H 952.177 2.08279 3.34684 0
M  V30 10044 H 953.465 2.28006 4.54853 0
M  V30 10045 H 952.863 -0.718382 5.6112 0
M  V30 10046 H 951.42 -0.445052 6.50279 0
M  V30 10047 N 954.853 -1.17469 1.05066 0
M  V30 10048 C 955.785 -2.20974 0.608526 0
M  V30 10049 C 956.798 -1.59481 -0.327066 0
M  V30 10050 O 957.987 -1.78096 -0.12 0
M  V30 10051 C 955.087 -3.38652 -0.12969 0
M  V30 10052 C 954.26 -4.29716 0.816285 0
M  V30 10053 C 953.319 -5.26064 0.119556 0
M  V30 10054 O 952.345 -5.64194 0.753241 0
M  V30 10055 N 953.547 -5.69126 -1.14347 0
M  V30 10056 H 956.312 -2.59529 1.49882 0
M  V30 10057 H 953.873 -1.32355 0.932406 0
M  V30 10058 H 955.865 -4.00139 -0.605886 0
M  V30 10059 H 954.435 -2.98705 -0.921638 0
M  V30 10060 H 953.655 -3.6568 1.47213 0
M  V30 10061 H 954.943 -4.87449 1.45845 0
M  V30 10062 H 954.341 -5.4022 -1.67866 0
M  V30 10063 H 952.898 -6.32764 -1.56376 0
M  V30 10064 O 956.37 -0.966437 -1.29392 0
M  V30 10065 H 957.061 -0.604752 -1.84018 0
M  V30 END ATOM
M  V30 BEGIN BOND
M  V30 END BOND
M  V30 END CTAB
M  END
$$$$
