drugbank_target|P9WGT1 3-alpha-(or 20-beta)-hydroxysteroid dehydrogenase (DB02854)
 OpenBabel12092119583D

  0  0  0     0  0            999 V3000
M  V30 BEGIN CTAB
M  V30 COUNTS 3806 3839 0 0 0
M  V30 BEGIN ATOM
M  V30 1 H -0.908 1.98254 -0.117106 0
M  V30 2 N 0 1.576 0 0
M  V30 3 C 0.933 2.03868 1.02534 0
M  V30 4 C 1.911 0.928543 1.3348 0
M  V30 5 O 3.095 1.19667 1.45644 0
M  V30 6 C 0.222 2.43627 2.35294 0
M  V30 7 C -0.732 3.65373 2.2001 0
M  V30 8 S 0.101 5.13292 1.52614 0
M  V30 9 C 1.257 5.56322 2.86805 0
M  V30 10 H 1.49 2.90518 0.631377 0
M  V30 11 H -0.977 1.52953 0.210867 0
M  V30 12 H 0.981 2.67203 3.11629 0
M  V30 13 H -0.358 1.57376 2.7183 0
M  V30 14 H -1.165 3.90944 3.18086 0
M  V30 15 H -1.563 3.418 1.51819 0
M  V30 16 H 0.729 5.58782 3.83104 0
M  V30 17 H 1.672 6.56266 2.65933 0
M  V30 18 H 2.08 4.83886 2.90714 0
M  V30 19 N 1.4781 -0.272755 1.55222 0
M  V30 20 C 2.7031 -1.02683 1.80197 0
M  V30 21 C 3.1281 -1.79142 0.573551 0
M  V30 22 O 2.4861 -1.74917 -0.476849 0
M  V30 23 C 2.5341 -1.9609 3.02624 0
M  V30 24 O 1.6381 -3.04863 2.77727 0
M  V30 25 H 0.9791 -0.293557 0.595584 0
M  V30 26 H 3.5091 -0.30159 2.02365 0
M  V30 27 H 3.5191 -2.38039 3.31363 0
M  V30 28 H 2.1941 -1.39851 3.91682 0
M  V30 29 H 0.7711 -2.67228 2.60084 0
M  V30 30 N 2.9562 -1.48159 -0.537278 0
M  V30 31 C 4.2042 -1.55497 -1.29094 0
M  V30 32 C 4.5252 -0.227454 -1.93669 0
M  V30 33 O 3.7952 0.750386 -1.80959 0
M  V30 34 H 2.3752 -0.572832 -0.47945 0
M  V30 35 H 5.0372 -1.84579 -0.625818 0
M  V30 36 H 4.1332 -2.33216 -2.07405 0
M  V30 37 N 4.4343 0.785586 -1.36625 0
M  V30 38 C 5.8503 1.08419 -1.17122 0
M  V30 39 C 6.0503 2.015 0.00208491 0
M  V30 40 O 5.1063 2.43551 0.666278 0
M  V30 41 C 6.4193 1.69498 -2.48377 0
M  V30 42 C 7.9673 1.81821 -2.54775 0
M  V30 43 C 8.4423 2.46315 -3.86126 0
M  V30 44 N 9.9333 2.53779 -3.87492 0
M  V30 45 C 10.6683 3.045 -4.85868 0
M  V30 46 N 10.1643 3.55499 -5.94637 0
M  V30 47 N 11.9573 3.03247 -4.73284 0
M  V30 48 H 4.1083 0.167264 -2.1174 0
M  V30 49 H 6.3713 0.13682 -0.938075 0
M  V30 50 H 6.0773 1.08571 -3.34522 0
M  V30 51 H 5.9513 2.6896 -2.64462 0
M  V30 52 H 8.3383 2.41884 -1.69045 0
M  V30 53 H 8.4193 0.811532 -2.42586 0
M  V30 54 H 8.0633 1.86895 -4.72263 0
M  V30 55 H 7.9933 3.47561 -3.95612 0
M  V30 56 H 10.4843 2.17672 -3.08913 0
M  V30 57 H 10.7973 3.92562 -6.65669 0
M  V30 58 H 9.1423 3.5364 -5.98301 0
M  V30 59 H 12.3333 2.62696 -3.87438 0
M  V30 60 H 12.5063 3.42467 -5.50109 0
M  V30 61 N 5.9124 1.20967 1.01018 0
M  V30 62 C 6.8424 0.988272 2.11555 0
M  V30 63 C 7.8234 -0.0849778 1.69888 0
M  V30 64 O 9.0084 0.0738202 1.9406 0
M  V30 65 C 6.1384 0.546528 3.42973 0
M  V30 66 C 5.0924 1.56375 3.9841 0
M  V30 67 C 4.4184 0.97842 5.25672 0
M  V30 68 C 5.7184 2.94922 4.31066 0
M  V30 69 H 7.4124 1.91276 2.30334 0
M  V30 70 H 4.9584 0.921073 1.1069 0
M  V30 71 H 6.9114 0.378839 4.19694 0
M  V30 72 H 5.6354 -0.413598 3.23971 0
M  V30 73 H 4.2944 1.71891 3.23804 0
M  V30 74 H 3.9424 0.0101688 5.02999 0
M  V30 75 H 3.6424 1.65784 5.63728 0
M  V30 76 H 5.1664 0.821939 6.05043 0
M  V30 77 H 6.5804 2.8288 4.9865 0
M  V30 78 H 4.9774 3.5983 4.80253 0
M  V30 79 H 6.0474 3.4616 3.39561 0
M  V30 80 N 7.3905 -1.2043 1.01659 0
M  V30 81 C 8.6395 -1.89118 0.701237 0
M  V30 82 C 8.9525 -1.79705 -0.772358 0
M  V30 83 O 10.1585 -2.43528 -1.20026 0
M  V30 84 C 8.6145 -3.39168 1.20388 0
M  V30 85 C 8.2225 -3.57166 2.70438 0
M  V30 86 C 9.9665 -4.1341 0.963953 0
M  V30 87 C 7.8735 -5.01042 3.14183 0
M  V30 88 H 6.8035 -0.708267 0.2586 0
M  V30 89 H 9.4545 -1.36239 1.22927 0
M  V30 90 H 7.8365 -3.91369 0.603824 0
M  V30 91 H 9.0105 -3.15351 3.35992 0
M  V30 92 H 7.3255 -2.96294 2.92572 0
M  V30 93 H 9.9225 -5.19491 1.26621 0
M  V30 94 H 10.2655 -4.16181 -0.099578 0
M  V30 95 H 10.7985 -3.67309 1.52738 0
M  V30 96 H 7.5375 -5.03426 4.19812 0
M  V30 97 H 7.0575 -5.43668 2.53348 0
M  V30 98 H 8.7365 -5.69623 3.0682 0
M  V30 99 N 8.8686 -0.792821 -1.36206 0
M  V30 100 C 10.1166 -0.366062 -1.98757 0
M  V30 101 C 10.4376 1.0668 -1.63231 0
M  V30 102 O 9.7076 1.73587 -0.907978 0
M  V30 103 H 8.2876 -0.132364 -0.735179 0
M  V30 104 H 10.9496 -1.01562 -1.66347 0
M  V30 105 H 10.0456 -0.460638 -3.08682 0
M  V30 106 N 10.3467 1.47872 -0.545128 0
M  V30 107 C 11.2937 2.29849 0.2093 0
M  V30 108 C 12.2637 1.38313 0.919707 0
M  V30 109 O 13.4487 1.67277 0.917772 0
M  V30 110 C 10.5887 3.22019 1.24088 0
M  V30 111 C 9.7017 4.2864 0.537778 0
M  V30 112 C 8.8367 5.07973 1.5536 0
M  V30 113 C 7.8757 6.06381 0.8348 0
M  V30 114 N 7.0127 6.78717 1.79688 0
M  V30 115 H 11.8527 2.93845 -0.49591 0
M  V30 116 H 9.3897 1.44848 -0.256389 0
M  V30 117 H 11.3477 3.73868 1.85144 0
M  V30 118 H 9.9777 2.59914 1.91428 0
M  V30 119 H 9.0297 3.7994 -0.187046 0
M  V30 120 H 10.3417 4.98793 -0.0258907 0
M  V30 121 H 9.4957 5.63912 2.23803 0
M  V30 122 H 8.2347 4.37693 2.15118 0
M  V30 123 H 7.2397 5.49631 0.136388 0
M  V30 124 H 8.4647 6.78665 0.24313 0
M  V30 125 H 6.4107 6.11177 2.38326 0
M  V30 126 H 6.3277 7.44998 1.28505 0
M  V30 127 H 7.5957 7.39237 2.47282 0
M  V30 128 N 11.8248 0.280983 1.55075 0
M  V30 129 C 13.0708 -0.33461 2.00021 0
M  V30 130 C 13.4038 -1.55063 1.16915 0
M  V30 131 O 12.6788 -1.93006 0.240646 0
M  V30 132 C 12.9618 -0.711007 3.53011 0
M  V30 133 C 12.8148 0.512766 4.46868 0
M  V30 134 C 14.1338 -1.54522 4.12081 0
M  V30 135 H 11.2528 -0.120147 0.727141 0
M  V30 136 H 13.8948 0.389097 1.85973 0
M  V30 137 H 12.0448 -1.32761 3.65112 0
M  V30 138 H 13.7168 1.15131 4.46702 0
M  V30 139 H 11.9598 1.14975 4.18286 0
M  V30 140 H 12.6308 0.205556 5.51617 0
M  V30 141 H 15.1068 -1.02442 4.03293 0
M  V30 142 H 13.9828 -1.77739 5.19327 0
M  V30 143 H 14.2438 -2.52813 3.62682 0
M  V30 144 N 13.3029 -1.57598 0.00835791 0
M  V30 145 C 14.2659 -2.07884 -0.965242 0
M  V30 146 C 15.2659 -0.989825 -1.26725 0
M  V30 147 O 16.4559 -1.25218 -1.21104 0
M  V30 148 C 13.5879 -2.52731 -2.28779 0
M  V30 149 H 14.7809 -2.95178 -0.530112 0
M  V30 150 H 12.3339 -1.54458 -0.239283 0
M  V30 151 H 13.0689 -1.68705 -2.76964 0
M  V30 152 H 12.8539 -3.32272 -2.08177 0
M  V30 153 H 14.3439 -2.91933 -2.98605 0
M  V30 154 N 14.781 0.264519 -1.55364 0
M  V30 155 C 15.711 1.33121 -1.91836 0
M  V30 156 C 16.692 1.51101 -0.781192 0
M  V30 157 O 17.877 1.64003 -1.04003 0
M  V30 158 C 15.007 2.68921 -2.19769 0
M  V30 159 C 13.961 2.65661 -3.35571 0
M  V30 160 C 13.287 4.05093 -3.49004 0
M  V30 161 C 14.587 2.24187 -4.71739 0
M  V30 162 H 16.281 1.02844 -2.81182 0
M  V30 163 H 13.827 0.493286 -1.35287 0
M  V30 164 H 15.78 3.43663 -2.43872 0
M  V30 165 H 14.504 3.00799 -1.27231 0
M  V30 166 H 13.163 1.93377 -3.1145 0
M  V30 167 H 12.811 4.34206 -2.53917 0
M  V30 168 H 12.511 4.03804 -4.26868 0
M  V30 169 H 14.035 4.81561 -3.75408 0
M  V30 170 H 15.449 2.88654 -4.9533 0
M  V30 171 H 13.846 2.34044 -5.52579 0
M  V30 172 H 14.916 1.19327 -4.69988 0
M  V30 173 N 16.2591 1.48442 0.529413 0
M  V30 174 C 17.5051 1.5672 1.28711 0
M  V30 175 C 17.8381 0.2406 1.92704 0
M  V30 176 O 17.1131 -0.753454 1.79313 0
M  V30 177 C 17.3961 2.70587 2.37603 0
M  V30 178 C 17.2491 4.12953 1.78297 0
M  V30 179 C 18.5681 2.80212 3.39366 0
M  V30 180 H 15.6871 0.570474 0.466613 0
M  V30 181 H 18.3291 1.80617 0.589706 0
M  V30 182 H 16.4791 2.50342 2.97088 0
M  V30 183 H 18.1511 4.44639 1.22858 0
M  V30 184 H 16.3941 4.19927 1.0883 0
M  V30 185 H 17.0651 4.88448 2.57144 0
M  V30 186 H 19.5411 2.98553 2.89836 0
M  V30 187 H 18.4171 3.61611 4.12951 0
M  V30 188 H 18.6781 1.88393 3.99951 0
M  V30 189 N 17.7372 -0.778329 1.37039 0
M  V30 190 C 18.9622 -1.57248 1.35233 0
M  V30 191 C 19.3872 -1.87999 -0.0615568 0
M  V30 192 O 18.7452 -1.48734 -1.03672 0
M  V30 193 C 18.7932 -2.86353 2.19167 0
M  V30 194 O 17.8972 -3.80442 1.59178 0
M  V30 195 H 17.2382 -0.476569 0.462362 0
M  V30 196 H 19.7682 -0.963853 1.80474 0
M  V30 197 H 19.7782 -3.35519 2.32145 0
M  V30 198 H 18.4532 -2.63299 3.21942 0
M  V30 199 H 17.0302 -3.39067 1.55203 0
M  V30 200 N 19.2153 -1.21501 -1.00376 0
M  V30 201 C 20.4633 -1.03095 -1.73827 0
M  V30 202 C 20.7843 0.436341 -1.90055 0
M  V30 203 O 20.0543 1.31466 -1.45236 0
M  V30 204 H 18.6343 -0.378487 -0.644016 0
M  V30 205 H 21.2963 -1.52831 -1.20949 0
M  V30 206 H 20.3923 -1.49991 -2.73695 0
M  V30 207 N 20.6934 1.19889 -1.02296 0
M  V30 208 C 21.9414 1.89046 -0.714558 0
M  V30 209 C 22.2624 1.79636 0.758681 0
M  V30 210 O 21.5324 1.20292 1.54618 0
M  V30 211 H 20.1124 0.699802 -0.261317 0
M  V30 212 H 22.7744 1.45574 -1.29592 0
M  V30 213 H 21.8704 2.95524 -1.0036 0
M  V30 214 N 22.1715 0.800033 1.35784 0
M  V30 215 C 23.1345 0.211565 2.28221 0
M  V30 216 C 24.1345 -0.59728 1.49296 0
M  V30 217 O 25.3245 -0.416721 1.69142 0
M  V30 218 C 22.4565 -0.705846 3.33513 0
M  V30 219 H 23.6495 1.02677 2.81776 0
M  V30 220 H 21.2025 0.570211 1.45528 0
M  V30 221 H 21.9375 -1.54498 2.85133 0
M  V30 222 H 21.7225 -0.127655 3.91892 0
M  V30 223 H 23.2125 -1.11211 4.02519 0
M  V30 224 N 23.6496 -1.47581 0.552962 0
M  V30 225 C 25.0656 -1.5818 0.212424 0
M  V30 226 C 25.2656 -1.55213 -1.28496 0
M  V30 227 O 24.3216 -1.45329 -2.06484 0
M  V30 228 C 25.6346 -2.88865 0.835318 0
M  V30 229 C 27.1826 -3.0244 0.806156 0
M  V30 230 C 27.6576 -4.35819 1.40804 0
M  V30 231 N 29.1486 -4.42444 1.37103 0
M  V30 232 C 29.8836 -5.44202 1.80641 0
M  V30 233 N 29.3796 -6.52795 2.32015 0
M  V30 234 N 31.1726 -5.35222 1.71738 0
M  V30 235 H 23.3236 -1.47753 1.52587 0
M  V30 236 H 25.5866 -0.702941 0.636064 0
M  V30 237 H 25.2926 -2.9676 1.88749 0
M  V30 238 H 25.1666 -3.7579 0.325848 0
M  V30 239 H 27.5536 -2.94144 -0.237317 0
M  V30 240 H 27.6346 -2.17068 1.35334 0
M  V30 241 H 27.2786 -4.44871 2.45056 0
M  V30 242 H 27.2086 -5.19916 0.836338 0
M  V30 243 H 29.6996 -3.6456 0.995202 0
M  V30 244 H 30.0126 -7.26609 2.63171 0
M  V30 245 H 28.3576 -6.53696 2.36023 0
M  V30 246 H 31.5486 -4.49284 1.31382 0
M  V30 247 H 31.7216 -6.14389 2.05987 0
M  V30 248 N 25.1277 -0.289203 -1.54924 0
M  V30 249 C 26.3757 0.322879 -1.99504 0
M  V30 250 C 26.6967 1.55313 -1.1791 0
M  V30 251 O 25.9667 1.94001 -0.272097 0
M  V30 252 H 24.5467 0.122291 -0.736922 0
M  V30 253 H 27.2087 -0.397802 -1.90797 0
M  V30 254 H 26.3047 0.603061 -3.06218 0
M  V30 255 N 26.6058 1.57591 -0.0167156 0
M  V30 256 C 27.5388 2.04944 1.00366 0
M  V30 257 C 28.5168 0.942648 1.32487 0
M  V30 258 O 29.7008 1.21205 1.44367 0
M  V30 259 C 26.8278 2.46109 2.32697 0
M  V30 260 C 25.8738 3.67686 2.16123 0
M  V30 261 S 26.7068 5.14882 1.47161 0
M  V30 262 C 27.8628 5.59332 2.80888 0
M  V30 263 H 28.0958 2.91172 0.600528 0
M  V30 264 H 25.6288 1.53168 0.194632 0
M  V30 265 H 27.5868 2.70493 3.08778 0
M  V30 266 H 26.2478 1.6025 2.70146 0
M  V30 267 H 25.4408 3.94296 3.13922 0
M  V30 268 H 25.0428 3.43391 1.48185 0
M  V30 269 H 27.3348 5.62814 3.77156 0
M  V30 270 H 28.2778 6.5905 2.58958 0
M  V30 271 H 28.6858 4.86942 2.85565 0
M  V30 272 N 28.0839 -0.256276 1.55502 0
M  V30 273 C 29.3319 -0.983672 1.76545 0
M  V30 274 C 29.6529 -1.86206 0.578982 0
M  V30 275 O 28.9229 -1.91656 -0.405577 0
M  V30 276 H 27.5029 -0.366191 0.651086 0
M  V30 277 H 30.1649 -0.276479 1.92929 0
M  V30 278 H 29.2609 -1.61087 2.67315 0
M  V30 279 N 29.562 -1.4872 -0.521534 0
M  V30 280 C 30.525 -1.63379 -1.60748 0
M  V30 281 C 31.525 -0.50661 -1.52611 0
M  V30 282 O 32.715 -0.772601 -1.5613 0
M  V30 283 C 29.847 -1.61192 -3.00383 0
M  V30 284 H 31.04 -2.60217 -1.49087 0
M  V30 285 H 28.593 -1.37444 -0.744235 0
M  V30 286 H 29.328 -0.65863 -3.17541 0
M  V30 287 H 29.113 -2.43032 -3.07698 0
M  V30 288 H 30.603 -1.7466 -3.7932 0
M  V30 289 N 31.0401 0.771051 -1.3745 0
M  V30 290 C 32.2651 1.56529 -1.36065 0
M  V30 291 C 32.6901 1.88029 0.0515859 0
M  V30 292 O 32.0481 1.49282 1.02882 0
M  V30 293 C 32.0961 2.85187 -2.20683 0
M  V30 294 O 31.2001 3.79593 -1.61193 0
M  V30 295 H 30.5411 0.47411 -0.464883 0
M  V30 296 H 33.0711 0.954269 -1.80983 0
M  V30 297 H 33.0811 3.34283 -2.33921 0
M  V30 298 H 31.7561 2.61588 -3.23334 0
M  V30 299 H 30.3331 3.38239 -1.56999 0
M  V30 300 N 32.5182 1.22032 0.997298 0
M  V30 301 C 33.4682 0.953838 2.07089 0
M  V30 302 C 34.4522 -0.0938669 1.60626 0
M  V30 303 O 35.6442 0.116078 1.76619 0
M  V30 304 C 32.7732 0.528726 3.39204 0
M  V30 305 C 31.8592 1.61092 3.92314 0
M  V30 306 N 32.2502 2.83768 4.18699 0
M  V30 307 C 30.5482 1.48158 4.20672 0
M  V30 308 C 31.2492 3.53715 4.61802 0
M  V30 309 N 30.2252 2.81174 4.65233 0
M  V30 310 H 34.0272 1.88577 2.25424 0
M  V30 311 H 31.5412 1.11719 1.17867 0
M  V30 312 H 33.5382 0.31915 4.15677 0
M  V30 313 H 32.1982 -0.39635 3.22272 0
M  V30 314 H 33.2092 3.20238 4.07023 0
M  V30 315 H 29.8862 0.622369 4.12835 0
M  V30 316 H 31.2762 4.58793 4.90875 0
M  V30 317 N 33.9963 -1.19345 1.0293 0
M  V30 318 C 35.2423 -1.89318 0.727083 0
M  V30 319 C 35.5753 -1.79446 -0.742483 0
M  V30 320 O 34.8503 -1.1871 -1.54072 0
M  V30 321 C 35.1333 -3.40238 1.17942 0
M  V30 322 C 34.9863 -3.58979 2.71024 0
M  V30 323 C 36.3053 -4.33479 0.760548 0
M  V30 324 H 33.4243 -0.687475 0.265606 0
M  V30 325 H 36.0663 -1.40477 1.2793 0
M  V30 326 H 34.2163 -3.81964 0.709608 0
M  V30 327 H 35.8883 -3.26421 3.25955 0
M  V30 328 H 34.1313 -3.02018 3.11396 0
M  V30 329 H 34.8023 -4.64823 2.9773 0
M  V30 330 H 37.2783 -3.99469 1.16464 0
M  V30 331 H 36.1543 -5.37664 1.10493 0
M  V30 332 H 36.4153 -4.40813 -0.337063 0
M  V30 333 N 35.4744 -0.807222 -1.35358 0
M  V30 334 C 36.8904 -0.491038 -1.51858 0
M  V30 335 C 37.0904 0.987648 -1.75635 0
M  V30 336 O 36.1464 1.77265 -1.79815 0
M  V30 337 C 37.4594 -1.33695 -2.69344 0
M  V30 338 C 39.0074 -1.33246 -2.83222 0
M  V30 339 C 39.4824 -2.1625 -4.03733 0
M  V30 340 N 40.9734 -2.1379 -4.10911 0
M  V30 341 C 41.7084 -2.74772 -5.03277 0
M  V30 342 N 41.2044 -3.44684 -6.0097 0
M  V30 343 N 42.9974 -2.6441 -4.96028 0
M  V30 344 H 35.1484 -1.76485 -1.18181 0
M  V30 345 H 37.4114 -0.751199 -0.578276 0
M  V30 346 H 37.1174 -2.38634 -2.58354 0
M  V30 347 H 36.9914 -0.990618 -3.6396 0
M  V30 348 H 39.3784 -0.290911 -2.93663 0
M  V30 349 H 39.4594 -1.71866 -1.89461 0
M  V30 350 H 39.1034 -3.20445 -3.94052 0
M  V30 351 H 39.0334 -1.74989 -4.96675 0
M  V30 352 H 41.5244 -1.62923 -3.40976 0
M  V30 353 H 41.8374 -3.88501 -6.68047 0
M  V30 354 H 40.1824 -3.48788 -6.01142 0
M  V30 355 H 43.3734 -2.0938 -4.18662 0
M  V30 356 H 43.5464 -3.12225 -5.6782 0
M  V30 357 N 36.9525 1.47285 -0.560781 0
M  V30 358 C 37.9155 2.28535 0.174488 0
M  V30 359 C 38.9155 1.37153 0.839388 0
M  V30 360 O 40.1055 1.59748 0.694702 0
M  V30 361 C 37.2375 3.16934 1.25561 0
M  V30 362 H 38.4305 2.95012 -0.539262 0
M  V30 363 H 35.9835 1.53034 -0.317865 0
M  V30 364 H 36.7185 2.55157 2.00164 0
M  V30 365 H 36.5035 3.8419 0.783604 0
M  V30 366 H 37.9935 3.78143 1.77193 0
M  V30 367 N 38.4306 0.297415 1.54768 0
M  V30 368 C 39.3636 -0.622188 2.19554 0
M  V30 369 C 40.3416 -1.13558 1.16376 0
M  V30 370 O 41.5256 -1.20444 1.45002 0
M  V30 371 C 38.6526 -1.8509 2.83653 0
M  V30 372 C 37.6986 -1.47106 4.00328 0
M  V30 373 S 38.5316 -0.53006 5.3287 0
M  V30 374 C 39.6876 -1.76665 6.0045 0
M  V30 375 H 39.9206 -0.0717806 2.97213 0
M  V30 376 H 37.4536 0.0815678 1.54184 0
M  V30 377 H 39.4116 -2.55605 3.21211 0
M  V30 378 H 38.0726 -2.37247 2.05846 0
M  V30 379 H 37.2656 -2.38594 4.43947 0
M  V30 380 H 36.8676 -0.845885 3.64309 0
M  V30 381 H 39.1596 -2.7077 6.21039 0
M  V30 382 H 40.1026 -1.37308 6.9466 0
M  V30 383 H 40.5106 -1.94174 5.30054 0
M  V30 384 N 39.9087 -1.5758 0.0250728 0
M  V30 385 C 41.1547 -1.91917 -0.655413 0
M  V30 386 C 41.4877 -0.901433 -1.72011 0
M  V30 387 O 40.7627 0.0764069 -1.9435 0
M  V30 388 C 41.0457 -3.36751 -1.27558 0
M  V30 389 C 40.8987 -4.49258 -0.220719 0
M  V30 390 C 42.2177 -3.81469 -2.19475 0
M  V30 391 H 39.3367 -0.697925 -0.23679 0
M  V30 392 H 41.9787 -1.89825 0.0815036 0
M  V30 393 H 40.1287 -3.38664 -1.90365 0
M  V30 394 H 41.8007 -4.59478 0.409601 0
M  V30 395 H 40.0437 -4.31415 0.454264 0
M  V30 396 H 40.7147 -5.47618 -0.694175 0
M  V30 397 H 43.1907 -3.81266 -1.66659 0
M  V30 398 H 42.0667 -4.83512 -2.59822 0
M  V30 399 H 42.3277 -3.16744 -3.08424 0
M  V30 400 N 41.3868 0.248026 -1.55636 0
M  V30 401 C 42.3498 1.29044 -1.89421 0
M  V30 402 C 43.3498 1.41134 -0.770581 0
M  V30 403 O 44.5398 1.39854 -1.03858 0
M  V30 404 C 41.6718 2.66831 -2.12165 0
M  V30 405 H 42.8648 1.00305 -2.82629 0
M  V30 406 H 40.4178 0.487265 -1.48511 0
M  V30 407 H 41.1528 3.00711 -1.21422 0
M  V30 408 H 40.9378 2.59438 -2.93997 0
M  V30 409 H 42.4278 3.42103 -2.3949 0
M  V30 410 N 42.8649 1.48995 0.513639 0
M  V30 411 C 43.7749 1.67443 1.64317 0
M  V30 412 C 44.7909 0.556947 1.64846 0
M  V30 413 O 45.9669 0.830082 1.83498 0
M  V30 414 C 43.0319 1.72515 3.00732 0
M  V30 415 C 42.0929 2.96009 3.1093 0
M  V30 416 C 41.3259 3.00829 4.40837 0
M  V30 417 O 41.5489 2.13594 5.28898 0
M  V30 418 O 40.4829 3.93168 4.55744 0
M  V30 419 H 44.3089 2.63106 1.51687 0
M  V30 420 H 41.8939 1.32588 0.688543 0
M  V30 421 H 43.7759 1.78277 3.81831 0
M  V30 422 H 42.4509 0.800278 3.13651 0
M  V30 423 H 41.3579 2.9577 2.29065 0
M  V30 424 H 42.6909 3.87934 3.02933 0
M  V30 425 N 44.343 -0.763751 1.37857 0
M  V30 426 C 45.591 -1.51957 1.33243 0
M  V30 427 C 45.912 -1.94835 -0.0801709 0
M  V30 428 O 45.182 -1.66894 -1.02582 0
M  V30 429 H 43.762 -0.563626 0.49024 0
M  V30 430 H 46.424 -0.908504 1.7243 0
M  V30 431 H 45.52 -2.41523 1.97669 0
M  V30 432 N 45.8211 -1.22559 -0.990812 0
M  V30 433 C 46.7841 -0.998863 -2.0629 0
M  V30 434 C 47.7841 0.0354834 -1.60761 0
M  V30 435 O 48.9741 -0.203231 -1.7301 0
M  V30 436 C 46.1061 -0.509203 -3.37076 0
M  V30 437 H 47.2991 -1.95014 -2.27837 0
M  V30 438 H 44.8521 -1.04456 -1.16269 0
M  V30 439 H 45.5871 0.446335 -3.21214 0
M  V30 440 H 45.3721 -1.25547 -3.71457 0
M  V30 441 H 46.8621 -0.370888 -4.1595 0
M  V30 442 N 47.2992 1.18797 -1.03562 0
M  V30 443 C 48.2462 2.22253 -0.622259 0
M  V30 444 C 49.2162 1.61987 0.36736 0
M  V30 445 O 50.4012 1.88986 0.262492 0
M  V30 446 C 47.5412 3.45097 0.0138462 0
M  V30 447 C 46.6542 4.19722 -1.02263 0
M  V30 448 C 45.7892 5.30009 -0.355573 0
M  V30 449 C 44.8282 5.96399 -1.37749 0
M  V30 450 N 43.9652 6.98234 -0.735766 0
M  V30 451 H 48.8052 2.56968 -1.50903 0
M  V30 452 H 46.3422 1.26245 -0.755017 0
M  V30 453 H 48.3002 4.15279 0.399948 0
M  V30 454 H 46.9302 3.11018 0.864158 0
M  V30 455 H 45.9822 3.48418 -1.52673 0
M  V30 456 H 47.2942 4.65227 -1.79903 0
M  V30 457 H 46.4482 6.0664 0.0850095 0
M  V30 458 H 45.1872 4.85592 0.452967 0
M  V30 459 H 44.1922 5.18512 -1.82826 0
M  V30 460 H 45.4172 6.42899 -2.18764 0
M  V30 461 H 43.3632 6.55979 0.0525597 0
M  V30 462 H 43.2802 7.41965 -1.44995 0
M  V30 463 H 44.5482 7.78845 -0.31941 0
M  V30 464 N 48.7773 0.814389 1.34928 0
M  V30 465 C 50.0233 0.399013 1.98836 0
M  V30 466 C 50.3563 -1.03314 1.64438 0
M  V30 467 O 49.6313 -1.71811 0.911659 0
M  V30 468 C 49.9143 0.591629 3.55207 0
M  V30 469 C 49.7673 2.06928 3.99376 0
M  V30 470 C 51.0863 0.022199 4.40094 0
M  V30 471 H 48.2053 0.146451 0.722303 0
M  V30 472 H 50.8473 1.02537 1.59957 0
M  V30 473 H 48.9973 0.0584441 3.88456 0
M  V30 474 H 50.6693 2.66544 3.76499 0
M  V30 475 H 48.9123 2.56287 3.49999 0
M  V30 476 H 49.5833 2.1549 5.08201 0
M  V30 477 H 52.0593 0.477643 4.13349 0
M  V30 478 H 50.9353 0.186832 5.48582 0
M  V30 479 H 51.1963 -1.07215 4.28902 0
M  V30 480 N 50.2554 -1.46986 0.568584 0
M  V30 481 C 51.5014 -2.02741 0.0488709 0
M  V30 482 C 51.8344 -1.44077 -1.30214 0
M  V30 483 O 51.1094 -0.600552 -1.84996 0
M  V30 484 C 51.3924 -3.60086 -0.032047 0
M  V30 485 C 51.2454 -4.29162 1.34686 0
M  V30 486 C 52.5644 -4.33838 -0.739798 0
M  V30 487 H 49.6834 -0.736749 0.0192338 0
M  V30 488 H 52.3254 -1.75289 0.733065 0
M  V30 489 H 50.4754 -3.83606 -0.61473 0
M  V30 490 H 52.1474 -4.16948 1.97362 0
M  V30 491 H 50.3904 -3.89073 1.91846 0
M  V30 492 H 51.0614 -5.37826 1.24285 0
M  V30 493 H 53.5374 -4.15378 -0.244939 0
M  V30 494 H 52.4134 -5.43537 -0.765406 0
M  V30 495 H 52.6744 -4.03875 -1.79827 0
M  V30 496 N 51.7335 -0.305618 -1.54608 0
M  V30 497 C 52.9805 0.302298 -2.00231 0
M  V30 498 C 53.3085 1.5354 -1.19398 0
M  V30 499 O 52.5635 1.93973 -0.259423 0
M  V30 500 C 52.8625 0.698983 -3.50498 0
M  V30 501 C 52.5285 -0.432903 -4.48817 0
M  V30 502 C 51.1905 -0.743622 -4.75419 0
M  V30 503 C 53.5425 -1.19409 -5.07337 0
M  V30 504 C 50.8705 -1.81857 -5.57804 0
M  V30 505 C 53.2225 -2.25899 -5.90891 0
M  V30 506 C 51.8865 -2.57572 -6.15803 0
M  V30 507 H 51.1565 0.110619 -0.732697 0
M  V30 508 H 53.8035 -0.425674 -1.86709 0
M  V30 509 H 52.1085 1.50711 -3.61654 0
M  V30 510 H 53.8055 1.1806 -3.83227 0
M  V30 511 H 50.3955 -0.18063 -4.28219 0
M  V30 512 H 54.5795 -0.967295 -4.86782 0
M  V30 513 H 49.8355 -2.06864 -5.75341 0
M  V30 514 H 54.0095 -2.85335 -6.35261 0
M  V30 515 H 51.6365 -3.40998 -6.7943 0
M  V30 516 N 53.2116 1.57565 -0.0334293 0
M  V30 517 C 54.4596 1.91598 0.642999 0
M  V30 518 C 54.7806 0.910847 1.7242 0
M  V30 519 O 54.0506 -0.0469931 1.95844 0
M  V30 520 H 52.6306 0.707228 0.240496 0
M  V30 521 H 55.2926 1.94726 -0.0822488 0
M  V30 522 H 54.3886 2.92336 1.09298 0
M  V30 523 N 54.6897 -0.239769 1.55765 0
M  V30 524 C 55.9667 -0.990056 1.68693 0
M  V30 525 C 56.3467 -2.03107 0.5754 0
M  V30 526 O 55.6947 -2.24604 -0.42017 0
M  V30 527 C 55.9047 -1.61696 3.09282 0
M  V30 528 C 57.2527 -2.11613 3.6811 0
M  V30 529 O 58.2767 -1.71624 3.12127 0
M  V30 530 O 57.1357 -2.85057 4.66267 0
M  V30 531 H 54.2297 -0.461299 0.686391 0
M  V30 532 H 56.7757 -0.232991 1.68093 0
M  V30 533 H 55.5477 -0.864357 3.81634 0
M  V30 534 H 55.1707 -2.44005 3.13923 0
M  V30 535 N 56.1678 -1.49265 -0.50573 0
M  V30 536 C 57.4168 -1.57761 -1.25675 0
M  V30 537 C 57.7298 -0.267371 -1.93764 0
M  V30 538 O 58.9358 -0.230827 -2.70517 0
M  V30 539 C 57.3918 -2.78332 -2.28165 0
M  V30 540 C 56.9998 -4.16096 -1.66037 0
M  V30 541 C 58.7438 -2.96155 -3.04125 0
M  V30 542 C 56.6508 -5.27895 -2.6661 0
M  V30 543 H 55.5808 -0.587391 -0.472745 0
M  V30 544 H 58.2318 -1.75644 -0.53118 0
M  V30 545 H 56.6138 -2.53934 -3.03865 0
M  V30 546 H 57.7878 -4.50612 -0.963622 0
M  V30 547 H 56.1028 -4.03591 -1.02484 0
M  V30 548 H 58.6998 -3.76849 -3.79327 0
M  V30 549 H 59.0428 -2.06534 -3.61455 0
M  V30 550 H 59.5758 -3.2057 -2.35541 0
M  V30 551 H 56.3148 -6.1956 -2.14068 0
M  V30 552 H 55.8348 -4.97839 -3.34539 0
M  V30 553 H 57.5138 -5.57031 -3.29129 0
M  V30 554 N 57.6459 0.756429 -1.3826 0
M  V30 555 C 58.5759 1.88374 -1.37976 0
M  V30 556 C 59.5569 1.68311 -0.246082 0
M  V30 557 O 60.7419 1.88944 -0.44874 0
M  V30 558 C 57.8719 3.25864 -1.20125 0
M  V30 559 C 56.8259 3.60523 -2.30666 0
M  V30 560 C 56.1519 4.9672 -1.97923 0
M  V30 561 C 57.4519 3.65692 -3.72916 0
M  V30 562 H 59.1459 1.88869 -2.32312 0
M  V30 563 H 56.6919 0.907272 -1.11824 0
M  V30 564 H 58.6449 4.0438 -1.18552 0
M  V30 565 H 57.3689 3.25841 -0.222498 0
M  V30 566 H 56.0279 2.84324 -2.3142 0
M  V30 567 H 55.6759 4.93253 -0.985393 0
M  V30 568 H 55.3759 5.20878 -2.71955 0
M  V30 569 H 56.8999 5.77618 -1.97964 0
M  V30 570 H 58.3139 4.34328 -3.74208 0
M  V30 571 H 56.7109 4.01358 -4.4613 0
M  V30 572 H 57.7809 2.65987 -4.05436 0
M  V30 573 N 59.124 1.23083 0.984299 0
M  V30 574 C 60.401 0.9689 1.69917 0
M  V30 575 C 60.781 -0.513604 2.04757 0
M  V30 576 O 60.129 -1.48383 1.73767 0
M  V30 577 C 60.339 1.87518 2.94343 0
M  V30 578 C 61.687 2.13636 3.6694 0
M  V30 579 O 62.711 1.85036 3.04368 0
M  V30 580 O 61.57 2.62119 4.79537 0
M  V30 581 H 58.664 0.365095 0.742048 0
M  V30 582 H 61.21 1.34107 1.03987 0
M  V30 583 H 59.982 2.87756 2.65164 0
M  V30 584 H 59.605 1.50514 3.6801 0
M  V30 585 N 60.6021 -1.18246 1.0419 0
M  V30 586 C 61.5121 -2.25574 0.644476 0
M  V30 587 C 62.5281 -1.70845 -0.329826 0
M  V30 588 O 63.7041 -2.00554 -0.184443 0
M  V30 589 C 60.7691 -3.46697 0.014877 0
M  V30 590 C 59.8301 -4.16554 1.03834 0
M  V30 591 C 59.0631 -5.31894 0.438692 0
M  V30 592 O 59.2861 -5.65385 -0.754752 0
M  V30 593 O 58.2201 -5.90459 1.168 0
M  V30 594 H 62.0461 -2.61836 1.53869 0
M  V30 595 H 59.6311 -1.25352 0.812854 0
M  V30 596 H 61.5131 -4.20062 -0.335538 0
M  V30 597 H 60.1881 -3.12255 -0.853138 0
M  V30 598 H 59.0951 -3.45251 1.44057 0
M  V30 599 H 60.4281 -4.54998 1.87716 0
M  V30 600 N 62.0802 -0.821533 -1.34494 0
M  V30 601 C 62.9902 -0.244355 -2.33324 0
M  V30 602 C 64.0062 0.620527 -1.62559 0
M  V30 603 O 65.1822 0.528754 -1.94335 0
M  V30 604 C 62.2472 0.585368 -3.41723 0
M  V30 605 C 61.3082 -0.301752 -4.28238 0
M  V30 606 C 60.5412 0.488466 -5.3146 0
M  V30 607 O 60.7642 1.72186 -5.4379 0
M  V30 608 O 59.6982 -0.12848 -6.01763 0
M  V30 609 H 63.5242 -1.06231 -2.84515 0
M  V30 610 H 61.1092 -0.583645 -1.37528 0
M  V30 611 H 62.9912 1.05747 -4.07916 0
M  V30 612 H 61.6662 1.38068 -2.92778 0
M  V30 613 H 60.5732 -0.821315 -3.64973 0
M  V30 614 H 61.9062 -1.06138 -4.8062 0
M  V30 615 N 63.5583 1.46682 -0.576371 0
M  V30 616 C 64.8063 2.02013 -0.0594163 0
M  V30 617 C 65.1273 1.45101 1.30271 0
M  V30 618 O 64.3973 0.633317 1.8538 0
M  V30 619 H 62.9773 0.746759 -0.0189745 0
M  V30 620 H 65.6393 1.79862 -0.750717 0
M  V30 621 H 64.7353 3.12097 0.014345 0
M  V30 622 N 65.0364 0.313813 1.54444 0
M  V30 623 C 65.9834 -0.55655 2.23989 0
M  V30 624 C 66.9534 -1.11943 1.22711 0
M  V30 625 O 68.1384 -1.16158 1.51367 0
M  V30 626 C 65.2784 -1.71635 2.99392 0
M  V30 627 C 64.3914 -1.18364 4.15468 0
M  V30 628 C 63.5264 -2.30834 4.78424 0
M  V30 629 C 62.5654 -1.74762 5.86622 0
M  V30 630 N 61.7024 -2.80855 6.43479 0
M  V30 631 H 66.5424 0.0430893 2.97969 0
M  V30 632 H 64.0794 0.0330359 1.47063 0
M  V30 633 H 66.0374 -2.39868 3.41349 0
M  V30 634 H 64.6674 -2.28742 2.27765 0
M  V30 635 H 63.7194 -0.393163 3.78363 0
M  V30 636 H 65.0314 -0.733262 4.93381 0
M  V30 637 H 64.1854 -3.0699 5.23299 0
M  V30 638 H 62.9244 -2.79204 3.99871 0
M  V30 639 H 61.9294 -0.970995 5.41158 0
M  V30 640 H 63.1544 -1.2728 6.67066 0
M  V30 641 H 61.1004 -3.28535 5.67804 0
M  V30 642 H 61.0174 -2.40351 7.16776 0
M  V30 643 H 62.2854 -3.5687 6.93011 0
M  V30 644 N 66.5145 -1.57545 0.0417849 0
M  V30 645 C 67.4775 -2.09885 -0.92093 0
M  V30 646 C 68.4775 -1.01648 -1.24596 0
M  V30 647 O 69.6675 -1.27759 -1.1842 0
M  V30 648 C 66.7995 -2.57527 -2.23367 0
M  V30 649 H 67.9925 -2.96236 -0.467382 0
M  V30 650 H 65.5455 -1.5493 -0.206467 0
M  V30 651 H 66.2805 -1.74542 -2.73323 0
M  V30 652 H 66.0655 -3.36613 -2.01083 0
M  V30 653 H 67.5555 -2.98201 -2.92346 0
M  V30 654 N 67.9926 0.231505 -1.5589 0
M  V30 655 C 69.2386 0.95877 -1.78705 0
M  V30 656 C 69.5716 1.8438 -0.609725 0
M  V30 657 O 68.8466 1.90521 0.391426 0
M  V30 658 C 69.1296 1.8062 -3.11526 0
M  V30 659 C 68.9826 0.948328 -4.39689 0
M  V30 660 C 70.3016 2.78585 -3.40703 0
M  V30 661 H 67.4206 0.347129 -0.650131 0
M  V30 662 H 70.0626 0.228259 -1.88624 0
M  V30 663 H 68.2126 2.42902 -3.03201 0
M  V30 664 H 69.8846 0.343016 -4.60023 0
M  V30 665 H 68.1276 0.253314 -4.3306 0
M  V30 666 H 68.7986 1.57543 -5.29041 0
M  V30 667 H 71.2746 2.26439 -3.49091 0
M  V30 668 H 70.1506 3.34988 -4.34826 0
M  V30 669 H 70.4116 3.55825 -2.62375 0
M  V30 670 N 69.4707 1.49531 0.497807 0
M  V30 671 C 70.4337 1.65916 1.58128 0
M  V30 672 C 71.4337 0.530825 1.51786 0
M  V30 673 O 72.6237 0.797342 1.54881 0
M  V30 674 C 69.7557 1.65951 2.9778 0
M  V30 675 H 70.9487 2.62556 1.44929 0
M  V30 676 H 68.5017 1.38611 0.722275 0
M  V30 677 H 69.2367 0.709065 3.16453 0
M  V30 678 H 69.0217 2.47897 3.03792 0
M  V30 679 H 70.5117 1.80673 3.76493 0
M  V30 680 N 70.9488 -0.749086 1.3866 0
M  V30 681 C 71.9118 -1.84457 1.36045 0
M  V30 682 C 72.9118 -1.58682 0.260122 0
M  V30 683 O 74.1018 -1.66343 0.517261 0
M  V30 684 C 71.2338 -3.22008 1.11911 0
M  V30 685 H 72.4268 -1.88182 2.33512 0
M  V30 686 H 69.9798 -0.951266 1.24019 0
M  V30 687 H 70.7148 -3.2395 0.150686 0
M  V30 688 H 70.4998 -3.42111 1.91579 0
M  V30 689 H 71.9898 -4.0208 1.12788 0
M  V30 690 N 72.4269 -1.23603 -0.977757 0
M  V30 691 C 73.3369 -1.03632 -2.1047 0
M  V30 692 C 74.3529 0.0199435 -1.73989 0
M  V30 693 O 75.5289 -0.176076 -2.00629 0
M  V30 694 C 72.5939 -0.63276 -3.40877 0
M  V30 695 C 71.6549 -1.76437 -3.91367 0
M  V30 696 C 70.8879 -1.37997 -5.15551 0
M  V30 697 O 71.1109 -0.265357 -5.69782 0
M  V30 698 O 70.0449 -2.20201 -5.60174 0
M  V30 699 H 73.8709 -1.98086 -2.30208 0
M  V30 700 H 71.4559 -1.02332 -1.08851 0
M  V30 701 H 73.3379 -0.418761 -4.19314 0
M  V30 702 H 72.0129 0.282754 -3.22463 0
M  V30 703 H 70.9199 -2.03304 -3.14036 0
M  V30 704 H 72.2529 -2.6583 -4.14241 0
M  V30 705 N 73.905 1.17692 -1.04816 0
M  V30 706 C 74.835 2.23777 -0.666791 0
M  V30 707 C 75.816 1.66796 0.33361 0
M  V30 708 O 77.001 1.93039 0.212042 0
M  V30 709 C 74.131 3.47281 -0.0367933 0
M  V30 710 C 73.085 4.17059 -0.961546 0
M  V30 711 C 72.411 5.34342 -0.195626 0
M  V30 712 C 73.711 4.69713 -2.28402 0
M  V30 713 H 75.405 2.55933 -1.55367 0
M  V30 714 H 72.951 1.23019 -0.748484 0
M  V30 715 H 74.904 4.20706 0.241775 0
M  V30 716 H 73.628 3.14381 0.885004 0
M  V30 717 H 72.287 3.45541 -1.22462 0
M  V30 718 H 71.935 4.97692 0.728816 0
M  V30 719 H 71.635 5.81966 -0.811775 0
M  V30 720 H 73.159 6.10553 0.0757473 0
M  V30 721 H 74.573 5.34794 -2.06563 0
M  V30 722 H 72.97 5.279 -2.8538 0
M  V30 723 H 74.04 3.86726 -2.92525 0
M  V30 724 N 75.3831 0.828654 1.34056 0
M  V30 725 C 76.3461 0.259927 2.27721 0
M  V30 726 C 77.3461 -0.565478 1.50529 0
M  V30 727 O 78.5361 -0.38075 1.69988 0
M  V30 728 C 75.6681 -0.634944 3.34935 0
M  V30 729 H 76.8611 1.0863 2.79534 0
M  V30 730 H 74.4141 0.600951 1.44285 0
M  V30 731 H 75.1491 -1.48416 2.88346 0
M  V30 732 H 74.9341 -0.0444999 3.92075 0
M  V30 733 H 76.4241 -1.02648 4.04788 0
M  V30 734 N 76.8612 -1.46375 0.584142 0
M  V30 735 C 78.1382 -1.956 0.0033388 0
M  V30 736 C 78.5182 -1.52679 -1.45782 0
M  V30 737 O 77.8662 -0.77816 -2.14842 0
M  V30 738 C 78.0762 -3.48551 0.176891 0
M  V30 739 C 79.4242 -4.24576 0.0454609 0
M  V30 740 O 80.4482 -3.56043 0.105801 0
M  V30 741 O 79.3072 -5.46427 -0.0890376 0
M  V30 742 H 76.4012 -0.825547 -0.0490066 0
M  V30 743 H 78.9472 -1.56652 0.65256 0
M  V30 744 H 77.7192 -3.72683 1.1926 0
M  V30 745 H 77.3422 -3.94332 -0.508695 0
M  V30 746 N 78.3393 -0.321999 -1.54275 0
M  V30 747 C 79.3023 0.531975 -2.22941 0
M  V30 748 C 80.3023 1.04478 -1.22234 0
M  V30 749 O 81.4923 0.937452 -1.46825 0
M  V30 750 C 78.6243 1.73874 -2.93224 0
M  V30 751 H 79.8173 -0.0682612 -2.99822 0
M  V30 752 H 77.3703 -0.0730644 -1.56129 0
M  V30 753 H 78.1053 2.37825 -2.20476 0
M  V30 754 H 77.8903 1.37847 -3.6707 0
M  V30 755 H 79.3803 2.34496 -3.45545 0
M  V30 756 N 79.8174 1.5752 -0.0501392 0
M  V30 757 C 80.7804 2.1037 0.909786 0
M  V30 758 C 81.7804 1.02308 1.24056 0
M  V30 759 O 82.9704 1.28385 1.17741 0
M  V30 760 C 80.1024 2.58708 2.21998 0
M  V30 761 H 81.2954 2.96479 0.451665 0
M  V30 762 H 78.8484 1.55038 0.198248 0
M  V30 763 H 79.5834 1.75989 2.72394 0
M  V30 764 H 79.3684 3.37675 1.99295 0
M  V30 765 H 80.8584 2.99747 2.9076 0
M  V30 766 N 81.2955 -0.223234 1.56011 0
M  V30 767 C 82.7115 -0.572856 1.48965 0
M  V30 768 C 82.9115 -1.87225 0.74492 0
M  V30 769 O 81.9675 -2.50899 0.283896 0
M  V30 770 C 83.2805 -0.653646 2.9351 0
M  V30 771 C 84.8285 -0.744386 3.0402 0
M  V30 772 C 85.3035 -0.856535 4.49919 0
M  V30 773 N 86.7945 -0.9208 4.53955 0
M  V30 774 C 87.5295 -1.02726 5.64123 0
M  V30 775 N 87.0255 -1.09777 6.84047 0
M  V30 776 N 88.8185 -1.06226 5.51971 0
M  V30 777 H 80.9695 0.629462 2.02858 0
M  V30 778 H 83.2325 0.220621 0.921971 0
M  V30 779 H 82.9385 0.231518 3.50937 0
M  V30 780 H 82.8125 -1.51781 3.45315 0
M  V30 781 H 85.1995 -1.61999 2.46658 0
M  V30 782 H 85.2805 0.14541 2.55386 0
M  V30 783 H 84.9245 0.0146069 5.07898 0
M  V30 784 H 84.8545 -1.76172 4.96257 0
M  V30 785 H 87.3455 -0.876694 3.6759 0
M  V30 786 H 87.6585 -1.17872 7.63758 0
M  V30 787 H 86.0035 -1.06693 6.86762 0
M  V30 788 H 89.1945 -1.00382 4.5721 0
M  V30 789 H 89.3675 -1.14177 6.37862 0
M  V30 790 N 82.7736 -1.49793 -0.48987 0
M  V30 791 C 84.0036 -1.6333 -1.26518 0
M  V30 792 C 84.4116 -0.308392 -1.8667 0
M  V30 793 O 83.7546 0.717512 -1.69108 0
M  V30 794 C 83.8166 -2.6522 -2.4269 0
M  V30 795 C 83.4806 -4.09279 -2.03321 0
M  V30 796 C 84.4776 -4.95738 -1.56652 0
M  V30 797 C 82.1626 -4.55082 -2.12616 0
M  V30 798 C 84.1566 -6.26041 -1.19795 0
M  V30 799 C 81.8436 -5.85396 -1.75371 0
M  V30 800 C 82.8416 -6.707 -1.29036 0
M  V30 801 O 82.5296 -7.98584 -0.92299 0
M  V30 802 H 82.2616 -0.552502 -0.389509 0
M  V30 803 H 84.8156 -1.96642 -0.593381 0
M  V30 804 H 83.0456 -2.27112 -3.12981 0
M  V30 805 H 84.7346 -2.68171 -3.04695 0
M  V30 806 H 85.5006 -4.61575 -1.48908 0
M  V30 807 H 81.3796 -3.88844 -2.47631 0
M  V30 808 H 84.9236 -6.92578 -0.835582 0
M  V30 809 H 80.8206 -6.19085 -1.82768 0
M  V30 810 H 81.5886 -8.11692 -1.05349 0
M  V30 811 N 84.2517 0.741722 -1.39055 0
M  V30 812 C 85.4977 1.50336 -1.36113 0
M  V30 813 C 85.8307 1.94148 0.0450796 0
M  V30 814 O 85.1057 1.66301 1.00868 0
M  V30 815 C 85.3887 2.74773 -2.32749 0
M  V30 816 C 85.2417 2.37023 -3.82283 0
M  V30 817 C 86.5607 3.76846 -2.27322 0
M  V30 818 H 83.6797 0.545351 -0.495743 0
M  V30 819 H 86.3217 0.848624 -1.69995 0
M  V30 820 H 84.4717 3.30639 -2.03986 0
M  V30 821 H 86.1437 1.8684 -4.21768 0
M  V30 822 H 84.3867 1.69334 -3.99385 0
M  V30 823 H 85.0577 3.26104 -4.45376 0
M  V30 824 H 87.5337 3.30548 -2.5274 0
M  V30 825 H 86.4097 4.6159 -2.97028 0
M  V30 826 H 86.6707 4.23286 -1.27599 0
M  V30 827 N 85.7298 1.2412 0.971189 0
M  V30 828 C 86.6798 0.997551 2.05019 0
M  V30 829 C 87.6638 -0.0597747 1.60789 0
M  V30 830 O 88.8558 0.153516 1.76333 0
M  V30 831 C 85.9848 0.600557 3.38006 0
M  V30 832 C 85.0708 1.69377 3.88809 0
M  V30 833 N 85.4618 2.92586 4.12586 0
M  V30 834 C 83.7598 1.57048 4.17435 0
M  V30 835 C 84.4608 3.63431 4.54195 0
M  V30 836 N 83.4368 2.90979 4.59165 0
M  V30 837 H 87.2388 1.93316 2.21374 0
M  V30 838 H 84.7528 1.14194 1.1547 0
M  V30 839 H 86.7498 0.40725 4.14906 0
M  V30 840 H 85.4098 -0.327903 3.2304 0
M  V30 841 H 86.4208 3.288 4.00139 0
M  V30 842 H 83.0978 0.709798 4.11422 0
M  V30 843 H 84.4878 4.69102 4.81033 0
M  V30 844 N 87.2079 -1.17134 1.05439 0
M  V30 845 C 88.1379 -2.2342 0.678649 0
M  V30 846 C 89.1189 -1.66971 -0.32476 0
M  V30 847 O 90.3039 -1.93149 -0.201802 0
M  V30 848 C 87.4339 -3.47256 0.0552099 0
M  V30 849 C 86.3879 -4.16543 0.98365 0
M  V30 850 C 85.7139 -5.34231 0.223961 0
M  V30 851 C 87.0139 -4.68495 2.3089 0
M  V30 852 H 88.7079 -2.55105 1.56722 0
M  V30 853 H 86.2539 -1.2262 0.754998 0
M  V30 854 H 88.2069 -4.20828 -0.21946 0
M  V30 855 H 86.9309 -3.14846 -0.868319 0
M  V30 856 H 85.5899 -3.44887 1.24293 0
M  V30 857 H 85.2379 -4.98071 -0.702412 0
M  V30 858 H 84.9379 -5.81527 0.842627 0
M  V30 859 H 86.4619 -6.10585 -0.0433671 0
M  V30 860 H 87.8759 -5.33691 2.09396 0
M  V30 861 H 86.2729 -5.26379 2.88176 0
M  V30 862 H 87.3429 -3.85169 2.94572 0
M  V30 863 N 88.686 -0.835752 -1.33615 0
M  V30 864 C 89.963 -0.352017 -1.92406 0
M  V30 865 C 90.343 1.16225 -1.76224 0
M  V30 866 O 89.691 1.97526 -1.14873 0
M  V30 867 C 89.901 -0.795485 -3.39813 0
M  V30 868 C 91.249 -0.801703 -4.16963 0
M  V30 869 O 92.273 -0.738889 -3.48452 0
M  V30 870 O 91.132 -0.886607 -5.3926 0
M  V30 871 H 88.226 -0.0989641 -0.821057 0
M  V30 872 H 90.772 -0.921397 -1.42507 0
M  V30 873 H 89.544 -1.83795 -3.45449 0
M  V30 874 H 89.167 -0.202505 -3.97084 0
M  V30 875 N 90.1641 1.46063 -0.591896 0
M  V30 876 C 91.4101 2.02638 -0.0811191 0
M  V30 877 C 91.7431 1.4613 1.27905 0
M  V30 878 O 91.0181 0.629908 1.84017 0
M  V30 879 C 91.3011 3.60091 -0.0252436 0
M  V30 880 C 91.1541 4.26965 -1.41496 0
M  V30 881 C 92.4731 4.3496 0.670685 0
M  V30 882 H 89.5921 0.73635 -0.0309524 0
M  V30 883 H 92.2341 1.741 -0.760859 0
M  V30 884 H 90.3841 3.84535 0.553624 0
M  V30 885 H 92.0561 4.13756 -2.0397 0
M  V30 886 H 90.2991 3.85971 -1.98011 0
M  V30 887 H 90.9701 5.35781 -1.32825 0
M  V30 888 H 93.4461 4.15716 0.178825 0
M  V30 889 H 92.3221 5.44686 0.678837 0
M  V30 890 H 92.5831 4.06685 1.73379 0
M  V30 891 N 91.6422 0.330177 1.54103 0
M  V30 892 C 92.8702 -0.272179 2.05102 0
M  V30 893 C 93.2852 -1.45267 1.20595 0
M  V30 894 O 92.6422 -1.8094 0.238144 0
M  V30 895 C 92.6932 -0.70023 3.54653 0
M  V30 896 O 92.4142 0.433301 4.35952 0
M  V30 897 C 93.9152 -1.3647 4.21771 0
M  V30 898 H 91.1352 -0.0549159 0.668749 0
M  V30 899 H 93.6792 0.478285 1.98828 0
M  V30 900 H 91.8342 -1.40066 3.61193 0
M  V30 901 H 92.2482 0.0947539 5.24414 0
M  V30 902 H 93.7222 -1.61509 5.27843 0
M  V30 903 H 94.1992 -2.31409 3.73292 0
M  V30 904 H 94.8052 -0.706675 4.19388 0
M  V30 905 N 93.1203 -1.57491 0.0584922 0
M  V30 906 C 94.0523 -2.08916 -0.942694 0
M  V30 907 C 95.0653 -1.0185 -1.27006 0
M  V30 908 O 96.2543 -1.29398 -1.22957 0
M  V30 909 C 93.3543 -2.52341 -2.26224 0
M  V30 910 C 92.5273 -3.82827 -2.1157 0
M  V30 911 C 91.5863 -4.12487 -3.26712 0
M  V30 912 O 90.6123 -4.82295 -3.02292 0
M  V30 913 N 91.8143 -3.64978 -4.5141 0
M  V30 914 H 94.5793 -2.95437 -0.503722 0
M  V30 915 H 92.1403 -1.61397 -0.12757 0
M  V30 916 H 94.1323 -2.69254 -3.02133 0
M  V30 917 H 92.7023 -1.7103 -2.61663 0
M  V30 918 H 91.9223 -3.75425 -1.20208 0
M  V30 919 H 93.2103 -4.68263 -1.99015 0
M  V30 920 H 92.6083 -3.08558 -4.7414 0
M  V30 921 H 91.1653 -3.87115 -5.2439 0
M  V30 922 N 94.5984 0.214957 -1.56127 0
M  V30 923 C 96.0094 0.781386 -1.69562 0
M  V30 924 C 96.3604 1.84707 -0.66165 0
M  V30 925 O 95.4854 2.156 0.185927 0
M  V30 926 C 96.0804 1.42411 -3.07416 0
M  V30 927 C 94.6394 1.93786 -3.22683 0
M  V30 928 C 93.7864 0.800438 -2.65496 0
M  V30 929 H 96.7374 -0.00980633 -1.58697 0
M  V30 930 H 96.7584 2.29309 -3.0364 0
M  V30 931 H 96.2704 0.64826 -3.82648 0
M  V30 932 H 94.3714 2.74152 -2.52332 0
M  V30 933 H 94.4844 2.1133 -4.29973 0
M  V30 934 H 92.8484 1.2095 -2.2415 0
M  V30 935 H 93.6314 0.0371471 -3.4328 0
M  V30 936 N 96.0765 1.50051 0.48192 0
M  V30 937 C 97.0395 1.67584 1.5636 0
M  V30 938 C 98.0395 0.546894 1.51214 0
M  V30 939 O 99.2295 0.813725 1.54026 0
M  V30 940 C 96.3615 1.691 2.96003 0
M  V30 941 H 97.5545 2.64078 1.42136 0
M  V30 942 H 95.1075 1.39369 0.707533 0
M  V30 943 H 95.8425 0.742589 3.15684 0
M  V30 944 H 95.6275 2.51105 3.01146 0
M  V30 945 H 97.1175 1.84656 3.74556 0
M  V30 946 N 97.5546 -0.734337 1.39446 0
M  V30 947 C 98.4866 -1.85861 1.34121 0
M  V30 948 C 99.4996 -1.60871 0.249864 0
M  V30 949 O 100.689 -1.71093 0.508865 0
M  V30 950 C 97.7886 -3.21899 1.05991 0
M  V30 951 C 96.9616 -3.74239 2.26415 0
M  V30 952 C 96.0206 -4.88841 1.94733 0
M  V30 953 O 95.0466 -5.02468 2.67422 0
M  V30 954 N 96.2486 -5.73261 0.913884 0
M  V30 955 H 99.0136 -1.90934 2.31007 0
M  V30 956 H 96.5746 -0.915102 1.33557 0
M  V30 957 H 98.5666 -3.96136 0.828147 0
M  V30 958 H 97.1366 -3.12091 0.178361 0
M  V30 959 H 96.3566 -2.91347 2.65539 0
M  V30 960 H 97.6446 -4.05942 3.06738 0
M  V30 961 H 97.0426 -5.64842 0.311476 0
M  V30 962 H 95.5996 -6.47563 0.742015 0
M  V30 963 N 99.0327 -1.24633 -0.964593 0
M  V30 964 C 100.279 -1.09957 -1.71117 0
M  V30 965 C 100.634 0.357422 -1.89051 0
M  V30 966 O 99.9267 1.26029 -1.44317 0
M  V30 967 C 100.121 -1.7763 -3.10133 0
M  V30 968 C 99.9497 -3.29759 -3.05759 0
M  V30 969 C 98.7197 -3.98981 -3.10068 0
M  V30 970 C 100.918 -4.26305 -2.87695 0
M  V30 971 N 98.8997 -5.37966 -2.95747 0
M  V30 972 C 100.271 -5.52308 -2.81702 0
M  V30 973 C 102.326 -4.16842 -2.72299 0
M  V30 974 C 101.029 -6.69931 -2.61887 0
M  V30 975 C 103.055 -5.34147 -2.53853 0
M  V30 976 C 102.417 -6.59084 -2.48572 0
M  V30 977 H 98.5157 -0.457003 -0.634564 0
M  V30 978 H 101.1 -1.57592 -1.14337 0
M  V30 979 H 99.2707 -1.32504 -3.65099 0
M  V30 980 H 101.003 -1.55786 -3.73514 0
M  V30 981 H 97.7577 -3.50169 -3.18871 0
M  V30 982 H 98.1817 -6.10877 -2.91818 0
M  V30 983 H 102.824 -3.21007 -2.75163 0
M  V30 984 H 100.542 -7.65886 -2.57767 0
M  V30 985 H 104.128 -5.28678 -2.4288 0
M  V30 986 H 103.008 -7.48324 -2.34481 0
M  V30 987 N 100.511 1.16574 -1.06058 0
M  V30 988 C 101.739 1.90952 -0.796552 0
M  V30 989 C 102.154 1.77302 0.648808 0
M  V30 990 O 101.511 1.11605 1.44397 0
M  V30 991 C 101.562 3.41736 -1.17894 0
M  V30 992 O 101.283 3.54975 -2.56758 0
M  V30 993 C 102.784 4.33169 -0.942308 0
M  V30 994 H 100.004 0.605594 -0.288959 0
M  V30 995 H 102.548 1.47777 -1.41358 0
M  V30 996 H 100.703 3.82623 -0.606491 0
M  V30 997 H 101.117 4.4846 -2.72 0
M  V30 998 H 102.591 5.37439 -1.25952 0
M  V30 999 H 103.068 4.3903 0.122078 0
M  V30 1000 H 103.674 3.98007 -1.49902 0
M  V30 1001 N 101.989 0.842826 1.3317 0
M  V30 1002 C 102.952 0.284065 2.27433 0
M  V30 1003 C 103.952 -0.54948 1.5112 0
M  V30 1004 O 105.142 -0.362699 1.70382 0
M  V30 1005 C 102.274 -0.599384 3.35589 0
M  V30 1006 H 103.467 1.11589 2.78366 0
M  V30 1007 H 101.02 0.616221 1.4364 0
M  V30 1008 H 101.755 -1.45349 2.89904 0
M  V30 1009 H 101.54 -0.00291266 3.921 0
M  V30 1010 H 103.03 -0.983488 4.05854 0
M  V30 1011 N 103.467 -1.45747 0.599634 0
M  V30 1012 C 104.43 -2.28917 -0.113835 0
M  V30 1013 C 105.43 -1.3933 -0.802729 0
M  V30 1014 O 106.62 -1.61534 -0.652103 0
M  V30 1015 C 103.752 -3.20152 -1.17114 0
M  V30 1016 H 104.945 -2.93478 0.617289 0
M  V30 1017 H 102.498 -1.52137 0.358327 0
M  V30 1018 H 103.233 -2.60374 -1.93329 0
M  V30 1019 H 103.018 -3.86133 -0.681468 0
M  V30 1020 H 104.508 -3.82708 -1.67105 0
M  V30 1021 N 104.945 -0.338344 -1.53925 0
M  V30 1022 C 106.191 0.260143 -2.01125 0
M  V30 1023 C 106.524 1.50617 -1.22589 0
M  V30 1024 O 105.799 1.91979 -0.312113 0
M  V30 1025 C 106.082 0.579499 -3.55407 0
M  V30 1026 C 105.935 -0.678264 -4.44657 0
M  V30 1027 C 107.254 1.39122 -4.17532 0
M  V30 1028 H 104.373 0.0930772 -0.731099 0
M  V30 1029 H 107.015 -0.457852 -1.84401 0
M  V30 1030 H 105.165 1.19118 -3.69788 0
M  V30 1031 H 106.837 -1.31631 -4.42121 0
M  V30 1032 H 105.08 -1.3042 -4.13731 0
M  V30 1033 H 105.751 -0.410143 -5.50474 0
M  V30 1034 H 108.227 0.874035 -4.06817 0
M  V30 1035 H 107.103 1.58342 -5.25565 0
M  V30 1036 H 107.364 2.39178 -3.71815 0
M  V30 1037 N 106.423 1.57458 -0.0668435 0
M  V30 1038 C 107.7 1.8469 0.644132 0
M  V30 1039 C 108.08 0.958343 1.88093 0
M  V30 1040 O 107.428 0.0233579 2.28488 0
M  V30 1041 C 107.638 3.34767 0.986509 0
M  V30 1042 C 108.986 4.02159 1.36212 0
M  V30 1043 O 110.01 3.39484 1.07839 0
M  V30 1044 O 108.869 5.12694 1.89227 0
M  V30 1045 H 105.963 0.762816 0.319437 0
M  V30 1046 H 108.509 1.6942 -0.0973986 0
M  V30 1047 H 107.281 3.91151 0.107883 0
M  V30 1048 H 106.904 3.55281 1.78497 0
M  V30 1049 N 107.901 -0.206675 1.56239 0
M  V30 1050 C 109.129 -0.945345 1.8404 0
M  V30 1051 C 109.544 -1.77336 0.647885 0
M  V30 1052 O 108.901 -1.78425 -0.383511 0
M  V30 1053 C 108.952 -1.8509 3.10522 0
M  V30 1054 O 108.673 -1.05634 4.25174 0
M  V30 1055 C 110.174 -2.70222 3.51418 0
M  V30 1056 H 107.394 -0.276372 0.61144 0
M  V30 1057 H 109.938 -0.217417 2.03341 0
M  V30 1058 H 108.093 -2.53259 2.93153 0
M  V30 1059 H 108.507 -1.67238 4.97124 0
M  V30 1060 H 109.981 -3.29438 4.42916 0
M  V30 1061 H 110.458 -3.43358 2.73864 0
M  V30 1062 H 111.064 -2.07443 3.71278 0
M  V30 1063 N 109.379 -1.50304 -0.473955 0
M  V30 1064 C 110.342 -1.6841 -1.55469 0
M  V30 1065 C 111.342 -0.554905 -1.50922 0
M  V30 1066 O 112.532 -0.821882 -1.53593 0
M  V30 1067 C 109.664 -1.70667 -2.95102 0
M  V30 1068 H 110.857 -2.64828 -1.40733 0
M  V30 1069 H 108.41 -1.39742 -0.700132 0
M  V30 1070 H 109.145 -0.75932 -3.15285 0
M  V30 1071 H 108.93 -2.52698 -2.9981 0
M  V30 1072 H 110.42 -1.8664 -3.73571 0
M  V30 1073 N 110.857 0.726932 -1.39834 0
M  V30 1074 C 112.103 1.48884 -1.377 0
M  V30 1075 C 112.436 1.94185 0.0244852 0
M  V30 1076 O 111.711 1.67361 0.990986 0
M  V30 1077 C 111.994 2.72288 -2.3565 0
M  V30 1078 C 111.847 2.32956 -3.84775 0
M  V30 1079 C 113.166 3.74414 -2.31306 0
M  V30 1080 H 110.285 0.540062 -0.5015 0
M  V30 1081 H 112.927 0.830547 -1.70886 0
M  V30 1082 H 111.077 3.28457 -2.07481 0
M  V30 1083 H 112.749 1.82356 -4.23726 0
M  V30 1084 H 110.992 1.65088 -4.01159 0
M  V30 1085 H 111.663 3.21362 -4.4881 0
M  V30 1086 H 114.139 3.27849 -2.56231 0
M  V30 1087 H 113.015 4.58414 -3.01907 0
M  V30 1088 H 113.276 4.21909 -1.32081 0
M  V30 1089 N 112.336 1.25143 0.95797 0
M  V30 1090 C 113.564 1.12424 1.73691 0
M  V30 1091 C 113.979 -0.322304 1.86029 0
M  V30 1092 O 113.336 -1.22186 1.35561 0
M  V30 1093 C 113.387 1.76933 3.15241 0
M  V30 1094 O 113.108 3.15932 3.03511 0
M  V30 1095 C 114.609 1.6995 4.09429 0
M  V30 1096 H 111.829 0.3923 0.544373 0
M  V30 1097 H 114.373 1.6544 1.20207 0
M  V30 1098 H 112.528 1.27895 3.6568 0
M  V30 1099 H 112.942 3.47598 3.9278 0
M  V30 1100 H 114.416 2.19753 5.06372 0
M  V30 1101 H 114.893 0.662619 4.34173 0
M  V30 1102 H 115.499 2.18461 3.64904 0
M  V30 1103 N 113.814 -1.1601 1.06675 0
M  V30 1104 C 114.777 -2.18724 0.685001 0
M  V30 1105 C 115.777 -1.58496 -0.271246 0
M  V30 1106 O 116.967 -1.74119 -0.0531156 0
M  V30 1107 C 114.099 -3.40899 0.00853648 0
M  V30 1108 H 115.292 -2.54011 1.59431 0
M  V30 1109 H 112.845 -1.30352 0.862441 0
M  V30 1110 H 113.58 -3.11173 -0.913337 0
M  V30 1111 H 113.365 -3.8587 0.696204 0
M  V30 1112 H 114.855 -4.16886 -0.24414 0
M  V30 1113 N 115.292 -0.849877 -1.32721 0
M  V30 1114 C 116.539 -0.450923 -1.97416 0
M  V30 1115 C 116.867 0.992376 -1.67279 0
M  V30 1116 O 116.122 1.71048 -0.950845 0
M  V30 1117 C 116.421 -0.631272 -3.51781 0
M  V30 1118 C 116.087 -2.04432 -4.01894 0
M  V30 1119 C 114.749 -2.4308 -4.1529 0
M  V30 1120 C 117.101 -2.96679 -4.28522 0
M  V30 1121 C 114.429 -3.73257 -4.52654 0
M  V30 1122 C 116.781 -4.26349 -4.67343 0
M  V30 1123 C 115.445 -4.64939 -4.78945 0
M  V30 1124 H 114.715 -0.165004 -0.722395 0
M  V30 1125 H 117.362 -1.07901 -1.58207 0
M  V30 1126 H 115.667 0.0800767 -3.91718 0
M  V30 1127 H 117.364 -0.302709 -3.99856 0
M  V30 1128 H 113.954 -1.73419 -3.91949 0
M  V30 1129 H 118.138 -2.68054 -4.17685 0
M  V30 1130 H 113.394 -4.02946 -4.59831 0
M  V30 1131 H 117.568 -4.97895 -4.86902 0
M  V30 1132 H 115.195 -5.65855 -5.07654 0
M  V30 1133 N 116.77 1.45427 -0.607355 0
M  V30 1134 C 118.018 2.01841 -0.102253 0
M  V30 1135 C 118.339 1.47832 1.27164 0
M  V30 1136 O 117.609 0.672497 1.83995 0
M  V30 1137 H 116.189 0.746188 -0.0348101 0
M  V30 1138 H 118.851 1.78229 -0.7887 0
M  V30 1139 H 117.947 3.12057 -0.0518585 0
M  V30 1140 N 118.248 0.346503 1.53744 0
M  V30 1141 C 119.496 -0.248612 2.00565 0
M  V30 1142 C 119.817 -1.5083 1.23593 0
M  V30 1143 O 119.087 -1.92858 0.343912 0
M  V30 1144 H 117.667 -0.0948564 0.740953 0
M  V30 1145 H 120.329 0.468341 1.89189 0
M  V30 1146 H 119.425 -0.488994 3.08245 0
M  V30 1147 N 119.726 -1.57421 0.075193 0
M  V30 1148 C 120.656 -2.15942 -0.888324 0
M  V30 1149 C 121.637 -1.08737 -1.30806 0
M  V30 1150 O 122.822 -1.36787 -1.37851 0
M  V30 1151 C 119.952 -2.72379 -2.1547 0
M  V30 1152 C 118.906 -3.8478 -1.87425 0
M  V30 1153 C 118.232 -4.27834 -3.20721 0
M  V30 1154 C 119.532 -5.08869 -1.17684 0
M  V30 1155 H 121.226 -2.96705 -0.400799 0
M  V30 1156 H 118.772 -1.42723 -0.191342 0
M  V30 1157 H 120.725 -3.11965 -2.83295 0
M  V30 1158 H 119.449 -1.88841 -2.6647 0
M  V30 1159 H 118.108 -3.45703 -1.22004 0
M  V30 1160 H 117.756 -3.41214 -3.6957 0
M  V30 1161 H 117.456 -5.03605 -3.02746 0
M  V30 1162 H 118.98 -4.70039 -3.89738 0
M  V30 1163 H 120.394 -5.4575 -1.75584 0
M  V30 1164 H 118.791 -5.8994 -1.09956 0
M  V30 1165 H 119.861 -4.84648 -0.156453 0
M  V30 1166 N 121.204 0.198386 -1.56346 0
M  V30 1167 C 122.154 1.2499 -1.90687 0
M  V30 1168 C 123.138 1.41158 -0.772217 0
M  V30 1169 O 124.33 1.43584 -1.03502 0
M  V30 1170 C 121.459 2.59542 -2.24706 0
M  V30 1171 C 120.545 2.47181 -3.44619 0
M  V30 1172 N 120.936 2.04495 -4.62618 0
M  V30 1173 C 119.234 2.78082 -3.48692 0
M  V30 1174 C 119.935 2.03945 -5.44776 0
M  V30 1175 N 118.911 2.45323 -4.85095 0
M  V30 1176 H 122.713 0.911149 -2.7942 0
M  V30 1177 H 120.227 0.40684 -1.57221 0
M  V30 1178 H 122.224 3.3549 -2.47491 0
M  V30 1179 H 120.884 2.94244 -1.37298 0
M  V30 1180 H 121.895 1.75256 -4.87345 0
M  V30 1181 H 118.572 3.17002 -2.71691 0
M  V30 1182 H 119.962 1.72872 -6.4928 0
M  V30 1183 N 122.682 1.50554 0.465978 0
M  V30 1184 C 123.928 1.62038 1.21949 0
M  V30 1185 C 124.261 0.322116 1.9151 0
M  V30 1186 O 123.536 -0.676723 1.82348 0
M  V30 1187 C 123.819 2.80421 2.25912 0
M  V30 1188 C 123.672 4.20144 1.60622 0
M  V30 1189 C 124.991 2.94354 3.27176 0
M  V30 1190 H 122.11 0.589752 0.441998 0
M  V30 1191 H 124.752 1.82956 0.51257 0
M  V30 1192 H 122.902 2.62717 2.86203 0
M  V30 1193 H 124.574 4.49449 1.03889 0
M  V30 1194 H 122.817 4.24165 0.909211 0
M  V30 1195 H 123.488 4.98914 2.36196 0
M  V30 1196 H 125.964 3.10578 2.76913 0
M  V30 1197 H 124.84 3.788 3.97242 0
M  V30 1198 H 125.101 2.05186 3.916 0
M  V30 1199 N 124.16 -0.719506 1.40217 0
M  V30 1200 C 125.09 -1.8465 1.42922 0
M  V30 1201 C 126.071 -1.67599 0.29062 0
M  V30 1202 O 127.256 -1.87688 0.498677 0
M  V30 1203 C 124.386 -3.22565 1.28722 0
M  V30 1204 C 123.34 -3.54281 2.40144 0
M  V30 1205 C 122.666 -4.91298 2.11023 0
M  V30 1206 C 123.966 -3.55676 3.82481 0
M  V30 1207 H 125.66 -1.82644 2.37237 0
M  V30 1208 H 123.206 -0.877305 1.1419 0
M  V30 1209 H 125.159 -4.01095 1.29232 0
M  V30 1210 H 123.883 -3.25137 0.308811 0
M  V30 1211 H 122.542 -2.78088 2.38877 0
M  V30 1212 H 122.19 -4.90468 1.11582 0
M  V30 1213 H 121.89 -5.13485 2.8567 0
M  V30 1214 H 123.414 -5.72166 2.13209 0
M  V30 1215 H 124.828 -4.24254 3.85592 0
M  V30 1216 H 123.225 -3.89388 4.56614 0
M  V30 1217 H 124.295 -2.55144 4.12346 0
M  V30 1218 N 125.638 -1.25649 -0.95132 0
M  V30 1219 C 126.884 -1.10757 -1.69884 0
M  V30 1220 C 127.217 0.350061 -1.91019 0
M  V30 1221 O 126.492 1.25783 -1.48354 0
M  V30 1222 C 126.775 -1.86606 -3.07978 0
M  V30 1223 C 126.628 -3.40217 -2.94232 0
M  V30 1224 C 127.947 -1.65182 -4.07925 0
M  V30 1225 H 125.066 -0.40374 -0.616574 0
M  V30 1226 H 127.708 -1.54521 -1.10558 0
M  V30 1227 H 125.858 -1.49409 -3.58621 0
M  V30 1228 H 127.53 -3.87108 -2.50889 0
M  V30 1229 H 125.773 -3.67759 -2.30078 0
M  V30 1230 H 126.444 -3.88505 -3.92133 0
M  V30 1231 H 128.92 -1.9757 -3.66204 0
M  V30 1232 H 127.796 -2.20683 -5.02583 0
M  V30 1233 H 128.057 -0.593933 -4.38092 0
M  V30 1234 N 127.117 1.15442 -1.07289 0
M  V30 1235 C 128.065 2.22225 -0.686952 0
M  V30 1236 C 129.059 1.66688 0.30193 0
M  V30 1237 O 130.265 1.79236 0.165712 0
M  V30 1238 H 126.64 0.723783 -0.204064 0
M  V30 1239 H 128.611 2.52056 -1.5972 0
M  V30 1240 C 127.36 3.47556 -0.100149 0
M  V30 1241 H 126.683 3.90612 -0.852211 0
M  V30 1242 H 128.123 4.23794 0.132235 0
M  V30 1243 C 126.582 3.16337 1.159 0
M  V30 1244 O 127.112 3.33074 2.24555 0
M  V30 1245 N 125.318 2.70385 1.06491 0
M  V30 1246 H 124.865 2.56966 0.180668 0
M  V30 1247 H 124.823 2.49871 1.90819 0
M  V30 1248 N 128.595 0.856903 1.32268 0
M  V30 1249 C 129.543 0.291987 2.3076 0
M  V30 1250 C 130.537 -0.585857 1.58947 0
M  V30 1251 O 131.743 -0.47341 1.73663 0
M  V30 1252 H 128.118 0.075721 0.748178 0
M  V30 1253 H 130.089 1.13687 2.75895 0
M  V30 1254 C 128.838 -0.502869 3.44044 0
M  V30 1255 H 128.161 0.163328 3.99466 0
M  V30 1256 H 129.601 -0.863691 4.1511 0
M  V30 1257 C 128.06 -1.68898 2.91505 0
M  V30 1258 O 128.59 -2.78811 2.89184 0
M  V30 1259 N 126.796 -1.51679 2.47875 0
M  V30 1260 H 126.343 -0.622666 2.49961 0
M  V30 1261 H 126.301 -2.31184 2.13076 0
M  V30 1262 N 130.073 -1.45103 0.615059 0
M  V30 1263 C 131.036 -2.29025 -0.0895485 0
M  V30 1264 C 132.036 -1.40174 -0.787906 0
M  V30 1265 O 133.226 -1.62217 -0.634933 0
M  V30 1266 C 130.358 -3.21376 -1.13711 0
M  V30 1267 H 131.551 -2.92807 0.648382 0
M  V30 1268 H 129.104 -1.51749 0.374444 0
M  V30 1269 H 129.839 -2.6241 -1.90556 0
M  V30 1270 H 129.624 -3.86834 -0.640475 0
M  V30 1271 H 131.114 -3.84459 -1.63036 0
M  V30 1272 N 131.551 -0.354651 -1.53558 0
M  V30 1273 C 132.799 0.237972 -2.00694 0
M  V30 1274 C 133.12 1.50173 -1.24391 0
M  V30 1275 O 132.39 1.92673 -0.354135 0
M  V30 1276 H 130.97 0.0909256 -0.741446 0
M  V30 1277 H 133.632 -0.478368 -1.88938 0
M  V30 1278 H 132.728 0.47264 -3.085 0
M  V30 1279 N 133.029 1.57378 -0.0835403 0
M  V30 1280 C 134.278 1.93106 0.582498 0
M  V30 1281 C 134.591 0.96651 1.70053 0
M  V30 1282 O 135.797 1.21705 2.42693 0
M  V30 1283 C 134.253 3.43076 1.08751 0
M  V30 1284 C 133.861 4.48 -0.000146404 0
M  V30 1285 C 135.605 3.87785 1.72694 0
M  V30 1286 C 133.512 5.89113 0.519568 0
M  V30 1287 H 132.442 0.720775 0.221358 0
M  V30 1288 H 135.093 1.82821 -0.157675 0
M  V30 1289 H 133.475 3.48474 1.88101 0
M  V30 1290 H 134.649 4.54233 -0.775199 0
M  V30 1291 H 132.964 4.1283 -0.54406 0
M  V30 1292 H 135.561 4.90604 2.1263 0
M  V30 1293 H 135.904 3.25796 2.59158 0
M  V30 1294 H 136.437 3.8504 0.999457 0
M  V30 1295 H 133.176 6.54775 -0.308186 0
M  V30 1296 H 132.696 5.86376 1.26188 0
M  V30 1297 H 134.375 6.39346 0.992237 0
M  V30 1298 N 134.507 -0.190092 1.56449 0
M  V30 1299 C 135.437 -1.23816 1.97969 0
M  V30 1300 C 136.418 -1.47201 0.852395 0
M  V30 1301 O 137.603 -1.58854 1.1171 0
M  V30 1302 C 134.733 -2.5813 2.3235 0
M  V30 1303 C 133.687 -2.49348 3.47864 0
M  V30 1304 C 133.013 -3.8798 3.67934 0
M  V30 1305 C 134.313 -2.01424 4.81898 0
M  V30 1306 H 136.007 -0.89311 2.85769 0
M  V30 1307 H 133.553 -0.428177 1.37487 0
M  V30 1308 H 135.506 -3.31637 2.59991 0
M  V30 1309 H 134.23 -2.94386 1.41438 0
M  V30 1310 H 132.889 -1.78297 3.20321 0
M  V30 1311 H 132.537 -4.21597 2.74344 0
M  V30 1312 H 132.237 -3.82978 4.45648 0
M  V30 1313 H 133.761 -4.63101 3.97957 0
M  V30 1314 H 135.175 -2.64693 5.08538 0
M  V30 1315 H 133.572 -2.07413 5.63116 0
M  V30 1316 H 134.642 -0.967677 4.75146 0
M  V30 1317 N 135.985 -1.50799 -0.457987 0
M  V30 1318 C 136.933 -1.71162 -1.575 0
M  V30 1319 C 137.927 -0.577592 -1.59249 0
M  V30 1320 O 139.133 -0.758443 -1.63241 0
M  V30 1321 H 135.508 -0.540468 -0.522875 0
M  V30 1322 H 137.479 -2.64837 -1.37492 0
M  V30 1323 C 136.228 -1.83496 -2.95338 0
M  V30 1324 H 135.551 -2.70153 -2.94716 0
M  V30 1325 H 136.991 -2.01765 -3.72917 0
M  V30 1326 C 135.45 -0.589694 -3.31699 0
M  V30 1327 O 135.98 0.265163 -4.00824 0
M  V30 1328 N 134.186 -0.439845 -2.87252 0
M  V30 1329 H 133.733 -1.13655 -2.31172 0
M  V30 1330 H 133.691 0.392159 -3.11945 0
M  V30 1331 N 137.463 0.71206 -1.40597 0
M  V30 1332 C 138.712 1.46754 -1.38369 0
M  V30 1333 C 139.025 1.95598 0.0097839 0
M  V30 1334 O 140.231 2.71059 0.154677 0
M  V30 1335 C 138.687 2.65289 -2.43207 0
M  V30 1336 C 138.295 2.23301 -3.88382 0
M  V30 1337 C 140.039 3.43008 -2.50091 0
M  V30 1338 C 137.946 3.38696 -4.84808 0
M  V30 1339 H 136.876 0.55118 -0.514506 0
M  V30 1340 H 139.527 0.774616 -1.66349 0
M  V30 1341 H 137.909 3.36769 -2.08332 0
M  V30 1342 H 139.083 1.59218 -4.32419 0
M  V30 1343 H 137.398 1.58618 -3.85006 0
M  V30 1344 H 139.995 4.28881 -3.1932 0
M  V30 1345 H 140.338 3.87065 -1.53253 0
M  V30 1346 H 140.871 2.78574 -2.83974 0
M  V30 1347 H 137.61 2.99668 -5.82992 0
M  V30 1348 H 137.13 4.01683 -4.45433 0
M  V30 1349 H 138.809 4.04712 -5.04794 0
M  V30 1350 N 138.941 1.26152 0.944643 0
M  V30 1351 C 140.189 1.11271 1.6871 0
M  V30 1352 C 140.51 -0.345166 1.91921 0
M  V30 1353 O 139.78 -1.24387 1.51343 0
M  V30 1354 H 138.36 0.408783 0.625224 0
M  V30 1355 H 141.022 1.58427 1.1352 0
M  V30 1356 H 140.118 1.62879 2.66227 0
M  V30 1357 N 140.419 -1.14872 1.07899 0
M  V30 1358 C 141.647 -1.89661 0.82683 0
M  V30 1359 C 142.062 -1.78312 -0.620519 0
M  V30 1360 O 141.419 -1.13888 -1.42604 0
M  V30 1361 C 141.47 -3.39817 1.23316 0
M  V30 1362 O 141.191 -3.50845 2.62372 0
M  V30 1363 C 142.692 -4.31615 1.0111 0
M  V30 1364 H 139.912 -0.60092 0.298557 0
M  V30 1365 H 142.456 -1.4551 1.43691 0
M  V30 1366 H 140.611 -3.8161 0.667286 0
M  V30 1367 H 141.025 -4.44076 2.79101 0
M  V30 1368 H 142.499 -5.35367 1.34486 0
M  V30 1369 H 142.976 -4.39169 -0.0522168 0
M  V30 1370 H 143.582 -3.95572 1.56215 0
M  V30 1371 N 141.898 -0.863906 -1.31812 0
M  V30 1372 C 143.147 -0.46801 -1.96195 0
M  V30 1373 C 143.46 0.983474 -1.69077 0
M  V30 1374 O 144.666 1.48523 -2.27273 0
M  V30 1375 C 143.122 -0.785995 -3.51212 0
M  V30 1376 C 142.73 -2.25383 -3.87178 0
M  V30 1377 C 144.474 -0.458274 -4.22019 0
M  V30 1378 C 142.381 -2.51455 -5.3528 0
M  V30 1379 H 141.311 -0.171283 -0.734287 0
M  V30 1380 H 143.962 -1.05597 -1.50072 0
M  V30 1381 H 142.344 -0.127359 -3.95795 0
M  V30 1382 H 143.518 -2.95502 -3.53575 0
M  V30 1383 H 141.833 -2.54698 -3.2942 0
M  V30 1384 H 144.43 -0.630369 -5.30971 0
M  V30 1385 H 144.773 0.600834 -4.11941 0
M  V30 1386 H 145.306 -1.07319 -3.8305 0
M  V30 1387 H 142.045 -3.56025 -5.50387 0
M  V30 1388 H 141.565 -1.85923 -5.70257 0
M  V30 1389 H 143.244 -2.35874 -6.02472 0
M  V30 1390 N 143.376 1.44774 -0.622745 0
M  V30 1391 C 144.286 2.34433 0.0886031 0
M  V30 1392 C 145.302 1.52131 0.844529 0
M  V30 1393 O 146.478 1.84886 0.798691 0
M  V30 1394 C 143.543 3.29986 1.0635 0
M  V30 1395 C 142.604 4.28195 0.307873 0
M  V30 1396 C 141.837 5.19183 1.23633 0
M  V30 1397 O 142.06 5.13918 2.47476 0
M  V30 1398 O 140.994 5.97515 0.725189 0
M  V30 1399 H 144.82 2.96693 -0.648599 0
M  V30 1400 H 142.405 1.44408 -0.382957 0
M  V30 1401 H 144.287 3.88825 1.6246 0
M  V30 1402 H 142.962 2.70269 1.78146 0
M  V30 1403 H 141.869 3.72927 -0.296064 0
M  V30 1404 H 143.202 4.90808 -0.3699 0
M  V30 1405 N 144.854 0.36279 1.53368 0
M  V30 1406 C 146.131 -0.284021 1.93527 0
M  V30 1407 C 146.511 -1.66628 1.29608 0
M  V30 1408 O 145.859 -2.23942 0.45413 0
M  V30 1409 C 146.069 -0.337028 3.47369 0
M  V30 1410 C 147.417 -0.578708 4.20638 0
M  V30 1411 O 148.441 -0.418352 3.53735 0
M  V30 1412 O 147.3 -0.89074 5.39192 0
M  V30 1413 H 144.394 -0.169743 0.809393 0
M  V30 1414 H 146.94 0.41537 1.64538 0
M  V30 1415 H 145.712 0.632217 3.86159 0
M  V30 1416 H 145.335 -1.08243 3.82582 0
M  V30 1417 N 146.332 -1.57332 0.0918853 0
M  V30 1418 C 147.562 -1.98286 -0.580205 0
M  V30 1419 C 147.97 -0.969713 -1.6246 0
M  V30 1420 O 147.313 0.0493501 -1.83634 0
M  V30 1421 C 147.375 -3.35603 -1.28882 0
M  V30 1422 C 147.039 -4.55285 -0.395559 0
M  V30 1423 C 148.036 -5.18687 0.355002 0
M  V30 1424 C 145.721 -5.01314 -0.314556 0
M  V30 1425 C 147.715 -6.26484 1.17458 0
M  V30 1426 C 145.402 -6.08979 0.508677 0
M  V30 1427 C 146.4 -6.71429 1.2519 0
M  V30 1428 O 146.088 -7.77018 2.06151 0
M  V30 1429 H 145.82 -0.656678 -0.160466 0
M  V30 1430 H 148.374 -2.04721 0.16688 0
M  V30 1431 H 146.604 -3.25842 -2.08241 0
M  V30 1432 H 148.293 -3.61026 -1.85512 0
M  V30 1433 H 149.059 -4.84058 0.302134 0
M  V30 1434 H 144.938 -4.5247 -0.882697 0
M  V30 1435 H 148.482 -6.75159 1.75518 0
M  V30 1436 H 144.379 -6.4304 0.563037 0
M  V30 1437 H 145.147 -7.93991 1.98799 0
M  V30 1438 N 147.81 0.181792 -1.56548 0
M  V30 1439 C 148.773 1.20894 -1.94724 0
M  V30 1440 C 149.773 1.37738 -0.829747 0
M  V30 1441 O 150.963 1.35323 -1.09697 0
M  V30 1442 C 148.095 2.57593 -2.23291 0
M  V30 1443 H 149.288 0.882275 -2.86629 0
M  V30 1444 H 146.841 0.423838 -1.50444 0
M  V30 1445 H 147.576 2.95291 -1.34067 0
M  V30 1446 H 147.361 2.46735 -3.04736 0
M  V30 1447 H 148.851 3.31637 -2.53785 0
M  V30 1448 N 149.288 1.51039 0.449983 0
M  V30 1449 C 150.218 1.74379 1.55288 0
M  V30 1450 C 151.199 0.593236 1.5942 0
M  V30 1451 O 152.384 0.834625 1.7535 0
M  V30 1452 C 149.514 1.85728 2.93466 0
M  V30 1453 C 148.468 3.01078 3.04197 0
M  V30 1454 C 147.794 2.97595 4.44231 0
M  V30 1455 C 149.094 4.41254 2.7945 0
M  V30 1456 H 150.788 2.66725 1.36008 0
M  V30 1457 H 148.334 1.2835 0.652864 0
M  V30 1458 H 150.287 2.0064 3.70569 0
M  V30 1459 H 149.011 0.900207 3.13949 0
M  V30 1460 H 147.67 2.85851 2.29531 0
M  V30 1461 H 147.318 1.99691 4.61663 0
M  V30 1462 H 147.018 3.75046 4.52343 0
M  V30 1463 H 148.542 3.14583 5.23326 0
M  V30 1464 H 149.956 4.56897 3.46292 0
M  V30 1465 H 148.353 5.20315 2.98985 0
M  V30 1466 H 149.423 4.52164 1.75144 0
M  V30 1467 N 150.766 -0.704594 1.40972 0
M  V30 1468 C 151.994 -1.49354 1.43182 0
M  V30 1469 C 152.409 -1.88768 0.0345508 0
M  V30 1470 O 151.766 -1.56184 -0.944081 0
M  V30 1471 C 151.817 -2.76187 2.33244 0
M  V30 1472 O 151.538 -2.38436 3.67532 0
M  V30 1473 C 153.039 -3.7 2.44162 0
M  V30 1474 H 150.259 -0.460559 0.487982 0
M  V30 1475 H 152.803 -0.868261 1.85153 0
M  V30 1476 H 150.958 -3.34974 1.94606 0
M  V30 1477 H 151.372 -3.20126 4.15475 0
M  V30 1478 H 152.846 -4.55803 3.11364 0
M  V30 1479 H 153.323 -4.13867 1.47006 0
M  V30 1480 H 153.929 -3.17121 2.83398 0
M  V30 1481 N 152.244 -1.26651 -0.937939 0
M  V30 1482 C 153.154 -1.10276 -2.07066 0
M  V30 1483 C 154.17 -0.0354197 -1.73964 0
M  V30 1484 O 155.346 -0.239816 -1.99967 0
M  V30 1485 C 152.411 -0.740887 -3.38691 0
M  V30 1486 C 151.472 -1.88799 -3.85556 0
M  V30 1487 C 150.705 -1.54329 -5.10899 0
M  V30 1488 O 150.928 -0.446494 -5.6865 0
M  V30 1489 O 149.862 -2.37911 -5.52885 0
M  V30 1490 H 153.688 -2.05309 -2.23789 0
M  V30 1491 H 151.273 -1.05743 -1.0554 0
M  V30 1492 H 153.155 -0.55195 -4.1777 0
M  V30 1493 H 151.83 0.180022 -3.23199 0
M  V30 1494 H 150.737 -2.13191 -3.07409 0
M  V30 1495 H 152.07 -2.78874 -4.05574 0
M  V30 1496 N 153.722 1.14298 -1.08507 0
M  V30 1497 C 154.968 1.85854 -0.826438 0
M  V30 1498 C 155.323 1.81413 0.640878 0
M  V30 1499 O 154.616 1.23463 1.46518 0
M  V30 1500 C 154.81 3.33547 -1.28379 0
M  V30 1501 C 154.639 3.52369 -2.79403 0
M  V30 1502 C 153.409 3.67159 -3.47164 0
M  V30 1503 C 155.607 3.49203 -3.77573 0
M  V30 1504 N 153.589 3.74149 -4.86709 0
M  V30 1505 C 154.96 3.6245 -5.03021 0
M  V30 1506 C 157.015 3.32547 -3.70563 0
M  V30 1507 C 155.718 3.60761 -6.2229 0
M  V30 1508 C 157.744 3.32162 -4.89308 0
M  V30 1509 C 157.106 3.45949 -6.13595 0
M  V30 1510 H 153.205 0.696705 -0.355143 0
M  V30 1511 H 155.789 1.36981 -1.38362 0
M  V30 1512 H 153.96 3.81008 -0.754166 0
M  V30 1513 H 155.692 3.92867 -0.971469 0
M  V30 1514 H 152.447 3.68433 -2.9758 0
M  V30 1515 H 152.871 3.81359 -5.5937 0
M  V30 1516 H 157.513 3.20797 -2.75407 0
M  V30 1517 H 155.231 3.71286 -7.17755 0
M  V30 1518 H 158.817 3.20485 -4.85573 0
M  V30 1519 H 157.697 3.456 -7.03939 0
M  V30 1520 N 155.201 0.870884 1.31352 0
M  V30 1521 C 156.133 0.28455 2.27427 0
M  V30 1522 C 157.146 -0.552927 1.53123 0
M  V30 1523 O 158.335 -0.374771 1.74521 0
M  V30 1524 C 155.435 -0.615164 3.3327 0
M  V30 1525 C 154.608 0.190079 4.36987 0
M  V30 1526 C 153.667 -0.637917 5.22319 0
M  V30 1527 O 152.693 -0.065626 5.69162 0
M  V30 1528 N 153.895 -1.94973 5.46778 0
M  V30 1529 H 156.66 1.11017 2.7838 0
M  V30 1530 H 154.221 0.732458 1.44384 0
M  V30 1531 H 156.213 -1.1748 3.87273 0
M  V30 1532 H 154.783 -1.34146 2.82354 0
M  V30 1533 H 154.003 0.931165 3.83044 0
M  V30 1534 H 155.291 0.742579 5.03352 0
M  V30 1535 H 154.689 -2.4378 5.10478 0
M  V30 1536 H 153.246 -2.45713 6.03712 0
M  V30 1537 N 156.679 -1.44442 0.630414 0
M  V30 1538 C 158.095 -1.56832 0.295973 0
M  V30 1539 C 158.295 -1.61806 -1.20088 0
M  V30 1540 O 157.351 -1.5607 -1.9849 0
M  V30 1541 C 158.664 -2.84031 0.987264 0
M  V30 1542 C 160.212 -2.97742 0.96534 0
M  V30 1543 C 160.687 -4.27743 1.63708 0
M  V30 1544 N 162.178 -4.34555 1.60364 0
M  V30 1545 C 162.913 -5.33862 2.09234 0
M  V30 1546 N 162.409 -6.39578 2.66292 0
M  V30 1547 N 164.202 -5.25366 1.99867 0
M  V30 1548 H 156.353 -1.39457 1.60205 0
M  V30 1549 H 158.616 -0.668237 0.672431 0
M  V30 1550 H 158.322 -2.86338 2.04215 0
M  V30 1551 H 158.196 -3.73534 0.524588 0
M  V30 1552 H 160.583 -2.94989 -0.0810639 0
M  V30 1553 H 160.664 -2.09589 1.4665 0
M  V30 1554 H 160.308 -4.31255 2.68293 0
M  V30 1555 H 160.238 -5.14752 1.11076 0
M  V30 1556 H 162.729 -3.58772 1.18705 0
M  V30 1557 H 163.042 -7.11637 3.01317 0
M  V30 1558 H 161.387 -6.40265 2.70343 0
M  V30 1559 H 164.578 -4.41688 1.55013 0
M  V30 1560 H 164.751 -6.02606 2.38265 0
M  V30 1561 N 158.157 -0.370918 -1.53173 0
M  V30 1562 C 159.406 0.218249 -2.00516 0
M  V30 1563 C 159.719 1.49429 -1.26215 0
M  V30 1564 O 160.925 2.16239 -1.64174 0
M  V30 1565 C 159.381 0.43948 -3.57207 0
M  V30 1566 C 158.989 -0.822244 -4.4039 0
M  V30 1567 C 160.733 0.986012 -4.1289 0
M  V30 1568 C 158.64 -0.570304 -5.88644 0
M  V30 1569 H 157.57 0.0853333 -0.749156 0
M  V30 1570 H 160.221 -0.490483 -1.76823 0
M  V30 1571 H 158.603 1.20961 -3.77074 0
M  V30 1572 H 159.777 -1.59557 -4.32294 0
M  V30 1573 H 158.092 -1.29238 -3.95836 0
M  V30 1574 H 160.689 1.18991 -5.21292 0
M  V30 1575 H 161.032 1.94972 -3.6782 0
M  V30 1576 H 161.565 0.27592 -3.96842 0
M  V30 1577 H 158.304 -1.50449 -6.38001 0
M  V30 1578 H 157.824 0.164427 -5.99575 0
M  V30 1579 H 159.503 -0.19784 -6.46697 0
M  V30 1580 N 159.635 1.57281 -0.100228 0
M  V30 1581 C 160.565 2.17328 0.853857 0
M  V30 1582 C 161.546 1.10804 1.2906 0
M  V30 1583 O 162.731 1.38963 1.35657 0
M  V30 1584 C 159.861 2.75772 2.11109 0
M  V30 1585 C 158.815 3.87713 1.81279 0
M  V30 1586 C 158.141 4.32882 3.13874 0
M  V30 1587 C 159.441 5.10677 1.09574 0
M  V30 1588 H 161.135 2.97305 0.353545 0
M  V30 1589 H 158.681 1.43009 0.168612 0
M  V30 1590 H 160.634 3.16433 2.78296 0
M  V30 1591 H 159.358 1.93057 2.63432 0
M  V30 1592 H 158.017 3.476 1.16489 0
M  V30 1593 H 157.665 3.47051 3.64095 0
M  V30 1594 H 157.365 5.08358 2.94696 0
M  V30 1595 H 158.889 4.7618 3.82211 0
M  V30 1596 H 160.303 5.48474 1.66879 0
M  V30 1597 H 158.7 5.91615 1.00557 0
M  V30 1598 H 159.77 4.84835 0.0793299 0
M  V30 1599 N 161.113 -0.173488 1.56642 0
M  V30 1600 C 162.39 -0.917617 1.7274 0
M  V30 1601 C 162.77 -2.00484 0.661027 0
M  V30 1602 O 162.118 -2.26184 -0.32453 0
M  V30 1603 C 162.328 -1.48433 3.15862 0
M  V30 1604 C 163.676 -1.95809 3.76754 0
M  V30 1605 O 164.7 -1.58231 3.19126 0
M  V30 1606 O 163.559 -2.65024 4.77938 0
M  V30 1607 H 160.653 -0.431772 0.705338 0
M  V30 1608 H 163.199 -0.161487 1.6893 0
M  V30 1609 H 161.971 -0.701715 3.84957 0
M  V30 1610 H 161.594 -2.30471 3.23989 0
M  V30 1611 N 162.591 -1.51276 -0.441967 0
M  V30 1612 C 163.837 -1.63958 -1.19355 0
M  V30 1613 C 164.17 -0.352543 -1.90973 0
M  V30 1614 O 163.445 0.647627 -1.83401 0
M  V30 1615 C 163.728 -2.83979 -2.21422 0
M  V30 1616 C 163.581 -4.22646 -1.53918 0
M  V30 1617 C 164.9 -2.99521 -3.22451 0
M  V30 1618 H 162.019 -0.596709 -0.432559 0
M  V30 1619 H 164.661 -1.83748 -0.483398 0
M  V30 1620 H 162.811 -2.67237 -2.81987 0
M  V30 1621 H 164.483 -4.51045 -0.967256 0
M  V30 1622 H 162.726 -4.25558 -0.841615 0
M  V30 1623 H 163.397 -5.02609 -2.28229 0
M  V30 1624 H 165.873 -3.14944 -2.71937 0
M  V30 1625 H 164.749 -3.85072 -3.91166 0
M  V30 1626 H 165.01 -2.11391 -3.88287 0
M  V30 1627 N 164.069 0.697108 -1.41344 0
M  V30 1628 C 165.017 1.83237 -1.43272 0
M  V30 1629 C 166.011 1.66522 -0.310947 0
M  V30 1630 O 167.217 1.73402 -0.482899 0
M  V30 1631 H 163.592 0.603802 -0.448249 0
M  V30 1632 H 165.563 1.78727 -2.38954 0
M  V30 1633 C 164.312 3.21245 -1.33029 0
M  V30 1634 H 163.635 3.34723 -2.18633 0
M  V30 1635 H 165.075 4.00763 -1.38439 0
M  V30 1636 C 163.534 3.36873 -0.0424635 0
M  V30 1637 O 164.064 3.91177 0.913421 0
M  V30 1638 N 162.27 2.90581 0.0331145 0
M  V30 1639 H 161.817 2.46577 -0.745506 0
M  V30 1640 H 161.775 3.01416 0.894199 0
M  V30 1641 N 165.547 1.27147 0.931209 0
M  V30 1642 C 166.477 1.12081 2.04842 0
M  V30 1643 C 167.458 0.0232364 1.70084 0
M  V30 1644 O 168.643 0.197085 1.93197 0
M  V30 1645 C 165.773 0.76354 3.38803 0
M  V30 1646 C 164.727 1.81396 3.87659 0
M  V30 1647 C 164.053 1.31075 5.18385 0
M  V30 1648 C 165.353 3.21739 4.11438 0
M  V30 1649 H 167.047 2.05537 2.17703 0
M  V30 1650 H 164.593 0.989603 1.04608 0
M  V30 1651 H 166.546 0.644982 4.16435 0
M  V30 1652 H 165.27 -0.206727 3.25945 0
M  V30 1653 H 163.929 1.92136 3.12217 0
M  V30 1654 H 163.577 0.330037 5.01916 0
M  V30 1655 H 163.277 2.013 5.52044 0
M  V30 1656 H 164.801 1.20506 5.98591 0
M  V30 1657 H 166.215 3.14019 4.79651 0
M  V30 1658 H 164.612 3.89644 4.56397 0
M  V30 1659 H 165.682 3.67054 3.16859 0
M  V30 1660 N 167.025 -1.13721 1.09112 0
M  V30 1661 C 168.253 -1.88773 0.846899 0
M  V30 1662 C 168.668 -1.7896 -0.601572 0
M  V30 1663 O 168.025 -1.15394 -1.41388 0
M  V30 1664 C 168.076 -3.3849 1.26913 0
M  V30 1665 O 167.797 -3.48043 2.66079 0
M  V30 1666 C 169.298 -4.30518 1.05682 0
M  V30 1667 H 166.518 -0.59772 0.304914 0
M  V30 1668 H 169.062 -1.43977 1.45227 0
M  V30 1669 H 167.217 -3.80881 0.707723 0
M  V30 1670 H 167.631 -4.4109 2.83795 0
M  V30 1671 H 169.105 -5.3391 1.40156 0
M  V30 1672 H 169.582 -4.392 -0.00563416 0
M  V30 1673 H 170.188 -3.93893 1.60402 0
M  V30 1674 N 168.503 -0.877838 -1.30888 0
M  V30 1675 C 169.751 -0.491723 -1.96027 0
M  V30 1676 C 170.072 0.960827 -1.69685 0
M  V30 1677 O 169.342 1.67462 -1.01654 0
M  V30 1678 H 167.922 -0.17885 -0.725273 0
M  V30 1679 H 170.584 -1.11935 -1.59551 0
M  V30 1680 H 169.68 -0.656016 -3.05128 0
M  V30 1681 N 169.982 1.44106 -0.638065 0
M  V30 1682 C 171.228 2.02277 -0.145546 0
M  V30 1683 C 171.561 1.50125 1.23191 0
M  V30 1684 O 170.836 0.688133 1.8192 0
M  V30 1685 C 171.119 3.59829 -0.139791 0
M  V30 1686 C 170.972 4.22247 -1.55008 0
M  V30 1687 C 172.291 4.36873 0.531966 0
M  V30 1688 H 169.41 0.734992 -0.0543632 0
M  V30 1689 H 172.052 1.71592 -0.815863 0
M  V30 1690 H 170.202 3.86102 0.431007 0
M  V30 1691 H 171.874 4.07057 -2.1703 0
M  V30 1692 H 170.117 3.79476 -2.10191 0
M  V30 1693 H 170.788 5.31284 -1.49804 0
M  V30 1694 H 173.264 4.16074 0.0464781 0
M  V30 1695 H 172.14 5.4657 0.505206 0
M  V30 1696 H 172.401 4.11995 1.60352 0
M  V30 1697 N 171.46 0.379036 1.52974 0
M  V30 1698 C 172.707 -0.206421 2.01445 0
M  V30 1699 C 173.035 -1.47668 1.26587 0
M  V30 1700 O 172.29 -1.92514 0.351675 0
M  V30 1701 C 172.589 -0.53096 3.53434 0
M  V30 1702 C 172.255 0.646546 4.46241 0
M  V30 1703 C 170.917 0.969604 4.7133 0
M  V30 1704 C 173.269 1.43479 5.01062 0
M  V30 1705 C 170.597 2.08263 5.48492 0
M  V30 1706 C 172.949 2.53834 5.7944 0
M  V30 1707 C 171.613 2.86659 6.02812 0
M  V30 1708 H 170.883 -0.0755349 0.73714 0
M  V30 1709 H 173.53 0.514271 1.84465 0
M  V30 1710 H 171.835 -1.33285 3.68432 0
M  V30 1711 H 173.532 -0.996417 3.88423 0
M  V30 1712 H 170.122 0.384734 4.2687 0
M  V30 1713 H 174.306 1.19844 4.81613 0
M  V30 1714 H 169.562 2.34078 5.64816 0
M  V30 1715 H 173.736 3.15319 6.20924 0
M  V30 1716 H 171.363 3.73026 6.62387 0
M  V30 1717 N 172.938 -1.57226 0.108567 0
M  V30 1718 C 173.868 -2.17778 -0.84232 0
M  V30 1719 C 174.849 -1.11487 -1.2847 0
M  V30 1720 O 176.034 -1.39681 -1.34918 0
M  V30 1721 C 173.164 -2.76888 -2.09644 0
M  V30 1722 C 172.118 -3.88669 -1.79221 0
M  V30 1723 C 171.444 -4.34541 -3.11574 0
M  V30 1724 C 172.744 -5.11251 -1.06864 0
M  V30 1725 H 174.438 -2.97489 -0.337774 0
M  V30 1726 H 171.984 -1.43097 -0.161025 0
M  V30 1727 H 173.937 -3.17904 -2.76614 0
M  V30 1728 H 172.661 -1.94451 -2.62405 0
M  V30 1729 H 171.32 -3.48213 -1.14644 0
M  V30 1730 H 170.968 -3.48977 -3.62249 0
M  V30 1731 H 170.668 -5.09914 -2.91996 0
M  V30 1732 H 172.192 -4.782 -3.7968 0
M  V30 1733 H 173.606 -5.49352 -1.63968 0
M  V30 1734 H 172.003 -5.9214 -0.974178 0
M  V30 1735 H 173.073 -4.8487 -0.0536168 0
M  V30 1736 N 174.416 0.165178 -1.56732 0
M  V30 1737 C 175.664 0.879068 -1.8198 0
M  V30 1738 C 175.985 1.82514 -0.686561 0
M  V30 1739 O 175.255 1.93694 0.293146 0
M  V30 1740 H 173.835 0.327608 -0.671329 0
M  V30 1741 H 176.497 0.163526 -1.94213 0
M  V30 1742 H 175.593 1.45228 -2.76252 0
M  V30 1743 N 175.894 1.51508 0.433938 0
M  V30 1744 C 177.143 1.63578 1.18005 0
M  V30 1745 C 177.456 0.359514 1.92268 0
M  V30 1746 O 178.662 0.359632 2.69108 0
M  V30 1747 C 177.118 2.88901 2.14626 0
M  V30 1748 C 176.726 4.23544 1.45995 0
M  V30 1749 C 178.47 3.10328 2.89649 0
M  V30 1750 C 176.377 5.40014 2.4112 0
M  V30 1751 H 175.307 0.609277 0.444182 0
M  V30 1752 H 177.958 1.77978 0.446773 0
M  V30 1753 H 176.34 2.68142 2.91403 0
M  V30 1754 H 177.514 4.54696 0.747532 0
M  V30 1755 H 175.829 4.08021 0.831115 0
M  V30 1756 H 178.426 3.94518 3.60915 0
M  V30 1757 H 178.769 2.23544 3.51189 0
M  V30 1758 H 179.302 3.31443 2.19978 0
M  V30 1759 H 176.041 6.29068 1.84264 0
M  V30 1760 H 175.561 5.13233 3.10406 0
M  V30 1761 H 177.24 5.72099 3.02177 0
M  V30 1762 N 177.372 -0.689602 1.41712 0
M  V30 1763 C 178.788 -1.00093 1.24312 0
M  V30 1764 C 178.988 -2.01036 0.136729 0
M  V30 1765 O 178.044 -2.47562 -0.496918 0
M  V30 1766 C 179.357 -1.51985 2.59463 0
M  V30 1767 C 180.905 -1.63838 2.66695 0
M  V30 1768 C 181.38 -2.1913 4.02177 0
M  V30 1769 N 182.871 -2.26483 4.04054 0
M  V30 1770 C 183.606 -2.70306 5.0569 0
M  V30 1771 N 183.102 -3.13691 6.17713 0
M  V30 1772 N 184.895 -2.69923 4.9305 0
M  V30 1773 H 177.046 -0.0210029 2.1239 0
M  V30 1774 H 179.309 -0.0718733 0.945272 0
M  V30 1775 H 179.015 -0.85269 3.41207 0
M  V30 1776 H 178.889 -2.50103 2.82362 0
M  V30 1777 H 181.276 -2.29664 1.85306 0
M  V30 1778 H 181.357 -0.642492 2.476 0
M  V30 1779 H 181.001 -1.53918 4.84016 0
M  V30 1780 H 180.931 -3.19482 4.18615 0
M  V30 1781 H 183.422 -1.95874 3.23174 0
M  V30 1782 H 183.735 -3.45773 6.9113 0
M  V30 1783 H 182.08 -3.11585 6.21241 0
M  V30 1784 H 185.271 -2.35382 4.04614 0
M  V30 1785 H 185.444 -3.03758 5.72394 0
M  V30 1786 N 178.85 -1.27639 -0.924453 0
M  V30 1787 C 179.813 -1.10681 -2.00705 0
M  V30 1788 C 180.813 -0.0497823 -1.60723 0
M  V30 1789 O 182.003 -0.294654 -1.7169 0
M  V30 1790 C 179.135 -0.687164 -3.33902 0
M  V30 1791 H 180.328 -2.06817 -2.17179 0
M  V30 1792 H 177.881 -1.10473 -1.10569 0
M  V30 1793 H 178.616 0.275439 -3.23128 0
M  V30 1794 H 178.401 -1.45061 -3.6428 0
M  V30 1795 H 179.891 -0.590853 -4.13399 0
M  V30 1796 N 180.328 1.1314 -1.09713 0
M  V30 1797 C 181.574 1.84757 -0.836224 0
M  V30 1798 C 181.907 1.8347 0.636598 0
M  V30 1799 O 181.182 1.27491 1.46889 0
M  V30 1800 C 181.465 3.32782 -1.37578 0
M  V30 1801 C 181.318 3.42567 -2.91493 0
M  V30 1802 C 182.637 4.28307 -1.01198 0
M  V30 1803 H 179.756 0.67082 -0.305236 0
M  V30 1804 H 182.398 1.3278 -1.35903 0
M  V30 1805 H 180.548 3.77177 -0.931097 0
M  V30 1806 H 182.22 3.06862 -3.44432 0
M  V30 1807 H 180.463 2.83349 -3.28475 0
M  V30 1808 H 181.134 4.46674 -3.24324 0
M  V30 1809 H 183.61 3.91999 -1.39556 0
M  V30 1810 H 182.486 5.30307 -1.41653 0
M  V30 1811 H 182.747 4.42029 0.0794833 0
M  V30 1812 N 181.806 0.884767 1.30421 0
M  V30 1813 C 183.052 0.503851 1.96441 0
M  V30 1814 C 183.385 -0.944518 1.69684 0
M  V30 1815 O 182.66 -1.66737 1.00145 0
M  V30 1816 C 182.943 0.779085 3.51571 0
M  V30 1817 C 182.796 2.27807 3.87846 0
M  V30 1818 C 184.115 0.255452 4.39358 0
M  V30 1819 H 181.234 0.184533 0.713524 0
M  V30 1820 H 183.876 1.10872 1.54297 0
M  V30 1821 H 182.026 0.264274 3.876 0
M  V30 1822 H 183.698 2.86127 3.61841 0
M  V30 1823 H 181.941 2.74479 3.35922 0
M  V30 1824 H 182.612 2.42125 4.96064 0
M  V30 1825 H 185.088 0.696079 4.10236 0
M  V30 1826 H 183.964 0.477361 5.4682 0
M  V30 1827 H 184.225 -0.843293 4.33983 0
M  V30 1828 N 183.284 -1.43765 0.645699 0
M  V30 1829 C 184.231 -2.30745 -0.0504648 0
M  V30 1830 C 185.201 -1.4432 -0.822241 0
M  V30 1831 O 186.386 -1.73202 -0.800358 0
M  V30 1832 C 183.526 -3.29802 -1.0161 0
M  V30 1833 C 182.639 -4.31326 -0.241219 0
M  V30 1834 C 181.774 -5.17469 -1.19998 0
M  V30 1835 C 180.813 -6.10691 -0.415094 0
M  V30 1836 N 179.95 -6.89483 -1.32506 0
M  V30 1837 H 184.79 -2.8973 0.697155 0
M  V30 1838 H 182.327 -1.42738 0.355563 0
M  V30 1839 H 184.285 -3.85734 -1.58949 0
M  V30 1840 H 182.915 -2.72483 -1.73069 0
M  V30 1841 H 181.967 -3.77749 0.448334 0
M  V30 1842 H 183.279 -4.9743 0.369437 0
M  V30 1843 H 182.433 -5.7799 -1.84424 0
M  V30 1844 H 181.172 -4.51473 -1.84455 0
M  V30 1845 H 180.177 -5.49265 0.242565 0
M  V30 1846 H 181.402 -6.78727 0.224966 0
M  V30 1847 H 179.348 -6.26142 -1.95657 0
M  V30 1848 H 179.265 -7.52081 -0.768783 0
M  V30 1849 H 180.533 -7.54516 -1.9577 0
M  V30 1850 N 184.763 -0.387143 -1.52771 0
M  V30 1851 C 186.174 0.0873634 -1.86495 0
M  V30 1852 C 186.525 1.46336 -1.30691 0
M  V30 1853 O 185.65 2.068 -0.637409 0
M  V30 1854 C 186.245 0.165305 -3.38396 0
M  V30 1855 C 184.804 0.584101 -3.7184 0
M  V30 1856 C 183.951 -0.255279 -2.76122 0
M  V30 1857 H 186.902 -0.605104 -1.46711 0
M  V30 1858 H 186.923 0.984848 -3.67534 0
M  V30 1859 H 186.435 -0.836301 -3.78982 0
M  V30 1860 H 184.536 1.59315 -3.36823 0
M  V30 1861 H 184.649 0.343749 -4.77865 0
M  V30 1862 H 183.013 0.279126 -2.53166 0
M  V30 1863 H 183.796 -1.25482 -3.19545 0
M  V30 1864 N 186.241 1.57166 -0.116904 0
M  V30 1865 C 187.174 2.10912 0.871291 0
M  V30 1866 C 188.152 1.025 1.26224 0
M  V30 1867 O 189.336 1.3014 1.36366 0
M  V30 1868 C 186.463 2.6041 2.16574 0
M  V30 1869 C 185.509 3.80687 1.92302 0
M  V30 1870 S 186.342 5.23199 1.14119 0
M  V30 1871 C 187.498 5.76064 2.44748 0
M  V30 1872 H 187.731 2.94401 0.414138 0
M  V30 1873 H 185.264 1.54096 0.096829 0
M  V30 1874 H 187.222 2.89583 2.9095 0
M  V30 1875 H 185.883 1.77106 2.59408 0
M  V30 1876 H 185.076 4.13462 2.8821 0
M  V30 1877 H 184.678 3.5212 1.26047 0
M  V30 1878 H 186.97 5.8566 3.406 0
M  V30 1879 H 187.913 6.74184 2.16521 0
M  V30 1880 H 188.321 5.04117 2.54019 0
M  V30 1881 N 187.719 -0.156864 1.56817 0
M  V30 1882 C 188.666 -1.19394 1.97519 0
M  V30 1883 C 189.636 -1.4322 0.841265 0
M  V30 1884 O 190.821 -1.55719 1.10255 0
M  V30 1885 C 187.961 -2.52483 2.35258 0
M  V30 1886 C 187.074 -2.35914 3.61896 0
M  V30 1887 C 186.209 -3.61969 3.88782 0
M  V30 1888 C 185.248 -3.40395 5.08722 0
M  V30 1889 N 184.385 -4.58556 5.31668 0
M  V30 1890 H 189.225 -0.839845 2.85921 0
M  V30 1891 H 186.762 -0.403264 1.41464 0
M  V30 1892 H 188.72 -3.30071 2.55165 0
M  V30 1893 H 187.35 -2.85859 1.49949 0
M  V30 1894 H 186.402 -1.49429 3.49821 0
M  V30 1895 H 187.714 -2.15926 4.49641 0
M  V30 1896 H 186.868 -4.47989 4.09135 0
M  V30 1897 H 185.607 -3.84951 2.9944 0
M  V30 1898 H 184.612 -2.52763 4.88253 0
M  V30 1899 H 185.837 -3.18822 5.99608 0
M  V30 1900 H 183.783 -4.81729 4.45279 0
M  V30 1901 H 183.7 -4.41535 6.13664 0
M  V30 1902 H 184.968 -5.45817 5.5651 0
M  V30 1903 N 189.197 -1.51736 -0.425897 0
M  V30 1904 C 190.107 -1.76738 -1.54275 0
M  V30 1905 C 191.123 -0.65211 -1.61318 0
M  V30 1906 O 192.299 -0.935654 -1.78346 0
M  V30 1907 C 189.364 -1.89755 -2.90162 0
M  V30 1908 C 188.425 -3.13633 -2.93143 0
M  V30 1909 C 187.658 -3.2602 -4.22548 0
M  V30 1910 O 187.881 -2.44067 -5.15546 0
M  V30 1911 O 186.815 -4.19071 -4.32046 0
M  V30 1912 H 190.641 -2.71502 -1.36089 0
M  V30 1913 H 188.226 -1.36376 -0.610069 0
M  V30 1914 H 190.108 -2.00236 -3.70788 0
M  V30 1915 H 188.783 -0.981785 -3.08452 0
M  V30 1916 H 187.69 -3.08622 -2.11431 0
M  V30 1917 H 189.023 -4.04936 -2.798 0
M  V30 1918 N 190.675 0.682077 -1.42076 0
M  V30 1919 C 191.638 1.77756 -1.44691 0
M  V30 1920 C 192.638 1.5726 -0.335535 0
M  V30 1921 O 193.828 1.63686 -0.596037 0
M  V30 1922 C 190.96 3.16301 -1.27146 0
M  V30 1923 H 192.153 1.76826 -2.42224 0
M  V30 1924 H 189.706 0.891012 -1.28416 0
M  V30 1925 H 190.441 3.22862 -0.305075 0
M  V30 1926 H 190.226 3.32581 -2.07683 0
M  V30 1927 H 191.716 3.96241 -1.31843 0
M  V30 1928 N 192.153 1.28127 0.917671 0
M  V30 1929 C 193.401 1.14825 1.66312 0
M  V30 1930 C 193.722 -0.304379 1.9261 0
M  V30 1931 O 192.992 -1.21149 1.53947 0
M  V30 1932 H 191.572 0.421953 0.616413 0
M  V30 1933 H 194.234 1.608 1.10134 0
M  V30 1934 H 193.33 1.68489 2.62712 0
M  V30 1935 N 193.631 -1.12557 1.10312 0
M  V30 1936 C 195.047 -1.36036 0.834649 0
M  V30 1937 C 195.247 -1.93946 -0.546539 0
M  V30 1938 O 194.303 -2.16484 -1.29966 0
M  V30 1939 C 195.616 -2.30312 1.9333 0
M  V30 1940 C 197.164 -2.43906 1.9616 0
M  V30 1941 C 197.639 -3.41496 3.05195 0
M  V30 1942 N 199.13 -3.49053 3.04494 0
M  V30 1943 C 199.865 -4.24471 3.85502 0
M  V30 1944 N 199.361 -5.02966 4.76442 0
M  V30 1945 N 201.154 -4.19864 3.73725 0
M  V30 1946 H 193.305 -0.733246 1.99342 0
M  V30 1947 H 195.568 -0.385234 0.866198 0
M  V30 1948 H 195.274 -1.94933 2.92735 0
M  V30 1949 H 195.148 -3.30421 1.81939 0
M  V30 1950 H 197.535 -2.78567 0.973886 0
M  V30 1951 H 197.616 -1.4369 2.11629 0
M  V30 1952 H 197.26 -3.07565 4.04186 0
M  V30 1953 H 197.19 -4.41539 2.86968 0
M  V30 1954 H 199.681 -2.93053 2.38596 0
M  V30 1955 H 199.994 -5.57846 5.34815 0
M  V30 1956 H 198.339 -5.02167 4.80472 0
M  V30 1957 H 201.53 -3.57623 3.02032 0
M  V30 1958 H 201.703 -4.78386 4.37093 0
M  V30 1959 N 195.109 -0.891671 -1.2995 0
M  V30 1960 C 196.357 -0.512486 -1.95494 0
M  V30 1961 C 196.678 0.942776 -1.70695 0
M  V30 1962 O 195.948 1.66374 -1.03424 0
M  V30 1963 H 194.528 -0.186533 -0.723336 0
M  V30 1964 H 197.19 -1.13621 -1.58355 0
M  V30 1965 H 196.286 -0.688342 -3.04415 0
M  V30 1966 N 196.587 1.43421 -0.653314 0
M  V30 1967 C 197.812 2.06678 -0.172846 0
M  V30 1968 C 198.237 1.48648 1.15262 0
M  V30 1969 O 197.595 0.596457 1.71208 0
M  V30 1970 C 197.643 3.60474 -0.0953184 0
M  V30 1971 O 196.747 4.01487 0.942442 0
M  V30 1972 H 196.088 0.657181 -0.0949155 0
M  V30 1973 H 198.618 1.83925 -0.896265 0
M  V30 1974 H 198.628 4.07905 0.0879728 0
M  V30 1975 H 197.303 4.02088 -1.06291 0
M  V30 1976 H 195.88 3.65646 0.731932 0
M  V30 1977 N 198.065 0.39524 1.52563 0
M  V30 1978 C 199.314 -0.186321 2.00838 0
M  V30 1979 C 199.627 -1.47402 1.28577 0
M  V30 1980 O 200.833 -2.13599 1.67593 0
M  V30 1981 C 199.289 -0.382595 3.57861 0
M  V30 1982 C 198.897 0.892202 4.39026 0
M  V30 1983 C 200.641 -0.9202 4.14406 0
M  V30 1984 C 198.548 0.66388 5.87662 0
M  V30 1985 H 197.478 -0.0734041 0.750418 0
M  V30 1986 H 200.129 0.518552 1.76021 0
M  V30 1987 H 198.511 -1.14946 3.7895 0
M  V30 1988 H 199.685 1.66414 4.29701 0
M  V30 1989 H 198 1.35519 3.9373 0
M  V30 1990 H 200.597 -1.10683 5.23119 0
M  V30 1991 H 200.94 -1.89096 3.70875 0
M  V30 1992 H 201.473 -0.212751 3.97231 0
M  V30 1993 H 198.212 1.6058 6.35527 0
M  V30 1994 H 197.732 -0.0690193 5.9976 0
M  V30 1995 H 199.411 0.300699 6.46301 0
M  V30 1996 N 199.544 -1.57102 0.125237 0
M  V30 1997 C 200.793 -1.94582 -0.531095 0
M  V30 1998 C 201.106 -1.01126 -1.6743 0
M  V30 1999 O 202.312 -1.28097 -2.39381 0
M  V30 2000 C 200.768 -3.45839 -0.996164 0
M  V30 2001 C 200.376 -4.47842 0.118926 0
M  V30 2002 C 202.12 -3.92227 -1.62352 0
M  V30 2003 C 200.027 -5.90284 -0.363192 0
M  V30 2004 H 198.957 -0.726391 -0.20217 0
M  V30 2005 H 201.608 -1.82339 0.206092 0
M  V30 2006 H 199.99 -3.53338 -1.78796 0
M  V30 2007 H 201.164 -4.52018 0.895358 0
M  V30 2008 H 199.479 -4.11243 0.653324 0
M  V30 2009 H 202.076 -4.96069 -1.99548 0
M  V30 2010 H 202.419 -3.32552 -2.50429 0
M  V30 2011 H 202.952 -3.87554 -0.897019 0
M  V30 2012 H 199.691 -6.53728 0.481679 0
M  V30 2013 H 199.211 -5.89515 -1.10597 0
M  V30 2014 H 200.89 -6.41752 -0.822377 0
M  V30 2015 N 201.022 0.148545 -1.56898 0
M  V30 2016 C 201.97 1.20265 -1.99096 0
M  V30 2017 C 202.964 1.44559 -0.883123 0
M  V30 2018 O 204.17 1.4487 -1.0683 0
M  V30 2019 H 200.545 0.404786 -0.63376 0
M  V30 2020 H 202.516 0.82004 -2.86911 0
M  V30 2021 C 201.265 2.52886 -2.3863 0
M  V30 2022 H 200.588 2.35021 -3.23427 0
M  V30 2023 H 202.028 3.25274 -2.7198 0
M  V30 2024 C 200.487 3.13315 -1.23837 0
M  V30 2025 O 201.017 3.98077 -0.538268 0
M  V30 2026 N 199.223 2.72742 -1.00301 0
M  V30 2027 H 198.77 2.03912 -1.5741 0
M  V30 2028 H 198.728 3.13507 -0.236838 0
M  V30 2029 N 202.5 1.5196 0.417844 0
M  V30 2030 C 203.749 1.6482 1.16264 0
M  V30 2031 C 204.062 0.379886 1.91876 0
M  V30 2032 O 205.268 0.388154 2.68711 0
M  V30 2033 C 203.724 2.91161 2.1155 0
M  V30 2034 C 203.332 4.25068 1.41495 0
M  V30 2035 C 205.076 3.13383 2.86341 0
M  V30 2036 C 202.983 5.42541 2.35379 0
M  V30 2037 H 201.913 0.613954 0.437694 0
M  V30 2038 H 204.564 1.78442 0.427871 0
M  V30 2039 H 202.946 2.71218 2.88543 0
M  V30 2040 H 204.12 4.55463 0.699263 0
M  V30 2041 H 202.435 4.0888 0.787792 0
M  V30 2042 H 205.032 3.98324 3.5671 0
M  V30 2043 H 205.375 2.27256 3.48798 0
M  V30 2044 H 205.908 3.33757 2.1645 0
M  V30 2045 H 202.647 6.30987 1.77582 0
M  V30 2046 H 202.167 5.16497 3.04945 0
M  V30 2047 H 203.846 5.75272 2.96093 0
M  V30 2048 N 203.978 -0.674533 1.42435 0
M  V30 2049 C 205.203 -1.46784 1.46524 0
M  V30 2050 C 205.628 -1.87938 0.078066 0
M  V30 2051 O 204.986 -1.56014 -0.92354 0
M  V30 2052 C 205.034 -2.69307 2.39805 0
M  V30 2053 O 204.138 -3.67587 1.86959 0
M  V30 2054 H 203.479 -0.440959 0.496439 0
M  V30 2055 H 206.009 -0.827326 1.87127 0
M  V30 2056 H 206.019 -3.17374 2.56393 0
M  V30 2057 H 204.694 -2.38692 3.40586 0
M  V30 2058 H 203.271 -3.2662 1.79927 0
M  V30 2059 N 205.456 -1.28612 -0.910864 0
M  V30 2060 C 206.681 -1.1891 -1.69927 0
M  V30 2061 C 207.106 0.248372 -1.86453 0
M  V30 2062 O 206.464 1.17961 -1.37676 0
M  V30 2063 C 206.512 -1.89578 -3.06745 0
M  V30 2064 O 205.616 -1.20521 -3.94396 0
M  V30 2065 H 204.957 -0.412632 -0.520222 0
M  V30 2066 H 207.487 -1.69985 -1.1387 0
M  V30 2067 H 207.497 -1.97597 -3.56958 0
M  V30 2068 H 206.172 -2.94136 -2.94035 0
M  V30 2069 H 204.749 -1.20684 -3.52831 0
M  V30 2070 N 206.934 1.1197 -1.10907 0
M  V30 2071 C 208.183 1.82947 -0.849302 0
M  V30 2072 C 208.496 1.85275 0.627112 0
M  V30 2073 O 209.702 2.52296 1.00295 0
M  V30 2074 C 208.158 3.28529 -1.46959 0
M  V30 2075 C 207.766 3.34546 -2.97965 0
M  V30 2076 C 209.51 4.04443 -1.28942 0
M  V30 2077 C 207.417 4.74491 -3.53004 0
M  V30 2078 H 206.347 0.685477 -0.314065 0
M  V30 2079 H 208.998 1.2604 -1.33365 0
M  V30 2080 H 207.38 3.85333 -0.912917 0
M  V30 2081 H 208.554 2.87654 -3.59989 0
M  V30 2082 H 206.869 2.72108 -3.15192 0
M  V30 2083 H 209.466 5.07787 -1.67502 0
M  V30 2084 H 209.809 4.15656 -0.231456 0
M  V30 2085 H 210.342 3.5401 -1.81443 0
M  V30 2086 H 207.081 4.68474 -4.58489 0
M  V30 2087 H 206.601 5.21816 -2.9575 0
M  V30 2088 H 208.28 5.4344 -3.51115 0
M  V30 2089 N 208.412 0.89855 1.29475 0
M  V30 2090 C 209.322 0.379974 2.31502 0
M  V30 2091 C 210.338 -0.524695 1.659 0
M  V30 2092 O 211.514 -0.414551 1.97087 0
M  V30 2093 C 208.579 -0.385138 3.44554 0
M  V30 2094 C 207.64 0.550914 4.2575 0
M  V30 2095 C 206.873 -0.177778 5.33404 0
M  V30 2096 O 207.096 -1.40189 5.52904 0
M  V30 2097 O 206.03 0.479106 5.9999 0
M  V30 2098 H 209.856 1.22639 2.77837 0
M  V30 2099 H 207.441 0.662834 1.33891 0
M  V30 2100 H 209.323 -0.817841 4.13388 0
M  V30 2101 H 207.998 -1.20763 3.0033 0
M  V30 2102 H 206.905 1.03271 3.59564 0
M  V30 2103 H 208.238 1.33979 4.73614 0
M  V30 2104 N 209.89 -1.43072 0.660911 0
M  V30 2105 C 211.138 -2.01323 0.177094 0
M  V30 2106 C 211.459 -1.5245 -1.2159 0
M  V30 2107 O 210.729 -0.740322 -1.81373 0
M  V30 2108 H 209.309 -0.744382 0.0624804 0
M  V30 2109 H 211.971 -1.75179 0.854305 0
M  V30 2110 H 211.067 -3.11649 0.167641 0
M  V30 2111 N 211.368 -0.403325 -1.52352 0
M  V30 2112 C 212.298 0.416205 -2.29761 0
M  V30 2113 C 213.279 1.05123 -1.33728 0
M  V30 2114 O 214.464 1.06134 -1.62632 0
M  V30 2115 C 211.594 1.53624 -3.11475 0
M  V30 2116 C 210.548 1.02653 -4.15507 0
M  V30 2117 C 209.874 2.23971 -4.85532 0
M  V30 2118 C 211.174 0.08463 -5.22231 0
M  V30 2119 H 212.868 -0.229701 -2.98518 0
M  V30 2120 H 210.414 -0.111913 -1.43564 0
M  V30 2121 H 212.367 2.1165 -3.64393 0
M  V30 2122 H 211.091 2.20994 -2.40477 0
M  V30 2123 H 209.75 0.46871 -3.63591 0
M  V30 2124 H 209.398 2.89883 -4.11068 0
M  V30 2125 H 209.098 1.90521 -5.55856 0
M  V30 2126 H 210.622 2.82614 -5.41259 0
M  V30 2127 H 212.036 0.573509 -5.70424 0
M  V30 2128 H 210.433 -0.160783 -5.99885 0
M  V30 2129 H 211.503 -0.86237 -4.7717 0
M  V30 2130 N 212.846 1.57033 -0.133567 0
M  V30 2131 C 213.809 2.14897 0.796995 0
M  V30 2132 C 214.809 1.0874 1.18458 0
M  V30 2133 O 215.999 1.34446 1.1077 0
M  V30 2134 C 213.131 2.70112 2.07973 0
M  V30 2135 H 214.324 2.98457 0.293873 0
M  V30 2136 H 211.877 1.55871 0.115787 0
M  V30 2137 H 212.612 1.9018 2.62682 0
M  V30 2138 H 212.397 3.47764 1.81115 0
M  V30 2139 H 213.887 3.14738 2.74462 0
M  V30 2140 N 214.325 -0.140222 1.56975 0
M  V30 2141 C 215.573 -0.850005 1.83356 0
M  V30 2142 C 215.894 -1.81399 0.71551 0
M  V30 2143 O 215.164 -1.94136 -0.262294 0
M  V30 2144 H 213.744 -0.316886 0.676456 0
M  V30 2145 H 216.406 -0.132608 1.94448 0
M  V30 2146 H 215.502 -1.40814 2.78528 0
M  V30 2147 N 215.803 -1.52179 -0.40978 0
M  V30 2148 C 217.031 -1.70054 -1.17853 0
M  V30 2149 C 217.446 -0.409735 -1.843 0
M  V30 2150 O 216.803 0.614183 -1.71855 0
M  V30 2151 C 216.854 -2.83568 -2.24213 0
M  V30 2152 O 216.575 -4.0765 -1.60478 0
M  V30 2153 C 218.076 -3.12947 -3.13973 0
M  V30 2154 H 215.296 -0.569917 -0.354169 0
M  V30 2155 H 217.84 -1.98734 -0.482198 0
M  V30 2156 H 215.995 -2.57409 -2.89516 0
M  V30 2157 H 216.409 -4.70899 -2.30986 0
M  V30 2158 H 217.883 -3.95889 -3.84677 0
M  V30 2159 H 218.36 -2.26472 -3.76307 0
M  V30 2160 H 218.966 -3.40868 -2.5434 0
M  V30 2161 N 217.281 0.66697 -1.42791 0
M  V30 2162 C 218.527 1.4291 -1.43891 0
M  V30 2163 C 218.86 1.94114 -0.0578972 0
M  V30 2164 O 218.135 1.71414 0.91911 0
M  V30 2165 C 218.418 2.62049 -2.46987 0
M  V30 2166 C 218.271 2.16426 -3.94309 0
M  V30 2167 C 219.59 3.64266 -2.46978 0
M  V30 2168 H 216.709 0.518306 -0.523954 0
M  V30 2169 H 219.351 0.757321 -1.74255 0
M  V30 2170 H 217.501 3.19361 -2.21225 0
M  V30 2171 H 219.173 1.64221 -4.31079 0
M  V30 2172 H 217.416 1.47925 -4.078 0
M  V30 2173 H 218.087 3.02038 -4.62036 0
M  V30 2174 H 220.563 3.16686 -2.69906 0
M  V30 2175 H 219.439 4.45196 -3.21079 0
M  V30 2176 H 219.7 4.15927 -1.49857 0
M  V30 2177 N 218.759 1.29093 0.90403 0
M  V30 2178 C 219.722 1.1386 1.98919 0
M  V30 2179 C 220.722 0.0753457 1.60623 0
M  V30 2180 O 221.912 0.321931 1.71199 0
M  V30 2181 C 219.044 0.740198 3.32767 0
M  V30 2182 H 220.237 2.10246 2.13861 0
M  V30 2183 H 217.79 1.12218 1.08797 0
M  V30 2184 H 218.525 -0.223997 3.23525 0
M  V30 2185 H 218.31 1.50838 3.61926 0
M  V30 2186 H 219.8 0.656546 4.12407 0
M  V30 2187 N 220.237 -1.11381 1.11499 0
M  V30 2188 C 221.477 -1.84763 0.874188 0
M  V30 2189 C 221.841 -1.82726 -0.589496 0
M  V30 2190 O 223.042 -2.51562 -0.947089 0
M  V30 2191 C 221.313 -3.27931 1.42112 0
M  V30 2192 S 222.872 -4.18557 1.31739 0
M  V30 2193 H 219.69 -0.637115 0.315603 0
M  V30 2194 H 222.292 -1.34097 1.42261 0
M  V30 2195 H 220.996 -3.26978 2.48019 0
M  V30 2196 H 220.527 -3.83665 0.869761 0
M  V30 2197 H 222.542 -4.95396 0.282335 0
M  V30 2198 N 221.715 -0.905404 -1.28997 0
M  V30 2199 C 222.665 -0.358713 -2.25161 0
M  V30 2200 C 223.649 0.524449 -1.52113 0
M  V30 2201 O 224.841 0.365534 -1.73184 0
M  V30 2202 C 221.97 0.407609 -3.40872 0
M  V30 2203 C 221.056 -0.490797 -4.21251 0
M  V30 2204 N 221.447 -1.60061 -4.79806 0
M  V30 2205 C 219.745 -0.289636 -4.45059 0
M  V30 2206 C 220.446 -2.15757 -5.40207 0
M  V30 2207 N 219.422 -1.44988 -5.23908 0
M  V30 2208 H 223.224 -1.20642 -2.67998 0
M  V30 2209 H 220.738 -0.757103 -1.43672 0
M  V30 2210 H 222.735 0.816046 -4.08835 0
M  V30 2211 H 221.395 1.25251 -2.9957 0
M  V30 2212 H 222.406 -1.98329 -4.7842 0
M  V30 2213 H 219.083 0.51643 -4.14294 0
M  V30 2214 H 220.473 -3.09069 -5.96595 0
M  V30 2215 N 223.193 1.4272 -0.668489 0
M  V30 2216 C 224.441 2.01226 -0.187769 0
M  V30 2217 C 224.762 1.53092 1.2078 0
M  V30 2218 O 224.032 0.74993 1.80977 0
M  V30 2219 H 222.612 0.744041 -0.0664272 0
M  V30 2220 H 225.274 1.74723 -0.863583 0
M  V30 2221 H 224.37 3.11556 -0.184166 0
M  V30 2222 N 224.671 0.411399 1.52136 0
M  V30 2223 C 225.901 -0.16284 2.05957 0
M  V30 2224 C 226.309 -1.3922 1.28119 0
M  V30 2225 O 225.652 -1.80768 0.326881 0
M  V30 2226 C 225.714 -0.575946 3.54856 0
M  V30 2227 C 225.378 0.542998 4.53763 0
M  V30 2228 C 226.375 1.40726 5.00492 0
M  V30 2229 C 224.06 0.716337 4.97166 0
M  V30 2230 C 226.054 2.4298 5.8927 0
M  V30 2231 C 223.741 1.74218 5.8574 0
M  V30 2232 C 224.739 2.59731 6.31687 0
M  V30 2233 O 224.427 3.60558 7.18507 0
M  V30 2234 H 224.159 -0.0229125 0.675612 0
M  V30 2235 H 226.713 0.581634 1.96993 0
M  V30 2236 H 224.943 -1.37274 3.61515 0
M  V30 2237 H 226.632 -1.07836 3.91313 0
M  V30 2238 H 227.398 1.28476 4.67674 0
M  V30 2239 H 223.277 0.0603857 4.6096 0
M  V30 2240 H 226.821 3.0976 6.25055 0
M  V30 2241 H 222.718 1.86498 6.17971 0
M  V30 2242 H 223.486 3.56829 7.36624 0
M  V30 2243 N 226.149 -1.5696 0.141893 0
M  V30 2244 C 227.377 -2.00322 -0.517579 0
M  V30 2245 C 227.792 -1.02193 -1.58752 0
M  V30 2246 O 227.149 -0.0181619 -1.82491 0
M  V30 2247 C 227.2 -3.43618 -1.12289 0
M  V30 2248 O 226.921 -4.37995 -0.0956929 0
M  V30 2249 C 228.422 -4.02231 -1.86347 0
M  V30 2250 H 225.642 -0.657243 -0.135177 0
M  V30 2251 H 228.186 -2.03146 0.234973 0
M  V30 2252 H 226.341 -3.41662 -1.82609 0
M  V30 2253 H 226.755 -5.21729 -0.538469 0
M  V30 2254 H 228.229 -5.04509 -2.23997 0
M  V30 2255 H 228.706 -3.42655 -2.74744 0
M  V30 2256 H 229.312 -4.07802 -1.20737 0
M  V30 2257 N 227.627 0.131896 -1.57047 0
M  V30 2258 C 228.59 1.14638 -1.98471 0
M  V30 2259 C 229.59 1.35029 -0.873148 0
M  V30 2260 O 230.78 1.31764 -1.13946 0
M  V30 2261 C 227.912 2.50358 -2.31373 0
M  V30 2262 H 229.105 0.79064 -2.8929 0
M  V30 2263 H 226.658 0.375761 -1.51716 0
M  V30 2264 H 227.393 2.90876 -1.43393 0
M  V30 2265 H 227.178 2.36915 -3.12432 0
M  V30 2266 H 228.668 3.23395 -2.64207 0
M  V30 2267 N 229.106 1.52395 0.401703 0
M  V30 2268 C 230.334 1.70676 1.16949 0
M  V30 2269 C 230.749 0.419503 1.8408 0
M  V30 2270 O 230.106 -0.605061 1.72178 0
M  V30 2271 C 230.157 2.84753 2.22706 0
M  V30 2272 O 229.878 4.08495 1.58314 0
M  V30 2273 C 231.379 3.14608 3.12309 0
M  V30 2274 H 228.599 0.571787 0.351142 0
M  V30 2275 H 231.143 1.98987 0.471652 0
M  V30 2276 H 229.298 2.58941 2.88147 0
M  V30 2277 H 229.712 4.72117 2.28485 0
M  V30 2278 H 231.186 3.97923 3.82572 0
M  V30 2279 H 231.663 2.28464 3.75101 0
M  V30 2280 H 232.269 3.42212 2.52529 0
M  V30 2281 N 230.584 -0.659388 1.43143 0
M  V30 2282 C 231.531 -1.77249 1.47822 0
M  V30 2283 C 232.501 -1.62818 0.328558 0
M  V30 2284 O 233.686 -1.83151 0.534838 0
M  V30 2285 C 230.826 -3.15371 1.40126 0
M  V30 2286 C 229.939 -3.4098 2.65249 0
M  V30 2287 C 229.074 -4.68915 2.49584 0
M  V30 2288 C 228.113 -4.87608 3.70006 0
M  V30 2289 N 227.25 -6.06796 3.53189 0
M  V30 2290 H 232.09 -1.72584 2.42938 0
M  V30 2291 H 229.627 -0.842297 1.20598 0
M  V30 2292 H 231.585 -3.9521 1.33659 0
M  V30 2293 H 230.215 -3.19121 0.485964 0
M  V30 2294 H 229.267 -2.55282 2.8202 0
M  V30 2295 H 230.579 -3.50681 3.54717 0
M  V30 2296 H 229.733 -5.56871 2.4079 0
M  V30 2297 H 228.472 -4.61524 1.5763 0
M  V30 2298 H 227.477 -3.9809 3.79215 0
M  V30 2299 H 228.702 -4.96834 4.62961 0
M  V30 2300 H 226.648 -6.00549 2.63965 0
M  V30 2301 H 226.565 -6.17428 4.36255 0
M  V30 2302 H 227.833 -6.9739 3.48236 0
M  V30 2303 N 232.062 -1.29571 -0.897171 0
M  V30 2304 C 233.309 -1.17689 -1.6479 0
M  V30 2305 C 233.637 0.27107 -1.92602 0
M  V30 2306 O 232.892 1.21193 -1.53658 0
M  V30 2307 C 233.191 -1.9382 -3.00281 0
M  V30 2308 C 232.857 -3.43522 -2.92068 0
M  V30 2309 C 231.519 -3.84348 -2.89535 0
M  V30 2310 C 233.871 -4.38906 -2.81089 0
M  V30 2311 C 231.199 -5.18869 -2.73846 0
M  V30 2312 C 233.551 -5.73521 -2.66939 0
M  V30 2313 C 232.215 -6.13601 -2.62774 0
M  V30 2314 H 231.485 -0.430654 -0.603008 0
M  V30 2315 H 234.132 -1.60536 -1.04404 0
M  V30 2316 H 232.437 -1.4357 -3.64547 0
M  V30 2317 H 234.134 -1.82028 -3.57305 0
M  V30 2318 H 230.724 -3.11072 -2.94842 0
M  V30 2319 H 234.908 -4.08315 -2.82121 0
M  V30 2320 H 230.164 -5.4903 -2.69027 0
M  V30 2321 H 234.338 -6.47078 -2.57416 0
M  V30 2322 H 231.965 -7.17786 -2.50375 0
M  V30 2323 N 233.54 1.10788 -1.12088 0
M  V30 2324 C 234.503 2.15207 -0.788577 0
M  V30 2325 C 235.503 1.59609 0.195317 0
M  V30 2326 O 236.693 1.74174 -0.0300193 0
M  V30 2327 C 233.825 3.4047 -0.171174 0
M  V30 2328 H 235.018 2.46116 -1.71368 0
M  V30 2329 H 232.571 1.26089 -0.923652 0
M  V30 2330 H 233.306 3.15176 0.763832 0
M  V30 2331 H 233.091 3.82109 -0.879514 0
M  V30 2332 H 234.581 4.17576 0.04496 0
M  V30 2333 N 235.018 0.912232 1.28515 0
M  V30 2334 C 236.264 0.545405 1.95328 0
M  V30 2335 C 236.597 -0.908313 1.71649 0
M  V30 2336 O 235.872 -1.64575 1.03659 0
M  V30 2337 C 236.155 0.853483 3.4984 0
M  V30 2338 C 236.008 2.35982 3.82926 0
M  V30 2339 C 237.327 0.348589 4.38717 0
M  V30 2340 H 234.446 0.199626 0.709449 0
M  V30 2341 H 237.088 1.1412 1.5191 0
M  V30 2342 H 235.238 0.34643 3.86952 0
M  V30 2343 H 236.91 2.93738 3.55691 0
M  V30 2344 H 235.153 2.81543 3.30024 0
M  V30 2345 H 235.824 2.52593 4.90816 0
M  V30 2346 H 238.3 0.78294 4.08668 0
M  V30 2347 H 237.176 0.593242 5.45685 0
M  V30 2348 H 237.437 -0.751049 4.35674 0
M  V30 2349 N 236.496 -1.42363 0.676048 0
M  V30 2350 C 237.912 -1.55811 0.345718 0
M  V30 2351 C 238.112 -1.65544 -1.14879 0
M  V30 2352 O 237.168 -1.62306 -1.93424 0
M  V30 2353 C 238.481 -2.80746 1.07713 0
M  V30 2354 C 240.029 -2.9452 1.05958 0
M  V30 2355 C 240.504 -4.22318 1.77233 0
M  V30 2356 N 241.995 -4.29233 1.74108 0
M  V30 2357 C 242.73 -5.26935 2.26113 0
M  V30 2358 N 242.226 -6.30783 2.86505 0
M  V30 2359 N 244.019 -5.18741 2.1648 0
M  V30 2360 H 236.17 -1.34289 1.6456 0
M  V30 2361 H 238.433 -0.646506 0.69335 0
M  V30 2362 H 238.139 -2.79696 2.13221 0
M  V30 2363 H 238.013 -3.71676 0.64316 0
M  V30 2364 H 240.4 -2.95097 0.0128255 0
M  V30 2365 H 240.481 -2.04817 1.53244 0
M  V30 2366 H 240.125 -4.22502 2.81877 0
M  V30 2367 H 240.055 -5.10958 1.27396 0
M  V30 2368 H 242.546 -3.54814 1.30059 0
M  V30 2369 H 242.859 -7.01691 3.23805 0
M  V30 2370 H 241.204 -6.31341 2.90575 0
M  V30 2371 H 244.395 -4.36533 1.68987 0
M  V30 2372 H 244.568 -5.94721 2.57316 0
M  V30 2373 N 237.974 -0.419461 -1.51915 0
M  V30 2374 C 239.222 0.152637 -2.01523 0
M  V30 2375 C 239.543 1.44762 -1.30649 0
M  V30 2376 O 238.813 1.90997 -0.435535 0
M  V30 2377 H 237.393 0.0593966 -0.744635 0
M  V30 2378 H 240.055 -0.558073 -1.86739 0
M  V30 2379 H 239.151 0.341369 -3.10227 0
M  V30 2380 N 239.452 1.56882 -0.150215 0
M  V30 2381 C 240.382 2.19935 0.784284 0
M  V30 2382 C 241.363 1.14854 1.25469 0
M  V30 2383 O 242.548 1.43209 1.31168 0
M  V30 2384 C 239.678 2.82349 2.02229 0
M  V30 2385 C 238.632 3.93285 1.68853 0
M  V30 2386 C 237.958 4.42649 2.99944 0
M  V30 2387 C 239.258 5.13904 0.932714 0
M  V30 2388 H 240.952 2.9828 0.258781 0
M  V30 2389 H 238.498 1.43473 0.123029 0
M  V30 2390 H 240.451 3.25126 2.68088 0
M  V30 2391 H 239.175 2.0134 2.57157 0
M  V30 2392 H 237.834 3.5113 1.05371 0
M  V30 2393 H 237.482 3.58458 3.52869 0
M  V30 2394 H 237.182 5.17476 2.78374 0
M  V30 2395 H 238.706 4.88099 3.66868 0
M  V30 2396 H 240.12 5.53506 1.49345 0
M  V30 2397 H 238.517 5.94515 0.81684 0
M  V30 2398 H 239.587 4.84842 -0.0749568 0
M  V30 2399 N 240.93 -0.123565 1.57115 0
M  V30 2400 C 242.158 -0.846461 1.88793 0
M  V30 2401 C 242.573 -1.73652 0.740976 0
M  V30 2402 O 241.93 -1.80207 -0.288393 0
M  V30 2403 C 241.981 -1.6837 3.19897 0
M  V30 2404 O 241.702 -0.829477 4.30176 0
M  V30 2405 C 243.203 -2.51214 3.65248 0
M  V30 2406 H 240.423 -0.243573 0.625231 0
M  V30 2407 H 242.967 -0.109324 2.04208 0
M  V30 2408 H 241.122 -2.37364 3.06165 0
M  V30 2409 H 241.536 -1.40651 5.0529 0
M  V30 2410 H 243.01 -3.05497 4.59756 0
M  V30 2411 H 243.487 -3.28359 2.9168 0
M  V30 2412 H 244.093 -1.8747 3.81752 0
M  V30 2413 N 242.408 -1.52605 -0.393616 0
M  V30 2414 C 243.355 -1.77055 -1.48054 0
M  V30 2415 C 244.325 -0.61358 -1.54352 0
M  V30 2416 O 245.51 -0.852806 -1.70681 0
M  V30 2417 C 242.65 -1.94108 -2.85335 0
M  V30 2418 C 241.763 -3.21792 -2.88226 0
M  V30 2419 C 240.898 -3.29188 -4.16904 0
M  V30 2420 C 239.937 -4.51013 -4.13828 0
M  V30 2421 N 239.074 -4.55716 -5.34105 0
M  V30 2422 H 243.914 -2.69815 -1.26506 0
M  V30 2423 H 241.451 -1.33683 -0.61379 0
M  V30 2424 H 243.409 -2.01979 -3.65049 0
M  V30 2425 H 242.039 -1.04713 -3.05344 0
M  V30 2426 H 241.091 -3.23015 -2.00911 0
M  V30 2427 H 242.403 -4.11557 -2.8182 0
M  V30 2428 H 241.557 -3.36216 -5.05018 0
M  V30 2429 H 240.296 -2.37389 -4.26026 0
M  V30 2430 H 239.301 -4.44115 -3.24102 0
M  V30 2431 H 240.526 -5.44123 -4.06333 0
M  V30 2432 H 238.472 -3.66807 -5.43865 0
M  V30 2433 H 238.389 -5.39346 -5.29756 0
M  V30 2434 H 239.657 -4.66993 -6.2413 0
M  V30 2435 N 243.887 0.651787 -1.4349 0
M  V30 2436 C 245.112 1.44434 -1.48841 0
M  V30 2437 C 245.537 1.8779 -0.107955 0
M  V30 2438 O 244.895 1.57464 0.898602 0
M  V30 2439 C 244.943 2.65458 -2.44059 0
M  V30 2440 O 244.047 3.64566 -1.92784 0
M  V30 2441 H 243.388 0.433005 -0.503391 0
M  V30 2442 H 245.918 0.797451 -1.88419 0
M  V30 2443 H 245.928 3.13255 -2.6141 0
M  V30 2444 H 244.603 2.33244 -3.4434 0
M  V30 2445 H 243.18 3.23716 -1.851 0
M  V30 2446 N 245.365 1.30045 0.890287 0
M  V30 2447 C 246.593 1.21472 1.67487 0
M  V30 2448 C 247.008 -0.223241 1.87476 0
M  V30 2449 O 246.365 -1.14828 1.41847 0
M  V30 2450 C 246.416 1.93394 3.05419 0
M  V30 2451 O 246.137 3.31576 2.86337 0
M  V30 2452 C 247.638 1.91414 3.99844 0
M  V30 2453 H 244.858 0.420604 0.522813 0
M  V30 2454 H 247.402 1.7158 1.11268 0
M  V30 2455 H 245.557 1.47099 3.58386 0
M  V30 2456 H 245.971 3.67929 3.73802 0
M  V30 2457 H 247.445 2.46285 4.94012 0
M  V30 2458 H 247.922 0.891833 4.3005 0
M  V30 2459 H 248.528 2.37496 3.52811 0
M  V30 2460 N 246.843 -1.10192 1.12674 0
M  V30 2461 C 247.806 -2.14786 0.799979 0
M  V30 2462 C 248.806 -1.59711 -0.18685 0
M  V30 2463 O 249.996 -1.74156 0.0392558 0
M  V30 2464 C 247.128 -3.40374 0.189228 0
M  V30 2465 H 248.321 -2.45203 1.72671 0
M  V30 2466 H 245.874 -1.25597 0.930326 0
M  V30 2467 H 246.609 -3.15577 -0.747107 0
M  V30 2468 H 246.394 -3.81637 0.899766 0
M  V30 2469 H 247.884 -4.17594 -0.0228143 0
M  V30 2470 N 248.321 -0.919034 -1.28029 0
M  V30 2471 C 249.251 -0.428581 -2.29533 0
M  V30 2472 C 250.232 0.50659 -1.62381 0
M  V30 2473 O 251.417 0.413195 -1.89753 0
M  V30 2474 C 248.547 0.327388 -3.45753 0
M  V30 2475 C 247.501 -0.519137 -4.2484 0
M  V30 2476 C 246.827 0.365486 -5.33449 0
M  V30 2477 C 248.127 -1.77914 -4.91064 0
M  V30 2478 H 249.821 -1.27687 -2.70807 0
M  V30 2479 H 247.367 -0.615428 -1.30186 0
M  V30 2480 H 249.32 0.681378 -4.15855 0
M  V30 2481 H 248.044 1.20963 -3.03374 0
M  V30 2482 H 246.703 -0.855717 -3.56473 0
M  V30 2483 H 246.351 1.24642 -4.87312 0
M  V30 2484 H 246.051 -0.197356 -5.87268 0
M  V30 2485 H 247.575 0.715241 -6.06396 0
M  V30 2486 H 248.989 -1.49374 -5.53498 0
M  V30 2487 H 247.386 -2.2848 -5.54903 0
M  V30 2488 H 248.456 -2.50382 -4.15255 0
M  V30 2489 N 249.799 1.42003 -0.683588 0
M  V30 2490 C 250.709 2.34597 -0.0109075 0
M  V30 2491 C 251.725 1.55576 0.779245 0
M  V30 2492 O 252.901 1.88107 0.719555 0
M  V30 2493 C 249.966 3.34199 0.922588 0
M  V30 2494 C 249.027 4.29115 0.125984 0
M  V30 2495 C 248.26 5.23959 1.01502 0
M  V30 2496 O 248.483 5.23952 2.25456 0
M  V30 2497 O 247.417 6.00053 0.47111 0
M  V30 2498 H 251.243 2.93675 -0.773853 0
M  V30 2499 H 248.828 1.42654 -0.443861 0
M  V30 2500 H 250.71 3.95365 1.45823 0
M  V30 2501 H 249.385 2.77582 1.66523 0
M  V30 2502 H 248.292 3.71335 -0.453969 0
M  V30 2503 H 249.625 4.88798 -0.577736 0
M  V30 2504 N 251.277 0.427512 1.51691 0
M  V30 2505 C 252.207 -0.3796 2.30394 0
M  V30 2506 C 253.188 -1.02982 1.35384 0
M  V30 2507 O 254.373 -1.03534 1.643 0
M  V30 2508 C 251.503 -1.48649 3.1388 0
M  V30 2509 C 250.457 -0.960294 4.17088 0
M  V30 2510 C 249.783 -2.16219 4.89033 0
M  V30 2511 C 251.083 -0.00153679 5.223 0
M  V30 2512 H 252.777 0.277164 2.98114 0
M  V30 2513 H 250.323 0.134739 1.43368 0
M  V30 2514 H 252.276 -2.05826 3.67714 0
M  V30 2515 H 251 -2.1714 2.43962 0
M  V30 2516 H 249.659 -0.410806 3.64291 0
M  V30 2517 H 249.307 -2.83307 4.15628 0
M  V30 2518 H 249.007 -1.81654 5.58816 0
M  V30 2519 H 250.531 -2.73968 5.45687 0
M  V30 2520 H 251.945 -0.482687 5.71264 0
M  V30 2521 H 250.342 0.256199 5.99553 0
M  V30 2522 H 251.412 0.938174 4.75738 0
M  V30 2523 N 252.755 -1.56801 0.158532 0
M  V30 2524 C 254.003 -1.96102 -0.488712 0
M  V30 2525 C 254.324 -1.04498 -1.64636 0
M  V30 2526 O 253.594 -0.108783 -1.95598 0
M  V30 2527 H 252.174 -0.724102 -0.183535 0
M  V30 2528 H 254.836 -1.93457 0.236728 0
M  V30 2529 H 253.932 -3.00097 -0.857219 0
M  V30 2530 N 254.233 0.115231 -1.57178 0
M  V30 2531 C 255.644 0.67197 -1.74188 0
M  V30 2532 C 255.995 1.80125 -0.777777 0
M  V30 2533 O 255.12 2.16346 0.0484376 0
M  V30 2534 C 255.715 1.22573 -3.1585 0
M  V30 2535 C 254.274 1.72872 -3.34353 0
M  V30 2536 C 253.421 0.629972 -2.70049 0
M  V30 2537 H 256.372 -0.110712 -1.58313 0
M  V30 2538 H 256.393 2.09535 -3.17609 0
M  V30 2539 H 255.905 0.403598 -3.85996 0
M  V30 2540 H 254.006 2.5755 -2.69256 0
M  V30 2541 H 254.119 1.83557 -4.42542 0
M  V30 2542 H 252.483 1.0645 -2.31388 0
M  V30 2543 H 253.266 -0.181241 -3.42821 0
M  V30 2544 N 255.711 1.52812 0.385517 0
M  V30 2545 C 256.936 1.72207 1.15583 0
M  V30 2546 C 257.361 0.441034 1.82857 0
M  V30 2547 O 256.719 -0.603465 1.70962 0
M  V30 2548 C 256.767 2.87476 2.17692 0
M  V30 2549 O 255.871 2.54693 3.24354 0
M  V30 2550 H 255.212 0.572526 0.336319 0
M  V30 2551 H 257.742 1.99618 0.448744 0
M  V30 2552 H 257.752 3.13072 2.6163 0
M  V30 2553 H 256.427 3.80408 1.68115 0
M  V30 2554 H 255.004 2.3985 2.85529 0
M  V30 2555 N 257.189 -0.644168 1.43834 0
M  V30 2556 C 258.437 -1.40117 1.45642 0
M  V30 2557 C 258.758 -1.94814 0.0852413 0
M  V30 2558 O 258.028 -1.74988 -0.880688 0
M  V30 2559 H 256.608 -0.52005 0.536243 0
M  V30 2560 H 259.27 -0.7591 1.7951 0
M  V30 2561 H 258.366 -2.23902 2.17427 0
M  V30 2562 N 258.668 -1.30515 -0.883378 0
M  V30 2563 C 259.917 -1.18795 -1.63005 0
M  V30 2564 C 260.23 0.255923 -1.93919 0
M  V30 2565 O 261.436 0.494654 -2.66956 0
M  V30 2566 C 259.892 -2.07878 -2.93794 0
M  V30 2567 C 259.5 -3.57184 -2.70414 0
M  V30 2568 C 261.244 -2.04924 -3.71761 0
M  V30 2569 C 259.151 -4.38317 -3.97029 0
M  V30 2570 H 258.081 -0.441031 -0.611562 0
M  V30 2571 H 260.732 -1.55275 -0.977854 0
M  V30 2572 H 259.114 -1.64283 -3.60315 0
M  V30 2573 H 260.288 -4.08937 -2.12384 0
M  V30 2574 H 258.603 -3.61976 -2.0582 0
M  V30 2575 H 261.2 -2.62792 -4.65665 0
M  V30 2576 H 261.543 -1.0331 -4.03277 0
M  V30 2577 H 262.076 -2.46649 -3.12104 0
M  V30 2578 H 258.815 -5.40632 -3.70671 0
M  V30 2579 H 258.335 -3.91326 -4.54559 0
M  V30 2580 H 260.014 -4.49834 -4.65036 0
M  V30 2581 N 260.146 1.09593 -1.13257 0
M  V30 2582 C 261.562 1.33775 -0.870423 0
M  V30 2583 C 261.762 1.95327 0.494926 0
M  V30 2584 O 260.818 2.19853 1.2418 0
M  V30 2585 C 262.131 2.25106 -1.99369 0
M  V30 2586 C 263.679 2.3862 -2.02558 0
M  V30 2587 C 264.154 3.33285 -3.14142 0
M  V30 2588 N 265.645 3.40857 -3.13641 0
M  V30 2589 C 266.38 4.14101 -3.96621 0
M  V30 2590 N 265.876 4.90157 -4.8961 0
M  V30 2591 N 267.669 4.09808 -3.84726 0
M  V30 2592 H 259.82 0.680136 -2.01216 0
M  V30 2593 H 262.083 0.362133 -0.876107 0
M  V30 2594 H 261.789 1.87103 -2.97801 0
M  V30 2595 H 261.663 3.25481 -1.90635 0
M  V30 2596 H 264.05 2.75887 -1.0474 0
M  V30 2597 H 264.131 1.38028 -2.15364 0
M  V30 2598 H 263.775 2.96741 -4.12198 0
M  V30 2599 H 263.705 4.33776 -2.98574 0
M  V30 2600 H 266.196 2.86624 -2.46282 0
M  V30 2601 H 266.509 5.4347 -5.49418 0
M  V30 2602 H 264.854 4.89251 -4.93617 0
M  V30 2603 H 268.045 3.4949 -3.11408 0
M  V30 2604 H 268.218 4.66629 -4.49623 0
M  V30 2605 N 261.624 0.925811 1.2754 0
M  V30 2606 C 262.87 0.566092 1.94739 0
M  V30 2607 C 263.203 -0.890057 1.72603 0
M  V30 2608 O 262.478 -1.63467 1.05399 0
M  V30 2609 C 262.761 0.89054 3.48915 0
M  V30 2610 C 262.614 2.4003 3.80402 0
M  V30 2611 C 263.933 0.395101 4.38323 0
M  V30 2612 H 261.052 0.20714 0.707292 0
M  V30 2613 H 263.694 1.15725 1.50691 0
M  V30 2614 H 261.844 0.387452 3.86563 0
M  V30 2615 H 263.516 2.97494 3.52555 0
M  V30 2616 H 261.759 2.85028 3.2702 0
M  V30 2617 H 262.43 2.57785 4.8811 0
M  V30 2618 H 264.906 0.826241 4.07814 0
M  V30 2619 H 263.782 0.651086 5.45025 0
M  V30 2620 H 264.043 -0.704798 4.36446 0
M  V30 2621 N 263.102 -1.41638 0.69111 0
M  V30 2622 C 264.05 -2.32597 0.0115199 0
M  V30 2623 C 265.044 -1.5072 -0.773296 0
M  V30 2624 O 266.25 -1.66685 -0.67942 0
M  V30 2625 H 262.625 -0.751849 -0.0150746 0
M  V30 2626 H 264.596 -2.87593 0.795791 0
M  V30 2627 C 263.345 -3.35467 -0.914172 0
M  V30 2628 H 262.668 -3.9852 -0.319687 0
M  V30 2629 H 264.108 -4.01662 -1.35808 0
M  V30 2630 C 262.567 -2.69004 -2.02826 0
M  V30 2631 O 263.097 -2.53444 -3.11655 0
M  V30 2632 N 261.303 -2.2777 -1.80469 0
M  V30 2633 H 260.85 -2.40626 -0.919615 0
M  V30 2634 H 260.808 -1.83635 -2.55197 0
M  V30 2635 N 264.58 -0.43555 -1.51462 0
M  V30 2636 C 265.805 0.132627 -2.06976 0
M  V30 2637 C 266.23 1.35848 -1.30104 0
M  V30 2638 O 265.588 1.78112 -0.338493 0
M  V30 2639 C 265.636 0.43523 -3.57964 0
M  V30 2640 O 264.74 1.52198 -3.83288 0
M  V30 2641 H 264.081 0.00265 -0.663995 0
M  V30 2642 H 266.611 -0.616369 -1.95095 0
M  V30 2643 H 266.621 0.686206 -4.02188 0
M  V30 2644 H 265.296 -0.460739 -4.1334 0
M  V30 2645 H 263.873 1.2611 -3.50928 0
M  V30 2646 N 266.058 1.56714 -0.166846 0
M  V30 2647 C 267.307 1.95922 0.479318 0
M  V30 2648 C 267.62 1.05529 1.6469 0
M  V30 2649 O 268.826 1.34399 2.35901 0
M  V30 2650 C 267.282 3.48359 0.90412 0
M  V30 2651 C 266.89 4.47369 -0.237621 0
M  V30 2652 C 268.634 3.96394 1.51896 0
M  V30 2653 C 266.541 5.91039 0.206561 0
M  V30 2654 H 265.471 0.731495 0.18284 0
M  V30 2655 H 268.122 1.81728 -0.254363 0
M  V30 2656 H 266.504 3.57955 1.69365 0
M  V30 2657 H 267.678 4.49485 -1.01489 0
M  V30 2658 H 265.993 4.09366 -0.762128 0
M  V30 2659 H 268.59 5.01186 1.86325 0
M  V30 2660 H 268.933 3.39075 2.41524 0
M  V30 2661 H 269.466 3.89796 0.79395 0
M  V30 2662 H 266.205 6.52221 -0.654834 0
M  V30 2663 H 265.725 5.9224 0.949282 0
M  V30 2664 H 267.404 6.43707 0.651939 0
M  V30 2665 N 267.536 -0.106894 1.57237 0
M  V30 2666 C 268.486 -1.1366 1.9765 0
M  V30 2667 C 269.47 -1.36416 0.853203 0
M  V30 2668 O 270.662 -1.37305 1.11697 0
M  V30 2669 C 267.791 -2.46 2.39455 0
M  V30 2670 C 266.877 -2.26668 3.58445 0
M  V30 2671 N 267.268 -1.77176 4.73754 0
M  V30 2672 C 265.566 -2.57279 3.64312 0
M  V30 2673 C 266.267 -1.71836 5.5574 0
M  V30 2674 N 265.243 -2.16623 4.98573 0
M  V30 2675 H 269.045 -0.74669 2.84256 0
M  V30 2676 H 266.559 -0.314483 1.59326 0
M  V30 2677 H 268.556 -3.2049 2.6663 0
M  V30 2678 H 267.216 -2.85738 1.54219 0
M  V30 2679 H 268.227 -1.46545 4.96734 0
M  V30 2680 H 264.904 -3.00622 2.89711 0
M  V30 2681 H 266.294 -1.34723 6.58255 0
M  V30 2682 N 269.014 -1.53014 -0.377408 0
M  V30 2683 C 270.425 -1.60438 -0.954798 0
M  V30 2684 C 270.776 -0.464418 -1.90624 0
M  V30 2685 O 269.901 0.41087 -2.12464 0
M  V30 2686 C 270.496 -2.90797 -1.73847 0
M  V30 2687 C 269.055 -3.00595 -2.26538 0
M  V30 2688 C 268.202 -2.55645 -1.07429 0
M  V30 2689 H 271.153 -1.57926 -0.156575 0
M  V30 2690 H 271.174 -2.77935 -2.5987 0
M  V30 2691 H 270.686 -3.73746 -1.04574 0
M  V30 2692 H 268.787 -2.22208 -2.99089 0
M  V30 2693 H 268.9 -4.05456 -2.5523 0
M  V30 2694 H 267.264 -2.10239 -1.43777 0
M  V30 2695 H 268.047 -3.41 -0.396728 0
M  V30 2696 N 270.492 0.636531 -1.44174 0
M  V30 2697 C 271.74 1.39343 -1.46383 0
M  V30 2698 C 272.061 1.94766 -0.0955715 0
M  V30 2699 O 271.331 1.75452 0.871395 0
M  V30 2700 H 269.911 0.517199 -0.538994 0
M  V30 2701 H 272.573 0.74957 -1.7991 0
M  V30 2702 H 271.669 2.22746 -2.18611 0
M  V30 2703 N 271.97 1.30982 0.876444 0
M  V30 2704 C 272.9 1.20668 1.99903 0
M  V30 2705 C 273.881 0.095354 1.69833 0
M  V30 2706 O 275.066 0.27885 1.92188 0
M  V30 2707 C 272.196 0.90655 3.3526 0
M  V30 2708 C 271.15 1.97675 3.79617 0
M  V30 2709 C 270.476 1.52943 5.1236 0
M  V30 2710 C 271.776 3.389 3.97422 0
M  V30 2711 H 273.47 2.14586 2.0879 0
M  V30 2712 H 271.016 1.03308 1.00317 0
M  V30 2713 H 272.969 0.821025 4.13324 0
M  V30 2714 H 271.693 -0.0682969 3.26529 0
M  V30 2715 H 270.352 2.05205 3.03787 0
M  V30 2716 H 270 0.54262 5.00065 0
M  V30 2717 H 269.7 2.24532 5.43009 0
M  V30 2718 H 271.224 1.45786 5.92941 0
M  V30 2719 H 272.638 3.34081 4.659 0
M  V30 2720 H 271.035 4.0865 4.3946 0
M  V30 2721 H 272.105 3.80163 3.01006 0
M  V30 2722 N 273.449 -1.08991 1.13837 0
M  V30 2723 C 274.695 -1.81526 0.90422 0
M  V30 2724 C 275.028 -1.85706 -0.568066 0
M  V30 2725 O 274.303 -1.32855 -1.42056 0
M  V30 2726 C 274.586 -3.27447 1.49835 0
M  V30 2727 C 274.439 -3.31512 3.04006 0
M  V30 2728 C 275.758 -4.24256 1.17025 0
M  V30 2729 H 272.877 -0.659029 0.329923 0
M  V30 2730 H 275.519 -1.27644 1.40737 0
M  V30 2731 H 273.669 -3.73462 1.07044 0
M  V30 2732 H 275.341 -2.93867 3.55584 0
M  V30 2733 H 273.584 -2.70963 3.38765 0
M  V30 2734 H 274.255 -4.34329 3.40679 0
M  V30 2735 H 276.731 -3.86549 1.54009 0
M  V30 2736 H 275.607 -5.24684 1.61237 0
M  V30 2737 H 275.868 -4.42019 0.0846274 0
M  V30 2738 N 274.927 -0.932562 -1.27047 0
M  V30 2739 C 275.874 -0.434072 -2.26681 0
M  V30 2740 C 276.844 0.501639 -1.58344 0
M  V30 2741 O 278.029 0.419734 -1.86126 0
M  V30 2742 C 275.169 0.30261 -3.43771 0
M  V30 2743 C 274.282 -0.667774 -4.26808 0
M  V30 2744 C 273.417 0.0892393 -5.31125 0
M  V30 2745 C 272.456 -0.873532 -6.05835 0
M  V30 2746 N 271.593 -0.148832 -7.01942 0
M  V30 2747 H 276.433 -1.28868 -2.68695 0
M  V30 2748 H 273.97 -0.646713 -1.32121 0
M  V30 2749 H 275.928 0.746092 -4.10474 0
M  V30 2750 H 274.558 1.12142 -3.02695 0
M  V30 2751 H 273.61 -1.22978 -3.59973 0
M  V30 2752 H 274.922 -1.40337 -4.78651 0
M  V30 2753 H 274.076 0.592409 -6.03801 0
M  V30 2754 H 272.815 0.85777 -4.80097 0
M  V30 2755 H 271.82 -1.38791 -5.31994 0
M  V30 2756 H 273.045 -1.64193 -6.58952 0
M  V30 2757 H 270.991 0.601365 -6.53238 0
M  V30 2758 H 270.908 -0.82391 -7.51497 0
M  V30 2759 H 272.176 0.333527 -7.78786 0
M  V30 2760 N 276.405 1.4127 -0.698611 0
M  V30 2761 C 277.633 2.05503 -0.239992 0
M  V30 2762 C 278.048 1.52584 1.11191 0
M  V30 2763 O 277.405 0.675323 1.69545 0
M  V30 2764 C 277.456 3.60987 -0.192429 0
M  V30 2765 O 277.177 4.1195 -1.49094 0
M  V30 2766 C 278.678 4.42371 0.28681 0
M  V30 2767 H 275.898 0.661748 -0.111045 0
M  V30 2768 H 278.442 1.80987 -0.95205 0
M  V30 2769 H 276.597 3.84533 0.470472 0
M  V30 2770 H 277.011 5.06018 -1.38007 0
M  V30 2771 H 278.485 5.51344 0.26896 0
M  V30 2772 H 278.962 4.18699 1.32619 0
M  V30 2773 H 279.568 4.23897 -0.345201 0
M  V30 2774 N 277.883 0.443576 1.51229 0
M  V30 2775 C 279.294 -0.0180867 1.86691 0
M  V30 2776 C 279.645 -1.41384 1.36033 0
M  V30 2777 O 278.77 -2.04291 0.713722 0
M  V30 2778 C 279.365 -0.039597 3.38777 0
M  V30 2779 C 277.924 -0.445692 3.73752 0
M  V30 2780 C 277.071 0.357584 2.74985 0
M  V30 2781 H 280.022 0.659138 1.44364 0
M  V30 2782 H 280.043 -0.847761 3.70936 0
M  V30 2783 H 279.555 0.976382 3.75617 0
M  V30 2784 H 277.656 -1.46704 3.42503 0
M  V30 2785 H 277.769 -0.166155 4.78812 0
M  V30 2786 H 276.133 -0.184973 2.54027 0
M  V30 2787 H 276.916 1.37256 3.14668 0
M  V30 2788 N 279.361 -1.56624 0.175154 0
M  V30 2789 C 280.294 -2.14 -0.792412 0
M  V30 2790 C 281.272 -1.07114 -1.22333 0
M  V30 2791 O 282.456 -1.35112 -1.31442 0
M  V30 2792 C 279.583 -2.68268 -2.0676 0
M  V30 2793 C 278.629 -3.87562 -1.7804 0
M  V30 2794 S 279.462 -5.27074 -0.946222 0
M  V30 2795 C 280.618 -5.8475 -2.23199 0
M  V30 2796 H 280.851 -2.95736 -0.304588 0
M  V30 2797 H 278.384 -1.54349 -0.0395705 0
M  V30 2798 H 280.342 -3.00182 -2.80002 0
M  V30 2799 H 279.003 -1.86612 -2.52656 0
M  V30 2800 H 278.196 -4.23874 -2.72666 0
M  V30 2801 H 277.798 -3.56555 -1.12891 0
M  V30 2802 H 280.09 -5.97898 -3.18629 0
M  V30 2803 H 281.033 -6.81756 -1.91349 0
M  V30 2804 H 281.441 -5.13198 -2.35134 0
M  V30 2805 N 280.839 0.0985539 -1.57292 0
M  V30 2806 C 282.067 0.816318 -1.90115 0
M  V30 2807 C 282.482 1.72451 -0.768509 0
M  V30 2808 O 281.839 1.80643 0.259687 0
M  V30 2809 C 281.89 1.63259 -3.22535 0
M  V30 2810 O 281.611 0.760934 -4.31441 0
M  V30 2811 C 283.112 2.45372 -3.69199 0
M  V30 2812 H 280.332 0.233595 -0.629027 0
M  V30 2813 H 282.876 0.0768229 -2.04356 0
M  V30 2814 H 281.031 2.32463 -3.09903 0
M  V30 2815 H 281.445 1.32595 -5.07463 0
M  V30 2816 H 282.919 2.98144 -4.64558 0
M  V30 2817 H 283.396 3.23677 -2.96867 0
M  V30 2818 H 284.002 1.81373 -3.84687 0
M  V30 2819 N 282.317 1.53212 0.369288 0
M  V30 2820 C 283.594 1.59815 1.12776 0
M  V30 2821 C 283.974 0.403402 2.0721 0
M  V30 2822 O 283.322 -0.606667 2.20299 0
M  V30 2823 C 283.532 2.94664 1.87013 0
M  V30 2824 C 284.88 3.49109 2.41677 0
M  V30 2825 O 285.904 2.96669 1.97144 0
M  V30 2826 O 284.763 4.40775 3.23079 0
M  V30 2827 H 281.857 0.645376 0.517125 0
M  V30 2828 H 284.403 1.65553 0.37285 0
M  V30 2829 H 283.175 3.73061 1.18071 0
M  V30 2830 H 282.798 2.92401 2.69421 0
M  V30 2831 N 283.795 -0.628877 1.44509 0
M  V30 2832 C 285.041 -1.38863 1.48623 0
M  V30 2833 C 285.396 -1.92038 0.117933 0
M  V30 2834 O 284.689 -1.70853 -0.86716 0
M  V30 2835 C 284.883 -2.56995 2.48371 0
M  V30 2836 C 284.712 -2.15385 3.94765 0
M  V30 2837 C 283.482 -2.02558 4.62924 0
M  V30 2838 C 285.68 -1.74158 4.83915 0
M  V30 2839 N 283.662 -1.54534 5.94132 0
M  V30 2840 C 285.033 -1.37396 6.04584 0
M  V30 2841 C 287.088 -1.61559 4.7096 0
M  V30 2842 C 285.791 -0.892948 7.13736 0
M  V30 2843 C 287.817 -1.14862 5.80139 0
M  V30 2844 C 287.179 -0.790516 6.9995 0
M  V30 2845 H 283.278 -0.502858 0.59888 0
M  V30 2846 H 285.862 -0.72121 1.8085 0
M  V30 2847 H 284.033 -3.21362 2.1813 0
M  V30 2848 H 285.765 -3.23801 2.42766 0
M  V30 2849 H 282.52 -2.23082 4.1777 0
M  V30 2850 H 282.944 -1.32815 6.63844 0
M  V30 2851 H 287.586 -1.87876 3.78764 0
M  V30 2852 H 285.304 -0.617291 8.05739 0
M  V30 2853 H 288.89 -1.05569 5.72142 0
M  V30 2854 H 287.77 -0.434713 7.82994 0
M  V30 2855 N 285.273 -1.31445 -0.869486 0
M  V30 2856 C 286.519 -1.21337 -1.62496 0
M  V30 2857 C 286.852 0.227872 -1.92858 0
M  V30 2858 O 286.127 1.16094 -1.56053 0
M  V30 2859 C 286.41 -2.05814 -2.95487 0
M  V30 2860 C 286.263 -3.5824 -2.72 0
M  V30 2861 C 287.582 -1.9079 -3.96594 0
M  V30 2862 H 284.701 -0.442135 -0.589649 0
M  V30 2863 H 287.343 -1.6124 -1.00507 0
M  V30 2864 H 285.493 -1.71913 -3.48394 0
M  V30 2865 H 287.165 -4.0228 -2.25762 0
M  V30 2866 H 285.408 -3.81647 -2.06224 0
M  V30 2867 H 286.079 -4.12657 -3.66631 0
M  V30 2868 H 288.555 -2.20459 -3.52898 0
M  V30 2869 H 287.431 -2.52199 -4.87531 0
M  V30 2870 H 287.692 -0.871341 -4.33428 0
M  V30 2871 N 286.751 1.08385 -1.14413 0
M  V30 2872 C 288.162 1.62258 -0.923535 0
M  V30 2873 C 288.513 1.88691 0.537595 0
M  V30 2874 O 287.638 1.64454 1.40655 0
M  V30 2875 C 288.233 2.94781 -1.67002 0
M  V30 2876 C 286.792 3.45437 -1.495 0
M  V30 2877 C 285.939 2.19668 -1.69238 0
M  V30 2878 H 288.89 0.916086 -1.2959 0
M  V30 2879 H 288.911 3.63229 -1.13334 0
M  V30 2880 H 288.423 2.7551 -2.73342 0
M  V30 2881 H 286.524 3.6981 -0.455097 0
M  V30 2882 H 286.637 4.22173 -2.2651 0
M  V30 2883 H 285.001 2.28849 -1.11804 0
M  V30 2884 H 285.784 2.02905 -2.7692 0
M  V30 2885 N 288.23 0.939286 1.26551 0
M  V30 2886 C 289.14 0.453432 2.30176 0
M  V30 2887 C 290.156 -0.471649 1.67486 0
M  V30 2888 O 291.332 -0.35164 1.98306 0
M  V30 2889 C 288.397 -0.275326 3.45605 0
M  V30 2890 C 287.458 0.686084 4.23782 0
M  V30 2891 C 286.691 -0.00798994 5.33699 0
M  V30 2892 O 286.914 -1.22528 5.57085 0
M  V30 2893 O 285.848 0.669746 5.98162 0
M  V30 2894 H 289.674 1.31416 2.73795 0
M  V30 2895 H 287.259 0.705095 1.31715 0
M  V30 2896 H 289.141 -0.685911 4.1578 0
M  V30 2897 H 287.816 -1.11147 3.0402 0
M  V30 2898 H 286.723 1.14658 3.56096 0
M  V30 2899 H 288.056 1.48979 4.69112 0
M  V30 2900 N 289.708 -1.40897 0.706093 0
M  V30 2901 C 290.985 -1.94868 0.169099 0
M  V30 2902 C 291.365 -1.64485 -1.32318 0
M  V30 2903 O 290.713 -0.95744 -2.07474 0
M  V30 2904 C 290.923 -3.45798 0.471654 0
M  V30 2905 C 292.271 -4.22663 0.405127 0
M  V30 2906 O 293.295 -3.53865 0.407168 0
M  V30 2907 O 292.154 -5.45216 0.374383 0
M  V30 2908 H 289.248 -0.82673 0.0211352 0
M  V30 2909 H 291.794 -1.50558 0.782976 0
M  V30 2910 H 290.566 -3.61235 1.50416 0
M  V30 2911 H 290.189 -3.97225 -0.172666 0
M  V30 2912 N 291.186 -0.45159 -1.50991 0
M  V30 2913 C 292.435 0.111653 -2.01391 0
M  V30 2914 C 292.748 1.42529 -1.33959 0
M  V30 2915 O 293.954 2.07232 -1.75405 0
M  V30 2916 C 292.41 0.249514 -3.59034 0
M  V30 2917 C 292.018 -1.05453 -4.35412 0
M  V30 2918 C 293.762 0.765762 -4.17536 0
M  V30 2919 C 291.669 -0.881529 -5.84793 0
M  V30 2920 H 290.599 0.0455022 -0.752626 0
M  V30 2921 H 293.25 -0.583524 -1.73975 0
M  V30 2922 H 291.632 1.00803 -3.82955 0
M  V30 2923 H 292.806 -1.82248 -4.23229 0
M  V30 2924 H 291.121 -1.50039 -3.88429 0
M  V30 2925 H 293.718 0.911913 -5.26866 0
M  V30 2926 H 294.061 1.75201 -3.77638 0
M  V30 2927 H 294.594 0.0651744 -3.97747 0
M  V30 2928 H 291.333 -1.84057 -6.29129 0
M  V30 2929 H 290.853 -0.153625 -5.99603 0
M  V30 2930 H 292.532 -0.540363 -6.4474 0
M  V30 2931 N 292.664 1.56529 -0.183458 0
M  V30 2932 C 293.911 1.97244 0.458357 0
M  V30 2933 C 294.239 1.06992 1.62428 0
M  V30 2934 O 293.494 0.106542 1.9541 0
M  V30 2935 C 293.793 3.43939 0.971637 0
M  V30 2936 C 293.459 4.5083 -0.0796784 0
M  V30 2937 C 292.121 4.79786 -0.368584 0
M  V30 2938 C 294.473 5.15138 -0.792638 0
M  V30 2939 C 291.801 5.70345 -1.37563 0
M  V30 2940 C 294.153 6.06784 -1.78875 0
M  V30 2941 C 292.817 6.34102 -2.08497 0
M  V30 2942 H 292.087 0.721768 0.167725 0
M  V30 2943 H 294.734 1.89472 -0.277976 0
M  V30 2944 H 293.039 3.48724 1.78602 0
M  V30 2945 H 294.736 3.72791 1.47744 0
M  V30 2946 H 291.326 4.28317 0.155668 0
M  V30 2947 H 295.51 4.92868 -0.582659 0
M  V30 2948 H 290.766 5.89789 -1.61118 0
M  V30 2949 H 294.94 6.55677 -2.3465 0
M  V30 2950 H 292.567 7.04074 -2.86678 0
M  V30 2951 N 294.142 -0.090211 1.57342 0
M  V30 2952 C 295.074 -1.13541 1.99101 0
M  V30 2953 C 296.087 -1.3604 0.894258 0
M  V30 2954 O 297.276 -1.34606 1.17233 0
M  V30 2955 C 294.376 -2.49001 2.29895 0
M  V30 2956 C 293.549 -2.46712 3.61182 0
M  V30 2957 C 292.608 -3.64136 3.79857 0
M  V30 2958 O 291.634 -3.46405 4.51655 0
M  V30 2959 N 292.836 -4.83802 3.20806 0
M  V30 2960 H 295.601 -0.779942 2.89373 0
M  V30 2961 H 293.162 -0.279125 1.59476 0
M  V30 2962 H 295.154 -3.26166 2.39578 0
M  V30 2963 H 293.724 -2.76619 1.45605 0
M  V30 2964 H 292.944 -1.55058 3.62423 0
M  V30 2965 H 294.232 -2.42265 4.4742 0
M  V30 2966 H 293.63 -5.01112 2.62494 0
M  V30 2967 H 292.187 -5.58543 3.35966 0
M  V30 2968 N 295.62 -1.53406 -0.361157 0
M  V30 2969 C 296.848 -1.73717 -1.12383 0
M  V30 2970 C 297.263 -0.468161 -1.82904 0
M  V30 2971 O 296.62 0.559198 -1.73722 0
M  V30 2972 C 296.671 -2.90558 -2.15078 0
M  V30 2973 O 296.392 -4.12549 -1.47428 0
M  V30 2974 C 297.893 -3.22777 -3.03858 0
M  V30 2975 H 295.113 -0.580896 -0.335858 0
M  V30 2976 H 297.657 -2.00167 -0.418728 0
M  V30 2977 H 295.812 -2.66489 -2.8118 0
M  V30 2978 H 296.226 -4.78009 -2.15887 0
M  V30 2979 H 297.7 -4.07927 -3.71887 0
M  V30 2980 H 298.177 -2.38329 -3.68912 0
M  V30 2981 H 298.783 -3.48787 -2.43367 0
M  V30 2982 N 297.098 0.621204 -1.44841 0
M  V30 2983 C 298.061 1.71459 -1.521 0
M  V30 2984 C 299.061 1.55696 -0.401933 0
M  V30 2985 O 300.251 1.61011 -0.664925 0
M  V30 2986 C 297.383 3.10624 -1.40447 0
M  V30 2987 H 298.576 1.66394 -2.49506 0
M  V30 2988 H 296.129 0.835745 -1.3208 0
M  V30 2989 H 296.864 3.21277 -0.441737 0
M  V30 2990 H 296.649 3.23473 -2.21602 0
M  V30 2991 H 298.139 3.90293 -1.4853 0
M  V30 2992 N 298.576 1.31904 0.862503 0
M  V30 2993 C 299.506 1.22782 1.98612 0
M  V30 2994 C 300.487 0.113362 1.69722 0
M  V30 2995 O 301.672 0.299218 1.91881 0
M  V30 2996 C 298.802 0.942058 3.34279 0
M  V30 2997 C 297.756 2.0169 3.77499 0
M  V30 2998 C 297.082 1.58369 5.10709 0
M  V30 2999 C 298.382 3.43096 3.93805 0
M  V30 3000 H 300.076 2.16788 2.06502 0
M  V30 3001 H 297.622 1.04366 0.992154 0
M  V30 3002 H 299.575 0.864818 4.1243 0
M  V30 3003 H 298.299 -0.0336603 3.26583 0
M  V30 3004 H 296.958 2.08416 3.01593 0
M  V30 3005 H 296.606 0.595628 4.99461 0
M  V30 3006 H 296.306 2.30279 5.40597 0
M  V30 3007 H 297.83 1.52067 5.91361 0
M  V30 3008 H 299.244 3.39003 4.62331 0
M  V30 3009 H 297.641 4.13288 4.35101 0
M  V30 3010 H 298.711 3.83334 2.96957 0
M  V30 3011 N 300.054 -1.07777 1.14986 0
M  V30 3012 C 301.302 -1.79934 0.920235 0
M  V30 3013 C 301.623 -1.86955 -0.554336 0
M  V30 3014 O 300.893 -1.36731 -1.40291 0
M  V30 3015 H 299.473 -0.666424 0.337473 0
M  V30 3016 H 302.135 -1.3027 1.44968 0
M  V30 3017 H 301.231 -2.82539 1.32583 0
M  V30 3018 N 301.532 -0.945985 -1.26051 0
M  V30 3019 C 302.948 -0.649045 -1.45807 0
M  V30 3020 C 303.148 0.796158 -1.85104 0
M  V30 3021 O 302.204 1.57233 -1.97571 0
M  V30 3022 C 303.517 -1.61458 -2.53677 0
M  V30 3023 C 305.065 -1.62481 -2.67524 0
M  V30 3024 C 305.54 -2.57776 -3.7857 0
M  V30 3025 N 307.031 -2.5609 -3.85969 0
M  V30 3026 C 307.766 -3.26508 -4.7136 0
M  V30 3027 N 307.262 -4.0637 -5.61102 0
M  V30 3028 N 309.055 -3.15437 -4.65248 0
M  V30 3029 H 301.206 -1.88005 -0.988328 0
M  V30 3030 H 303.469 -0.808198 -0.4955 0
M  V30 3031 H 303.175 -2.64644 -2.31638 0
M  V30 3032 H 303.049 -1.37036 -3.51427 0
M  V30 3033 H 305.436 -0.600167 -2.88933 0
M  V30 3034 H 305.517 -1.90958 -1.70202 0
M  V30 3035 H 305.161 -3.60361 -3.57913 0
M  V30 3036 H 305.091 -2.26587 -4.75359 0
M  V30 3037 H 307.582 -1.98105 -3.21812 0
M  V30 3038 H 307.895 -4.57042 -6.23164 0
M  V30 3039 H 306.24 -4.10469 -5.60839 0
M  V30 3040 H 309.431 -2.52525 -3.94143 0
M  V30 3041 H 309.604 -3.70584 -5.31575 0
M  V30 3042 N 303.011 1.40521 -0.713556 0
M  V30 3043 C 303.974 2.29098 -0.0684347 0
M  V30 3044 C 304.974 1.45268 0.689472 0
M  V30 3045 O 306.164 1.66205 0.521677 0
M  V30 3046 C 303.296 3.28446 0.913024 0
M  V30 3047 H 304.489 2.87645 -0.84855 0
M  V30 3048 H 302.042 1.48809 -0.47809 0
M  V30 3049 H 302.777 2.74913 1.72027 0
M  V30 3050 H 302.562 3.90327 0.372472 0
M  V30 3051 H 304.052 3.94777 1.36165 0
M  V30 3052 N 304.489 0.459591 1.5075 0
M  V30 3053 C 305.452 -0.329093 2.26825 0
M  V30 3054 C 306.452 -0.930481 1.31144 0
M  V30 3055 O 307.642 -0.801453 1.54669 0
M  V30 3056 C 304.774 -1.46768 3.07688 0
M  V30 3057 H 305.967 0.337924 2.9799 0
M  V30 3058 H 303.52 0.213336 1.54837 0
M  V30 3059 H 304.255 -2.17009 2.40993 0
M  V30 3060 H 304.04 -1.04238 3.77991 0
M  V30 3061 H 305.53 -2.02433 3.65254 0
M  V30 3062 N 305.967 -1.56429 0.191757 0
M  V30 3063 C 306.877 -2.22541 -0.742481 0
M  V30 3064 C 307.893 -1.22342 -1.23727 0
M  V30 3065 O 309.069 -1.55069 -1.28513 0
M  V30 3066 C 306.134 -2.8692 -1.94623 0
M  V30 3067 C 305.195 -4.02378 -1.49633 0
M  V30 3068 C 304.428 -4.63678 -2.6427 0
M  V30 3069 O 304.651 -4.23895 -3.81666 0
M  V30 3070 O 303.585 -5.53202 -2.37174 0
M  V30 3071 H 307.411 -3.02977 -0.209462 0
M  V30 3072 H 304.996 -1.49353 -0.0373832 0
M  V30 3073 H 306.878 -3.27663 -2.64982 0
M  V30 3074 H 305.553 -2.09466 -2.46791 0
M  V30 3075 H 304.46 -3.66265 -0.761636 0
M  V30 3076 H 305.793 -4.81487 -1.02134 0
M  V30 3077 N 307.445 0.0818655 -1.57387 0
M  V30 3078 C 308.856 0.634871 -1.75574 0
M  V30 3079 C 309.207 1.78435 -0.815809 0
M  V30 3080 O 308.332 2.164 0.0025366 0
M  V30 3081 C 308.927 1.15845 -3.18379 0
M  V30 3082 C 307.486 1.65741 -3.37945 0
M  V30 3083 C 306.633 0.572549 -2.71325 0
M  V30 3084 H 309.584 -0.144268 -1.58043 0
M  V30 3085 H 309.605 2.02751 -3.21982 0
M  V30 3086 H 309.117 0.321631 -3.86765 0
M  V30 3087 H 307.218 2.51781 -2.74658 0
M  V30 3088 H 307.331 1.74129 -4.46336 0
M  V30 3089 H 305.695 1.01518 -2.33594 0
M  V30 3090 H 306.478 -0.253918 -3.4236 0
M  V30 3091 N 308.923 1.53595 0.353017 0
M  V30 3092 C 310.169 1.70638 1.09593 0
M  V30 3093 C 310.502 0.463286 1.88593 0
M  V30 3094 O 309.777 -0.539597 1.86865 0
M  V30 3095 C 310.06 2.96406 2.04489 0
M  V30 3096 C 309.913 4.30901 1.29014 0
M  V30 3097 C 311.232 3.17812 3.0444 0
M  V30 3098 H 308.351 0.620913 0.397034 0
M  V30 3099 H 310.993 1.86254 0.375446 0
M  V30 3100 H 309.143 2.83223 2.65927 0
M  V30 3101 H 310.815 4.55917 0.702638 0
M  V30 3102 H 309.058 4.29741 0.592071 0
M  V30 3103 H 309.729 5.1506 1.98537 0
M  V30 3104 H 312.205 3.30263 2.53112 0
M  V30 3105 H 311.081 4.07223 3.6805 0
M  V30 3106 H 311.342 2.33669 3.75301 0
M  V30 3107 N 310.401 -0.613514 1.45168 0
M  V30 3108 C 311.311 -1.75296 1.55912 0
M  V30 3109 C 312.327 -1.68244 0.443856 0
M  V30 3110 O 313.503 -1.88706 0.70371 0
M  V30 3111 C 310.568 -3.1174 1.5172 0
M  V30 3112 C 309.629 -3.30291 2.74238 0
M  V30 3113 C 308.862 -4.60226 2.70236 0
M  V30 3114 O 309.085 -5.42168 1.77229 0
M  V30 3115 O 308.019 -4.81361 3.61352 0
M  V30 3116 H 311.845 -1.69183 2.52212 0
M  V30 3117 H 309.43 -0.776886 1.27612 0
M  V30 3118 H 311.312 -3.93044 1.51968 0
M  V30 3119 H 309.987 -3.18357 0.585697 0
M  V30 3120 H 308.894 -2.48598 2.79553 0
M  V30 3121 H 310.227 -3.28547 3.66494 0
M  V30 3122 N 311.879 -1.3236 -0.855495 0
M  V30 3123 C 313.125 -1.23054 -1.612 0
M  V30 3124 C 313.458 0.207404 -1.93089 0
M  V30 3125 O 312.733 1.14432 -1.57275 0
M  V30 3126 C 313.016 -2.08937 -2.93287 0
M  V30 3127 C 312.869 -3.61105 -2.68185 0
M  V30 3128 C 314.188 -1.94986 -3.94549 0
M  V30 3129 H 311.307 -0.448364 -0.584926 0
M  V30 3130 H 313.949 -1.62297 -0.987917 0
M  V30 3131 H 312.099 -1.75599 -3.46551 0
M  V30 3132 H 313.771 -4.04652 -2.21483 0
M  V30 3133 H 312.014 -3.83813 -2.02164 0
M  V30 3134 H 312.685 -4.16522 -3.62234 0
M  V30 3135 H 315.161 -2.24189 -3.5054 0
M  V30 3136 H 314.037 -2.57356 -4.84829 0
M  V30 3137 H 314.298 -0.917263 -4.3248 0
M  V30 3138 N 313.357 1.07166 -1.15556 0
M  V30 3139 C 314.582 1.84053 -0.955988 0
M  V30 3140 C 315.007 1.81586 0.490739 0
M  V30 3141 O 314.365 1.21018 1.34997 0
M  V30 3142 C 314.413 3.28957 -1.47714 0
M  V30 3143 O 313.517 4.06795 -0.677593 0
M  V30 3144 H 312.858 0.569842 -0.340847 0
M  V30 3145 H 315.388 1.35178 -1.53584 0
M  V30 3146 H 315.398 3.79788 -1.4908 0
M  V30 3147 H 314.073 3.30068 -2.53037 0
M  V30 3148 H 312.65 3.6561 -0.733721 0
M  V30 3149 N 314.835 0.952656 1.25548 0
M  V30 3150 C 315.783 0.462354 2.27958 0
M  V30 3151 C 316.777 -0.46634 1.62855 0
M  V30 3152 O 317.983 -0.343287 1.76696 0
M  V30 3153 H 314.358 0.13101 0.7405 0
M  V30 3154 H 316.329 1.33839 2.66702 0
M  V30 3155 C 315.078 -0.24628 3.46827 0
M  V30 3156 H 314.401 0.459192 3.97154 0
M  V30 3157 H 315.841 -0.553393 4.20373 0
M  V30 3158 C 314.3 -1.4681 3.0323 0
M  V30 3159 O 314.83 -2.56591 3.09069 0
M  V30 3160 N 313.036 -1.32874 2.58443 0
M  V30 3161 H 312.583 -0.435536 2.53891 0
M  V30 3162 H 312.541 -2.14742 2.29637 0
M  V30 3163 N 316.313 -1.40141 0.720998 0
M  V30 3164 C 317.243 -2.33339 0.0867621 0
M  V30 3165 C 318.224 -1.53178 -0.739622 0
M  V30 3166 O 319.409 -1.81625 -0.687449 0
M  V30 3167 C 316.539 -3.37194 -0.831728 0
M  V30 3168 C 315.493 -4.27857 -0.110558 0
M  V30 3169 C 314.819 -5.22294 -1.14513 0
M  V30 3170 C 316.119 -5.11872 1.0385 0
M  V30 3171 H 317.813 -2.86626 0.865219 0
M  V30 3172 H 315.359 -1.37814 0.417516 0
M  V30 3173 H 317.312 -4.01335 -1.28485 0
M  V30 3174 H 316.036 -2.82314 -1.64214 0
M  V30 3175 H 314.695 -3.65176 0.322797 0
M  V30 3176 H 314.343 -4.63717 -1.94874 0
M  V30 3177 H 314.043 -5.83797 -0.667446 0
M  V30 3178 H 315.567 -5.89312 -1.59824 0
M  V30 3179 H 316.981 -5.69436 0.664482 0
M  V30 3180 H 315.378 -5.82445 1.4449 0
M  V30 3181 H 316.448 -4.4753 1.86668 0
M  V30 3182 N 317.792 -0.46758 -1.50504 0
M  V30 3183 C 319.038 0.0887532 -2.02606 0
M  V30 3184 C 319.371 1.39686 -1.34913 0
M  V30 3185 O 318.646 1.88644 -0.473694 0
M  V30 3186 C 318.929 0.276206 -3.59039 0
M  V30 3187 C 318.782 -1.05267 -4.37309 0
M  V30 3188 C 320.101 1.03235 -4.27821 0
M  V30 3189 H 317.22 0.0307814 -0.736357 0
M  V30 3190 H 319.862 -0.612485 -1.79857 0
M  V30 3191 H 318.012 0.8735 -3.78553 0
M  V30 3192 H 319.684 -1.68628 -4.29374 0
M  V30 3193 H 317.927 -1.65015 -4.01189 0
M  V30 3194 H 318.598 -0.875197 -5.45018 0
M  V30 3195 H 321.074 0.526111 -4.12761 0
M  V30 3196 H 319.95 1.1323 -5.37094 0
M  V30 3197 H 320.211 2.06806 -3.90748 0
M  V30 3198 N 319.27 1.56325 -0.20005 0
M  V30 3199 C 320.516 1.98012 0.438059 0
M  V30 3200 C 320.849 1.08702 1.60927 0
M  V30 3201 O 320.124 0.140064 1.93995 0
M  V30 3202 C 320.407 3.48841 0.893419 0
M  V30 3203 C 320.26 4.48928 -0.279947 0
M  V30 3204 C 321.579 4.03498 1.75719 0
M  V30 3205 H 318.698 0.719918 0.157757 0
M  V30 3206 H 321.34 1.87743 -0.291968 0
M  V30 3207 H 319.49 3.57723 1.51547 0
M  V30 3208 H 321.162 4.52079 -0.91772 0
M  V30 3209 H 319.405 4.23694 -0.930919 0
M  V30 3210 H 320.076 5.5194 0.0812601 0
M  V30 3211 H 322.552 3.97427 1.23253 0
M  V30 3212 H 321.428 5.09393 2.04476 0
M  V30 3213 H 321.689 3.4906 2.71311 0
M  V30 3214 N 320.748 -0.0735177 1.57428 0
M  V30 3215 C 321.978 -0.78483 1.91112 0
M  V30 3216 C 322.386 -1.71729 0.7941 0
M  V30 3217 O 321.729 -1.82105 -0.241542 0
M  V30 3218 C 321.791 -1.63346 3.20247 0
M  V30 3219 C 321.455 -0.870557 4.48632 0
M  V30 3220 C 322.452 -0.19058 5.19551 0
M  V30 3221 C 320.137 -0.838242 4.95256 0
M  V30 3222 C 322.131 0.511503 6.35344 0
M  V30 3223 C 319.818 -0.132386 6.10957 0
M  V30 3224 C 320.816 0.541288 6.80852 0
M  V30 3225 O 320.504 1.23578 7.94345 0
M  V30 3226 H 320.236 -0.228408 0.636244 0
M  V30 3227 H 322.79 -0.0486039 2.05342 0
M  V30 3228 H 321.02 -2.41245 3.02222 0
M  V30 3229 H 322.709 -2.22329 3.39595 0
M  V30 3230 H 323.475 -0.206864 4.84559 0
M  V30 3231 H 319.354 -1.35206 4.40727 0
M  V30 3232 H 322.898 1.03789 6.89836 0
M  V30 3233 H 318.795 -0.114023 6.45399 0
M  V30 3234 H 319.563 1.14487 8.10454 0
M  V30 3235 N 322.226 -1.5378 -0.344866 0
M  V30 3236 C 323.156 -1.84662 -1.42906 0
M  V30 3237 C 324.137 -0.701648 -1.54955 0
M  V30 3238 O 325.322 -0.953438 -1.69184 0
M  V30 3239 C 322.452 -2.05503 -2.79974 0
M  V30 3240 C 321.406 -3.21318 -2.82734 0
M  V30 3241 C 320.732 -3.2749 -4.22675 0
M  V30 3242 C 322.032 -4.59456 -2.48389 0
M  V30 3243 H 323.726 -2.75461 -1.17311 0
M  V30 3244 H 321.272 -1.32542 -0.562896 0
M  V30 3245 H 323.225 -2.25691 -3.55867 0
M  V30 3246 H 321.949 -1.11434 -3.07002 0
M  V30 3247 H 320.608 -3.00984 -2.09294 0
M  V30 3248 H 320.256 -2.31019 -4.4681 0
M  V30 3249 H 319.956 -4.05316 -4.25433 0
M  V30 3250 H 321.48 -3.49887 -5.00412 0
M  V30 3251 H 322.894 -4.79667 -3.13995 0
M  V30 3252 H 321.291 -5.39675 -2.62432 0
M  V30 3253 H 322.361 -4.63155 -1.4358 0
M  V30 3254 N 323.704 0.605807 -1.45491 0
M  V30 3255 C 324.667 1.69836 -1.5391 0
M  V30 3256 C 325.667 1.55261 -0.418424 0
M  V30 3257 O 326.857 1.60296 -0.681965 0
M  V30 3258 C 323.989 3.09117 -1.43734 0
M  V30 3259 H 325.182 1.63738 -2.51257 0
M  V30 3260 H 322.735 0.821689 -1.32959 0
M  V30 3261 H 323.47 3.20791 -0.475788 0
M  V30 3262 H 323.255 3.21104 -2.25021 0
M  V30 3263 H 324.745 3.88696 -1.52661 0
M  V30 3264 N 325.182 1.32811 0.848464 0
M  V30 3265 C 326.407 1.26882 1.6406 0
M  V30 3266 C 326.832 -0.15913 1.87426 0
M  V30 3267 O 326.19 -1.11258 1.43148 0
M  V30 3268 C 326.238 2.03997 2.97351 0
M  V30 3269 O 325.342 1.39201 3.88197 0
M  V30 3270 H 324.683 0.436982 0.499943 0
M  V30 3271 H 327.213 1.75224 1.0563 0
M  V30 3272 H 327.223 2.14403 3.47124 0
M  V30 3273 H 325.898 3.0783 2.79666 0
M  V30 3274 H 324.475 1.37381 3.46671 0
M  V30 3275 N 326.66 -1.06551 1.16123 0
M  V30 3276 C 327.937 -1.76097 0.85142 0
M  V30 3277 C 328.317 -2.00802 -0.6513 0
M  V30 3278 O 327.665 -1.63302 -1.59827 0
M  V30 3279 C 327.875 -3.06384 1.67122 0
M  V30 3280 C 329.223 -3.80585 1.88255 0
M  V30 3281 O 330.247 -3.16218 1.63966 0
M  V30 3282 O 329.106 -4.96212 2.2899 0
M  V30 3283 H 326.2 -0.765102 0.313923 0
M  V30 3284 H 328.746 -1.12844 1.26745 0
M  V30 3285 H 327.518 -2.84071 2.69108 0
M  V30 3286 H 327.141 -3.77371 1.25206 0
M  V30 3287 N 328.138 -0.959301 -1.25041 0
M  V30 3288 C 329.048 -0.489994 -2.29426 0
M  V30 3289 C 330.064 0.444944 -1.68215 0
M  V30 3290 O 331.24 0.320046 -1.98841 0
M  V30 3291 C 328.305 0.220309 -3.45999 0
M  V30 3292 C 327.366 -0.753418 -4.22637 0
M  V30 3293 C 326.599 -0.076918 -5.33645 0
M  V30 3294 O 326.822 1.13649 -5.58963 0
M  V30 3295 O 325.756 -0.764824 -5.97021 0
M  V30 3296 H 329.582 -1.35755 -2.71669 0
M  V30 3297 H 327.167 -0.725961 -1.30576 0
M  V30 3298 H 329.049 0.619677 -4.16819 0
M  V30 3299 H 327.724 1.06296 -3.0575 0
M  V30 3300 H 326.631 -1.20308 -3.54227 0
M  V30 3301 H 327.964 -1.56423 -4.66683 0
M  V30 3302 N 329.616 1.39756 -0.72842 0
M  V30 3303 C 330.841 2.05472 -0.282159 0
M  V30 3304 C 331.266 1.54549 1.07221 0
M  V30 3305 O 330.624 0.686372 1.67805 0
M  V30 3306 C 330.672 3.59462 -0.286264 0
M  V30 3307 O 329.776 4.05918 0.728298 0
M  V30 3308 H 329.117 0.651226 -0.129618 0
M  V30 3309 H 331.647 1.78915 -0.992499 0
M  V30 3310 H 331.657 4.07798 -0.128373 0
M  V30 3311 H 330.332 3.95889 -1.27456 0
M  V30 3312 H 328.909 3.69012 0.537081 0
M  V30 3313 N 331.094 0.475555 1.50254 0
M  V30 3314 C 332.319 -0.0777042 2.07254 0
M  V30 3315 C 332.744 -1.3235 1.3366 0
M  V30 3316 O 332.102 -1.77152 0.385597 0
M  V30 3317 C 332.15 -0.340169 3.58992 0
M  V30 3318 O 331.254 -1.41982 3.87188 0
M  V30 3319 H 330.595 0.0149556 0.663832 0
M  V30 3320 H 333.125 0.667878 1.93392 0
M  V30 3321 H 333.135 -0.579332 4.03866 0
M  V30 3322 H 331.81 0.570167 4.11973 0
M  V30 3323 H 330.387 -1.16762 3.54148 0
M  V30 3324 N 332.573 -1.56217 0.208337 0
M  V30 3325 C 333.803 -2.02043 -0.431523 0
M  V30 3326 C 334.211 -1.08755 -1.54819 0
M  V30 3327 O 333.554 -0.0870009 -1.83494 0
M  V30 3328 C 333.616 -3.44239 -1.03633 0
M  V30 3329 C 333.28 -4.56965 -0.0567502 0
M  V30 3330 C 334.277 -5.14624 0.738773 0
M  V30 3331 C 331.962 -5.02266 0.0581736 0
M  V30 3332 C 333.956 -6.16045 1.63605 0
M  V30 3333 C 331.643 -6.03528 0.959001 0
M  V30 3334 C 332.641 -6.60293 1.7465 0
M  V30 3335 O 332.329 -7.59586 2.6322 0
M  V30 3336 H 332.061 -0.666772 -0.111313 0
M  V30 3337 H 334.615 -2.02919 0.318277 0
M  V30 3338 H 332.845 -3.40391 -1.83497 0
M  V30 3339 H 334.534 -3.73793 -1.58221 0
M  V30 3340 H 335.3 -4.80483 0.660364 0
M  V30 3341 H 331.179 -4.57771 -0.544633 0
M  V30 3342 H 334.723 -6.60279 2.25116 0
M  V30 3343 H 330.62 -6.37092 1.03848 0
M  V30 3344 H 331.388 -7.77057 2.57148 0
M  V30 3345 N 334.051 0.0651679 -1.57465 0
M  V30 3346 C 335.276 0.779605 -1.9219 0
M  V30 3347 C 335.701 1.69988 -0.805333 0
M  V30 3348 O 335.059 1.79685 0.241435 0
M  V30 3349 C 335.107 1.54364 -3.2589 0
M  V30 3350 O 334.211 2.65474 -3.1559 0
M  V30 3351 H 333.552 0.212249 -0.629163 0
M  V30 3352 H 336.082 0.0314294 -2.04576 0
M  V30 3353 H 336.092 1.92146 -3.59922 0
M  V30 3354 H 334.767 0.868457 -4.06732 0
M  V30 3355 H 333.344 2.30501 -2.93128 0
M  V30 3356 N 335.529 1.53961 0.336706 0
M  V30 3357 C 336.757 1.75483 1.09605 0
M  V30 3358 C 337.172 0.4972 1.82136 0
M  V30 3359 O 336.529 -0.53149 1.74589 0
M  V30 3360 C 336.58 2.93943 2.10428 0
M  V30 3361 O 336.301 4.14842 1.40846 0
M  V30 3362 C 337.802 3.27571 2.98684 0
M  V30 3363 H 335.022 0.586166 0.326574 0
M  V30 3364 H 337.566 2.00808 0.38683 0
M  V30 3365 H 335.721 2.70929 2.76905 0
M  V30 3366 H 336.135 4.81383 2.08255 0
M  V30 3367 H 337.609 4.13791 3.6535 0
M  V30 3368 H 338.086 2.44168 3.65074 0
M  V30 3369 H 338.692 3.52615 2.37787 0
M  V30 3370 N 337.007 -0.598083 1.45811 0
M  V30 3371 C 338.255 -1.35413 1.50026 0
M  V30 3372 C 338.576 -1.94444 0.147177 0
M  V30 3373 O 337.846 -1.77701 -0.824571 0
M  V30 3374 H 336.426 -0.502727 0.552517 0
M  V30 3375 H 339.088 -0.701606 1.81834 0
M  V30 3376 H 338.184 -2.16871 2.2444 0
M  V30 3377 N 338.485 -1.33259 -0.841409 0
M  V30 3378 C 339.448 -1.23221 -1.9326 0
M  V30 3379 C 340.448 -0.151895 -1.60081 0
M  V30 3380 O 341.638 -0.403246 -1.69468 0
M  V30 3381 C 338.77 -0.898123 -3.28856 0
M  V30 3382 H 339.963 -2.2021 -2.03587 0
M  V30 3383 H 337.516 -1.17281 -1.03319 0
M  V30 3384 H 338.251 0.0693841 -3.24226 0
M  V30 3385 H 338.036 -1.67934 -3.54317 0
M  V30 3386 H 339.526 -0.852563 -4.08805 0
M  V30 3387 N 339.963 1.05934 -1.16686 0
M  V30 3388 C 340.873 2.17014 -0.891183 0
M  V30 3389 C 341.889 1.73453 0.137907 0
M  V30 3390 O 343.065 2.01361 -0.039592 0
M  V30 3391 C 340.13 3.44384 -0.400099 0
M  V30 3392 C 339.191 4.02433 -1.49486 0
M  V30 3393 C 338.424 5.23723 -1.02711 0
M  V30 3394 O 338.647 5.7027 0.121716 0
M  V30 3395 O 337.581 5.7382 -1.81699 0
M  V30 3396 H 341.407 2.43113 -1.82015 0
M  V30 3397 H 338.992 1.15541 -0.947132 0
M  V30 3398 H 340.874 4.21189 -0.133392 0
M  V30 3399 H 339.549 3.19802 0.500817 0
M  V30 3400 H 338.456 3.27102 -1.81535 0
M  V30 3401 H 339.789 4.31317 -2.37121 0
M  V30 3402 N 341.441 0.965919 1.2453 0
M  V30 3403 C 342.688 0.626831 1.92554 0
M  V30 3404 C 343.016 -0.837739 1.75534 0
M  V30 3405 O 342.271 -1.61793 1.10098 0
M  V30 3406 C 342.57 0.945428 3.44669 0
M  V30 3407 C 342.236 2.39785 3.81856 0
M  V30 3408 C 340.898 2.79483 3.91718 0
M  V30 3409 C 343.25 3.34055 4.00071 0
M  V30 3410 C 340.578 4.12496 4.1721 0
M  V30 3411 C 342.93 4.66694 4.27059 0
M  V30 3412 C 341.594 5.06172 4.3514 0
M  V30 3413 H 340.864 0.229374 0.704605 0
M  V30 3414 H 343.511 1.21707 1.4785 0
M  V30 3415 H 341.816 0.272926 3.90848 0
M  V30 3416 H 343.513 0.661484 3.95507 0
M  V30 3417 H 340.103 2.08003 3.74743 0
M  V30 3418 H 344.287 3.04571 3.91855 0
M  V30 3419 H 339.543 4.42709 4.21685 0
M  V30 3420 H 343.717 5.3971 4.40097 0
M  V30 3421 H 341.344 6.09262 4.54646 0
M  V30 3422 N 342.919 -1.39368 0.735821 0
M  V30 3423 C 344.165 -2.00794 0.284544 0
M  V30 3424 C 344.498 -1.58255 -1.12557 0
M  V30 3425 O 343.773 -0.811819 -1.76748 0
M  V30 3426 C 344.056 -3.58011 0.387337 0
M  V30 3427 C 343.909 -4.10566 1.83728 0
M  V30 3428 C 345.228 -4.395 -0.22975 0
M  V30 3429 H 342.347 -0.729501 0.104866 0
M  V30 3430 H 344.989 -1.65564 0.93213 0
M  V30 3431 H 343.139 -3.88154 -0.164006 0
M  V30 3432 H 344.811 -3.91139 2.44556 0
M  V30 3433 H 343.054 -3.64095 2.35833 0
M  V30 3434 H 343.725 -5.19702 1.86047 0
M  V30 3435 H 346.201 -4.15406 0.240257 0
M  V30 3436 H 345.077 -5.48752 -0.127485 0
M  V30 3437 H 345.338 -4.22062 -1.3159 0
M  V30 3438 N 344.397 -0.483516 -1.5 0
M  V30 3439 C 345.643 0.0672592 -2.02688 0
M  V30 3440 C 345.976 1.38247 -1.36387 0
M  V30 3441 O 345.251 1.88131 -0.493675 0
M  V30 3442 C 345.534 0.238109 -3.59312 0
M  V30 3443 C 345.387 -1.099 -4.36168 0
M  V30 3444 C 346.706 0.986916 -4.28892 0
M  V30 3445 H 343.825 0.0229696 -0.736642 0
M  V30 3446 H 346.467 -0.631527 -1.79197 0
M  V30 3447 H 344.617 0.8333 -3.79458 0
M  V30 3448 H 346.289 -1.73172 -4.27562 0
M  V30 3449 H 344.532 -1.69261 -3.99416 0
M  V30 3450 H 345.203 -0.932954 -5.44059 0
M  V30 3451 H 347.679 0.482302 -4.13295 0
M  V30 3452 H 346.555 1.07527 -5.38265 0
M  V30 3453 H 346.816 2.0265 -3.92919 0
M  V30 3454 N 345.875 1.56104 -0.216619 0
M  V30 3455 C 347.152 1.89988 0.465165 0
M  V30 3456 C 347.532 1.13326 1.78102 0
M  V30 3457 O 346.88 0.241033 2.27225 0
M  V30 3458 C 347.09 3.42646 0.662939 0
M  V30 3459 C 348.438 4.13311 0.972602 0
M  V30 3460 O 349.462 3.48217 0.749901 0
M  V30 3461 O 348.321 5.28396 1.39499 0
M  V30 3462 H 345.415 0.78979 0.245276 0
M  V30 3463 H 347.961 1.67721 -0.258436 0
M  V30 3464 H 346.733 3.90399 -0.26543 0
M  V30 3465 H 346.356 3.70677 1.43821 0
M  V30 3466 N 347.353 -0.0568162 1.57498 0
M  V30 3467 C 348.601 -0.751617 1.87604 0
M  V30 3468 C 348.922 -1.77351 0.81066 0
M  V30 3469 O 348.192 -1.95254 -0.159018 0
M  V30 3470 H 346.772 -0.280583 0.692302 0
M  V30 3471 H 349.434 -0.0293483 1.94878 0
M  V30 3472 H 348.53 -1.25852 2.856 0
M  V30 3473 N 348.832 -1.54138 -0.328536 0
M  V30 3474 C 350.08 -1.71765 -1.06496 0
M  V30 3475 C 350.401 -0.49149 -1.88704 0
M  V30 3476 O 349.671 0.494539 -1.89555 0
M  V30 3477 H 348.251 -0.633295 -0.396164 0
M  V30 3478 H 350.913 -1.91429 -0.366176 0
M  V30 3479 H 350.009 -2.5951 -1.73381 0
M  V30 3480 N 350.31 0.590341 -1.46126 0
M  V30 3481 C 351.538 1.37504 -1.54597 0
M  V30 3482 C 351.953 1.87897 -0.184447 0
M  V30 3483 O 351.31 1.63192 0.816984 0
M  V30 3484 C 351.361 2.56779 -2.54454 0
M  V30 3485 O 351.082 2.08476 -3.85317 0
M  V30 3486 C 352.583 3.49427 -2.72792 0
M  V30 3487 H 349.803 0.420325 -0.523037 0
M  V30 3488 H 352.347 0.718383 -1.91467 0
M  V30 3489 H 350.502 3.1845 -2.20609 0
M  V30 3490 H 350.916 2.86097 -4.396 0
M  V30 3491 H 352.39 4.29619 -3.466 0
M  V30 3492 H 352.867 4.00876 -1.79429 0
M  V30 3493 H 353.473 2.93598 -3.07702 0
M  V30 3494 N 351.788 1.33704 0.83433 0
M  V30 3495 C 353.034 1.25603 1.59222 0
M  V30 3496 C 353.367 -0.176659 1.93395 0
M  V30 3497 O 352.642 -1.11915 1.59076 0
M  V30 3498 C 352.925 2.13576 2.89926 0
M  V30 3499 C 352.778 3.65326 2.62406 0
M  V30 3500 C 354.097 2.01238 3.91397 0
M  V30 3501 H 351.216 0.457613 0.577719 0
M  V30 3502 H 353.858 1.63848 0.961972 0
M  V30 3503 H 352.008 1.8109 3.43713 0
M  V30 3504 H 353.68 4.08124 2.15017 0
M  V30 3505 H 351.923 3.8698 1.96033 0
M  V30 3506 H 352.594 4.22232 3.55562 0
M  V30 3507 H 355.07 2.29738 3.46929 0
M  V30 3508 H 353.946 2.65036 4.80673 0
M  V30 3509 H 354.207 0.985951 4.30966 0
M  V30 3510 N 353.266 -1.05314 1.17247 0
M  V30 3511 C 354.229 -2.112 0.890357 0
M  V30 3512 C 355.229 -1.60359 -0.118943 0
M  V30 3513 O 356.419 -1.73833 0.113086 0
M  V30 3514 C 353.551 -3.39266 0.333422 0
M  V30 3515 H 354.744 -2.37659 1.82916 0
M  V30 3516 H 352.297 -1.21538 0.982758 0
M  V30 3517 H 353.032 -3.18462 -0.612587 0
M  V30 3518 H 352.817 -3.77477 1.06082 0
M  V30 3519 H 354.307 -4.17315 0.154322 0
M  V30 3520 N 354.744 -0.972509 -1.24016 0
M  V30 3521 C 355.992 -0.635776 -1.91839 0
M  V30 3522 C 356.313 0.832312 -1.76345 0
M  V30 3523 O 355.583 1.5946 -1.13795 0
M  V30 3524 H 354.163 -0.232157 -0.710009 0
M  V30 3525 H 356.825 -1.23462 -1.50809 0
M  V30 3526 H 355.921 -0.880545 -2.99421 0
M  V30 3527 N 356.222 1.38976 -0.743202 0
M  V30 3528 C 357.152 2.33171 -0.123873 0
M  V30 3529 C 358.133 1.54336 0.71516 0
M  V30 3530 O 359.318 1.82696 0.658467 0
M  V30 3531 C 356.448 3.38474 0.777978 0
M  V30 3532 C 355.402 4.27979 0.0424758 0
M  V30 3533 C 354.728 5.2405 1.06189 0
M  V30 3534 C 356.028 5.10155 -1.1198 0
M  V30 3535 H 357.722 2.85213 -0.910709 0
M  V30 3536 H 355.268 1.37133 -0.439388 0
M  V30 3537 H 357.221 4.03328 1.22084 0
M  V30 3538 H 355.945 2.84891 1.59702 0
M  V30 3539 H 354.604 3.64616 -0.380853 0
M  V30 3540 H 354.252 4.66758 1.87472 0
M  V30 3541 H 353.952 5.84785 0.574485 0
M  V30 3542 H 355.476 5.9178 1.50428 0
M  V30 3543 H 356.89 5.68307 -0.75499 0
M  V30 3544 H 355.287 5.80073 -1.53738 0
M  V30 3545 H 356.357 4.44504 -1.93764 0
M  V30 3546 N 357.7 0.491464 1.49741 0
M  V30 3547 C 358.663 -0.280906 2.27472 0
M  V30 3548 C 359.663 -0.902454 1.33088 0
M  V30 3549 O 360.853 -0.768465 1.56334 0
M  V30 3550 C 357.985 -1.40209 3.10732 0
M  V30 3551 H 359.178 0.401056 2.97206 0
M  V30 3552 H 356.731 0.246131 1.5435 0
M  V30 3553 H 357.466 -2.11849 2.45541 0
M  V30 3554 H 357.251 -0.961969 3.80117 0
M  V30 3555 H 358.741 -1.9464 3.69466 0
M  V30 3556 N 359.178 -1.55987 0.224894 0
M  V30 3557 C 360.128 -2.17076 -0.697296 0
M  V30 3558 C 361.112 -1.12006 -1.15514 0
M  V30 3559 O 362.304 -1.37985 -1.10857 0
M  V30 3560 C 359.433 -2.85679 -1.90374 0
M  V30 3561 C 358.519 -3.97977 -1.46543 0
M  V30 3562 N 358.91 -5.00359 -0.739909 0
M  V30 3563 C 357.208 -4.10128 -1.75245 0
M  V30 3564 C 357.909 -5.79407 -0.515939 0
M  V30 3565 N 356.885 -5.32892 -1.07364 0
M  V30 3566 H 360.687 -2.93592 -0.134594 0
M  V30 3567 H 358.201 -1.62379 0.0262885 0
M  V30 3568 H 360.198 -3.27857 -2.57518 0
M  V30 3569 H 358.858 -2.1066 -2.47088 0
M  V30 3570 H 359.869 -5.16412 -0.392253 0
M  V30 3571 H 356.546 -3.46263 -2.33255 0
M  V30 3572 H 357.936 -6.71872 0.0617349 0
M  V30 3573 N 360.656 0.0484629 -1.57525 0
M  V30 3574 C 361.604 1.07359 -2.06341 0
M  V30 3575 C 362.598 1.3865 -0.973269 0
M  V30 3576 O 363.804 1.37783 -1.15827 0
M  V30 3577 H 360.179 0.363662 -0.65822 0
M  V30 3578 H 362.15 0.635916 -2.91545 0
M  V30 3579 C 360.899 2.37198 -2.54229 0
M  V30 3580 H 360.222 2.13977 -3.37719 0
M  V30 3581 H 361.662 3.07319 -2.92115 0
M  V30 3582 C 360.121 3.04805 -1.43511 0
M  V30 3583 O 360.651 3.93848 -0.79034 0
M  V30 3584 N 358.857 2.65811 -1.17444 0
M  V30 3585 H 358.404 1.93488 -1.70059 0
M  V30 3586 H 358.362 3.11366 -0.435737 0
M  V30 3587 N 362.134 1.5431 0.320358 0
M  V30 3588 C 363.411 1.63322 1.07635 0
M  V30 3589 C 363.791 0.46912 2.05821 0
M  V30 3590 O 363.139 -0.536274 2.22118 0
M  V30 3591 C 363.349 3.00465 1.77544 0
M  V30 3592 C 364.697 3.56621 2.30449 0
M  V30 3593 O 365.721 3.02791 1.87606 0
M  V30 3594 O 364.58 4.5083 3.08892 0
M  V30 3595 H 361.674 0.661502 0.496331 0
M  V30 3596 H 364.22 1.66656 0.319992 0
M  V30 3597 H 362.992 3.76629 1.06143 0
M  V30 3598 H 362.615 3.00824 2.59982 0
M  V30 3599 N 363.613 -0.582584 1.46437 0
M  V30 3600 C 364.86 -1.34079 1.51753 0
M  V30 3601 C 365.188 -1.93762 0.169299 0
M  V30 3602 O 364.443 -1.76989 -0.835062 0
M  V30 3603 C 364.742 -2.48964 2.56421 0
M  V30 3604 C 364.408 -2.07273 4.00436 0
M  V30 3605 C 363.07 -1.95618 4.39644 0
M  V30 3606 C 365.422 -1.75111 4.90903 0
M  V30 3607 C 362.75 -1.5006 5.67185 0
M  V30 3608 C 365.102 -1.31032 6.18881 0
M  V30 3609 C 363.766 -1.17954 6.56996 0
M  V30 3610 H 363.036 -0.49063 0.555304 0
M  V30 3611 H 365.683 -0.656007 1.79913 0
M  V30 3612 H 363.988 -3.22889 2.21923 0
M  V30 3613 H 365.685 -3.07178 2.57765 0
M  V30 3614 H 362.275 -2.17279 3.69443 0
M  V30 3615 H 366.459 -1.83001 4.61329 0
M  V30 3616 H 361.715 -1.38577 5.95488 0
M  V30 3617 H 365.889 -1.052 6.88408 0
M  V30 3618 H 363.516 -0.824279 7.55718 0
M  V30 3619 N 365.091 -1.34144 -0.827227 0
M  V30 3620 C 366.339 -1.26009 -1.58007 0
M  V30 3621 C 366.66 0.170971 -1.94249 0
M  V30 3622 O 365.93 1.10256 -1.61927 0
M  V30 3623 H 364.51 -0.463414 -0.585881 0
M  V30 3624 H 367.172 -1.68005 -0.987951 0
M  V30 3625 H 366.268 -1.86187 -2.50481 0
M  V30 3626 N 366.569 1.04691 -1.17803 0
M  V30 3627 C 367.532 2.10724 -0.901545 0
M  V30 3628 C 368.532 1.6042 0.110437 0
M  V30 3629 O 369.722 1.7377 -0.122303 0
M  V30 3630 C 366.854 3.39084 -0.351409 0
M  V30 3631 H 368.047 2.36686 -1.84174 0
M  V30 3632 H 365.6 1.21015 -0.98919 0
M  V30 3633 H 366.335 3.18782 0.59569 0
M  V30 3634 H 366.12 3.76909 -1.08083 0
M  V30 3635 H 367.61 4.17227 -0.176451 0
M  V30 3636 N 368.047 0.979072 1.23499 0
M  V30 3637 C 369.293 0.648178 1.92163 0
M  V30 3638 C 369.626 -0.816049 1.76222 0
M  V30 3639 O 368.901 -1.58849 1.12237 0
M  V30 3640 C 369.184 1.03773 3.44824 0
M  V30 3641 C 369.037 2.55948 3.69879 0
M  V30 3642 C 370.356 0.580653 4.36253 0
M  V30 3643 H 367.475 0.236952 0.69787 0
M  V30 3644 H 370.117 1.22012 1.45647 0
M  V30 3645 H 368.267 0.551058 3.84572 0
M  V30 3646 H 369.939 3.12179 3.3962 0
M  V30 3647 H 368.182 2.98641 3.14636 0
M  V30 3648 H 368.853 2.78255 4.76737 0
M  V30 3649 H 371.329 0.998465 4.03943 0
M  V30 3650 H 370.205 0.881663 5.41773 0
M  V30 3651 H 370.466 -0.519052 4.39042 0
M  V30 3652 N 369.525 -1.3858 0.750561 0
M  V30 3653 C 370.435 -2.34278 0.122825 0
M  V30 3654 C 371.451 -1.59116 -0.704131 0
M  V30 3655 O 372.627 -1.91326 -0.628987 0
M  V30 3656 C 369.692 -3.38221 -0.762086 0
M  V30 3657 C 368.753 -4.29227 0.078896 0
M  V30 3658 C 367.986 -5.28205 -0.763874 0
M  V30 3659 O 368.209 -5.34112 -2.00201 0
M  V30 3660 O 367.143 -6.01618 -0.18428 0
M  V30 3661 H 370.969 -2.89649 0.913088 0
M  V30 3662 H 368.554 -1.40374 0.511417 0
M  V30 3663 H 370.436 -4.01872 -1.26793 0
M  V30 3664 H 369.111 -2.85211 -1.5309 0
M  V30 3665 H 368.018 -3.68747 0.630621 0
M  V30 3666 H 369.351 -4.85484 0.810289 0
M  V30 3667 N 371.003 -0.499398 -1.49478 0
M  V30 3668 C 372.249 0.0457576 -2.02748 0
M  V30 3669 C 372.582 1.36793 -1.37846 0
M  V30 3670 O 371.857 1.87596 -0.513601 0
M  V30 3671 C 372.14 0.199986 -3.59544 0
M  V30 3672 C 371.993 -1.1452 -4.34977 0
M  V30 3673 C 373.312 0.94137 -4.29914 0
M  V30 3674 H 370.431 0.0151552 -0.736844 0
M  V30 3675 H 373.073 -0.650498 -1.78518 0
M  V30 3676 H 371.223 0.793007 -3.8032 0
M  V30 3677 H 372.895 -1.77697 -4.25701 0
M  V30 3678 H 371.138 -1.73488 -3.97598 0
M  V30 3679 H 371.809 -0.990607 -5.43039 0
M  V30 3680 H 374.285 0.43844 -4.13784 0
M  V30 3681 H 373.161 1.01812 -5.39375 0
M  V30 3682 H 373.422 1.98471 -3.95046 0
M  V30 3683 N 372.481 1.55866 -0.233164 0
M  V30 3684 C 373.706 2.03449 0.402906 0
M  V30 3685 C 374.131 1.11166 1.51736 0
M  V30 3686 O 373.489 0.101996 1.81013 0
M  V30 3687 C 373.537 3.49165 0.9009 0
M  V30 3688 O 372.641 3.60019 2.01147 0
M  V30 3689 H 371.982 0.657913 0.0897025 0
M  V30 3690 H 374.512 2.01493 -0.355201 0
M  V30 3691 H 374.522 3.89716 1.2077 0
M  V30 3692 H 373.197 4.15813 0.0852889 0
M  V30 3693 H 371.774 3.3136 1.71042 0
M  V30 3694 N 373.959 -0.0401083 1.57549 0
M  V30 3695 C 375.184 -0.748931 1.93406 0
M  V30 3696 C 375.609 -1.68686 0.832274 0
M  V30 3697 O 374.967 -1.80047 -0.212818 0
M  V30 3698 C 375.015 -1.4916 3.28304 0
M  V30 3699 O 374.119 -2.6042 3.19774 0
M  V30 3700 H 373.46 -0.202212 0.63246 0
M  V30 3701 H 375.99 0.00112086 2.046 0
M  V30 3702 H 376 -1.86395 3.62934 0
M  V30 3703 H 374.675 -0.80364 4.08062 0
M  V30 3704 H 373.252 -2.25808 2.96758 0
M  V30 3705 N 375.437 -1.54477 -0.31217 0
M  V30 3706 C 376.369 -1.81011 -1.40598 0
M  V30 3707 C 377.382 -0.692546 -1.47335 0
M  V30 3708 O 378.571 -0.969847 -1.49854 0
M  V30 3709 C 375.671 -1.92307 -2.79054 0
M  V30 3710 C 374.844 -3.22594 -2.95384 0
M  V30 3711 C 373.903 -3.24448 -4.1427 0
M  V30 3712 O 372.929 -3.98035 -4.06887 0
M  V30 3713 N 374.131 -2.49042 -5.24365 0
M  V30 3714 H 376.896 -2.75408 -1.18196 0
M  V30 3715 H 374.457 -1.53914 -0.502202 0
M  V30 3716 H 376.449 -1.90962 -3.56813 0
M  V30 3717 H 375.019 -1.04955 -2.94454 0
M  V30 3718 H 374.239 -3.36806 -2.04831 0
M  V30 3719 H 375.527 -4.08593 -3.03198 0
M  V30 3720 H 374.925 -1.88867 -5.33241 0
M  V30 3721 H 373.482 -2.53463 -6.005 0
M  V30 3722 N 376.915 0.57481 -1.46744 0
M  V30 3723 C 378.326 1.15695 -1.46532 0
M  V30 3724 C 378.677 1.95068 -0.210425 0
M  V30 3725 O 377.802 2.05241 0.685944 0
M  V30 3726 C 378.397 2.1048 -2.65487 0
M  V30 3727 C 376.956 2.64002 -2.68291 0
M  V30 3728 C 376.103 1.40026 -2.39349 0
M  V30 3729 H 379.054 0.362325 -1.54509 0
M  V30 3730 H 379.075 2.94074 -2.41455 0
M  V30 3731 H 378.587 1.52683 -3.56805 0
M  V30 3732 H 376.688 3.25646 -1.81067 0
M  V30 3733 H 376.801 3.06197 -3.68483 0
M  V30 3734 H 375.165 1.70106 -1.89568 0
M  V30 3735 H 375.948 0.840485 -3.32852 0
M  V30 3736 N 378.394 1.34581 0.820102 0
M  V30 3737 C 379.304 1.28471 1.96297 0
M  V30 3738 C 380.32 0.191902 1.72939 0
M  V30 3739 O 381.496 0.418879 1.96996 0
M  V30 3740 C 378.561 1.04281 3.30645 0
M  V30 3741 C 377.622 2.22745 3.66992 0
M  V30 3742 C 376.855 1.997 4.9493 0
M  V30 3743 O 377.078 0.956656 5.6232 0
M  V30 3744 O 376.012 2.86723 5.2922 0
M  V30 3745 H 379.838 2.24624 2.04396 0
M  V30 3746 H 377.423 1.14816 0.955913 0
M  V30 3747 H 379.305 0.925841 4.11104 0
M  V30 3748 H 377.98 0.111697 3.23507 0
M  V30 3749 H 376.887 2.40003 2.86966 0
M  V30 3750 H 378.22 3.14257 3.78819 0
M  V30 3751 N 379.872 -1.04064 1.18357 0
M  V30 3752 C 381.118 -1.77658 0.990412 0
M  V30 3753 C 381.473 -1.86446 -0.474944 0
M  V30 3754 O 380.766 -1.36153 -1.34807 0
M  V30 3755 C 380.96 -3.20634 1.57888 0
M  V30 3756 C 380.789 -3.25782 3.09994 0
M  V30 3757 C 379.559 -3.34411 3.7881 0
M  V30 3758 C 381.757 -3.13791 4.0748 0
M  V30 3759 N 379.739 -3.28809 5.18418 0
M  V30 3760 C 381.11 -3.15689 5.33611 0
M  V30 3761 C 383.165 -2.97833 3.98998 0
M  V30 3762 C 381.868 -3.03268 6.52243 0
M  V30 3763 C 383.894 -2.86759 5.17227 0
M  V30 3764 C 383.256 -2.893 6.4225 0
M  V30 3765 H 379.355 -0.661901 0.416427 0
M  V30 3766 H 381.939 -1.23968 1.50133 0
M  V30 3767 H 380.11 -3.7267 1.09414 0
M  V30 3768 H 381.842 -3.82525 1.32124 0
M  V30 3769 H 378.597 -3.40144 3.29543 0
M  V30 3770 H 379.021 -3.29448 5.91433 0
M  V30 3771 H 383.663 -2.94698 3.03171 0
M  V30 3772 H 381.381 -3.05156 7.48268 0
M  V30 3773 H 384.967 -2.75465 5.12455 0
M  V30 3774 H 383.847 -2.80818 7.32196 0
M  V30 3775 N 381.35 -0.985608 -1.22978 0
M  V30 3776 C 382.596 -0.65836 -1.91816 0
M  V30 3777 C 382.929 0.806692 -1.76653 0
M  V30 3778 O 382.204 1.58252 -1.13078 0
M  V30 3779 C 382.487 -1.056 -3.44268 0
M  V30 3780 C 382.34 -2.57906 -3.68516 0
M  V30 3781 C 383.659 -0.603781 -4.35939 0
M  V30 3782 H 380.778 -0.24065 -0.696604 0
M  V30 3783 H 383.42 -1.22783 -1.44998 0
M  V30 3784 H 381.57 -0.571445 -3.84274 0
M  V30 3785 H 383.242 -3.13976 -3.3796 0
M  V30 3786 H 381.485 -3.00305 -3.13048 0
M  V30 3787 H 382.156 -2.80779 -4.75255 0
M  V30 3788 H 384.632 -1.01987 -4.03408 0
M  V30 3789 H 383.508 -0.910383 -5.41298 0
M  V30 3790 H 383.769 0.495761 -4.39312 0
M  V30 3791 N 382.828 1.3818 -0.7579 0
M  V30 3792 C 384.056 2.04301 -0.326937 0
M  V30 3793 C 384.471 1.57163 1.0462 0
M  V30 3794 O 383.828 0.746626 1.66529 0
M  V30 3795 C 383.879 3.59846 -0.345363 0
M  V30 3796 O 383.6 4.05256 -1.66432 0
M  V30 3797 C 385.101 4.4319 0.098927 0
M  V30 3798 H 382.321 0.656443 -0.139012 0
M  V30 3799 H 384.865 1.76786 -1.02796 0
M  V30 3800 H 383.02 3.86182 0.306955 0
M  V30 3801 H 383.434 4.99709 -1.59345 0
M  V30 3802 H 384.908 5.51989 0.0348745 0
M  V30 3803 H 385.385 4.23947 1.14741 0
M  V30 3804 H 385.991 4.22051 -0.52468 0
M  V30 3805 O 384.345 0.648902 1.4789 0
M  V30 3806 H 385.036 0.173089 1.92925 0
M  V30 END ATOM
M  V30 BEGIN BOND
M  V30 END BOND
M  V30 END CTAB
M  END
$$$$
