drugbank_target|O43175 D-3-phosphoglycerate dehydrogenase (DB00157)
 OpenBabel12092119253D

  0  0  0     0  0            999 V3000
M  V30 BEGIN CTAB
M  V30 COUNTS 8031 8094 0 0 0
M  V30 BEGIN ATOM
M  V30 1 H -0.908 1.98254 -0.117106 0
M  V30 2 N 0 1.576 0 0
M  V30 3 C 0.933 2.03868 1.02534 0
M  V30 4 C 1.911 0.928543 1.3348 0
M  V30 5 O 3.095 1.19667 1.45644 0
M  V30 6 C 0.222 2.43627 2.35294 0
M  V30 7 C -0.732 3.65373 2.2001 0
M  V30 8 S 0.101 5.13292 1.52614 0
M  V30 9 C 1.257 5.56322 2.86805 0
M  V30 10 H 1.49 2.90518 0.631377 0
M  V30 11 H -0.977 1.52953 0.210867 0
M  V30 12 H 0.981 2.67203 3.11629 0
M  V30 13 H -0.358 1.57376 2.7183 0
M  V30 14 H -1.165 3.90944 3.18086 0
M  V30 15 H -1.563 3.418 1.51819 0
M  V30 16 H 0.729 5.58782 3.83104 0
M  V30 17 H 1.672 6.56266 2.65933 0
M  V30 18 H 2.08 4.83886 2.90714 0
M  V30 19 N 1.4781 -0.272755 1.55222 0
M  V30 20 C 2.4411 -1.32041 1.87344 0
M  V30 21 C 3.4411 -1.42342 0.74803 0
M  V30 22 O 4.6311 -1.41488 1.0162 0
M  V30 23 C 1.7631 -2.70173 2.07893 0
M  V30 24 H 2.9561 -1.04789 2.80997 0
M  V30 25 H 0.5091 -0.51083 1.47717 0
M  V30 26 H 1.2441 -3.02605 1.16622 0
M  V30 27 H 1.0291 -2.64082 2.89833 0
M  V30 28 H 2.5191 -3.45869 2.34017 0
M  V30 29 N 2.9562 -1.48159 -0.537278 0
M  V30 30 C 4.2032 -1.55804 -1.29349 0
M  V30 31 C 4.5312 -0.228802 -1.9315 0
M  V30 32 O 3.7862 0.780242 -1.79473 0
M  V30 33 C 4.0852 -2.63956 -2.40961 0
M  V30 34 C 3.7512 -4.0662 -1.94861 0
M  V30 35 C 2.4132 -4.45452 -1.82006 0
M  V30 36 C 4.7652 -4.96055 -1.59933 0
M  V30 37 C 2.0932 -5.71531 -1.32547 0
M  V30 38 C 4.4452 -6.22617 -1.11939 0
M  V30 39 C 3.1092 -6.60312 -0.976951 0
M  V30 40 H 2.3792 -0.570129 -0.473322 0
M  V30 41 H 5.0262 -1.81845 -0.600372 0
M  V30 42 H 3.3312 -2.31747 -3.15912 0
M  V30 43 H 5.0282 -2.67089 -2.99107 0
M  V30 44 H 1.6182 -3.75949 -2.05815 0
M  V30 45 H 5.8022 -4.66738 -1.68728 0
M  V30 46 H 1.0582 -5.99468 -1.202 0
M  V30 47 H 5.2322 -6.91318 -0.839811 0
M  V30 48 H 2.8592 -7.57895 -0.591501 0
M  V30 49 N 4.4343 0.785586 -1.36625 0
M  V30 50 C 5.3973 1.87999 -1.31107 0
M  V30 51 C 6.3973 1.59316 -0.217959 0
M  V30 52 O 7.5873 1.67656 -0.472977 0
M  V30 53 C 4.7193 3.24861 -1.03334 0
M  V30 54 H 5.9123 1.94307 -2.2844 0
M  V30 55 H 3.4653 0.983813 -1.21453 0
M  V30 56 H 4.2003 3.24235 -0.0647432 0
M  V30 57 H 3.9853 3.4707 -1.82441 0
M  V30 58 H 5.4753 4.04929 -1.02088 0
M  V30 59 N 5.9124 1.20967 1.01018 0
M  V30 60 C 6.8604 0.961223 2.1181 0
M  V30 61 C 7.8544 -0.0897034 1.69162 0
M  V30 62 O 9.0604 0.0612271 1.79896 0
M  V30 63 H 5.4354 0.29355 0.692338 0
M  V30 64 H 7.4064 1.90178 2.29946 0
M  V30 65 C 6.1554 0.536854 3.4353 0
M  V30 66 H 5.4784 1.33713 3.76777 0
M  V30 67 H 6.9184 0.402286 4.22087 0
M  V30 68 C 5.3774 -0.751574 3.2841 0
M  V30 69 O 5.9074 -1.80841 3.58691 0
M  V30 70 N 4.1134 -0.716079 2.81639 0
M  V30 71 H 3.6604 0.144236 2.57196 0
M  V30 72 H 3.6184 -1.57847 2.71904 0
M  V30 73 N 7.3905 -1.2043 1.01659 0
M  V30 74 C 8.3205 -2.25466 0.607226 0
M  V30 75 C 9.3015 -1.65853 -0.377716 0
M  V30 76 O 10.4865 -1.92409 -0.263149 0
M  V30 77 C 7.6165 -3.47256 -0.0552949 0
M  V30 78 C 6.5705 -4.19462 0.850632 0
M  V30 79 C 5.8965 -5.34673 0.0538859 0
M  V30 80 C 7.1965 -4.75603 2.15868 0
M  V30 81 H 8.8905 -2.59962 1.48526 0
M  V30 82 H 6.4365 -1.2496 0.715605 0
M  V30 83 H 8.3895 -4.19917 -0.353233 0
M  V30 84 H 7.1135 -3.11924 -0.968045 0
M  V30 85 H 5.7725 -3.48667 1.13257 0
M  V30 86 H 5.4205 -4.95585 -0.860514 0
M  V30 87 H 5.1205 -5.83913 0.657192 0
M  V30 88 H 6.6445 -6.10138 -0.237598 0
M  V30 89 H 8.0585 -5.40083 1.92311 0
M  V30 90 H 6.4555 -5.3528 2.71284 0
M  V30 91 H 7.5255 -3.94346 2.82169 0
M  V30 92 N 8.8686 -0.792821 -1.36206 0
M  V30 93 C 10.2846 -0.474903 -1.52371 0
M  V30 94 C 10.4846 1.00622 -1.74578 0
M  V30 95 O 9.5406 1.79162 -1.77924 0
M  V30 96 C 10.8536 -1.3083 -2.70747 0
M  V30 97 C 12.4016 -1.30234 -2.84619 0
M  V30 98 C 12.8766 -2.11956 -4.06004 0
M  V30 99 N 14.3676 -2.09419 -4.13156 0
M  V30 100 C 15.1026 -2.69419 -5.06163 0
M  V30 101 N 14.5986 -3.3829 -6.04592 0
M  V30 102 N 16.3916 -2.59134 -4.98804 0
M  V30 103 H 8.5426 -1.75222 -1.20046 0
M  V30 104 H 10.8056 -0.745024 -0.586211 0
M  V30 105 H 10.5116 -2.35881 -2.6087 0
M  V30 106 H 10.3856 -0.95196 -3.6499 0
M  V30 107 H 12.7726 -0.259748 -2.93955 0
M  V30 108 H 12.8536 -1.69847 -1.91274 0
M  V30 109 H 12.4976 -3.16248 -3.97429 0
M  V30 110 H 12.4276 -1.69711 -4.98503 0
M  V30 111 H 14.9186 -1.59297 -3.42685 0
M  V30 112 H 15.2316 -3.81394 -6.7213 0
M  V30 113 H 13.5766 -3.42393 -6.04807 0
M  V30 114 H 16.7676 -2.04927 -4.20859 0
M  V30 115 H 16.9406 -3.06185 -5.711 0
M  V30 116 N 10.3467 1.47872 -0.545128 0
M  V30 117 C 11.2937 2.29849 0.2093 0
M  V30 118 C 12.2637 1.38313 0.919707 0
M  V30 119 O 13.4487 1.67277 0.917772 0
M  V30 120 C 10.5887 3.22019 1.24088 0
M  V30 121 C 9.7017 4.2864 0.537778 0
M  V30 122 C 8.8367 5.07973 1.5536 0
M  V30 123 C 7.8757 6.06381 0.8348 0
M  V30 124 N 7.0127 6.78717 1.79688 0
M  V30 125 H 11.8527 2.93845 -0.49591 0
M  V30 126 H 9.3897 1.44848 -0.256389 0
M  V30 127 H 11.3477 3.73868 1.85144 0
M  V30 128 H 9.9777 2.59914 1.91428 0
M  V30 129 H 9.0297 3.7994 -0.187046 0
M  V30 130 H 10.3417 4.98793 -0.0258907 0
M  V30 131 H 9.4957 5.63912 2.23803 0
M  V30 132 H 8.2347 4.37693 2.15118 0
M  V30 133 H 7.2397 5.49631 0.136388 0
M  V30 134 H 8.4647 6.78665 0.24313 0
M  V30 135 H 6.4107 6.11177 2.38326 0
M  V30 136 H 6.3277 7.44998 1.28505 0
M  V30 137 H 7.5957 7.39237 2.47282 0
M  V30 138 N 11.8248 0.280983 1.55075 0
M  V30 139 C 13.0708 -0.33461 2.00021 0
M  V30 140 C 13.4038 -1.55063 1.16915 0
M  V30 141 O 12.6788 -1.93006 0.240646 0
M  V30 142 C 12.9618 -0.711007 3.53011 0
M  V30 143 C 12.8148 0.512766 4.46868 0
M  V30 144 C 14.1338 -1.54522 4.12081 0
M  V30 145 H 11.2528 -0.120147 0.727141 0
M  V30 146 H 13.8948 0.389097 1.85973 0
M  V30 147 H 12.0448 -1.32761 3.65112 0
M  V30 148 H 13.7168 1.15131 4.46702 0
M  V30 149 H 11.9598 1.14975 4.18286 0
M  V30 150 H 12.6308 0.205556 5.51617 0
M  V30 151 H 15.1068 -1.02442 4.03293 0
M  V30 152 H 13.9828 -1.77739 5.19327 0
M  V30 153 H 14.2438 -2.52813 3.62682 0
M  V30 154 N 13.3029 -1.57598 0.00835791 0
M  V30 155 C 14.2329 -2.1198 -0.979113 0
M  V30 156 C 15.2139 -1.03091 -1.35301 0
M  V30 157 O 16.3989 -1.30818 -1.43528 0
M  V30 158 C 13.5289 -2.62995 -2.26828 0
M  V30 159 C 12.4829 -3.76485 -2.03576 0
M  V30 160 C 11.8089 -4.13846 -3.38579 0
M  V30 161 C 13.1089 -5.0342 -1.39161 0
M  V30 162 H 14.8029 -2.94738 -0.526281 0
M  V30 163 H 12.3489 -1.41783 -0.251704 0
M  V30 164 H 14.3019 -2.99669 -2.96271 0
M  V30 165 H 13.0259 -1.7737 -2.7424 0
M  V30 166 H 11.6849 -3.40217 -1.36557 0
M  V30 167 H 11.3329 -3.25232 -3.83709 0
M  V30 168 H 11.0329 -4.90312 -3.23834 0
M  V30 169 H 12.5569 -4.53086 -4.09323 0
M  V30 170 H 13.9709 -5.37812 -1.98573 0
M  V30 171 H 12.3679 -5.84746 -1.34878 0
M  V30 172 H 13.4379 -4.83548 -0.361868 0
M  V30 173 N 14.781 0.264519 -1.55364 0
M  V30 174 C 16.03 0.992812 -1.75574 0
M  V30 175 C 16.343 1.87142 -0.568979 0
M  V30 176 O 17.549 2.63513 -0.653682 0
M  V30 177 C 16.005 1.81519 -3.10771 0
M  V30 178 C 15.613 0.984839 -4.37041 0
M  V30 179 C 17.357 2.53727 -3.40327 0
M  V30 180 C 15.264 1.80209 -5.63275 0
M  V30 181 H 14.194 0.374412 -0.65447 0
M  V30 182 H 16.845 0.248138 -1.81815 0
M  V30 183 H 15.227 2.60115 -2.98591 0
M  V30 184 H 16.401 0.242455 -4.60162 0
M  V30 185 H 14.716 0.37691 -4.14691 0
M  V30 186 H 17.313 3.15292 -4.3185 0
M  V30 187 H 17.656 3.24447 -2.60845 0
M  V30 188 H 18.189 1.82156 -3.53644 0
M  V30 189 H 14.928 1.13896 -6.45529 0
M  V30 190 H 14.448 2.52022 -5.44284 0
M  V30 191 H 16.127 2.37364 -6.01887 0
M  V30 192 N 16.2591 1.48442 0.529413 0
M  V30 193 C 17.4841 1.60406 1.31471 0
M  V30 194 C 17.9091 0.264738 1.86228 0
M  V30 195 O 17.2671 -0.763668 1.64432 0
M  V30 196 C 17.3151 2.65419 2.44101 0
M  V30 197 O 16.4191 2.22618 3.47153 0
M  V30 198 H 15.7601 0.537863 0.389357 0
M  V30 199 H 18.2901 1.94432 0.636965 0
M  V30 200 H 18.3001 2.86709 2.90279 0
M  V30 201 H 16.9751 3.62652 2.03608 0
M  V30 202 H 15.5521 2.11543 3.0709 0
M  V30 203 N 17.7372 -0.778329 1.37039 0
M  V30 204 C 19.0142 -1.52551 1.22424 0
M  V30 205 C 19.3942 -2.10288 -0.184964 0
M  V30 206 O 18.7422 -1.94953 -1.19187 0
M  V30 207 C 18.9522 -2.61164 2.31504 0
M  V30 208 C 20.3002 -3.28746 2.68721 0
M  V30 209 O 21.3242 -2.71455 2.30631 0
M  V30 210 O 20.1832 -4.3231 3.3432 0
M  V30 211 H 17.2772 -0.675343 0.477326 0
M  V30 212 H 19.8232 -0.815859 1.48801 0
M  V30 213 H 18.5952 -2.16574 3.25901 0
M  V30 214 H 18.2182 -3.39737 2.06554 0
M  V30 215 N 19.2153 -1.21501 -1.00376 0
M  V30 216 C 20.4403 -1.05977 -1.78279 0
M  V30 217 C 20.8653 0.385994 -1.84097 0
M  V30 218 O 20.2233 1.27849 -1.28547 0
M  V30 219 C 20.2713 -1.66302 -3.19963 0
M  V30 220 O 19.3753 -0.909333 -4.0225 0
M  V30 221 H 18.7163 -0.372906 -0.549397 0
M  V30 222 H 21.2463 -1.6107 -1.26165 0
M  V30 223 H 21.2563 -1.70574 -3.70632 0
M  V30 224 H 19.9313 -2.71515 -3.15043 0
M  V30 225 H 18.5083 -0.941795 -3.60811 0
M  V30 226 N 20.6934 1.19889 -1.02296 0
M  V30 227 C 21.6234 2.25141 -0.619174 0
M  V30 228 C 22.6044 1.66051 0.368915 0
M  V30 229 O 23.7894 1.92546 0.252941 0
M  V30 230 C 20.9194 3.4728 0.0368783 0
M  V30 231 C 19.8734 4.19005 -0.872865 0
M  V30 232 C 19.1994 5.34637 -0.0822402 0
M  V30 233 C 20.4994 4.74452 -2.18387 0
M  V30 234 H 22.1934 2.59171 -1.49903 0
M  V30 235 H 19.7394 1.24579 -0.722222 0
M  V30 236 H 21.6924 4.20098 0.330958 0
M  V30 237 H 20.4164 3.12433 0.95149 0
M  V30 238 H 19.0754 3.48061 -1.15105 0
M  V30 239 H 18.7234 4.96034 0.83422 0
M  V30 240 H 18.4234 5.83557 -0.688149 0
M  V30 241 H 19.9474 6.10255 0.205238 0
M  V30 242 H 21.3614 5.39055 -1.95172 0
M  V30 243 H 19.7584 5.33834 -2.74119 0
M  V30 244 H 20.8284 3.92844 -2.84257 0
M  V30 245 N 22.1715 0.800033 1.35784 0
M  V30 246 C 23.4485 0.30088 1.93272 0
M  V30 247 C 23.8285 -1.20857 1.73081 0
M  V30 248 O 23.1765 -2.00502 1.09596 0
M  V30 249 C 23.3865 0.70511 3.41803 0
M  V30 250 C 24.7345 0.690871 4.18942 0
M  V30 251 O 25.7585 0.646244 3.50289 0
M  V30 252 O 24.6175 0.74332 5.41421 0
M  V30 253 H 21.7115 0.0771605 0.823393 0
M  V30 254 H 24.2575 0.88329 1.449 0
M  V30 255 H 23.0295 1.74571 3.50201 0
M  V30 256 H 22.6525 0.0971541 3.97481 0
M  V30 257 N 23.6496 -1.47581 0.552962 0
M  V30 258 C 25.0606 -1.86324 0.118463 0
M  V30 259 C 25.4116 -1.46006 -1.3106 0
M  V30 260 O 24.5366 -0.861182 -1.98526 0
M  V30 261 C 25.1316 -3.3816 0.20821 0
M  V30 262 C 23.6906 -3.7601 -0.171226 0
M  V30 263 C 22.8376 -2.71634 0.557686 0
M  V30 264 H 25.7886 -1.39159 0.762928 0
M  V30 265 H 25.8096 -3.76141 -0.574278 0
M  V30 266 H 25.3216 -3.67473 1.24841 0
M  V30 267 H 23.4226 -3.52313 -1.21269 0
M  V30 268 H 23.5356 -4.78745 0.184379 0
M  V30 269 H 21.8996 -2.547 0.00125792 0
M  V30 270 H 22.6826 -3.0379 1.59896 0
M  V30 271 N 25.1277 -0.289203 -1.54924 0
M  V30 272 C 26.3677 0.324536 -2.01807 0
M  V30 273 C 26.7317 1.5199 -1.17316 0
M  V30 274 O 27.9327 2.20422 -1.53843 0
M  V30 275 C 26.2037 0.683578 -3.50802 0
M  V30 276 S 27.7627 1.28185 -4.19659 0
M  V30 277 H 24.5807 0.100236 -0.703899 0
M  V30 278 H 27.1827 -0.414325 -1.91059 0
M  V30 279 H 25.8867 -0.195073 -4.09936 0
M  V30 280 H 25.4177 1.45354 -3.65562 0
M  V30 281 H 27.4327 2.57006 -4.24456 0
M  V30 282 N 26.6058 1.57591 -0.0167156 0
M  V30 283 C 27.8458 1.93145 0.668902 0
M  V30 284 C 28.2098 0.892406 1.7 0
M  V30 285 O 29.4108 1.13373 2.43721 0
M  V30 286 C 27.6818 3.33678 1.28039 0
M  V30 287 S 29.2408 3.91142 1.9888 0
M  V30 288 H 26.0588 0.67593 0.220545 0
M  V30 289 H 28.6608 1.95347 -0.0774105 0
M  V30 290 H 27.3648 4.07126 0.517339 0
M  V30 291 H 26.8958 3.3489 2.06427 0
M  V30 292 H 28.9108 3.73571 3.26587 0
M  V30 293 N 28.0839 -0.256276 1.55502 0
M  V30 294 C 29.4999 -0.604325 1.47716 0
M  V30 295 C 29.6999 -1.88763 0.705039 0
M  V30 296 O 28.7559 -2.51445 0.230613 0
M  V30 297 C 30.0689 -0.715756 2.92057 0
M  V30 298 C 31.6169 -0.808706 3.02372 0
M  V30 299 C 32.0919 -0.951777 4.48001 0
M  V30 300 N 33.5829 -1.01688 4.519 0
M  V30 301 C 34.3179 -1.14668 5.61817 0
M  V30 302 N 33.8139 -1.24261 6.81565 0
M  V30 303 N 35.6069 -1.1791 5.49594 0
M  V30 304 H 27.7579 0.586291 2.04148 0
M  V30 305 H 30.0209 0.201015 0.926443 0
M  V30 306 H 29.7269 0.157027 3.51349 0
M  V30 307 H 29.6009 -1.59071 3.42018 0
M  V30 308 H 31.9879 -1.67195 2.43166 0
M  V30 309 H 32.0689 0.0912063 2.55637 0
M  V30 310 H 31.7129 -0.0931291 5.07815 0
M  V30 311 H 31.6429 -1.86659 4.92408 0
M  V30 312 H 34.1339 -0.954468 3.65648 0
M  V30 313 H 34.4469 -1.34046 7.61086 0
M  V30 314 H 32.7919 -1.21236 6.84344 0
M  V30 315 H 35.9829 -1.10057 4.54978 0
M  V30 316 H 36.1559 -1.27681 6.35296 0
M  V30 317 N 29.562 -1.4872 -0.521534 0
M  V30 318 C 30.509 -1.63871 -1.62527 0
M  V30 319 C 31.479 -0.480559 -1.58996 0
M  V30 320 O 32.664 -0.705085 -1.77294 0
M  V30 321 C 29.804 -1.69227 -3.00759 0
M  V30 322 C 28.917 -2.96207 -3.14461 0
M  V30 323 C 28.052 -2.92671 -4.43303 0
M  V30 324 C 27.091 -4.14318 -4.50563 0
M  V30 325 N 26.228 -4.0881 -5.70805 0
M  V30 326 H 31.068 -2.58123 -1.48918 0
M  V30 327 H 28.605 -1.28 -0.724878 0
M  V30 328 H 30.563 -1.70314 -3.80853 0
M  V30 329 H 29.193 -0.784586 -3.1312 0
M  V30 330 H 28.245 -3.04826 -2.27564 0
M  V30 331 H 29.557 -3.86192 -3.15686 0
M  V30 332 H 28.711 -2.92206 -5.31696 0
M  V30 333 H 27.45 -2.00429 -4.44612 0
M  V30 334 H 26.455 -4.15049 -3.60575 0
M  V30 335 H 27.68 -5.07729 -4.50986 0
M  V30 336 H 25.626 -3.19394 -5.72995 0
M  V30 337 H 25.543 -4.92509 -5.7356 0
M  V30 338 H 26.811 -4.12418 -6.61462 0
M  V30 339 N 31.0401 0.771051 -1.3745 0
M  V30 340 C 32.2891 1.52491 -1.3202 0
M  V30 341 C 32.6021 1.9538 0.0927347 0
M  V30 342 O 33.8081 2.70159 0.269503 0
M  V30 343 C 32.2641 2.75366 -2.31736 0
M  V30 344 C 31.8721 2.39573 -3.78562 0
M  V30 345 C 33.6161 3.53307 -2.35318 0
M  V30 346 C 31.5231 3.58954 -4.70007 0
M  V30 347 H 30.4531 0.572506 -0.490666 0
M  V30 348 H 33.1041 0.844474 -1.62914 0
M  V30 349 H 31.4861 3.45303 -1.93861 0
M  V30 350 H 32.6601 1.77415 -4.25277 0
M  V30 351 H 30.9751 1.74805 -3.77932 0
M  V30 352 H 33.5721 4.42039 -3.00842 0
M  V30 353 H 33.9151 3.93217 -1.36698 0
M  V30 354 H 34.4481 2.90367 -2.71904 0
M  V30 355 H 31.1871 3.24125 -5.69757 0
M  V30 356 H 30.7071 4.20214 -4.27996 0
M  V30 357 H 32.3861 4.25758 -4.87175 0
M  V30 358 N 32.5182 1.22032 0.997298 0
M  V30 359 C 33.4482 1.01065 2.10495 0
M  V30 360 C 34.4292 -0.0669542 1.69968 0
M  V30 361 O 35.6142 0.0943987 1.9397 0
M  V30 362 C 32.7442 0.582874 3.42374 0
M  V30 363 C 31.6982 1.60592 3.96729 0
M  V30 364 C 31.0242 1.03412 5.24605 0
M  V30 365 C 32.3242 2.99478 4.27914 0
M  V30 366 H 34.0182 1.93708 2.28292 0
M  V30 367 H 31.5642 0.932761 1.09707 0
M  V30 368 H 33.5172 0.423332 4.19268 0
M  V30 369 H 32.2412 -0.379213 3.24391 0
M  V30 370 H 30.9002 1.75316 3.21963 0
M  V30 371 H 30.5482 0.063518 5.0296 0
M  V30 372 H 30.2482 1.71754 5.61938 0
M  V30 373 H 31.7722 0.886066 6.04137 0
M  V30 374 H 33.1862 2.88153 4.95622 0
M  V30 375 H 31.5832 3.64903 4.76409 0
M  V30 376 H 32.6532 3.49742 3.3587 0
M  V30 377 N 33.9963 -1.19345 1.0293 0
M  V30 378 C 34.9283 -2.22036 0.56857 0
M  V30 379 C 35.9413 -1.58865 -0.355779 0
M  V30 380 O 37.1303 -1.77851 -0.152103 0
M  V30 381 C 34.2303 -3.38363 -0.190752 0
M  V30 382 C 33.4033 -4.31118 0.738643 0
M  V30 383 C 32.4623 -5.26194 0.0246497 0
M  V30 384 O 31.4883 -5.65461 0.651354 0
M  V30 385 N 32.6903 -5.66971 -1.24594 0
M  V30 386 H 35.4553 -2.6219 1.45177 0
M  V30 387 H 33.0163 -1.34015 0.908381 0
M  V30 388 H 35.0083 -3.98981 -0.677961 0
M  V30 389 H 33.5783 -2.96994 -0.975366 0
M  V30 390 H 32.7983 -3.68276 1.40593 0
M  V30 391 H 34.0863 -4.90001 1.37029 0
M  V30 392 H 33.4843 -5.37104 -1.77583 0
M  V30 393 H 32.0413 -6.2984 -1.67764 0
M  V30 394 N 35.4744 -0.807222 -1.35358 0
M  V30 395 C 36.7514 -0.311126 -1.9311 0
M  V30 396 C 37.1314 1.19937 -1.73719 0
M  V30 397 O 36.4794 1.99918 -1.10657 0
M  V30 398 C 36.6894 -0.723226 -3.41424 0
M  V30 399 C 38.0374 -0.713078 -4.18569 0
M  V30 400 O 39.0614 -0.664811 -3.49941 0
M  V30 401 O 37.9204 -0.772022 -5.41019 0
M  V30 402 H 35.0144 -0.081526 -0.822972 0
M  V30 403 H 37.5604 -0.890962 -1.4443 0
M  V30 404 H 36.3324 -1.76426 -3.4927 0
M  V30 405 H 35.9554 -0.118232 -3.97424 0
M  V30 406 N 36.9525 1.47285 -0.560781 0
M  V30 407 C 38.2005 2.02064 -0.0379868 0
M  V30 408 C 38.5215 1.43711 1.31803 0
M  V30 409 O 37.7915 0.61362 1.86042 0
M  V30 410 H 36.3715 0.746918 -0.0110531 0
M  V30 411 H 39.0335 1.80648 -0.731598 0
M  V30 412 H 38.1295 3.12064 0.0474463 0
M  V30 413 N 38.4306 0.297415 1.54768 0
M  V30 414 C 39.6786 -0.312295 1.99673 0
M  V30 415 C 39.9996 -1.54686 1.18732 0
M  V30 416 O 39.2696 -1.93854 0.282382 0
M  V30 417 H 37.8496 -0.118381 0.73756 0
M  V30 418 H 40.5116 0.407915 1.90583 0
M  V30 419 H 39.6076 -0.586813 3.06534 0
M  V30 420 N 39.9087 -1.5758 0.0250728 0
M  V30 421 C 40.8387 -2.13007 -0.956575 0
M  V30 422 C 41.8197 -1.0452 -1.342 0
M  V30 423 O 43.0047 -1.32332 -1.42133 0
M  V30 424 C 40.1347 -2.65386 -2.24026 0
M  V30 425 C 39.0887 -3.78623 -1.99571 0
M  V30 426 C 38.4147 -4.17414 -3.3417 0
M  V30 427 C 39.7147 -5.04867 -1.33814 0
M  V30 428 H 41.4087 -2.9528 -0.494991 0
M  V30 429 H 38.9547 -1.42042 -0.236651 0
M  V30 430 H 40.9077 -3.02794 -2.93076 0
M  V30 431 H 39.6317 -1.80268 -2.72343 0
M  V30 432 H 38.2907 -3.41646 -1.32941 0
M  V30 433 H 37.9387 -3.29284 -3.80238 0
M  V30 434 H 37.6387 -4.93719 -3.18615 0
M  V30 435 H 39.1627 -4.57402 -4.04495 0
M  V30 436 H 40.5767 -5.39888 -1.92857 0
M  V30 437 H 38.9737 -5.86144 -1.28669 0
M  V30 438 H 40.0437 -4.83904 -0.310561 0
M  V30 439 N 41.3868 0.248026 -1.55636 0
M  V30 440 C 42.3188 1.32993 -1.8667 0
M  V30 441 C 43.3318 1.44345 -0.752877 0
M  V30 442 O 44.5208 1.45715 -1.03098 0
M  V30 443 C 41.6208 2.70863 -2.03682 0
M  V30 444 C 40.7938 2.81792 -3.34532 0
M  V30 445 C 39.8528 4.005 -3.41301 0
M  V30 446 O 38.8788 3.9008 -4.14519 0
M  V30 447 N 40.0808 5.13618 -2.70512 0
M  V30 448 H 42.8458 1.06707 -2.8006 0
M  V30 449 H 40.4068 0.438129 -1.55859 0
M  V30 450 H 42.3988 3.48612 -2.05553 0
M  V30 451 H 40.9688 2.89862 -1.17041 0
M  V30 452 H 40.1888 1.90729 -3.44987 0
M  V30 453 H 41.4768 2.86043 -4.20781 0
M  V30 454 H 40.8748 5.24975 -2.10755 0
M  V30 455 H 39.4318 5.89505 -2.78077 0
M  V30 456 N 42.8649 1.48995 0.513639 0
M  V30 457 C 44.1109 1.58076 1.27042 0
M  V30 458 C 44.4439 0.261026 1.92438 0
M  V30 459 O 43.7189 -0.734393 1.80103 0
M  V30 460 C 44.0019 2.73091 2.34719 0
M  V30 461 C 43.8549 4.14821 1.73907 0
M  V30 462 C 45.1739 2.83796 3.36375 0
M  V30 463 H 42.2929 0.575391 0.460536 0
M  V30 464 H 44.9349 1.81232 0.570516 0
M  V30 465 H 43.0849 2.53479 2.94416 0
M  V30 466 H 44.7569 4.45917 1.18135 0
M  V30 467 H 42.9999 4.21058 1.0437 0
M  V30 468 H 43.6709 4.91147 2.51949 0
M  V30 469 H 46.1469 3.01611 2.86653 0
M  V30 470 H 45.0229 3.65971 4.09093 0
M  V30 471 H 45.2839 1.92624 3.9793 0
M  V30 472 N 44.343 -0.763751 1.37857 0
M  V30 473 C 45.589 -1.52483 1.33704 0
M  V30 474 C 45.922 -1.94051 -0.0759612 0
M  V30 475 O 45.197 -1.64675 -1.03501 0
M  V30 476 C 45.48 -2.78441 2.28348 0
M  V30 477 C 45.333 -2.43075 3.78463 0
M  V30 478 C 46.652 -3.80415 2.21298 0
M  V30 479 H 43.771 -0.553169 0.487005 0
M  V30 480 H 46.413 -0.875562 1.68624 0
M  V30 481 H 44.563 -3.33842 1.987 0
M  V30 482 H 46.235 -1.93527 4.18742 0
M  V30 483 H 44.478 -1.75666 3.96641 0
M  V30 484 H 45.149 -3.33149 4.40132 0
M  V30 485 H 47.625 -3.34527 2.47449 0
M  V30 486 H 46.501 -4.66257 2.89647 0
M  V30 487 H 46.762 -4.25262 1.20849 0
M  V30 488 N 45.8211 -1.22559 -0.990812 0
M  V30 489 C 46.7311 -1.01394 -2.11557 0
M  V30 490 C 47.7471 0.0383962 -1.73958 0
M  V30 491 O 48.9231 -0.154787 -2.00804 0
M  V30 492 C 45.9881 -0.596569 -3.41529 0
M  V30 493 C 45.0491 -1.72276 -3.93217 0
M  V30 494 C 44.2821 -1.32521 -5.16985 0
M  V30 495 O 44.5051 -0.204909 -5.70032 0
M  V30 496 O 43.4391 -2.14247 -5.62478 0
M  V30 497 H 47.2651 -1.95633 -2.32296 0
M  V30 498 H 44.8501 -1.01172 -1.0993 0
M  V30 499 H 46.7321 -0.374263 -4.19735 0
M  V30 500 H 45.4071 0.316939 -3.22145 0
M  V30 501 H 44.3141 -1.99961 -3.16174 0
M  V30 502 H 45.6471 -2.61421 -4.17037 0
M  V30 503 N 47.2992 1.18797 -1.03562 0
M  V30 504 C 48.2462 2.22253 -0.622259 0
M  V30 505 C 49.2162 1.61987 0.36736 0
M  V30 506 O 50.4012 1.88986 0.262492 0
M  V30 507 C 47.5412 3.45097 0.0138462 0
M  V30 508 C 46.6542 4.19722 -1.02263 0
M  V30 509 C 45.7892 5.30009 -0.355573 0
M  V30 510 C 44.8282 5.96399 -1.37749 0
M  V30 511 N 43.9652 6.98234 -0.735766 0
M  V30 512 H 48.8052 2.56968 -1.50903 0
M  V30 513 H 46.3422 1.26245 -0.755017 0
M  V30 514 H 48.3002 4.15279 0.399948 0
M  V30 515 H 46.9302 3.11018 0.864158 0
M  V30 516 H 45.9822 3.48418 -1.52673 0
M  V30 517 H 47.2942 4.65227 -1.79903 0
M  V30 518 H 46.4482 6.0664 0.0850095 0
M  V30 519 H 45.1872 4.85592 0.452967 0
M  V30 520 H 44.1922 5.18512 -1.82826 0
M  V30 521 H 45.4172 6.42899 -2.18764 0
M  V30 522 H 43.3632 6.55979 0.0525597 0
M  V30 523 H 43.2802 7.41965 -1.44995 0
M  V30 524 H 44.5482 7.78845 -0.31941 0
M  V30 525 N 48.7773 0.814389 1.34928 0
M  V30 526 C 49.7093 0.187834 2.28429 0
M  V30 527 C 50.7223 -0.617374 1.5064 0
M  V30 528 O 51.9113 -0.448454 1.72775 0
M  V30 529 C 49.0113 -0.755962 3.30361 0
M  V30 530 C 48.1843 0.00456686 4.374 0
M  V30 531 C 47.2433 -0.858876 5.19143 0
M  V30 532 O 46.2693 -0.306968 5.68372 0
M  V30 533 N 47.4713 -2.17988 5.38016 0
M  V30 534 H 50.2363 0.991105 2.82838 0
M  V30 535 H 47.7973 0.670561 1.4736 0
M  V30 536 H 49.7893 -1.338 3.81942 0
M  V30 537 H 48.3593 -1.46001 2.7641 0
M  V30 538 H 47.5793 0.767865 3.86649 0
M  V30 539 H 48.8673 0.528422 5.06049 0
M  V30 540 H 48.2653 -2.65212 4.99679 0
M  V30 541 H 46.8223 -2.71098 5.92747 0
M  V30 542 N 50.2554 -1.46986 0.568584 0
M  V30 543 C 51.2034 -2.31858 -0.185649 0
M  V30 544 C 52.1974 -1.43624 -0.898249 0
M  V30 545 O 53.4034 -1.60327 -0.818242 0
M  V30 546 H 49.7784 -0.747866 -0.0787399 0
M  V30 547 H 51.7494 -2.93303 0.549191 0
M  V30 548 C 50.4984 -3.26513 -1.19519 0
M  V30 549 H 49.8214 -3.94377 -0.656285 0
M  V30 550 H 51.2614 -3.88707 -1.6936 0
M  V30 551 C 49.7204 -2.50847 -2.24894 0
M  V30 552 O 50.2504 -2.26119 -3.32014 0
M  V30 553 N 48.4564 -2.11656 -1.99124 0
M  V30 554 H 48.0034 -2.31966 -1.12024 0
M  V30 555 H 47.9614 -1.61347 -2.69842 0
M  V30 556 N 51.7335 -0.305618 -1.54608 0
M  V30 557 C 52.6635 0.561482 -2.26649 0
M  V30 558 C 53.6445 1.13415 -1.26772 0
M  V30 559 O 54.8295 1.16262 -1.55553 0
M  V30 560 C 51.9595 1.73122 -3.01075 0
M  V30 561 C 50.9135 1.2887 -4.08138 0
M  V30 562 C 50.2395 2.54396 -4.70305 0
M  V30 563 C 51.5395 0.416578 -5.20636 0
M  V30 564 H 53.2335 -0.0393902 -2.99374 0
M  V30 565 H 50.7795 -0.020385 -1.43986 0
M  V30 566 H 52.7325 2.34396 -3.50195 0
M  V30 567 H 51.4565 2.3584 -2.25936 0
M  V30 568 H 50.1155 0.698991 -3.59875 0
M  V30 569 H 49.7635 3.15439 -3.918 0
M  V30 570 H 49.4635 2.25486 -5.42614 0
M  V30 571 H 50.9875 3.16464 -5.2219 0
M  V30 572 H 52.4015 0.935116 -5.65622 0
M  V30 573 H 50.7985 0.221046 -5.99693 0
M  V30 574 H 51.8685 -0.557162 -4.81688 0
M  V30 575 N 53.2116 1.57565 -0.0334293 0
M  V30 576 C 54.4366 1.96689 0.657895 0
M  V30 577 C 54.8616 0.910057 1.64619 0
M  V30 578 O 54.2196 -0.128598 1.80843 0
M  V30 579 C 54.2676 3.34905 1.33683 0
M  V30 580 O 53.3716 3.31574 2.45219 0
M  V30 581 H 52.7126 0.641205 0.172489 0
M  V30 582 H 55.2426 2.04372 -0.0965621 0
M  V30 583 H 55.2526 3.71234 1.69262 0
M  V30 584 H 53.9276 4.11366 0.612411 0
M  V30 585 H 52.5046 3.06968 2.11719 0
M  V30 586 N 54.6897 -0.239769 1.55765 0
M  V30 587 C 55.6367 -1.29696 1.90913 0
M  V30 588 C 56.6067 -1.47478 0.764164 0
M  V30 589 O 57.7917 -1.61345 1.01845 0
M  V30 590 C 54.9317 -2.64598 2.21544 0
M  V30 591 C 54.0447 -2.54765 3.48882 0
M  V30 592 C 53.1797 -3.82069 3.69049 0
M  V30 593 C 52.2187 -3.66883 4.89963 0
M  V30 594 N 51.3557 -4.86094 5.06614 0
M  V30 595 H 56.1957 -0.990224 2.81067 0
M  V30 596 H 53.7327 -0.477684 1.39128 0
M  V30 597 H 55.6907 -3.43132 2.3731 0
M  V30 598 H 54.3207 -2.93405 1.34585 0
M  V30 599 H 53.3727 -1.67763 3.41409 0
M  V30 600 H 54.6847 -2.39457 4.37563 0
M  V30 601 H 53.8387 -4.69046 3.84812 0
M  V30 602 H 52.5777 -4.00282 2.78614 0
M  V30 603 H 51.5827 -2.78289 4.74168 0
M  V30 604 H 52.8077 -3.50157 5.81865 0
M  V30 605 H 50.7537 -5.04655 4.19117 0
M  V30 606 H 50.6707 -4.73443 5.89396 0
M  V30 607 H 51.9387 -5.74549 5.26795 0
M  V30 608 N 56.1678 -1.49265 -0.50573 0
M  V30 609 C 57.0778 -1.68312 -1.63427 0
M  V30 610 C 58.0938 -0.565682 -1.64548 0
M  V30 611 O 59.2698 -0.839801 -1.83055 0
M  V30 612 C 56.3348 -1.74107 -2.99813 0
M  V30 613 C 55.3958 -2.97653 -3.09356 0
M  V30 614 C 54.6288 -3.03163 -4.39236 0
M  V30 615 O 54.8518 -2.16396 -5.27758 0
M  V30 616 O 53.7858 -3.9558 -4.53652 0
M  V30 617 H 57.6118 -2.63907 -1.50289 0
M  V30 618 H 55.1968 -1.32951 -0.681502 0
M  V30 619 H 57.0788 -1.803 -3.80881 0
M  V30 620 H 55.7538 -0.816901 -3.13223 0
M  V30 621 H 54.6608 -2.96981 -2.27493 0
M  V30 622 H 55.9938 -3.89535 -3.00871 0
M  V30 623 N 57.6459 0.756429 -1.3826 0
M  V30 624 C 58.5559 1.9009 -1.37488 0
M  V30 625 C 59.5719 1.71855 -0.272366 0
M  V30 626 O 60.7479 1.94827 -0.510318 0
M  V30 627 C 57.8129 3.25421 -1.19592 0
M  V30 628 C 56.8739 3.56202 -2.39622 0
M  V30 629 C 56.1069 4.85075 -2.2257 0
M  V30 630 O 56.3299 5.57246 -1.21793 0
M  V30 631 O 55.2639 5.15269 -3.11098 0
M  V30 632 H 59.0899 1.93695 -2.33914 0
M  V30 633 H 56.6749 0.901313 -1.1915 0
M  V30 634 H 58.5569 4.06337 -1.11661 0
M  V30 635 H 57.2319 3.22634 -0.262486 0
M  V30 636 H 56.1389 2.75458 -2.53128 0
M  V30 637 H 57.4719 3.63747 -3.31586 0
M  V30 638 N 59.124 1.23083 0.984299 0
M  V30 639 C 60.054 1.03292 2.09411 0
M  V30 640 C 61.035 -0.048923 1.7003 0
M  V30 641 O 62.22 0.114967 1.93859 0
M  V30 642 C 59.35 0.619155 3.41736 0
M  V30 643 C 58.304 1.64791 3.95004 0
M  V30 644 C 57.63 1.0897 5.23478 0
M  V30 645 C 58.93 3.03999 4.24714 0
M  V30 646 H 60.624 1.96119 2.26225 0
M  V30 647 H 58.17 0.944344 1.08711 0
M  V30 648 H 60.123 0.467777 4.18796 0
M  V30 649 H 58.847 -0.344786 3.24775 0
M  V30 650 H 57.506 1.78721 3.20085 0
M  V30 651 H 57.154 0.11686 5.02864 0
M  V30 652 H 56.854 1.77704 5.60085 0
M  V30 653 H 58.378 0.950093 6.03163 0
M  V30 654 H 59.792 2.93393 4.92538 0
M  V30 655 H 58.189 3.69936 4.72512 0
M  V30 656 H 59.259 3.53285 3.32142 0
M  V30 657 N 60.6021 -1.18246 1.0419 0
M  V30 658 C 61.8511 -1.87588 0.741194 0
M  V30 659 C 62.1641 -1.81303 -0.734066 0
M  V30 660 O 63.3701 -2.46019 -1.14834 0
M  V30 661 C 61.8261 -3.36538 1.27555 0
M  V30 662 C 61.4341 -3.51349 2.77953 0
M  V30 663 C 63.1781 -4.11273 1.05143 0
M  V30 664 C 61.0851 -4.94265 3.2474 0
M  V30 665 H 60.0151 -0.702622 0.273565 0
M  V30 666 H 62.6661 -1.33601 1.25789 0
M  V30 667 H 61.0481 -3.9 0.686703 0
M  V30 668 H 62.2221 -3.08153 3.42605 0
M  V30 669 H 60.5371 -2.90022 2.98791 0
M  V30 670 H 63.1341 -5.16689 1.37611 0
M  V30 671 H 63.4771 -4.16298 -0.0112774 0
M  V30 672 H 64.0101 -3.63987 1.60495 0
M  V30 673 H 60.7491 -4.94408 4.30396 0
M  V30 674 H 60.2691 -5.38172 2.64823 0
M  V30 675 H 61.9481 -5.62987 3.18834 0
M  V30 676 N 62.0802 -0.821533 -1.34494 0
M  V30 677 C 63.0432 -0.247847 -2.27856 0
M  V30 678 C 64.0432 0.573453 -1.50227 0
M  V30 679 O 65.2332 0.389759 -1.69784 0
M  V30 680 C 62.3652 0.652698 -3.34593 0
M  V30 681 H 63.5582 -1.07146 -2.80107 0
M  V30 682 H 61.1112 -0.593291 -1.44602 0
M  V30 683 H 61.8462 1.49943 -2.87555 0
M  V30 684 H 61.6312 0.065292 -3.92046 0
M  V30 685 H 63.1212 1.04793 -4.04238 0
M  V30 686 N 63.5583 1.46682 -0.576371 0
M  V30 687 C 64.4683 2.34032 0.163141 0
M  V30 688 C 65.4843 1.49367 0.892501 0
M  V30 689 O 66.6603 1.82252 0.857106 0
M  V30 690 C 63.7253 3.26435 1.16795 0
M  V30 691 C 62.7863 4.26998 0.443944 0
M  V30 692 C 62.0193 5.14986 1.40088 0
M  V30 693 O 62.2423 5.05785 2.637 0
M  V30 694 O 61.1763 5.94906 0.914917 0
M  V30 695 H 65.0023 2.98607 -0.55388 0
M  V30 696 H 62.5873 1.45554 -0.336821 0
M  V30 697 H 64.4693 3.83459 1.74748 0
M  V30 698 H 63.1443 2.64465 1.86655 0
M  V30 699 H 62.0513 3.7368 -0.177271 0
M  V30 700 H 63.3843 4.91736 -0.213566 0
M  V30 701 N 65.0364 0.313813 1.54444 0
M  V30 702 C 65.9664 -0.549454 2.26943 0
M  V30 703 C 66.9474 -1.12741 1.27372 0
M  V30 704 O 68.1324 -1.15436 1.56167 0
M  V30 705 C 65.2624 -1.71523 3.01989 0
M  V30 706 C 64.2164 -1.26703 4.08816 0
M  V30 707 C 63.5424 -2.51898 4.71647 0
M  V30 708 C 64.8424 -0.388962 5.2085 0
M  V30 709 H 66.5364 0.0552661 2.99349 0
M  V30 710 H 64.0824 0.0280207 1.43973 0
M  V30 711 H 66.0354 -2.32535 3.51433 0
M  V30 712 H 64.7594 -2.34639 2.27183 0
M  V30 713 H 63.4184 -0.679896 3.6024 0
M  V30 714 H 63.0664 -3.13356 3.93468 0
M  V30 715 H 62.7664 -2.22605 5.43802 0
M  V30 716 H 64.2904 -3.1369 5.23861 0
M  V30 717 H 65.7044 -0.905107 5.6611 0
M  V30 718 H 64.1014 -0.18924 5.99802 0
M  V30 719 H 65.1714 0.582699 4.81386 0
M  V30 720 N 66.5145 -1.57545 0.0417849 0
M  V30 721 C 67.4465 -2.07904 -0.964799 0
M  V30 722 C 68.4595 -1.00497 -1.28079 0
M  V30 723 O 69.6485 -1.28087 -1.24322 0
M  V30 724 C 66.7485 -2.49928 -2.28887 0
M  V30 725 C 65.9215 -3.80562 -2.15619 0
M  V30 726 C 64.9805 -4.08999 -3.31069 0
M  V30 727 O 64.0065 -4.79061 -3.0739 0
M  V30 728 N 65.2085 -3.6017 -4.55256 0
M  V30 729 H 67.9735 -2.94886 -0.535029 0
M  V30 730 H 65.5345 -1.61252 -0.144681 0
M  V30 731 H 67.5265 -2.66034 -3.04972 0
M  V30 732 H 66.0965 -1.68245 -2.63463 0
M  V30 733 H 65.3165 -3.74129 -1.24183 0
M  V30 734 H 66.6045 -4.66126 -2.03971 0
M  V30 735 H 66.0025 -3.03512 -4.77386 0
M  V30 736 H 64.5595 -3.81532 -5.28466 0
M  V30 737 N 67.9926 0.231505 -1.5589 0
M  V30 738 C 69.2696 0.981096 -1.69215 0
M  V30 739 C 69.6496 2.02799 -0.586164 0
M  V30 740 O 68.9976 2.24823 0.408253 0
M  V30 741 C 69.2076 1.60054 -3.10135 0
M  V30 742 C 70.5556 2.09658 -3.69227 0
M  V30 743 O 71.5796 1.69967 -3.13033 0
M  V30 744 O 70.4386 2.8258 -4.67772 0
M  V30 745 H 67.5326 0.457653 -0.688827 0
M  V30 746 H 70.0786 0.224073 -1.68214 0
M  V30 747 H 68.8506 0.844105 -3.82087 0
M  V30 748 H 68.4736 2.42336 -3.15212 0
M  V30 749 N 69.4707 1.49531 0.497807 0
M  V30 750 C 70.7107 1.60799 1.26187 0
M  V30 751 C 71.0747 0.289627 1.89803 0
M  V30 752 O 72.2757 0.277512 2.67364 0
M  V30 753 C 70.5467 2.73729 2.29798 0
M  V30 754 S 72.1057 3.04968 3.155 0
M  V30 755 H 68.9237 0.567145 0.428798 0
M  V30 756 H 71.5257 1.87204 0.563477 0
M  V30 757 H 70.2297 3.68036 1.81597 0
M  V30 758 H 69.7607 2.49328 3.04301 0
M  V30 759 H 71.7757 2.46735 4.30507 0
M  V30 760 N 70.9488 -0.749086 1.3866 0
M  V30 761 C 71.8588 -1.89358 1.38494 0
M  V30 762 C 72.8748 -1.71708 0.281476 0
M  V30 763 O 74.0508 -1.94554 0.520643 0
M  V30 764 C 71.1158 -3.24782 1.21316 0
M  V30 765 C 70.1768 -3.54926 2.41508 0
M  V30 766 C 69.4098 -4.83888 2.2514 0
M  V30 767 O 69.6328 -5.56592 1.24746 0
M  V30 768 O 68.5668 -5.13612 3.13826 0
M  V30 769 H 72.3928 -1.92452 2.34938 0
M  V30 770 H 69.9778 -0.894981 1.19626 0
M  V30 771 H 71.8598 -4.05739 1.13814 0
M  V30 772 H 70.5348 -3.2249 0.279592 0
M  V30 773 H 69.4418 -2.74112 2.54585 0
M  V30 774 H 70.7748 -3.61983 3.3351 0
M  V30 775 N 72.4269 -1.23603 -0.977757 0
M  V30 776 C 73.6749 -1.06759 -1.71601 0
M  V30 777 C 73.9959 0.395929 -1.90938 0
M  V30 778 O 73.2659 1.28356 -1.47992 0
M  V30 779 H 71.8459 -0.392062 -0.635843 0
M  V30 780 H 74.5079 -1.55362 -1.1768 0
M  V30 781 H 73.6039 -1.55763 -2.70452 0
M  V30 782 N 73.905 1.17692 -1.04816 0
M  V30 783 C 74.835 2.23777 -0.666791 0
M  V30 784 C 75.816 1.66796 0.33361 0
M  V30 785 O 77.001 1.93039 0.212042 0
M  V30 786 C 74.131 3.47281 -0.0367933 0
M  V30 787 C 73.085 4.17059 -0.961546 0
M  V30 788 C 72.411 5.34342 -0.195626 0
M  V30 789 C 73.711 4.69713 -2.28402 0
M  V30 790 H 75.405 2.55933 -1.55367 0
M  V30 791 H 72.951 1.23019 -0.748484 0
M  V30 792 H 74.904 4.20706 0.241775 0
M  V30 793 H 73.628 3.14381 0.885004 0
M  V30 794 H 72.287 3.45541 -1.22462 0
M  V30 795 H 71.935 4.97692 0.728816 0
M  V30 796 H 71.635 5.81966 -0.811775 0
M  V30 797 H 73.159 6.10553 0.0757473 0
M  V30 798 H 74.573 5.34794 -2.06563 0
M  V30 799 H 72.97 5.279 -2.8538 0
M  V30 800 H 74.04 3.86726 -2.92525 0
M  V30 801 N 75.3831 0.828654 1.34056 0
M  V30 802 C 76.6321 0.415828 1.97367 0
M  V30 803 C 76.9451 -1.02796 1.6641 0
M  V30 804 O 78.1511 -1.54497 2.23255 0
M  V30 805 C 76.6071 0.692601 3.53173 0
M  V30 806 C 76.2151 2.15038 3.93017 0
M  V30 807 C 77.9591 0.346222 4.23086 0
M  V30 808 C 75.8661 2.37174 5.41758 0
M  V30 809 H 74.7961 0.151755 0.738571 0
M  V30 810 H 77.4471 1.01581 1.52819 0
M  V30 811 H 75.8291 0.0223764 3.95994 0
M  V30 812 H 77.0031 2.86024 3.61285 0
M  V30 813 H 75.3181 2.45875 3.36057 0
M  V30 814 H 77.9151 0.48937 5.32456 0
M  V30 815 H 78.2581 -0.709842 4.10204 0
M  V30 816 H 78.7911 0.971258 3.85761 0
M  V30 817 H 75.5301 3.41308 5.59633 0
M  V30 818 H 75.0501 1.70738 5.74986 0
M  V30 819 H 76.7291 2.19818 6.08514 0
M  V30 820 N 76.8612 -1.46375 0.584142 0
M  V30 821 C 78.1072 -2.02678 0.0703716 0
M  V30 822 C 78.4402 -1.4545 -1.28678 0
M  V30 823 O 77.7152 -0.62014 -1.84349 0
M  V30 824 C 77.9982 -3.60099 0.00614674 0
M  V30 825 C 77.8512 -4.27709 1.3923 0
M  V30 826 C 79.1702 -4.34598 -0.693742 0
M  V30 827 H 76.2892 -0.736504 0.027047 0
M  V30 828 H 78.9312 -1.74501 0.751615 0
M  V30 829 H 77.0812 -3.84236 -0.574009 0
M  V30 830 H 78.7532 -4.14832 2.01773 0
M  V30 831 H 76.9962 -3.87016 1.95962 0
M  V30 832 H 77.6672 -5.36478 1.29982 0
M  V30 833 H 80.1432 -4.15615 -0.200869 0
M  V30 834 H 79.0192 -5.44318 -0.707714 0
M  V30 835 H 79.2802 -4.05759 -1.75533 0
M  V30 836 N 78.3393 -0.321999 -1.54275 0
M  V30 837 C 79.7553 0.0306999 -1.5957 0
M  V30 838 C 79.9553 1.50614 -1.33857 0
M  V30 839 O 79.0113 2.2619 -1.12223 0
M  V30 840 C 80.3243 -0.386122 -2.98211 0
M  V30 841 C 81.8723 -0.336647 -3.11184 0
M  V30 842 C 82.3473 -0.728607 -4.52167 0
M  V30 843 N 83.8383 -0.681952 -4.58152 0
M  V30 844 C 84.5733 -0.957449 -5.6535 0
M  V30 845 N 84.0693 -1.3 -6.80494 0
M  V30 846 N 85.8623 -0.883113 -5.55119 0
M  V30 847 H 78.0133 -1.28332 -1.69247 0
M  V30 848 H 80.2763 -0.521716 -0.791528 0
M  V30 849 H 79.9823 -1.41404 -3.22022 0
M  V30 850 H 79.8563 0.249662 -3.76373 0
M  V30 851 H 82.2433 0.682058 -2.8711 0
M  V30 852 H 82.3243 -1.00734 -2.3513 0
M  V30 853 H 81.9683 -1.74522 -4.76974 0
M  V30 854 H 81.8983 -0.0356152 -5.26588 0
M  V30 855 H 84.3893 -0.428985 -3.75457 0
M  V30 856 H 84.7023 -1.49563 -7.58189 0
M  V30 857 H 83.0473 -1.33824 -6.81994 0
M  V30 858 H 86.2383 -0.615001 -4.64042 0
M  V30 859 H 86.4113 -1.10118 -6.38575 0
M  V30 860 N 79.8174 1.5752 -0.0501392 0
M  V30 861 C 81.0424 1.97376 0.636997 0
M  V30 862 C 81.4674 0.927466 1.63645 0
M  V30 863 O 80.8254 -0.10941 1.8097 0
M  V30 864 C 80.8734 3.36304 1.30123 0
M  V30 865 O 79.9774 3.34156 2.41689 0
M  V30 866 H 79.3184 0.642998 0.165679 0
M  V30 867 H 81.8484 2.04258 -0.118233 0
M  V30 868 H 81.8584 3.73008 1.65315 0
M  V30 869 H 80.5334 4.11993 0.568746 0
M  V30 870 H 79.1104 3.09196 2.08451 0
M  V30 871 N 81.2955 -0.223234 1.56011 0
M  V30 872 C 82.2585 -1.26014 1.9145 0
M  V30 873 C 83.2585 -1.3989 0.792937 0
M  V30 874 O 84.4485 -1.38184 1.0607 0
M  V30 875 C 81.5805 -2.63422 2.16383 0
M  V30 876 H 82.7735 -0.95796 2.84189 0
M  V30 877 H 80.3265 -0.463576 1.49267 0
M  V30 878 H 81.0615 -2.98741 1.2619 0
M  V30 879 H 80.8465 -2.54728 2.98088 0
M  V30 880 H 82.3365 -3.38249 2.44903 0
M  V30 881 N 82.7736 -1.49793 -0.48987 0
M  V30 882 C 84.0016 -1.63568 -1.26701 0
M  V30 883 C 84.4166 -0.311465 -1.86213 0
M  V30 884 O 83.7736 0.704416 -1.68357 0
M  V30 885 C 83.8246 -2.71284 -2.38929 0
M  V30 886 O 83.5456 -3.9857 -1.81861 0
M  V30 887 C 85.0466 -2.95864 -3.3012 0
M  V30 888 H 82.2666 -0.550342 -0.383881 0
M  V30 889 H 84.8106 -1.95898 -0.586864 0
M  V30 890 H 82.9656 -2.417 -3.02753 0
M  V30 891 H 83.3796 -4.57993 -2.55622 0
M  V30 892 H 84.8536 -3.74941 -4.05121 0
M  V30 893 H 85.3306 -2.06206 -3.87783 0
M  V30 894 H 85.9366 -3.26907 -2.72051 0
M  V30 895 N 84.2517 0.741722 -1.39055 0
M  V30 896 C 85.1987 1.85566 -1.37237 0
M  V30 897 C 86.1687 1.64457 -0.233072 0
M  V30 898 O 87.3537 1.85957 -0.427147 0
M  V30 899 C 84.4937 3.23004 -1.215 0
M  V30 900 C 83.6067 3.55864 -2.44918 0
M  V30 901 C 82.7417 4.82669 -2.21821 0
M  V30 902 C 81.7807 5.08351 -3.40948 0
M  V30 903 N 80.9177 6.26356 -3.17211 0
M  V30 904 H 85.7577 1.86455 -2.32462 0
M  V30 905 H 83.2947 0.911176 -1.15482 0
M  V30 906 H 85.2527 4.02331 -1.10389 0
M  V30 907 H 83.8827 3.21411 -0.29908 0
M  V30 908 H 82.9347 2.7129 -2.66657 0
M  V30 909 H 84.2467 3.70765 -3.33668 0
M  V30 910 H 83.4007 5.69962 -2.07914 0
M  V30 911 H 82.1397 4.69929 -1.30454 0
M  V30 912 H 81.1447 4.19522 -3.55361 0
M  V30 913 H 82.3697 5.22981 -4.33207 0
M  V30 914 H 80.3157 6.14917 -2.28502 0
M  V30 915 H 80.2327 6.41813 -3.99515 0
M  V30 916 H 81.5007 7.16506 -3.06984 0
M  V30 917 N 85.7298 1.2412 0.971189 0
M  V30 918 C 86.9758 1.08041 1.71625 0
M  V30 919 C 87.3088 -0.380407 1.90438 0
M  V30 920 O 86.5838 -1.28127 1.46334 0
M  V30 921 C 86.8668 1.81682 3.10908 0
M  V30 922 C 86.7198 3.35493 2.99608 0
M  V30 923 C 88.0388 1.58671 4.10501 0
M  V30 924 H 85.1578 0.39388 0.622919 0
M  V30 925 H 87.7998 1.52743 1.13003 0
M  V30 926 H 85.9498 1.43684 3.60953 0
M  V30 927 H 87.6218 3.83068 2.57015 0
M  V30 928 H 85.8648 3.64052 2.35899 0
M  V30 929 H 86.5358 3.82217 3.98264 0
M  V30 930 H 89.0118 1.91719 3.69301 0
M  V30 931 H 87.8878 2.1266 5.06031 0
M  V30 932 H 88.1488 0.524161 4.38982 0
M  V30 933 N 87.2079 -1.17134 1.05439 0
M  V30 934 C 88.4359 -1.91372 0.786414 0
M  V30 935 C 88.8509 -1.76955 -0.658202 0
M  V30 936 O 88.2079 -1.10838 -1.44987 0
M  V30 937 C 88.2589 -3.42356 1.1608 0
M  V30 938 O 87.9799 -3.56332 2.54871 0
M  V30 939 C 89.4809 -4.33663 0.919322 0
M  V30 940 H 86.7009 -0.607118 0.285743 0
M  V30 941 H 89.2449 -1.48525 1.40572 0
M  V30 942 H 87.3999 -3.82939 0.586191 0
M  V30 943 H 87.8139 -4.49896 2.69618 0
M  V30 944 H 89.2879 -5.38099 1.231 0
M  V30 945 H 89.7649 -4.38959 -0.145359 0
M  V30 946 H 90.3709 -3.98796 1.47789 0
M  V30 947 N 88.686 -0.835752 -1.33615 0
M  V30 948 C 89.649 -0.272 -2.2758 0
M  V30 949 C 90.649 0.557487 -1.50827 0
M  V30 950 O 91.839 0.37173 -1.70188 0
M  V30 951 C 88.971 0.617173 -3.35267 0
M  V30 952 H 90.164 -1.10111 -2.78954 0
M  V30 953 H 87.717 -0.608594 -1.43965 0
M  V30 954 H 88.452 1.46884 -2.89129 0
M  V30 955 H 88.237 0.0237066 -3.92093 0
M  V30 956 H 89.727 1.005 -4.05326 0
M  V30 957 N 90.1641 1.46063 -0.591896 0
M  V30 958 C 91.4411 1.95595 -0.0137119 0
M  V30 959 C 91.8211 1.5345 1.4497 0
M  V30 960 O 91.1691 0.789543 2.14426 0
M  V30 961 C 91.3791 3.48453 -0.195373 0
M  V30 962 C 92.7271 4.24546 -0.0679765 0
M  V30 963 O 93.7511 3.55982 -0.124681 0
M  V30 964 O 92.6101 5.46467 0.0600579 0
M  V30 965 H 89.7041 0.825795 0.0446279 0
M  V30 966 H 92.2501 1.56303 -0.660859 0
M  V30 967 H 91.0221 3.72045 -1.21235 0
M  V30 968 H 90.6451 3.94597 0.487775 0
M  V30 969 N 91.6422 0.330177 1.54103 0
M  V30 970 C 92.8882 -0.270806 2.00984 0
M  V30 971 C 93.2212 -1.51265 1.21789 0
M  V30 972 O 92.4962 -1.92142 0.301927 0
M  V30 973 C 92.7792 -0.598339 3.55094 0
M  V30 974 C 92.6322 0.654674 4.4501 0
M  V30 975 C 93.9512 -1.41334 4.16789 0
M  V30 976 H 91.0702 -0.0969531 0.730595 0
M  V30 977 H 93.7122 0.448066 1.84641 0
M  V30 978 H 91.8622 -1.21078 3.69151 0
M  V30 979 H 93.5342 1.29285 4.42813 0
M  V30 980 H 91.7772 1.28224 4.14416 0
M  V30 981 H 92.4482 0.380944 5.50684 0
M  V30 982 H 94.9242 -0.895597 4.06347 0
M  V30 983 H 93.8002 -1.61127 5.24718 0
M  V30 984 H 94.0612 -2.41146 3.70541 0
M  V30 985 N 93.1203 -1.57491 0.0584922 0
M  V30 986 C 94.3693 -1.92155 -0.613146 0
M  V30 987 C 94.6823 -0.939334 -1.71569 0
M  V30 988 O 95.8883 -1.17829 -2.44599 0
M  V30 989 C 94.3443 -3.41303 -1.14195 0
M  V30 990 C 93.9523 -4.47944 -0.0711265 0
M  V30 991 C 95.6963 -3.84988 -1.78841 0
M  V30 992 C 93.6033 -5.88212 -0.613225 0
M  V30 993 H 92.5333 -0.717162 -0.232796 0
M  V30 994 H 95.1843 -1.83049 0.12857 0
M  V30 995 H 93.5663 -3.45437 -1.93621 0
M  V30 996 H 94.7403 -4.55408 0.702836 0
M  V30 997 H 93.0553 -4.13644 0.478313 0
M  V30 998 H 95.6523 -4.87159 -2.20408 0
M  V30 999 H 95.9953 -3.21632 -2.64308 0
M  V30 1000 H 96.5283 -3.83401 -1.06059 0
M  V30 1001 H 93.2673 -6.55183 0.203978 0
M  V30 1002 H 92.7873 -5.84294 -1.35501 0
M  V30 1003 H 94.4663 -6.37687 -1.09383 0
M  V30 1004 N 94.5984 0.214957 -1.56127 0
M  V30 1005 C 95.5464 1.28601 -1.93816 0
M  V30 1006 C 96.5404 1.48175 -0.821016 0
M  V30 1007 O 97.7464 1.49271 -1.0059 0
M  V30 1008 H 94.1214 0.431302 -0.616022 0
M  V30 1009 H 96.0924 0.940991 -2.83175 0
M  V30 1010 C 94.8414 2.62779 -2.27689 0
M  V30 1011 H 94.1644 2.48527 -3.13168 0
M  V30 1012 H 95.6044 3.36517 -2.57939 0
M  V30 1013 C 94.0634 3.18285 -1.10436 0
M  V30 1014 O 94.5934 4.00002 -0.368945 0
M  V30 1015 N 92.7994 2.7675 -0.886433 0
M  V30 1016 H 92.3464 2.10404 -1.48619 0
M  V30 1017 H 92.3044 3.14229 -0.103656 0
M  V30 1018 N 96.0765 1.50051 0.48192 0
M  V30 1019 C 97.0395 1.67584 1.5636 0
M  V30 1020 C 98.0395 0.546894 1.51214 0
M  V30 1021 O 99.2295 0.813725 1.54026 0
M  V30 1022 C 96.3615 1.691 2.96003 0
M  V30 1023 H 97.5545 2.64078 1.42136 0
M  V30 1024 H 95.1075 1.39369 0.707533 0
M  V30 1025 H 95.8425 0.742589 3.15684 0
M  V30 1026 H 95.6275 2.51105 3.01146 0
M  V30 1027 H 97.1175 1.84656 3.74556 0
M  V30 1028 N 97.5546 -0.734337 1.39446 0
M  V30 1029 C 98.5176 -1.83004 1.37994 0
M  V30 1030 C 99.5176 -1.58397 0.276938 0
M  V30 1031 O 100.708 -1.65785 0.534875 0
M  V30 1032 C 97.8396 -3.20802 1.1532 0
M  V30 1033 H 99.0326 -1.85694 2.35494 0
M  V30 1034 H 96.5856 -0.938059 1.25021 0
M  V30 1035 H 97.3206 -3.23772 0.185036 0
M  V30 1036 H 97.1056 -3.4006 1.95197 0
M  V30 1037 H 98.5956 -4.00862 1.17046 0
M  V30 1038 N 99.0327 -1.24633 -0.964593 0
M  V30 1039 C 99.9427 -1.05859 -2.09359 0
M  V30 1040 C 100.959 0.00148855 -1.74 0
M  V30 1041 O 102.135 -0.197346 -2.00431 0
M  V30 1042 C 99.1997 -0.668879 -3.40187 0
M  V30 1043 C 98.2607 -1.80578 -3.89474 0
M  V30 1044 C 97.4937 -1.43457 -5.14058 0
M  V30 1045 O 97.7167 -0.325775 -5.69469 0
M  V30 1046 O 96.6507 -2.2613 -5.57807 0
M  V30 1047 H 100.477 -2.00516 -2.28094 0
M  V30 1048 H 98.0617 -1.03481 -1.0776 0
M  V30 1049 H 99.9437 -0.463211 -4.18846 0
M  V30 1050 H 98.6187 0.248536 -3.22744 0
M  V30 1051 H 97.5257 -2.06623 -3.11862 0
M  V30 1052 H 98.8587 -2.70208 -4.11398 0
M  V30 1053 N 100.511 1.16574 -1.06058 0
M  V30 1054 C 101.458 2.20883 -0.669263 0
M  V30 1055 C 102.428 1.62729 0.332918 0
M  V30 1056 O 103.613 1.895 0.222346 0
M  V30 1057 C 100.753 3.45049 -0.0593572 0
M  V30 1058 C 99.8658 4.17458 -1.11143 0
M  V30 1059 C 99.0008 5.29135 -0.467916 0
M  V30 1060 C 98.0398 5.93343 -1.50369 0
M  V30 1061 N 97.1768 6.96516 -0.883706 0
M  V30 1062 H 102.017 2.53709 -1.5632 0
M  V30 1063 H 99.5538 1.24616 -0.781625 0
M  V30 1064 H 101.512 4.16033 0.311771 0
M  V30 1065 H 100.142 3.12781 0.797992 0
M  V30 1066 H 99.1938 3.45101 -1.60029 0
M  V30 1067 H 100.506 4.61307 -1.89731 0
M  V30 1068 H 99.6598 6.06684 -0.0436871 0
M  V30 1069 H 98.3988 4.86443 0.349864 0
M  V30 1070 H 97.4038 5.14517 -1.93784 0
M  V30 1071 H 98.6288 6.38114 -2.32352 0
M  V30 1072 H 96.5748 6.55943 -0.086595 0
M  V30 1073 H 96.4918 7.38723 -1.607 0
M  V30 1074 H 97.7598 7.77993 -0.484543 0
M  V30 1075 N 101.989 0.842826 1.3317 0
M  V30 1076 C 102.919 0.294028 2.31641 0
M  V30 1077 C 103.9 -0.600401 1.59151 0
M  V30 1078 O 105.085 -0.523124 1.87022 0
M  V30 1079 C 102.215 -0.528416 3.43257 0
M  V30 1080 C 101.169 0.27056 4.27144 0
M  V30 1081 C 100.495 -0.675881 5.30411 0
M  V30 1082 C 101.795 1.48981 5.00602 0
M  V30 1083 H 103.489 1.11681 2.77791 0
M  V30 1084 H 101.035 0.538478 1.33553 0
M  V30 1085 H 102.988 -0.922674 4.11175 0
M  V30 1086 H 101.712 -1.38445 2.95805 0
M  V30 1087 H 100.371 0.646427 3.60856 0
M  V30 1088 H 100.019 -1.52842 4.79216 0
M  V30 1089 H 99.7189 -0.145374 5.8742 0
M  V30 1090 H 101.243 -1.06757 6.01195 0
M  V30 1091 H 102.657 1.16849 5.61266 0
M  V30 1092 H 101.054 1.95739 5.6728 0
M  V30 1093 H 102.124 2.25746 4.29147 0
M  V30 1094 N 103.467 -1.45747 0.599634 0
M  V30 1095 C 104.399 -2.28628 -0.161879 0
M  V30 1096 C 105.412 -1.39494 -0.839367 0
M  V30 1097 O 106.601 -1.63941 -0.706089 0
M  V30 1098 C 103.701 -3.15014 -1.24976 0
M  V30 1099 C 102.874 -4.32378 -0.660935 0
M  V30 1100 C 101.933 -5.00033 -1.63869 0
M  V30 1101 O 100.959 -5.57085 -1.1681 0
M  V30 1102 N 102.161 -4.98589 -2.97303 0
M  V30 1103 H 104.926 -2.94624 0.549265 0
M  V30 1104 H 102.487 -1.55847 0.438565 0
M  V30 1105 H 104.479 -3.5714 -1.9035 0
M  V30 1106 H 103.049 -2.5098 -1.86354 0
M  V30 1107 H 102.269 -3.9383 0.170688 0
M  V30 1108 H 103.557 -5.08197 -0.247619 0
M  V30 1109 H 102.955 -4.53514 -3.38145 0
M  V30 1110 H 101.512 -5.44603 -3.58121 0
M  V30 1111 N 104.945 -0.338344 -1.53925 0
M  V30 1112 C 106.191 0.260143 -2.01125 0
M  V30 1113 C 106.524 1.50617 -1.22589 0
M  V30 1114 O 105.799 1.91979 -0.312113 0
M  V30 1115 C 106.082 0.579499 -3.55407 0
M  V30 1116 C 105.935 -0.678264 -4.44657 0
M  V30 1117 C 107.254 1.39122 -4.17532 0
M  V30 1118 H 104.373 0.0930772 -0.731099 0
M  V30 1119 H 107.015 -0.457852 -1.84401 0
M  V30 1120 H 105.165 1.19118 -3.69788 0
M  V30 1121 H 106.837 -1.31631 -4.42121 0
M  V30 1122 H 105.08 -1.3042 -4.13731 0
M  V30 1123 H 105.751 -0.410143 -5.50474 0
M  V30 1124 H 108.227 0.874035 -4.06817 0
M  V30 1125 H 107.103 1.58342 -5.25565 0
M  V30 1126 H 107.364 2.39178 -3.71815 0
M  V30 1127 N 106.423 1.57458 -0.0668435 0
M  V30 1128 C 107.669 1.93587 0.6043 0
M  V30 1129 C 108.002 0.946722 1.69561 0
M  V30 1130 O 107.277 -0.0248516 1.94484 0
M  V30 1131 C 107.56 3.40014 1.18585 0
M  V30 1132 C 107.413 4.49685 0.101529 0
M  V30 1133 C 108.732 3.87154 2.09284 0
M  V30 1134 H 105.851 0.703958 0.218202 0
M  V30 1135 H 108.493 1.89542 -0.131804 0
M  V30 1136 H 106.643 3.43592 1.81319 0
M  V30 1137 H 108.315 4.5823 -0.531279 0
M  V30 1138 H 106.558 4.30059 -0.568487 0
M  V30 1139 H 107.229 5.49266 0.54874 0
M  V30 1140 H 109.705 3.85551 1.56491 0
M  V30 1141 H 108.581 4.90231 2.46911 0
M  V30 1142 H 108.842 3.2481 2.99918 0
M  V30 1143 N 107.901 -0.206675 1.56239 0
M  V30 1144 C 109.149 -0.927007 1.79586 0
M  V30 1145 C 109.47 -1.8427 0.637929 0
M  V30 1146 O 108.74 -1.92849 -0.344398 0
M  V30 1147 H 107.32 -0.345292 0.662407 0
M  V30 1148 H 109.982 -0.21496 1.93711 0
M  V30 1149 H 109.078 -1.52501 2.72305 0
M  V30 1150 N 109.379 -1.50304 -0.473955 0
M  V30 1151 C 110.795 -1.37667 -0.807466 0
M  V30 1152 C 110.995 -0.430555 -1.96846 0
M  V30 1153 O 110.051 0.127874 -2.52176 0
M  V30 1154 C 111.364 -2.78974 -1.12223 0
M  V30 1155 C 112.912 -2.87868 -1.22885 0
M  V30 1156 C 113.387 -4.30003 -1.57676 0
M  V30 1157 N 114.878 -4.3294 -1.64673 0
M  V30 1158 C 115.613 -5.3991 -1.93091 0
M  V30 1159 N 115.109 -6.57092 -2.1955 0
M  V30 1160 N 116.902 -5.27351 -1.94569 0
M  V30 1161 H 109.053 -2.10394 0.291212 0
M  V30 1162 H 111.316 -0.945575 0.0677609 0
M  V30 1163 H 111.022 -3.50031 -0.342229 0
M  V30 1164 H 110.896 -3.16038 -2.05913 0
M  V30 1165 H 113.283 -2.17032 -1.99953 0
M  V30 1166 H 113.364 -2.54352 -0.271814 0
M  V30 1167 H 113.008 -5.01375 -0.81149 0
M  V30 1168 H 112.938 -4.61004 -2.54525 0
M  V30 1169 H 115.429 -3.48441 -1.46277 0
M  V30 1170 H 115.742 -7.34425 -2.405 0
M  V30 1171 H 114.087 -6.60272 -2.16948 0
M  V30 1172 H 117.278 -4.34801 -1.73394 0
M  V30 1173 H 117.451 -6.10805 -2.16381 0
M  V30 1174 N 110.857 0.726932 -1.39834 0
M  V30 1175 C 111.82 1.82269 -1.38962 0
M  V30 1176 C 112.82 1.58248 -0.285334 0
M  V30 1177 O 114.01 1.65499 -0.54366 0
M  V30 1178 C 111.142 3.20186 -1.17019 0
M  V30 1179 H 112.335 1.84443 -2.36476 0
M  V30 1180 H 109.888 0.931416 -1.25516 0
M  V30 1181 H 110.623 3.23669 -0.202204 0
M  V30 1182 H 110.408 3.3902 -1.96998 0
M  V30 1183 H 111.898 4.00235 -1.1917 0
M  V30 1184 N 112.336 1.25143 0.95797 0
M  V30 1185 C 113.584 1.09476 1.69881 0
M  V30 1186 C 113.905 -0.365502 1.91544 0
M  V30 1187 O 113.175 -1.25985 1.50015 0
M  V30 1188 H 111.755 0.402128 0.629525 0
M  V30 1189 H 114.417 1.57214 1.15194 0
M  V30 1190 H 113.513 1.60046 2.6794 0
M  V30 1191 N 113.814 -1.1601 1.06675 0
M  V30 1192 C 115.042 -1.90527 0.806667 0
M  V30 1193 C 115.457 -1.77643 -0.639396 0
M  V30 1194 O 114.814 -1.12369 -1.43803 0
M  V30 1195 C 114.865 -3.41106 1.19705 0
M  V30 1196 O 114.586 -3.53608 2.58636 0
M  V30 1197 C 116.087 -4.32663 0.965266 0
M  V30 1198 H 113.307 -0.604053 0.292166 0
M  V30 1199 H 115.851 -1.47026 1.4214 0
M  V30 1200 H 114.006 -3.82296 0.626774 0
M  V30 1201 H 114.42 -4.47011 2.74375 0
M  V30 1202 H 115.894 -5.36763 1.288 0
M  V30 1203 H 116.371 -4.39089 -0.0987936 0
M  V30 1204 H 116.977 -3.97206 1.52011 0
M  V30 1205 N 115.292 -0.849877 -1.32721 0
M  V30 1206 C 116.54 -0.450032 -1.97026 0
M  V30 1207 C 116.861 0.996604 -1.67609 0
M  V30 1208 O 116.131 1.6958 -0.980786 0
M  V30 1209 H 114.711 -0.163426 -0.728904 0
M  V30 1210 H 117.373 -1.08526 -1.6189 0
M  V30 1211 H 116.469 -0.591146 -3.0645 0
M  V30 1212 N 116.77 1.45427 -0.607355 0
M  V30 1213 C 118.016 2.0254 -0.102607 0
M  V30 1214 C 118.349 1.47478 1.26348 0
M  V30 1215 O 117.624 0.64939 1.83339 0
M  V30 1216 C 117.907 3.60044 -0.0634347 0
M  V30 1217 C 117.76 4.2544 -1.46017 0
M  V30 1218 C 119.079 4.35646 0.624514 0
M  V30 1219 H 116.198 0.73598 -0.0387607 0
M  V30 1220 H 118.84 1.73284 -0.779282 0
M  V30 1221 H 116.99 3.85101 0.512808 0
M  V30 1222 H 118.662 4.11569 -2.08347 0
M  V30 1223 H 116.905 3.83849 -2.02094 0
M  V30 1224 H 117.576 5.34342 -1.385 0
M  V30 1225 H 120.052 4.15882 0.134723 0
M  V30 1226 H 118.928 5.45376 0.621028 0
M  V30 1227 H 119.189 4.08501 1.69055 0
M  V30 1228 N 118.248 0.346503 1.53744 0
M  V30 1229 C 119.525 -0.304532 1.93215 0
M  V30 1230 C 119.905 -1.67993 1.27834 0
M  V30 1231 O 119.253 -2.24411 0.430352 0
M  V30 1232 C 119.463 -0.373852 3.46992 0
M  V30 1233 C 120.811 -0.62329 4.2 0
M  V30 1234 O 121.835 -0.455847 3.53271 0
M  V30 1235 O 120.694 -0.947879 5.38217 0
M  V30 1236 H 117.788 -0.178318 0.807547 0
M  V30 1237 H 120.334 0.397895 1.64969 0
M  V30 1238 H 119.106 0.591224 3.86808 0
M  V30 1239 H 118.729 -1.12294 3.81413 0
M  V30 1240 N 119.726 -1.57421 0.075193 0
M  V30 1241 C 120.674 -2.14124 -0.908508 0
M  V30 1242 C 121.668 -1.07898 -1.30592 0
M  V30 1243 O 122.874 -1.26273 -1.28277 0
M  V30 1244 H 119.249 -0.684707 -0.310935 0
M  V30 1245 H 121.22 -2.95634 -0.405374 0
M  V30 1246 C 119.969 -2.72044 -2.16535 0
M  V30 1247 H 119.292 -3.53456 -1.86839 0
M  V30 1248 H 120.732 -3.15311 -2.83469 0
M  V30 1249 C 119.191 -1.66968 -2.92615 0
M  V30 1250 O 119.721 -1.0967 -3.86439 0
M  V30 1251 N 117.927 -1.37923 -2.55784 0
M  V30 1252 H 117.474 -1.84706 -1.79559 0
M  V30 1253 H 117.432 -0.67852 -3.06991 0
M  V30 1254 N 121.204 0.198386 -1.56346 0
M  V30 1255 C 122.45 0.920648 -1.80698 0
M  V30 1256 C 122.783 1.83045 -0.648697 0
M  V30 1257 O 122.058 1.91308 0.350925 0
M  V30 1258 C 122.341 1.73971 -3.15287 0
M  V30 1259 C 122.194 0.85485 -4.41602 0
M  V30 1260 C 123.513 2.71296 -3.46535 0
M  V30 1261 H 120.632 0.333261 -0.657348 0
M  V30 1262 H 123.274 0.188198 -1.89066 0
M  V30 1263 H 121.424 2.36416 -3.08285 0
M  V30 1264 H 123.096 0.245362 -4.60647 0
M  V30 1265 H 121.339 0.161398 -4.335 0
M  V30 1266 H 122.01 1.46286 -5.32264 0
M  V30 1267 H 124.486 2.18983 -3.53816 0
M  V30 1268 H 123.362 3.2569 -4.41834 0
M  V30 1269 H 123.623 3.5018 -2.69864 0
M  V30 1270 N 122.682 1.50554 0.465978 0
M  V30 1271 C 123.959 1.5232 1.22712 0
M  V30 1272 C 124.339 0.270807 2.09356 0
M  V30 1273 O 123.687 -0.745541 2.15995 0
M  V30 1274 C 123.897 2.82175 2.05374 0
M  V30 1275 C 125.245 3.33033 2.6339 0
M  V30 1276 O 126.269 2.83531 2.15612 0
M  V30 1277 O 125.128 4.19336 3.50456 0
M  V30 1278 H 122.222 0.611183 0.557122 0
M  V30 1279 H 124.768 1.62847 0.477381 0
M  V30 1280 H 123.54 3.64797 1.41558 0
M  V30 1281 H 123.163 2.74675 2.87471 0
M  V30 1282 N 124.16 -0.719506 1.40217 0
M  V30 1283 C 125.09 -1.8465 1.42922 0
M  V30 1284 C 126.071 -1.67599 0.29062 0
M  V30 1285 O 127.256 -1.87688 0.498677 0
M  V30 1286 C 124.386 -3.22565 1.28722 0
M  V30 1287 C 123.34 -3.54281 2.40144 0
M  V30 1288 C 122.666 -4.91298 2.11023 0
M  V30 1289 C 123.966 -3.55676 3.82481 0
M  V30 1290 H 125.66 -1.82644 2.37237 0
M  V30 1291 H 123.206 -0.877305 1.1419 0
M  V30 1292 H 125.159 -4.01095 1.29232 0
M  V30 1293 H 123.883 -3.25137 0.308811 0
M  V30 1294 H 122.542 -2.78088 2.38877 0
M  V30 1295 H 122.19 -4.90468 1.11582 0
M  V30 1296 H 121.89 -5.13485 2.8567 0
M  V30 1297 H 123.414 -5.72166 2.13209 0
M  V30 1298 H 124.828 -4.24254 3.85592 0
M  V30 1299 H 123.225 -3.89388 4.56614 0
M  V30 1300 H 124.295 -2.55144 4.12346 0
M  V30 1301 N 125.638 -1.25649 -0.95132 0
M  V30 1302 C 126.548 -1.08073 -2.08224 0
M  V30 1303 C 127.564 -0.0169666 -1.73992 0
M  V30 1304 O 128.74 -0.218593 -2.0021 0
M  V30 1305 C 125.805 -0.704922 -3.39458 0
M  V30 1306 C 124.866 -1.84699 -3.87537 0
M  V30 1307 C 124.099 -1.48902 -5.12508 0
M  V30 1308 O 124.322 -0.386156 -5.69091 0
M  V30 1309 O 123.256 -2.32033 -5.55378 0
M  V30 1310 H 127.082 -2.02924 -2.25954 0
M  V30 1311 H 124.667 -1.04618 -1.06656 0
M  V30 1312 H 126.549 -0.507609 -4.18332 0
M  V30 1313 H 125.224 0.214291 -3.2299 0
M  V30 1314 H 124.131 -2.09919 -3.09653 0
M  V30 1315 H 125.464 -2.74557 -4.08509 0
M  V30 1316 N 127.117 1.15442 -1.07289 0
M  V30 1317 C 128.08 2.18358 -0.696591 0
M  V30 1318 C 129.08 1.58637 0.262837 0
M  V30 1319 O 130.27 1.74145 0.0438809 0
M  V30 1320 C 127.402 3.4089 -0.0266151 0
M  V30 1321 H 128.595 2.53162 -1.60776 0
M  V30 1322 H 126.148 1.29893 -0.869342 0
M  V30 1323 H 126.883 3.11653 0.896822 0
M  V30 1324 H 126.668 3.85495 -0.716657 0
M  V30 1325 H 128.158 4.17009 0.222028 0
M  V30 1326 N 128.595 0.856903 1.32268 0
M  V30 1327 C 129.558 0.308171 2.27119 0
M  V30 1328 C 130.558 -0.533421 1.51695 0
M  V30 1329 O 131.748 -0.344607 1.70757 0
M  V30 1330 C 128.88 -0.563757 3.36206 0
M  V30 1331 H 130.073 1.14535 2.77167 0
M  V30 1332 H 127.626 0.631421 1.42978 0
M  V30 1333 H 128.361 -1.42266 2.91429 0
M  V30 1334 H 128.146 0.0386749 3.92081 0
M  V30 1335 H 129.636 -0.940386 4.06874 0
M  V30 1336 N 130.073 -1.45103 0.615059 0
M  V30 1337 C 131.301 -2.06553 0.11977 0
M  V30 1338 C 131.716 -1.45842 -1.19898 0
M  V30 1339 O 131.073 -0.575325 -1.73194 0
M  V30 1340 C 131.124 -3.61495 -0.018364 0
M  V30 1341 O 130.845 -4.19942 1.24822 0
M  V30 1342 C 132.346 -4.39947 -0.544237 0
M  V30 1343 H 129.566 -0.667096 0.0722739 0
M  V30 1344 H 132.11 -1.8623 0.84491 0
M  V30 1345 H 130.265 -3.81135 -0.693865 0
M  V30 1346 H 130.679 -5.13204 1.0827 0
M  V30 1347 H 132.153 -5.48838 -0.589953 0
M  V30 1348 H 132.63 -4.10255 -1.56805 0
M  V30 1349 H 133.236 -4.25188 0.0974703 0
M  V30 1350 N 131.551 -0.354651 -1.53558 0
M  V30 1351 C 132.967 -0.00315426 -1.596 0
M  V30 1352 C 133.167 1.47741 -1.37021 0
M  V30 1353 O 132.223 2.23759 -1.16996 0
M  V30 1354 C 133.536 -0.44929 -2.97325 0
M  V30 1355 C 135.084 -0.402578 -3.104 0
M  V30 1356 C 135.559 -0.824355 -4.5052 0
M  V30 1357 N 137.05 -0.778979 -4.56603 0
M  V30 1358 C 137.785 -1.07715 -5.63192 0
M  V30 1359 N 137.281 -1.44405 -6.77583 0
M  V30 1360 N 139.074 -1.00066 -5.53121 0
M  V30 1361 H 131.225 -1.31893 -1.66487 0
M  V30 1362 H 133.488 -0.538388 -0.780284 0
M  V30 1363 H 133.194 -1.48202 -3.1895 0
M  V30 1364 H 133.068 0.169772 -3.76818 0
M  V30 1365 H 135.455 0.621004 -2.88492 0
M  V30 1366 H 135.536 -1.05699 -2.32941 0
M  V30 1367 H 135.18 -1.846 -4.73165 0
M  V30 1368 H 135.11 -0.147304 -5.26394 0
M  V30 1369 H 137.601 -0.508528 -3.74463 0
M  V30 1370 H 137.914 -1.65612 -7.54846 0
M  V30 1371 H 136.259 -1.4826 -6.79002 0
M  V30 1372 H 139.45 -0.713293 -4.62633 0
M  V30 1373 H 139.623 -1.23638 -6.36096 0
M  V30 1374 N 133.029 1.57378 -0.0835403 0
M  V30 1375 C 133.976 2.13384 0.879539 0
M  V30 1376 C 134.946 1.04936 1.28754 0
M  V30 1377 O 136.131 1.32662 1.37133 0
M  V30 1378 C 133.271 2.70932 2.13752 0
M  V30 1379 C 132.384 3.93575 1.7811 0
M  V30 1380 C 131.519 4.39326 2.98607 0
M  V30 1381 C 130.558 5.54587 2.59037 0
M  V30 1382 N 129.695 5.95243 3.72331 0
M  V30 1383 H 134.535 2.9537 0.395076 0
M  V30 1384 H 132.072 1.45953 0.183349 0
M  V30 1385 H 134.03 3.02411 2.87408 0
M  V30 1386 H 132.66 1.91693 2.59718 0
M  V30 1387 H 131.712 3.68483 0.94469 0
M  V30 1388 H 133.024 4.77258 1.45005 0
M  V30 1389 H 132.178 4.72528 3.80529 0
M  V30 1390 H 130.917 3.5452 3.34913 0
M  V30 1391 H 129.922 5.21024 1.75539 0
M  V30 1392 H 131.147 6.41133 2.23887 0
M  V30 1393 H 129.093 5.13385 4.08378 0
M  V30 1394 H 129.01 6.73694 3.43034 0
M  V30 1395 H 130.278 6.33072 4.54797 0
M  V30 1396 N 134.507 -0.190092 1.56449 0
M  V30 1397 C 135.755 -0.907908 1.80559 0
M  V30 1398 C 136.076 -1.83583 0.657438 0
M  V30 1399 O 135.346 -1.93203 -0.323924 0
M  V30 1400 H 133.926 -0.338247 0.666032 0
M  V30 1401 H 136.588 -0.194403 1.93928 0
M  V30 1402 H 135.684 -1.49604 2.73907 0
M  V30 1403 N 135.985 -1.50799 -0.457987 0
M  V30 1404 C 137.234 -1.6168 -1.20593 0
M  V30 1405 C 137.547 -0.32888 -1.92815 0
M  V30 1406 O 138.753 -0.316773 -2.69646 0
M  V30 1407 C 137.209 -2.8545 -2.19195 0
M  V30 1408 C 136.817 -4.21168 -1.52715 0
M  V30 1409 C 138.561 -3.05681 -2.94549 0
M  V30 1410 C 136.468 -5.3611 -2.4968 0
M  V30 1411 H 135.398 -0.602134 -0.453818 0
M  V30 1412 H 138.049 -1.77245 -0.475031 0
M  V30 1413 H 136.431 -2.63472 -2.95632 0
M  V30 1414 H 137.605 -4.53449 -0.819775 0
M  V30 1415 H 135.92 -4.06648 -0.895922 0
M  V30 1416 H 138.517 -3.88727 -3.67145 0
M  V30 1417 H 138.86 -2.17929 -3.54701 0
M  V30 1418 H 139.393 -3.27901 -2.25223 0
M  V30 1419 H 136.132 -6.26057 -1.94249 0
M  V30 1420 H 135.652 -5.0823 -3.18532 0
M  V30 1421 H 137.331 -5.6722 -3.11241 0
M  V30 1422 N 137.463 0.71206 -1.40597 0
M  V30 1423 C 138.393 1.83889 -1.43899 0
M  V30 1424 C 139.374 1.67442 -0.299504 0
M  V30 1425 O 140.559 1.87421 -0.508624 0
M  V30 1426 C 137.689 3.21877 -1.30431 0
M  V30 1427 C 136.643 3.53002 -2.42019 0
M  V30 1428 C 135.969 4.90172 -2.13626 0
M  V30 1429 C 137.269 3.53643 -3.84362 0
M  V30 1430 H 138.963 1.81383 -2.38203 0
M  V30 1431 H 136.509 0.871237 -1.14654 0
M  V30 1432 H 138.462 4.00404 -1.31357 0
M  V30 1433 H 137.186 3.24968 -0.326049 0
M  V30 1434 H 135.845 2.76818 -2.40349 0
M  V30 1435 H 135.493 4.89869 -1.14182 0
M  V30 1436 H 135.193 5.11962 -2.88389 0
M  V30 1437 H 136.717 5.71028 -2.1624 0
M  V30 1438 H 138.131 4.22203 -3.87837 0
M  V30 1439 H 136.528 3.86961 -4.58673 0
M  V30 1440 H 137.598 2.52954 -4.13693 0
M  V30 1441 N 138.941 1.26152 0.944643 0
M  V30 1442 C 140.187 1.11657 1.69294 0
M  V30 1443 C 140.52 -0.339926 1.91202 0
M  V30 1444 O 139.795 -1.24994 1.49019 0
M  V30 1445 C 140.078 1.88236 3.06984 0
M  V30 1446 C 139.931 3.41772 2.92424 0
M  V30 1447 C 141.25 1.67343 4.07043 0
M  V30 1448 H 138.369 0.407004 0.614424 0
M  V30 1449 H 141.011 1.55106 1.09737 0
M  V30 1450 H 139.161 1.51308 3.57824 0
M  V30 1451 H 140.833 3.88433 2.48832 0
M  V30 1452 H 139.076 3.68974 2.28124 0
M  V30 1453 H 139.747 3.90579 3.90067 0
M  V30 1454 H 142.223 1.99509 3.65151 0
M  V30 1455 H 141.099 2.23346 5.01406 0
M  V30 1456 H 141.36 0.617158 4.37771 0
M  V30 1457 N 140.419 -1.14872 1.07899 0
M  V30 1458 C 141.352 -2.18794 0.64841 0
M  V30 1459 C 142.33 -1.59065 -0.337189 0
M  V30 1460 O 143.514 -1.86936 -0.242284 0
M  V30 1461 C 140.641 -3.38667 -0.0470417 0
M  V30 1462 C 139.687 -4.16942 0.897884 0
M  V30 1463 S 140.52 -4.78615 2.40183 0
M  V30 1464 C 141.676 -6.0185 1.71834 0
M  V30 1465 H 141.909 -2.5498 1.52881 0
M  V30 1466 H 139.442 -1.25922 0.893484 0
M  V30 1467 H 141.4 -4.08113 -0.442027 0
M  V30 1468 H 140.061 -3.00814 -0.903861 0
M  V30 1469 H 139.254 -5.02726 0.358096 0
M  V30 1470 H 138.856 -3.53073 1.23352 0
M  V30 1471 H 141.148 -6.69574 1.03328 0
M  V30 1472 H 142.091 -6.60408 2.55473 0
M  V30 1473 H 142.499 -5.5173 1.19392 0
M  V30 1474 N 141.898 -0.863906 -1.31812 0
M  V30 1475 C 142.846 -0.30422 -2.30602 0
M  V30 1476 C 143.84 0.577419 -1.59255 0
M  V30 1477 O 145.046 0.464194 -1.73912 0
M  V30 1478 H 141.421 -0.0796877 -0.747766 0
M  V30 1479 H 143.392 -1.15148 -2.75288 0
M  V30 1480 C 142.141 0.484617 -3.44306 0
M  V30 1481 H 141.464 -0.18451 -3.99374 0
M  V30 1482 H 142.904 0.841664 -4.15562 0
M  V30 1483 C 141.363 1.6735 -2.92396 0
M  V30 1484 O 141.893 2.77273 -2.90659 0
M  V30 1485 N 140.099 1.50362 -2.48676 0
M  V30 1486 H 139.646 0.609402 -2.50288 0
M  V30 1487 H 139.604 2.30051 -2.14299 0
M  V30 1488 N 143.376 1.44774 -0.622745 0
M  V30 1489 C 144.604 2.06487 -0.130722 0
M  V30 1490 C 145.019 1.46476 1.19123 0
M  V30 1491 O 144.376 0.584502 1.72887 0
M  V30 1492 C 144.427 3.615 -0.000807207 0
M  V30 1493 O 144.148 4.19274 -1.27048 0
M  V30 1494 C 145.649 4.40229 0.520898 0
M  V30 1495 H 142.869 0.666704 -0.0758106 0
M  V30 1496 H 145.413 1.85779 -0.854774 0
M  V30 1497 H 143.568 3.81498 0.673643 0
M  V30 1498 H 143.982 5.12622 -1.1099 0
M  V30 1499 H 145.456 5.49144 0.560838 0
M  V30 1500 H 145.933 4.1108 1.54627 0
M  V30 1501 H 146.539 4.25131 -0.120018 0
M  V30 1502 N 144.854 0.36279 1.53368 0
M  V30 1503 C 146.265 -0.117022 1.86333 0
M  V30 1504 C 146.616 -1.48397 1.28347 0
M  V30 1505 O 145.741 -2.07787 0.604428 0
M  V30 1506 C 146.336 -0.21912 3.38091 0
M  V30 1507 C 144.895 -0.643184 3.70864 0
M  V30 1508 C 144.042 0.211318 2.76494 0
M  V30 1509 H 146.993 0.581687 1.47655 0
M  V30 1510 H 147.014 -1.04319 3.6592 0
M  V30 1511 H 146.526 0.775902 3.80265 0
M  V30 1512 H 144.627 -1.64654 3.34245 0
M  V30 1513 H 144.74 -0.41973 4.77258 0
M  V30 1514 H 143.104 -0.319367 2.5269 0
M  V30 1515 H 143.887 1.20383 3.21501 0
M  V30 1516 N 146.332 -1.57332 0.0918853 0
M  V30 1517 C 147.28 -2.15075 -0.885747 0
M  V30 1518 C 148.274 -1.09277 -1.29441 0
M  V30 1519 O 149.48 -1.27627 -1.26931 0
M  V30 1520 H 145.855 -0.687966 -0.303656 0
M  V30 1521 H 147.826 -2.96047 -0.373995 0
M  V30 1522 C 146.575 -2.74325 -2.13638 0
M  V30 1523 H 145.898 -3.55418 -1.8308 0
M  V30 1524 H 147.338 -3.183 -2.80109 0
M  V30 1525 C 145.797 -1.70062 -2.90827 0
M  V30 1526 O 146.327 -1.13763 -3.85254 0
M  V30 1527 N 144.533 -1.40628 -2.54307 0
M  V30 1528 H 144.08 -1.866 -1.7759 0
M  V30 1529 H 144.038 -0.711043 -3.06254 0
M  V30 1530 N 147.81 0.181792 -1.56548 0
M  V30 1531 C 149.058 0.89832 -1.81038 0
M  V30 1532 C 149.379 1.83232 -0.667164 0
M  V30 1533 O 148.649 1.93372 0.313673 0
M  V30 1534 H 147.229 0.33471 -0.667816 0
M  V30 1535 H 149.891 0.184116 -1.94028 0
M  V30 1536 H 148.987 1.4815 -2.74696 0
M  V30 1537 N 149.288 1.51039 0.449983 0
M  V30 1538 C 150.236 1.71995 1.5659 0
M  V30 1539 C 151.23 0.586029 1.5894 0
M  V30 1540 O 152.436 0.76709 1.62837 0
M  V30 1541 H 148.811 0.543233 0.520001 0
M  V30 1542 H 150.782 2.65562 1.36085 0
M  V30 1543 C 149.531 1.8506 2.9436 0
M  V30 1544 H 148.854 2.71712 2.93279 0
M  V30 1545 H 150.294 2.0374 3.71842 0
M  V30 1546 C 148.753 0.607277 3.31382 0
M  V30 1547 O 149.283 -0.243903 4.00959 0
M  V30 1548 N 147.489 0.455073 2.87015 0
M  V30 1549 H 147.036 1.14879 2.30566 0
M  V30 1550 H 146.994 -0.375611 3.12148 0
M  V30 1551 N 150.766 -0.704594 1.40972 0
M  V30 1552 C 151.991 -1.49858 1.43378 0
M  V30 1553 C 152.416 -1.88061 0.038184 0
M  V30 1554 O 151.774 -1.5402 -0.956425 0
M  V30 1555 C 151.822 -2.74333 2.34038 0
M  V30 1556 O 150.926 -3.7147 1.7912 0
M  V30 1557 H 150.267 -0.45139 0.486974 0
M  V30 1558 H 152.797 -0.866832 1.8533 0
M  V30 1559 H 152.807 -3.22741 2.49604 0
M  V30 1560 H 151.482 -2.45863 3.35446 0
M  V30 1561 H 150.059 -3.30363 1.72958 0
M  V30 1562 N 152.244 -1.26651 -0.937939 0
M  V30 1563 C 153.174 -1.10993 -2.05433 0
M  V30 1564 C 154.155 -0.0142161 -1.70094 0
M  V30 1565 O 155.34 -0.186837 -1.93299 0
M  V30 1566 C 152.47 -0.745561 -3.39203 0
M  V30 1567 C 151.424 -1.79337 -3.88616 0
M  V30 1568 C 150.75 -1.28324 -5.19073 0
M  V30 1569 C 152.05 -3.19553 -4.13138 0
M  V30 1570 H 153.744 -2.0438 -2.1879 0
M  V30 1571 H 151.29 -0.984041 -1.05131 0
M  V30 1572 H 153.243 -0.622888 -4.16771 0
M  V30 1573 H 151.967 0.22401 -3.25831 0
M  V30 1574 H 150.626 -1.90477 -3.13231 0
M  V30 1575 H 150.274 -0.303414 -5.02084 0
M  V30 1576 H 149.974 -1.98369 -5.53103 0
M  V30 1577 H 151.498 -1.1733 -5.99221 0
M  V30 1578 H 152.912 -3.11471 -4.81309 0
M  V30 1579 H 151.309 -3.87218 -4.58457 0
M  V30 1580 H 152.379 -3.65368 -3.18801 0
M  V30 1581 N 153.722 1.14298 -1.08507 0
M  V30 1582 C 154.947 1.8976 -0.837001 0
M  V30 1583 C 155.372 1.78097 0.605228 0
M  V30 1584 O 154.73 1.12188 1.4242 0
M  V30 1585 C 154.778 3.37685 -1.26495 0
M  V30 1586 O 153.882 4.10281 -0.417514 0
M  V30 1587 H 153.223 0.590365 -0.303917 0
M  V30 1588 H 155.753 1.44672 -1.44676 0
M  V30 1589 H 155.763 3.88501 -1.24625 0
M  V30 1590 H 154.438 3.45492 -2.31534 0
M  V30 1591 H 153.015 3.69536 -0.499722 0
M  V30 1592 N 155.201 0.870884 1.31352 0
M  V30 1593 C 156.164 0.332243 2.26779 0
M  V30 1594 C 157.164 -0.517302 1.52252 0
M  V30 1595 O 158.354 -0.326477 1.71113 0
M  V30 1596 C 155.486 -0.528066 3.36785 0
M  V30 1597 H 156.679 1.17469 2.75937 0
M  V30 1598 H 154.232 0.64655 1.423 0
M  V30 1599 H 154.967 -1.39167 2.92922 0
M  V30 1600 H 154.752 0.0802582 3.92018 0
M  V30 1601 H 156.242 -0.897179 4.07849 0
M  V30 1602 N 156.679 -1.44442 0.630414 0
M  V30 1603 C 157.642 -2.29107 -0.0652523 0
M  V30 1604 C 158.642 -1.41002 -0.772995 0
M  V30 1605 O 159.832 -1.62881 -0.617692 0
M  V30 1606 C 156.964 -3.22564 -1.10296 0
M  V30 1607 H 158.157 -2.92103 0.679401 0
M  V30 1608 H 155.71 -1.51343 0.390517 0
M  V30 1609 H 156.445 -2.64416 -1.87762 0
M  V30 1610 H 156.23 -3.87491 -0.59941 0
M  V30 1611 H 157.72 -3.86167 -1.5895 0
M  V30 1612 N 158.157 -0.370918 -1.53173 0
M  V30 1613 C 159.067 0.480823 -2.2962 0
M  V30 1614 C 160.083 1.08789 -1.35798 0
M  V30 1615 O 161.259 1.09768 -1.68858 0
M  V30 1616 C 158.324 1.60227 -3.07454 0
M  V30 1617 C 157.385 1.0222 -4.16953 0
M  V30 1618 C 156.618 2.0902 -4.91066 0
M  V30 1619 O 156.841 3.30222 -4.65091 0
M  V30 1620 O 155.775 1.71778 -5.76867 0
M  V30 1621 H 159.601 -0.141421 -3.03371 0
M  V30 1622 H 157.186 -0.135146 -1.48787 0
M  V30 1623 H 159.068 2.25417 -3.56041 0
M  V30 1624 H 157.743 2.20982 -2.36535 0
M  V30 1625 H 156.65 0.334064 -3.72605 0
M  V30 1626 H 157.983 0.459131 -4.90054 0
M  V30 1627 N 159.635 1.57281 -0.100228 0
M  V30 1628 C 160.565 2.17328 0.853857 0
M  V30 1629 C 161.546 1.10804 1.2906 0
M  V30 1630 O 162.731 1.38963 1.35657 0
M  V30 1631 C 159.861 2.75772 2.11109 0
M  V30 1632 C 158.815 3.87713 1.81279 0
M  V30 1633 C 158.141 4.32882 3.13874 0
M  V30 1634 C 159.441 5.10677 1.09574 0
M  V30 1635 H 161.135 2.97305 0.353545 0
M  V30 1636 H 158.681 1.43009 0.168612 0
M  V30 1637 H 160.634 3.16433 2.78296 0
M  V30 1638 H 159.358 1.93057 2.63432 0
M  V30 1639 H 158.017 3.476 1.16489 0
M  V30 1640 H 157.665 3.47051 3.64095 0
M  V30 1641 H 157.365 5.08358 2.94696 0
M  V30 1642 H 158.889 4.7618 3.82211 0
M  V30 1643 H 160.303 5.48474 1.66879 0
M  V30 1644 H 158.7 5.91615 1.00557 0
M  V30 1645 H 159.77 4.84835 0.0793299 0
M  V30 1646 N 161.113 -0.173488 1.56642 0
M  V30 1647 C 162.341 -0.906095 1.86004 0
M  V30 1648 C 162.756 -1.75921 0.685355 0
M  V30 1649 O 162.113 -1.79198 -0.345578 0
M  V30 1650 C 162.164 -1.78462 3.14378 0
M  V30 1651 O 161.885 -0.965914 4.27319 0
M  V30 1652 C 163.386 -2.62707 3.57071 0
M  V30 1653 H 160.606 -0.263341 0.617165 0
M  V30 1654 H 163.15 -0.174236 2.03756 0
M  V30 1655 H 161.305 -2.46984 2.98459 0
M  V30 1656 H 161.719 -1.56655 5.00559 0
M  V30 1657 H 163.193 -3.19969 4.49804 0
M  V30 1658 H 163.67 -3.37472 2.81086 0
M  V30 1659 H 164.276 -1.99521 3.75595 0
M  V30 1660 N 162.591 -1.51276 -0.441967 0
M  V30 1661 C 163.831 -1.65372 -1.20132 0
M  V30 1662 C 164.195 -0.359871 -1.88597 0
M  V30 1663 O 165.396 -0.376551 -2.66149 0
M  V30 1664 C 163.667 -2.8207 -2.1948 0
M  V30 1665 S 165.226 -3.16467 -3.03964 0
M  V30 1666 H 162.044 -0.582669 -0.407453 0
M  V30 1667 H 164.646 -1.89166 -0.493609 0
M  V30 1668 H 163.35 -3.74523 -1.67812 0
M  V30 1669 H 162.881 -2.6045 -2.94838 0
M  V30 1670 H 164.896 -2.62543 -4.21053 0
M  V30 1671 N 164.069 0.697108 -1.41344 0
M  V30 1672 C 165.317 1.45426 -1.40341 0
M  V30 1673 C 165.638 1.94996 -0.0128787 0
M  V30 1674 O 164.908 1.71599 0.945027 0
M  V30 1675 H 163.488 0.539594 -0.516573 0
M  V30 1676 H 166.15 0.825201 -1.76569 0
M  V30 1677 H 165.246 2.31817 -2.08967 0
M  V30 1678 N 165.547 1.27147 0.931209 0
M  V30 1679 C 166.48 1.0389 2.0318 0
M  V30 1680 C 167.458 -0.0395716 1.62552 0
M  V30 1681 O 168.642 0.104867 1.88208 0
M  V30 1682 C 165.769 0.575227 3.3378 0
M  V30 1683 C 164.815 1.64774 3.93385 0
M  V30 1684 S 165.648 3.23933 4.26413 0
M  V30 1685 C 166.804 2.79358 5.60098 0
M  V30 1686 H 167.037 1.97075 2.22596 0
M  V30 1687 H 164.57 1.10938 1.07387 0
M  V30 1688 H 166.528 0.314385 4.09294 0
M  V30 1689 H 165.189 -0.336505 3.12292 0
M  V30 1690 H 164.382 1.27454 4.87618 0
M  V30 1691 H 163.984 1.86048 3.24441 0
M  V30 1692 H 166.276 2.24443 6.39243 0
M  V30 1693 H 167.219 3.72322 6.02314 0
M  V30 1694 H 167.627 2.1861 5.20452 0
M  V30 1695 N 167.025 -1.13721 1.09112 0
M  V30 1696 C 168.274 -1.84275 0.82009 0
M  V30 1697 C 168.587 -1.84253 -0.656509 0
M  V30 1698 O 169.793 -2.50668 -1.04296 0
M  V30 1699 C 168.249 -3.30825 1.41714 0
M  V30 1700 C 167.857 -3.39244 2.92605 0
M  V30 1701 C 169.601 -4.06443 1.22492 0
M  V30 1702 C 167.508 -4.80047 3.45411 0
M  V30 1703 H 166.438 -0.690387 0.30312 0
M  V30 1704 H 169.089 -1.28146 1.31343 0
M  V30 1705 H 167.471 -3.86737 0.851498 0
M  V30 1706 H 168.645 -2.93344 3.55367 0
M  V30 1707 H 166.96 -2.77088 3.10823 0
M  V30 1708 H 169.557 -5.10387 1.59402 0
M  V30 1709 H 169.9 -4.15972 0.165299 0
M  V30 1710 H 170.433 -3.56852 1.75788 0
M  V30 1711 H 167.172 -4.75709 4.50978 0
M  V30 1712 H 166.692 -5.26455 2.87411 0
M  V30 1713 H 168.371 -5.48957 3.42425 0
M  V30 1714 N 168.503 -0.877838 -1.30888 0
M  V30 1715 C 169.436 -0.283995 -2.26426 0
M  V30 1716 C 170.414 0.591361 -1.51465 0
M  V30 1717 O 171.598 0.54304 -1.80509 0
M  V30 1718 C 168.725 0.597129 -3.33395 0
M  V30 1719 C 167.771 -0.207937 -4.25993 0
M  V30 1720 S 168.604 -1.59158 -5.11301 0
M  V30 1721 C 169.76 -0.716791 -6.21782 0
M  V30 1722 H 169.993 -1.09383 -2.76446 0
M  V30 1723 H 167.526 -0.676828 -1.38775 0
M  V30 1724 H 169.484 1.09978 -3.95493 0
M  V30 1725 H 168.145 1.38099 -2.82113 0
M  V30 1726 H 167.338 0.464163 -5.01858 0
M  V30 1727 H 166.94 -0.642963 -3.68432 0
M  V30 1728 H 169.232 0.0692833 -6.77465 0
M  V30 1729 H 170.175 -1.44682 -6.93161 0
M  V30 1730 H 170.583 -0.280855 -5.63801 0
M  V30 1731 N 169.982 1.44106 -0.638065 0
M  V30 1732 C 171.222 2.03858 -0.148733 0
M  V30 1733 C 171.586 1.49153 1.20903 0
M  V30 1734 O 172.787 2.00452 1.79088 0
M  V30 1735 C 171.058 3.57117 -0.142314 0
M  V30 1736 S 172.617 4.37897 0.281385 0
M  V30 1737 H 169.435 0.708069 -0.0644912 0
M  V30 1738 H 172.037 1.7639 -0.843009 0
M  V30 1739 H 170.741 3.94436 -1.13349 0
M  V30 1740 H 170.272 3.89205 0.572988 0
M  V30 1741 H 172.287 4.72218 1.52395 0
M  V30 1742 N 171.46 0.379036 1.52974 0
M  V30 1743 C 172.39 -0.452706 2.29069 0
M  V30 1744 C 173.371 -1.07237 1.32039 0
M  V30 1745 O 174.556 -1.08708 1.60923 0
M  V30 1746 C 171.686 -1.5856 3.08992 0
M  V30 1747 C 170.64 -1.0925 4.13822 0
M  V30 1748 C 169.966 -2.31668 4.81907 0
M  V30 1749 C 171.266 -0.167702 5.22031 0
M  V30 1750 H 172.96 0.182181 2.98845 0
M  V30 1751 H 170.506 0.0890592 1.43724 0
M  V30 1752 H 172.459 -2.1742 3.6098 0
M  V30 1753 H 171.183 -2.24792 2.36931 0
M  V30 1754 H 169.842 -0.526494 3.628 0
M  V30 1755 H 169.49 -2.96386 4.06404 0
M  V30 1756 H 169.19 -1.9934 5.52754 0
M  V30 1757 H 170.714 -2.91189 5.36695 0
M  V30 1758 H 172.128 -0.664186 5.6944 0
M  V30 1759 H 170.525 0.0653265 6.00064 0
M  V30 1760 H 171.595 0.786347 4.78482 0
M  V30 1761 N 172.938 -1.57226 0.108567 0
M  V30 1762 C 173.901 -2.13602 -0.831082 0
M  V30 1763 C 174.901 -1.06841 -1.20173 0
M  V30 1764 O 176.091 -1.32666 -1.12895 0
M  V30 1765 C 173.223 -2.66769 -2.12243 0
M  V30 1766 H 174.416 -2.97951 -0.341317 0
M  V30 1767 H 171.969 -1.55667 -0.14057 0
M  V30 1768 H 172.704 -1.85977 -2.65675 0
M  V30 1769 H 172.489 -3.44839 -1.86625 0
M  V30 1770 H 173.979 -3.10332 -2.79435 0
M  V30 1771 N 174.416 0.165178 -1.56732 0
M  V30 1772 C 175.832 0.517174 -1.50988 0
M  V30 1773 C 176.032 1.84331 -0.813894 0
M  V30 1774 O 175.088 2.49672 -0.37682 0
M  V30 1775 C 176.401 0.544261 -2.95733 0
M  V30 1776 C 177.949 0.631039 -3.06573 0
M  V30 1777 C 178.424 0.68896 -4.52788 0
M  V30 1778 N 179.915 0.751683 -4.5706 0
M  V30 1779 C 180.65 0.817177 -5.67547 0
M  V30 1780 N 180.146 0.843129 -6.8765 0
M  V30 1781 N 181.939 0.856668 -5.55534 0
M  V30 1782 H 174.09 -0.704318 -2.00382 0
M  V30 1783 H 176.353 -0.254687 -0.913148 0
M  V30 1784 H 176.059 -0.361607 -3.49836 0
M  V30 1785 H 175.933 1.3886 -3.5071 0
M  V30 1786 H 178.32 1.52733 -2.52501 0
M  V30 1787 H 178.401 -0.240095 -2.54671 0
M  V30 1788 H 178.045 -0.2031 -5.07494 0
M  V30 1789 H 177.975 1.57633 -5.02454 0
M  V30 1790 H 180.466 0.739661 -3.70591 0
M  V30 1791 H 180.779 0.894448 -7.67606 0
M  V30 1792 H 179.124 0.811304 -6.90248 0
M  V30 1793 H 182.315 0.833437 -4.60621 0
M  V30 1794 H 182.488 0.904247 -6.4166 0
M  V30 1795 N 175.894 1.51508 0.433938 0
M  V30 1796 C 176.826 1.69266 1.54537 0
M  V30 1797 C 177.839 0.573276 1.52373 0
M  V30 1798 O 179.028 0.847698 1.57087 0
M  V30 1799 C 176.128 1.69524 2.93453 0
M  V30 1800 C 175.301 2.98101 3.20085 0
M  V30 1801 C 174.36 2.90502 4.38742 0
M  V30 1802 O 173.386 3.64442 4.3723 0
M  V30 1803 N 174.588 2.06586 5.42496 0
M  V30 1804 H 177.353 2.65145 1.39708 0
M  V30 1805 H 174.914 1.49437 0.622922 0
M  V30 1806 H 176.906 1.62004 3.70859 0
M  V30 1807 H 175.476 0.812245 3.01863 0
M  V30 1808 H 174.696 3.19464 2.30947 0
M  V30 1809 H 175.984 3.83207 3.34708 0
M  V30 1810 H 175.382 1.45896 5.46563 0
M  V30 1811 H 173.939 2.04943 6.18742 0
M  V30 1812 N 177.372 -0.689602 1.41712 0
M  V30 1813 C 178.621 -1.44534 1.40686 0
M  V30 1814 C 178.934 -1.95588 0.0213352 0
M  V30 1815 O 180.14 -2.71271 -0.111534 0
M  V30 1816 C 178.596 -2.61387 2.47396 0
M  V30 1817 C 178.204 -2.17094 3.91885 0
M  V30 1818 C 179.948 -3.38986 2.55517 0
M  V30 1819 C 177.855 -3.3094 4.90135 0
M  V30 1820 H 176.785 -0.542925 0.52321 0
M  V30 1821 H 179.436 -0.748054 1.6756 0
M  V30 1822 H 177.818 -3.33412 2.13664 0
M  V30 1823 H 178.992 -1.52318 4.34897 0
M  V30 1824 H 177.307 -1.52473 3.8748 0
M  V30 1825 H 179.904 -4.23747 3.26102 0
M  V30 1826 H 180.247 -3.84578 1.59391 0
M  V30 1827 H 180.78 -2.74021 2.8837 0
M  V30 1828 H 177.519 -2.90355 5.87685 0
M  V30 1829 H 177.039 -3.94546 4.51767 0
M  V30 1830 H 178.718 -3.9663 5.11169 0
M  V30 1831 N 178.85 -1.27639 -0.924453 0
M  V30 1832 C 180.261 -1.12834 -1.48746 0
M  V30 1833 C 180.612 0.285505 -1.94112 0
M  V30 1834 O 179.737 1.17874 -1.81479 0
M  V30 1835 C 180.332 -2.04217 -2.70334 0
M  V30 1836 C 178.891 -1.93509 -3.22848 0
M  V30 1837 C 178.038 -1.96583 -1.95577 0
M  V30 1838 H 180.989 -1.40484 -0.738233 0
M  V30 1839 H 181.01 -1.59989 -3.4523 0
M  V30 1840 H 180.522 -3.07111 -2.37285 0
M  V30 1841 H 178.623 -0.936131 -3.60649 0
M  V30 1842 H 178.736 -2.79917 -3.88823 0
M  V30 1843 H 177.1 -1.4085 -2.12211 0
M  V30 1844 H 177.883 -3.01137 -1.64837 0
M  V30 1845 N 180.328 1.1314 -1.09713 0
M  V30 1846 C 181.26 2.18343 -0.697056 0
M  V30 1847 C 182.273 1.60669 0.262551 0
M  V30 1848 O 183.462 1.78435 0.0481527 0
M  V30 1849 C 180.562 3.38899 -0.00684728 0
M  V30 1850 C 179.735 4.26078 -0.988741 0
M  V30 1851 C 178.794 5.25155 -0.331394 0
M  V30 1852 O 177.82 5.60701 -0.979926 0
M  V30 1853 N 179.022 5.73271 0.913261 0
M  V30 1854 H 181.787 2.5328 -1.60216 0
M  V30 1855 H 179.348 1.28491 -0.984971 0
M  V30 1856 H 181.34 4.02255 0.444191 0
M  V30 1857 H 179.91 3.02175 0.800551 0
M  V30 1858 H 179.13 3.59453 -1.61826 0
M  V30 1859 H 180.418 4.81178 -1.65364 0
M  V30 1860 H 179.816 5.46544 1.45966 0
M  V30 1861 H 178.373 6.3855 1.30757 0
M  V30 1862 N 181.806 0.884767 1.30421 0
M  V30 1863 C 182.769 0.356277 2.26414 0
M  V30 1864 C 183.769 -0.501124 1.52792 0
M  V30 1865 O 184.959 -0.30831 1.7145 0
M  V30 1866 C 182.091 -0.492316 3.37326 0
M  V30 1867 H 183.284 1.20389 2.74675 0
M  V30 1868 H 180.837 0.661607 1.41607 0
M  V30 1869 H 181.572 -1.36052 2.94381 0
M  V30 1870 H 181.357 0.121832 3.91911 0
M  V30 1871 H 182.847 -0.853871 4.08777 0
M  V30 1872 N 183.284 -1.43765 0.645699 0
M  V30 1873 C 184.512 -2.06253 0.163556 0
M  V30 1874 C 184.927 -1.48352 -1.16778 0
M  V30 1875 O 184.284 -0.611932 -1.71935 0
M  V30 1876 C 184.335 -3.61453 0.0583186 0
M  V30 1877 O 184.056 -4.172 1.33702 0
M  V30 1878 C 185.557 -4.41002 -0.450795 0
M  V30 1879 H 182.777 -0.665413 0.0864077 0
M  V30 1880 H 185.321 -1.84396 0.884222 0
M  V30 1881 H 183.476 -3.82522 -0.612865 0
M  V30 1882 H 183.89 -5.10791 1.19131 0
M  V30 1883 H 185.364 -5.49966 -0.473403 0
M  V30 1884 H 185.841 -4.13488 -1.48068 0
M  V30 1885 H 186.447 -4.24886 0.187637 0
M  V30 1886 N 184.763 -0.387143 -1.52771 0
M  V30 1887 C 185.726 0.436939 -2.24997 0
M  V30 1888 C 186.726 0.991991 -1.26555 0
M  V30 1889 O 187.916 0.874335 -1.50669 0
M  V30 1890 C 185.048 1.61281 -3.00335 0
M  V30 1891 H 186.241 -0.195365 -2.99263 0
M  V30 1892 H 183.794 -0.139218 -1.55679 0
M  V30 1893 H 184.529 2.2826 -2.30364 0
M  V30 1894 H 184.314 1.22154 -3.72587 0
M  V30 1895 H 185.804 2.19629 -3.5518 0
M  V30 1896 N 186.241 1.57166 -0.116904 0
M  V30 1897 C 187.466 1.999 0.55271 0
M  V30 1898 C 187.891 0.996039 1.59564 0
M  V30 1899 O 187.249 -0.032556 1.81271 0
M  V30 1900 C 187.297 3.4152 1.15742 0
M  V30 1901 O 186.401 3.44106 2.27299 0
M  V30 1902 H 185.742 0.649447 0.138258 0
M  V30 1903 H 188.272 2.03573 -0.204759 0
M  V30 1904 H 188.282 3.79684 1.49346 0
M  V30 1905 H 186.957 4.14034 0.393493 0
M  V30 1906 H 185.534 3.17759 1.9515 0
M  V30 1907 N 187.719 -0.156864 1.56817 0
M  V30 1908 C 188.652 -1.22316 1.9265 0
M  V30 1909 C 189.63 -1.42059 0.791076 0
M  V30 1910 O 190.814 -1.56831 1.04576 0
M  V30 1911 C 187.941 -2.58375 2.18998 0
M  V30 1912 C 186.987 -2.55284 3.41661 0
M  V30 1913 S 187.82 -2.02946 4.95553 0
M  V30 1914 C 188.976 -3.40753 5.25013 0
M  V30 1915 H 189.209 -0.917403 2.82791 0
M  V30 1916 H 186.742 -0.362059 1.50095 0
M  V30 1917 H 188.7 -3.36677 2.34859 0
M  V30 1918 H 187.361 -2.86145 1.29538 0
M  V30 1919 H 186.554 -3.55418 3.57343 0
M  V30 1920 H 186.156 -1.85086 3.24991 0
M  V30 1921 H 188.448 -4.36819 5.17876 0
M  V30 1922 H 189.391 -3.29933 6.26538 0
M  V30 1923 H 189.799 -3.37433 4.52548 0
M  V30 1924 N 189.197 -1.51736 -0.425897 0
M  V30 1925 C 190.144 -1.73875 -1.51776 0
M  V30 1926 C 191.114 -0.580702 -1.55618 0
M  V30 1927 O 192.299 -0.81641 -1.72451 0
M  V30 1928 C 189.439 -1.88012 -2.89388 0
M  V30 1929 C 188.552 -3.15606 -2.94986 0
M  V30 1930 C 187.687 -3.20271 -4.23793 0
M  V30 1931 C 186.726 -4.42134 -4.23302 0
M  V30 1932 N 185.863 -4.44284 -5.43651 0
M  V30 1933 H 190.703 -2.67071 -1.32201 0
M  V30 1934 H 188.24 -1.32351 -0.642008 0
M  V30 1935 H 190.198 -1.9419 -3.69251 0
M  V30 1936 H 188.828 -0.98213 -3.07496 0
M  V30 1937 H 187.88 -3.18681 -2.07717 0
M  V30 1938 H 189.192 -4.05486 -2.90486 0
M  V30 1939 H 188.346 -3.25428 -5.12036 0
M  V30 1940 H 187.085 -2.28299 -4.30965 0
M  V30 1941 H 186.09 -4.3714 -3.3345 0
M  V30 1942 H 187.315 -5.35382 -4.17783 0
M  V30 1943 H 185.261 -3.55188 -5.51523 0
M  V30 1944 H 185.178 -5.27988 -5.41078 0
M  V30 1945 H 186.446 -4.53649 -6.33895 0
M  V30 1946 N 190.675 0.682077 -1.42076 0
M  V30 1947 C 191.952 1.43755 -1.32642 0
M  V30 1948 C 192.332 2.11063 0.0396611 0
M  V30 1949 O 191.68 2.02701 1.05474 0
M  V30 1950 C 191.89 2.44596 -2.48946 0
M  V30 1951 C 193.238 3.09454 -2.9073 0
M  V30 1952 O 194.262 2.54922 -2.48783 0
M  V30 1953 O 193.121 4.08253 -3.63307 0
M  V30 1954 H 190.215 0.640857 -0.522715 0
M  V30 1955 H 192.761 0.711415 -1.54068 0
M  V30 1956 H 191.533 1.93609 -3.40046 0
M  V30 1957 H 191.156 3.24701 -2.29467 0
M  V30 1958 N 192.153 1.28127 0.917671 0
M  V30 1959 C 193.401 1.14825 1.66312 0
M  V30 1960 C 193.722 -0.304379 1.9261 0
M  V30 1961 O 192.992 -1.21149 1.53947 0
M  V30 1962 H 191.572 0.421953 0.616413 0
M  V30 1963 H 194.234 1.608 1.10134 0
M  V30 1964 H 193.33 1.68489 2.62712 0
M  V30 1965 N 193.631 -1.12557 1.10312 0
M  V30 1966 C 194.578 -2.18247 0.750781 0
M  V30 1967 C 195.548 -1.63853 -0.272293 0
M  V30 1968 O 196.733 -1.90195 -0.151862 0
M  V30 1969 C 193.873 -3.44591 0.187379 0
M  V30 1970 C 192.986 -4.13046 1.2656 0
M  V30 1971 C 192.121 -5.27034 0.663978 0
M  V30 1972 C 191.16 -5.87353 1.72287 0
M  V30 1973 N 190.297 -6.92757 1.1416 0
M  V30 1974 H 195.137 -2.47732 1.65628 0
M  V30 1975 H 192.674 -1.21629 0.827337 0
M  V30 1976 H 194.632 -4.16904 -0.157148 0
M  V30 1977 H 193.262 -3.15527 -0.681355 0
M  V30 1978 H 192.314 -3.38924 1.72727 0
M  V30 1979 H 193.626 -4.53947 2.06721 0
M  V30 1980 H 192.78 -6.06104 0.268824 0
M  V30 1981 H 191.519 -4.87407 -0.169082 0
M  V30 1982 H 190.524 -5.06971 2.12746 0
M  V30 1983 H 191.749 -6.29051 2.55875 0
M  V30 1984 H 189.695 -6.5517 0.329984 0
M  V30 1985 H 189.612 -7.3225 1.88007 0
M  V30 1986 H 190.88 -7.75658 0.772956 0
M  V30 1987 N 195.109 -0.891671 -1.2995 0
M  V30 1988 C 196.355 -0.523649 -1.96544 0
M  V30 1989 C 196.71 0.918394 -1.69066 0
M  V30 1990 O 196.003 1.64122 -0.988659 0
M  V30 1991 C 196.197 -0.742868 -3.49594 0
M  V30 1992 C 196.026 -2.20467 -3.9195 0
M  V30 1993 C 194.796 -2.85055 -4.17219 0
M  V30 1994 C 196.994 -3.17912 -4.04273 0
M  V30 1995 N 194.976 -4.21762 -4.46083 0
M  V30 1996 C 196.347 -4.39712 -4.37097 0
M  V30 1997 C 198.402 -3.1361 -3.86721 0
M  V30 1998 C 197.105 -5.5776 -4.54199 0
M  V30 1999 C 199.131 -4.30936 -4.05028 0
M  V30 2000 C 198.493 -5.51504 -4.38204 0
M  V30 2001 H 194.592 -0.241072 -0.743914 0
M  V30 2002 H 197.176 -1.15081 -1.5705 0
M  V30 2003 H 195.347 -0.14515 -3.88129 0
M  V30 2004 H 197.079 -0.341081 -4.0326 0
M  V30 2005 H 193.834 -2.35889 -4.10674 0
M  V30 2006 H 194.258 -4.92382 -4.64638 0
M  V30 2007 H 198.9 -2.21489 -3.60142 0
M  V30 2008 H 196.618 -6.50379 -4.79618 0
M  V30 2009 H 200.204 -4.29085 -3.92909 0
M  V30 2010 H 199.084 -6.40778 -4.52077 0
M  V30 2011 N 196.587 1.43421 -0.653314 0
M  V30 2012 C 197.497 2.34568 0.0388565 0
M  V30 2013 C 198.513 1.53888 0.81207 0
M  V30 2014 O 199.689 1.86539 0.759294 0
M  V30 2015 C 196.754 3.32167 0.993269 0
M  V30 2016 C 195.815 4.28751 0.216977 0
M  V30 2017 C 195.048 5.21688 1.12593 0
M  V30 2018 O 195.271 5.19052 2.36519 0
M  V30 2019 O 194.205 5.98919 0.598284 0
M  V30 2020 H 198.031 2.95251 -0.711386 0
M  V30 2021 H 195.616 1.43564 -0.413502 0
M  V30 2022 H 197.498 3.92183 1.54176 0
M  V30 2023 H 196.173 2.73987 1.72374 0
M  V30 2024 H 195.08 3.72215 -0.375101 0
M  V30 2025 H 196.413 4.89913 -0.473924 0
M  V30 2026 N 198.065 0.39524 1.52563 0
M  V30 2027 C 199.481 0.0454682 1.59535 0
M  V30 2028 C 199.681 -1.44056 1.4089 0
M  V30 2029 O 198.737 -2.20579 1.22888 0
M  V30 2030 C 200.05 0.527963 2.96029 0
M  V30 2031 C 201.598 0.484733 3.09224 0
M  V30 2032 C 202.073 0.943512 4.48176 0
M  V30 2033 N 203.564 0.899765 4.54377 0
M  V30 2034 C 204.299 1.22609 5.60138 0
M  V30 2035 N 203.795 1.62319 6.73516 0
M  V30 2036 N 205.588 1.14696 5.50274 0
M  V30 2037 H 197.739 1.36261 1.62931 0
M  V30 2038 H 200.002 0.558887 0.765735 0
M  V30 2039 H 199.708 1.56607 3.14908 0
M  V30 2040 H 199.582 -0.0698056 3.77135 0
M  V30 2041 H 201.969 -0.544298 2.90037 0
M  V30 2042 H 202.05 1.11838 2.30056 0
M  V30 2043 H 201.694 1.9708 4.68104 0
M  V30 2044 H 201.624 0.286817 5.25818 0
M  V30 2045 H 204.115 0.607632 3.72983 0
M  V30 2046 H 204.428 1.85567 7.5019 0
M  V30 2047 H 202.773 1.66211 6.74833 0
M  V30 2048 H 205.964 0.835701 4.6058 0
M  V30 2049 H 206.137 1.40459 6.32594 0
M  V30 2050 N 199.544 -1.57102 0.125237 0
M  V30 2051 C 200.491 -2.15641 -0.822655 0
M  V30 2052 C 201.461 -1.08313 -1.25927 0
M  V30 2053 O 202.646 -1.36251 -1.33567 0
M  V30 2054 C 199.786 -2.76504 -2.06494 0
M  V30 2055 C 198.899 -3.98158 -1.67612 0
M  V30 2056 C 198.034 -4.47088 -2.86854 0
M  V30 2057 C 197.073 -5.6126 -2.44242 0
M  V30 2058 N 196.21 -6.04905 -3.56419 0
M  V30 2059 H 201.05 -2.96313 -0.316625 0
M  V30 2060 H 198.587 -1.46388 -0.144588 0
M  V30 2061 H 200.545 -3.09925 -2.79289 0
M  V30 2062 H 199.175 -1.98512 -2.54545 0
M  V30 2063 H 198.227 -3.70858 -0.846661 0
M  V30 2064 H 199.539 -4.80934 -1.32301 0
M  V30 2065 H 198.693 -4.82451 -3.67867 0
M  V30 2066 H 197.432 -3.63275 -3.25396 0
M  V30 2067 H 196.437 -5.25495 -1.61663 0
M  V30 2068 H 197.662 -6.46843 -2.0681 0
M  V30 2069 H 195.608 -5.24032 -3.94623 0
M  V30 2070 H 195.525 -6.82552 -3.25051 0
M  V30 2071 H 196.793 -6.44907 -4.37853 0
M  V30 2072 N 201.022 0.148545 -1.56898 0
M  V30 2073 C 201.969 1.18345 -1.98149 0
M  V30 2074 C 202.939 1.42772 -0.848848 0
M  V30 2075 O 204.124 1.55132 -1.11079 0
M  V30 2076 C 201.264 2.51231 -2.36594 0
M  V30 2077 C 200.377 2.33991 -3.63142 0
M  V30 2078 C 199.512 3.59902 -3.90697 0
M  V30 2079 C 198.551 3.37692 -5.1052 0
M  V30 2080 N 197.688 4.5573 -5.34092 0
M  V30 2081 H 202.528 0.82467 -2.86362 0
M  V30 2082 H 200.065 0.395756 -1.41676 0
M  V30 2083 H 202.023 3.28713 -2.56912 0
M  V30 2084 H 200.653 2.85059 -1.51463 0
M  V30 2085 H 199.705 1.47572 -3.50609 0
M  V30 2086 H 201.017 2.13539 -4.5078 0
M  V30 2087 H 200.171 4.45813 -4.11505 0
M  V30 2088 H 198.91 3.83357 -3.01477 0
M  V30 2089 H 197.915 2.5017 -4.89587 0
M  V30 2090 H 199.14 3.15637 -6.0129 0
M  V30 2091 H 197.086 4.79361 -4.47827 0
M  V30 2092 H 197.003 4.38274 -6.15996 0
M  V30 2093 H 198.271 5.42858 -5.59397 0
M  V30 2094 N 202.5 1.5196 0.417844 0
M  V30 2095 C 203.747 1.65591 1.16559 0
M  V30 2096 C 204.075 0.381565 1.90721 0
M  V30 2097 O 203.33 -0.635156 1.85106 0
M  V30 2098 C 203.629 2.82269 2.19223 0
M  V30 2099 C 203.295 4.20819 1.61933 0
M  V30 2100 C 201.957 4.58506 1.46033 0
M  V30 2101 C 204.309 5.07196 1.20008 0
M  V30 2102 C 201.637 5.80257 0.867113 0
M  V30 2103 C 203.989 6.29544 0.621086 0
M  V30 2104 C 202.653 6.65987 0.449144 0
M  V30 2105 H 201.923 0.605939 0.42652 0
M  V30 2106 H 204.57 1.86041 0.45397 0
M  V30 2107 H 202.875 2.56118 2.96498 0
M  V30 2108 H 204.572 2.90012 2.76936 0
M  V30 2109 H 201.162 3.91116 1.7529 0
M  V30 2110 H 205.346 4.7867 1.31105 0
M  V30 2111 H 200.602 6.07124 0.721833 0
M  V30 2112 H 204.776 6.95805 0.287798 0
M  V30 2113 H 202.403 7.60199 -0.012632 0
M  V30 2114 N 203.978 -0.674533 1.42435 0
M  V30 2115 C 204.911 -1.79924 1.40366 0
M  V30 2116 C 205.889 -1.60378 0.267899 0
M  V30 2117 O 207.073 -1.82847 0.458159 0
M  V30 2118 C 204.2 -3.16927 1.19478 0
M  V30 2119 C 203.246 -3.55221 2.36051 0
M  V30 2120 S 204.079 -3.5762 3.98583 0
M  V30 2121 C 205.235 -4.97315 3.80038 0
M  V30 2122 H 205.468 -1.81405 2.35541 0
M  V30 2123 H 203.001 -0.845221 1.29211 0
M  V30 2124 H 204.959 -3.96007 1.08114 0
M  V30 2125 H 203.62 -3.13031 0.258883 0
M  V30 2126 H 202.813 -4.54804 2.17185 0
M  V30 2127 H 202.415 -2.83502 2.43932 0
M  V30 2128 H 204.707 -5.85401 3.41045 0
M  V30 2129 H 205.65 -5.21228 4.79298 0
M  V30 2130 H 206.058 -4.69845 3.12899 0
M  V30 2131 N 205.456 -1.28612 -0.910864 0
M  V30 2132 C 206.704 -1.15705 -1.65701 0
M  V30 2133 C 207.025 0.29416 -1.92769 0
M  V30 2134 O 206.295 1.20331 -1.54588 0
M  V30 2135 H 204.875 -0.425216 -0.614167 0
M  V30 2136 H 207.537 -1.61381 -1.0928 0
M  V30 2137 H 206.633 -1.6988 -2.61815 0
M  V30 2138 N 206.934 1.1197 -1.10907 0
M  V30 2139 C 208.162 1.87402 -0.876824 0
M  V30 2140 C 208.577 1.79894 0.573025 0
M  V30 2141 O 207.934 1.17629 1.39534 0
M  V30 2142 C 207.985 3.36428 -1.32282 0
M  V30 2143 O 207.706 3.43765 -2.71582 0
M  V30 2144 C 209.207 4.28783 -1.12518 0
M  V30 2145 H 206.427 0.592793 -0.314384 0
M  V30 2146 H 208.971 1.41649 -1.47499 0
M  V30 2147 H 207.126 3.79706 -0.768229 0
M  V30 2148 H 207.54 4.3652 -2.90776 0
M  V30 2149 H 209.014 5.31613 -1.48633 0
M  V30 2150 H 209.491 4.39153 -0.0642394 0
M  V30 2151 H 210.097 3.91291 -1.66648 0
M  V30 2152 N 208.412 0.89855 1.29475 0
M  V30 2153 C 209.322 0.379974 2.31502 0
M  V30 2154 C 210.338 -0.524695 1.659 0
M  V30 2155 O 211.514 -0.414551 1.97087 0
M  V30 2156 C 208.579 -0.385138 3.44554 0
M  V30 2157 C 207.64 0.550914 4.2575 0
M  V30 2158 C 206.873 -0.177778 5.33404 0
M  V30 2159 O 207.096 -1.40189 5.52904 0
M  V30 2160 O 206.03 0.479106 5.9999 0
M  V30 2161 H 209.856 1.22639 2.77837 0
M  V30 2162 H 207.441 0.662834 1.33891 0
M  V30 2163 H 209.323 -0.817841 4.13388 0
M  V30 2164 H 207.998 -1.20763 3.0033 0
M  V30 2165 H 206.905 1.03271 3.59564 0
M  V30 2166 H 208.238 1.33979 4.73614 0
M  V30 2167 N 209.89 -1.43072 0.660911 0
M  V30 2168 C 210.82 -2.33497 -0.0122829 0
M  V30 2169 C 211.801 -1.49903 -0.803925 0
M  V30 2170 O 212.986 -1.78546 -0.763864 0
M  V30 2171 C 210.116 -3.33363 -0.973994 0
M  V30 2172 C 209.07 -4.27003 -0.291928 0
M  V30 2173 C 208.396 -5.16967 -1.36562 0
M  V30 2174 C 209.696 -5.15816 0.820462 0
M  V30 2175 H 211.39 -2.90038 0.742873 0
M  V30 2176 H 208.936 -1.39461 0.358688 0
M  V30 2177 H 210.889 -3.95524 -1.45392 0
M  V30 2178 H 209.613 -2.75095 -1.7604 0
M  V30 2179 H 208.272 -3.66217 0.167623 0
M  V30 2180 H 207.92 -4.55034 -2.14366 0
M  V30 2181 H 207.62 -5.80441 -0.914454 0
M  V30 2182 H 209.144 -5.82003 -1.84675 0
M  V30 2183 H 210.558 -5.71742 0.422366 0
M  V30 2184 H 208.955 -5.8805 1.19656 0
M  V30 2185 H 210.025 -4.55045 1.67518 0
M  V30 2186 N 211.368 -0.403325 -1.52352 0
M  V30 2187 C 212.316 0.439752 -2.28405 0
M  V30 2188 C 213.31 1.05089 -1.32863 0
M  V30 2189 O 214.516 0.989759 -1.50345 0
M  V30 2190 H 210.891 0.160587 -0.734653 0
M  V30 2191 H 212.862 -0.222983 -2.97566 0
M  V30 2192 C 211.611 1.54736 -3.11371 0
M  V30 2193 H 210.934 1.08643 -3.84755 0
M  V30 2194 H 212.374 2.1112 -3.67701 0
M  V30 2195 C 210.833 2.51141 -2.24566 0
M  V30 2196 O 211.363 3.54887 -1.88196 0
M  V30 2197 N 209.569 2.21213 -1.8845 0
M  V30 2198 H 209.116 1.36878 -2.18225 0
M  V30 2199 H 209.074 2.85963 -1.30662 0
M  V30 2200 N 212.846 1.57033 -0.133567 0
M  V30 2201 C 214.094 1.953 0.519848 0
M  V30 2202 C 214.415 1.01866 1.66278 0
M  V30 2203 O 213.685 0.0776513 1.95746 0
M  V30 2204 H 212.265 0.721091 0.195032 0
M  V30 2205 H 214.927 1.93809 -0.205921 0
M  V30 2206 H 214.023 2.98695 0.904854 0
M  V30 2207 N 214.325 -0.140222 1.56975 0
M  V30 2208 C 215.272 -1.17292 1.98774 0
M  V30 2209 C 216.242 -1.4232 0.856408 0
M  V30 2210 O 217.427 -1.54541 1.119 0
M  V30 2211 C 214.567 -2.49973 2.37923 0
M  V30 2212 C 213.68 -2.32062 3.64378 0
M  V30 2213 C 212.815 -3.57825 3.926 0
M  V30 2214 C 211.854 -3.3498 5.12303 0
M  V30 2215 N 210.991 -4.52891 5.36502 0
M  V30 2216 H 215.831 -0.809472 2.86795 0
M  V30 2217 H 213.368 -0.388237 1.41884 0
M  V30 2218 H 215.326 -3.27346 2.58652 0
M  V30 2219 H 213.956 -2.84252 1.52972 0
M  V30 2220 H 213.008 -1.45711 3.51387 0
M  V30 2221 H 214.32 -2.11145 4.51906 0
M  V30 2222 H 213.474 -4.43624 4.13863 0
M  V30 2223 H 212.213 -3.81753 3.03506 0
M  V30 2224 H 211.218 -2.4757 4.90906 0
M  V30 2225 H 212.443 -3.12444 6.02956 0
M  V30 2226 H 210.389 -4.76979 4.50363 0
M  V30 2227 H 210.306 -4.35001 6.18312 0
M  V30 2228 H 211.574 -5.39884 5.62268 0
M  V30 2229 N 215.803 -1.52179 -0.40978 0
M  V30 2230 C 217.031 -1.70054 -1.17853 0
M  V30 2231 C 217.446 -0.409735 -1.843 0
M  V30 2232 O 216.803 0.614183 -1.71855 0
M  V30 2233 C 216.854 -2.83568 -2.24213 0
M  V30 2234 O 216.575 -4.0765 -1.60478 0
M  V30 2235 C 218.076 -3.12947 -3.13973 0
M  V30 2236 H 215.296 -0.569917 -0.354169 0
M  V30 2237 H 217.84 -1.98734 -0.482198 0
M  V30 2238 H 215.995 -2.57409 -2.89516 0
M  V30 2239 H 216.409 -4.70899 -2.30986 0
M  V30 2240 H 217.883 -3.95889 -3.84677 0
M  V30 2241 H 218.36 -2.26472 -3.76307 0
M  V30 2242 H 218.966 -3.40868 -2.5434 0
M  V30 2243 N 217.281 0.66697 -1.42791 0
M  V30 2244 C 218.211 1.79218 -1.49677 0
M  V30 2245 C 219.192 1.66405 -0.352623 0
M  V30 2246 O 220.377 1.85708 -0.567993 0
M  V30 2247 C 217.507 3.17565 -1.40605 0
M  V30 2248 C 216.461 3.45124 -2.53127 0
M  V30 2249 C 215.787 4.83127 -2.29112 0
M  V30 2250 C 217.087 3.41236 -3.95418 0
M  V30 2251 H 218.781 1.73713 -2.43853 0
M  V30 2252 H 216.327 0.83432 -1.17367 0
M  V30 2253 H 218.28 3.96022 -1.44029 0
M  V30 2254 H 217.004 3.23767 -0.429271 0
M  V30 2255 H 215.663 2.69031 -2.49034 0
M  V30 2256 H 215.311 4.85988 -1.29709 0
M  V30 2257 H 215.011 5.02528 -3.04531 0
M  V30 2258 H 216.535 5.63859 -2.34297 0
M  V30 2259 H 217.949 4.09651 -4.01073 0
M  V30 2260 H 216.346 3.72173 -4.70752 0
M  V30 2261 H 217.416 2.39665 -4.21532 0
M  V30 2262 N 218.759 1.29093 0.90403 0
M  V30 2263 C 220.007 1.16583 1.65085 0
M  V30 2264 C 220.328 -0.283933 1.92922 0
M  V30 2265 O 219.598 -1.19509 1.55224 0
M  V30 2266 H 218.178 0.428467 0.611903 0
M  V30 2267 H 220.84 1.61959 1.08422 0
M  V30 2268 H 219.936 1.71266 2.6091 0
M  V30 2269 N 220.237 -1.11381 1.11499 0
M  V30 2270 C 221.486 -1.82494 0.858993 0
M  V30 2271 C 221.799 -1.85605 -0.617278 0
M  V30 2272 O 223.005 -2.52824 -0.989552 0
M  V30 2273 C 221.461 -3.27745 1.48699 0
M  V30 2274 C 221.069 -3.32961 2.99735 0
M  V30 2275 C 222.813 -4.03754 1.31085 0
M  V30 2276 C 220.72 -4.72612 3.55516 0
M  V30 2277 H 219.65 -0.683802 0.317696 0
M  V30 2278 H 222.301 -1.25331 1.34031 0
M  V30 2279 H 220.683 -3.84844 0.933339 0
M  V30 2280 H 221.857 -2.85741 3.61509 0
M  V30 2281 H 220.172 -2.70433 3.16631 0
M  V30 2282 H 222.769 -5.06891 1.70192 0
M  V30 2283 H 223.112 -4.15527 0.253496 0
M  V30 2284 H 223.645 -3.53043 1.83318 0
M  V30 2285 H 220.384 -4.66036 4.60967 0
M  V30 2286 H 219.904 -5.2024 2.98513 0
M  V30 2287 H 221.583 -5.4157 3.53992 0
M  V30 2288 N 221.715 -0.905404 -1.28997 0
M  V30 2289 C 222.645 -0.404212 -2.29975 0
M  V30 2290 C 223.626 0.523784 -1.61835 0
M  V30 2291 O 224.811 0.433298 -1.89304 0
M  V30 2292 C 221.941 0.364042 -3.45387 0
M  V30 2293 C 220.895 -0.474048 -4.25367 0
M  V30 2294 C 220.221 0.422045 -5.33032 0
M  V30 2295 C 221.521 -1.72696 -4.92923 0
M  V30 2296 H 223.215 -1.24807 -2.72146 0
M  V30 2297 H 220.761 -0.601585 -1.30832 0
M  V30 2298 H 222.714 0.725447 -4.15109 0
M  V30 2299 H 221.438 1.24174 -3.02074 0
M  V30 2300 H 220.097 -0.81786 -3.57361 0
M  V30 2301 H 219.745 1.29804 -4.85963 0
M  V30 2302 H 219.445 -0.135057 -5.87445 0
M  V30 2303 H 220.969 0.779517 -6.05604 0
M  V30 2304 H 222.383 -1.43495 -5.55051 0
M  V30 2305 H 220.78 -2.22582 -5.57295 0
M  V30 2306 H 221.85 -2.45964 -4.17887 0
M  V30 2307 N 223.193 1.4272 -0.668489 0
M  V30 2308 C 224.441 2.01226 -0.187769 0
M  V30 2309 C 224.762 1.53092 1.2078 0
M  V30 2310 O 224.032 0.74993 1.80977 0
M  V30 2311 H 222.612 0.744041 -0.0664272 0
M  V30 2312 H 225.274 1.74723 -0.863583 0
M  V30 2313 H 224.37 3.11556 -0.184166 0
M  V30 2314 N 224.671 0.411399 1.52136 0
M  V30 2315 C 225.601 -0.404015 2.29978 0
M  V30 2316 C 226.582 -1.04412 1.34284 0
M  V30 2317 O 227.767 -1.0527 1.63192 0
M  V30 2318 C 224.897 -1.5197 3.12286 0
M  V30 2319 C 223.851 -1.00448 4.16046 0
M  V30 2320 C 223.177 -2.21393 4.86712 0
M  V30 2321 C 224.477 -0.0569336 5.22269 0
M  V30 2322 H 226.171 0.245529 2.98392 0
M  V30 2323 H 223.717 0.119525 1.43503 0
M  V30 2324 H 225.67 -2.09715 3.6551 0
M  V30 2325 H 224.394 -2.19716 2.41646 0
M  V30 2326 H 223.053 -0.449421 3.63835 0
M  V30 2327 H 222.701 -2.87699 4.12599 0
M  V30 2328 H 222.401 -1.87571 5.56858 0
M  V30 2329 H 223.925 -2.7974 5.4275 0
M  V30 2330 H 225.339 -0.54325 5.7072 0
M  V30 2331 H 223.736 0.192594 5.99791 0
M  V30 2332 H 224.806 0.887663 4.76706 0
M  V30 2333 N 226.149 -1.5696 0.141893 0
M  V30 2334 C 227.397 -1.95573 -0.509484 0
M  V30 2335 C 227.718 -1.02746 -1.65736 0
M  V30 2336 O 226.988 -0.0880311 -1.95702 0
M  V30 2337 H 225.568 -0.722115 -0.191205 0
M  V30 2338 H 228.23 -1.93697 0.216196 0
M  V30 2339 H 227.326 -2.99171 -0.889 0
M  V30 2340 N 227.627 0.131896 -1.57047 0
M  V30 2341 C 229.043 0.485031 -1.52051 0
M  V30 2342 C 229.243 1.82563 -0.85281 0
M  V30 2343 O 228.299 2.48817 -0.429694 0
M  V30 2344 C 229.612 0.481409 -2.96821 0
M  V30 2345 C 231.16 0.565868 -3.07842 0
M  V30 2346 C 231.635 0.592762 -4.54148 0
M  V30 2347 N 233.126 0.654564 -4.58552 0
M  V30 2348 C 233.861 0.696608 -5.69153 0
M  V30 2349 N 233.357 0.697078 -6.89284 0
M  V30 2350 N 235.15 0.738639 -5.57226 0
M  V30 2351 H 227.301 -0.746664 -1.98843 0
M  V30 2352 H 229.564 -0.273999 -0.90754 0
M  V30 2353 H 229.27 -0.435731 -3.4899 0
M  V30 2354 H 229.144 1.3139 -3.53577 0
M  V30 2355 H 231.531 1.47343 -2.55684 0
M  V30 2356 H 231.612 -0.29406 -2.54104 0
M  V30 2357 H 231.256 -0.310701 -5.06949 0
M  V30 2358 H 231.186 1.46939 -5.05684 0
M  V30 2359 H 233.677 0.660887 -3.72076 0
M  V30 2360 H 233.99 0.731426 -7.69331 0
M  V30 2361 H 232.335 0.66471 -6.91814 0
M  V30 2362 H 235.526 0.735545 -4.62285 0
M  V30 2363 H 235.699 0.767938 -6.43434 0
M  V30 2364 N 229.106 1.52395 0.401703 0
M  V30 2365 C 230.355 1.66044 1.14509 0
M  V30 2366 C 230.668 0.400216 1.91462 0
M  V30 2367 O 231.874 0.416632 2.68284 0
M  V30 2368 C 230.33 2.93388 2.0845 0
M  V30 2369 C 229.938 4.26545 1.36978 0
M  V30 2370 C 231.682 3.16402 2.83001 0
M  V30 2371 C 229.589 5.45007 2.29611 0
M  V30 2372 H 228.519 0.618562 0.431158 0
M  V30 2373 H 231.17 1.78886 0.40892 0
M  V30 2374 H 229.552 2.74263 2.8565 0
M  V30 2375 H 230.726 4.56179 0.650916 0
M  V30 2376 H 229.041 4.09692 0.74438 0
M  V30 2377 H 231.638 4.02085 3.52465 0
M  V30 2378 H 231.981 2.30943 3.46368 0
M  V30 2379 H 232.514 3.36034 2.12898 0
M  V30 2380 H 229.253 6.32835 1.70879 0
M  V30 2381 H 228.773 5.19702 2.9945 0
M  V30 2382 H 230.452 5.7838 2.89974 0
M  V30 2383 N 230.584 -0.659388 1.43143 0
M  V30 2384 C 231.832 -1.41654 1.44147 0
M  V30 2385 C 232.153 -1.94893 0.0645739 0
M  V30 2386 O 231.423 -1.74044 -0.899198 0
M  V30 2387 H 230.003 -0.525708 0.530697 0
M  V30 2388 H 232.665 -0.778097 1.78694 0
M  V30 2389 H 231.761 -2.26195 2.1504 0
M  V30 2390 N 232.062 -1.29571 -0.897171 0
M  V30 2391 C 233.478 -1.07637 -1.17841 0
M  V30 2392 C 233.678 0.170713 -2.00776 0
M  V30 2393 O 232.734 0.867768 -2.3712 0
M  V30 2394 C 234.047 -2.3332 -1.8969 0
M  V30 2395 C 235.595 -2.38664 -2.02505 0
M  V30 2396 C 236.07 -3.64157 -2.77765 0
M  V30 2397 N 237.561 -3.64894 -2.85318 0
M  V30 2398 C 238.296 -4.58679 -3.44094 0
M  V30 2399 N 237.792 -5.62799 -4.04017 0
M  V30 2400 N 239.585 -4.46245 -3.41793 0
M  V30 2401 H 231.736 -2.09598 -0.343883 0
M  V30 2402 H 233.999 -0.923333 -0.214848 0
M  V30 2403 H 233.705 -3.24262 -1.36187 0
M  V30 2404 H 233.579 -2.41025 -2.9015 0
M  V30 2405 H 235.966 -1.48208 -2.55183 0
M  V30 2406 H 236.047 -2.34943 -1.01171 0
M  V30 2407 H 235.691 -4.54965 -2.25763 0
M  V30 2408 H 235.621 -3.65137 -3.7945 0
M  V30 2409 H 238.112 -2.89613 -2.42761 0
M  V30 2410 H 238.425 -6.3048 -4.46895 0
M  V30 2411 H 236.77 -5.66605 -4.02472 0
M  V30 2412 H 239.961 -3.64094 -2.94199 0
M  V30 2413 H 240.134 -5.19518 -3.87304 0
M  V30 2414 N 233.54 1.10788 -1.12088 0
M  V30 2415 C 234.45 2.20599 -0.798338 0
M  V30 2416 C 235.466 1.72712 0.21135 0
M  V30 2417 O 236.642 2.01348 0.0458477 0
M  V30 2418 C 233.707 3.45771 -0.253674 0
M  V30 2419 C 232.768 4.08411 -1.32283 0
M  V30 2420 C 232.001 5.27608 -0.80406 0
M  V30 2421 O 232.224 5.69241 0.363478 0
M  V30 2422 O 231.158 5.8101 -1.57198 0
M  V30 2423 H 234.984 2.50614 -1.7154 0
M  V30 2424 H 232.569 1.19454 -0.897275 0
M  V30 2425 H 234.451 4.21376 0.0453691 0
M  V30 2426 H 233.126 3.1739 0.636005 0
M  V30 2427 H 232.033 3.34507 -1.67499 0
M  V30 2428 H 233.366 4.40986 -2.18614 0
M  V30 2429 N 235.018 0.912232 1.28515 0
M  V30 2430 C 236.264 0.545405 1.95328 0
M  V30 2431 C 236.597 -0.908313 1.71649 0
M  V30 2432 O 235.872 -1.64575 1.03659 0
M  V30 2433 C 236.155 0.853483 3.4984 0
M  V30 2434 C 236.008 2.35982 3.82926 0
M  V30 2435 C 237.327 0.348589 4.38717 0
M  V30 2436 H 234.446 0.199626 0.709449 0
M  V30 2437 H 237.088 1.1412 1.5191 0
M  V30 2438 H 235.238 0.34643 3.86952 0
M  V30 2439 H 236.91 2.93738 3.55691 0
M  V30 2440 H 235.153 2.81543 3.30024 0
M  V30 2441 H 235.824 2.52593 4.90816 0
M  V30 2442 H 238.3 0.78294 4.08668 0
M  V30 2443 H 237.176 0.593242 5.45685 0
M  V30 2444 H 237.437 -0.751049 4.35674 0
M  V30 2445 N 236.496 -1.42363 0.676048 0
M  V30 2446 C 237.459 -2.29199 0.00766941 0
M  V30 2447 C 238.459 -1.43389 -0.727745 0
M  V30 2448 O 239.649 -1.64764 -0.56556 0
M  V30 2449 C 236.781 -3.2591 -0.999785 0
M  V30 2450 H 237.974 -2.89794 0.771988 0
M  V30 2451 H 235.527 -1.50024 0.438468 0
M  V30 2452 H 236.262 -2.70256 -1.79255 0
M  V30 2453 H 236.047 -3.89202 -0.475829 0
M  V30 2454 H 237.537 -3.91028 -1.46583 0
M  V30 2455 N 237.974 -0.419461 -1.51915 0
M  V30 2456 C 239.202 0.152136 -2.0634 0
M  V30 2457 C 239.617 1.37988 -1.28859 0
M  V30 2458 O 238.974 1.79243 -0.343232 0
M  V30 2459 C 239.025 0.492266 -3.58133 0
M  V30 2460 O 238.746 -0.686736 -4.32684 0
M  V30 2461 C 240.247 1.11648 -4.2901 0
M  V30 2462 H 237.467 0.0158325 -0.670813 0
M  V30 2463 H 240.011 -0.593394 -1.95702 0
M  V30 2464 H 238.166 1.18769 -3.68745 0
M  V30 2465 H 238.58 -0.400341 -5.2297 0
M  V30 2466 H 240.054 1.3046 -5.36362 0
M  V30 2467 H 240.531 2.09251 -3.86148 0
M  V30 2468 H 241.137 0.460958 -4.22795 0
M  V30 2469 N 239.452 1.56882 -0.150215 0
M  V30 2470 C 240.868 1.58263 0.20617 0
M  V30 2471 C 241.068 1.16464 1.64434 0
M  V30 2472 O 240.124 0.866422 2.3717 0
M  V30 2473 C 241.437 3.00649 -0.0555025 0
M  V30 2474 C 242.985 3.12999 0.00795388 0
M  V30 2475 C 243.46 4.5744 -0.226429 0
M  V30 2476 N 244.951 4.62875 -0.173469 0
M  V30 2477 C 245.686 5.72454 -0.329288 0
M  V30 2478 N 245.182 6.90669 -0.543005 0
M  V30 2479 N 246.975 5.61467 -0.266666 0
M  V30 2480 H 239.126 1.82345 -1.08922 0
M  V30 2481 H 241.389 0.844149 -0.431413 0
M  V30 2482 H 241.095 3.3563 -1.05096 0
M  V30 2483 H 240.969 3.71337 0.66246 0
M  V30 2484 H 243.356 2.77857 0.993966 0
M  V30 2485 H 243.437 2.4479 -0.742388 0
M  V30 2486 H 243.081 4.93287 -1.20956 0
M  V30 2487 H 243.011 5.2378 0.544274 0
M  V30 2488 H 245.502 3.77898 -0.0130709 0
M  V30 2489 H 245.815 7.70045 -0.651922 0
M  V30 2490 H 244.16 6.92581 -0.579366 0
M  V30 2491 H 247.351 4.67992 -0.100441 0
M  V30 2492 H 247.524 6.46816 -0.391535 0
M  V30 2493 N 240.93 -0.123565 1.57115 0
M  V30 2494 C 241.863 -1.18202 1.95201 0
M  V30 2495 C 242.841 -1.40349 0.821031 0
M  V30 2496 O 244.025 -1.54578 1.07879 0
M  V30 2497 C 241.152 -2.53671 2.24429 0
M  V30 2498 C 240.198 -2.4798 3.46999 0
M  V30 2499 S 241.031 -1.92389 4.99747 0
M  V30 2500 C 242.187 -3.2954 5.32123 0
M  V30 2501 H 242.42 -0.857212 2.84674 0
M  V30 2502 H 239.953 -0.33014 1.50829 0
M  V30 2503 H 241.911 -3.3162 2.41947 0
M  V30 2504 H 240.572 -2.83332 1.35579 0
M  V30 2505 H 239.765 -3.47758 3.64801 0
M  V30 2506 H 239.367 -1.7815 3.28844 0
M  V30 2507 H 241.659 -4.25736 5.27025 0
M  V30 2508 H 242.602 -3.16569 6.33395 0
M  V30 2509 H 243.01 -3.27758 4.59603 0
M  V30 2510 N 242.408 -1.52605 -0.393616 0
M  V30 2511 C 243.34 -1.73303 -1.49995 0
M  V30 2512 C 244.353 -0.613473 -1.50799 0
M  V30 2513 O 245.542 -0.889049 -1.54784 0
M  V30 2514 C 242.642 -1.77245 -2.88855 0
M  V30 2515 C 241.815 -3.06483 -3.12069 0
M  V30 2516 C 240.874 -3.02033 -4.30886 0
M  V30 2517 O 239.9 -3.75907 -4.27414 0
M  V30 2518 N 241.102 -2.20897 -5.36828 0
M  V30 2519 H 243.867 -2.68756 -1.32629 0
M  V30 2520 H 241.428 -1.51036 -0.583083 0
M  V30 2521 H 243.42 -1.7178 -3.66434 0
M  V30 2522 H 241.99 -0.891993 -2.99603 0
M  V30 2523 H 241.21 -3.25474 -2.22396 0
M  V30 2524 H 242.498 -3.91947 -3.2443 0
M  V30 2525 H 241.896 -1.60336 -5.42502 0
M  V30 2526 H 240.453 -2.21275 -6.13091 0
M  V30 2527 N 243.887 0.651787 -1.4349 0
M  V30 2528 C 245.112 1.44434 -1.48841 0
M  V30 2529 C 245.537 1.8779 -0.107955 0
M  V30 2530 O 244.895 1.57464 0.898602 0
M  V30 2531 C 244.943 2.65458 -2.44059 0
M  V30 2532 O 244.047 3.64566 -1.92784 0
M  V30 2533 H 243.388 0.433005 -0.503391 0
M  V30 2534 H 245.918 0.797451 -1.88419 0
M  V30 2535 H 245.928 3.13255 -2.6141 0
M  V30 2536 H 244.603 2.33244 -3.4434 0
M  V30 2537 H 243.18 3.23716 -1.851 0
M  V30 2538 N 245.365 1.30045 0.890287 0
M  V30 2539 C 246.612 1.18561 1.64163 0
M  V30 2540 C 246.94 -0.260852 1.92743 0
M  V30 2541 O 246.195 -1.20376 1.54299 0
M  V30 2542 C 246.494 1.95409 2.99249 0
M  V30 2543 C 246.16 3.45066 2.90242 0
M  V30 2544 C 244.822 3.85878 2.87492 0
M  V30 2545 C 247.174 4.4039 2.78758 0
M  V30 2546 C 244.502 5.20314 2.7109 0
M  V30 2547 C 246.854 5.74928 2.63894 0
M  V30 2548 C 245.518 6.14986 2.59516 0
M  V30 2549 H 244.788 0.433846 0.600715 0
M  V30 2550 H 247.435 1.61088 1.03552 0
M  V30 2551 H 245.74 1.45501 3.63781 0
M  V30 2552 H 247.437 1.8392 3.56334 0
M  V30 2553 H 244.027 3.12631 2.93189 0
M  V30 2554 H 248.211 4.09806 2.79952 0
M  V30 2555 H 243.467 5.50449 2.66112 0
M  V30 2556 H 247.641 6.48434 2.53981 0
M  V30 2557 H 245.268 7.19104 2.46565 0
M  V30 2558 N 246.843 -1.10192 1.12674 0
M  V30 2559 C 248.091 -1.81845 0.881861 0
M  V30 2560 C 248.412 -1.85737 -0.593867 0
M  V30 2561 O 247.682 -1.33724 -1.4316 0
M  V30 2562 H 246.262 -0.673432 0.323261 0
M  V30 2563 H 248.924 -1.33316 1.42172 0
M  V30 2564 H 248.02 -2.85288 1.2656 0
M  V30 2565 N 248.321 -0.919034 -1.28029 0
M  V30 2566 C 249.254 -0.355887 -2.25408 0
M  V30 2567 C 250.232 0.542874 -1.5327 0
M  V30 2568 O 251.416 0.485338 -1.82145 0
M  V30 2569 C 248.543 0.490759 -3.35126 0
M  V30 2570 C 247.589 -0.343358 -4.25116 0
M  V30 2571 S 248.422 -1.75344 -5.05979 0
M  V30 2572 C 249.578 -0.914244 -6.19187 0
M  V30 2573 H 249.811 -1.18123 -2.72826 0
M  V30 2574 H 247.344 -0.720636 -1.36551 0
M  V30 2575 H 249.302 0.973404 -3.98792 0
M  V30 2576 H 247.963 1.29054 -2.86363 0
M  V30 2577 H 247.156 0.304266 -5.03081 0
M  V30 2578 H 246.758 -0.759851 -3.662 0
M  V30 2579 H 249.05 -0.146282 -6.77342 0
M  V30 2580 H 249.993 -1.66661 -6.88208 0
M  V30 2581 H 250.401 -0.460082 -5.62622 0
M  V30 2582 N 249.799 1.42003 -0.683588 0
M  V30 2583 C 250.746 2.30798 -0.0107309 0
M  V30 2584 C 251.716 1.4645 0.783688 0
M  V30 2585 O 252.901 1.75263 0.754156 0
M  V30 2586 C 250.041 3.3238 0.928306 0
M  V30 2587 C 249.154 4.31814 0.126776 0
M  V30 2588 C 248.289 5.20468 1.06236 0
M  V30 2589 C 247.328 6.11577 0.253035 0
M  V30 2590 N 246.465 6.92754 1.14179 0
M  V30 2591 H 251.305 2.8778 -0.773727 0
M  V30 2592 H 248.842 1.41745 -0.393283 0
M  V30 2593 H 250.8 3.89813 1.48666 0
M  V30 2594 H 249.43 2.76976 1.65783 0
M  V30 2595 H 248.482 3.76427 -0.54833 0
M  V30 2596 H 249.794 4.96276 -0.501192 0
M  V30 2597 H 248.948 5.82677 1.69035 0
M  V30 2598 H 247.687 4.56204 1.7242 0
M  V30 2599 H 246.692 5.48428 -0.388108 0
M  V30 2600 H 247.917 6.77892 -0.404839 0
M  V30 2601 H 245.863 6.3111 1.78987 0
M  V30 2602 H 245.78 7.53855 0.569111 0
M  V30 2603 H 247.048 7.59441 1.75697 0
M  V30 2604 N 251.277 0.427512 1.51691 0
M  V30 2605 C 252.505 -0.141191 2.06418 0
M  V30 2606 C 252.92 -1.37303 1.29589 0
M  V30 2607 O 252.277 -1.79059 0.352732 0
M  V30 2608 C 252.328 -0.473266 3.58389 0
M  V30 2609 O 252.049 0.709673 4.32314 0
M  V30 2610 C 253.55 -1.09371 4.29596 0
M  V30 2611 H 250.77 -0.0122747 0.670888 0
M  V30 2612 H 253.314 0.603764 1.95384 0
M  V30 2613 H 251.469 -1.16812 3.69369 0
M  V30 2614 H 251.883 0.42807 5.2275 0
M  V30 2615 H 253.357 -1.27613 5.37046 0
M  V30 2616 H 253.834 -2.072 3.87253 0
M  V30 2617 H 254.44 -0.43853 4.23033 0
M  V30 2618 N 252.755 -1.56801 0.158532 0
M  V30 2619 C 254.004 -1.95665 -0.489702 0
M  V30 2620 C 254.317 -1.04654 -1.65248 0
M  V30 2621 O 255.523 -1.33146 -2.3661 0
M  V30 2622 C 253.979 -3.47874 -0.922582 0
M  V30 2623 C 253.587 -4.47489 0.213893 0
M  V30 2624 C 255.331 -3.95583 -1.53996 0
M  V30 2625 C 253.238 -5.90921 -0.237903 0
M  V30 2626 H 252.168 -0.730516 -0.186716 0
M  V30 2627 H 254.819 -1.81861 0.244722 0
M  V30 2628 H 253.201 -3.57051 -1.71261 0
M  V30 2629 H 254.375 -4.50017 0.991036 0
M  V30 2630 H 252.69 -4.09764 0.740407 0
M  V30 2631 H 255.287 -5.0019 -1.8898 0
M  V30 2632 H 255.63 -3.37789 -2.43319 0
M  V30 2633 H 256.163 -3.8937 -0.814611 0
M  V30 2634 H 252.902 -6.52559 0.620236 0
M  V30 2635 H 252.422 -5.91729 -0.980676 0
M  V30 2636 H 254.101 -6.43352 -0.686067 0
M  V30 2637 N 254.233 0.115231 -1.57178 0
M  V30 2638 C 255.481 0.820727 -1.84685 0
M  V30 2639 C 255.802 1.80237 -0.744279 0
M  V30 2640 O 255.072 1.94529 0.231375 0
M  V30 2641 H 253.652 0.306084 -0.681411 0
M  V30 2642 H 256.314 0.101656 -1.94635 0
M  V30 2643 H 255.41 1.36366 -2.80733 0
M  V30 2644 N 255.711 1.52812 0.385517 0
M  V30 2645 C 256.941 1.71658 1.14966 0
M  V30 2646 C 257.349 0.436253 1.84102 0
M  V30 2647 O 256.692 -0.599313 1.73649 0
M  V30 2648 C 256.754 2.81309 2.23843 0
M  V30 2649 C 256.418 4.22313 1.74644 0
M  V30 2650 C 257.415 5.05352 1.22129 0
M  V30 2651 C 255.1 4.68648 1.80761 0
M  V30 2652 C 257.094 6.32807 0.763838 0
M  V30 2653 C 254.781 5.96086 1.34627 0
M  V30 2654 C 255.779 6.77996 0.825264 0
M  V30 2655 O 255.467 8.03045 0.370669 0
M  V30 2656 H 255.199 0.578022 0.350523 0
M  V30 2657 H 257.753 2.00263 0.456509 0
M  V30 2658 H 255.983 2.48133 2.96592 0
M  V30 2659 H 257.672 2.88524 2.85497 0
M  V30 2660 H 258.438 4.70736 1.16758 0
M  V30 2661 H 254.317 4.04979 2.20256 0
M  V30 2662 H 257.861 6.96689 0.356494 0
M  V30 2663 H 253.758 6.30205 1.39686 0
M  V30 2664 H 254.526 8.17021 0.491829 0
M  V30 2665 N 257.189 -0.644168 1.43834 0
M  V30 2666 C 258.466 -1.40188 1.36406 0
M  V30 2667 C 258.846 -2.11094 0.0163124 0
M  V30 2668 O 258.194 -2.05426 -1.00062 0
M  V30 2669 C 258.404 -2.3791 2.55343 0
M  V30 2670 C 259.752 -3.01637 2.98832 0
M  V30 2671 O 260.776 -2.48237 2.55455 0
M  V30 2672 O 259.635 -3.98477 3.74003 0
M  V30 2673 H 256.729 -0.626773 0.539523 0
M  V30 2674 H 259.275 -0.670317 1.559 0
M  V30 2675 H 258.047 -1.84525 3.4506 0
M  V30 2676 H 257.67 -3.18503 2.37995 0
M  V30 2677 N 258.668 -1.30515 -0.883378 0
M  V30 2678 C 260.079 -1.17509 -1.45081 0
M  V30 2679 C 260.43 0.223605 -1.94922 0
M  V30 2680 O 259.555 1.12041 -1.85137 0
M  V30 2681 C 260.15 -2.12715 -2.63701 0
M  V30 2682 C 258.709 -2.03682 -3.16529 0
M  V30 2683 C 257.856 -2.02706 -1.89224 0
M  V30 2684 H 260.807 -1.42762 -0.693165 0
M  V30 2685 H 260.828 -1.70891 -3.39965 0
M  V30 2686 H 260.34 -3.14505 -2.27395 0
M  V30 2687 H 258.441 -1.05039 -3.57488 0
M  V30 2688 H 258.554 -2.92146 -3.7972 0
M  V30 2689 H 256.918 -1.4753 -2.07622 0
M  V30 2690 H 257.701 -3.06229 -1.55174 0
M  V30 2691 N 260.146 1.09593 -1.13257 0
M  V30 2692 C 261.395 1.81105 -0.887917 0
M  V30 2693 C 261.708 1.86563 0.587672 0
M  V30 2694 O 262.914 2.54367 0.949204 0
M  V30 2695 C 261.37 3.25338 -1.53895 0
M  V30 2696 C 260.978 3.28151 -3.04994 0
M  V30 2697 C 262.722 4.01617 -1.37492 0
M  V30 2698 C 260.629 4.66897 -3.6299 0
M  V30 2699 H 259.559 0.678661 -0.328534 0
M  V30 2700 H 262.21 1.23183 -1.36008 0
M  V30 2701 H 260.592 3.8331 -0.994446 0
M  V30 2702 H 261.766 2.79953 -3.66009 0
M  V30 2703 H 260.081 2.65361 -3.20893 0
M  V30 2704 H 262.678 5.04119 -1.78235 0
M  V30 2705 H 263.021 4.15072 -0.31957 0
M  V30 2706 H 263.554 3.50082 -1.88912 0
M  V30 2707 H 260.293 4.58643 -4.68323 0
M  V30 2708 H 259.813 5.15426 -3.06752 0
M  V30 2709 H 261.492 5.3587 -3.62563 0
M  V30 2710 N 261.624 0.925811 1.2754 0
M  V30 2711 C 262.873 0.561084 1.93739 0
M  V30 2712 C 263.186 -0.901685 1.73577 0
M  V30 2713 O 264.392 -1.37511 2.34101 0
M  V30 2714 C 262.848 0.952668 3.47062 0
M  V30 2715 C 262.456 2.43599 3.75983 0
M  V30 2716 C 264.2 0.659103 4.19352 0
M  V30 2717 C 262.107 2.76707 5.22673 0
M  V30 2718 H 261.037 0.206122 0.725279 0
M  V30 2719 H 263.688 1.12637 1.44863 0
M  V30 2720 H 262.07 0.316053 3.94737 0
M  V30 2721 H 263.244 3.12035 3.39073 0
M  V30 2722 H 261.559 2.70125 3.16893 0
M  V30 2723 H 264.156 0.882985 5.27359 0
M  V30 2724 H 264.499 -0.403607 4.14339 0
M  V30 2725 H 265.032 1.25473 3.77494 0
M  V30 2726 H 261.771 3.8188 5.32774 0
M  V30 2727 H 261.291 2.12919 5.60737 0
M  V30 2728 H 262.97 2.6435 5.90532 0
M  V30 2729 N 263.102 -1.41638 0.69111 0
M  V30 2730 C 264.327 -2.06148 0.227583 0
M  V30 2731 C 264.752 -1.51652 -1.11281 0
M  V30 2732 O 264.11 -0.64164 -1.69566 0
M  V30 2733 C 264.158 -3.60095 0.190858 0
M  V30 2734 O 263.262 -4.03845 -0.835664 0
M  V30 2735 H 262.603 -0.654434 0.112306 0
M  V30 2736 H 265.133 -1.81484 0.944714 0
M  V30 2737 H 265.143 -4.07995 0.020207 0
M  V30 2738 H 263.818 -3.99129 1.16915 0
M  V30 2739 H 262.395 -3.67458 -0.63473 0
M  V30 2740 N 264.58 -0.43555 -1.51462 0
M  V30 2741 C 265.991 0.0279871 -1.86679 0
M  V30 2742 C 266.342 1.42104 -1.35281 0
M  V30 2743 O 265.467 2.04667 -0.702878 0
M  V30 2744 C 266.062 0.0575626 -3.38751 0
M  V30 2745 C 264.621 0.465507 -3.7351 0
M  V30 2746 C 263.768 -0.342996 -2.75171 0
M  V30 2747 H 266.719 -0.651473 -1.44712 0
M  V30 2748 H 266.74 0.867421 -3.70481 0
M  V30 2749 H 266.252 -0.956448 -3.7613 0
M  V30 2750 H 264.353 1.48519 -3.41721 0
M  V30 2751 H 264.466 0.191546 -4.78717 0
M  V30 2752 H 262.83 0.198442 -2.53926 0
M  V30 2753 H 263.613 -1.35585 -3.15391 0
M  V30 2754 N 266.058 1.56714 -0.166846 0
M  V30 2755 C 266.968 2.21331 0.777791 0
M  V30 2756 C 267.984 1.20358 1.25658 0
M  V30 2757 O 269.16 1.53005 1.30964 0
M  V30 2758 C 266.225 2.83787 1.99163 0
M  V30 2759 C 265.286 3.99947 1.56016 0
M  V30 2760 C 264.519 4.59415 2.71613 0
M  V30 2761 O 264.742 4.17769 3.88362 0
M  V30 2762 O 263.676 5.49359 2.45945 0
M  V30 2763 H 267.502 3.02605 0.257636 0
M  V30 2764 H 265.087 1.49275 0.0611393 0
M  V30 2765 H 266.969 3.23405 2.70161 0
M  V30 2766 H 265.644 2.05513 2.50092 0
M  V30 2767 H 264.551 3.65007 0.819809 0
M  V30 2768 H 265.884 4.79801 1.09782 0
M  V30 2769 N 267.536 -0.106894 1.57237 0
M  V30 2770 C 268.782 -0.81373 1.85759 0
M  V30 2771 C 269.115 -1.78952 0.754315 0
M  V30 2772 O 268.39 -1.93029 -0.23879 0
M  V30 2773 C 268.673 -1.55293 3.24894 0
M  V30 2774 C 268.526 -0.595929 4.45835 0
M  V30 2775 C 269.845 -2.5063 3.61763 0
M  V30 2776 H 266.964 -0.294369 0.67566 0
M  V30 2777 H 269.606 -0.0776472 1.89841 0
M  V30 2778 H 267.756 -2.1804 3.21544 0
M  V30 2779 H 269.428 0.0236262 4.61294 0
M  V30 2780 H 267.671 0.0916191 4.33703 0
M  V30 2781 H 268.342 -1.15004 5.39887 0
M  V30 2782 H 270.818 -1.97982 3.65981 0
M  V30 2783 H 269.694 -2.99376 4.60071 0
M  V30 2784 H 269.955 -3.3385 2.89821 0
M  V30 2785 N 269.014 -1.53014 -0.377408 0
M  V30 2786 C 270.239 -1.72818 -1.14668 0
M  V30 2787 C 270.664 -0.450725 -1.8262 0
M  V30 2788 O 270.022 0.59439 -1.7128 0
M  V30 2789 C 270.07 -2.88627 -2.16164 0
M  V30 2790 O 269.174 -2.56409 -3.22998 0
M  V30 2791 H 268.515 -0.574301 -0.333278 0
M  V30 2792 H 271.045 -1.99853 -0.438152 0
M  V30 2793 H 271.055 -3.14455 -2.59966 0
M  V30 2794 H 269.73 -3.81294 -1.66095 0
M  V30 2795 H 268.307 -2.4136 -2.84253 0
M  V30 2796 N 270.492 0.636531 -1.44174 0
M  V30 2797 C 271.455 1.73063 -1.50273 0
M  V30 2798 C 272.455 1.56113 -0.385397 0
M  V30 2799 O 273.645 1.61707 -0.64781 0
M  V30 2800 C 270.777 3.12096 -1.37145 0
M  V30 2801 H 271.97 1.69031 -2.47727 0
M  V30 2802 H 269.523 0.849706 -1.31186 0
M  V30 2803 H 270.258 3.21728 -0.407636 0
M  V30 2804 H 270.043 3.25805 -2.18159 0
M  V30 2805 H 271.533 3.91846 -1.44382 0
M  V30 2806 N 271.97 1.30982 0.876444 0
M  V30 2807 C 273.195 1.23373 1.66715 0
M  V30 2808 C 273.62 -0.19885 1.87046 0
M  V30 2809 O 272.978 -1.1427 1.40756 0
M  V30 2810 C 273.026 1.97644 3.01611 0
M  V30 2811 O 272.13 1.30935 3.91062 0
M  V30 2812 H 271.471 0.426279 0.509099 0
M  V30 2813 H 274.001 1.72944 1.09323 0
M  V30 2814 H 274.011 2.06992 3.51594 0
M  V30 2815 H 272.686 3.01829 2.86133 0
M  V30 2816 H 271.263 1.29996 3.49507 0
M  V30 2817 N 273.449 -1.08991 1.13837 0
M  V30 2818 C 274.696 -1.81258 0.902882 0
M  V30 2819 C 275.024 -1.85936 -0.570803 0
M  V30 2820 O 274.279 -1.3267 -1.43865 0
M  V30 2821 C 274.578 -3.27042 1.44147 0
M  V30 2822 C 274.244 -3.4249 2.93276 0
M  V30 2823 C 272.906 -3.46414 3.33992 0
M  V30 2824 C 275.258 -3.4666 3.892 0
M  V30 2825 C 272.586 -3.52091 4.69307 0
M  V30 2826 C 274.938 -3.53872 5.24364 0
M  V30 2827 C 273.602 -3.56066 5.646 0
M  V30 2828 H 272.872 -0.663268 0.330388 0
M  V30 2829 H 275.519 -1.28368 1.42105 0
M  V30 2830 H 273.824 -3.82599 0.844097 0
M  V30 2831 H 275.521 -3.81499 1.23528 0
M  V30 2832 H 272.111 -3.40124 2.60794 0
M  V30 2833 H 276.295 -3.42865 3.58828 0
M  V30 2834 H 271.551 -3.52079 4.9985 0
M  V30 2835 H 275.725 -3.56043 5.98503 0
M  V30 2836 H 273.352 -3.60218 6.69438 0
M  V30 2837 N 274.927 -0.932562 -1.27047 0
M  V30 2838 C 276.175 -0.574422 -1.93765 0
M  V30 2839 C 276.496 0.887993 -1.73608 0
M  V30 2840 O 275.766 1.62999 -1.08665 0
M  V30 2841 H 274.346 -0.209451 -0.717035 0
M  V30 2842 H 277.008 -1.18601 -1.5466 0
M  V30 2843 H 276.104 -0.784841 -3.02071 0
M  V30 2844 N 276.405 1.4127 -0.698611 0
M  V30 2845 C 277.651 2.01478 -0.231207 0
M  V30 2846 C 277.984 1.55215 1.16713 0
M  V30 2847 O 277.259 0.764672 1.78838 0
M  V30 2848 C 277.542 3.58912 -0.292281 0
M  V30 2849 C 277.395 4.15293 -1.72778 0
M  V30 2850 C 278.714 4.38736 0.346194 0
M  V30 2851 H 275.833 0.732025 -0.0854878 0
M  V30 2852 H 278.475 1.67977 -0.887906 0
M  V30 2853 H 276.625 3.87582 0.26686 0
M  V30 2854 H 278.297 3.97486 -2.341 0
M  V30 2855 H 276.54 3.7022 -2.26096 0
M  V30 2856 H 277.211 5.24452 -1.72202 0
M  V30 2857 H 279.687 4.15897 -0.130035 0
M  V30 2858 H 278.563 5.48221 0.272932 0
M  V30 2859 H 278.824 4.18425 1.42734 0
M  V30 2860 N 277.883 0.443576 1.51229 0
M  V30 2861 C 278.815 -0.400608 2.25672 0
M  V30 2862 C 279.828 -0.980945 1.29928 0
M  V30 2863 O 281.017 -0.874024 1.55638 0
M  V30 2864 C 278.117 -1.57304 3.00181 0
M  V30 2865 C 277.29 -1.11046 4.23069 0
M  V30 2866 C 276.349 -2.15374 4.80105 0
M  V30 2867 O 275.375 -1.74554 5.41774 0
M  V30 2868 N 276.577 -3.47922 4.64683 0
M  V30 2869 H 279.342 0.23745 2.98758 0
M  V30 2870 H 276.903 0.272809 1.59585 0
M  V30 2871 H 278.895 -2.26733 3.35223 0
M  V30 2872 H 277.465 -2.11632 2.30066 0
M  V30 2873 H 276.685 -0.243019 3.9345 0
M  V30 2874 H 277.973 -0.778888 5.02803 0
M  V30 2875 H 277.371 -3.83815 4.15575 0
M  V30 2876 H 275.928 -4.13228 5.0407 0
M  V30 2877 N 279.361 -1.56624 0.175154 0
M  V30 2878 C 280.293 -2.15333 -0.785128 0
M  V30 2879 C 281.306 -1.1099 -1.19101 0
M  V30 2880 O 282.495 -1.38162 -1.13019 0
M  V30 2881 C 279.595 -2.68427 -2.06882 0
M  V30 2882 C 278.768 -3.97466 -1.8259 0
M  V30 2883 C 277.827 -4.35585 -2.95215 0
M  V30 2884 O 276.853 -5.03389 -2.65684 0
M  V30 2885 N 278.055 -3.97457 -4.23094 0
M  V30 2886 H 280.82 -2.98359 -0.283187 0
M  V30 2887 H 278.381 -1.61898 -0.00749817 0
M  V30 2888 H 280.373 -2.90924 -2.81328 0
M  V30 2889 H 278.943 -1.89968 -2.48256 0
M  V30 2890 H 278.163 -3.83307 -0.920287 0
M  V30 2891 H 279.451 -4.81736 -1.63733 0
M  V30 2892 H 278.849 -3.42878 -4.49945 0
M  V30 2893 H 277.406 -4.24947 -4.9423 0
M  V30 2894 N 280.839 0.0985539 -1.57292 0
M  V30 2895 C 281.769 1.12064 -2.04851 0
M  V30 2896 C 282.75 1.41981 -0.936767 0
M  V30 2897 O 283.935 1.52071 -1.20781 0
M  V30 2898 C 281.065 2.44144 -2.47004 0
M  V30 2899 C 280.019 2.28643 -3.6181 0
M  V30 2900 C 279.345 3.65869 -3.89929 0
M  V30 2901 C 280.645 1.72986 -4.92822 0
M  V30 2902 H 282.339 0.724979 -2.9049 0
M  V30 2903 H 279.885 0.34729 -1.39749 0
M  V30 2904 H 281.838 3.15914 -2.78884 0
M  V30 2905 H 280.562 2.85639 -1.5836 0
M  V30 2906 H 279.221 1.59318 -3.30172 0
M  V30 2907 H 278.869 4.04885 -2.98458 0
M  V30 2908 H 278.569 3.56344 -4.67218 0
M  V30 2909 H 280.093 4.39112 -4.2428 0
M  V30 2910 H 281.507 2.34593 -5.23105 0
M  V30 2911 H 279.904 1.74229 -5.74251 0
M  V30 2912 H 280.974 0.689007 -4.7998 0
M  V30 2913 N 282.317 1.53212 0.369288 0
M  V30 2914 C 283.728 1.60943 0.946276 0
M  V30 2915 C 284.079 0.47452 1.90375 0
M  V30 2916 O 283.204 -0.399597 2.12679 0
M  V30 2917 C 283.799 2.91715 1.72302 0
M  V30 2918 C 282.358 3.01792 2.24941 0
M  V30 2919 C 281.505 2.56211 1.06072 0
M  V30 2920 H 284.456 1.58007 0.148198 0
M  V30 2921 H 284.477 2.79309 2.58393 0
M  V30 2922 H 283.989 3.74295 1.0259 0
M  V30 2923 H 282.09 2.23791 2.97906 0
M  V30 2924 H 282.203 4.06803 2.53077 0
M  V30 2925 H 280.567 2.10998 1.4266 0
M  V30 2926 H 281.35 3.41206 0.378639 0
M  V30 2927 N 283.795 -0.628877 1.44509 0
M  V30 2928 C 284.725 -1.75187 1.54376 0
M  V30 2929 C 285.706 -1.65411 0.396618 0
M  V30 2930 O 286.891 -1.84137 0.617031 0
M  V30 2931 C 284.021 -3.13725 1.48976 0
M  V30 2932 C 282.975 -3.38291 2.62189 0
M  V30 2933 C 282.301 -4.76883 2.41841 0
M  V30 2934 C 283.601 -3.30632 4.04326 0
M  V30 2935 H 285.295 -1.67187 2.48373 0
M  V30 2936 H 282.841 -0.802909 1.19538 0
M  V30 2937 H 284.794 -3.92064 1.54478 0
M  V30 2938 H 283.518 -3.22515 0.514961 0
M  V30 2939 H 282.177 -2.62334 2.56079 0
M  V30 2940 H 281.825 -4.82378 1.42548 0
M  V30 2941 H 281.525 -4.94278 3.17747 0
M  V30 2942 H 283.049 -5.57449 2.49165 0
M  V30 2943 H 284.463 -3.98873 4.11793 0
M  V30 2944 H 282.86 -3.59561 4.80454 0
M  V30 2945 H 283.93 -2.28404 4.27738 0
M  V30 2946 N 285.273 -1.31445 -0.869486 0
M  V30 2947 C 286.183 -1.21097 -2.0093 0
M  V30 2948 C 287.199 -0.127584 -1.73532 0
M  V30 2949 O 288.375 -0.345477 -1.98415 0
M  V30 2950 C 285.44 -0.919378 -3.34288 0
M  V30 2951 C 284.501 -2.08971 -3.75006 0
M  V30 2952 C 283.734 -1.81194 -5.02001 0
M  V30 2953 O 283.957 -0.747296 -5.65484 0
M  V30 2954 O 282.891 -2.66883 -5.39497 0
M  V30 2955 H 286.717 -2.16883 -2.12592 0
M  V30 2956 H 284.302 -1.11189 -0.997868 0
M  V30 2957 H 286.184 -0.772625 -4.14257 0
M  V30 2958 H 284.859 0.00844772 -3.23699 0
M  V30 2959 H 283.766 -2.29187 -2.95676 0
M  V30 2960 H 285.099 -2.9998 -3.90221 0
M  V30 2961 N 286.751 1.08385 -1.14413 0
M  V30 2962 C 287.661 2.18856 -0.844951 0
M  V30 2963 C 288.677 1.73121 0.174668 0
M  V30 2964 O 289.853 2.014 0.00312857 0
M  V30 2965 C 286.918 3.45155 -0.32696 0
M  V30 2966 C 285.979 4.05513 -1.40916 0
M  V30 2967 C 285.212 5.25784 -0.915793 0
M  V30 2968 O 285.435 5.69884 0.242651 0
M  V30 2969 O 284.369 5.77545 -1.69487 0
M  V30 2970 H 288.195 2.46919 -1.76818 0
M  V30 2971 H 285.78 1.17524 -0.922411 0
M  V30 2972 H 287.662 4.21377 -0.0440211 0
M  V30 2973 H 286.337 3.18668 0.568539 0
M  V30 2974 H 285.244 3.30879 -1.74556 0
M  V30 2975 H 286.577 4.3625 -2.27919 0
M  V30 2976 N 288.23 0.939286 1.26551 0
M  V30 2977 C 289.479 0.581601 1.93133 0
M  V30 2978 C 289.792 -0.883224 1.74524 0
M  V30 2979 O 290.998 -1.3502 2.35546 0
M  V30 2980 C 289.454 0.989425 3.46032 0
M  V30 2981 C 289.062 2.47573 3.73379 0
M  V30 2982 C 290.806 0.703544 4.18629 0
M  V30 2983 C 288.713 2.82235 5.19709 0
M  V30 2984 H 287.643 0.213803 0.723052 0
M  V30 2985 H 290.294 1.14167 1.4366 0
M  V30 2986 H 288.676 0.357902 3.94379 0
M  V30 2987 H 289.85 3.15614 3.35744 0
M  V30 2988 H 288.165 2.73471 3.1401 0
M  V30 2989 H 290.762 0.938869 5.26393 0
M  V30 2990 H 291.105 -0.359639 4.14744 0
M  V30 2991 H 291.638 1.2947 3.76141 0
M  V30 2992 H 288.377 3.87509 5.28694 0
M  V30 2993 H 287.897 2.18854 5.58447 0
M  V30 2994 H 289.576 2.70599 5.87695 0
M  V30 2995 N 289.708 -1.40897 0.706093 0
M  V30 2996 C 290.954 -2.01849 0.250681 0
M  V30 2997 C 291.309 -1.5496 -1.14041 0
M  V30 2998 O 290.602 -0.755566 -1.76073 0
M  V30 2999 C 290.796 -3.5646 0.259099 0
M  V30 3000 C 290.625 -4.18357 1.64947 0
M  V30 3001 C 289.395 -4.522 2.25485 0
M  V30 3002 C 291.593 -4.43856 2.598 0
M  V30 3003 N 289.575 -4.9944 3.56977 0
M  V30 3004 C 290.946 -4.92986 3.75985 0
M  V30 3005 C 293.001 -4.25882 2.57933 0
M  V30 3006 C 291.704 -5.2603 4.90597 0
M  V30 3007 C 293.73 -4.6002 3.71665 0
M  V30 3008 C 293.092 -5.09331 4.86581 0
M  V30 3009 H 289.191 -0.769843 0.137353 0
M  V30 3010 H 291.775 -1.71278 0.925845 0
M  V30 3011 H 289.946 -3.86481 -0.385592 0
M  V30 3012 H 291.678 -4.04144 -0.21213 0
M  V30 3013 H 288.433 -4.3901 1.77671 0
M  V30 3014 H 288.857 -5.27454 4.24407 0
M  V30 3015 H 293.499 -3.86986 1.70298 0
M  V30 3016 H 291.217 -5.63843 5.78884 0
M  V30 3017 H 294.803 -4.47762 3.71484 0
M  V30 3018 H 293.683 -5.35251 5.73129 0
M  V30 3019 N 291.186 -0.45159 -1.50991 0
M  V30 3020 C 292.597 0.00818571 -1.86698 0
M  V30 3021 C 292.948 1.40661 -1.3678 0
M  V30 3022 O 292.073 2.0391 -0.724546 0
M  V30 3023 C 292.668 0.0216303 -3.38793 0
M  V30 3024 C 291.227 0.425865 -3.73983 0
M  V30 3025 C 290.374 -0.372163 -2.74791 0
M  V30 3026 H 293.325 -0.666785 -1.44013 0
M  V30 3027 H 293.346 0.828078 -3.7138 0
M  V30 3028 H 292.858 -0.996288 -3.75094 0
M  V30 3029 H 290.959 1.44886 -3.43277 0
M  V30 3030 H 291.072 0.140761 -4.78893 0
M  V30 3031 H 289.436 0.171498 -2.54122 0
M  V30 3032 H 290.219 -1.38922 -3.13935 0
M  V30 3033 N 292.664 1.56529 -0.183458 0
M  V30 3034 C 293.594 2.21549 0.737456 0
M  V30 3035 C 294.575 1.17489 1.23005 0
M  V30 3036 O 295.76 1.45959 1.281 0
M  V30 3037 C 292.89 2.86575 1.96194 0
M  V30 3038 C 291.844 3.96778 1.60473 0
M  V30 3039 C 291.17 4.48911 2.90487 0
M  V30 3040 C 292.47 5.15767 0.823497 0
M  V30 3041 H 294.164 2.98761 0.195453 0
M  V30 3042 H 291.71 1.43702 0.0925686 0
M  V30 3043 H 293.663 3.30739 2.61131 0
M  V30 3044 H 292.387 2.06749 2.52828 0
M  V30 3045 H 291.046 3.53286 0.978997 0
M  V30 3046 H 290.694 3.65862 3.45186 0
M  V30 3047 H 290.394 5.23265 2.67335 0
M  V30 3048 H 291.918 4.95771 3.56432 0
M  V30 3049 H 293.332 5.56549 1.37571 0
M  V30 3050 H 291.729 5.96114 0.690551 0
M  V30 3051 H 292.799 4.84574 -0.177782 0
M  V30 3052 N 294.142 -0.090211 1.57342 0
M  V30 3053 C 295.382 -0.798365 1.88163 0
M  V30 3054 C 295.746 -1.75662 0.775046 0
M  V30 3055 O 296.947 -2.50849 0.965816 0
M  V30 3056 C 295.218 -1.50376 3.24225 0
M  V30 3057 S 296.777 -2.24952 3.76752 0
M  V30 3058 H 293.595 -0.265883 0.659414 0
M  V30 3059 H 296.197 -0.055264 1.95422 0
M  V30 3060 H 294.901 -0.792286 4.0268 0
M  V30 3061 H 294.432 -2.28666 3.20118 0
M  V30 3062 H 296.447 -3.51173 3.5056 0
M  V30 3063 N 295.62 -1.53406 -0.361157 0
M  V30 3064 C 296.897 -1.60411 -1.11927 0
M  V30 3065 C 297.277 -0.414385 -2.06993 0
M  V30 3066 O 296.625 0.594976 -2.20618 0
M  V30 3067 C 296.835 -2.95652 -1.85448 0
M  V30 3068 C 298.183 -3.50386 -2.39823 0
M  V30 3069 O 299.207 -2.97711 -1.95568 0
M  V30 3070 O 298.066 -4.42482 -3.20737 0
M  V30 3071 H 295.16 -0.64811 -0.513695 0
M  V30 3072 H 297.706 -1.65749 -0.364065 0
M  V30 3073 H 296.478 -3.73682 -1.16091 0
M  V30 3074 H 296.101 -2.93825 -2.67866 0
M  V30 3075 N 297.098 0.621204 -1.44841 0
M  V30 3076 C 298.345 1.38055 -1.48145 0
M  V30 3077 C 298.673 1.94143 -0.117867 0
M  V30 3078 O 297.928 1.74713 0.881694 0
M  V30 3079 C 298.227 2.55675 -2.4973 0
M  V30 3080 C 297.893 2.17817 -3.94799 0
M  V30 3081 C 296.555 2.07205 -4.34303 0
M  V30 3082 C 298.907 1.88065 -4.86087 0
M  V30 3083 C 296.235 1.65045 -5.63007 0
M  V30 3084 C 298.587 1.47394 -6.15189 0
M  V30 3085 C 297.251 1.35331 -6.53637 0
M  V30 3086 H 296.521 0.505181 -0.542101 0
M  V30 3087 H 299.168 0.703477 -1.78111 0
M  V30 3088 H 297.473 3.2866 -2.13284 0
M  V30 3089 H 299.17 3.13904 -2.4953 0
M  V30 3090 H 295.76 2.26998 -3.63552 0
M  V30 3091 H 299.944 1.95168 -4.56315 0
M  V30 3092 H 295.2 1.54317 -5.91605 0
M  V30 3093 H 299.374 1.23415 -6.85377 0
M  V30 3094 H 297.001 1.02435 -7.53267 0
M  V30 3095 N 298.576 1.31904 0.862503 0
M  V30 3096 C 299.825 1.21373 1.61094 0
M  V30 3097 C 300.138 -0.22504 1.94301 0
M  V30 3098 O 301.344 -0.452121 2.67709 0
M  V30 3099 C 299.8 2.12525 2.9045 0
M  V30 3100 C 299.408 3.61441 2.64697 0
M  V30 3101 C 301.152 2.10813 3.68454 0
M  V30 3102 C 299.059 4.44578 3.90006 0
M  V30 3103 H 297.989 0.450705 0.604468 0
M  V30 3104 H 300.64 1.56811 0.953027 0
M  V30 3105 H 299.022 1.69994 3.57656 0
M  V30 3106 H 300.196 4.12264 2.05851 0
M  V30 3107 H 298.511 3.65205 2.00036 0
M  V30 3108 H 301.108 2.70167 4.61426 0
M  V30 3109 H 301.451 1.09713 4.01583 0
M  V30 3110 H 301.984 2.51583 3.08141 0
M  V30 3111 H 298.723 5.46461 3.62023 0
M  V30 3112 H 298.243 3.98508 4.48276 0
M  V30 3113 H 299.922 4.57176 4.5782 0
M  V30 3114 N 300.054 -1.07777 1.14986 0
M  V30 3115 C 301.282 -1.84018 0.945773 0
M  V30 3116 C 301.697 -1.81897 -0.505863 0
M  V30 3117 O 301.054 -1.22726 -1.35072 0
M  V30 3118 C 301.105 -3.31287 1.44677 0
M  V30 3119 O 300.826 -3.33449 2.84154 0
M  V30 3120 C 302.327 -4.24311 1.28355 0
M  V30 3121 H 299.547 -0.580716 0.336169 0
M  V30 3122 H 302.091 -1.36077 1.52654 0
M  V30 3123 H 300.246 -3.76594 0.908625 0
M  V30 3124 H 300.66 -4.25427 3.06777 0
M  V30 3125 H 302.134 -5.2573 1.68261 0
M  V30 3126 H 302.611 -4.38612 0.227184 0
M  V30 3127 H 303.217 -3.84836 1.81056 0
M  V30 3128 N 301.532 -0.945985 -1.26051 0
M  V30 3129 C 302.778 -0.597002 -1.93814 0
M  V30 3130 C 303.111 0.862484 -1.73997 0
M  V30 3131 O 302.386 1.61769 -1.07986 0
M  V30 3132 C 302.669 -0.945937 -3.47454 0
M  V30 3133 C 302.522 -2.46052 -3.76535 0
M  V30 3134 C 303.841 -0.464785 -4.37639 0
M  V30 3135 H 300.96 -0.218366 -0.703907 0
M  V30 3136 H 303.602 -1.18107 -1.48831 0
M  V30 3137 H 301.752 -0.448902 -3.85898 0
M  V30 3138 H 303.424 -3.03065 -3.47778 0
M  V30 3139 H 301.667 -2.90194 -3.22444 0
M  V30 3140 H 302.338 -2.65517 -4.83947 0
M  V30 3141 H 304.814 -0.891016 -4.06448 0
M  V30 3142 H 303.69 -0.737712 -5.4392 0
M  V30 3143 H 303.951 0.635274 -4.37512 0
M  V30 3144 N 303.011 1.40521 -0.713556 0
M  V30 3145 C 303.961 2.27971 -0.036165 0
M  V30 3146 C 304.945 1.43151 0.734623 0
M  V30 3147 O 306.137 1.66261 0.607158 0
M  V30 3148 C 303.266 3.31661 0.886331 0
M  V30 3149 C 302.352 4.23955 0.110836 0
M  V30 3150 N 302.743 4.97641 -0.904847 0
M  V30 3151 C 301.041 4.44674 0.343692 0
M  V30 3152 C 301.742 5.65322 -1.37064 0
M  V30 3153 N 300.718 5.39162 -0.693168 0
M  V30 3154 H 304.52 2.82384 -0.814645 0
M  V30 3155 H 302.034 1.52948 -0.545963 0
M  V30 3156 H 304.031 3.93154 1.38692 0
M  V30 3157 H 302.691 2.78808 1.66421 0
M  V30 3158 H 303.702 5.01689 -1.28563 0
M  V30 3159 H 300.379 4.02801 1.09805 0
M  V30 3160 H 301.769 6.34359 -2.21447 0
M  V30 3161 N 304.489 0.459591 1.5075 0
M  V30 3162 C 305.717 -0.0973749 2.06671 0
M  V30 3163 C 306.132 -1.34524 1.32472 0
M  V30 3164 O 305.489 -1.7827 0.390634 0
M  V30 3165 C 305.54 -0.39714 3.59312 0
M  V30 3166 O 305.261 0.801214 4.30711 0
M  V30 3167 C 306.762 -1.00234 4.31819 0
M  V30 3168 H 303.982 0.00195854 0.670997 0
M  V30 3169 H 306.526 0.645072 1.94059 0
M  V30 3170 H 304.681 -1.08951 3.71764 0
M  V30 3171 H 305.095 0.538857 5.21725 0
M  V30 3172 H 306.569 -1.16193 5.39632 0
M  V30 3173 H 307.046 -1.98939 3.91561 0
M  V30 3174 H 307.652 -0.348699 4.23868 0
M  V30 3175 N 305.967 -1.56429 0.191757 0
M  V30 3176 C 307.378 -1.83912 -0.321428 0
M  V30 3177 C 307.729 -1.11231 -1.61623 0
M  V30 3178 O 306.854 -0.37202 -2.13178 0
M  V30 3179 C 307.449 -3.33624 -0.589961 0
M  V30 3180 C 306.008 -3.6153 -1.04753 0
M  V30 3181 C 305.155 -2.7714 -0.0943327 0
M  V30 3182 H 308.106 -1.53161 0.415612 0
M  V30 3183 H 308.127 -3.52213 -1.43966 0
M  V30 3184 H 307.639 -3.86495 0.352588 0
M  V30 3185 H 305.74 -3.14089 -2.00447 0
M  V30 3186 H 305.853 -4.69737 -0.942549 0
M  V30 3187 H 304.217 -2.47638 -0.595589 0
M  V30 3188 H 305 -3.32799 0.842601 0
M  V30 3189 N 307.445 0.0818655 -1.57387 0
M  V30 3190 C 308.375 1.09885 -2.06028 0
M  V30 3191 C 309.356 1.4098 -0.951774 0
M  V30 3192 O 310.541 1.50781 -1.22387 0
M  V30 3193 C 307.671 2.4151 -2.4958 0
M  V30 3194 C 306.625 2.24792 -3.64215 0
M  V30 3195 C 305.951 3.61712 -3.93787 0
M  V30 3196 C 307.251 1.67749 -4.94629 0
M  V30 3197 H 308.945 0.694128 -2.91243 0
M  V30 3198 H 306.491 0.332448 -1.4011 0
M  V30 3199 H 308.444 3.12939 -2.82219 0
M  V30 3200 H 307.168 2.83943 -1.61381 0
M  V30 3201 H 305.827 1.55807 -3.31843 0
M  V30 3202 H 305.475 4.01697 -3.02735 0
M  V30 3203 H 305.175 3.51368 -4.70971 0
M  V30 3204 H 306.699 4.34587 -4.28913 0
M  V30 3205 H 308.113 2.29032 -5.25564 0
M  V30 3206 H 306.51 1.68128 -5.76067 0
M  V30 3207 H 307.58 0.638059 -4.80684 0
M  V30 3208 N 308.923 1.53595 0.353017 0
M  V30 3209 C 309.853 1.83902 1.43883 0
M  V30 3210 C 310.834 0.693421 1.55324 0
M  V30 3211 O 312.019 0.944452 1.69687 0
M  V30 3212 C 309.149 2.04016 2.8106 0
M  V30 3213 C 308.103 3.19814 2.84434 0
M  V30 3214 C 307.429 3.25244 4.24406 0
M  V30 3215 C 308.729 4.58133 2.50822 0
M  V30 3216 H 310.423 2.74835 1.1877 0
M  V30 3217 H 307.969 1.32242 0.569917 0
M  V30 3218 H 309.922 2.238 3.57059 0
M  V30 3219 H 308.646 1.09804 3.07588 0
M  V30 3220 H 307.305 2.9987 2.10887 0
M  V30 3221 H 306.953 2.28646 4.48029 0
M  V30 3222 H 306.653 4.03054 4.27576 0
M  V30 3223 H 308.177 3.47228 5.0226 0
M  V30 3224 H 309.591 4.77995 3.16534 0
M  V30 3225 H 307.988 5.38276 2.6529 0
M  V30 3226 H 309.058 4.62387 1.46034 0
M  V30 3227 N 310.401 -0.613514 1.45168 0
M  V30 3228 C 311.812 -1.19539 1.43413 0
M  V30 3229 C 312.163 -1.95558 0.158632 0
M  V30 3230 O 311.288 -2.0335 -0.740119 0
M  V30 3231 C 311.883 -2.17445 2.59813 0
M  V30 3232 C 310.442 -2.71022 2.61197 0
M  V30 3233 C 309.589 -1.46323 2.35552 0
M  V30 3234 H 312.54 -0.403163 1.53494 0
M  V30 3235 H 312.561 -3.00373 2.33574 0
M  V30 3236 H 312.073 -1.62089 3.52631 0
M  V30 3237 H 310.174 -3.30332 1.7237 0
M  V30 3238 H 310.287 -3.15859 3.60236 0
M  V30 3239 H 308.651 -1.75072 1.84992 0
M  V30 3240 H 309.434 -0.92844 3.30507 0
M  V30 3241 N 311.879 -1.3236 -0.855495 0
M  V30 3242 C 313.104 -1.2601 -1.64731 0
M  V30 3243 C 313.529 0.169068 -1.87339 0
M  V30 3244 O 312.887 1.12016 -1.42556 0
M  V30 3245 C 312.935 -2.02417 -2.98429 0
M  V30 3246 O 312.039 -1.3714 -3.8893 0
M  V30 3247 H 311.38 -0.434325 -0.502253 0
M  V30 3248 H 313.91 -1.74661 -1.06558 0
M  V30 3249 H 313.92 -2.12559 -3.48257 0
M  V30 3250 H 312.595 -3.06343 -2.81295 0
M  V30 3251 H 311.172 -1.3554 -3.47395 0
M  V30 3252 N 313.357 1.07166 -1.15556 0
M  V30 3253 C 314.585 1.83514 -0.955519 0
M  V30 3254 C 315 1.82163 0.49621 0
M  V30 3255 O 314.357 1.23441 1.34419 0
M  V30 3256 C 314.408 3.30515 -1.46432 0
M  V30 3257 O 314.129 3.31937 -2.85918 0
M  V30 3258 C 315.63 4.23625 -1.30603 0
M  V30 3259 H 312.85 0.578926 -0.339244 0
M  V30 3260 H 315.394 1.35265 -1.53374 0
M  V30 3261 H 313.549 3.76106 -0.928584 0
M  V30 3262 H 313.963 4.23794 -3.09029 0
M  V30 3263 H 315.437 5.24831 -1.71047 0
M  V30 3264 H 315.914 4.38485 -0.250441 0
M  V30 3265 H 316.52 3.83871 -1.83094 0
M  V30 3266 N 314.835 0.952656 1.25548 0
M  V30 3267 C 316.063 0.623496 1.97282 0
M  V30 3268 C 316.478 -0.803987 1.70826 0
M  V30 3269 O 315.835 -1.53755 0.983147 0
M  V30 3270 C 315.886 0.870209 3.5087 0
M  V30 3271 O 315.607 2.24156 3.76412 0
M  V30 3272 C 317.108 0.553164 4.39835 0
M  V30 3273 H 314.328 0.233931 0.628902 0
M  V30 3274 H 316.872 1.27649 1.59768 0
M  V30 3275 H 315.027 0.263652 3.86502 0
M  V30 3276 H 315.441 2.31021 4.70882 0
M  V30 3277 H 316.915 0.776342 5.46513 0
M  V30 3278 H 317.392 -0.512215 4.36203 0
M  V30 3279 H 317.998 1.13896 4.09766 0
M  V30 3280 N 316.313 -1.40141 0.720998 0
M  V30 3281 C 317.561 -2.0039 0.262323 0
M  V30 3282 C 317.882 -1.57469 -1.15015 0
M  V30 3283 O 317.152 -0.816582 -1.78069 0
M  V30 3284 H 315.732 -0.741063 0.093996 0
M  V30 3285 H 318.394 -1.71398 0.927835 0
M  V30 3286 H 317.49 -3.10658 0.299671 0
M  V30 3287 N 317.792 -0.46758 -1.50504 0
M  V30 3288 C 318.722 0.318381 -2.31319 0
M  V30 3289 C 319.703 0.993564 -1.38066 0
M  V30 3290 O 320.888 0.991411 -1.66987 0
M  V30 3291 C 318.018 1.40275 -3.17711 0
M  V30 3292 C 316.972 0.849373 -4.19487 0
M  V30 3293 C 316.298 2.03177 -4.94594 0
M  V30 3294 C 317.598 -0.136942 -5.2212 0
M  V30 3295 H 319.292 -0.356106 -2.97275 0
M  V30 3296 H 316.838 -0.172703 -1.42961 0
M  V30 3297 H 318.791 1.96004 -3.73042 0
M  V30 3298 H 317.515 2.10596 -2.49634 0
M  V30 3299 H 316.174 0.314076 -3.65252 0
M  V30 3300 H 315.822 2.72187 -4.22993 0
M  V30 3301 H 315.522 1.66774 -5.63436 0
M  V30 3302 H 317.046 2.59403 -5.52759 0
M  V30 3303 H 318.46 0.331056 -5.72343 0
M  V30 3304 H 316.857 -0.41507 -5.98663 0
M  V30 3305 H 317.927 -1.06398 -4.73083 0
M  V30 3306 N 319.27 1.56325 -0.20005 0
M  V30 3307 C 320.2 2.22318 0.713916 0
M  V30 3308 C 321.181 1.18788 1.21752 0
M  V30 3309 O 322.366 1.47309 1.26545 0
M  V30 3310 C 319.496 2.88639 1.93144 0
M  V30 3311 C 318.45 3.98457 1.56255 0
M  V30 3312 C 317.776 4.51967 2.85709 0
M  V30 3313 C 319.076 5.16612 0.768747 0
M  V30 3314 H 320.77 2.98952 0.163755 0
M  V30 3315 H 318.316 1.43792 0.0773219 0
M  V30 3316 H 320.269 3.33491 2.57608 0
M  V30 3317 H 318.993 2.09419 2.50621 0
M  V30 3318 H 317.652 3.54305 0.941471 0
M  V30 3319 H 317.3 3.69503 3.41287 0
M  V30 3320 H 317 5.26071 2.6177 0
M  V30 3321 H 318.524 4.99523 3.51154 0
M  V30 3322 H 319.938 5.57977 1.3166 0
M  V30 3323 H 318.335 5.96812 0.627286 0
M  V30 3324 H 319.405 4.84358 -0.229168 0
M  V30 3325 N 320.748 -0.0735177 1.57428 0
M  V30 3326 C 321.696 -1.10628 2.04607 0
M  V30 3327 C 322.69 -1.40181 0.951088 0
M  V30 3328 O 323.896 -1.39608 1.1362 0
M  V30 3329 H 320.271 -0.374088 0.652351 0
M  V30 3330 H 322.242 -0.682218 2.90497 0
M  V30 3331 C 320.991 -2.41212 2.50423 0
M  V30 3332 H 320.314 -2.19322 3.34272 0
M  V30 3333 H 321.754 -3.11927 2.87189 0
M  V30 3334 C 320.213 -3.0705 1.38644 0
M  V30 3335 O 320.743 -3.95056 0.727582 0
M  V30 3336 N 318.949 -2.67645 1.132 0
M  V30 3337 H 318.496 -1.96169 1.66959 0
M  V30 3338 H 318.454 -3.1202 0.386147 0
M  V30 3339 N 322.226 -1.5378 -0.344866 0
M  V30 3340 C 323.503 -1.61589 -1.10219 0
M  V30 3341 C 323.883 -0.436316 -2.06542 0
M  V30 3342 O 323.231 0.571543 -2.21237 0
M  V30 3343 C 323.441 -2.97602 -1.82301 0
M  V30 3344 C 324.789 -3.5291 -2.36093 0
M  V30 3345 O 325.813 -2.99768 -1.924 0
M  V30 3346 O 324.672 -4.45859 -3.16026 0
M  V30 3347 H 321.766 -0.653522 -0.506792 0
M  V30 3348 H 324.312 -1.66126 -0.346465 0
M  V30 3349 H 323.084 -3.74893 -1.12121 0
M  V30 3350 H 322.707 -2.9665 -2.64735 0
M  V30 3351 N 323.704 0.605807 -1.45491 0
M  V30 3352 C 324.652 1.73754 -1.54636 0
M  V30 3353 C 325.646 1.64207 -0.416219 0
M  V30 3354 O 326.852 1.69979 -0.592199 0
M  V30 3355 H 323.227 0.574073 -0.485741 0
M  V30 3356 H 325.198 1.63169 -2.49837 0
M  V30 3357 C 323.947 3.12135 -1.53189 0
M  V30 3358 H 323.27 3.20141 -2.39478 0
M  V30 3359 H 324.71 3.91147 -1.63645 0
M  V30 3360 C 323.169 3.35921 -0.256616 0
M  V30 3361 O 323.699 3.96194 0.662798 0
M  V30 3362 N 321.905 2.90204 -0.151751 0
M  V30 3363 H 321.452 2.41336 -0.90081 0
M  V30 3364 H 321.41 3.06492 0.700699 0
M  V30 3365 N 325.182 1.32811 0.848464 0
M  V30 3366 C 326.41 1.26739 1.63538 0
M  V30 3367 C 326.825 -0.163484 1.88091 0
M  V30 3368 O 326.182 -1.10258 1.45429 0
M  V30 3369 C 326.233 2.03013 2.99112 0
M  V30 3370 O 325.954 3.40518 2.75643 0
M  V30 3371 C 327.455 2.04038 3.93552 0
M  V30 3372 H 324.675 0.437024 0.509167 0
M  V30 3373 H 327.219 1.75033 1.05753 0
M  V30 3374 H 325.374 1.58426 3.53525 0
M  V30 3375 H 325.788 3.79635 3.61908 0
M  V30 3376 H 327.262 2.61877 4.85926 0
M  V30 3377 H 327.739 1.0282 4.26995 0
M  V30 3378 H 328.345 2.486 3.45077 0
M  V30 3379 N 326.66 -1.06551 1.16123 0
M  V30 3380 C 327.907 -1.79302 0.941126 0
M  V30 3381 C 328.235 -1.87105 -0.531235 0
M  V30 3382 O 327.49 -1.35692 -1.41018 0
M  V30 3383 C 327.789 -3.23911 1.51052 0
M  V30 3384 C 327.455 -3.36193 3.00475 0
M  V30 3385 C 326.117 -3.39252 3.41265 0
M  V30 3386 C 328.469 -3.38326 3.96465 0
M  V30 3387 C 325.797 -3.42057 4.76669 0
M  V30 3388 C 328.149 -3.4267 5.31752 0
M  V30 3389 C 326.813 -3.4401 5.72026 0
M  V30 3390 H 326.083 -0.656111 0.344382 0
M  V30 3391 H 328.73 -1.25325 1.44796 0
M  V30 3392 H 327.035 -3.80723 0.925063 0
M  V30 3393 H 328.732 -3.78793 1.31593 0
M  V30 3394 H 325.322 -3.34516 2.6795 0
M  V30 3395 H 329.506 -3.35176 3.6602 0
M  V30 3396 H 324.762 -3.41398 5.07206 0
M  V30 3397 H 328.936 -3.43268 6.05921 0
M  V30 3398 H 326.563 -3.45937 6.76928 0
M  V30 3399 N 328.138 -0.959301 -1.25041 0
M  V30 3400 C 329.101 -0.487677 -2.23952 0
M  V30 3401 C 330.101 0.41119 -1.55454 0
M  V30 3402 O 331.291 0.207825 -1.72956 0
M  V30 3403 C 328.423 0.294807 -3.39623 0
M  V30 3404 H 329.616 -1.36198 -2.67189 0
M  V30 3405 H 327.169 -0.743042 -1.37508 0
M  V30 3406 H 327.904 1.18658 -3.01813 0
M  V30 3407 H 327.689 -0.35012 -3.90534 0
M  V30 3408 H 329.179 0.614089 -4.1306 0
M  V30 3409 N 329.616 1.39756 -0.72842 0
M  V30 3410 C 330.548 2.29157 -0.0446202 0
M  V30 3411 C 331.561 1.46484 0.710367 0
M  V30 3412 O 332.75 1.69632 0.55562 0
M  V30 3413 C 329.85 3.24987 0.961071 0
M  V30 3414 C 329.023 4.36572 0.268967 0
M  V30 3415 C 328.082 5.12756 1.18184 0
M  V30 3416 O 327.108 5.6534 0.661794 0
M  V30 3417 N 328.31 5.23331 2.51206 0
M  V30 3418 H 331.075 2.88482 -0.812295 0
M  V30 3419 H 328.636 1.51265 -0.577098 0
M  V30 3420 H 330.628 3.72827 1.57423 0
M  V30 3421 H 329.198 2.66739 1.63 0
M  V30 3422 H 328.418 3.90694 -0.524574 0
M  V30 3423 H 329.706 5.08363 -0.210934 0
M  V30 3424 H 329.104 4.82116 2.9594 0
M  V30 3425 H 327.661 5.74634 3.07634 0
M  V30 3426 N 331.094 0.475555 1.50254 0
M  V30 3427 C 332.334 -0.0765802 2.04256 0
M  V30 3428 C 332.698 -1.36587 1.34937 0
M  V30 3429 O 333.899 -2.00066 1.79519 0
M  V30 3430 C 332.17 -0.251668 3.56513 0
M  V30 3431 S 333.729 -0.761716 4.32138 0
M  V30 3432 H 330.547 -0.0138456 0.710865 0
M  V30 3433 H 333.149 0.643714 1.84598 0
M  V30 3434 H 331.853 0.692404 4.04517 0
M  V30 3435 H 331.384 -0.997946 3.80532 0
M  V30 3436 H 333.399 -2.03451 4.52573 0
M  V30 3437 N 332.573 -1.56217 0.208337 0
M  V30 3438 C 333.52 -2.19699 -0.707192 0
M  V30 3439 C 334.49 -1.14836 -1.20008 0
M  V30 3440 O 335.675 -1.4314 -1.26157 0
M  V30 3441 C 332.815 -2.87061 -1.91546 0
M  V30 3442 C 331.928 -4.06483 -1.46271 0
M  V30 3443 C 331.063 -4.61665 -2.62752 0
M  V30 3444 C 330.102 -5.73417 -2.14147 0
M  V30 3445 N 329.239 -6.22948 -3.23853 0
M  V30 3446 H 334.079 -2.97575 -0.159111 0
M  V30 3447 H 331.616 -1.46948 -0.0667874 0
M  V30 3448 H 333.574 -3.24294 -2.62468 0
M  V30 3449 H 332.204 -2.11725 -2.43664 0
M  V30 3450 H 331.256 -3.74825 -0.648886 0
M  V30 3451 H 332.568 -4.87271 -1.06622 0
M  V30 3452 H 331.722 -5.01272 -3.41776 0
M  V30 3453 H 330.461 -3.80013 -3.05682 0
M  V30 3454 H 329.466 -5.33326 -1.33581 0
M  V30 3455 H 330.691 -6.56897 -1.72232 0
M  V30 3456 H 328.637 -5.44213 -3.6629 0
M  V30 3457 H 328.554 -6.98823 -2.88414 0
M  V30 3458 H 329.822 -6.6721 -4.03052 0
M  V30 3459 N 334.051 0.0651679 -1.57465 0
M  V30 3460 C 334.998 1.07675 -2.04144 0
M  V30 3461 C 335.968 1.38071 -0.923335 0
M  V30 3462 O 337.153 1.49026 -1.19146 0
M  V30 3463 C 334.293 2.38337 -2.49579 0
M  V30 3464 C 333.406 2.14413 -3.75035 0
M  V30 3465 C 332.541 3.38686 -4.09225 0
M  V30 3466 C 331.58 3.10156 -5.27702 0
M  V30 3467 N 330.717 4.26778 -5.57499 0
M  V30 3468 H 335.557 0.671716 -2.90331 0
M  V30 3469 H 333.094 0.3201 -1.43575 0
M  V30 3470 H 335.052 3.14632 -2.73975 0
M  V30 3471 H 333.682 2.7663 -1.6636 0
M  V30 3472 H 332.734 1.2878 -3.57939 0
M  V30 3473 H 334.046 1.89344 -4.61466 0
M  V30 3474 H 333.2 4.23373 -4.34558 0
M  V30 3475 H 331.939 3.66837 -3.21374 0
M  V30 3476 H 330.944 2.23866 -5.02159 0
M  V30 3477 H 332.169 2.8332 -6.17176 0
M  V30 3478 H 330.115 4.54948 -4.72608 0
M  V30 3479 H 330.032 4.05005 -6.38362 0
M  V30 3480 H 331.3 5.12443 -5.87386 0
M  V30 3481 N 335.529 1.53961 0.336706 0
M  V30 3482 C 336.777 1.71197 1.07405 0
M  V30 3483 C 337.098 0.481475 1.88962 0
M  V30 3484 O 336.368 -0.504585 1.8929 0
M  V30 3485 H 334.948 0.631185 0.399517 0
M  V30 3486 H 337.61 1.91232 0.376323 0
M  V30 3487 H 336.706 2.58587 1.74755 0
M  V30 3488 N 337.007 -0.598083 1.45811 0
M  V30 3489 C 338.253 -1.35882 1.50545 0
M  V30 3490 C 338.586 -1.93616 0.150445 0
M  V30 3491 O 337.861 -1.75604 -0.83628 0
M  V30 3492 C 338.144 -2.49966 2.59208 0
M  V30 3493 C 337.997 -1.97367 4.04186 0
M  V30 3494 C 339.316 -3.52068 2.64076 0
M  V30 3495 H 336.435 -0.492717 0.548087 0
M  V30 3496 H 339.077 -0.673319 1.77669 0
M  V30 3497 H 337.227 -3.08443 2.3621 0
M  V30 3498 H 338.899 -1.43466 4.38423 0
M  V30 3499 H 337.142 -1.283 4.14393 0
M  V30 3500 H 337.813 -2.79649 4.75921 0
M  V30 3501 H 340.289 -3.03448 2.84708 0
M  V30 3502 H 339.165 -4.2937 3.41954 0
M  V30 3503 H 339.426 -4.08304 1.69531 0
M  V30 3504 N 338.485 -1.33259 -0.841409 0
M  V30 3505 C 339.901 -1.12538 -1.13169 0
M  V30 3506 C 340.101 0.0854037 -2.01319 0
M  V30 3507 O 339.157 0.766417 -2.40587 0
M  V30 3508 C 340.47 -2.41156 -1.79623 0
M  V30 3509 C 342.018 -2.47038 -1.922 0
M  V30 3510 C 342.493 -3.7561 -2.6207 0
M  V30 3511 N 343.984 -3.76667 -2.69585 0
M  V30 3512 C 344.719 -4.72861 -3.2433 0
M  V30 3513 N 344.215 -5.79428 -3.79783 0
M  V30 3514 N 346.008 -4.6034 -3.22558 0
M  V30 3515 H 338.159 -2.10868 -0.254676 0
M  V30 3516 H 340.422 -0.931615 -0.175493 0
M  V30 3517 H 340.128 -3.29747 -1.22311 0
M  V30 3518 H 340.002 -2.53114 -2.79666 0
M  V30 3519 H 342.389 -1.58898 -2.48667 0
M  V30 3520 H 342.47 -2.39022 -0.911148 0
M  V30 3521 H 342.114 -4.64131 -2.06263 0
M  V30 3522 H 342.044 -3.80902 -3.63622 0
M  V30 3523 H 344.535 -2.99648 -2.30259 0
M  V30 3524 H 344.848 -6.48867 -4.19752 0
M  V30 3525 H 343.193 -5.83166 -3.78078 0
M  V30 3526 H 346.384 -3.76244 -2.78492 0
M  V30 3527 H 346.557 -5.35478 -3.64921 0
M  V30 3528 N 339.963 1.05934 -1.16686 0
M  V30 3529 C 341.209 1.79065 -0.95203 0
M  V30 3530 C 341.542 1.87147 0.518629 0
M  V30 3531 O 340.817 1.36574 1.38484 0
M  V30 3532 C 341.1 3.23359 -1.58464 0
M  V30 3533 C 340.953 3.23336 -3.12689 0
M  V30 3534 C 342.272 4.21004 -1.28232 0
M  V30 3535 H 339.391 0.65005 -0.34728 0
M  V30 3536 H 342.033 1.23868 -1.44072 0
M  V30 3537 H 340.183 3.70493 -1.16908 0
M  V30 3538 H 341.855 2.84336 -3.6325 0
M  V30 3539 H 340.098 2.61886 -3.4583 0
M  V30 3540 H 340.769 4.25144 -3.52075 0
M  V30 3541 H 343.245 3.8233 -1.64203 0
M  V30 3542 H 342.121 5.20225 -1.75092 0
M  V30 3543 H 342.382 4.41639 -0.201791 0
M  V30 3544 N 341.441 0.965919 1.2453 0
M  V30 3545 C 342.687 0.62776 1.92839 0
M  V30 3546 C 343.02 -0.834694 1.75347 0
M  V30 3547 O 342.295 -1.60031 1.10546 0
M  V30 3548 C 342.578 1.00109 3.45905 0
M  V30 3549 C 342.431 2.52011 3.72573 0
M  V30 3550 C 343.75 0.53435 4.36844 0
M  V30 3551 H 340.869 0.229537 0.700344 0
M  V30 3552 H 343.511 1.2046 1.46933 0
M  V30 3553 H 341.661 0.510238 3.85135 0
M  V30 3554 H 343.333 3.08559 3.42912 0
M  V30 3555 H 341.576 2.95287 3.17786 0
M  V30 3556 H 342.247 2.73183 4.79661 0
M  V30 3557 H 344.723 0.955565 4.04979 0
M  V30 3558 H 343.599 0.824152 5.42678 0
M  V30 3559 H 343.86 -0.565589 4.38467 0
M  V30 3560 N 342.919 -1.39368 0.735821 0
M  V30 3561 C 343.867 -2.32443 0.0855131 0
M  V30 3562 C 344.861 -1.53104 -0.724954 0
M  V30 3563 O 346.067 -1.68762 -0.626047 0
M  V30 3564 H 342.442 -0.751948 0.00885257 0
M  V30 3565 H 344.413 -2.84916 0.886883 0
M  V30 3566 C 343.162 -3.38206 -0.806983 0
M  V30 3567 H 342.485 -3.99335 -0.19274 0
M  V30 3568 H 343.925 -4.05779 -1.2296 0
M  V30 3569 C 342.384 -2.75321 -1.94165 0
M  V30 3570 O 342.914 -2.63231 -3.03435 0
M  V30 3571 N 341.12 -2.33396 -1.73132 0
M  V30 3572 H 340.667 -2.4343 -0.842596 0
M  V30 3573 H 340.625 -1.91661 -2.49225 0
M  V30 3574 N 344.397 -0.483516 -1.5 0
M  V30 3575 C 345.637 0.0657469 -2.04294 0
M  V30 3576 C 346.001 1.35869 -1.35659 0
M  V30 3577 O 347.202 1.99111 -1.80578 0
M  V30 3578 C 345.473 0.232758 -3.56641 0
M  V30 3579 S 347.032 0.738788 -4.32536 0
M  V30 3580 H 343.85 0.0100755 -0.710929 0
M  V30 3581 H 346.452 -0.653494 -1.84254 0
M  V30 3582 H 345.156 -0.713847 -4.04144 0
M  V30 3583 H 344.687 0.977751 -3.81056 0
M  V30 3584 H 346.702 2.01048 -4.53645 0
M  V30 3585 N 345.875 1.56104 -0.216619 0
M  V30 3586 C 346.838 2.18819 0.681962 0
M  V30 3587 C 347.838 1.14866 1.12528 0
M  V30 3588 O 349.028 1.40128 1.03488 0
M  V30 3589 C 346.16 2.80756 1.93362 0
M  V30 3590 H 347.353 2.99595 0.135254 0
M  V30 3591 H 344.906 1.56265 0.0330003 0
M  V30 3592 H 345.641 2.03837 2.52232 0
M  V30 3593 H 345.426 3.56876 1.62426 0
M  V30 3594 H 346.916 3.28844 2.57393 0
M  V30 3595 N 347.353 -0.0568162 1.57498 0
M  V30 3596 C 348.769 -0.411933 1.54192 0
M  V30 3597 C 348.969 -1.78287 0.938942 0
M  V30 3598 O 348.025 -2.46483 0.547919 0
M  V30 3599 C 349.338 -0.339244 2.9878 0
M  V30 3600 C 350.886 -0.418348 3.10192 0
M  V30 3601 C 351.361 -0.375407 4.56459 0
M  V30 3602 N 352.852 -0.435038 4.61153 0
M  V30 3603 C 353.587 -0.424265 5.71828 0
M  V30 3604 N 353.083 -0.367418 6.91825 0
M  V30 3605 N 354.876 -0.471938 5.60115 0
M  V30 3606 H 347.027 0.840684 1.95055 0
M  V30 3607 H 349.29 0.316987 0.893433 0
M  V30 3608 H 348.996 0.601742 3.46514 0
M  V30 3609 H 348.87 -1.14371 3.59443 0
M  V30 3610 H 351.257 -1.34976 2.62422 0
M  V30 3611 H 351.338 0.414962 2.52412 0
M  V30 3612 H 350.982 0.552219 5.04889 0
M  V30 3613 H 350.912 -1.22645 5.12119 0
M  V30 3614 H 353.403 -0.482612 3.74806 0
M  V30 3615 H 353.716 -0.363535 7.71944 0
M  V30 3616 H 352.061 -0.333879 6.94198 0
M  V30 3617 H 355.252 -0.514145 4.65268 0
M  V30 3618 H 355.425 -0.460073 6.46365 0
M  V30 3619 N 348.832 -1.54138 -0.328536 0
M  V30 3620 C 350.08 -1.71765 -1.06496 0
M  V30 3621 C 350.401 -0.49149 -1.88704 0
M  V30 3622 O 349.671 0.494539 -1.89555 0
M  V30 3623 H 348.251 -0.633295 -0.396164 0
M  V30 3624 H 350.913 -1.91429 -0.366176 0
M  V30 3625 H 350.009 -2.5951 -1.73381 0
M  V30 3626 N 350.31 0.590341 -1.46126 0
M  V30 3627 C 351.558 1.34616 -1.50742 0
M  V30 3628 C 351.879 1.94363 -0.157486 0
M  V30 3629 O 351.149 1.78136 0.815136 0
M  V30 3630 H 349.729 0.499789 -0.555175 0
M  V30 3631 H 352.391 0.691953 -1.82203 0
M  V30 3632 H 351.487 2.15678 -2.25587 0
M  V30 3633 N 351.788 1.33704 0.83433 0
M  V30 3634 C 353.037 1.24763 1.58484 0
M  V30 3635 C 353.35 -0.183775 1.94735 0
M  V30 3636 O 354.556 -0.395234 2.68608 0
M  V30 3637 C 353.012 2.18638 2.85876 0
M  V30 3638 C 352.62 3.66974 2.56971 0
M  V30 3639 C 354.364 2.18581 3.63899 0
M  V30 3640 C 352.271 4.5275 3.80488 0
M  V30 3641 H 351.201 0.463425 0.594772 0
M  V30 3642 H 353.852 1.58797 0.919551 0
M  V30 3643 H 352.234 1.77542 3.5397 0
M  V30 3644 H 353.408 4.16538 1.9706 0
M  V30 3645 H 351.723 3.69366 1.92244 0
M  V30 3646 H 354.32 2.79894 4.55591 0
M  V30 3647 H 354.663 1.18207 3.99165 0
M  V30 3648 H 355.196 2.58062 3.02735 0
M  V30 3649 H 351.935 5.54017 3.5035 0
M  V30 3650 H 351.455 4.07927 4.39722 0
M  V30 3651 H 353.134 4.66784 4.4802 0
M  V30 3652 N 353.266 -1.05314 1.17247 0
M  V30 3653 C 354.512 -1.78557 0.961513 0
M  V30 3654 C 354.845 -1.87419 -0.508697 0
M  V30 3655 O 354.12 -1.37307 -1.37757 0
M  V30 3656 C 354.403 -3.22514 1.60176 0
M  V30 3657 C 354.256 -3.21673 3.14399 0
M  V30 3658 C 355.575 -4.20318 1.30463 0
M  V30 3659 H 352.694 -0.6482 0.350723 0
M  V30 3660 H 355.336 -1.23102 1.44727 0
M  V30 3661 H 353.486 -3.69867 1.18871 0
M  V30 3662 H 355.158 -2.82405 3.64753 0
M  V30 3663 H 353.401 -2.60048 3.47214 0
M  V30 3664 H 354.072 -4.23271 3.54324 0
M  V30 3665 H 356.548 -3.81454 1.66229 0
M  V30 3666 H 355.424 -5.19289 1.77848 0
M  V30 3667 H 355.685 -4.41526 0.22521 0
M  V30 3668 N 354.744 -0.972509 -1.24016 0
M  V30 3669 C 356.021 -0.553733 -1.87598 0
M  V30 3670 C 356.401 0.969158 -1.87538 0
M  V30 3671 O 355.749 1.84255 -1.35139 0
M  V30 3672 C 355.959 -1.15076 -3.29482 0
M  V30 3673 C 357.307 -1.23862 -4.06132 0
M  V30 3674 O 358.331 -1.10363 -3.38672 0
M  V30 3675 O 357.19 -1.45252 -5.26844 0
M  V30 3676 H 354.284 -0.185331 -0.805966 0
M  V30 3677 H 356.83 -1.06709 -1.31952 0
M  V30 3678 H 355.602 -2.19333 -3.2405 0
M  V30 3679 H 355.225 -0.621746 -3.92709 0
M  V30 3680 N 356.222 1.38976 -0.743202 0
M  V30 3681 C 357.132 2.3434 -0.110399 0
M  V30 3682 C 358.148 1.58741 0.712559 0
M  V30 3683 O 359.324 1.9099 0.639125 0
M  V30 3684 C 356.389 3.37812 0.780012 0
M  V30 3685 C 355.45 4.29263 -0.0561319 0
M  V30 3686 C 354.683 5.27793 0.791875 0
M  V30 3687 O 354.906 5.33043 2.03031 0
M  V30 3688 O 353.84 6.01512 0.216183 0
M  V30 3689 H 357.666 2.90129 -0.897714 0
M  V30 3690 H 355.251 1.40643 -0.503966 0
M  V30 3691 H 357.133 4.01194 1.28923 0
M  V30 3692 H 355.808 2.84395 1.546 0
M  V30 3693 H 354.715 3.69076 -0.611056 0
M  V30 3694 H 356.048 4.85907 -0.784531 0
M  V30 3695 N 357.7 0.491464 1.49741 0
M  V30 3696 C 358.948 -0.0563141 2.02022 0
M  V30 3697 C 359.269 -1.38363 1.37407 0
M  V30 3698 O 358.539 -1.88702 0.526166 0
M  V30 3699 H 357.119 -0.0238014 0.746621 0
M  V30 3700 H 359.781 0.646533 1.83864 0
M  V30 3701 H 358.877 -0.192967 3.11503 0
M  V30 3702 N 359.178 -1.55987 0.224894 0
M  V30 3703 C 360.141 -2.19178 -0.670348 0
M  V30 3704 C 361.141 -1.15461 -1.11917 0
M  V30 3705 O 362.331 -1.40675 -1.02743 0
M  V30 3706 C 359.463 -2.81777 -1.9187 0
M  V30 3707 H 360.656 -2.99662 -0.119364 0
M  V30 3708 H 358.209 -1.5628 -0.0247128 0
M  V30 3709 H 358.944 -2.05172 -2.51147 0
M  V30 3710 H 358.729 -3.57732 -1.60531 0
M  V30 3711 H 360.219 -3.30205 -2.55645 0
M  V30 3712 N 360.656 0.0484629 -1.57525 0
M  V30 3713 C 361.586 1.0549 -2.08313 0
M  V30 3714 C 362.567 1.38929 -0.981463 0
M  V30 3715 O 363.752 1.48151 -1.25558 0
M  V30 3716 C 360.882 2.36162 -2.54646 0
M  V30 3717 C 359.836 2.17016 -3.68901 0
M  V30 3718 C 359.162 3.53278 -4.01371 0
M  V30 3719 C 360.462 1.57219 -4.98076 0
M  V30 3720 H 362.156 0.632195 -2.92649 0
M  V30 3721 H 359.702 0.302654 -1.40784 0
M  V30 3722 H 361.655 3.06882 -2.88793 0
M  V30 3723 H 360.379 2.80456 -1.67368 0
M  V30 3724 H 359.038 1.48733 -3.35073 0
M  V30 3725 H 358.686 3.95185 -3.11188 0
M  V30 3726 H 358.386 3.41299 -4.78318 0
M  V30 3727 H 359.91 4.25391 -4.38035 0
M  V30 3728 H 361.324 2.17832 -5.30304 0
M  V30 3729 H 359.721 1.55871 -5.79503 0
M  V30 3730 H 360.791 0.535956 -4.81929 0
M  V30 3731 N 362.134 1.5431 0.320358 0
M  V30 3732 C 363.064 1.86912 1.3995 0
M  V30 3733 C 364.045 0.726211 1.53819 0
M  V30 3734 O 365.23 0.980233 1.67646 0
M  V30 3735 C 362.36 2.09932 2.7667 0
M  V30 3736 C 361.314 3.25776 2.77586 0
M  V30 3737 C 360.64 3.34173 4.17412 0
M  V30 3738 C 361.94 4.6335 2.41048 0
M  V30 3739 H 363.634 2.77292 1.12914 0
M  V30 3740 H 361.18 1.33421 0.541738 0
M  V30 3741 H 363.133 2.31324 3.52232 0
M  V30 3742 H 361.857 1.16304 3.0519 0
M  V30 3743 H 360.516 3.04276 2.04479 0
M  V30 3744 H 360.164 2.38098 4.43078 0
M  V30 3745 H 359.864 4.12033 4.18931 0
M  V30 3746 H 361.388 3.57803 4.94782 0
M  V30 3747 H 362.802 4.84602 3.06324 0
M  V30 3748 H 361.199 5.43782 2.53813 0
M  V30 3749 H 362.269 4.65381 1.36193 0
M  V30 3750 N 363.613 -0.582584 1.46437 0
M  V30 3751 C 365.029 -0.905962 1.31394 0
M  V30 3752 C 365.229 -1.99468 0.285476 0
M  V30 3753 O 364.285 -2.50566 -0.311914 0
M  V30 3754 C 365.598 -1.3232 2.70022 0
M  V30 3755 C 367.146 -1.43604 2.78113 0
M  V30 3756 C 367.621 -1.88694 4.17323 0
M  V30 3757 N 369.112 -1.95887 4.19741 0
M  V30 3758 C 369.847 -2.32051 5.24347 0
M  V30 3759 N 369.343 -2.67006 6.39281 0
M  V30 3760 N 371.136 -2.32606 5.11713 0
M  V30 3761 H 363.287 0.1366 2.1196 0
M  V30 3762 H 365.55 -0.00155736 0.947999 0
M  V30 3763 H 365.256 -0.597242 3.46592 0
M  V30 3764 H 365.13 -2.28469 3.00136 0
M  V30 3765 H 367.517 -2.15286 2.01832 0
M  V30 3766 H 367.598 -0.457059 2.51684 0
M  V30 3767 H 367.242 -1.1759 4.941 0
M  V30 3768 H 367.172 -2.8755 4.4116 0
M  V30 3769 H 369.663 -1.71362 3.36814 0
M  V30 3770 H 369.976 -2.93554 7.14875 0
M  V30 3771 H 368.321 -2.64644 6.42642 0
M  V30 3772 H 371.512 -2.04721 4.2096 0
M  V30 3773 H 371.685 -2.60462 5.93349 0
M  V30 3774 N 365.091 -1.34144 -0.827227 0
M  V30 3775 C 366.054 -1.25264 -1.91942 0
M  V30 3776 C 367.054 -0.168866 -1.59911 0
M  V30 3777 O 368.244 -0.421198 -1.69031 0
M  V30 3778 C 365.376 -0.932952 -3.27885 0
M  V30 3779 H 366.569 -2.22357 -2.0124 0
M  V30 3780 H 364.122 -1.1837 -1.0207 0
M  V30 3781 H 364.857 0.0349917 -3.24281 0
M  V30 3782 H 364.642 -1.71682 -3.52516 0
M  V30 3783 H 366.132 -0.895874 -4.07877 0
M  V30 3784 N 366.569 1.04691 -1.17803 0
M  V30 3785 C 367.499 2.14494 -0.92275 0
M  V30 3786 C 368.48 1.69546 0.137179 0
M  V30 3787 O 369.665 1.94195 -0.0141108 0
M  V30 3788 C 366.795 3.44491 -0.440803 0
M  V30 3789 C 365.749 4.03031 -1.4405 0
M  V30 3790 C 365.075 5.28432 -0.81631 0
M  V30 3791 C 366.375 4.39932 -2.81527 0
M  V30 3792 H 368.069 2.36107 -1.84103 0
M  V30 3793 H 365.615 1.1347 -0.886599 0
M  V30 3794 H 367.568 4.2066 -0.249602 0
M  V30 3795 H 366.292 3.22546 0.513025 0
M  V30 3796 H 364.951 3.28937 -1.61853 0
M  V30 3797 H 364.599 5.02792 0.144511 0
M  V30 3798 H 364.299 5.68559 -1.48371 0
M  V30 3799 H 365.823 6.07284 -0.635496 0
M  V30 3800 H 367.237 5.07113 -2.67412 0
M  V30 3801 H 365.634 4.9109 -3.44892 0
M  V30 3802 H 366.704 3.50045 -3.35554 0
M  V30 3803 N 368.047 0.979072 1.23499 0
M  V30 3804 C 368.979 0.476271 2.24197 0
M  V30 3805 C 369.992 -0.421166 1.57258 0
M  V30 3806 O 371.181 -0.225515 1.7707 0
M  V30 3807 C 368.281 -0.330503 3.37285 0
M  V30 3808 C 367.454 0.559744 4.33804 0
M  V30 3809 C 366.513 -0.192954 5.25846 0
M  V30 3810 O 365.539 0.416978 5.67671 0
M  V30 3811 N 366.741 -1.47932 5.61334 0
M  V30 3812 H 369.506 1.34211 2.67969 0
M  V30 3813 H 367.067 0.852189 1.37657 0
M  V30 3814 H 369.059 -0.842361 3.95836 0
M  V30 3815 H 367.629 -1.09734 2.92707 0
M  V30 3816 H 366.849 1.25245 3.73775 0
M  V30 3817 H 368.137 1.1665 4.95248 0
M  V30 3818 H 367.535 -1.9964 5.29302 0
M  V30 3819 H 366.092 -1.93664 6.22364 0
M  V30 3820 N 369.525 -1.3858 0.750561 0
M  V30 3821 C 370.75 -2.04997 0.314812 0
M  V30 3822 C 371.175 -1.56235 -1.04749 0
M  V30 3823 O 370.533 -0.712981 -1.66692 0
M  V30 3824 C 370.581 -3.58961 0.343415 0
M  V30 3825 O 369.685 -4.07025 -0.663628 0
M  V30 3826 H 369.026 -0.649081 0.139962 0
M  V30 3827 H 371.556 -1.77313 1.02084 0
M  V30 3828 H 371.566 -4.07542 0.193233 0
M  V30 3829 H 370.241 -3.93811 1.33738 0
M  V30 3830 H 368.818 -3.6982 -0.478307 0
M  V30 3831 N 371.003 -0.499398 -1.49478 0
M  V30 3832 C 372.251 0.0455996 -2.02049 0
M  V30 3833 C 372.572 1.37633 -1.38138 0
M  V30 3834 O 371.842 1.8842 -0.536166 0
M  V30 3835 H 370.422 0.0198416 -0.746736 0
M  V30 3836 H 373.084 -0.656274 -1.83519 0
M  V30 3837 H 372.18 0.176445 -3.11601 0
M  V30 3838 N 372.481 1.55866 -0.233164 0
M  V30 3839 C 373.413 2.18099 0.704668 0
M  V30 3840 C 374.426 1.15334 1.14899 0
M  V30 3841 O 375.615 1.42262 1.07814 0
M  V30 3842 C 372.715 2.7592 1.96777 0
M  V30 3843 C 371.888 4.03969 1.67713 0
M  V30 3844 C 370.947 4.46242 2.78845 0
M  V30 3845 O 369.973 5.12903 2.46818 0
M  V30 3846 N 371.175 4.12886 4.08051 0
M  V30 3847 H 373.94 2.99205 0.172258 0
M  V30 3848 H 371.501 1.61815 -0.0525945 0
M  V30 3849 H 373.493 3.01165 2.70337 0
M  V30 3850 H 372.063 1.99051 2.41034 0
M  V30 3851 H 371.283 3.86459 0.777391 0
M  V30 3852 H 372.571 4.8748 1.4574 0
M  V30 3853 H 371.969 3.59342 4.3691 0
M  V30 3854 H 370.526 4.42997 4.78118 0
M  V30 3855 N 373.959 -0.0401083 1.57549 0
M  V30 3856 C 375.199 -0.738098 1.90608 0
M  V30 3857 C 375.563 -1.73107 0.830539 0
M  V30 3858 O 376.764 -2.4765 1.04513 0
M  V30 3859 C 375.035 -1.39985 3.28845 0
M  V30 3860 S 376.594 -2.12852 3.83718 0
M  V30 3861 H 373.412 -0.24477 0.667539 0
M  V30 3862 H 376.014 0.00693599 1.95499 0
M  V30 3863 H 374.718 -0.663775 4.04997 0
M  V30 3864 H 374.249 -2.18366 3.2723 0
M  V30 3865 H 376.264 -3.39842 3.61555 0
M  V30 3866 N 375.437 -1.54477 -0.31217 0
M  V30 3867 C 376.4 -1.83923 -1.36766 0
M  V30 3868 C 377.4 -0.711563 -1.44199 0
M  V30 3869 O 378.59 -0.979866 -1.44029 0
M  V30 3870 C 375.722 -2.0095 -2.75376 0
M  V30 3871 H 376.915 -2.78239 -1.11906 0
M  V30 3872 H 374.468 -1.46369 -0.548257 0
M  V30 3873 H 375.203 -1.08883 -3.05475 0
M  V30 3874 H 374.988 -2.83018 -2.71373 0
M  V30 3875 H 376.478 -2.2514 -3.51713 0
M  V30 3876 N 376.915 0.57481 -1.46744 0
M  V30 3877 C 378.163 1.33009 -1.52161 0
M  V30 3878 C 378.484 1.94185 -0.178092 0
M  V30 3879 O 377.754 1.7899 0.796196 0
M  V30 3880 H 376.334 0.493873 -0.560445 0
M  V30 3881 H 378.996 0.672589 -1.82927 0
M  V30 3882 H 378.092 2.13273 -2.27862 0
M  V30 3883 N 378.394 1.34581 0.820102 0
M  V30 3884 C 379.357 1.2628 1.91275 0
M  V30 3885 C 380.357 0.177344 1.59819 0
M  V30 3886 O 381.547 0.430156 1.68806 0
M  V30 3887 C 378.679 0.950327 3.27386 0
M  V30 3888 H 379.872 2.23421 2.00057 0
M  V30 3889 H 377.425 1.1891 1.0144 0
M  V30 3890 H 378.16 -0.0177938 3.24295 0
M  V30 3891 H 377.945 1.73549 3.51601 0
M  V30 3892 H 379.435 0.917492 4.07396 0
M  V30 3893 N 379.872 -1.04064 1.18357 0
M  V30 3894 C 380.835 -2.10243 0.912707 0
M  V30 3895 C 381.835 -1.60477 -0.101928 0
M  V30 3896 O 383.025 -1.73703 0.131517 0
M  V30 3897 C 380.157 -3.38893 0.369387 0
M  V30 3898 H 381.35 -2.35706 1.85426 0
M  V30 3899 H 378.903 -1.20489 0.995594 0
M  V30 3900 H 379.638 -3.19094 -0.578776 0
M  V30 3901 H 379.423 -3.76331 1.1008 0
M  V30 3902 H 380.913 -4.17128 0.198575 0
M  V30 3903 N 381.35 -0.985608 -1.22978 0
M  V30 3904 C 382.28 -0.549649 -2.26939 0
M  V30 3905 C 383.261 0.419803 -1.64838 0
M  V30 3906 O 384.446 0.31203 -1.91677 0
M  V30 3907 C 381.576 0.143652 -3.47003 0
M  V30 3908 C 380.53 -0.743606 -4.21491 0
M  V30 3909 C 379.856 0.0822027 -5.34637 0
M  V30 3910 C 381.156 -2.03694 -4.80943 0
M  V30 3911 H 382.85 -1.41862 -2.63658 0
M  V30 3912 H 380.396 -0.683571 -1.26741 0
M  V30 3913 H 382.349 0.459985 -4.18882 0
M  V30 3914 H 381.073 1.04711 -3.09359 0
M  V30 3915 H 379.732 -1.04347 -3.51436 0
M  V30 3916 H 379.38 0.986359 -4.93234 0
M  V30 3917 H 379.08 -0.508377 -5.85397 0
M  V30 3918 H 380.604 0.392797 -6.09335 0
M  V30 3919 H 382.018 -1.78504 -5.44802 0
M  V30 3920 H 380.415 -2.57573 -5.42011 0
M  V30 3921 H 381.485 -2.72042 -4.01399 0
M  V30 3922 N 382.828 1.3818 -0.7579 0
M  V30 3923 C 384.105 1.94106 -0.241306 0
M  V30 3924 C 384.485 1.69282 1.26122 0
M  V30 3925 O 383.833 1.03378 2.03777 0
M  V30 3926 C 384.043 3.43809 -0.59967 0
M  V30 3927 C 385.391 4.20868 -0.561717 0
M  V30 3928 O 386.415 3.5211 -0.538222 0
M  V30 3929 O 385.274 5.43451 -0.576478 0
M  V30 3930 H 382.368 0.825376 -0.0518042 0
M  V30 3931 H 384.914 1.47548 -0.838315 0
M  V30 3932 H 383.686 3.55403 -1.6372 0
M  V30 3933 H 383.309 3.97592 0.0251197 0
M  V30 3934 N 384.306 0.507319 1.49211 0
M  V30 3935 C 385.552 -0.0350047 2.0277 0
M  V30 3936 C 385.885 -1.3606 1.38569 0
M  V30 3937 O 385.16 -1.87321 0.523542 0
M  V30 3938 C 385.443 -0.180916 3.59645 0
M  V30 3939 C 385.296 1.16825 4.34364 0
M  V30 3940 C 386.615 -0.918558 4.30407 0
M  V30 3941 H 383.734 -0.0112473 0.736914 0
M  V30 3942 H 386.376 0.659956 1.7817 0
M  V30 3943 H 384.526 -0.772826 3.80736 0
M  V30 3944 H 386.198 1.79952 4.24753 0
M  V30 3945 H 384.441 1.75594 3.96673 0
M  V30 3946 H 385.112 1.01939 5.42506 0
M  V30 3947 H 387.588 -0.41649 4.1401 0
M  V30 3948 H 386.464 -0.989505 5.39907 0
M  V30 3949 H 386.725 -1.96373 3.96093 0
M  V30 3950 N 385.784 -1.5574 0.241426 0
M  V30 3951 C 387.031 -1.9881 -0.384836 0
M  V30 3952 C 387.359 -1.12947 -1.58346 0
M  V30 3953 O 386.614 -0.178993 -1.9488 0
M  V30 3954 C 386.913 -3.47308 -0.843317 0
M  V30 3955 C 386.579 -4.50223 0.246946 0
M  V30 3956 C 385.241 -4.78088 0.546399 0
M  V30 3957 C 387.593 -5.11841 0.983282 0
M  V30 3958 C 384.921 -5.64846 1.58636 0
M  V30 3959 C 387.273 -5.99727 2.01272 0
M  V30 3960 C 385.937 -6.25927 2.31888 0
M  V30 3961 H 385.207 -0.727496 -0.140821 0
M  V30 3962 H 387.854 -1.8831 0.348106 0
M  V30 3963 H 386.159 -3.55112 -1.65537 0
M  V30 3964 H 387.856 -3.78017 -1.33806 0
M  V30 3965 H 384.446 -4.286 0.00340639 0
M  V30 3966 H 388.63 -4.90366 0.765182 0
M  V30 3967 H 383.886 -5.83403 1.82896 0
M  V30 3968 H 388.06 -6.46517 2.58823 0
M  V30 3969 H 385.687 -6.92949 3.12611 0
M  V30 3970 N 387.262 0.0317525 -1.57568 0
M  V30 3971 C 388.49 0.734949 -1.93407 0
M  V30 3972 C 388.905 1.69036 -0.84096 0
M  V30 3973 O 388.262 1.81582 0.182836 0
M  V30 3974 C 388.313 1.49432 -3.29169 0
M  V30 3975 O 388.034 0.577261 -4.3428 0
M  V30 3976 C 389.535 2.29492 -3.79273 0
M  V30 3977 H 386.755 0.206706 -0.638368 0
M  V30 3978 H 389.299 -0.00992046 -2.04498 0
M  V30 3979 H 387.454 2.1911 -3.19483 0
M  V30 3980 H 387.868 1.10952 -5.1263 0
M  V30 3981 H 389.342 2.78172 -4.76785 0
M  V30 3982 H 389.819 3.10794 -3.10328 0
M  V30 3983 H 390.425 1.64894 -3.92033 0
M  V30 3984 N 388.74 1.54641 0.303973 0
M  V30 3985 C 389.65 1.88439 1.39743 0
M  V30 3986 C 390.666 0.778239 1.55626 0
M  V30 3987 O 391.842 1.07442 1.70347 0
M  V30 3988 C 388.907 2.12212 2.74166 0
M  V30 3989 C 387.968 3.35936 2.67293 0
M  V30 3990 C 387.201 3.58566 3.95305 0
M  V30 3991 O 387.424 2.84263 4.9452 0
M  V30 3992 O 386.358 4.52078 3.97378 0
M  V30 3993 H 390.184 2.81458 1.14083 0
M  V30 3994 H 387.769 1.40793 0.499768 0
M  V30 3995 H 389.651 2.29067 3.53704 0
M  V30 3996 H 388.326 1.22379 2.99675 0
M  V30 3997 H 387.233 3.24448 1.86237 0
M  V30 3998 H 388.566 4.2589 2.46736 0
M  V30 3999 N 390.218 -0.567019 1.47046 0
M  V30 4000 C 391.128 -1.70247 1.6141 0
M  V30 4001 C 392.144 -1.66746 0.497157 0
M  V30 4002 O 393.32 -1.86371 0.763389 0
M  V30 4003 C 390.385 -3.06756 1.61561 0
M  V30 4004 C 389.446 -3.21399 2.84607 0
M  V30 4005 C 388.679 -4.51396 2.84741 0
M  V30 4006 O 388.902 -5.36255 1.94388 0
M  V30 4007 O 387.836 -4.69621 3.76483 0
M  V30 4008 H 391.662 -1.61073 2.57467 0
M  V30 4009 H 389.247 -0.735894 1.30019 0
M  V30 4010 H 391.129 -3.8801 1.64396 0
M  V30 4011 H 389.804 -3.16333 0.686684 0
M  V30 4012 H 388.711 -2.39579 2.8732 0
M  V30 4013 H 390.044 -3.16721 3.76761 0
M  V30 4014 N 391.696 -1.35014 -0.812953 0
M  V30 4015 C 393.107 -1.25035 -1.38648 0
M  V30 4016 C 393.458 0.119967 -1.95833 0
M  V30 4017 O 392.583 1.02069 -1.90816 0
M  V30 4018 C 393.178 -2.26394 -2.52054 0
M  V30 4019 C 391.737 -2.20175 -3.05287 0
M  V30 4020 C 390.884 -2.12451 -1.78213 0
M  V30 4021 H 393.835 -1.46235 -0.616516 0
M  V30 4022 H 393.856 -1.88672 -3.30429 0
M  V30 4023 H 393.368 -3.26116 -2.10404 0
M  V30 4024 H 391.469 -1.23841 -3.51417 0
M  V30 4025 H 391.582 -3.11863 -3.63701 0
M  V30 4026 H 389.946 -1.58328 -1.9951 0
M  V30 4027 H 390.729 -3.14024 -1.38723 0
M  V30 4028 N 393.175 1.03435 -1.18907 0
M  V30 4029 C 394.586 1.58195 -0.991523 0
M  V30 4030 C 394.937 1.90801 0.457081 0
M  V30 4031 O 394.062 1.70272 1.33553 0
M  V30 4032 C 394.657 2.87432 -1.79355 0
M  V30 4033 C 393.216 3.38785 -1.64017 0
M  V30 4034 C 392.363 2.12292 -1.78402 0
M  V30 4035 H 395.314 0.860299 -1.33359 0
M  V30 4036 H 395.335 3.58096 -1.28638 0
M  V30 4037 H 394.847 2.63669 -2.84781 0
M  V30 4038 H 392.948 3.67547 -0.611536 0
M  V30 4039 H 393.061 4.12186 -2.44212 0
M  V30 4040 H 391.425 2.23901 -1.2141 0
M  V30 4041 H 392.208 1.90977 -2.85277 0
M  V30 4042 N 394.653 0.992116 1.22453 0
M  V30 4043 C 396.069 0.702713 1.43297 0
M  V30 4044 C 396.269 -0.726909 1.87932 0
M  V30 4045 O 395.325 -1.49792 2.0327 0
M  V30 4046 C 396.638 1.70762 2.47509 0
M  V30 4047 C 398.186 1.72298 2.61309 0
M  V30 4048 C 398.661 2.71649 3.68742 0
M  V30 4049 N 400.152 2.70239 3.76199 0
M  V30 4050 C 400.887 3.43778 4.58917 0
M  V30 4051 N 400.383 4.26914 5.45633 0
M  V30 4052 N 402.176 3.32487 4.5322 0
M  V30 4053 H 394.327 1.91543 0.917871 0
M  V30 4054 H 396.59 0.826031 0.465162 0
M  V30 4055 H 396.296 2.73059 2.21657 0
M  V30 4056 H 396.17 1.49985 3.46099 0
M  V30 4057 H 398.557 0.706989 2.86506 0
M  V30 4058 H 398.638 1.97143 1.62997 0
M  V30 4059 H 398.282 3.73397 3.44292 0
M  V30 4060 H 398.212 2.44074 4.66622 0
M  V30 4061 H 400.703 2.09912 3.14237 0
M  V30 4062 H 401.016 4.79855 6.05771 0
M  V30 4063 H 399.361 4.31002 5.45218 0
M  V30 4064 H 402.552 2.6698 3.84499 0
M  V30 4065 H 402.725 3.90058 5.17454 0
M  V30 4066 N 396.131 -1.37776 0.765217 0
M  V30 4067 C 397.408 -1.93975 0.251596 0
M  V30 4068 C 397.788 -1.69949 -1.25222 0
M  V30 4069 O 397.136 -1.04457 -2.03226 0
M  V30 4070 C 397.346 -3.43487 0.617895 0
M  V30 4071 C 398.694 -4.20564 0.584029 0
M  V30 4072 O 399.718 -3.5182 0.556888 0
M  V30 4073 O 398.577 -5.43138 0.605291 0
M  V30 4074 H 395.671 -0.82509 0.0561806 0
M  V30 4075 H 398.217 -1.47101 0.846128 0
M  V30 4076 H 396.989 -3.5453 1.65602 0
M  V30 4077 H 396.612 -3.976 -0.00403411 0
M  V30 4078 N 397.609 -0.515225 -1.4894 0
M  V30 4079 C 399.025 -0.172099 -1.58669 0
M  V30 4080 C 399.225 1.32405 -1.51892 0
M  V30 4081 O 398.281 2.10116 -1.40027 0
M  V30 4082 C 399.594 -0.761533 -2.90897 0
M  V30 4083 C 401.142 -0.728926 -3.04394 0
M  V30 4084 C 401.617 -1.29667 -4.39261 0
M  V30 4085 N 403.108 -1.25799 -4.4579 0
M  V30 4086 C 403.843 -1.66733 -5.48623 0
M  V30 4087 N 403.339 -2.15327 -6.58488 0
M  V30 4088 N 405.132 -1.58061 -5.39419 0
M  V30 4089 H 397.283 -1.48778 -1.51588 0
M  V30 4090 H 399.546 -0.617968 -0.718901 0
M  V30 4091 H 399.252 -1.81136 -3.01468 0
M  V30 4092 H 399.126 -0.230106 -3.76497 0
M  V30 4093 H 401.513 0.312098 -2.93445 0
M  V30 4094 H 401.594 -1.29766 -2.20442 0
M  V30 4095 H 401.238 -2.33655 -4.50963 0
M  V30 4096 H 401.168 -0.703752 -5.21876 0
M  V30 4097 H 403.659 -0.902102 -3.66975 0
M  V30 4098 H 403.972 -2.44594 -7.33071 0
M  V30 4099 H 402.317 -2.19311 -6.59491 0
M  V30 4100 H 405.508 -1.19906 -4.52482 0
M  V30 4101 H 405.681 -1.90284 -6.19432 0
M  V30 4102 N 399.087 1.5561 -0.249682 0
M  V30 4103 C 400.05 2.20217 0.635394 0
M  V30 4104 C 401.05 1.17227 1.10066 0
M  V30 4105 O 402.24 1.42292 1.00492 0
M  V30 4106 C 399.372 2.84794 1.87363 0
M  V30 4107 H 400.565 2.99814 0.0716752 0
M  V30 4108 H 398.118 1.563 -0.000153234 0
M  V30 4109 H 398.853 2.09142 2.47851 0
M  V30 4110 H 398.638 3.60241 1.5482 0
M  V30 4111 H 400.128 3.3423 2.5036 0
M  V30 4112 N 400.565 -0.0233959 1.57583 0
M  V30 4113 C 401.495 -1.02162 2.09965 0
M  V30 4114 C 402.476 -1.3735 1.00344 0
M  V30 4115 O 403.661 -1.46135 1.27899 0
M  V30 4116 C 400.791 -2.32081 2.58371 0
M  V30 4117 C 399.745 -2.1112 3.72307 0
M  V30 4118 C 399.071 -3.46848 4.06941 0
M  V30 4119 C 400.371 -1.49276 5.00514 0
M  V30 4120 H 402.065 -0.585557 2.93618 0
M  V30 4121 H 399.611 -0.280218 1.41247 0
M  V30 4122 H 401.564 -3.02249 2.93639 0
M  V30 4123 H 400.288 -2.77758 1.71808 0
M  V30 4124 H 398.947 -1.43384 3.37397 0
M  V30 4125 H 398.595 -3.90184 3.17436 0
M  V30 4126 H 398.295 -3.33646 4.83688 0
M  V30 4127 H 399.819 -4.18369 4.44747 0
M  V30 4128 H 401.233 -2.09368 5.33702 0
M  V30 4129 H 399.63 -1.46632 5.8191 0
M  V30 4130 H 400.7 -0.459217 4.82721 0
M  V30 4131 N 402.043 -1.548 -0.295768 0
M  V30 4132 C 403.289 -1.74588 -1.03184 0
M  V30 4133 C 403.622 -0.532962 -1.86744 0
M  V30 4134 O 402.897 0.469872 -1.88739 0
M  V30 4135 C 403.18 -3.03791 -1.93347 0
M  V30 4136 C 403.033 -4.35392 -1.12933 0
M  V30 4137 C 404.352 -3.28892 -2.92435 0
M  V30 4138 H 401.471 -0.635221 -0.373715 0
M  V30 4139 H 404.113 -1.87519 -0.30606 0
M  V30 4140 H 402.263 -2.92898 -2.55232 0
M  V30 4141 H 403.935 -4.58211 -0.532943 0
M  V30 4142 H 402.178 -4.31642 -0.432168 0
M  V30 4143 H 402.849 -5.22074 -1.79284 0
M  V30 4144 H 405.325 -3.39429 -2.4068 0
M  V30 4145 H 404.201 -4.20603 -3.52682 0
M  V30 4146 H 404.462 -2.47437 -3.6637 0
M  V30 4147 N 403.521 0.559213 -1.47345 0
M  V30 4148 C 404.798 1.31997 -1.44348 0
M  V30 4149 C 405.178 2.1064 -0.139358 0
M  V30 4150 O 404.526 2.1091 0.879153 0
M  V30 4151 C 404.736 2.22618 -2.68779 0
M  V30 4152 C 406.084 2.83701 -3.1591 0
M  V30 4153 O 407.108 2.32921 -2.69493 0
M  V30 4154 O 405.967 3.75993 -3.966 0
M  V30 4155 H 403.061 0.594251 -0.575147 0
M  V30 4156 H 405.607 0.578282 -1.59543 0
M  V30 4157 H 404.379 1.64093 -3.55231 0
M  V30 4158 H 404.002 3.04085 -2.5616 0
M  V30 4159 N 404.999 1.35443 0.805782 0
M  V30 4160 C 405.949 1.24972 1.90699 0
M  V30 4161 C 406.933 0.144806 1.60247 0
M  V30 4162 O 408.125 0.376102 1.72958 0
M  V30 4163 C 405.254 1.02475 3.27649 0
M  V30 4164 C 404.34 2.17361 3.64164 0
M  V30 4165 N 404.731 3.42591 3.72109 0
M  V30 4166 C 403.029 2.08765 3.94123 0
M  V30 4167 C 403.73 4.18144 4.04389 0
M  V30 4168 N 402.706 3.4691 4.18515 0
M  V30 4169 H 406.508 2.19852 1.95044 0
M  V30 4170 H 404.022 1.27928 1.00041 0
M  V30 4171 H 406.019 0.930617 4.06381 0
M  V30 4172 H 404.679 0.0848009 3.24589 0
M  V30 4173 H 405.69 3.76932 3.55166 0
M  V30 4174 H 402.367 1.22629 3.99084 0
M  V30 4175 H 403.757 5.26367 4.17597 0
M  V30 4176 N 406.477 -1.02803 1.19454 0
M  V30 4177 C 407.387 -2.14575 0.948408 0
M  V30 4178 C 408.403 -1.73757 -0.091871 0
M  V30 4179 O 409.579 -2.01185 0.0929654 0
M  V30 4180 C 406.644 -3.43202 0.491265 0
M  V30 4181 C 405.705 -3.98328 1.60103 0
M  V30 4182 C 404.938 -5.20816 1.16561 0
M  V30 4183 O 405.161 -5.70392 0.0295238 0
M  V30 4184 O 404.095 -5.68801 1.96849 0
M  V30 4185 H 407.921 -2.38202 1.88397 0
M  V30 4186 H 405.506 -1.12989 0.977433 0
M  V30 4187 H 407.388 -4.20687 0.245015 0
M  V30 4188 H 406.063 -3.21018 -0.415851 0
M  V30 4189 H 404.97 -3.22174 1.90144 0
M  V30 4190 H 406.303 -4.24879 2.48473 0
M  V30 4191 N 407.956 -0.998596 -1.21925 0
M  V30 4192 C 408.904 -0.546641 -2.26085 0
M  V30 4193 C 409.898 0.405576 -1.64473 0
M  V30 4194 O 411.104 0.277471 -1.77849 0
M  V30 4195 H 407.479 -0.158403 -0.735127 0
M  V30 4196 H 409.45 -1.43645 -2.61551 0
M  V30 4197 C 408.199 0.117388 -3.47502 0
M  V30 4198 H 407.522 -0.606277 -3.95176 0
M  V30 4199 H 408.962 0.396993 -4.22137 0
M  V30 4200 C 407.421 1.35455 -3.0847 0
M  V30 4201 O 407.951 2.44944 -3.18379 0
M  V30 4202 N 406.157 1.23191 -2.63196 0
M  V30 4203 H 405.704 0.341006 -2.55333 0
M  V30 4204 H 405.662 2.06071 -2.37449 0
M  V30 4205 N 409.434 1.37368 -0.772513 0
M  V30 4206 C 410.68 1.99969 -0.337681 0
M  V30 4207 C 411.013 1.61184 1.08321 0
M  V30 4208 O 410.288 0.858395 1.74533 0
M  V30 4209 C 410.571 3.56858 -0.482121 0
M  V30 4210 C 410.424 4.0555 -1.94549 0
M  V30 4211 C 411.743 4.39955 0.113143 0
M  V30 4212 H 408.862 0.726464 -0.124171 0
M  V30 4213 H 411.504 1.63034 -0.975699 0
M  V30 4214 H 409.654 3.88452 0.0610361 0
M  V30 4215 H 411.326 3.84518 -2.54841 0
M  V30 4216 H 409.569 3.57715 -2.45403 0
M  V30 4217 H 410.24 5.14587 -1.9976 0
M  V30 4218 H 412.716 4.14623 -0.35031 0
M  V30 4219 H 411.592 5.48897 -0.0180514 0
M  V30 4220 H 411.853 4.25403 1.20354 0
M  V30 4221 N 410.912 0.523116 1.48665 0
M  V30 4222 C 412.161 -0.01544 2.01694 0
M  V30 4223 C 412.474 -1.35975 1.40606 0
M  V30 4224 O 413.68 -1.98627 1.85093 0
M  V30 4225 C 412.136 -0.0779303 3.59816 0
M  V30 4226 C 411.744 1.26107 4.29885 0
M  V30 4227 C 413.488 -0.565678 4.20714 0
M  V30 4228 C 411.395 1.15954 5.79921 0
M  V30 4229 H 410.325 -0.00954163 0.75394 0
M  V30 4230 H 412.976 0.665865 1.70993 0
M  V30 4231 H 411.358 -0.824165 3.87329 0
M  V30 4232 H 412.532 2.02233 4.14051 0
M  V30 4233 H 410.847 1.68401 3.80828 0
M  V30 4234 H 413.444 -0.6595 5.30617 0
M  V30 4235 H 413.787 -1.56984 3.85567 0
M  V30 4236 H 414.32 0.12467 3.97605 0
M  V30 4237 H 411.059 2.13864 6.19631 0
M  V30 4238 H 410.579 0.439529 5.98187 0
M  V30 4239 H 412.258 0.847361 6.41427 0
M  V30 4240 N 412.39 -1.55475 0.257931 0
M  V30 4241 C 413.615 -2.04064 -0.370488 0
M  V30 4242 C 414.04 -1.13565 -1.49948 0
M  V30 4243 O 413.398 -0.130781 -1.80828 0
M  V30 4244 C 413.446 -3.50554 -0.845237 0
M  V30 4245 O 412.55 -3.63173 -1.95394 0
M  V30 4246 H 411.891 -0.659257 -0.0792243 0
M  V30 4247 H 414.421 -2.00903 0.387212 0
M  V30 4248 H 414.431 -3.91588 -1.14555 0
M  V30 4249 H 413.106 -4.15896 -0.0191259 0
M  V30 4250 H 411.683 -3.34039 -1.65748 0
M  V30 4251 N 413.868 0.0150385 -1.57593 0
M  V30 4252 C 415.108 0.70768 -1.91758 0
M  V30 4253 C 415.472 1.71764 -0.857974 0
M  V30 4254 O 416.673 2.45956 -1.0844 0
M  V30 4255 C 414.944 1.34736 -3.3103 0
M  V30 4256 S 416.503 2.06721 -3.87056 0
M  V30 4257 H 413.321 0.234119 -0.671349 0
M  V30 4258 H 415.923 -0.0380373 -1.95463 0
M  V30 4259 H 414.627 0.59926 -4.06001 0
M  V30 4260 H 414.158 2.13133 -3.30663 0
M  V30 4261 H 416.173 3.34047 -3.66915 0
M  V30 4262 N 415.346 1.54954 0.287554 0
M  V30 4263 C 416.757 1.65732 0.859634 0
M  V30 4264 C 417.108 0.574767 1.87592 0
M  V30 4265 O 416.233 -0.286299 2.14498 0
M  V30 4266 C 416.828 3.00438 1.56597 0
M  V30 4267 C 415.387 3.13292 2.08627 0
M  V30 4268 C 414.534 2.61473 0.923416 0
M  V30 4269 H 417.485 1.5857 0.0642338 0
M  V30 4270 H 417.506 2.92613 2.43224 0
M  V30 4271 H 417.018 3.79207 0.826053 0
M  V30 4272 H 415.119 2.39268 2.85625 0
M  V30 4273 H 415.232 4.19647 2.31157 0
M  V30 4274 H 413.596 2.18264 1.31275 0
M  V30 4275 H 414.379 3.42733 0.197241 0
M  V30 4276 N 416.824 -0.551391 1.4764 0
M  V30 4277 C 417.774 -1.65362 1.56969 0
M  V30 4278 C 418.758 -1.55098 0.428189 0
M  V30 4279 O 419.95 -1.63481 0.678441 0
M  V30 4280 C 417.079 -3.04129 1.59249 0
M  V30 4281 C 416.165 -3.19576 2.78804 0
M  V30 4282 N 416.556 -3.05067 4.03445 0
M  V30 4283 C 414.854 -3.50588 2.75688 0
M  V30 4284 C 415.555 -3.2336 4.83543 0
M  V30 4285 N 414.531 -3.4996 4.15968 0
M  V30 4286 H 418.333 -1.52722 2.51104 0
M  V30 4287 H 415.847 -0.756303 1.43714 0
M  V30 4288 H 417.844 -3.83278 1.64024 0
M  V30 4289 H 416.504 -3.17877 0.662148 0
M  V30 4290 H 417.515 -2.82273 4.34215 0
M  V30 4291 H 414.192 -3.70827 1.91817 0
M  V30 4292 H 415.582 -3.17061 5.92387 0
M  V30 4293 N 418.302 -1.35869 -0.798587 0
M  V30 4294 C 419.232 -1.32118 -1.92528 0
M  V30 4295 C 420.213 -0.194209 -1.68988 0
M  V30 4296 O 421.398 -0.390426 -1.90235 0
M  V30 4297 C 418.528 -1.10047 -3.29404 0
M  V30 4298 C 417.482 -2.19471 -3.67446 0
M  V30 4299 C 416.808 -1.82555 -5.02571 0
M  V30 4300 C 418.108 -3.61495 -3.76987 0
M  V30 4301 H 419.802 -2.26394 -1.95924 0
M  V30 4302 H 417.348 -1.08981 -0.94123 0
M  V30 4303 H 419.301 -1.06061 -4.07835 0
M  V30 4304 H 418.025 -0.122195 -3.26371 0
M  V30 4305 H 416.684 -2.22568 -2.91306 0
M  V30 4306 H 416.332 -0.833249 -4.9605 0
M  V30 4307 H 416.032 -2.5581 -5.28995 0
M  V30 4308 H 417.556 -1.80108 -5.83432 0
M  V30 4309 H 418.97 -3.60676 -4.4563 0
M  V30 4310 H 417.367 -4.33577 -4.14887 0
M  V30 4311 H 418.437 -3.97065 -2.78329 0
M  V30 4312 N 419.78 1.02168 -1.19998 0
M  V30 4313 C 421.028 1.75338 -1.00504 0
M  V30 4314 C 421.349 1.89387 0.464506 0
M  V30 4315 O 420.619 1.43268 1.33608 0
M  V30 4316 H 419.199 0.649564 -0.368885 0
M  V30 4317 H 421.861 1.23205 -1.51018 0
M  V30 4318 H 420.957 2.75892 -1.45912 0
M  V30 4319 N 421.258 1.00505 1.21394 0
M  V30 4320 C 422.221 0.570459 2.21987 0
M  V30 4321 C 423.221 -0.353211 1.56873 0
M  V30 4322 O 424.411 -0.14349 1.73608 0
M  V30 4323 C 421.543 -0.168555 3.40483 0
M  V30 4324 H 422.736 1.46021 2.6195 0
M  V30 4325 H 420.289 0.793565 1.34656 0
M  V30 4326 H 421.024 -1.07374 3.06009 0
M  V30 4327 H 420.809 0.494823 3.88965 0
M  V30 4328 H 422.299 -0.460362 4.15055 0
M  V30 4329 N 422.737 -1.36956 0.779787 0
M  V30 4330 C 423.962 -2.04283 0.358224 0
M  V30 4331 C 424.387 -1.58422 -1.01411 0
M  V30 4332 O 423.745 -0.748179 -1.65142 0
M  V30 4333 C 423.793 -3.58152 0.419479 0
M  V30 4334 O 422.897 -4.08342 -0.577142 0
M  V30 4335 H 422.238 -0.645967 0.153698 0
M  V30 4336 H 424.768 -1.75108 1.05822 0
M  V30 4337 H 424.778 -4.07041 0.279636 0
M  V30 4338 H 423.453 -3.90886 1.42061 0
M  V30 4339 H 422.03 -3.70751 -0.399755 0
M  V30 4340 N 424.215 -0.530993 -1.48385 0
M  V30 4341 C 425.443 -0.00134122 -2.069 0
M  V30 4342 C 425.858 1.2805 -1.3874 0
M  V30 4343 O 425.215 1.76204 -0.475244 0
M  V30 4344 C 425.266 0.225256 -3.60798 0
M  V30 4345 O 424.987 -1.0058 -4.26398 0
M  V30 4346 C 426.488 0.795172 -4.3611 0
M  V30 4347 H 423.708 -0.0339704 -0.67014 0
M  V30 4348 H 426.252 -0.736926 -1.90761 0
M  V30 4349 H 424.407 0.910891 -3.76539 0
M  V30 4350 H 424.821 -0.787165 -5.1856 0
M  V30 4351 H 426.295 0.903143 -5.44562 0
M  V30 4352 H 426.772 1.80031 -4.00606 0
M  V30 4353 H 427.378 0.146069 -4.25049 0
M  V30 4354 N 425.693 1.55336 -0.266172 0
M  V30 4355 C 426.64 2.22172 0.625165 0
M  V30 4356 C 427.61 1.19211 1.15663 0
M  V30 4357 O 428.795 1.47723 1.20758 0
M  V30 4358 C 425.935 2.93972 1.8076 0
M  V30 4359 C 425.048 4.11632 1.31084 0
M  V30 4360 C 424.183 4.71099 2.45436 0
M  V30 4361 C 423.222 5.8097 1.92718 0
M  V30 4362 N 422.359 6.34538 3.00509 0
M  V30 4363 H 427.199 2.9796 0.0485582 0
M  V30 4364 H 424.736 1.47095 0.0122024 0
M  V30 4365 H 426.694 3.33811 2.50251 0
M  V30 4366 H 425.324 2.20623 2.35638 0
M  V30 4367 H 424.376 3.76975 0.509326 0
M  V30 4368 H 425.688 4.90893 0.884633 0
M  V30 4369 H 424.842 5.13612 3.22936 0
M  V30 4370 H 423.581 3.91096 2.91368 0
M  V30 4371 H 422.586 5.37916 1.13695 0
M  V30 4372 H 423.811 6.62836 1.47733 0
M  V30 4373 H 421.757 5.57433 3.45839 0
M  V30 4374 H 421.674 7.09046 2.62279 0
M  V30 4375 H 422.942 6.81709 3.78011 0
M  V30 4376 N 427.171 -0.0066808 1.57599 0
M  V30 4377 C 428.081 -1.01671 2.11424 0
M  V30 4378 C 429.097 -1.38143 1.05795 0
M  V30 4379 O 430.273 -1.47011 1.37658 0
M  V30 4380 C 427.338 -2.29192 2.60139 0
M  V30 4381 C 426.399 -1.99094 3.80342 0
M  V30 4382 C 425.632 -3.20535 4.26724 0
M  V30 4383 O 425.855 -4.3199 3.72479 0
M  V30 4384 O 424.789 -3.04924 5.18946 0
M  V30 4385 H 428.615 -0.589181 2.9793 0
M  V30 4386 H 426.2 -0.225091 1.47695 0
M  V30 4387 H 428.082 -3.0412 2.917 0
M  V30 4388 H 426.757 -2.71195 1.76733 0
M  V30 4389 H 425.664 -1.21663 3.53764 0
M  V30 4390 H 426.997 -1.61931 4.648 0
M  V30 4391 N 428.649 -1.55105 -0.279332 0
M  V30 4392 C 429.612 -1.86783 -1.32834 0
M  V30 4393 C 430.612 -0.74199 -1.42657 0
M  V30 4394 O 431.802 -1.0102 -1.41918 0
M  V30 4395 C 428.934 -2.06746 -2.71052 0
M  V30 4396 H 430.127 -2.8055 -1.05979 0
M  V30 4397 H 427.68 -1.47499 -0.517087 0
M  V30 4398 H 428.415 -1.15339 -3.03097 0
M  V30 4399 H 428.2 -2.88711 -2.65309 0
M  V30 4400 H 429.69 -2.32549 -3.46858 0
M  V30 4401 N 430.127 0.543554 -1.4793 0
M  V30 4402 C 431.059 1.665 -1.57513 0
M  V30 4403 C 432.072 1.56156 -0.460333 0
M  V30 4404 O 433.261 1.62865 -0.730573 0
M  V30 4405 C 430.361 3.05063 -1.47614 0
M  V30 4406 C 429.534 3.41024 -2.739 0
M  V30 4407 C 428.593 4.58809 -2.57645 0
M  V30 4408 O 427.619 4.62707 -3.31498 0
M  V30 4409 N 428.821 5.56149 -1.66368 0
M  V30 4410 H 431.586 1.5872 -2.5422 0
M  V30 4411 H 429.147 0.730517 -1.44482 0
M  V30 4412 H 431.139 3.81712 -1.34455 0
M  V30 4413 H 429.709 3.06994 -0.589359 0
M  V30 4414 H 428.929 2.53687 -3.01723 0
M  V30 4415 H 430.217 3.61831 -3.57709 0
M  V30 4416 H 429.615 5.55767 -1.05543 0
M  V30 4417 H 428.172 6.32071 -1.59154 0
M  V30 4418 N 431.605 1.3629 0.791371 0
M  V30 4419 C 432.83 1.33726 1.58531 0
M  V30 4420 C 433.255 -0.0794933 1.87932 0
M  V30 4421 O 432.613 -1.05087 1.47738 0
M  V30 4422 C 432.661 2.16425 2.88431 0
M  V30 4423 O 431.765 1.5554 3.81944 0
M  V30 4424 H 431.106 0.457793 0.480959 0
M  V30 4425 H 433.636 1.79547 0.981031 0
M  V30 4426 H 433.646 2.28933 3.37718 0
M  V30 4427 H 432.321 3.19415 2.66359 0
M  V30 4428 H 430.898 1.51961 3.40532 0
M  V30 4429 N 433.083 -1.0153 1.20538 0
M  V30 4430 C 434.499 -1.27461 0.96051 0
M  V30 4431 C 434.699 -1.98273 -0.359193 0
M  V30 4432 O 433.755 -2.27886 -1.0874 0
M  V30 4433 C 435.068 -2.10837 2.14402 0
M  V30 4434 C 436.616 -2.24099 2.18515 0
M  V30 4435 C 437.091 -3.10852 3.36355 0
M  V30 4436 N 438.582 -3.18441 3.36377 0
M  V30 4437 C 439.317 -3.85795 4.24205 0
M  V30 4438 N 438.813 -4.55264 5.22213 0
M  V30 4439 N 440.606 -3.82331 4.12043 0
M  V30 4440 H 432.757 -0.539907 2.05423 0
M  V30 4441 H 435.02 -0.30092 0.898972 0
M  V30 4442 H 434.726 -1.66144 3.09983 0
M  V30 4443 H 434.6 -3.11576 2.12604 0
M  V30 4444 H 436.987 -2.68016 1.23497 0
M  V30 4445 H 437.068 -1.22865 2.24361 0
M  V30 4446 H 436.712 -2.6764 4.31661 0
M  V30 4447 H 436.642 -4.12177 3.27746 0
M  V30 4448 H 439.133 -2.68978 2.65442 0
M  V30 4449 H 439.446 -5.04331 5.85551 0
M  V30 4450 H 437.791 -4.54085 5.26148 0
M  V30 4451 H 440.982 -3.27207 3.34743 0
M  V30 4452 H 441.155 -4.34547 4.807 0
M  V30 4453 N 434.561 -1.01147 -1.20859 0
M  V30 4454 C 435.801 -0.706331 -1.91808 0
M  V30 4455 C 436.165 0.749736 -1.76757 0
M  V30 4456 O 437.366 1.16716 -2.42138 0
M  V30 4457 C 435.637 -1.12371 -3.39275 0
M  V30 4458 S 437.196 -0.939764 -4.28619 0
M  V30 4459 H 434.014 -0.257665 -0.662669 0
M  V30 4460 H 436.616 -1.29766 -1.46223 0
M  V30 4461 H 435.32 -2.17943 -3.47749 0
M  V30 4462 H 434.851 -0.524952 -3.89882 0
M  V30 4463 H 436.866 0.159556 -4.95943 0
M  V30 4464 N 436.039 1.36541 -0.78704 0
M  V30 4465 C 437.287 1.98911 -0.357633 0
M  V30 4466 C 437.608 1.62778 1.07371 0
M  V30 4467 O 436.878 0.900612 1.73971 0
M  V30 4468 H 435.458 0.735734 -0.129246 0
M  V30 4469 H 438.12 1.66776 -1.00855 0
M  V30 4470 H 437.216 3.08874 -0.447549 0
M  V30 4471 N 437.518 0.538854 1.48102 0
M  V30 4472 C 438.428 -0.222648 2.33541 0
M  V30 4473 C 439.444 -0.930225 1.47047 0
M  V30 4474 O 440.62 -0.903211 1.80011 0
M  V30 4475 C 437.685 -1.25064 3.23357 0
M  V30 4476 C 436.746 -0.552469 4.2573 0
M  V30 4477 C 435.979 -1.53149 5.11254 0
M  V30 4478 O 436.202 -2.76487 4.9891 0
M  V30 4479 O 435.136 -1.06602 5.92385 0
M  V30 4480 H 438.962 0.477707 2.99919 0
M  V30 4481 H 436.547 0.299669 1.46364 0
M  V30 4482 H 438.429 -1.8445 3.78888 0
M  V30 4483 H 437.104 -1.93325 2.59629 0
M  V30 4484 H 436.011 0.082114 3.7401 0
M  V30 4485 H 437.344 0.0883526 4.92121 0
M  V30 4486 N 438.996 -1.55193 0.274407 0
M  V30 4487 C 439.906 -2.26164 -0.623473 0
M  V30 4488 C 440.922 -1.28729 -1.17068 0
M  V30 4489 O 442.098 -1.61663 -1.20112 0
M  V30 4490 C 439.163 -2.96833 -1.7914 0
M  V30 4491 C 438.224 -4.09745 -1.28093 0
M  V30 4492 C 437.457 -4.77034 -2.3932 0
M  V30 4493 O 437.68 -4.4353 -3.5866 0
M  V30 4494 O 436.614 -5.64996 -2.07516 0
M  V30 4495 H 440.44 -3.03661 -0.0485661 0
M  V30 4496 H 438.025 -1.49341 0.0418382 0
M  V30 4497 H 439.907 -3.41248 -2.4724 0
M  V30 4498 H 438.582 -2.22253 -2.35341 0
M  V30 4499 H 437.489 -3.69787 -0.566416 0
M  V30 4500 H 438.822 -4.86224 -0.764683 0
M  V30 4501 N 440.474 -0.00167713 -1.576 0
M  V30 4502 C 441.723 0.682021 -1.89819 0
M  V30 4503 C 442.036 1.74844 -0.876871 0
M  V30 4504 O 443.242 2.48688 -1.08934 0
M  V30 4505 C 441.698 1.26425 -3.36964 0
M  V30 4506 C 441.306 0.232568 -4.47396 0
M  V30 4507 C 443.05 1.92604 -3.78291 0
M  V30 4508 C 440.957 0.824882 -5.85619 0
M  V30 4509 H 439.887 0.258499 -0.708304 0
M  V30 4510 H 442.538 -0.0624957 -1.83394 0
M  V30 4511 H 440.92 2.05949 -3.38232 0
M  V30 4512 H 442.094 -0.5382 -4.57646 0
M  V30 4513 H 440.409 -0.32888 -4.15099 0
M  V30 4514 H 443.006 2.37827 -4.78897 0
M  V30 4515 H 443.349 2.75732 -3.11894 0
M  V30 4516 H 443.882 1.19812 -3.79328 0
M  V30 4517 H 440.621 0.0323542 -6.55492 0
M  V30 4518 H 440.141 1.56477 -5.79029 0
M  V30 4519 H 441.82 1.32301 -6.33329 0
M  V30 4520 N 441.952 1.55251 0.271103 0
M  V30 4521 C 442.915 1.87484 1.31842 0
M  V30 4522 C 443.915 0.749545 1.42262 0
M  V30 4523 O 445.105 1.01771 1.4138 0
M  V30 4524 C 442.237 2.0818 2.69951 0
M  V30 4525 H 443.43 2.81108 1.0449 0
M  V30 4526 H 440.983 1.47771 0.509258 0
M  V30 4527 H 441.718 1.16944 3.02481 0
M  V30 4528 H 441.503 2.90114 2.63774 0
M  V30 4529 H 442.993 2.34385 3.4562 0
M  V30 4530 N 443.43 -0.535701 1.48216 0
M  V30 4531 C 444.676 -1.29375 1.56173 0
M  V30 4532 C 445.009 -1.92804 0.232429 0
M  V30 4533 O 444.284 -1.78992 -0.761048 0
M  V30 4534 C 444.567 -2.38747 2.69577 0
M  V30 4535 C 444.42 -1.80046 4.12193 0
M  V30 4536 C 445.739 -3.40551 2.78771 0
M  V30 4537 H 442.858 -0.469027 0.568491 0
M  V30 4538 H 445.5 -0.597358 1.80365 0
M  V30 4539 H 443.65 -2.98147 2.4908 0
M  V30 4540 H 445.322 -1.24742 4.44114 0
M  V30 4541 H 443.565 -1.10609 4.19462 0
M  V30 4542 H 444.236 -2.59212 4.87353 0
M  V30 4543 H 446.712 -2.91099 2.97322 0
M  V30 4544 H 445.588 -4.1448 3.59857 0
M  V30 4545 H 445.849 -4.00746 1.86696 0
M  V30 4546 N 444.908 -1.36708 -0.784132 0
M  V30 4547 C 445.84 -1.27333 -1.90575 0
M  V30 4548 C 446.853 -0.191706 -1.61667 0
M  V30 4549 O 448.042 -0.446854 -1.72816 0
M  V30 4550 C 445.142 -0.943177 -3.25511 0
M  V30 4551 C 444.315 -2.12776 -3.82158 0
M  V30 4552 C 443.374 -1.76983 -4.95544 0
M  V30 4553 O 442.4 -2.49134 -5.11782 0
M  V30 4554 N 443.602 -0.706624 -5.76183 0
M  V30 4555 H 446.367 -2.23974 -1.99138 0
M  V30 4556 H 443.928 -1.30171 -0.962656 0
M  V30 4557 H 445.92 -0.684799 -3.98864 0
M  V30 4558 H 444.49 -0.0657333 -3.12531 0
M  V30 4559 H 443.71 -2.54863 -3.0073 0
M  V30 4560 H 444.998 -2.91904 -4.16737 0
M  V30 4561 H 444.396 -0.107643 -5.65598 0
M  V30 4562 H 442.953 -0.50808 -6.49817 0
M  V30 4563 N 446.386 1.0089 -1.21074 0
M  V30 4564 C 447.633 1.74607 -1.0256 0
M  V30 4565 C 447.961 1.89426 0.44136 0
M  V30 4566 O 447.216 1.42266 1.34384 0
M  V30 4567 C 447.515 3.16335 -1.66334 0
M  V30 4568 C 447.181 3.21474 -3.16173 0
M  V30 4569 C 445.843 3.22583 -3.57062 0
M  V30 4570 C 448.195 3.19025 -4.12156 0
M  V30 4571 C 445.523 3.18925 -4.92446 0
M  V30 4572 C 447.875 3.16909 -5.47496 0
M  V30 4573 C 446.539 3.16326 -5.87787 0
M  V30 4574 H 445.809 0.638933 -0.375294 0
M  V30 4575 H 448.456 1.18274 -1.50611 0
M  V30 4576 H 446.761 3.75876 -1.10566 0
M  V30 4577 H 448.458 3.72083 -1.49516 0
M  V30 4578 H 445.048 3.2135 -2.83605 0
M  V30 4579 H 449.232 3.17332 -3.81595 0
M  V30 4580 H 444.488 3.16809 -5.22917 0
M  V30 4581 H 448.662 3.13968 -6.21609 0
M  V30 4582 H 446.289 3.13246 -6.92662 0
M  V30 4583 N 447.864 1.01787 1.20321 0
M  V30 4584 C 449.11 0.708985 1.90003 0
M  V30 4585 C 449.443 -0.759572 1.78729 0
M  V30 4586 O 448.718 -1.55198 1.17234 0
M  V30 4587 C 449.001 1.1469 3.41348 0
M  V30 4588 C 448.854 2.67586 3.61549 0
M  V30 4589 C 450.173 0.71915 4.34185 0
M  V30 4590 H 447.292 0.259034 0.689978 0
M  V30 4591 H 449.934 1.26584 1.41692 0
M  V30 4592 H 448.084 0.673128 3.82624 0
M  V30 4593 H 449.756 3.22826 3.29517 0
M  V30 4594 H 447.999 3.085 3.04976 0
M  V30 4595 H 448.67 2.93281 4.67643 0
M  V30 4596 H 451.146 1.12647 4.00562 0
M  V30 4597 H 450.022 1.05358 5.38694 0
M  V30 4598 H 450.283 -0.379111 4.40472 0
M  V30 4599 N 449.342 -1.36122 0.79427 0
M  V30 4600 C 450.619 -1.93398 0.292685 0
M  V30 4601 C 450.999 -1.72567 -1.21589 0
M  V30 4602 O 450.347 -1.08745 -2.00965 0
M  V30 4603 C 450.557 -3.42099 0.690614 0
M  V30 4604 C 451.905 -4.19231 0.673105 0
M  V30 4605 O 452.929 -3.50559 0.631389 0
M  V30 4606 O 451.788 -5.41732 0.720362 0
M  V30 4607 H 448.882 -0.823712 0.0736693 0
M  V30 4608 H 451.428 -1.45273 0.87714 0
M  V30 4609 H 450.2 -3.50938 1.73085 0
M  V30 4610 H 449.823 -3.97519 0.0803036 0
M  V30 4611 N 450.82 -0.546701 -1.47814 0
M  V30 4612 C 451.753 0.254472 -2.26777 0
M  V30 4613 C 452.731 0.929809 -1.33392 0
M  V30 4614 O 453.915 0.950889 -1.62759 0
M  V30 4615 C 451.042 1.36171 -3.10121 0
M  V30 4616 C 450.088 0.796038 -4.19005 0
M  V30 4617 S 450.921 -0.349191 -5.3436 0
M  V30 4618 C 452.077 0.760122 -6.21267 0
M  V30 4619 H 452.31 -0.415612 -2.94381 0
M  V30 4620 H 449.843 -0.332809 -1.5077 0
M  V30 4621 H 451.801 1.99588 -3.58713 0
M  V30 4622 H 450.462 2.00359 -2.41899 0
M  V30 4623 H 449.655 1.62719 -4.7701 0
M  V30 4624 H 449.257 0.238246 -3.7324 0
M  V30 4625 H 451.549 1.65479 -6.5698 0
M  V30 4626 H 452.492 0.217673 -7.07765 0
M  V30 4627 H 452.9 1.04806 -5.54685 0
M  V30 4628 N 452.299 1.55045 -0.282633 0
M  V30 4629 C 453.545 2.00056 0.332481 0
M  V30 4630 C 453.878 1.1708 1.54939 0
M  V30 4631 O 453.153 0.2427 1.9298 0
M  V30 4632 C 453.436 3.53086 0.70725 0
M  V30 4633 C 453.289 4.46813 -0.517521 0
M  V30 4634 C 454.608 4.12245 1.54084 0
M  V30 4635 H 451.727 0.727268 0.119373 0
M  V30 4636 H 454.369 1.85932 -0.391076 0
M  V30 4637 H 452.519 3.65253 1.32372 0
M  V30 4638 H 454.191 4.46579 -1.15607 0
M  V30 4639 H 452.434 4.18163 -1.1542 0
M  V30 4640 H 453.105 5.51595 -0.211426 0
M  V30 4641 H 455.581 4.03401 1.02013 0
M  V30 4642 H 454.457 5.19515 1.77186 0
M  V30 4643 H 454.718 3.62951 2.52427 0
M  V30 4644 N 453.777 0.010035 1.57597 0
M  V30 4645 C 454.724 -0.978122 2.09049 0
M  V30 4646 C 455.694 -1.33509 0.988159 0
M  V30 4647 O 456.879 -1.43172 1.26121 0
M  V30 4648 C 454.019 -2.26158 2.60666 0
M  V30 4649 C 453.132 -1.96275 3.84838 0
M  V30 4650 C 452.267 -3.18776 4.24918 0
M  V30 4651 C 451.306 -2.84625 5.41899 0
M  V30 4652 N 450.443 -3.99693 5.77226 0
M  V30 4653 H 455.283 -0.532431 2.93205 0
M  V30 4654 H 452.82 -0.251234 1.44939 0
M  V30 4655 H 454.778 -3.01202 2.88675 0
M  V30 4656 H 453.408 -2.68378 1.79369 0
M  V30 4657 H 452.46 -1.11555 3.63675 0
M  V30 4658 H 453.772 -1.67111 4.69974 0
M  V30 4659 H 452.926 -4.02157 4.54262 0
M  V30 4660 H 451.665 -3.51087 3.38511 0
M  V30 4661 H 450.67 -1.99653 5.12268 0
M  V30 4662 H 451.895 -2.53551 6.29991 0
M  V30 4663 H 449.841 -4.31882 4.93776 0
M  V30 4664 H 449.758 -3.74087 6.56959 0
M  V30 4665 H 451.026 -4.83834 6.11167 0
M  V30 4666 N 455.255 -1.55392 -0.262866 0
M  V30 4667 C 456.503 -1.76127 -0.991147 0
M  V30 4668 C 456.824 -0.571083 -1.8645 0
M  V30 4669 O 456.094 0.413698 -1.91482 0
M  V30 4670 H 454.674 -0.649528 -0.368948 0
M  V30 4671 H 457.336 -1.9281 -0.284655 0
M  V30 4672 H 456.432 -2.6663 -1.62219 0
M  V30 4673 N 456.733 0.527833 -1.48498 0
M  V30 4674 C 457.68 1.6322 -1.6318 0
M  V30 4675 C 458.65 1.59199 -0.473815 0
M  V30 4676 O 459.835 1.77591 -0.697563 0
M  V30 4677 C 456.975 3.01474 -1.67951 0
M  V30 4678 C 456.088 3.15713 -2.94871 0
M  V30 4679 C 455.223 4.44539 -2.90789 0
M  V30 4680 C 454.262 4.52315 -4.12404 0
M  V30 4681 N 453.399 5.72533 -4.06387 0
M  V30 4682 H 458.239 1.50011 -2.57489 0
M  V30 4683 H 455.776 0.730298 -1.27691 0
M  V30 4684 H 457.734 3.81572 -1.68698 0
M  V30 4685 H 456.364 3.1345 -0.771306 0
M  V30 4686 H 455.416 2.28854 -3.03859 0
M  V30 4687 H 456.728 3.1732 -3.8485 0
M  V30 4688 H 455.882 5.3293 -2.89949 0
M  V30 4689 H 454.621 4.45457 -1.98542 0
M  V30 4690 H 453.626 3.62331 -4.13517 0
M  V30 4691 H 454.851 4.53134 -5.05812 0
M  V30 4692 H 452.797 5.74344 -3.16962 0
M  V30 4693 H 452.714 5.75643 -4.90073 0
M  V30 4694 H 453.982 6.63204 -4.0961 0
M  V30 4695 N 458.211 1.37122 0.776871 0
M  V30 4696 C 459.436 1.354 1.57104 0
M  V30 4697 C 459.861 -0.0595562 1.88006 0
M  V30 4698 O 459.219 -1.03514 1.48844 0
M  V30 4699 C 459.267 2.19472 2.8612 0
M  V30 4700 O 458.371 1.59582 3.80273 0
M  V30 4701 H 457.712 0.462869 0.476076 0
M  V30 4702 H 460.242 1.80577 0.961932 0
M  V30 4703 H 460.252 2.32502 3.35271 0
M  V30 4704 H 458.927 3.22222 2.62956 0
M  V30 4705 H 457.504 1.55564 3.38902 0
M  V30 4706 N 459.689 -1.00246 1.21608 0
M  V30 4707 C 460.619 -2.10921 1.00172 0
M  V30 4708 C 461.6 -1.69938 -0.0741587 0
M  V30 4709 O 462.785 -1.94009 0.0861753 0
M  V30 4710 C 459.915 -3.42618 0.568355 0
M  V30 4711 C 458.869 -3.97407 1.58909 0
M  V30 4712 C 458.195 -5.25038 1.01187 0
M  V30 4713 C 459.495 -4.2918 2.97661 0
M  V30 4714 H 461.189 -2.29112 1.92739 0
M  V30 4715 H 458.735 -1.10101 0.928102 0
M  V30 4716 H 460.688 -4.19444 0.405555 0
M  V30 4717 H 459.412 -3.24227 -0.392961 0
M  V30 4718 H 458.071 -3.22703 1.73949 0
M  V30 4719 H 457.719 -5.02982 0.0421965 0
M  V30 4720 H 457.419 -5.62661 1.6937 0
M  V30 4721 H 458.943 -6.04507 0.860448 0
M  V30 4722 H 460.357 -4.96839 2.86049 0
M  V30 4723 H 458.754 -4.77952 3.6288 0
M  V30 4724 H 459.824 -3.3735 3.48315 0
M  V30 4725 N 461.167 -1.02423 -1.1978 0
M  V30 4726 C 462.395 -0.737456 -1.93311 0
M  V30 4727 C 462.81 0.703023 -1.75223 0
M  V30 4728 O 462.167 1.47761 -1.07112 0
M  V30 4729 C 462.218 -1.0733 -3.45199 0
M  V30 4730 O 461.939 -2.4572 -3.62702 0
M  V30 4731 C 463.44 -0.80866 -4.35862 0
M  V30 4732 H 460.66 -0.2702 -0.614193 0
M  V30 4733 H 463.204 -1.36747 -1.52054 0
M  V30 4734 H 461.359 -0.488545 -3.84307 0
M  V30 4735 H 461.773 -2.58081 -4.56612 0
M  V30 4736 H 463.247 -1.09365 -5.41057 0
M  V30 4737 H 463.724 0.257025 -4.38447 0
M  V30 4738 H 464.33 -1.37592 -4.02428 0
M  V30 4739 N 462.645 1.35699 -0.801477 0
M  V30 4740 C 463.893 1.9852 -0.37871 0
M  V30 4741 C 464.214 1.63907 1.05638 0
M  V30 4742 O 463.484 0.919013 1.73006 0
M  V30 4743 H 462.064 0.734322 -0.137042 0
M  V30 4744 H 464.726 1.65697 -1.02619 0
M  V30 4745 H 463.822 3.08382 -0.480284 0
M  V30 4746 N 464.123 0.554532 1.47522 0
M  V30 4747 C 465.369 0.0295227 2.02779 0
M  V30 4748 C 465.702 -1.31582 1.42828 0
M  V30 4749 O 464.977 -1.85561 0.582872 0
M  V30 4750 C 465.26 -0.0664057 3.60039 0
M  V30 4751 C 465.113 1.30585 4.30427 0
M  V30 4752 C 466.432 -0.781162 4.33112 0
M  V30 4753 H 463.551 0.0122027 0.736899 0
M  V30 4754 H 466.193 0.716305 1.7598 0
M  V30 4755 H 464.343 -0.651307 3.83002 0
M  V30 4756 H 466.015 1.93374 4.18813 0
M  V30 4757 H 464.258 1.88125 3.90886 0
M  V30 4758 H 464.929 1.19147 5.38988 0
M  V30 4759 H 467.405 -0.284565 4.15126 0
M  V30 4760 H 466.281 -0.817237 5.42782 0
M  V30 4761 H 466.542 -1.83672 4.0214 0
M  V30 4762 N 465.601 -1.54893 0.290851 0
M  V30 4763 C 466.847 -2.0023 -0.321867 0
M  V30 4764 C 467.18 -1.179 -1.54316 0
M  V30 4765 O 466.455 -0.25293 -1.92848 0
M  V30 4766 C 466.738 -3.53456 -0.688515 0
M  V30 4767 C 466.591 -4.46532 0.541209 0
M  V30 4768 C 467.91 -4.13057 -1.51895 0
M  V30 4769 H 465.029 -0.727891 -0.115515 0
M  V30 4770 H 467.671 -1.85722 0.400931 0
M  V30 4771 H 465.821 -3.6595 -1.30433 0
M  V30 4772 H 467.493 -4.4596 1.17973 0
M  V30 4773 H 465.736 -4.17545 1.17636 0
M  V30 4774 H 466.407 -5.51475 0.240675 0
M  V30 4775 H 468.883 -4.03937 -0.99872 0
M  V30 4776 H 467.759 -5.20448 -1.74429 0
M  V30 4777 H 468.02 -3.64284 -2.50498 0
M  V30 4778 N 467.08 -0.0183926 -1.57589 0
M  V30 4779 C 468.028 0.985111 -2.10709 0
M  V30 4780 C 469.022 1.34397 -1.0312 0
M  V30 4781 O 470.228 1.32746 -1.21567 0
M  V30 4782 H 466.603 0.335418 -0.673052 0
M  V30 4783 H 468.574 0.511689 -2.9398 0
M  V30 4784 C 467.323 2.26202 -2.64061 0
M  V30 4785 H 466.646 1.9946 -3.4649 0
M  V30 4786 H 468.086 2.94652 -3.04887 0
M  V30 4787 C 466.545 2.98444 -1.5631 0
M  V30 4788 O 467.075 3.90142 -0.956674 0
M  V30 4789 N 465.281 2.6059 -1.28612 0
M  V30 4790 H 464.828 1.86101 -1.78112 0
M  V30 4791 H 464.786 3.09238 -0.567406 0
M  V30 4792 N 468.558 1.5553 0.254621 0
M  V30 4793 C 469.521 1.88872 1.29846 0
M  V30 4794 C 470.521 0.764591 1.41459 0
M  V30 4795 O 471.711 1.03265 1.40293 0
M  V30 4796 C 468.843 2.11032 2.67728 0
M  V30 4797 H 470.036 2.82201 1.01502 0
M  V30 4798 H 467.589 1.48303 0.493556 0
M  V30 4799 H 468.324 1.20146 3.01223 0
M  V30 4800 H 468.109 2.92895 2.60682 0
M  V30 4801 H 469.599 2.38038 3.43115 0
M  V30 4802 N 470.036 -0.519951 1.48776 0
M  V30 4803 C 470.968 -1.63973 1.60142 0
M  V30 4804 C 471.981 -1.55404 0.485117 0
M  V30 4805 O 473.17 -1.61682 0.756391 0
M  V30 4806 C 470.27 -3.02676 1.52449 0
M  V30 4807 C 469.443 -3.36624 2.79291 0
M  V30 4808 C 468.502 -4.54652 2.64912 0
M  V30 4809 O 467.528 -4.57374 3.38818 0
M  V30 4810 N 468.73 -5.53432 1.75195 0
M  V30 4811 H 471.495 -1.54656 2.56713 0
M  V30 4812 H 469.056 -0.707439 1.45626 0
M  V30 4813 H 471.048 -3.79525 1.4051 0
M  V30 4814 H 469.618 -3.06018 0.638125 0
M  V30 4815 H 468.838 -2.48855 3.0572 0
M  V30 4816 H 470.126 -3.56094 3.6342 0
M  V30 4817 H 469.524 -5.54018 1.14371 0
M  V30 4818 H 468.081 -6.29459 1.69189 0
M  V30 4819 N 471.514 -1.37532 -0.769588 0
M  V30 4820 C 472.477 -1.33292 -1.86456 0
M  V30 4821 C 473.477 -0.236537 -1.59051 0
M  V30 4822 O 474.667 -0.492511 -1.67093 0
M  V30 4823 C 471.799 -1.07118 -3.23633 0
M  V30 4824 H 472.992 -2.30692 -1.91628 0
M  V30 4825 H 470.545 -1.22593 -0.969572 0
M  V30 4826 H 471.28 -0.102578 -3.24138 0
M  V30 4827 H 471.065 -1.86479 -3.44917 0
M  V30 4828 H 472.555 -1.06806 -4.03711 0
M  V30 4829 N 472.992 0.995999 -1.22138 0
M  V30 4830 C 473.922 2.10387 -1.01289 0
M  V30 4831 C 474.903 1.69975 0.0651454 0
M  V30 4832 O 476.088 1.9396 -0.0964628 0
M  V30 4833 C 473.218 3.42312 -0.586517 0
M  V30 4834 C 472.172 3.96558 -1.61014 0
M  V30 4835 C 471.498 5.24494 -1.0397 0
M  V30 4836 C 472.798 4.27595 -2.99933 0
M  V30 4837 H 474.492 2.28086 -1.93951 0
M  V30 4838 H 472.038 1.09607 -0.933928 0
M  V30 4839 H 473.991 4.19223 -0.427793 0
M  V30 4840 H 472.715 3.24431 0.375761 0
M  V30 4841 H 471.374 3.21776 -1.75658 0
M  V30 4842 H 471.022 5.02953 -0.0688703 0
M  V30 4843 H 470.722 5.61755 -1.72352 0
M  V30 4844 H 472.246 6.04042 -0.892494 0
M  V30 4845 H 473.66 4.95315 -2.8868 0
M  V30 4846 H 472.057 4.76021 -3.6541 0
M  V30 4847 H 473.127 3.35498 -3.50099 0
M  V30 4848 N 474.47 1.03057 1.19235 0
M  V30 4849 C 475.698 0.747697 1.92917 0
M  V30 4850 C 476.113 -0.69372 1.75593 0
M  V30 4851 O 475.47 -1.47191 1.07894 0
M  V30 4852 C 475.521 1.09159 3.44625 0
M  V30 4853 O 475.242 2.47641 3.61394 0
M  V30 4854 C 476.743 0.831763 4.35427 0
M  V30 4855 H 473.963 0.273453 0.612751 0
M  V30 4856 H 476.507 1.37552 1.51327 0
M  V30 4857 H 474.662 0.508919 3.84043 0
M  V30 4858 H 475.076 2.60499 4.55237 0
M  V30 4859 H 476.55 1.12233 5.4047 0
M  V30 4860 H 477.027 -0.233769 4.38577 0
M  V30 4861 H 477.633 1.39725 4.01693 0
M  V30 4862 N 475.948 -1.35272 0.808662 0
M  V30 4863 C 477.173 -2.03477 0.401475 0
M  V30 4864 C 477.598 -1.60537 -0.980279 0
M  V30 4865 O 476.956 -0.78304 -1.63518 0
M  V30 4866 C 477.004 -3.57181 0.495354 0
M  V30 4867 O 476.108 -4.09474 -0.490397 0
M  V30 4868 H 475.449 -0.642561 0.167366 0
M  V30 4869 H 477.979 -1.72824 1.09512 0
M  V30 4870 H 477.989 -4.06356 0.365912 0
M  V30 4871 H 476.664 -3.87784 1.5032 0
M  V30 4872 H 475.241 -3.71516 -0.321023 0
M  V30 4873 N 477.426 -0.562348 -1.47226 0
M  V30 4874 C 478.389 0.172056 -2.28553 0
M  V30 4875 C 479.389 0.837928 -1.37242 0
M  V30 4876 O 480.579 0.693001 -1.59822 0
M  V30 4877 C 477.711 1.25223 -3.17068 0
M  V30 4878 H 478.904 -0.542401 -2.94954 0
M  V30 4879 H 476.457 -0.319493 -1.53 0
M  V30 4880 H 477.192 1.99892 -2.55369 0
M  V30 4881 H 476.977 0.779515 -3.84273 0
M  V30 4882 H 478.467 1.76791 -3.78332 0
M  V30 4883 N 478.904 1.54736 -0.299062 0
M  V30 4884 C 480.151 2.00101 0.310784 0
M  V30 4885 C 480.479 1.18746 1.54045 0
M  V30 4886 O 479.734 0.251198 1.94081 0
M  V30 4887 C 480.033 3.50199 0.713835 0
M  V30 4888 C 479.699 4.48997 -0.413873 0
M  V30 4889 C 478.361 4.7573 -0.723462 0
M  V30 4890 C 480.713 5.07839 -1.17257 0
M  V30 4891 C 478.041 5.5857 -1.79491 0
M  V30 4892 C 480.393 5.91844 -2.23392 0
M  V30 4893 C 479.057 6.16889 -2.54959 0
M  V30 4894 H 478.327 0.732221 0.113724 0
M  V30 4895 H 480.974 1.86888 -0.417756 0
M  V30 4896 H 479.279 3.61012 1.52243 0
M  V30 4897 H 480.976 3.82723 1.19684 0
M  V30 4898 H 477.566 4.28292 -0.162476 0
M  V30 4899 H 481.75 4.87188 -0.946651 0
M  V30 4900 H 477.006 5.76213 -2.04423 0
M  V30 4901 H 481.18 6.36465 -2.8264 0
M  V30 4902 H 478.807 6.80869 -3.38114 0
M  V30 4903 N 480.382 0.0267497 1.57577 0
M  V30 4904 C 481.607 -0.666227 1.96408 0
M  V30 4905 C 482.032 -1.65004 0.903071 0
M  V30 4906 O 481.39 -1.80787 -0.136263 0
M  V30 4907 C 481.438 -1.35101 3.34335 0
M  V30 4908 O 480.542 -2.46623 3.30531 0
M  V30 4909 H 479.883 -0.175206 0.640468 0
M  V30 4910 H 482.413 0.0878977 2.04411 0
M  V30 4911 H 482.423 -1.70834 3.70513 0
M  V30 4912 H 481.098 -0.629844 4.11103 0
M  V30 4913 H 479.675 -2.13019 3.06068 0
M  V30 4914 N 481.861 -1.55662 -0.24637 0
M  V30 4915 C 483.272 -1.67953 -0.81539 0
M  V30 4916 C 483.623 -0.624302 -1.86002 0
M  V30 4917 O 482.748 0.229328 -2.15181 0
M  V30 4918 C 483.343 -3.04484 -1.48576 0
M  V30 4919 C 481.902 -3.18713 -2.00248 0
M  V30 4920 C 481.049 -2.6383 -0.853766 0
M  V30 4921 H 484 -1.58685 -0.0221692 0
M  V30 4922 H 484.021 -2.98959 -2.3538 0
M  V30 4923 H 483.533 -3.81264 -0.725222 0
M  V30 4924 H 481.634 -2.46757 -2.79181 0
M  V30 4925 H 481.747 -4.25628 -2.1995 0
M  V30 4926 H 480.111 -2.21667 -1.25442 0
M  V30 4927 H 480.894 -3.43135 -0.106302 0
M  V30 4928 N 483.339 0.512053 -1.4905 0
M  V30 4929 C 484.289 1.61142 -1.61298 0
M  V30 4930 C 485.273 1.53908 -0.46916 0
M  V30 4931 O 486.465 1.61625 -0.721547 0
M  V30 4932 C 483.594 2.998 -1.67256 0
M  V30 4933 C 482.68 3.12072 -2.87179 0
M  V30 4934 N 483.071 2.94263 -4.11391 0
M  V30 4935 C 481.369 3.43156 -2.84886 0
M  V30 4936 C 482.07 3.10426 -4.91946 0
M  V30 4937 N 481.046 3.38808 -4.251 0
M  V30 4938 H 484.848 1.46011 -2.55065 0
M  V30 4939 H 482.362 0.717934 -1.45669 0
M  V30 4940 H 484.359 3.78794 -1.74128 0
M  V30 4941 H 483.019 3.1601 -0.746195 0
M  V30 4942 H 484.03 2.70661 -4.41546 0
M  V30 4943 H 480.707 3.65611 -2.01581 0
M  V30 4944 H 482.097 3.01243 -6.00585 0
M  V30 4945 N 484.817 1.37938 0.762283 0
M  V30 4946 C 486.045 1.36883 1.55147 0
M  V30 4947 C 486.46 -0.0435348 1.8875 0
M  V30 4948 O 485.817 -1.00786 1.52146 0
M  V30 4949 C 485.868 2.21624 2.85596 0
M  V30 4950 O 485.589 3.57358 2.5343 0
M  V30 4951 C 487.09 2.28653 3.7978 0
M  V30 4952 H 484.31 0.468521 0.480343 0
M  V30 4953 H 486.854 1.81404 0.944079 0
M  V30 4954 H 485.009 1.80588 3.42734 0
M  V30 4955 H 485.423 4.01883 3.37032 0
M  V30 4956 H 486.897 2.9225 4.68288 0
M  V30 4957 H 487.374 1.29767 4.19592 0
M  V30 4958 H 487.98 2.70043 3.28568 0
M  V30 4959 N 486.295 -0.989507 1.22664 0
M  V30 4960 C 487.242 -2.08024 0.999733 0
M  V30 4961 C 488.212 -1.65909 -0.0797047 0
M  V30 4962 O 489.397 -1.90669 0.0705715 0
M  V30 4963 C 486.537 -3.40067 0.587234 0
M  V30 4964 C 485.65 -3.95505 1.73781 0
M  V30 4965 C 484.785 -5.15722 1.27297 0
M  V30 4966 C 483.824 -5.63305 2.39488 0
M  V30 4967 N 482.961 -6.74758 1.94026 0
M  V30 4968 H 487.801 -2.26768 1.9334 0
M  V30 4969 H 485.338 -1.11171 0.963297 0
M  V30 4970 H 487.296 -4.15899 0.329227 0
M  V30 4971 H 485.926 -3.21314 -0.309426 0
M  V30 4972 H 484.978 -3.16513 2.11006 0
M  V30 4973 H 486.29 -4.26797 2.58158 0
M  V30 4974 H 485.444 -5.98854 0.972546 0
M  V30 4975 H 484.183 -4.86061 0.399445 0
M  V30 4976 H 483.188 -4.78759 2.70315 0
M  V30 4977 H 484.413 -5.94988 3.27362 0
M  V30 4978 H 482.359 -6.46874 1.09041 0
M  V30 4979 H 482.276 -7.05386 2.71968 0
M  V30 4980 H 483.544 -7.61387 1.67062 0
M  V30 4981 N 487.773 -1.03688 -1.18687 0
M  V30 4982 C 489.184 -0.766488 -1.70241 0
M  V30 4983 C 489.535 0.713052 -1.82784 0
M  V30 4984 O 488.66 1.55529 -1.50465 0
M  V30 4985 C 489.255 -1.38475 -3.09209 0
M  V30 4986 C 487.814 -1.16276 -3.5799 0
M  V30 4987 C 486.961 -1.4778 -2.34641 0
M  V30 4988 H 489.912 -1.20378 -1.03415 0
M  V30 4989 H 489.933 -0.785939 -3.72295 0
M  V30 4990 H 489.445 -2.46157 -3.00048 0
M  V30 4991 H 487.546 -0.104508 -3.72453 0
M  V30 4992 H 487.659 -1.8571 -4.41643 0
M  V30 4993 H 486.023 -0.897366 -2.38368 0
M  V30 4994 H 486.806 -2.56562 -2.28102 0
M  V30 4995 N 489.251 1.34841 -0.815825 0
M  V30 4996 C 490.497 1.99219 -0.410288 0
M  V30 4997 C 490.852 1.63532 1.01366 0
M  V30 4998 O 490.145 0.893093 1.69512 0
M  V30 4999 C 490.339 3.53273 -0.541541 0
M  V30 5000 C 490.168 4.03927 -1.9767 0
M  V30 5001 C 488.938 4.32852 -2.60706 0
M  V30 5002 C 491.136 4.21808 -2.9425 0
M  V30 5003 N 489.118 4.69494 -3.95536 0
M  V30 5004 C 490.489 4.6155 -4.13971 0
M  V30 5005 C 492.544 4.04038 -2.9096 0
M  V30 5006 C 491.247 4.85381 -5.30847 0
M  V30 5007 C 493.273 4.29031 -4.07046 0
M  V30 5008 C 492.635 4.69054 -5.25517 0
M  V30 5009 H 488.734 0.756494 -0.198094 0
M  V30 5010 H 491.318 1.63379 -1.05902 0
M  V30 5011 H 489.489 3.88323 0.0772544 0
M  V30 5012 H 491.221 4.04551 -0.109694 0
M  V30 5013 H 487.976 4.23503 -2.11995 0
M  V30 5014 H 488.4 4.92061 -4.64979 0
M  V30 5015 H 493.042 3.7223 -2.00512 0
M  V30 5016 H 490.76 5.16059 -6.21859 0
M  V30 5017 H 494.346 4.16826 -4.05891 0
M  V30 5018 H 493.226 4.88014 -6.1385 0
M  V30 5019 N 490.729 0.570148 1.46925 0
M  V30 5020 C 491.978 0.0487352 2.01641 0
M  V30 5021 C 492.291 -1.31433 1.44861 0
M  V30 5022 O 493.497 -1.92638 1.91318 0
M  V30 5023 C 491.953 0.0365817 3.59881 0
M  V30 5024 C 491.561 1.39719 4.25655 0
M  V30 5025 C 493.305 -0.431545 4.22301 0
M  V30 5026 C 491.212 1.34345 5.75939 0
M  V30 5027 H 490.142 0.0144492 0.753862 0
M  V30 5028 H 492.793 0.719928 1.68788 0
M  V30 5029 H 491.175 -0.700522 3.89755 0
M  V30 5030 H 492.349 2.15303 4.07408 0
M  V30 5031 H 490.664 1.80431 3.75278 0
M  V30 5032 H 493.261 -0.490354 5.32447 0
M  V30 5033 H 493.604 -1.44638 3.90366 0
M  V30 5034 H 494.137 0.251102 3.97007 0
M  V30 5035 H 490.876 2.33469 6.12513 0
M  V30 5036 H 490.396 0.629615 5.96486 0
M  V30 5037 H 492.075 1.051 6.38407 0
M  V30 5038 N 492.207 -1.54576 0.307264 0
M  V30 5039 C 493.455 -1.99867 -0.299574 0
M  V30 5040 C 493.776 -1.19714 -1.53927 0
M  V30 5041 O 493.046 -0.29472 -1.9367 0
M  V30 5042 H 491.626 -0.738299 -0.113683 0
M  V30 5043 H 494.288 -1.9032 0.420042 0
M  V30 5044 H 493.384 -3.06901 -0.567283 0
M  V30 5045 N 493.685 -0.035106 -1.57561 0
M  V30 5046 C 494.615 0.942993 -2.13612 0
M  V30 5047 C 495.596 1.33531 -1.05373 0
M  V30 5048 O 496.781 1.41287 -1.33235 0
M  V30 5049 C 493.911 2.22332 -2.66807 0
M  V30 5050 C 492.865 1.97156 -3.79886 0
M  V30 5051 C 492.191 3.31506 -4.19533 0
M  V30 5052 C 493.491 1.30596 -5.05709 0
M  V30 5053 H 495.185 0.476179 -2.95589 0
M  V30 5054 H 492.731 0.227602 -1.4219 0
M  V30 5055 H 494.684 2.91142 -3.04654 0
M  V30 5056 H 493.408 2.7119 -1.81999 0
M  V30 5057 H 492.067 1.30763 -3.42486 0
M  V30 5058 H 491.715 3.78134 -3.31698 0
M  V30 5059 H 491.415 3.15465 -4.95738 0
M  V30 5060 H 492.939 4.01574 -4.59968 0
M  V30 5061 H 494.353 1.89416 -5.41105 0
M  V30 5062 H 492.75 1.24934 -5.86951 0
M  V30 5063 H 493.82 0.279742 -4.84092 0
M  V30 5064 N 495.163 1.55791 0.238111 0
M  V30 5065 C 496.126 1.90239 1.27835 0
M  V30 5066 C 497.126 0.779552 1.4064 0
M  V30 5067 O 498.316 1.04747 1.3919 0
M  V30 5068 C 495.448 2.13859 2.65475 0
M  V30 5069 H 496.641 2.83262 0.985034 0
M  V30 5070 H 494.194 1.48818 0.477799 0
M  V30 5071 H 494.929 1.23334 2.99932 0
M  V30 5072 H 494.714 2.95643 2.57561 0
M  V30 5073 H 496.204 2.41664 3.40571 0
M  V30 5074 N 496.642 -0.504142 1.49319 0
M  V30 5075 C 497.552 -1.63248 1.68486 0
M  V30 5076 C 498.568 -1.64488 0.567432 0
M  V30 5077 O 499.744 -1.82966 0.841749 0
M  V30 5078 C 496.809 -2.99627 1.74426 0
M  V30 5079 C 495.87 -3.09039 2.97982 0
M  V30 5080 C 495.103 -4.38913 3.0363 0
M  V30 5081 O 495.326 -5.27528 2.16958 0
M  V30 5082 O 494.26 -4.53231 3.96062 0
M  V30 5083 H 498.086 -1.50008 2.64067 0
M  V30 5084 H 495.671 -0.680086 1.33023 0
M  V30 5085 H 497.553 -3.80689 1.80705 0
M  V30 5086 H 496.228 -3.13136 0.820233 0
M  V30 5087 H 495.135 -2.27177 2.97223 0
M  V30 5088 H 496.468 -3.00456 3.89855 0
M  V30 5089 N 498.12 -1.38341 -0.754957 0
M  V30 5090 C 499.083 -1.35262 -1.85032 0
M  V30 5091 C 500.083 -0.253393 -1.58791 0
M  V30 5092 O 501.273 -0.510205 -1.66561 0
M  V30 5093 C 498.405 -1.10544 -3.22479 0
M  V30 5094 H 499.598 -2.32712 -1.8917 0
M  V30 5095 H 497.151 -1.23614 -0.956515 0
M  V30 5096 H 497.886 -0.136952 -3.24011 0
M  V30 5097 H 497.671 -1.90127 -3.4292 0
M  V30 5098 H 499.161 -1.11082 -4.02555 0
M  V30 5099 N 499.598 0.982988 -1.23187 0
M  V30 5100 C 500.528 2.09301 -1.03515 0
M  V30 5101 C 501.509 1.70035 0.0471136 0
M  V30 5102 O 502.694 1.93847 -0.117029 0
M  V30 5103 C 499.824 3.4167 -0.622791 0
M  V30 5104 C 498.778 3.94828 -1.65211 0
M  V30 5105 C 498.104 5.23362 -1.09527 0
M  V30 5106 C 499.404 4.2439 -3.04451 0
M  V30 5107 H 501.098 2.26016 -1.96359 0
M  V30 5108 H 498.644 1.08611 -0.945501 0
M  V30 5109 H 500.597 4.18746 -0.472233 0
M  V30 5110 H 499.321 3.24811 0.341329 0
M  V30 5111 H 497.98 3.19895 -1.79061 0
M  V30 5112 H 497.628 5.02852 -0.122211 0
M  V30 5113 H 497.328 5.59895 -1.783 0
M  V30 5114 H 498.852 6.03062 -0.956511 0
M  V30 5115 H 500.266 4.92225 -2.93917 0
M  V30 5116 H 498.663 4.72118 -3.70438 0
M  V30 5117 H 499.733 3.31765 -3.53638 0
M  V30 5118 N 501.076 1.04316 1.18135 0
M  V30 5119 C 502.324 0.746542 1.87806 0
M  V30 5120 C 502.645 -0.728082 1.80898 0
M  V30 5121 O 501.915 -1.52554 1.22899 0
M  V30 5122 H 500.495 0.273157 0.695265 0
M  V30 5123 H 503.157 1.32044 1.43354 0
M  V30 5124 H 502.253 1.05362 2.93778 0
M  V30 5125 N 502.554 -1.34406 0.822964 0
M  V30 5126 C 503.782 -2.02508 0.424039 0
M  V30 5127 C 504.197 -1.61975 -0.970022 0
M  V30 5128 O 503.554 -0.825228 -1.62777 0
M  V30 5129 C 503.605 -3.57789 0.516657 0
M  V30 5130 O 503.326 -3.96853 1.85577 0
M  V30 5131 C 504.827 -4.43157 0.112637 0
M  V30 5132 H 502.047 -0.649063 0.170173 0
M  V30 5133 H 504.591 -1.7168 1.11113 0
M  V30 5134 H 502.746 -3.87207 -0.122353 0
M  V30 5135 H 503.16 -4.91538 1.83005 0
M  V30 5136 H 504.634 -5.51527 0.228526 0
M  V30 5137 H 505.111 -4.28939 -0.943837 0
M  V30 5138 H 505.717 -4.19067 0.725449 0
M  V30 5139 N 504.032 -0.577932 -1.46621 0
M  V30 5140 C 504.962 0.145917 -2.33044 0
M  V30 5141 C 505.943 0.888412 -1.45056 0
M  V30 5142 O 507.128 0.864812 -1.73881 0
M  V30 5143 C 504.258 1.16322 -3.27241 0
M  V30 5144 C 503.212 0.535868 -4.24632 0
M  V30 5145 C 502.538 1.65929 -5.08303 0
M  V30 5146 C 503.838 -0.523861 -5.19666 0
M  V30 5147 H 505.532 -0.575636 -2.93814 0
M  V30 5148 H 503.078 -0.278272 -1.41286 0
M  V30 5149 H 505.031 1.67793 -3.86553 0
M  V30 5150 H 503.755 1.91498 -2.64567 0
M  V30 5151 H 502.414 0.0422759 -3.66576 0
M  V30 5152 H 502.062 2.40061 -4.42018 0
M  V30 5153 H 501.762 1.2452 -5.74255 0
M  V30 5154 H 503.286 2.17686 -5.70478 0
M  V30 5155 H 504.7 -0.0944059 -5.73222 0
M  V30 5156 H 503.097 -0.858 -5.93935 0
M  V30 5157 H 504.167 -1.41197 -4.63887 0
M  V30 5158 N 505.51 1.54411 -0.315457 0
M  V30 5159 C 506.443 2.20265 0.596522 0
M  V30 5160 C 507.421 1.17693 1.12192 0
M  V30 5161 O 508.605 1.46397 1.18744 0
M  V30 5162 C 505.732 2.85794 1.81767 0
M  V30 5163 C 504.778 4.02017 1.42424 0
M  V30 5164 S 505.611 5.33452 0.467836 0
M  V30 5165 C 506.767 6.02471 1.69645 0
M  V30 5166 H 507 2.97277 0.0370896 0
M  V30 5167 H 504.533 1.54079 -0.0995562 0
M  V30 5168 H 506.491 3.24172 2.51839 0
M  V30 5169 H 505.152 2.08601 2.34828 0
M  V30 5170 H 504.345 4.46701 2.33396 0
M  V30 5171 H 503.947 3.65271 0.803311 0
M  V30 5172 H 506.239 6.24157 2.63504 0
M  V30 5173 H 507.182 6.96215 1.29192 0
M  V30 5174 H 507.59 5.32284 1.87974 0
M  V30 5175 N 506.988 0.0434614 1.5754 0
M  V30 5176 C 508.404 -0.313039 1.565 0
M  V30 5177 C 508.604 -1.71954 1.05043 0
M  V30 5178 O 507.66 -2.425 0.703564 0
M  V30 5179 C 508.973 -0.148544 3.00333 0
M  V30 5180 C 510.521 -0.220231 3.12224 0
M  V30 5181 C 510.996 -0.0843565 4.57922 0
M  V30 5182 N 512.487 -0.140881 4.62986 0
M  V30 5183 C 513.222 -0.0597443 5.73369 0
M  V30 5184 N 512.718 0.0733004 6.92761 0
M  V30 5185 N 514.511 -0.11477 5.61983 0
M  V30 5186 H 506.662 0.96303 1.89313 0
M  V30 5187 H 508.925 0.373164 0.871466 0
M  V30 5188 H 508.631 0.820894 3.41986 0
M  V30 5189 H 508.505 -0.912798 3.65989 0
M  V30 5190 H 510.892 -1.18014 2.70475 0
M  V30 5191 H 510.973 0.574646 2.49262 0
M  V30 5192 H 510.617 0.872192 5.00355 0
M  V30 5193 H 510.547 -0.898281 5.18882 0
M  V30 5194 H 513.038 -0.243273 3.77116 0
M  V30 5195 H 513.351 0.128128 7.72694 0
M  V30 5196 H 511.696 0.10828 6.94916 0
M  V30 5197 H 514.887 -0.217212 4.67596 0
M  V30 5198 H 515.06 -0.0480779 6.47982 0
M  V30 5199 N 508.466 -1.55915 -0.229846 0
M  V30 5200 C 509.429 -1.90914 -1.26824 0
M  V30 5201 C 510.429 -0.786999 -1.40225 0
M  V30 5202 O 511.619 -1.05484 -1.38632 0
M  V30 5203 C 508.751 -2.15264 -2.64337 0
M  V30 5204 H 509.944 -2.8378 -0.969998 0
M  V30 5205 H 507.497 -1.49069 -0.4699 0
M  V30 5206 H 508.232 -1.24923 -2.99274 0
M  V30 5207 H 508.017 -2.97005 -2.55989 0
M  V30 5208 H 509.507 -2.43467 -3.39284 0
M  V30 5209 N 509.944 0.496216 -1.49584 0
M  V30 5210 C 511.19 1.24918 -1.60521 0
M  V30 5211 C 511.545 1.90197 -0.290352 0
M  V30 5212 O 510.838 1.77967 0.709813 0
M  V30 5213 C 511.032 2.3359 -2.705 0
M  V30 5214 C 510.861 1.78969 -4.12553 0
M  V30 5215 C 509.631 1.60057 -4.79281 0
M  V30 5216 C 511.829 1.29883 -4.97629 0
M  V30 5217 N 509.811 1.00415 -6.05632 0
M  V30 5218 C 511.182 0.824057 -6.14499 0
M  V30 5219 C 513.237 1.18501 -4.83593 0
M  V30 5220 C 511.94 0.246721 -7.18877 0
M  V30 5221 C 513.966 0.621634 -5.88124 0
M  V30 5222 C 513.328 0.157116 -7.04225 0
M  V30 5223 H 509.427 0.446896 -0.641722 0
M  V30 5224 H 512.011 0.555456 -1.86609 0
M  V30 5225 H 510.182 3.00418 -2.46178 0
M  V30 5226 H 511.914 3.00628 -2.70933 0
M  V30 5227 H 508.669 1.84562 -4.36158 0
M  V30 5228 H 509.093 0.725074 -6.73106 0
M  V30 5229 H 513.735 1.53012 -3.94141 0
M  V30 5230 H 511.453 -0.110651 -8.08024 0
M  V30 5231 H 515.039 0.536279 -5.79323 0
M  V30 5232 H 513.919 -0.272009 -7.83728 0
M  V30 5233 N 511.423 1.38739 0.74761 0
M  V30 5234 C 512.386 1.36241 1.84312 0
M  V30 5235 C 513.386 0.261811 1.58654 0
M  V30 5236 O 514.576 0.519031 1.66288 0
M  V30 5237 C 511.708 1.12253 3.21888 0
M  V30 5238 H 512.901 2.33712 1.87933 0
M  V30 5239 H 510.454 1.2412 0.949946 0
M  V30 5240 H 511.189 0.154133 3.23934 0
M  V30 5241 H 510.974 1.91943 3.41907 0
M  V30 5242 H 512.464 1.13215 4.0196 0
M  V30 5243 N 512.901 -0.976442 1.23707 0
M  V30 5244 C 514.149 -1.71487 1.06942 0
M  V30 5245 C 514.47 -1.9098 -0.393897 0
M  V30 5246 O 513.74 -1.48128 -1.28198 0
M  V30 5247 H 512.32 -0.635425 0.392739 0
M  V30 5248 H 514.982 -1.17515 1.55487 0
M  V30 5249 H 514.078 -2.70286 1.56051 0
M  V30 5250 N 514.379 -1.04941 -1.1758 0
M  V30 5251 C 515.604 -0.778253 -1.92245 0
M  V30 5252 C 516.029 0.659707 -1.76152 0
M  V30 5253 O 515.387 1.45803 -1.07755 0
M  V30 5254 C 515.435 -1.16051 -3.41416 0
M  V30 5255 O 514.539 -0.291153 -4.11371 0
M  V30 5256 H 513.88 -0.285619 -0.599431 0
M  V30 5257 H 516.41 -1.40159 -1.49052 0
M  V30 5258 H 516.42 -1.12619 -3.92149 0
M  V30 5259 H 515.095 -2.208 -3.52449 0
M  V30 5260 H 513.672 -0.385851 -3.70898 0
M  V30 5261 N 515.857 1.33968 -0.830081 0
M  V30 5262 C 517.268 1.80439 -0.479455 0
M  V30 5263 C 517.619 1.68756 1.00079 0
M  V30 5264 O 516.744 1.23171 1.77927 0
M  V30 5265 C 517.339 3.27611 -0.863505 0
M  V30 5266 C 515.898 3.72133 -0.565145 0
M  V30 5267 C 515.045 2.55549 -1.07657 0
M  V30 5268 H 517.996 1.21614 -1.0196 0
M  V30 5269 H 518.017 3.8012 -0.170083 0
M  V30 5270 H 517.529 3.36082 -1.94089 0
M  V30 5271 H 515.63 3.69196 0.502536 0
M  V30 5272 H 515.743 4.65963 -1.11422 0
M  V30 5273 H 514.107 2.49788 -0.497807 0
M  V30 5274 H 514.89 2.66786 -2.16055 0
M  V30 5275 N 517.335 0.585699 1.46312 0
M  V30 5276 C 518.282 -0.145835 2.30339 0
M  V30 5277 C 519.252 -0.881215 1.40797 0
M  V30 5278 O 520.437 -0.871293 1.69744 0
M  V30 5279 C 517.577 -1.15161 3.25318 0
M  V30 5280 C 516.69 -0.419367 4.2996 0
M  V30 5281 C 515.825 -1.41293 5.12064 0
M  V30 5282 C 514.864 -0.667261 6.08452 0
M  V30 5283 N 514.001 -1.60903 6.83414 0
M  V30 5284 H 518.841 0.576755 2.92365 0
M  V30 5285 H 516.378 0.296237 1.44086 0
M  V30 5286 H 518.336 -1.74763 3.78832 0
M  V30 5287 H 516.966 -1.84188 2.65094 0
M  V30 5288 H 516.018 0.291751 3.7928 0
M  V30 5289 H 517.33 0.163433 4.98532 0
M  V30 5290 H 516.484 -2.08167 5.6987 0
M  V30 5291 H 515.223 -2.02966 4.43459 0
M  V30 5292 H 514.228 0.0152356 5.49798 0
M  V30 5293 H 515.453 -0.0558817 6.79077 0
M  V30 5294 H 513.399 -2.21381 6.17516 0
M  V30 5295 H 513.316 -1.07911 7.48259 0
M  V30 5296 H 514.584 -2.26802 7.45775 0
M  V30 5297 N 518.813 -1.54241 0.323641 0
M  V30 5298 C 520.061 -2.00174 -0.278359 0
M  V30 5299 C 520.382 -1.2134 -1.52648 0
M  V30 5300 O 519.652 -0.315244 -1.93347 0
M  V30 5301 H 518.232 -0.739463 -0.105845 0
M  V30 5302 H 520.894 -1.89864 0.440204 0
M  V30 5303 H 519.99 -3.07486 -0.5347 0
M  V30 5304 N 520.291 -0.0518155 -1.57515 0
M  V30 5305 C 521.519 0.631395 -1.9703 0
M  V30 5306 C 521.934 1.64341 -0.92938 0
M  V30 5307 O 521.291 1.82296 0.0863266 0
M  V30 5308 C 521.342 1.31774 -3.36627 0
M  V30 5309 O 521.063 0.346247 -4.3673 0
M  V30 5310 C 522.564 2.09065 -3.90905 0
M  V30 5311 H 519.784 0.172576 -0.648428 0
M  V30 5312 H 522.328 -0.118306 -2.04158 0
M  V30 5313 H 520.483 2.01867 -3.30649 0
M  V30 5314 H 520.897 0.836226 -5.17791 0
M  V30 5315 H 522.371 2.52508 -4.9086 0
M  V30 5316 H 522.848 2.93908 -3.26366 0
M  V30 5317 H 523.454 1.43882 -4.00223 0
M  V30 5318 N 521.769 1.56035 0.221574 0
M  V30 5319 C 523.018 1.78245 0.944016 0
M  V30 5320 C 523.331 0.620371 1.85501 0
M  V30 5321 O 524.537 0.726103 2.6161 0
M  V30 5322 C 522.993 3.15659 1.7288 0
M  V30 5323 C 522.601 4.39591 0.863942 0
M  V30 5324 C 524.345 3.47195 2.44246 0
M  V30 5325 C 522.252 5.6803 1.64607 0
M  V30 5326 H 521.182 0.664547 0.356222 0
M  V30 5327 H 523.833 1.8243 0.197904 0
M  V30 5328 H 522.215 3.0565 2.51781 0
M  V30 5329 H 523.389 4.60655 0.115464 0
M  V30 5330 H 521.704 4.15572 0.262407 0
M  V30 5331 H 524.301 4.40381 3.03263 0
M  V30 5332 H 524.644 2.69693 3.1713 0
M  V30 5333 H 525.177 3.58533 1.72334 0
M  V30 5334 H 521.916 6.48425 0.960507 0
M  V30 5335 H 521.436 5.51027 2.36917 0
M  V30 5336 H 523.115 6.08203 2.20675 0
M  V30 5337 N 523.247 -0.488276 1.49845 0
M  V30 5338 C 524.179 -1.60539 1.63584 0
M  V30 5339 C 525.192 -1.5434 0.517972 0
M  V30 5340 O 526.381 -1.60041 0.790516 0
M  V30 5341 C 523.481 -2.99374 1.58835 0
M  V30 5342 C 522.654 -3.30624 2.86368 0
M  V30 5343 C 521.713 -4.4893 2.74496 0
M  V30 5344 O 520.739 -4.50085 3.48443 0
M  V30 5345 N 521.941 -5.49591 1.86894 0
M  V30 5346 H 524.706 -1.49176 2.59936 0
M  V30 5347 H 522.267 -0.67639 1.47094 0
M  V30 5348 H 524.259 -3.76459 1.48529 0
M  V30 5349 H 522.829 -3.04595 0.702892 0
M  V30 5350 H 522.049 -2.42314 3.1093 0
M  V30 5351 H 523.337 -3.48305 3.70892 0
M  V30 5352 H 522.735 -5.51467 1.26097 0
M  V30 5353 H 521.292 -6.25728 1.82503 0
M  V30 5354 N 524.725 -1.39134 -0.740242 0
M  V30 5355 C 525.971 -1.36273 -1.50192 0
M  V30 5356 C 526.304 0.0430136 -1.94152 0
M  V30 5357 O 525.579 1.00691 -1.66408 0
M  V30 5358 C 525.862 -2.33041 -2.74525 0
M  V30 5359 C 525.715 -3.82535 -2.36617 0
M  V30 5360 C 527.034 -2.27723 -3.76604 0
M  V30 5361 H 524.153 -0.496323 -0.544823 0
M  V30 5362 H 526.795 -1.70085 -0.846815 0
M  V30 5363 H 524.945 -2.04337 -3.30422 0
M  V30 5364 H 526.617 -4.21967 -1.86391 0
M  V30 5365 H 524.86 -3.99565 -1.68909 0
M  V30 5366 H 525.531 -4.45723 -3.2563 0
M  V30 5367 H 528.007 -2.53091 -3.30279 0
M  V30 5368 H 526.883 -2.97519 -4.61274 0
M  V30 5369 H 527.144 -1.28049 -4.2315 0
M  V30 5370 N 526.204 0.969867 -1.24223 0
M  V30 5371 C 527.453 1.70687 -1.07466 0
M  V30 5372 C 527.766 1.91736 0.386861 0
M  V30 5373 O 528.972 2.62986 0.674581 0
M  V30 5374 C 527.428 3.07217 -1.87472 0
M  V30 5375 C 527.036 2.94018 -3.3802 0
M  V30 5376 C 528.78 3.84804 -1.79237 0
M  V30 5377 C 526.687 4.25844 -4.10379 0
M  V30 5378 H 525.617 0.640067 -0.398536 0
M  V30 5379 H 528.268 1.08092 -1.48285 0
M  V30 5380 H 526.65 3.70628 -1.39466 0
M  V30 5381 H 527.824 2.39632 -3.9359 0
M  V30 5382 H 526.139 2.29898 -3.47183 0
M  V30 5383 H 528.736 4.82417 -2.30603 0
M  V30 5384 H 529.079 4.09356 -0.757197 0
M  V30 5385 H 529.612 3.28115 -2.24912 0
M  V30 5386 H 526.351 4.06486 -5.14246 0
M  V30 5387 H 525.871 4.80054 -3.59594 0
M  V30 5388 H 527.55 4.94475 -4.17257 0
M  V30 5389 N 527.682 1.05563 1.17022 0
M  V30 5390 C 528.91 0.78845 1.91288 0
M  V30 5391 C 529.325 -0.656318 1.77025 0
M  V30 5392 O 528.682 -1.44869 1.10992 0
M  V30 5393 C 528.733 1.16444 3.42232 0
M  V30 5394 O 528.454 2.5525 3.5606 0
M  V30 5395 C 529.955 0.923937 4.33565 0
M  V30 5396 H 527.175 0.286389 0.606813 0
M  V30 5397 H 529.719 1.4073 1.48375 0
M  V30 5398 H 527.874 0.590266 3.82877 0
M  V30 5399 H 528.288 2.70097 4.49609 0
M  V30 5400 H 529.762 1.23672 5.37968 0
M  V30 5401 H 530.239 -0.140688 4.38975 0
M  V30 5402 H 530.845 1.48214 3.98639 0
M  V30 5403 N 529.16 -1.33526 0.837174 0
M  V30 5404 C 530.092 -2.28077 0.226579 0
M  V30 5405 C 531.105 -1.51666 -0.591717 0
M  V30 5406 O 532.294 -1.73511 -0.419064 0
M  V30 5407 C 529.394 -3.31597 -0.69978 0
M  V30 5408 C 528.567 -4.37329 0.0788067 0
M  V30 5409 C 527.626 -5.20526 -0.770637 0
M  V30 5410 O 526.652 -5.68811 -0.210453 0
M  V30 5411 N 527.854 -5.41639 -2.08825 0
M  V30 5412 H 530.619 -2.81115 1.03897 0
M  V30 5413 H 528.18 -1.46201 0.695476 0
M  V30 5414 H 530.172 -3.84158 -1.27298 0
M  V30 5415 H 528.742 -2.78848 -1.41288 0
M  V30 5416 H 527.962 -3.8529 0.833381 0
M  V30 5417 H 529.25 -5.05079 0.614238 0
M  V30 5418 H 528.648 -5.04108 -2.56693 0
M  V30 5419 H 527.205 -5.97263 -2.60998 0
M  V30 5420 N 530.638 -0.59345 -1.46 0
M  V30 5421 C 531.886 -0.082988 -2.0193 0
M  V30 5422 C 532.207 1.28569 -1.46612 0
M  V30 5423 O 531.477 1.84629 -0.654909 0
M  V30 5424 H 530.057 -0.0276882 -0.746487 0
M  V30 5425 H 532.719 -0.771657 -1.78973 0
M  V30 5426 H 531.815 -0.022079 -3.12092 0
M  V30 5427 N 532.116 1.54067 -0.331816 0
M  V30 5428 C 533.344 2.05131 0.269996 0
M  V30 5429 C 533.759 1.20749 1.45138 0
M  V30 5430 O 533.116 0.240069 1.80914 0
M  V30 5431 C 533.167 3.54728 0.696456 0
M  V30 5432 O 532.888 4.35906 -0.43794 0
M  V30 5433 C 534.389 4.21916 1.36021 0
M  V30 5434 H 531.609 0.668807 0.0542042 0
M  V30 5435 H 534.153 1.98777 -0.4804 0
M  V30 5436 H 532.308 3.61342 1.39681 0
M  V30 5437 H 532.722 5.24404 -0.100334 0
M  V30 5438 H 534.196 5.28015 1.60947 0
M  V30 5439 H 534.673 3.73538 2.31011 0
M  V30 5440 H 535.279 4.19463 0.702212 0
M  V30 5441 N 533.594 0.0601682 1.57485 0
M  V30 5442 C 534.819 -0.624416 1.97777 0
M  V30 5443 C 535.244 -1.63051 0.937867 0
M  V30 5444 O 534.602 -1.81036 -0.0978845 0
M  V30 5445 C 534.65 -1.27979 3.37126 0
M  V30 5446 O 533.754 -2.39556 3.35688 0
M  V30 5447 H 533.095 -0.161581 0.64404 0
M  V30 5448 H 535.625 0.131237 2.04179 0
M  V30 5449 H 535.635 -1.62937 3.74053 0
M  V30 5450 H 534.31 -0.542501 4.12347 0
M  V30 5451 H 532.887 -2.06478 3.10517 0
M  V30 5452 N 535.072 -1.5615 -0.213296 0
M  V30 5453 C 536.002 -1.96109 -1.26742 0
M  V30 5454 C 536.983 -0.830448 -1.48451 0
M  V30 5455 O 538.168 -1.09339 -1.60495 0
M  V30 5456 C 535.298 -2.28492 -2.61551 0
M  V30 5457 C 534.252 -3.44124 -2.54485 0
M  V30 5458 C 533.578 -3.62134 -3.93399 0
M  V30 5459 C 534.878 -4.78855 -2.08556 0
M  V30 5460 H 536.572 -2.84412 -0.935434 0
M  V30 5461 H 534.118 -1.36836 -0.44854 0
M  V30 5462 H 536.071 -2.55039 -3.3546 0
M  V30 5463 H 534.795 -1.37052 -2.96453 0
M  V30 5464 H 533.454 -3.17639 -1.83033 0
M  V30 5465 H 533.102 -2.68055 -4.25623 0
M  V30 5466 H 532.802 -4.39913 -3.89551 0
M  V30 5467 H 534.326 -3.91038 -4.68958 0
M  V30 5468 H 535.74 -5.04552 -2.72213 0
M  V30 5469 H 534.137 -5.59975 -2.1575 0
M  V30 5470 H 535.207 -4.73657 -1.03811 0
M  V30 5471 N 536.55 0.480323 -1.50102 0
M  V30 5472 C 537.497 1.57946 -1.6829 0
M  V30 5473 C 538.467 1.57611 -0.524223 0
M  V30 5474 O 539.652 1.75282 -0.753709 0
M  V30 5475 C 536.792 2.95978 -1.77457 0
M  V30 5476 C 535.905 3.06173 -3.04766 0
M  V30 5477 C 535.04 4.35063 -3.04784 0
M  V30 5478 C 534.079 4.38966 -4.26586 0
M  V30 5479 N 533.216 5.59314 -4.24396 0
M  V30 5480 H 538.056 1.41743 -2.62131 0
M  V30 5481 H 535.593 0.689304 -1.2995 0
M  V30 5482 H 537.551 3.76011 -1.80752 0
M  V30 5483 H 536.181 3.10837 -0.870637 0
M  V30 5484 H 535.233 2.19071 -3.10986 0
M  V30 5485 H 536.545 3.04916 -3.9475 0
M  V30 5486 H 535.699 5.23436 -3.06757 0
M  V30 5487 H 534.438 4.38915 -2.12614 0
M  V30 5488 H 533.443 3.48992 -4.24835 0
M  V30 5489 H 534.668 4.36813 -5.19972 0
M  V30 5490 H 532.614 5.63969 -3.35074 0
M  V30 5491 H 532.531 5.5976 -5.08138 0
M  V30 5492 H 533.799 6.49837 -4.30502 0
M  V30 5493 N 538.028 1.39524 0.732853 0
M  V30 5494 C 538.976 1.38563 1.86824 0
M  V30 5495 C 539.97 0.268467 1.67259 0
M  V30 5496 O 541.176 0.438613 1.74574 0
M  V30 5497 H 537.551 0.432737 0.615014 0
M  V30 5498 H 539.522 2.34328 1.84751 0
M  V30 5499 C 538.271 1.2481 3.24527 0
M  V30 5500 H 537.594 2.10044 3.40179 0
M  V30 5501 H 539.034 1.28194 4.04156 0
M  V30 5502 C 537.493 -0.0432825 3.36872 0
M  V30 5503 O 538.023 -1.01268 3.88726 0
M  V30 5504 N 536.229 -0.107055 2.90403 0
M  V30 5505 H 535.776 0.682512 2.48394 0
M  V30 5506 H 535.734 -0.970618 2.99042 0
M  V30 5507 N 539.506 -0.963266 1.24736 0
M  V30 5508 C 540.469 -2.04013 1.04457 0
M  V30 5509 C 541.469 -1.608 0.000335555 0
M  V30 5510 O 542.659 -1.72515 0.241719 0
M  V30 5511 C 539.791 -3.35858 0.584162 0
M  V30 5512 H 540.984 -2.23436 2.00041 0
M  V30 5513 H 538.537 -1.13914 1.07021 0
M  V30 5514 H 539.272 -3.22128 -0.374673 0
M  V30 5515 H 539.057 -3.68568 1.3379 0
M  V30 5516 H 540.547 -4.1502 0.463451 0
M  V30 5517 N 540.985 -1.06182 -1.16461 0
M  V30 5518 C 542.233 -0.776326 -1.86595 0
M  V30 5519 C 542.554 0.69921 -1.82033 0
M  V30 5520 O 541.824 1.50579 -1.2531 0
M  V30 5521 H 540.404 -0.284184 -0.690832 0
M  V30 5522 H 543.066 -1.34308 -1.41235 0
M  V30 5523 H 542.162 -1.10022 -2.92064 0
M  V30 5524 N 542.463 1.3308 -0.844243 0
M  V30 5525 C 543.411 2.31028 -0.269954 0
M  V30 5526 C 544.405 1.58381 0.600997 0
M  V30 5527 O 545.611 1.73203 0.48996 0
M  V30 5528 H 541.986 0.748866 -0.0685782 0
M  V30 5529 H 543.957 2.76967 -1.11049 0
M  V30 5530 C 542.706 3.43549 0.535676 0
M  V30 5531 H 542.029 3.99604 -0.125202 0
M  V30 5532 H 543.469 4.14267 0.903262 0
M  V30 5533 C 541.928 2.8988 1.71672 0
M  V30 5534 O 542.458 2.86511 2.81557 0
M  V30 5535 N 540.664 2.46416 1.54037 0
M  V30 5536 H 540.211 2.49356 0.64649 0
M  V30 5537 H 540.169 2.1086 2.33207 0
M  V30 5538 N 543.941 0.601185 1.45683 0
M  V30 5539 C 545.181 0.0968037 2.04171 0
M  V30 5540 C 545.545 -1.2466 1.46027 0
M  V30 5541 O 546.746 -1.84132 1.95829 0
M  V30 5542 C 545.017 0.051384 3.57363 0
M  V30 5543 S 546.576 -0.392737 4.37039 0
M  V30 5544 H 543.394 0.0464504 0.709481 0
M  V30 5545 H 545.996 0.797846 1.78479 0
M  V30 5546 H 544.7 1.03274 3.97193 0
M  V30 5547 H 544.231 -0.671853 3.87621 0
M  V30 5548 H 546.246 -1.64364 4.68187 0
M  V30 5549 N 545.419 -1.53889 0.339982 0
M  V30 5550 C 546.349 -2.27843 -0.510856 0
M  V30 5551 C 547.33 -1.29267 -1.10563 0
M  V30 5552 O 548.515 -1.58104 -1.12768 0
M  V30 5553 C 545.645 -3.04857 -1.66372 0
M  V30 5554 C 544.599 -4.10907 -1.19746 0
M  V30 5555 C 543.925 -4.75855 -2.43857 0
M  V30 5556 C 545.225 -5.21435 -0.300501 0
M  V30 5557 H 546.919 -2.99212 0.106067 0
M  V30 5558 H 544.465 -1.43904 0.0524533 0
M  V30 5559 H 546.418 -3.5533 -2.26537 0
M  V30 5560 H 545.142 -2.31133 -2.30749 0
M  V30 5561 H 543.801 -3.61342 -0.618654 0
M  V30 5562 H 543.449 -3.9873 -3.06633 0
M  V30 5563 H 543.149 -5.47502 -2.13343 0
M  V30 5564 H 544.673 -5.2911 -3.04754 0
M  V30 5565 H 546.087 -5.67565 -0.80889 0
M  V30 5566 H 544.484 -6.00036 -0.0874076 0
M  V30 5567 H 545.554 -4.80328 0.664321 0
M  V30 5568 N 546.897 -0.0685191 -1.57451 0
M  V30 5569 C 548.122 0.613919 -1.98106 0
M  V30 5570 C 548.547 1.62551 -0.946501 0
M  V30 5571 O 547.905 1.81085 0.0882824 0
M  V30 5572 C 547.953 1.26189 -3.378 0
M  V30 5573 O 547.057 2.37773 -3.36954 0
M  V30 5574 H 546.398 0.158163 -0.644888 0
M  V30 5575 H 548.928 -0.142063 -2.04106 0
M  V30 5576 H 548.938 1.60951 -3.74912 0
M  V30 5577 H 547.613 0.520625 -4.12629 0
M  V30 5578 H 546.19 2.04829 -3.11608 0
M  V30 5579 N 548.375 1.56261 0.205012 0
M  V30 5580 C 549.786 1.70056 0.770574 0
M  V30 5581 C 550.137 0.673398 1.84282 0
M  V30 5582 O 549.262 -0.172196 2.15714 0
M  V30 5583 C 549.857 3.08316 1.40451 0
M  V30 5584 C 548.416 3.2391 1.91727 0
M  V30 5585 C 547.563 2.66001 0.783516 0
M  V30 5586 H 550.514 1.58688 -0.019911 0
M  V30 5587 H 550.535 3.05094 2.27371 0
M  V30 5588 H 550.047 3.83053 0.623882 0
M  V30 5589 H 548.148 2.54072 2.7254 0
M  V30 5590 H 548.261 4.3131 2.08588 0
M  V30 5591 H 546.625 2.24915 1.19521 0
M  V30 5592 H 547.408 3.43297 0.0152883 0
M  V30 5593 N 549.853 -0.472356 1.50355 0
M  V30 5594 C 550.816 -1.5529 1.68576 0
M  V30 5595 C 551.816 -1.50863 0.556511 0
M  V30 5596 O 553.006 -1.53505 0.823516 0
M  V30 5597 C 550.138 -2.94921 1.70981 0
M  V30 5598 H 551.331 -1.40451 2.64978 0
M  V30 5599 H 548.884 -0.698645 1.39816 0
M  V30 5600 H 549.619 -3.15204 0.762675 0
M  V30 5601 H 549.404 -2.99541 2.53017 0
M  V30 5602 H 550.894 -3.73372 1.87037 0
M  V30 5603 N 551.331 -1.39911 -0.725443 0
M  V30 5604 C 552.577 -1.37858 -1.48738 0
M  V30 5605 C 552.91 0.0224187 -1.94187 0
M  V30 5606 O 552.185 0.989204 -1.67466 0
M  V30 5607 C 552.468 -2.3594 -2.72038 0
M  V30 5608 C 552.321 -3.85023 -2.32546 0
M  V30 5609 C 553.64 -2.31704 -3.74167 0
M  V30 5610 H 550.759 -0.502074 -0.539528 0
M  V30 5611 H 553.401 -1.70974 -0.828728 0
M  V30 5612 H 551.551 -2.0783 -3.28236 0
M  V30 5613 H 553.223 -4.2392 -1.81905 0
M  V30 5614 H 551.466 -4.01334 -1.64661 0
M  V30 5615 H 552.137 -4.49152 -3.20884 0
M  V30 5616 H 554.613 -2.5658 -3.27576 0
M  V30 5617 H 553.489 -3.02395 -4.58092 0
M  V30 5618 H 553.75 -1.3253 -4.21768 0
M  V30 5619 N 552.809 0.956637 -1.25245 0
M  V30 5620 C 554.058 1.69537 -1.0927 0
M  V30 5621 C 554.371 1.92136 0.366503 0
M  V30 5622 O 555.577 2.63687 0.64665 0
M  V30 5623 C 554.033 3.05211 -1.9072 0
M  V30 5624 C 553.641 2.90416 -3.41119 0
M  V30 5625 C 555.385 3.82882 -1.83308 0
M  V30 5626 C 553.292 4.21468 -4.14872 0
M  V30 5627 H 552.222 0.635804 -0.405302 0
M  V30 5628 H 554.873 1.06513 -1.49423 0
M  V30 5629 H 553.255 3.69128 -1.43389 0
M  V30 5630 H 554.429 2.35444 -3.9611 0
M  V30 5631 H 552.744 2.26203 -3.49602 0
M  V30 5632 H 555.341 4.79944 -2.35706 0
M  V30 5633 H 555.684 4.0853 -0.800572 0
M  V30 5634 H 556.217 3.25711 -2.28379 0
M  V30 5635 H 552.956 4.01009 -5.18529 0
M  V30 5636 H 552.476 4.76213 -3.64665 0
M  V30 5637 H 554.155 4.90022 -4.22478 0
M  V30 5638 N 554.287 1.06798 1.15896 0
M  V30 5639 C 555.533 0.788934 1.86825 0
M  V30 5640 C 555.866 -0.683084 1.8179 0
M  V30 5641 O 555.141 -1.50086 1.23711 0
M  V30 5642 C 555.424 1.29065 3.36176 0
M  V30 5643 C 555.277 2.8268 3.49874 0
M  V30 5644 C 556.596 0.902655 4.30744 0
M  V30 5645 H 553.715 0.288066 0.678371 0
M  V30 5646 H 556.357 1.32479 1.36195 0
M  V30 5647 H 554.507 0.834806 3.79425 0
M  V30 5648 H 556.179 3.36511 3.15528 0
M  V30 5649 H 554.422 3.21157 2.91617 0
M  V30 5650 H 555.093 3.12852 4.54783 0
M  V30 5651 H 557.569 1.29535 3.95424 0
M  V30 5652 H 556.445 1.28111 5.3374 0
M  V30 5653 H 556.706 -0.191951 4.41683 0
M  V30 5654 N 555.766 -1.3263 0.851289 0
M  V30 5655 C 557.014 -1.96978 0.452128 0
M  V30 5656 C 557.335 -1.67715 -0.99482 0
M  V30 5657 O 556.605 -0.98259 -1.69476 0
M  V30 5658 H 555.185 -0.72873 0.164202 0
M  V30 5659 H 557.847 -1.61774 1.08698 0
M  V30 5660 H 556.943 -3.06387 0.594407 0
M  V30 5661 N 557.244 -0.608902 -1.45362 0
M  V30 5662 C 558.174 0.0964526 -2.33301 0
M  V30 5663 C 559.155 0.857444 -1.46908 0
M  V30 5664 O 560.34 0.827735 -1.75676 0
M  V30 5665 C 557.47 1.09354 -3.29635 0
M  V30 5666 C 556.424 0.445676 -4.25673 0
M  V30 5667 C 555.75 1.5511 -5.11708 0
M  V30 5668 C 557.05 -0.633972 -5.18438 0
M  V30 5669 H 558.744 -0.637829 -2.92527 0
M  V30 5670 H 556.29 -0.308178 -1.40664 0
M  V30 5671 H 558.243 1.59556 -3.90025 0
M  V30 5672 H 556.967 1.85843 -2.6857 0
M  V30 5673 H 555.626 -0.0354897 -3.66583 0
M  V30 5674 H 555.274 2.30631 -4.4701 0
M  V30 5675 H 554.974 1.12311 -5.76767 0
M  V30 5676 H 556.498 2.05537 -5.74967 0
M  V30 5677 H 557.912 -0.215974 -5.72893 0
M  V30 5678 H 556.309 -0.983789 -5.91981 0
M  V30 5679 H 557.379 -1.51005 -4.60788 0
M  V30 5680 N 558.722 1.53707 -0.348139 0
M  V30 5681 C 559.652 2.28111 0.498766 0
M  V30 5682 C 560.633 1.29851 1.09876 0
M  V30 5683 O 561.818 1.587 1.11928 0
M  V30 5684 C 558.948 3.05735 1.64753 0
M  V30 5685 C 557.902 4.11537 1.17565 0
M  V30 5686 C 557.228 4.77142 2.4133 0
M  V30 5687 C 558.528 5.21587 0.272844 0
M  V30 5688 H 560.222 2.99152 -0.121934 0
M  V30 5689 H 557.768 1.43875 -0.0600842 0
M  V30 5690 H 559.721 3.56526 2.24649 0
M  V30 5691 H 558.445 2.32354 2.2952 0
M  V30 5692 H 557.104 3.61665 0.599483 0
M  V30 5693 H 556.752 4.0035 3.04514 0
M  V30 5694 H 556.452 5.48626 2.10436 0
M  V30 5695 H 557.976 5.30719 3.01943 0
M  V30 5696 H 559.39 5.67986 0.778779 0
M  V30 5697 H 557.787 6.00074 0.0555849 0
M  V30 5698 H 558.857 4.79969 -0.689785 0
M  V30 5699 N 560.2 0.0768682 1.57412 0
M  V30 5700 C 561.147 -0.888577 2.13009 0
M  V30 5701 C 562.117 -1.29198 1.0439 0
M  V30 5702 O 563.302 -1.37694 1.3208 0
M  V30 5703 C 560.442 -2.14899 2.70023 0
M  V30 5704 C 559.555 -1.79777 3.92816 0
M  V30 5705 C 558.69 -3.00467 4.38056 0
M  V30 5706 C 557.729 -2.61385 5.53484 0
M  V30 5707 N 556.866 -3.74851 5.93659 0
M  V30 5708 H 561.706 -0.407593 2.95199 0
M  V30 5709 H 559.243 -0.189534 1.45874 0
M  V30 5710 H 561.201 -2.88688 3.0119 0
M  V30 5711 H 559.831 -2.60529 1.9059 0
M  V30 5712 H 558.883 -0.960301 3.68079 0
M  V30 5713 H 560.195 -1.47027 4.76639 0
M  V30 5714 H 559.349 -3.82529 4.7091 0
M  V30 5715 H 558.088 -3.36413 3.53097 0
M  V30 5716 H 557.093 -1.77746 5.20275 0
M  V30 5717 H 558.318 -2.26603 6.40178 0
M  V30 5718 H 556.264 -4.1055 5.11649 0
M  V30 5719 H 556.181 -3.45887 6.72234 0
M  V30 5720 H 557.449 -4.57477 6.31138 0
M  V30 5721 N 561.678 -1.56367 -0.196722 0
M  V30 5722 C 562.588 -1.97617 -1.2643 0
M  V30 5723 C 563.604 -0.883598 -1.49895 0
M  V30 5724 O 564.78 -1.18921 -1.62541 0
M  V30 5725 C 561.845 -2.30595 -2.58895 0
M  V30 5726 C 560.906 -3.53551 -2.43516 0
M  V30 5727 C 560.139 -3.84946 -3.69665 0
M  V30 5728 O 560.362 -3.17655 -4.73763 0
M  V30 5729 O 559.296 -4.78379 -3.65291 0
M  V30 5730 H 563.122 -2.88648 -0.944233 0
M  V30 5731 H 560.707 -1.43901 -0.401592 0
M  V30 5732 H 562.589 -2.52889 -3.37083 0
M  V30 5733 H 561.264 -1.42732 -2.90533 0
M  V30 5734 H 560.171 -3.36507 -1.63445 0
M  V30 5735 H 561.504 -4.41875 -2.16812 0
M  V30 5736 N 563.156 0.464375 -1.50603 0
M  V30 5737 C 564.119 1.54393 -1.69397 0
M  V30 5738 C 565.119 1.50566 -0.564504 0
M  V30 5739 O 566.309 1.53066 -0.831645 0
M  V30 5740 C 563.441 2.9401 -1.72543 0
M  V30 5741 H 564.634 1.39044 -2.65719 0
M  V30 5742 H 562.187 0.69122 -1.40185 0
M  V30 5743 H 562.922 3.14795 -0.77938 0
M  V30 5744 H 562.707 2.98195 -2.54602 0
M  V30 5745 H 564.197 3.72375 -1.89015 0
M  V30 5746 N 564.634 1.40294 0.718013 0
M  V30 5747 C 565.859 1.41941 1.5122 0
M  V30 5748 C 566.284 0.0202371 1.88089 0
M  V30 5749 O 565.642 -0.971078 1.53101 0
M  V30 5750 C 565.69 2.3141 2.76554 0
M  V30 5751 O 564.794 1.75567 3.73162 0
M  V30 5752 H 564.135 0.482644 0.456016 0
M  V30 5753 H 566.665 1.84494 0.884478 0
M  V30 5754 H 566.675 2.46513 3.25108 0
M  V30 5755 H 565.35 3.33085 2.49053 0
M  V30 5756 H 563.927 1.69798 3.31999 0
M  V30 5757 N 566.112 -0.949982 1.2575 0
M  V30 5758 C 567.059 -2.04738 1.06541 0
M  V30 5759 C 568.029 -1.66078 -0.0268818 0
M  V30 5760 O 569.214 -1.90348 0.131196 0
M  V30 5761 C 566.354 -3.38027 0.695127 0
M  V30 5762 C 565.467 -3.89776 1.86276 0
M  V30 5763 C 564.602 -5.11411 1.4364 0
M  V30 5764 C 563.641 -5.554 2.57287 0
M  V30 5765 N 562.778 -6.68244 2.15395 0
M  V30 5766 H 567.618 -2.20502 2.00457 0
M  V30 5767 H 565.155 -1.0805 0.998178 0
M  V30 5768 H 567.113 -4.14641 0.461375 0
M  V30 5769 H 565.743 -3.22135 -0.207046 0
M  V30 5770 H 564.795 -3.0964 2.20969 0
M  V30 5771 H 566.107 -4.18368 2.71606 0
M  V30 5772 H 565.261 -5.95457 1.16257 0
M  V30 5773 H 564 -4.84545 0.553879 0
M  V30 5774 H 563.005 -4.69916 2.85409 0
M  V30 5775 H 564.23 -5.84272 3.46125 0
M  V30 5776 H 562.176 -6.43078 1.29565 0
M  V30 5777 H 562.093 -6.96377 2.94272 0
M  V30 5778 H 563.361 -7.55687 1.91201 0
M  V30 5779 N 567.59 -1.07411 -1.15328 0
M  V30 5780 C 568.522 -0.652924 -2.19703 0
M  V30 5781 C 569.535 0.294869 -1.60107 0
M  V30 5782 O 570.724 0.0840932 -1.78302 0
M  V30 5783 C 567.824 0.061434 -3.38844 0
M  V30 5784 C 566.997 -0.902696 -4.27984 0
M  V30 5785 C 566.056 -0.225521 -5.25717 0
M  V30 5786 O 565.082 -0.86676 -5.62562 0
M  V30 5787 N 566.284 1.02858 -5.71315 0
M  V30 5788 H 569.049 -1.55081 -2.56457 0
M  V30 5789 H 566.61 -0.958883 -1.30449 0
M  V30 5790 H 568.602 0.525145 -4.01278 0
M  V30 5791 H 567.172 0.861269 -3.00501 0
M  V30 5792 H 566.392 -1.54551 -3.6264 0
M  V30 5793 H 567.68 -1.55636 -4.84412 0
M  V30 5794 H 567.078 1.56948 -5.43492 0
M  V30 5795 H 565.635 1.43596 -6.35786 0
M  V30 5796 N 569.068 1.32177 -0.85831 0
M  V30 5797 C 570.031 2.27086 -0.310588 0
M  V30 5798 C 571.031 1.51751 0.531806 0
M  V30 5799 O 572.221 1.70794 0.34279 0
M  V30 5800 C 569.353 3.36266 0.560179 0
M  V30 5801 H 570.546 2.77045 -1.1483 0
M  V30 5802 H 568.099 1.42911 -0.632942 0
M  V30 5803 H 568.834 2.9158 1.41956 0
M  V30 5804 H 568.619 3.92077 -0.0428473 0
M  V30 5805 H 570.109 4.06974 0.936056 0
M  V30 5806 N 570.547 0.616602 1.45037 0
M  V30 5807 C 571.824 0.0469086 1.95544 0
M  V30 5808 C 572.204 -1.42345 1.55888 0
M  V30 5809 O 571.552 -2.13055 0.825824 0
M  V30 5810 C 571.762 0.254489 3.48071 0
M  V30 5811 C 573.11 0.140025 4.24369 0
M  V30 5812 O 574.134 0.185084 3.55719 0
M  V30 5813 O 572.993 0.0327034 5.4649 0
M  V30 5814 H 570.087 -0.0306051 0.826433 0
M  V30 5815 H 572.633 0.687293 1.55159 0
M  V30 5816 H 571.405 1.27532 3.69934 0
M  V30 5817 H 571.028 -0.42073 3.95368 0
M  V30 5818 N 572.025 -1.5352 0.356285 0
M  V30 5819 C 573.271 -2.01414 -0.236653 0
M  V30 5820 C 573.604 -1.24339 -1.49176 0
M  V30 5821 O 572.879 -0.334496 -1.91602 0
M  V30 5822 C 573.162 -3.56059 -0.537982 0
M  V30 5823 C 573.015 -4.43835 0.730112 0
M  V30 5824 C 574.334 -4.19127 -1.34239 0
M  V30 5825 H 571.453 -0.732135 -0.0845386 0
M  V30 5826 H 574.095 -1.83854 0.479341 0
M  V30 5827 H 572.245 -3.71153 -1.14795 0
M  V30 5828 H 573.917 -4.40555 1.36782 0
M  V30 5829 H 572.16 -4.1218 1.3524 0
M  V30 5830 H 572.831 -5.49958 0.474358 0
M  V30 5831 H 575.307 -4.07809 -0.826498 0
M  V30 5832 H 574.183 -5.27378 -1.52198 0
M  V30 5833 H 574.444 -3.74581 -2.34822 0
M  V30 5834 N 573.503 -0.0852151 -1.57369 0
M  V30 5835 C 574.451 0.894856 -2.14698 0
M  V30 5836 C 575.445 1.29903 -1.08727 0
M  V30 5837 O 576.651 1.27471 -1.27088 0
M  V30 5838 H 573.026 0.306569 -0.686673 0
M  V30 5839 H 574.997 0.386542 -2.95886 0
M  V30 5840 C 573.746 2.14798 -2.73417 0
M  V30 5841 H 573.069 1.84585 -3.54638 0
M  V30 5842 H 574.509 2.81456 -3.1711 0
M  V30 5843 C 572.968 2.91546 -1.68828 0
M  V30 5844 O 573.498 3.85733 -1.12129 0
M  V30 5845 N 571.704 2.54901 -1.39549 0
M  V30 5846 H 571.251 1.7838 -1.85845 0
M  V30 5847 H 571.209 3.06553 -0.698054 0
M  V30 5848 N 574.981 1.5647 0.188427 0
M  V30 5849 C 575.911 1.98101 1.23606 0
M  V30 5850 C 576.892 0.853961 1.47111 0
M  V30 5851 O 578.077 1.11879 1.58735 0
M  V30 5852 C 575.207 2.32624 2.57882 0
M  V30 5853 C 574.161 3.48129 2.48978 0
M  V30 5854 C 573.487 3.68347 3.87588 0
M  V30 5855 C 574.787 4.82112 2.00911 0
M  V30 5856 H 576.481 2.85864 0.890068 0
M  V30 5857 H 574.027 1.37532 0.426714 0
M  V30 5858 H 575.98 2.60343 3.3136 0
M  V30 5859 H 574.704 1.41751 2.94235 0
M  V30 5860 H 573.363 3.20511 1.77956 0
M  V30 5861 H 573.011 2.74793 4.21305 0
M  V30 5862 H 572.711 4.46055 3.82503 0
M  V30 5863 H 574.235 3.98449 4.62678 0
M  V30 5864 H 575.649 5.08819 2.64151 0
M  V30 5865 H 574.046 5.63337 2.06814 0
M  V30 5866 H 575.116 4.75249 0.96262 0
M  V30 5867 N 576.459 -0.456382 1.50847 0
M  V30 5868 C 577.705 -1.20914 1.62811 0
M  V30 5869 C 578.038 -1.91301 0.334304 0
M  V30 5870 O 577.313 -1.82775 -0.665098 0
M  V30 5871 C 577.596 -2.24122 2.81853 0
M  V30 5872 C 577.449 -1.57944 4.21158 0
M  V30 5873 C 578.768 -3.25295 2.96431 0
M  V30 5874 H 575.887 -0.438233 0.592554 0
M  V30 5875 H 578.529 -0.50091 1.83278 0
M  V30 5876 H 576.679 -2.84524 2.64534 0
M  V30 5877 H 578.351 -1.01025 4.50102 0
M  V30 5878 H 576.594 -0.882185 4.24735 0
M  V30 5879 H 577.265 -2.33014 5.00408 0
M  V30 5880 H 579.741 -2.7493 3.12335 0
M  V30 5881 H 578.617 -3.94822 3.81322 0
M  V30 5882 H 578.878 -3.90286 2.07676 0
M  V30 5883 N 577.937 -1.40673 -0.710563 0
M  V30 5884 C 578.885 -1.41517 -1.84596 0
M  V30 5885 C 579.879 -0.295043 -1.66811 0
M  V30 5886 O 581.085 -0.466331 -1.73854 0
M  V30 5887 H 577.46 -0.442467 -0.608052 0
M  V30 5888 H 579.431 -2.37238 -1.80999 0
M  V30 5889 C 578.18 -1.29957 -3.225 0
M  V30 5890 H 577.503 -2.15429 -3.36794 0
M  V30 5891 H 578.943 -1.34608 -4.02066 0
M  V30 5892 C 577.402 -0.0103164 -3.36898 0
M  V30 5893 O 577.932 0.950707 -3.90288 0
M  V30 5894 N 576.138 0.0608409 -2.90536 0
M  V30 5895 H 575.685 -0.721943 -2.47277 0
M  V30 5896 H 575.643 0.92292 -3.00549 0
M  V30 5897 N 579.415 0.9433 -1.26252 0
M  V30 5898 C 580.378 2.02326 -1.07689 0
M  V30 5899 C 581.378 1.60779 -0.0259174 0
M  V30 5900 O 582.568 1.72108 -0.269134 0
M  V30 5901 C 579.7 3.34886 -0.63752 0
M  V30 5902 H 580.893 2.20225 -2.0357 0
M  V30 5903 H 578.446 1.12197 -1.08819 0
M  V30 5904 H 579.181 3.22684 0.323377 0
M  V30 5905 H 578.966 3.66393 -1.39637 0
M  V30 5906 H 580.456 4.14231 -0.529418 0
M  V30 5907 N 580.893 1.08022 1.14757 0
M  V30 5908 C 581.84 0.706657 2.19716 0
M  V30 5909 C 582.81 -0.30525 1.63271 0
M  V30 5910 O 583.995 -0.19015 1.8985 0
M  V30 5911 C 581.135 0.117914 3.44898 0
M  V30 5912 C 580.248 1.18212 4.15512 0
M  V30 5913 C 579.383 0.557659 5.28265 0
M  V30 5914 C 578.422 1.60418 5.90705 0
M  V30 5915 N 577.559 1.0018 6.94916 0
M  V30 5916 H 582.399 1.60603 2.51019 0
M  V30 5917 H 579.936 0.802664 1.23271 0
M  V30 5918 H 581.894 -0.241112 4.16503 0
M  V30 5919 H 580.524 -0.744788 3.1409 0
M  V30 5920 H 579.576 1.65863 3.42335 0
M  V30 5921 H 580.888 1.97533 4.5802 0
M  V30 5922 H 580.042 0.146654 6.06523 0
M  V30 5923 H 578.781 -0.267249 4.86967 0
M  V30 5924 H 577.786 2.02489 5.11154 0
M  V30 5925 H 579.011 2.43149 6.34078 0
M  V30 5926 H 576.957 0.197917 6.55701 0
M  V30 5927 H 576.874 1.73216 7.35889 0
M  V30 5928 H 578.142 0.616523 7.77058 0
M  V30 5929 N 582.371 -1.3172 0.865308 0
M  V30 5930 C 583.301 -2.31109 0.333302 0
M  V30 5931 C 584.282 -1.60148 -0.573301 0
M  V30 5932 O 585.467 -1.87882 -0.491305 0
M  V30 5933 C 582.597 -3.44104 -0.470078 0
M  V30 5934 C 581.551 -4.26623 0.343021 0
M  V30 5935 C 580.877 -5.31482 -0.585756 0
M  V30 5936 C 582.177 -4.98001 1.57456 0
M  V30 5937 H 583.871 -2.75855 1.1638 0
M  V30 5938 H 581.417 -1.3262 0.561069 0
M  V30 5939 H 583.37 -4.12682 -0.852752 0
M  V30 5940 H 582.094 -2.98112 -1.33404 0
M  V30 5941 H 580.753 -3.59707 0.707583 0
M  V30 5942 H 580.401 -4.81741 -1.44686 0
M  V30 5943 H 580.101 -5.87582 -0.0456494 0
M  V30 5944 H 581.625 -6.0292 -0.965375 0
M  V30 5945 H 583.039 -5.59201 1.26359 0
M  V30 5946 H 581.436 -5.63876 2.05339 0
M  V30 5947 H 582.506 -4.25253 2.32997 0
M  V30 5948 N 583.85 -0.624285 -1.44708 0
M  V30 5949 C 584.779 0.0717025 -2.3339 0
M  V30 5950 C 585.76 0.841814 -1.47809 0
M  V30 5951 O 586.946 0.809056 -1.76544 0
M  V30 5952 C 584.076 1.05852 -3.30776 0
M  V30 5953 C 583.029 0.400503 -4.26122 0
M  V30 5954 C 582.356 1.49674 -5.13324 0
M  V30 5955 C 583.656 -0.688924 -5.17737 0
M  V30 5956 H 585.35 -0.668819 -2.91834 0
M  V30 5957 H 582.896 -0.32308 -1.40329 0
M  V30 5958 H 584.849 1.5541 -3.91696 0
M  V30 5959 H 583.572 1.82984 -2.70526 0
M  V30 5960 H 582.231 -0.0743687 -3.66525 0
M  V30 5961 H 581.88 2.25877 -4.49431 0
M  V30 5962 H 581.58 1.06188 -5.77926 0
M  V30 5963 H 583.104 1.99427 -5.77115 0
M  V30 5964 H 584.518 -0.276724 -5.72632 0
M  V30 5965 H 582.915 -1.04652 -5.90904 0
M  V30 5966 H 583.985 -1.55884 -4.5916 0
M  V30 5967 N 585.328 1.53329 -0.364422 0
M  V30 5968 C 586.574 2.01537 0.225969 0
M  V30 5969 C 586.907 1.25128 1.48515 0
M  V30 5970 O 586.182 0.344653 1.91422 0
M  V30 5971 C 586.465 3.56339 0.519092 0
M  V30 5972 C 586.318 4.43441 -0.753639 0
M  V30 5973 C 587.637 4.19833 1.32015 0
M  V30 5974 H 584.756 0.732573 0.0806548 0
M  V30 5975 H 587.398 1.83597 -0.489084 0
M  V30 5976 H 585.548 3.71756 1.12825 0
M  V30 5977 H 587.22 4.39823 -1.39116 0
M  V30 5978 H 585.463 4.11457 -1.37424 0
M  V30 5979 H 586.134 5.49699 -0.503517 0
M  V30 5980 H 588.61 4.08242 0.804859 0
M  V30 5981 H 587.486 5.28177 1.49399 0
M  V30 5982 H 587.747 3.75821 2.32832 0
M  V30 5983 N 586.806 0.0935595 1.57322 0
M  V30 5984 C 587.753 -0.865935 2.1394 0
M  V30 5985 C 588.723 -1.28083 1.05754 0
M  V30 5986 O 589.908 -1.36285 1.33533 0
M  V30 5987 C 587.048 -2.12023 2.72287 0
M  V30 5988 C 586.161 -1.756 3.94701 0
M  V30 5989 C 585.296 -2.95804 4.41218 0
M  V30 5990 C 584.335 -2.555 5.56225 0
M  V30 5991 N 583.472 -3.68534 5.97601 0
M  V30 5992 H 588.312 -0.376261 2.95615 0
M  V30 5993 H 585.849 -0.174052 1.46067 0
M  V30 5994 H 587.807 -2.85477 3.04235 0
M  V30 5995 H 586.437 -2.58492 1.93343 0
M  V30 5996 H 585.489 -0.921208 3.69077 0
M  V30 5997 H 586.801 -1.41964 4.78171 0
M  V30 5998 H 585.955 -3.77513 4.74941 0
M  V30 5999 H 584.694 -3.32649 3.56645 0
M  V30 6000 H 583.699 -1.72218 5.22131 0
M  V30 6001 H 584.924 -2.19801 6.42545 0
M  V30 6002 H 582.87 -4.051 5.15974 0
M  V30 6003 H 582.787 -3.38737 6.75865 0
M  V30 6004 H 584.055 -4.50757 6.35955 0
M  V30 6005 N 588.284 -1.56567 -0.180126 0
M  V30 6006 C 589.194 -1.98947 -1.24327 0
M  V30 6007 C 590.21 -0.899446 -1.4895 0
M  V30 6008 O 591.386 -1.20639 -1.61271 0
M  V30 6009 C 588.451 -2.33328 -2.56435 0
M  V30 6010 C 587.512 -3.56114 -2.39752 0
M  V30 6011 C 586.745 -3.88845 -3.65561 0
M  V30 6012 O 586.968 -3.22662 -4.70368 0
M  V30 6013 O 585.902 -4.82226 -3.60197 0
M  V30 6014 H 589.728 -2.89634 -0.913565 0
M  V30 6015 H 587.313 -1.44319 -0.386306 0
M  V30 6016 H 589.195 -2.5645 -3.34382 0
M  V30 6017 H 587.87 -1.45806 -2.89002 0
M  V30 6018 H 586.777 -3.38221 -1.59866 0
M  V30 6019 H 588.11 -4.4415 -2.12113 0
M  V30 6020 N 589.762 0.448376 -1.51087 0
M  V30 6021 C 590.725 1.52588 -1.71025 0
M  V30 6022 C 591.725 1.49958 -0.580442 0
M  V30 6023 O 592.915 1.52176 -0.847833 0
M  V30 6024 C 590.047 2.92163 -1.75652 0
M  V30 6025 H 591.24 1.36218 -2.67179 0
M  V30 6026 H 588.793 0.676313 -1.4091 0
M  V30 6027 H 589.528 3.13951 -0.812724 0
M  V30 6028 H 589.313 2.95478 -2.57751 0
M  V30 6029 H 590.803 3.70349 -1.92953 0
M  V30 6030 N 591.24 1.41047 0.703093 0
M  V30 6031 C 592.488 1.39723 1.4602 0
M  V30 6032 C 592.809 0.00461257 1.94999 0
M  V30 6033 O 592.079 -0.952292 1.71196 0
M  V30 6034 H 590.659 0.514281 0.541779 0
M  V30 6035 H 593.321 1.76217 0.832678 0
M  V30 6036 H 592.417 2.07982 2.32701 0
M  V30 6037 N 592.718 -0.936591 1.26751 0
M  V30 6038 C 593.648 -2.05315 1.11212 0
M  V30 6039 C 594.629 -1.70092 0.0160262 0
M  V30 6040 O 595.814 -1.93279 0.188894 0
M  V30 6041 C 592.944 -3.39123 0.749171 0
M  V30 6042 C 591.898 -3.88425 1.79751 0
M  V30 6043 C 591.224 -5.18936 1.28876 0
M  V30 6044 C 592.524 -4.12798 3.19992 0
M  V30 6045 H 594.218 -2.18573 2.04613 0
M  V30 6046 H 591.764 -1.05027 0.985159 0
M  V30 6047 H 593.717 -4.16704 0.627323 0
M  V30 6048 H 592.441 -3.25855 -0.220543 0
M  V30 6049 H 591.1 -3.13028 1.90811 0
M  V30 6050 H 590.748 -5.02051 0.308757 0
M  V30 6051 H 590.448 -5.52892 1.98958 0
M  V30 6052 H 591.972 -5.99096 1.17967 0
M  V30 6053 H 593.386 -4.80977 3.11983 0
M  V30 6054 H 591.783 -4.58044 3.87705 0
M  V30 6055 H 592.853 -3.18412 3.65707 0
M  V30 6056 N 594.196 -1.08629 -1.14182 0
M  V30 6057 C 595.144 -0.71284 -2.21408 0
M  V30 6058 C 596.138 0.282457 -1.67029 0
M  V30 6059 O 597.344 0.144783 -1.79417 0
M  V30 6060 H 593.719 -0.212497 -0.721352 0
M  V30 6061 H 595.69 -1.6265 -2.50175 0
M  V30 6062 C 594.439 -0.140704 -3.47415 0
M  V30 6063 H 593.762 -0.897739 -3.8959 0
M  V30 6064 H 595.202 0.0827677 -4.23919 0
M  V30 6065 C 593.661 1.122 -3.17668 0
M  V30 6066 O 594.191 2.20652 -3.35672 0
M  V30 6067 N 592.397 1.03328 -2.71609 0
M  V30 6068 H 591.944 0.150666 -2.57159 0
M  V30 6069 H 591.902 1.8789 -2.52081 0
M  V30 6070 N 595.674 1.31259 -0.872281 0
M  V30 6071 C 596.92 1.96913 -0.485083 0
M  V30 6072 C 597.253 1.68774 0.960667 0
M  V30 6073 O 596.528 0.985495 1.67685 0
M  V30 6074 C 596.811 3.52299 -0.745502 0
M  V30 6075 C 596.664 3.90002 -2.24095 0
M  V30 6076 C 597.983 4.39582 -0.213516 0
M  V30 6077 H 595.102 0.715252 -0.177716 0
M  V30 6078 H 597.744 1.55347 -1.09395 0
M  V30 6079 H 595.894 3.87835 -0.227276 0
M  V30 6080 H 597.566 3.64555 -2.82661 0
M  V30 6081 H 595.809 3.38526 -2.71261 0
M  V30 6082 H 596.48 4.98352 -2.37381 0
M  V30 6083 H 598.956 4.10882 -0.656902 0
M  V30 6084 H 597.832 5.47251 -0.42516 0
M  V30 6085 H 598.093 4.33158 0.884666 0
M  V30 6086 N 597.152 0.631951 1.44375 0
M  V30 6087 C 598.38 0.143867 2.06399 0
M  V30 6088 C 598.795 -1.18188 1.47231 0
M  V30 6089 O 598.152 -1.72511 0.595498 0
M  V30 6090 C 598.203 0.0238253 3.61492 0
M  V30 6091 O 597.924 1.29715 4.18456 0
M  V30 6092 C 599.425 -0.492856 4.40552 0
M  V30 6093 H 596.645 0.0800542 0.666207 0
M  V30 6094 H 599.189 0.866586 1.85231 0
M  V30 6095 H 597.344 -0.649338 3.81919 0
M  V30 6096 H 597.758 1.14252 5.11905 0
M  V30 6097 H 599.232 -0.525861 5.49489 0
M  V30 6098 H 599.709 -1.52006 4.12057 0
M  V30 6099 H 600.315 0.147085 4.25046 0
M  V30 6100 N 598.631 -1.53133 0.372548 0
M  V30 6101 C 599.859 -2.05774 -0.215515 0
M  V30 6102 C 600.274 -1.24555 -1.41886 0
M  V30 6103 O 599.631 -0.287951 -1.80214 0
M  V30 6104 C 599.682 -3.5645 -0.602161 0
M  V30 6105 O 599.403 -4.34591 0.553359 0
M  V30 6106 C 600.904 -4.25374 -1.24787 0
M  V30 6107 H 598.124 -0.670009 -0.0364529 0
M  V30 6108 H 600.668 -1.97434 0.532934 0
M  V30 6109 H 598.823 -3.64918 -1.30052 0
M  V30 6110 H 599.237 -5.23954 0.239336 0
M  V30 6111 H 600.711 -5.32097 -1.46891 0
M  V30 6112 H 601.188 -3.79531 -2.21026 0
M  V30 6113 H 601.794 -4.21177 -0.590752 0
M  V30 6114 N 600.109 -0.101901 -1.5727 0
M  V30 6115 C 601.334 0.571759 -1.99363 0
M  V30 6116 C 601.759 1.60507 -0.980768 0
M  V30 6117 O 601.117 1.81231 0.0498517 0
M  V30 6118 C 601.165 1.18996 -3.404 0
M  V30 6119 O 600.269 2.30572 -3.41922 0
M  V30 6120 H 599.61 0.144449 -0.648098 0
M  V30 6121 H 602.14 -0.185325 -2.03759 0
M  V30 6122 H 602.15 1.52962 -3.78241 0
M  V30 6123 H 600.825 0.432984 -4.1364 0
M  V30 6124 H 599.402 1.98173 -3.15883 0
M  V30 6125 N 601.587 1.56661 0.17182 0
M  V30 6126 C 602.537 1.92781 1.21736 0
M  V30 6127 C 603.521 0.796065 1.39827 0
M  V30 6128 O 604.713 1.05924 1.41806 0
M  V30 6129 C 601.842 2.29079 2.55691 0
M  V30 6130 C 600.928 3.48765 2.41296 0
M  V30 6131 N 601.319 4.66022 1.96614 0
M  V30 6132 C 599.617 3.53362 2.72124 0
M  V30 6133 C 600.318 5.48159 1.94669 0
M  V30 6134 N 599.294 4.89189 2.37054 0
M  V30 6135 H 603.096 2.80926 0.863592 0
M  V30 6136 H 600.61 1.57889 0.380096 0
M  V30 6137 H 602.607 2.5315 3.31241 0
M  V30 6138 H 601.267 1.42272 2.91871 0
M  V30 6139 H 602.278 4.9025 1.66959 0
M  V30 6140 H 598.955 2.77033 3.12345 0
M  V30 6141 H 600.345 6.52121 1.61826 0
M  V30 6142 N 603.065 -0.440357 1.51323 0
M  V30 6143 C 604.29 -1.21716 1.67928 0
M  V30 6144 C 604.715 -1.84328 0.374826 0
M  V30 6145 O 604.073 -1.68675 -0.664706 0
M  V30 6146 C 604.121 -2.27914 2.79442 0
M  V30 6147 O 603.225 -3.33325 2.42834 0
M  V30 6148 H 602.566 -0.35674 0.560029 0
M  V30 6149 H 605.096 -0.520417 1.97871 0
M  V30 6150 H 605.106 -2.72746 3.03436 0
M  V30 6151 H 603.781 -1.8172 3.741 0
M  V30 6152 H 602.358 -2.9399 2.294 0
M  V30 6153 N 604.543 -1.41418 -0.695603 0
M  V30 6154 C 605.954 -1.36335 -1.27552 0
M  V30 6155 C 606.305 -0.0464336 -1.96145 0
M  V30 6156 O 605.43 0.855304 -1.9878 0
M  V30 6157 C 606.025 -2.46941 -2.3196 0
M  V30 6158 C 604.584 -2.45256 -2.85529 0
M  V30 6159 C 603.731 -2.2679 -1.59566 0
M  V30 6160 H 606.682 -1.50934 -0.490362 0
M  V30 6161 H 606.703 -2.15997 -3.1325 0
M  V30 6162 H 606.215 -3.42775 -1.82008 0
M  V30 6163 H 604.316 -1.53179 -3.39657 0
M  V30 6164 H 604.429 -3.41565 -3.35961 0
M  V30 6165 H 602.793 -1.74667 -1.85374 0
M  V30 6166 H 603.576 -3.24651 -1.1161 0
M  V30 6167 N 606.021 0.929856 -1.27246 0
M  V30 6168 C 606.984 2.01172 -1.09829 0
M  V30 6169 C 607.984 1.60743 -0.0429687 0
M  V30 6170 O 609.174 1.71813 -0.287373 0
M  V30 6171 C 606.306 3.34191 -0.673003 0
M  V30 6172 H 607.499 2.18054 -2.05895 0
M  V30 6173 H 605.052 1.11036 -1.10003 0
M  V30 6174 H 605.787 3.23009 0.289134 0
M  V30 6175 H 605.572 3.64892 -1.43515 0
M  V30 6176 H 607.062 4.13646 -0.573323 0
M  V30 6177 N 607.499 1.09233 1.13605 0
M  V30 6178 C 608.462 0.733553 2.17144 0
M  V30 6179 C 609.462 -0.235873 1.59061 0
M  V30 6180 O 610.652 -0.0143167 1.74194 0
M  V30 6181 C 607.784 0.084471 3.40795 0
M  V30 6182 H 608.977 1.65049 2.50397 0
M  V30 6183 H 606.53 0.891264 1.28399 0
M  V30 6184 H 607.265 -0.843795 3.1313 0
M  V30 6185 H 607.05 0.781985 3.84223 0
M  V30 6186 H 608.54 -0.151216 4.17326 0
M  V30 6187 N 608.977 -1.30795 0.87923 0
M  V30 6188 C 610.388 -1.78535 0.546093 0
M  V30 6189 C 610.739 -1.72354 -0.937467 0
M  V30 6190 O 609.864 -1.2969 -1.73233 0
M  V30 6191 C 610.459 -3.24181 0.9845 0
M  V30 6192 C 609.018 -3.69779 0.702871 0
M  V30 6193 C 608.165 -2.51377 1.17068 0
M  V30 6194 H 611.116 -1.17746 1.06403 0
M  V30 6195 H 611.137 -3.79227 0.311045 0
M  V30 6196 H 610.649 -3.28647 2.06429 0
M  V30 6197 H 608.75 -3.70806 -0.365166 0
M  V30 6198 H 608.863 -4.61507 1.28639 0
M  V30 6199 H 607.227 -2.47768 0.590172 0
M  V30 6200 H 608.01 -2.58584 2.25808 0
M  V30 6201 N 610.455 -0.639598 -1.44038 0
M  V30 6202 C 611.703 -0.147188 -2.01563 0
M  V30 6203 C 612.024 1.2384 -1.50628 0
M  V30 6204 O 611.294 1.82452 -0.713316 0
M  V30 6205 H 609.874 -0.0514231 -0.745228 0
M  V30 6206 H 612.536 -0.828205 -1.76428 0
M  V30 6207 H 611.632 -0.121358 -3.11864 0
M  V30 6208 N 611.933 1.52934 -0.380664 0
M  V30 6209 C 612.843 2.29921 0.466192 0
M  V30 6210 C 613.859 1.36488 1.07922 0
M  V30 6211 O 615.035 1.69553 1.0869 0
M  V30 6212 C 612.1 3.08468 1.58266 0
M  V30 6213 C 611.161 4.17595 0.995627 0
M  V30 6214 C 610.394 4.92387 2.05889 0
M  V30 6215 O 610.617 4.67184 3.27254 0
M  V30 6216 O 609.551 5.77949 1.68102 0
M  V30 6217 H 613.377 3.03274 -0.160735 0
M  V30 6218 H 610.962 1.48698 -0.144617 0
M  V30 6219 H 612.844 3.57469 2.23145 0
M  V30 6220 H 611.519 2.37937 2.19471 0
M  V30 6221 H 610.426 3.72811 0.310332 0
M  V30 6222 H 611.759 4.90336 0.427918 0
M  V30 6223 N 613.412 0.11024 1.57214 0
M  V30 6224 C 614.344 -0.873497 2.11902 0
M  V30 6225 C 615.357 -1.23588 1.05971 0
M  V30 6226 O 616.546 -1.18636 1.33371 0
M  V30 6227 C 613.646 -2.17805 2.59643 0
M  V30 6228 C 612.819 -1.98869 3.89576 0
M  V30 6229 C 611.878 -3.12974 4.23006 0
M  V30 6230 O 610.904 -2.86272 4.91973 0
M  V30 6231 N 612.106 -4.39167 3.79622 0
M  V30 6232 H 614.871 -0.406317 2.96933 0
M  V30 6233 H 612.432 -0.074437 1.61729 0
M  V30 6234 H 614.424 -2.93117 2.79042 0
M  V30 6235 H 612.994 -2.55899 1.7954 0
M  V30 6236 H 612.214 -1.078 3.79174 0
M  V30 6237 H 613.502 -1.83512 4.74553 0
M  V30 6238 H 612.9 -4.63739 3.2398 0
M  V30 6239 H 611.457 -5.11379 4.04147 0
M  V30 6240 N 614.89 -1.56749 -0.16351 0
M  V30 6241 C 616.138 -1.82074 -0.87713 0
M  V30 6242 C 616.459 -0.688503 -1.82441 0
M  V30 6243 O 615.729 0.291085 -1.93725 0
M  V30 6244 H 614.309 -0.671677 -0.326893 0
M  V30 6245 H 616.971 -1.9423 -0.161459 0
M  V30 6246 H 616.067 -2.76407 -1.44934 0
M  V30 6247 N 616.368 0.432326 -1.51554 0
M  V30 6248 C 617.615 1.18134 -1.64471 0
M  V30 6249 C 617.943 1.91076 -0.363349 0
M  V30 6250 O 617.198 1.84492 0.65279 0
M  V30 6251 C 617.497 2.21907 -2.80164 0
M  V30 6252 C 617.163 1.65941 -4.19255 0
M  V30 6253 C 615.825 1.50401 -4.57092 0
M  V30 6254 C 618.177 1.24843 -5.06027 0
M  V30 6255 C 615.505 0.922443 -5.79403 0
M  V30 6256 C 617.857 0.68113 -6.28922 0
M  V30 6257 C 616.521 0.512673 -6.65528 0
M  V30 6258 H 615.791 0.432283 -0.601841 0
M  V30 6259 H 618.438 0.471701 -1.856 0
M  V30 6260 H 616.743 2.98928 -2.53277 0
M  V30 6261 H 618.44 2.79691 -2.87357 0
M  V30 6262 H 615.03 1.79014 -3.89425 0
M  V30 6263 H 619.214 1.35667 -4.77397 0
M  V30 6264 H 614.47 0.779733 -6.06408 0
M  V30 6265 H 618.644 0.35418 -6.95499 0
M  V30 6266 H 616.271 0.0599084 -7.60176 0
M  V30 6267 N 617.846 1.41785 0.688094 0
M  V30 6268 C 619.094 1.41264 1.4453 0
M  V30 6269 C 619.415 0.0252946 1.94984 0
M  V30 6270 O 618.685 -0.934081 1.72197 0
M  V30 6271 H 617.265 0.519998 0.536294 0
M  V30 6272 H 619.927 1.7709 0.813941 0
M  V30 6273 H 619.023 2.10439 2.30482 0
M  V30 6274 N 619.324 -0.923095 1.27737 0
M  V30 6275 C 620.234 -2.05765 1.12685 0
M  V30 6276 C 621.25 -1.73911 0.0557197 0
M  V30 6277 O 622.426 -1.99674 0.263137 0
M  V30 6278 C 619.491 -3.37804 0.780363 0
M  V30 6279 C 618.552 -3.83326 1.93286 0
M  V30 6280 C 617.785 -5.09064 1.60281 0
M  V30 6281 O 618.008 -5.6809 0.512828 0
M  V30 6282 O 616.942 -5.50071 2.44347 0
M  V30 6283 H 620.768 -2.21378 2.07907 0
M  V30 6284 H 618.353 -1.04299 1.06968 0
M  V30 6285 H 620.235 -4.17097 0.600668 0
M  V30 6286 H 618.91 -3.23387 -0.142291 0
M  V30 6287 H 617.817 -3.049 2.16764 0
M  V30 6288 H 619.15 -4.02292 2.83588 0
M  V30 6289 N 620.802 -1.09834 -1.13024 0
M  V30 6290 C 622.042 -0.846664 -1.8604 0
M  V30 6291 C 622.406 0.616557 -1.81831 0
M  V30 6292 O 623.607 0.984329 -2.50129 0
M  V30 6293 C 621.878 -1.37228 -3.30005 0
M  V30 6294 S 623.437 -1.25511 -4.20467 0
M  V30 6295 H 620.255 -0.30611 -0.64173 0
M  V30 6296 H 622.857 -1.40255 -1.36194 0
M  V30 6297 H 621.561 -2.43138 -3.30624 0
M  V30 6298 H 621.092 -0.81271 -3.84914 0
M  V30 6299 H 623.107 -0.208762 -4.95761 0
M  V30 6300 N 622.28 1.30327 -0.886154 0
M  V30 6301 C 623.21 2.30549 -0.370028 0
M  V30 6302 C 624.191 1.61039 0.547751 0
M  V30 6303 O 625.376 1.8864 0.461353 0
M  V30 6304 C 622.506 3.44808 0.415275 0
M  V30 6305 C 621.46 4.26024 -0.41085 0
M  V30 6306 C 620.786 5.32347 0.501128 0
M  V30 6307 C 622.086 4.95433 -1.65359 0
M  V30 6308 H 623.78 2.73969 -1.20754 0
M  V30 6309 H 621.326 1.3171 -0.582097 0
M  V30 6310 H 623.279 4.13986 0.78699 0
M  V30 6311 H 622.003 3.00197 1.28644 0
M  V30 6312 H 620.662 3.58535 -0.764719 0
M  V30 6313 H 620.31 4.83982 1.37004 0
M  V30 6314 H 620.01 5.87581 -0.0478356 0
M  V30 6315 H 621.534 6.0438 0.869333 0
M  V30 6316 H 622.948 5.5712 -1.35239 0
M  V30 6317 H 621.345 5.60537 -2.14284 0
M  V30 6318 H 622.415 4.21493 -2.39733 0
M  V30 6319 N 623.758 0.647228 1.43697 0
M  V30 6320 C 624.688 -0.0345631 2.33474 0
M  V30 6321 C 625.669 -0.818193 1.4913 0
M  V30 6322 O 626.854 -0.780867 1.77809 0
M  V30 6323 C 623.984 -1.00576 3.32418 0
M  V30 6324 C 622.938 -0.33266 4.26705 0
M  V30 6325 C 622.264 -1.41489 5.1564 0
M  V30 6326 C 623.564 0.771204 5.16575 0
M  V30 6327 H 625.258 0.715163 2.90733 0
M  V30 6328 H 622.804 0.345364 1.39797 0
M  V30 6329 H 624.757 -1.49159 3.94119 0
M  V30 6330 H 623.481 -1.78657 2.73403 0
M  V30 6331 H 622.14 0.13267 3.6636 0
M  V30 6332 H 621.788 -2.18698 4.52968 0
M  V30 6333 H 621.488 -0.969799 5.79542 0
M  V30 6334 H 623.012 -1.9022 5.80214 0
M  V30 6335 H 624.426 0.36779 5.72119 0
M  V30 6336 H 622.823 1.1404 5.89165 0
M  V30 6337 H 623.893 1.63169 4.56622 0
M  V30 6338 N 625.236 -1.5273 0.388769 0
M  V30 6339 C 626.199 -2.25043 -0.434544 0
M  V30 6340 C 627.199 -1.26661 -0.990644 0
M  V30 6341 O 628.389 -1.50762 -0.872731 0
M  V30 6342 C 625.521 -3.00507 -1.60961 0
M  V30 6343 H 626.714 -2.99242 0.198549 0
M  V30 6344 H 624.267 -1.55664 0.140875 0
M  V30 6345 H 625.002 -2.30607 -2.28015 0
M  V30 6346 H 624.787 -3.72716 -1.21757 0
M  V30 6347 H 626.277 -3.55413 -2.19251 0
M  V30 6348 N 626.714 -0.118576 -1.57153 0
M  V30 6349 C 627.96 0.540326 -1.95469 0
M  V30 6350 C 628.293 1.66356 -1.00196 0
M  V30 6351 O 627.568 1.94461 -0.039104 0
M  V30 6352 C 627.851 1.07342 -3.43729 0
M  V30 6353 C 627.704 -0.0463732 -4.49776 0
M  V30 6354 C 629.023 1.96442 -3.93826 0
M  V30 6355 H 626.142 0.19494 -0.710751 0
M  V30 6356 H 628.784 -0.19405 -1.89006 0
M  V30 6357 H 626.934 1.69925 -3.49368 0
M  V30 6358 H 628.606 -0.681648 -4.56236 0
M  V30 6359 H 626.849 -0.709574 -4.27957 0
M  V30 6360 H 627.52 0.367856 -5.50773 0
M  V30 6361 H 629.996 1.43731 -3.90488 0
M  V30 6362 H 628.872 2.3066 -4.98084 0
M  V30 6363 H 629.133 2.89077 -3.34495 0
M  V30 6364 N 628.193 1.56834 0.155195 0
M  V30 6365 C 629.156 1.96748 1.17571 0
M  V30 6366 C 630.156 0.853006 1.3631 0
M  V30 6367 O 631.346 1.11978 1.33441 0
M  V30 6368 C 628.478 2.27631 2.53765 0
M  V30 6369 H 629.671 2.88085 0.833498 0
M  V30 6370 H 627.224 1.51141 0.398242 0
M  V30 6371 H 627.959 1.39059 2.92973 0
M  V30 6372 H 627.744 3.0888 2.41527 0
M  V30 6373 H 629.234 2.59377 3.27282 0
M  V30 6374 N 629.671 -0.424282 1.51781 0
M  V30 6375 C 630.601 -1.52305 1.7699 0
M  V30 6376 C 631.582 -1.5839 0.620209 0
M  V30 6377 O 632.767 -1.73908 0.864268 0
M  V30 6378 C 629.897 -2.90271 1.90683 0
M  V30 6379 C 628.851 -2.99043 3.06198 0
M  V30 6380 C 628.177 -4.39116 3.05092 0
M  V30 6381 C 629.477 -2.7192 4.45934 0
M  V30 6382 H 631.171 -1.31461 2.68995 0
M  V30 6383 H 628.717 -0.630985 1.29439 0
M  V30 6384 H 630.67 -3.6711 2.06901 0
M  V30 6385 H 629.394 -3.12376 0.953365 0
M  V30 6386 H 628.053 -2.24646 2.89706 0
M  V30 6387 H 627.701 -4.58207 2.07498 0
M  V30 6388 H 627.401 -4.45912 3.82669 0
M  V30 6389 H 628.925 -5.17911 3.2342 0
M  V30 6390 H 630.339 -3.38487 4.62709 0
M  V30 6391 H 628.736 -2.90111 5.25315 0
M  V30 6392 H 629.806 -1.67445 4.55072 0
M  V30 6393 N 631.149 -1.42148 -0.680565 0
M  V30 6394 C 632.112 -1.4488 -1.77602 0
M  V30 6395 C 633.112 -0.337209 -1.57224 0
M  V30 6396 O 634.302 -0.597778 -1.63622 0
M  V30 6397 C 631.434 -1.27483 -3.16166 0
M  V30 6398 H 632.627 -2.42412 -1.76568 0
M  V30 6399 H 630.18 -1.28511 -0.889645 0
M  V30 6400 H 630.915 -0.30851 -3.22829 0
M  V30 6401 H 630.7 -2.08037 -3.3236 0
M  V30 6402 H 632.19 -1.32265 -3.96101 0
M  V30 6403 N 632.627 0.916307 -1.28225 0
M  V30 6404 C 633.875 1.6619 -1.15002 0
M  V30 6405 C 634.196 1.92642 0.302329 0
M  V30 6406 O 633.466 1.54076 1.20985 0
M  V30 6407 H 632.046 0.615964 -0.422608 0
M  V30 6408 H 634.708 1.09963 -1.60917 0
M  V30 6409 H 633.804 2.62533 -1.68769 0
M  V30 6410 N 634.105 1.10431 1.1244 0
M  V30 6411 C 635.068 0.756542 2.16354 0
M  V30 6412 C 636.068 -0.21899 1.59302 0
M  V30 6413 O 637.258 0.00415969 1.742 0
M  V30 6414 C 634.39 0.120612 3.40687 0
M  V30 6415 H 635.583 1.67696 2.48632 0
M  V30 6416 H 633.136 0.904832 1.27446 0
M  V30 6417 H 633.871 -0.810536 3.14008 0
M  V30 6418 H 633.656 0.822693 3.83372 0
M  V30 6419 H 635.146 -0.106945 4.17463 0
M  V30 6420 N 635.583 -1.29855 0.893053 0
M  V30 6421 C 636.994 -1.77946 0.564998 0
M  V30 6422 C 637.345 -1.73339 -0.919134 0
M  V30 6423 O 636.47 -1.3152 -1.71847 0
M  V30 6424 C 637.065 -3.23118 1.01883 0
M  V30 6425 C 635.624 -3.69013 0.742051 0
M  V30 6426 C 634.771 -2.50121 1.19727 0
M  V30 6427 H 637.722 -1.16611 1.07646 0
M  V30 6428 H 637.743 -3.78875 0.351249 0
M  V30 6429 H 637.255 -3.26439 2.09903 0
M  V30 6430 H 635.356 -3.71173 -0.325816 0
M  V30 6431 H 635.469 -4.60117 1.33527 0
M  V30 6432 H 633.833 -2.47128 0.616418 0
M  V30 6433 H 634.616 -2.56174 2.28538 0
M  V30 6434 N 637.061 -0.65484 -1.43351 0
M  V30 6435 C 638.291 -0.176429 -2.05845 0
M  V30 6436 C 638.699 1.16375 -1.49176 0
M  V30 6437 O 638.042 1.72981 -0.618322 0
M  V30 6438 C 638.104 -0.0125844 -3.59498 0
M  V30 6439 C 637.768 -1.27831 -4.38758 0
M  V30 6440 C 638.765 -2.2074 -4.70712 0
M  V30 6441 C 636.45 -1.52035 -4.78739 0
M  V30 6442 C 638.444 -3.36145 -5.41558 0
M  V30 6443 C 636.131 -2.67732 -5.49329 0
M  V30 6444 C 637.129 -3.59612 -5.80662 0
M  V30 6445 O 636.817 -4.73289 -6.4981 0
M  V30 6446 H 636.549 -0.0879682 -0.670252 0
M  V30 6447 H 639.103 -0.896193 -1.84818 0
M  V30 6448 H 637.333 0.762567 -3.79107 0
M  V30 6449 H 639.022 0.423392 -4.03686 0
M  V30 6450 H 639.788 -2.03284 -4.40341 0
M  V30 6451 H 635.667 -0.813987 -4.53757 0
M  V30 6452 H 639.211 -4.07881 -5.65932 0
M  V30 6453 H 635.108 -2.85122 -5.79116 0
M  V30 6454 H 635.876 -4.72575 -6.68293 0
M  V30 6455 N 638.539 1.52521 -0.396863 0
M  V30 6456 C 639.471 2.24333 0.469814 0
M  V30 6457 C 640.484 1.2685 1.02043 0
M  V30 6458 O 641.673 1.52876 0.92147 0
M  V30 6459 C 638.773 2.95202 1.66461 0
M  V30 6460 C 637.946 4.19454 1.24003 0
M  V30 6461 C 637.005 4.73255 2.30036 0
M  V30 6462 O 636.031 5.36151 1.91131 0
M  V30 6463 N 637.233 4.53765 3.62047 0
M  V30 6464 H 639.998 2.99347 -0.145468 0
M  V30 6465 H 637.559 1.60348 -0.223606 0
M  V30 6466 H 639.551 3.28092 2.36934 0
M  V30 6467 H 638.121 2.2345 2.18607 0
M  V30 6468 H 637.341 3.92517 0.363892 0
M  V30 6469 H 638.629 5.0017 0.933135 0
M  V30 6470 H 638.027 4.03576 3.96412 0
M  V30 6471 H 636.584 4.91124 4.28533 0
M  V30 6472 N 640.017 0.126909 1.57088 0
M  V30 6473 C 640.98 -0.806097 2.14557 0
M  V30 6474 C 641.98 -1.18918 1.08236 0
M  V30 6475 O 643.17 -1.11339 1.33975 0
M  V30 6476 C 640.302 -2.09116 2.69227 0
M  V30 6477 H 641.495 -0.306522 2.98329 0
M  V30 6478 H 639.048 -0.122393 1.5582 0
M  V30 6479 H 639.783 -2.63486 1.89065 0
M  V30 6480 H 639.568 -1.82588 3.46993 0
M  V30 6481 H 641.058 -2.75794 3.13572 0
M  V30 6482 N 641.495 -1.56914 -0.146875 0
M  V30 6483 C 642.741 -1.83628 -0.860741 0
M  V30 6484 C 643.074 -0.708528 -1.80813 0
M  V30 6485 O 642.349 0.287838 -1.92358 0
M  V30 6486 C 642.632 -3.20836 -1.63511 0
M  V30 6487 C 642.485 -4.44174 -0.709199 0
M  V30 6488 C 643.804 -3.55268 -2.59756 0
M  V30 6489 H 640.923 -0.667949 -0.311468 0
M  V30 6490 H 643.565 -1.89582 -0.125936 0
M  V30 6491 H 641.715 -3.15891 -2.26153 0
M  V30 6492 H 643.387 -4.61205 -0.0937781 0
M  V30 6493 H 641.63 -4.33796 -0.0187856 0
M  V30 6494 H 642.301 -5.36785 -1.28707 0
M  V30 6495 H 644.777 -3.60824 -2.07232 0
M  V30 6496 H 643.653 -4.52303 -3.10987 0
M  V30 6497 H 643.914 -2.81231 -3.41118 0
M  V30 6498 N 642.974 0.416227 -1.52004 0
M  V30 6499 C 644.222 1.16153 -1.65387 0
M  V30 6500 C 644.543 1.91208 -0.382669 0
M  V30 6501 O 643.813 1.86413 0.602231 0
M  V30 6502 H 642.393 0.431765 -0.60958 0
M  V30 6503 H 645.055 0.475151 -1.89019 0
M  V30 6504 H 644.151 1.87952 -2.4916 0
M  V30 6505 N 644.452 1.42507 0.673017 0
M  V30 6506 C 645.382 1.48916 1.79851 0
M  V30 6507 C 646.363 0.345566 1.66553 0
M  V30 6508 O 647.548 0.560116 1.85947 0
M  V30 6509 C 644.678 1.39258 3.18158 0
M  V30 6510 C 643.632 2.51662 3.46194 0
M  V30 6511 C 642.958 2.27062 4.84094 0
M  V30 6512 C 644.258 3.93968 3.42909 0
M  V30 6513 H 645.952 2.43114 1.74745 0
M  V30 6514 H 643.498 1.17013 0.839288 0
M  V30 6515 H 645.451 1.42349 3.96629 0
M  V30 6516 H 644.175 0.415542 3.23946 0
M  V30 6517 H 642.834 2.47891 2.70084 0
M  V30 6518 H 642.482 1.27648 4.86534 0
M  V30 6519 H 642.182 3.02398 5.03815 0
M  V30 6520 H 643.706 2.31905 5.64847 0
M  V30 6521 H 645.12 3.99332 4.11347 0
M  V30 6522 H 643.517 4.6917 3.74165 0
M  V30 6523 H 644.587 4.20512 2.41449 0
M  V30 6524 N 645.93 -0.909495 1.28709 0
M  V30 6525 C 647.176 -1.66151 1.16283 0
M  V30 6526 C 647.509 -1.92067 -0.287069 0
M  V30 6527 O 646.784 -1.52409 -1.20837 0
M  V30 6528 C 647.067 -3.01676 1.9663 0
M  V30 6529 C 646.92 -2.82888 3.49707 0
M  V30 6530 C 648.239 -4.02274 1.78504 0
M  V30 6531 H 645.358 -0.602966 0.423793 0
M  V30 6532 H 648 -1.05418 1.58073 0
M  V30 6533 H 646.15 -3.53515 1.61119 0
M  V30 6534 H 647.822 -2.38026 3.95147 0
M  V30 6535 H 646.065 -2.17862 3.75125 0
M  V30 6536 H 646.736 -3.79147 4.01187 0
M  V30 6537 H 649.212 -3.59511 2.09503 0
M  V30 6538 H 648.088 -4.95056 2.37088 0
M  V30 6539 H 648.349 -4.35903 0.737647 0
M  V30 6540 N 647.408 -1.11026 -1.11852 0
M  V30 6541 C 648.34 -0.72249 -2.17515 0
M  V30 6542 C 649.353 0.243782 -1.60964 0
M  V30 6543 O 650.542 0.0273252 -1.78479 0
M  V30 6544 C 647.642 -0.0463979 -3.38868 0
M  V30 6545 C 646.815 -1.0384 -4.24895 0
M  V30 6546 C 645.874 -0.392659 -5.24733 0
M  V30 6547 O 644.9 -1.0453 -5.5952 0
M  V30 6548 N 646.102 0.846296 -5.74298 0
M  V30 6549 H 648.867 -1.63161 -2.51393 0
M  V30 6550 H 646.428 -0.999899 -1.27333 0
M  V30 6551 H 648.42 0.397215 -4.02746 0
M  V30 6552 H 646.99 0.765231 -3.03089 0
M  V30 6553 H 646.21 -1.6601 -3.57539 0
M  V30 6554 H 647.498 -1.70968 -4.79215 0
M  V30 6555 H 646.896 1.39578 -5.4821 0
M  V30 6556 H 645.453 1.23296 -6.40032 0
M  V30 6557 N 648.886 1.2938 -0.899927 0
M  V30 6558 C 650.134 1.95164 -0.524924 0
M  V30 6559 C 650.455 1.71292 0.931888 0
M  V30 6560 O 649.725 1.04481 1.65712 0
M  V30 6561 H 648.305 0.722133 -0.191135 0
M  V30 6562 H 650.967 1.57628 -1.14627 0
M  V30 6563 H 650.063 3.0397 -0.707711 0
M  V30 6564 N 650.364 0.662433 1.43002 0
M  V30 6565 C 651.592 0.187615 2.06048 0
M  V30 6566 C 652.007 -1.15039 1.49705 0
M  V30 6567 O 651.364 -1.71209 0.631956 0
M  V30 6568 C 651.415 0.100498 3.6136 0
M  V30 6569 O 651.136 1.38562 4.15611 0
M  V30 6570 C 652.637 -0.399298 4.41498 0
M  V30 6571 H 649.857 0.0941675 0.664359 0
M  V30 6572 H 652.401 0.905681 1.83351 0
M  V30 6573 H 650.556 -0.568181 3.83211 0
M  V30 6574 H 650.97 1.25084 5.09366 0
M  V30 6575 H 652.444 -0.409187 5.50481 0
M  V30 6576 H 652.921 -1.43232 4.15188 0
M  V30 6577 H 653.527 0.23721 4.24638 0
M  V30 6578 N 651.842 -1.52309 0.404946 0
M  V30 6579 C 653.07 -2.06185 -0.171818 0
M  V30 6580 C 653.485 -1.27536 -1.39212 0
M  V30 6581 O 652.842 -0.326112 -1.79563 0
M  V30 6582 C 652.893 -3.57647 -0.526417 0
M  V30 6583 O 652.614 -4.3332 0.645417 0
M  V30 6584 C 654.115 -4.27925 -1.15736 0
M  V30 6585 H 651.335 -0.670632 -0.0222328 0
M  V30 6586 H 653.879 -1.96259 0.574692 0
M  V30 6587 H 652.034 -3.67595 -1.22282 0
M  V30 6588 H 652.448 -5.23328 0.35042 0
M  V30 6589 H 653.922 -5.35093 -1.35572 0
M  V30 6590 H 654.399 -3.84134 -2.12926 0
M  V30 6591 H 655.005 -4.22335 -0.501281 0
M  V30 6592 N 653.32 -0.135238 -1.57019 0
M  V30 6593 C 654.731 0.387521 -1.82634 0
M  V30 6594 C 655.082 1.65528 -1.05332 0
M  V30 6595 O 654.207 2.14381 -0.294926 0
M  V30 6596 C 654.802 0.709852 -3.3128 0
M  V30 6597 C 653.361 1.17718 -3.57518 0
M  V30 6598 C 652.508 0.194183 -2.76619 0
M  V30 6599 H 655.459 -0.360126 -1.5456 0
M  V30 6600 H 655.48 1.5657 -3.46794 0
M  V30 6601 H 654.992 -0.213024 -3.87515 0
M  V30 6602 H 653.093 2.1164 -3.06658 0
M  V30 6603 H 653.206 1.11128 -4.66034 0
M  V30 6604 H 651.57 0.684478 -2.4533 0
M  V30 6605 H 652.353 -0.722076 -3.3562 0
M  V30 6606 N 654.798 1.5699 0.138552 0
M  V30 6607 C 656.044 1.84081 0.85099 0
M  V30 6608 C 656.377 0.718107 1.80435 0
M  V30 6609 O 655.652 -0.277633 1.92508 0
M  V30 6610 C 655.935 3.21699 1.61808 0
M  V30 6611 C 655.788 4.44544 0.685633 0
M  V30 6612 C 657.107 3.5664 2.57868 0
M  V30 6613 H 654.226 0.669592 0.307922 0
M  V30 6614 H 656.868 1.89646 0.11588 0
M  V30 6615 H 655.018 3.17086 2.24474 0
M  V30 6616 H 656.69 4.61248 0.0693179 0
M  V30 6617 H 654.933 4.338 -0.00421993 0
M  V30 6618 H 655.604 5.3746 1.25858 0
M  V30 6619 H 658.08 3.61918 2.05316 0
M  V30 6620 H 656.956 4.53946 3.08584 0
M  V30 6621 H 657.217 2.83036 3.39622 0
M  V30 6622 N 656.276 -0.40816 1.52223 0
M  V30 6623 C 657.206 -1.5042 1.78595 0
M  V30 6624 C 658.187 -1.57723 0.636974 0
M  V30 6625 O 659.372 -1.72982 0.882664 0
M  V30 6626 C 656.502 -2.88232 1.93751 0
M  V30 6627 C 655.456 -2.95779 3.09352 0
M  V30 6628 C 654.782 -4.35855 3.09732 0
M  V30 6629 C 656.082 -2.67175 4.48793 0
M  V30 6630 H 657.776 -1.28601 2.70374 0
M  V30 6631 H 655.322 -0.617221 1.30101 0
M  V30 6632 H 657.275 -3.64895 2.10783 0
M  V30 6633 H 655.999 -3.11347 0.986443 0
M  V30 6634 H 654.658 -2.21561 2.92072 0
M  V30 6635 H 654.306 -4.55981 2.12346 0
M  V30 6636 H 654.006 -4.41829 3.87377 0
M  V30 6637 H 655.53 -5.14451 3.28895 0
M  V30 6638 H 656.944 -3.3356 4.66273 0
M  V30 6639 H 655.341 -2.84523 5.28362 0
M  V30 6640 H 656.411 -1.62609 4.56822 0
M  V30 6641 N 657.755 -1.42862 -0.66545 0
M  V30 6642 C 658.687 -1.43026 -1.79098 0
M  V30 6643 C 659.7 -0.32803 -1.59461 0
M  V30 6644 O 660.889 -0.591709 -1.68407 0
M  V30 6645 C 657.989 -1.21566 -3.16346 0
M  V30 6646 C 657.162 -2.44399 -3.62751 0
M  V30 6647 C 656.221 -2.18344 -4.78761 0
M  V30 6648 O 655.247 -2.91611 -4.88827 0
M  V30 6649 N 656.449 -1.1924 -5.68122 0
M  V30 6650 H 659.214 -2.40045 -1.79439 0
M  V30 6651 H 656.775 -1.37861 -0.848872 0
M  V30 6652 H 658.767 -1.02037 -3.91625 0
M  V30 6653 H 657.337 -0.330368 -3.10849 0
M  V30 6654 H 656.557 -2.79433 -2.78048 0
M  V30 6655 H 657.845 -3.26173 -3.90498 0
M  V30 6656 H 657.243 -0.586603 -5.6265 0
M  V30 6657 H 655.8 -1.05698 -6.43173 0
M  V30 6658 N 659.233 0.902656 -1.29189 0
M  V30 6659 C 660.481 1.6496 -1.16758 0
M  V30 6660 C 660.802 1.92952 0.28188 0
M  V30 6661 O 660.072 1.55351 1.19344 0
M  V30 6662 H 658.652 0.611447 -0.429118 0
M  V30 6663 H 661.314 1.0825 -1.62074 0
M  V30 6664 H 660.41 2.60728 -1.71544 0
M  V30 6665 N 660.711 1.11618 1.11262 0
M  V30 6666 C 661.641 0.79846 2.19424 0
M  V30 6667 C 662.622 -0.234003 1.68483 0
M  V30 6668 O 663.807 -0.0970704 1.93957 0
M  V30 6669 C 660.937 0.242892 3.4645 0
M  V30 6670 C 659.891 1.20744 4.10615 0
M  V30 6671 C 659.217 0.512494 5.32238 0
M  V30 6672 C 660.517 2.55884 4.55325 0
M  V30 6673 H 662.211 1.70286 2.46258 0
M  V30 6674 H 659.757 0.820195 1.18359 0
M  V30 6675 H 661.71 0.00840447 4.21399 0
M  V30 6676 H 660.434 -0.696811 3.1908 0
M  V30 6677 H 659.093 1.42759 3.37662 0
M  V30 6678 H 658.741 -0.432075 5.01141 0
M  V30 6679 H 658.441 1.15583 5.7612 0
M  V30 6680 H 659.965 0.286842 6.09926 0
M  V30 6681 H 661.379 2.37946 5.21588 0
M  V30 6682 H 659.776 3.16216 5.10027 0
M  V30 6683 H 660.846 3.14968 3.68678 0
M  V30 6684 N 662.189 -1.289 0.906776 0
M  V30 6685 C 663.137 -2.29477 0.379873 0
M  V30 6686 C 664.131 -1.61068 -0.524747 0
M  V30 6687 O 665.337 -1.75344 -0.406765 0
M  V30 6688 H 661.712 -0.744742 0.10423 0
M  V30 6689 H 663.683 -2.71353 1.24137 0
M  V30 6690 C 662.432 -3.45713 -0.371154 0
M  V30 6691 H 661.755 -3.98551 0.315716 0
M  V30 6692 H 663.195 -4.18105 -0.704581 0
M  V30 6693 C 661.654 -2.9774 -1.57646 0
M  V30 6694 O 662.184 -2.99618 -2.67567 0
M  V30 6695 N 660.39 -2.53485 -1.42105 0
M  V30 6696 H 659.937 -2.52156 -0.526783 0
M  V30 6697 H 659.895 -2.21747 -2.22881 0
M  V30 6698 N 663.667 -0.670007 -1.42649 0
M  V30 6699 C 664.915 -0.18991 -2.01206 0
M  V30 6700 C 665.236 1.20617 -1.53221 0
M  V30 6701 O 664.506 1.80898 -0.751856 0
M  V30 6702 H 663.086 -0.0672189 -0.743969 0
M  V30 6703 H 665.748 -0.865442 -1.74631 0
M  V30 6704 H 664.844 -0.187481 -3.11536 0
M  V30 6705 N 665.145 1.52092 -0.413018 0
M  V30 6706 C 666.108 2.25706 0.398687 0
M  V30 6707 C 667.108 1.28221 0.970368 0
M  V30 6708 O 668.298 1.52131 0.848635 0
M  V30 6709 C 665.43 3.03029 1.5616 0
M  V30 6710 H 666.623 2.98888 -0.246131 0
M  V30 6711 H 664.176 1.5542 -0.165622 0
M  V30 6712 H 664.911 2.34205 2.24317 0
M  V30 6713 H 664.696 3.74606 1.15812 0
M  V30 6714 H 666.186 3.58857 2.13569 0
M  V30 6715 N 666.623 0.143563 1.56945 0
M  V30 6716 C 667.869 -0.50916 1.96304 0
M  V30 6717 C 668.202 -1.64741 1.0283 0
M  V30 6718 O 667.477 -1.94374 0.0700361 0
M  V30 6719 C 667.76 -1.0186 3.45393 0
M  V30 6720 C 667.613 0.117923 4.49645 0
M  V30 6721 C 668.932 -1.90151 3.96901 0
M  V30 6722 H 666.051 -0.183608 0.713763 0
M  V30 6723 H 668.693 0.224095 1.88674 0
M  V30 6724 H 666.843 -1.64345 3.52027 0
M  V30 6725 H 668.515 0.754145 4.55094 0
M  V30 6726 H 666.758 0.777568 4.26774 0
M  V30 6727 H 667.429 -0.280187 5.51288 0
M  V30 6728 H 669.905 -1.375 3.92725 0
M  V30 6729 H 668.781 -2.22707 5.0169 0
M  V30 6730 H 669.042 -2.83718 3.39052 0
M  V30 6731 N 668.101 -1.57061 -0.130224 0
M  V30 6732 C 669.348 -1.84257 -0.839972 0
M  V30 6733 C 669.676 -0.726986 -1.80403 0
M  V30 6734 O 668.931 0.282632 -1.93648 0
M  V30 6735 C 669.23 -3.17878 -1.63365 0
M  V30 6736 C 668.896 -4.43475 -0.814891 0
M  V30 6737 C 667.558 -4.77581 -0.589066 0
M  V30 6738 C 669.91 -5.20631 -0.243437 0
M  V30 6739 C 667.238 -5.86292 0.218648 0
M  V30 6740 C 669.59 -6.30192 0.551408 0
M  V30 6741 C 668.254 -6.62837 0.787653 0
M  V30 6742 H 667.524 -0.674245 -0.307367 0
M  V30 6743 H 670.171 -1.91224 -0.102832 0
M  V30 6744 H 668.476 -3.06437 -2.44138 0
M  V30 6745 H 670.173 -3.3614 -2.18658 0
M  V30 6746 H 666.763 -4.16747 -1.00098 0
M  V30 6747 H 670.947 -4.94644 -0.405145 0
M  V30 6748 H 666.203 -6.10017 0.411016 0
M  V30 6749 H 670.377 -6.89165 1.00126 0
M  V30 6750 H 668.004 -7.46908 1.41537 0
M  V30 6751 N 669.579 0.400081 -1.52437 0
M  V30 6752 C 670.995 0.739359 -1.41441 0
M  V30 6753 C 671.195 1.94512 -0.526053 0
M  V30 6754 O 670.251 2.525 0.00472502 0
M  V30 6755 C 671.564 0.984824 -2.84116 0
M  V30 6756 C 673.112 1.08698 -2.93519 0
M  V30 6757 C 673.587 1.36515 -4.37181 0
M  V30 6758 N 675.078 1.43361 -4.40457 0
M  V30 6759 C 675.813 1.66528 -5.48686 0
M  V30 6760 N 675.309 1.87239 -6.67018 0
M  V30 6761 N 677.102 1.68617 -5.36213 0
M  V30 6762 H 669.253 -0.393484 -2.08723 0
M  V30 6763 H 671.516 -0.1138 -0.941145 0
M  V30 6764 H 671.222 0.171096 -3.51284 0
M  V30 6765 H 671.096 1.90253 -3.25705 0
M  V30 6766 H 673.483 1.89129 -2.26526 0
M  V30 6767 H 673.564 0.147432 -2.55375 0
M  V30 6768 H 673.208 0.565982 -5.04737 0
M  V30 6769 H 673.138 2.31737 -4.7287 0
M  V30 6770 H 675.629 1.29108 -3.55161 0
M  V30 6771 H 675.942 2.04392 -7.45281 0
M  V30 6772 H 674.287 1.84486 -6.70067 0
M  V30 6773 H 677.478 1.5198 -4.42741 0
M  V30 6774 H 677.651 1.86332 -6.20632 0
M  V30 6775 N 671.057 1.43213 0.657864 0
M  V30 6776 C 672.468 1.39669 1.23893 0
M  V30 6777 C 672.819 0.0984217 1.95953 0
M  V30 6778 O 671.944 -0.8023 2.00978 0
M  V30 6779 C 672.539 2.53004 2.25332 0
M  V30 6780 C 671.098 2.5274 2.78926 0
M  V30 6781 C 670.245 2.30941 1.53497 0
M  V30 6782 H 673.196 1.52181 0.450172 0
M  V30 6783 H 673.217 2.24226 3.07413 0
M  V30 6784 H 672.729 3.4748 1.72856 0
M  V30 6785 H 670.83 1.6213 3.35477 0
M  V30 6786 H 670.943 3.50352 3.26787 0
M  V30 6787 H 669.307 1.7952 1.80678 0
M  V30 6788 H 670.09 3.27496 1.02963 0
M  V30 6789 N 672.536 -0.895792 1.29666 0
M  V30 6790 C 673.446 -2.03329 1.17024 0
M  V30 6791 C 674.462 -1.73753 0.0925962 0
M  V30 6792 O 675.638 -1.99071 0.305431 0
M  V30 6793 C 672.703 -3.36072 0.851841 0
M  V30 6794 C 671.764 -3.7914 2.01373 0
M  V30 6795 C 670.997 -5.05549 1.71043 0
M  V30 6796 O 671.22 -5.66874 0.633213 0
M  V30 6797 O 670.154 -5.44764 2.5596 0
M  V30 6798 H 673.98 -2.16918 2.12556 0
M  V30 6799 H 671.565 -1.02007 1.09156 0
M  V30 6800 H 673.447 -4.15729 0.689006 0
M  V30 6801 H 672.122 -3.23616 -0.0736634 0
M  V30 6802 H 671.029 -3.00233 2.23183 0
M  V30 6803 H 672.362 -3.96186 2.92058 0
M  V30 6804 N 674.014 -1.12206 -1.10668 0
M  V30 6805 C 675.26 -0.877172 -1.82848 0
M  V30 6806 C 675.593 0.595571 -1.84842 0
M  V30 6807 O 674.868 1.44013 -1.30731 0
M  V30 6808 C 675.151 -1.44957 -3.29635 0
M  V30 6809 C 675.004 -2.99051 -3.35989 0
M  V30 6810 C 676.323 -1.10714 -4.25946 0
M  V30 6811 H 673.442 -0.320103 -0.663854 0
M  V30 6812 H 676.084 -1.38827 -1.2972 0
M  V30 6813 H 674.234 -1.01488 -3.7501 0
M  V30 6814 H 675.906 -3.51182 -2.99113 0
M  V30 6815 H 674.149 -3.34705 -2.75962 0
M  V30 6816 H 674.82 -3.34194 -4.39339 0
M  V30 6817 H 677.296 -1.48254 -3.88793 0
M  V30 6818 H 676.172 -1.5343 -5.2702 0
M  V30 6819 H 676.433 -0.019 -4.42096 0
M  V30 6820 N 675.492 1.28418 -0.913599 0
M  V30 6821 C 676.903 1.77024 -0.593237 0
M  V30 6822 C 677.254 1.74779 0.891441 0
M  V30 6823 O 676.379 1.34237 1.69733 0
M  V30 6824 C 676.974 3.21456 -1.07011 0
M  V30 6825 C 675.533 3.67786 -0.800664 0
M  V30 6826 C 674.68 2.48185 -1.23691 0
M  V30 6827 H 677.631 1.14883 -1.09487 0
M  V30 6828 H 677.652 3.78269 -0.411481 0
M  V30 6829 H 677.164 3.23058 -2.1507 0
M  V30 6830 H 675.265 3.71644 0.266725 0
M  V30 6831 H 675.378 4.57934 -1.4083 0
M  V30 6832 H 673.742 2.46116 -0.655655 0
M  V30 6833 H 674.525 2.52506 -2.32585 0
M  V30 6834 N 676.97 0.677563 1.42291 0
M  V30 6835 C 677.9 0.014968 2.33495 0
M  V30 6836 C 678.881 -0.786376 1.50831 0
M  V30 6837 O 680.066 -0.742975 1.79426 0
M  V30 6838 C 677.196 -0.935023 3.34477 0
M  V30 6839 C 676.15 -0.242074 4.27315 0
M  V30 6840 C 675.476 -1.30519 5.18526 0
M  V30 6841 C 676.776 0.880604 5.14823 0
M  V30 6842 H 678.47 0.776671 2.89151 0
M  V30 6843 H 676.016 0.37494 1.39033 0
M  V30 6844 H 677.969 -1.40766 3.97194 0
M  V30 6845 H 676.693 -1.72818 2.77131 0
M  V30 6846 H 675.352 0.210351 3.65996 0
M  V30 6847 H 675 -2.09041 4.57505 0
M  V30 6848 H 674.7 -0.846652 5.81468 0
M  V30 6849 H 676.224 -1.7787 5.84119 0
M  V30 6850 H 677.638 0.489062 5.7121 0
M  V30 6851 H 676.035 1.26511 5.86613 0
M  V30 6852 H 677.105 1.72818 4.53059 0
M  V30 6853 N 678.448 -1.51871 0.421078 0
M  V30 6854 C 679.864 -1.59435 0.0725398 0
M  V30 6855 C 680.064 -1.43315 -1.41644 0
M  V30 6856 O 679.12 -1.26614 -2.18461 0
M  V30 6857 C 680.433 -2.9509 0.578132 0
M  V30 6858 C 681.981 -3.08356 0.537149 0
M  V30 6859 C 682.456 -4.4651 1.01945 0
M  V30 6860 N 683.947 -4.52784 0.976758 0
M  V30 6861 C 684.682 -5.57976 1.32099 0
M  V30 6862 N 684.178 -6.70664 1.73727 0
M  V30 6863 N 685.971 -5.48248 1.2402 0
M  V30 6864 H 678.122 -1.60595 1.39007 0
M  V30 6865 H 680.385 -0.756138 0.571803 0
M  V30 6866 H 680.091 -3.12205 1.61929 0
M  V30 6867 H 679.965 -3.772 -0.00578374 0
M  V30 6868 H 682.352 -2.90919 -0.494991 0
M  V30 6869 H 682.433 -2.28125 1.15727 0
M  V30 6870 H 682.077 -4.64692 2.04997 0
M  V30 6871 H 682.007 -5.25256 0.376023 0
M  V30 6872 H 684.498 -3.71898 0.670851 0
M  V30 6873 H 684.811 -7.46932 1.98274 0
M  V30 6874 H 683.156 -6.71914 1.77641 0
M  V30 6875 H 686.347 -4.59095 0.913756 0
M  V30 6876 H 686.52 -6.30119 1.51176 0
M  V30 6877 N 679.926 -0.151884 -1.56866 0
M  V30 6878 C 681.342 0.204486 -1.58285 0
M  V30 6879 C 681.542 1.6431 -1.16639 0
M  V30 6880 O 680.598 2.37077 -0.868946 0
M  V30 6881 C 681.911 -0.0587019 -3.00643 0
M  V30 6882 C 683.459 0.00462303 -3.13 0
M  V30 6883 C 683.934 -0.231297 -4.57416 0
M  V30 6884 N 685.425 -0.178394 -4.62856 0
M  V30 6885 C 686.16 -0.335379 -5.72418 0
M  V30 6886 N 685.656 -0.550355 -6.90611 0
M  V30 6887 N 687.449 -0.272641 -5.61438 0
M  V30 6888 H 679.6 -1.09116 -1.82229 0
M  V30 6889 H 681.863 -0.432311 -0.843689 0
M  V30 6890 H 681.569 -1.05453 -3.35518 0
M  V30 6891 H 681.443 0.658508 -3.71407 0
M  V30 6892 H 683.83 0.991009 -2.77962 0
M  V30 6893 H 683.911 -0.744992 -2.44711 0
M  V30 6894 H 683.555 -1.2148 -4.93158 0
M  V30 6895 H 683.485 0.5387 -5.23837 0
M  V30 6896 H 685.976 -0.0170923 -3.77896 0
M  V30 6897 H 686.289 -0.660116 -7.69976 0
M  V30 6898 H 684.634 -0.586736 -6.92519 0
M  V30 6899 H 687.825 -0.105421 -4.67981 0
M  V30 6900 H 687.998 -0.398418 -6.46774 0
M  V30 6901 N 681.404 1.57128 0.121893 0
M  V30 6902 C 682.681 1.75664 0.860327 0
M  V30 6903 C 683.061 0.726585 1.98202 0
M  V30 6904 O 682.409 -0.24999 2.27128 0
M  V30 6905 C 682.619 3.20571 1.37968 0
M  V30 6906 C 683.967 3.82988 1.83317 0
M  V30 6907 O 684.991 3.24156 1.47654 0
M  V30 6908 O 683.85 4.86393 2.49168 0
M  V30 6909 H 680.944 0.719153 0.408348 0
M  V30 6910 H 683.49 1.6937 0.105859 0
M  V30 6911 H 682.262 3.87056 0.57477 0
M  V30 6912 H 681.885 3.31392 2.19694 0
M  V30 6913 N 682.882 -0.391992 1.52647 0
M  V30 6914 C 683.812 -1.48517 1.8018 0
M  V30 6915 C 684.793 -1.57039 0.653667 0
M  V30 6916 O 685.978 -1.72036 0.900962 0
M  V30 6917 C 683.108 -2.86161 1.96797 0
M  V30 6918 C 682.062 -2.92481 3.12472 0
M  V30 6919 C 681.388 -4.32546 3.14338 0
M  V30 6920 C 682.688 -2.624 4.51601 0
M  V30 6921 H 684.382 -1.25726 2.71723 0
M  V30 6922 H 681.928 -0.603387 1.30749 0
M  V30 6923 H 683.881 -3.62639 2.14641 0
M  V30 6924 H 682.605 -3.10283 1.01941 0
M  V30 6925 H 681.264 -2.18451 2.94406 0
M  V30 6926 H 680.912 -4.53703 2.1717 0
M  V30 6927 H 680.612 -4.37695 3.92042 0
M  V30 6928 H 682.136 -5.10934 3.34333 0
M  V30 6929 H 683.55 -3.28596 4.69785 0
M  V30 6930 H 681.947 -2.78903 5.3135 0
M  V30 6931 H 683.017 -1.57754 4.58521 0
M  V30 6932 N 684.36 -1.4356 -0.65026 0
M  V30 6933 C 685.771 -1.40324 -1.2315 0
M  V30 6934 C 686.122 -0.108812 -1.95898 0
M  V30 6935 O 685.247 0.79163 -2.01401 0
M  V30 6936 C 685.842 -2.54195 -2.23987 0
M  V30 6937 C 684.401 -2.54215 -2.77582 0
M  V30 6938 C 683.548 -2.31752 -1.5227 0
M  V30 6939 H 686.499 -1.52418 -0.442095 0
M  V30 6940 H 686.52 -2.25854 -3.0622 0
M  V30 6941 H 686.032 -3.48392 -1.71011 0
M  V30 6942 H 684.133 -1.63907 -3.34612 0
M  V30 6943 H 684.246 -3.52081 -3.24925 0
M  V30 6944 H 682.61 -1.80476 -1.79723 0
M  V30 6945 H 683.393 -3.28037 -1.01225 0
M  V30 6946 N 685.838 0.888903 -1.30139 0
M  V30 6947 C 686.768 2.01046 -1.18755 0
M  V30 6948 C 687.749 1.69916 -0.0791438 0
M  V30 6949 O 688.934 1.92445 -0.260498 0
M  V30 6950 C 686.064 3.36109 -0.874518 0
M  V30 6951 C 685.018 3.81486 -1.94043 0
M  V30 6952 C 684.344 5.13796 -1.48047 0
M  V30 6953 C 685.644 4.00637 -3.35093 0
M  V30 6954 H 687.338 2.10828 -2.12584 0
M  V30 6955 H 684.884 1.01298 -1.02346 0
M  V30 6956 H 686.837 4.14089 -0.781548 0
M  V30 6957 H 685.561 3.26449 0.0994519 0
M  V30 6958 H 684.22 3.05731 -2.02297 0
M  V30 6959 H 683.868 5.0056 -0.494878 0
M  V30 6960 H 683.568 5.45127 -2.19341 0
M  V30 6961 H 685.092 5.94305 -1.40121 0
M  V30 6962 H 686.506 4.69067 -3.2962 0
M  V30 6963 H 684.903 4.43339 -4.04438 0
M  V30 6964 H 685.973 3.0462 -3.77273 0
M  V30 6965 N 687.317 1.12792 1.10072 0
M  V30 6966 C 688.247 0.821688 2.18565 0
M  V30 6967 C 689.228 -0.21612 1.68721 0
M  V30 6968 O 690.413 -0.0764932 1.94049 0
M  V30 6969 C 687.543 0.279624 3.46172 0
M  V30 6970 C 686.497 1.25092 4.09312 0
M  V30 6971 C 685.823 0.568916 5.31665 0
M  V30 6972 C 687.123 2.60699 4.52585 0
M  V30 6973 H 688.817 1.72888 2.44438 0
M  V30 6974 H 686.363 0.832702 1.17482 0
M  V30 6975 H 688.316 0.053099 4.21367 0
M  V30 6976 H 687.04 -0.662929 3.19801 0
M  V30 6977 H 685.699 1.46332 3.36129 0
M  V30 6978 H 685.347 -0.378898 5.01571 0
M  V30 6979 H 685.047 1.21687 5.74862 0
M  V30 6980 H 686.571 0.351517 6.09587 0
M  V30 6981 H 687.985 2.43465 5.19035 0
M  V30 6982 H 686.382 3.21608 5.06644 0
M  V30 6983 H 687.452 3.1886 3.65317 0
M  V30 6984 N 688.795 -1.27931 0.920396 0
M  V30 6985 C 689.725 -2.29487 0.431024 0
M  V30 6986 C 690.706 -1.62435 -0.504861 0
M  V30 6987 O 691.891 -1.89797 -0.411176 0
M  V30 6988 C 689.021 -3.45788 -0.323709 0
M  V30 6989 C 687.975 -4.24784 0.523658 0
M  V30 6990 C 687.301 -5.33488 -0.359809 0
M  V30 6991 C 688.601 -4.90874 1.78437 0
M  V30 6992 H 690.295 -2.70671 1.27975 0
M  V30 6993 H 687.841 -1.30121 0.616813 0
M  V30 6994 H 689.794 -4.15927 -0.676952 0
M  V30 6995 H 688.518 -3.03502 -1.2064 0
M  V30 6996 H 687.177 -3.56382 0.85951 0
M  V30 6997 H 686.825 -4.87445 -1.24124 0
M  V30 6998 H 686.525 -5.87247 0.203605 0
M  V30 6999 H 688.049 -6.06472 -0.708787 0
M  V30 7000 H 689.463 -5.53339 1.49963 0
M  V30 7001 H 687.86 -5.54659 2.29071 0
M  V30 7002 H 688.93 -4.14988 2.50824 0
M  V30 7003 N 690.273 -0.685099 -1.4193 0
M  V30 7004 C 691.52 -0.211658 -2.01391 0
M  V30 7005 C 691.848 1.18526 -1.54214 0
M  V30 7006 O 691.103 1.81189 -0.739519 0
M  V30 7007 C 691.402 -0.206154 -3.56805 0
M  V30 7008 C 691.068 -1.54915 -4.23453 0
M  V30 7009 C 689.73 -1.91684 -4.41373 0
M  V30 7010 C 692.082 -2.43317 -4.60919 0
M  V30 7011 C 689.41 -3.16461 -4.94034 0
M  V30 7012 C 691.762 -3.67415 -5.14965 0
M  V30 7013 C 690.426 -4.04341 -5.31098 0
M  V30 7014 H 689.696 -0.0774511 -0.736941 0
M  V30 7015 H 692.343 -0.882121 -1.69973 0
M  V30 7016 H 690.648 0.547841 -3.87951 0
M  V30 7017 H 692.345 0.17753 -4.00607 0
M  V30 7018 H 688.935 -1.25314 -4.09871 0
M  V30 7019 H 693.119 -2.16192 -4.46738 0
M  V30 7020 H 688.375 -3.45078 -5.04709 0
M  V30 7021 H 692.549 -4.3611 -5.42938 0
M  V30 7022 H 690.176 -5.01101 -5.71666 0
M  V30 7023 N 691.751 1.51645 -0.429126 0
M  V30 7024 C 693.167 1.59394 -0.080994 0
M  V30 7025 C 693.367 1.44064 1.40882 0
M  V30 7026 O 692.423 1.27771 2.17786 0
M  V30 7027 C 693.736 2.94779 -0.593773 0
M  V30 7028 C 695.284 3.08067 -0.553494 0
M  V30 7029 C 695.759 4.45963 -1.04311 0
M  V30 7030 N 697.25 4.5226 -1.00076 0
M  V30 7031 C 697.985 5.57268 -1.35056 0
M  V30 7032 N 697.481 6.69734 -1.77282 0
M  V30 7033 N 699.274 5.47582 -1.26925 0
M  V30 7034 H 691.425 1.59856 -1.39857 0
M  V30 7035 H 693.688 0.753095 -0.575805 0
M  V30 7036 H 693.394 3.11342 -1.63583 0
M  V30 7037 H 693.268 3.77197 -0.0142202 0
M  V30 7038 H 695.655 2.91177 0.479556 0
M  V30 7039 H 695.736 2.27508 -1.16935 0
M  V30 7040 H 695.38 4.63598 -2.07459 0
M  V30 7041 H 695.31 5.25049 -0.403873 0
M  V30 7042 H 697.801 3.71537 -0.690564 0
M  V30 7043 H 698.114 7.4587 -2.02232 0
M  V30 7044 H 696.459 6.70963 -1.81202 0
M  V30 7045 H 699.65 4.58604 -0.93809 0
M  V30 7046 H 699.823 6.29308 -1.54516 0
M  V30 7047 N 693.229 0.160201 1.56784 0
M  V30 7048 C 694.457 -0.494165 2.00912 0
M  V30 7049 C 694.872 -1.57548 1.04038 0
M  V30 7050 O 694.229 -1.82457 0.0394581 0
M  V30 7051 C 694.28 -1.08271 3.44905 0
M  V30 7052 O 694.001 -0.0445704 4.38077 0
M  V30 7053 C 695.502 -1.8164 4.04378 0
M  V30 7054 H 692.722 -0.127498 0.658776 0
M  V30 7055 H 695.266 0.258665 2.02858 0
M  V30 7056 H 693.421 -1.78609 3.4377 0
M  V30 7057 H 693.835 -0.477544 5.22322 0
M  V30 7058 H 695.309 -2.18094 5.07089 0
M  V30 7059 H 695.786 -2.70727 3.45838 0
M  V30 7060 H 696.392 -1.15969 4.09184 0
M  V30 7061 N 694.707 -1.5719 -0.113559 0
M  V30 7062 C 695.639 -1.97393 -1.16484 0
M  V30 7063 C 696.652 -0.873964 -1.37352 0
M  V30 7064 O 697.841 -1.15222 -1.36331 0
M  V30 7065 C 694.941 -2.26174 -2.52386 0
M  V30 7066 C 694.114 -3.57479 -2.52046 0
M  V30 7067 C 693.173 -3.74409 -3.69735 0
M  V30 7068 O 692.199 -4.46463 -3.53071 0
M  V30 7069 N 693.401 -3.13588 -4.88511 0
M  V30 7070 H 696.166 -2.88184 -0.822814 0
M  V30 7071 H 693.727 -1.59044 -0.302769 0
M  V30 7072 H 695.719 -2.3471 -3.29687 0
M  V30 7073 H 694.289 -1.41483 -2.7875 0
M  V30 7074 H 693.509 -3.60081 -1.60421 0
M  V30 7075 H 694.797 -4.43775 -2.48881 0
M  V30 7076 H 694.195 -2.55026 -5.04953 0
M  V30 7077 H 692.752 -3.27637 -5.63469 0
M  V30 7078 N 696.185 0.383891 -1.52853 0
M  V30 7079 C 697.413 1.1495 -1.7203 0
M  V30 7080 C 697.828 1.83578 -0.440957 0
M  V30 7081 O 697.185 1.72872 0.584925 0
M  V30 7082 C 697.236 2.19368 -2.87333 0
M  V30 7083 O 696.957 1.53536 -4.10315 0
M  V30 7084 C 698.458 3.08616 -3.18231 0
M  V30 7085 H 695.678 0.344445 -0.575846 0
M  V30 7086 H 698.222 0.448397 -1.99524 0
M  V30 7087 H 696.377 2.85105 -2.62286 0
M  V30 7088 H 696.791 2.2296 -4.74752 0
M  V30 7089 H 698.265 3.77902 -4.02361 0
M  V30 7090 H 698.742 3.72409 -2.32826 0
M  V30 7091 H 699.348 2.48518 -3.45136 0
M  V30 7092 N 697.663 1.43903 0.642637 0
M  V30 7093 C 698.888 1.49758 1.43483 0
M  V30 7094 C 699.313 0.119911 1.87717 0
M  V30 7095 O 698.671 -0.888558 1.58033 0
M  V30 7096 C 698.719 2.45744 2.63898 0
M  V30 7097 O 697.823 1.95101 3.63331 0
M  V30 7098 H 697.164 0.506138 0.429791 0
M  V30 7099 H 699.694 1.88923 0.785438 0
M  V30 7100 H 699.704 2.63399 3.11584 0
M  V30 7101 H 698.379 3.45818 2.31046 0
M  V30 7102 H 696.956 1.87158 3.22531 0
M  V30 7103 N 699.141 -0.881989 1.30609 0
M  V30 7104 C 700.418 -1.61563 1.10258 0
M  V30 7105 C 700.798 -2.08228 -0.347053 0
M  V30 7106 O 700.146 -1.85151 -1.33908 0
M  V30 7107 C 700.356 -2.78287 2.10612 0
M  V30 7108 C 701.704 -3.48545 2.4249 0
M  V30 7109 O 702.728 -2.88479 2.08945 0
M  V30 7110 O 701.587 -4.56873 2.99883 0
M  V30 7111 H 698.681 -0.710238 0.423663 0
M  V30 7112 H 701.227 -0.928503 1.42045 0
M  V30 7113 H 699.999 -2.41131 3.08174 0
M  V30 7114 H 699.622 -3.54695 1.79659 0
M  V30 7115 N 700.619 -1.13374 -1.09472 0
M  V30 7116 C 702.03 -0.90801 -1.63132 0
M  V30 7117 C 702.381 0.555576 -1.8817 0
M  V30 7118 O 701.506 1.42218 -1.63104 0
M  V30 7119 C 702.101 -1.64182 -2.96361 0
M  V30 7120 C 700.66 -1.46197 -3.46848 0
M  V30 7121 C 699.807 -1.67134 -2.21273 0
M  V30 7122 H 702.758 -1.2871 -0.928411 0
M  V30 7123 H 702.779 -1.09863 -3.64294 0
M  V30 7124 H 702.291 -2.707 -2.78106 0
M  V30 7125 H 700.392 -0.419788 -3.70228 0
M  V30 7126 H 700.505 -2.22472 -4.24315 0
M  V30 7127 H 698.869 -1.09616 -2.29905 0
M  V30 7128 H 699.652 -2.74971 -2.05538 0
M  V30 7129 N 702.098 1.27442 -0.927168 0
M  V30 7130 C 703.061 2.2512 -0.430525 0
M  V30 7131 C 704.061 1.54357 0.450619 0
M  V30 7132 O 705.251 1.72371 0.251774 0
M  V30 7133 C 702.383 3.38763 0.381144 0
M  V30 7134 H 703.576 2.70569 -1.29354 0
M  V30 7135 H 701.129 1.39355 -0.707806 0
M  V30 7136 H 701.864 2.98695 1.263 0
M  V30 7137 H 701.649 3.91298 -0.250618 0
M  V30 7138 H 703.139 4.11364 0.719012 0
M  V30 7139 N 703.576 0.692616 1.41565 0
M  V30 7140 C 704.509 -0.025063 2.28186 0
M  V30 7141 C 705.487 -0.790912 1.42068 0
M  V30 7142 O 706.671 -0.782344 1.71498 0
M  V30 7143 C 703.798 -1.04285 3.22246 0
M  V30 7144 C 702.844 -0.370515 4.24888 0
M  V30 7145 S 703.677 0.884942 5.28137 0
M  V30 7146 C 704.833 -0.131324 6.25762 0
M  V30 7147 H 705.066 0.709626 2.88707 0
M  V30 7148 H 702.599 0.482783 1.46658 0
M  V30 7149 H 704.557 -1.62493 3.7697 0
M  V30 7150 H 703.218 -1.7501 2.60827 0
M  V30 7151 H 702.411 -1.13911 4.90959 0
M  V30 7152 H 702.013 0.138411 3.73744 0
M  V30 7153 H 704.305 -0.985527 6.70294 0
M  V30 7154 H 705.248 0.495384 7.06365 0
M  V30 7155 H 705.656 -0.484777 5.62415 0
M  V30 7156 N 705.054 -1.51416 0.437162 0
M  V30 7157 C 705.984 -2.30631 -0.364922 0
M  V30 7158 C 706.965 -1.36037 -1.02118 0
M  V30 7159 O 708.15 -1.64956 -1.02485 0
M  V30 7160 C 705.28 -3.1482 -1.46648 0
M  V30 7161 C 704.234 -4.17691 -0.933717 0
M  V30 7162 C 703.56 -4.904 -2.13101 0
M  V30 7163 C 704.86 -5.2229 0.0317201 0
M  V30 7164 H 706.554 -2.97932 0.29614 0
M  V30 7165 H 704.1 -1.4328 0.143865 0
M  V30 7166 H 706.053 -3.69017 -2.03481 0
M  V30 7167 H 704.777 -2.4534 -2.15583 0
M  V30 7168 H 703.436 -3.64545 -0.387602 0
M  V30 7169 H 703.084 -4.17423 -2.80654 0
M  V30 7170 H 702.784 -5.59962 -1.78092 0
M  V30 7171 H 704.308 -5.4742 -2.70487 0
M  V30 7172 H 705.722 -5.7156 -0.446302 0
M  V30 7173 H 704.119 -5.99378 0.29437 0
M  V30 7174 H 705.189 -4.75131 0.968447 0
M  V30 7175 N 706.532 -0.168513 -1.56696 0
M  V30 7176 C 707.943 0.348694 -1.83415 0
M  V30 7177 C 708.294 1.63257 -1.0882 0
M  V30 7178 O 707.419 2.13707 -0.340333 0
M  V30 7179 C 708.014 0.639423 -3.32711 0
M  V30 7180 C 706.573 1.10108 -3.59935 0
M  V30 7181 C 705.72 0.135464 -2.76969 0
M  V30 7182 H 708.671 -0.392829 -1.53761 0
M  V30 7183 H 708.692 1.49179 -3.50037 0
M  V30 7184 H 708.204 -0.295173 -3.86976 0
M  V30 7185 H 706.305 2.05088 -3.11079 0
M  V30 7186 H 706.418 1.01218 -4.68286 0
M  V30 7187 H 704.782 0.632286 -2.46727 0
M  V30 7188 H 705.565 -0.793104 -3.34013 0
M  V30 7189 N 708.01 1.57248 0.105221 0
M  V30 7190 C 709.238 1.89768 0.82437 0
M  V30 7191 C 709.653 0.761192 1.72775 0
M  V30 7192 O 709.01 -0.267342 1.80531 0
M  V30 7193 C 709.061 3.2184 1.64625 0
M  V30 7194 O 708.782 4.31115 0.779217 0
M  V30 7195 C 710.283 3.68155 2.46935 0
M  V30 7196 H 707.503 0.628031 0.236259 0
M  V30 7197 H 710.047 2.04321 0.085485 0
M  V30 7198 H 708.202 3.08915 2.33775 0
M  V30 7199 H 708.616 5.06897 1.34745 0
M  V30 7200 H 710.09 4.6329 3.00111 0
M  V30 7201 H 710.567 2.95492 3.24932 0
M  V30 7202 H 711.173 3.83914 1.83002 0
M  V30 7203 N 709.488 -0.375779 1.53054 0
M  V30 7204 C 710.421 -1.48187 1.7354 0
M  V30 7205 C 711.399 -1.5177 0.583495 0
M  V30 7206 O 712.583 -1.69976 0.81488 0
M  V30 7207 C 709.71 -2.86598 1.80497 0
M  V30 7208 C 708.756 -3.00784 3.02376 0
M  V30 7209 S 709.589 -2.70601 4.62099 0
M  V30 7210 C 710.745 -4.11181 4.71891 0
M  V30 7211 H 710.978 -1.30587 2.67085 0
M  V30 7212 H 708.511 -0.569485 1.43514 0
M  V30 7213 H 710.469 -3.66353 1.85192 0
M  V30 7214 H 709.13 -3.01514 0.880217 0
M  V30 7215 H 708.323 -4.02128 3.03824 0
M  V30 7216 H 707.925 -2.28939 2.95742 0
M  V30 7217 H 710.217 -5.0529 4.51319 0
M  V30 7218 H 711.16 -4.14742 5.73929 0
M  V30 7219 H 711.568 -3.97706 4.00612 0
M  V30 7220 N 710.966 -1.44241 -0.634997 0
M  V30 7221 C 712.215 -1.46102 -1.39058 0
M  V30 7222 C 712.528 -0.0959909 -1.95364 0
M  V30 7223 O 713.734 0.00788751 -2.71499 0
M  V30 7224 C 712.19 -2.57195 -2.51751 0
M  V30 7225 C 711.798 -3.99888 -2.01974 0
M  V30 7226 C 713.542 -2.68272 -3.28984 0
M  V30 7227 C 711.449 -5.02412 -3.11987 0
M  V30 7228 H 710.379 -0.543556 -0.522554 0
M  V30 7229 H 713.03 -1.70294 -0.683538 0
M  V30 7230 H 711.412 -2.26237 -3.25012 0
M  V30 7231 H 712.586 -4.40396 -1.35604 0
M  V30 7232 H 710.901 -3.93019 -1.37568 0
M  V30 7233 H 713.498 -3.42042 -4.10988 0
M  V30 7234 H 713.841 -1.73957 -3.78212 0
M  V30 7235 H 714.374 -2.98622 -2.62812 0
M  V30 7236 H 711.113 -5.98342 -2.67707 0
M  V30 7237 H 710.633 -4.66501 -3.77011 0
M  V30 7238 H 712.312 -5.25939 -3.76825 0
M  V30 7239 N 712.444 0.87505 -1.31075 0
M  V30 7240 C 713.692 1.62447 -1.20231 0
M  V30 7241 C 714.013 1.93506 0.240888 0
M  V30 7242 O 713.283 1.57847 1.16022 0
M  V30 7243 H 711.863 0.602207 -0.441991 0
M  V30 7244 H 714.525 1.04788 -1.64334 0
M  V30 7245 H 713.621 2.57031 -1.77036 0
M  V30 7246 N 713.922 1.13953 1.08869 0
M  V30 7247 C 714.852 0.844824 2.17681 0
M  V30 7248 C 715.833 -0.198213 1.68941 0
M  V30 7249 O 717.018 -0.0559073 1.9412 0
M  V30 7250 C 714.148 0.316325 3.45856 0
M  V30 7251 C 713.102 1.29426 4.07962 0
M  V30 7252 C 712.428 0.625275 5.31031 0
M  V30 7253 C 713.728 2.65484 4.49795 0
M  V30 7254 H 715.422 1.75471 2.42591 0
M  V30 7255 H 712.968 0.845116 1.16592 0
M  V30 7256 H 714.921 0.0977876 4.21287 0
M  V30 7257 H 713.645 -0.628972 3.20486 0
M  V30 7258 H 712.304 1.49889 3.34558 0
M  V30 7259 H 711.952 -0.325678 5.01945 0
M  V30 7260 H 711.652 1.27777 5.73539 0
M  V30 7261 H 713.176 0.416152 6.0918 0
M  V30 7262 H 714.59 2.48957 5.16424 0
M  V30 7263 H 712.987 3.26963 5.03205 0
M  V30 7264 H 714.057 3.22717 3.61914 0
M  V30 7265 N 715.4 -1.26948 0.933913 0
M  V30 7266 C 716.33 -2.29017 0.45534 0
M  V30 7267 C 717.311 -1.62961 -0.487605 0
M  V30 7268 O 718.496 -1.90223 -0.391022 0
M  V30 7269 C 715.626 -3.46112 -0.287015 0
M  V30 7270 C 714.58 -4.24205 0.568682 0
M  V30 7271 C 713.906 -5.3384 -0.303206 0
M  V30 7272 C 715.206 -4.88954 1.83633 0
M  V30 7273 H 716.9 -2.69298 1.30839 0
M  V30 7274 H 714.446 -1.29459 0.630579 0
M  V30 7275 H 716.399 -4.16622 -0.6328 0
M  V30 7276 H 715.123 -3.04765 -1.17414 0
M  V30 7277 H 713.782 -3.5545 0.897261 0
M  V30 7278 H 713.43 -4.88734 -1.18947 0
M  V30 7279 H 713.13 -5.86998 0.265879 0
M  V30 7280 H 714.654 -6.0719 -0.644423 0
M  V30 7281 H 716.068 -5.51717 1.55823 0
M  V30 7282 H 714.465 -5.52198 2.34941 0
M  V30 7283 H 715.535 -4.12305 2.55211 0
M  V30 7284 N 716.879 -0.700114 -1.41195 0
M  V30 7285 C 717.842 -0.0465706 -2.29153 0
M  V30 7286 C 718.842 0.703302 -1.44604 0
M  V30 7287 O 720.032 0.537513 -1.657 0
M  V30 7288 C 717.164 0.944324 -3.2756 0
M  V30 7289 H 718.357 -0.821064 -2.88442 0
M  V30 7290 H 715.91 -0.463869 -1.49258 0
M  V30 7291 H 716.645 1.74642 -2.73259 0
M  V30 7292 H 716.43 0.409701 -3.89954 0
M  V30 7293 H 717.92 1.39925 -3.9346 0
M  V30 7294 N 718.357 1.51182 -0.445186 0
M  V30 7295 C 719.267 2.31692 0.368255 0
M  V30 7296 C 720.283 1.40942 1.02036 0
M  V30 7297 O 721.459 1.74011 1.01401 0
M  V30 7298 C 718.524 3.14903 1.45041 0
M  V30 7299 C 717.585 4.21442 0.817615 0
M  V30 7300 C 716.818 5.00677 1.8482 0
M  V30 7301 O 717.041 4.80644 3.07145 0
M  V30 7302 O 715.975 5.84559 1.43438 0
M  V30 7303 H 719.801 3.0232 -0.289219 0
M  V30 7304 H 717.386 1.47951 -0.207555 0
M  V30 7305 H 719.268 3.66612 2.07783 0
M  V30 7306 H 717.943 2.47031 2.09182 0
M  V30 7307 H 716.85 3.73791 0.151931 0
M  V30 7308 H 718.183 4.9171 0.219564 0
M  V30 7309 N 719.835 0.176821 1.56605 0
M  V30 7310 C 720.798 -0.737429 2.17013 0
M  V30 7311 C 721.798 -1.15414 1.11965 0
M  V30 7312 O 722.988 -1.0702 1.37449 0
M  V30 7313 C 720.12 -2.00445 2.75744 0
M  V30 7314 H 721.313 -0.211455 2.99154 0
M  V30 7315 H 718.866 -0.0727582 1.56131 0
M  V30 7316 H 719.601 -2.57338 1.97352 0
M  V30 7317 H 719.386 -1.71456 3.52626 0
M  V30 7318 H 720.876 -2.65679 3.22187 0
M  V30 7319 N 721.313 -1.57302 -0.09688 0
M  V30 7320 C 722.561 -1.8563 -0.799117 0
M  V30 7321 C 722.882 -0.765263 -1.79356 0
M  V30 7322 O 722.152 0.208657 -1.94786 0
M  V30 7323 H 720.732 -0.684937 -0.298111 0
M  V30 7324 H 723.394 -1.9474 -0.0789341 0
M  V30 7325 H 722.49 -2.82305 -1.3308 0
M  V30 7326 N 722.791 0.367657 -1.53252 0
M  V30 7327 C 724.037 1.11216 -1.69584 0
M  V30 7328 C 724.37 1.89026 -0.445269 0
M  V30 7329 O 723.645 1.86342 0.557404 0
M  V30 7330 C 723.928 2.07308 -2.94441 0
M  V30 7331 C 723.781 1.3312 -4.2965 0
M  V30 7332 C 725.1 3.07459 -3.14892 0
M  V30 7333 H 722.219 0.40294 -0.617096 0
M  V30 7334 H 724.861 0.393201 -1.85887 0
M  V30 7335 H 723.011 2.68617 -2.80673 0
M  V30 7336 H 724.683 0.746111 -4.55226 0
M  V30 7337 H 722.926 0.633051 -4.29156 0
M  V30 7338 H 723.597 2.03443 -5.13142 0
M  V30 7339 H 726.073 2.56252 -3.27832 0
M  V30 7340 H 724.949 3.71919 -4.03693 0
M  V30 7341 H 725.21 3.77514 -2.30077 0
M  V30 7342 N 724.269 1.44576 0.627338 0
M  V30 7343 C 725.685 1.28546 0.945938 0
M  V30 7344 C 725.885 0.224003 2.00251 0
M  V30 7345 O 724.941 -0.388817 2.49488 0
M  V30 7346 C 726.254 2.65825 1.40561 0
M  V30 7347 C 727.802 2.73566 1.52088 0
M  V30 7348 C 728.277 4.11323 2.01438 0
M  V30 7349 N 729.768 4.13519 2.08702 0
M  V30 7350 C 730.503 5.16964 2.48065 0
M  V30 7351 N 729.999 6.30768 2.86538 0
M  V30 7352 N 731.792 5.04319 2.48232 0
M  V30 7353 H 723.943 2.1228 -0.0713567 0
M  V30 7354 H 726.206 0.947503 0.0307081 0
M  V30 7355 H 725.912 3.44591 0.703539 0
M  V30 7356 H 725.786 2.92969 2.37591 0
M  V30 7357 H 728.173 1.95116 2.21391 0
M  V30 7358 H 728.254 2.50159 0.534237 0
M  V30 7359 H 727.898 4.9025 1.32729 0
M  V30 7360 H 727.828 4.32109 3.0098 0
M  V30 7361 H 730.319 3.31385 1.81638 0
M  V30 7362 H 730.632 7.0551 3.15398 0
M  V30 7363 H 728.977 6.342 2.84281 0
M  V30 7364 H 732.168 4.14465 2.17569 0
M  V30 7365 H 732.341 5.85059 2.78585 0
M  V30 7366 N 725.747 -0.868086 1.31537 0
M  V30 7367 C 726.677 -1.99131 1.21939 0
M  V30 7368 C 727.658 -1.69768 0.106166 0
M  V30 7369 O 728.843 -1.92006 0.291081 0
M  V30 7370 C 725.973 -3.34676 0.927879 0
M  V30 7371 C 724.927 -3.7835 2.00088 0
M  V30 7372 C 724.253 -5.11375 1.56203 0
M  V30 7373 C 725.553 -3.95256 3.41424 0
M  V30 7374 H 727.247 -2.07419 2.15911 0
M  V30 7375 H 724.793 -0.996569 1.03945 0
M  V30 7376 H 726.746 -4.12793 0.847327 0
M  V30 7377 H 725.47 -3.26565 -0.0475042 0
M  V30 7378 H 724.129 -3.02474 2.07135 0
M  V30 7379 H 723.777 -4.99709 0.57445 0
M  V30 7380 H 723.477 -5.41568 2.27985 0
M  V30 7381 H 725.001 -5.92001 1.49558 0
M  V30 7382 H 726.415 -4.63764 3.3704 0
M  V30 7383 H 724.812 -4.36849 4.1144 0
M  V30 7384 H 725.882 -2.98579 3.82072 0
M  V30 7385 N 727.225 -1.14528 -1.08264 0
M  V30 7386 C 728.155 -0.856356 -2.1723 0
M  V30 7387 C 729.136 0.189251 -1.69044 0
M  V30 7388 O 730.321 0.0456119 -1.94146 0
M  V30 7389 C 727.451 -0.334662 -3.45684 0
M  V30 7390 C 726.405 -1.31588 -4.0727 0
M  V30 7391 C 725.731 -0.653428 -5.30692 0
M  V30 7392 C 727.031 -2.67866 -4.48381 0
M  V30 7393 H 728.725 -1.76755 -2.41657 0
M  V30 7394 H 726.271 -0.851287 -1.16143 0
M  V30 7395 H 728.224 -0.120128 -4.21229 0
M  V30 7396 H 726.948 0.611967 -3.20815 0
M  V30 7397 H 725.607 -1.51661 -3.33758 0
M  V30 7398 H 725.255 0.299054 -5.0211 0
M  V30 7399 H 724.955 -1.30817 -5.72853 0
M  V30 7400 H 726.479 -0.448453 -6.08951 0
M  V30 7401 H 727.893 -2.51692 -5.15096 0
M  V30 7402 H 726.29 -3.29627 -5.01464 0
M  V30 7403 H 727.36 -3.24632 -3.60198 0
M  V30 7404 N 728.703 1.26451 -0.940633 0
M  V30 7405 C 729.928 1.98407 -0.60412 0
M  V30 7406 C 730.353 1.69584 0.81382 0
M  V30 7407 O 729.711 0.943553 1.54812 0
M  V30 7408 C 729.759 3.50387 -0.852136 0
M  V30 7409 O 728.863 4.1233 0.076013 0
M  V30 7410 H 728.204 0.622466 -0.231153 0
M  V30 7411 H 730.734 1.60932 -1.26342 0
M  V30 7412 H 730.744 4.00614 -0.772816 0
M  V30 7413 H 729.419 3.70696 -1.88566 0
M  V30 7414 H 727.996 3.7286 -0.0543187 0
M  V30 7415 N 730.181 0.707592 1.40822 0
M  V30 7416 C 731.411 0.252706 2.05049 0
M  V30 7417 C 731.819 -1.10758 1.53393 0
M  V30 7418 O 731.162 -1.70567 0.682097 0
M  V30 7419 C 731.224 0.146001 3.59203 0
M  V30 7420 C 730.888 1.44027 4.33711 0
M  V30 7421 C 731.885 2.38058 4.62195 0
M  V30 7422 C 729.57 1.69698 4.72766 0
M  V30 7423 C 731.564 3.56013 5.28709 0
M  V30 7424 C 729.251 2.87936 5.39014 0
M  V30 7425 C 730.249 3.80915 5.66915 0
M  V30 7426 O 729.937 4.9708 6.31796 0
M  V30 7427 H 729.669 0.112784 0.666525 0
M  V30 7428 H 732.223 0.96417 1.81364 0
M  V30 7429 H 730.453 -0.621338 3.81676 0
M  V30 7430 H 732.142 -0.273275 4.04979 0
M  V30 7431 H 732.908 2.19487 4.32493 0
M  V30 7432 H 728.787 0.981835 4.50423 0
M  V30 7433 H 732.331 4.28604 5.50404 0
M  V30 7434 H 728.228 3.06419 5.68135 0
M  V30 7435 H 728.996 4.97053 6.50293 0
M  V30 7436 N 731.66 -1.50943 0.453197 0
M  V30 7437 C 732.592 -2.25922 -0.38623 0
M  V30 7438 C 733.605 -1.3055 -0.972652 0
M  V30 7439 O 734.794 -1.56191 -0.864097 0
M  V30 7440 C 731.894 -3.01176 -1.5539 0
M  V30 7441 C 731.067 -4.23768 -1.0835 0
M  V30 7442 C 730.126 -4.81466 -2.12313 0
M  V30 7443 O 729.152 -5.42875 -1.71101 0
M  V30 7444 N 730.354 -4.66889 -3.44956 0
M  V30 7445 H 733.119 -2.98601 0.256468 0
M  V30 7446 H 730.68 -1.59408 0.282965 0
M  V30 7447 H 732.672 -3.36659 -2.24594 0
M  V30 7448 H 731.242 -2.31409 -2.10163 0
M  V30 7449 H 730.462 -3.93597 -0.217961 0
M  V30 7450 H 731.75 -5.03289 -0.746857 0
M  V30 7451 H 731.148 -4.18011 -3.81161 0
M  V30 7452 H 729.705 -5.06691 -4.1001 0
M  V30 7453 N 733.138 -0.185124 -1.56509 0
M  V30 7454 C 734.366 0.462139 -2.01673 0
M  V30 7455 C 734.781 1.55873 -1.06532 0
M  V30 7456 O 734.138 1.82371 -0.0684805 0
M  V30 7457 C 734.189 1.0277 -3.46584 0
M  V30 7458 O 733.91 -0.0251296 -4.38093 0
M  V30 7459 C 735.411 1.75183 -4.07217 0
M  V30 7460 H 732.631 0.117001 -0.660721 0
M  V30 7461 H 735.175 -0.290905 -2.0242 0
M  V30 7462 H 733.33 1.73118 -3.46568 0
M  V30 7463 H 733.744 0.394387 -5.23015 0
M  V30 7464 H 735.218 2.09999 -5.10494 0
M  V30 7465 H 735.695 2.6519 -3.50101 0
M  V30 7466 H 736.301 1.09445 -4.10977 0
M  V30 7467 N 734.616 1.57351 0.0885366 0
M  V30 7468 C 735.841 1.91011 0.80805 0
M  V30 7469 C 736.266 0.780009 1.71165 0
M  V30 7470 O 735.624 -0.268083 1.79307 0
M  V30 7471 C 735.672 3.23562 1.59185 0
M  V30 7472 O 734.776 3.11615 2.7013 0
M  V30 7473 H 734.117 0.625943 0.221565 0
M  V30 7474 H 736.647 2.04507 0.0617954 0
M  V30 7475 H 736.657 3.5703 1.97468 0
M  V30 7476 H 735.332 4.05398 0.928741 0
M  V30 7477 H 733.909 2.89673 2.34827 0
M  V30 7478 N 736.094 -0.359525 1.53444 0
M  V30 7479 C 737.024 -1.44662 1.8329 0
M  V30 7480 C 738.005 -1.55617 0.68683 0
M  V30 7481 O 739.19 -1.70086 0.93725 0
M  V30 7482 C 736.32 -2.81923 2.02822 0
M  V30 7483 C 735.274 -2.85787 3.18606 0
M  V30 7484 C 734.6 -4.25781 3.23442 0
M  V30 7485 C 735.9 -2.52762 4.57065 0
M  V30 7486 H 737.594 -1.19934 2.74329 0
M  V30 7487 H 735.14 -0.575517 1.31999 0
M  V30 7488 H 737.093 -3.58005 2.22285 0
M  V30 7489 H 735.817 -3.08051 1.085 0
M  V30 7490 H 734.476 -2.12157 2.98973 0
M  V30 7491 H 734.124 -4.48994 2.26745 0
M  V30 7492 H 733.824 -4.29281 4.01238 0
M  V30 7493 H 735.348 -5.03727 3.45096 0
M  V30 7494 H 736.762 -3.18557 4.76649 0
M  V30 7495 H 735.159 -2.67569 5.37147 0
M  V30 7496 H 736.229 -1.47993 4.61764 0
M  V30 7497 N 737.572 -1.44907 -0.619662 0
M  V30 7498 C 738.818 -1.48512 -1.38102 0
M  V30 7499 C 739.151 -0.121686 -1.93818 0
M  V30 7500 O 738.426 0.862256 -1.74343 0
M  V30 7501 C 738.709 -2.55469 -2.53787 0
M  V30 7502 C 738.562 -4.01212 -2.03345 0
M  V30 7503 C 739.881 -2.58821 -3.55949 0
M  V30 7504 H 737 -0.540712 -0.500799 0
M  V30 7505 H 739.642 -1.7665 -0.69962 0
M  V30 7506 H 737.792 -2.31606 -3.11915 0
M  V30 7507 H 739.464 -4.36245 -1.49959 0
M  V30 7508 H 737.707 -4.12443 -1.34438 0
M  V30 7509 H 738.378 -4.71717 -2.86683 0
M  V30 7510 H 740.854 -2.80172 -3.07641 0
M  V30 7511 H 739.73 -3.35542 -4.34399 0
M  V30 7512 H 739.991 -1.63451 -4.10775 0
M  V30 7513 N 739.05 0.861098 -1.31996 0
M  V30 7514 C 740.275 1.65264 -1.2531 0
M  V30 7515 C 740.7 1.87265 0.177007 0
M  V30 7516 O 740.058 1.4208 1.12619 0
M  V30 7517 C 740.106 2.99284 -2.0115 0
M  V30 7518 O 739.21 3.89508 -1.3549 0
M  V30 7519 H 738.551 0.50409 -0.432192 0
M  V30 7520 H 741.081 1.07297 -1.74208 0
M  V30 7521 H 741.091 3.49154 -2.11081 0
M  V30 7522 H 739.766 2.82591 -3.05148 0
M  V30 7523 H 738.343 3.47966 -1.34066 0
M  V30 7524 N 740.528 1.15101 1.07655 0
M  V30 7525 C 741.805 0.834578 1.76902 0
M  V30 7526 C 742.185 -0.670431 2.00171 0
M  V30 7527 O 741.533 -1.61378 1.6177 0
M  V30 7528 C 741.743 1.64191 3.07965 0
M  V30 7529 C 743.091 1.84615 3.82364 0
M  V30 7530 O 744.115 1.60941 3.17768 0
M  V30 7531 O 742.974 2.24244 4.98374 0
M  V30 7532 H 740.068 0.306608 0.768063 0
M  V30 7533 H 742.614 1.25663 1.14048 0
M  V30 7534 H 741.386 2.66386 2.86626 0
M  V30 7535 H 741.009 1.216 3.78549 0
M  V30 7536 N 742.006 -1.2595 0.947325 0
M  V30 7537 C 743.254 -1.93081 0.596996 0
M  V30 7538 C 743.575 -1.74632 -0.867672 0
M  V30 7539 O 742.845 -1.1056 -1.6172 0
M  V30 7540 H 741.425 -0.714542 0.217805 0
M  V30 7541 H 744.087 -1.53265 1.20398 0
M  V30 7542 H 743.183 -3.01134 0.82004 0
M  V30 7543 N 743.484 -0.715051 -1.40445 0
M  V30 7544 C 744.394 -0.0631624 -2.34515 0
M  V30 7545 C 745.41 0.744397 -1.57273 0
M  V30 7546 O 746.586 0.677475 -1.89663 0
M  V30 7547 C 743.651 0.847915 -3.36172 0
M  V30 7548 C 742.712 0.0303655 -4.29289 0
M  V30 7549 C 741.945 0.898051 -5.2609 0
M  V30 7550 O 742.168 2.13729 -5.28844 0
M  V30 7551 O 741.102 0.337328 -6.00954 0
M  V30 7552 H 744.928 -0.839078 -2.91879 0
M  V30 7553 H 742.513 -0.475527 -1.4163 0
M  V30 7554 H 744.395 1.3698 -3.98515 0
M  V30 7555 H 743.07 1.60299 -2.81222 0
M  V30 7556 H 741.977 -0.536573 -3.70232 0
M  V30 7557 H 743.31 -0.686474 -4.87389 0
M  V30 7558 N 744.962 1.50701 -0.461195 0
M  V30 7559 C 746.19 2.06681 0.0951756 0
M  V30 7560 C 746.605 1.32615 1.34382 0
M  V30 7561 O 745.962 0.392531 1.78229 0
M  V30 7562 C 746.013 3.59354 0.393316 0
M  V30 7563 O 745.734 4.30626 -0.805797 0
M  V30 7564 C 747.235 4.31926 0.997744 0
M  V30 7565 H 744.455 0.670995 -0.00267259 0
M  V30 7566 H 746.999 1.93991 -0.647137 0
M  V30 7567 H 745.154 3.7188 1.08555 0
M  V30 7568 H 745.568 5.21667 -0.544409 0
M  V30 7569 H 747.042 5.39756 1.15619 0
M  V30 7570 H 747.519 3.91772 1.98523 0
M  V30 7571 H 748.125 4.23905 0.344188 0
M  V30 7572 N 746.441 0.193421 1.56409 0
M  V30 7573 C 747.687 -0.43983 1.98588 0
M  V30 7574 C 748.042 -1.59353 1.07816 0
M  V30 7575 O 747.335 -1.9121 0.122226 0
M  V30 7576 C 747.529 -0.949718 3.44551 0
M  V30 7577 C 747.358 0.153045 4.49439 0
M  V30 7578 C 746.128 0.610119 5.01603 0
M  V30 7579 C 748.326 0.961397 5.05234 0
M  V30 7580 N 746.308 1.69088 5.90155 0
M  V30 7581 C 747.679 1.8916 5.90439 0
M  V30 7582 C 749.734 1.004 4.87672 0
M  V30 7583 C 748.437 2.86086 6.5996 0
M  V30 7584 C 750.463 1.96131 5.57931 0
M  V30 7585 C 749.825 2.87895 6.42881 0
M  V30 7586 H 745.924 -0.128415 0.771384 0
M  V30 7587 H 748.508 0.29873 1.92395 0
M  V30 7588 H 746.679 -1.65772 3.51246 0
M  V30 7589 H 748.411 -1.55344 3.73698 0
M  V30 7590 H 745.166 0.203771 4.73161 0
M  V30 7591 H 745.59 2.23241 6.39134 0
M  V30 7592 H 750.232 0.308536 4.21673 0
M  V30 7593 H 747.95 3.56609 7.25159 0
M  V30 7594 H 751.536 2.00066 5.46319 0
M  V30 7595 H 750.416 3.60763 6.9629 0
M  V30 7596 N 747.919 -1.57396 -0.0801906 0
M  V30 7597 C 748.869 -1.9955 -1.10289 0
M  V30 7598 C 749.853 -0.876234 -1.34948 0
M  V30 7599 O 751.045 -1.14012 -1.35389 0
M  V30 7600 C 748.174 -2.43596 -2.419 0
M  V30 7601 C 747.26 -3.6224 -2.20551 0
M  V30 7602 N 747.651 -4.76693 -1.69109 0
M  V30 7603 C 745.949 -3.68627 -2.51059 0
M  V30 7604 C 746.65 -5.58577 -1.62379 0
M  V30 7605 N 745.626 -5.02178 -2.0813 0
M  V30 7606 H 749.428 -2.85483 -0.698335 0
M  V30 7607 H 746.942 -1.59837 -0.287395 0
M  V30 7608 H 748.939 -2.72031 -3.15919 0
M  V30 7609 H 747.599 -1.59047 -2.8308 0
M  V30 7610 H 748.61 -4.9915 -1.38092 0
M  V30 7611 H 745.287 -2.94772 -2.95661 0
M  V30 7612 H 746.677 -6.60447 -1.2353 0
M  V30 7613 N 749.397 0.351382 -1.53633 0
M  V30 7614 C 750.643 1.09411 -1.70754 0
M  V30 7615 C 750.976 1.88544 -0.465293 0
M  V30 7616 O 750.251 1.86923 0.537608 0
M  V30 7617 C 750.534 2.04173 -2.96623 0
M  V30 7618 C 750.387 1.28556 -4.31038 0
M  V30 7619 C 751.706 3.04102 -3.18136 0
M  V30 7620 H 748.825 0.396373 -0.621335 0
M  V30 7621 H 751.467 0.373464 -1.86293 0
M  V30 7622 H 749.617 2.65625 -2.83506 0
M  V30 7623 H 751.289 0.697786 -4.55992 0
M  V30 7624 H 749.532 0.587498 -4.29803 0
M  V30 7625 H 750.203 1.97989 -5.15271 0
M  V30 7626 H 752.679 2.5276 -3.30532 0
M  V30 7627 H 751.555 3.67616 -4.07615 0
M  V30 7628 H 751.816 3.75053 -2.34068 0
M  V30 7629 N 750.875 1.45233 0.611969 0
M  V30 7630 C 751.808 1.48056 1.73651 0
M  V30 7631 C 752.786 0.337373 1.59061 0
M  V30 7632 O 753.97 0.537222 1.80683 0
M  V30 7633 C 751.097 1.33144 3.11433 0
M  V30 7634 C 750.143 2.51272 3.44623 0
M  V30 7635 S 750.976 4.13754 3.39953 0
M  V30 7636 C 752.132 4.013 4.80322 0
M  V30 7637 H 752.365 2.43205 1.70993 0
M  V30 7638 H 749.898 1.32763 0.788246 0
M  V30 7639 H 751.856 1.25228 3.90932 0
M  V30 7640 H 750.517 0.394734 3.1161 0
M  V30 7641 H 749.71 2.36753 4.44932 0
M  V30 7642 H 749.312 2.56027 2.72629 0
M  V30 7643 H 751.604 3.66174 5.7002 0
M  V30 7644 H 752.547 5.01506 4.99897 0
M  V30 7645 H 752.955 3.3303 4.55797 0
M  V30 7646 N 752.353 -0.854086 1.3245 0
M  V30 7647 C 753.601 -1.60513 1.228 0
M  V30 7648 C 753.922 -1.93865 -0.210073 0
M  V30 7649 O 753.192 -1.59673 -1.13496 0
M  V30 7650 H 751.772 -0.595099 0.451516 0
M  V30 7651 H 754.434 -1.0216 1.6598 0
M  V30 7652 H 753.53 -2.54182 1.81102 0
M  V30 7653 N 753.831 -1.1567 -1.07043 0
M  V30 7654 C 755.08 -0.928039 -1.79082 0
M  V30 7655 C 755.393 0.545968 -1.87826 0
M  V30 7656 O 756.599 0.892308 -2.56418 0
M  V30 7657 C 755.055 -1.61103 -3.21829 0
M  V30 7658 C 754.663 -3.12228 -3.21275 0
M  V30 7659 C 756.407 -1.46404 -3.98455 0
M  V30 7660 C 754.314 -3.733 -4.58695 0
M  V30 7661 H 753.244 -0.34357 -0.671175 0
M  V30 7662 H 755.895 -1.38718 -1.20123 0
M  V30 7663 H 754.277 -1.07958 -3.81 0
M  V30 7664 H 755.451 -3.72155 -2.71731 0
M  V30 7665 H 753.766 -3.26725 -2.58147 0
M  V30 7666 H 756.363 -1.8942 -5.00024 0
M  V30 7667 H 756.706 -0.41195 -4.14257 0
M  V30 7668 H 757.239 -1.96663 -3.45787 0
M  V30 7669 H 753.978 -4.78423 -4.48098 0
M  V30 7670 H 753.498 -3.18157 -5.08465 0
M  V30 7671 H 755.177 -3.7441 -5.27661 0
M  V30 7672 N 755.309 1.25446 -0.953992 0
M  V30 7673 C 756.534 1.97755 -0.625129 0
M  V30 7674 C 756.959 1.70437 0.795787 0
M  V30 7675 O 756.317 0.95992 1.53803 0
M  V30 7676 C 756.365 3.49463 -0.889251 0
M  V30 7677 O 755.469 4.12387 0.0322757 0
M  V30 7678 H 754.81 0.61998 -0.237742 0
M  V30 7679 H 757.34 1.59582 -1.28041 0
M  V30 7680 H 757.35 3.99772 -0.815263 0
M  V30 7681 H 756.025 3.68676 -1.92487 0
M  V30 7682 H 754.602 3.72782 -0.0938625 0
M  V30 7683 N 756.787 0.722489 1.40064 0
M  V30 7684 C 758.012 0.273446 2.05589 0
M  V30 7685 C 758.437 -1.07875 1.54093 0
M  V30 7686 O 757.795 -1.68095 0.679252 0
M  V30 7687 C 757.843 0.271023 3.5958 0
M  V30 7688 O 756.947 -0.745499 4.05606 0
M  V30 7689 H 756.288 0.126856 0.65177 0
M  V30 7690 H 758.818 0.984906 1.79334 0
M  V30 7691 H 758.828 0.111084 4.07849 0
M  V30 7692 H 757.503 1.25776 3.96425 0
M  V30 7693 H 756.08 -0.552719 3.68781 0
M  V30 7694 N 758.265 -1.50454 0.469181 0
M  V30 7695 C 759.195 -2.31353 -0.31592 0
M  V30 7696 C 760.176 -1.38172 -0.992094 0
M  V30 7697 O 761.361 -1.67093 -0.989633 0
M  V30 7698 C 758.491 -3.1786 -1.39937 0
M  V30 7699 C 757.445 -4.19578 -0.844909 0
M  V30 7700 C 756.771 -4.9481 -2.0265 0
M  V30 7701 C 758.071 -5.22106 0.142499 0
M  V30 7702 H 759.765 -2.97237 0.359269 0
M  V30 7703 H 757.311 -1.42942 0.174224 0
M  V30 7704 H 759.264 -3.7325 -1.95607 0
M  V30 7705 H 757.988 -2.49858 -2.1033 0
M  V30 7706 H 756.647 -3.65285 -0.310189 0
M  V30 7707 H 756.295 -4.23282 -2.71737 0
M  V30 7708 H 755.995 -5.63613 -1.66174 0
M  V30 7709 H 757.519 -5.53035 -2.58815 0
M  V30 7710 H 758.933 -5.72378 -0.324966 0
M  V30 7711 H 757.33 -5.98618 0.421441 0
M  V30 7712 H 758.4 -4.7297 1.06901 0
M  V30 7713 N 759.743 -0.201713 -1.56304 0
M  V30 7714 C 760.673 0.71155 -2.22394 0
M  V30 7715 C 761.654 1.21625 -1.18917 0
M  V30 7716 O 762.839 1.26388 -1.47444 0
M  V30 7717 C 759.969 1.92837 -2.88845 0
M  V30 7718 C 758.923 1.55831 -3.98623 0
M  V30 7719 C 758.249 2.85228 -4.52271 0
M  V30 7720 C 759.549 0.763249 -5.16693 0
M  V30 7721 H 761.243 0.160573 -2.98969 0
M  V30 7722 H 758.789 0.0757916 -1.438 0
M  V30 7723 H 760.742 2.57253 -3.33764 0
M  V30 7724 H 759.466 2.50398 -2.09686 0
M  V30 7725 H 758.125 0.9377 -3.54405 0
M  V30 7726 H 757.773 3.40893 -3.69866 0
M  V30 7727 H 757.473 2.6121 -5.26349 0
M  V30 7728 H 758.997 3.50622 -4.99897 0
M  V30 7729 H 760.411 1.31066 -5.58117 0
M  V30 7730 H 758.808 0.620935 -5.96879 0
M  V30 7731 H 759.878 -0.234322 -4.84334 0
M  V30 7732 N 761.222 1.57436 0.0718424 0
M  V30 7733 C 762.633 1.75975 0.623678 0
M  V30 7734 C 762.984 0.827155 1.77912 0
M  V30 7735 O 762.109 0.0112425 2.16397 0
M  V30 7736 C 762.704 3.1911 1.13816 0
M  V30 7737 C 761.263 3.38994 1.63586 0
M  V30 7738 C 760.41 2.71684 0.555261 0
M  V30 7739 H 763.361 1.57948 -0.154328 0
M  V30 7740 H 763.382 3.23267 2.00696 0
M  V30 7741 H 762.894 3.86962 0.296998 0
M  V30 7742 H 760.995 2.76256 2.50027 0
M  V30 7743 H 761.108 4.47436 1.71283 0
M  V30 7744 H 759.472 2.34236 1.00029 0
M  V30 7745 H 760.255 3.42191 -0.275712 0
M  V30 7746 N 762.7 -0.34323 1.53817 0
M  V30 7747 C 763.925 -1.1079 1.75329 0
M  V30 7748 C 764.35 -1.81571 0.491293 0
M  V30 7749 O 763.708 -1.72561 -0.556089 0
M  V30 7750 C 763.756 -2.09681 2.9337 0
M  V30 7751 O 762.86 -3.17207 2.63541 0
M  V30 7752 H 762.201 -0.320402 0.581583 0
M  V30 7753 H 764.731 -0.393525 2.0078 0
M  V30 7754 H 764.741 -2.52897 3.20168 0
M  V30 7755 H 763.416 -1.5756 3.84899 0
M  V30 7756 H 761.993 -2.78806 2.47632 0
M  V30 7757 N 764.178 -1.45556 -0.604258 0
M  V30 7758 C 765.108 -1.57327 -1.72541 0
M  V30 7759 C 766.089 -0.424637 -1.64714 0
M  V30 7760 O 767.274 -0.648196 -1.83063 0
M  V30 7761 C 764.404 -1.54279 -3.11152 0
M  V30 7762 C 763.358 -2.67893 -3.33792 0
M  V30 7763 C 762.684 -2.499 -4.72709 0
M  V30 7764 C 763.984 -4.0988 -3.23722 0
M  V30 7765 H 765.678 -2.51175 -1.62947 0
M  V30 7766 H 763.224 -1.20884 -0.782504 0
M  V30 7767 H 765.177 -1.6111 -3.89386 0
M  V30 7768 H 763.901 -0.569627 -3.21594 0
M  V30 7769 H 762.56 -2.60495 -2.57949 0
M  V30 7770 H 762.208 -1.50715 -4.79889 0
M  V30 7771 H 761.908 -3.26091 -4.88813 0
M  V30 7772 H 763.432 -2.5859 -5.5314 0
M  V30 7773 H 764.846 -4.18503 -3.91826 0
M  V30 7774 H 763.243 -4.86487 -3.51355 0
M  V30 7775 H 764.313 -4.31553 -2.21111 0
M  V30 7776 N 765.656 0.84705 -1.32902 0
M  V30 7777 C 766.566 1.98845 -1.2449 0
M  V30 7778 C 767.582 1.7329 -0.15702 0
M  V30 7779 O 768.758 1.978 -0.379104 0
M  V30 7780 C 765.823 3.32679 -0.975985 0
M  V30 7781 C 764.884 3.71405 -2.15306 0
M  V30 7782 C 764.117 4.98853 -1.89688 0
M  V30 7783 O 764.34 5.64134 -0.843168 0
M  V30 7784 O 763.274 5.34889 -2.76002 0
M  V30 7785 H 767.1 2.0888 -2.2046 0
M  V30 7786 H 764.685 0.978852 -1.12867 0
M  V30 7787 H 766.567 4.12885 -0.842826 0
M  V30 7788 H 765.242 3.23667 -0.0464954 0
M  V30 7789 H 764.149 2.91743 -2.34172 0
M  V30 7790 H 765.482 3.85073 -3.06561 0
M  V30 7791 N 767.134 1.16236 1.06428 0
M  V30 7792 C 768.097 0.870163 2.1204 0
M  V30 7793 C 769.097 -0.134239 1.60239 0
M  V30 7794 O 770.287 0.0964932 1.73933 0
M  V30 7795 C 767.419 0.301033 3.39568 0
M  V30 7796 H 768.612 1.8064 2.39394 0
M  V30 7797 H 766.165 0.971116 1.2247 0
M  V30 7798 H 766.9 -0.642948 3.17863 0
M  V30 7799 H 766.685 1.02475 3.78472 0
M  V30 7800 H 768.175 0.114494 4.17443 0
M  V30 7801 N 768.612 -1.24939 0.960631 0
M  V30 7802 C 769.858 -1.93425 0.629155 0
M  V30 7803 C 770.213 -1.73784 -0.825635 0
M  V30 7804 O 769.506 -1.07595 -1.58536 0
M  V30 7805 C 769.7 -3.45066 0.930809 0
M  V30 7806 C 769.529 -3.79455 2.41337 0
M  V30 7807 C 768.299 -4.01195 3.07197 0
M  V30 7808 C 770.497 -3.86492 3.39306 0
M  V30 7809 N 768.479 -4.22626 4.45265 0
M  V30 7810 C 769.85 -4.12682 4.62702 0
M  V30 7811 C 771.905 -3.69198 3.34061 0
M  V30 7812 C 770.608 -4.23376 5.81502 0
M  V30 7813 C 772.634 -3.81135 4.52206 0
M  V30 7814 C 771.996 -4.07743 5.74391 0
M  V30 7815 H 768.095 -0.729791 0.280943 0
M  V30 7816 H 770.679 -1.50597 1.23404 0
M  V30 7817 H 768.85 -3.86776 0.354801 0
M  V30 7818 H 770.582 -4.00826 0.558627 0
M  V30 7819 H 767.337 -3.97319 2.5775 0
M  V30 7820 H 767.761 -4.37335 5.16785 0
M  V30 7821 H 772.403 -3.47639 2.40638 0
M  V30 7822 H 770.121 -4.4375 6.75361 0
M  V30 7823 H 773.707 -3.69133 4.49702 0
M  V30 7824 H 772.587 -4.16768 6.64284 0
M  V30 7825 N 770.09 -0.729906 -1.39679 0
M  V30 7826 C 771.037 -0.0866063 -2.30637 0
M  V30 7827 C 772.007 0.735115 -1.48947 0
M  V30 7828 O 773.192 0.696125 -1.77648 0
M  V30 7829 C 770.332 0.818524 -3.35252 0
M  V30 7830 C 769.445 -0.0152635 -4.31997 0
M  V30 7831 C 768.58 0.890669 -5.2368 0
M  V30 7832 C 767.619 0.0518246 -6.12078 0
M  V30 7833 N 766.756 0.913411 -6.96133 0
M  V30 7834 H 771.596 -0.867925 -2.85081 0
M  V30 7835 H 769.133 -0.439673 -1.40376 0
M  V30 7836 H 771.091 1.3577 -3.9449 0
M  V30 7837 H 769.721 1.56587 -2.82277 0
M  V30 7838 H 768.773 -0.671794 -3.74421 0
M  V30 7839 H 770.085 -0.664086 -4.9436 0
M  V30 7840 H 769.239 1.49787 -5.87919 0
M  V30 7841 H 767.978 1.57328 -4.61627 0
M  V30 7842 H 766.983 -0.568209 -5.46856 0
M  V30 7843 H 768.208 -0.627497 -6.76195 0
M  V30 7844 H 766.154 1.58141 -6.36653 0
M  V30 7845 H 766.071 0.320952 -7.55318 0
M  V30 7846 H 767.339 1.50633 -7.64807 0
M  V30 7847 N 771.568 1.50203 -0.477153 0
M  V30 7848 C 772.5 2.26508 0.350239 0
M  V30 7849 C 773.513 1.32081 0.95176 0
M  V30 7850 O 774.702 1.57546 0.839139 0
M  V30 7851 C 771.802 3.0361 1.50579 0
M  V30 7852 C 770.975 4.25438 1.01595 0
M  V30 7853 C 770.034 4.84783 2.04626 0
M  V30 7854 O 769.06 5.45528 1.62442 0
M  V30 7855 N 770.262 4.72318 3.37485 0
M  V30 7856 H 773.027 2.98155 -0.30394 0
M  V30 7857 H 770.588 1.58938 -0.308289 0
M  V30 7858 H 772.58 3.4019 2.1921 0
M  V30 7859 H 771.15 2.34724 2.06455 0
M  V30 7860 H 770.37 3.93894 0.155316 0
M  V30 7861 H 771.658 5.04413 0.666694 0
M  V30 7862 H 771.056 4.24022 3.74462 0
M  V30 7863 H 769.613 5.13149 4.01897 0
M  V30 7864 N 773.046 0.209999 1.56195 0
M  V30 7865 C 773.996 -0.717978 2.164 0
M  V30 7866 C 774.98 -1.16577 1.10899 0
M  V30 7867 O 776.172 -1.12169 1.3692 0
M  V30 7868 C 773.301 -1.93091 2.8385 0
M  V30 7869 C 772.387 -1.50333 3.96561 0
M  V30 7870 N 772.778 -0.787621 4.9963 0
M  V30 7871 C 771.076 -1.79151 4.08437 0
M  V30 7872 C 771.777 -0.571204 5.78889 0
M  V30 7873 N 770.753 -1.12444 5.31843 0
M  V30 7874 H 774.555 -0.162603 2.9345 0
M  V30 7875 H 772.069 0.0107928 1.62396 0
M  V30 7876 H 774.066 -2.60635 3.25384 0
M  V30 7877 H 772.726 -2.49087 2.08293 0
M  V30 7878 H 773.737 -0.441513 5.16015 0
M  V30 7879 H 770.414 -2.36549 3.44022 0
M  V30 7880 H 771.804 -0.00237941 6.719 0
M  V30 7881 N 774.524 -1.57472 -0.0634922 0
M  V30 7882 C 775.77 -1.87932 -0.762194 0
M  V30 7883 C 776.103 -0.803377 -1.76804 0
M  V30 7884 O 775.378 0.185468 -1.93614 0
M  V30 7885 C 775.661 -3.29053 -1.46275 0
M  V30 7886 C 775.514 -4.47309 -0.472755 0
M  V30 7887 C 776.833 -3.68537 -2.40558 0
M  V30 7888 H 773.952 -0.683521 -0.275624 0
M  V30 7889 H 776.594 -1.89983 -0.0252651 0
M  V30 7890 H 774.744 -3.27435 -2.0909 0
M  V30 7891 H 776.416 -4.61053 0.150828 0
M  V30 7892 H 774.659 -4.33286 0.211187 0
M  V30 7893 H 775.33 -5.42853 -1.00072 0
M  V30 7894 H 777.806 -3.71302 -1.87814 0
M  V30 7895 H 776.682 -4.68152 -2.86574 0
M  V30 7896 H 776.943 -2.98917 -3.25731 0
M  V30 7897 N 776.003 0.335068 -1.53997 0
M  V30 7898 C 777.231 1.09418 -1.756 0
M  V30 7899 C 777.646 1.82083 -0.499138 0
M  V30 7900 O 777.003 1.74646 0.529631 0
M  V30 7901 C 777.054 2.10115 -2.94166 0
M  V30 7902 O 776.775 1.40404 -4.14992 0
M  V30 7903 C 778.276 2.98336 -3.27888 0
M  V30 7904 H 775.496 0.32595 -0.586513 0
M  V30 7905 H 778.04 0.384693 -2.00849 0
M  V30 7906 H 776.195 2.76616 -2.71224 0
M  V30 7907 H 776.609 2.07743 -4.81605 0
M  V30 7908 H 778.083 3.6491 -4.1418 0
M  V30 7909 H 778.56 3.64814 -2.44556 0
M  V30 7910 H 779.166 2.37412 -3.52868 0
M  V30 7911 N 777.481 1.45874 0.596531 0
M  V30 7912 C 778.391 1.57947 1.73464 0
M  V30 7913 C 779.407 0.463461 1.67714 0
M  V30 7914 O 780.583 0.725685 1.87872 0
M  V30 7915 C 777.648 1.55348 3.09948 0
M  V30 7916 C 776.709 2.78074 3.27068 0
M  V30 7917 C 775.942 2.75589 4.57041 0
M  V30 7918 O 776.165 1.83545 5.40063 0
M  V30 7919 O 775.099 3.66945 4.77111 0
M  V30 7920 H 778.925 2.54169 1.66228 0
M  V30 7921 H 776.51 1.2851 0.76194 0
M  V30 7922 H 778.392 1.56545 3.91244 0
M  V30 7923 H 777.067 0.622811 3.17652 0
M  V30 7924 H 775.974 2.82435 2.45319 0
M  V30 7925 H 777.307 3.70303 3.24248 0
M  V30 7926 N 778.959 -0.83999 1.33349 0
M  V30 7927 C 779.922 -1.93128 1.23426 0
M  V30 7928 C 780.922 -1.60065 0.153599 0
M  V30 7929 O 782.112 -1.69425 0.405049 0
M  V30 7930 C 779.244 -3.28761 0.901622 0
M  V30 7931 H 780.437 -2.03352 2.20427 0
M  V30 7932 H 777.99 -1.03194 1.17391 0
M  V30 7933 H 778.725 -3.24233 -0.0659337 0
M  V30 7934 H 778.51 -3.54138 1.68311 0
M  V30 7935 H 780 -4.08714 0.856913 0
M  V30 7936 N 780.437 -1.16799 -1.0581 0
M  V30 7937 C 781.684 -0.952524 -1.78699 0
M  V30 7938 C 782.012 0.51931 -1.87439 0
M  V30 7939 O 781.267 1.40151 -1.36587 0
M  V30 7940 C 781.566 -1.53111 -3.22942 0
M  V30 7941 C 781.232 -3.0261 -3.34273 0
M  V30 7942 C 779.894 -3.43418 -3.37072 0
M  V30 7943 C 782.246 -3.98611 -3.35795 0
M  V30 7944 C 779.574 -4.78838 -3.39015 0
M  V30 7945 C 781.926 -5.33923 -3.39277 0
M  V30 7946 C 780.59 -5.74205 -3.40361 0
M  V30 7947 H 779.86 -0.348553 -0.653905 0
M  V30 7948 H 782.507 -1.45591 -1.244 0
M  V30 7949 H 780.812 -0.949286 -3.80126 0
M  V30 7950 H 782.509 -1.34002 -3.77948 0
M  V30 7951 H 779.099 -2.70075 -3.32803 0
M  V30 7952 H 783.283 -3.68146 -3.32839 0
M  V30 7953 H 778.539 -5.09369 -3.38161 0
M  V30 7954 H 782.713 -6.08094 -3.39403 0
M  V30 7955 H 780.34 -6.79117 -3.4162 0
M  V30 7956 N 781.915 1.24427 -0.967243 0
M  V30 7957 C 782.847 2.24641 -0.454856 0
M  V30 7958 C 783.86 1.56849 0.436152 0
M  V30 7959 O 785.049 1.76846 0.242401 0
M  V30 7960 C 782.149 3.36954 0.362672 0
M  V30 7961 C 781.322 4.34318 -0.518324 0
M  V30 7962 C 780.381 5.25638 0.243122 0
M  V30 7963 O 779.407 5.68043 -0.362791 0
M  V30 7964 N 780.609 5.59897 1.53282 0
M  V30 7965 H 783.374 2.69238 -1.31648 0
M  V30 7966 H 780.935 1.38464 -0.839015 0
M  V30 7967 H 782.927 3.95014 0.880094 0
M  V30 7968 H 781.497 2.91646 1.12522 0
M  V30 7969 H 780.717 3.74953 -1.21672 0
M  V30 7970 H 782.005 4.96338 -1.11919 0
M  V30 7971 H 781.403 5.27373 2.04682 0
M  V30 7972 H 779.96 6.20488 1.99594 0
M  V30 7973 N 783.393 0.737304 1.3929 0
M  V30 7974 C 784.64 0.286257 2.00467 0
M  V30 7975 C 784.968 -1.1272 1.58507 0
M  V30 7976 O 784.223 -1.7832 0.806257 0
M  V30 7977 C 784.522 0.338438 3.55794 0
M  V30 7978 C 784.188 1.70524 4.17411 0
M  V30 7979 C 782.85 2.07934 4.33955 0
M  V30 7980 C 785.202 2.60256 4.51571 0
M  V30 7981 C 782.53 3.34578 4.81948 0
M  V30 7982 C 784.882 3.86275 5.00974 0
M  V30 7983 C 783.546 4.23774 5.15725 0
M  V30 7984 H 782.816 0.104749 0.733559 0
M  V30 7985 H 785.463 0.944598 1.66582 0
M  V30 7986 H 783.768 -0.403478 3.89717 0
M  V30 7987 H 785.465 -0.0287255 4.0099 0
M  V30 7988 H 782.055 1.40439 4.04938 0
M  V30 7989 H 786.239 2.32624 4.38406 0
M  V30 7990 H 781.495 3.63572 4.91554 0
M  V30 7991 H 785.669 4.5596 5.26378 0
M  V30 7992 H 783.296 5.21972 5.52674 0
M  V30 7993 N 784.871 -1.49948 0.485112 0
M  V30 7994 C 785.821 -2.25734 -0.320658 0
M  V30 7995 C 786.805 -1.29907 -0.949373 0
M  V30 7996 O 787.997 -1.54725 -0.859601 0
M  V30 7997 C 785.126 -3.13728 -1.39391 0
M  V30 7998 C 784.212 -4.1701 -0.772225 0
M  V30 7999 N 784.603 -5.05667 0.115782 0
M  V30 8000 C 782.901 -4.33834 -1.03461 0
M  V30 8001 C 783.602 -5.79798 0.47004 0
M  V30 8002 N 782.578 -5.4337 -0.158204 0
M  V30 8003 H 786.38 -2.91647 0.36319 0
M  V30 8004 H 783.894 -1.59602 0.300154 0
M  V30 8005 H 785.891 -3.66639 -1.98447 0
M  V30 8006 H 784.551 -2.49365 -2.0796 0
M  V30 8007 H 785.562 -5.15619 0.485557 0
M  V30 8008 H 782.239 -3.80684 -1.71424 0
M  V30 8009 H 783.629 -6.61177 1.19558 0
M  V30 8010 N 786.349 -0.21828 -1.56081 0
M  V30 8011 C 787.596 0.414307 -1.98216 0
M  V30 8012 C 787.924 1.60005 -1.10584 0
M  V30 8013 O 787.179 1.95124 -0.150043 0
M  V30 8014 C 787.478 0.894782 -3.46018 0
M  V30 8015 C 787.144 -0.180083 -4.5054 0
M  V30 8016 C 785.806 -0.475367 -4.78846 0
M  V30 8017 C 788.158 -0.907191 -5.13244 0
M  V30 8018 C 785.486 -1.50233 -5.67139 0
M  V30 8019 C 787.838 -1.92347 -6.02649 0
M  V30 8020 C 786.502 -2.22571 -6.293 0
M  V30 8021 H 785.772 0.151606 -0.725325 0
M  V30 8022 H 788.419 -0.320113 -1.88806 0
M  V30 8023 H 786.724 1.7079 -3.52616 0
M  V30 8024 H 788.421 1.39403 -3.75989 0
M  V30 8025 H 785.011 0.06022 -4.28558 0
M  V30 8026 H 789.195 -0.692303 -4.91448 0
M  V30 8027 H 784.451 -1.74215 -5.86054 0
M  V30 8028 H 788.625 -2.49197 -6.50288 0
M  V30 8029 H 786.252 -3.0229 -6.97513 0
M  V30 8030 O 787.866 1.61292 -0.0819188 0
M  V30 8031 H 788.557 1.86513 0.522732 0
M  V30 END ATOM
M  V30 BEGIN BOND
M  V30 END BOND
M  V30 END CTAB
M  END
$$$$
