drugbank_target|P04626 Receptor tyrosine-protein kinase erbB-2 (DB00072; DB01259; DB04988; DB05773; DB05944; DB06021; DB06366; DB08916; DB11652; DB11973; DB12010; DB12267; DB14967; DB15035)
 OpenBabel12092119333D

  0  0  0     0  0            999 V3000
M  V30 BEGIN CTAB
M  V30 COUNTS 19148 19391 0 0 0
M  V30 BEGIN ATOM
M  V30 1 H -0.908 1.98254 -0.117106 0
M  V30 2 N 0 1.576 0 0
M  V30 3 C 0.933 2.03868 1.02534 0
M  V30 4 C 1.911 0.928543 1.3348 0
M  V30 5 O 3.095 1.19667 1.45644 0
M  V30 6 C 0.222 2.43627 2.35294 0
M  V30 7 C -0.732 3.65373 2.2001 0
M  V30 8 S 0.101 5.13292 1.52614 0
M  V30 9 C 1.257 5.56322 2.86805 0
M  V30 10 H 1.49 2.90518 0.631377 0
M  V30 11 H -0.977 1.52953 0.210867 0
M  V30 12 H 0.981 2.67203 3.11629 0
M  V30 13 H -0.358 1.57376 2.7183 0
M  V30 14 H -1.165 3.90944 3.18086 0
M  V30 15 H -1.563 3.418 1.51819 0
M  V30 16 H 0.729 5.58782 3.83104 0
M  V30 17 H 1.672 6.56266 2.65933 0
M  V30 18 H 2.08 4.83886 2.90714 0
M  V30 19 N 1.4781 -0.272755 1.55222 0
M  V30 20 C 2.3881 -1.35918 1.91216 0
M  V30 21 C 3.4041 -1.54026 0.809436 0
M  V30 22 O 4.5801 -1.68148 1.10852 0
M  V30 23 C 1.6451 -2.69834 2.17693 0
M  V30 24 C 0.7061 -2.6047 3.41253 0
M  V30 25 C -0.0609 -3.88 3.66458 0
M  V30 26 O 0.1621 -4.88693 2.94169 0
M  V30 27 O -0.9039 -3.88189 4.59992 0
M  V30 28 H 2.9221 -1.0839 2.83699 0
M  V30 29 H 0.5071 -0.471301 1.41771 0
M  V30 30 H 2.3891 -3.49017 2.36147 0
M  V30 31 H 1.0641 -2.97148 1.28392 0
M  V30 32 H -0.0289 -1.79663 3.28134 0
M  V30 33 H 1.3041 -2.38106 4.30774 0
M  V30 34 N 2.9562 -1.48159 -0.537278 0
M  V30 35 C 3.8862 -1.65029 -1.6519 0
M  V30 36 C 4.8672 -0.499281 -1.62607 0
M  V30 37 O 6.0522 -0.730972 -1.79918 0
M  V30 38 C 3.1822 -1.68303 -3.03795 0
M  V30 39 C 2.1362 -2.8283 -3.21234 0
M  V30 40 C 1.4622 -2.71189 -4.60826 0
M  V30 41 C 2.7622 -4.24211 -3.04701 0
M  V30 42 H 4.4562 -2.58341 -1.51328 0
M  V30 43 H 2.0022 -1.24325 -0.726585 0
M  V30 44 H 3.9552 -1.78693 -3.81637 0
M  V30 45 H 2.6792 -0.715635 -3.18663 0
M  V30 46 H 1.3382 -2.71983 -2.45807 0
M  V30 47 H 0.9862 -1.72435 -4.7252 0
M  V30 48 H 0.6862 -3.48035 -4.7344 0
M  V30 49 H 2.2102 -2.83537 -5.40777 0
M  V30 50 H 3.6242 -4.3593 -3.72341 0
M  V30 51 H 2.0212 -5.01998 -3.28813 0
M  V30 52 H 3.0912 -4.41184 -2.01209 0
M  V30 53 N 4.4343 0.785586 -1.36625 0
M  V30 54 C 5.3973 1.87999 -1.31107 0
M  V30 55 C 6.3973 1.59316 -0.217959 0
M  V30 56 O 7.5873 1.67656 -0.472977 0
M  V30 57 C 4.7193 3.24861 -1.03334 0
M  V30 58 H 5.9123 1.94307 -2.2844 0
M  V30 59 H 3.4653 0.983813 -1.21453 0
M  V30 60 H 4.2003 3.24235 -0.0647432 0
M  V30 61 H 3.9853 3.4707 -1.82441 0
M  V30 62 H 5.4753 4.04929 -1.02088 0
M  V30 63 N 5.9124 1.20967 1.01018 0
M  V30 64 C 6.8754 0.965918 2.07853 0
M  V30 65 C 7.8754 -0.0610545 1.60684 0
M  V30 66 O 9.0654 0.175681 1.73312 0
M  V30 67 C 6.1974 0.455513 3.37843 0
M  V30 68 H 7.3904 1.91365 2.3091 0
M  V30 69 H 4.9434 1.02594 1.17916 0
M  V30 70 H 5.6784 -0.497381 3.20463 0
M  V30 71 H 5.4634 1.19622 3.73407 0
M  V30 72 H 6.9534 0.304667 4.16487 0
M  V30 73 N 7.3905 -1.2043 1.01659 0
M  V30 74 C 8.3205 -2.25466 0.607226 0
M  V30 75 C 9.3015 -1.65853 -0.377716 0
M  V30 76 O 10.4865 -1.92409 -0.263149 0
M  V30 77 C 7.6165 -3.47256 -0.0552949 0
M  V30 78 C 6.5705 -4.19462 0.850632 0
M  V30 79 C 5.8965 -5.34673 0.0538859 0
M  V30 80 C 7.1965 -4.75603 2.15868 0
M  V30 81 H 8.8905 -2.59962 1.48526 0
M  V30 82 H 6.4365 -1.2496 0.715605 0
M  V30 83 H 8.3895 -4.19917 -0.353233 0
M  V30 84 H 7.1135 -3.11924 -0.968045 0
M  V30 85 H 5.7725 -3.48667 1.13257 0
M  V30 86 H 5.4205 -4.95585 -0.860514 0
M  V30 87 H 5.1205 -5.83913 0.657192 0
M  V30 88 H 6.6445 -6.10138 -0.237598 0
M  V30 89 H 8.0585 -5.40083 1.92311 0
M  V30 90 H 6.4555 -5.3528 2.71284 0
M  V30 91 H 7.5255 -3.94346 2.82169 0
M  V30 92 N 8.8686 -0.792821 -1.36206 0
M  V30 93 C 10.1086 -0.372238 -2.00982 0
M  V30 94 C 10.4726 1.03749 -1.61555 0
M  V30 95 O 11.6736 1.55934 -2.18948 0
M  V30 96 C 9.9446 -0.534566 -3.5338 0
M  V30 97 S 11.5036 -0.202365 -4.38333 0
M  V30 98 H 8.3216 -0.142044 -0.696667 0
M  V30 99 H 10.9236 -1.03206 -1.66039 0
M  V30 100 H 9.6276 -1.5608 -3.79562 0
M  V30 101 H 9.1586 0.141065 -3.93147 0
M  V30 102 H 11.1736 0.994869 -4.86124 0
M  V30 103 N 10.3467 1.47872 -0.545128 0
M  V30 104 C 11.7627 1.5829 -0.204032 0
M  V30 105 C 11.9627 1.54529 1.29317 0
M  V30 106 O 11.0187 1.44232 2.07252 0
M  V30 107 C 12.3317 2.89304 -0.819987 0
M  V30 108 C 13.8797 3.02864 -0.790105 0
M  V30 109 C 14.3547 4.3656 -1.38491 0
M  V30 110 N 15.8457 4.43165 -1.34755 0
M  V30 111 C 16.5807 5.45153 -1.77753 0
M  V30 112 N 16.0767 6.54016 -2.2855 0
M  V30 113 N 17.8697 5.36125 -1.68897 0
M  V30 114 H 10.0207 1.4856 -1.51802 0
M  V30 115 H 12.2837 0.706305 -0.632327 0
M  V30 116 H 11.9897 2.97757 -1.87173 0
M  V30 117 H 11.8637 3.75957 -0.305915 0
M  V30 118 H 14.2507 2.94014 0.252913 0
M  V30 119 H 14.3317 2.17782 -1.34181 0
M  V30 120 H 13.9757 4.46164 -2.42693 0
M  V30 121 H 13.9057 5.20353 -0.808754 0
M  V30 122 H 16.3967 3.65083 -0.975855 0
M  V30 123 H 16.7097 7.27994 -2.59314 0
M  V30 124 H 15.0547 6.54938 -2.32553 0
M  V30 125 H 18.2457 4.49975 -1.28998 0
M  V30 126 H 18.4187 6.15472 -2.02726 0
M  V30 127 N 11.8248 0.280983 1.55075 0
M  V30 128 C 13.0708 -0.327573 2.00745 0
M  V30 129 C 13.4258 -1.53045 1.16598 0
M  V30 130 O 12.7188 -1.90221 0.229451 0
M  V30 131 C 12.9128 -0.754656 3.49342 0
M  V30 132 C 12.7418 0.40529 4.4787 0
M  V30 133 C 11.5118 0.890947 4.97383 0
M  V30 134 C 13.7098 1.24371 4.99035 0
M  V30 135 N 11.6918 2.01975 5.79724 0
M  V30 136 C 13.0628 2.22031 5.7888 0
M  V30 137 C 15.1178 1.27638 4.81262 0
M  V30 138 C 13.8208 3.22709 6.42846 0
M  V30 139 C 15.8468 2.27164 5.46031 0
M  V30 140 C 15.2088 3.23556 6.25692 0
M  V30 141 H 11.3078 -0.0848774 0.77738 0
M  V30 142 H 13.8918 0.406342 1.90413 0
M  V30 143 H 12.0628 -1.45778 3.60005 0
M  V30 144 H 13.7948 -1.34105 3.81835 0
M  V30 145 H 10.5498 0.469262 4.71269 0
M  V30 146 H 10.9738 2.58794 6.25584 0
M  V30 147 H 15.6158 0.544936 4.19274 0
M  V30 148 H 13.3338 3.96784 7.0398 0
M  V30 149 H 16.9198 2.30441 5.34217 0
M  V30 150 H 15.7998 3.99309 6.74924 0
M  V30 151 N 13.3029 -1.57598 0.00835791 0
M  V30 152 C 14.5509 -1.90551 -0.6734 0
M  V30 153 C 14.8719 -0.883301 -1.73847 0
M  V30 154 O 14.1419 0.0781442 -1.95744 0
M  V30 155 H 12.7219 -0.703312 -0.251717 0
M  V30 156 H 15.3839 -1.94833 0.0512592 0
M  V30 157 H 14.4799 -2.9056 -1.13935 0
M  V30 158 N 14.781 0.264519 -1.55364 0
M  V30 159 C 15.711 1.33121 -1.91836 0
M  V30 160 C 16.692 1.51101 -0.781192 0
M  V30 161 O 17.877 1.64003 -1.04003 0
M  V30 162 C 15.007 2.68921 -2.19769 0
M  V30 163 C 13.961 2.65661 -3.35571 0
M  V30 164 C 13.287 4.05093 -3.49004 0
M  V30 165 C 14.587 2.24187 -4.71739 0
M  V30 166 H 16.281 1.02844 -2.81182 0
M  V30 167 H 13.827 0.493286 -1.35287 0
M  V30 168 H 15.78 3.43663 -2.43872 0
M  V30 169 H 14.504 3.00799 -1.27231 0
M  V30 170 H 13.163 1.93377 -3.1145 0
M  V30 171 H 12.811 4.34206 -2.53917 0
M  V30 172 H 12.511 4.03804 -4.26868 0
M  V30 173 H 14.035 4.81561 -3.75408 0
M  V30 174 H 15.449 2.88654 -4.9533 0
M  V30 175 H 13.846 2.34044 -5.52579 0
M  V30 176 H 14.916 1.19327 -4.69988 0
M  V30 177 N 16.2591 1.48442 0.529413 0
M  V30 178 C 17.1891 1.65902 1.64313 0
M  V30 179 C 18.1701 0.507897 1.6234 0
M  V30 180 O 19.3551 0.740503 1.79528 0
M  V30 181 C 16.4851 1.69911 3.02898 0
M  V30 182 C 15.4391 2.8453 3.19729 0
M  V30 183 C 14.7651 2.73629 4.59381 0
M  V30 184 C 16.0651 4.25821 3.02447 0
M  V30 185 H 17.7591 2.5914 1.49955 0
M  V30 186 H 15.3051 1.24709 0.719982 0
M  V30 187 H 17.2581 1.80715 3.80684 0
M  V30 188 H 15.9821 0.732524 3.18279 0
M  V30 189 H 14.6411 2.73283 2.44361 0
M  V30 190 H 14.2891 1.74938 4.71599 0
M  V30 191 H 13.9891 3.50541 4.71588 0
M  V30 192 H 15.5131 2.86401 5.39265 0
M  V30 193 H 16.9271 4.37898 3.70024 0
M  V30 194 H 15.3241 5.03735 3.26146 0
M  V30 195 H 16.3941 4.42244 1.98867 0
M  V30 196 N 17.7372 -0.778329 1.37039 0
M  V30 197 C 18.6672 -1.90546 1.34962 0
M  V30 198 C 19.6482 -1.68681 0.219274 0
M  V30 199 O 20.8332 -1.89634 0.418624 0
M  V30 200 C 17.9632 -3.27734 1.14925 0
M  V30 201 C 16.9172 -3.64147 2.24902 0
M  V30 202 C 16.2432 -4.99806 1.89996 0
M  V30 203 C 17.5432 -3.71579 3.67051 0
M  V30 204 H 19.2372 -1.92541 2.29277 0
M  V30 205 H 16.7832 -0.924948 1.10366 0
M  V30 206 H 18.7362 -4.06215 1.12104 0
M  V30 207 H 17.4602 -3.26154 0.170631 0
M  V30 208 H 16.1192 -2.8797 2.26868 0
M  V30 209 H 15.7672 -4.94759 0.906796 0
M  V30 210 H 15.4672 -5.25139 2.63634 0
M  V30 211 H 16.9912 -5.80694 1.88749 0
M  V30 212 H 18.4052 -4.40227 3.67251 0
M  V30 213 H 16.8022 -4.08405 4.39688 0
M  V30 214 H 17.8722 -2.72404 4.01154 0
M  V30 215 N 19.2153 -1.21501 -1.00376 0
M  V30 216 C 20.1783 -0.976927 -2.07337 0
M  V30 217 C 21.1783 0.0525322 -1.60714 0
M  V30 218 O 22.3683 -0.184869 -1.73216 0
M  V30 219 C 19.5003 -0.473423 -3.37597 0
M  V30 220 H 20.6933 -1.92587 -2.29892 0
M  V30 221 H 18.2463 -1.03217 -1.17371 0
M  V30 222 H 18.9813 0.480379 -3.20722 0
M  V30 223 H 18.7663 -1.216 -3.72768 0
M  V30 224 H 20.2563 -0.32675 -4.1632 0
M  V30 225 N 20.6934 1.19889 -1.02296 0
M  V30 226 C 21.6234 2.25141 -0.619174 0
M  V30 227 C 22.6044 1.66051 0.368915 0
M  V30 228 O 23.7894 1.92546 0.252941 0
M  V30 229 C 20.9194 3.4728 0.0368783 0
M  V30 230 C 19.8734 4.19005 -0.872865 0
M  V30 231 C 19.1994 5.34637 -0.0822402 0
M  V30 232 C 20.4994 4.74452 -2.18387 0
M  V30 233 H 22.1934 2.59171 -1.49903 0
M  V30 234 H 19.7394 1.24579 -0.722222 0
M  V30 235 H 21.6924 4.20098 0.330958 0
M  V30 236 H 20.4164 3.12433 0.95149 0
M  V30 237 H 19.0754 3.48061 -1.15105 0
M  V30 238 H 18.7234 4.96034 0.83422 0
M  V30 239 H 18.4234 5.83557 -0.688149 0
M  V30 240 H 19.9474 6.10255 0.205238 0
M  V30 241 H 21.3614 5.39055 -1.95172 0
M  V30 242 H 19.7584 5.33834 -2.74119 0
M  V30 243 H 20.8284 3.92844 -2.84257 0
M  V30 244 N 22.1715 0.800033 1.35784 0
M  V30 245 C 23.1015 0.220184 2.3246 0
M  V30 246 C 24.0825 -0.65073 1.57161 0
M  V30 247 O 25.2675 -0.582359 1.85263 0
M  V30 248 C 22.3975 -0.637353 3.41402 0
M  V30 249 C 21.3515 0.134531 4.27789 0
M  V30 250 C 20.6775 -0.844285 5.27992 0
M  V30 251 C 21.9775 1.32979 5.05088 0
M  V30 252 H 23.6715 1.02787 2.81203 0
M  V30 253 H 21.2175 0.495717 1.35199 0
M  V30 254 H 23.1705 -1.05302 4.08031 0
M  V30 255 H 21.8945 -1.47785 2.91251 0
M  V30 256 H 20.5535 0.531296 3.6273 0
M  V30 257 H 20.2015 -1.68011 4.74111 0
M  V30 258 H 19.9015 -0.332184 5.8666 0
M  V30 259 H 21.4255 -1.2583 5.97494 0
M  V30 260 H 22.8395 0.98934 5.64699 0
M  V30 261 H 21.2365 1.77593 5.7322 0
M  V30 262 H 22.3065 2.11978 4.36111 0
M  V30 263 N 23.6496 -1.47581 0.552962 0
M  V30 264 C 25.0606 -1.86324 0.118463 0
M  V30 265 C 25.4116 -1.46006 -1.3106 0
M  V30 266 O 24.5366 -0.861182 -1.98526 0
M  V30 267 C 25.1316 -3.3816 0.20821 0
M  V30 268 C 23.6906 -3.7601 -0.171226 0
M  V30 269 C 22.8376 -2.71634 0.557686 0
M  V30 270 H 25.7886 -1.39159 0.762928 0
M  V30 271 H 25.8096 -3.76141 -0.574278 0
M  V30 272 H 25.3216 -3.67473 1.24841 0
M  V30 273 H 23.4226 -3.52313 -1.21269 0
M  V30 274 H 23.5356 -4.78745 0.184379 0
M  V30 275 H 21.8996 -2.547 0.00125792 0
M  V30 276 H 22.6826 -3.0379 1.59896 0
M  V30 277 N 25.1277 -0.289203 -1.54924 0
M  V30 278 C 26.5387 0.205791 -1.85562 0
M  V30 279 C 26.8897 1.54351 -1.2112 0
M  V30 280 O 26.0147 2.10435 -0.504601 0
M  V30 281 C 26.6097 0.380177 -3.3666 0
M  V30 282 C 25.1687 0.819395 -3.67373 0
M  V30 283 C 24.3157 -0.079159 -2.77187 0
M  V30 284 H 27.2667 -0.510577 -1.50262 0
M  V30 285 H 27.2877 1.21659 -3.60526 0
M  V30 286 H 26.7997 -0.593589 -3.83534 0
M  V30 287 H 24.9007 1.80413 -3.26009 0
M  V30 288 H 25.0137 0.646957 -4.74712 0
M  V30 289 H 23.3777 0.439565 -2.50878 0
M  V30 290 H 24.1607 -1.04906 -3.26878 0
M  V30 291 N 26.6058 1.57591 -0.0167156 0
M  V30 292 C 27.8538 1.90906 0.663285 0
M  V30 293 C 28.1748 0.892509 1.73376 0
M  V30 294 O 27.4448 -0.0677623 1.95783 0
M  V30 295 H 26.0248 0.704637 0.247983 0
M  V30 296 H 28.6868 1.94803 -0.0615909 0
M  V30 297 H 27.7828 2.9116 1.12393 0
M  V30 298 N 28.0839 -0.256276 1.55502 0
M  V30 299 C 29.0469 -1.30047 1.88734 0
M  V30 300 C 30.0469 -1.4154 0.763086 0
M  V30 301 O 31.2369 -1.40403 1.03115 0
M  V30 302 C 28.3689 -2.67953 2.10747 0
M  V30 303 H 29.5619 -1.01802 2.82093 0
M  V30 304 H 27.1149 -0.495134 1.4825 0
M  V30 305 H 27.8499 -3.01351 1.19825 0
M  V30 306 H 27.6349 -2.60993 2.92617 0
M  V30 307 H 29.1249 -3.43368 2.37673 0
M  V30 308 N 29.562 -1.4872 -0.521534 0
M  V30 309 C 30.525 -1.63379 -1.60748 0
M  V30 310 C 31.525 -0.50661 -1.52611 0
M  V30 311 O 32.715 -0.772601 -1.5613 0
M  V30 312 C 29.847 -1.61192 -3.00383 0
M  V30 313 H 31.04 -2.60217 -1.49087 0
M  V30 314 H 28.593 -1.37444 -0.744235 0
M  V30 315 H 29.328 -0.65863 -3.17541 0
M  V30 316 H 29.113 -2.43032 -3.07698 0
M  V30 317 H 30.603 -1.7466 -3.7932 0
M  V30 318 N 31.0401 0.771051 -1.3745 0
M  V30 319 C 32.2651 1.56529 -1.36065 0
M  V30 320 C 32.6901 1.88029 0.0515859 0
M  V30 321 O 32.0481 1.49282 1.02882 0
M  V30 322 C 32.0961 2.85187 -2.20683 0
M  V30 323 O 31.2001 3.79593 -1.61193 0
M  V30 324 H 30.5411 0.47411 -0.464883 0
M  V30 325 H 33.0711 0.954269 -1.80983 0
M  V30 326 H 33.0811 3.34283 -2.33921 0
M  V30 327 H 31.7561 2.61588 -3.23334 0
M  V30 328 H 30.3331 3.38239 -1.56999 0
M  V30 329 N 32.5182 1.22032 0.997298 0
M  V30 330 C 33.7462 1.06841 1.7718 0
M  V30 331 C 34.1612 -0.381325 1.84909 0
M  V30 332 O 33.5182 -1.26437 1.31605 0
M  V30 333 C 33.5692 1.66814 3.20711 0
M  V30 334 O 33.2902 3.06116 3.13408 0
M  V30 335 C 34.7912 1.56838 4.14628 0
M  V30 336 H 32.0112 0.374782 0.556578 0
M  V30 337 H 34.5552 1.61532 1.2541 0
M  V30 338 H 32.7102 1.16196 3.69564 0
M  V30 339 H 33.1242 3.34926 4.0364 0
M  V30 340 H 34.5982 2.03532 5.13107 0
M  V30 341 H 35.0752 0.524155 4.36061 0
M  V30 342 H 35.6812 2.06741 3.7167 0
M  V30 343 N 33.9963 -1.19345 1.0293 0
M  V30 344 C 34.9283 -2.22036 0.56857 0
M  V30 345 C 35.9413 -1.58865 -0.355779 0
M  V30 346 O 37.1303 -1.77851 -0.152103 0
M  V30 347 C 34.2303 -3.38363 -0.190752 0
M  V30 348 C 33.4033 -4.31118 0.738643 0
M  V30 349 C 32.4623 -5.26194 0.0246497 0
M  V30 350 O 31.4883 -5.65461 0.651354 0
M  V30 351 N 32.6903 -5.66971 -1.24594 0
M  V30 352 H 35.4553 -2.6219 1.45177 0
M  V30 353 H 33.0163 -1.34015 0.908381 0
M  V30 354 H 35.0083 -3.98981 -0.677961 0
M  V30 355 H 33.5783 -2.96994 -0.975366 0
M  V30 356 H 32.7983 -3.68276 1.40593 0
M  V30 357 H 34.0863 -4.90001 1.37029 0
M  V30 358 H 33.4843 -5.37104 -1.77583 0
M  V30 359 H 32.0413 -6.2984 -1.67764 0
M  V30 360 N 35.4744 -0.807222 -1.35358 0
M  V30 361 C 36.7204 -0.388463 -1.99045 0
M  V30 362 C 37.0534 1.04184 -1.63888 0
M  V30 363 O 36.3284 1.72292 -0.902535 0
M  V30 364 C 36.6114 -0.572783 -3.55515 0
M  V30 365 C 36.4644 -2.04807 -4.00468 0
M  V30 366 C 37.7834 0.00114064 -4.401 0
M  V30 367 H 34.9024 -0.142619 -0.723069 0
M  V30 368 H 37.5444 -1.01687 -1.60498 0
M  V30 369 H 35.6944 -0.0378425 -3.88482 0
M  V30 370 H 37.3664 -2.64544 -3.77908 0
M  V30 371 H 35.6094 -2.54427 -3.51353 0
M  V30 372 H 36.2804 -2.12792 -5.09337 0
M  V30 373 H 38.7564 -0.455716 -4.13597 0
M  V30 374 H 37.6324 -0.157737 -5.48673 0
M  V30 375 H 37.8934 1.09488 -4.28328 0
M  V30 376 N 36.9525 1.47285 -0.560781 0
M  V30 377 C 38.1925 2.0436 -0.0404627 0
M  V30 378 C 38.5565 1.42534 1.28639 0
M  V30 379 O 39.7575 1.90677 1.89462 0
M  V30 380 C 38.0285 3.57369 0.0471856 0
M  V30 381 S 39.5875 4.3579 0.513109 0
M  V30 382 H 36.4055 0.710492 -0.0268674 0
M  V30 383 H 39.0075 1.80611 -0.748323 0
M  V30 384 H 37.7115 3.9989 -0.922817 0
M  V30 385 H 37.2425 3.8562 0.778491 0
M  V30 386 H 39.2575 4.63476 1.77212 0
M  V30 387 N 38.4306 0.297415 1.54768 0
M  V30 388 C 39.6586 -0.315623 2.04478 0
M  V30 389 C 40.0736 -1.47792 1.17486 0
M  V30 390 O 39.4306 -1.81404 0.19971 0
M  V30 391 C 39.4816 -0.7753 3.53088 0
M  V30 392 O 39.2026 0.340732 4.36773 0
M  V30 393 C 40.7036 -1.45386 4.18781 0
M  V30 394 H 37.9236 -0.0690887 0.667434 0
M  V30 395 H 40.4676 0.436003 1.99798 0
M  V30 396 H 38.6226 -1.47696 3.58141 0
M  V30 397 H 39.0366 -0.0165035 5.24497 0
M  V30 398 H 40.5106 -1.72669 5.24299 0
M  V30 399 H 40.9876 -2.39275 3.68299 0
M  V30 400 H 41.5936 -0.795475 4.17795 0
M  V30 401 N 39.9087 -1.5758 0.0250728 0
M  V30 402 C 41.1567 -1.91255 -0.653151 0
M  V30 403 C 41.4777 -0.901691 -1.729 0
M  V30 404 O 40.7477 0.0573785 -1.95816 0
M  V30 405 H 39.3277 -0.705942 -0.244243 0
M  V30 406 H 41.9897 -1.94767 0.0719209 0
M  V30 407 H 41.0857 -2.91752 -1.10847 0
M  V30 408 N 41.3868 0.248026 -1.55636 0
M  V30 409 C 42.6148 0.993808 -1.81469 0
M  V30 410 C 43.0298 1.78991 -0.60064 0
M  V30 411 O 42.3868 1.77345 0.430682 0
M  V30 412 C 42.4378 1.93258 -3.05506 0
M  V30 413 O 42.1588 1.16869 -4.22224 0
M  V30 414 C 43.6598 2.79444 -3.4413 0
M  V30 415 H 40.8798 0.292486 -0.603898 0
M  V30 416 H 43.4238 0.271253 -2.02693 0
M  V30 417 H 41.5788 2.60943 -2.86335 0
M  V30 418 H 41.9928 1.80359 -4.92515 0
M  V30 419 H 43.4668 3.41066 -4.34026 0
M  V30 420 H 43.9438 3.50499 -2.64665 0
M  V30 421 H 44.5498 2.17214 -3.65648 0
M  V30 422 N 42.8649 1.48995 0.513639 0
M  V30 423 C 44.1419 1.48338 1.27495 0
M  V30 424 C 44.5219 0.204065 2.10111 0
M  V30 425 O 43.8699 -0.813881 2.13514 0
M  V30 426 C 44.0799 2.75498 2.14247 0
M  V30 427 C 45.4279 3.24484 2.73852 0
M  V30 428 O 46.4519 2.76528 2.24523 0
M  V30 429 O 45.3109 4.07974 3.6362 0
M  V30 430 H 42.4049 0.593149 0.576284 0
M  V30 431 H 44.9509 1.61246 0.528948 0
M  V30 432 H 43.7229 3.60109 1.53092 0
M  V30 433 H 43.3459 2.6539 2.96064 0
M  V30 434 N 44.343 -0.763751 1.37857 0
M  V30 435 C 45.276 -1.88486 1.28639 0
M  V30 436 C 46.254 -1.61757 0.165363 0
M  V30 437 O 47.438 -1.85391 0.340948 0
M  V30 438 C 44.565 -3.23884 0.990811 0
M  V30 439 C 43.611 -3.69514 2.12983 0
M  V30 440 S 44.444 -3.82244 3.75033 0
M  V30 441 C 45.6 -5.20477 3.47641 0
M  V30 442 H 45.833 -1.96017 2.23527 0
M  V30 443 H 43.366 -0.925684 1.23574 0
M  V30 444 H 45.324 -4.02081 0.827101 0
M  V30 445 H 43.985 -3.14044 0.0592832 0
M  V30 446 H 43.178 -4.67696 1.87821 0
M  V30 447 H 42.78 -2.98441 2.25408 0
M  V30 448 H 45.072 -6.05905 3.03125 0
M  V30 449 H 46.015 -5.50655 4.4518 0
M  V30 450 H 46.423 -4.88793 2.82385 0
M  V30 451 N 45.8211 -1.22559 -0.990812 0
M  V30 452 C 46.7681 -0.997519 -2.0813 0
M  V30 453 C 47.7381 0.0814702 -1.659 0
M  V30 454 O 48.9231 -0.0685424 -1.90677 0
M  V30 455 C 46.0631 -0.583615 -3.40129 0
M  V30 456 C 45.1761 -1.7336 -3.9569 0
M  V30 457 C 44.3111 -1.26748 -5.15857 0
M  V30 458 C 43.3501 -2.38888 -5.63559 0
M  V30 459 N 42.4871 -1.93308 -6.74964 0
M  V30 460 H 47.3271 -1.93099 -2.26973 0
M  V30 461 H 44.8641 -0.962114 -1.11273 0
M  V30 462 H 46.8221 -0.324801 -4.15934 0
M  V30 463 H 45.4521 0.312845 -3.2128 0
M  V30 464 H 44.5041 -2.10669 -3.16738 0
M  V30 465 H 45.8161 -2.57704 -4.27071 0
M  V30 466 H 44.9701 -0.966173 -5.98957 0
M  V30 467 H 43.7091 -0.394272 -4.86104 0
M  V30 468 H 42.7141 -2.69805 -4.79046 0
M  V30 469 H 43.9391 -3.26728 -5.95336 0
M  V30 470 H 41.8851 -1.08352 -6.4699 0
M  V30 471 H 41.8021 -2.71217 -7.05675 0
M  V30 472 H 43.0701 -1.66252 -7.61564 0
M  V30 473 N 47.2992 1.18797 -1.03562 0
M  V30 474 C 48.2292 2.24472 -0.643019 0
M  V30 475 C 49.2102 1.66433 0.351283 0
M  V30 476 O 50.3952 1.92803 0.232505 0
M  V30 477 C 47.5252 3.473 4.24935e-05 0
M  V30 478 C 46.4792 4.18055 -0.917257 0
M  V30 479 C 45.8052 5.34519 -0.138941 0
M  V30 480 C 47.1052 4.72109 -2.23407 0
M  V30 481 H 48.7992 2.57566 -1.52643 0
M  V30 482 H 46.3452 1.23806 -0.735394 0
M  V30 483 H 48.2982 4.20426 0.286383 0
M  V30 484 H 47.0222 3.13424 0.918299 0
M  V30 485 H 45.6812 3.46821 -1.1879 0
M  V30 486 H 45.3292 4.96891 0.781562 0
M  V30 487 H 45.0292 5.82794 -0.750005 0
M  V30 488 H 46.5532 6.10438 0.1405 0
M  V30 489 H 47.9672 5.36955 -2.00879 0
M  V30 490 H 46.3642 5.30897 -2.79765 0
M  V30 491 H 47.4342 3.89807 -2.88407 0
M  V30 492 N 48.7773 0.814389 1.34928 0
M  V30 493 C 50.1933 0.499084 1.51596 0
M  V30 494 C 50.3933 -0.978319 1.76157 0
M  V30 495 O 49.4493 -1.76309 1.80752 0
M  V30 496 C 50.7623 1.35121 2.68631 0
M  V30 497 C 52.3103 1.34746 2.82511 0
M  V30 498 C 52.7853 2.18388 4.0258 0
M  V30 499 N 54.2763 2.15966 4.09772 0
M  V30 500 C 55.0113 2.77437 5.01813 0
M  V30 501 N 54.5073 3.47866 5.99134 0
M  V30 502 N 56.3003 2.67037 4.94619 0
M  V30 503 H 48.4513 1.7711 1.17243 0
M  V30 504 H 50.7143 0.754256 0.574284 0
M  V30 505 H 50.4203 2.40001 2.57085 0
M  V30 506 H 50.2943 1.00991 3.63429 0
M  V30 507 H 52.6813 0.30648 2.93504 0
M  V30 508 H 52.7623 1.72869 1.88547 0
M  V30 509 H 52.4063 3.2253 3.92347 0
M  V30 510 H 52.3363 1.77621 4.9574 0
M  V30 511 H 54.8273 1.64729 3.40107 0
M  V30 512 H 55.1403 3.92038 6.65977 0
M  V30 513 H 53.4853 3.51972 5.99284 0
M  V30 514 H 56.6763 2.11597 4.17546 0
M  V30 515 H 56.8493 3.15232 5.66156 0
M  V30 516 N 50.2554 -1.46986 0.568584 0
M  V30 517 C 51.1854 -2.32946 -0.160753 0
M  V30 518 C 52.1664 -1.44487 -0.897631 0
M  V30 519 O 53.3514 -1.73327 -0.875867 0
M  V30 520 C 50.4814 -3.26494 -1.18403 0
M  V30 521 C 49.4354 -4.24282 -0.562895 0
M  V30 522 C 48.7614 -5.07236 -1.69163 0
M  V30 523 C 50.0614 -5.19989 0.490761 0
M  V30 524 H 51.7554 -2.94175 0.556916 0
M  V30 525 H 49.3014 -1.4146 0.26927 0
M  V30 526 H 51.2544 -3.85477 -1.70251 0
M  V30 527 H 49.9784 -2.63343 -1.93179 0
M  V30 528 H 48.6374 -3.66541 -0.0656164 0
M  V30 529 H 48.2854 -4.4048 -2.42871 0
M  V30 530 H 47.9854 -5.7345 -1.28174 0
M  V30 531 H 49.5094 -5.6908 -2.21314 0
M  V30 532 H 50.9234 -5.73271 0.0579047 0
M  V30 533 H 49.3204 -5.94469 0.820165 0
M  V30 534 H 50.3904 -4.64777 1.3824 0
M  V30 535 N 51.7335 -0.305618 -1.54608 0
M  V30 536 C 53.1445 0.186098 -1.8577 0
M  V30 537 C 53.4955 1.53058 -1.22751 0
M  V30 538 O 52.6205 2.09888 -0.526893 0
M  V30 539 C 53.2155 0.344449 -3.37044 0
M  V30 540 C 51.7745 0.780384 -3.68221 0
M  V30 541 C 50.9215 -0.108554 -2.77087 0
M  V30 542 H 53.8725 -0.526485 -1.49712 0
M  V30 543 H 53.8935 1.17828 -3.61796 0
M  V30 544 H 53.4055 -0.634235 -3.82883 0
M  V30 545 H 51.5065 1.76945 -3.27904 0
M  V30 546 H 51.6195 0.596572 -4.75371 0
M  V30 547 H 49.9835 0.412931 -2.5133 0
M  V30 548 H 50.7665 -1.08368 -3.25747 0
M  V30 549 N 53.2116 1.57565 -0.0334293 0
M  V30 550 C 54.1746 2.09393 0.932048 0
M  V30 551 C 55.1746 1.00986 1.25134 0
M  V30 552 O 56.3646 1.27129 1.19096 0
M  V30 553 C 53.4966 2.56338 2.2473 0
M  V30 554 H 54.6896 2.95984 0.483085 0
M  V30 555 H 52.2426 1.54819 0.21468 0
M  V30 556 H 52.9776 1.7309 2.74245 0
M  V30 557 H 52.7626 3.35542 2.02865 0
M  V30 558 H 54.2526 2.96646 2.93923 0
M  V30 559 N 54.6897 -0.239769 1.55765 0
M  V30 560 C 55.9147 -0.988373 1.82335 0
M  V30 561 C 56.3397 -1.77886 0.611421 0
M  V30 562 O 55.6977 -1.75889 -0.439639 0
M  V30 563 C 55.7457 -1.89627 3.06715 0
M  V30 564 O 54.8497 -2.98904 2.84131 0
M  V30 565 H 54.1907 -0.280858 0.601677 0
M  V30 566 H 56.7207 -0.258597 2.02959 0
M  V30 567 H 56.7307 -2.30957 3.36338 0
M  V30 568 H 55.4057 -1.31511 3.9456 0
M  V30 569 H 53.9827 -2.61651 2.65694 0
M  V30 570 N 56.1678 -1.49265 -0.50573 0
M  V30 571 C 57.5788 -1.51769 -1.08734 0
M  V30 572 C 57.9298 -0.301192 -1.93874 0
M  V30 573 O 57.0548 0.589456 -2.08217 0
M  V30 574 C 57.6498 -2.75017 -1.97867 0
M  V30 575 C 56.2088 -2.80314 -2.51199 0
M  V30 576 C 55.3558 -2.4562 -1.28709 0
M  V30 577 H 58.3068 -1.56031 -0.289855 0
M  V30 578 H 58.3278 -2.5491 -2.82491 0
M  V30 579 H 57.8398 -3.63539 -1.35873 0
M  V30 580 H 55.9408 -1.96061 -3.16845 0
M  V30 581 H 56.0538 -3.82366 -2.88675 0
M  V30 582 H 54.4178 -1.97297 -1.61078 0
M  V30 583 H 55.2008 -3.36411 -0.6843 0
M  V30 584 N 57.6459 0.756429 -1.3826 0
M  V30 585 C 58.5559 1.9009 -1.37488 0
M  V30 586 C 59.5719 1.71855 -0.272366 0
M  V30 587 O 60.7479 1.94827 -0.510318 0
M  V30 588 C 57.8129 3.25421 -1.19592 0
M  V30 589 C 56.8739 3.56202 -2.39622 0
M  V30 590 C 56.1069 4.85075 -2.2257 0
M  V30 591 O 56.3299 5.57246 -1.21793 0
M  V30 592 O 55.2639 5.15269 -3.11098 0
M  V30 593 H 59.0899 1.93695 -2.33914 0
M  V30 594 H 56.6749 0.901313 -1.1915 0
M  V30 595 H 58.5569 4.06337 -1.11661 0
M  V30 596 H 57.2319 3.22634 -0.262486 0
M  V30 597 H 56.1389 2.75458 -2.53128 0
M  V30 598 H 57.4719 3.63747 -3.31586 0
M  V30 599 N 59.124 1.23083 0.984299 0
M  V30 600 C 60.352 1.08714 1.76037 0
M  V30 601 C 60.767 -0.361691 1.85303 0
M  V30 602 O 60.124 -1.25034 1.32939 0
M  V30 603 C 60.175 1.70206 3.18923 0
M  V30 604 O 59.896 3.09423 3.10144 0
M  V30 605 C 61.397 1.61227 4.12941 0
M  V30 606 H 58.617 0.380664 0.552572 0
M  V30 607 H 61.161 1.62853 1.23689 0
M  V30 608 H 59.316 1.20109 3.6831 0
M  V30 609 H 59.73 3.39188 4.00065 0
M  V30 610 H 61.204 2.08962 5.10919 0
M  V30 611 H 61.681 0.570375 4.35481 0
M  V30 612 H 62.287 2.10671 3.69456 0
M  V30 613 N 60.6021 -1.18246 1.0419 0
M  V30 614 C 61.5521 -2.19843 0.604392 0
M  V30 615 C 62.5361 -1.56962 -0.353814 0
M  V30 616 O 63.7281 -1.76156 -0.17267 0
M  V30 617 C 60.8571 -3.43287 -0.0298975 0
M  V30 618 C 59.9431 -4.13288 0.951531 0
M  V30 619 N 60.3341 -4.59271 2.11906 0
M  V30 620 C 58.6321 -4.39165 0.7778 0
M  V30 621 C 59.3331 -5.13173 2.73912 0
M  V30 622 N 58.3091 -5.04763 2.01779 0
M  V30 623 H 62.1111 -2.53089 1.4941 0
M  V30 624 H 59.6251 -1.34465 0.910658 0
M  V30 625 H 61.6221 -4.15334 -0.361037 0
M  V30 626 H 60.2821 -3.11537 -0.915127 0
M  V30 627 H 61.2931 -4.5368 2.49789 0
M  V30 628 H 57.9701 -4.17461 -0.0572331 0
M  V30 629 H 59.3601 -5.58947 3.72864 0
M  V30 630 N 62.0802 -0.821533 -1.34494 0
M  V30 631 C 63.0102 -0.257138 -2.3208 0
M  V30 632 C 63.9912 0.625645 -1.58176 0
M  V30 633 O 65.1762 0.552811 -1.86166 0
M  V30 634 C 62.3062 0.582958 -3.42372 0
M  V30 635 C 61.2602 -0.202571 -4.2752 0
M  V30 636 C 60.5862 0.760179 -5.29269 0
M  V30 637 C 61.8862 -1.40998 -5.02908 0
M  V30 638 H 63.5802 -1.07247 -2.79532 0
M  V30 639 H 61.1262 -0.517163 -1.34393 0
M  V30 640 H 63.0792 0.987972 -4.09655 0
M  V30 641 H 61.8032 1.43133 -2.93565 0
M  V30 642 H 60.4622 -0.588936 -3.61838 0
M  V30 643 H 60.1102 1.60447 -4.76724 0
M  V30 644 H 59.8102 0.238809 -5.87115 0
M  V30 645 H 61.3342 1.16308 -5.9942 0
M  V30 646 H 62.7482 -1.07905 -5.63054 0
M  V30 647 H 61.1452 -1.86689 -5.70322 0
M  V30 648 H 62.2152 -2.1889 -4.32684 0
M  V30 649 N 63.5583 1.46682 -0.576371 0
M  V30 650 C 64.8353 1.95599 0.00703437 0
M  V30 651 C 65.2153 1.51904 1.46589 0
M  V30 652 O 64.5633 0.766755 2.15251 0
M  V30 653 C 64.7733 3.4864 -0.158404 0
M  V30 654 C 66.1213 4.24594 -0.0229439 0
M  V30 655 O 67.1453 3.56094 -0.0869173 0
M  V30 656 O 66.0043 5.46373 0.118015 0
M  V30 657 H 63.0983 0.825275 0.053384 0
M  V30 658 H 65.6443 1.56996 -0.644244 0
M  V30 659 H 64.4163 3.7331 -1.17282 0
M  V30 660 H 64.0393 3.94057 0.5296 0
M  V30 661 N 65.0364 0.313813 1.54444 0
M  V30 662 C 65.9694 -0.598866 2.20202 0
M  V30 663 C 66.9474 -1.12318 1.17573 0
M  V30 664 O 68.1314 -1.18899 1.46271 0
M  V30 665 C 65.2584 -1.82071 2.85601 0
M  V30 666 C 64.3044 -1.42851 4.01865 0
M  V30 667 S 65.1374 -0.473512 5.33402 0
M  V30 668 C 66.2934 -1.70286 6.0229 0
M  V30 669 H 66.5264 -0.0402532 2.97273 0
M  V30 670 H 64.0594 0.0979165 1.54089 0
M  V30 671 H 66.0174 -2.52184 3.23904 0
M  V30 672 H 64.6784 -2.3505 2.08351 0
M  V30 673 H 63.8714 -2.33871 4.46453 0
M  V30 674 H 63.4734 -0.807198 3.65185 0
M  V30 675 H 65.7654 -2.64168 6.23876 0
M  V30 676 H 66.7084 -1.29932 6.96077 0
M  V30 677 H 67.1164 -1.88541 5.32083 0
M  V30 678 N 66.5145 -1.57545 0.0417849 0
M  V30 679 C 67.4445 -2.14009 -0.933929 0
M  V30 680 C 68.4255 -1.05938 -1.33083 0
M  V30 681 O 69.6105 -1.33833 -1.40721 0
M  V30 682 C 66.7405 -2.67747 -2.21199 0
M  V30 683 C 65.6945 -3.80718 -1.95544 0
M  V30 684 C 65.0205 -4.20935 -3.29724 0
M  V30 685 C 66.3205 -5.06258 -1.28452 0
M  V30 686 H 68.0145 -2.95788 -0.463645 0
M  V30 687 H 65.5605 -1.42285 -0.221573 0
M  V30 688 H 67.5135 -3.05886 -2.89848 0
M  V30 689 H 66.2375 -1.83147 -2.70416 0
M  V30 690 H 64.8965 -3.43037 -1.2931 0
M  V30 691 H 64.5445 -3.33298 -3.76724 0
M  V30 692 H 64.2445 -4.9707 -3.13361 0
M  V30 693 H 65.7685 -4.61666 -3.9962 0
M  V30 694 H 67.1825 -5.41903 -1.8712 0
M  V30 695 H 65.5795 -5.87475 -1.22445 0
M  V30 696 H 66.6495 -4.84207 -0.259219 0
M  V30 697 N 67.9926 0.231505 -1.5589 0
M  V30 698 C 69.4086 0.580748 -1.48659 0
M  V30 699 C 69.6086 1.87617 -0.73498 0
M  V30 700 O 68.6646 2.51046 -0.270586 0
M  V30 701 C 69.9776 0.669202 -2.93159 0
M  V30 702 C 71.5256 0.760499 -3.03621 0
M  V30 703 C 72.0006 0.880383 -4.49459 0
M  V30 704 N 73.4916 0.944861 -4.53461 0
M  V30 705 C 74.2266 1.05716 -5.63571 0
M  V30 706 N 73.7226 1.13403 -6.83456 0
M  V30 707 N 75.5156 1.09152 -5.514 0
M  V30 708 H 67.6666 -0.618695 -2.03189 0
M  V30 709 H 69.9296 -0.215728 -0.923128 0
M  V30 710 H 69.6356 -0.212904 -3.51055 0
M  V30 711 H 69.5096 1.5361 -3.44505 0
M  V30 712 H 71.8966 1.63305 -2.45796 0
M  V30 713 H 71.9776 -0.131864 -2.5546 0
M  V30 714 H 71.6216 0.0123284 -5.07899 0
M  V30 715 H 71.5516 1.78802 -4.95316 0
M  V30 716 H 74.0426 0.896176 -3.6712 0
M  V30 717 H 74.3556 1.21921 -7.63122 0
M  V30 718 H 72.7006 1.10333 -6.86186 0
M  V30 719 H 75.8916 1.02805 -4.56671 0
M  V30 720 H 76.0646 1.17558 -6.37247 0
M  V30 721 N 69.4707 1.49531 0.497807 0
M  V30 722 C 70.4207 1.62829 1.59596 0
M  V30 723 C 71.4047 0.483824 1.53453 0
M  V30 724 O 72.5967 0.736937 1.60929 0
M  V30 725 C 69.7257 1.7011 2.98191 0
M  V30 726 C 68.8117 2.90144 3.09317 0
M  V30 727 N 69.2027 4.1418 2.90324 0
M  V30 728 C 67.5007 2.88148 3.40422 0
M  V30 729 C 68.2017 4.94886 3.05717 0
M  V30 730 N 67.1777 4.28314 3.34736 0
M  V30 731 H 70.9797 2.56446 1.4357 0
M  V30 732 H 68.4937 1.46347 0.704001 0
M  V30 733 H 70.4907 1.77735 3.77115 0
M  V30 734 H 69.1507 0.776315 3.15283 0
M  V30 735 H 70.1617 4.44109 2.66436 0
M  V30 736 H 66.8387 2.05061 3.63671 0
M  V30 737 H 68.2287 6.03432 2.95499 0
M  V30 738 N 70.9488 -0.749086 1.3866 0
M  V30 739 C 71.8788 -1.8764 1.38973 0
M  V30 740 C 72.8598 -1.68178 0.255004 0
M  V30 741 O 74.0448 -1.88704 0.458754 0
M  V30 742 C 71.1748 -3.25222 1.21851 0
M  V30 743 C 70.1288 -3.59295 2.32575 0
M  V30 744 C 69.4548 -4.95663 2.00555 0
M  V30 745 C 70.7548 -3.63709 3.7485 0
M  V30 746 H 72.4488 -1.87635 2.3331 0
M  V30 747 H 69.9948 -0.901329 1.12303 0
M  V30 748 H 71.9478 -4.03746 1.20695 0
M  V30 749 H 70.6718 -3.25719 0.239775 0
M  V30 750 H 69.3308 -2.83093 2.32925 0
M  V30 751 H 68.9788 -4.92724 1.01154 0
M  V30 752 H 68.6788 -5.19429 2.74714 0
M  V30 753 H 70.2028 -5.7656 2.01024 0
M  V30 754 H 71.6168 -4.32338 3.76506 0
M  V30 755 H 70.0138 -3.98986 4.48252 0
M  V30 756 H 71.0838 -2.63834 4.06841 0
M  V30 757 N 72.4269 -1.23603 -0.977757 0
M  V30 758 C 73.6569 -1.09487 -1.75203 0
M  V30 759 C 74.0649 0.356321 -1.85814 0
M  V30 760 O 73.4079 1.25816 -1.33851 0
M  V30 761 C 73.4699 -1.64905 -3.19447 0
M  V30 762 C 73.1339 -3.13688 -3.32338 0
M  V30 763 C 74.1309 -4.10953 -3.18455 0
M  V30 764 C 71.8159 -3.53449 -3.56902 0
M  V30 765 C 73.8099 -5.45962 -3.28944 0
M  V30 766 C 71.4969 -4.88602 -3.6703 0
M  V30 767 C 72.4949 -5.84668 -3.53062 0
M  V30 768 O 72.1829 -7.17365 -3.62826 0
M  V30 769 H 71.9149 -0.38367 -0.556573 0
M  V30 770 H 74.4689 -1.6398 -1.23693 0
M  V30 771 H 72.6989 -1.04835 -3.72218 0
M  V30 772 H 74.3879 -1.46226 -3.78646 0
M  V30 773 H 75.1539 -3.81577 -2.99372 0
M  V30 774 H 71.0329 -2.79188 -3.66844 0
M  V30 775 H 74.5769 -6.20925 -3.17958 0
M  V30 776 H 70.4739 -5.17653 -3.85623 0
M  V30 777 H 71.2419 -7.2515 -3.79605 0
M  V30 778 N 73.905 1.17692 -1.04816 0
M  V30 779 C 74.837 2.21103 -0.603822 0
M  V30 780 C 75.85 1.59411 0.33046 0
M  V30 781 O 77.039 1.7807 0.12379 0
M  V30 782 C 74.139 3.38623 0.136898 0
M  V30 783 C 73.312 4.29888 -0.807137 0
M  V30 784 C 72.371 5.26088 -0.10836 0
M  V30 785 O 71.397 5.64353 -0.741232 0
M  V30 786 N 72.599 5.68882 1.15558 0
M  V30 787 H 75.364 2.59848 -1.49329 0
M  V30 788 H 72.925 1.32553 -0.929587 0
M  V30 789 H 74.917 4.00009 0.614401 0
M  V30 790 H 73.487 2.98508 0.927993 0
M  V30 791 H 72.707 3.65993 -1.46434 0
M  V30 792 H 73.995 4.87759 -1.44807 0
M  V30 793 H 73.393 5.39861 1.69015 0
M  V30 794 H 71.95 6.32429 1.57722 0
M  V30 795 N 75.3831 0.828654 1.34056 0
M  V30 796 C 76.6311 0.41863 1.97717 0
M  V30 797 C 76.9521 -1.02314 1.66002 0
M  V30 798 O 76.2221 -1.71119 0.953683 0
M  V30 799 H 74.8021 0.151809 0.731412 0
M  V30 800 H 77.4641 1.05936 1.63596 0
M  V30 801 H 76.5601 0.542318 3.07352 0
M  V30 802 N 76.8612 -1.46375 0.584142 0
M  V30 803 C 78.1012 -2.0427 0.0729695 0
M  V30 804 C 78.4652 -1.44563 -1.26355 0
M  V30 805 O 79.6662 -1.93667 -1.86405 0
M  V30 806 C 77.9372 -3.57399 0.00967464 0
M  V30 807 S 79.4962 -4.36551 -0.443714 0
M  V30 808 H 76.3142 -0.709975 0.0381673 0
M  V30 809 H 78.9162 -1.79398 0.776962 0
M  V30 810 H 77.6202 -3.98372 0.986319 0
M  V30 811 H 77.1512 -3.8681 -0.717044 0
M  V30 812 H 79.1662 -4.66237 -1.69816 0
M  V30 813 N 78.3393 -0.321999 -1.54275 0
M  V30 814 C 79.2713 0.578671 -2.21775 0
M  V30 815 C 80.2843 1.08109 -1.21722 0
M  V30 816 O 81.4733 0.994938 -1.482 0
M  V30 817 C 78.5733 1.80661 -2.86731 0
M  V30 818 C 77.7463 1.44314 -4.12907 0
M  V30 819 C 76.8053 2.52845 -4.61472 0
M  V30 820 O 75.8313 2.17054 -5.2619 0
M  V30 821 N 77.0333 3.83748 -4.35566 0
M  V30 822 H 79.7983 0.000709447 -2.997 0
M  V30 823 H 77.3593 -0.145132 -1.61248 0
M  V30 824 H 79.3513 2.52655 -3.16145 0
M  V30 825 H 77.9213 2.29245 -2.12521 0
M  V30 826 H 77.1413 0.554906 -3.90275 0
M  V30 827 H 78.4293 1.17598 -4.95023 0
M  V30 828 H 77.8273 4.15625 -3.83761 0
M  V30 829 H 76.3843 4.51977 -4.69638 0
M  V30 830 N 79.8174 1.5752 -0.0501392 0
M  V30 831 C 81.0634 1.92936 0.624798 0
M  V30 832 C 81.3964 0.928685 1.70555 0
M  V30 833 O 80.6714 -0.0454779 1.94447 0
M  V30 834 C 80.9544 3.38737 1.22185 0
M  V30 835 C 80.8074 4.49552 0.149218 0
M  V30 836 C 82.1264 3.84913 2.13378 0
M  V30 837 H 79.2454 0.701604 0.225657 0
M  V30 838 H 81.8874 1.89671 -0.111693 0
M  V30 839 H 80.0374 3.4165 1.84953 0
M  V30 840 H 81.7094 4.58768 -0.482648 0
M  V30 841 H 79.9524 4.30638 -0.522841 0
M  V30 842 H 80.6234 5.48653 0.606966 0
M  V30 843 H 83.0994 3.8387 1.60572 0
M  V30 844 H 81.9754 4.87584 2.52097 0
M  V30 845 H 82.2364 3.21611 3.03346 0
M  V30 846 N 81.2955 -0.223234 1.56011 0
M  V30 847 C 82.5415 -0.949279 1.79211 0
M  V30 848 C 82.8745 -1.84054 0.619494 0
M  V30 849 O 82.1495 -1.90726 -0.381317 0
M  V30 850 C 82.4325 -1.78965 3.12479 0
M  V30 851 C 82.2855 -0.924997 4.40186 0
M  V30 852 C 83.6045 -2.76774 3.42175 0
M  V30 853 H 80.7235 -0.343676 0.651963 0
M  V30 854 H 83.3655 -0.218253 1.88742 0
M  V30 855 H 81.5155 -2.41291 3.04485 0
M  V30 856 H 83.1875 -0.318615 4.60198 0
M  V30 857 H 81.4305 -0.230344 4.33188 0
M  V30 858 H 82.1015 -1.54735 5.29869 0
M  V30 859 H 84.5775 -2.24584 3.50287 0
M  V30 860 H 83.4535 -3.32678 4.36597 0
M  V30 861 H 83.7145 -3.54429 2.64258 0
M  V30 862 N 82.7736 -1.49793 -0.48987 0
M  V30 863 C 83.7056 -1.63413 -1.60713 0
M  V30 864 C 84.7186 -0.516329 -1.54395 0
M  V30 865 O 85.9076 -0.788812 -1.60125 0
M  V30 866 C 83.0076 -1.58516 -2.99543 0
M  V30 867 C 82.1806 -2.86016 -3.30928 0
M  V30 868 C 81.2396 -2.74018 -4.49222 0
M  V30 869 O 80.2656 -3.47964 -4.50455 0
M  V30 870 N 81.4676 -1.86309 -5.4979 0
M  V30 871 H 84.2326 -2.59777 -1.49452 0
M  V30 872 H 81.7936 -1.47022 -0.677955 0
M  V30 873 H 83.7856 -1.48128 -3.76617 0
M  V30 874 H 82.3556 -0.69965 -3.0467 0
M  V30 875 H 81.5756 -3.10672 -2.42645 0
M  V30 876 H 82.8636 -3.70521 -3.487 0
M  V30 877 H 82.2616 -1.2551 -5.51601 0
M  V30 878 H 80.8186 -1.81837 -6.25922 0
M  V30 879 N 84.2517 0.741722 -1.39055 0
M  V30 880 C 85.4997 1.49818 -1.35643 0
M  V30 881 C 85.8207 1.94938 0.0491642 0
M  V30 882 O 85.0907 1.68505 0.999141 0
M  V30 883 H 83.6707 0.555755 -0.499144 0
M  V30 884 H 86.3327 0.880957 -1.73854 0
M  V30 885 H 85.4287 2.38348 -2.01486 0
M  V30 886 N 85.7298 1.2412 0.971189 0
M  V30 887 C 86.6778 1.02812 2.08644 0
M  V30 888 C 87.6718 -0.0358403 1.69362 0
M  V30 889 O 88.8778 0.118429 1.7961 0
M  V30 890 H 85.2528 0.315428 0.682649 0
M  V30 891 H 87.2238 1.97397 2.23779 0
M  V30 892 C 85.9728 0.645874 3.41649 0
M  V30 893 H 85.2958 1.45632 3.72332 0
M  V30 894 H 86.7358 0.536366 4.20594 0
M  V30 895 C 85.1948 -0.646713 3.30635 0
M  V30 896 O 85.7248 -1.69338 3.64263 0
M  V30 897 N 83.9308 -0.626115 2.83775 0
M  V30 898 H 83.4778 0.225988 2.56607 0
M  V30 899 H 83.4358 -1.49117 2.76788 0
M  V30 900 N 87.2079 -1.17134 1.05439 0
M  V30 901 C 88.1379 -2.2342 0.678649 0
M  V30 902 C 89.1189 -1.66971 -0.32476 0
M  V30 903 O 90.3039 -1.93149 -0.201802 0
M  V30 904 C 87.4339 -3.47256 0.0552099 0
M  V30 905 C 86.3879 -4.16543 0.98365 0
M  V30 906 C 85.7139 -5.34231 0.223961 0
M  V30 907 C 87.0139 -4.68495 2.3089 0
M  V30 908 H 88.7079 -2.55105 1.56722 0
M  V30 909 H 86.2539 -1.2262 0.754998 0
M  V30 910 H 88.2069 -4.20828 -0.21946 0
M  V30 911 H 86.9309 -3.14846 -0.868319 0
M  V30 912 H 85.5899 -3.44887 1.24293 0
M  V30 913 H 85.2379 -4.98071 -0.702412 0
M  V30 914 H 84.9379 -5.81527 0.842627 0
M  V30 915 H 86.4619 -6.10585 -0.0433671 0
M  V30 916 H 87.8759 -5.33691 2.09396 0
M  V30 917 H 86.2729 -5.26379 2.88176 0
M  V30 918 H 87.3429 -3.85169 2.94572 0
M  V30 919 N 88.686 -0.835752 -1.33615 0
M  V30 920 C 89.596 -0.269088 -2.33052 0
M  V30 921 C 90.612 0.603251 -1.63208 0
M  V30 922 O 91.788 0.508112 -1.94885 0
M  V30 923 C 88.853 0.549091 -3.42324 0
M  V30 924 C 87.914 -0.347156 -4.27894 0
M  V30 925 C 87.147 0.43207 -5.31948 0
M  V30 926 O 87.37 1.66409 -5.45586 0
M  V30 927 O 86.304 -0.192298 -6.01593 0
M  V30 928 H 90.13 -1.09243 -2.83372 0
M  V30 929 H 87.715 -0.598198 -1.36901 0
M  V30 930 H 89.597 1.01414 -4.09015 0
M  V30 931 H 88.272 1.34955 -2.94226 0
M  V30 932 H 87.179 -0.859979 -3.64081 0
M  V30 933 H 88.512 -1.1123 -4.79467 0
M  V30 934 N 90.1641 1.46063 -0.591896 0
M  V30 935 C 91.0941 2.33172 0.123673 0
M  V30 936 C 92.0751 1.45897 0.87453 0
M  V30 937 O 93.2601 1.74698 0.848181 0
M  V30 938 C 90.3901 3.28336 1.13194 0
M  V30 939 C 89.3441 4.25124 0.495324 0
M  V30 940 C 88.6701 5.09863 1.61071 0
M  V30 941 C 89.9701 5.19143 -0.573425 0
M  V30 942 H 91.6641 2.93252 -0.603646 0
M  V30 943 H 89.2101 1.41014 -0.291741 0
M  V30 944 H 91.1631 3.88137 1.64097 0
M  V30 945 H 89.8871 2.66383 1.88965 0
M  V30 946 H 88.5461 3.66599 0.00729452 0
M  V30 947 H 88.1941 4.44288 2.35832 0
M  V30 948 H 87.8941 5.75417 1.19035 0
M  V30 949 H 89.4181 5.72529 2.12233 0
M  V30 950 H 90.8321 5.73106 -0.1491 0
M  V30 951 H 89.2291 5.93089 -0.914636 0
M  V30 952 H 90.2991 4.62519 -1.45617 0
M  V30 953 N 91.6422 0.330177 1.54103 0
M  V30 954 C 92.8702 -0.272179 2.05102 0
M  V30 955 C 93.2852 -1.45267 1.20595 0
M  V30 956 O 92.6422 -1.8094 0.238144 0
M  V30 957 C 92.6932 -0.70023 3.54653 0
M  V30 958 O 92.4142 0.433301 4.35952 0
M  V30 959 C 93.9152 -1.3647 4.21771 0
M  V30 960 H 91.1352 -0.0549159 0.668749 0
M  V30 961 H 93.6792 0.478285 1.98828 0
M  V30 962 H 91.8342 -1.40066 3.61193 0
M  V30 963 H 92.2482 0.0947539 5.24414 0
M  V30 964 H 93.7222 -1.61509 5.27843 0
M  V30 965 H 94.1992 -2.31409 3.73292 0
M  V30 966 H 94.8052 -0.706675 4.19388 0
M  V30 967 N 93.1203 -1.57491 0.0584922 0
M  V30 968 C 94.3503 -1.9701 -0.622134 0
M  V30 969 C 94.7583 -0.935034 -1.6448 0
M  V30 970 O 94.1013 0.0882904 -1.83488 0
M  V30 971 C 94.1633 -3.32794 -1.35972 0
M  V30 972 C 93.8273 -4.54343 -0.492043 0
M  V30 973 C 94.8243 -5.19323 0.244901 0
M  V30 974 C 92.5093 -5.00534 -0.420821 0
M  V30 975 C 94.5033 -6.28835 1.04143 0
M  V30 976 C 92.1903 -6.09921 0.379389 0
M  V30 977 C 93.1883 -6.73933 1.10919 0
M  V30 978 O 92.8763 -7.81216 1.89623 0
M  V30 979 H 92.6083 -0.653127 -0.174359 0
M  V30 980 H 95.1623 -2.05029 0.123418 0
M  V30 981 H 93.3923 -3.21351 -2.15105 0
M  V30 982 H 95.0813 -3.5701 -1.93129 0
M  V30 983 H 95.8473 -4.8459 0.19939 0
M  V30 984 H 91.7263 -4.50496 -0.978474 0
M  V30 985 H 95.2703 -6.7873 1.61157 0
M  V30 986 H 91.1673 -6.44089 0.426512 0
M  V30 987 H 91.9353 -7.98029 1.81913 0
M  V30 988 N 94.5984 0.214957 -1.56127 0
M  V30 989 C 95.5284 1.2695 -1.95974 0
M  V30 990 C 96.5094 1.48539 -0.828868 0
M  V30 991 O 97.6944 1.60611 -1.09168 0
M  V30 992 C 94.8244 2.61794 -2.28214 0
M  V30 993 C 93.7784 2.54851 -3.43853 0
M  V30 994 C 93.1044 3.93785 -3.61715 0
M  V30 995 C 94.4044 2.09065 -4.78632 0
M  V30 996 H 96.0984 0.93846 -2.84312 0
M  V30 997 H 93.6444 0.449996 -1.36788 0
M  V30 998 H 95.5974 3.35731 -2.54682 0
M  V30 999 H 94.3214 2.96599 -1.36736 0
M  V30 1000 H 92.9804 1.8337 -3.17444 0
M  V30 1001 H 92.6284 4.25908 -2.67602 0
M  V30 1002 H 92.3284 3.90019 -4.39498 0
M  V30 1003 H 93.8524 4.69374 -3.90539 0
M  V30 1004 H 95.2664 2.7275 -5.04262 0
M  V30 1005 H 93.6634 2.16346 -5.59745 0
M  V30 1006 H 94.7334 1.04315 -4.73547 0
M  V30 1007 N 96.0765 1.50051 0.48192 0
M  V30 1008 C 97.4875 1.5348 1.06305 0
M  V30 1009 C 97.8385 0.331997 1.93371 0
M  V30 1010 O 96.9635 -0.556256 2.09129 0
M  V30 1011 C 97.5585 2.7813 1.93466 0
M  V30 1012 C 96.1175 2.84275 2.46707 0
M  V30 1013 C 95.2645 2.47637 1.24785 0
M  V30 1014 H 98.2155 1.56472 0.264995 0
M  V30 1015 H 98.2365 2.59372 2.78399 0
M  V30 1016 H 97.7485 3.65654 1.30072 0
M  V30 1017 H 95.8495 2.01077 3.13686 0
M  V30 1018 H 95.9625 3.8691 2.82555 0
M  V30 1019 H 94.3265 1.99835 1.57918 0
M  V30 1020 H 95.1095 3.37457 0.630694 0
M  V30 1021 N 97.5546 -0.734337 1.39446 0
M  V30 1022 C 98.7826 -1.52358 1.39981 0
M  V30 1023 C 99.1976 -1.88799 -0.0054975 0
M  V30 1024 O 98.5546 -1.54146 -0.976998 0
M  V30 1025 C 98.6056 -2.81072 2.27333 0
M  V30 1026 O 98.3266 -2.46178 3.62392 0
M  V30 1027 C 99.8276 -3.75096 2.36259 0
M  V30 1028 H 97.0476 -0.470806 0.478103 0
M  V30 1029 H 99.5916 -0.907339 1.83269 0
M  V30 1030 H 97.7466 -3.39026 1.87457 0
M  V30 1031 H 98.1606 -3.28866 4.08592 0
M  V30 1032 H 99.6346 -4.62305 3.01626 0
M  V30 1033 H 100.112 -4.16892 1.38194 0
M  V30 1034 H 100.718 -3.23061 2.76608 0
M  V30 1035 N 99.0327 -1.24633 -0.964593 0
M  V30 1036 C 99.9807 -1.03917 -2.08096 0
M  V30 1037 C 100.975 0.0268581 -1.69379 0
M  V30 1038 O 102.181 -0.127952 -1.79545 0
M  V30 1039 H 98.5557 -0.319044 -0.680966 0
M  V30 1040 H 100.527 -1.98581 -2.22729 0
M  V30 1041 C 99.2757 -0.663983 -3.41301 0
M  V30 1042 H 98.5987 -1.47605 -3.71555 0
M  V30 1043 H 100.039 -0.558663 -4.20303 0
M  V30 1044 C 98.4977 0.629169 -3.30973 0
M  V30 1045 O 99.0277 1.67404 -3.65156 0
M  V30 1046 N 97.2337 0.611057 -2.84103 0
M  V30 1047 H 96.7807 -0.239593 -2.56483 0
M  V30 1048 H 96.7387 1.47647 -2.77575 0
M  V30 1049 N 100.511 1.16574 -1.06058 0
M  V30 1050 C 101.474 2.19085 -0.673392 0
M  V30 1051 C 102.474 1.5835 0.279648 0
M  V30 1052 O 103.664 1.74088 0.0623488 0
M  V30 1053 C 100.796 3.40899 0.00954234 0
M  V30 1054 H 101.989 2.54853 -1.58081 0
M  V30 1055 H 99.5418 1.30808 -0.855516 0
M  V30 1056 H 100.277 3.10684 0.929826 0
M  V30 1057 H 100.062 3.86233 -0.67573 0
M  V30 1058 H 101.552 4.1675 0.266245 0
M  V30 1059 N 101.989 0.842826 1.3317 0
M  V30 1060 C 103.214 0.453129 2.02389 0
M  V30 1061 C 103.639 -0.939105 1.6298 0
M  V30 1062 O 102.997 -1.61472 0.8244 0
M  V30 1063 C 103.045 0.586094 3.55805 0
M  V30 1064 O 102.149 -0.386029 4.10589 0
M  V30 1065 H 101.49 0.183664 0.638094 0
M  V30 1066 H 104.02 1.13875 1.69981 0
M  V30 1067 H 104.03 0.469209 4.05293 0
M  V30 1068 H 102.705 1.6014 3.83833 0
M  V30 1069 H 101.282 -0.226371 3.72212 0
M  V30 1070 N 103.467 -1.45747 0.599634 0
M  V30 1071 C 104.397 -2.33235 -0.111306 0
M  V30 1072 C 105.378 -1.46359 -0.866781 0
M  V30 1073 O 106.563 -1.75146 -0.838904 0
M  V30 1074 C 103.693 -3.28932 -1.11451 0
M  V30 1075 C 102.647 -4.25381 -0.472772 0
M  V30 1076 C 101.973 -5.1071 -1.58365 0
M  V30 1077 C 103.273 -5.18831 0.600948 0
M  V30 1078 H 104.967 -2.92927 0.61919 0
M  V30 1079 H 102.513 -1.40857 0.299215 0
M  V30 1080 H 104.466 -3.89002 -1.62036 0
M  V30 1081 H 103.19 -2.67381 -1.8755 0
M  V30 1082 H 101.849 -3.66598 0.0121472 0
M  V30 1083 H 101.497 -4.45533 -2.33473 0
M  V30 1084 H 101.197 -5.7604 -1.15982 0
M  V30 1085 H 102.721 -5.73647 -2.09194 0
M  V30 1086 H 104.135 -5.73019 0.179491 0
M  V30 1087 H 102.532 -5.92595 0.946076 0
M  V30 1088 H 103.602 -4.6174 1.48068 0
M  V30 1089 N 104.945 -0.338344 -1.53925 0
M  V30 1090 C 106.17 0.263987 -2.05713 0
M  V30 1091 C 106.595 1.43847 -1.21201 0
M  V30 1092 O 105.953 1.79904 -0.224535 0
M  V30 1093 C 106.001 0.662 -3.54471 0
M  V30 1094 O 105.105 1.76265 -3.72833 0
M  V30 1095 H 104.446 0.0448722 -0.662482 0
M  V30 1096 H 106.976 -0.491048 -1.9862 0
M  V30 1097 H 106.986 0.940594 -3.9701 0
M  V30 1098 H 105.661 -0.196937 -4.15433 0
M  V30 1099 H 104.238 1.48173 -3.42198 0
M  V30 1100 N 106.423 1.57458 -0.0668435 0
M  V30 1101 C 107.67 1.93301 0.603406 0
M  V30 1102 C 107.998 0.946486 1.69917 0
M  V30 1103 O 107.253 -0.0387021 1.95662 0
M  V30 1104 C 107.552 3.35784 1.22409 0
M  V30 1105 C 107.218 4.50179 0.254955 0
M  V30 1106 C 105.88 4.81199 -0.0116746 0
M  V30 1107 C 108.232 5.19598 -0.408338 0
M  V30 1108 C 105.56 5.78978 -0.94877 0
M  V30 1109 C 107.912 6.18381 -1.33372 0
M  V30 1110 C 106.576 6.47821 -1.60887 0
M  V30 1111 H 105.846 0.707338 0.220802 0
M  V30 1112 H 108.493 1.91012 -0.136665 0
M  V30 1113 H 106.798 3.34515 2.03978 0
M  V30 1114 H 108.495 3.60804 1.74989 0
M  V30 1115 H 105.085 4.25983 0.472954 0
M  V30 1116 H 109.269 4.95832 -0.215456 0
M  V30 1117 H 104.525 6.00115 -1.16925 0
M  V30 1118 H 108.699 6.71277 -1.85367 0
M  V30 1119 H 106.326 7.23399 -2.33661 0
M  V30 1120 N 107.901 -0.206675 1.56239 0
M  V30 1121 C 108.831 -1.25909 1.96645 0
M  V30 1122 C 109.812 -1.48097 0.836734 0
M  V30 1123 O 110.997 -1.6003 1.10019 0
M  V30 1124 C 108.127 -2.6058 2.29599 0
M  V30 1125 C 107.081 -2.53024 3.452 0
M  V30 1126 C 106.407 -3.91861 3.63798 0
M  V30 1127 C 107.707 -2.06524 4.79734 0
M  V30 1128 H 109.401 -0.923369 2.84806 0
M  V30 1129 H 106.947 -0.442735 1.37025 0
M  V30 1130 H 108.9 -3.34375 2.56459 0
M  V30 1131 H 107.624 -2.95869 1.38307 0
M  V30 1132 H 106.283 -1.81684 3.18412 0
M  V30 1133 H 105.931 -4.24483 2.69857 0
M  V30 1134 H 105.631 -3.87683 4.4156 0
M  V30 1135 H 107.155 -4.67296 3.93022 0
M  V30 1136 H 108.569 -2.70072 5.05702 0
M  V30 1137 H 106.966 -2.13374 5.60885 0
M  V30 1138 H 108.036 -1.01802 4.74093 0
M  V30 1139 N 109.379 -1.50304 -0.473955 0
M  V30 1140 C 110.311 -1.65109 -1.58971 0
M  V30 1141 C 111.324 -0.532676 -1.53839 0
M  V30 1142 O 112.513 -0.805751 -1.59279 0
M  V30 1143 C 109.613 -1.61684 -2.97845 0
M  V30 1144 C 108.786 -2.8951 -3.27876 0
M  V30 1145 C 107.845 -2.78768 -4.4629 0
M  V30 1146 O 106.871 -3.52722 -4.46739 0
M  V30 1147 N 108.073 -1.9213 -5.47783 0
M  V30 1148 H 110.838 -2.61347 -1.46689 0
M  V30 1149 H 108.399 -1.47732 -0.662324 0
M  V30 1150 H 110.391 -1.52114 -3.75024 0
M  V30 1151 H 108.961 -0.731925 -3.03911 0
M  V30 1152 H 108.181 -3.13228 -2.39336 0
M  V30 1153 H 109.469 -3.74199 -3.4475 0
M  V30 1154 H 108.867 -1.31353 -5.50239 0
M  V30 1155 H 107.424 -1.88466 -6.23958 0
M  V30 1156 N 110.857 0.726932 -1.39834 0
M  V30 1157 C 112.134 1.47902 -1.28001 0
M  V30 1158 C 112.514 2.1083 0.106789 0
M  V30 1159 O 111.862 1.99242 1.11869 0
M  V30 1160 C 112.072 2.52392 -2.41038 0
M  V30 1161 C 113.42 3.18546 -2.80737 0
M  V30 1162 O 114.444 2.62708 -2.40547 0
M  V30 1163 O 113.303 4.19604 -3.50135 0
M  V30 1164 H 110.397 0.657163 -0.502062 0
M  V30 1165 H 112.943 0.760071 -1.51727 0
M  V30 1166 H 111.715 2.04329 -3.33715 0
M  V30 1167 H 111.338 3.31837 -2.19021 0
M  V30 1168 N 112.336 1.25143 0.95797 0
M  V30 1169 C 113.585 1.0909 1.69654 0
M  V30 1170 C 113.898 -0.368548 1.92097 0
M  V30 1171 O 115.104 -0.649455 2.63618 0
M  V30 1172 C 113.56 1.90395 3.05414 0
M  V30 1173 C 113.168 3.4081 2.90779 0
M  V30 1174 C 114.912 1.82901 3.83076 0
M  V30 1175 C 112.819 4.14423 4.21909 0
M  V30 1176 H 111.749 0.404625 0.636235 0
M  V30 1177 H 114.4 1.4931 1.06672 0
M  V30 1178 H 112.782 1.42996 3.69281 0
M  V30 1179 H 113.956 3.95859 2.35865 0
M  V30 1180 H 112.271 3.49361 2.26575 0
M  V30 1181 H 114.868 2.35196 4.80195 0
M  V30 1182 H 115.211 0.796224 4.08615 0
M  V30 1183 H 115.744 2.28033 3.25954 0
M  V30 1184 H 112.483 5.18102 4.01561 0
M  V30 1185 H 112.003 3.64159 4.76601 0
M  V30 1186 H 113.682 4.21956 4.90471 0
M  V30 1187 N 113.814 -1.1601 1.06675 0
M  V30 1188 C 114.746 -2.20115 0.638921 0
M  V30 1189 C 115.759 -1.59916 -0.305057 0
M  V30 1190 O 116.948 -1.78245 -0.0954446 0
M  V30 1191 C 114.048 -3.38798 -0.0830083 0
M  V30 1192 C 113.221 -4.2855 0.875426 0
M  V30 1193 C 112.28 -5.25849 0.192042 0
M  V30 1194 O 111.306 -5.63102 0.830921 0
M  V30 1195 N 112.508 -5.70648 -1.06493 0
M  V30 1196 H 115.273 -2.57439 1.53444 0
M  V30 1197 H 112.834 -1.31057 0.950557 0
M  V30 1198 H 114.826 -4.00936 -0.550685 0
M  V30 1199 H 113.396 -2.99947 -0.880386 0
M  V30 1200 H 112.616 -3.63617 1.52238 0
M  V30 1201 H 113.904 -4.85393 1.52548 0
M  V30 1202 H 113.302 -5.42482 -1.60405 0
M  V30 1203 H 111.859 -6.34859 -1.47641 0
M  V30 1204 N 115.292 -0.849877 -1.32721 0
M  V30 1205 C 116.202 -0.293791 -2.32753 0
M  V30 1206 C 117.218 0.585906 -1.63839 0
M  V30 1207 O 118.394 0.487413 -1.95413 0
M  V30 1208 C 115.459 0.512752 -3.42887 0
M  V30 1209 C 114.52 -0.39252 -4.27502 0
M  V30 1210 C 113.753 0.375625 -5.32377 0
M  V30 1211 O 113.976 1.60613 -5.4732 0
M  V30 1212 O 112.91 -0.256094 -6.01355 0
M  V30 1213 H 116.736 -1.12242 -2.82197 0
M  V30 1214 H 114.321 -0.612685 -1.36259 0
M  V30 1215 H 116.203 0.970704 -4.10067 0
M  V30 1216 H 114.878 1.31826 -2.95641 0
M  V30 1217 H 113.785 -0.898547 -3.63149 0
M  V30 1218 H 115.118 -1.16309 -4.7826 0
M  V30 1219 N 116.77 1.45427 -0.607355 0
M  V30 1220 C 118.016 2.0254 -0.102607 0
M  V30 1221 C 118.349 1.47478 1.26348 0
M  V30 1222 O 117.624 0.64939 1.83339 0
M  V30 1223 C 117.907 3.60044 -0.0634347 0
M  V30 1224 C 117.76 4.2544 -1.46017 0
M  V30 1225 C 119.079 4.35646 0.624514 0
M  V30 1226 H 116.198 0.73598 -0.0387607 0
M  V30 1227 H 118.84 1.73284 -0.779282 0
M  V30 1228 H 116.99 3.85101 0.512808 0
M  V30 1229 H 118.662 4.11569 -2.08347 0
M  V30 1230 H 116.905 3.83849 -2.02094 0
M  V30 1231 H 117.576 5.34342 -1.385 0
M  V30 1232 H 120.052 4.15882 0.134723 0
M  V30 1233 H 118.928 5.45376 0.621028 0
M  V30 1234 H 119.189 4.08501 1.69055 0
M  V30 1235 N 118.248 0.346503 1.53744 0
M  V30 1236 C 119.18 -0.543316 2.22667 0
M  V30 1237 C 120.193 -1.06159 1.23427 0
M  V30 1238 O 121.382 -0.971235 1.49764 0
M  V30 1239 C 118.482 -1.76076 2.89569 0
M  V30 1240 C 117.655 -1.37727 4.15151 0
M  V30 1241 C 116.714 -2.45471 4.65436 0
M  V30 1242 O 115.74 -2.08655 5.29577 0
M  V30 1243 N 116.942 -3.7677 4.41616 0
M  V30 1244 H 119.707 0.0469703 2.99663 0
M  V30 1245 H 117.268 0.170766 1.60997 0
M  V30 1246 H 119.26 -2.47593 3.20125 0
M  V30 1247 H 117.83 -2.25835 2.16142 0
M  V30 1248 H 117.05 -0.492746 3.91108 0
M  V30 1249 H 118.338 -1.09708 4.96832 0
M  V30 1250 H 117.736 -4.09467 3.90325 0
M  V30 1251 H 116.293 -4.44448 4.7677 0
M  V30 1252 N 119.726 -1.57421 0.075193 0
M  V30 1253 C 120.974 -1.93236 -0.591974 0
M  V30 1254 C 121.295 -0.956241 -1.69944 0
M  V30 1255 O 120.565 -0.00494792 -1.95899 0
M  V30 1256 H 119.145 -0.713355 -0.22166 0
M  V30 1257 H 121.807 -1.9444 0.133848 0
M  V30 1258 H 120.903 -2.95131 -1.01509 0
M  V30 1259 N 121.204 0.198386 -1.56346 0
M  V30 1260 C 122.434 0.934215 -1.84271 0
M  V30 1261 C 122.842 1.77496 -0.655125 0
M  V30 1262 O 122.185 1.7961 0.385488 0
M  V30 1263 C 122.247 1.88278 -3.06254 0
M  V30 1264 C 121.911 1.22431 -4.40295 0
M  V30 1265 C 122.908 0.602839 -5.16393 0
M  V30 1266 C 120.593 1.22915 -4.87029 0
M  V30 1267 C 122.587 -0.0050083 -6.374 0
M  V30 1268 C 120.274 0.617465 -6.07973 0
M  V30 1269 C 121.272 0.00146341 -6.83 0
M  V30 1270 O 120.96 -0.600642 -8.01653 0
M  V30 1271 H 120.692 0.278245 -0.616081 0
M  V30 1272 H 123.246 0.211626 -2.04307 0
M  V30 1273 H 121.476 2.64498 -2.82095 0
M  V30 1274 H 123.165 2.48612 -3.20853 0
M  V30 1275 H 123.931 0.591265 -4.81382 0
M  V30 1276 H 119.81 1.69801 -4.28589 0
M  V30 1277 H 123.354 -0.48643 -6.95902 0
M  V30 1278 H 119.251 0.62653 -6.42452 0
M  V30 1279 H 120.019 -0.497225 -8.16988 0
M  V30 1280 N 122.682 1.50554 0.465978 0
M  V30 1281 C 123.928 1.62038 1.21949 0
M  V30 1282 C 124.261 0.322116 1.9151 0
M  V30 1283 O 123.536 -0.676723 1.82348 0
M  V30 1284 C 123.819 2.80421 2.25912 0
M  V30 1285 C 123.672 4.20144 1.60622 0
M  V30 1286 C 124.991 2.94354 3.27176 0
M  V30 1287 H 122.11 0.589752 0.441998 0
M  V30 1288 H 124.752 1.82956 0.51257 0
M  V30 1289 H 122.902 2.62717 2.86203 0
M  V30 1290 H 124.574 4.49449 1.03889 0
M  V30 1291 H 122.817 4.24165 0.909211 0
M  V30 1292 H 123.488 4.98914 2.36196 0
M  V30 1293 H 125.964 3.10578 2.76913 0
M  V30 1294 H 124.84 3.788 3.97242 0
M  V30 1295 H 125.101 2.05186 3.916 0
M  V30 1296 N 124.16 -0.719506 1.40217 0
M  V30 1297 C 125.09 -1.8465 1.42922 0
M  V30 1298 C 126.071 -1.67599 0.29062 0
M  V30 1299 O 127.256 -1.87688 0.498677 0
M  V30 1300 C 124.386 -3.22565 1.28722 0
M  V30 1301 C 123.34 -3.54281 2.40144 0
M  V30 1302 C 122.666 -4.91298 2.11023 0
M  V30 1303 C 123.966 -3.55676 3.82481 0
M  V30 1304 H 125.66 -1.82644 2.37237 0
M  V30 1305 H 123.206 -0.877305 1.1419 0
M  V30 1306 H 125.159 -4.01095 1.29232 0
M  V30 1307 H 123.883 -3.25137 0.308811 0
M  V30 1308 H 122.542 -2.78088 2.38877 0
M  V30 1309 H 122.19 -4.90468 1.11582 0
M  V30 1310 H 121.89 -5.13485 2.8567 0
M  V30 1311 H 123.414 -5.72166 2.13209 0
M  V30 1312 H 124.828 -4.24254 3.85592 0
M  V30 1313 H 123.225 -3.89388 4.56614 0
M  V30 1314 H 124.295 -2.55144 4.12346 0
M  V30 1315 N 125.638 -1.25649 -0.95132 0
M  V30 1316 C 126.887 -1.09988 -1.69073 0
M  V30 1317 C 127.2 0.358355 -1.92289 0
M  V30 1318 O 128.406 0.635466 -2.63958 0
M  V30 1319 C 126.862 -1.92012 -3.044 0
M  V30 1320 C 126.47 -3.42347 -2.88968 0
M  V30 1321 C 128.214 -1.8493 -3.82101 0
M  V30 1322 C 126.121 -4.16655 -4.19705 0
M  V30 1323 H 125.051 -0.407993 -0.63408 0
M  V30 1324 H 127.702 -1.49873 -1.05879 0
M  V30 1325 H 126.084 -1.44952 -3.68517 0
M  V30 1326 H 127.258 -3.97104 -2.33762 0
M  V30 1327 H 125.573 -3.50557 -2.24719 0
M  V30 1328 H 128.17 -2.37739 -4.78941 0
M  V30 1329 H 128.513 -0.817883 -4.08187 0
M  V30 1330 H 129.046 -2.29758 -3.2474 0
M  V30 1331 H 125.785 -5.20224 -3.98807 0
M  V30 1332 H 125.305 -3.66681 -4.74663 0
M  V30 1333 H 126.984 -4.24551 -4.88227 0
M  V30 1334 N 127.117 1.15442 -1.07289 0
M  V30 1335 C 128.08 2.18358 -0.696591 0
M  V30 1336 C 129.08 1.58637 0.262837 0
M  V30 1337 O 130.27 1.74145 0.0438809 0
M  V30 1338 C 127.402 3.4089 -0.0266151 0
M  V30 1339 H 128.595 2.53162 -1.60776 0
M  V30 1340 H 126.148 1.29893 -0.869342 0
M  V30 1341 H 126.883 3.11653 0.896822 0
M  V30 1342 H 126.668 3.85495 -0.716657 0
M  V30 1343 H 128.158 4.17009 0.222028 0
M  V30 1344 N 128.595 0.856903 1.32268 0
M  V30 1345 C 129.545 0.274899 2.26337 0
M  V30 1346 C 130.529 -0.580543 1.50062 0
M  V30 1347 O 131.721 -0.429559 1.71708 0
M  V30 1348 C 128.85 -0.533841 3.39124 0
M  V30 1349 C 127.936 0.334114 4.22782 0
M  V30 1350 N 128.327 1.42143 4.85416 0
M  V30 1351 C 126.625 0.124256 4.45827 0
M  V30 1352 C 127.326 1.95559 5.47843 0
M  V30 1353 N 126.302 1.25444 5.28928 0
M  V30 1354 H 130.104 1.10612 2.72291 0
M  V30 1355 H 127.618 0.703258 1.46383 0
M  V30 1356 H 129.615 -0.96722 4.05525 0
M  V30 1357 H 128.275 -1.36283 2.94715 0
M  V30 1358 H 129.286 1.80436 4.85451 0
M  V30 1359 H 125.963 -0.669837 4.12092 0
M  V30 1360 H 127.353 2.86714 6.07655 0
M  V30 1361 N 130.073 -1.45103 0.615059 0
M  V30 1362 C 131.021 -2.32331 -0.111791 0
M  V30 1363 C 132.015 -1.46409 -0.852102 0
M  V30 1364 O 133.221 -1.62849 -0.766821 0
M  V30 1365 H 129.596 -0.749993 -0.0549072 0
M  V30 1366 H 131.567 -2.91407 0.642225 0
M  V30 1367 C 130.316 -3.3015 -1.09071 0
M  V30 1368 H 129.639 -3.96265 -0.530485 0
M  V30 1369 H 131.079 -3.93898 -1.56908 0
M  V30 1370 C 129.538 -2.57875 -2.168 0
M  V30 1371 O 130.068 -2.36567 -3.24652 0
M  V30 1372 N 128.274 -2.17884 -1.92289 0
M  V30 1373 H 127.821 -2.35413 -1.04587 0
M  V30 1374 H 127.779 -1.6985 -2.64572 0
M  V30 1375 N 131.551 -0.354651 -1.53558 0
M  V30 1376 C 132.483 0.5315 -2.22952 0
M  V30 1377 C 133.496 1.05503 -1.23988 0
M  V30 1378 O 134.685 0.963279 -1.50277 0
M  V30 1379 C 131.785 1.74538 -2.90499 0
M  V30 1380 C 130.958 1.35524 -4.15875 0
M  V30 1381 C 130.017 2.42999 -4.66731 0
M  V30 1382 O 129.043 2.05844 -5.30676 0
M  V30 1383 N 130.245 3.74423 -4.43608 0
M  V30 1384 H 133.01 -0.0628615 -2.99634 0
M  V30 1385 H 130.571 -0.179302 -1.60904 0
M  V30 1386 H 132.563 2.45892 -3.21433 0
M  V30 1387 H 131.133 2.24686 -2.17336 0
M  V30 1388 H 130.353 0.471998 -3.91364 0
M  V30 1389 H 131.641 1.07071 -4.97406 0
M  V30 1390 H 131.039 4.07391 -3.92491 0
M  V30 1391 H 129.596 4.41913 -4.7912 0
M  V30 1392 N 133.029 1.57378 -0.0835403 0
M  V30 1393 C 134.275 1.94217 0.583733 0
M  V30 1394 C 134.608 0.964653 1.68547 0
M  V30 1395 O 133.883 -0.00422258 1.945 0
M  V30 1396 C 134.166 3.41253 1.14972 0
M  V30 1397 C 134.019 4.49768 0.0538277 0
M  V30 1398 C 135.338 3.89352 2.05166 0
M  V30 1399 H 132.457 0.706233 0.210724 0
M  V30 1400 H 135.099 1.89392 -0.1519 0
M  V30 1401 H 133.249 3.45496 1.77665 0
M  V30 1402 H 134.921 4.57641 -0.579851 0
M  V30 1403 H 133.164 4.29432 -0.614068 0
M  V30 1404 H 133.835 5.49817 0.490452 0
M  V30 1405 H 136.311 3.87189 1.52393 0
M  V30 1406 H 135.187 4.92822 2.41698 0
M  V30 1407 H 135.448 3.27973 2.96456 0
M  V30 1408 N 134.507 -0.190092 1.56449 0
M  V30 1409 C 135.923 -0.54113 1.50146 0
M  V30 1410 C 136.123 -1.85603 0.784465 0
M  V30 1411 O 135.179 -2.5024 0.337051 0
M  V30 1412 C 136.492 -0.591241 2.9483 0
M  V30 1413 C 138.04 -0.679732 3.0553 0
M  V30 1414 C 138.515 -0.760908 4.51635 0
M  V30 1415 N 140.006 -0.824302 4.55806 0
M  V30 1416 C 140.741 -0.907365 5.66175 0
M  V30 1417 N 140.237 -0.952422 6.86222 0
M  V30 1418 N 142.03 -0.94494 5.541 0
M  V30 1419 H 134.181 0.67235 2.01478 0
M  V30 1420 H 136.444 0.240127 0.917084 0
M  V30 1421 H 136.15 0.305905 3.50367 0
M  V30 1422 H 136.024 -1.44422 3.48457 0
M  V30 1423 H 138.411 -1.56731 2.50039 0
M  V30 1424 H 138.492 0.199549 2.5502 0
M  V30 1425 H 138.136 0.122336 5.07753 0
M  V30 1426 H 138.066 -1.65606 4.99882 0
M  V30 1427 H 140.557 -0.798526 3.69367 0
M  V30 1428 H 140.87 -1.01645 7.66086 0
M  V30 1429 H 139.215 -0.921014 6.8887 0
M  V30 1430 H 142.406 -0.906612 4.59236 0
M  V30 1431 H 142.579 -1.00622 6.4014 0
M  V30 1432 N 135.985 -1.50799 -0.457987 0
M  V30 1433 C 136.917 -1.66786 -1.57211 0
M  V30 1434 C 137.93 -0.548962 -1.53265 0
M  V30 1435 O 139.119 -0.8226 -1.58416 0
M  V30 1436 C 136.219 -1.64834 -2.96113 0
M  V30 1437 C 135.392 -2.92971 -3.24787 0
M  V30 1438 C 134.451 -2.83485 -4.43309 0
M  V30 1439 O 133.477 -3.5744 -4.42973 0
M  V30 1440 N 134.679 -1.97929 -5.45714 0
M  V30 1441 H 137.444 -2.62889 -1.43909 0
M  V30 1442 H 135.005 -1.48427 -0.646617 0
M  V30 1443 H 136.997 -1.56084 -3.7339 0
M  V30 1444 H 135.567 -0.764118 -3.03117 0
M  V30 1445 H 134.787 -3.15749 -2.36 0
M  V30 1446 H 136.075 -3.77834 -3.40762 0
M  V30 1447 H 135.473 -1.37182 -5.48815 0
M  V30 1448 H 134.03 -1.95073 -6.21924 0
M  V30 1449 N 137.463 0.71206 -1.40597 0
M  V30 1450 C 138.709 1.47416 -1.39271 0
M  V30 1451 C 139.042 1.942 0.00388791 0
M  V30 1452 O 138.317 1.68403 0.973179 0
M  V30 1453 C 138.6 2.69774 -2.38525 0
M  V30 1454 C 138.453 2.28861 -3.87224 0
M  V30 1455 C 139.772 3.71939 -2.35264 0
M  V30 1456 H 136.891 0.534713 -0.5072 0
M  V30 1457 H 139.533 0.812375 -1.71757 0
M  V30 1458 H 137.683 3.26238 -2.10953 0
M  V30 1459 H 139.355 1.77852 -4.25636 0
M  V30 1460 H 137.598 1.60824 -4.02887 0
M  V30 1461 H 138.269 3.16584 -4.52193 0
M  V30 1462 H 140.745 3.25113 -2.59694 0
M  V30 1463 H 139.621 4.55186 -3.06753 0
M  V30 1464 H 139.882 4.20484 -1.36549 0
M  V30 1465 N 138.941 1.26152 0.944643 0
M  V30 1466 C 140.352 1.10454 1.50522 0
M  V30 1467 C 140.703 -0.31635 1.93633 0
M  V30 1468 O 139.828 -1.20746 1.79581 0
M  V30 1469 C 140.423 1.99891 2.73549 0
M  V30 1470 C 138.982 1.88348 3.25886 0
M  V30 1471 C 138.129 1.93447 1.9868 0
M  V30 1472 H 141.08 1.39292 0.760489 0
M  V30 1473 H 141.101 1.54477 3.47732 0
M  V30 1474 H 140.613 3.03297 2.42141 0
M  V30 1475 H 138.714 0.878636 3.62092 0
M  V30 1476 H 138.827 2.73696 3.93227 0
M  V30 1477 H 137.191 1.37456 2.14425 0
M  V30 1478 H 137.974 2.98476 1.69607 0
M  V30 1479 N 140.419 -1.14872 1.07899 0
M  V30 1480 C 141.349 -2.2193 0.725887 0
M  V30 1481 C 142.33 -1.67622 -0.28927 0
M  V30 1482 O 143.515 -1.93533 -0.160787 0
M  V30 1483 C 140.645 -3.47061 0.128856 0
M  V30 1484 C 139.599 -4.14363 1.07178 0
M  V30 1485 C 138.925 -5.33636 0.337229 0
M  V30 1486 C 140.225 -4.63492 2.40775 0
M  V30 1487 H 141.919 -2.51724 1.62097 0
M  V30 1488 H 139.465 -1.20991 0.780838 0
M  V30 1489 H 141.418 -4.21199 -0.130147 0
M  V30 1490 H 140.142 -3.16617 -0.80134 0
M  V30 1491 H 138.801 -3.42173 1.3158 0
M  V30 1492 H 138.449 -4.99449 -0.596606 0
M  V30 1493 H 138.149 -5.79609 0.965788 0
M  V30 1494 H 139.673 -6.10539 0.0861567 0
M  V30 1495 H 141.087 -5.2913 2.20669 0
M  V30 1496 H 139.484 -5.20148 2.99276 0
M  V30 1497 H 140.554 -3.78834 3.02676 0
M  V30 1498 N 141.898 -0.863906 -1.31812 0
M  V30 1499 C 142.83 -0.272485 -2.27575 0
M  V30 1500 C 143.843 0.56104 -1.52827 0
M  V30 1501 O 145.032 0.384021 -1.7432 0
M  V30 1502 C 142.132 0.63283 -3.32939 0
M  V30 1503 C 141.305 -0.166902 -4.37081 0
M  V30 1504 C 140.364 0.665608 -5.21973 0
M  V30 1505 O 139.39 0.0958091 -5.69119 0
M  V30 1506 N 140.592 1.9787 -5.45736 0
M  V30 1507 H 143.357 -1.0954 -2.78964 0
M  V30 1508 H 140.918 -0.724791 -1.4477 0
M  V30 1509 H 142.91 1.19532 -3.86645 0
M  V30 1510 H 141.48 1.35642 -2.81638 0
M  V30 1511 H 140.7 -0.910838 -3.83533 0
M  V30 1512 H 141.988 -0.715874 -5.03739 0
M  V30 1513 H 141.386 2.46484 -5.09178 0
M  V30 1514 H 139.943 2.48911 -6.024 0
M  V30 1515 N 143.376 1.44774 -0.622745 0
M  V30 1516 C 144.792 1.56986 -0.287652 0
M  V30 1517 C 144.992 1.61167 1.20944 0
M  V30 1518 O 144.048 1.55015 1.99315 0
M  V30 1519 C 145.361 2.84551 -0.972188 0
M  V30 1520 C 146.909 2.9825 -0.949536 0
M  V30 1521 C 147.384 4.28605 -1.61437 0
M  V30 1522 N 148.875 4.35399 -1.58057 0
M  V30 1523 C 149.61 5.34964 -2.064 0
M  V30 1524 N 149.106 6.40981 -2.62897 0
M  V30 1525 N 150.899 5.26419 -1.97078 0
M  V30 1526 H 143.05 1.40304 -1.59463 0
M  V30 1527 H 145.313 0.671794 -0.668878 0
M  V30 1528 H 145.019 2.87417 -2.02693 0
M  V30 1529 H 144.893 3.73807 -0.504771 0
M  V30 1530 H 147.28 2.94941 0.0967067 0
M  V30 1531 H 147.361 2.10364 -1.45536 0
M  V30 1532 H 147.005 4.32672 -2.66002 0
M  V30 1533 H 146.935 5.15334 -1.08344 0
M  V30 1534 H 149.426 3.59397 -1.16801 0
M  V30 1535 H 149.739 7.13225 -2.97539 0
M  V30 1536 H 148.084 6.4169 -2.66943 0
M  V30 1537 H 151.275 4.42504 -1.52669 0
M  V30 1538 H 151.448 6.03861 -2.35066 0
M  V30 1539 N 144.854 0.36279 1.53368 0
M  V30 1540 C 145.784 -0.476976 2.28576 0
M  V30 1541 C 146.765 -1.08631 1.30894 0
M  V30 1542 O 147.95 -1.10409 1.59761 0
M  V30 1543 C 145.08 -1.61828 3.07293 0
M  V30 1544 C 144.034 -1.13633 4.1264 0
M  V30 1545 C 143.36 -2.36766 4.79423 0
M  V30 1546 C 144.66 -0.223061 5.21823 0
M  V30 1547 H 146.354 0.150474 2.99022 0
M  V30 1548 H 143.9 0.0738103 1.43811 0
M  V30 1549 H 145.853 -2.21237 3.58653 0
M  V30 1550 H 144.577 -2.27292 2.34533 0
M  V30 1551 H 143.236 -0.564945 3.62221 0
M  V30 1552 H 142.884 -3.0068 4.03238 0
M  V30 1553 H 142.584 -2.05192 5.50609 0
M  V30 1554 H 144.108 -2.96865 5.33576 0
M  V30 1555 H 145.522 -0.724545 5.68703 0
M  V30 1556 H 143.919 0.001678 6.001 0
M  V30 1557 H 144.989 0.735553 4.79289 0
M  V30 1558 N 146.332 -1.57332 0.0918853 0
M  V30 1559 C 147.748 -1.57389 -0.264766 0
M  V30 1560 C 147.948 -1.10281 -1.68643 0
M  V30 1561 O 147.004 -0.777801 -2.40222 0
M  V30 1562 C 148.317 -3.00648 -0.0561195 0
M  V30 1563 C 149.865 -3.12754 -0.124116 0
M  V30 1564 C 150.34 -4.57965 0.0564972 0
M  V30 1565 N 151.831 -4.632 0.00155611 0
M  V30 1566 C 152.566 -5.73281 0.116598 0
M  V30 1567 N 152.062 -6.92208 0.286294 0
M  V30 1568 N 153.855 -5.6207 0.0580973 0
M  V30 1569 H 146.006 -1.86262 1.02079 0
M  V30 1570 H 148.269 -0.859579 0.399786 0
M  V30 1571 H 147.975 -3.393 0.925669 0
M  V30 1572 H 147.849 -3.68623 -0.799823 0
M  V30 1573 H 150.236 -2.73976 -1.09641 0
M  V30 1574 H 150.317 -2.47377 0.651024 0
M  V30 1575 H 149.961 -4.97436 1.02564 0
M  V30 1576 H 149.891 -5.21399 -0.738297 0
M  V30 1577 H 152.382 -3.77686 -0.127192 0
M  V30 1578 H 152.695 -7.71934 0.365676 0
M  V30 1579 H 151.04 -6.94254 0.32192 0
M  V30 1580 H 154.231 -4.68043 -0.0733204 0
M  V30 1581 H 154.404 -6.47824 0.151203 0
M  V30 1582 N 147.81 0.181792 -1.56548 0
M  V30 1583 C 149.059 0.898348 -1.8059 0
M  V30 1584 C 149.372 1.83862 -0.667379 0
M  V30 1585 O 150.578 2.59678 -0.792446 0
M  V30 1586 C 149.034 1.64791 -3.19956 0
M  V30 1587 C 148.642 0.751789 -4.41647 0
M  V30 1588 C 150.386 2.35331 -3.53298 0
M  V30 1589 C 148.293 1.50098 -5.72035 0
M  V30 1590 H 147.223 0.339194 -0.673397 0
M  V30 1591 H 149.874 0.151413 -1.82874 0
M  V30 1592 H 148.256 2.43921 -3.11959 0
M  V30 1593 H 149.43 -0.0018076 -4.608 0
M  V30 1594 H 147.745 0.156562 -4.16106 0
M  V30 1595 H 150.342 2.91958 -4.47956 0
M  V30 1596 H 150.685 3.10164 -2.77676 0
M  V30 1597 H 151.218 1.63154 -3.62803 0
M  V30 1598 H 147.957 0.795175 -6.50659 0
M  V30 1599 H 147.477 2.22817 -5.56878 0
M  V30 1600 H 149.156 2.05125 -6.13622 0
M  V30 1601 N 149.288 1.51039 0.449983 0
M  V30 1602 C 150.534 1.63322 1.20223 0
M  V30 1603 C 150.867 0.34241 1.91158 0
M  V30 1604 O 150.142 -0.657344 1.83055 0
M  V30 1605 C 150.425 2.82801 2.22925 0
M  V30 1606 C 150.278 4.21823 1.56157 0
M  V30 1607 C 151.597 2.97807 3.24035 0
M  V30 1608 H 148.716 0.594407 0.435718 0
M  V30 1609 H 151.358 1.83489 0.493136 0
M  V30 1610 H 149.508 2.65738 2.834 0
M  V30 1611 H 151.18 4.50526 0.991162 0
M  V30 1612 H 149.423 4.25105 0.864172 0
M  V30 1613 H 150.094 5.01391 2.30891 0
M  V30 1614 H 152.57 3.13497 2.73603 0
M  V30 1615 H 151.446 3.82992 3.93202 0
M  V30 1616 H 151.707 2.09328 3.89402 0
M  V30 1617 N 150.766 -0.704594 1.40972 0
M  V30 1618 C 152.182 -1.01406 1.23244 0
M  V30 1619 C 152.382 -2.01169 0.115399 0
M  V30 1620 O 151.438 -2.47021 -0.523147 0
M  V30 1621 C 152.751 -1.54728 2.57836 0
M  V30 1622 C 154.299 -1.66658 2.64942 0
M  V30 1623 C 154.774 -2.23383 3.9983 0
M  V30 1624 N 156.265 -2.30756 4.01629 0
M  V30 1625 C 157 -2.75655 5.02794 0
M  V30 1626 N 156.496 -3.20225 6.14352 0
M  V30 1627 N 158.289 -2.75138 4.90159 0
M  V30 1628 H 150.44 -0.0435285 2.12355 0
M  V30 1629 H 152.703 -0.0818951 0.944456 0
M  V30 1630 H 152.409 -0.888832 3.40283 0
M  V30 1631 H 152.283 -2.53084 2.79693 0
M  V30 1632 H 154.67 -2.31617 1.8286 0
M  V30 1633 H 154.751 -0.668717 2.46904 0
M  V30 1634 H 154.395 -1.59043 4.82357 0
M  V30 1635 H 154.325 -3.23904 4.15203 0
M  V30 1636 H 156.816 -1.99291 3.21079 0
M  V30 1637 H 157.129 -3.53084 6.87424 0
M  V30 1638 H 155.474 -3.18156 6.17901 0
M  V30 1639 H 158.665 -2.39661 4.02095 0
M  V30 1640 H 158.838 -3.09812 5.6914 0
M  V30 1641 N 152.244 -1.26651 -0.937939 0
M  V30 1642 C 153.492 -1.12165 -1.68118 0
M  V30 1643 C 153.813 0.334983 -1.92101 0
M  V30 1644 O 153.083 1.23583 -1.52 0
M  V30 1645 H 151.663 -0.412093 -0.623048 0
M  V30 1646 H 154.325 -1.59027 -1.12678 0
M  V30 1647 H 153.421 -1.64289 -2.6536 0
M  V30 1648 N 153.722 1.14298 -1.08507 0
M  V30 1649 C 154.95 1.89219 -0.836876 0
M  V30 1650 C 155.365 1.78638 0.611054 0
M  V30 1651 O 154.722 1.14643 1.41998 0
M  V30 1652 C 154.773 3.39158 -1.25116 0
M  V30 1653 O 154.494 3.49449 -2.64229 0
M  V30 1654 C 155.995 4.31073 -1.03398 0
M  V30 1655 H 153.215 0.599328 -0.301739 0
M  V30 1656 H 155.759 1.44746 -1.44461 0
M  V30 1657 H 153.914 3.81251 -0.687514 0
M  V30 1658 H 154.328 4.42589 -2.81452 0
M  V30 1659 H 155.802 5.34646 -1.37323 0
M  V30 1660 H 156.279 4.3919 0.0289259 0
M  V30 1661 H 156.885 3.94738 -1.58311 0
M  V30 1662 N 155.201 0.870884 1.31352 0
M  V30 1663 C 156.133 0.28455 2.27427 0
M  V30 1664 C 157.146 -0.552927 1.53123 0
M  V30 1665 O 158.335 -0.374771 1.74521 0
M  V30 1666 C 155.435 -0.615164 3.3327 0
M  V30 1667 C 154.608 0.190079 4.36987 0
M  V30 1668 C 153.667 -0.637917 5.22319 0
M  V30 1669 O 152.693 -0.065626 5.69162 0
M  V30 1670 N 153.895 -1.94973 5.46778 0
M  V30 1671 H 156.66 1.11017 2.7838 0
M  V30 1672 H 154.221 0.732458 1.44384 0
M  V30 1673 H 156.213 -1.1748 3.87273 0
M  V30 1674 H 154.783 -1.34146 2.82354 0
M  V30 1675 H 154.003 0.931165 3.83044 0
M  V30 1676 H 155.291 0.742579 5.03352 0
M  V30 1677 H 154.689 -2.4378 5.10478 0
M  V30 1678 H 153.246 -2.45713 6.03712 0
M  V30 1679 N 156.679 -1.44442 0.630414 0
M  V30 1680 C 157.609 -2.33418 -0.0618083 0
M  V30 1681 C 158.59 -1.48165 -0.835541 0
M  V30 1682 O 159.775 -1.76886 -0.801564 0
M  V30 1683 C 156.905 -3.31222 -1.04449 0
M  V30 1684 C 155.859 -4.26288 -0.382436 0
M  V30 1685 C 155.185 -5.13954 -1.47497 0
M  V30 1686 C 156.485 -5.1744 0.710865 0
M  V30 1687 H 158.179 -2.91548 0.681184 0
M  V30 1688 H 155.725 -1.40191 0.329026 0
M  V30 1689 H 157.678 -3.92351 -1.53748 0
M  V30 1690 H 156.402 -2.71299 -1.81836 0
M  V30 1691 H 155.061 -3.6649 0.0899054 0
M  V30 1692 H 154.709 -4.50385 -2.2397 0
M  V30 1693 H 154.409 -5.7837 -1.03737 0
M  V30 1694 H 155.933 -5.77955 -1.96979 0
M  V30 1695 H 157.347 -5.72509 0.300996 0
M  V30 1696 H 155.744 -5.90455 1.07156 0
M  V30 1697 H 156.814 -4.58496 1.57829 0
M  V30 1698 N 158.157 -0.370918 -1.53173 0
M  V30 1699 C 159.404 0.217102 -2.01333 0
M  V30 1700 C 159.732 1.48338 -1.25802 0
M  V30 1701 O 158.987 1.92698 -0.34146 0
M  V30 1702 C 159.286 0.549696 -3.53147 0
M  V30 1703 C 158.952 -0.622872 -4.46577 0
M  V30 1704 C 157.614 -0.944595 -4.71838 0
M  V30 1705 C 159.966 -1.40819 -5.01816 0
M  V30 1706 C 157.294 -2.05351 -5.49589 0
M  V30 1707 C 159.646 -2.50757 -5.80778 0
M  V30 1708 C 158.31 -2.83458 -6.04324 0
M  V30 1709 H 157.58 0.0794431 -0.736729 0
M  V30 1710 H 160.227 -0.504481 -1.84736 0
M  V30 1711 H 158.532 1.35237 -3.6772 0
M  V30 1712 H 160.229 1.017 -3.87889 0
M  V30 1713 H 156.819 -0.36209 -4.27068 0
M  V30 1714 H 161.003 -1.17289 -4.82242 0
M  V30 1715 H 156.259 -2.3108 -5.6605 0
M  V30 1716 H 160.433 -3.12022 -6.22588 0
M  V30 1717 H 158.06 -3.69508 -6.64355 0
M  V30 1718 N 159.635 1.57281 -0.100228 0
M  V30 1719 C 160.545 2.17833 0.870965 0
M  V30 1720 C 161.561 1.14921 1.30649 0
M  V30 1721 O 162.737 1.47313 1.37335 0
M  V30 1722 C 159.802 2.75085 2.1102 0
M  V30 1723 C 158.863 3.9297 1.72838 0
M  V30 1724 C 158.096 4.47482 2.90854 0
M  V30 1725 O 158.319 4.00922 4.05731 0
M  V30 1726 O 157.253 5.38433 2.69023 0
M  V30 1727 H 161.079 3.0124 0.38575 0
M  V30 1728 H 158.664 1.48881 0.124397 0
M  V30 1729 H 160.546 3.11656 2.83634 0
M  V30 1730 H 159.221 1.94721 2.58584 0
M  V30 1731 H 158.128 3.61201 0.973883 0
M  V30 1732 H 159.461 4.74713 1.30033 0
M  V30 1733 N 161.113 -0.173488 1.56642 0
M  V30 1734 C 162.39 -0.917617 1.7274 0
M  V30 1735 C 162.77 -2.00484 0.661027 0
M  V30 1736 O 162.118 -2.26184 -0.32453 0
M  V30 1737 C 162.328 -1.48433 3.15862 0
M  V30 1738 C 163.676 -1.95809 3.76754 0
M  V30 1739 O 164.7 -1.58231 3.19126 0
M  V30 1740 O 163.559 -2.65024 4.77938 0
M  V30 1741 H 160.653 -0.431772 0.705338 0
M  V30 1742 H 163.199 -0.161487 1.6893 0
M  V30 1743 H 161.971 -0.701715 3.84957 0
M  V30 1744 H 161.594 -2.30471 3.23989 0
M  V30 1745 N 162.591 -1.51276 -0.441967 0
M  V30 1746 C 163.539 -1.72823 -1.55676 0
M  V30 1747 C 164.533 -0.59445 -1.58627 0
M  V30 1748 O 165.739 -0.775715 -1.62427 0
M  V30 1749 H 162.114 -0.545983 -0.517113 0
M  V30 1750 H 164.085 -2.6628 -1.34675 0
M  V30 1751 C 162.834 -1.86619 -2.93375 0
M  V30 1752 H 162.157 -2.73264 -2.91834 0
M  V30 1753 H 163.597 -2.05709 -3.70756 0
M  V30 1754 C 162.056 -0.624842 -3.31055 0
M  V30 1755 O 162.586 0.222636 -4.01083 0
M  V30 1756 N 160.792 -0.470288 -2.86769 0
M  V30 1757 H 160.339 -1.161 -2.29953 0
M  V30 1758 H 160.297 0.359051 -3.12343 0
M  V30 1759 N 164.069 0.697108 -1.41344 0
M  V30 1760 C 165.299 1.48377 -1.43763 0
M  V30 1761 C 165.707 1.89156 -0.0408726 0
M  V30 1762 O 165.05 1.57239 0.949812 0
M  V30 1763 C 165.112 2.7781 -2.2817 0
M  V30 1764 C 164.776 2.59244 -3.76353 0
M  V30 1765 C 165.773 2.25292 -4.68551 0
M  V30 1766 C 163.458 2.74933 -4.20378 0
M  V30 1767 C 165.452 2.07264 -6.02761 0
M  V30 1768 C 163.139 2.56521 -5.54653 0
M  V30 1769 C 164.137 2.22737 -6.4566 0
M  V30 1770 O 163.825 2.04485 -7.77458 0
M  V30 1771 H 163.557 0.463842 -0.491759 0
M  V30 1772 H 166.111 0.865934 -1.86255 0
M  V30 1773 H 164.341 3.41995 -1.8049 0
M  V30 1774 H 166.03 3.39608 -2.22309 0
M  V30 1775 H 166.796 2.12787 -4.35829 0
M  V30 1776 H 162.675 3.00213 -3.49848 0
M  V30 1777 H 166.219 1.80817 -6.73759 0
M  V30 1778 H 162.116 2.68616 -5.86955 0
M  V30 1779 H 162.884 2.1926 -7.88586 0
M  V30 1780 N 165.547 1.27147 0.931209 0
M  V30 1781 C 166.51 1.09615 2.01289 0
M  V30 1782 C 167.51 0.0412581 1.60747 0
M  V30 1783 O 168.7 0.285545 1.71844 0
M  V30 1784 C 165.832 0.669447 3.34262 0
M  V30 1785 H 167.025 2.05662 2.18273 0
M  V30 1786 H 164.578 1.09885 1.11153 0
M  V30 1787 H 165.313 -0.292572 3.22978 0
M  V30 1788 H 165.098 1.43127 3.65044 0
M  V30 1789 H 166.588 0.568921 4.13706 0
M  V30 1790 N 167.025 -1.13721 1.09112 0
M  V30 1791 C 167.955 -2.21148 0.749385 0
M  V30 1792 C 168.936 -1.6792 -0.271475 0
M  V30 1793 O 170.121 -1.93693 -0.140251 0
M  V30 1794 C 167.251 -3.46905 0.165659 0
M  V30 1795 C 166.205 -4.13203 1.11567 0
M  V30 1796 C 165.531 -5.33248 0.393809 0
M  V30 1797 C 166.831 -4.60912 2.45678 0
M  V30 1798 H 168.525 -2.4999 1.64758 0
M  V30 1799 H 166.071 -1.20156 0.793626 0
M  V30 1800 H 168.024 -4.21313 -0.085466 0
M  V30 1801 H 166.748 -3.17449 -0.767714 0
M  V30 1802 H 165.407 -3.40758 1.35202 0
M  V30 1803 H 165.055 -5.00054 -0.543599 0
M  V30 1804 H 164.755 -5.78552 1.02721 0
M  V30 1805 H 166.279 -6.10413 0.150908 0
M  V30 1806 H 167.693 -5.26759 2.26269 0
M  V30 1807 H 166.09 -5.16944 3.04776 0
M  V30 1808 H 167.16 -3.75603 3.06677 0
M  V30 1809 N 168.503 -0.877838 -1.30888 0
M  V30 1810 C 169.466 -0.344265 -2.266 0
M  V30 1811 C 170.466 0.50922 -1.52524 0
M  V30 1812 O 171.656 0.317398 -1.71284 0
M  V30 1813 C 168.788 0.510198 -3.37061 0
M  V30 1814 H 169.981 -1.1893 -2.7531 0
M  V30 1815 H 167.534 -0.654088 -1.41956 0
M  V30 1816 H 168.269 1.37612 -2.93655 0
M  V30 1817 H 168.054 -0.101047 -3.9197 0
M  V30 1818 H 169.544 0.875537 -4.08319 0
M  V30 1819 N 169.982 1.44106 -0.638065 0
M  V30 1820 C 171.228 2.02277 -0.145546 0
M  V30 1821 C 171.561 1.50125 1.23191 0
M  V30 1822 O 170.836 0.688133 1.8192 0
M  V30 1823 C 171.119 3.59829 -0.139791 0
M  V30 1824 C 170.972 4.22247 -1.55008 0
M  V30 1825 C 172.291 4.36873 0.531966 0
M  V30 1826 H 169.41 0.734992 -0.0543632 0
M  V30 1827 H 172.052 1.71592 -0.815863 0
M  V30 1828 H 170.202 3.86102 0.431007 0
M  V30 1829 H 171.874 4.07057 -2.1703 0
M  V30 1830 H 170.117 3.79476 -2.10191 0
M  V30 1831 H 170.788 5.31284 -1.49804 0
M  V30 1832 H 173.264 4.16074 0.0464781 0
M  V30 1833 H 172.14 5.4657 0.505206 0
M  V30 1834 H 172.401 4.11995 1.60352 0
M  V30 1835 N 171.46 0.379036 1.52974 0
M  V30 1836 C 172.39 -0.452706 2.29069 0
M  V30 1837 C 173.371 -1.07237 1.32039 0
M  V30 1838 O 174.556 -1.08708 1.60923 0
M  V30 1839 C 171.686 -1.5856 3.08992 0
M  V30 1840 C 170.64 -1.0925 4.13822 0
M  V30 1841 C 169.966 -2.31668 4.81907 0
M  V30 1842 C 171.266 -0.167702 5.22031 0
M  V30 1843 H 172.96 0.182181 2.98845 0
M  V30 1844 H 170.506 0.0890592 1.43724 0
M  V30 1845 H 172.459 -2.1742 3.6098 0
M  V30 1846 H 171.183 -2.24792 2.36931 0
M  V30 1847 H 169.842 -0.526494 3.628 0
M  V30 1848 H 169.49 -2.96386 4.06404 0
M  V30 1849 H 169.19 -1.9934 5.52754 0
M  V30 1850 H 170.714 -2.91189 5.36695 0
M  V30 1851 H 172.128 -0.664186 5.6944 0
M  V30 1852 H 170.525 0.0653265 6.00064 0
M  V30 1853 H 171.595 0.786347 4.78482 0
M  V30 1854 N 172.938 -1.57226 0.108567 0
M  V30 1855 C 174.215 -1.86333 -0.594939 0
M  V30 1856 C 174.595 -1.00788 -1.85486 0
M  V30 1857 O 173.943 -0.0839293 -2.28346 0
M  V30 1858 C 174.153 -3.37265 -0.897405 0
M  V30 1859 C 175.501 -4.05629 -1.25501 0
M  V30 1860 O 176.525 -3.42224 -0.987998 0
M  V30 1861 O 175.384 -5.17531 -1.75567 0
M  V30 1862 H 172.478 -0.771018 -0.2991 0
M  V30 1863 H 175.024 -1.69102 0.142283 0
M  V30 1864 H 173.796 -3.913 -0.00413806 0
M  V30 1865 H 173.419 -3.59889 -1.69014 0
M  V30 1866 N 174.416 0.165178 -1.56732 0
M  V30 1867 C 175.364 1.22369 -1.97809 0
M  V30 1868 C 176.358 1.45488 -0.867741 0
M  V30 1869 O 177.564 1.45995 -1.05288 0
M  V30 1870 H 173.939 0.411486 -0.629431 0
M  V30 1871 H 175.91 0.850425 -2.86025 0
M  V30 1872 C 174.659 2.55403 -2.35934 0
M  V30 1873 H 173.982 2.38438 -3.20916 0
M  V30 1874 H 175.422 3.2814 -2.68514 0
M  V30 1875 C 173.881 3.14611 -1.20506 0
M  V30 1876 O 174.411 3.98626 -0.496016 0
M  V30 1877 N 172.617 2.7379 -0.97403 0
M  V30 1878 H 172.164 2.0557 -1.55238 0
M  V30 1879 H 172.122 3.1374 -0.203573 0
M  V30 1880 N 175.894 1.51508 0.433938 0
M  V30 1881 C 177.142 1.6402 1.18075 0
M  V30 1882 C 177.463 0.360328 1.91642 0
M  V30 1883 O 176.733 -0.623945 1.85698 0
M  V30 1884 H 175.313 0.6045 0.43885 0
M  V30 1885 H 177.975 1.88452 0.497178 0
M  V30 1886 H 177.071 2.46949 1.90847 0
M  V30 1887 N 177.372 -0.689602 1.41712 0
M  V30 1888 C 178.649 -1.44457 1.31877 0
M  V30 1889 C 179.029 -2.11039 -0.0508537 0
M  V30 1890 O 178.377 -2.02138 -1.06547 0
M  V30 1891 C 178.587 -2.45913 2.47645 0
M  V30 1892 C 179.935 -3.10991 2.89084 0
M  V30 1893 O 180.959 -2.56238 2.47428 0
M  V30 1894 O 179.818 -4.10174 3.61137 0
M  V30 1895 H 176.912 -0.64362 0.519309 0
M  V30 1896 H 179.458 -0.719576 1.53689 0
M  V30 1897 H 178.23 -1.95409 3.39015 0
M  V30 1898 H 177.853 -3.25913 2.27742 0
M  V30 1899 N 178.85 -1.27639 -0.924453 0
M  V30 1900 C 180.261 -1.12834 -1.48746 0
M  V30 1901 C 180.612 0.285505 -1.94112 0
M  V30 1902 O 179.737 1.17874 -1.81479 0
M  V30 1903 C 180.332 -2.04217 -2.70334 0
M  V30 1904 C 178.891 -1.93509 -3.22848 0
M  V30 1905 C 178.038 -1.96583 -1.95577 0
M  V30 1906 H 180.989 -1.40484 -0.738233 0
M  V30 1907 H 181.01 -1.59989 -3.4523 0
M  V30 1908 H 180.522 -3.07111 -2.37285 0
M  V30 1909 H 178.623 -0.936131 -3.60649 0
M  V30 1910 H 178.736 -2.79917 -3.88823 0
M  V30 1911 H 177.1 -1.4085 -2.12211 0
M  V30 1912 H 177.883 -3.01137 -1.64837 0
M  V30 1913 N 180.328 1.1314 -1.09713 0
M  V30 1914 C 181.258 2.20748 -0.761102 0
M  V30 1915 C 182.239 1.68061 0.262566 0
M  V30 1916 O 183.424 1.93765 0.129977 0
M  V30 1917 C 180.554 3.46812 -0.184054 0
M  V30 1918 C 179.508 4.12606 -1.13757 0
M  V30 1919 C 178.834 5.33031 -0.422083 0
M  V30 1920 C 180.134 4.59603 -2.48118 0
M  V30 1921 H 181.828 2.49113 -1.66082 0
M  V30 1922 H 179.374 1.19734 -0.799987 0
M  V30 1923 H 181.327 4.21353 0.0631215 0
M  V30 1924 H 180.051 3.17851 0.750868 0
M  V30 1925 H 178.71 3.40036 -1.37007 0
M  V30 1926 H 178.358 5.00335 0.517072 0
M  V30 1927 H 178.058 5.77999 -1.05788 0
M  V30 1928 H 179.582 6.10325 -0.183277 0
M  V30 1929 H 180.996 5.25552 -2.29059 0
M  V30 1930 H 179.393 5.15321 -3.07514 0
M  V30 1931 H 180.463 3.73971 -3.08665 0
M  V30 1932 N 181.806 0.884767 1.30421 0
M  V30 1933 C 182.754 0.340869 2.30089 0
M  V30 1934 C 183.748 -0.55201 1.60154 0
M  V30 1935 O 184.954 -0.436467 1.74628 0
M  V30 1936 H 181.329 0.0915739 0.746404 0
M  V30 1937 H 183.3 1.19513 2.73421 0
M  V30 1938 C 182.049 -0.429779 3.45034 0
M  V30 1939 H 181.372 0.248024 3.9903 0
M  V30 1940 H 182.812 -0.775445 4.16849 0
M  V30 1941 C 181.271 -1.62677 2.95022 0
M  V30 1942 O 181.801 -2.72614 2.95033 0
M  V30 1943 N 180.007 -1.46387 2.51036 0
M  V30 1944 H 179.554 -0.569506 2.51226 0
M  V30 1945 H 179.512 -2.26612 2.17932 0
M  V30 1946 N 183.284 -1.43765 0.645699 0
M  V30 1947 C 184.232 -2.32516 -0.0624849 0
M  V30 1948 C 185.226 -1.48183 -0.820855 0
M  V30 1949 O 186.432 -1.64439 -0.732106 0
M  V30 1950 H 182.807 -0.750989 -0.0389864 0
M  V30 1951 H 184.778 -2.89979 0.703892 0
M  V30 1952 C 183.527 -3.32389 -1.02044 0
M  V30 1953 H 182.85 -3.97301 -0.446312 0
M  V30 1954 H 184.29 -3.97138 -1.48517 0
M  V30 1955 C 182.749 -2.62416 -2.11281 0
M  V30 1956 O 183.279 -2.434 -3.19561 0
M  V30 1957 N 181.485 -2.21913 -1.87624 0
M  V30 1958 H 181.032 -2.37578 -0.995703 0
M  V30 1959 H 180.99 -1.75424 -2.6091 0
M  V30 1960 N 184.763 -0.387143 -1.52771 0
M  V30 1961 C 185.991 0.195869 -2.05971 0
M  V30 1962 C 186.406 1.40691 -1.25903 0
M  V30 1963 O 185.763 1.79931 -0.305134 0
M  V30 1964 C 185.814 0.56812 -3.57008 0
M  V30 1965 O 185.535 -0.594803 -4.34043 0
M  V30 1966 C 187.036 1.20723 -4.26545 0
M  V30 1967 H 184.256 0.0300578 -0.670326 0
M  V30 1968 H 186.8 -0.551749 -1.96916 0
M  V30 1969 H 184.955 1.26564 -3.66143 0
M  V30 1970 H 185.369 -0.289322 -5.23701 0
M  V30 1971 H 186.843 1.41807 -5.33474 0
M  V30 1972 H 187.32 2.17395 -3.81623 0
M  V30 1973 H 187.926 0.550535 -4.21722 0
M  V30 1974 N 186.241 1.57166 -0.116904 0
M  V30 1975 C 187.469 1.99473 0.549383 0
M  V30 1976 C 187.884 0.996541 1.60357 0
M  V30 1977 O 187.241 -0.0108731 1.82497 0
M  V30 1978 C 187.292 3.41788 1.17741 0
M  V30 1979 O 187.013 4.37788 0.165362 0
M  V30 1980 C 188.514 3.99216 1.92722 0
M  V30 1981 H 185.734 0.655009 0.145616 0
M  V30 1982 H 188.278 2.03494 -0.202625 0
M  V30 1983 H 186.433 3.38713 1.88021 0
M  V30 1984 H 186.847 5.20806 0.621403 0
M  V30 1985 H 188.321 5.00882 2.31995 0
M  V30 1986 H 188.798 3.3824 2.80161 0
M  V30 1987 H 189.404 4.0583 1.27209 0
M  V30 1988 N 187.719 -0.156864 1.56817 0
M  V30 1989 C 189.13 -0.717916 1.72345 0
M  V30 1990 C 189.481 -1.82124 0.729747 0
M  V30 1991 O 188.606 -2.16141 -0.105781 0
M  V30 1992 C 189.201 -1.30904 3.12489 0
M  V30 1993 C 187.76 -1.81676 3.29653 0
M  V30 1994 C 186.907 -0.701349 2.68284 0
M  V30 1995 H 189.858 0.0686989 1.58551 0
M  V30 1996 H 189.879 -2.17882 3.11942 0
M  V30 1997 H 189.391 -0.505796 3.8479 0
M  V30 1998 H 187.492 -2.64598 2.62333 0
M  V30 1999 H 187.605 -1.95226 4.3752 0
M  V30 2000 H 185.969 -1.12548 2.28484 0
M  V30 2001 H 186.752 0.0902846 3.43181 0
M  V30 2002 N 189.197 -1.51736 -0.425897 0
M  V30 2003 C 190.443 -1.65214 -1.1761 0
M  V30 2004 C 190.776 -0.372778 -1.90589 0
M  V30 2005 O 190.051 0.628139 -1.84078 0
M  V30 2006 C 190.334 -2.86312 -2.18398 0
M  V30 2007 C 190.187 -4.24254 -1.49426 0
M  V30 2008 C 191.506 -3.02925 -3.19256 0
M  V30 2009 H 188.625 -0.601263 -0.426206 0
M  V30 2010 H 191.267 -1.8425 -0.463882 0
M  V30 2011 H 189.417 -2.70213 -2.79137 0
M  V30 2012 H 191.089 -4.52046 -0.919362 0
M  V30 2013 H 189.332 -4.26426 -0.796432 0
M  V30 2014 H 190.003 -5.05001 -2.22885 0
M  V30 2015 H 192.479 -3.1781 -2.68581 0
M  V30 2016 H 191.355 -3.89199 -3.8706 0
M  V30 2017 H 191.616 -2.15497 -3.86023 0
M  V30 2018 N 190.675 0.682077 -1.42076 0
M  V30 2019 C 191.903 1.47057 -1.4554 0
M  V30 2020 C 192.318 1.8869 -0.0645779 0
M  V30 2021 O 191.675 1.57666 0.919115 0
M  V30 2022 C 191.726 2.72442 -2.37609 0
M  V30 2023 O 191.447 2.32559 -3.71279 0
M  V30 2024 C 192.948 3.66069 -2.50017 0
M  V30 2025 H 190.168 0.452737 -0.495248 0
M  V30 2026 H 192.712 0.838695 -1.8651 0
M  V30 2027 H 190.867 3.31835 -1.9991 0
M  V30 2028 H 191.281 3.13475 -4.20516 0
M  V30 2029 H 192.755 4.50792 -3.18576 0
M  V30 2030 H 193.232 4.11476 -1.53572 0
M  V30 2031 H 193.838 3.12572 -2.88407 0
M  V30 2032 N 192.153 1.28127 0.917671 0
M  V30 2033 C 193.401 1.14825 1.66312 0
M  V30 2034 C 193.722 -0.304379 1.9261 0
M  V30 2035 O 192.992 -1.21149 1.53947 0
M  V30 2036 H 191.572 0.421953 0.616413 0
M  V30 2037 H 194.234 1.608 1.10134 0
M  V30 2038 H 193.33 1.68489 2.62712 0
M  V30 2039 N 193.631 -1.12557 1.10312 0
M  V30 2040 C 194.594 -2.16434 0.75424 0
M  V30 2041 C 195.594 -1.59278 -0.220685 0
M  V30 2042 O 196.784 -1.742 0.00230591 0
M  V30 2043 C 193.916 -3.40699 0.116987 0
M  V30 2044 H 195.109 -2.48811 1.67431 0
M  V30 2045 H 192.662 -1.27542 0.903475 0
M  V30 2046 H 193.397 -3.13921 -0.813877 0
M  V30 2047 H 193.182 -3.83459 0.818613 0
M  V30 2048 H 194.672 -4.17451 -0.111387 0
M  V30 2049 N 195.109 -0.891671 -1.2995 0
M  V30 2050 C 196.334 -0.527932 -2.00568 0
M  V30 2051 C 196.759 0.877969 -1.66353 0
M  V30 2052 O 196.117 1.58301 -0.883762 0
M  V30 2053 C 196.165 -0.717745 -3.53385 0
M  V30 2054 O 195.269 0.233376 -4.11739 0
M  V30 2055 H 194.61 -0.20722 -0.630837 0
M  V30 2056 H 197.14 -1.20105 -1.65638 0
M  V30 2057 H 197.15 -0.619307 -4.03272 0
M  V30 2058 H 195.825 -1.74276 -3.77625 0
M  V30 2059 H 194.402 0.0880706 -3.72796 0
M  V30 2060 N 196.587 1.43421 -0.653314 0
M  V30 2061 C 197.998 1.85065 -0.246537 0
M  V30 2062 C 198.349 1.54688 1.2069 0
M  V30 2063 O 197.474 0.995896 1.92122 0
M  V30 2064 C 198.069 3.35922 -0.440666 0
M  V30 2065 C 196.628 3.76297 -0.0882064 0
M  V30 2066 C 195.775 2.67147 -0.743484 0
M  V30 2067 H 198.726 1.33572 -0.856979 0
M  V30 2068 H 198.747 3.79204 0.313798 0
M  V30 2069 H 198.259 3.58 -1.49858 0
M  V30 2070 H 196.36 3.5983 0.96711 0
M  V30 2071 H 196.473 4.76338 -0.513738 0
M  V30 2072 H 194.837 2.54086 -0.176712 0
M  V30 2073 H 195.62 2.92053 -1.80443 0
M  V30 2074 N 198.065 0.39524 1.52563 0
M  V30 2075 C 199.313 -0.184678 2.01254 0
M  V30 2076 C 199.634 -1.46822 1.28329 0
M  V30 2077 O 198.904 -1.91666 0.405094 0
M  V30 2078 H 197.484 -0.0712355 0.743596 0
M  V30 2079 H 200.146 0.528293 1.87603 0
M  V30 2080 H 199.242 -0.390681 3.09645 0
M  V30 2081 N 199.544 -1.57102 0.125237 0
M  V30 2082 C 200.792 -1.95021 -0.530198 0
M  V30 2083 C 201.113 -1.00982 -1.66816 0
M  V30 2084 O 200.383 -0.0672693 -1.95784 0
M  V30 2085 H 198.963 -0.720046 -0.198853 0
M  V30 2086 H 201.625 -1.93916 0.19564 0
M  V30 2087 H 200.721 -2.98211 -0.920681 0
M  V30 2088 N 201.022 0.148545 -1.56898 0
M  V30 2089 C 201.952 1.18524 -2.01182 0
M  V30 2090 C 202.933 1.4489 -0.891123 0
M  V30 2091 O 204.118 1.55836 -1.15882 0
M  V30 2092 C 201.248 2.51879 -2.39112 0
M  V30 2093 C 200.202 2.40038 -3.54353 0
M  V30 2094 C 199.528 3.78089 -3.78091 0
M  V30 2095 C 200.828 1.88577 -4.87069 0
M  V30 2096 H 202.522 0.817029 -2.88036 0
M  V30 2097 H 200.068 0.391575 -1.38574 0
M  V30 2098 H 202.021 3.24627 -2.68692 0
M  V30 2099 H 200.745 2.90532 -1.49193 0
M  V30 2100 H 199.404 1.69742 -3.24936 0
M  V30 2101 H 199.052 4.14175 -2.85426 0
M  V30 2102 H 198.752 3.71028 -4.55645 0
M  V30 2103 H 200.276 4.52387 -4.10095 0
M  V30 2104 H 201.69 2.51117 -5.15377 0
M  V30 2105 H 200.087 1.9241 -5.68417 0
M  V30 2106 H 201.157 0.84136 -4.77545 0
M  V30 2107 N 202.5 1.5196 0.417844 0
M  V30 2108 C 203.916 1.40569 0.755816 0
M  V30 2109 C 204.116 0.503316 1.95113 0
M  V30 2110 O 203.172 -0.0341925 2.52477 0
M  V30 2111 C 204.485 2.82947 1.01791 0
M  V30 2112 C 206.033 2.92231 1.12116 0
M  V30 2113 C 206.508 4.35559 1.41608 0
M  V30 2114 N 207.999 4.38753 1.48491 0
M  V30 2115 C 208.734 5.46705 1.7292 0
M  V30 2116 N 208.23 6.64788 1.95011 0
M  V30 2117 N 210.023 5.34209 1.74863 0
M  V30 2118 H 202.174 2.09168 -0.369098 0
M  V30 2119 H 204.437 0.942409 -0.102809 0
M  V30 2120 H 204.143 3.5106 0.212081 0
M  V30 2121 H 204.017 3.23462 1.94042 0
M  V30 2122 H 206.404 2.24304 1.9176 0
M  V30 2123 H 206.485 2.55185 0.177225 0
M  V30 2124 H 206.129 5.04042 0.624848 0
M  V30 2125 H 206.059 4.70133 2.37239 0
M  V30 2126 H 208.55 3.5363 1.33244 0
M  V30 2127 H 208.863 7.42845 2.13076 0
M  V30 2128 H 207.208 6.67869 1.92293 0
M  V30 2129 H 210.399 4.40937 1.57137 0
M  V30 2130 H 210.572 6.18415 1.93563 0
M  V30 2131 N 203.978 -0.674533 1.42435 0
M  V30 2132 C 204.888 -1.81751 1.48337 0
M  V30 2133 C 205.904 -1.69975 0.372099 0
M  V30 2134 O 207.08 -1.91521 0.62304 0
M  V30 2135 C 204.145 -3.17895 1.38361 0
M  V30 2136 C 203.206 -3.41625 2.59982 0
M  V30 2137 C 202.439 -4.71274 2.50473 0
M  V30 2138 O 202.662 -5.49197 1.54075 0
M  V30 2139 O 201.596 -4.96254 3.4061 0
M  V30 2140 H 205.422 -1.79728 2.44809 0
M  V30 2141 H 203.007 -0.830312 1.24202 0
M  V30 2142 H 204.889 -3.99136 1.35161 0
M  V30 2143 H 203.564 -3.20555 0.450144 0
M  V30 2144 H 202.471 -2.60231 2.68757 0
M  V30 2145 H 203.804 -3.43796 3.52229 0
M  V30 2146 N 205.456 -1.28612 -0.910864 0
M  V30 2147 C 206.386 -1.15326 -2.03032 0
M  V30 2148 C 207.367 -0.0502924 -1.70026 0
M  V30 2149 O 208.552 -0.227797 -1.92859 0
M  V30 2150 C 205.682 -0.817343 -3.37545 0
M  V30 2151 C 204.636 -1.8754 -3.84724 0
M  V30 2152 C 203.962 -1.39305 -5.16235 0
M  V30 2153 C 205.262 -3.28244 -4.06267 0
M  V30 2154 H 206.956 -2.08975 -2.14406 0
M  V30 2155 H 204.502 -1.00612 -1.03021 0
M  V30 2156 H 206.455 -0.711151 -4.15356 0
M  V30 2157 H 205.179 0.154846 -3.26233 0
M  V30 2158 H 203.838 -1.97079 -3.09121 0
M  V30 2159 H 203.486 -0.409846 -5.01328 0
M  V30 2160 H 203.186 -2.10057 -5.48771 0
M  V30 2161 H 204.71 -1.30014 -5.96598 0
M  V30 2162 H 206.124 -3.21611 -4.74594 0
M  V30 2163 H 204.521 -3.96855 -4.5014 0
M  V30 2164 H 205.591 -3.72048 -3.10979 0
M  V30 2165 N 206.934 1.1197 -1.10907 0
M  V30 2166 C 207.866 2.17592 -0.720175 0
M  V30 2167 C 208.879 1.60938 0.245495 0
M  V30 2168 O 210.068 1.78476 0.0292245 0
M  V30 2169 C 207.168 3.38873 -0.0427917 0
M  V30 2170 C 206.341 4.25006 -1.03388 0
M  V30 2171 C 205.4 5.24774 -0.387075 0
M  V30 2172 O 204.426 5.59631 -1.03934 0
M  V30 2173 N 205.628 5.74208 0.852407 0
M  V30 2174 H 208.393 2.51567 -1.62893 0
M  V30 2175 H 205.954 1.27439 -0.998543 0
M  V30 2176 H 207.946 4.02703 0.401501 0
M  V30 2177 H 206.516 3.03007 0.768456 0
M  V30 2178 H 205.736 3.57716 -1.65629 0
M  V30 2179 H 207.024 4.79397 -1.70458 0
M  V30 2180 H 206.422 5.48062 1.40161 0
M  V30 2181 H 204.979 6.39901 1.23977 0
M  V30 2182 N 208.412 0.89855 1.29475 0
M  V30 2183 C 209.342 0.39201 2.30186 0
M  V30 2184 C 210.323 -0.532359 1.61555 0
M  V30 2185 O 211.508 -0.443331 1.89072 0
M  V30 2186 C 208.638 -0.382353 3.45189 0
M  V30 2187 C 207.592 0.451483 4.25612 0
M  V30 2188 C 206.918 -0.450307 5.328 0
M  V30 2189 C 208.218 1.70079 4.93832 0
M  V30 2190 H 209.912 1.23362 2.72804 0
M  V30 2191 H 207.458 0.594638 1.31149 0
M  V30 2192 H 209.411 -0.747451 4.14718 0
M  V30 2193 H 208.135 -1.25774 3.01411 0
M  V30 2194 H 206.794 0.798897 3.57789 0
M  V30 2195 H 206.442 -1.32379 4.85268 0
M  V30 2196 H 206.142 0.103902 5.87508 0
M  V30 2197 H 207.666 -0.811623 6.05182 0
M  V30 2198 H 209.08 1.40549 5.55805 0
M  V30 2199 H 207.477 2.19623 5.58467 0
M  V30 2200 H 208.547 2.43744 4.19186 0
M  V30 2201 N 209.89 -1.43072 0.660911 0
M  V30 2202 C 211.306 -1.56169 0.329173 0
M  V30 2203 C 211.506 -1.64317 -1.16629 0
M  V30 2204 O 210.562 -1.60245 -1.95135 0
M  V30 2205 C 211.875 -2.81873 1.04729 0
M  V30 2206 C 213.423 -2.95627 1.02828 0
M  V30 2207 C 213.898 -4.24174 1.72744 0
M  V30 2208 N 215.389 -4.31055 1.69545 0
M  V30 2209 C 216.124 -5.29304 2.20511 0
M  V30 2210 N 215.62 -6.33786 2.79799 0
M  V30 2211 N 217.413 -5.21008 2.10966 0
M  V30 2212 H 209.564 -1.36027 1.63127 0
M  V30 2213 H 211.827 -0.653823 0.686454 0
M  V30 2214 H 211.533 -2.81942 2.10242 0
M  V30 2215 H 211.407 -3.72338 0.603702 0
M  V30 2216 H 213.794 -2.95094 -0.0184742 0
M  V30 2217 H 213.875 -2.06431 1.51063 0
M  V30 2218 H 213.519 -4.25467 2.7738 0
M  V30 2219 H 213.449 -5.1228 1.2197 0
M  V30 2220 H 215.94 -3.56174 1.26288 0
M  V30 2221 H 216.253 -7.05086 3.16344 0
M  V30 2222 H 214.598 -6.34387 2.83863 0
M  V30 2223 H 217.789 -4.38301 1.64347 0
M  V30 2224 H 217.962 -5.97416 2.50993 0
M  V30 2225 N 211.368 -0.403325 -1.52352 0
M  V30 2226 C 212.593 0.176499 -2.06648 0
M  V30 2227 C 213.018 1.38577 -1.27193 0
M  V30 2228 O 212.376 1.7879 -0.300637 0
M  V30 2229 C 212.424 0.511061 -3.5696 0
M  V30 2230 O 211.528 1.60294 -3.79973 0
M  V30 2231 H 210.869 0.0167337 -0.663789 0
M  V30 2232 H 213.399 -0.574848 -1.96359 0
M  V30 2233 H 213.409 0.771362 -4.00642 0
M  V30 2234 H 212.084 -0.37296 -4.14224 0
M  V30 2235 H 210.661 1.33526 -3.48174 0
M  V30 2236 N 212.846 1.57033 -0.133567 0
M  V30 2237 C 213.776 2.1909 0.807567 0
M  V30 2238 C 214.757 1.13517 1.26681 0
M  V30 2239 O 215.942 1.41809 1.32679 0
M  V30 2240 C 213.072 2.80188 2.05212 0
M  V30 2241 C 212.026 3.91471 1.73015 0
M  V30 2242 C 211.352 4.39443 3.04622 0
M  V30 2243 C 212.652 5.12886 0.987168 0
M  V30 2244 H 214.346 2.97988 0.290403 0
M  V30 2245 H 211.892 1.43335 0.138239 0
M  V30 2246 H 213.845 3.22264 2.71521 0
M  V30 2247 H 212.569 1.98601 2.59278 0
M  V30 2248 H 211.228 3.49993 1.0909 0
M  V30 2249 H 210.876 3.54695 3.56651 0
M  V30 2250 H 210.576 5.14495 2.83847 0
M  V30 2251 H 212.1 4.8418 3.72024 0
M  V30 2252 H 213.514 5.51891 1.55208 0
M  V30 2253 H 211.911 5.93615 0.87985 0
M  V30 2254 H 212.981 4.84894 -0.0235286 0
M  V30 2255 N 214.325 -0.140222 1.56975 0
M  V30 2256 C 215.553 -0.866437 1.87884 0
M  V30 2257 C 215.968 -1.74428 0.722517 0
M  V30 2258 O 215.325 -1.79891 -0.30749 0
M  V30 2259 C 215.376 -1.71753 3.18093 0
M  V30 2260 O 215.097 -0.875056 4.29272 0
M  V30 2261 C 216.598 -2.55074 3.62563 0
M  V30 2262 H 213.818 -0.25019 0.622612 0
M  V30 2263 H 216.362 -0.130977 2.0408 0
M  V30 2264 H 214.517 -2.40598 3.03631 0
M  V30 2265 H 214.931 -1.46002 5.03769 0
M  V30 2266 H 216.405 -3.10356 4.5649 0
M  V30 2267 H 216.882 -3.31434 2.88181 0
M  V30 2268 H 217.488 -1.91509 3.79743 0
M  V30 2269 N 215.803 -1.52179 -0.40978 0
M  V30 2270 C 216.713 -1.78364 -1.52392 0
M  V30 2271 C 217.729 -0.669183 -1.60617 0
M  V30 2272 O 218.905 -0.954518 -1.77344 0
M  V30 2273 C 215.97 -1.92822 -2.88133 0
M  V30 2274 C 215.031 -3.16725 -2.898 0
M  V30 2275 C 214.264 -3.30483 -4.19067 0
M  V30 2276 O 214.487 -2.49522 -5.12928 0
M  V30 2277 O 213.421 -4.2363 -4.27576 0
M  V30 2278 H 217.247 -2.72931 -1.33201 0
M  V30 2279 H 214.832 -1.37016 -0.59557 0
M  V30 2280 H 216.714 -2.04157 -3.68643 0
M  V30 2281 H 215.389 -1.01444 -3.07393 0
M  V30 2282 H 214.296 -3.10848 -2.08146 0
M  V30 2283 H 215.629 -4.07881 -2.75489 0
M  V30 2284 N 217.281 0.66697 -1.42791 0
M  V30 2285 C 218.53 1.42278 -1.42968 0
M  V30 2286 C 218.843 1.9553 -0.0524489 0
M  V30 2287 O 220.049 2.71414 0.068363 0
M  V30 2288 C 218.505 2.57418 -2.51524 0
M  V30 2289 C 218.113 2.10832 -3.9529 0
M  V30 2290 C 219.857 3.34878 -2.60877 0
M  V30 2291 C 217.764 3.23101 -4.95338 0
M  V30 2292 H 216.694 0.534533 -0.531781 0
M  V30 2293 H 219.345 0.721302 -1.68729 0
M  V30 2294 H 217.727 3.29971 -2.18941 0
M  V30 2295 H 218.901 1.4538 -4.37266 0
M  V30 2296 H 217.216 1.46289 -3.89857 0
M  V30 2297 H 219.813 4.18505 -3.32802 0
M  V30 2298 H 220.156 3.81993 -1.6549 0
M  V30 2299 H 220.689 2.69398 -2.92693 0
M  V30 2300 H 217.428 2.80969 -5.9223 0
M  V30 2301 H 216.948 3.87309 -4.57987 0
M  V30 2302 H 218.627 3.88447 -5.17415 0
M  V30 2303 N 218.759 1.29093 0.90403 0
M  V30 2304 C 219.689 1.16401 2.02418 0
M  V30 2305 C 220.67 0.0593085 1.69997 0
M  V30 2306 O 221.855 0.238021 1.92736 0
M  V30 2307 C 218.985 0.835233 3.37107 0
M  V30 2308 C 217.939 1.89578 3.83724 0
M  V30 2309 C 217.265 1.42041 5.15489 0
M  V30 2310 C 218.565 3.30394 4.04521 0
M  V30 2311 H 220.259 2.10109 2.13295 0
M  V30 2312 H 217.805 1.01157 1.02486 0
M  V30 2313 H 219.758 0.733169 4.14973 0
M  V30 2314 H 218.482 -0.137543 3.2631 0
M  V30 2315 H 217.141 1.98715 3.08071 0
M  V30 2316 H 216.789 0.436426 5.01103 0
M  V30 2317 H 216.489 2.12964 5.4765 0
M  V30 2318 H 218.013 1.33176 5.959 0
M  V30 2319 H 219.427 3.24123 4.72882 0
M  V30 2320 H 217.824 3.99237 4.48029 0
M  V30 2321 H 218.894 3.73692 3.09002 0
M  V30 2322 N 220.237 -1.11381 1.11499 0
M  V30 2323 C 221.184 -2.17439 0.773887 0
M  V30 2324 C 222.154 -1.64132 -0.254899 0
M  V30 2325 O 223.339 -1.90345 -0.13168 0
M  V30 2326 C 220.479 -3.44373 0.223917 0
M  V30 2327 C 219.592 -4.1168 1.30934 0
M  V30 2328 C 218.727 -5.263 0.71984 0
M  V30 2329 C 217.766 -5.85493 1.78507 0
M  V30 2330 N 216.903 -6.91507 1.21502 0
M  V30 2331 H 221.743 -2.45962 1.68246 0
M  V30 2332 H 219.28 -1.20744 0.840191 0
M  V30 2333 H 221.238 -4.17047 -0.112921 0
M  V30 2334 H 219.868 -3.16232 -0.647851 0
M  V30 2335 H 218.92 -3.37073 1.76312 0
M  V30 2336 H 220.232 -4.51729 2.11524 0
M  V30 2337 H 219.386 -6.05785 0.333094 0
M  V30 2338 H 218.125 -4.87559 -0.117377 0
M  V30 2339 H 217.13 -5.04686 2.18111 0
M  V30 2340 H 218.355 -6.26301 2.62533 0
M  V30 2341 H 216.301 -6.54783 0.399455 0
M  V30 2342 H 216.218 -7.30214 1.95763 0
M  V30 2343 H 217.486 -7.74795 0.855181 0
M  V30 2344 N 221.715 -0.905404 -1.28997 0
M  V30 2345 C 222.963 -0.533192 -1.9494 0
M  V30 2346 C 223.284 0.924618 -1.71685 0
M  V30 2347 O 222.554 1.65268 -1.05183 0
M  V30 2348 H 221.134 -0.194194 -0.721317 0
M  V30 2349 H 223.796 -1.15294 -1.57141 0
M  V30 2350 H 222.892 -0.72059 -3.03667 0
M  V30 2351 N 223.193 1.4272 -0.668489 0
M  V30 2352 C 224.441 2.01226 -0.187769 0
M  V30 2353 C 224.762 1.53092 1.2078 0
M  V30 2354 O 224.032 0.74993 1.80977 0
M  V30 2355 H 222.612 0.744041 -0.0664272 0
M  V30 2356 H 225.274 1.74723 -0.863583 0
M  V30 2357 H 224.37 3.11556 -0.184166 0
M  V30 2358 N 224.671 0.411399 1.52136 0
M  V30 2359 C 225.917 -0.163888 2.02137 0
M  V30 2360 C 226.25 -1.44597 1.29636 0
M  V30 2361 O 225.525 -1.90272 0.403353 0
M  V30 2362 C 225.808 -0.40927 3.57767 0
M  V30 2363 C 225.661 0.889643 4.40914 0
M  V30 2364 C 226.98 -1.19042 4.23694 0
M  V30 2365 H 224.099 -0.0580896 0.734707 0
M  V30 2366 H 226.741 0.54531 1.82007 0
M  V30 2367 H 224.891 -1.0134 3.7505 0
M  V30 2368 H 226.563 1.52575 4.35337 0
M  V30 2369 H 224.806 1.50011 4.07037 0
M  V30 2370 H 225.477 0.672314 5.4789 0
M  V30 2371 H 227.953 -0.678942 4.10524 0
M  V30 2372 H 226.829 -1.33086 5.32522 0
M  V30 2373 H 227.09 -2.21166 3.82803 0
M  V30 2374 N 226.149 -1.5696 0.141893 0
M  V30 2375 C 227.079 -2.19516 -0.795936 0
M  V30 2376 C 228.06 -1.14187 -1.26077 0
M  V30 2377 O 229.245 -1.42511 -1.31925 0
M  V30 2378 C 226.375 -2.81272 -2.03723 0
M  V30 2379 C 225.329 -3.92384 -1.70936 0
M  V30 2380 C 224.655 -4.41052 -3.02287 0
M  V30 2381 C 225.955 -5.13403 -0.959954 0
M  V30 2382 H 227.649 -2.98138 -0.274596 0
M  V30 2383 H 225.195 -1.43406 -0.130636 0
M  V30 2384 H 227.148 -3.237 -2.69808 0
M  V30 2385 H 225.872 -1.99973 -2.58221 0
M  V30 2386 H 224.531 -3.50566 -1.07232 0
M  V30 2387 H 224.179 -3.56582 -3.54765 0
M  V30 2388 H 223.879 -5.15993 -2.81114 0
M  V30 2389 H 225.403 -4.86146 -3.69451 0
M  V30 2390 H 226.817 -5.52706 -1.52279 0
M  V30 2391 H 225.214 -5.94073 -0.848357 0
M  V30 2392 H 226.284 -4.84875 0.0492434 0
M  V30 2393 N 227.627 0.131896 -1.57047 0
M  V30 2394 C 228.876 0.84044 -1.83356 0
M  V30 2395 C 229.189 1.81646 -0.725535 0
M  V30 2396 O 230.395 2.57025 -0.874659 0
M  V30 2397 C 228.851 1.54528 -3.25037 0
M  V30 2398 C 228.459 0.610902 -4.43815 0
M  V30 2399 C 230.203 2.23972 -3.60606 0
M  V30 2400 C 228.11 1.31823 -5.76521 0
M  V30 2401 H 227.04 0.317599 -0.683847 0
M  V30 2402 H 229.691 0.0931561 -1.83263 0
M  V30 2403 H 228.073 2.33873 -3.19561 0
M  V30 2404 H 229.247 -0.148407 -4.60561 0
M  V30 2405 H 227.562 0.0241016 -4.16393 0
M  V30 2406 H 230.159 2.77558 -4.57018 0
M  V30 2407 H 230.502 3.01173 -2.87403 0
M  V30 2408 H 231.035 1.51529 -3.6781 0
M  V30 2409 H 227.774 0.587771 -6.52859 0
M  V30 2410 H 227.294 2.04987 -5.63685 0
M  V30 2411 H 228.973 1.855 -6.19838 0
M  V30 2412 N 229.106 1.52395 0.401703 0
M  V30 2413 C 230.038 1.72505 1.50912 0
M  V30 2414 C 231.051 0.605468 1.51122 0
M  V30 2415 O 232.24 0.880828 1.55254 0
M  V30 2416 C 229.34 1.75711 2.89791 0
M  V30 2417 C 228.513 3.04824 3.1369 0
M  V30 2418 C 227.572 2.99743 4.32482 0
M  V30 2419 O 226.598 3.73635 4.29402 0
M  V30 2420 N 227.8 2.18047 5.37992 0
M  V30 2421 H 230.565 2.68049 1.34052 0
M  V30 2422 H 228.126 1.50724 0.591084 0
M  V30 2423 H 230.118 1.69834 3.6734 0
M  V30 2424 H 228.688 0.876092 3.00072 0
M  V30 2425 H 227.908 3.2429 2.24119 0
M  V30 2426 H 229.196 3.90221 3.26504 0
M  V30 2427 H 228.594 1.57456 5.43345 0
M  V30 2428 H 227.151 2.18021 6.14256 0
M  V30 2429 N 230.584 -0.659388 1.43143 0
M  V30 2430 C 232 -0.974337 1.26407 0
M  V30 2431 C 232.2 -2.007 0.179341 0
M  V30 2432 O 231.256 -2.4856 -0.444295 0
M  V30 2433 C 232.569 -1.46447 2.62628 0
M  V30 2434 C 234.117 -1.58144 2.7011 0
M  V30 2435 C 234.592 -2.1055 4.06734 0
M  V30 2436 N 236.083 -2.17861 4.08767 0
M  V30 2437 C 236.818 -2.59519 5.1131 0
M  V30 2438 N 236.314 -3.00518 6.24228 0
M  V30 2439 N 238.107 -2.59404 4.98664 0
M  V30 2440 H 230.258 0.0240528 2.12386 0
M  V30 2441 H 232.521 -0.0518065 0.946583 0
M  V30 2442 H 232.227 -0.780123 3.42939 0
M  V30 2443 H 232.101 -2.44058 2.87603 0
M  V30 2444 H 234.488 -2.25682 1.90136 0
M  V30 2445 H 234.569 -0.589828 2.48907 0
M  V30 2446 H 234.213 -1.43616 4.87172 0
M  V30 2447 H 234.143 -3.10531 4.25298 0
M  V30 2448 H 236.634 -1.88975 3.27257 0
M  V30 2449 H 236.947 -3.31036 6.98309 0
M  V30 2450 H 235.292 -2.98337 6.2771 0
M  V30 2451 H 238.483 -2.26747 4.09516 0
M  V30 2452 H 238.656 -2.91548 5.78709 0
M  V30 2453 N 232.062 -1.29571 -0.897171 0
M  V30 2454 C 233.01 -1.14802 -2.02295 0
M  V30 2455 C 234.004 -0.0629637 -1.69283 0
M  V30 2456 O 235.21 -0.222945 -1.78614 0
M  V30 2457 H 231.585 -0.354692 -0.663097 0
M  V30 2458 H 233.556 -2.10108 -2.11889 0
M  V30 2459 C 232.305 -0.843966 -3.37302 0
M  V30 2460 H 231.628 -1.67093 -3.63208 0
M  V30 2461 H 233.068 -0.780672 -4.16751 0
M  V30 2462 C 231.527 0.452843 -3.33843 0
M  V30 2463 O 232.057 1.47813 -3.73516 0
M  V30 2464 N 230.263 0.459601 -2.86943 0
M  V30 2465 H 229.81 -0.375213 -2.54853 0
M  V30 2466 H 229.768 1.32726 -2.85011 0
M  V30 2467 N 233.54 1.10788 -1.12088 0
M  V30 2468 C 234.951 1.64181 -0.88891 0
M  V30 2469 C 235.302 1.87508 0.577498 0
M  V30 2470 O 234.427 1.61434 1.44112 0
M  V30 2471 C 235.022 2.98257 -1.60712 0
M  V30 2472 C 233.581 3.4853 -1.42139 0
M  V30 2473 C 232.728 2.23208 -1.6454 0
M  V30 2474 H 235.679 0.943368 -1.27618 0
M  V30 2475 H 235.7 3.65552 -1.05604 0
M  V30 2476 H 235.212 2.81246 -2.67436 0
M  V30 2477 H 233.313 3.70692 -0.376552 0
M  V30 2478 H 233.426 4.26882 -2.17505 0
M  V30 2479 H 231.79 2.31169 -1.06925 0
M  V30 2480 H 232.573 2.08733 -2.72554 0
M  V30 2481 N 235.018 0.912232 1.28515 0
M  V30 2482 C 235.95 0.35676 2.26406 0
M  V30 2483 C 236.963 -0.503933 1.54804 0
M  V30 2484 O 238.152 -0.319059 1.75625 0
M  V30 2485 C 235.252 -0.508825 3.35058 0
M  V30 2486 C 234.425 0.329007 4.36161 0
M  V30 2487 C 233.484 -0.471422 5.24084 0
M  V30 2488 O 232.51 0.115482 5.69083 0
M  V30 2489 N 233.712 -1.77479 5.52704 0
M  V30 2490 H 236.477 1.19818 2.74707 0
M  V30 2491 H 234.038 0.778022 1.4198 0
M  V30 2492 H 236.03 -1.051 3.90815 0
M  V30 2493 H 234.6 -1.25095 2.86478 0
M  V30 2494 H 233.82 1.05256 3.79888 0
M  V30 2495 H 235.108 0.90234 5.00735 0
M  V30 2496 H 234.506 -2.27417 5.17975 0
M  V30 2497 H 233.063 -2.26382 6.11224 0
M  V30 2498 N 236.496 -1.42363 0.676048 0
M  V30 2499 C 237.426 -2.33497 0.0124832 0
M  V30 2500 C 238.407 -1.50748 -0.787981 0
M  V30 2501 O 239.592 -1.79346 -0.744884 0
M  V30 2502 C 236.722 -3.34377 -0.938582 0
M  V30 2503 C 235.676 -4.27289 -0.246622 0
M  V30 2504 C 235.002 -5.18386 -1.31071 0
M  V30 2505 C 236.302 -5.14916 0.875125 0
M  V30 2506 H 237.996 -2.89233 0.773593 0
M  V30 2507 H 235.542 -1.39073 0.37346 0
M  V30 2508 H 237.495 -3.97044 -1.41188 0
M  V30 2509 H 236.219 -2.76947 -1.73113 0
M  V30 2510 H 234.878 -3.66018 0.206456 0
M  V30 2511 H 234.526 -4.57282 -2.09528 0
M  V30 2512 H 234.226 -5.81378 -0.852839 0
M  V30 2513 H 235.75 -5.83929 -1.78492 0
M  V30 2514 H 237.164 -5.71262 0.482983 0
M  V30 2515 H 235.561 -5.86747 1.25887 0
M  V30 2516 H 236.631 -4.53242 1.72335 0
M  V30 2517 N 237.974 -0.419461 -1.51915 0
M  V30 2518 C 239.214 0.152336 -2.03832 0
M  V30 2519 C 239.578 1.41501 -1.29775 0
M  V30 2520 O 240.779 2.06591 -1.7197 0
M  V30 2521 C 239.05 0.383812 -3.55333 0
M  V30 2522 S 240.609 0.921577 -4.29013 0
M  V30 2523 H 237.427 0.0402193 -0.709862 0
M  V30 2524 H 240.029 -0.574758 -1.8686 0
M  V30 2525 H 238.733 -0.541794 -4.06808 0
M  V30 2526 H 238.264 1.13849 -3.76566 0
M  V30 2527 H 240.279 2.20108 -4.4471 0
M  V30 2528 N 239.452 1.56882 -0.150215 0
M  V30 2529 C 240.682 2.00302 0.506213 0
M  V30 2530 C 241.09 1.02934 1.58749 0
M  V30 2531 O 240.433 0.0188384 1.8369 0
M  V30 2532 C 240.495 3.40156 1.16337 0
M  V30 2533 C 240.159 4.56439 0.226311 0
M  V30 2534 C 241.156 5.17012 -0.547265 0
M  V30 2535 C 238.841 5.02136 0.128279 0
M  V30 2536 C 240.835 6.21693 -1.40629 0
M  V30 2537 C 238.522 6.06672 -0.734345 0
M  V30 2538 C 239.52 6.6632 -1.50023 0
M  V30 2539 O 239.208 7.68831 -2.34848 0
M  V30 2540 H 238.94 0.662182 0.135984 0
M  V30 2541 H 241.494 2.03961 -0.242746 0
M  V30 2542 H 239.724 3.33346 1.96004 0
M  V30 2543 H 241.413 3.67663 1.71985 0
M  V30 2544 H 242.179 4.82603 -0.48158 0
M  V30 2545 H 238.058 4.55435 0.714157 0
M  V30 2546 H 241.602 6.68179 -2.00455 0
M  V30 2547 H 237.499 6.40507 -0.801309 0
M  V30 2548 H 238.267 7.86065 -2.28131 0
M  V30 2549 N 240.93 -0.123565 1.57115 0
M  V30 2550 C 241.862 -1.17739 1.96648 0
M  V30 2551 C 242.875 -1.37906 0.865201 0
M  V30 2552 O 244.064 -1.37062 1.14351 0
M  V30 2553 C 241.164 -2.53821 2.24562 0
M  V30 2554 C 240.337 -2.54317 3.55867 0
M  V30 2555 C 239.396 -3.72112 3.72047 0
M  V30 2556 O 238.422 -3.55907 4.44206 0
M  V30 2557 N 239.624 -4.90498 3.10471 0
M  V30 2558 H 242.389 -0.841147 2.87654 0
M  V30 2559 H 239.95 -0.31289 1.58848 0
M  V30 2560 H 241.942 -3.31175 2.32606 0
M  V30 2561 H 240.512 -2.79645 1.39705 0
M  V30 2562 H 239.732 -1.62711 3.59053 0
M  V30 2563 H 241.02 -2.51701 4.42181 0
M  V30 2564 H 240.418 -5.06567 2.51806 0
M  V30 2565 H 238.975 -5.65544 3.24043 0
M  V30 2566 N 242.408 -1.52605 -0.393616 0
M  V30 2567 C 243.685 -1.58001 -1.15304 0
M  V30 2568 C 244.065 -0.370385 -2.07825 0
M  V30 2569 O 243.413 0.641638 -2.19306 0
M  V30 2570 C 243.623 -2.91652 -1.91677 0
M  V30 2571 C 244.971 -3.4522 -2.47201 0
M  V30 2572 O 245.995 -2.93495 -2.01839 0
M  V30 2573 O 244.854 -4.35579 -3.3005 0
M  V30 2574 H 241.948 -0.637068 -0.527327 0
M  V30 2575 H 244.494 -1.64939 -0.399141 0
M  V30 2576 H 243.266 -3.71136 -1.23992 0
M  V30 2577 H 242.889 -2.88077 -2.74039 0
M  V30 2578 N 243.887 0.651787 -1.4349 0
M  V30 2579 C 245.115 1.43937 -1.48626 0
M  V30 2580 C 245.53 1.8851 -0.104587 0
M  V30 2581 O 244.887 1.5958 0.885464 0
M  V30 2582 C 244.938 2.6734 -2.43334 0
M  V30 2583 O 244.659 2.24631 -3.76128 0
M  V30 2584 C 246.16 3.60683 -2.57726 0
M  V30 2585 H 243.38 0.44213 -0.504739 0
M  V30 2586 H 245.924 0.798944 -1.88248 0
M  V30 2587 H 244.079 3.2752 -2.06904 0
M  V30 2588 H 244.493 3.04485 -4.2707 0
M  V30 2589 H 245.967 4.43933 -3.28067 0
M  V30 2590 H 246.444 4.08126 -1.62265 0
M  V30 2591 H 247.05 3.06384 -2.94973 0
M  V30 2592 N 245.365 1.30045 0.890287 0
M  V30 2593 C 246.614 1.17929 1.63633 0
M  V30 2594 C 246.927 -0.266204 1.9378 0
M  V30 2595 O 248.133 -0.508804 2.6669 0
M  V30 2596 C 246.589 2.06317 2.94892 0
M  V30 2597 C 246.197 3.55745 2.72305 0
M  V30 2598 C 247.941 2.0295 3.72843 0
M  V30 2599 C 245.848 4.36205 3.99348 0
M  V30 2600 H 244.778 0.437782 0.613892 0
M  V30 2601 H 247.429 1.54754 0.986075 0
M  V30 2602 H 245.811 1.6237 3.61182 0
M  V30 2603 H 246.985 4.07805 2.1455 0
M  V30 2604 H 245.3 3.6088 2.07737 0
M  V30 2605 H 247.897 2.60319 4.67053 0
M  V30 2606 H 248.24 1.0117 4.0382 0
M  V30 2607 H 248.773 2.4499 3.13408 0
M  V30 2608 H 245.512 5.38659 3.73533 0
M  V30 2609 H 245.032 3.8891 4.56628 0
M  V30 2610 H 246.711 4.47362 4.67415 0
M  V30 2611 N 246.843 -1.10192 1.12674 0
M  V30 2612 C 247.773 -2.18652 0.819362 0
M  V30 2613 C 248.754 -1.68698 -0.217915 0
M  V30 2614 O 249.939 -1.94041 -0.0785581 0
M  V30 2615 C 247.069 -3.46202 0.27594 0
M  V30 2616 C 246.023 -4.09444 1.24656 0
M  V30 2617 C 245.349 -5.31725 0.563258 0
M  V30 2618 C 246.649 -4.52863 2.60217 0
M  V30 2619 H 248.343 -2.44622 1.72628 0
M  V30 2620 H 245.889 -1.17571 0.831451 0
M  V30 2621 H 247.842 -4.21372 0.0486149 0
M  V30 2622 H 246.566 -3.1973 -0.666331 0
M  V30 2623 H 245.225 -3.36284 1.45974 0
M  V30 2624 H 244.873 -5.0153 -0.384235 0
M  V30 2625 H 244.573 -5.74991 1.21075 0
M  V30 2626 H 246.097 -6.09624 0.34503 0
M  V30 2627 H 247.511 -5.19294 2.42913 0
M  V30 2628 H 245.908 -5.06986 3.21068 0
M  V30 2629 H 246.978 -3.65656 3.18471 0
M  V30 2630 N 248.321 -0.919034 -1.28029 0
M  V30 2631 C 249.567 -0.565221 -1.95389 0
M  V30 2632 C 249.922 0.882325 -1.70976 0
M  V30 2633 O 249.215 1.61988 -1.02325 0
M  V30 2634 C 249.409 -0.816855 -3.4794 0
M  V30 2635 C 249.238 -2.28731 -3.87185 0
M  V30 2636 C 248.008 -2.93841 -4.11079 0
M  V30 2637 C 250.206 -3.26415 -3.97439 0
M  V30 2638 N 248.188 -4.31129 -4.37037 0
M  V30 2639 C 249.559 -4.48884 -4.27672 0
M  V30 2640 C 251.614 -3.21742 -3.79982 0
M  V30 2641 C 250.317 -5.67268 -4.42266 0
M  V30 2642 C 252.343 -4.39431 -3.95796 0
M  V30 2643 C 251.705 -5.60675 -4.26407 0
M  V30 2644 H 247.804 -0.256797 -0.738633 0
M  V30 2645 H 250.388 -1.18386 -1.54573 0
M  V30 2646 H 248.559 -0.227445 -3.87733 0
M  V30 2647 H 250.291 -0.426542 -4.02446 0
M  V30 2648 H 247.046 -2.44547 -4.05578 0
M  V30 2649 H 247.47 -5.02127 -4.5409 0
M  V30 2650 H 252.112 -2.29079 -3.55363 0
M  V30 2651 H 249.83 -6.60406 -4.65714 0
M  V30 2652 H 253.416 -4.37323 -3.83719 0
M  V30 2653 H 252.296 -6.50223 -4.38383 0
M  V30 2654 N 249.799 1.42003 -0.683588 0
M  V30 2655 C 250.746 2.30798 -0.0107309 0
M  V30 2656 C 251.716 1.4645 0.783688 0
M  V30 2657 O 252.901 1.75263 0.754156 0
M  V30 2658 C 250.041 3.3238 0.928306 0
M  V30 2659 C 249.154 4.31814 0.126776 0
M  V30 2660 C 248.289 5.20468 1.06236 0
M  V30 2661 C 247.328 6.11577 0.253035 0
M  V30 2662 N 246.465 6.92754 1.14179 0
M  V30 2663 H 251.305 2.8778 -0.773727 0
M  V30 2664 H 248.842 1.41745 -0.393283 0
M  V30 2665 H 250.8 3.89813 1.48666 0
M  V30 2666 H 249.43 2.76976 1.65783 0
M  V30 2667 H 248.482 3.76427 -0.54833 0
M  V30 2668 H 249.794 4.96276 -0.501192 0
M  V30 2669 H 248.948 5.82677 1.69035 0
M  V30 2670 H 247.687 4.56204 1.7242 0
M  V30 2671 H 246.692 5.48428 -0.388108 0
M  V30 2672 H 247.917 6.77892 -0.404839 0
M  V30 2673 H 245.863 6.3111 1.78987 0
M  V30 2674 H 245.78 7.53855 0.569111 0
M  V30 2675 H 247.048 7.59441 1.75697 0
M  V30 2676 N 251.277 0.427512 1.51691 0
M  V30 2677 C 252.554 -0.201684 1.94557 0
M  V30 2678 C 252.934 -1.60981 1.36559 0
M  V30 2679 O 252.282 -2.21814 0.548702 0
M  V30 2680 C 252.492 -0.189394 3.48486 0
M  V30 2681 C 253.84 -0.39978 4.22714 0
M  V30 2682 O 254.864 -0.267945 3.55191 0
M  V30 2683 O 253.723 -0.661249 5.42485 0
M  V30 2684 H 250.817 -0.135261 0.815864 0
M  V30 2685 H 253.363 0.484782 1.62628 0
M  V30 2686 H 252.135 0.795431 3.8313 0
M  V30 2687 H 251.758 -0.919187 3.86829 0
M  V30 2688 N 252.755 -1.56801 0.158532 0
M  V30 2689 C 254.004 -1.95665 -0.489702 0
M  V30 2690 C 254.317 -1.04654 -1.65248 0
M  V30 2691 O 255.523 -1.33146 -2.3661 0
M  V30 2692 C 253.979 -3.47874 -0.922582 0
M  V30 2693 C 253.587 -4.47489 0.213893 0
M  V30 2694 C 255.331 -3.95583 -1.53996 0
M  V30 2695 C 253.238 -5.90921 -0.237903 0
M  V30 2696 H 252.168 -0.730516 -0.186716 0
M  V30 2697 H 254.819 -1.81861 0.244722 0
M  V30 2698 H 253.201 -3.57051 -1.71261 0
M  V30 2699 H 254.375 -4.50017 0.991036 0
M  V30 2700 H 252.69 -4.09764 0.740407 0
M  V30 2701 H 255.287 -5.0019 -1.8898 0
M  V30 2702 H 255.63 -3.37789 -2.43319 0
M  V30 2703 H 256.163 -3.8937 -0.814611 0
M  V30 2704 H 252.902 -6.52559 0.620236 0
M  V30 2705 H 252.422 -5.91729 -0.980676 0
M  V30 2706 H 254.101 -6.43352 -0.686067 0
M  V30 2707 N 254.233 0.115231 -1.57178 0
M  V30 2708 C 255.48 0.822351 -1.8505 0
M  V30 2709 C 255.808 1.79701 -0.744168 0
M  V30 2710 O 255.063 1.93909 0.26414 0
M  V30 2711 C 255.362 1.60324 -3.19423 0
M  V30 2712 C 255.028 0.772536 -4.44233 0
M  V30 2713 C 253.69 0.543468 -4.78121 0
M  V30 2714 C 256.042 0.193746 -5.2084 0
M  V30 2715 C 253.37 -0.274583 -5.86057 0
M  V30 2716 C 255.722 -0.611517 -6.29637 0
M  V30 2717 C 254.386 -0.850867 -6.62055 0
M  V30 2718 H 253.656 0.30092 -0.677147 0
M  V30 2719 H 256.303 0.0845802 -1.91313 0
M  V30 2720 H 254.608 2.41203 -3.08753 0
M  V30 2721 H 256.305 2.1544 -3.38211 0
M  V30 2722 H 252.895 0.96117 -4.17683 0
M  V30 2723 H 257.079 0.357926 -4.95008 0
M  V30 2724 H 252.335 -0.469206 -6.09597 0
M  V30 2725 H 256.509 -1.06697 -6.88178 0
M  V30 2726 H 254.136 -1.48657 -7.45523 0
M  V30 2727 N 255.711 1.52812 0.385517 0
M  V30 2728 C 256.661 1.74219 1.47078 0
M  V30 2729 C 257.645 0.59632 1.49442 0
M  V30 2730 O 258.837 0.85428 1.5502 0
M  V30 2731 C 255.966 1.9176 2.84751 0
M  V30 2732 C 255.052 3.12289 2.86943 0
M  V30 2733 N 255.443 4.34575 2.58802 0
M  V30 2734 C 253.741 3.12605 3.1811 0
M  V30 2735 C 254.442 5.162 2.68166 0
M  V30 2736 N 253.418 4.51964 3.02043 0
M  V30 2737 H 257.22 2.6639 1.24152 0
M  V30 2738 H 254.734 1.51166 0.593504 0
M  V30 2739 H 256.731 2.05218 3.62893 0
M  V30 2740 H 255.391 1.00805 3.08656 0
M  V30 2741 H 256.402 4.62649 2.32759 0
M  V30 2742 H 253.079 2.31472 3.47458 0
M  V30 2743 H 254.469 6.23689 2.49923 0
M  V30 2744 N 257.189 -0.644168 1.43834 0
M  V30 2745 C 258.136 -1.75671 1.49694 0
M  V30 2746 C 259.106 -1.6246 0.345809 0
M  V30 2747 O 260.291 -1.82573 0.554234 0
M  V30 2748 C 257.431 -3.13867 1.43463 0
M  V30 2749 C 256.544 -3.38147 2.6885 0
M  V30 2750 C 255.679 -4.66241 2.54544 0
M  V30 2751 C 254.718 -4.83657 3.75157 0
M  V30 2752 N 253.855 -6.03016 3.59605 0
M  V30 2753 H 258.695 -1.69998 2.44754 0
M  V30 2754 H 256.232 -0.829458 1.21484 0
M  V30 2755 H 258.19 -3.9377 1.37843 0
M  V30 2756 H 256.82 -3.18588 0.519783 0
M  V30 2757 H 255.872 -2.52276 2.84712 0
M  V30 2758 H 257.184 -3.46899 3.58417 0
M  V30 2759 H 256.338 -5.54285 2.46683 0
M  V30 2760 H 255.077 -4.59826 1.62516 0
M  V30 2761 H 254.082 -3.94046 3.83416 0
M  V30 2762 H 255.307 -4.91896 4.68204 0
M  V30 2763 H 253.253 -5.97715 2.7032 0
M  V30 2764 H 253.17 -6.12766 4.42779 0
M  V30 2765 H 254.438 -6.93657 3.55613 0
M  V30 2766 N 258.668 -1.30515 -0.883378 0
M  V30 2767 C 259.616 -1.16941 -2.01066 0
M  V30 2768 C 260.61 -0.0809148 -1.69207 0
M  V30 2769 O 261.816 -0.241877 -1.78367 0
M  V30 2770 H 258.191 -0.361705 -0.659298 0
M  V30 2771 H 260.162 -2.12344 -2.09649 0
M  V30 2772 C 258.911 -0.879694 -3.36388 0
M  V30 2773 H 258.234 -1.70936 -3.61415 0
M  V30 2774 H 259.674 -0.82483 -4.159 0
M  V30 2775 C 258.133 0.417409 -3.34304 0
M  V30 2776 O 258.663 1.43843 -3.75063 0
M  V30 2777 N 256.869 0.429141 -2.87414 0
M  V30 2778 H 256.416 -0.402222 -2.5444 0
M  V30 2779 H 256.374 1.29696 -2.86403 0
M  V30 2780 N 260.146 1.09593 -1.13257 0
M  V30 2781 C 261.094 2.18271 -0.803783 0
M  V30 2782 C 262.088 1.68054 0.213148 0
M  V30 2783 O 263.294 1.79862 0.0704699 0
M  V30 2784 H 259.669 0.711949 -0.242143 0
M  V30 2785 H 261.64 2.43235 -1.72856 0
M  V30 2786 C 260.389 3.46536 -0.28424 0
M  V30 2787 H 259.712 3.85545 -1.05807 0
M  V30 2788 H 261.152 4.23899 -0.0925945 0
M  V30 2789 C 259.611 3.22036 0.989684 0
M  V30 2790 O 260.141 3.44509 2.06584 0
M  V30 2791 N 258.347 2.7565 0.920086 0
M  V30 2792 H 257.894 2.57562 0.0442019 0
M  V30 2793 H 257.852 2.59635 1.77306 0
M  V30 2794 N 261.624 0.925811 1.2754 0
M  V30 2795 C 262.556 0.380753 2.26015 0
M  V30 2796 C 263.569 -0.487485 1.5533 0
M  V30 2797 O 264.758 -0.300413 1.75954 0
M  V30 2798 C 261.858 -0.473259 3.35579 0
M  V30 2799 C 261.031 0.375249 4.35787 0
M  V30 2800 C 260.09 -0.415809 5.24555 0
M  V30 2801 O 259.116 0.175834 5.68928 0
M  V30 2802 N 260.318 -1.71607 5.54555 0
M  V30 2803 H 263.083 1.22725 2.73421 0
M  V30 2804 H 260.644 0.793037 1.41147 0
M  V30 2805 H 262.636 -1.00949 3.91907 0
M  V30 2806 H 261.206 -1.2205 2.87789 0
M  V30 2807 H 260.426 1.09279 3.7875 0
M  V30 2808 H 261.714 0.955399 4.99749 0
M  V30 2809 H 261.112 -2.2191 5.20358 0
M  V30 2810 H 259.669 -2.19887 6.1359 0
M  V30 2811 N 263.102 -1.41638 0.69111 0
M  V30 2812 C 264.032 -2.3347 0.037248 0
M  V30 2813 C 265.013 -1.51575 -0.771947 0
M  V30 2814 O 266.198 -1.80126 -0.72582 0
M  V30 2815 C 263.328 -3.35354 -0.903064 0
M  V30 2816 C 262.282 -4.27526 -0.201288 0
M  V30 2817 C 261.608 -5.19747 -1.25565 0
M  V30 2818 C 262.908 -5.13959 0.929689 0
M  V30 2819 H 264.602 -2.88397 0.804227 0
M  V30 2820 H 262.148 -1.38669 0.388189 0
M  V30 2821 H 264.101 -3.98519 -1.36969 0
M  V30 2822 H 262.825 -2.78767 -1.70166 0
M  V30 2823 H 261.484 -3.65779 0.245265 0
M  V30 2824 H 261.132 -4.59479 -2.04666 0
M  V30 2825 H 260.832 -5.8225 -0.791128 0
M  V30 2826 H 262.356 -5.85789 -1.72288 0
M  V30 2827 H 263.77 -5.70718 0.543546 0
M  V30 2828 H 262.167 -5.85379 1.32103 0
M  V30 2829 H 263.237 -4.51389 1.77133 0
M  V30 2830 N 264.58 -0.43555 -1.51462 0
M  V30 2831 C 265.543 0.365137 -2.26273 0
M  V30 2832 C 266.543 0.951227 -1.29647 0
M  V30 2833 O 267.733 0.825958 -1.53374 0
M  V30 2834 C 264.865 1.51645 -3.05314 0
M  V30 2835 H 266.058 -0.290474 -2.9849 0
M  V30 2836 H 263.611 -0.188676 -1.55157 0
M  V30 2837 H 264.346 2.20816 -2.3751 0
M  V30 2838 H 264.131 1.10238 -3.76284 0
M  V30 2839 H 265.621 2.08218 -3.61987 0
M  V30 2840 N 266.058 1.56714 -0.166846 0
M  V30 2841 C 266.988 2.20754 0.760913 0
M  V30 2842 C 267.969 1.16178 1.24244 0
M  V30 2843 O 269.154 1.44592 1.29641 0
M  V30 2844 C 266.284 2.84478 1.99223 0
M  V30 2845 C 265.238 3.95053 1.64672 0
M  V30 2846 C 264.564 4.45805 2.95232 0
M  V30 2847 C 265.864 5.14865 0.878155 0
M  V30 2848 H 267.558 2.98537 0.22713 0
M  V30 2849 H 265.104 1.43596 0.107805 0
M  V30 2850 H 267.057 3.27951 2.64624 0
M  V30 2851 H 265.781 2.04056 2.55007 0
M  V30 2852 H 264.44 3.52228 1.01641 0
M  V30 2853 H 264.088 3.62181 3.49047 0
M  V30 2854 H 263.788 5.204 2.7287 0
M  V30 2855 H 265.312 4.91962 3.6167 0
M  V30 2856 H 266.726 5.55059 1.43466 0
M  V30 2857 H 265.123 5.95348 0.753738 0
M  V30 2858 H 266.193 4.84735 -0.126377 0
M  V30 2859 N 267.536 -0.106894 1.57237 0
M  V30 2860 C 268.764 -0.826389 1.8968 0
M  V30 2861 C 269.179 -1.72856 0.759353 0
M  V30 2862 O 268.536 -1.80503 -0.269263 0
M  V30 2863 C 268.587 -1.64967 3.21665 0
M  V30 2864 O 268.308 -0.783804 4.31031 0
M  V30 2865 C 269.809 -2.47326 3.67892 0
M  V30 2866 H 267.029 -0.236927 0.627779 0
M  V30 2867 H 269.573 -0.0876593 2.04312 0
M  V30 2868 H 267.728 -2.34103 3.08666 0
M  V30 2869 H 268.142 -1.35284 5.06753 0
M  V30 2870 H 269.616 -3.00604 4.6297 0
M  V30 2871 H 270.093 -3.25247 2.95146 0
M  V30 2872 H 270.699 -1.83411 3.83719 0
M  V30 2873 N 269.014 -1.53014 -0.377408 0
M  V30 2874 C 269.944 -1.81589 -1.46791 0
M  V30 2875 C 270.925 -0.668622 -1.56408 0
M  V30 2876 O 272.11 -0.917337 -1.71168 0
M  V30 2877 C 269.24 -1.99519 -2.8427 0
M  V30 2878 C 268.194 -3.15249 -2.89486 0
M  V30 2879 C 267.52 -3.18451 -4.29527 0
M  V30 2880 C 268.82 -4.54084 -2.58079 0
M  V30 2881 H 270.514 -2.7291 -1.23127 0
M  V30 2882 H 268.06 -1.31319 -0.590883 0
M  V30 2883 H 270.013 -2.18092 -3.60575 0
M  V30 2884 H 268.737 -1.04897 -3.09296 0
M  V30 2885 H 267.396 -2.96477 -2.15631 0
M  V30 2886 H 267.044 -2.2149 -4.5161 0
M  V30 2887 H 266.744 -3.962 -4.33934 0
M  V30 2888 H 268.268 -3.39193 -5.07721 0
M  V30 2889 H 269.682 -4.72899 -3.24098 0
M  V30 2890 H 268.079 -5.33987 -2.7382 0
M  V30 2891 H 269.149 -4.60006 -1.53372 0
M  V30 2892 N 270.492 0.636531 -1.44174 0
M  V30 2893 C 271.741 1.39213 -1.45954 0
M  V30 2894 C 272.054 1.95374 -0.0939119 0
M  V30 2895 O 273.26 2.71498 0.0107767 0
M  V30 2896 C 271.716 2.52025 -2.56927 0
M  V30 2897 C 271.324 2.024 -3.99673 0
M  V30 2898 C 273.068 3.29269 -2.67922 0
M  V30 2899 C 270.975 3.12521 -5.0208 0
M  V30 2900 H 269.905 0.523132 -0.542999 0
M  V30 2901 H 272.556 0.685349 -1.70221 0
M  V30 2902 H 270.938 3.25253 -2.25891 0
M  V30 2903 H 272.112 1.36073 -4.40251 0
M  V30 2904 H 270.427 1.37987 -3.92872 0
M  V30 2905 H 273.024 4.11352 -3.41605 0
M  V30 2906 H 273.367 3.78397 -1.73555 0
M  V30 2907 H 273.9 2.63129 -2.98342 0
M  V30 2908 H 270.639 2.68343 -5.98057 0
M  V30 2909 H 270.159 3.77507 -4.66099 0
M  V30 2910 H 271.838 3.77385 -5.25538 0
M  V30 2911 N 271.97 1.30982 0.876444 0
M  V30 2912 C 273.247 1.10942 1.61094 0
M  V30 2913 C 273.627 -0.338223 2.08373 0
M  V30 2914 O 272.975 -1.33122 1.85717 0
M  V30 2915 C 273.185 2.11789 2.77392 0
M  V30 2916 C 274.533 2.43965 3.47514 0
M  V30 2917 O 275.557 2.10166 2.87591 0
M  V30 2918 O 274.416 3.01817 4.55597 0
M  V30 2919 H 271.51 0.42667 0.708436 0
M  V30 2920 H 274.056 1.42438 0.922474 0
M  V30 2921 H 272.828 3.09194 2.39823 0
M  V30 2922 H 272.451 1.81161 3.5393 0
M  V30 2923 N 273.449 -1.08991 1.13837 0
M  V30 2924 C 274.677 -1.85011 0.926202 0
M  V30 2925 C 275.092 -1.8135 -0.525127 0
M  V30 2926 O 274.449 -1.21287 -1.36366 0
M  V30 2927 C 274.5 -3.32802 1.41155 0
M  V30 2928 O 274.221 -3.36444 2.80601 0
M  V30 2929 C 275.722 -4.25649 1.23847 0
M  V30 2930 H 272.942 -0.584249 0.32999 0
M  V30 2931 H 275.486 -1.37688 1.51202 0
M  V30 2932 H 273.641 -3.77536 0.868631 0
M  V30 2933 H 274.055 -4.28657 3.02248 0
M  V30 2934 H 275.529 -5.27485 1.62675 0
M  V30 2935 H 276.006 -4.38828 0.18065 0
M  V30 2936 H 276.612 -3.86735 1.76964 0
M  V30 2937 N 274.927 -0.932562 -1.27047 0
M  V30 2938 C 275.875 -0.42603 -2.28665 0
M  V30 2939 C 276.869 0.49219 -1.62092 0
M  V30 2940 O 278.075 0.371355 -1.76128 0
M  V30 2941 H 274.45 -0.119213 -0.742491 0
M  V30 2942 H 276.421 -1.29579 -2.68797 0
M  V30 2943 C 275.17 0.301426 -3.46391 0
M  V30 2944 H 274.493 -0.39595 -3.97834 0
M  V30 2945 H 275.933 0.6202 -4.1944 0
M  V30 2946 C 274.392 1.51616 -3.00856 0
M  V30 2947 O 274.922 2.61476 -3.04948 0
M  V30 2948 N 273.128 1.36969 -2.56296 0
M  V30 2949 H 272.675 0.475873 -2.53166 0
M  V30 2950 H 272.633 2.18368 -2.26192 0
M  V30 2951 N 276.405 1.4127 -0.698611 0
M  V30 2952 C 277.821 1.55241 -0.370462 0
M  V30 2953 C 278.021 1.67351 1.12231 0
M  V30 2954 O 277.077 1.65363 1.90818 0
M  V30 2955 C 278.39 2.78997 -1.12165 0
M  V30 2956 C 279.938 2.92797 -1.1063 0
M  V30 2957 C 280.413 4.19445 -1.8393 0
M  V30 2958 N 281.904 4.26409 -1.80914 0
M  V30 2959 C 282.639 5.23271 -2.34467 0
M  V30 2960 N 282.135 6.26145 -2.96504 0
M  V30 2961 N 283.928 5.15232 -2.24706 0
M  V30 2962 H 276.079 1.31654 -1.66676 0
M  V30 2963 H 278.342 0.635393 -0.703548 0
M  V30 2964 H 278.048 2.76268 -2.17644 0
M  V30 2965 H 277.922 3.70606 -0.702209 0
M  V30 2966 H 280.309 2.95039 -0.0597713 0
M  V30 2967 H 280.39 2.02353 -1.56483 0
M  V30 2968 H 280.034 4.17964 -2.88563 0
M  V30 2969 H 279.964 5.08866 -1.35509 0
M  V30 2970 H 282.455 3.527 -1.35687 0
M  V30 2971 H 282.768 6.96451 -3.34927 0
M  V30 2972 H 281.113 6.26638 -3.00583 0
M  V30 2973 H 284.304 4.33789 -1.7591 0
M  V30 2974 H 284.477 5.90552 -2.66745 0
M  V30 2975 N 277.883 0.443576 1.51229 0
M  V30 2976 C 279.108 -0.121648 2.07043 0
M  V30 2977 C 279.533 -1.35156 1.30823 0
M  V30 2978 O 278.891 -1.7793 0.347934 0
M  V30 2979 C 278.939 -0.41624 3.5819 0
M  V30 2980 O 278.043 -1.50163 3.8409 0
M  V30 2981 H 277.384 0.000871367 0.663999 0
M  V30 2982 H 279.914 0.626706 1.94765 0
M  V30 2983 H 279.924 -0.664867 4.02546 0
M  V30 2984 H 278.599 0.482653 4.1309 0
M  V30 2985 H 277.176 -1.24248 3.51592 0
M  V30 2986 N 279.361 -1.56624 0.175154 0
M  V30 2987 C 280.777 -1.58571 -0.180966 0
M  V30 2988 C 280.977 -1.19065 -1.6256 0
M  V30 2989 O 280.033 -0.904044 -2.35761 0
M  V30 2990 C 281.346 -3.00522 0.103326 0
M  V30 2991 C 282.894 -3.12972 0.0418426 0
M  V30 2992 C 283.369 -4.57022 0.299175 0
M  V30 2993 N 284.86 -4.62541 0.247086 0
M  V30 2994 C 285.595 -5.71857 0.420318 0
M  V30 2995 N 285.091 -6.89717 0.652816 0
M  V30 2996 N 286.884 -5.60972 0.355957 0
M  V30 2997 H 279.035 -1.80589 1.11809 0
M  V30 2998 H 281.298 -0.837178 0.444788 0
M  V30 2999 H 281.004 -3.33916 1.10422 0
M  V30 3000 H 280.878 -3.72344 -0.603299 0
M  V30 3001 H 283.265 -2.79403 -0.949636 0
M  V30 3002 H 283.346 -2.43578 0.781238 0
M  V30 3003 H 282.99 -4.913 1.28788 0
M  V30 3004 H 282.92 -5.24579 -0.460876 0
M  V30 3005 H 285.411 -3.77829 0.0731895 0
M  V30 3006 H 285.724 -7.68911 0.774347 0
M  V30 3007 H 284.069 -6.91572 0.689476 0
M  V30 3008 H 287.26 -4.67773 0.174882 0
M  V30 3009 H 287.433 -6.46111 0.494388 0
M  V30 3010 N 280.839 0.0985539 -1.57292 0
M  V30 3011 C 281.802 1.10402 -2.00858 0
M  V30 3012 C 282.802 1.33146 -0.901593 0
M  V30 3013 O 283.992 1.29318 -1.16716 0
M  V30 3014 C 281.124 2.45394 -2.36632 0
M  V30 3015 H 282.317 0.729099 -2.90902 0
M  V30 3016 H 279.87 0.343495 -1.52479 0
M  V30 3017 H 280.605 2.87769 -1.49531 0
M  V30 3018 H 280.39 2.30235 -3.17387 0
M  V30 3019 H 281.88 3.17718 -2.71007 0
M  V30 3020 N 282.317 1.53212 0.369288 0
M  V30 3021 C 283.557 1.70915 1.12105 0
M  V30 3022 C 283.921 0.449444 1.86665 0
M  V30 3023 O 285.122 0.503105 2.6405 0
M  V30 3024 C 283.393 2.9222 2.05772 0
M  V30 3025 S 284.952 3.30609 2.88519 0
M  V30 3026 H 281.77 0.601445 0.379189 0
M  V30 3027 H 284.372 1.91306 0.402794 0
M  V30 3028 H 283.076 3.82103 1.49752 0
M  V30 3029 H 282.607 2.7422 2.82076 0
M  V30 3030 H 284.622 2.82333 4.08047 0
M  V30 3031 N 283.795 -0.628877 1.44509 0
M  V30 3032 C 284.745 -1.7345 1.47983 0
M  V30 3033 C 285.729 -1.5715 0.345373 0
M  V30 3034 O 286.921 -1.66848 0.590829 0
M  V30 3035 C 284.05 -3.12143 1.42904 0
M  V30 3036 C 283.136 -3.33906 2.61472 0
M  V30 3037 N 283.527 -3.26024 3.86706 0
M  V30 3038 C 281.825 -3.64709 2.56716 0
M  V30 3039 C 282.526 -3.48536 4.65722 0
M  V30 3040 N 281.502 -3.71517 3.96832 0
M  V30 3041 H 285.304 -1.65818 2.42655 0
M  V30 3042 H 282.818 -0.831419 1.39503 0
M  V30 3043 H 284.815 -3.91433 1.43476 0
M  V30 3044 H 283.475 -3.2094 0.492717 0
M  V30 3045 H 284.486 -3.04893 4.18641 0
M  V30 3046 H 281.163 -3.80473 1.71891 0
M  V30 3047 H 282.553 -3.48016 5.74747 0
M  V30 3048 N 285.273 -1.31445 -0.869486 0
M  V30 3049 C 286.684 -1.19042 -1.43826 0
M  V30 3050 C 287.035 0.202919 -1.95148 0
M  V30 3051 O 286.16 1.10071 -1.86315 0
M  V30 3052 C 286.755 -2.15499 -2.6143 0
M  V30 3053 C 285.314 -2.07028 -3.14351 0
M  V30 3054 C 284.461 -2.04701 -1.87063 0
M  V30 3055 H 287.412 -1.43489 -0.677984 0
M  V30 3056 H 287.433 -1.74488 -3.38134 0
M  V30 3057 H 286.945 -3.16899 -2.24046 0
M  V30 3058 H 285.046 -1.08825 -3.56354 0
M  V30 3059 H 285.159 -2.96157 -3.766 0
M  V30 3060 H 283.523 -1.49724 -2.06046 0
M  V30 3061 H 284.306 -3.07857 -1.51917 0
M  V30 3062 N 286.751 1.08385 -1.14413 0
M  V30 3063 C 287.991 1.8238 -0.922868 0
M  V30 3064 C 288.355 1.84225 0.540842 0
M  V30 3065 O 289.556 2.53985 0.880058 0
M  V30 3066 C 287.827 3.24048 -1.50757 0
M  V30 3067 S 289.386 4.14917 -1.4279 0
M  V30 3068 H 286.204 0.628524 -0.332384 0
M  V30 3069 H 288.806 1.30278 -1.45766 0
M  V30 3070 H 287.51 3.20288 -2.56601 0
M  V30 3071 H 287.041 3.81224 -0.971178 0
M  V30 3072 H 289.056 4.94473 -0.413582 0
M  V30 3073 N 288.23 0.939286 1.26551 0
M  V30 3074 C 289.455 0.602008 1.98471 0
M  V30 3075 C 289.88 -0.815624 1.69497 0
M  V30 3076 O 289.238 -1.54912 0.941905 0
M  V30 3077 C 289.286 0.848407 3.50477 0
M  V30 3078 O 288.39 -0.0804009 4.12322 0
M  V30 3079 H 287.731 0.23049 0.622712 0
M  V30 3080 H 290.261 1.2617 1.61066 0
M  V30 3081 H 290.271 0.768553 4.00696 0
M  V30 3082 H 288.946 1.88171 3.70897 0
M  V30 3083 H 287.523 0.0503508 3.72866 0
M  V30 3084 N 289.708 -1.40897 0.706093 0
M  V30 3085 C 291.119 -1.84023 0.315052 0
M  V30 3086 C 291.47 -1.5906 -1.14866 0
M  V30 3087 O 290.595 -1.06651 -1.88293 0
M  V30 3088 C 291.19 -3.34055 0.565038 0
M  V30 3089 C 289.749 -3.7571 0.227806 0
M  V30 3090 C 288.896 -2.64204 0.842122 0
M  V30 3091 H 291.847 -1.303 0.905963 0
M  V30 3092 H 291.868 -3.80107 -0.172843 0
M  V30 3093 H 291.38 -3.52192 1.63042 0
M  V30 3094 H 289.481 -3.63172 -0.832895 0
M  V30 3095 H 289.594 -4.74103 0.690174 0
M  V30 3096 H 287.958 -2.53255 0.270893 0
M  V30 3097 H 288.741 -2.85155 1.91158 0
M  V30 3098 N 291.186 -0.45159 -1.50991 0
M  V30 3099 C 292.119 0.398179 -2.24699 0
M  V30 3100 C 293.097 1.01276 -1.27208 0
M  V30 3101 O 294.281 1.05247 -1.56382 0
M  V30 3102 C 291.408 1.55618 -3.00833 0
M  V30 3103 C 290.454 1.0609 -4.13095 0
M  V30 3104 S 291.287 -0.00865136 -5.35499 0
M  V30 3105 C 292.443 1.15369 -6.15175 0
M  V30 3106 H 292.676 -0.227555 -2.96428 0
M  V30 3107 H 290.209 -0.236251 -1.52582 0
M  V30 3108 H 292.167 2.21997 -3.45293 0
M  V30 3109 H 290.828 2.15337 -2.28667 0
M  V30 3110 H 290.021 1.92726 -4.65696 0
M  V30 3111 H 289.623 0.47513 -3.7097 0
M  V30 3112 H 291.915 2.06925 -6.45126 0
M  V30 3113 H 292.858 0.667344 -7.04948 0
M  V30 3114 H 293.266 1.3987 -5.46897 0
M  V30 3115 N 292.664 1.56529 -0.183458 0
M  V30 3116 C 293.904 1.99141 0.460667 0
M  V30 3117 C 294.268 1.06736 1.59597 0
M  V30 3118 O 295.469 1.38538 2.30349 0
M  V30 3119 C 293.74 3.45358 0.919939 0
M  V30 3120 S 295.299 4.09999 1.56354 0
M  V30 3121 H 292.117 0.695479 0.147748 0
M  V30 3122 H 294.719 1.93429 -0.283782 0
M  V30 3123 H 293.423 4.10315 0.0834208 0
M  V30 3124 H 292.954 3.54862 1.69814 0
M  V30 3125 H 294.969 4.06046 2.85203 0
M  V30 3126 N 294.142 -0.090211 1.57342 0
M  V30 3127 C 295.089 -1.10909 2.02405 0
M  V30 3128 C 296.059 -1.39523 0.901252 0
M  V30 3129 O 297.244 -1.50903 1.1676 0
M  V30 3130 C 294.384 -2.42277 2.45755 0
M  V30 3131 C 293.497 -2.20352 3.71576 0
M  V30 3132 C 292.632 -3.45154 4.03785 0
M  V30 3133 C 291.671 -3.18512 5.22701 0
M  V30 3134 N 290.808 -4.35593 5.50639 0
M  V30 3135 H 295.648 -0.71782 2.89225 0
M  V30 3136 H 293.185 -0.342901 1.43048 0
M  V30 3137 H 295.143 -3.18951 2.68935 0
M  V30 3138 H 293.773 -2.79242 1.61938 0
M  V30 3139 H 292.825 -1.34458 3.55844 0
M  V30 3140 H 294.137 -1.96661 4.58395 0
M  V30 3141 H 293.291 -4.30233 4.27767 0
M  V30 3142 H 292.03 -3.71904 3.15498 0
M  V30 3143 H 291.035 -2.31827 4.98534 0
M  V30 3144 H 292.26 -2.93103 6.12591 0
M  V30 3145 H 290.206 -4.6241 4.6531 0
M  V30 3146 H 290.123 -4.1511 6.31838 0
M  V30 3147 H 291.391 -5.21723 5.7916 0
M  V30 3148 N 295.62 -1.53406 -0.361157 0
M  V30 3149 C 296.868 -1.69467 -1.10115 0
M  V30 3150 C 297.189 -0.451352 -1.89705 0
M  V30 3151 O 296.459 0.534636 -1.88463 0
M  V30 3152 H 295.039 -0.624749 -0.409508 0
M  V30 3153 H 297.701 -1.90609 -0.406699 0
M  V30 3154 H 296.797 -2.55774 -1.78847 0
M  V30 3155 N 297.098 0.621204 -1.44841 0
M  V30 3156 C 298.323 1.41244 -1.51871 0
M  V30 3157 C 298.748 1.87519 -0.147764 0
M  V30 3158 O 298.106 1.59334 0.865 0
M  V30 3159 C 298.154 2.60221 -2.49634 0
M  V30 3160 O 297.258 3.60395 -2.00473 0
M  V30 3161 H 296.599 0.42223 -0.512463 0
M  V30 3162 H 299.129 0.757305 -1.90069 0
M  V30 3163 H 299.139 3.0764 -2.67996 0
M  V30 3164 H 297.814 2.25887 -3.4921 0
M  V30 3165 H 296.391 3.19717 -1.91925 0
M  V30 3166 N 298.576 1.31904 0.862503 0
M  V30 3167 C 299.992 1.10724 1.14945 0
M  V30 3168 C 300.192 -0.117421 2.01158 0
M  V30 3169 O 299.248 -0.804595 2.39338 0
M  V30 3170 C 300.561 2.38267 1.83437 0
M  V30 3171 C 302.109 2.43949 1.96106 0
M  V30 3172 C 302.584 3.71394 2.68013 0
M  V30 3173 N 304.075 3.72331 2.75543 0
M  V30 3174 C 304.81 4.67641 3.31812 0
M  V30 3175 N 304.306 5.73313 3.88953 0
M  V30 3176 N 306.099 4.5515 3.29841 0
M  V30 3177 H 298.25 2.10436 0.288191 0
M  V30 3178 H 300.513 0.928705 0.190292 0
M  V30 3179 H 300.219 3.27759 1.27542 0
M  V30 3180 H 300.093 2.48633 2.83657 0
M  V30 3181 H 302.48 1.54922 2.51164 0
M  V30 3182 H 302.561 2.37543 0.949059 0
M  V30 3183 H 302.205 4.60791 2.13621 0
M  V30 3184 H 302.135 3.75069 3.69636 0
M  V30 3185 H 304.626 2.95947 2.34997 0
M  V30 3186 H 304.939 6.42107 4.30022 0
M  V30 3187 H 303.284 5.77077 3.87308 0
M  V30 3188 H 306.475 3.71766 2.84443 0
M  V30 3189 H 306.648 5.29604 3.73394 0
M  V30 3190 N 300.054 -1.07777 1.14986 0
M  V30 3191 C 301.294 -1.81888 0.932527 0
M  V30 3192 C 301.658 -1.84509 -0.531064 0
M  V30 3193 O 302.859 -2.54448 -0.866577 0
M  V30 3194 C 301.13 -3.23244 1.52473 0
M  V30 3195 S 302.689 -4.14154 1.44989 0
M  V30 3196 H 299.507 -0.626752 0.335712 0
M  V30 3197 H 302.109 -1.29503 1.46455 0
M  V30 3198 H 300.813 -3.18922 2.58296 0
M  V30 3199 H 300.344 -3.80704 0.991381 0
M  V30 3200 H 302.359 -4.94247 0.439799 0
M  V30 3201 N 301.532 -0.945985 -1.26051 0
M  V30 3202 C 302.778 -0.606539 -1.94146 0
M  V30 3203 C 303.133 0.84586 -1.72809 0
M  V30 3204 O 302.426 1.59781 -1.05738 0
M  V30 3205 C 302.62 -0.890475 -3.46129 0
M  V30 3206 C 302.449 -2.36892 -3.82246 0
M  V30 3207 C 301.219 -3.02494 -4.04753 0
M  V30 3208 C 303.417 -3.34772 -3.90425 0
M  V30 3209 N 301.399 -4.40302 -4.27794 0
M  V30 3210 C 302.77 -4.57855 -4.18054 0
M  V30 3211 C 304.825 -3.2973 -3.73072 0
M  V30 3212 C 303.528 -5.76522 -4.30134 0
M  V30 3213 C 305.554 -4.47727 -3.86386 0
M  V30 3214 C 304.916 -5.69593 -4.14419 0
M  V30 3215 H 301.015 -0.272407 -0.73302 0
M  V30 3216 H 303.599 -1.21638 -1.52027 0
M  V30 3217 H 301.77 -0.309638 -3.87164 0
M  V30 3218 H 303.502 -0.51181 -4.01451 0
M  V30 3219 H 300.257 -2.53095 -4.003 0
M  V30 3220 H 300.681 -5.11646 -4.43337 0
M  V30 3221 H 305.323 -2.36565 -3.50424 0
M  V30 3222 H 303.041 -6.70136 -4.51601 0
M  V30 3223 H 306.627 -4.45363 -3.74356 0
M  V30 3224 H 305.507 -6.59375 -4.24493 0
M  V30 3225 N 303.011 1.40521 -0.713556 0
M  V30 3226 C 304.259 2.00527 -0.251692 0
M  V30 3227 C 304.58 1.56857 1.15848 0
M  V30 3228 O 303.85 0.807127 1.785 0
M  V30 3229 H 302.43 0.741551 -0.0900646 0
M  V30 3230 H 305.092 1.71887 -0.918733 0
M  V30 3231 H 304.188 3.10813 -0.283192 0
M  V30 3232 N 304.489 0.459591 1.5075 0
M  V30 3233 C 305.399 -0.34613 2.32033 0
M  V30 3234 C 306.415 -1.00686 1.41909 0
M  V30 3235 O 307.591 -0.997361 1.7497 0
M  V30 3236 C 304.656 -1.42029 3.16273 0
M  V30 3237 C 303.717 -0.777362 4.22203 0
M  V30 3238 C 302.95 -1.80034 5.02418 0
M  V30 3239 O 303.173 -3.02544 4.83553 0
M  V30 3240 O 302.107 -1.37853 5.85901 0
M  V30 3241 H 305.933 0.318054 3.0203 0
M  V30 3242 H 303.518 0.221663 1.47746 0
M  V30 3243 H 305.4 -2.04275 3.68578 0
M  V30 3244 H 304.075 -2.06815 2.49016 0
M  V30 3245 H 302.982 -0.116256 3.73919 0
M  V30 3246 H 304.315 -0.172634 4.91897 0
M  V30 3247 N 305.967 -1.56429 0.191757 0
M  V30 3248 C 307.192 -2.02309 -0.456706 0
M  V30 3249 C 307.617 -1.07103 -1.5463 0
M  V30 3250 O 306.975 -0.0539677 -1.8122 0
M  V30 3251 C 307.023 -3.46654 -0.993159 0
M  V30 3252 O 306.127 -3.54559 -2.10622 0
M  V30 3253 H 305.468 -0.655303 -0.107114 0
M  V30 3254 H 307.998 -2.02364 0.301653 0
M  V30 3255 H 308.008 -3.86377 -1.31061 0
M  V30 3256 H 306.683 -4.1544 -0.195504 0
M  V30 3257 H 305.26 -3.26708 -1.79767 0
M  V30 3258 N 307.445 0.0818655 -1.57387 0
M  V30 3259 C 308.67 0.799946 -1.91352 0
M  V30 3260 C 309.095 1.70833 -0.787258 0
M  V30 3261 O 308.453 1.79419 0.26048 0
M  V30 3262 C 308.501 1.57812 -3.24234 0
M  V30 3263 O 307.605 2.68806 -3.12757 0
M  V30 3264 H 306.946 0.21891 -0.626877 0
M  V30 3265 H 309.476 0.0531256 -2.04531 0
M  V30 3266 H 309.486 1.95952 -3.57864 0
M  V30 3267 H 308.161 0.911548 -4.05788 0
M  V30 3268 H 306.738 2.33597 -2.90666 0
M  V30 3269 N 308.923 1.53595 0.353017 0
M  V30 3270 C 309.833 1.83897 1.45667 0
M  V30 3271 C 310.849 0.728334 1.58023 0
M  V30 3272 O 312.025 1.01968 1.73679 0
M  V30 3273 C 309.09 2.03383 2.80778 0
M  V30 3274 C 308.151 3.27262 2.77845 0
M  V30 3275 C 307.384 3.45809 4.06512 0
M  V30 3276 O 307.607 2.68387 5.03314 0
M  V30 3277 O 306.541 4.39207 4.11559 0
M  V30 3278 H 310.367 2.77686 1.2298 0
M  V30 3279 H 307.952 1.39132 0.544308 0
M  V30 3280 H 309.834 2.17698 3.60812 0
M  V30 3281 H 308.509 1.12783 3.03417 0
M  V30 3282 H 307.416 3.18359 1.96465 0
M  V30 3283 H 308.749 4.17824 2.60161 0
M  V30 3284 N 310.401 -0.613514 1.45168 0
M  V30 3285 C 311.678 -1.37263 1.39349 0
M  V30 3286 C 312.058 -2.11012 0.0610848 0
M  V30 3287 O 311.406 -2.07502 -0.956825 0
M  V30 3288 C 311.616 -2.3244 2.60332 0
M  V30 3289 C 312.964 -2.9523 3.05163 0
M  V30 3290 O 313.988 -2.42762 2.60663 0
M  V30 3291 O 312.847 -3.90454 3.82372 0
M  V30 3292 H 309.941 -0.615188 0.552696 0
M  V30 3293 H 312.487 -0.637097 1.57287 0
M  V30 3294 H 311.259 -1.77164 3.48896 0
M  V30 3295 H 310.882 -3.13383 2.44698 0
M  V30 3296 N 311.879 -1.3236 -0.855495 0
M  V30 3297 C 313.119 -1.24187 -1.62348 0
M  V30 3298 C 313.483 0.193597 -1.91021 0
M  V30 3299 O 314.684 0.39904 -2.65822 0
M  V30 3300 C 312.955 -2.07661 -2.90881 0
M  V30 3301 S 314.514 -2.16505 -3.81669 0
M  V30 3302 H 311.332 -0.442076 -0.556857 0
M  V30 3303 H 313.934 -1.67198 -1.01317 0
M  V30 3304 H 312.638 -3.11018 -2.67761 0
M  V30 3305 H 312.169 -1.65425 -3.56929 0
M  V30 3306 H 314.184 -1.31394 -4.78487 0
M  V30 3307 N 313.357 1.07166 -1.15556 0
M  V30 3308 C 314.289 2.14341 -0.811815 0
M  V30 3309 C 315.302 1.61835 0.177015 0
M  V30 3310 O 316.491 1.78439 -0.0464996 0
M  V30 3311 C 313.591 3.38387 -0.186481 0
M  V30 3312 C 312.764 4.20238 -1.21321 0
M  V30 3313 C 311.823 5.2266 -0.609302 0
M  V30 3314 O 310.849 5.54719 -1.27576 0
M  V30 3315 N 312.051 5.77306 0.608099 0
M  V30 3316 H 314.816 2.44431 -1.73417 0
M  V30 3317 H 312.377 1.23089 -1.0517 0
M  V30 3318 H 314.369 4.04044 0.230339 0
M  V30 3319 H 312.939 3.05994 0.639249 0
M  V30 3320 H 312.159 3.50369 -1.80652 0
M  V30 3321 H 313.447 4.71736 -1.90638 0
M  V30 3322 H 312.845 5.53513 1.1679 0
M  V30 3323 H 311.402 6.44583 0.96725 0
M  V30 3324 N 314.835 0.952656 1.25548 0
M  V30 3325 C 316.06 0.623025 1.97821 0
M  V30 3326 C 316.485 -0.7976 1.70352 0
M  V30 3327 O 315.843 -1.53905 0.958283 0
M  V30 3328 C 315.891 0.885532 3.49558 0
M  V30 3329 O 314.995 -0.0366641 4.12384 0
M  V30 3330 H 314.336 0.237082 0.620232 0
M  V30 3331 H 316.866 1.27871 1.59719 0
M  V30 3332 H 316.876 0.811009 3.99858 0
M  V30 3333 H 315.551 1.92094 3.6888 0
M  V30 3334 H 314.128 0.0898954 3.72792 0
M  V30 3335 N 316.313 -1.40141 0.720998 0
M  V30 3336 C 317.243 -2.33339 0.0867621 0
M  V30 3337 C 318.224 -1.53178 -0.739622 0
M  V30 3338 O 319.409 -1.81625 -0.687449 0
M  V30 3339 C 316.539 -3.37194 -0.831728 0
M  V30 3340 C 315.493 -4.27857 -0.110558 0
M  V30 3341 C 314.819 -5.22294 -1.14513 0
M  V30 3342 C 316.119 -5.11872 1.0385 0
M  V30 3343 H 317.813 -2.86626 0.865219 0
M  V30 3344 H 315.359 -1.37814 0.417516 0
M  V30 3345 H 317.312 -4.01335 -1.28485 0
M  V30 3346 H 316.036 -2.82314 -1.64214 0
M  V30 3347 H 314.695 -3.65176 0.322797 0
M  V30 3348 H 314.343 -4.63717 -1.94874 0
M  V30 3349 H 314.043 -5.83797 -0.667446 0
M  V30 3350 H 315.567 -5.89312 -1.59824 0
M  V30 3351 H 316.981 -5.69436 0.664482 0
M  V30 3352 H 315.378 -5.82445 1.4449 0
M  V30 3353 H 316.448 -4.4753 1.86668 0
M  V30 3354 N 317.792 -0.46758 -1.50504 0
M  V30 3355 C 319.02 0.0864133 -2.06719 0
M  V30 3356 C 319.435 1.33819 -1.33184 0
M  V30 3357 O 318.792 1.78061 -0.400083 0
M  V30 3358 C 318.843 0.378079 -3.59517 0
M  V30 3359 O 318.564 -0.824044 -4.3028 0
M  V30 3360 C 320.065 0.979426 -4.32345 0
M  V30 3361 H 317.285 -0.00551697 -0.670977 0
M  V30 3362 H 319.829 -0.655354 -1.93715 0
M  V30 3363 H 317.984 1.06977 -3.72337 0
M  V30 3364 H 318.398 -0.566518 -5.21432 0
M  V30 3365 H 319.872 1.1333 -5.40241 0
M  V30 3366 H 320.349 1.9686 -3.9261 0
M  V30 3367 H 320.955 0.326216 -4.24047 0
M  V30 3368 N 319.27 1.56325 -0.20005 0
M  V30 3369 C 320.686 1.58839 0.155716 0
M  V30 3370 C 320.886 1.21636 1.60645 0
M  V30 3371 O 319.942 0.941437 2.34293 0
M  V30 3372 C 321.255 3.0032 -0.151124 0
M  V30 3373 C 322.803 3.12866 -0.0916284 0
M  V30 3374 C 323.278 4.56488 -0.371845 0
M  V30 3375 N 324.769 4.62089 -0.320641 0
M  V30 3376 C 325.504 5.71116 -0.511243 0
M  V30 3377 N 325 6.88592 -0.762461 0
M  V30 3378 N 326.793 5.60335 -0.445157 0
M  V30 3379 H 318.944 1.78788 -1.14668 0
M  V30 3380 H 321.207 0.829996 -0.458051 0
M  V30 3381 H 320.913 3.32117 -1.15721 0
M  V30 3382 H 320.787 3.73257 0.543986 0
M  V30 3383 H 323.174 2.80878 0.905065 0
M  V30 3384 H 323.255 2.42304 -0.81989 0
M  V30 3385 H 322.899 4.89189 -1.36588 0
M  V30 3386 H 322.829 5.25246 0.377362 0
M  V30 3387 H 325.32 3.77665 -0.13329 0
M  V30 3388 H 325.633 7.67581 -0.896576 0
M  V30 3389 H 323.978 6.90387 -0.799412 0
M  V30 3390 H 327.169 4.67436 -0.249278 0
M  V30 3391 H 327.342 6.45243 -0.597116 0
M  V30 3392 N 320.748 -0.0735177 1.57428 0
M  V30 3393 C 321.976 -0.785969 1.9139 0
M  V30 3394 C 322.391 -1.71207 0.795847 0
M  V30 3395 O 321.748 -1.81033 -0.230915 0
M  V30 3396 C 321.799 -1.58107 3.25091 0
M  V30 3397 O 321.52 -0.6922 4.32597 0
M  V30 3398 C 323.021 -2.39467 3.73055 0
M  V30 3399 H 320.241 -0.223558 0.632663 0
M  V30 3400 H 322.785 -0.044302 2.04452 0
M  V30 3401 H 320.94 -2.27503 3.13562 0
M  V30 3402 H 321.354 -1.24504 5.09508 0
M  V30 3403 H 322.828 -2.90716 4.69242 0
M  V30 3404 H 323.305 -3.18913 3.01979 0
M  V30 3405 H 323.911 -1.7523 3.87523 0
M  V30 3406 N 322.226 -1.5378 -0.344866 0
M  V30 3407 C 323.472 -1.71216 -1.08687 0
M  V30 3408 C 323.805 -0.473281 -1.88345 0
M  V30 3409 O 323.08 0.52968 -1.87149 0
M  V30 3410 C 323.363 -2.97486 -2.02914 0
M  V30 3411 C 323.216 -4.31579 -1.26727 0
M  V30 3412 C 324.535 -3.19422 -3.0275 0
M  V30 3413 H 321.654 -0.62301 -0.393735 0
M  V30 3414 H 324.296 -1.8645 -0.365563 0
M  V30 3415 H 322.446 -2.84629 -2.64421 0
M  V30 3416 H 324.118 -4.56284 -0.67845 0
M  V30 3417 H 322.361 -4.30049 -0.569273 0
M  V30 3418 H 323.032 -5.16106 -1.95803 0
M  V30 3419 H 325.508 -3.316 -2.51357 0
M  V30 3420 H 324.384 -4.09169 -3.65885 0
M  V30 3421 H 324.645 -2.35656 -3.74057 0
M  V30 3422 N 323.704 0.605807 -1.45491 0
M  V30 3423 C 324.944 1.37606 -1.51142 0
M  V30 3424 C 325.308 1.91413 -0.150075 0
M  V30 3425 O 326.509 2.68677 -0.0812828 0
M  V30 3426 C 324.78 2.49197 -2.56195 0
M  V30 3427 S 326.339 3.36953 -2.81083 0
M  V30 3428 H 323.157 0.469118 -0.534275 0
M  V30 3429 H 325.759 0.698845 -1.82583 0
M  V30 3430 H 324.463 2.0802 -3.53773 0
M  V30 3431 H 323.994 3.21717 -2.26411 0
M  V30 3432 H 326.009 4.47395 -2.14598 0
M  V30 3433 N 325.182 1.32811 0.848464 0
M  V30 3434 C 326.145 1.22194 1.9391 0
M  V30 3435 C 327.145 0.143404 1.60159 0
M  V30 3436 O 328.335 0.394253 1.6968 0
M  V30 3437 C 325.467 0.88067 3.29328 0
M  V30 3438 H 326.66 2.19127 2.04752 0
M  V30 3439 H 324.213 1.16731 1.0394 0
M  V30 3440 H 324.948 -0.0865776 3.24184 0
M  V30 3441 H 324.733 1.66052 3.55203 0
M  V30 3442 H 326.223 0.830871 4.09251 0
M  V30 3443 N 326.66 -1.06551 1.16123 0
M  V30 3444 C 327.908 -1.78947 0.939267 0
M  V30 3445 C 328.229 -1.87532 -0.534476 0
M  V30 3446 O 327.499 -1.38211 -1.38833 0
M  V30 3447 H 326.079 -0.662807 0.344523 0
M  V30 3448 H 328.741 -1.28725 1.46342 0
M  V30 3449 H 327.837 -2.81117 1.35572 0
M  V30 3450 N 328.138 -0.959301 -1.25041 0
M  V30 3451 C 329.386 -0.615393 -1.92503 0
M  V30 3452 C 329.707 0.850969 -1.75452 0
M  V30 3453 O 328.977 1.60658 -1.12098 0
M  V30 3454 H 327.557 -0.224613 -0.712431 0
M  V30 3455 H 330.219 -1.21855 -1.5211 0
M  V30 3456 H 329.315 -0.848738 -3.00338 0
M  V30 3457 N 329.616 1.39756 -0.72842 0
M  V30 3458 C 330.856 2.025 -0.278078 0
M  V30 3459 C 331.22 1.5654 1.11173 0
M  V30 3460 O 332.421 2.11435 1.65978 0
M  V30 3461 C 330.692 3.55489 -0.369139 0
M  V30 3462 S 332.251 4.388 0.00232983 0
M  V30 3463 H 329.069 0.702534 -0.109391 0
M  V30 3464 H 331.671 1.70672 -0.95348 0
M  V30 3465 H 330.375 3.86429 -1.38204 0
M  V30 3466 H 329.906 3.92061 0.324308 0
M  V30 3467 H 331.921 4.80954 1.22055 0
M  V30 3468 N 331.094 0.475555 1.50254 0
M  V30 3469 C 332.057 -0.305016 2.27161 0
M  V30 3470 C 333.057 -0.916519 1.32123 0
M  V30 3471 O 334.247 -0.785003 1.5551 0
M  V30 3472 C 331.379 -1.43496 3.09227 0
M  V30 3473 H 332.572 0.369511 2.97615 0
M  V30 3474 H 330.125 0.229747 1.54602 0
M  V30 3475 H 330.86 -2.14441 2.43281 0
M  V30 3476 H 330.645 -1.00223 3.79075 0
M  V30 3477 H 332.135 -1.98548 3.67381 0
M  V30 3478 N 332.573 -1.56217 0.208337 0
M  V30 3479 C 333.989 -1.58919 -0.14729 0
M  V30 3480 C 334.189 -1.22486 -1.59998 0
M  V30 3481 O 333.245 -0.953849 -2.3379 0
M  V30 3482 C 334.558 -3.00236 0.167048 0
M  V30 3483 C 336.106 -3.12813 0.108219 0
M  V30 3484 C 336.581 -4.56284 0.396049 0
M  V30 3485 N 338.072 -4.61912 0.345142 0
M  V30 3486 C 338.807 -5.70837 0.541523 0
M  V30 3487 N 338.303 -6.88178 0.798968 0
M  V30 3488 N 340.096 -5.60091 0.474867 0
M  V30 3489 H 332.247 -1.78177 1.15614 0
M  V30 3490 H 334.51 -0.827555 0.462446 0
M  V30 3491 H 334.216 -3.31499 1.1748 0
M  V30 3492 H 334.09 -3.7354 -0.524184 0
M  V30 3493 H 336.477 -2.81354 -0.890157 0
M  V30 3494 H 336.558 -2.41866 0.832729 0
M  V30 3495 H 336.202 -4.88458 1.3918 0
M  V30 3496 H 336.132 -5.25439 -0.349502 0
M  V30 3497 H 338.623 -3.77589 0.153316 0
M  V30 3498 H 338.936 -7.67095 0.93727 0
M  V30 3499 H 337.281 -6.89953 0.836013 0
M  V30 3500 H 340.472 -4.67297 0.274064 0
M  V30 3501 H 340.645 -6.44917 0.631326 0
M  V30 3502 N 334.051 0.0651679 -1.57465 0
M  V30 3503 C 335.291 0.768329 -1.8941 0
M  V30 3504 C 335.655 1.74406 -0.802894 0
M  V30 3505 O 336.856 2.49281 -1.0056 0
M  V30 3506 C 335.127 1.45199 -3.26576 0
M  V30 3507 S 336.686 2.1893 -3.80283 0
M  V30 3508 H 333.504 0.255359 -0.663561 0
M  V30 3509 H 336.106 0.024167 -1.95485 0
M  V30 3510 H 334.81 0.728123 -4.03889 0
M  V30 3511 H 334.341 2.23545 -3.23715 0
M  V30 3512 H 336.356 3.45551 -3.56102 0
M  V30 3513 N 335.529 1.53961 0.336706 0
M  V30 3514 C 336.476 1.82428 1.41381 0
M  V30 3515 C 337.446 0.670444 1.51968 0
M  V30 3516 O 338.631 0.915565 1.67398 0
M  V30 3517 C 335.771 2.04564 2.77934 0
M  V30 3518 C 334.884 3.32267 2.76084 0
M  V30 3519 C 334.019 3.44434 4.04399 0
M  V30 3520 C 333.058 4.66061 3.96804 0
M  V30 3521 N 332.195 4.75224 5.16823 0
M  V30 3522 H 337.035 2.74324 1.16405 0
M  V30 3523 H 334.572 1.35869 0.563752 0
M  V30 3524 H 336.53 2.15388 3.57301 0
M  V30 3525 H 335.16 1.15974 3.01247 0
M  V30 3526 H 334.212 3.3025 1.88784 0
M  V30 3527 H 335.524 4.21733 2.66351 0
M  V30 3528 H 334.678 3.54728 4.92192 0
M  V30 3529 H 333.417 2.53037 4.16921 0
M  V30 3530 H 332.422 4.55838 3.07396 0
M  V30 3531 H 333.647 5.58829 3.85858 0
M  V30 3532 H 331.593 3.86739 5.29876 0
M  V30 3533 H 331.51 5.58636 5.09374 0
M  V30 3534 H 332.778 4.89835 6.06367 0
M  V30 3535 N 337.007 -0.598083 1.45811 0
M  V30 3536 C 338.255 -1.35413 1.50026 0
M  V30 3537 C 338.576 -1.94444 0.147177 0
M  V30 3538 O 337.846 -1.77701 -0.824571 0
M  V30 3539 H 336.426 -0.502727 0.552517 0
M  V30 3540 H 339.088 -0.701606 1.81834 0
M  V30 3541 H 338.184 -2.16871 2.2444 0
M  V30 3542 N 338.485 -1.33259 -0.841409 0
M  V30 3543 C 339.896 -1.22066 -1.41269 0
M  V30 3544 C 340.247 0.161479 -1.95534 0
M  V30 3545 O 339.372 1.06094 -1.88608 0
M  V30 3546 C 339.967 -2.20996 -2.568 0
M  V30 3547 C 338.526 -2.13649 -3.09888 0
M  V30 3548 C 337.673 -2.08623 -1.82679 0
M  V30 3549 H 340.624 -1.44895 -0.647395 0
M  V30 3550 H 340.645 -1.81621 -3.34356 0
M  V30 3551 H 340.157 -3.2158 -2.17274 0
M  V30 3552 H 338.258 -1.16359 -3.53965 0
M  V30 3553 H 338.371 -3.04079 -3.70234 0
M  V30 3554 H 336.735 -1.54061 -2.02824 0
M  V30 3555 H 337.518 -3.1101 -1.45353 0
M  V30 3556 N 339.963 1.05934 -1.16686 0
M  V30 3557 C 340.893 2.1546 -0.899949 0
M  V30 3558 C 341.874 1.69391 0.155154 0
M  V30 3559 O 343.059 1.94199 0.00648693 0
M  V30 3560 C 340.189 3.44939 -0.404241 0
M  V30 3561 C 339.143 4.04536 -1.39767 0
M  V30 3562 C 338.469 5.29268 -0.760216 0
M  V30 3563 C 339.769 4.42893 -2.76845 0
M  V30 3564 H 341.463 2.38046 -1.81588 0
M  V30 3565 H 339.009 1.14404 -0.874514 0
M  V30 3566 H 340.962 4.20901 -0.204971 0
M  V30 3567 H 339.686 3.21983 0.547206 0
M  V30 3568 H 338.345 3.30635 -1.58355 0
M  V30 3569 H 337.993 5.02611 0.197831 0
M  V30 3570 H 337.693 5.70101 -1.42332 0
M  V30 3571 H 339.217 6.07924 -0.57105 0
M  V30 3572 H 340.631 5.09921 -2.62019 0
M  V30 3573 H 339.028 4.94721 -3.39663 0
M  V30 3574 H 340.098 3.53584 -3.31823 0
M  V30 3575 N 341.441 0.965919 1.2453 0
M  V30 3576 C 342.852 0.665929 1.7442 0
M  V30 3577 C 343.203 -0.818407 1.78316 0
M  V30 3578 O 342.328 -1.64037 1.41141 0
M  V30 3579 C 342.923 1.20211 3.16757 0
M  V30 3580 C 341.482 0.952059 3.6416 0
M  V30 3581 C 340.629 1.33848 2.42858 0
M  V30 3582 H 343.58 1.14144 1.10258 0
M  V30 3583 H 343.601 0.567544 3.76244 0
M  V30 3584 H 343.113 2.28244 3.13889 0
M  V30 3585 H 341.214 -0.112821 3.72429 0
M  V30 3586 H 341.327 1.59645 4.51719 0
M  V30 3587 H 339.691 0.756864 2.43195 0
M  V30 3588 H 340.474 2.42827 2.42673 0
M  V30 3589 N 342.919 -1.39368 0.735821 0
M  V30 3590 C 344.147 -2.04795 0.294393 0
M  V30 3591 C 344.562 -1.55478 -1.07107 0
M  V30 3592 O 343.919 -0.720038 -1.67695 0
M  V30 3593 C 343.97 -3.6035 0.288071 0
M  V30 3594 O 343.691 -4.07852 1.59963 0
M  V30 3595 C 345.192 -4.42976 -0.169422 0
M  V30 3596 H 342.412 -0.658571 0.128551 0
M  V30 3597 H 344.956 -1.78399 0.999701 0
M  V30 3598 H 343.111 -3.85645 -0.368355 0
M  V30 3599 H 343.525 -5.02181 1.51375 0
M  V30 3600 H 344.999 -5.51864 -0.122687 0
M  V30 3601 H 345.476 -4.22068 -1.21472 0
M  V30 3602 H 346.082 -4.22832 0.457469 0
M  V30 3603 N 344.397 -0.483516 -1.5 0
M  V30 3604 C 345.674 0.129337 -1.95172 0
M  V30 3605 C 346.054 1.55802 -1.4244 0
M  V30 3606 O 345.402 2.19625 -0.630649 0
M  V30 3607 C 345.612 0.0599251 -3.48949 0
M  V30 3608 C 346.96 0.242617 -4.23906 0
M  V30 3609 O 347.984 0.135933 -3.55941 0
M  V30 3610 O 346.843 0.459454 -5.44565 0
M  V30 3611 H 343.937 0.104887 -0.820322 0
M  V30 3612 H 346.483 -0.544807 -1.60717 0
M  V30 3613 H 345.255 -0.937079 -3.79914 0
M  V30 3614 H 344.878 0.774984 -3.89974 0
M  V30 3615 N 345.875 1.56104 -0.216619 0
M  V30 3616 C 347.115 2.00074 0.418322 0
M  V30 3617 C 347.479 1.10098 1.57297 0
M  V30 3618 O 348.68 1.43393 2.27359 0
M  V30 3619 C 346.951 3.47231 0.846477 0
M  V30 3620 S 348.51 4.13223 1.47622 0
M  V30 3621 H 345.328 0.698457 0.132962 0
M  V30 3622 H 347.93 1.92784 -0.324748 0
M  V30 3623 H 346.634 4.104 -0.0036319 0
M  V30 3624 H 346.165 3.58384 1.62248 0
M  V30 3625 H 348.18 4.12005 2.76526 0
M  V30 3626 N 347.353 -0.0568162 1.57498 0
M  V30 3627 C 348.593 -0.758273 1.89815 0
M  V30 3628 C 348.957 -1.73978 0.812132 0
M  V30 3629 O 350.158 -2.48744 1.01881 0
M  V30 3630 C 348.429 -1.43465 3.27342 0
M  V30 3631 S 349.988 -2.1691 3.81439 0
M  V30 3632 H 346.806 -0.251836 0.664906 0
M  V30 3633 H 349.408 -0.0137997 1.95495 0
M  V30 3634 H 348.112 -0.706693 4.0427 0
M  V30 3635 H 347.643 -2.21825 3.24896 0
M  V30 3636 H 349.658 -3.43658 3.5793 0
M  V30 3637 N 348.832 -1.54138 -0.328536 0
M  V30 3638 C 349.782 -1.79557 -1.4051 0
M  V30 3639 C 350.766 -0.651373 -1.47126 0
M  V30 3640 O 351.958 -0.911226 -1.51742 0
M  V30 3641 C 349.087 -2.02196 -2.77438 0
M  V30 3642 C 348.173 -3.22724 -2.75155 0
M  V30 3643 N 348.564 -4.43881 -2.42494 0
M  V30 3644 C 346.862 -3.24196 -3.06289 0
M  V30 3645 C 347.563 -5.25797 -2.48822 0
M  V30 3646 N 346.539 -4.62862 -2.8506 0
M  V30 3647 H 350.341 -2.70814 -1.1418 0
M  V30 3648 H 347.855 -1.53265 -0.536991 0
M  V30 3649 H 349.852 -2.18546 -3.55026 0
M  V30 3650 H 348.512 -1.12191 -3.04702 0
M  V30 3651 H 349.523 -4.70969 -2.15428 0
M  V30 3652 H 346.2 -2.44208 -3.38627 0
M  V30 3653 H 347.59 -6.32535 -2.26603 0
M  V30 3654 N 350.31 0.590341 -1.46126 0
M  V30 3655 C 351.22 1.72793 -1.58681 0
M  V30 3656 C 352.236 1.67516 -0.470566 0
M  V30 3657 O 353.412 1.87562 -0.733642 0
M  V30 3658 C 350.477 3.09287 -1.5666 0
M  V30 3659 C 349.538 3.25886 -2.79458 0
M  V30 3660 C 348.771 4.55869 -2.77524 0
M  V30 3661 O 348.994 5.3928 -1.85832 0
M  V30 3662 O 347.928 4.75552 -3.68964 0
M  V30 3663 H 351.754 1.65149 -2.54872 0
M  V30 3664 H 349.339 0.756486 -1.28832 0
M  V30 3665 H 351.221 3.90577 -1.58202 0
M  V30 3666 H 349.896 3.17385 -0.636271 0
M  V30 3667 H 348.803 2.44119 -2.83472 0
M  V30 3668 H 350.136 3.22675 -3.71674 0
M  V30 3669 N 351.788 1.33704 0.83433 0
M  V30 3670 C 352.72 1.20172 1.9517 0
M  V30 3671 C 353.733 0.131572 1.62267 0
M  V30 3672 O 354.922 0.382406 1.74356 0
M  V30 3673 C 352.022 0.821716 3.28787 0
M  V30 3674 C 351.195 1.98446 3.89792 0
M  V30 3675 C 350.254 1.58469 5.01771 0
M  V30 3676 O 349.28 2.29968 5.20676 0
M  V30 3677 N 350.482 0.492291 5.78409 0
M  V30 3678 H 353.247 2.16429 2.07313 0
M  V30 3679 H 350.808 1.26509 1.0103 0
M  V30 3680 H 352.8 0.536291 4.01131 0
M  V30 3681 H 351.37 -0.0503058 3.1256 0
M  V30 3682 H 350.59 2.43526 3.09982 0
M  V30 3683 H 351.878 2.76236 4.27283 0
M  V30 3684 H 351.276 -0.102349 5.65607 0
M  V30 3685 H 349.833 0.266555 6.51255 0
M  V30 3686 N 353.266 -1.05314 1.17247 0
M  V30 3687 C 354.506 -1.79869 0.970898 0
M  V30 3688 C 354.87 -1.85594 -0.491808 0
M  V30 3689 O 356.071 -2.56229 -0.812409 0
M  V30 3690 C 354.342 -3.19937 1.59295 0
M  V30 3691 S 355.901 -4.10986 1.53741 0
M  V30 3692 H 352.719 -0.61949 0.348931 0
M  V30 3693 H 355.321 -1.26368 1.49169 0
M  V30 3694 H 354.025 -3.13372 2.65003 0
M  V30 3695 H 353.556 -3.78515 1.07191 0
M  V30 3696 H 355.571 -4.93203 0.544537 0
M  V30 3697 N 354.744 -0.972509 -1.24016 0
M  V30 3698 C 355.707 -0.511403 -2.23422 0
M  V30 3699 C 356.707 0.394679 -1.55881 0
M  V30 3700 O 357.897 0.189469 -1.73167 0
M  V30 3701 C 355.029 0.258769 -3.39916 0
M  V30 3702 H 356.222 -1.39024 -2.6573 0
M  V30 3703 H 353.775 -0.757585 -1.36713 0
M  V30 3704 H 354.51 1.1545 -3.03054 0
M  V30 3705 H 354.295 -0.391522 -3.9014 0
M  V30 3706 H 355.785 0.570244 -4.13688 0
M  V30 3707 N 356.222 1.38976 -0.743202 0
M  V30 3708 C 357.185 2.28901 -0.117014 0
M  V30 3709 C 358.185 1.46698 0.658503 0
M  V30 3710 O 359.375 1.67274 0.486305 0
M  V30 3711 C 356.507 3.30309 0.84315 0
M  V30 3712 H 357.7 2.8578 -0.909373 0
M  V30 3713 H 355.253 1.47761 -0.509547 0
M  V30 3714 H 355.988 2.785 1.66157 0
M  V30 3715 H 355.773 3.91029 0.289594 0
M  V30 3716 H 357.263 3.97577 1.2776 0
M  V30 3717 N 357.7 0.491464 1.49741 0
M  V30 3718 C 358.948 -0.0563141 2.02022 0
M  V30 3719 C 359.269 -1.38363 1.37407 0
M  V30 3720 O 358.539 -1.88702 0.526166 0
M  V30 3721 H 357.119 -0.0238014 0.746621 0
M  V30 3722 H 359.781 0.646533 1.83864 0
M  V30 3723 H 358.877 -0.192967 3.11503 0
M  V30 3724 N 359.178 -1.55987 0.224894 0
M  V30 3725 C 360.418 -2.00293 -0.407706 0
M  V30 3726 C 360.782 -1.1093 -1.56711 0
M  V30 3727 O 361.983 -1.44597 -2.26595 0
M  V30 3728 C 360.254 -3.47675 -0.82805 0
M  V30 3729 S 361.813 -4.14 -1.45429 0
M  V30 3730 H 358.631 -0.699152 -0.129256 0
M  V30 3731 H 361.233 -1.92609 0.334967 0
M  V30 3732 H 359.937 -4.10392 0.0253964 0
M  V30 3733 H 359.468 -3.59239 -1.60345 0
M  V30 3734 H 361.483 -4.13465 -2.74337 0
M  V30 3735 N 360.656 0.0484629 -1.57525 0
M  V30 3736 C 361.884 0.755421 -1.92616 0
M  V30 3737 C 362.299 1.69919 -0.822984 0
M  V30 3738 O 361.656 1.81378 0.202085 0
M  V30 3739 C 361.707 1.52915 -3.27566 0
M  V30 3740 O 361.428 0.62329 -4.33644 0
M  V30 3741 C 362.929 2.33502 -3.76818 0
M  V30 3742 H 360.149 0.213465 -0.63614 0
M  V30 3743 H 362.693 0.0117698 -2.04497 0
M  V30 3744 H 360.848 2.22486 -3.17142 0
M  V30 3745 H 361.262 1.16383 -5.11425 0
M  V30 3746 H 362.736 2.83214 -4.73808 0
M  V30 3747 H 363.213 3.14068 -3.07014 0
M  V30 3748 H 363.819 1.69043 -3.90262 0
M  V30 3749 N 362.134 1.5431 0.320358 0
M  V30 3750 C 363.382 1.72327 1.05583 0
M  V30 3751 C 363.703 0.50149 1.88441 0
M  V30 3752 O 362.973 -0.48448 1.89815 0
M  V30 3753 H 361.553 0.635387 0.3928 0
M  V30 3754 H 364.215 1.91621 0.356019 0
M  V30 3755 H 363.311 2.60426 1.72003 0
M  V30 3756 N 363.613 -0.582584 1.46437 0
M  V30 3757 C 365.024 -1.1647 1.45916 0
M  V30 3758 C 365.375 -1.95177 0.200077 0
M  V30 3759 O 364.5 -2.04874 -0.696819 0
M  V30 3760 C 365.095 -2.11885 2.64367 0
M  V30 3761 C 363.654 -2.65421 2.66887 0
M  V30 3762 C 362.801 -1.41294 2.38603 0
M  V30 3763 H 365.752 -0.370514 1.54314 0
M  V30 3764 H 365.773 -2.9535 2.39892 0
M  V30 3765 H 365.285 -1.54573 3.5599 0
M  V30 3766 H 363.386 -3.26602 1.79338 0
M  V30 3767 H 363.499 -3.08147 3.66854 0
M  V30 3768 H 361.863 -1.71109 1.88663 0
M  V30 3769 H 362.646 -0.858125 3.32402 0
M  V30 3770 N 365.091 -1.34144 -0.827227 0
M  V30 3771 C 366.038 -1.25364 -1.93785 0
M  V30 3772 C 367.008 -0.129774 -1.65592 0
M  V30 3773 O 368.193 -0.310024 -1.88264 0
M  V30 3774 C 365.333 -1.01064 -3.2997 0
M  V30 3775 C 364.446 -2.22185 -3.70484 0
M  V30 3776 C 363.581 -1.91203 -4.95595 0
M  V30 3777 C 362.62 -3.08491 -5.28677 0
M  V30 3778 N 361.757 -2.77421 -6.44967 0
M  V30 3779 H 366.597 -2.20347 -2.00627 0
M  V30 3780 H 364.134 -1.09558 -0.981608 0
M  V30 3781 H 366.092 -0.850139 -4.08446 0
M  V30 3782 H 364.722 -0.0975026 -3.22653 0
M  V30 3783 H 363.774 -2.4917 -2.87434 0
M  V30 3784 H 365.086 -3.0983 -3.90905 0
M  V30 3785 H 364.24 -1.71864 -5.81848 0
M  V30 3786 H 362.979 -1.00812 -4.77167 0
M  V30 3787 H 361.984 -3.28431 -4.40923 0
M  V30 3788 H 363.209 -3.99655 -5.49047 0
M  V30 3789 H 361.155 -1.89601 -6.28003 0
M  V30 3790 H 361.072 -3.58598 -6.6554 0
M  V30 3791 H 362.34 -2.61577 -7.34301 0
M  V30 3792 N 366.569 1.04691 -1.17803 0
M  V30 3793 C 367.519 2.10856 -0.867391 0
M  V30 3794 C 368.503 1.601 0.160206 0
M  V30 3795 O 369.695 1.76948 -0.042947 0
M  V30 3796 C 366.824 3.411 -0.388012 0
M  V30 3797 C 365.91 3.9864 -1.44732 0
M  V30 3798 N 366.301 4.30075 -2.66212 0
M  V30 3799 C 364.599 4.26439 -1.30637 0
M  V30 3800 C 365.3 4.76033 -3.34317 0
M  V30 3801 N 364.276 4.76462 -2.61696 0
M  V30 3802 H 368.078 2.33029 -1.79094 0
M  V30 3803 H 365.592 1.22386 -1.0675 0
M  V30 3804 H 367.589 4.16641 -0.146994 0
M  V30 3805 H 366.249 3.20357 0.529271 0
M  V30 3806 H 367.26 4.19917 -3.03134 0
M  V30 3807 H 363.937 4.15056 -0.451129 0
M  V30 3808 H 365.327 5.09427 -4.38103 0
M  V30 3809 N 368.047 0.979072 1.23499 0
M  V30 3810 C 369.272 0.664845 1.96455 0
M  V30 3811 C 369.697 -0.761287 1.72006 0
M  V30 3812 O 369.055 -1.51837 0.990713 0
M  V30 3813 C 369.103 0.959479 3.47601 0
M  V30 3814 O 368.207 0.0508168 4.12369 0
M  V30 3815 H 367.548 0.250185 0.615064 0
M  V30 3816 H 370.078 1.31231 1.5697 0
M  V30 3817 H 370.088 0.895642 3.98048 0
M  V30 3818 H 368.763 1.99876 3.64723 0
M  V30 3819 H 367.34 0.16895 3.72517 0
M  V30 3820 N 369.525 -1.3858 0.750561 0
M  V30 3821 C 370.802 -1.94231 0.231009 0
M  V30 3822 C 371.182 -1.68611 -1.27018 0
M  V30 3823 O 370.53 -1.02296 -2.04323 0
M  V30 3824 C 370.74 -3.44123 0.581428 0
M  V30 3825 C 372.088 -4.2116 0.539389 0
M  V30 3826 O 373.112 -3.52391 0.519541 0
M  V30 3827 O 371.971 -5.43749 0.54765 0
M  V30 3828 H 369.065 -0.825639 0.0474263 0
M  V30 3829 H 371.611 -1.4799 0.830478 0
M  V30 3830 H 370.383 -3.56267 1.61833 0
M  V30 3831 H 370.006 -3.97573 -0.0462047 0
M  V30 3832 N 371.003 -0.499398 -1.49478 0
M  V30 3833 C 372.243 0.0440751 -2.04352 0
M  V30 3834 C 372.607 1.34423 -1.37093 0
M  V30 3835 O 373.808 1.97184 -1.82679 0
M  V30 3836 C 372.079 0.194918 -3.56868 0
M  V30 3837 S 373.638 0.69287 -4.33295 0
M  V30 3838 H 370.456 0.00253458 -0.710995 0
M  V30 3839 H 373.058 -0.673 -1.83551 0
M  V30 3840 H 371.762 -0.756672 -4.03364 0
M  V30 3841 H 371.293 0.93728 -3.82071 0
M  V30 3842 H 373.308 1.96226 -4.55752 0
M  V30 3843 N 372.481 1.55866 -0.233164 0
M  V30 3844 C 373.411 2.23783 0.666599 0
M  V30 3845 C 374.392 1.21343 1.19205 0
M  V30 3846 O 375.577 1.4996 1.23392 0
M  V30 3847 C 372.707 2.92671 1.86978 0
M  V30 3848 C 371.661 4.01682 1.47768 0
M  V30 3849 C 370.987 4.57926 2.76058 0
M  V30 3850 C 372.287 5.18126 0.658993 0
M  V30 3851 H 373.981 2.99232 0.100306 0
M  V30 3852 H 371.527 1.43924 0.046804 0
M  V30 3853 H 373.48 3.3888 2.50476 0
M  V30 3854 H 372.204 2.14688 2.46123 0
M  V30 3855 H 370.863 3.56222 0.866106 0
M  V30 3856 H 370.511 3.76659 3.33372 0
M  V30 3857 H 370.211 5.31505 2.50552 0
M  V30 3858 H 371.735 5.06859 3.40479 0
M  V30 3859 H 373.149 5.60644 1.19795 0
M  V30 3860 H 371.546 5.98009 0.500552 0
M  V30 3861 H 372.616 4.83763 -0.331856 0
M  V30 3862 N 373.959 -0.0401083 1.57549 0
M  V30 3863 C 374.922 -1.02871 2.04817 0
M  V30 3864 C 375.922 -1.29708 0.950388 0
M  V30 3865 O 377.112 -1.24897 1.21435 0
M  V30 3866 C 374.244 -2.36443 2.45576 0
M  V30 3867 H 375.437 -0.620631 2.93408 0
M  V30 3868 H 372.99 -0.286667 1.53649 0
M  V30 3869 H 373.725 -2.82021 1.60108 0
M  V30 3870 H 373.51 -2.18296 3.25713 0
M  V30 3871 H 375 -3.07441 2.82612 0
M  V30 3872 N 375.437 -1.54477 -0.31217 0
M  V30 3873 C 376.677 -1.74958 -1.05684 0
M  V30 3874 C 377.041 -0.518414 -1.84869 0
M  V30 3875 O 378.242 -0.600759 -2.62001 0
M  V30 3876 C 376.513 -2.99656 -1.94785 0
M  V30 3877 S 378.072 -3.4109 -2.76049 0
M  V30 3878 H 374.89 -0.615104 -0.356606 0
M  V30 3879 H 377.492 -1.92669 -0.331514 0
M  V30 3880 H 376.196 -3.87397 -1.35468 0
M  V30 3881 H 375.727 -2.845 -2.71704 0
M  V30 3882 H 377.742 -2.97283 -3.97287 0
M  V30 3883 N 376.915 0.57481 -1.46744 0
M  V30 3884 C 377.845 1.69337 -1.60771 0
M  V30 3885 C 378.826 1.63825 -0.457736 0
M  V30 3886 O 380.011 1.8172 -0.684947 0
M  V30 3887 C 377.141 3.0798 -1.60517 0
M  V30 3888 C 376.095 3.28327 -2.74564 0
M  V30 3889 C 375.421 4.67578 -2.59373 0
M  V30 3890 C 376.721 3.15398 -4.16319 0
M  V30 3891 H 378.415 1.57853 -2.54407 0
M  V30 3892 H 375.961 0.75799 -1.22436 0
M  V30 3893 H 377.914 3.86061 -1.68923 0
M  V30 3894 H 376.638 3.20381 -0.634305 0
M  V30 3895 H 375.297 2.52649 -2.65639 0
M  V30 3896 H 374.945 4.76755 -1.60353 0
M  V30 3897 H 374.645 4.82144 -3.35873 0
M  V30 3898 H 376.169 5.47817 -2.69682 0
M  V30 3899 H 377.583 3.83315 -4.26313 0
M  V30 3900 H 375.98 3.41482 -4.93468 0
M  V30 3901 H 377.05 2.12372 -4.3592 0
M  V30 3902 N 378.394 1.34581 0.820102 0
M  V30 3903 C 379.344 1.22943 1.92013 0
M  V30 3904 C 380.328 0.127802 1.60392 0
M  V30 3905 O 381.52 0.357737 1.73347 0
M  V30 3906 C 378.649 0.989938 3.28717 0
M  V30 3907 C 377.735 2.13486 3.66449 0
M  V30 3908 N 378.126 3.38625 3.75722 0
M  V30 3909 C 376.424 2.04573 3.96315 0
M  V30 3910 C 377.125 4.13832 4.08801 0
M  V30 3911 N 376.101 3.42451 4.22171 0
M  V30 3912 H 379.903 2.17771 1.97365 0
M  V30 3913 H 377.417 1.2686 1.01392 0
M  V30 3914 H 379.414 0.887462 4.07345 0
M  V30 3915 H 378.074 0.0503691 3.24661 0
M  V30 3916 H 379.085 3.73143 3.59144 0
M  V30 3917 H 375.762 1.1839 4.00362 0
M  V30 3918 H 377.152 5.21909 4.23156 0
M  V30 3919 N 379.872 -1.04064 1.18357 0
M  V30 3920 C 381.119 -1.77265 0.978947 0
M  V30 3921 C 381.447 -1.88189 -0.491428 0
M  V30 3922 O 380.702 -1.38653 -1.38108 0
M  V30 3923 C 381.001 -3.20634 1.57888 0
M  V30 3924 C 380.667 -3.29743 3.07539 0
M  V30 3925 C 379.329 -3.31937 3.48384 0
M  V30 3926 C 381.681 -3.29841 4.03552 0
M  V30 3927 C 379.009 -3.3187 4.83818 0
M  V30 3928 C 381.361 -3.31313 5.38901 0
M  V30 3929 C 380.025 -3.31799 5.79194 0
M  V30 3930 H 379.295 -0.648659 0.358222 0
M  V30 3931 H 381.942 -1.22225 1.47422 0
M  V30 3932 H 380.247 -3.78675 1.00561 0
M  V30 3933 H 381.944 -3.75917 1.39598 0
M  V30 3934 H 378.534 -3.28757 2.74986 0
M  V30 3935 H 382.718 -3.27337 3.73047 0
M  V30 3936 H 377.974 -3.30562 5.14333 0
M  V30 3937 H 382.148 -3.30338 6.13066 0
M  V30 3938 H 379.775 -3.315 6.84114 0
M  V30 3939 N 381.35 -0.985608 -1.22978 0
M  V30 3940 C 382.298 -0.522631 -2.26652 0
M  V30 3941 C 383.292 0.422998 -1.64034 0
M  V30 3942 O 384.498 0.296319 -1.77544 0
M  V30 3943 H 380.873 -0.150597 -0.736766 0
M  V30 3944 H 382.844 -1.40863 -2.63059 0
M  V30 3945 C 381.593 0.154238 -3.47358 0
M  V30 3946 H 380.916 -0.564329 -3.95797 0
M  V30 3947 H 382.356 0.441744 -4.21693 0
M  V30 3948 C 380.815 1.38719 -3.07016 0
M  V30 3949 O 381.345 2.48307 -3.15764 0
M  V30 3950 N 379.551 1.25975 -2.61875 0
M  V30 3951 H 379.098 0.368068 -2.54957 0
M  V30 3952 H 379.056 2.08578 -2.3525 0
M  V30 3953 N 382.828 1.3818 -0.7579 0
M  V30 3954 C 383.778 2.27741 -0.108674 0
M  V30 3955 C 384.762 1.45415 0.688709 0
M  V30 3956 O 385.954 1.68108 0.553956 0
M  V30 3957 C 383.083 3.34313 0.780367 0
M  V30 3958 C 382.169 4.24093 -0.0240977 0
M  V30 3959 N 382.56 4.9451 -1.06271 0
M  V30 3960 C 380.858 4.45542 0.202049 0
M  V30 3961 C 381.559 5.60675 -1.54979 0
M  V30 3962 N 380.535 5.36684 -0.864348 0
M  V30 3963 H 384.337 2.79649 -0.904071 0
M  V30 3964 H 381.851 1.51133 -0.594346 0
M  V30 3965 H 383.848 3.97368 1.26114 0
M  V30 3966 H 382.508 2.83962 1.57467 0
M  V30 3967 H 383.519 4.97345 -1.44459 0
M  V30 3968 H 380.196 4.06091 0.96935 0
M  V30 3969 H 381.586 6.26992 -2.41517 0
M  V30 3970 N 384.306 0.507319 1.49211 0
M  V30 3971 C 385.531 -0.033725 2.07373 0
M  V30 3972 C 385.956 -1.29485 1.36437 0
M  V30 3973 O 385.314 -1.76294 0.423087 0
M  V30 3974 C 385.362 -0.263945 3.59633 0
M  V30 3975 O 384.466 -1.33737 3.90113 0
M  V30 3976 H 383.807 0.0290331 0.663365 0
M  V30 3977 H 386.337 0.708749 1.91932 0
M  V30 3978 H 386.347 -0.493536 4.05004 0
M  V30 3979 H 385.022 0.657424 4.10671 0
M  V30 3980 H 383.599 -1.09224 3.56545 0
M  V30 3981 N 385.784 -1.5574 0.241426 0
M  V30 3982 C 387.032 -1.98417 -0.384075 0
M  V30 3983 C 387.353 -1.13078 -1.58866 0
M  V30 3984 O 386.623 -0.212312 -1.94746 0
M  V30 3985 H 385.203 -0.732813 -0.144894 0
M  V30 3986 H 387.865 -1.9193 0.338943 0
M  V30 3987 H 386.961 -3.04219 -0.696939 0
M  V30 3988 N 387.262 0.0317525 -1.57568 0
M  V30 3989 C 388.511 0.722131 -1.8833 0
M  V30 3990 C 388.824 1.76664 -0.839587 0
M  V30 3991 O 390.03 2.50942 -1.03635 0
M  V30 3992 C 388.486 1.33544 -3.34207 0
M  V30 3993 C 388.094 0.327415 -4.46802 0
M  V30 3994 C 389.838 2.00585 -3.7412 0
M  V30 3995 C 387.745 0.948915 -5.83738 0
M  V30 3996 H 386.675 0.273466 -0.702661 0
M  V30 3997 H 389.326 -0.0235811 -1.83485 0
M  V30 3998 H 387.708 2.13077 -3.33788 0
M  V30 3999 H 388.882 -0.441006 -4.58685 0
M  V30 4000 H 387.197 -0.240758 -4.15703 0
M  V30 4001 H 389.794 2.47932 -4.73744 0
M  V30 4002 H 390.137 2.82285 -3.05975 0
M  V30 4003 H 390.67 1.27831 -3.76702 0
M  V30 4004 H 387.409 0.171387 -6.55276 0
M  V30 4005 H 386.929 1.68724 -5.7558 0
M  V30 4006 H 388.608 1.45705 -6.3038 0
M  V30 4007 N 388.74 1.54641 0.303973 0
M  V30 4008 C 389.98 1.75516 1.04755 0
M  V30 4009 C 390.344 0.528211 1.84591 0
M  V30 4010 O 391.545 0.614645 2.61678 0
M  V30 4011 C 389.816 3.00685 1.93193 0
M  V30 4012 S 391.375 3.42549 2.74237 0
M  V30 4013 H 388.193 0.616987 0.353339 0
M  V30 4014 H 390.795 1.92842 0.321292 0
M  V30 4015 H 389.499 3.8811 1.33411 0
M  V30 4016 H 389.03 2.85937 2.70191 0
M  V30 4017 H 391.045 2.99386 3.95705 0
M  V30 4018 N 390.218 -0.567019 1.47046 0
M  V30 4019 C 391.128 -1.70247 1.6141 0
M  V30 4020 C 392.144 -1.66746 0.497157 0
M  V30 4021 O 393.32 -1.86371 0.763389 0
M  V30 4022 C 390.385 -3.06756 1.61561 0
M  V30 4023 C 389.446 -3.21399 2.84607 0
M  V30 4024 C 388.679 -4.51396 2.84741 0
M  V30 4025 O 388.902 -5.36255 1.94388 0
M  V30 4026 O 387.836 -4.69621 3.76483 0
M  V30 4027 H 391.662 -1.61073 2.57467 0
M  V30 4028 H 389.247 -0.735894 1.30019 0
M  V30 4029 H 391.129 -3.8801 1.64396 0
M  V30 4030 H 389.804 -3.16333 0.686684 0
M  V30 4031 H 388.711 -2.39579 2.8732 0
M  V30 4032 H 390.044 -3.16721 3.76761 0
M  V30 4033 N 391.696 -1.35014 -0.812953 0
M  V30 4034 C 392.626 -1.30069 -1.93919 0
M  V30 4035 C 393.607 -0.176275 -1.69184 0
M  V30 4036 O 394.792 -0.370227 -1.90638 0
M  V30 4037 C 391.922 -1.06547 -3.30552 0
M  V30 4038 C 390.876 -2.15561 -3.69753 0
M  V30 4039 C 390.202 -1.77214 -5.04479 0
M  V30 4040 C 391.502 -3.57476 -3.808 0
M  V30 4041 H 393.196 -2.24303 -1.98314 0
M  V30 4042 H 390.742 -1.07977 -0.952736 0
M  V30 4043 H 392.695 -1.01729 -4.08937 0
M  V30 4044 H 391.419 -0.0875719 -3.26483 0
M  V30 4045 H 390.078 -2.19466 -2.9365 0
M  V30 4046 H 389.726 -0.780589 -4.96906 0
M  V30 4047 H 389.426 -2.50184 -5.31678 0
M  V30 4048 H 390.95 -1.7391 -5.8531 0
M  V30 4049 H 392.364 -3.55929 -4.4943 0
M  V30 4050 H 390.761 -4.29152 -4.19462 0
M  V30 4051 H 391.831 -3.94091 -2.82525 0
M  V30 4052 N 393.175 1.03435 -1.18907 0
M  V30 4053 C 394.125 2.09924 -0.889706 0
M  V30 4054 C 395.109 1.60261 0.143216 0
M  V30 4055 O 396.301 1.76892 -0.0617122 0
M  V30 4056 C 393.43 3.40669 -0.424168 0
M  V30 4057 C 392.516 3.97082 -1.48952 0
M  V30 4058 N 392.907 4.27227 -2.70759 0
M  V30 4059 C 391.205 4.25029 -1.35152 0
M  V30 4060 C 391.906 4.7246 -3.39347 0
M  V30 4061 N 390.882 4.7366 -2.66735 0
M  V30 4062 H 394.684 2.31116 -1.81555 0
M  V30 4063 H 392.198 1.21246 -1.08042 0
M  V30 4064 H 394.195 4.16461 -0.191176 0
M  V30 4065 H 392.855 3.20901 0.495263 0
M  V30 4066 H 393.866 4.16678 -3.0757 0
M  V30 4067 H 390.543 4.14554 -0.495126 0
M  V30 4068 H 391.933 5.04751 -4.43481 0
M  V30 4069 N 394.653 0.992116 1.22453 0
M  V30 4070 C 395.893 0.675727 1.92907 0
M  V30 4071 C 396.257 -0.777762 1.75542 0
M  V30 4072 O 397.458 -1.20553 2.40251 0
M  V30 4073 C 395.729 1.0696 3.4102 0
M  V30 4074 S 397.288 0.871456 4.30059 0
M  V30 4075 H 394.106 0.247089 0.666684 0
M  V30 4076 H 396.708 1.27423 1.48269 0
M  V30 4077 H 395.412 2.12383 3.51172 0
M  V30 4078 H 394.943 0.462858 3.90668 0
M  V30 4079 H 396.958 -0.238436 4.95627 0
M  V30 4080 N 396.131 -1.37776 0.765217 0
M  V30 4081 C 397.542 -1.82521 0.392819 0
M  V30 4082 C 397.893 -1.63789 -1.08017 0
M  V30 4083 O 397.018 -1.14542 -1.83601 0
M  V30 4084 C 397.613 -3.31358 0.706214 0
M  V30 4085 C 396.172 -3.74406 0.386952 0
M  V30 4086 C 395.319 -2.60394 0.953422 0
M  V30 4087 H 398.27 -1.2634 0.960412 0
M  V30 4088 H 398.291 -3.80498 -0.0114706 0
M  V30 4089 H 397.803 -3.44959 1.77833 0
M  V30 4090 H 395.904 -3.66377 -0.678112 0
M  V30 4091 H 396.017 -4.70749 0.890636 0
M  V30 4092 H 394.381 -2.51878 0.378064 0
M  V30 4093 H 395.164 -2.76791 2.03081 0
M  V30 4094 N 397.609 -0.515225 -1.4894 0
M  V30 4095 C 398.572 0.244681 -2.2789 0
M  V30 4096 C 399.572 0.881166 -1.34507 0
M  V30 4097 O 400.762 0.743497 -1.57537 0
M  V30 4098 C 397.894 1.35247 -3.12923 0
M  V30 4099 H 399.087 -0.448289 -2.96531 0
M  V30 4100 H 396.64 -0.270656 -1.53939 0
M  V30 4101 H 397.375 2.07916 -2.48881 0
M  V30 4102 H 397.16 0.901374 -3.81599 0
M  V30 4103 H 398.65 1.88737 -3.72516 0
M  V30 4104 N 399.087 1.5561 -0.249682 0
M  V30 4105 C 400.017 2.24477 0.642826 0
M  V30 4106 C 400.998 1.22601 1.17911 0
M  V30 4107 O 402.183 1.5126 1.21795 0
M  V30 4108 C 399.313 2.94638 1.83863 0
M  V30 4109 C 398.267 4.03227 1.435 0
M  V30 4110 C 397.593 4.60828 2.71186 0
M  V30 4111 C 398.893 5.18796 0.604002 0
M  V30 4112 H 400.587 2.99321 0.0685625 0
M  V30 4113 H 398.133 1.43965 0.0315363 0
M  V30 4114 H 400.086 3.41517 2.46868 0
M  V30 4115 H 398.81 2.17287 2.43832 0
M  V30 4116 H 397.469 3.57121 0.828275 0
M  V30 4117 H 397.117 3.80174 3.29358 0
M  V30 4118 H 396.817 5.34132 2.44901 0
M  V30 4119 H 398.341 5.10442 3.35084 0
M  V30 4120 H 399.755 5.61883 1.13842 0
M  V30 4121 H 398.152 5.98506 0.437097 0
M  V30 4122 H 399.222 4.83384 -0.383147 0
M  V30 4123 N 400.565 -0.0233959 1.57583 0
M  V30 4124 C 401.811 -0.714119 1.89811 0
M  V30 4125 C 402.144 -1.74702 0.848113 0
M  V30 4126 O 401.419 -1.94023 -0.136135 0
M  V30 4127 C 401.702 -1.37853 3.32669 0
M  V30 4128 C 401.555 -0.358764 4.48367 0
M  V30 4129 C 402.874 -2.31101 3.7454 0
M  V30 4130 H 399.993 -0.25814 0.690314 0
M  V30 4131 H 402.635 0.0230927 1.89986 0
M  V30 4132 H 400.785 -2.00689 3.3265 0
M  V30 4133 H 402.457 0.268115 4.6052 0
M  V30 4134 H 400.7 0.321387 4.32608 0
M  V30 4135 H 401.371 -0.862242 5.45224 0
M  V30 4136 H 403.847 -1.78304 3.75961 0
M  V30 4137 H 402.723 -2.74567 4.75294 0
M  V30 4138 H 402.984 -3.18018 3.0711 0
M  V30 4139 N 402.043 -1.548 -0.295768 0
M  V30 4140 C 403.271 -1.78327 -1.04914 0
M  V30 4141 C 403.686 -0.545316 -1.80753 0
M  V30 4142 O 403.043 0.485013 -1.75937 0
M  V30 4143 C 403.094 -2.99418 -2.02561 0
M  V30 4144 O 402.815 -4.18431 -1.29798 0
M  V30 4145 C 404.316 -3.35375 -2.89895 0
M  V30 4146 H 401.536 -0.594618 -0.310918 0
M  V30 4147 H 404.08 -2.01763 -0.333454 0
M  V30 4148 H 402.235 -2.78175 -2.69624 0
M  V30 4149 H 402.649 -4.86736 -1.95419 0
M  V30 4150 H 404.123 -4.23332 -3.54251 0
M  V30 4151 H 404.6 -2.53761 -3.58472 0
M  V30 4152 H 405.206 -3.58796 -2.28355 0
M  V30 4153 N 403.521 0.559213 -1.47345 0
M  V30 4154 C 404.751 1.33999 -1.57251 0
M  V30 4155 C 405.159 1.87905 -0.220978 0
M  V30 4156 O 404.502 1.65577 0.795617 0
M  V30 4157 C 404.564 2.54798 -2.53611 0
M  V30 4158 C 404.228 2.22192 -3.99349 0
M  V30 4159 C 405.225 1.79607 -4.87891 0
M  V30 4160 C 402.91 2.33613 -4.44669 0
M  V30 4161 C 404.904 1.48868 -6.19772 0
M  V30 4162 C 402.591 2.02487 -5.76578 0
M  V30 4163 C 403.589 1.60183 -6.63951 0
M  V30 4164 O 403.277 1.29451 -7.93409 0
M  V30 4165 H 403.009 0.414858 -0.533731 0
M  V30 4166 H 405.563 0.684465 -1.9366 0
M  V30 4167 H 403.793 3.23235 -2.12265 0
M  V30 4168 H 405.482 3.16873 -2.53666 0
M  V30 4169 H 406.248 1.70278 -4.54126 0
M  V30 4170 H 402.127 2.65501 -3.76869 0
M  V30 4171 H 405.671 1.15775 -6.87926 0
M  V30 4172 H 401.568 2.11448 -6.09885 0
M  V30 4173 H 402.336 1.43098 -8.05894 0
M  V30 4174 N 404.999 1.35443 0.805782 0
M  V30 4175 C 405.947 1.28465 1.93906 0
M  V30 4176 C 406.941 0.17943 1.68447 0
M  V30 4177 O 408.147 0.345459 1.76654 0
M  V30 4178 H 404.522 0.399528 0.637088 0
M  V30 4179 H 406.493 2.24206 1.96912 0
M  V30 4180 C 405.242 1.07432 3.30687 0
M  V30 4181 H 404.565 1.91716 3.50835 0
M  V30 4182 H 406.005 1.06591 4.10383 0
M  V30 4183 C 404.464 -0.22179 3.36169 0
M  V30 4184 O 404.994 -1.21731 3.82811 0
M  V30 4185 N 403.2 -0.260841 2.89427 0
M  V30 4186 H 402.747 0.549884 2.51663 0
M  V30 4187 H 402.705 -1.12777 2.93477 0
M  V30 4188 N 406.477 -1.02803 1.19454 0
M  V30 4189 C 407.705 -1.79841 1.02297 0
M  V30 4190 C 408.12 -1.83879 -0.428259 0
M  V30 4191 O 407.477 -1.28345 -1.29745 0
M  V30 4192 C 407.528 -3.24852 1.58598 0
M  V30 4193 O 407.249 -3.21097 2.98041 0
M  V30 4194 C 408.75 -4.18485 1.46236 0
M  V30 4195 H 405.97 -0.565936 0.360496 0
M  V30 4196 H 408.514 -1.2948 1.58288 0
M  V30 4197 H 406.669 -3.72401 1.06753 0
M  V30 4198 H 407.083 -4.12033 3.24545 0
M  V30 4199 H 408.557 -5.18121 1.90407 0
M  V30 4200 H 409.034 -4.37254 0.41301 0
M  V30 4201 H 409.64 -3.76811 1.97215 0
M  V30 4202 N 407.956 -0.998596 -1.21925 0
M  V30 4203 C 409.233 -0.593401 -1.86382 0
M  V30 4204 C 409.613 0.92916 -1.89552 0
M  V30 4205 O 408.961 1.81347 -1.39017 0
M  V30 4206 C 409.171 -1.22039 -3.26967 0
M  V30 4207 C 410.519 -1.32449 -4.03413 0
M  V30 4208 O 411.543 -1.17522 -3.36254 0
M  V30 4209 O 410.402 -1.56395 -5.23644 0
M  V30 4210 H 407.496 -0.202385 -0.801854 0
M  V30 4211 H 410.042 -1.09484 -1.29659 0
M  V30 4212 H 408.814 -2.26158 -3.19325 0
M  V30 4213 H 408.437 -0.704906 -3.91301 0
M  V30 4214 N 409.434 1.37368 -0.772513 0
M  V30 4215 C 410.662 2.03942 -0.348588 0
M  V30 4216 C 411.077 1.58264 1.02947 0
M  V30 4217 O 410.434 0.764246 1.65727 0
M  V30 4218 C 410.485 3.5946 -0.38351 0
M  V30 4219 O 410.206 4.03468 -1.70721 0
M  V30 4220 C 411.707 4.4327 0.0519152 0
M  V30 4221 H 408.927 0.654931 -0.145966 0
M  V30 4222 H 411.471 1.75686 -1.04665 0
M  V30 4223 H 409.626 3.86486 0.265978 0
M  V30 4224 H 410.04 4.97991 -1.64636 0
M  V30 4225 H 411.514 5.51995 -0.0236733 0
M  V30 4226 H 411.991 4.2514 1.10238 0
M  V30 4227 H 412.597 4.21471 -0.569415 0
M  V30 4228 N 410.912 0.523116 1.48665 0
M  V30 4229 C 412.159 -0.0134763 2.02496 0
M  V30 4230 C 412.487 -1.3493 1.40086 0
M  V30 4231 O 411.742 -1.88286 0.533567 0
M  V30 4232 C 412.041 -0.191671 3.56886 0
M  V30 4233 C 411.707 1.06893 4.38046 0
M  V30 4234 C 410.369 1.41443 4.59943 0
M  V30 4235 C 412.721 1.90584 4.85106 0
M  V30 4236 C 410.049 2.59594 5.26144 0
M  V30 4237 C 412.401 3.07907 5.52609 0
M  V30 4238 C 411.065 3.42811 5.72745 0
M  V30 4239 H 410.335 -0.00493133 0.740984 0
M  V30 4240 H 412.982 0.687751 1.78724 0
M  V30 4241 H 411.287 -0.97561 3.79459 0
M  V30 4242 H 412.984 -0.621659 3.96152 0
M  V30 4243 H 409.574 0.789848 4.21259 0
M  V30 4244 H 413.758 1.65203 4.67997 0
M  V30 4245 H 409.014 2.86847 5.39934 0
M  V30 4246 H 413.188 3.73066 5.88043 0
M  V30 4247 H 410.815 4.34462 6.23816 0
M  V30 4248 N 412.39 -1.55475 0.257931 0
M  V30 4249 C 413.3 -2.2549 -0.647425 0
M  V30 4250 C 414.316 -1.2748 -1.18427 0
M  V30 4251 O 415.492 -1.6038 -1.2182 0
M  V30 4252 C 412.557 -2.94916 -1.82278 0
M  V30 4253 C 411.618 -4.08363 -1.32432 0
M  V30 4254 C 410.851 -4.74469 -2.44366 0
M  V30 4255 O 411.074 -4.39701 -3.63344 0
M  V30 4256 O 410.008 -5.62763 -2.13497 0
M  V30 4257 H 413.834 -3.03593 -0.0807707 0
M  V30 4258 H 411.419 -1.49377 0.0259962 0
M  V30 4259 H 413.301 -3.38606 -2.50846 0
M  V30 4260 H 411.976 -2.19744 -2.37685 0
M  V30 4261 H 410.883 -3.69166 -0.605605 0
M  V30 4262 H 412.216 -4.85385 -0.816211 0
M  V30 4263 N 413.868 0.0150385 -1.57593 0
M  V30 4264 C 415.093 0.718067 -1.94573 0
M  V30 4265 C 415.518 1.6734 -0.859005 0
M  V30 4266 O 414.876 1.80362 0.184147 0
M  V30 4267 C 414.924 1.43918 -3.30636 0
M  V30 4268 O 414.028 2.55299 -3.23876 0
M  V30 4269 H 413.369 0.192125 -0.635597 0
M  V30 4270 H 415.899 -0.0336708 -2.04572 0
M  V30 4271 H 415.909 1.80598 -3.65853 0
M  V30 4272 H 414.584 0.738619 -4.09289 0
M  V30 4273 H 413.161 2.21058 -3.00312 0
M  V30 4274 N 415.346 1.54954 0.287554 0
M  V30 4275 C 416.279 1.81737 1.3801 0
M  V30 4276 C 417.257 0.669412 1.48181 0
M  V30 4277 O 418.441 0.910839 1.65033 0
M  V30 4278 C 415.568 1.96606 2.75796 0
M  V30 4279 C 414.614 3.19098 2.82982 0
M  V30 4280 S 415.447 4.7683 2.43707 0
M  V30 4281 C 416.603 4.94653 3.83496 0
M  V30 4282 H 416.836 2.74122 1.15085 0
M  V30 4283 H 414.369 1.46538 0.486403 0
M  V30 4284 H 416.327 2.05858 3.55152 0
M  V30 4285 H 414.988 1.05136 2.95982 0
M  V30 4286 H 414.181 3.26344 3.84077 0
M  V30 4287 H 413.783 3.08361 2.11635 0
M  V30 4288 H 416.075 4.79502 4.78628 0
M  V30 4289 H 417.018 5.96728 3.8121 0
M  V30 4290 H 417.426 4.2272 3.74123 0
M  V30 4291 N 416.824 -0.551391 1.4764 0
M  V30 4292 C 418.235 -1.13349 1.48354 0
M  V30 4293 C 418.586 -1.94709 0.241432 0
M  V30 4294 O 417.711 -2.06306 -0.653205 0
M  V30 4295 C 418.306 -2.0623 2.68802 0
M  V30 4296 C 416.865 -2.597 2.72457 0
M  V30 4297 C 416.012 -1.36201 2.41546 0
M  V30 4298 H 418.963 -0.337698 1.55065 0
M  V30 4299 H 418.984 -2.90196 2.46103 0
M  V30 4300 H 418.496 -1.46987 3.59188 0
M  V30 4301 H 416.597 -3.22724 1.86225 0
M  V30 4302 H 416.71 -3.00296 3.73308 0
M  V30 4303 H 415.074 -1.67068 1.9225 0
M  V30 4304 H 415.857 -0.787425 3.34147 0
M  V30 4305 N 418.302 -1.35869 -0.798587 0
M  V30 4306 C 419.25 -1.29491 -1.93222 0
M  V30 4307 C 420.244 -0.18836 -1.6835 0
M  V30 4308 O 421.45 -0.354822 -1.76468 0
M  V30 4309 H 417.825 -0.402901 -0.63496 0
M  V30 4310 H 419.796 -2.25247 -1.9572 0
M  V30 4311 C 418.545 -1.09184 -3.30112 0
M  V30 4312 H 417.868 -1.93574 -3.49813 0
M  V30 4313 H 419.308 -1.08766 -4.09812 0
M  V30 4314 C 417.767 0.203959 -3.36282 0
M  V30 4315 O 418.297 1.19699 -3.83451 0
M  V30 4316 N 416.503 0.245488 -2.89561 0
M  V30 4317 H 416.05 -0.563223 -2.51367 0
M  V30 4318 H 416.008 1.11219 -2.94071 0
M  V30 4319 N 419.78 1.02168 -1.19998 0
M  V30 4320 C 421.191 1.57135 -1.00825 0
M  V30 4321 C 421.542 1.91276 0.436818 0
M  V30 4322 O 420.667 1.71679 1.3174 0
M  V30 4323 C 421.262 2.85514 -1.82393 0
M  V30 4324 C 419.821 3.37027 -1.67601 0
M  V30 4325 C 418.968 2.10388 -1.80644 0
M  V30 4326 H 421.919 0.846106 -1.34264 0
M  V30 4327 H 421.94 3.56711 -1.32429 0
M  V30 4328 H 421.452 2.60634 -2.87561 0
M  V30 4329 H 419.553 3.66878 -0.650485 0
M  V30 4330 H 419.666 4.09572 -2.4857 0
M  V30 4331 H 418.03 2.22601 -1.23778 0
M  V30 4332 H 418.813 1.8794 -2.87286 0
M  V30 4333 N 421.258 1.00505 1.21394 0
M  V30 4334 C 422.168 0.574806 2.27449 0
M  V30 4335 C 423.184 -0.382206 1.6975 0
M  V30 4336 O 424.36 -0.246027 1.99892 0
M  V30 4337 C 421.425 -0.0917414 3.46579 0
M  V30 4338 C 420.486 0.909758 4.1955 0
M  V30 4339 C 419.719 0.274924 5.32991 0
M  V30 4340 O 419.942 -0.928254 5.62796 0
M  V30 4341 O 418.876 0.985877 5.93771 0
M  V30 4342 H 422.702 1.45744 2.66444 0
M  V30 4343 H 420.287 0.773923 1.27792 0
M  V30 4344 H 422.169 -0.464551 4.18832 0
M  V30 4345 H 420.844 -0.948755 3.09484 0
M  V30 4346 H 419.751 1.33372 3.49518 0
M  V30 4347 H 421.084 1.73636 4.60555 0
M  V30 4348 N 422.737 -1.36956 0.779787 0
M  V30 4349 C 423.985 -1.99097 0.347079 0
M  V30 4350 C 424.306 -1.62206 -1.08232 0
M  V30 4351 O 423.576 -0.891373 -1.74446 0
M  V30 4352 H 422.156 -0.736409 0.125342 0
M  V30 4353 H 424.818 -1.67308 0.999696 0
M  V30 4354 H 423.914 -3.09107 0.431162 0
M  V30 4355 N 424.215 -0.530993 -1.48385 0
M  V30 4356 C 425.631 -0.188919 -1.58478 0
M  V30 4357 C 425.831 1.30786 -1.53288 0
M  V30 4358 O 424.887 2.08619 -1.42248 0
M  V30 4359 C 426.2 -0.792343 -2.90073 0
M  V30 4360 C 427.748 -0.76117 -3.03604 0
M  V30 4361 C 428.223 -1.34319 -4.37861 0
M  V30 4362 N 429.714 -1.3052 -4.44431 0
M  V30 4363 C 430.449 -1.72543 -5.46824 0
M  V30 4364 N 429.945 -2.22299 -6.56167 0
M  V30 4365 N 431.738 -1.63773 -5.37712 0
M  V30 4366 H 423.889 -1.50377 -1.50002 0
M  V30 4367 H 426.152 -0.625559 -0.712306 0
M  V30 4368 H 425.858 -1.84323 -2.99529 0
M  V30 4369 H 425.732 -0.270026 -3.76232 0
M  V30 4370 H 428.119 0.280957 -2.93759 0
M  V30 4371 H 428.2 -1.32097 -2.19053 0
M  V30 4372 H 427.844 -2.38425 -4.4846 0
M  V30 4373 H 427.774 -0.759064 -5.21101 0
M  V30 4374 H 430.265 -0.940973 -3.65997 0
M  V30 4375 H 430.578 -2.52356 -7.30436 0
M  V30 4376 H 428.923 -2.26293 -6.57127 0
M  V30 4377 H 432.114 -1.24698 -4.51185 0
M  V30 4378 H 432.287 -1.96844 -6.17379 0
M  V30 4379 N 425.693 1.55336 -0.266172 0
M  V30 4380 C 426.923 2.03506 0.356239 0
M  V30 4381 C 427.331 1.14426 1.50676 0
M  V30 4382 O 426.674 0.155043 1.83045 0
M  V30 4383 C 426.736 3.47848 0.90785 0
M  V30 4384 C 426.4 4.56861 -0.112888 0
M  V30 4385 C 427.397 5.11528 -0.929264 0
M  V30 4386 C 425.082 5.01704 -0.244546 0
M  V30 4387 C 427.076 6.09549 -1.86357 0
M  V30 4388 C 424.763 5.99553 -1.18234 0
M  V30 4389 C 425.761 6.53356 -1.99036 0
M  V30 4390 O 425.449 7.49293 -2.91231 0
M  V30 4391 H 425.181 0.670444 0.08649 0
M  V30 4392 H 427.735 2.01598 -0.39337 0
M  V30 4393 H 425.965 3.46967 1.70737 0
M  V30 4394 H 427.654 3.79407 1.44239 0
M  V30 4395 H 428.42 4.77701 -0.838237 0
M  V30 4396 H 424.299 4.59477 0.374359 0
M  V30 4397 H 427.843 6.51469 -2.49467 0
M  V30 4398 H 423.74 6.32799 -1.27421 0
M  V30 4399 H 424.508 7.66978 -2.8581 0
M  V30 4400 N 427.171 -0.0066808 1.57599 0
M  V30 4401 C 428.399 -0.704087 1.94551 0
M  V30 4402 C 428.814 -1.67677 0.867746 0
M  V30 4403 O 428.171 -1.8185 -0.153925 0
M  V30 4404 C 428.222 -1.44177 3.31505 0
M  V30 4405 O 427.943 -0.508097 4.35144 0
M  V30 4406 C 429.444 -2.23429 3.82876 0
M  V30 4407 H 426.664 -0.196523 0.641576 0
M  V30 4408 H 429.208 0.042453 2.04456 0
M  V30 4409 H 427.363 -2.13999 3.22929 0
M  V30 4410 H 427.777 -1.02782 5.14331 0
M  V30 4411 H 429.251 -2.70552 4.8115 0
M  V30 4412 H 429.728 -3.05818 3.15233 0
M  V30 4413 H 430.334 -1.58636 3.94607 0
M  V30 4414 N 428.649 -1.55105 -0.279332 0
M  V30 4415 C 429.896 -1.75412 -1.01177 0
M  V30 4416 C 430.224 -0.551728 -1.86511 0
M  V30 4417 O 429.479 0.465919 -1.90073 0
M  V30 4418 C 429.778 -3.0086 -1.92919 0
M  V30 4419 C 429.444 -4.33689 -1.23387 0
M  V30 4420 C 428.106 -4.69792 -1.04159 0
M  V30 4421 C 430.458 -5.15941 -0.738562 0
M  V30 4422 C 427.786 -5.85707 -0.341166 0
M  V30 4423 C 430.138 -6.32579 -0.0517636 0
M  V30 4424 C 428.802 -6.67326 0.152292 0
M  V30 4425 H 428.072 -0.641879 -0.370233 0
M  V30 4426 H 430.719 -1.89373 -0.284627 0
M  V30 4427 H 429.024 -2.81773 -2.72234 0
M  V30 4428 H 430.721 -3.13768 -2.49701 0
M  V30 4429 H 427.311 -4.05309 -1.39364 0
M  V30 4430 H 431.495 -4.8853 -0.874764 0
M  V30 4431 H 426.751 -6.11157 -0.172287 0
M  V30 4432 H 430.925 -6.9557 0.339828 0
M  V30 4433 H 428.552 -7.56998 0.697014 0
M  V30 4434 N 430.127 0.543554 -1.4793 0
M  V30 4435 C 431.375 1.29752 -1.54948 0
M  V30 4436 C 431.696 1.93764 -0.219242 0
M  V30 4437 O 430.966 1.80639 0.75805 0
M  V30 4438 H 429.546 0.481874 -0.570795 0
M  V30 4439 H 432.208 0.633636 -1.84312 0
M  V30 4440 H 431.304 2.08392 -2.32334 0
M  V30 4441 N 431.605 1.3629 0.791371 0
M  V30 4442 C 432.568 1.30309 1.88553 0
M  V30 4443 C 433.568 0.211204 1.59407 0
M  V30 4444 O 434.758 0.465865 1.67855 0
M  V30 4445 C 431.89 1.01956 3.25297 0
M  V30 4446 H 433.083 2.27614 1.95273 0
M  V30 4447 H 430.636 1.21035 0.988953 0
M  V30 4448 H 431.371 0.050998 3.2426 0
M  V30 4449 H 431.156 1.80968 3.4784 0
M  V30 4450 H 432.646 1.0037 4.05359 0
M  V30 4451 N 433.083 -1.0153 1.20538 0
M  V30 4452 C 434.308 -1.79283 1.04271 0
M  V30 4453 C 434.733 -1.8372 -0.403544 0
M  V30 4454 O 434.091 -1.27321 -1.2907 0
M  V30 4455 C 434.139 -3.21535 1.63241 0
M  V30 4456 O 433.243 -4.03099 0.870908 0
M  V30 4457 H 432.584 -0.55293 0.367647 0
M  V30 4458 H 435.114 -1.27696 1.59859 0
M  V30 4459 H 435.124 -3.72243 1.6703 0
M  V30 4460 H 433.799 -3.1762 2.68497 0
M  V30 4461 H 432.376 -3.61693 0.907323 0
M  V30 4462 N 434.561 -1.01147 -1.20859 0
M  V30 4463 C 435.801 -0.706331 -1.91808 0
M  V30 4464 C 436.165 0.749736 -1.76757 0
M  V30 4465 O 437.366 1.16716 -2.42138 0
M  V30 4466 C 435.637 -1.12371 -3.39275 0
M  V30 4467 S 437.196 -0.939764 -4.28619 0
M  V30 4468 H 434.014 -0.257665 -0.662669 0
M  V30 4469 H 436.616 -1.29766 -1.46223 0
M  V30 4470 H 435.32 -2.17943 -3.47749 0
M  V30 4471 H 434.851 -0.524952 -3.89882 0
M  V30 4472 H 436.866 0.159556 -4.95943 0
M  V30 4473 N 436.039 1.36541 -0.78704 0
M  V30 4474 C 437.285 1.99599 -0.358872 0
M  V30 4475 C 437.618 1.62323 1.06606 0
M  V30 4476 O 436.893 0.876858 1.73613 0
M  V30 4477 C 437.176 3.56327 -0.519944 0
M  V30 4478 C 437.029 4.03464 -1.98839 0
M  V30 4479 C 438.348 4.4005 0.0664737 0
M  V30 4480 H 435.467 0.725107 -0.131869 0
M  V30 4481 H 438.109 1.6199 -0.992936 0
M  V30 4482 H 436.259 3.88495 0.0198321 0
M  V30 4483 H 437.931 3.81793 -2.58905 0
M  V30 4484 H 436.174 3.55092 -2.49183 0
M  V30 4485 H 436.845 5.12439 -2.05207 0
M  V30 4486 H 439.321 4.14228 -0.394267 0
M  V30 4487 H 438.197 5.48847 -0.0762682 0
M  V30 4488 H 438.458 4.26655 1.15835 0
M  V30 4489 N 437.518 0.538854 1.48102 0
M  V30 4490 C 438.746 0.0123136 2.06896 0
M  V30 4491 C 439.161 -1.27312 1.39417 0
M  V30 4492 O 438.518 -1.75949 0.484582 0
M  V30 4493 C 438.569 -0.206118 3.60912 0
M  V30 4494 O 438.29 1.0284 4.25859 0
M  V30 4495 C 439.791 -0.772033 4.36526 0
M  V30 4496 H 437.011 0.0375239 0.66995 0
M  V30 4497 H 439.555 0.747032 1.90367 0
M  V30 4498 H 437.71 -0.89091 3.77017 0
M  V30 4499 H 438.124 0.814654 5.18135 0
M  V30 4500 H 439.598 -0.874251 5.45033 0
M  V30 4501 H 440.075 -1.77904 4.01555 0
M  V30 4502 H 440.681 -0.123526 4.25121 0
M  V30 4503 N 438.996 -1.55193 0.274407 0
M  V30 4504 C 439.959 -2.212 -0.600279 0
M  V30 4505 C 440.959 -1.18963 -1.08187 0
M  V30 4506 O 442.149 -1.43873 -0.982158 0
M  V30 4507 C 439.281 -2.87739 -1.82809 0
M  V30 4508 H 440.474 -2.9989 -0.0239682 0
M  V30 4509 H 438.027 -1.5628 0.0250192 0
M  V30 4510 H 438.762 -2.13058 -2.44493 0
M  V30 4511 H 438.547 -3.62658 -1.49069 0
M  V30 4512 H 440.037 -3.38171 -2.45011 0
M  V30 4513 N 440.474 -0.00167713 -1.576 0
M  V30 4514 C 441.714 0.687302 -1.92498 0
M  V30 4515 C 442.078 1.70844 -0.876144 0
M  V30 4516 O 443.279 2.44792 -1.11043 0
M  V30 4517 C 441.55 1.31217 -3.32441 0
M  V30 4518 S 443.109 2.02604 -3.89226 0
M  V30 4519 H 439.927 0.226985 -0.673794 0
M  V30 4520 H 442.529 -0.0587666 -1.95412 0
M  V30 4521 H 441.233 0.556164 -4.06614 0
M  V30 4522 H 440.764 2.09613 -3.32905 0
M  V30 4523 H 442.779 3.30137 -3.70438 0
M  V30 4524 N 441.952 1.55251 0.271103 0
M  V30 4525 C 443.363 1.66635 0.842007 0
M  V30 4526 C 443.714 0.594631 1.86972 0
M  V30 4527 O 442.839 -0.263532 2.14789 0
M  V30 4528 C 443.434 3.02082 1.53401 0
M  V30 4529 C 441.993 3.15487 2.05293 0
M  V30 4530 C 441.14 2.62438 0.895631 0
M  V30 4531 H 444.091 1.58629 0.0474117 0
M  V30 4532 H 444.112 2.95176 2.40107 0
M  V30 4533 H 443.624 3.80062 0.785786 0
M  V30 4534 H 441.725 2.42284 2.83071 0
M  V30 4535 H 441.838 4.22075 2.26693 0
M  V30 4536 H 440.202 2.19644 1.28953 0
M  V30 4537 H 440.985 3.42923 0.160878 0
M  V30 4538 N 443.43 -0.535701 1.48216 0
M  V30 4539 C 444.66 -1.3148 1.59363 0
M  V30 4540 C 445.068 -1.8753 0.250844 0
M  V30 4541 O 444.411 -1.66821 -0.769174 0
M  V30 4542 C 444.473 -2.50731 2.57632 0
M  V30 4543 C 444.137 -2.15811 4.02833 0
M  V30 4544 C 445.134 -1.71822 4.90686 0
M  V30 4545 C 442.819 -2.26509 4.48329 0
M  V30 4546 C 444.813 -1.3899 6.22062 0
M  V30 4547 C 442.5 -1.93289 5.79726 0
M  V30 4548 C 443.498 -1.49599 6.66415 0
M  V30 4549 O 443.186 -1.16812 7.95368 0
M  V30 4550 H 442.918 -0.406315 0.540263 0
M  V30 4551 H 445.472 -0.653569 1.94725 0
M  V30 4552 H 443.702 -3.19817 2.1738 0
M  V30 4553 H 445.391 -3.12797 2.58675 0
M  V30 4554 H 446.157 -1.63031 4.56778 0
M  V30 4555 H 442.036 -2.59471 3.81045 0
M  V30 4556 H 445.58 -1.04816 6.89681 0
M  V30 4557 H 441.477 -2.01718 6.13172 0
M  V30 4558 H 442.245 -1.30259 8.08069 0
M  V30 4559 N 444.908 -1.36708 -0.784132 0
M  V30 4560 C 445.856 -1.31533 -1.91838 0
M  V30 4561 C 446.85 -0.206205 -1.6814 0
M  V30 4562 O 448.056 -0.373519 -1.76082 0
M  V30 4563 H 444.431 -0.409613 -0.630651 0
M  V30 4564 H 446.402 -2.2731 -1.9332 0
M  V30 4565 C 445.151 -1.12679 -3.28936 0
M  V30 4566 H 444.474 -1.97274 -3.4774 0
M  V30 4567 H 445.914 -1.13106 -4.08636 0
M  V30 4568 C 444.373 0.168281 -3.36479 0
M  V30 4569 O 444.903 1.15625 -3.84699 0
M  V30 4570 N 443.109 0.214762 -2.89805 0
M  V30 4571 H 442.656 -0.589852 -2.50756 0
M  V30 4572 H 442.614 1.08094 -2.95234 0
M  V30 4573 N 446.386 1.0089 -1.21074 0
M  V30 4574 C 447.616 1.77933 -1.04993 0
M  V30 4575 C 448.024 1.84847 0.403495 0
M  V30 4576 O 447.367 1.30606 1.29181 0
M  V30 4577 C 447.429 3.23541 -1.56722 0
M  V30 4578 C 447.093 3.40214 -3.05129 0
M  V30 4579 C 448.09 3.2881 -4.02716 0
M  V30 4580 C 445.775 3.65781 -3.44252 0
M  V30 4581 C 447.769 3.42732 -5.37414 0
M  V30 4582 C 445.456 3.79346 -4.79103 0
M  V30 4583 C 446.454 3.67827 -5.75493 0
M  V30 4584 O 446.142 3.80965 -7.07899 0
M  V30 4585 H 445.874 0.566157 -0.369381 0
M  V30 4586 H 448.428 1.27826 -1.60779 0
M  V30 4587 H 446.658 3.74766 -0.953285 0
M  V30 4588 H 448.347 3.82245 -1.36543 0
M  V30 4589 H 449.113 3.08986 -3.73835 0
M  V30 4590 H 444.992 3.73831 -2.69762 0
M  V30 4591 H 448.536 3.33658 -6.12632 0
M  V30 4592 H 444.433 3.98672 -5.07672 0
M  V30 4593 H 445.201 3.97937 -7.15254 0
M  V30 4594 N 447.864 1.01787 1.20321 0
M  V30 4595 C 448.794 0.609625 2.25401 0
M  V30 4596 C 449.775 -0.375951 1.65893 0
M  V30 4597 O 450.96 -0.261101 1.92437 0
M  V30 4598 C 448.09 -0.0515995 3.47262 0
M  V30 4599 C 447.044 0.855095 4.19371 0
M  V30 4600 C 446.37 0.0595757 5.34667 0
M  V30 4601 C 447.67 2.16374 4.75373 0
M  V30 4602 H 449.364 1.48803 2.59804 0
M  V30 4603 H 446.91 0.716934 1.24884 0
M  V30 4604 H 448.863 -0.348764 4.19954 0
M  V30 4605 H 447.587 -0.964726 3.12027 0
M  V30 4606 H 446.246 1.13628 3.48546 0
M  V30 4607 H 445.894 -0.85524 4.95676 0
M  V30 4608 H 445.594 0.663406 5.83843 0
M  V30 4609 H 447.118 -0.231105 6.10162 0
M  V30 4610 H 448.532 1.92885 5.39878 0
M  V30 4611 H 446.929 2.71853 5.34991 0
M  V30 4612 H 447.999 2.82589 3.94045 0
M  V30 4613 N 449.342 -1.36122 0.79427 0
M  V30 4614 C 450.567 -2.03891 0.379871 0
M  V30 4615 C 450.992 -1.59488 -0.997251 0
M  V30 4616 O 450.35 -0.765652 -1.64339 0
M  V30 4617 C 450.398 -3.57687 0.457442 0
M  V30 4618 O 449.502 -4.08931 -0.5338 0
M  V30 4619 H 448.843 -0.6443 0.160541 0
M  V30 4620 H 451.373 -1.73976 1.07673 0
M  V30 4621 H 451.383 -4.06721 0.322792 0
M  V30 4622 H 450.058 -3.89357 1.46199 0
M  V30 4623 H 448.635 -3.71154 -0.360409 0
M  V30 4624 N 450.82 -0.546701 -1.47814 0
M  V30 4625 C 452.048 -0.0232857 -2.06887 0
M  V30 4626 C 452.463 1.26571 -1.4009 0
M  V30 4627 O 451.82 1.7569 -0.493906 0
M  V30 4628 C 451.871 0.186975 -3.61016 0
M  V30 4629 O 451.592 -1.05097 -4.25307 0
M  V30 4630 C 453.093 0.748872 -4.36929 0
M  V30 4631 H 450.313 -0.0410763 -0.669742 0
M  V30 4632 H 452.857 -0.757117 -1.89968 0
M  V30 4633 H 451.012 0.870903 -3.77484 0
M  V30 4634 H 451.426 -0.842121 -5.17695 0
M  V30 4635 H 452.9 0.845334 -5.45489 0
M  V30 4636 H 453.377 1.75772 -4.02493 0
M  V30 4637 H 453.983 0.100979 -4.2518 0
M  V30 4638 N 452.299 1.55045 -0.282633 0
M  V30 4639 C 453.576 1.9179 0.384166 0
M  V30 4640 C 453.956 1.20778 1.73136 0
M  V30 4641 O 453.304 0.33719 2.25998 0
M  V30 4642 C 453.514 3.45149 0.517014 0
M  V30 4643 C 454.862 4.17064 0.796427 0
M  V30 4644 O 455.886 3.51084 0.601535 0
M  V30 4645 O 454.745 5.33837 1.16962 0
M  V30 4646 H 451.839 0.799483 0.211558 0
M  V30 4647 H 454.385 1.66474 -0.32934 0
M  V30 4648 H 453.157 3.88922 -0.430772 0
M  V30 4649 H 452.78 3.76443 1.2797 0
M  V30 4650 N 453.777 0.010035 1.57597 0
M  V30 4651 C 455.023 -0.673697 1.91283 0
M  V30 4652 C 455.356 -1.72863 0.884979 0
M  V30 4653 O 454.631 -1.94268 -0.0949487 0
M  V30 4654 C 454.914 -1.30766 3.35518 0
M  V30 4655 C 454.767 -0.263578 4.49027 0
M  V30 4656 C 456.086 -2.23105 3.79358 0
M  V30 4657 H 453.205 -0.243439 0.695634 0
M  V30 4658 H 455.847 0.0633864 1.89894 0
M  V30 4659 H 453.997 -1.93588 3.36832 0
M  V30 4660 H 455.669 0.365738 4.59848 0
M  V30 4661 H 453.912 0.413077 4.31829 0
M  V30 4662 H 454.583 -0.746398 5.4693 0
M  V30 4663 H 457.059 -1.70289 3.79659 0
M  V30 4664 H 455.935 -2.64424 4.81011 0
M  V30 4665 H 456.196 -3.11433 3.13787 0
M  V30 4666 N 455.255 -1.55392 -0.262866 0
M  V30 4667 C 456.503 -1.76127 -0.991147 0
M  V30 4668 C 456.824 -0.571083 -1.8645 0
M  V30 4669 O 456.094 0.413698 -1.91482 0
M  V30 4670 H 454.674 -0.649528 -0.368948 0
M  V30 4671 H 457.336 -1.9281 -0.284655 0
M  V30 4672 H 456.432 -2.6663 -1.62219 0
M  V30 4673 N 456.733 0.527833 -1.48498 0
M  V30 4674 C 457.958 1.313 -1.60546 0
M  V30 4675 C 458.383 1.86199 -0.26672 0
M  V30 4676 O 457.741 1.64513 0.761918 0
M  V30 4677 C 457.789 2.43818 -2.65678 0
M  V30 4678 O 456.893 3.46916 -2.22987 0
M  V30 4679 H 456.234 0.388784 -0.538277 0
M  V30 4680 H 458.764 0.634896 -1.945 0
M  V30 4681 H 458.774 2.89973 -2.87018 0
M  V30 4682 H 457.449 2.03222 -3.62869 0
M  V30 4683 H 456.026 3.06864 -2.11869 0
M  V30 4684 N 458.211 1.37122 0.776871 0
M  V30 4685 C 459.451 1.33441 1.54831 0
M  V30 4686 C 459.815 -0.0818963 1.91825 0
M  V30 4687 O 461.016 -0.24338 2.67696 0
M  V30 4688 C 459.287 2.24267 2.78279 0
M  V30 4689 S 460.846 2.38389 3.68397 0
M  V30 4690 H 457.664 0.473791 0.530135 0
M  V30 4691 H 460.266 1.7282 0.913968 0
M  V30 4692 H 458.97 3.261 2.49173 0
M  V30 4693 H 458.501 1.85953 3.46677 0
M  V30 4694 H 460.516 1.59068 4.70013 0
M  V30 4695 N 459.689 -1.00246 1.21608 0
M  V30 4696 C 460.917 -1.77631 1.06089 0
M  V30 4697 C 461.332 -1.84746 -0.38916 0
M  V30 4698 O 460.689 -1.31068 -1.26994 0
M  V30 4699 C 460.74 -3.21415 1.65453 0
M  V30 4700 O 460.461 -3.14703 3.04785 0
M  V30 4701 C 461.962 -4.15289 1.55079 0
M  V30 4702 H 459.182 -0.558162 0.37242 0
M  V30 4703 H 461.726 -1.26093 1.60999 0
M  V30 4704 H 459.881 -3.70053 1.14629 0
M  V30 4705 H 460.295 -4.05056 3.33212 0
M  V30 4706 H 461.769 -5.13965 2.01355 0
M  V30 4707 H 462.246 -4.36279 0.505665 0
M  V30 4708 H 462.852 -3.72543 2.05163 0
M  V30 4709 N 461.167 -1.02423 -1.1978 0
M  V30 4710 C 462.097 -0.62157 -2.25075 0
M  V30 4711 C 463.078 0.367148 -1.6609 0
M  V30 4712 O 464.263 0.250892 -1.92573 0
M  V30 4713 C 461.393 0.0331826 -3.47284 0
M  V30 4714 C 460.347 -0.877323 -4.18912 0
M  V30 4715 C 459.673 -0.0879296 -5.34628 0
M  V30 4716 C 460.973 -2.18892 -4.74219 0
M  V30 4717 H 462.667 -1.50179 -2.59011 0
M  V30 4718 H 460.213 -0.723547 -1.24502 0
M  V30 4719 H 462.166 0.326488 -4.20133 0
M  V30 4720 H 460.89 0.948164 -3.12534 0
M  V30 4721 H 459.549 -1.15475 -3.47938 0
M  V30 4722 H 459.197 0.828941 -4.96123 0
M  V30 4723 H 458.897 -0.694359 -5.83483 0
M  V30 4724 H 460.421 0.198743 -6.10276 0
M  V30 4725 H 461.835 -1.95746 -5.38847 0
M  V30 4726 H 460.232 -2.74686 -5.33542 0
M  V30 4727 H 461.302 -2.84674 -3.92541 0
M  V30 4728 N 462.645 1.35699 -0.801477 0
M  V30 4729 C 463.891 1.99208 -0.380022 0
M  V30 4730 C 464.224 1.63445 1.04878 0
M  V30 4731 O 463.499 0.895223 1.72673 0
M  V30 4732 C 463.782 3.55755 -0.557708 0
M  V30 4733 C 463.635 4.01332 -2.03107 0
M  V30 4734 C 464.954 4.40096 0.0197968 0
M  V30 4735 H 462.073 0.723667 -0.139552 0
M  V30 4736 H 464.715 1.60928 -1.01006 0
M  V30 4737 H 462.865 3.88494 -0.0213741 0
M  V30 4738 H 464.537 3.79026 -2.62939 0
M  V30 4739 H 462.78 3.52429 -2.52936 0
M  V30 4740 H 463.451 5.10234 -2.1063 0
M  V30 4741 H 465.927 4.13786 -0.438179 0
M  V30 4742 H 464.803 5.48735 -0.134477 0
M  V30 4743 H 465.064 4.2786 1.11303 0
M  V30 4744 N 464.123 0.554532 1.47522 0
M  V30 4745 C 465.363 0.0317994 2.04375 0
M  V30 4746 C 465.727 -1.29242 1.41988 0
M  V30 4747 O 466.928 -1.90269 1.89872 0
M  V30 4748 C 465.199 -0.0623344 3.57346 0
M  V30 4749 S 466.758 -0.531578 4.35568 0
M  V30 4750 H 463.576 0.0238553 0.7106 0
M  V30 4751 H 466.178 0.74066 1.80927 0
M  V30 4752 H 464.882 0.905857 4.00278 0
M  V30 4753 H 464.413 -0.794831 3.85287 0
M  V30 4754 H 466.428 -1.79175 4.62721 0
M  V30 4755 N 465.601 -1.54893 0.290851 0
M  V30 4756 C 467.012 -1.85584 -0.203816 0
M  V30 4757 C 467.363 -1.21285 -1.54222 0
M  V30 4758 O 466.488 -0.506841 -2.10381 0
M  V30 4759 C 467.083 -3.367 -0.376595 0
M  V30 4760 C 465.642 -3.6746 -0.815485 0
M  V30 4761 C 464.789 -2.77178 0.0821087 0
M  V30 4762 H 467.74 -1.50208 0.512175 0
M  V30 4763 H 467.761 -3.60656 -1.21275 0
M  V30 4764 H 467.273 -3.8347 0.59767 0
M  V30 4765 H 465.374 -3.26201 -1.80066 0
M  V30 4766 H 465.487 -4.7478 -0.641905 0
M  V30 4767 H 463.851 -2.50925 -0.436895 0
M  V30 4768 H 464.634 -3.26767 1.05254 0
M  V30 4769 N 467.08 -0.0183926 -1.57589 0
M  V30 4770 C 468.01 0.965596 -2.12599 0
M  V30 4771 C 468.991 1.34641 -1.0395 0
M  V30 4772 O 470.176 1.42693 -1.31729 0
M  V30 4773 C 467.306 2.25149 -2.64434 0
M  V30 4774 C 466.26 2.01175 -3.77773 0
M  V30 4775 C 465.586 3.35937 -4.15994 0
M  V30 4776 C 466.886 1.35953 -5.04296 0
M  V30 4777 H 468.58 0.507504 -2.95067 0
M  V30 4778 H 466.126 0.242671 -1.41941 0
M  V30 4779 H 468.079 2.94357 -3.01549 0
M  V30 4780 H 466.803 2.73105 -1.79112 0
M  V30 4781 H 465.462 1.34388 -3.4108 0
M  V30 4782 H 465.11 3.81631 -3.27669 0
M  V30 4783 H 464.81 3.20705 -4.92364 0
M  V30 4784 H 466.334 4.0643 -4.55683 0
M  V30 4785 H 467.748 1.95144 -5.39065 0
M  V30 4786 H 466.145 1.31152 -5.85593 0
M  V30 4787 H 467.215 0.331071 -4.83768 0
M  V30 4788 N 468.558 1.5553 0.254621 0
M  V30 4789 C 469.508 1.86057 1.31783 0
M  V30 4790 C 470.492 0.720827 1.4385 0
M  V30 4791 O 471.684 0.982586 1.47222 0
M  V30 4792 C 468.813 2.15203 2.67475 0
M  V30 4793 C 467.899 3.35484 2.59444 0
M  V30 4794 N 468.29 4.54945 2.2104 0
M  V30 4795 C 466.588 3.38441 2.90472 0
M  V30 4796 C 467.289 5.3707 2.23453 0
M  V30 4797 N 466.265 4.75936 2.62652 0
M  V30 4798 H 470.067 2.75953 1.01129 0
M  V30 4799 H 467.581 1.55653 0.463255 0
M  V30 4800 H 469.578 2.35235 3.44195 0
M  V30 4801 H 468.238 1.26601 2.99002 0
M  V30 4802 H 469.249 4.8071 1.92712 0
M  V30 4803 H 465.926 2.60087 3.2659 0
M  V30 4804 H 467.316 6.42626 1.96166 0
M  V30 4805 N 470.036 -0.519951 1.48776 0
M  V30 4806 C 470.984 -1.64443 1.64503 0
M  V30 4807 C 471.978 -1.61501 0.511248 0
M  V30 4808 O 473.184 -1.66238 0.690294 0
M  V30 4809 H 469.559 -0.544776 0.518385 0
M  V30 4810 H 471.53 -1.48325 2.58925 0
M  V30 4811 C 470.279 -3.02673 1.71127 0
M  V30 4812 H 469.602 -3.05635 2.57735 0
M  V30 4813 H 471.042 -3.80941 1.86172 0
M  V30 4814 C 469.501 -3.33854 0.452032 0
M  V30 4815 O 470.031 -3.99385 -0.430678 0
M  V30 4816 N 468.237 -2.88825 0.32069 0
M  V30 4817 H 467.784 -2.35674 1.03998 0
M  V30 4818 H 467.742 -3.10056 -0.520814 0
M  V30 4819 N 471.514 -1.37532 -0.769588 0
M  V30 4820 C 472.446 -1.29347 -1.89214 0
M  V30 4821 C 473.459 -0.208842 -1.61455 0
M  V30 4822 O 474.648 -0.465158 -1.72333 0
M  V30 4823 C 471.748 -0.977649 -3.24492 0
M  V30 4824 C 470.921 -2.16817 -3.7988 0
M  V30 4825 C 469.98 -1.82229 -4.93639 0
M  V30 4826 O 469.006 -2.54548 -5.09111 0
M  V30 4827 N 470.208 -0.767696 -5.75401 0
M  V30 4828 H 472.973 -2.26073 -1.96751 0
M  V30 4829 H 470.534 -1.31185 -0.948795 0
M  V30 4830 H 472.526 -0.727065 -3.98115 0
M  V30 4831 H 471.096 -0.0988777 -3.12444 0
M  V30 4832 H 470.316 -2.58038 -2.9801 0
M  V30 4833 H 471.604 -2.96308 -4.13617 0
M  V30 4834 H 471.002 -0.167626 -5.65452 0
M  V30 4835 H 469.559 -0.576973 -6.49241 0
M  V30 4836 N 472.992 0.995999 -1.22138 0
M  V30 4837 C 473.902 2.11985 -1.00496 0
M  V30 4838 C 474.918 1.7394 0.0457701 0
M  V30 4839 O 476.094 2.00868 -0.146273 0
M  V30 4840 C 473.159 3.41779 -0.582086 0
M  V30 4841 C 472.22 3.93943 -1.70608 0
M  V30 4842 C 471.453 5.17542 -1.30328 0
M  V30 4843 O 471.676 5.70114 -0.180743 0
M  V30 4844 O 470.61 5.63382 -2.11861 0
M  V30 4845 H 474.436 2.33123 -1.94647 0
M  V30 4846 H 472.021 1.10358 -1.00705 0
M  V30 4847 H 473.903 4.1989 -0.356467 0
M  V30 4848 H 472.578 3.22007 0.330592 0
M  V30 4849 H 471.485 3.17019 -1.98619 0
M  V30 4850 H 472.818 4.18141 -2.59651 0
M  V30 4851 N 474.47 1.03057 1.19235 0
M  V30 4852 C 475.716 0.729098 1.89241 0
M  V30 4853 C 476.049 -0.740573 1.79525 0
M  V30 4854 O 475.324 -1.53946 1.18874 0
M  V30 4855 C 475.607 1.18304 3.40112 0
M  V30 4856 C 475.46 2.71406 3.5869 0
M  V30 4857 C 476.779 0.765161 4.33397 0
M  V30 4858 H 473.898 0.266338 0.687192 0
M  V30 4859 H 476.54 1.28079 1.40341 0
M  V30 4860 H 474.69 0.713672 3.81889 0
M  V30 4861 H 476.362 3.26303 3.26074 0
M  V30 4862 H 474.605 3.11717 3.01687 0
M  V30 4863 H 475.276 2.98225 4.64506 0
M  V30 4864 H 477.752 1.16889 3.99345 0
M  V30 4865 H 476.628 1.11065 5.37546 0
M  V30 4866 H 476.889 -0.332372 4.40849 0
M  V30 4867 N 475.948 -1.35272 0.808662 0
M  V30 4868 C 477.176 -2.02946 0.402537 0
M  V30 4869 C 477.591 -1.60937 -0.987147 0
M  V30 4870 O 476.948 -0.807917 -1.63643 0
M  V30 4871 C 476.999 -3.58317 0.47868 0
M  V30 4872 O 476.72 -3.98799 1.81358 0
M  V30 4873 C 478.221 -4.43251 0.0656281 0
M  V30 4874 H 475.441 -0.650831 0.163279 0
M  V30 4875 H 477.985 -1.72849 1.09286 0
M  V30 4876 H 476.14 -3.87055 -0.163415 0
M  V30 4877 H 476.554 -4.93451 1.77781 0
M  V30 4878 H 478.028 -5.51738 0.170017 0
M  V30 4879 H 478.505 -4.27913 -0.989278 0
M  V30 4880 H 479.111 -4.19813 0.68096 0
M  V30 4881 N 477.426 -0.562348 -1.47226 0
M  V30 4882 C 478.389 0.172056 -2.28553 0
M  V30 4883 C 479.389 0.837928 -1.37242 0
M  V30 4884 O 480.579 0.693001 -1.59822 0
M  V30 4885 C 477.711 1.25223 -3.17068 0
M  V30 4886 H 478.904 -0.542401 -2.94954 0
M  V30 4887 H 476.457 -0.319493 -1.53 0
M  V30 4888 H 477.192 1.99892 -2.55369 0
M  V30 4889 H 476.977 0.779515 -3.84273 0
M  V30 4890 H 478.467 1.76791 -3.78332 0
M  V30 4891 N 478.904 1.54736 -0.299062 0
M  V30 4892 C 479.814 2.27127 0.587413 0
M  V30 4893 C 480.83 1.30575 1.15005 0
M  V30 4894 O 482.006 1.63554 1.17525 0
M  V30 4895 C 479.071 2.99645 1.74395 0
M  V30 4896 C 478.132 4.11731 1.21559 0
M  V30 4897 C 477.365 4.80781 2.317 0
M  V30 4898 O 477.588 4.4918 3.51558 0
M  V30 4899 O 476.522 5.68226 1.98501 0
M  V30 4900 H 480.348 3.037 0.000250109 0
M  V30 4901 H 477.933 1.49256 -0.0655919 0
M  V30 4902 H 479.815 3.45138 2.4178 0
M  V30 4903 H 478.49 2.25969 2.31775 0
M  V30 4904 H 477.397 3.70641 0.507514 0
M  V30 4905 H 478.73 4.87379 0.687233 0
M  V30 4906 N 480.382 0.0267497 1.57577 0
M  V30 4907 C 481.659 -0.690926 1.82991 0
M  V30 4908 C 482.039 -1.90471 0.910164 0
M  V30 4909 O 481.387 -2.28474 -0.0347985 0
M  V30 4910 C 481.597 -1.07139 3.32148 0
M  V30 4911 C 482.945 -1.46402 3.98562 0
M  V30 4912 O 483.969 -1.16443 3.36629 0
M  V30 4913 O 482.828 -2.02214 5.07712 0
M  V30 4914 H 479.922 -0.338747 0.75444 0
M  V30 4915 H 482.468 0.0542506 1.69613 0
M  V30 4916 H 481.24 -0.207394 3.9075 0
M  V30 4917 H 480.863 -1.87481 3.50623 0
M  V30 4918 N 481.861 -1.55662 -0.24637 0
M  V30 4919 C 483.109 -1.77168 -0.972411 0
M  V30 4920 C 483.43 -0.590827 -1.85834 0
M  V30 4921 O 482.7 0.393365 -1.9191 0
M  V30 4922 H 481.28 -0.653405 -0.362038 0
M  V30 4923 H 483.942 -1.93101 -0.264189 0
M  V30 4924 H 483.038 -2.68335 -1.59382 0
M  V30 4925 N 483.339 0.512053 -1.4905 0
M  V30 4926 C 484.567 1.29116 -1.61669 0
M  V30 4927 C 484.982 1.86655 -0.283787 0
M  V30 4928 O 484.339 1.67293 0.729331 0
M  V30 4929 C 484.39 2.4293 -2.67707 0
M  V30 4930 O 484.111 1.87758 -3.95826 0
M  V30 4931 C 485.612 3.34476 -2.90931 0
M  V30 4932 H 482.832 0.392009 -0.544583 0
M  V30 4933 H 485.376 0.615881 -1.95006 0
M  V30 4934 H 483.531 3.06308 -2.37179 0
M  V30 4935 H 483.945 2.62393 -4.54148 0
M  V30 4936 H 485.419 4.10642 -3.68886 0
M  V30 4937 H 485.896 3.90801 -2.00427 0
M  V30 4938 H 486.502 2.76874 -3.22832 0
M  V30 4939 N 484.817 1.37938 0.762283 0
M  V30 4940 C 485.749 1.30349 1.88525 0
M  V30 4941 C 486.762 0.217402 1.61342 0
M  V30 4942 O 487.951 0.474291 1.72084 0
M  V30 4943 C 485.051 0.994844 3.23969 0
M  V30 4944 C 484.224 2.18829 3.78725 0
M  V30 4945 C 483.283 1.84844 4.92665 0
M  V30 4946 O 482.309 2.57244 5.07754 0
M  V30 4947 N 483.511 0.798201 5.74986 0
M  V30 4948 H 486.276 2.27114 1.95549 0
M  V30 4949 H 483.837 1.31686 0.941825 0
M  V30 4950 H 485.829 0.748168 3.97724 0
M  V30 4951 H 484.399 0.115446 3.12387 0
M  V30 4952 H 483.619 2.59615 2.96637 0
M  V30 4953 H 484.907 2.98497 4.1204 0
M  V30 4954 H 484.305 0.197611 5.65355 0
M  V30 4955 H 482.862 0.611396 6.48926 0
M  V30 4956 N 486.295 -0.989507 1.22664 0
M  V30 4957 C 487.711 -1.25395 0.987331 0
M  V30 4958 C 487.911 -1.9899 -0.317056 0
M  V30 4959 O 486.967 -2.30141 -1.03882 0
M  V30 4960 C 488.28 -2.06242 2.18826 0
M  V30 4961 C 489.828 -2.19413 2.23219 0
M  V30 4962 C 490.303 -3.03648 3.42873 0
M  V30 4963 N 491.794 -3.11234 3.43056 0
M  V30 4964 C 492.529 -3.7671 4.32293 0
M  V30 4965 N 492.025 -4.44085 5.31752 0
M  V30 4966 N 493.818 -3.73505 4.2006 0
M  V30 4967 H 485.969 -0.496212 2.06522 0
M  V30 4968 H 488.232 -0.281784 0.905153 0
M  V30 4969 H 487.938 -1.59531 3.13437 0
M  V30 4970 H 487.812 -3.06996 2.19165 0
M  V30 4971 H 490.199 -2.65336 1.29154 0
M  V30 4972 H 490.28 -1.18078 2.26917 0
M  V30 4973 H 489.924 -2.58424 4.37241 0
M  V30 4974 H 489.854 -4.05132 3.36416 0
M  V30 4975 H 492.345 -2.63287 2.71088 0
M  V30 4976 H 492.658 -4.91797 5.96117 0
M  V30 4977 H 491.003 -4.42822 5.35662 0
M  V30 4978 H 494.194 -3.20033 3.41609 0
M  V30 4979 H 494.367 -4.24253 4.8981 0
M  V30 4980 N 487.773 -1.03688 -1.18687 0
M  V30 4981 C 489.013 -0.746858 -1.90267 0
M  V30 4982 C 489.377 0.712075 -1.78307 0
M  V30 4983 O 490.578 1.11553 -2.44559 0
M  V30 4984 C 488.849 -1.19543 -3.36815 0
M  V30 4985 S 490.408 -1.03047 -4.26529 0
M  V30 4986 H 487.226 -0.271663 -0.657054 0
M  V30 4987 H 489.828 -1.32838 -1.43437 0
M  V30 4988 H 488.532 -2.2527 -3.43047 0
M  V30 4989 H 488.063 -0.607533 -3.88681 0
M  V30 4990 H 490.078 0.0543232 -4.9617 0
M  V30 4991 N 489.251 1.34841 -0.815825 0
M  V30 4992 C 490.161 2.33425 -0.234462 0
M  V30 4993 C 491.177 1.62295 0.627413 0
M  V30 4994 O 492.353 1.94109 0.536987 0
M  V30 4995 C 489.418 3.41471 0.599849 0
M  V30 4996 C 488.479 4.28362 -0.283596 0
M  V30 4997 C 487.712 5.31248 0.51099 0
M  V30 4998 O 487.935 5.43056 1.7449 0
M  V30 4999 O 486.869 6.01812 -0.10297 0
M  V30 5000 H 490.695 2.84962 -1.05024 0
M  V30 5001 H 488.28 1.37774 -0.577809 0
M  V30 5002 H 490.162 4.07464 1.07475 0
M  V30 5003 H 488.837 2.9219 1.39308 0
M  V30 5004 H 487.744 3.65318 -0.805836 0
M  V30 5005 H 489.077 4.81066 -1.041 0
M  V30 5006 N 490.729 0.570148 1.46925 0
M  V30 5007 C 491.676 -0.170257 2.30171 0
M  V30 5008 C 492.646 -0.896099 1.39855 0
M  V30 5009 O 493.831 -0.889248 1.68811 0
M  V30 5010 C 490.971 -1.18605 3.24079 0
M  V30 5011 C 490.084 -0.464947 4.29491 0
M  V30 5012 C 489.219 -1.46716 5.10537 0
M  V30 5013 C 488.258 -0.731758 6.0771 0
M  V30 5014 N 487.395 -1.68142 6.81669 0
M  V30 5015 H 492.235 0.545713 2.92961 0
M  V30 5016 H 489.772 0.280938 1.44392 0
M  V30 5017 H 491.73 -1.78771 3.76957 0
M  V30 5018 H 490.36 -1.86989 2.63125 0
M  V30 5019 H 489.412 0.251506 3.79568 0
M  V30 5020 H 490.724 0.110548 4.98677 0
M  V30 5021 H 489.878 -2.14199 5.6763 0
M  V30 5022 H 488.617 -2.07658 4.41282 0
M  V30 5023 H 487.622 -0.0430787 5.49783 0
M  V30 5024 H 488.847 -0.127904 6.7898 0
M  V30 5025 H 486.793 -2.27918 6.15134 0
M  V30 5026 H 486.71 -1.15841 7.47072 0
M  V30 5027 H 487.978 -2.347 7.43328 0
M  V30 5028 N 492.207 -1.54576 0.307264 0
M  V30 5029 C 493.447 -2.02172 -0.300962 0
M  V30 5030 C 493.811 -1.19081 -1.50611 0
M  V30 5031 O 495.012 -1.56405 -2.18612 0
M  V30 5032 C 493.283 -3.51576 -0.642591 0
M  V30 5033 S 494.842 -4.21127 -1.23279 0
M  V30 5034 H 491.66 -0.705021 -0.0920141 0
M  V30 5035 H 494.262 -1.90563 0.436594 0
M  V30 5036 H 492.966 -4.09681 0.242901 0
M  V30 5037 H 492.497 -3.67234 -1.41077 0
M  V30 5038 H 494.512 -4.27426 -2.52034 0
M  V30 5039 N 493.685 -0.035106 -1.57561 0
M  V30 5040 C 494.91 0.655802 -1.96759 0
M  V30 5041 C 495.335 1.64523 -0.911809 0
M  V30 5042 O 494.693 1.80857 0.126673 0
M  V30 5043 C 494.741 1.33326 -3.35047 0
M  V30 5044 O 493.845 2.44866 -3.31835 0
M  V30 5045 H 493.186 0.171807 -0.641388 0
M  V30 5046 H 495.716 -0.0987369 -2.04362 0
M  V30 5047 H 495.726 1.68867 -3.71413 0
M  V30 5048 H 494.401 0.608033 -4.11431 0
M  V30 5049 H 492.978 2.11392 -3.07193 0
M  V30 5050 N 495.163 1.55791 0.238111 0
M  V30 5051 C 496.11 1.9105 1.29493 0
M  V30 5052 C 497.08 0.765733 1.47397 0
M  V30 5053 O 498.265 1.02017 1.61236 0
M  V30 5054 C 495.405 2.21826 2.64362 0
M  V30 5055 C 494.518 3.49153 2.54394 0
M  V30 5056 C 493.653 3.69455 3.81676 0
M  V30 5057 C 492.692 4.90353 3.66361 0
M  V30 5058 N 491.829 5.07131 4.85554 0
M  V30 5059 H 496.669 2.81172 0.987233 0
M  V30 5060 H 494.206 1.39179 0.476203 0
M  V30 5061 H 496.164 2.37675 3.4288 0
M  V30 5062 H 494.794 1.34897 2.93262 0
M  V30 5063 H 493.846 3.41587 1.67399 0
M  V30 5064 H 495.158 4.37818 2.38991 0
M  V30 5065 H 494.312 3.85311 4.68636 0
M  V30 5066 H 493.051 2.7904 3.99985 0
M  V30 5067 H 492.056 4.74464 2.77784 0
M  V30 5068 H 493.281 5.82237 3.49538 0
M  V30 5069 H 491.227 4.19654 5.04209 0
M  V30 5070 H 491.144 5.89899 4.72816 0
M  V30 5071 H 492.412 5.27407 5.73988 0
M  V30 5072 N 496.642 -0.504142 1.49319 0
M  V30 5073 C 498.053 -1.08572 1.51885 0
M  V30 5074 C 498.404 -1.93842 0.303255 0
M  V30 5075 O 497.529 -2.0828 -0.58724 0
M  V30 5076 C 498.124 -1.97574 2.75227 0
M  V30 5077 C 496.683 -2.509 2.80581 0
M  V30 5078 C 495.83 -1.28447 2.45757 0
M  V30 5079 H 498.781 -0.288194 1.56061 0
M  V30 5080 H 498.802 -2.82219 2.55211 0
M  V30 5081 H 498.314 -1.35486 3.63683 0
M  V30 5082 H 496.415 -3.16636 1.96398 0
M  V30 5083 H 496.528 -2.88268 3.82673 0
M  V30 5084 H 494.892 -1.60868 1.97468 0
M  V30 5085 H 495.675 -0.68072 3.36483 0
M  V30 5086 N 498.12 -1.38341 -0.754957 0
M  V30 5087 C 499.36 -1.35888 -1.52689 0
M  V30 5088 C 499.724 0.0513682 -1.91931 0
M  V30 5089 O 500.925 0.200761 -2.68049 0
M  V30 5090 C 499.196 -2.28666 -2.74676 0
M  V30 5091 S 500.755 -2.4422 -3.64558 0
M  V30 5092 H 497.573 -0.482165 -0.522531 0
M  V30 5093 H 500.175 -1.74253 -0.886358 0
M  V30 5094 H 498.879 -3.30023 -2.43953 0
M  V30 5095 H 498.41 -1.91445 -3.43675 0
M  V30 5096 H 500.425 -1.66525 -4.67423 0
M  V30 5097 N 499.598 0.982988 -1.23187 0
M  V30 5098 C 500.561 2.05649 -1.01198 0
M  V30 5099 C 501.561 1.6078 0.0252464 0
M  V30 5100 O 502.751 1.72878 -0.214243 0
M  V30 5101 C 499.883 3.36744 -0.530656 0
M  V30 5102 H 501.076 2.2659 -1.96461 0
M  V30 5103 H 498.629 1.15602 -1.05195 0
M  V30 5104 H 499.364 3.21492 0.425873 0
M  V30 5105 H 499.149 3.7065 -1.2791 0
M  V30 5106 H 500.639 4.15705 -0.397366 0
M  V30 5107 N 501.076 1.04316 1.18135 0
M  V30 5108 C 502.492 0.762858 1.40188 0
M  V30 5109 C 502.692 -0.646547 1.90846 0
M  V30 5110 O 501.748 -1.41036 2.0944 0
M  V30 5111 C 503.061 1.81106 2.40044 0
M  V30 5112 C 504.609 1.83226 2.53766 0
M  V30 5113 C 505.084 2.87044 3.56889 0
M  V30 5114 N 506.575 2.85951 3.64398 0
M  V30 5115 C 507.31 3.62932 4.43923 0
M  V30 5116 N 506.806 4.49672 5.27036 0
M  V30 5117 N 508.599 3.51411 4.38711 0
M  V30 5118 H 500.75 1.95264 0.835805 0
M  V30 5119 H 503.013 0.845017 0.429709 0
M  V30 5120 H 502.719 2.82214 2.09876 0
M  V30 5121 H 502.593 1.64529 3.39426 0
M  V30 5122 H 504.98 0.827869 2.8325 0
M  V30 5123 H 505.061 2.03879 1.54489 0
M  V30 5124 H 504.705 3.87663 3.28145 0
M  V30 5125 H 504.635 2.63645 4.5585 0
M  V30 5126 H 507.126 2.23051 3.05052 0
M  V30 5127 H 507.439 5.05116 5.84874 0
M  V30 5128 H 505.784 4.53738 5.26447 0
M  V30 5129 H 508.975 2.83047 3.72829 0
M  V30 5130 H 509.148 4.11654 5.00445 0
M  V30 5131 N 502.554 -1.34406 0.822964 0
M  V30 5132 C 503.8 -1.98578 0.411666 0
M  V30 5133 C 504.133 -1.65093 -1.02264 0
M  V30 5134 O 503.408 -0.92258 -1.71227 0
M  V30 5135 C 503.691 -3.54823 0.614235 0
M  V30 5136 C 503.544 -3.9805 2.09466 0
M  V30 5137 C 504.863 -4.40071 0.050221 0
M  V30 5138 H 501.982 -0.721355 0.151047 0
M  V30 5139 H 504.624 -1.59301 1.03554 0
M  V30 5140 H 502.774 -3.88411 0.0831774 0
M  V30 5141 H 504.446 -3.74795 2.68936 0
M  V30 5142 H 502.689 -3.4836 2.5851 0
M  V30 5143 H 503.36 -5.06819 2.18721 0
M  V30 5144 H 505.836 -4.13037 0.503953 0
M  V30 5145 H 504.712 -5.48452 0.221759 0
M  V30 5146 H 504.973 -4.29576 -1.04482 0
M  V30 5147 N 504.032 -0.577932 -1.46621 0
M  V30 5148 C 505.272 -0.0643097 -2.04299 0
M  V30 5149 C 505.636 1.26967 -1.44026 0
M  V30 5150 O 506.837 1.87224 -1.92875 0
M  V30 5151 C 505.108 0.00547588 -3.574 0
M  V30 5152 S 506.667 0.462216 -4.36359 0
M  V30 5153 H 503.485 -0.0351573 -0.71013 0
M  V30 5154 H 506.087 -0.76935 -1.79725 0
M  V30 5155 H 504.791 -0.969423 -3.98786 0
M  V30 5156 H 504.322 0.733435 -3.86503 0
M  V30 5157 H 506.337 1.71791 -4.65513 0
M  V30 5158 N 505.51 1.54411 -0.315457 0
M  V30 5159 C 506.74 2.04536 0.291315 0
M  V30 5160 C 507.148 1.19162 1.4696 0
M  V30 5161 O 506.491 0.213199 1.82459 0
M  V30 5162 C 506.553 3.5056 0.796725 0
M  V30 5163 C 506.217 4.5627 -0.258178 0
M  V30 5164 C 507.214 5.08312 -1.09153 0
M  V30 5165 C 504.899 5.00672 -0.404036 0
M  V30 5166 C 506.893 6.03312 -2.05655 0
M  V30 5167 C 504.58 5.95488 -1.37248 0
M  V30 5168 C 505.578 6.46693 -2.19721 0
M  V30 5169 O 505.266 7.39648 -3.14921 0
M  V30 5170 H 504.998 0.672856 0.0651165 0
M  V30 5171 H 507.552 2.00244 -0.457308 0
M  V30 5172 H 505.782 3.52223 1.59612 0
M  V30 5173 H 507.471 3.83804 1.32096 0
M  V30 5174 H 508.237 4.74793 -0.98979 0
M  V30 5175 H 504.116 4.60436 0.22799 0
M  V30 5176 H 507.66 6.43203 -2.70067 0
M  V30 5177 H 503.557 6.28424 -1.47489 0
M  V30 5178 H 504.325 7.57496 -3.10067 0
M  V30 5179 N 506.988 0.0434614 1.5754 0
M  V30 5180 C 508.236 -0.630786 1.92004 0
M  V30 5181 C 508.557 -1.71836 0.921807 0
M  V30 5182 O 507.827 -1.9587 -0.034522 0
M  V30 5183 H 506.407 -0.235988 0.708745 0
M  V30 5184 H 509.069 0.0946462 1.9467 0
M  V30 5185 H 508.165 -1.07434 2.93026 0
M  V30 5186 N 508.466 -1.55915 -0.229846 0
M  V30 5187 C 509.396 -1.94754 -1.28815 0
M  V30 5188 C 510.377 -0.814657 -1.49323 0
M  V30 5189 O 511.562 -1.07631 -1.61645 0
M  V30 5190 C 508.692 -2.25705 -2.63959 0
M  V30 5191 C 507.646 -3.41406 -2.5812 0
M  V30 5192 C 506.972 -3.57941 -3.97218 0
M  V30 5193 C 508.272 -4.76616 -2.13623 0
M  V30 5194 H 509.966 -2.83404 -0.965547 0
M  V30 5195 H 507.512 -1.36353 -0.463028 0
M  V30 5196 H 509.465 -2.51467 -3.38146 0
M  V30 5197 H 508.189 -1.339 -2.9789 0
M  V30 5198 H 506.848 -3.1568 -1.86391 0
M  V30 5199 H 506.496 -2.63526 -4.28443 0
M  V30 5200 H 506.196 -4.35757 -3.94195 0
M  V30 5201 H 507.72 -3.86042 -4.73079 0
M  V30 5202 H 509.134 -5.01637 -2.77549 0
M  V30 5203 H 507.531 -5.57655 -2.21677 0
M  V30 5204 H 508.601 -4.7253 -1.08829 0
M  V30 5205 N 509.944 0.496216 -1.49584 0
M  V30 5206 C 511.192 1.24756 -1.58998 0
M  V30 5207 C 511.513 1.92968 -0.280775 0
M  V30 5208 O 510.783 1.82959 0.700198 0
M  V30 5209 H 509.363 0.463471 -0.585836 0
M  V30 5210 H 512.025 0.574678 -1.86235 0
M  V30 5211 H 511.121 2.00895 -2.38847 0
M  V30 5212 N 511.423 1.38739 0.74761 0
M  V30 5213 C 512.356 1.3083 1.86972 0
M  V30 5214 C 513.334 0.184229 1.61553 0
M  V30 5215 O 514.518 0.36256 1.8498 0
M  V30 5216 C 511.645 1.02854 3.22705 0
M  V30 5217 C 510.691 2.17281 3.67003 0
M  V30 5218 S 511.524 3.79468 3.77842 0
M  V30 5219 C 512.68 3.53692 5.16385 0
M  V30 5220 H 512.913 2.258 1.93395 0
M  V30 5221 H 510.446 1.24646 0.911199 0
M  V30 5222 H 512.404 0.87397 4.01089 0
M  V30 5223 H 511.065 0.0959295 3.13953 0
M  V30 5224 H 510.258 1.93267 4.65472 0
M  V30 5225 H 509.86 2.28876 2.9579 0
M  V30 5226 H 512.152 3.10176 6.02327 0
M  V30 5227 H 513.095 4.51576 5.45422 0
M  V30 5228 H 513.503 2.8807 4.85464 0
M  V30 5229 N 512.901 -0.976442 1.23707 0
M  V30 5230 C 513.811 -2.10359 1.03856 0
M  V30 5231 C 514.827 -1.73991 -0.0180919 0
M  V30 5232 O 516.003 -2.0061 0.178211 0
M  V30 5233 C 513.068 -3.40809 0.636387 0
M  V30 5234 C 512.129 -3.91179 1.76854 0
M  V30 5235 C 511.362 -5.15404 1.38546 0
M  V30 5236 O 511.585 -5.69754 0.27142 0
M  V30 5237 O 510.519 -5.5994 2.20797 0
M  V30 5238 H 514.345 -2.29997 1.98331 0
M  V30 5239 H 511.93 -1.08742 1.02448 0
M  V30 5240 H 513.812 -4.19269 0.423223 0
M  V30 5241 H 512.487 -3.22493 -0.279322 0
M  V30 5242 H 511.394 -3.13819 2.03638 0
M  V30 5243 H 512.727 -4.13958 2.6627 0
M  V30 5244 N 514.379 -1.04941 -1.1758 0
M  V30 5245 C 515.329 -0.618378 -2.19454 0
M  V30 5246 C 516.313 0.343813 -1.57184 0
M  V30 5247 O 517.505 0.16145 -1.76262 0
M  V30 5248 C 514.634 0.00803847 -3.43299 0
M  V30 5249 C 513.72 -0.977827 -4.12673 0
M  V30 5250 N 514.111 -2.14826 -4.57912 0
M  V30 5251 C 512.409 -0.805748 -4.38661 0
M  V30 5252 C 513.11 -2.77174 -5.11419 0
M  V30 5253 N 512.086 -2.04989 -5.03468 0
M  V30 5254 H 515.888 -1.51018 -2.52132 0
M  V30 5255 H 513.402 -0.919201 -1.33882 0
M  V30 5256 H 515.399 0.334584 -4.15555 0
M  V30 5257 H 514.059 0.895272 -3.12114 0
M  V30 5258 H 515.07 -2.52673 -4.52081 0
M  V30 5259 H 511.747 0.0306506 -4.17489 0
M  V30 5260 H 513.137 -3.76416 -5.56562 0
M  V30 5261 N 515.857 1.33968 -0.830081 0
M  V30 5262 C 516.787 2.31911 -0.271911 0
M  V30 5263 C 517.768 1.58571 0.61556 0
M  V30 5264 O 518.953 1.86514 0.540946 0
M  V30 5265 C 516.083 3.42737 0.561146 0
M  V30 5266 C 515.037 4.27383 -0.229789 0
M  V30 5267 C 514.363 5.29742 0.726463 0
M  V30 5268 C 515.663 5.02 -1.44197 0
M  V30 5269 H 517.357 2.78844 -1.09025 0
M  V30 5270 H 514.903 1.34061 -0.52571 0
M  V30 5271 H 516.856 4.10276 0.961867 0
M  V30 5272 H 515.58 2.94471 1.41261 0
M  V30 5273 H 514.239 3.61456 -0.611964 0
M  V30 5274 H 513.887 4.77736 1.57408 0
M  V30 5275 H 513.587 5.87255 0.20142 0
M  V30 5276 H 515.111 6.00149 1.12489 0
M  V30 5277 H 516.525 5.62355 -1.11488 0
M  V30 5278 H 514.922 5.69122 -1.90317 0
M  V30 5279 H 515.992 4.31281 -2.2164 0
M  V30 5280 N 517.335 0.585699 1.46312 0
M  V30 5281 C 518.751 0.247607 1.57668 0
M  V30 5282 C 518.951 -1.25007 1.58037 0
M  V30 5283 O 518.007 -2.03196 1.49893 0
M  V30 5284 C 519.32 0.899456 2.86933 0
M  V30 5285 C 520.868 0.873326 3.00569 0
M  V30 5286 C 521.343 1.50477 4.32574 0
M  V30 5287 N 522.834 1.46925 4.3928 0
M  V30 5288 C 523.569 1.92719 5.40044 0
M  V30 5289 N 523.065 2.46499 6.47464 0
M  V30 5290 N 524.858 1.83617 5.31264 0
M  V30 5291 H 517.009 1.55841 1.44317 0
M  V30 5292 H 519.272 0.651564 0.688599 0
M  V30 5293 H 518.978 1.95313 2.92482 0
M  V30 5294 H 518.852 0.409476 3.74971 0
M  V30 5295 H 521.239 -0.171736 2.946 0
M  V30 5296 H 521.32 1.40136 2.13999 0
M  V30 5297 H 520.964 2.54905 4.39302 0
M  V30 5298 H 520.894 0.951944 5.17924 0
M  V30 5299 H 523.385 1.07616 3.62253 0
M  V30 5300 H 523.698 2.79291 7.20567 0
M  V30 5301 H 522.043 2.50526 6.48276 0
M  V30 5302 H 525.234 1.41358 4.46246 0
M  V30 5303 H 525.407 2.19622 6.09648 0
M  V30 5304 N 518.813 -1.54241 0.323641 0
M  V30 5305 C 519.723 -2.28033 -0.551205 0
M  V30 5306 C 520.739 -1.32388 -1.12913 0
M  V30 5307 O 521.915 -1.65403 -1.14908 0
M  V30 5308 C 518.98 -3.02382 -1.69606 0
M  V30 5309 C 518.041 -4.13612 -1.14993 0
M  V30 5310 C 517.274 -4.84407 -2.24022 0
M  V30 5311 O 517.497 -4.54716 -3.44368 0
M  V30 5312 O 516.431 -5.71312 -1.89436 0
M  V30 5313 H 520.257 -3.03662 0.048066 0
M  V30 5314 H 517.842 -1.49133 0.0893289 0
M  V30 5315 H 519.724 -3.48941 -2.36259 0
M  V30 5316 H 518.399 -2.29628 -2.28151 0
M  V30 5317 H 517.306 -3.71402 -0.448484 0
M  V30 5318 H 518.639 -4.8841 -0.609608 0
M  V30 5319 N 520.291 -0.0518155 -1.57515 0
M  V30 5320 C 521.537 0.622745 -1.93002 0
M  V30 5321 C 521.87 1.70456 -0.930499 0
M  V30 5322 O 521.145 1.94452 0.0434086 0
M  V30 5323 C 521.428 1.21824 -3.38867 0
M  V30 5324 C 521.281 0.144434 -4.49568 0
M  V30 5325 C 522.6 2.12968 -3.8514 0
M  V30 5326 H 519.719 0.22491 -0.701844 0
M  V30 5327 H 522.361 -0.113711 -1.89659 0
M  V30 5328 H 520.511 1.8459 -3.41846 0
M  V30 5329 H 522.183 -0.48753 -4.58717 0
M  V30 5330 H 520.426 -0.527424 -4.30582 0
M  V30 5331 H 521.097 0.601127 -5.48717 0
M  V30 5332 H 523.573 1.60163 -3.8404 0
M  V30 5333 H 522.449 2.51578 -4.87852 0
M  V30 5334 H 522.71 3.03004 -3.21934 0
M  V30 5335 N 521.769 1.56035 0.221574 0
M  V30 5336 C 523.185 1.49026 0.571271 0
M  V30 5337 C 523.385 0.746912 1.87146 0
M  V30 5338 O 522.441 0.286566 2.50869 0
M  V30 5339 C 523.754 2.93579 0.650522 0
M  V30 5340 C 525.302 3.04099 0.741151 0
M  V30 5341 C 525.777 4.5001 0.851747 0
M  V30 5342 N 527.268 4.54053 0.915968 0
M  V30 5343 C 528.003 5.64232 1.02125 0
M  V30 5344 N 527.499 6.84164 1.09049 0
M  V30 5345 N 529.292 5.52084 1.05639 0
M  V30 5346 H 521.443 2.02791 -0.63162 0
M  V30 5347 H 523.706 0.921736 -0.221602 0
M  V30 5348 H 523.412 3.50912 -0.235253 0
M  V30 5349 H 523.286 3.45476 1.51413 0
M  V30 5350 H 525.673 2.4683 1.61737 0
M  V30 5351 H 525.754 2.55371 -0.148128 0
M  V30 5352 H 525.398 5.07896 -0.0200117 0
M  V30 5353 H 525.328 4.96444 1.75644 0
M  V30 5354 H 527.819 3.67683 0.872782 0
M  V30 5355 H 528.132 7.63883 1.1706 0
M  V30 5356 H 526.477 6.86875 1.05962 0
M  V30 5357 H 529.668 4.57317 0.998953 0
M  V30 5358 H 529.841 6.37983 1.13498 0
M  V30 5359 N 523.247 -0.488276 1.49845 0
M  V30 5360 C 524.21 -1.57069 1.66919 0
M  V30 5361 C 525.21 -1.51445 0.540479 0
M  V30 5362 O 526.4 -1.5437 0.807188 0
M  V30 5363 C 523.532 -2.96718 1.67844 0
M  V30 5364 H 524.725 -1.43254 2.63474 0
M  V30 5365 H 522.278 -0.713435 1.39068 0
M  V30 5366 H 523.013 -3.15996 0.7292 0
M  V30 5367 H 522.798 -3.02208 2.49826 0
M  V30 5368 H 524.288 -3.75335 1.83066 0
M  V30 5369 N 524.725 -1.39134 -0.740242 0
M  V30 5370 C 525.971 -1.36273 -1.50192 0
M  V30 5371 C 526.304 0.0430136 -1.94152 0
M  V30 5372 O 525.579 1.00691 -1.66408 0
M  V30 5373 C 525.862 -2.33041 -2.74525 0
M  V30 5374 C 525.715 -3.82535 -2.36617 0
M  V30 5375 C 527.034 -2.27723 -3.76604 0
M  V30 5376 H 524.153 -0.496323 -0.544823 0
M  V30 5377 H 526.795 -1.70085 -0.846815 0
M  V30 5378 H 524.945 -2.04337 -3.30422 0
M  V30 5379 H 526.617 -4.21967 -1.86391 0
M  V30 5380 H 524.86 -3.99565 -1.68909 0
M  V30 5381 H 525.531 -4.45723 -3.2563 0
M  V30 5382 H 528.007 -2.53091 -3.30279 0
M  V30 5383 H 526.883 -2.97519 -4.61274 0
M  V30 5384 H 527.144 -1.28049 -4.2315 0
M  V30 5385 N 526.204 0.969867 -1.24223 0
M  V30 5386 C 527.432 1.74756 -1.10761 0
M  V30 5387 C 527.847 1.85713 0.340041 0
M  V30 5388 O 527.204 1.34389 1.23474 0
M  V30 5389 C 527.255 3.16915 -1.73917 0
M  V30 5390 O 526.976 3.06511 -3.13021 0
M  V30 5391 C 528.477 4.11032 -1.66036 0
M  V30 5392 H 525.697 0.548092 -0.387087 0
M  V30 5393 H 528.241 1.2178 -1.64286 0
M  V30 5394 H 526.396 3.66884 -1.244 0
M  V30 5395 H 526.81 3.96079 -3.43834 0
M  V30 5396 H 528.284 5.08446 -2.14911 0
M  V30 5397 H 528.761 4.34785 -0.621159 0
M  V30 5398 H 529.367 3.66972 -2.14969 0
M  V30 5399 N 527.682 1.05563 1.17022 0
M  V30 5400 C 528.907 0.788437 1.91829 0
M  V30 5401 C 529.332 -0.650356 1.76499 0
M  V30 5402 O 528.69 -1.45229 1.08527 0
M  V30 5403 C 528.738 1.1786 3.40795 0
M  V30 5404 O 527.842 0.312965 4.11211 0
M  V30 5405 H 527.183 0.288794 0.597908 0
M  V30 5406 H 529.713 1.40948 1.48307 0
M  V30 5407 H 529.723 1.14697 3.91546 0
M  V30 5408 H 528.398 2.22666 3.51273 0
M  V30 5409 H 526.975 0.405515 3.70689 0
M  V30 5410 N 529.16 -1.33526 0.837174 0
M  V30 5411 C 530.123 -2.27551 0.274421 0
M  V30 5412 C 531.123 -1.50886 -0.555881 0
M  V30 5413 O 532.313 -1.70227 -0.369918 0
M  V30 5414 C 529.445 -3.35332 -0.613605 0
M  V30 5415 H 530.638 -2.78837 1.10408 0
M  V30 5416 H 528.191 -1.439 0.610126 0
M  V30 5417 H 528.926 -2.89285 -1.46577 0
M  V30 5418 H 528.711 -3.92095 -0.0195341 0
M  V30 5419 H 530.201 -4.05433 -1.00068 0
M  V30 5420 N 530.638 -0.59345 -1.46 0
M  V30 5421 C 531.586 0.146268 -2.3214 0
M  V30 5422 C 532.58 0.873743 -1.45128 0
M  V30 5423 O 533.786 0.790912 -1.61693 0
M  V30 5424 H 530.161 0.0660349 -0.749095 0
M  V30 5425 H 532.132 -0.598895 -2.92328 0
M  V30 5426 C 530.881 1.1396 -3.28494 0
M  V30 5427 H 530.204 0.589252 -3.95434 0
M  V30 5428 H 531.644 1.62738 -3.91526 0
M  V30 5429 C 530.103 2.20604 -2.54628 0
M  V30 5430 O 530.633 3.28128 -2.31722 0
M  V30 5431 N 528.839 1.95502 -2.15005 0
M  V30 5432 H 528.386 1.0807 -2.33834 0
M  V30 5433 H 528.344 2.67064 -1.65904 0
M  V30 5434 N 532.116 1.54067 -0.331816 0
M  V30 5435 C 533.365 1.99895 0.269209 0
M  V30 5436 C 533.678 1.22371 1.52593 0
M  V30 5437 O 534.884 1.58618 2.20347 0
M  V30 5438 C 533.34 3.55972 0.530244 0
M  V30 5439 C 532.948 4.4234 -0.709901 0
M  V30 5440 C 534.692 4.10247 1.09077 0
M  V30 5441 C 532.599 5.89905 -0.420312 0
M  V30 5442 H 531.529 0.746741 0.104371 0
M  V30 5443 H 534.18 1.78014 -0.445324 0
M  V30 5444 H 532.562 3.73873 1.30518 0
M  V30 5445 H 533.736 4.36215 -1.48504 0
M  V30 5446 H 532.051 3.98997 -1.19123 0
M  V30 5447 H 534.648 5.18095 1.32219 0
M  V30 5448 H 534.991 3.62739 2.0427 0
M  V30 5449 H 535.524 3.96011 0.376824 0
M  V30 5450 H 532.263 6.41623 -1.34164 0
M  V30 5451 H 531.783 5.98962 0.316962 0
M  V30 5452 H 533.462 6.46991 -0.0331956 0
M  V30 5453 N 533.594 0.0601682 1.57485 0
M  V30 5454 C 534.526 -0.94047 2.09016 0
M  V30 5455 C 535.539 -1.26897 1.01985 0
M  V30 5456 O 536.728 -1.22819 1.29529 0
M  V30 5457 C 533.828 -2.25955 2.52582 0
M  V30 5458 C 533.001 -2.11163 3.83052 0
M  V30 5459 C 532.06 -3.26273 4.12835 0
M  V30 5460 O 531.086 -3.01779 4.82616 0
M  V30 5461 N 532.288 -4.51022 3.65458 0
M  V30 5462 H 535.053 -0.500578 2.9549 0
M  V30 5463 H 532.614 -0.125852 1.6141 0
M  V30 5464 H 534.606 -3.01846 2.69575 0
M  V30 5465 H 533.176 -2.61481 1.71308 0
M  V30 5466 H 532.396 -1.19808 3.75552 0
M  V30 5467 H 533.684 -1.98517 4.68475 0
M  V30 5468 H 533.082 -4.73811 3.09062 0
M  V30 5469 H 531.639 -5.23978 3.87673 0
M  V30 5470 N 535.072 -1.5615 -0.213296 0
M  V30 5471 C 535.982 -1.96265 -1.28519 0
M  V30 5472 C 536.998 -0.86765 -1.50824 0
M  V30 5473 O 538.174 -1.17191 -1.63793 0
M  V30 5474 C 535.239 -2.27836 -2.61327 0
M  V30 5475 C 534.3 -3.50949 -2.47252 0
M  V30 5476 C 533.533 -3.81004 -3.73727 0
M  V30 5477 O 533.756 -3.12612 -4.77106 0
M  V30 5478 O 532.69 -4.74477 -3.70344 0
M  V30 5479 H 536.516 -2.87631 -0.974795 0
M  V30 5480 H 534.101 -1.43467 -0.416832 0
M  V30 5481 H 535.983 -2.49299 -3.39747 0
M  V30 5482 H 534.658 -1.39643 -2.9203 0
M  V30 5483 H 533.565 -3.34754 -1.67004 0
M  V30 5484 H 534.898 -4.39551 -2.21486 0
M  V30 5485 N 536.55 0.480323 -1.50102 0
M  V30 5486 C 537.797 1.23307 -1.60629 0
M  V30 5487 C 538.125 1.92135 -0.302375 0
M  V30 5488 O 537.38 1.82321 0.711154 0
M  V30 5489 C 537.679 2.30708 -2.72963 0
M  V30 5490 C 537.345 1.79195 -4.13763 0
M  V30 5491 C 536.007 1.64867 -4.52076 0
M  V30 5492 C 538.359 1.40878 -5.018 0
M  V30 5493 C 535.687 1.10631 -5.76175 0
M  V30 5494 C 538.039 0.880872 -6.26437 0
M  V30 5495 C 536.703 0.724146 -6.6356 0
M  V30 5496 H 535.973 0.451211 -0.587784 0
M  V30 5497 H 538.62 0.53051 -1.84005 0
M  V30 5498 H 536.925 3.06834 -2.43639 0
M  V30 5499 H 538.622 2.88692 -2.78313 0
M  V30 5500 H 535.212 1.91313 -3.83533 0
M  V30 5501 H 539.396 1.50786 -4.7284 0
M  V30 5502 H 534.652 0.972263 -6.0362 0
M  V30 5503 H 538.826 0.575269 -6.9402 0
M  V30 5504 H 536.453 0.301722 -7.59601 0
M  V30 5505 N 538.028 1.39524 0.732853 0
M  V30 5506 C 538.991 1.38189 1.82857 0
M  V30 5507 C 539.991 0.278624 1.58368 0
M  V30 5508 O 541.181 0.536639 1.65728 0
M  V30 5509 C 538.313 1.15661 3.2068 0
M  V30 5510 H 539.506 2.35692 1.85444 0
M  V30 5511 H 537.059 1.2512 0.936728 0
M  V30 5512 H 537.794 0.188482 3.23752 0
M  V30 5513 H 537.579 1.95559 3.39852 0
M  V30 5514 H 539.069 1.17472 4.00737 0
M  V30 5515 N 539.506 -0.963266 1.24736 0
M  V30 5516 C 540.754 -1.70343 1.08755 0
M  V30 5517 C 541.075 -1.91387 -0.373619 0
M  V30 5518 O 540.345 -1.4948 -1.2662 0
M  V30 5519 H 538.925 -0.631224 0.399456 0
M  V30 5520 H 541.587 -1.15859 1.56725 0
M  V30 5521 H 540.683 -2.68616 1.58909 0
M  V30 5522 N 540.985 -1.06182 -1.16461 0
M  V30 5523 C 542.225 -0.787048 -1.8864 0
M  V30 5524 C 542.589 0.674093 -1.79778 0
M  V30 5525 O 543.79 1.06341 -2.46871 0
M  V30 5526 C 542.061 -1.2666 -3.34203 0
M  V30 5527 S 543.62 -1.12071 -4.24247 0
M  V30 5528 H 540.438 -0.285539 -0.651144 0
M  V30 5529 H 543.04 -1.35851 -1.40587 0
M  V30 5530 H 541.744 -2.32496 -3.38192 0
M  V30 5531 H 541.275 -0.689841 -3.87304 0
M  V30 5532 H 543.29 -0.0509341 -4.96174 0
M  V30 5533 N 542.463 1.3308 -0.844243 0
M  V30 5534 C 543.41 2.29104 -0.279323 0
M  V30 5535 C 544.38 1.54577 0.607882 0
M  V30 5536 O 545.565 1.8285 0.545009 0
M  V30 5537 C 542.705 3.40927 0.53508 0
M  V30 5538 C 541.818 4.30354 -0.376749 0
M  V30 5539 C 540.953 5.29297 0.449276 0
M  V30 5540 C 539.992 6.10365 -0.460606 0
M  V30 5541 N 539.129 7.01335 0.327612 0
M  V30 5542 H 543.969 2.76817 -1.10346 0
M  V30 5543 H 541.506 1.36203 -0.555611 0
M  V30 5544 H 543.464 4.04469 1.02278 0
M  V30 5545 H 542.094 2.94391 1.32414 0
M  V30 5546 H 541.146 3.67485 -0.982791 0
M  V30 5547 H 542.458 4.87067 -1.07549 0
M  V30 5548 H 541.612 5.98392 1.00058 0
M  V30 5549 H 540.351 4.73174 1.18143 0
M  V30 5550 H 539.356 5.40182 -1.02388 0
M  V30 5551 H 540.581 6.68571 -1.1912 0
M  V30 5552 H 538.527 6.47655 1.04305 0
M  V30 5553 H 538.444 7.55355 -0.3123 0
M  V30 5554 H 539.712 7.74731 0.86098 0
M  V30 5555 N 543.941 0.601185 1.45683 0
M  V30 5556 C 544.888 -0.121396 2.30481 0
M  V30 5557 C 545.858 -0.866232 1.41724 0
M  V30 5558 O 547.043 -0.85324 1.70659 0
M  V30 5559 C 544.183 -1.11704 3.26521 0
M  V30 5560 C 543.296 -0.373741 4.3038 0
M  V30 5561 C 542.431 -1.35854 5.13534 0
M  V30 5562 C 541.47 -0.602689 6.09126 0
M  V30 5563 N 540.607 -1.53645 6.85082 0
M  V30 5564 H 545.447 0.607732 2.91737 0
M  V30 5565 H 542.984 0.311502 1.43764 0
M  V30 5566 H 544.942 -1.70735 3.80664 0
M  V30 5567 H 543.572 -1.81366 2.67032 0
M  V30 5568 H 542.624 0.331962 3.78949 0
M  V30 5569 H 543.936 0.2163 4.98331 0
M  V30 5570 H 543.09 -2.02111 5.72046 0
M  V30 5571 H 541.829 -1.98251 4.45587 0
M  V30 5572 H 540.834 0.0735482 5.49751 0
M  V30 5573 H 542.059 0.0161467 6.79098 0
M  V30 5574 H 540.005 -2.14819 6.1983 0
M  V30 5575 H 539.922 -0.999688 7.49361 0
M  V30 5576 H 541.19 -2.1888 7.48139 0
M  V30 5577 N 545.419 -1.53889 0.339982 0
M  V30 5578 C 546.668 -2.00035 -0.258604 0
M  V30 5579 C 546.981 -1.23179 -1.51942 0
M  V30 5580 O 548.187 -1.59784 -2.19503 0
M  V30 5581 C 546.643 -3.56249 -0.511359 0
M  V30 5582 C 546.251 -4.41957 0.733349 0
M  V30 5583 C 547.995 -4.1082 -1.069 0
M  V30 5584 C 545.902 -5.89673 0.451591 0
M  V30 5585 H 544.832 -0.747284 -0.10041 0
M  V30 5586 H 547.483 -1.77776 0.454758 0
M  V30 5587 H 545.865 -3.7456 -1.28533 0
M  V30 5588 H 547.039 -4.35421 1.50815 0
M  V30 5589 H 545.354 -3.9836 1.21237 0
M  V30 5590 H 547.951 -5.18789 -1.2947 0
M  V30 5591 H 548.294 -3.63817 -2.02343 0
M  V30 5592 H 548.827 -3.96205 -0.355817 0
M  V30 5593 H 545.566 -6.40903 1.37565 0
M  V30 5594 H 545.086 -5.99122 -0.285193 0
M  V30 5595 H 546.765 -6.46965 0.0675067 0
M  V30 5596 N 546.897 -0.0685191 -1.57451 0
M  V30 5597 C 548.144 0.601348 -1.93365 0
M  V30 5598 C 548.472 1.69816 -0.948294 0
M  V30 5599 O 547.727 1.95666 0.0366199 0
M  V30 5600 C 548.026 1.22051 -3.35914 0
M  V30 5601 C 547.692 0.250165 -4.50205 0
M  V30 5602 C 546.354 -0.0167954 -4.81197 0
M  V30 5603 C 548.706 -0.413867 -5.19554 0
M  V30 5604 C 546.034 -0.95493 -5.78876 0
M  V30 5605 C 548.386 -1.3403 -6.18238 0
M  V30 5606 C 547.05 -1.61576 -6.47649 0
M  V30 5607 H 546.32 0.220049 -0.707573 0
M  V30 5608 H 548.967 -0.138697 -1.90997 0
M  V30 5609 H 547.272 2.03622 -3.34732 0
M  V30 5610 H 548.969 1.74605 -3.6099 0
M  V30 5611 H 545.559 0.468421 -4.26033 0
M  V30 5612 H 549.743 -0.220733 -4.95809 0
M  V30 5613 H 544.999 -1.17563 -5.99991 0
M  V30 5614 H 549.173 -1.86081 -6.71079 0
M  V30 5615 H 546.8 -2.34431 -7.2315 0
M  V30 5616 N 548.375 1.56261 0.205012 0
M  V30 5617 C 549.623 1.79684 0.925096 0
M  V30 5618 C 549.944 0.63989 1.84202 0
M  V30 5619 O 549.214 -0.342345 1.92885 0
M  V30 5620 H 547.794 0.662774 0.344587 0
M  V30 5621 H 550.456 1.93734 0.212899 0
M  V30 5622 H 549.552 2.72467 1.52211 0
M  V30 5623 N 549.853 -0.472356 1.50355 0
M  V30 5624 C 551.078 -1.25251 1.65309 0
M  V30 5625 C 551.503 -1.85081 0.335643 0
M  V30 5626 O 550.861 -1.67227 -0.700335 0
M  V30 5627 C 550.909 -2.3379 2.74544 0
M  V30 5628 O 550.013 -3.38401 2.35709 0
M  V30 5629 H 549.354 -0.368539 0.552336 0
M  V30 5630 H 551.884 -0.562271 1.96722 0
M  V30 5631 H 551.894 -2.79121 2.97583 0
M  V30 5632 H 550.569 -1.89614 3.70161 0
M  V30 5633 H 549.146 -2.9879 2.23112 0
M  V30 5634 N 551.331 -1.39911 -0.725443 0
M  V30 5635 C 552.261 -1.42138 -1.85254 0
M  V30 5636 C 553.242 -0.283513 -1.67721 0
M  V30 5637 O 554.427 -0.490717 -1.87898 0
M  V30 5638 C 551.557 -1.27354 -3.23107 0
M  V30 5639 C 550.511 -2.3864 -3.55296 0
M  V30 5640 C 549.837 -2.08939 -4.92188 0
M  V30 5641 C 551.137 -3.8097 -3.57295 0
M  V30 5642 H 552.831 -2.36461 -1.83648 0
M  V30 5643 H 550.377 -1.13817 -0.882138 0
M  V30 5644 H 552.33 -1.2753 -4.01639 0
M  V30 5645 H 551.054 -0.295025 -3.25265 0
M  V30 5646 H 549.713 -2.37696 -2.79099 0
M  V30 5647 H 549.361 -1.09502 -4.90936 0
M  V30 5648 H 549.061 -2.83491 -5.14691 0
M  V30 5649 H 550.585 -2.10781 -5.73065 0
M  V30 5650 H 551.999 -3.8379 -4.25885 0
M  V30 5651 H 550.396 -4.5496 -3.9132 0
M  V30 5652 H 551.466 -4.11261 -2.5689 0
M  V30 5653 N 552.809 0.956637 -1.25245 0
M  V30 5654 C 553.772 2.03457 -1.05537 0
M  V30 5655 C 554.772 1.60798 -0.00886317 0
M  V30 5656 O 555.962 1.72384 -0.250865 0
M  V30 5657 C 553.094 3.35543 -0.601965 0
M  V30 5658 H 554.287 2.22372 -2.01223 0
M  V30 5659 H 551.84 1.13344 -1.07623 0
M  V30 5660 H 552.575 3.22323 0.357584 0
M  V30 5661 H 552.36 3.67854 -1.35743 0
M  V30 5662 H 553.85 4.14769 -0.485454 0
M  V30 5663 N 554.287 1.06798 1.15896 0
M  V30 5664 C 555.534 0.787767 1.86549 0
M  V30 5665 C 555.862 -0.685959 1.82002 0
M  V30 5666 O 555.117 -1.5188 1.23414 0
M  V30 5667 C 555.416 1.23414 3.35416 0
M  V30 5668 C 555.082 2.71285 3.6016 0
M  V30 5669 C 553.744 3.11676 3.66622 0
M  V30 5670 C 556.096 3.6676 3.7032 0
M  V30 5671 C 553.424 4.4637 3.8075 0
M  V30 5672 C 555.776 5.01209 3.8597 0
M  V30 5673 C 554.44 5.41229 3.90676 0
M  V30 5674 H 553.71 0.288264 0.682631 0
M  V30 5675 H 556.357 1.338 1.37003 0
M  V30 5676 H 554.662 0.60319 3.87129 0
M  V30 5677 H 556.359 0.994298 3.88477 0
M  V30 5678 H 552.949 2.39015 3.55767 0
M  V30 5679 H 557.133 3.36685 3.64633 0
M  V30 5680 H 552.389 4.76855 3.82648 0
M  V30 5681 H 556.563 5.75067 3.92773 0
M  V30 5682 H 554.19 6.45602 4.01375 0
M  V30 5683 N 555.766 -1.3263 0.851289 0
M  V30 5684 C 556.696 -2.31449 0.308771 0
M  V30 5685 C 557.677 -1.59531 -0.590255 0
M  V30 5686 O 558.862 -1.87351 -0.511205 0
M  V30 5687 C 555.992 -3.43586 -0.506548 0
M  V30 5688 C 554.946 -4.26963 0.297753 0
M  V30 5689 C 554.272 -5.30831 -0.642094 0
M  V30 5690 C 555.572 -4.99643 1.52166 0
M  V30 5691 H 557.266 -2.77074 1.13447 0
M  V30 5692 H 554.812 -1.33207 0.546971 0
M  V30 5693 H 556.765 -4.11754 -0.896474 0
M  V30 5694 H 555.489 -2.96681 -1.36558 0
M  V30 5695 H 554.148 -3.60437 0.669391 0
M  V30 5696 H 553.796 -4.8018 -1.49788 0
M  V30 5697 H 553.496 -5.87501 -0.107968 0
M  V30 5698 H 555.02 -6.01862 -1.02927 0
M  V30 5699 H 556.434 -5.6051 1.20421 0
M  V30 5700 H 554.831 -5.66022 1.99347 0
M  V30 5701 H 555.901 -4.27701 2.28474 0
M  V30 5702 N 557.244 -0.608902 -1.45362 0
M  V30 5703 C 558.655 -0.189511 -1.85736 0
M  V30 5704 C 559.006 1.2539 -1.50903 0
M  V30 5705 O 558.131 1.95094 -0.936347 0
M  V30 5706 C 558.726 -0.33716 -3.37118 0
M  V30 5707 C 557.285 0.0275487 -3.7639 0
M  V30 5708 C 556.432 -0.660983 -2.69307 0
M  V30 5709 H 559.383 -0.815499 -1.36144 0
M  V30 5710 H 559.404 0.430257 -3.7806 0
M  V30 5711 H 558.916 -1.38779 -3.62439 0
M  V30 5712 H 557.017 1.0773 -3.56686 0
M  V30 5713 H 557.13 -0.367018 -4.77692 0
M  V30 5714 H 555.494 -0.0984958 -2.54509 0
M  V30 5715 H 556.277 -1.71377 -2.97464 0
M  V30 5716 N 558.722 1.53707 -0.348139 0
M  V30 5717 C 559.632 2.28881 0.514857 0
M  V30 5718 C 560.648 1.34168 1.10793 0
M  V30 5719 O 561.824 1.6721 1.12262 0
M  V30 5720 C 558.889 3.05042 1.64774 0
M  V30 5721 C 557.95 4.15389 1.08398 0
M  V30 5722 C 557.183 4.87909 2.16287 0
M  V30 5723 O 557.406 4.60137 3.3709 0
M  V30 5724 O 556.34 5.74254 1.80323 0
M  V30 5725 H 560.166 3.03547 -0.0963699 0
M  V30 5726 H 557.751 1.48972 -0.113043 0
M  V30 5727 H 559.633 3.52656 2.30677 0
M  V30 5728 H 558.308 2.33228 2.24469 0
M  V30 5729 H 557.215 3.72068 0.389341 0
M  V30 5730 H 558.548 4.89318 0.531829 0
M  V30 5731 N 560.2 0.0768682 1.57412 0
M  V30 5732 C 561.425 -0.603404 1.98428 0
M  V30 5733 C 561.85 -1.62047 0.955108 0
M  V30 5734 O 561.208 -1.81129 -0.0786778 0
M  V30 5735 C 561.256 -1.24396 3.38464 0
M  V30 5736 O 560.36 -2.35982 3.3821 0
M  V30 5737 H 559.701 -0.154741 0.645718 0
M  V30 5738 H 562.231 0.152885 2.04028 0
M  V30 5739 H 562.241 -1.5896 3.7576 0
M  V30 5740 H 560.916 -0.498735 4.12899 0
M  V30 5741 H 559.493 -2.03173 3.1269 0
M  V30 5742 N 561.678 -1.56367 -0.196722 0
M  V30 5743 C 562.925 -1.80529 -0.917366 0
M  V30 5744 C 563.253 -0.649817 -1.83324 0
M  V30 5745 O 562.508 0.36451 -1.92275 0
M  V30 5746 C 562.807 -3.10663 -1.767 0
M  V30 5747 C 562.473 -4.3962 -1.00225 0
M  V30 5748 C 561.135 -4.74653 -0.791095 0
M  V30 5749 C 563.487 -5.1913 -0.464035 0
M  V30 5750 C 560.815 -5.86692 -0.0302155 0
M  V30 5751 C 563.167 -6.31964 0.283625 0
M  V30 5752 C 561.831 -6.65581 0.505813 0
M  V30 5753 H 561.101 -0.660602 -0.335688 0
M  V30 5754 H 563.748 -1.90615 -0.183844 0
M  V30 5755 H 562.053 -2.95807 -2.56915 0
M  V30 5756 H 563.75 -3.26563 -2.32718 0
M  V30 5757 H 560.34 -4.12127 -1.17684 0
M  V30 5758 H 564.524 -4.9248 -0.614575 0
M  V30 5759 H 559.78 -6.11211 0.151917 0
M  V30 5760 H 563.954 -6.92791 0.708057 0
M  V30 5761 H 561.581 -7.52239 1.0973 0
M  V30 5762 N 563.156 0.464375 -1.50603 0
M  V30 5763 C 564.433 1.22549 -1.5245 0
M  V30 5764 C 564.813 2.09327 -0.273035 0
M  V30 5765 O 564.161 2.16074 0.743242 0
M  V30 5766 C 564.371 2.05074 -2.82393 0
M  V30 5767 C 565.719 2.63036 -3.33313 0
M  V30 5768 O 566.743 2.1531 -2.8376 0
M  V30 5769 O 565.602 3.5001 -4.19709 0
M  V30 5770 H 562.696 0.556471 -0.611775 0
M  V30 5771 H 565.242 0.475648 -1.62898 0
M  V30 5772 H 564.014 1.41169 -3.64948 0
M  V30 5773 H 563.637 2.87179 -2.7498 0
M  V30 5774 N 564.634 1.40294 0.718013 0
M  V30 5775 C 565.882 1.38167 1.47494 0
M  V30 5776 C 566.203 -0.01607 1.94993 0
M  V30 5777 O 565.473 -0.970396 1.70177 0
M  V30 5778 H 564.053 0.508505 0.547203 0
M  V30 5779 H 566.715 1.75324 0.851322 0
M  V30 5780 H 565.811 2.05503 2.34894 0
M  V30 5781 N 566.112 -0.949982 1.2575 0
M  V30 5782 C 567.389 -1.6718 1.01539 0
M  V30 5783 C 567.769 -2.06095 -0.456942 0
M  V30 5784 O 567.117 -1.77792 -1.43534 0
M  V30 5785 C 567.327 -2.8906 1.95564 0
M  V30 5786 C 568.675 -3.60909 2.23673 0
M  V30 5787 O 569.699 -2.9915 1.9336 0
M  V30 5788 O 568.558 -4.72127 2.75243 0
M  V30 5789 H 565.652 -0.731697 0.385419 0
M  V30 5790 H 568.198 -1.00249 1.36924 0
M  V30 5791 H 566.97 -2.57128 2.94959 0
M  V30 5792 H 566.593 -3.63719 1.60605 0
M  V30 5793 N 567.59 -1.07411 -1.15328 0
M  V30 5794 C 569.001 -0.820261 -1.67716 0
M  V30 5795 C 569.352 0.654539 -1.8496 0
M  V30 5796 O 568.477 1.50664 -1.55337 0
M  V30 5797 C 569.072 -1.48242 -3.04647 0
M  V30 5798 C 567.631 -1.27606 -3.5411 0
M  V30 5799 C 566.778 -1.5517 -2.29821 0
M  V30 5800 H 569.729 -1.23608 -0.995332 0
M  V30 5801 H 569.75 -0.903984 -3.69606 0
M  V30 5802 H 569.262 -2.55578 -2.92064 0
M  V30 5803 H 567.363 -0.222948 -3.71932 0
M  V30 5804 H 567.476 -1.99667 -4.35511 0
M  V30 5805 H 565.84 -0.972747 -2.35393 0
M  V30 5806 H 566.623 -2.63689 -2.19824 0
M  V30 5807 N 569.068 1.32177 -0.85831 0
M  V30 5808 C 570.031 2.27086 -0.310588 0
M  V30 5809 C 571.031 1.51751 0.531806 0
M  V30 5810 O 572.221 1.70794 0.34279 0
M  V30 5811 C 569.353 3.36266 0.560179 0
M  V30 5812 H 570.546 2.77045 -1.1483 0
M  V30 5813 H 568.099 1.42911 -0.632942 0
M  V30 5814 H 568.834 2.9158 1.41956 0
M  V30 5815 H 568.619 3.92077 -0.0428473 0
M  V30 5816 H 570.109 4.06974 0.936056 0
M  V30 5817 N 570.547 0.616602 1.45037 0
M  V30 5818 C 571.772 0.120192 2.07051 0
M  V30 5819 C 572.197 -1.19008 1.45666 0
M  V30 5820 O 571.555 -1.7267 0.552692 0
M  V30 5821 C 571.603 0.00354901 3.606 0
M  V30 5822 O 570.707 -1.04431 3.98958 0
M  V30 5823 H 570.048 0.0781599 0.659384 0
M  V30 5824 H 572.578 0.849167 1.86146 0
M  V30 5825 H 572.588 -0.191754 4.07549 0
M  V30 5826 H 571.263 0.960239 4.04663 0
M  V30 5827 H 569.84 -0.824749 3.63665 0
M  V30 5828 N 572.025 -1.5352 0.356285 0
M  V30 5829 C 572.973 -2.26945 -0.50978 0
M  V30 5830 C 573.967 -1.29569 -1.09125 0
M  V30 5831 O 575.173 -1.47231 -1.03552 0
M  V30 5832 H 571.548 -0.729368 -0.183102 0
M  V30 5833 H 573.519 -2.98111 0.131374 0
M  V30 5834 C 572.268 -3.06466 -1.64237 0
M  V30 5835 H 571.591 -3.81233 -1.20423 0
M  V30 5836 H 573.031 -3.61035 -2.22327 0
M  V30 5837 C 571.49 -2.16737 -2.57928 0
M  V30 5838 O 572.02 -1.77195 -3.60507 0
M  V30 5839 N 570.226 -1.81558 -2.26903 0
M  V30 5840 H 569.773 -2.13913 -1.43524 0
M  V30 5841 H 569.731 -1.21806 -2.89846 0
M  V30 5842 N 573.503 -0.0852151 -1.57369 0
M  V30 5843 C 574.731 0.58946 -1.98325 0
M  V30 5844 C 575.146 1.62333 -0.96403 0
M  V30 5845 O 574.503 1.82438 0.0476395 0
M  V30 5846 C 574.554 1.24604 -3.39347 0
M  V30 5847 O 574.275 0.253532 -4.37366 0
M  V30 5848 C 575.776 2.00726 -3.95252 0
M  V30 5849 H 572.996 0.158783 -0.651942 0
M  V30 5850 H 575.54 -0.161584 -2.03861 0
M  V30 5851 H 573.695 1.94808 -3.34856 0
M  V30 5852 H 574.109 0.726207 -5.19448 0
M  V30 5853 H 575.583 2.42039 -4.96106 0
M  V30 5854 H 576.06 2.86919 -3.32527 0
M  V30 5855 H 576.666 1.3536 -4.03185 0
M  V30 5856 N 574.981 1.5647 0.188427 0
M  V30 5857 C 575.944 1.9421 1.21718 0
M  V30 5858 C 576.944 0.823901 1.38089 0
M  V30 5859 O 578.134 1.09122 1.35787 0
M  V30 5860 C 575.266 2.22197 2.58537 0
M  V30 5861 H 576.459 2.86252 0.894418 0
M  V30 5862 H 574.012 1.50263 0.430211 0
M  V30 5863 H 574.747 1.32814 2.95856 0
M  V30 5864 H 574.532 3.03688 2.48025 0
M  V30 5865 H 576.022 2.52376 3.3271 0
M  V30 5866 N 576.459 -0.456382 1.50847 0
M  V30 5867 C 577.87 -1.03685 1.55262 0
M  V30 5868 C 578.221 -1.92779 0.364771 0
M  V30 5869 O 577.346 -2.10043 -0.52068 0
M  V30 5870 C 577.941 -1.88718 2.81374 0
M  V30 5871 C 576.5 -2.41847 2.88422 0
M  V30 5872 C 575.647 -1.20564 2.49719 0
M  V30 5873 H 578.598 -0.238399 1.56899 0
M  V30 5874 H 578.619 -2.73957 2.6406 0
M  V30 5875 H 578.131 -1.23847 3.67809 0
M  V30 5876 H 576.232 -3.10228 2.06372 0
M  V30 5877 H 576.345 -2.75947 3.9165 0
M  V30 5878 H 574.709 -1.54504 2.02486 0
M  V30 5879 H 575.492 -0.573326 3.38479 0
M  V30 5880 N 577.937 -1.40673 -0.710563 0
M  V30 5881 C 578.867 -1.44095 -1.83736 0
M  V30 5882 C 579.848 -0.301286 -1.67411 0
M  V30 5883 O 581.033 -0.510618 -1.87367 0
M  V30 5884 C 578.163 -1.30773 -3.21738 0
M  V30 5885 C 577.117 -2.42395 -3.52745 0
M  V30 5886 C 576.443 -2.14147 -4.89944 0
M  V30 5887 C 577.743 -3.84738 -3.53234 0
M  V30 5888 H 579.437 -2.38396 -1.81129 0
M  V30 5889 H 576.983 -1.14746 -0.870017 0
M  V30 5890 H 578.936 -1.31783 -4.00264 0
M  V30 5891 H 577.66 -0.329507 -3.24934 0
M  V30 5892 H 576.319 -2.40643 -2.76562 0
M  V30 5893 H 575.967 -1.14703 -4.89747 0
M  V30 5894 H 575.667 -2.88934 -5.11655 0
M  V30 5895 H 577.191 -2.16848 -5.70797 0
M  V30 5896 H 578.605 -3.88286 -4.2179 0
M  V30 5897 H 577.002 -4.59085 -3.86473 0
M  V30 5898 H 578.072 -4.13962 -2.52514 0
M  V30 5899 N 579.415 0.9433 -1.26252 0
M  V30 5900 C 580.347 2.04542 -1.03417 0
M  V30 5901 C 581.36 1.62799 0.0046911 0
M  V30 5902 O 582.549 1.76944 -0.235146 0
M  V30 5903 C 579.649 3.34511 -0.543671 0
M  V30 5904 C 578.822 4.05033 -1.65128 0
M  V30 5905 C 577.881 5.13273 -1.1592 0
M  V30 5906 O 576.907 5.38095 -1.85586 0
M  V30 5907 N 578.109 5.805 -0.00649279 0
M  V30 5908 H 580.874 2.24699 -1.98319 0
M  V30 5909 H 578.435 1.11264 -1.1761 0
M  V30 5910 H 580.427 4.04212 -0.198703 0
M  V30 5911 H 578.997 3.11042 0.311711 0
M  V30 5912 H 578.217 3.29275 -2.16729 0
M  V30 5913 H 579.505 4.48903 -2.39508 0
M  V30 5914 H 578.903 5.62767 0.575347 0
M  V30 5915 H 577.46 6.51201 0.279416 0
M  V30 5916 N 580.893 1.08022 1.14757 0
M  V30 5917 C 582.304 0.829144 1.67279 0
M  V30 5918 C 582.655 -0.644721 1.85305 0
M  V30 5919 O 581.78 -1.49838 1.56133 0
M  V30 5920 C 582.375 1.49855 3.03857 0
M  V30 5921 C 580.934 1.29482 3.53428 0
M  V30 5922 C 580.081 1.56386 2.28995 0
M  V30 5923 H 583.032 1.24134 0.988762 0
M  V30 5924 H 583.053 0.923572 3.69121 0
M  V30 5925 H 582.565 2.57123 2.90705 0
M  V30 5926 H 580.666 0.242669 3.71809 0
M  V30 5927 H 580.779 2.01974 4.34446 0
M  V30 5928 H 579.143 0.985217 2.34874 0
M  V30 5929 H 579.926 2.64851 2.18423 0
M  V30 5930 N 582.371 -1.3172 0.865308 0
M  V30 5931 C 583.281 -2.32394 0.320935 0
M  V30 5932 C 584.297 -1.64511 -0.566746 0
M  V30 5933 O 585.473 -1.95969 -0.464575 0
M  V30 5934 C 582.538 -3.43462 -0.472701 0
M  V30 5935 C 581.599 -4.27015 0.442385 0
M  V30 5936 C 580.832 -5.32779 -0.313469 0
M  V30 5937 O 581.055 -5.49158 -1.54214 0
M  V30 5938 O 579.989 -6.01015 0.326257 0
M  V30 5939 H 583.815 -2.80868 1.15528 0
M  V30 5940 H 581.4 -1.35535 0.628545 0
M  V30 5941 H 583.282 -4.11172 -0.922781 0
M  V30 5942 H 581.957 -2.97159 -1.28367 0
M  V30 5943 H 580.864 -3.62075 0.940866 0
M  V30 5944 H 582.197 -4.76871 1.21882 0
M  V30 5945 N 583.85 -0.624285 -1.44708 0
M  V30 5946 C 584.782 0.12305 -2.28869 0
M  V30 5947 C 585.795 0.81557 -1.40898 0
M  V30 5948 O 586.984 0.678162 -1.65116 0
M  V30 5949 C 584.084 1.19612 -3.1709 0
M  V30 5950 C 583.257 0.587452 -4.33437 0
M  V30 5951 C 582.316 1.55358 -5.02743 0
M  V30 5952 O 581.341 1.07338 -5.58988 0
M  V30 5953 N 582.543 2.88798 -5.03563 0
M  V30 5954 H 585.308 -0.599193 -2.93649 0
M  V30 5955 H 582.87 -0.464954 -1.5508 0
M  V30 5956 H 584.861 1.84261 -3.60319 0
M  V30 5957 H 583.432 1.82067 -2.54107 0
M  V30 5958 H 582.652 -0.237509 -3.93484 0
M  V30 5959 H 583.94 0.161326 -5.08544 0
M  V30 5960 H 583.338 3.30399 -4.59188 0
M  V30 5961 H 581.894 3.48826 -5.50603 0
M  V30 5962 N 585.328 1.53329 -0.364422 0
M  V30 5963 C 586.258 2.28627 0.474543 0
M  V30 5964 C 587.239 1.31009 1.08492 0
M  V30 5965 O 588.424 1.59878 1.10239 0
M  V30 5966 C 585.554 3.07465 1.61501 0
M  V30 5967 C 584.508 4.1276 1.13194 0
M  V30 5968 C 583.834 4.79674 2.36255 0
M  V30 5969 C 585.134 5.21847 0.217507 0
M  V30 5970 H 586.828 2.99005 -0.153656 0
M  V30 5971 H 584.374 1.43803 -0.0753406 0
M  V30 5972 H 586.327 3.58889 2.20855 0
M  V30 5973 H 585.051 2.34775 2.27042 0
M  V30 5974 H 583.71 3.62281 0.56109 0
M  V30 5975 H 583.358 4.03557 3.00251 0
M  V30 5976 H 583.058 5.50827 2.04606 0
M  V30 5977 H 584.582 5.33892 2.96297 0
M  V30 5978 H 585.996 5.6878 0.718493 0
M  V30 5979 H 584.393 6.00099 -0.00806408 0
M  V30 5980 H 585.463 4.7921 -0.740653 0
M  V30 5981 N 586.806 0.0935595 1.57322 0
M  V30 5982 C 587.738 -0.895923 2.10964 0
M  V30 5983 C 588.751 -1.24705 1.04654 0
M  V30 5984 O 589.94 -1.20044 1.32105 0
M  V30 5985 C 587.04 -2.20546 2.57318 0
M  V30 5986 C 586.213 -2.0299 3.87445 0
M  V30 5987 C 585.272 -3.17443 4.19662 0
M  V30 5988 O 584.298 -2.91474 4.88909 0
M  V30 5989 N 585.5 -4.43168 3.74943 0
M  V30 5990 H 588.265 -0.437788 2.96485 0
M  V30 5991 H 585.826 -0.0915863 1.61641 0
M  V30 5992 H 587.818 -2.9606 2.75917 0
M  V30 5993 H 586.388 -2.57789 1.76816 0
M  V30 5994 H 585.608 -1.11815 3.78009 0
M  V30 5995 H 586.896 -1.88535 4.7258 0
M  V30 5996 H 586.294 -4.67149 3.19043 0
M  V30 5997 H 584.851 -5.15637 3.987 0
M  V30 5998 N 588.284 -1.56567 -0.180126 0
M  V30 5999 C 589.53 -1.81761 -0.899497 0
M  V30 6000 C 589.863 -0.670015 -1.82276 0
M  V30 6001 O 589.138 0.328575 -1.91705 0
M  V30 6002 C 589.421 -3.17296 -1.7028 0
M  V30 6003 C 589.274 -4.4257 -0.803255 0
M  V30 6004 C 590.593 -3.49678 -2.67233 0
M  V30 6005 H 587.712 -0.661192 -0.325567 0
M  V30 6006 H 590.354 -1.89272 -0.16612 0
M  V30 6007 H 588.504 -3.11023 -2.32802 0
M  V30 6008 H 590.176 -4.60902 -0.191585 0
M  V30 6009 H 588.419 -4.33658 -0.110796 0
M  V30 6010 H 589.09 -5.33935 -1.40064 0
M  V30 6011 H 591.566 -3.56347 -2.14839 0
M  V30 6012 H 590.442 -4.45605 -3.20511 0
M  V30 6013 H 590.703 -2.73932 -3.47007 0
M  V30 6014 N 589.762 0.448376 -1.51087 0
M  V30 6015 C 591.009 1.19872 -1.63209 0
M  V30 6016 C 591.337 1.91451 -0.343062 0
M  V30 6017 O 590.592 1.83789 0.672321 0
M  V30 6018 C 590.891 2.24866 -2.77795 0
M  V30 6019 C 590.557 1.70378 -4.17471 0
M  V30 6020 C 589.219 1.55241 -4.55471 0
M  V30 6021 C 591.571 1.30203 -5.04675 0
M  V30 6022 C 588.899 0.983844 -5.78392 0
M  V30 6023 C 591.251 0.747798 -6.28165 0
M  V30 6024 C 589.915 0.583233 -6.64947 0
M  V30 6025 H 589.185 0.438642 -0.597222 0
M  V30 6026 H 591.832 0.49136 -1.85089 0
M  V30 6027 H 590.137 3.01598 -2.50092 0
M  V30 6028 H 591.834 2.82723 -2.84374 0
M  V30 6029 H 588.424 1.83134 -3.87505 0
M  V30 6030 H 592.608 1.40723 -4.75932 0
M  V30 6031 H 587.864 0.844007 -6.05546 0
M  V30 6032 H 592.038 0.427927 -6.95084 0
M  V30 6033 H 589.665 0.140532 -7.6007 0
M  V30 6034 N 591.24 1.41047 0.703093 0
M  V30 6035 C 592.15 1.44645 1.84703 0
M  V30 6036 C 593.166 0.337778 1.7069 0
M  V30 6037 O 594.342 0.584327 1.92737 0
M  V30 6038 C 591.407 1.31928 3.20618 0
M  V30 6039 C 590.468 2.53047 3.46794 0
M  V30 6040 C 589.701 2.40927 4.76224 0
M  V30 6041 O 589.924 1.42978 5.5219 0
M  V30 6042 O 588.858 3.30543 5.03016 0
M  V30 6043 H 592.684 2.41139 1.84624 0
M  V30 6044 H 590.269 1.22504 0.855167 0
M  V30 6045 H 592.151 1.27092 4.01778 0
M  V30 6046 H 590.826 0.385469 3.21397 0
M  V30 6047 H 589.733 2.6346 2.65593 0
M  V30 6048 H 591.066 3.45231 3.50822 0
M  V30 6049 N 592.718 -0.936591 1.26751 0
M  V30 6050 C 593.946 -1.71758 1.15355 0
M  V30 6051 C 594.361 -1.86549 -0.290683 0
M  V30 6052 O 593.718 -1.37616 -1.19868 0
M  V30 6053 C 593.769 -3.12193 1.82258 0
M  V30 6054 O 593.49 -2.98105 3.21038 0
M  V30 6055 C 594.991 -4.06485 1.76875 0
M  V30 6056 H 592.211 -0.537636 0.401483 0
M  V30 6057 H 594.755 -1.17382 1.67457 0
M  V30 6058 H 592.91 -3.63456 1.34083 0
M  V30 6059 H 593.324 -3.86824 3.54214 0
M  V30 6060 H 594.798 -5.02569 2.28316 0
M  V30 6061 H 595.275 -4.32986 0.736216 0
M  V30 6062 H 595.881 -3.61144 2.24623 0
M  V30 6063 N 594.196 -1.08629 -1.14182 0
M  V30 6064 C 595.126 -0.740003 -2.21464 0
M  V30 6065 C 596.107 0.278591 -1.67803 0
M  V30 6066 O 597.292 0.148461 -1.93632 0
M  V30 6067 C 594.422 -0.150952 -3.46972 0
M  V30 6068 C 593.376 -1.09815 -4.13672 0
M  V30 6069 C 592.702 -0.3712 -5.3341 0
M  V30 6070 C 594.002 -2.43722 -4.61949 0
M  V30 6071 H 595.696 -1.63697 -2.50686 0
M  V30 6072 H 593.242 -0.788526 -1.20492 0
M  V30 6073 H 595.195 0.103325 -4.21273 0
M  V30 6074 H 593.919 0.781164 -3.1712 0
M  V30 6075 H 592.578 -1.33756 -3.41328 0
M  V30 6076 H 592.226 0.564792 -4.99819 0
M  V30 6077 H 591.926 -1.00267 -5.78982 0
M  V30 6078 H 593.45 -0.12503 -6.10472 0
M  V30 6079 H 594.864 -2.24034 -5.27714 0
M  V30 6080 H 593.261 -3.02582 -5.18232 0
M  V30 6081 H 594.331 -3.05082 -3.76899 0
M  V30 6082 N 595.674 1.31259 -0.872281 0
M  V30 6083 C 596.584 2.32221 -0.333255 0
M  V30 6084 C 597.6 1.6481 0.558013 0
M  V30 6085 O 598.776 1.96212 0.454175 0
M  V30 6086 C 595.841 3.43708 0.454479 0
M  V30 6087 C 594.902 4.26774 -0.465024 0
M  V30 6088 C 594.135 5.32937 0.28521 0
M  V30 6089 O 594.358 5.49968 1.513 0
M  V30 6090 O 593.292 6.00834 -0.358126 0
M  V30 6091 H 597.118 2.80252 -1.17016 0
M  V30 6092 H 594.703 1.352 -0.635724 0
M  V30 6093 H 596.585 4.11656 0.900963 0
M  V30 6094 H 595.26 2.97836 1.26789 0
M  V30 6095 H 594.167 3.61571 -0.960055 0
M  V30 6096 H 595.5 4.76217 -1.2441 0
M  V30 6097 N 597.152 0.631951 1.44375 0
M  V30 6098 C 598.062 -0.073674 2.34484 0
M  V30 6099 C 599.078 -0.834825 1.52665 0
M  V30 6100 O 600.254 -0.786902 1.85391 0
M  V30 6101 C 597.319 -1.04247 3.30656 0
M  V30 6102 C 596.38 -0.280602 4.28382 0
M  V30 6103 C 595.613 -1.20325 5.19959 0
M  V30 6104 O 595.836 -2.44199 5.15484 0
M  V30 6105 O 594.77 -0.687128 5.97965 0
M  V30 6106 H 598.596 0.667477 2.96274 0
M  V30 6107 H 596.181 0.392144 1.44162 0
M  V30 6108 H 598.063 -1.59981 3.89851 0
M  V30 6109 H 596.738 -1.76422 2.71398 0
M  V30 6110 H 595.645 0.319804 3.72731 0
M  V30 6111 H 596.978 0.401144 4.90563 0
M  V30 6112 N 598.631 -1.53133 0.372548 0
M  V30 6113 C 599.88 -2.00539 -0.216115 0
M  V30 6114 C 600.193 -1.26374 -1.49295 0
M  V30 6115 O 601.399 -1.64404 -2.16064 0
M  V30 6116 C 599.855 -3.57253 -0.435678 0
M  V30 6117 C 599.463 -4.40302 0.82693 0
M  V30 6118 C 601.207 -4.12995 -0.981618 0
M  V30 6119 C 599.114 -5.88583 0.576567 0
M  V30 6120 H 598.044 -0.749246 -0.084536 0
M  V30 6121 H 600.695 -1.76771 0.492364 0
M  V30 6122 H 599.077 -3.77202 -1.20559 0
M  V30 6123 H 600.251 -4.32124 1.60017 0
M  V30 6124 H 598.566 -3.95699 1.29659 0
M  V30 6125 H 601.163 -5.21418 -1.18436 0
M  V30 6126 H 601.506 -3.68027 -1.94581 0
M  V30 6127 H 602.039 -3.96871 -0.271696 0
M  V30 6128 H 598.778 -6.37841 1.51128 0
M  V30 6129 H 598.298 -5.99592 -0.158047 0
M  V30 6130 H 599.977 -6.46676 0.204722 0
M  V30 6131 N 600.109 -0.101901 -1.5727 0
M  V30 6132 C 601.337 0.568392 -1.98939 0
M  V30 6133 C 601.752 1.61301 -0.981194 0
M  V30 6134 O 601.109 1.82478 0.0282869 0
M  V30 6135 C 601.16 1.20997 -3.40649 0
M  V30 6136 O 600.881 0.207129 -4.3761 0
M  V30 6137 C 602.382 1.96523 -3.97358 0
M  V30 6138 H 599.602 0.15186 -0.65359 0
M  V30 6139 H 602.146 -0.183198 -2.03678 0
M  V30 6140 H 600.301 1.91245 -3.36904 0
M  V30 6141 H 600.715 0.671071 -5.20189 0
M  V30 6142 H 602.189 2.36764 -4.98645 0
M  V30 6143 H 602.666 2.83376 -3.35552 0
M  V30 6144 H 603.272 1.31076 -4.04598 0
M  V30 6145 N 601.587 1.56661 0.17182 0
M  V30 6146 C 602.835 1.81606 0.886774 0
M  V30 6147 C 603.156 0.678818 1.82803 0
M  V30 6148 O 602.426 -0.301354 1.93568 0
M  V30 6149 H 601.006 0.669934 0.330451 0
M  V30 6150 H 603.668 1.94142 0.171757 0
M  V30 6151 H 602.764 2.75634 1.46398 0
M  V30 6152 N 603.065 -0.440357 1.51323 0
M  V30 6153 C 604.295 -1.21079 1.67402 0
M  V30 6154 C 604.703 -1.85555 0.369599 0
M  V30 6155 O 604.046 -1.71375 -0.661525 0
M  V30 6156 C 604.108 -2.33839 2.73056 0
M  V30 6157 C 603.772 -1.89755 4.15743 0
M  V30 6158 C 604.769 -1.40268 5.0062 0
M  V30 6159 C 602.454 -1.97539 4.61826 0
M  V30 6160 C 604.448 -0.991474 6.29642 0
M  V30 6161 C 602.135 -1.56029 5.90845 0
M  V30 6162 C 603.133 -1.06915 6.7458 0
M  V30 6163 O 602.821 -0.659933 8.01187 0
M  V30 6164 H 602.553 -0.371133 0.56501 0
M  V30 6165 H 605.107 -0.528409 1.98487 0
M  V30 6166 H 603.337 -3.05345 2.37279 0
M  V30 6167 H 605.026 -2.95713 2.78044 0
M  V30 6168 H 605.792 -1.33652 4.66221 0
M  V30 6169 H 601.671 -2.34713 3.96776 0
M  V30 6170 H 605.215 -0.607425 6.9495 0
M  V30 6171 H 601.112 -1.62315 6.24759 0
M  V30 6172 H 601.88 -0.786052 8.14717 0
M  V30 6173 N 604.543 -1.41418 -0.695603 0
M  V30 6174 C 605.473 -1.46035 -1.82197 0
M  V30 6175 C 606.454 -0.319025 -1.67082 0
M  V30 6176 O 607.639 -0.530462 -1.86815 0
M  V30 6177 C 604.769 -1.34179 -3.20333 0
M  V30 6178 C 603.723 -2.46123 -3.50154 0
M  V30 6179 C 603.049 -2.19332 -4.87645 0
M  V30 6180 C 604.349 -3.88463 -3.49133 0
M  V30 6181 H 606.043 -2.40303 -1.78591 0
M  V30 6182 H 603.589 -1.15663 -0.857797 0
M  V30 6183 H 605.542 -1.36021 -3.98844 0
M  V30 6184 H 604.266 -0.363952 -3.24566 0
M  V30 6185 H 602.925 -2.43563 -2.73994 0
M  V30 6186 H 602.573 -1.19891 -4.88503 0
M  V30 6187 H 602.273 -2.94344 -5.08562 0
M  V30 6188 H 603.797 -2.22889 -5.68465 0
M  V30 6189 H 605.211 -3.92738 -4.17648 0
M  V30 6190 H 603.608 -4.63158 -3.81582 0
M  V30 6191 H 604.678 -4.16617 -2.48109 0
M  V30 6192 N 606.021 0.929856 -1.27246 0
M  V30 6193 C 607.251 1.70895 -1.16096 0
M  V30 6194 C 607.659 1.87039 0.285122 0
M  V30 6195 O 607.002 1.38557 1.20614 0
M  V30 6196 C 607.064 3.12919 -1.7698 0
M  V30 6197 C 606.728 3.2012 -3.26148 0
M  V30 6198 C 607.725 3.02533 -4.22812 0
M  V30 6199 C 605.41 3.43148 -3.66817 0
M  V30 6200 C 607.404 3.07861 -5.58122 0
M  V30 6201 C 605.091 3.48109 -5.02258 0
M  V30 6202 C 606.089 3.30483 -5.97721 0
M  V30 6203 O 605.777 3.35175 -7.30694 0
M  V30 6204 H 605.509 0.54152 -0.404639 0
M  V30 6205 H 608.063 1.17342 -1.68582 0
M  V30 6206 H 606.293 3.67945 -1.18969 0
M  V30 6207 H 607.982 3.72787 -1.60576 0
M  V30 6208 H 608.748 2.84586 -3.92728 0
M  V30 6209 H 604.627 3.55918 -2.9299 0
M  V30 6210 H 608.171 2.94021 -6.32612 0
M  V30 6211 H 604.068 3.65579 -5.31998 0
M  V30 6212 H 604.836 3.51644 -7.39114 0
M  V30 6213 N 607.499 1.09233 1.13605 0
M  V30 6214 C 608.748 0.82205 1.84188 0
M  V30 6215 C 609.061 -0.654548 1.84323 0
M  V30 6216 O 610.267 -1.04029 2.50779 0
M  V30 6217 C 608.723 1.42066 3.30674 0
M  V30 6218 C 608.331 2.92965 3.38933 0
M  V30 6219 C 610.075 1.22924 4.06313 0
M  V30 6220 C 607.982 3.45922 4.79679 0
M  V30 6221 H 606.912 0.303854 0.690064 0
M  V30 6222 H 609.563 1.31479 1.28006 0
M  V30 6223 H 607.945 0.855613 3.86646 0
M  V30 6224 H 609.119 3.55679 2.92966 0
M  V30 6225 H 607.434 3.11118 2.76757 0
M  V30 6226 H 610.031 1.59945 5.10217 0
M  V30 6227 H 610.374 0.169726 4.15954 0
M  V30 6228 H 610.907 1.76168 3.56665 0
M  V30 6229 H 607.646 4.51484 4.75229 0
M  V30 6230 H 607.166 2.87971 5.26149 0
M  V30 6231 H 608.845 3.43009 5.48592 0
M  V30 6232 N 608.977 -1.30795 0.87923 0
M  V30 6233 C 610.202 -2.01063 0.508769 0
M  V30 6234 C 610.627 -1.65508 -0.893803 0
M  V30 6235 O 609.985 -0.868616 -1.59138 0
M  V30 6236 C 610.033 -3.54054 0.683991 0
M  V30 6237 O 609.137 -4.11498 -0.272654 0
M  V30 6238 H 608.478 -0.632786 0.201191 0
M  V30 6239 H 611.008 -1.66776 1.18519 0
M  V30 6240 H 611.018 -4.03845 0.580798 0
M  V30 6241 H 609.693 -3.79271 1.70665 0
M  V30 6242 H 608.27 -3.72695 -0.12364 0
M  V30 6243 N 610.455 -0.639598 -1.44038 0
M  V30 6244 C 611.418 0.0506628 -2.29144 0
M  V30 6245 C 612.418 0.764001 -1.41491 0
M  V30 6246 O 613.608 0.607309 -1.63271 0
M  V30 6247 C 610.74 1.0824 -3.2326 0
M  V30 6248 H 611.933 -0.697987 -2.91664 0
M  V30 6249 H 609.486 -0.400146 -1.51091 0
M  V30 6250 H 610.221 1.86075 -2.65606 0
M  V30 6251 H 610.006 0.574725 -3.87865 0
M  V30 6252 H 611.496 1.56487 -3.87171 0
M  V30 6253 N 611.933 1.52934 -0.380664 0
M  V30 6254 C 613.179 2.02443 0.197089 0
M  V30 6255 C 613.534 1.26249 1.45186 0
M  V30 6256 O 612.827 0.351964 1.8834 0
M  V30 6257 C 613.021 3.5349 0.527199 0
M  V30 6258 C 612.85 4.44312 -0.694027 0
M  V30 6259 C 611.62 4.90582 -1.21068 0
M  V30 6260 C 613.818 4.8995 -1.56377 0
M  V30 6261 N 611.8 5.65451 -2.39036 0
M  V30 6262 C 613.171 5.63313 -2.58995 0
M  V30 6263 C 615.226 4.72002 -1.58488 0
M  V30 6264 C 613.929 6.20635 -3.63599 0
M  V30 6265 C 615.955 5.30201 -2.61995 0
M  V30 6266 C 615.317 6.03463 -3.63335 0
M  V30 6267 H 611.416 0.781241 0.0344357 0
M  V30 6268 H 614 1.87387 -0.528609 0
M  V30 6269 H 612.171 3.68677 1.22196 0
M  V30 6270 H 613.903 3.89707 1.09135 0
M  V30 6271 H 610.658 4.67249 -0.772995 0
M  V30 6272 H 611.082 6.07541 -2.98701 0
M  V30 6273 H 615.724 4.14873 -0.814891 0
M  V30 6274 H 613.442 6.76852 -4.41472 0
M  V30 6275 H 617.028 5.182 -2.645 0
M  V30 6276 H 615.908 6.47693 -4.42113 0
M  V30 6277 N 613.412 0.11024 1.57214 0
M  V30 6278 C 614.823 -0.416527 1.81994 0
M  V30 6279 C 615.174 -1.67183 1.02686 0
M  V30 6280 O 614.299 -2.14823 0.260782 0
M  V30 6281 C 614.894 -0.762466 3.30109 0
M  V30 6282 C 613.453 -1.23391 3.556 0
M  V30 6283 C 612.6 -0.238166 2.76275 0
M  V30 6284 H 615.551 0.335491 1.55113 0
M  V30 6285 H 615.572 -1.62068 3.44259 0
M  V30 6286 H 615.084 0.151346 3.87805 0
M  V30 6287 H 613.185 -2.16492 3.03253 0
M  V30 6288 H 613.298 -1.18528 4.64207 0
M  V30 6289 H 611.662 -0.723421 2.4421 0
M  V30 6290 H 612.445 0.668591 3.36727 0
M  V30 6291 N 614.89 -1.56749 -0.16351 0
M  V30 6292 C 616.167 -1.73321 -0.906599 0
M  V30 6293 C 616.547 -0.673779 -2.00059 0
M  V30 6294 O 615.895 0.310121 -2.26386 0
M  V30 6295 C 616.105 -3.168 -1.46419 0
M  V30 6296 C 617.453 -3.77993 -1.93407 0
M  V30 6297 O 618.477 -3.20127 -1.56196 0
M  V30 6298 O 617.336 -4.79615 -2.61976 0
M  V30 6299 H 614.43 -0.708073 -0.427272 0
M  V30 6300 H 616.976 -1.69029 -0.150727 0
M  V30 6301 H 615.748 -3.85396 -0.677189 0
M  V30 6302 H 615.371 -3.2545 -2.28403 0
M  V30 6303 N 616.368 0.432326 -1.51554 0
M  V30 6304 C 617.593 1.20824 -1.68571 0
M  V30 6305 C 618.018 1.84126 -0.384596 0
M  V30 6306 O 617.376 1.69025 0.655751 0
M  V30 6307 C 617.424 2.26429 -2.80646 0
M  V30 6308 O 616.528 3.32032 -2.44598 0
M  V30 6309 H 615.869 0.353765 -0.561913 0
M  V30 6310 H 618.399 0.509916 -1.98144 0
M  V30 6311 H 618.409 2.71133 -3.04878 0
M  V30 6312 H 617.084 1.79733 -3.75058 0
M  V30 6313 H 615.661 2.92769 -2.30956 0
M  V30 6314 N 617.846 1.41785 0.688094 0
M  V30 6315 C 618.776 1.47 1.8142 0
M  V30 6316 C 619.757 0.327881 1.6691 0
M  V30 6317 O 620.942 0.540362 1.86531 0
M  V30 6318 C 618.072 1.35876 3.19617 0
M  V30 6319 C 617.026 2.47976 3.48844 0
M  V30 6320 C 616.352 2.21915 4.86475 0
M  V30 6321 C 617.652 3.90309 3.47068 0
M  V30 6322 H 619.346 2.41247 1.77314 0
M  V30 6323 H 616.892 1.16116 0.851651 0
M  V30 6324 H 618.845 1.38134 3.98117 0
M  V30 6325 H 617.569 0.38116 3.24368 0
M  V30 6326 H 616.228 2.45013 2.72698 0
M  V30 6327 H 615.876 1.2248 4.8786 0
M  V30 6328 H 615.576 2.97037 5.06994 0
M  V30 6329 H 617.1 2.25901 5.67275 0
M  V30 6330 H 618.514 3.94947 4.1556 0
M  V30 6331 H 616.911 4.65175 3.7912 0
M  V30 6332 H 617.981 4.17927 2.45896 0
M  V30 6333 N 619.324 -0.923095 1.27737 0
M  V30 6334 C 620.735 -1.48626 1.12993 0
M  V30 6335 C 621.086 -1.94142 -0.283439 0
M  V30 6336 O 620.211 -1.81605 -1.17681 0
M  V30 6337 C 620.806 -2.70117 2.04505 0
M  V30 6338 C 619.365 -3.22642 1.93853 0
M  V30 6339 C 618.512 -1.95368 1.96791 0
M  V30 6340 H 621.463 -0.736737 1.40563 0
M  V30 6341 H 621.484 -3.4506 1.60356 0
M  V30 6342 H 620.996 -2.36959 3.07363 0
M  V30 6343 H 619.097 -3.60549 0.939968 0
M  V30 6344 H 619.21 -3.88525 2.80331 0
M  V30 6345 H 617.574 -2.12061 1.41076 0
M  V30 6346 H 618.357 -1.64517 3.01312 0
M  V30 6347 N 620.802 -1.09834 -1.13024 0
M  V30 6348 C 622.079 -0.749225 -1.80682 0
M  V30 6349 C 622.459 0.765171 -1.96744 0
M  V30 6350 O 621.807 1.68912 -1.53886 0
M  V30 6351 C 622.017 -1.49311 -3.15448 0
M  V30 6352 C 623.365 -1.66162 -3.90737 0
M  V30 6353 O 624.389 -1.45597 -3.25085 0
M  V30 6354 O 623.248 -2.00211 -5.08505 0
M  V30 6355 H 620.342 -0.269614 -0.781817 0
M  V30 6356 H 622.888 -1.20078 -1.19914 0
M  V30 6357 H 621.66 -2.52407 -2.99009 0
M  V30 6358 H 621.283 -1.034 -3.8392 0
M  V30 6359 N 622.28 1.30327 -0.886154 0
M  V30 6360 C 623.21 2.30549 -0.370028 0
M  V30 6361 C 624.191 1.61039 0.547751 0
M  V30 6362 O 625.376 1.8864 0.461353 0
M  V30 6363 C 622.506 3.44808 0.415275 0
M  V30 6364 C 621.46 4.26024 -0.41085 0
M  V30 6365 C 620.786 5.32347 0.501128 0
M  V30 6366 C 622.086 4.95433 -1.65359 0
M  V30 6367 H 623.78 2.73969 -1.20754 0
M  V30 6368 H 621.326 1.3171 -0.582097 0
M  V30 6369 H 623.279 4.13986 0.78699 0
M  V30 6370 H 622.003 3.00197 1.28644 0
M  V30 6371 H 620.662 3.58535 -0.764719 0
M  V30 6372 H 620.31 4.83982 1.37004 0
M  V30 6373 H 620.01 5.87581 -0.0478356 0
M  V30 6374 H 621.534 6.0438 0.869333 0
M  V30 6375 H 622.948 5.5712 -1.35239 0
M  V30 6376 H 621.345 5.60537 -2.14284 0
M  V30 6377 H 622.415 4.21493 -2.39733 0
M  V30 6378 N 623.758 0.647228 1.43697 0
M  V30 6379 C 624.983 0.164083 2.0675 0
M  V30 6380 C 625.408 -1.15892 1.48158 0
M  V30 6381 O 624.766 -1.71459 0.589194 0
M  V30 6382 C 624.814 0.0800368 3.60511 0
M  V30 6383 O 623.918 -0.959453 4.01084 0
M  V30 6384 H 623.259 0.0921288 0.657578 0
M  V30 6385 H 625.789 0.88846 1.84303 0
M  V30 6386 H 625.799 -0.105263 4.07864 0
M  V30 6387 H 624.474 1.04586 4.02535 0
M  V30 6388 H 623.051 -0.747425 3.65333 0
M  V30 6389 N 625.236 -1.5273 0.388769 0
M  V30 6390 C 626.482 -2.01871 -0.193877 0
M  V30 6391 C 626.815 -1.27475 -1.46505 0
M  V30 6392 O 626.09 -0.375063 -1.90849 0
M  V30 6393 C 626.373 -3.5712 -0.462336 0
M  V30 6394 C 626.226 -4.42186 0.824091 0
M  V30 6395 C 627.545 -4.21881 -1.25319 0
M  V30 6396 H 624.664 -0.733764 -0.0689899 0
M  V30 6397 H 627.306 -1.82796 0.518231 0
M  V30 6398 H 625.456 -3.73504 -1.06896 0
M  V30 6399 H 627.128 -4.37554 1.46096 0
M  V30 6400 H 625.371 -4.09219 1.43952 0
M  V30 6401 H 626.042 -5.48828 0.590905 0
M  V30 6402 H 628.518 -4.0947 -0.73981 0
M  V30 6403 H 627.394 -5.30487 -1.40977 0
M  V30 6404 H 627.655 -3.79478 -2.26824 0
M  V30 6405 N 626.714 -0.118576 -1.57153 0
M  V30 6406 C 627.961 0.539526 -1.9518 0
M  V30 6407 C 628.289 1.66714 -1.00184 0
M  V30 6408 O 627.544 1.95683 -0.0256482 0
M  V30 6409 C 627.843 1.11303 -3.39627 0
M  V30 6410 C 627.509 0.106809 -4.50773 0
M  V30 6411 C 626.171 -0.169876 -4.809 0
M  V30 6412 C 628.523 -0.57895 -5.17975 0
M  V30 6413 C 625.851 -1.13861 -5.75545 0
M  V30 6414 C 628.203 -1.53631 -6.13661 0
M  V30 6415 C 626.867 -1.82099 -6.42181 0
M  V30 6416 H 626.137 0.197427 -0.714215 0
M  V30 6417 H 628.784 -0.199391 -1.90459 0
M  V30 6418 H 627.089 1.92869 -3.4104 0
M  V30 6419 H 628.786 1.63032 -3.66363 0
M  V30 6420 H 625.376 0.332645 -4.27307 0
M  V30 6421 H 629.56 -0.378359 -4.94856 0
M  V30 6422 H 624.816 -1.36592 -5.95947 0
M  V30 6423 H 628.99 -2.07337 -6.64819 0
M  V30 6424 H 626.617 -2.57319 -7.15326 0
M  V30 6425 N 628.193 1.56834 0.155195 0
M  V30 6426 C 629.125 1.94235 1.21677 0
M  V30 6427 C 630.138 0.83724 1.39621 0
M  V30 6428 O 631.327 1.11567 1.39338 0
M  V30 6429 C 628.427 2.19402 2.58294 0
M  V30 6430 C 627.6 3.50671 2.61436 0
M  V30 6431 C 626.659 3.64475 3.79532 0
M  V30 6432 O 625.685 4.36945 3.64784 0
M  V30 6433 N 626.887 3.00526 4.96653 0
M  V30 6434 H 629.652 2.85901 0.898932 0
M  V30 6435 H 627.213 1.58185 0.34483 0
M  V30 6436 H 629.205 2.25886 3.35794 0
M  V30 6437 H 627.775 1.34042 2.82403 0
M  V30 6438 H 626.995 3.55702 1.69912 0
M  V30 6439 H 628.283 4.3702 2.60559 0
M  V30 6440 H 627.681 2.41549 5.11538 0
M  V30 6441 H 626.238 3.12583 5.71958 0
M  V30 6442 N 629.671 -0.424282 1.51781 0
M  V30 6443 C 630.619 -1.53649 1.74628 0
M  V30 6444 C 631.613 -1.57923 0.612922 0
M  V30 6445 O 632.819 -1.61511 0.794618 0
M  V30 6446 H 629.194 -0.510706 0.551981 0
M  V30 6447 H 631.165 -1.31558 2.67834 0
M  V30 6448 C 629.914 -2.91177 1.9003 0
M  V30 6449 H 629.237 -2.88625 2.76651 0
M  V30 6450 H 630.677 -3.6833 2.10021 0
M  V30 6451 C 629.136 -3.30303 0.663435 0
M  V30 6452 O 629.666 -4.01315 -0.175812 0
M  V30 6453 N 627.872 -2.86201 0.503723 0
M  V30 6454 H 627.419 -2.28583 1.18776 0
M  V30 6455 H 627.377 -3.12741 -0.322575 0
M  V30 6456 N 631.149 -1.42148 -0.680565 0
M  V30 6457 C 632.079 -1.4796 -1.80638 0
M  V30 6458 C 633.06 -0.336728 -1.66734 0
M  V30 6459 O 634.245 -0.550247 -1.86242 0
M  V30 6460 C 631.375 -1.37569 -3.18892 0
M  V30 6461 C 630.329 -2.49823 -3.47524 0
M  V30 6462 C 629.655 -2.24491 -4.85291 0
M  V30 6463 C 630.955 -3.92144 -3.44994 0
M  V30 6464 H 632.649 -2.42184 -1.76032 0
M  V30 6465 H 630.195 -1.16566 -0.845481 0
M  V30 6466 H 632.148 -1.40243 -3.97379 0
M  V30 6467 H 630.872 -0.398357 -3.24162 0
M  V30 6468 H 629.531 -2.46455 -2.71395 0
M  V30 6469 H 629.179 -1.25066 -4.87204 0
M  V30 6470 H 628.879 -2.99722 -5.05411 0
M  V30 6471 H 630.403 -2.28906 -5.66069 0
M  V30 6472 H 631.817 -3.97145 -4.13459 0
M  V30 6473 H 630.214 -4.67179 -3.76648 0
M  V30 6474 H 631.284 -4.19225 -2.43676 0
M  V30 6475 N 632.627 0.916307 -1.28225 0
M  V30 6476 C 633.559 2.02303 -1.07732 0
M  V30 6477 C 634.572 1.62773 -0.0298421 0
M  V30 6478 O 635.761 1.76406 -0.272626 0
M  V30 6479 C 632.861 3.33282 -0.614504 0
M  V30 6480 C 632.034 4.01439 -1.73682 0
M  V30 6481 C 631.093 5.10698 -1.26781 0
M  V30 6482 O 630.119 5.34038 -1.96958 0
M  V30 6483 N 631.321 5.80355 -0.129624 0
M  V30 6484 H 634.086 2.20442 -2.03041 0
M  V30 6485 H 631.647 1.08744 -1.19943 0
M  V30 6486 H 633.639 4.03699 -0.284397 0
M  V30 6487 H 632.209 3.11633 0.245664 0
M  V30 6488 H 631.429 3.24604 -2.23665 0
M  V30 6489 H 632.717 4.43721 -2.48976 0
M  V30 6490 H 632.115 5.6386 0.455847 0
M  V30 6491 H 630.672 6.51647 0.141224 0
M  V30 6492 N 634.105 1.10431 1.1244 0
M  V30 6493 C 635.351 0.847972 1.84221 0
M  V30 6494 C 635.684 -0.624903 1.83871 0
M  V30 6495 O 634.959 -1.46074 1.28423 0
M  V30 6496 C 635.242 1.39695 3.319 0
M  V30 6497 C 635.095 2.93668 3.40704 0
M  V30 6498 C 636.414 1.03924 4.27654 0
M  V30 6499 H 633.533 0.309502 0.668863 0
M  V30 6500 H 636.175 1.36745 1.31912 0
M  V30 6501 H 634.325 0.955095 3.76577 0
M  V30 6502 H 635.997 3.46379 3.04662 0
M  V30 6503 H 634.24 3.30272 2.81252 0
M  V30 6504 H 634.911 3.27162 4.446 0
M  V30 6505 H 637.387 1.42049 3.91102 0
M  V30 6506 H 636.263 1.45027 5.29394 0
M  V30 6507 H 636.524 -0.051336 4.4207 0
M  V30 6508 N 635.583 -1.29855 0.893053 0
M  V30 6509 C 636.832 -1.95104 0.511597 0
M  V30 6510 C 637.145 -1.71226 -0.945567 0
M  V30 6511 O 638.351 -2.30525 -1.43424 0
M  V30 6512 C 636.807 -3.49374 0.864034 0
M  V30 6513 C 636.415 -3.82061 2.33952 0
M  V30 6514 C 638.159 -4.20894 0.552167 0
M  V30 6515 C 636.066 -5.29546 2.63316 0
M  V30 6516 H 634.996 -0.73029 0.187597 0
M  V30 6517 H 637.647 -1.47682 1.08914 0
M  V30 6518 H 636.029 -3.95413 0.215493 0
M  V30 6519 H 637.203 -3.46904 3.03305 0
M  V30 6520 H 635.518 -3.23665 2.61973 0
M  V30 6521 H 638.115 -5.29435 0.748489 0
M  V30 6522 H 638.458 -4.13178 -0.508924 0
M  V30 6523 H 638.991 -3.80564 1.15825 0
M  V30 6524 H 635.73 -5.4232 3.68197 0
M  V30 6525 H 635.25 -5.65974 1.9858 0
M  V30 6526 H 636.929 -5.97068 2.49236 0
M  V30 6527 N 637.061 -0.65484 -1.43351 0
M  V30 6528 C 638.477 -0.32255 -1.56307 0
M  V30 6529 C 638.677 1.17324 -1.63821 0
M  V30 6530 O 637.733 1.95813 -1.59417 0
M  V30 6531 C 639.046 -1.03533 -2.82314 0
M  V30 6532 C 640.594 -1.01574 -2.9606 0
M  V30 6533 C 641.069 -1.70945 -4.24902 0
M  V30 6534 N 642.56 -1.67716 -4.3177 0
M  V30 6535 C 643.295 -2.18265 -5.30234 0
M  V30 6536 N 642.791 -2.7711 -6.34966 0
M  V30 6537 N 644.584 -2.08756 -5.21898 0
M  V30 6538 H 636.735 -1.62549 -1.36717 0
M  V30 6539 H 638.998 -0.683676 -0.656727 0
M  V30 6540 H 638.704 -2.09045 -2.8283 0
M  V30 6541 H 638.578 -0.587913 -3.7259 0
M  V30 6542 H 640.965 0.0309834 -2.95084 0
M  V30 6543 H 641.046 -1.50186 -2.07069 0
M  V30 6544 H 640.69 -2.75574 -4.26639 0
M  V30 6545 H 640.62 -1.19797 -5.12793 0
M  V30 6546 H 643.111 -1.24777 -3.56706 0
M  V30 6547 H 643.424 -3.13353 -7.06421 0
M  V30 6548 H 641.769 -2.81171 -6.35585 0
M  V30 6549 H 644.96 -1.62488 -4.38994 0
M  V30 6550 H 645.133 -2.48459 -5.98475 0
M  V30 6551 N 638.539 1.52521 -0.396863 0
M  V30 6552 C 639.787 2.01274 0.182536 0
M  V30 6553 C 640.108 1.28485 1.46685 0
M  V30 6554 O 639.378 0.407134 1.91623 0
M  V30 6555 H 637.958 0.743671 0.0704442 0
M  V30 6556 H 640.62 1.87547 -0.530289 0
M  V30 6557 H 639.716 3.09687 0.387385 0
M  V30 6558 N 640.017 0.126909 1.57088 0
M  V30 6559 C 641.433 -0.229641 1.57939 0
M  V30 6560 C 641.633 -1.66145 1.1401 0
M  V30 6561 O 640.689 -2.3843 0.831119 0
M  V30 6562 C 642.002 0.0108648 3.00698 0
M  V30 6563 C 643.55 -0.054418 3.12953 0
M  V30 6564 C 644.025 0.158497 4.57726 0
M  V30 6565 N 645.516 0.104735 4.63082 0
M  V30 6566 C 646.251 0.24427 5.72879 0
M  V30 6567 N 645.747 0.440415 6.91399 0
M  V30 6568 N 647.54 0.183286 5.61801 0
M  V30 6569 H 639.691 1.06203 1.83942 0
M  V30 6570 H 641.954 0.418834 0.85046 0
M  V30 6571 H 641.66 1.00102 3.37154 0
M  V30 6572 H 641.534 -0.717512 3.70313 0
M  V30 6573 H 643.921 -1.0351 2.7635 0
M  V30 6574 H 644.002 0.705967 2.45865 0
M  V30 6575 H 643.646 1.13619 4.95028 0
M  V30 6576 H 643.576 -0.62197 5.22914 0
M  V30 6577 H 646.067 -0.0430298 3.77876 0
M  V30 6578 H 646.38 0.537536 7.70928 0
M  V30 6579 H 644.725 0.476488 6.93365 0
M  V30 6580 H 647.916 0.0309561 4.6809 0
M  V30 6581 H 648.089 0.295471 6.47326 0
M  V30 6582 N 641.495 -1.56914 -0.146875 0
M  V30 6583 C 642.744 -1.82546 -0.857898 0
M  V30 6584 C 643.057 -0.708169 -1.8233 0
M  V30 6585 O 644.263 -0.850093 -2.57848 0
M  V30 6586 C 642.719 -3.23548 -1.57623 0
M  V30 6587 C 642.327 -4.43212 -0.653224 0
M  V30 6588 C 644.071 -3.58453 -2.27402 0
M  V30 6589 C 641.978 -5.75237 -1.37318 0
M  V30 6590 H 640.908 -0.680786 -0.32411 0
M  V30 6591 H 643.559 -1.83166 -0.110639 0
M  V30 6592 H 641.941 -3.17315 -2.36912 0
M  V30 6593 H 643.115 -4.60682 0.104452 0
M  V30 6594 H 641.43 -4.16351 -0.0638336 0
M  V30 6595 H 644.027 -4.54349 -2.81907 0
M  V30 6596 H 644.37 -2.84516 -3.03901 0
M  V30 6597 H 644.903 -3.66347 -1.55032 0
M  V30 6598 H 641.642 -6.52269 -0.650041 0
M  V30 6599 H 641.162 -5.61703 -2.10357 0
M  V30 6600 H 642.841 -6.18039 -1.91406 0
M  V30 6601 N 642.974 0.416227 -1.52004 0
M  V30 6602 C 643.904 1.51365 -1.77795 0
M  V30 6603 C 644.885 1.58059 -0.628601 0
M  V30 6604 O 646.07 1.73447 -0.873478 0
M  V30 6605 C 643.2 2.89256 -1.92219 0
M  V30 6606 C 642.154 2.97415 -3.0778 0
M  V30 6607 C 641.48 4.37492 -3.07417 0
M  V30 6608 C 642.78 2.69551 -4.47369 0
M  V30 6609 H 644.474 1.30033 -2.69688 0
M  V30 6610 H 642.02 0.624112 -1.29772 0
M  V30 6611 H 643.973 3.66008 -2.08845 0
M  V30 6612 H 642.697 3.11866 -0.969917 0
M  V30 6613 H 641.356 2.23107 -2.90893 0
M  V30 6614 H 641.004 4.571 -2.09925 0
M  V30 6615 H 640.704 4.43877 -3.85029 0
M  V30 6616 H 642.228 5.16188 -3.26162 0
M  V30 6617 H 643.642 3.36028 -4.64497 0
M  V30 6618 H 642.039 2.87321 -5.26846 0
M  V30 6619 H 643.109 1.65029 -4.55953 0
M  V30 6620 N 644.452 1.42507 0.673017 0
M  V30 6621 C 645.402 1.4258 1.77919 0
M  V30 6622 C 646.386 0.296885 1.58137 0
M  V30 6623 O 647.578 0.539243 1.68586 0
M  V30 6624 C 644.707 1.33238 3.1639 0
M  V30 6625 C 643.793 2.51081 3.41788 0
M  V30 6626 N 644.184 3.76498 3.37761 0
M  V30 6627 C 642.482 2.4538 3.72431 0
M  V30 6628 C 643.183 4.54784 3.62693 0
M  V30 6629 N 642.159 3.8522 3.83544 0
M  V30 6630 H 645.961 2.37442 1.73201 0
M  V30 6631 H 643.475 1.36881 0.873924 0
M  V30 6632 H 645.472 1.31372 3.9566 0
M  V30 6633 H 644.132 0.393794 3.22303 0
M  V30 6634 H 645.143 4.09068 3.17622 0
M  V30 6635 H 641.82 1.60109 3.85579 0
M  V30 6636 H 643.21 5.63774 3.65525 0
M  V30 6637 N 645.93 -0.909495 1.28709 0
M  V30 6638 C 646.878 -2.03381 1.12866 0
M  V30 6639 C 647.872 -1.69335 0.0468074 0
M  V30 6640 O 649.078 -1.78819 0.205891 0
M  V30 6641 H 645.453 -0.666452 0.348348 0
M  V30 6642 H 647.424 -2.13885 2.08077 0
M  V30 6643 C 646.173 -3.38092 0.811742 0
M  V30 6644 H 645.496 -3.64786 1.63619 0
M  V30 6645 H 646.936 -4.17477 0.740869 0
M  V30 6646 C 645.395 -3.33395 -0.484679 0
M  V30 6647 O 645.925 -3.72089 -1.5137 0
M  V30 6648 N 644.131 -2.86491 -0.486961 0
M  V30 6649 H 643.678 -2.55199 0.350877 0
M  V30 6650 H 643.636 -2.83731 -1.3544 0
M  V30 6651 N 647.408 -1.11026 -1.11852 0
M  V30 6652 C 648.656 -0.854769 -1.83134 0
M  V30 6653 C 648.977 0.621375 -1.84835 0
M  V30 6654 O 648.247 1.45129 -1.31584 0
M  V30 6655 H 646.827 -0.313229 -0.678157 0
M  V30 6656 H 649.489 -1.40178 -1.35411 0
M  V30 6657 H 648.585 -1.22311 -2.87135 0
M  V30 6658 N 648.886 1.2938 -0.899927 0
M  V30 6659 C 649.849 2.25983 -0.382677 0
M  V30 6660 C 650.849 1.53366 0.483259 0
M  V30 6661 O 652.039 1.71798 0.28828 0
M  V30 6662 C 649.171 3.37878 0.452915 0
M  V30 6663 H 650.364 2.73252 -1.23586 0
M  V30 6664 H 647.917 1.40825 -0.678088 0
M  V30 6665 H 648.652 2.95949 1.32608 0
M  V30 6666 H 648.437 3.91742 -0.167562 0
M  V30 6667 H 649.927 4.09746 0.806107 0
M  V30 6668 N 650.364 0.662433 1.43002 0
M  V30 6669 C 651.594 0.187343 2.05749 0
M  V30 6670 C 652.002 -1.15582 1.49791 0
M  V30 6671 O 651.345 -1.72651 0.627487 0
M  V30 6672 C 651.407 0.0316493 3.59486 0
M  V30 6673 C 651.071 1.30156 4.38073 0
M  V30 6674 C 652.068 2.23234 4.69535 0
M  V30 6675 C 649.753 1.54572 4.77926 0
M  V30 6676 C 651.747 3.39012 5.39768 0
M  V30 6677 C 649.434 2.70641 5.47902 0
M  V30 6678 C 650.432 3.62687 5.78746 0
M  V30 6679 O 650.12 4.76728 6.47291 0
M  V30 6680 H 649.852 0.0915214 0.669776 0
M  V30 6681 H 652.406 0.905982 1.8434 0
M  V30 6682 H 650.636 -0.742451 3.79506 0
M  V30 6683 H 652.325 -0.401977 4.03905 0
M  V30 6684 H 653.091 2.05616 4.39257 0
M  V30 6685 H 648.97 0.83804 4.53319 0
M  V30 6686 H 652.514 4.10877 5.63761 0
M  V30 6687 H 648.411 2.88189 5.77596 0
M  V30 6688 H 649.179 4.76113 6.65777 0
M  V30 6689 N 651.842 -1.52309 0.404946 0
M  V30 6690 C 653.067 -2.06666 -0.1743 0
M  V30 6691 C 653.492 -1.27341 -1.38441 0
M  V30 6692 O 652.85 -0.302539 -1.78758 0
M  V30 6693 C 652.898 -3.57014 -0.507262 0
M  V30 6694 O 652.002 -3.80144 -1.59889 0
M  V30 6695 H 651.343 -0.663807 -0.0160273 0
M  V30 6696 H 653.873 -1.96297 0.576937 0
M  V30 6697 H 653.883 -4.00724 -0.767098 0
M  V30 6698 H 652.558 -4.14184 0.377368 0
M  V30 6699 H 651.135 -3.48316 -1.33155 0
M  V30 6700 N 653.32 -0.135238 -1.57019 0
M  V30 6701 C 654.25 0.805235 -2.19176 0
M  V30 6702 C 655.231 1.2656 -1.13651 0
M  V30 6703 O 656.416 1.32528 -1.4195 0
M  V30 6704 C 653.546 2.04914 -2.80406 0
M  V30 6705 C 652.5 1.72598 -3.91655 0
M  V30 6706 C 651.826 3.04154 -4.39766 0
M  V30 6707 C 653.126 0.981709 -5.12991 0
M  V30 6708 H 654.82 0.287232 -2.98019 0
M  V30 6709 H 652.366 0.136714 -1.4335 0
M  V30 6710 H 654.319 2.71178 -3.22553 0
M  V30 6711 H 653.043 2.59067 -1.98877 0
M  V30 6712 H 651.702 1.08717 -3.50109 0
M  V30 6713 H 651.35 3.56274 -3.55075 0
M  V30 6714 H 651.05 2.83299 -5.14796 0
M  V30 6715 H 652.574 3.71509 -4.84576 0
M  V30 6716 H 653.988 1.5462 -5.52056 0
M  V30 6717 H 652.385 0.873533 -5.93708 0
M  V30 6718 H 653.455 -0.0286887 -4.84892 0
M  V30 6719 N 654.798 1.5699 0.138552 0
M  V30 6720 C 656.026 1.87976 0.864437 0
M  V30 6721 C 656.441 0.724372 1.74351 0
M  V30 6722 O 655.798 -0.305575 1.79924 0
M  V30 6723 C 655.849 3.18276 1.71414 0
M  V30 6724 O 655.57 4.29365 0.870487 0
M  V30 6725 C 657.071 3.62834 2.54688 0
M  V30 6726 H 654.291 0.622878 0.249528 0
M  V30 6727 H 656.835 2.04094 0.128805 0
M  V30 6728 H 654.99 3.03886 2.40274 0
M  V30 6729 H 655.404 5.03924 1.45466 0
M  V30 6730 H 656.878 4.5682 3.0987 0
M  V30 6731 H 657.355 2.88533 3.31127 0
M  V30 6732 H 657.961 3.79946 1.91105 0
M  V30 6733 N 656.276 -0.40816 1.52223 0
M  V30 6734 C 657.206 -1.5042 1.78595 0
M  V30 6735 C 658.187 -1.57723 0.636974 0
M  V30 6736 O 659.372 -1.72982 0.882664 0
M  V30 6737 C 656.502 -2.88232 1.93751 0
M  V30 6738 C 655.456 -2.95779 3.09352 0
M  V30 6739 C 654.782 -4.35855 3.09732 0
M  V30 6740 C 656.082 -2.67175 4.48793 0
M  V30 6741 H 657.776 -1.28601 2.70374 0
M  V30 6742 H 655.322 -0.617221 1.30101 0
M  V30 6743 H 657.275 -3.64895 2.10783 0
M  V30 6744 H 655.999 -3.11347 0.986443 0
M  V30 6745 H 654.658 -2.21561 2.92072 0
M  V30 6746 H 654.306 -4.55981 2.12346 0
M  V30 6747 H 654.006 -4.41829 3.87377 0
M  V30 6748 H 655.53 -5.14451 3.28895 0
M  V30 6749 H 656.944 -3.3356 4.66273 0
M  V30 6750 H 655.341 -2.84523 5.28362 0
M  V30 6751 H 656.411 -1.62609 4.56822 0
M  V30 6752 N 657.755 -1.42862 -0.66545 0
M  V30 6753 C 658.687 -1.43026 -1.79098 0
M  V30 6754 C 659.7 -0.32803 -1.59461 0
M  V30 6755 O 660.889 -0.591709 -1.68407 0
M  V30 6756 C 657.989 -1.21566 -3.16346 0
M  V30 6757 C 657.162 -2.44399 -3.62751 0
M  V30 6758 C 656.221 -2.18344 -4.78761 0
M  V30 6759 O 655.247 -2.91611 -4.88827 0
M  V30 6760 N 656.449 -1.1924 -5.68122 0
M  V30 6761 H 659.214 -2.40045 -1.79439 0
M  V30 6762 H 656.775 -1.37861 -0.848872 0
M  V30 6763 H 658.767 -1.02037 -3.91625 0
M  V30 6764 H 657.337 -0.330368 -3.10849 0
M  V30 6765 H 656.557 -2.79433 -2.78048 0
M  V30 6766 H 657.845 -3.26173 -3.90498 0
M  V30 6767 H 657.243 -0.586603 -5.6265 0
M  V30 6768 H 655.8 -1.05698 -6.43173 0
M  V30 6769 N 659.233 0.902656 -1.29189 0
M  V30 6770 C 660.481 1.6496 -1.16758 0
M  V30 6771 C 660.802 1.92952 0.28188 0
M  V30 6772 O 660.072 1.55351 1.19344 0
M  V30 6773 H 658.652 0.611447 -0.429118 0
M  V30 6774 H 661.314 1.0825 -1.62074 0
M  V30 6775 H 660.41 2.60728 -1.71544 0
M  V30 6776 N 660.711 1.11618 1.11262 0
M  V30 6777 C 661.641 0.79846 2.19424 0
M  V30 6778 C 662.622 -0.234003 1.68483 0
M  V30 6779 O 663.807 -0.0970704 1.93957 0
M  V30 6780 C 660.937 0.242892 3.4645 0
M  V30 6781 C 659.891 1.20744 4.10615 0
M  V30 6782 C 659.217 0.512494 5.32238 0
M  V30 6783 C 660.517 2.55884 4.55325 0
M  V30 6784 H 662.211 1.70286 2.46258 0
M  V30 6785 H 659.757 0.820195 1.18359 0
M  V30 6786 H 661.71 0.00840447 4.21399 0
M  V30 6787 H 660.434 -0.696811 3.1908 0
M  V30 6788 H 659.093 1.42759 3.37662 0
M  V30 6789 H 658.741 -0.432075 5.01141 0
M  V30 6790 H 658.441 1.15583 5.7612 0
M  V30 6791 H 659.965 0.286842 6.09926 0
M  V30 6792 H 661.379 2.37946 5.21588 0
M  V30 6793 H 659.776 3.16216 5.10027 0
M  V30 6794 H 660.846 3.14968 3.68678 0
M  V30 6795 N 662.189 -1.289 0.906776 0
M  V30 6796 C 663.437 -1.94883 0.535266 0
M  V30 6797 C 663.758 -1.71784 -0.922791 0
M  V30 6798 O 663.028 -1.05359 -1.65156 0
M  V30 6799 H 661.608 -0.721109 0.194962 0
M  V30 6800 H 664.27 -1.57018 1.15461 0
M  V30 6801 H 663.366 -3.03591 0.723821 0
M  V30 6802 N 663.667 -0.670007 -1.42649 0
M  V30 6803 C 664.916 -0.187526 -2.00826 0
M  V30 6804 C 665.229 1.21142 -1.53571 0
M  V30 6805 O 666.435 1.79001 -2.04134 0
M  V30 6806 C 664.891 -0.284409 -3.58774 0
M  V30 6807 C 664.499 -1.6871 -4.15019 0
M  V30 6808 C 666.243 0.139605 -4.2427 0
M  V30 6809 C 664.15 -1.73701 -5.65316 0
M  V30 6810 H 663.08 -0.0663468 -0.751075 0
M  V30 6811 H 665.731 -0.834492 -1.63427 0
M  V30 6812 H 664.113 0.430364 -3.93655 0
M  V30 6813 H 665.287 -2.42857 -3.91608 0
M  V30 6814 H 663.602 -2.05855 -3.61957 0
M  V30 6815 H 666.199 0.122398 -5.3456 0
M  V30 6816 H 666.542 1.17403 -3.99402 0
M  V30 6817 H 667.075 -0.523995 -3.94334 0
M  V30 6818 H 663.814 -2.75109 -5.94975 0
M  V30 6819 H 663.334 -1.03903 -5.90732 0
M  V30 6820 H 665.013 -1.48829 -6.2965 0
M  V30 6821 N 665.145 1.52092 -0.413018 0
M  V30 6822 C 666.37 2.06756 0.163338 0
M  V30 6823 C 666.795 1.28073 1.37764 0
M  V30 6824 O 666.153 0.312015 1.78595 0
M  V30 6825 C 666.201 3.57278 0.488322 0
M  V30 6826 O 665.305 3.80986 1.57871 0
M  V30 6827 H 664.646 0.663882 0.0125068 0
M  V30 6828 H 667.176 1.95988 -0.587339 0
M  V30 6829 H 667.186 4.01125 0.745836 0
M  V30 6830 H 665.861 4.13978 -0.399327 0
M  V30 6831 H 664.438 3.49017 1.31306 0
M  V30 6832 N 666.623 0.143563 1.56945 0
M  V30 6833 C 667.869 -0.502787 1.97088 0
M  V30 6834 C 668.224 -1.62703 1.02691 0
M  V30 6835 O 667.517 -1.91502 0.0613323 0
M  V30 6836 C 667.711 -1.05885 3.41355 0
M  V30 6837 C 667.54 0.00998209 4.49699 0
M  V30 6838 C 666.31 0.450229 5.0329 0
M  V30 6839 C 668.508 0.800174 5.08037 0
M  V30 6840 N 666.49 1.50227 5.95235 0
M  V30 6841 C 667.861 1.70279 5.96158 0
M  V30 6842 C 669.916 0.848344 4.9062 0
M  V30 6843 C 668.619 2.64945 6.68728 0
M  V30 6844 C 670.645 1.78281 5.63888 0
M  V30 6845 C 670.007 2.67296 6.51715 0
M  V30 6846 H 666.106 -0.152891 0.766908 0
M  V30 6847 H 668.69 0.23737 1.93248 0
M  V30 6848 H 666.861 -1.76863 3.45795 0
M  V30 6849 H 668.593 -1.67154 3.68567 0
M  V30 6850 H 665.348 0.0531355 4.7357 0
M  V30 6851 H 665.772 2.02795 6.45913 0
M  V30 6852 H 670.414 0.174228 4.22441 0
M  V30 6853 H 668.132 3.33358 7.36137 0
M  V30 6854 H 671.718 1.82584 5.52408 0
M  V30 6855 H 670.598 3.38428 7.07415 0
M  V30 6856 N 668.101 -1.57061 -0.130224 0
M  V30 6857 C 669.031 -2.02552 -1.16168 0
M  V30 6858 C 670.012 -0.907971 -1.4384 0
M  V30 6859 O 671.197 -1.17693 -1.54473 0
M  V30 6860 C 668.327 -2.42035 -2.49071 0
M  V30 6861 C 667.281 -3.5713 -2.35886 0
M  V30 6862 C 666.607 -3.82478 -3.7365 0
M  V30 6863 C 667.907 -4.89236 -1.8288 0
M  V30 6864 H 669.601 -2.8897 -0.783359 0
M  V30 6865 H 667.147 -1.39021 -0.375376 0
M  V30 6866 H 669.1 -2.72462 -3.21469 0
M  V30 6867 H 667.824 -1.52573 -2.88771 0
M  V30 6868 H 666.483 -3.26895 -1.65938 0
M  V30 6869 H 666.131 -2.9024 -4.10816 0
M  V30 6870 H 665.831 -4.59944 -3.65685 0
M  V30 6871 H 667.355 -4.15347 -4.47571 0
M  V30 6872 H 668.769 -5.18272 -2.45085 0
M  V30 6873 H 667.166 -5.70624 -1.85763 0
M  V30 6874 H 668.236 -4.78494 -0.785571 0
M  V30 6875 N 669.579 0.400081 -1.52437 0
M  V30 6876 C 670.827 1.14392 -1.6661 0
M  V30 6877 C 671.148 1.90792 -0.402927 0
M  V30 6878 O 670.418 1.87042 0.582425 0
M  V30 6879 H 668.998 0.425275 -0.614125 0
M  V30 6880 H 671.66 0.455076 -1.89513 0
M  V30 6881 H 670.756 1.85298 -2.51139 0
M  V30 6882 N 671.057 1.43213 0.657864 0
M  V30 6883 C 671.987 1.50815 1.78262 0
M  V30 6884 C 672.968 0.363211 1.66177 0
M  V30 6885 O 674.153 0.579806 1.85343 0
M  V30 6886 C 671.283 1.42625 3.16663 0
M  V30 6887 C 670.237 2.5532 3.43505 0
M  V30 6888 C 669.563 2.32184 4.81658 0
M  V30 6889 C 670.863 3.97583 3.38711 0
M  V30 6890 H 672.557 2.44954 1.72157 0
M  V30 6891 H 670.103 1.17896 0.82683 0
M  V30 6892 H 672.056 1.46548 3.95097 0
M  V30 6893 H 670.78 0.449877 3.23487 0
M  V30 6894 H 669.439 2.50742 2.6744 0
M  V30 6895 H 669.087 1.32801 4.85153 0
M  V30 6896 H 668.787 3.07724 5.00579 0
M  V30 6897 H 670.311 2.37883 5.62356 0
M  V30 6898 H 671.725 4.03673 4.07089 0
M  V30 6899 H 670.122 4.73112 3.69168 0
M  V30 6900 H 671.192 4.23049 2.36976 0
M  V30 6901 N 672.536 -0.895792 1.29666 0
M  V30 6902 C 673.952 -1.17726 1.07763 0
M  V30 6903 C 674.152 -2.00794 -0.168576 0
M  V30 6904 O 673.208 -2.37213 -0.865244 0
M  V30 6905 C 674.521 -1.89441 2.33522 0
M  V30 6906 C 676.069 -2.02251 2.3888 0
M  V30 6907 C 676.544 -2.77378 3.64452 0
M  V30 6908 N 678.035 -2.8493 3.65198 0
M  V30 6909 C 678.77 -3.43606 4.59045 0
M  V30 6910 N 678.266 -4.03417 5.63228 0
M  V30 6911 N 680.059 -3.41317 4.46608 0
M  V30 6912 H 672.21 -0.341652 2.09634 0
M  V30 6913 H 674.473 -0.213865 0.923561 0
M  V30 6914 H 674.179 -1.35842 3.24407 0
M  V30 6915 H 674.053 -2.89893 2.41334 0
M  V30 6916 H 676.44 -2.55025 1.4848 0
M  V30 6917 H 676.521 -1.0092 2.3505 0
M  V30 6918 H 676.165 -2.25279 4.55205 0
M  V30 6919 H 676.095 -3.79062 3.65541 0
M  V30 6920 H 678.586 -2.42453 2.89871 0
M  V30 6921 H 678.899 -4.46224 6.30955 0
M  V30 6922 H 677.244 -4.01868 5.67033 0
M  V30 6923 H 680.435 -2.93812 3.64407 0
M  V30 6924 H 680.608 -3.86751 5.1993 0
M  V30 6925 N 674.014 -1.12206 -1.10668 0
M  V30 6926 C 675.239 -0.898938 -1.86906 0
M  V30 6927 C 675.664 0.546346 -1.79991 0
M  V30 6928 O 675.022 1.38655 -1.1681 0
M  V30 6929 C 675.07 -1.37529 -3.33344 0
M  V30 6930 O 674.174 -0.55218 -4.08687 0
M  V30 6931 H 673.515 -0.323163 -0.580053 0
M  V30 6932 H 676.045 -1.49355 -1.39837 0
M  V30 6933 H 676.055 -1.3733 -3.84193 0
M  V30 6934 H 674.73 -2.42767 -3.37693 0
M  V30 6935 H 673.307 -0.620947 -3.67694 0
M  V30 6936 N 675.492 1.28418 -0.913599 0
M  V30 6937 C 676.422 2.29713 -0.418847 0
M  V30 6938 C 677.403 1.62165 0.513469 0
M  V30 6939 O 678.588 1.89576 0.421235 0
M  V30 6940 C 675.718 3.45612 0.342042 0
M  V30 6941 C 674.672 4.25056 -0.501123 0
M  V30 6942 C 673.998 5.3329 0.388097 0
M  V30 6943 C 675.298 4.91814 -1.75831 0
M  V30 6944 H 676.992 2.71346 -1.26538 0
M  V30 6945 H 674.538 1.30446 -0.609903 0
M  V30 6946 H 676.491 4.15562 0.699 0
M  V30 6947 H 675.215 3.02858 1.22248 0
M  V30 6948 H 673.874 3.56833 -0.840598 0
M  V30 6949 H 673.522 4.8678 1.26707 0
M  V30 6950 H 673.222 5.87347 -0.172459 0
M  V30 6951 H 674.746 6.06088 0.74094 0
M  V30 6952 H 676.16 5.54126 -1.47026 0
M  V30 6953 H 674.557 5.55866 -2.26126 0
M  V30 6954 H 675.627 4.16313 -2.4862 0
M  V30 6955 N 676.97 0.677563 1.42291 0
M  V30 6956 C 678.386 0.347376 1.55774 0
M  V30 6957 C 678.586 -1.14703 1.65667 0
M  V30 6958 O 677.642 -1.93252 1.62512 0
M  V30 6959 C 678.955 1.08011 2.80631 0
M  V30 6960 C 680.503 1.06271 2.94407 0
M  V30 6961 C 680.978 1.77683 4.22129 0
M  V30 6962 N 682.469 1.74564 4.29047 0
M  V30 6963 C 683.204 2.26673 5.26694 0
M  V30 6964 N 682.7 2.87176 6.30477 0
M  V30 6965 N 684.493 2.17032 5.18511 0
M  V30 6966 H 676.644 1.64703 1.34114 0
M  V30 6967 H 678.907 0.694038 0.645768 0
M  V30 6968 H 678.613 2.13518 2.79469 0
M  V30 6969 H 678.487 0.647115 3.71608 0
M  V30 6970 H 680.874 0.0159658 2.95096 0
M  V30 6971 H 680.955 1.53461 2.04654 0
M  V30 6972 H 680.599 2.82327 4.22201 0
M  V30 6973 H 680.529 1.2794 5.10822 0
M  V30 6974 H 683.02 1.30436 3.54676 0
M  V30 6975 H 683.333 3.24551 7.01346 0
M  V30 6976 H 681.678 2.91247 6.31031 0
M  V30 6977 H 684.869 1.69451 4.36353 0
M  V30 6978 H 685.042 2.57948 5.94446 0
M  V30 6979 N 678.448 -1.51871 0.421078 0
M  V30 6980 C 679.358 -2.31077 -0.405069 0
M  V30 6981 C 680.374 -1.39301 -1.04265 0
M  V30 6982 O 681.55 -1.72376 -1.04157 0
M  V30 6983 C 678.615 -3.12556 -1.50032 0
M  V30 6984 C 677.676 -4.20088 -0.884559 0
M  V30 6985 C 676.909 -4.97673 -1.92762 0
M  V30 6986 O 677.132 -4.75696 -3.14753 0
M  V30 6987 O 676.066 -5.82203 -1.52719 0
M  V30 6988 H 679.892 -3.02742 0.241086 0
M  V30 6989 H 677.477 -1.48263 0.183991 0
M  V30 6990 H 679.359 -3.6326 -2.13589 0
M  V30 6991 H 678.034 -2.43672 -2.13086 0
M  V30 6992 H 676.941 -3.73502 -0.211379 0
M  V30 6993 H 678.274 -4.91298 -0.297763 0
M  V30 6994 N 679.926 -0.151884 -1.56866 0
M  V30 6995 C 680.856 0.781943 -2.20018 0
M  V30 6996 C 681.837 1.25347 -1.14987 0
M  V30 6997 O 683.022 1.31015 -1.43348 0
M  V30 6998 C 680.152 2.01928 -2.82564 0
M  V30 6999 C 679.106 1.68434 -3.93464 0
M  V30 7000 C 678.432 2.99472 -4.42968 0
M  V30 7001 C 679.732 0.927244 -5.14003 0
M  V30 7002 H 681.426 0.255607 -2.98307 0
M  V30 7003 H 678.972 0.121502 -1.43486 0
M  V30 7004 H 680.925 2.67741 -3.25411 0
M  V30 7005 H 679.649 2.56943 -2.01614 0
M  V30 7006 H 678.308 1.04998 -3.51242 0
M  V30 7007 H 677.956 3.52488 -3.58834 0
M  V30 7008 H 677.656 2.77823 -5.17772 0
M  V30 7009 H 679.18 3.66348 -4.88489 0
M  V30 7010 H 680.594 1.48756 -5.53665 0
M  V30 7011 H 678.991 0.810513 -5.94601 0
M  V30 7012 H 680.061 -0.0801163 -4.84834 0
M  V30 7013 N 681.404 1.57128 0.121893 0
M  V30 7014 C 682.652 1.84335 0.828548 0
M  V30 7015 C 682.973 0.736632 1.80551 0
M  V30 7016 O 682.243 -0.23962 1.94429 0
M  V30 7017 H 680.823 0.680108 0.30897 0
M  V30 7018 H 683.485 1.9459 0.109906 0
M  V30 7019 H 682.581 2.80152 1.37554 0
M  V30 7020 N 682.882 -0.391992 1.52647 0
M  V30 7021 C 684.107 -1.16312 1.71716 0
M  V30 7022 C 684.532 -1.83042 0.433279 0
M  V30 7023 O 683.89 -1.70705 -0.610707 0
M  V30 7024 C 683.938 -2.18908 2.86551 0
M  V30 7025 O 683.042 -3.2543 2.53316 0
M  V30 7026 H 682.383 -0.338743 0.571095 0
M  V30 7027 H 684.913 -0.457202 1.99426 0
M  V30 7028 H 684.923 -2.62954 3.1196 0
M  V30 7029 H 683.598 -1.69726 3.79692 0
M  V30 7030 H 682.175 -2.86543 2.38637 0
M  V30 7031 N 684.36 -1.4356 -0.65026 0
M  V30 7032 C 685.608 -1.45046 -1.40734 0
M  V30 7033 C 685.929 -0.0769822 -1.94848 0
M  V30 7034 O 685.199 0.888098 -1.74613 0
M  V30 7035 H 683.779 -0.534034 -0.522318 0
M  V30 7036 H 686.441 -1.79186 -0.766703 0
M  V30 7037 H 685.537 -2.16476 -2.24822 0
M  V30 7038 N 685.838 0.888903 -1.30139 0
M  V30 7039 C 686.768 2.01046 -1.18755 0
M  V30 7040 C 687.749 1.69916 -0.0791438 0
M  V30 7041 O 688.934 1.92445 -0.260498 0
M  V30 7042 C 686.064 3.36109 -0.874518 0
M  V30 7043 C 685.018 3.81486 -1.94043 0
M  V30 7044 C 684.344 5.13796 -1.48047 0
M  V30 7045 C 685.644 4.00637 -3.35093 0
M  V30 7046 H 687.338 2.10828 -2.12584 0
M  V30 7047 H 684.884 1.01298 -1.02346 0
M  V30 7048 H 686.837 4.14089 -0.781548 0
M  V30 7049 H 685.561 3.26449 0.0994519 0
M  V30 7050 H 684.22 3.05731 -2.02297 0
M  V30 7051 H 683.868 5.0056 -0.494878 0
M  V30 7052 H 683.568 5.45127 -2.19341 0
M  V30 7053 H 685.092 5.94305 -1.40121 0
M  V30 7054 H 686.506 4.69067 -3.2962 0
M  V30 7055 H 684.903 4.43339 -4.04438 0
M  V30 7056 H 685.973 3.0462 -3.77273 0
M  V30 7057 N 687.317 1.12792 1.10072 0
M  V30 7058 C 688.28 0.802264 2.14701 0
M  V30 7059 C 689.28 -0.18515 1.59731 0
M  V30 7060 O 690.47 0.041109 1.74151 0
M  V30 7061 C 687.602 0.19285 3.40354 0
M  V30 7062 H 688.795 1.72932 2.45019 0
M  V30 7063 H 686.348 0.931662 1.25498 0
M  V30 7064 H 687.083 -0.743748 3.15656 0
M  V30 7065 H 686.868 0.903827 3.81541 0
M  V30 7066 H 688.358 -0.0183704 4.17596 0
M  V30 7067 N 688.795 -1.27931 0.920396 0
M  V30 7068 C 689.725 -2.29487 0.431024 0
M  V30 7069 C 690.706 -1.62435 -0.504861 0
M  V30 7070 O 691.891 -1.89797 -0.411176 0
M  V30 7071 C 689.021 -3.45788 -0.323709 0
M  V30 7072 C 687.975 -4.24784 0.523658 0
M  V30 7073 C 687.301 -5.33488 -0.359809 0
M  V30 7074 C 688.601 -4.90874 1.78437 0
M  V30 7075 H 690.295 -2.70671 1.27975 0
M  V30 7076 H 687.841 -1.30121 0.616813 0
M  V30 7077 H 689.794 -4.15927 -0.676952 0
M  V30 7078 H 688.518 -3.03502 -1.2064 0
M  V30 7079 H 687.177 -3.56382 0.85951 0
M  V30 7080 H 686.825 -4.87445 -1.24124 0
M  V30 7081 H 686.525 -5.87247 0.203605 0
M  V30 7082 H 688.049 -6.06472 -0.708787 0
M  V30 7083 H 689.463 -5.53339 1.49963 0
M  V30 7084 H 687.86 -5.54659 2.29071 0
M  V30 7085 H 688.93 -4.14988 2.50824 0
M  V30 7086 N 690.273 -0.685099 -1.4193 0
M  V30 7087 C 691.522 -0.208816 -2.00616 0
M  V30 7088 C 691.835 1.19506 -1.54847 0
M  V30 7089 O 693.041 1.76826 -2.06021 0
M  V30 7090 C 691.497 -0.322446 -3.58453 0
M  V30 7091 C 691.105 -1.73102 -4.13206 0
M  V30 7092 C 692.849 0.0945979 -4.24395 0
M  V30 7093 C 690.756 -1.79687 -5.63442 0
M  V30 7094 H 689.686 -0.0743092 -0.750329 0
M  V30 7095 H 692.337 -0.851778 -1.62533 0
M  V30 7096 H 690.719 0.388588 -3.94089 0
M  V30 7097 H 691.893 -2.46997 -3.8901 0
M  V30 7098 H 690.208 -2.09682 -3.59753 0
M  V30 7099 H 692.805 0.0656937 -5.3466 0
M  V30 7100 H 693.148 1.1316 -4.00625 0
M  V30 7101 H 693.681 -0.56579 -3.93756 0
M  V30 7102 H 690.42 -2.81404 -5.92024 0
M  V30 7103 H 689.94 -1.10162 -5.89597 0
M  V30 7104 H 691.619 -1.55498 -6.28036 0
M  V30 7105 N 691.751 1.51645 -0.429126 0
M  V30 7106 C 692.701 2.24388 0.404217 0
M  V30 7107 C 693.685 1.26294 0.996933 0
M  V30 7108 O 694.877 1.51428 0.916434 0
M  V30 7109 C 692.006 3.08338 1.50938 0
M  V30 7110 C 691.092 4.13857 0.926464 0
M  V30 7111 N 691.483 5.05749 0.0719732 0
M  V30 7112 C 689.781 4.29695 1.19491 0
M  V30 7113 C 690.482 5.81143 -0.254528 0
M  V30 7114 N 689.458 5.42408 0.359763 0
M  V30 7115 H 693.26 2.92794 -0.254697 0
M  V30 7116 H 690.774 1.60606 -0.240712 0
M  V30 7117 H 692.771 3.59022 2.11918 0
M  V30 7118 H 691.431 2.41475 2.17072 0
M  V30 7119 H 692.442 5.17066 -0.293854 0
M  V30 7120 H 689.119 3.74059 1.85434 0
M  V30 7121 H 690.509 6.65159 -0.949365 0
M  V30 7122 N 693.229 0.160201 1.56784 0
M  V30 7123 C 694.179 -0.786461 2.14007 0
M  V30 7124 C 695.163 -1.20046 1.07134 0
M  V30 7125 O 696.355 -1.16468 1.33283 0
M  V30 7126 C 693.484 -2.02024 2.77563 0
M  V30 7127 C 692.57 -1.62874 3.91578 0
M  V30 7128 N 692.961 -0.946176 4.96871 0
M  V30 7129 C 691.259 -1.92054 4.02531 0
M  V30 7130 C 691.96 -0.755084 5.76778 0
M  V30 7131 N 690.936 -1.29307 5.27997 0
M  V30 7132 H 694.738 -0.255879 2.92784 0
M  V30 7133 H 692.252 -0.0408778 1.62349 0
M  V30 7134 H 694.249 -2.70855 3.16928 0
M  V30 7135 H 692.909 -2.55587 2.00263 0
M  V30 7136 H 693.92 -0.605455 5.14349 0
M  V30 7137 H 690.597 -2.47374 3.36322 0
M  V30 7138 H 691.987 -0.216138 6.71552 0
M  V30 7139 N 694.707 -1.5719 -0.113559 0
M  V30 7140 C 695.655 -2.01725 -1.158 0
M  V30 7141 C 696.649 -0.915105 -1.42556 0
M  V30 7142 O 697.855 -1.10031 -1.42454 0
M  V30 7143 H 694.23 -0.64262 -0.390569 0
M  V30 7144 H 696.201 -2.88666 -0.755926 0
M  V30 7145 C 694.95 -2.44203 -2.47507 0
M  V30 7146 H 694.273 -3.28582 -2.27758 0
M  V30 7147 H 695.713 -2.79158 -3.19135 0
M  V30 7148 C 694.172 -1.30785 -3.10478 0
M  V30 7149 O 694.702 -0.626807 -3.9678 0
M  V30 7150 N 692.908 -1.06352 -2.7044 0
M  V30 7151 H 692.455 -1.61913 -2.00355 0
M  V30 7152 H 692.413 -0.306614 -3.12901 0
M  V30 7153 N 696.185 0.383891 -1.52853 0
M  V30 7154 C 697.413 1.1495 -1.7203 0
M  V30 7155 C 697.828 1.83578 -0.440957 0
M  V30 7156 O 697.185 1.72872 0.584925 0
M  V30 7157 C 697.236 2.19368 -2.87333 0
M  V30 7158 O 696.957 1.53536 -4.10315 0
M  V30 7159 C 698.458 3.08616 -3.18231 0
M  V30 7160 H 695.678 0.344445 -0.575846 0
M  V30 7161 H 698.222 0.448397 -1.99524 0
M  V30 7162 H 696.377 2.85105 -2.62286 0
M  V30 7163 H 696.791 2.2296 -4.74752 0
M  V30 7164 H 698.265 3.77902 -4.02361 0
M  V30 7165 H 698.742 3.72409 -2.32826 0
M  V30 7166 H 699.348 2.48518 -3.45136 0
M  V30 7167 N 697.663 1.43903 0.642637 0
M  V30 7168 C 698.613 1.46321 1.74854 0
M  V30 7169 C 699.597 0.330361 1.57472 0
M  V30 7170 O 700.789 0.574881 1.67404 0
M  V30 7171 C 697.918 1.39919 3.13493 0
M  V30 7172 C 697.004 2.58274 3.36385 0
M  V30 7173 N 697.395 3.83578 3.29699 0
M  V30 7174 C 695.693 2.53224 3.67142 0
M  V30 7175 C 696.394 4.62375 3.52965 0
M  V30 7176 N 695.37 3.93269 3.75287 0
M  V30 7177 H 699.172 2.41062 1.68126 0
M  V30 7178 H 696.686 1.38704 0.844693 0
M  V30 7179 H 698.683 1.39735 3.92785 0
M  V30 7180 H 697.343 0.46207 3.21395 0
M  V30 7181 H 698.354 4.15713 3.08874 0
M  V30 7182 H 695.031 1.68252 3.82096 0
M  V30 7183 H 696.421 5.714 3.53485 0
M  V30 7184 N 699.141 -0.881989 1.30609 0
M  V30 7185 C 700.071 -2.00413 1.1982 0
M  V30 7186 C 701.052 -1.69871 0.0881538 0
M  V30 7187 O 702.237 -1.92304 0.2707 0
M  V30 7188 C 699.367 -3.35641 0.89233 0
M  V30 7189 C 698.321 -3.80451 1.96064 0
M  V30 7190 C 697.647 -5.13003 1.5077 0
M  V30 7191 C 698.947 -3.98855 3.37213 0
M  V30 7192 H 700.641 -2.09698 2.13699 0
M  V30 7193 H 698.187 -1.00754 1.02882 0
M  V30 7194 H 700.14 -4.13669 0.803497 0
M  V30 7195 H 698.864 -3.26497 -0.0821381 0
M  V30 7196 H 697.523 -3.04654 2.03916 0
M  V30 7197 H 697.171 -5.0029 0.521417 0
M  V30 7198 H 696.871 -5.43956 2.22229 0
M  V30 7199 H 698.395 -5.93554 1.43271 0
M  V30 7200 H 699.809 -4.67312 3.32103 0
M  V30 7201 H 698.206 -4.41188 4.06784 0
M  V30 7202 H 699.276 -3.02614 3.78883 0
M  V30 7203 N 700.619 -1.13374 -1.09472 0
M  V30 7204 C 701.859 -0.905422 -1.83252 0
M  V30 7205 C 702.223 0.558396 -1.83701 0
M  V30 7206 O 703.424 0.904254 -2.53134 0
M  V30 7207 C 701.695 -1.47658 -3.25472 0
M  V30 7208 S 703.254 -1.38825 -4.16261 0
M  V30 7209 H 700.072 -0.326371 -0.631667 0
M  V30 7210 H 702.674 -1.44517 -1.31663 0
M  V30 7211 H 701.378 -2.53533 -3.22722 0
M  V30 7212 H 700.909 -0.934756 -3.82133 0
M  V30 7213 H 702.924 -0.366379 -4.94846 0
M  V30 7214 N 702.098 1.27442 -0.927168 0
M  V30 7215 C 703.345 1.94391 -0.567324 0
M  V30 7216 C 703.673 1.72875 0.891321 0
M  V30 7217 O 702.928 1.05071 1.65102 0
M  V30 7218 C 703.227 3.47413 -0.838994 0
M  V30 7219 C 702.893 3.89049 -2.2793 0
M  V30 7220 C 701.555 4.00127 -2.67305 0
M  V30 7221 C 703.907 4.10154 -3.21595 0
M  V30 7222 C 701.235 4.29697 -3.99471 0
M  V30 7223 C 703.587 4.41208 -4.53341 0
M  V30 7224 C 702.251 4.50499 -4.92551 0
M  V30 7225 H 701.521 0.711325 -0.207598 0
M  V30 7226 H 704.168 1.51523 -1.17103 0
M  V30 7227 H 702.473 3.91503 -0.152609 0
M  V30 7228 H 704.17 3.97354 -0.53955 0
M  V30 7229 H 700.76 3.80962 -1.96381 0
M  V30 7230 H 704.944 4.01036 -2.92377 0
M  V30 7231 H 700.2 4.35099 -4.29533 0
M  V30 7232 H 704.374 4.56486 -5.25922 0
M  V30 7233 H 702.001 4.73167 -5.94994 0
M  V30 7234 N 703.576 0.692616 1.41565 0
M  V30 7235 C 704.822 0.222664 2.01574 0
M  V30 7236 C 705.155 -1.1737 1.54719 0
M  V30 7237 O 704.43 -1.79161 0.757084 0
M  V30 7238 C 704.713 0.277064 3.59033 0
M  V30 7239 C 704.566 1.71016 4.16021 0
M  V30 7240 C 705.885 -0.36479 4.38586 0
M  V30 7241 H 703.004 0.0823839 0.732381 0
M  V30 7242 H 705.646 0.880778 1.68352 0
M  V30 7243 H 703.796 -0.283288 3.87466 0
M  V30 7244 H 705.468 2.32413 3.98475 0
M  V30 7245 H 703.711 2.24525 3.71175 0
M  V30 7246 H 704.382 1.69978 5.25178 0
M  V30 7247 H 706.858 0.112404 4.15948 0
M  V30 7248 H 705.734 -0.296169 5.481 0
M  V30 7249 H 705.995 -1.44506 4.17816 0
M  V30 7250 N 705.054 -1.51416 0.437162 0
M  V30 7251 C 706.004 -2.24599 -0.392311 0
M  V30 7252 C 706.988 -1.2682 -0.990221 0
M  V30 7253 O 708.18 -1.51912 -0.908391 0
M  V30 7254 C 705.309 -3.09134 -1.49301 0
M  V30 7255 C 704.395 -4.14342 -0.904503 0
M  V30 7256 N 704.786 -5.0578 -0.0451511 0
M  V30 7257 C 703.084 -4.30323 -1.1721 0
M  V30 7258 C 703.785 -5.81 0.285344 0
M  V30 7259 N 702.761 -5.42591 -0.330993 0
M  V30 7260 H 706.563 -2.92655 0.270221 0
M  V30 7261 H 704.077 -1.60476 0.249226 0
M  V30 7262 H 706.074 -3.6014 -2.10011 0
M  V30 7263 H 704.734 -2.42622 -2.15788 0
M  V30 7264 H 705.745 -5.16903 0.321271 0
M  V30 7265 H 702.422 -3.75037 -1.83448 0
M  V30 7266 H 703.812 -6.64646 0.984626 0
M  V30 7267 N 706.532 -0.168513 -1.56696 0
M  V30 7268 C 707.76 0.483503 -2.01171 0
M  V30 7269 C 708.175 1.56994 -1.04872 0
M  V30 7270 O 707.532 1.82434 -0.0491337 0
M  V30 7271 C 707.583 1.0644 -3.45475 0
M  V30 7272 O 707.304 0.0213375 -4.38095 0
M  V30 7273 C 708.805 1.79493 -4.05336 0
M  V30 7274 H 706.025 0.124002 -0.659443 0
M  V30 7275 H 708.569 -0.269419 -2.02717 0
M  V30 7276 H 706.724 1.76784 -3.44712 0
M  V30 7277 H 707.138 0.449837 -5.22567 0
M  V30 7278 H 708.612 2.15401 -5.08238 0
M  V30 7279 H 709.089 2.68889 -3.47269 0
M  V30 7280 H 709.695 1.13798 -4.09793 0
M  V30 7281 N 708.01 1.57248 0.105221 0
M  V30 7282 C 709.256 1.85845 0.811753 0
M  V30 7283 C 709.589 0.756219 1.78871 0
M  V30 7284 O 708.864 -0.236736 1.93054 0
M  V30 7285 C 709.147 3.25059 1.54947 0
M  V30 7286 C 709 4.45898 0.591185 0
M  V30 7287 C 710.319 3.6203 2.50245 0
M  V30 7288 H 707.438 0.675973 0.293649 0
M  V30 7289 H 710.08 1.89849 0.0756269 0
M  V30 7290 H 708.23 3.21776 2.17698 0
M  V30 7291 H 709.902 4.61291 -0.0285352 0
M  V30 7292 H 708.145 4.33693 -0.0962343 0
M  V30 7293 H 708.816 5.40009 1.1443 0
M  V30 7294 H 711.292 3.66192 1.97593 0
M  V30 7295 H 710.168 4.60389 2.98886 0
M  V30 7296 H 710.429 2.90176 3.33542 0
M  V30 7297 N 709.488 -0.375779 1.53054 0
M  V30 7298 C 710.899 -0.95309 1.6054 0
M  V30 7299 C 711.25 -1.90575 0.466446 0
M  V30 7300 O 710.375 -2.12507 -0.408609 0
M  V30 7301 C 710.97 -1.73537 2.90982 0
M  V30 7302 C 709.529 -2.26218 3.00836 0
M  V30 7303 C 708.676 -1.07157 2.55759 0
M  V30 7304 H 711.627 -0.154895 1.57942 0
M  V30 7305 H 711.648 -2.59574 2.78211 0
M  V30 7306 H 711.16 -1.04176 3.73857 0
M  V30 7307 H 709.261 -2.98852 2.22527 0
M  V30 7308 H 709.374 -2.54799 4.05727 0
M  V30 7309 H 707.738 -1.43553 2.10391 0
M  V30 7310 H 708.521 -0.393099 3.41042 0
M  V30 7311 N 710.966 -1.44241 -0.634997 0
M  V30 7312 C 712.212 -1.48033 -1.39492 0
M  V30 7313 C 712.567 -0.109791 -1.92086 0
M  V30 7314 O 711.86 0.874394 -1.70484 0
M  V30 7315 C 712.054 -2.47279 -2.58046 0
M  V30 7316 C 711.883 -3.93848 -2.17057 0
M  V30 7317 C 710.653 -4.62061 -2.04518 0
M  V30 7318 C 712.851 -4.83172 -1.76208 0
M  V30 7319 N 710.833 -5.93471 -1.57051 0
M  V30 7320 C 712.204 -6.03996 -1.39958 0
M  V30 7321 C 714.259 -4.70271 -1.63554 0
M  V30 7322 C 712.962 -7.13351 -0.923196 0
M  V30 7323 C 714.988 -5.79646 -1.1732 0
M  V30 7324 C 714.35 -6.99609 -0.820181 0
M  V30 7325 H 710.449 -0.596743 -0.505392 0
M  V30 7326 H 713.033 -1.80542 -0.72887 0
M  V30 7327 H 711.204 -2.16766 -3.22284 0
M  V30 7328 H 712.936 -2.41391 -3.24827 0
M  V30 7329 H 709.691 -4.1682 -2.24851 0
M  V30 7330 H 710.115 -6.63275 -1.35628 0
M  V30 7331 H 714.757 -3.77964 -1.8948 0
M  V30 7332 H 712.475 -8.0547 -0.651441 0
M  V30 7333 H 716.061 -5.71689 -1.07993 0
M  V30 7334 H 714.941 -7.82803 -0.467901 0
M  V30 7335 N 712.444 0.87505 -1.31075 0
M  V30 7336 C 713.721 1.60976 -1.11113 0
M  V30 7337 C 714.101 2.08409 0.336006 0
M  V30 7338 O 713.449 1.85858 1.32924 0
M  V30 7339 C 713.659 2.77166 -2.12085 0
M  V30 7340 C 715.007 3.47254 -2.44335 0
M  V30 7341 O 716.031 2.87367 -2.10472 0
M  V30 7342 O 714.89 4.55276 -3.02301 0
M  V30 7343 H 711.984 0.707982 -0.427424 0
M  V30 7344 H 714.53 0.920957 -1.42536 0
M  V30 7345 H 713.302 2.39494 -3.09449 0
M  V30 7346 H 712.925 3.53737 -1.81538 0
M  V30 7347 N 713.922 1.13953 1.08869 0
M  V30 7348 C 714.854 0.779906 2.15523 0
M  V30 7349 C 715.867 -0.20102 1.61554 0
M  V30 7350 O 717.056 0.0200049 1.78489 0
M  V30 7351 C 714.156 0.136226 3.38626 0
M  V30 7352 C 713.329 1.15069 4.21993 0
M  V30 7353 C 712.388 0.531645 5.23507 0
M  V30 7354 O 711.414 1.19327 5.56552 0
M  V30 7355 N 712.616 -0.693734 5.7634 0
M  V30 7356 H 715.381 1.69769 2.46979 0
M  V30 7357 H 712.942 1.03331 1.24637 0
M  V30 7358 H 714.934 -0.290295 4.03658 0
M  V30 7359 H 713.504 -0.684603 3.05011 0
M  V30 7360 H 712.724 1.75431 3.53012 0
M  V30 7361 H 714.012 1.83614 4.74514 0
M  V30 7362 H 713.41 -1.24994 5.51718 0
M  V30 7363 H 711.967 -1.06283 6.43076 0
M  V30 7364 N 715.4 -1.26948 0.933913 0
M  V30 7365 C 716.33 -2.29017 0.45534 0
M  V30 7366 C 717.311 -1.62961 -0.487605 0
M  V30 7367 O 718.496 -1.90223 -0.391022 0
M  V30 7368 C 715.626 -3.46112 -0.287015 0
M  V30 7369 C 714.58 -4.24205 0.568682 0
M  V30 7370 C 713.906 -5.3384 -0.303206 0
M  V30 7371 C 715.206 -4.88954 1.83633 0
M  V30 7372 H 716.9 -2.69298 1.30839 0
M  V30 7373 H 714.446 -1.29459 0.630579 0
M  V30 7374 H 716.399 -4.16622 -0.6328 0
M  V30 7375 H 715.123 -3.04765 -1.17414 0
M  V30 7376 H 713.782 -3.5545 0.897261 0
M  V30 7377 H 713.43 -4.88734 -1.18947 0
M  V30 7378 H 713.13 -5.86998 0.265879 0
M  V30 7379 H 714.654 -6.0719 -0.644423 0
M  V30 7380 H 716.068 -5.51717 1.55823 0
M  V30 7381 H 714.465 -5.52198 2.34941 0
M  V30 7382 H 715.535 -4.12305 2.55211 0
M  V30 7383 N 716.879 -0.700114 -1.41195 0
M  V30 7384 C 718.126 -0.233006 -2.01155 0
M  V30 7385 C 718.454 1.16883 -1.55462 0
M  V30 7386 O 717.709 1.80395 -0.758695 0
M  V30 7387 C 718.008 -0.243986 -3.56566 0
M  V30 7388 C 717.674 -1.59397 -4.21786 0
M  V30 7389 C 716.336 -1.96355 -4.39316 0
M  V30 7390 C 718.688 -2.48192 -4.58312 0
M  V30 7391 C 716.016 -3.21683 -4.9065 0
M  V30 7392 C 718.368 -3.72857 -5.11039 0
M  V30 7393 C 717.032 -4.09951 -5.26779 0
M  V30 7394 H 716.302 -0.085263 -0.736078 0
M  V30 7395 H 718.949 -0.9001 -1.69028 0
M  V30 7396 H 717.254 0.506663 -3.8851 0
M  V30 7397 H 718.951 0.135031 -4.00773 0
M  V30 7398 H 715.541 -1.29654 -4.08519 0
M  V30 7399 H 719.725 -2.20918 -4.4442 0
M  V30 7400 H 714.981 -3.50412 -5.01021 0
M  V30 7401 H 719.155 -4.41844 -5.38282 0
M  V30 7402 H 716.782 -5.07136 -5.66319 0
M  V30 7403 N 718.357 1.51182 -0.445186 0
M  V30 7404 C 719.773 1.59299 -0.0978954 0
M  V30 7405 C 719.973 1.4555 1.39346 0
M  V30 7406 O 719.029 1.30073 2.16419 0
M  V30 7407 C 720.342 2.94133 -0.625005 0
M  V30 7408 C 721.89 3.07463 -0.586137 0
M  V30 7409 C 722.365 4.44832 -1.09035 0
M  V30 7410 N 723.856 4.51173 -1.04867 0
M  V30 7411 C 724.591 5.55804 -1.40959 0
M  V30 7412 N 724.087 6.67816 -1.84375 0
M  V30 7413 N 725.88 5.46205 -1.32726 0
M  V30 7414 H 718.031 1.58363 -1.41544 0
M  V30 7415 H 720.294 0.746946 -0.58376 0
M  V30 7416 H 720 3.09589 -1.66876 0
M  V30 7417 H 719.874 3.77161 -0.0542262 0
M  V30 7418 H 722.261 2.9167 0.448646 0
M  V30 7419 H 722.342 2.26255 -1.19341 0
M  V30 7420 H 721.986 4.61372 -2.12364 0
M  V30 7421 H 721.916 5.24591 -0.459539 0
M  V30 7422 H 724.407 3.70783 -0.729932 0
M  V30 7423 H 724.72 7.43683 -2.10131 0
M  V30 7424 H 723.065 6.69003 -1.88308 0
M  V30 7425 H 726.256 4.57583 -0.986678 0
M  V30 7426 H 726.429 6.27634 -1.61182 0
M  V30 7427 N 719.835 0.176821 1.56605 0
M  V30 7428 C 720.783 -0.768159 2.1955 0
M  V30 7429 C 721.777 -1.23343 1.16116 0
M  V30 7430 O 722.983 -1.19844 1.34303 0
M  V30 7431 H 719.358 -0.266013 0.703378 0
M  V30 7432 H 721.329 -0.213374 2.97636 0
M  V30 7433 C 720.078 -1.98492 2.85475 0
M  V30 7434 H 719.401 -1.63595 3.64797 0
M  V30 7435 H 720.841 -2.62489 3.3298 0
M  V30 7436 C 719.3 -2.81207 1.85538 0
M  V30 7437 O 719.83 -3.7854 1.34427 0
M  V30 7438 N 718.036 -2.46331 1.54173 0
M  V30 7439 H 717.583 -1.67241 1.95929 0
M  V30 7440 H 717.541 -3.01961 0.875595 0
M  V30 7441 N 721.313 -1.57302 -0.09688 0
M  V30 7442 C 722.724 -1.7496 -0.651595 0
M  V30 7443 C 723.075 -0.798746 -1.79205 0
M  V30 7444 O 722.2 0.0231858 -2.16388 0
M  V30 7445 C 722.795 -3.17259 -1.18878 0
M  V30 7446 C 721.354 -3.36348 -1.68958 0
M  V30 7447 C 720.501 -2.70766 -0.598413 0
M  V30 7448 H 723.452 -1.58173 0.12918 0
M  V30 7449 H 723.473 -3.20033 -2.05814 0
M  V30 7450 H 722.985 -3.8644 -0.358523 0
M  V30 7451 H 721.086 -2.72243 -2.5439 0
M  V30 7452 H 721.199 -4.44654 -1.7838 0
M  V30 7453 H 719.563 -2.32615 -1.03743 0
M  V30 7454 H 720.346 -3.42586 0.221238 0
M  V30 7455 N 722.791 0.367657 -1.53252 0
M  V30 7456 C 723.741 1.45035 -1.75923 0
M  V30 7457 C 724.725 1.48736 -0.613719 0
M  V30 7458 O 725.917 1.54012 -0.872313 0
M  V30 7459 C 723.046 2.82493 -1.9507 0
M  V30 7460 C 722.132 2.83279 -3.15617 0
M  V30 7461 N 722.523 2.53712 -4.37566 0
M  V30 7462 C 720.821 3.1444 -3.16297 0
M  V30 7463 C 721.522 2.62123 -5.19294 0
M  V30 7464 N 720.498 2.96747 -4.55458 0
M  V30 7465 H 724.3 1.21035 -2.6782 0
M  V30 7466 H 721.814 0.575822 -1.51849 0
M  V30 7467 H 723.811 3.60473 -2.0944 0
M  V30 7468 H 722.471 3.07459 -1.044 0
M  V30 7469 H 723.482 2.27344 -4.65333 0
M  V30 7470 H 720.159 3.44733 -2.35511 0
M  V30 7471 H 721.549 2.42628 -6.26563 0
M  V30 7472 N 724.269 1.44576 0.627338 0
M  V30 7473 C 725.201 1.47724 1.75243 0
M  V30 7474 C 726.214 0.370193 1.58535 0
M  V30 7475 O 727.403 0.636151 1.66779 0
M  V30 7476 C 724.503 1.2991 3.13012 0
M  V30 7477 C 723.676 2.5393 3.56143 0
M  V30 7478 C 722.735 2.30961 4.72804 0
M  V30 7479 O 721.761 3.04469 4.80923 0
M  V30 7480 N 722.963 1.34261 5.6476 0
M  V30 7481 H 725.728 2.44718 1.73012 0
M  V30 7482 H 723.289 1.40064 0.812022 0
M  V30 7483 H 725.281 1.12385 3.88782 0
M  V30 7484 H 723.851 0.412668 3.09864 0
M  V30 7485 H 723.071 2.86707 2.70542 0
M  V30 7486 H 724.359 3.36411 3.81713 0
M  V30 7487 H 723.757 0.735573 5.60897 0
M  V30 7488 H 722.314 1.22713 6.40144 0
M  V30 7489 N 725.747 -0.868086 1.31537 0
M  V30 7490 C 726.71 -1.95703 1.19302 0
M  V30 7491 C 727.71 -1.60355 0.119612 0
M  V30 7492 O 728.9 -1.70247 0.36902 0
M  V30 7493 C 726.032 -3.30599 0.831684 0
M  V30 7494 H 727.225 -2.07982 2.16064 0
M  V30 7495 H 724.778 -1.05661 1.15176 0
M  V30 7496 H 725.513 -3.2402 -0.134694 0
M  V30 7497 H 725.298 -3.57629 1.60761 0
M  V30 7498 H 726.788 -4.10439 0.770026 0
M  V30 7499 N 727.225 -1.14528 -1.08264 0
M  V30 7500 C 728.155 -0.856356 -2.1723 0
M  V30 7501 C 729.136 0.189251 -1.69044 0
M  V30 7502 O 730.321 0.0456119 -1.94146 0
M  V30 7503 C 727.451 -0.334662 -3.45684 0
M  V30 7504 C 726.405 -1.31588 -4.0727 0
M  V30 7505 C 725.731 -0.653428 -5.30692 0
M  V30 7506 C 727.031 -2.67866 -4.48381 0
M  V30 7507 H 728.725 -1.76755 -2.41657 0
M  V30 7508 H 726.271 -0.851287 -1.16143 0
M  V30 7509 H 728.224 -0.120128 -4.21229 0
M  V30 7510 H 726.948 0.611967 -3.20815 0
M  V30 7511 H 725.607 -1.51661 -3.33758 0
M  V30 7512 H 725.255 0.299054 -5.0211 0
M  V30 7513 H 724.955 -1.30817 -5.72853 0
M  V30 7514 H 726.479 -0.448453 -6.08951 0
M  V30 7515 H 727.893 -2.51692 -5.15096 0
M  V30 7516 H 726.29 -3.29627 -5.01464 0
M  V30 7517 H 727.36 -3.24632 -3.60198 0
M  V30 7518 N 728.703 1.26451 -0.940633 0
M  V30 7519 C 729.633 2.28773 -0.467479 0
M  V30 7520 C 730.614 1.63218 0.478955 0
M  V30 7521 O 731.799 1.90427 0.380929 0
M  V30 7522 C 728.929 3.46259 0.268656 0
M  V30 7523 C 727.883 4.23898 -0.591171 0
M  V30 7524 C 727.209 5.33993 0.274891 0
M  V30 7525 C 728.509 4.87974 -1.86223 0
M  V30 7526 H 730.203 2.68601 -1.32265 0
M  V30 7527 H 727.749 1.29123 -0.637436 0
M  V30 7528 H 729.702 4.16951 0.610696 0
M  V30 7529 H 728.426 3.05383 1.15796 0
M  V30 7530 H 727.085 3.54969 -0.916098 0
M  V30 7531 H 726.733 4.89358 1.16353 0
M  V30 7532 H 726.433 5.86849 -0.297006 0
M  V30 7533 H 727.957 6.07523 0.612213 0
M  V30 7534 H 729.371 5.50883 -1.58747 0
M  V30 7535 H 727.768 5.50945 -2.37866 0
M  V30 7536 H 728.838 4.10945 -2.57394 0
M  V30 7537 N 730.181 0.707592 1.40822 0
M  V30 7538 C 731.131 0.0265008 2.27985 0
M  V30 7539 C 732.115 -0.740685 1.42838 0
M  V30 7540 O 733.307 -0.6142 1.66002 0
M  V30 7541 C 730.436 -0.900382 3.31282 0
M  V30 7542 C 729.522 -0.128807 4.23904 0
M  V30 7543 N 729.913 0.883744 4.9802 0
M  V30 7544 C 728.211 -0.362539 4.44524 0
M  V30 7545 C 728.912 1.34666 5.65898 0
M  V30 7546 N 727.888 0.670306 5.39451 0
M  V30 7547 H 731.69 0.802667 2.82727 0
M  V30 7548 H 729.204 0.539475 1.53178 0
M  V30 7549 H 731.201 -1.40357 3.92563 0
M  V30 7550 H 729.861 -1.67601 2.781 0
M  V30 7551 H 730.872 1.26435 5.0223 0
M  V30 7552 H 727.549 -1.11512 4.02332 0
M  V30 7553 H 728.939 2.18756 6.35292 0
M  V30 7554 N 731.66 -1.50943 0.453197 0
M  V30 7555 C 732.888 -2.06628 -0.106135 0
M  V30 7556 C 733.303 -1.31901 -1.35084 0
M  V30 7557 O 732.66 -0.383074 -1.78434 0
M  V30 7558 C 732.711 -3.5914 -0.412368 0
M  V30 7559 O 732.432 -4.31047 0.782948 0
M  V30 7560 C 733.933 -4.31391 -1.02064 0
M  V30 7561 H 731.153 -0.670999 -0.000885896 0
M  V30 7562 H 733.697 -1.94331 0.63684 0
M  V30 7563 H 731.852 -3.71299 -1.10526 0
M  V30 7564 H 732.266 -5.21948 0.516736 0
M  V30 7565 H 733.74 -5.39135 -1.1848 0
M  V30 7566 H 734.217 -3.90714 -2.00598 0
M  V30 7567 H 734.823 -4.23716 -0.366664 0
M  V30 7568 N 733.138 -0.185124 -1.56509 0
M  V30 7569 C 734.101 0.72591 -2.17401 0
M  V30 7570 C 735.101 1.14819 -1.12575 0
M  V30 7571 O 736.291 1.0629 -1.38015 0
M  V30 7572 C 733.423 1.98979 -2.76803 0
M  V30 7573 H 734.616 0.195588 -2.99262 0
M  V30 7574 H 732.169 0.0644772 -1.56167 0
M  V30 7575 H 732.904 2.56287 -1.98714 0
M  V30 7576 H 732.689 1.69583 -3.53531 0
M  V30 7577 H 734.179 2.63966 -3.23592 0
M  V30 7578 N 734.616 1.57351 0.0885366 0
M  V30 7579 C 735.564 2.03542 1.12576 0
M  V30 7580 C 736.558 0.937668 1.41082 0
M  V30 7581 O 737.764 1.12283 1.40686 0
M  V30 7582 H 734.139 0.648752 0.380296 0
M  V30 7583 H 736.11 2.89833 0.709906 0
M  V30 7584 C 734.859 2.4811 2.43591 0
M  V30 7585 H 734.182 3.32164 2.22502 0
M  V30 7586 H 735.622 2.842 3.14653 0
M  V30 7587 C 734.081 1.35708 3.08359 0
M  V30 7588 O 734.611 0.689852 3.95732 0
M  V30 7589 N 732.817 1.10641 2.68713 0
M  V30 7590 H 732.364 1.6508 1.97753 0
M  V30 7591 H 732.322 0.356355 3.12374 0
M  V30 7592 N 736.094 -0.359525 1.53444 0
M  V30 7593 C 737.51 -0.701599 1.43352 0
M  V30 7594 C 737.71 -1.93049 0.577439 0
M  V30 7595 O 736.766 -2.52423 0.0622224 0
M  V30 7596 C 738.079 -0.90915 2.86627 0
M  V30 7597 C 739.627 -1.00878 2.96298 0
M  V30 7598 C 740.102 -1.24876 4.40647 0
M  V30 7599 N 741.593 -1.31632 4.44103 0
M  V30 7600 C 742.328 -1.51922 5.52908 0
M  V30 7601 N 741.824 -1.69489 6.71748 0
M  V30 7602 N 743.617 -1.54341 5.40496 0
M  V30 7603 H 735.768 0.448685 2.07607 0
M  V30 7604 H 738.031 0.138713 0.937797 0
M  V30 7605 H 737.737 -0.0778997 3.51614 0
M  V30 7606 H 737.611 -1.81551 3.30634 0
M  V30 7607 H 739.998 -1.83057 2.31461 0
M  V30 7608 H 740.079 -0.0796721 2.55676 0
M  V30 7609 H 739.723 -0.431961 5.0606 0
M  V30 7610 H 739.653 -2.19118 4.78848 0
M  V30 7611 H 742.144 -1.19646 3.5846 0
M  V30 7612 H 742.457 -1.84561 7.50438 0
M  V30 7613 H 740.802 -1.66655 6.74723 0
M  V30 7614 H 743.993 -1.40188 4.46615 0
M  V30 7615 H 744.166 -1.69812 6.25354 0
M  V30 7616 N 737.572 -1.44907 -0.619662 0
M  V30 7617 C 738.983 -1.42905 -1.20146 0
M  V30 7618 C 739.334 -0.150341 -1.95623 0
M  V30 7619 O 738.459 0.748732 -2.03034 0
M  V30 7620 C 739.054 -2.58889 -2.18545 0
M  V30 7621 C 737.613 -2.60046 -2.72127 0
M  V30 7622 C 736.76 -2.3493 -1.4732 0
M  V30 7623 H 739.711 -1.53321 -0.409666 0
M  V30 7624 H 739.732 -2.32298 -3.0136 0
M  V30 7625 H 739.244 -3.51941 -1.63583 0
M  V30 7626 H 737.345 -1.70968 -3.3106 0
M  V30 7627 H 737.458 -3.58893 -3.17384 0
M  V30 7628 H 735.822 -1.84248 -1.75855 0
M  V30 7629 H 736.605 -3.3011 -0.942442 0
M  V30 7630 N 739.05 0.861098 -1.31996 0
M  V30 7631 C 739.96 2.00154 -1.22374 0
M  V30 7632 C 740.976 1.73447 -0.138631 0
M  V30 7633 O 742.152 1.98191 -0.358104 0
M  V30 7634 C 739.217 3.33696 -0.940645 0
M  V30 7635 C 738.278 3.73668 -2.11355 0
M  V30 7636 C 737.511 5.00837 -1.84386 0
M  V30 7637 O 737.734 5.64996 -0.783287 0
M  V30 7638 O 736.668 5.37787 -2.70313 0
M  V30 7639 H 740.494 2.11207 -2.18233 0
M  V30 7640 H 738.079 0.990768 -1.11822 0
M  V30 7641 H 739.961 4.13756 -0.798987 0
M  V30 7642 H 738.636 3.23698 -0.0121636 0
M  V30 7643 H 737.543 2.94211 -2.31065 0
M  V30 7644 H 738.876 3.88303 -3.02459 0
M  V30 7645 N 740.528 1.15101 1.07655 0
M  V30 7646 C 741.805 0.834578 1.76902 0
M  V30 7647 C 742.185 -0.670431 2.00171 0
M  V30 7648 O 741.533 -1.61378 1.6177 0
M  V30 7649 C 741.743 1.64191 3.07965 0
M  V30 7650 C 743.091 1.84615 3.82364 0
M  V30 7651 O 744.115 1.60941 3.17768 0
M  V30 7652 O 742.974 2.24244 4.98374 0
M  V30 7653 H 740.068 0.306608 0.768063 0
M  V30 7654 H 742.614 1.25663 1.14048 0
M  V30 7655 H 741.386 2.66386 2.86626 0
M  V30 7656 H 741.009 1.216 3.78549 0
M  V30 7657 N 742.006 -1.2595 0.947325 0
M  V30 7658 C 742.916 -2.29883 0.468079 0
M  V30 7659 C 743.932 -1.67783 -0.460975 0
M  V30 7660 O 745.108 -1.98526 -0.339006 0
M  V30 7661 C 742.173 -3.45773 -0.253315 0
M  V30 7662 C 741.234 -4.23337 0.713054 0
M  V30 7663 C 740.467 -5.33694 0.025993 0
M  V30 7664 O 740.69 -5.57853 -1.18978 0
M  V30 7665 O 739.624 -5.97724 0.70782 0
M  V30 7666 H 743.45 -2.72952 1.33156 0
M  V30 7667 H 741.035 -1.31263 0.713468 0
M  V30 7668 H 742.917 -4.16209 -0.659423 0
M  V30 7669 H 741.592 -3.04721 -1.09209 0
M  V30 7670 H 740.499 -3.55359 1.16923 0
M  V30 7671 H 741.832 -4.68154 1.51963 0
M  V30 7672 N 743.484 -0.715051 -1.40445 0
M  V30 7673 C 744.724 -0.258742 -2.02756 0
M  V30 7674 C 745.088 1.12661 -1.55472 0
M  V30 7675 O 746.289 1.67988 -2.09842 0
M  V30 7676 C 744.56 -0.335201 -3.55825 0
M  V30 7677 S 746.119 0.044201 -4.38778 0
M  V30 7678 H 742.937 -0.102683 -0.703546 0
M  V30 7679 H 745.539 -0.937151 -1.71574 0
M  V30 7680 H 744.243 -1.34511 -3.87731 0
M  V30 7681 H 743.774 0.361705 -3.91734 0
M  V30 7682 H 745.789 1.26639 -4.79768 0
M  V30 7683 N 744.962 1.50701 -0.461195 0
M  V30 7684 C 746.208 2.02566 0.0973411 0
M  V30 7685 C 746.541 1.3432 1.40257 0
M  V30 7686 O 745.816 0.465692 1.88843 0
M  V30 7687 C 746.099 3.58919 0.291423 0
M  V30 7688 C 745.952 4.37751 -1.03413 0
M  V30 7689 C 747.271 4.27379 1.05048 0
M  V30 7690 H 744.39 0.73622 0.0339026 0
M  V30 7691 H 747.032 1.80115 -0.604855 0
M  V30 7692 H 745.182 3.78179 0.889539 0
M  V30 7693 H 746.854 4.30085 -1.66806 0
M  V30 7694 H 745.097 4.01885 -1.63313 0
M  V30 7695 H 745.768 5.45384 -0.852085 0
M  V30 7696 H 748.244 4.12534 0.543603 0
M  V30 7697 H 747.12 5.36609 1.15506 0
M  V30 7698 H 747.381 3.89868 2.0846 0
M  V30 7699 N 746.441 0.193421 1.56409 0
M  V30 7700 C 747.689 -0.444908 1.97142 0
M  V30 7701 C 748.01 -1.62268 1.08139 0
M  V30 7702 O 747.28 -1.95307 0.152326 0
M  V30 7703 H 745.86 -0.16736 0.728011 0
M  V30 7704 H 748.522 0.279763 1.92882 0
M  V30 7705 H 747.618 -0.790159 3.01932 0
M  V30 7706 N 747.919 -1.57396 -0.0801906 0
M  V30 7707 C 748.829 -2.06451 -1.11423 0
M  V30 7708 C 749.845 -0.992352 -1.42928 0
M  V30 7709 O 751.021 -1.30651 -1.53272 0
M  V30 7710 C 748.086 -2.49164 -2.41077 0
M  V30 7711 C 747.147 -3.70641 -2.16619 0
M  V30 7712 C 746.38 -4.11307 -3.40092 0
M  V30 7713 O 746.603 -3.51922 -4.48895 0
M  V30 7714 O 745.537 -5.04157 -3.288 0
M  V30 7715 H 749.363 -2.94857 -0.727519 0
M  V30 7716 H 746.948 -1.46484 -0.293743 0
M  V30 7717 H 748.83 -2.77196 -3.17396 0
M  V30 7718 H 747.505 -1.6389 -2.79145 0
M  V30 7719 H 746.412 -3.47703 -1.38033 0
M  V30 7720 H 747.745 -4.5674 -1.83437 0
M  V30 7721 N 749.397 0.351382 -1.53633 0
M  V30 7722 C 750.645 1.09034 -1.70165 0
M  V30 7723 C 750.966 1.89413 -0.463422 0
M  V30 7724 O 750.236 1.888 0.522624 0
M  V30 7725 H 748.816 0.405522 -0.627344 0
M  V30 7726 H 751.478 0.394554 -1.90865 0
M  V30 7727 H 750.574 1.77215 -2.56907 0
M  V30 7728 N 750.875 1.45233 0.611969 0
M  V30 7729 C 751.805 1.5641 1.73373 0
M  V30 7730 C 752.786 0.415896 1.64937 0
M  V30 7731 O 753.971 0.638478 1.83404 0
M  V30 7732 C 751.101 1.52627 3.11965 0
M  V30 7733 C 750.055 2.66119 3.35208 0
M  V30 7734 C 749.381 2.4739 4.74028 0
M  V30 7735 C 750.681 4.08157 3.25891 0
M  V30 7736 H 752.375 2.50307 1.64277 0
M  V30 7737 H 749.921 1.20467 0.788904 0
M  V30 7738 H 751.874 1.59043 3.90235 0
M  V30 7739 H 750.598 0.552564 3.21892 0
M  V30 7740 H 749.257 2.59123 2.59327 0
M  V30 7741 H 748.905 1.48168 4.80682 0
M  V30 7742 H 748.605 3.23494 4.90536 0
M  V30 7743 H 750.129 2.55653 5.54503 0
M  V30 7744 H 751.543 4.1642 3.9404 0
M  V30 7745 H 749.94 4.84617 3.5393 0
M  V30 7746 H 751.01 4.30374 2.23397 0
M  V30 7747 N 752.353 -0.854086 1.3245 0
M  V30 7748 C 753.316 -1.94427 1.21371 0
M  V30 7749 C 754.316 -1.60219 0.136613 0
M  V30 7750 O 755.506 -1.69846 0.387057 0
M  V30 7751 C 752.638 -3.29698 0.866701 0
M  V30 7752 H 753.831 -2.05679 2.18257 0
M  V30 7753 H 751.384 -1.04434 1.1629 0
M  V30 7754 H 752.119 -3.24145 -0.100319 0
M  V30 7755 H 751.904 -3.55903 1.64545 0
M  V30 7756 H 753.394 -4.09599 0.813515 0
M  V30 7757 N 753.831 -1.1567 -1.07043 0
M  V30 7758 C 755.071 -0.944089 -1.81291 0
M  V30 7759 C 755.435 0.519305 -1.84844 0
M  V30 7760 O 756.636 0.850357 -2.54995 0
M  V30 7761 C 754.907 -1.54528 -3.22267 0
M  V30 7762 S 756.466 -1.47623 -4.13223 0
M  V30 7763 H 753.284 -0.339696 -0.624602 0
M  V30 7764 H 755.886 -1.47277 -1.28568 0
M  V30 7765 H 754.59 -2.60321 -3.17271 0
M  V30 7766 H 754.121 -1.0156 -3.80065 0
M  V30 7767 H 756.136 -0.471261 -4.93957 0
M  V30 7768 N 755.309 1.25446 -0.953992 0
M  V30 7769 C 756.259 2.23627 -0.444413 0
M  V30 7770 C 757.243 1.54004 0.465993 0
M  V30 7771 O 758.435 1.74454 0.29915 0
M  V30 7772 C 755.564 3.42179 0.277175 0
M  V30 7773 C 754.65 4.1907 -0.651263 0
M  V30 7774 N 755.041 4.73346 -1.78262 0
M  V30 7775 C 753.339 4.43628 -0.459338 0
M  V30 7776 C 754.04 5.31576 -2.36224 0
M  V30 7777 N 753.016 5.17991 -1.64884 0
M  V30 7778 H 756.818 2.63197 -1.30785 0
M  V30 7779 H 754.332 1.40677 -0.811402 0
M  V30 7780 H 756.329 4.11653 0.659367 0
M  V30 7781 H 754.989 3.04134 1.13723 0
M  V30 7782 H 756 4.705 -2.1645 0
M  V30 7783 H 752.677 4.15963 0.357885 0
M  V30 7784 H 754.067 5.84361 -3.3162 0
M  V30 7785 N 756.787 0.722489 1.40064 0
M  V30 7786 C 757.719 0.0349057 2.29173 0
M  V30 7787 C 758.732 -0.716571 1.46182 0
M  V30 7788 O 759.921 -0.562806 1.69395 0
M  V30 7789 C 757.021 -0.974839 3.24577 0
M  V30 7790 C 756.194 -0.287471 4.36454 0
M  V30 7791 C 755.253 -1.20356 5.12251 0
M  V30 7792 O 754.279 -0.685753 5.65054 0
M  V30 7793 N 755.481 -2.53422 5.22262 0
M  V30 7794 H 758.246 0.800058 2.88824 0
M  V30 7795 H 755.807 0.57068 1.51509 0
M  V30 7796 H 757.799 -1.59002 3.72157 0
M  V30 7797 H 756.369 -1.6413 2.66046 0
M  V30 7798 H 755.589 0.508008 3.90913 0
M  V30 7799 H 756.877 0.189382 5.08447 0
M  V30 7800 H 756.275 -2.97981 4.80857 0
M  V30 7801 H 754.832 -3.10067 5.73325 0
M  V30 7802 N 758.265 -1.50454 0.469181 0
M  V30 7803 C 759.195 -2.31353 -0.31592 0
M  V30 7804 C 760.176 -1.38172 -0.992094 0
M  V30 7805 O 761.361 -1.67093 -0.989633 0
M  V30 7806 C 758.491 -3.1786 -1.39937 0
M  V30 7807 C 757.445 -4.19578 -0.844909 0
M  V30 7808 C 756.771 -4.9481 -2.0265 0
M  V30 7809 C 758.071 -5.22106 0.142499 0
M  V30 7810 H 759.765 -2.97237 0.359269 0
M  V30 7811 H 757.311 -1.42942 0.174224 0
M  V30 7812 H 759.264 -3.7325 -1.95607 0
M  V30 7813 H 757.988 -2.49858 -2.1033 0
M  V30 7814 H 756.647 -3.65285 -0.310189 0
M  V30 7815 H 756.295 -4.23282 -2.71737 0
M  V30 7816 H 755.995 -5.63613 -1.66174 0
M  V30 7817 H 757.519 -5.53035 -2.58815 0
M  V30 7818 H 758.933 -5.72378 -0.324966 0
M  V30 7819 H 757.33 -5.98618 0.421441 0
M  V30 7820 H 758.4 -4.7297 1.06901 0
M  V30 7821 N 759.743 -0.201713 -1.56304 0
M  V30 7822 C 760.983 0.437395 -1.99665 0
M  V30 7823 C 761.347 1.58341 -1.08592 0
M  V30 7824 O 762.548 2.28716 -1.41217 0
M  V30 7825 C 760.819 0.879572 -3.46408 0
M  V30 7826 S 762.378 1.51558 -4.11795 0
M  V30 7827 H 759.196 0.139621 -0.697156 0
M  V30 7828 H 761.798 -0.306337 -1.93085 0
M  V30 7829 H 760.502 0.0355295 -4.10385 0
M  V30 7830 H 760.033 1.65661 -3.56819 0
M  V30 7831 H 762.048 2.80445 -4.09347 0
M  V30 7832 N 761.222 1.57436 0.0718424 0
M  V30 7833 C 762.185 2.02703 1.06977 0
M  V30 7834 C 763.185 0.924062 1.31597 0
M  V30 7835 O 764.375 1.18894 1.27318 0
M  V30 7836 C 761.507 2.40763 2.41342 0
M  V30 7837 H 762.7 2.92098 0.679619 0
M  V30 7838 H 760.253 1.5304 0.317565 0
M  V30 7839 H 760.988 1.54394 2.8519 0
M  V30 7840 H 760.773 3.21249 2.24814 0
M  V30 7841 H 762.263 2.76361 3.13073 0
M  V30 7842 N 762.7 -0.34323 1.53817 0
M  V30 7843 C 764.116 -0.686355 1.44088 0
M  V30 7844 C 764.316 -1.92426 0.597882 0
M  V30 7845 O 763.372 -2.52343 0.0889918 0
M  V30 7846 C 764.685 -0.878698 2.87575 0
M  V30 7847 C 766.233 -0.977296 2.97352 0
M  V30 7848 C 766.708 -1.20195 4.41947 0
M  V30 7849 N 768.199 -1.26915 4.45474 0
M  V30 7850 C 768.934 -1.46049 5.54488 0
M  V30 7851 N 768.43 -1.62354 6.73508 0
M  V30 7852 N 770.223 -1.48599 5.42102 0
M  V30 7853 H 762.374 0.470679 2.07119 0
M  V30 7854 H 764.637 0.148652 0.936273 0
M  V30 7855 H 764.343 -0.040602 3.51677 0
M  V30 7856 H 764.217 -1.78034 3.32541 0
M  V30 7857 H 766.604 -1.80591 2.3339 0
M  V30 7858 H 766.685 -0.0525498 2.55746 0
M  V30 7859 H 766.329 -0.378262 5.06489 0
M  V30 7860 H 766.259 -2.14027 4.81145 0
M  V30 7861 H 768.75 -1.15837 3.59708 0
M  V30 7862 H 769.063 -1.76591 7.52353 0
M  V30 7863 H 767.408 -1.5949 6.76453 0
M  V30 7864 H 770.599 -1.35443 4.48077 0
M  V30 7865 H 770.772 -1.6317 6.2712 0
M  V30 7866 N 764.178 -1.45556 -0.604258 0
M  V30 7867 C 765.426 -1.4945 -1.36048 0
M  V30 7868 C 765.747 -0.138933 -1.94504 0
M  V30 7869 O 765.017 0.832097 -1.7735 0
M  V30 7870 H 763.597 -0.550381 -0.505064 0
M  V30 7871 H 766.259 -1.81535 -0.709308 0
M  V30 7872 H 765.355 -2.23519 -2.17821 0
M  V30 7873 N 765.656 0.84705 -1.32902 0
M  V30 7874 C 766.606 1.94451 -1.19049 0
M  V30 7875 C 767.59 1.60617 -0.095461 0
M  V30 7876 O 768.782 1.74033 -0.322739 0
M  V30 7877 C 765.911 3.30645 -0.923509 0
M  V30 7878 C 764.997 3.70675 -2.0606 0
M  V30 7879 N 765.388 3.82468 -3.30986 0
M  V30 7880 C 763.686 4.00357 -1.96547 0
M  V30 7881 C 764.387 4.17056 -4.05511 0
M  V30 7882 N 763.363 4.28985 -3.33876 0
M  V30 7883 H 767.165 2.01713 -2.1375 0
M  V30 7884 H 764.679 1.03928 -1.24791 0
M  V30 7885 H 766.676 4.0905 -0.805212 0
M  V30 7886 H 765.336 3.24697 0.0150523 0
M  V30 7887 H 766.347 3.66589 -3.65832 0
M  V30 7888 H 763.024 4.02666 -1.10299 0
M  V30 7889 H 764.414 4.33585 -5.13277 0
M  V30 7890 N 767.134 1.16236 1.06428 0
M  V30 7891 C 768.374 0.95369 1.80787 0
M  V30 7892 C 768.738 -0.509495 1.85117 0
M  V30 7893 O 769.939 -0.836822 2.55442 0
M  V30 7894 C 768.21 1.56235 3.21443 0
M  V30 7895 S 769.769 1.49812 4.12434 0
M  V30 7896 H 766.587 0.343004 0.622792 0
M  V30 7897 H 769.189 1.47957 1.27785 0
M  V30 7898 H 767.893 2.62 3.15886 0
M  V30 7899 H 767.424 1.03574 3.79521 0
M  V30 7900 H 769.439 0.49745 4.937 0
M  V30 7901 N 768.612 -1.24939 0.960631 0
M  V30 7902 C 769.858 -1.93425 0.629155 0
M  V30 7903 C 770.213 -1.73784 -0.825635 0
M  V30 7904 O 769.506 -1.07595 -1.58536 0
M  V30 7905 C 769.7 -3.45066 0.930809 0
M  V30 7906 C 769.529 -3.79455 2.41337 0
M  V30 7907 C 768.299 -4.01195 3.07197 0
M  V30 7908 C 770.497 -3.86492 3.39306 0
M  V30 7909 N 768.479 -4.22626 4.45265 0
M  V30 7910 C 769.85 -4.12682 4.62702 0
M  V30 7911 C 771.905 -3.69198 3.34061 0
M  V30 7912 C 770.608 -4.23376 5.81502 0
M  V30 7913 C 772.634 -3.81135 4.52206 0
M  V30 7914 C 771.996 -4.07743 5.74391 0
M  V30 7915 H 768.095 -0.729791 0.280943 0
M  V30 7916 H 770.679 -1.50597 1.23404 0
M  V30 7917 H 768.85 -3.86776 0.354801 0
M  V30 7918 H 770.582 -4.00826 0.558627 0
M  V30 7919 H 767.337 -3.97319 2.5775 0
M  V30 7920 H 767.761 -4.37335 5.16785 0
M  V30 7921 H 772.403 -3.47639 2.40638 0
M  V30 7922 H 770.121 -4.4375 6.75361 0
M  V30 7923 H 773.707 -3.69133 4.49702 0
M  V30 7924 H 772.587 -4.16768 6.64284 0
M  V30 7925 N 770.09 -0.729906 -1.39679 0
M  V30 7926 C 771.338 -0.275077 -2.00219 0
M  V30 7927 C 771.659 1.1401 -1.58199 0
M  V30 7928 O 770.929 1.77546 -0.827904 0
M  V30 7929 H 769.509 -0.0987127 -0.740449 0
M  V30 7930 H 772.171 -0.93873 -1.70804 0
M  V30 7931 H 771.267 -0.319446 -3.10461 0
M  V30 7932 N 771.568 1.50203 -0.477153 0
M  V30 7933 C 772.979 1.86685 -0.0235041 0
M  V30 7934 C 773.33 1.39148 1.38319 0
M  V30 7935 O 772.455 0.759051 2.02651 0
M  V30 7936 C 773.05 3.38781 -0.0358767 0
M  V30 7937 C 771.609 3.74652 0.362327 0
M  V30 7938 C 770.756 2.7412 -0.41875 0
M  V30 7939 H 773.707 1.4286 -0.691133 0
M  V30 7940 H 773.728 3.72732 0.764924 0
M  V30 7941 H 773.24 3.73349 -1.05981 0
M  V30 7942 H 771.341 3.45686 1.39039 0
M  V30 7943 H 771.454 4.79063 0.059457 0
M  V30 7944 H 769.818 2.54376 0.128341 0
M  V30 7945 H 770.601 3.11532 -1.44231 0
M  V30 7946 N 773.046 0.209999 1.56195 0
M  V30 7947 C 774.294 -0.423974 1.97603 0
M  V30 7948 C 774.615 -1.61112 1.09854 0
M  V30 7949 O 773.885 -1.95134 0.173032 0
M  V30 7950 H 772.465 -0.159629 0.729745 0
M  V30 7951 H 775.127 0.300205 1.92574 0
M  V30 7952 H 774.223 -0.75809 3.02753 0
M  V30 7953 N 774.524 -1.57472 -0.0634922 0
M  V30 7954 C 775.935 -1.76303 -0.614337 0
M  V30 7955 C 776.286 -0.836578 -1.77471 0
M  V30 7956 O 775.411 -0.0227184 -2.16388 0
M  V30 7957 C 776.006 -3.19709 -1.12122 0
M  V30 7958 C 774.565 -3.39856 -1.61786 0
M  V30 7959 C 773.712 -2.71975 -0.540845 0
M  V30 7960 H 776.663 -1.57864 0.162702 0
M  V30 7961 H 776.684 -3.24326 -1.98979 0
M  V30 7962 H 776.196 -3.87114 -0.276472 0
M  V30 7963 H 774.297 -2.77578 -2.48558 0
M  V30 7964 H 774.41 -4.48338 -1.68908 0
M  V30 7965 H 772.774 -2.34763 -0.987854 0
M  V30 7966 H 773.557 -3.4204 0.293856 0
M  V30 7967 N 776.003 0.335068 -1.53997 0
M  V30 7968 C 777.231 1.09418 -1.756 0
M  V30 7969 C 777.646 1.82083 -0.499138 0
M  V30 7970 O 777.003 1.74646 0.529631 0
M  V30 7971 C 777.054 2.10115 -2.94166 0
M  V30 7972 O 776.775 1.40404 -4.14992 0
M  V30 7973 C 778.276 2.98336 -3.27888 0
M  V30 7974 H 775.496 0.32595 -0.586513 0
M  V30 7975 H 778.04 0.384693 -2.00849 0
M  V30 7976 H 776.195 2.76616 -2.71224 0
M  V30 7977 H 776.609 2.07743 -4.81605 0
M  V30 7978 H 778.083 3.6491 -4.1418 0
M  V30 7979 H 778.56 3.64814 -2.44556 0
M  V30 7980 H 779.166 2.37412 -3.52868 0
M  V30 7981 N 777.481 1.45874 0.596531 0
M  V30 7982 C 778.413 1.51408 1.7207 0
M  V30 7983 C 779.426 0.403738 1.57714 0
M  V30 7984 O 780.615 0.671384 1.65393 0
M  V30 7985 C 777.715 1.3652 3.10186 0
M  V30 7986 C 776.888 2.61428 3.50677 0
M  V30 7987 C 775.947 2.40937 4.67799 0
M  V30 7988 O 774.973 3.14602 4.74357 0
M  V30 7989 N 776.175 1.4621 5.61785 0
M  V30 7990 H 778.94 2.48333 1.67782 0
M  V30 7991 H 776.501 1.41755 0.782129 0
M  V30 7992 H 778.493 1.20606 3.86311 0
M  V30 7993 H 777.063 0.478302 3.08919 0
M  V30 7994 H 776.283 2.92381 2.644 0
M  V30 7995 H 777.571 3.44432 3.74491 0
M  V30 7996 H 776.969 0.854382 5.59211 0
M  V30 7997 H 775.526 1.36264 6.37397 0
M  V30 7998 N 778.959 -0.83999 1.33349 0
M  V30 7999 C 780.199 -1.60888 1.26073 0
M  V30 8000 C 780.563 -1.91234 -0.17129 0
M  V30 8001 O 781.764 -2.66269 -0.36799 0
M  V30 8002 C 780.035 -2.88438 2.11042 0
M  V30 8003 S 781.594 -3.79116 2.20944 0
M  V30 8004 H 778.412 -0.55166 0.448545 0
M  V30 8005 H 781.014 -0.99359 1.68369 0
M  V30 8006 H 779.718 -2.64113 3.14121 0
M  V30 8007 H 779.249 -3.54974 1.69579 0
M  V30 8008 H 781.264 -4.76921 1.36969 0
M  V30 8009 N 780.437 -1.16799 -1.0581 0
M  V30 8010 C 781.683 -0.953935 -1.78963 0
M  V30 8011 C 782.016 0.516638 -1.87202 0
M  V30 8012 O 781.291 1.38338 -1.36721 0
M  V30 8013 C 781.574 -1.58808 -3.23191 0
M  V30 8014 C 781.427 -3.13032 -3.23003 0
M  V30 8015 C 782.746 -1.2868 -4.20867 0
M  V30 8016 H 779.865 -0.347972 -0.64968 0
M  V30 8017 H 782.507 -1.44204 -1.23715 0
M  V30 8018 H 780.657 -1.17303 -3.70368 0
M  V30 8019 H 782.329 -3.63553 -2.83949 0
M  V30 8020 H 780.572 -3.46108 -2.61518 0
M  V30 8021 H 781.243 -3.52527 -4.24769 0
M  V30 8022 H 783.719 -1.6461 -3.82155 0
M  V30 8023 H 782.595 -1.75645 -5.20038 0
M  V30 8024 H 782.856 -0.206491 -4.41618 0
M  V30 8025 N 781.915 1.24427 -0.967243 0
M  V30 8026 C 782.863 2.27403 -0.488927 0
M  V30 8027 C 783.857 1.63388 0.447302 0
M  V30 8028 O 785.063 1.77085 0.322643 0
M  V30 8029 H 781.438 0.738921 -0.139643 0
M  V30 8030 H 783.409 2.65122 -1.36942 0
M  V30 8031 C 782.158 3.4709 0.205787 0
M  V30 8032 H 781.481 3.96591 -0.50551 0
M  V30 8033 H 782.921 4.2099 0.504296 0
M  V30 8034 C 781.38 3.04923 1.43261 0
M  V30 8035 O 781.91 3.12043 2.52967 0
M  V30 8036 N 780.116 2.59976 1.29849 0
M  V30 8037 H 779.663 2.54382 0.405876 0
M  V30 8038 H 779.621 2.32128 2.12047 0
M  V30 8039 N 783.393 0.737304 1.3929 0
M  V30 8040 C 784.633 0.290966 2.02318 0
M  V30 8041 C 784.997 -1.10174 1.57244 0
M  V30 8042 O 786.198 -1.64628 2.12488 0
M  V30 8043 C 784.469 0.391767 3.55246 0
M  V30 8044 S 786.028 0.0256103 4.38793 0
M  V30 8045 H 782.846 0.113862 0.701824 0
M  V30 8046 H 785.448 0.964329 1.70062 0
M  V30 8047 H 784.152 1.40662 3.85542 0
M  V30 8048 H 783.683 -0.299338 3.9226 0
M  V30 8049 H 785.698 -1.18991 4.81722 0
M  V30 8050 N 784.871 -1.49948 0.485112 0
M  V30 8051 C 786.096 -2.073 -0.0645059 0
M  V30 8052 C 786.521 -1.345 -1.31497 0
M  V30 8053 O 785.879 -0.39687 -1.76903 0
M  V30 8054 C 785.927 -3.59201 -0.317304 0
M  V30 8055 O 785.031 -3.88085 -1.39514 0
M  V30 8056 H 784.372 -0.663723 0.0191822 0
M  V30 8057 H 786.902 -1.92963 0.680179 0
M  V30 8058 H 786.912 -4.04227 -0.553604 0
M  V30 8059 H 785.587 -4.11602 0.596387 0
M  V30 8060 H 784.164 -3.54885 -1.14504 0
M  V30 8061 N 786.349 -0.21828 -1.56081 0
M  V30 8062 C 787.281 0.725447 -2.17416 0
M  V30 8063 C 788.294 1.15995 -1.14233 0
M  V30 8064 O 789.483 1.09166 -1.41227 0
M  V30 8065 C 786.583 1.99401 -2.7403 0
M  V30 8066 C 785.756 1.7156 -4.02351 0
M  V30 8067 C 784.815 2.8309 -4.43561 0
M  V30 8068 O 783.841 2.51701 -5.10525 0
M  V30 8069 N 785.043 4.11972 -4.08973 0
M  V30 8070 H 787.808 0.200801 -2.99027 0
M  V30 8071 H 785.369 -0.0371514 -1.61857 0
M  V30 8072 H 787.361 2.73198 -2.98571 0
M  V30 8073 H 785.931 2.42923 -1.96742 0
M  V30 8074 H 785.151 0.814233 -3.85699 0
M  V30 8075 H 786.439 1.50385 -4.86068 0
M  V30 8076 H 785.837 4.40319 -3.55156 0
M  V30 8077 H 784.394 4.82323 -4.38415 0
M  V30 8078 N 787.827 1.57504 0.0551401 0
M  V30 8079 C 789.074 1.88055 0.751104 0
M  V30 8080 C 789.402 0.812231 1.76729 0
M  V30 8081 O 788.657 -0.189918 1.94776 0
M  V30 8082 C 788.956 3.25311 1.48013 0
M  V30 8083 C 788.622 4.46858 0.602375 0
M  V30 8084 C 787.284 4.79847 0.360536 0
M  V30 8085 C 789.636 5.212 -0.00524047 0
M  V30 8086 C 786.964 5.84582 -0.498127 0
M  V30 8087 C 789.316 6.26844 -0.851453 0
M  V30 8088 C 787.98 6.58324 -1.103 0
M  V30 8089 H 787.25 0.688142 0.274848 0
M  V30 8090 H 789.897 1.91497 0.0114795 0
M  V30 8091 H 788.202 3.17737 2.29239 0
M  V30 8092 H 789.899 3.46189 2.02371 0
M  V30 8093 H 786.489 4.21049 0.801007 0
M  V30 8094 H 790.673 4.96013 0.168682 0
M  V30 8095 H 785.929 6.07361 -0.701594 0
M  V30 8096 H 790.103 6.83603 -1.32893 0
M  V30 8097 H 787.73 7.39304 -1.77011 0
M  V30 8098 N 789.305 -0.326896 1.54172 0
M  V30 8099 C 790.235 -1.40741 1.86317 0
M  V30 8100 C 791.216 -1.54125 0.719684 0
M  V30 8101 O 792.401 -1.6806 0.973117 0
M  V30 8102 C 789.531 -2.77557 2.08757 0
M  V30 8103 C 788.485 -2.78965 3.24596 0
M  V30 8104 C 787.811 -4.18824 3.32401 0
M  V30 8105 C 789.111 -2.4301 4.62324 0
M  V30 8106 H 790.805 -1.14088 2.76811 0
M  V30 8107 H 788.351 -0.547389 1.3319 0
M  V30 8108 H 790.304 -3.53209 2.29829 0
M  V30 8109 H 789.028 -3.0568 1.15009 0
M  V30 8110 H 787.687 -2.05767 3.03406 0
M  V30 8111 H 787.335 -4.44083 2.36218 0
M  V30 8112 H 787.035 -4.20673 4.10253 0
M  V30 8113 H 788.559 -4.96294 3.55703 0
M  V30 8114 H 789.973 -3.08375 4.83299 0
M  V30 8115 H 788.37 -2.56116 5.42701 0
M  V30 8116 H 789.44 -1.38165 4.64799 0
M  V30 8117 N 790.784 -1.46188 -0.588786 0
M  V30 8118 C 792.2 -1.31009 -0.911524 0
M  V30 8119 C 792.4 -0.277017 -1.99587 0
M  V30 8120 O 791.456 0.322532 -2.50432 0
M  V30 8121 C 792.769 -2.69459 -1.33463 0
M  V30 8122 C 794.317 -2.77502 -1.44782 0
M  V30 8123 C 794.792 -4.1652 -1.90461 0
M  V30 8124 N 796.283 -4.18907 -1.97665 0
M  V30 8125 C 797.018 -5.23359 -2.34271 0
M  V30 8126 N 796.514 -6.38143 -2.69714 0
M  V30 8127 N 798.307 -5.10723 -2.34774 0
M  V30 8128 H 790.458 -2.12016 0.127614 0
M  V30 8129 H 792.721 -0.947984 -0.00557599 0
M  V30 8130 H 792.427 -3.46336 -0.611929 0
M  V30 8131 H 792.301 -2.99165 -2.2974 0
M  V30 8132 H 794.688 -2.00917 -2.1614 0
M  V30 8133 H 794.769 -2.51488 -0.467724 0
M  V30 8134 H 794.413 -4.93597 -1.19684 0
M  V30 8135 H 794.343 -4.39937 -2.89418 0
M  V30 8136 H 796.834 -3.36084 -1.72789 0
M  V30 8137 H 797.147 -7.13624 -2.96582 0
M  V30 8138 H 795.492 -6.41514 -2.67366 0
M  V30 8139 H 798.683 -4.20088 -2.06503 0
M  V30 8140 H 798.856 -5.9224 -2.62975 0
M  V30 8141 N 792.262 0.832906 -1.33792 0
M  V30 8142 C 793.51 1.58539 -1.25338 0
M  V30 8143 C 793.831 1.94175 0.179204 0
M  V30 8144 O 793.101 1.61458 1.10941 0
M  V30 8145 H 791.681 0.58784 -0.460926 0
M  V30 8146 H 794.343 0.995064 -1.67584 0
M  V30 8147 H 793.439 2.51268 -1.85123 0
M  V30 8148 N 793.74 1.17359 1.05189 0
M  V30 8149 C 794.672 0.848078 2.12933 0
M  V30 8150 C 795.685 -0.149521 1.62112 0
M  V30 8151 O 796.874 0.0767797 1.78335 0
M  V30 8152 C 793.974 0.243889 3.38021 0
M  V30 8153 C 793.147 1.28436 4.18118 0
M  V30 8154 C 792.206 0.697926 5.21551 0
M  V30 8155 O 791.232 1.36973 5.52473 0
M  V30 8156 N 792.434 -0.510024 5.78255 0
M  V30 8157 H 795.199 1.7754 2.41453 0
M  V30 8158 H 792.76 1.07244 1.21286 0
M  V30 8159 H 794.752 -0.161727 4.04377 0
M  V30 8160 H 793.322 -0.58722 3.07035 0
M  V30 8161 H 792.542 1.86573 3.47252 0
M  V30 8162 H 793.83 1.98617 4.68432 0
M  V30 8163 H 793.228 -1.07378 5.55416 0
M  V30 8164 H 791.785 -0.857705 6.46132 0
M  V30 8165 N 795.218 -1.23913 0.973828 0
M  V30 8166 C 796.128 -2.28838 0.516735 0
M  V30 8167 C 797.144 -1.68723 -0.425282 0
M  V30 8168 O 798.32 -1.99201 -0.296819 0
M  V30 8169 C 795.385 -3.46233 -0.179914 0
M  V30 8170 C 794.446 -4.21729 0.80269 0
M  V30 8171 C 793.679 -5.33518 0.139191 0
M  V30 8172 O 793.902 -5.60252 -1.07118 0
M  V30 8173 O 792.836 -5.96088 0.834447 0
M  V30 8174 H 796.662 -2.70067 1.38916 0
M  V30 8175 H 794.247 -1.2972 0.74115 0
M  V30 8176 H 796.129 -4.17514 -0.570991 0
M  V30 8177 H 794.804 -3.06969 -1.02721 0
M  V30 8178 H 793.711 -3.52799 1.24434 0
M  V30 8179 H 795.044 -4.64825 1.61859 0
M  V30 8180 N 796.696 -0.74468 -1.38897 0
M  V30 8181 C 797.936 -0.301691 -2.02161 0
M  V30 8182 C 798.3 1.09338 -1.57826 0
M  V30 8183 O 799.501 1.63499 -2.13358 0
M  V30 8184 C 797.772 -0.410601 -3.55034 0
M  V30 8185 S 799.331 -0.0488802 -4.38773 0
M  V30 8186 H 796.149 -0.117583 -0.70121 0
M  V30 8187 H 798.751 -0.973334 -1.69548 0
M  V30 8188 H 797.455 -1.42705 -3.8479 0
M  V30 8189 H 796.986 0.278531 -3.92413 0
M  V30 8190 H 799.001 1.16434 -4.82346 0
M  V30 8191 N 798.174 1.49689 -0.493057 0
M  V30 8192 C 799.42 2.02727 0.0543518 0
M  V30 8193 C 799.753 1.37264 1.37376 0
M  V30 8194 O 799.028 0.505644 1.87812 0
M  V30 8195 C 799.311 3.59456 0.215226 0
M  V30 8196 C 799.164 4.35459 -1.12675 0
M  V30 8197 C 800.483 4.29511 0.959586 0
M  V30 8198 H 797.602 0.736773 0.0182786 0
M  V30 8199 H 800.244 1.78792 -0.642924 0
M  V30 8200 H 798.394 3.79981 0.809122 0
M  V30 8201 H 800.066 4.2645 -1.75891 0
M  V30 8202 H 798.309 3.9833 -1.71801 0
M  V30 8203 H 798.98 5.43454 -0.967578 0
M  V30 8204 H 801.456 4.13594 0.455977 0
M  V30 8205 H 800.332 5.38939 1.04098 0
M  V30 8206 H 800.593 3.94202 2.00144 0
M  V30 8207 N 799.652 0.226554 1.55963 0
M  V30 8208 C 800.562 -0.692725 2.24139 0
M  V30 8209 C 801.578 -1.20971 1.25068 0
M  V30 8210 O 802.754 -1.25027 1.57893 0
M  V30 8211 C 799.819 -1.88183 2.91184 0
M  V30 8212 C 798.88 -1.40633 4.05612 0
M  V30 8213 C 798.113 -2.53875 4.6945 0
M  V30 8214 O 798.336 -3.72129 4.32292 0
M  V30 8215 O 797.27 -2.24792 5.58348 0
M  V30 8216 H 801.096 -0.141921 3.03368 0
M  V30 8217 H 798.681 -0.0041049 1.49399 0
M  V30 8218 H 800.563 -2.57617 3.33484 0
M  V30 8219 H 799.238 -2.42064 2.14911 0
M  V30 8220 H 798.145 -0.67986 3.67871 0
M  V30 8221 H 799.478 -0.913838 4.83642 0
M  V30 8222 N 801.13 -1.57531 -0.0467866 0
M  V30 8223 C 802.04 -2.08768 -1.07018 0
M  V30 8224 C 803.056 -1.02245 -1.40791 0
M  V30 8225 O 804.232 -1.33873 -1.50466 0
M  V30 8226 C 801.297 -2.54221 -2.35738 0
M  V30 8227 C 800.358 -3.75152 -2.08709 0
M  V30 8228 C 799.591 -4.18428 -3.31291 0
M  V30 8229 O 799.814 -3.61365 -4.4133 0
M  V30 8230 O 798.748 -5.11018 -3.18032 0
M  V30 8231 H 802.574 -2.96334 -0.664812 0
M  V30 8232 H 800.159 -1.47074 -0.262605 0
M  V30 8233 H 802.041 -2.83866 -3.11445 0
M  V30 8234 H 800.716 -1.69774 -2.75605 0
M  V30 8235 H 799.623 -3.50553 -1.30627 0
M  V30 8236 H 800.956 -4.60528 -1.73708 0
M  V30 8237 N 802.608 0.318715 -1.54344 0
M  V30 8238 C 803.848 1.06425 -1.74508 0
M  V30 8239 C 804.212 1.85087 -0.510572 0
M  V30 8240 O 805.413 2.62253 -0.589647 0
M  V30 8241 C 803.684 1.96054 -2.98827 0
M  V30 8242 S 805.243 2.77493 -3.39916 0
M  V30 8243 H 802.061 0.35921 -0.613587 0
M  V30 8244 H 804.663 0.339679 -1.92526 0
M  V30 8245 H 803.367 1.37109 -3.8682 0
M  V30 8246 H 802.898 2.72908 -2.83346 0
M  V30 8247 H 804.913 3.98544 -2.95596 0
M  V30 8248 N 804.086 1.46499 0.581025 0
M  V30 8249 C 805.502 1.31491 0.904563 0
M  V30 8250 C 805.702 0.287598 1.99437 0
M  V30 8251 O 804.758 -0.309247 2.50599 0
M  V30 8252 C 806.071 2.70163 1.32032 0
M  V30 8253 C 807.619 2.78266 1.43308 0
M  V30 8254 C 808.094 4.17524 1.8825 0
M  V30 8255 N 809.585 4.19949 1.9544 0
M  V30 8256 C 810.32 5.24594 2.31493 0
M  V30 8257 N 809.816 6.39564 2.66326 0
M  V30 8258 N 811.609 5.11961 2.32062 0
M  V30 8259 H 803.76 2.11946 -0.138856 0
M  V30 8260 H 806.023 0.948 0.000548528 0
M  V30 8261 H 805.729 3.46655 0.593554 0
M  V30 8262 H 805.603 3.00379 2.2815 0
M  V30 8263 H 807.99 2.02061 2.15071 0
M  V30 8264 H 808.071 2.51732 0.45438 0
M  V30 8265 H 807.715 4.94225 1.17065 0
M  V30 8266 H 807.645 4.41466 2.87081 0
M  V30 8267 H 810.136 3.36996 1.71004 0
M  V30 8268 H 810.449 7.15187 2.92793 0
M  V30 8269 H 808.794 6.42923 2.6396 0
M  V30 8270 H 811.985 4.21177 2.04272 0
M  V30 8271 H 812.158 5.93626 2.5983 0
M  V30 8272 N 805.565 -0.825799 1.34232 0
M  V30 8273 C 806.811 -1.58419 1.26614 0
M  V30 8274 C 807.144 -1.93503 -0.164341 0
M  V30 8275 O 806.419 -1.59785 -1.109 0
M  V30 8276 C 806.702 -2.8856 2.15418 0
M  V30 8277 C 806.555 -2.60075 3.66989 0
M  V30 8278 C 807.874 -3.90107 2.03726 0
M  V30 8279 H 804.993 -0.574794 0.461282 0
M  V30 8280 H 807.635 -0.951519 1.64457 0
M  V30 8281 H 805.785 -3.42553 1.83275 0
M  V30 8282 H 807.457 -2.12414 4.09485 0
M  V30 8283 H 805.7 -1.93565 3.88221 0
M  V30 8284 H 806.371 -3.52866 4.24488 0
M  V30 8285 H 808.847 -3.45459 2.31942 0
M  V30 8286 H 807.723 -4.78976 2.68092 0
M  V30 8287 H 807.984 -4.30329 1.01337 0
M  V30 8288 N 807.043 -1.17915 -1.04565 0
M  V30 8289 C 807.973 -0.925033 -2.14395 0
M  V30 8290 C 808.954 0.135375 -1.6956 0
M  V30 8291 O 810.139 -0.0161774 -1.94193 0
M  V30 8292 C 807.269 -0.444469 -3.44444 0
M  V30 8293 C 806.223 -1.44478 -4.02877 0
M  V30 8294 C 805.549 -0.821933 -5.28345 0
M  V30 8295 C 806.849 -2.81995 -4.39632 0
M  V30 8296 H 808.543 -1.84354 -2.35911 0
M  V30 8297 H 806.089 -0.887806 -1.13375 0
M  V30 8298 H 808.042 -0.254078 -4.20633 0
M  V30 8299 H 806.766 0.509592 -3.226 0
M  V30 8300 H 805.425 -1.62203 -3.28764 0
M  V30 8301 H 805.073 0.139161 -5.02807 0
M  V30 8302 H 804.773 -1.48976 -5.68401 0
M  V30 8303 H 806.297 -0.641959 -6.07216 0
M  V30 8304 H 807.711 -2.67952 -5.06828 0
M  V30 8305 H 806.108 -3.45414 -4.90723 0
M  V30 8306 H 807.178 -3.35927 -3.49687 0
M  V30 8307 N 808.521 1.23394 -0.980386 0
M  V30 8308 C 809.453 2.24146 -0.478657 0
M  V30 8309 C 810.466 1.57303 0.419492 0
M  V30 8310 O 811.655 1.77094 0.223631 0
M  V30 8311 C 808.755 3.3732 0.326913 0
M  V30 8312 C 807.928 4.33744 -0.56436 0
M  V30 8313 C 806.987 5.25866 0.187358 0
M  V30 8314 O 806.013 5.67626 -0.423019 0
M  V30 8315 N 807.215 5.61492 1.47335 0
M  V30 8316 H 809.98 2.67826 -1.34496 0
M  V30 8317 H 807.541 1.37566 -0.853653 0
M  V30 8318 H 809.533 3.95926 0.838148 0
M  V30 8319 H 808.103 2.92823 1.09422 0
M  V30 8320 H 807.323 3.73641 -1.25642 0
M  V30 8321 H 808.611 4.95123 -1.17177 0
M  V30 8322 H 808.009 5.29514 1.99077 0
M  V30 8323 H 806.566 6.2257 1.93002 0
M  V30 8324 N 809.999 0.752036 1.385 0
M  V30 8325 C 811.247 0.306895 1.99756 0
M  V30 8326 C 811.568 -1.11478 1.59992 0
M  V30 8327 O 810.838 -1.76206 0.856045 0
M  V30 8328 H 809.418 0.11048 0.738785 0
M  V30 8329 H 812.08 0.965785 1.69289 0
M  V30 8330 H 811.176 0.368797 3.09913 0
M  V30 8331 N 811.477 -1.49425 0.500989 0
M  V30 8332 C 812.407 -2.31971 -0.266775 0
M  V30 8333 C 813.388 -1.40245 -0.962563 0
M  V30 8334 O 814.573 -1.69154 -0.953968 0
M  V30 8335 C 811.703 -3.20757 -1.33163 0
M  V30 8336 C 810.657 -4.21275 -0.75572 0
M  V30 8337 C 809.983 -4.98997 -1.92109 0
M  V30 8338 C 811.283 -5.21686 0.253213 0
M  V30 8339 H 812.977 -2.96408 0.422237 0
M  V30 8340 H 810.523 -1.4254 0.204505 0
M  V30 8341 H 812.476 -3.77315 -1.87646 0
M  V30 8342 H 811.2 -2.54263 -2.04983 0
M  V30 8343 H 809.859 -3.65861 -0.232637 0
M  V30 8344 H 809.507 -4.28951 -2.62698 0
M  V30 8345 H 809.207 -5.67011 -1.54182 0
M  V30 8346 H 810.731 -5.584 -2.47026 0
M  V30 8347 H 812.145 -5.72939 -0.203483 0
M  V30 8348 H 810.542 -5.9759 0.548322 0
M  V30 8349 H 811.612 -4.70596 1.16909 0
M  V30 8350 N 812.955 -0.234822 -1.55841 0
M  V30 8351 C 814.366 0.270588 -1.84729 0
M  V30 8352 C 814.717 1.58494 -1.15646 0
M  V30 8353 O 813.842 2.12071 -0.430667 0
M  V30 8354 C 814.437 0.497733 -3.35124 0
M  V30 8355 C 812.996 0.947428 -3.64281 0
M  V30 8356 C 812.143 0.01787 -2.77294 0
M  V30 8357 H 815.094 -0.457691 -1.51957 0
M  V30 8358 H 815.115 1.34199 -3.56049 0
M  V30 8359 H 814.627 -0.459037 -3.85376 0
M  V30 8360 H 812.728 1.91709 -3.19497 0
M  V30 8361 H 812.841 0.812651 -4.72158 0
M  V30 8362 H 811.205 0.527071 -2.49187 0
M  V30 8363 H 811.988 -0.934056 -3.30349 0
M  V30 8364 N 814.433 1.57553 0.0384317 0
M  V30 8365 C 815.849 1.54663 0.39391 0
M  V30 8366 C 816.049 0.959685 1.77179 0
M  V30 8367 O 815.105 0.576647 2.45827 0
M  V30 8368 C 816.418 2.99156 0.304352 0
M  V30 8369 C 817.966 3.10659 0.382119 0
M  V30 8370 C 818.441 4.56866 0.322111 0
M  V30 8371 N 819.932 4.61629 0.38119 0
M  V30 8372 C 820.667 5.72284 0.357501 0
M  V30 8373 N 820.163 6.92207 0.286654 0
M  V30 8374 N 821.956 5.60628 0.406538 0
M  V30 8375 H 814.107 1.9406 -0.86339 0
M  V30 8376 H 816.37 0.889673 -0.327392 0
M  V30 8377 H 816.076 3.45788 -0.642141 0
M  V30 8378 H 815.95 3.60753 1.10168 0
M  V30 8379 H 818.337 2.6398 1.31904 0
M  V30 8380 H 818.418 2.5191 -0.444391 0
M  V30 8381 H 818.062 5.0421 -0.611104 0
M  V30 8382 H 817.992 5.13515 1.1666 0
M  V30 8383 H 820.483 3.75343 0.438838 0
M  V30 8384 H 820.796 7.72316 0.273421 0
M  V30 8385 H 819.141 6.9454 0.252841 0
M  V30 8386 H 822.332 4.65836 0.459812 0
M  V30 8387 H 822.505 6.46858 0.384608 0
M  V30 8388 N 815.911 -0.310526 1.54511 0
M  V30 8389 C 816.821 -1.4054 1.87844 0
M  V30 8390 C 817.837 -1.55954 0.771635 0
M  V30 8391 O 819.013 -1.70801 1.06719 0
M  V30 8392 C 816.078 -2.75063 2.11048 0
M  V30 8393 C 815.139 -2.68715 3.348 0
M  V30 8394 C 814.372 -3.96821 3.56887 0
M  V30 8395 O 814.595 -4.95721 2.82165 0
M  V30 8396 O 813.529 -3.99291 4.50389 0
M  V30 8397 H 817.355 -1.15275 2.80972 0
M  V30 8398 H 814.94 -0.505732 1.4058 0
M  V30 8399 H 816.822 -3.54671 2.27566 0
M  V30 8400 H 815.497 -3.00191 1.21108 0
M  V30 8401 H 814.404 -1.87611 3.23655 0
M  V30 8402 H 815.737 -2.4854 4.2484 0
M  V30 8403 N 817.389 -1.46805 -0.573248 0
M  V30 8404 C 818.619 -1.55965 -1.35494 0
M  V30 8405 C 819.027 -0.203038 -1.88107 0
M  V30 8406 O 818.37 0.81138 -1.6481 0
M  V30 8407 C 818.432 -2.51168 -2.57206 0
M  V30 8408 C 818.096 -3.97211 -2.25993 0
M  V30 8409 C 819.093 -4.86155 -1.84254 0
M  V30 8410 C 816.778 -4.42419 -2.37846 0
M  V30 8411 C 818.772 -6.18323 -1.54776 0
M  V30 8412 C 816.459 -5.74619 -2.0798 0
M  V30 8413 C 817.457 -6.62392 -1.66511 0
M  V30 8414 O 817.145 -7.92137 -1.37016 0
M  V30 8415 H 816.877 -0.529748 -0.419932 0
M  V30 8416 H 819.431 -1.92998 -0.702914 0
M  V30 8417 H 817.661 -2.09171 -3.25245 0
M  V30 8418 H 819.35 -2.50631 -3.19279 0
M  V30 8419 H 820.116 -4.52481 -1.74603 0
M  V30 8420 H 815.995 -3.74319 -2.69085 0
M  V30 8421 H 819.539 -6.8679 -1.22334 0
M  V30 8422 H 815.436 -6.0784 -2.17258 0
M  V30 8423 H 816.204 -8.04492 -1.50782 0
M  V30 8424 N 818.867 0.818669 -1.34668 0
M  V30 8425 C 820.113 1.57746 -1.27453 0
M  V30 8426 C 820.446 1.93588 0.154077 0
M  V30 8427 O 819.721 1.60371 1.10051 0
M  V30 8428 C 820.004 2.87414 -2.16945 0
M  V30 8429 C 819.857 2.58125 -3.68363 0
M  V30 8430 C 821.176 3.89021 -2.05792 0
M  V30 8431 H 818.295 0.572339 -0.464324 0
M  V30 8432 H 820.937 0.942784 -1.64959 0
M  V30 8433 H 819.087 3.41576 -1.85089 0
M  V30 8434 H 820.759 2.10239 -4.10606 0
M  V30 8435 H 819.002 1.91503 -3.89242 0
M  V30 8436 H 819.673 3.5061 -4.26353 0
M  V30 8437 H 822.149 3.44224 -2.33771 0
M  V30 8438 H 821.025 4.77548 -2.70628 0
M  V30 8439 H 821.286 4.29786 -1.03618 0
M  V30 8440 N 820.346 1.18468 1.03938 0
M  V30 8441 C 821.294 0.909286 2.14091 0
M  V30 8442 C 822.288 -0.130928 1.68893 0
M  V30 8443 O 823.494 0.0173403 1.79992 0
M  V30 8444 H 819.869 0.27658 0.699291 0
M  V30 8445 H 821.84 1.84514 2.34515 0
M  V30 8446 C 820.589 0.452922 3.44737 0
M  V30 8447 H 819.912 1.24485 3.79926 0
M  V30 8448 H 821.352 0.299238 4.22943 0
M  V30 8449 C 819.811 -0.831435 3.26479 0
M  V30 8450 O 820.341 -1.89535 3.54174 0
M  V30 8451 N 818.547 -0.784545 2.79809 0
M  V30 8452 H 818.094 0.0814746 2.57471 0
M  V30 8453 H 818.052 -1.64431 2.67973 0
M  V30 8454 N 821.824 -1.22873 0.986916 0
M  V30 8455 C 822.787 -2.2281 0.537442 0
M  V30 8456 C 823.787 -1.56331 -0.37646 0
M  V30 8457 O 824.977 -1.73376 -0.169247 0
M  V30 8458 C 822.109 -3.40195 -0.219082 0
M  V30 8459 H 823.302 -2.64089 1.42116 0
M  V30 8460 H 820.855 -1.35819 0.773488 0
M  V30 8461 H 821.59 -3.04381 -1.11905 0
M  V30 8462 H 821.375 -3.89657 0.437026 0
M  V30 8463 H 822.865 -4.14326 -0.521926 0
M  V30 8464 N 823.302 -0.75937 -1.38099 0
M  V30 8465 C 824.718 -0.437606 -1.53483 0
M  V30 8466 C 824.918 1.04849 -1.72072 0
M  V30 8467 O 823.974 1.83448 -1.73502 0
M  V30 8468 C 825.287 -1.24189 -2.73857 0
M  V30 8469 C 826.835 -1.23255 -2.8771 0
M  V30 8470 C 827.31 -2.01992 -4.11051 0
M  V30 8471 N 828.801 -1.99282 -4.1814 0
M  V30 8472 C 829.536 -2.56996 -5.12583 0
M  V30 8473 N 829.032 -3.23446 -6.12662 0
M  V30 8474 N 830.825 -2.46894 -5.04975 0
M  V30 8475 H 822.976 -1.72242 -1.24283 0
M  V30 8476 H 825.239 -0.730507 -0.604205 0
M  V30 8477 H 824.945 -2.29449 -2.66545 0
M  V30 8478 H 824.819 -0.862672 -3.67203 0
M  V30 8479 H 827.206 -0.187988 -2.94501 0
M  V30 8480 H 827.287 -1.65132 -1.95359 0
M  V30 8481 H 826.931 -3.06462 -4.05023 0
M  V30 8482 H 826.861 -1.57505 -5.02494 0
M  V30 8483 H 829.352 -1.50893 -3.46467 0
M  V30 8484 H 829.665 -3.6489 -6.81231 0
M  V30 8485 H 828.01 -3.27543 -6.12977 0
M  V30 8486 H 831.201 -1.94604 -4.25731 0
M  V30 8487 H 831.374 -2.92168 -5.78396 0
M  V30 8488 N 824.78 1.49157 -0.508906 0
M  V30 8489 C 825.73 2.26215 0.284705 0
M  V30 8490 C 826.714 1.31401 0.928586 0
M  V30 8491 O 827.906 1.56073 0.834877 0
M  V30 8492 C 825.035 3.15906 1.34382 0
M  V30 8493 C 824.121 4.18186 0.705785 0
M  V30 8494 N 824.512 5.05419 -0.196214 0
M  V30 8495 C 822.81 4.35425 0.965457 0
M  V30 8496 C 823.511 5.78977 -0.562222 0
M  V30 8497 N 822.487 5.43553 0.0717389 0
M  V30 8498 H 826.289 2.91033 -0.409543 0
M  V30 8499 H 823.803 1.59104 -0.325508 0
M  V30 8500 H 825.8 3.6975 1.92589 0
M  V30 8501 H 824.46 2.52642 2.03966 0
M  V30 8502 H 825.471 5.14781 -0.567526 0
M  V30 8503 H 822.148 3.83363 1.65346 0
M  V30 8504 H 823.538 6.59192 -1.30062 0
M  V30 8505 N 826.258 0.243083 1.55714 0
M  V30 8506 C 827.498 -0.384303 2.00755 0
M  V30 8507 C 827.862 -1.55406 1.12752 0
M  V30 8508 O 829.063 -2.24892 1.47231 0
M  V30 8509 C 827.334 -0.787419 3.48618 0
M  V30 8510 S 828.893 -1.40587 4.15669 0
M  V30 8511 H 825.711 -0.121088 0.700613 0
M  V30 8512 H 828.313 0.357423 1.92205 0
M  V30 8513 H 827.017 0.0732892 4.10335 0
M  V30 8514 H 826.548 -1.56142 3.61086 0
M  V30 8515 H 828.563 -2.69493 4.16639 0
M  V30 8516 N 827.736 -1.57571 -0.0300757 0
M  V30 8517 C 828.666 -2.0953 -1.03051 0
M  V30 8518 C 829.647 -0.99761 -1.37774 0
M  V30 8519 O 830.832 -1.27279 -1.46676 0
M  V30 8520 C 827.962 -2.57385 -2.33174 0
M  V30 8521 C 826.916 -3.71409 -2.12696 0
M  V30 8522 C 826.242 -4.05467 -3.4857 0
M  V30 8523 C 827.542 -4.99877 -1.51396 0
M  V30 8524 H 829.236 -2.93367 -0.597999 0
M  V30 8525 H 826.782 -1.41127 -0.286203 0
M  V30 8526 H 828.735 -2.92355 -3.03491 0
M  V30 8527 H 827.459 -1.70629 -2.78484 0
M  V30 8528 H 826.118 -3.36786 -1.44813 0
M  V30 8529 H 825.766 -3.15779 -3.91526 0
M  V30 8530 H 825.466 -4.82269 -3.35694 0
M  V30 8531 H 826.99 -4.4297 -4.2025 0
M  V30 8532 H 828.404 -5.3281 -2.11629 0
M  V30 8533 H 826.801 -5.81283 -1.49098 0
M  V30 8534 H 827.871 -4.82522 -0.479676 0
M  V30 8535 N 829.214 0.302327 -1.54673 0
M  V30 8536 C 830.625 0.875409 -1.64904 0
M  V30 8537 C 830.976 1.88132 -0.55684 0
M  V30 8538 O 830.101 2.14215 0.306754 0
M  V30 8539 C 830.696 1.59457 -2.9893 0
M  V30 8540 C 829.255 2.11607 -3.11287 0
M  V30 8541 C 828.402 0.948324 -2.6058 0
M  V30 8542 H 831.353 0.079362 -1.58501 0
M  V30 8543 H 831.374 2.46005 -2.90279 0
M  V30 8544 H 830.886 0.8622 -3.78402 0
M  V30 8545 H 828.987 2.87895 -2.36532 0
M  V30 8546 H 829.1 2.35151 -4.17422 0
M  V30 8547 H 827.464 1.33352 -2.17001 0
M  V30 8548 H 828.247 0.229936 -3.42529 0
M  V30 8549 N 830.692 1.47107 0.565454 0
M  V30 8550 C 831.932 1.5488 1.33385 0
M  V30 8551 C 832.296 0.202804 1.90926 0
M  V30 8552 O 833.497 0.155345 2.68351 0
M  V30 8553 C 831.768 2.62969 2.42037 0
M  V30 8554 S 833.327 2.90269 3.29074 0
M  V30 8555 H 830.145 0.547008 0.454206 0
M  V30 8556 H 832.747 1.8444 0.648228 0
M  V30 8557 H 831.451 3.59376 1.98185 0
M  V30 8558 H 830.982 2.35197 3.15351 0
M  V30 8559 H 832.997 2.26854 4.41307 0
M  V30 8560 N 832.17 -0.811516 1.35101 0
M  V30 8561 C 833.12 -1.91227 1.24163 0
M  V30 8562 C 834.104 -1.60307 0.138012 0
M  V30 8563 O 835.296 -1.73116 0.368767 0
M  V30 8564 C 832.425 -3.2808 1.01085 0
M  V30 8565 C 831.511 -3.65082 2.15815 0
M  V30 8566 N 831.902 -3.73558 3.4101 0
M  V30 8567 C 830.2 -3.95005 2.07092 0
M  V30 8568 C 830.901 -4.06158 4.16426 0
M  V30 8569 N 829.877 -4.19982 3.45132 0
M  V30 8570 H 833.679 -1.95975 2.19023 0
M  V30 8571 H 831.193 -1.00583 1.27503 0
M  V30 8572 H 833.19 -4.06771 0.913382 0
M  V30 8573 H 831.85 -3.24622 0.0710406 0
M  V30 8574 H 832.861 -3.56761 3.75423 0
M  V30 8575 H 829.538 -3.99601 1.20937 0
M  V30 8576 H 830.928 -4.19824 5.24592 0
M  V30 8577 N 833.648 -1.19017 -1.03309 0
M  V30 8578 C 835.059 -0.993206 -1.5809 0
M  V30 8579 C 835.41 0.45505 -1.9085 0
M  V30 8580 O 834.535 1.33372 -1.70414 0
M  V30 8581 C 835.13 -1.79661 -2.87241 0
M  V30 8582 C 833.689 -1.64377 -3.38611 0
M  V30 8583 C 832.836 -1.78628 -2.12102 0
M  V30 8584 H 835.787 -1.3345 -0.858879 0
M  V30 8585 H 835.808 -1.29019 -3.57958 0
M  V30 8586 H 835.32 -2.85061 -2.63366 0
M  V30 8587 H 833.421 -0.615447 -3.67482 0
M  V30 8588 H 833.534 -2.44651 -4.11926 0
M  V30 8589 H 831.898 -1.21648 -2.23772 0
M  V30 8590 H 832.681 -2.8548 -1.90673 0
M  V30 8591 N 835.127 1.22348 -0.993418 0
M  V30 8592 C 836.037 2.27987 -0.553076 0
M  V30 8593 C 837.053 1.69378 0.398386 0
M  V30 8594 O 838.229 1.99648 0.26509 0
M  V30 8595 C 835.294 3.46475 0.124809 0
M  V30 8596 C 834.355 4.20399 -0.869682 0
M  V30 8597 C 833.588 5.33229 -0.224052 0
M  V30 8598 O 833.811 5.61885 0.981915 0
M  V30 8599 O 832.745 5.94685 -0.929174 0
M  V30 8600 H 836.571 2.67822 -1.43195 0
M  V30 8601 H 834.156 1.28525 -0.761694 0
M  V30 8602 H 836.038 4.18369 0.504496 0
M  V30 8603 H 834.713 3.08565 0.978243 0
M  V30 8604 H 833.62 3.50774 -1.30031 0
M  V30 8605 H 834.953 4.62191 -1.69233 0
M  V30 8606 N 836.605 0.766683 1.37694 0
M  V30 8607 C 837.845 0.333815 2.01656 0
M  V30 8608 C 838.209 -1.06813 1.59546 0
M  V30 8609 O 839.41 -1.60084 2.15932 0
M  V30 8610 C 837.681 0.467032 3.54335 0
M  V30 8611 S 839.24 0.118679 4.38639 0
M  V30 8612 H 836.058 0.128723 0.699251 0
M  V30 8613 H 838.66 1.00018 1.67978 0
M  V30 8614 H 837.364 1.48808 3.82471 0
M  V30 8615 H 836.895 -0.216066 3.92806 0
M  V30 8616 H 838.91 -1.08746 4.84137 0
M  V30 8617 N 838.083 -1.48885 0.516809 0
M  V30 8618 C 839.015 -2.27357 -0.290061 0
M  V30 8619 C 840.028 -1.34558 -0.916406 0
M  V30 8620 O 841.217 -1.59715 -0.797073 0
M  V30 8621 C 838.317 -3.07496 -1.42476 0
M  V30 8622 C 837.49 -4.27982 -0.902793 0
M  V30 8623 C 836.549 -4.90038 -1.91701 0
M  V30 8624 O 835.575 -5.49643 -1.47922 0
M  V30 8625 N 836.777 -4.811 -3.24843 0
M  V30 8626 H 839.542 -2.97244 0.382884 0
M  V30 8627 H 837.103 -1.58064 0.35032 0
M  V30 8628 H 839.095 -3.45882 -2.10113 0
M  V30 8629 H 837.665 -2.40115 -2.00159 0
M  V30 8630 H 836.885 -3.94167 -0.0508272 0
M  V30 8631 H 838.173 -5.06003 -0.532723 0
M  V30 8632 H 837.571 -4.33801 -3.63088 0
M  V30 8633 H 836.128 -5.23625 -3.8815 0
M  V30 8634 N 839.561 -0.251338 -1.55583 0
M  V30 8635 C 840.972 0.25098 -1.85005 0
M  V30 8636 C 841.323 1.57259 -1.17321 0
M  V30 8637 O 840.448 2.11603 -0.453136 0
M  V30 8638 C 841.043 0.462161 -3.35633 0
M  V30 8639 C 839.602 0.908737 -3.65266 0
M  V30 8640 C 838.749 -0.0115418 -2.77298 0
M  V30 8641 H 841.7 -0.473782 -1.51463 0
M  V30 8642 H 841.721 1.30415 -3.57452 0
M  V30 8643 H 841.233 -0.499886 -3.84867 0
M  V30 8644 H 839.334 1.8831 -3.21512 0
M  V30 8645 H 839.447 0.762526 -4.72993 0
M  V30 8646 H 837.811 0.500612 -2.49732 0
M  V30 8647 H 838.594 -0.969042 -3.29339 0
M  V30 8648 N 841.039 1.57585 0.0217189 0
M  V30 8649 C 841.971 2.03849 1.04777 0
M  V30 8650 C 842.984 0.952558 1.32023 0
M  V30 8651 O 844.173 1.22974 1.29381 0
M  V30 8652 C 841.273 2.40504 2.3877 0
M  V30 8653 C 840.446 3.71566 2.30775 0
M  V30 8654 C 839.505 3.95329 3.47277 0
M  V30 8655 O 838.531 4.66289 3.26441 0
M  V30 8656 N 839.733 3.41536 4.69397 0
M  V30 8657 H 842.498 2.92491 0.653395 0
M  V30 8658 H 840.059 1.60538 0.209527 0
M  V30 8659 H 842.051 2.53532 3.15442 0
M  V30 8660 H 840.621 1.57494 2.70027 0
M  V30 8661 H 839.841 3.68822 1.39155 0
M  V30 8662 H 841.129 4.5753 2.22584 0
M  V30 8663 H 840.527 2.84033 4.89226 0
M  V30 8664 H 839.084 3.59932 5.43408 0
M  V30 8665 N 842.517 -0.29412 1.54831 0
M  V30 8666 C 843.465 -1.38296 1.87021 0
M  V30 8667 C 844.459 -1.5216 0.744557 0
M  V30 8668 O 845.665 -1.54196 0.92864 0
M  V30 8669 H 842.04 -0.462088 0.593278 0
M  V30 8670 H 844.011 -1.08386 2.7802 0
M  V30 8671 C 842.76 -2.74024 2.14023 0
M  V30 8672 H 842.083 -2.6414 3.00117 0
M  V30 8673 H 843.523 -3.49205 2.40482 0
M  V30 8674 C 841.982 -3.23492 0.940982 0
M  V30 8675 O 842.512 -4.01361 0.164937 0
M  V30 8676 N 840.718 -2.80902 0.744467 0
M  V30 8677 H 840.265 -2.17694 1.37721 0
M  V30 8678 H 840.223 -3.14349 -0.0563652 0
M  V30 8679 N 843.995 -1.47404 -0.557645 0
M  V30 8680 C 845.243 -1.53703 -1.31224 0
M  V30 8681 C 845.564 -0.200742 -1.93964 0
M  V30 8682 O 844.834 0.775253 -1.79907 0
M  V30 8683 H 843.414 -0.566171 -0.487299 0
M  V30 8684 H 846.076 -1.83699 -0.651195 0
M  V30 8685 H 845.172 -2.30335 -2.10599 0
M  V30 8686 N 845.473 0.80434 -1.35529 0
M  V30 8687 C 846.698 1.598 -1.32207 0
M  V30 8688 C 847.123 1.87848 0.0974226 0
M  V30 8689 O 846.481 1.46728 1.06492 0
M  V30 8690 C 846.529 2.90483 -2.13663 0
M  V30 8691 O 845.633 3.83411 -1.51888 0
M  V30 8692 H 844.974 0.485305 -0.453183 0
M  V30 8693 H 847.504 0.998119 -1.78602 0
M  V30 8694 H 847.514 3.39888 -2.257 0
M  V30 8695 H 846.189 2.69395 -3.16859 0
M  V30 8696 H 844.766 3.41967 -1.48704 0
M  V30 8697 N 846.951 1.19563 1.02676 0
M  V30 8698 C 848.197 1.00105 1.76371 0
M  V30 8699 C 848.53 -0.466823 1.88506 0
M  V30 8700 O 847.805 -1.34665 1.40341 0
M  V30 8701 C 848.088 1.67321 3.18866 0
M  V30 8702 C 847.941 3.21486 3.1459 0
M  V30 8703 C 849.26 1.39794 4.17308 0
M  V30 8704 H 846.379 0.365075 0.640226 0
M  V30 8705 H 849.021 1.47433 1.19848 0
M  V30 8706 H 847.171 1.27081 3.67128 0
M  V30 8707 H 848.843 3.70953 2.7421 0
M  V30 8708 H 847.086 3.5292 2.52249 0
M  V30 8709 H 847.757 3.63665 4.15273 0
M  V30 8710 H 850.233 1.74685 3.77657 0
M  V30 8711 H 849.109 1.89371 5.15199 0
M  V30 8712 H 849.37 0.323505 4.40915 0
M  V30 8713 N 848.429 -1.21819 0.999893 0
M  V30 8714 C 849.657 -1.94758 0.698359 0
M  V30 8715 C 850.072 -1.73771 -0.738183 0
M  V30 8716 O 849.429 -1.04113 -1.49889 0
M  V30 8717 C 849.48 -3.47292 1.00353 0
M  V30 8718 O 849.201 -3.67579 2.38363 0
M  V30 8719 C 850.702 -4.37403 0.72068 0
M  V30 8720 H 847.922 -0.619512 0.257771 0
M  V30 8721 H 850.466 -1.54778 1.33656 0
M  V30 8722 H 848.621 -3.85213 0.411018 0
M  V30 8723 H 849.035 -4.61719 2.48829 0
M  V30 8724 H 850.509 -5.43151 0.984422 0
M  V30 8725 H 850.986 -4.3784 -0.345309 0
M  V30 8726 H 851.592 -4.05119 1.29456 0
M  V30 8727 N 849.908 -0.773975 -1.37286 0
M  V30 8728 C 851.148 -0.344505 -2.01476 0
M  V30 8729 C 851.512 1.05966 -1.6011 0
M  V30 8730 O 852.713 1.58937 -2.16778 0
M  V30 8731 C 850.984 -0.485816 -3.54083 0
M  V30 8732 S 852.543 -0.141939 -4.3857 0
M  V30 8733 H 849.361 -0.13243 -0.698558 0
M  V30 8734 H 851.963 -1.00908 -1.67445 0
M  V30 8735 H 850.667 -1.50835 -3.81677 0
M  V30 8736 H 850.198 0.195232 -3.92915 0
M  V30 8737 H 852.213 1.06177 -4.84707 0
M  V30 8738 N 851.386 1.48609 -0.524698 0
M  V30 8739 C 852.633 2.02497 0.0113214 0
M  V30 8740 C 852.961 1.40229 1.34781 0
M  V30 8741 O 852.216 0.53557 1.88229 0
M  V30 8742 C 852.515 3.56906 0.187873 0
M  V30 8743 C 852.181 4.37932 -1.07359 0
M  V30 8744 C 850.843 4.59792 -1.41933 0
M  V30 8745 C 853.195 4.84902 -1.911 0
M  V30 8746 C 850.523 5.25868 -2.60154 0
M  V30 8747 C 852.875 5.52281 -3.08495 0
M  V30 8748 C 851.539 5.7238 -3.4342 0
M  V30 8749 H 850.809 0.740988 0.0041428 0
M  V30 8750 H 853.456 1.78651 -0.689652 0
M  V30 8751 H 851.761 3.79563 0.971572 0
M  V30 8752 H 853.458 3.96218 0.617443 0
M  V30 8753 H 850.048 4.21175 -0.794331 0
M  V30 8754 H 854.232 4.67821 -1.65701 0
M  V30 8755 H 849.488 5.39628 -2.87422 0
M  V30 8756 H 853.662 5.87645 -3.73692 0
M  V30 8757 H 851.289 6.23354 -4.35126 0
M  V30 8758 N 852.864 0.259585 1.55447 0
M  V30 8759 C 854.112 -0.360893 1.98852 0
M  V30 8760 C 854.433 -1.57535 1.14924 0
M  V30 8761 O 853.703 -1.94485 0.235025 0
M  V30 8762 H 852.283 -0.136332 0.734454 0
M  V30 8763 H 854.945 0.361319 1.91522 0
M  V30 8764 H 854.041 -0.661388 3.05012 0
M  V30 8765 N 854.342 -1.57594 -0.0133615 0
M  V30 8766 C 855.753 -1.78168 -0.557937 0
M  V30 8767 C 856.104 -0.892616 -1.74719 0
M  V30 8768 O 855.229 -0.0915491 -2.16206 0
M  V30 8769 C 855.824 -3.23115 -1.01894 0
M  V30 8770 C 854.383 -3.44831 -1.50892 0
M  V30 8771 C 853.53 -2.73558 -0.454044 0
M  V30 8772 H 856.481 -1.57266 0.212843 0
M  V30 8773 H 856.502 -3.30493 -1.8856 0
M  V30 8774 H 856.014 -3.87798 -0.153175 0
M  V30 8775 H 854.115 -2.85345 -2.39602 0
M  V30 8776 H 854.228 -4.53485 -1.54559 0
M  V30 8777 H 852.592 -2.37787 -0.912666 0
M  V30 8778 H 853.375 -3.40932 0.402524 0
M  V30 8779 N 855.82 0.285905 -1.54985 0
M  V30 8780 C 856.73 1.37534 -1.90057 0
M  V30 8781 C 857.746 1.54707 -0.796348 0
M  V30 8782 O 858.922 1.69082 -1.09423 0
M  V30 8783 C 855.987 2.7167 -2.15398 0
M  V30 8784 C 855.048 2.63354 -3.39033 0
M  V30 8785 C 854.281 3.91093 -3.63155 0
M  V30 8786 O 854.504 4.91169 -2.90015 0
M  V30 8787 O 853.438 3.92075 -4.56685 0
M  V30 8788 H 857.264 1.10791 -2.8277 0
M  V30 8789 H 854.849 0.483303 -1.41367 0
M  V30 8790 H 856.731 3.51006 -2.33179 0
M  V30 8791 H 855.406 2.98226 -1.25868 0
M  V30 8792 H 854.313 1.82438 -3.26599 0
M  V30 8793 H 855.646 2.41749 -4.2874 0
M  V30 8794 N 857.298 1.47698 0.54982 0
M  V30 8795 C 858.261 1.60282 1.63837 0
M  V30 8796 C 859.261 0.477394 1.5355 0
M  V30 8797 O 860.451 0.742665 1.57576 0
M  V30 8798 C 857.583 1.55431 3.03404 0
M  V30 8799 H 858.776 2.57325 1.54026 0
M  V30 8800 H 856.329 1.35999 0.770329 0
M  V30 8801 H 857.064 0.597912 3.1874 0
M  V30 8802 H 856.849 2.37116 3.12279 0
M  V30 8803 H 858.339 1.6739 3.82584 0
M  V30 8804 N 858.776 -0.797141 1.35954 0
M  V30 8805 C 860.053 -1.54224 1.2031 0
M  V30 8806 C 860.433 -2.10013 -0.213926 0
M  V30 8807 O 859.781 -1.93292 -1.21862 0
M  V30 8808 C 859.991 -2.6433 2.27883 0
M  V30 8809 C 861.339 -3.32418 2.64165 0
M  V30 8810 O 862.363 -2.74607 2.26868 0
M  V30 8811 O 861.222 -4.36876 3.28331 0
M  V30 8812 H 858.316 -0.681857 0.467974 0
M  V30 8813 H 860.862 -0.836288 1.47663 0
M  V30 8814 H 859.634 -2.21044 3.22885 0
M  V30 8815 H 859.257 -3.42551 2.01853 0
M  V30 8816 N 860.254 -1.20106 -1.0204 0
M  V30 8817 C 861.186 -0.904236 -2.10609 0
M  V30 8818 C 862.199 0.106487 -1.62451 0
M  V30 8819 O 863.388 -0.124035 -1.78069 0
M  V30 8820 C 860.488 -0.333423 -3.37256 0
M  V30 8821 C 859.661 -1.39476 -4.14566 0
M  V30 8822 C 858.72 -0.835961 -5.19517 0
M  V30 8823 O 857.746 -1.51573 -5.48648 0
M  V30 8824 N 858.948 0.356531 -5.79404 0
M  V30 8825 H 861.713 -1.8388 -2.36661 0
M  V30 8826 H 859.274 -1.10422 -1.184 0
M  V30 8827 H 861.266 0.0544571 -4.04663 0
M  V30 8828 H 859.836 0.505608 -3.08484 0
M  V30 8829 H 859.056 -1.95714 -3.42184 0
M  V30 8830 H 860.344 -2.10967 -4.63001 0
M  V30 8831 H 859.742 0.926143 -5.58067 0
M  V30 8832 H 858.299 0.686093 -6.48179 0
M  V30 8833 N 861.732 1.21287 -1.00634 0
M  V30 8834 C 862.972 1.92106 -0.698194 0
M  V30 8835 C 863.336 1.76437 0.757222 0
M  V30 8836 O 864.537 2.41641 1.17741 0
M  V30 8837 C 862.808 3.39748 -1.10932 0
M  V30 8838 S 864.367 4.29013 -0.921586 0
M  V30 8839 H 861.185 0.663755 -0.254853 0
M  V30 8840 H 863.787 1.46772 -1.29145 0
M  V30 8841 H 862.491 3.48669 -2.16467 0
M  V30 8842 H 862.022 3.90101 -0.508419 0
M  V30 8843 H 864.037 4.95871 0.180578 0
M  V30 8844 N 863.21 0.781244 1.36873 0
M  V30 8845 C 864.456 0.350407 1.9975 0
M  V30 8846 C 864.789 -1.07293 1.6187 0
M  V30 8847 O 864.064 -1.73983 0.869491 0
M  V30 8848 C 864.347 0.504834 3.56544 0
M  V30 8849 C 864.2 1.97127 4.04303 0
M  V30 8850 C 865.519 -0.0851272 4.40018 0
M  V30 8851 H 862.638 0.128794 0.725659 0
M  V30 8852 H 865.28 0.98606 1.6241 0
M  V30 8853 H 863.43 -0.0363006 3.88483 0
M  V30 8854 H 865.102 2.57284 3.82887 0
M  V30 8855 H 863.345 2.47676 3.56145 0
M  V30 8856 H 864.016 2.03033 5.13305 0
M  V30 8857 H 866.492 0.376704 4.14391 0
M  V30 8858 H 865.368 0.0530015 5.48874 0
M  V30 8859 H 865.629 -1.17642 4.2616 0
M  V30 8860 N 864.689 -1.48329 0.532571 0
M  V30 8861 C 865.652 -2.2816 -0.218069 0
M  V30 8862 C 866.652 -1.35526 -0.865409 0
M  V30 8863 O 867.842 -1.58394 -0.725061 0
M  V30 8864 C 864.974 -3.1448 -1.31586 0
M  V30 8865 H 866.167 -2.95987 0.482865 0
M  V30 8866 H 863.72 -1.53612 0.288603 0
M  V30 8867 H 864.455 -2.5129 -2.04997 0
M  V30 8868 H 864.24 -3.82625 -0.856779 0
M  V30 8869 H 865.73 -3.74693 -1.84377 0
M  V30 8870 N 866.167 -0.267825 -1.55308 0
M  V30 8871 C 867.407 0.352316 -2.01341 0
M  V30 8872 C 867.771 1.53593 -1.1521 0
M  V30 8873 O 868.972 2.22521 -1.50791 0
M  V30 8874 C 867.243 0.731857 -3.49827 0
M  V30 8875 S 868.802 1.33956 -4.17853 0
M  V30 8876 H 865.62 0.109927 -0.702451 0
M  V30 8877 H 868.222 -0.387955 -1.91612 0
M  V30 8878 H 866.926 -0.138561 -4.10166 0
M  V30 8879 H 866.457 1.50378 -3.63525 0
M  V30 8880 H 868.472 2.62831 -4.20874 0
M  V30 8881 N 867.645 1.57599 0.00500368 0
M  V30 8882 C 868.608 2.07058 0.982832 0
M  V30 8883 C 869.608 0.979045 1.27559 0
M  V30 8884 O 870.798 1.24187 1.22161 0
M  V30 8885 C 867.93 2.50782 2.30914 0
M  V30 8886 H 869.123 2.94718 0.555119 0
M  V30 8887 H 866.676 1.54249 0.25237 0
M  V30 8888 H 867.411 1.66351 2.78385 0
M  V30 8889 H 867.196 3.30495 2.10987 0
M  V30 8890 H 868.686 2.89391 3.0107 0
M  V30 8891 N 869.123 -0.277682 1.55134 0
M  V30 8892 C 870.073 -1.34531 1.8408 0
M  V30 8893 C 871.057 -1.44904 0.699393 0
M  V30 8894 O 872.249 -1.48664 0.960623 0
M  V30 8895 C 869.378 -2.7064 2.11208 0
M  V30 8896 C 868.464 -2.64396 3.31596 0
M  V30 8897 N 868.855 -2.2777 4.51613 0
M  V30 8898 C 867.153 -2.95464 3.34091 0
M  V30 8899 C 867.854 -2.31401 5.33693 0
M  V30 8900 N 866.83 -2.69688 4.71984 0
M  V30 8901 H 870.632 -1.05214 2.74421 0
M  V30 8902 H 868.146 -0.486311 1.54948 0
M  V30 8903 H 870.143 -3.47649 2.301 0
M  V30 8904 H 868.803 -3.00849 1.22148 0
M  V30 8905 H 869.814 -1.99827 4.77797 0
M  V30 8906 H 866.491 -3.30415 2.5521 0
M  V30 8907 H 867.881 -2.05685 6.39643 0
M  V30 8908 N 870.601 -1.47988 -0.541979 0
M  V30 8909 C 871.831 -1.58804 -1.32155 0
M  V30 8910 C 872.239 -0.242893 -1.87634 0
M  V30 8911 O 871.582 0.776239 -1.66494 0
M  V30 8912 C 871.644 -2.56567 -2.51821 0
M  V30 8913 C 871.308 -4.01915 -2.17517 0
M  V30 8914 C 872.305 -4.89954 -1.73901 0
M  V30 8915 C 869.99 -4.47365 -2.28408 0
M  V30 8916 C 871.984 -6.21467 -1.41625 0
M  V30 8917 C 869.671 -5.78902 -1.95745 0
M  V30 8918 C 870.669 -6.65775 -1.52423 0
M  V30 8919 O 870.357 -7.94866 -1.20183 0
M  V30 8920 H 870.089 -0.538536 -0.408601 0
M  V30 8921 H 872.643 -1.94446 -0.661818 0
M  V30 8922 H 870.873 -2.16023 -3.20735 0
M  V30 8923 H 872.562 -2.57347 -3.13891 0
M  V30 8924 H 873.328 -4.56082 -1.64966 0
M  V30 8925 H 869.207 -3.79942 -2.61084 0
M  V30 8926 H 872.751 -6.8923 -1.07738 0
M  V30 8927 H 868.648 -6.12311 -2.04316 0
M  V30 8928 H 869.416 -8.07509 -1.33683 0
M  V30 8929 N 872.079 0.78992 -1.36375 0
M  V30 8930 C 873.026 1.90254 -1.3066 0
M  V30 8931 C 873.996 1.65171 -0.17539 0
M  V30 8932 O 875.181 1.87338 -0.361824 0
M  V30 8933 C 872.321 3.27057 -1.10125 0
M  V30 8934 C 871.434 3.64215 -2.32317 0
M  V30 8935 C 870.569 4.90134 -2.04798 0
M  V30 8936 C 869.608 5.19969 -3.22953 0
M  V30 8937 N 868.745 6.37071 -2.95102 0
M  V30 8938 H 873.585 1.94474 -2.25796 0
M  V30 8939 H 871.122 0.951022 -1.12223 0
M  V30 8940 H 873.08 4.05947 -0.962453 0
M  V30 8941 H 871.71 3.22261 -0.186444 0
M  V30 8942 H 870.762 2.80454 -2.57002 0
M  V30 8943 H 872.074 3.82212 -3.20492 0
M  V30 8944 H 871.228 5.76888 -1.87845 0
M  V30 8945 H 869.967 4.74205 -1.13932 0
M  V30 8946 H 868.972 4.31699 -3.40465 0
M  V30 8947 H 870.197 5.37817 -4.14644 0
M  V30 8948 H 868.143 6.22535 -2.06848 0
M  V30 8949 H 868.06 6.55398 -3.76815 0
M  V30 8950 H 869.328 7.26808 -2.81727 0
M  V30 8951 N 873.557 1.20646 1.01402 0
M  V30 8952 C 874.834 0.927176 1.72229 0
M  V30 8953 C 875.214 -0.563382 2.03443 0
M  V30 8954 O 874.562 -1.52576 1.70096 0
M  V30 8955 C 874.772 1.80285 2.98828 0
M  V30 8956 C 876.12 2.04624 3.72041 0
M  V30 8957 O 877.144 1.77559 3.0879 0
M  V30 8958 O 876.003 2.50347 4.85787 0
M  V30 8959 H 873.097 0.346891 0.75073 0
M  V30 8960 H 875.643 1.31532 1.07227 0
M  V30 8961 H 874.415 2.81204 2.72102 0
M  V30 8962 H 874.038 1.41495 3.71571 0
M  V30 8963 N 875.035 -1.20752 1.01276 0
M  V30 8964 C 876.446 -1.7175 0.732033 0
M  V30 8965 C 876.797 -1.8131 -0.749733 0
M  V30 8966 O 875.922 -1.47301 -1.58529 0
M  V30 8967 C 876.517 -3.11936 1.32217 0
M  V30 8968 C 875.076 -3.6026 1.09039 0
M  V30 8969 C 874.223 -2.37571 1.43022 0
M  V30 8970 H 877.174 -1.0582 1.1827 0
M  V30 8971 H 877.195 -3.73802 0.710771 0
M  V30 8972 H 876.707 -3.04946 2.40061 0
M  V30 8973 H 874.808 -3.72588 0.0294464 0
M  V30 8974 H 874.921 -4.45295 1.76775 0
M  V30 8975 H 873.285 -2.40128 0.849159 0
M  V30 8976 H 874.068 -2.33225 2.51915 0
M  V30 8977 N 876.513 -0.788492 -1.36457 0
M  V30 8978 C 877.924 -0.423742 -1.81828 0
M  V30 8979 C 878.275 1.05221 -1.65599 0
M  V30 8980 O 877.4 1.8163 -1.17641 0
M  V30 8981 C 877.995 -0.762354 -3.30112 0
M  V30 8982 C 876.554 -0.450445 -3.73695 0
M  V30 8983 C 875.701 -0.997482 -2.58738 0
M  V30 8984 H 878.652 -0.981718 -1.24692 0
M  V30 8985 H 878.673 -0.0531136 -3.80463 0
M  V30 8986 H 878.185 -1.83662 -3.41891 0
M  V30 8987 H 876.286 0.615829 -3.67476 0
M  V30 8988 H 876.399 -0.970408 -4.69169 0
M  V30 8989 H 874.763 -0.420761 -2.51201 0
M  V30 8990 H 875.546 -2.07749 -2.73304 0
M  V30 8991 N 877.991 1.48044 -0.54043 0
M  V30 8992 C 879.238 2.02497 -0.0101567 0
M  V30 8993 C 879.566 1.41651 1.33286 0
M  V30 8994 O 878.821 0.555504 1.8765 0
M  V30 8995 C 879.12 3.57085 0.150008 0
M  V30 8996 C 878.786 4.36769 -1.11998 0
M  V30 8997 C 877.448 4.58261 -1.46801 0
M  V30 8998 C 879.8 4.82848 -1.96232 0
M  V30 8999 C 877.128 5.23079 -2.65717 0
M  V30 9000 C 879.48 5.48977 -3.14335 0
M  V30 9001 C 878.144 5.68705 -3.49472 0
M  V30 9002 H 877.414 0.740991 -0.00371661 0
M  V30 9003 H 880.061 1.77909 -0.708562 0
M  V30 9004 H 878.366 3.80572 0.931259 0
M  V30 9005 H 880.063 3.96851 0.575384 0
M  V30 9006 H 876.653 4.20309 -0.838957 0
M  V30 9007 H 880.837 4.66038 -1.70654 0
M  V30 9008 H 876.093 5.36549 -2.93129 0
M  V30 9009 H 880.267 5.83649 -3.79904 0
M  V30 9010 H 877.894 6.18703 -4.41713 0
M  V30 9011 N 879.47 0.276058 1.55163 0
M  V30 9012 C 880.71 -0.341634 2.01525 0
M  V30 9013 C 881.074 -1.52979 1.16023 0
M  V30 9014 O 882.275 -2.21718 1.51968 0
M  V30 9015 C 880.546 -0.713294 3.5021 0
M  V30 9016 S 882.105 -1.31739 4.18558 0
M  V30 9017 H 878.923 -0.1062 0.703024 0
M  V30 9018 H 881.525 0.398112 1.91404 0
M  V30 9019 H 880.229 0.160311 4.10087 0
M  V30 9020 H 879.76 -1.48448 3.64317 0
M  V30 9021 H 881.775 -2.60595 4.22261 0
M  V30 9022 N 880.948 -1.576 0.00335426 0
M  V30 9023 C 882.194 -1.90996 -0.681799 0
M  V30 9024 C 882.527 -0.877643 -1.73237 0
M  V30 9025 O 881.802 0.103183 -1.94226 0
M  V30 9026 C 882.085 -3.34961 -1.32187 0
M  V30 9027 C 881.938 -4.48911 -0.28261 0
M  V30 9028 C 883.257 -3.78408 -2.24711 0
M  V30 9029 H 880.376 -0.694596 -0.246386 0
M  V30 9030 H 883.018 -1.89919 0.055336 0
M  V30 9031 H 881.168 -3.36008 -1.95014 0
M  V30 9032 H 882.84 -4.59999 0.346241 0
M  V30 9033 H 881.083 -4.32 0.394768 0
M  V30 9034 H 881.754 -5.46609 -0.769576 0
M  V30 9035 H 884.23 -3.78934 -1.71897 0
M  V30 9036 H 883.106 -4.79885 -2.66461 0
M  V30 9037 H 883.367 -3.12464 -3.1276 0
M  V30 9038 N 882.426 0.269451 -1.5528 0
M  V30 9039 C 883.389 1.31642 -1.87625 0
M  V30 9040 C 884.389 1.42182 -0.751058 0
M  V30 9041 O 885.579 1.41272 -1.01921 0
M  V30 9042 C 882.711 2.6973 -2.08467 0
M  V30 9043 H 883.904 1.0419 -2.81219 0
M  V30 9044 H 881.457 0.507685 -1.47825 0
M  V30 9045 H 882.192 3.02356 -1.17266 0
M  V30 9046 H 881.977 2.63465 -2.90394 0
M  V30 9047 H 883.467 3.4537 -2.34753 0
M  V30 9048 N 883.904 1.48273 0.534124 0
M  V30 9049 C 885.32 1.34302 0.862272 0
M  V30 9050 C 885.52 0.350902 1.98421 0
M  V30 9051 O 884.576 -0.229364 2.51456 0
M  V30 9052 C 885.889 2.74227 1.23371 0
M  V30 9053 C 887.437 2.82684 1.34383 0
M  V30 9054 C 887.912 4.23301 1.74871 0
M  V30 9055 N 889.403 4.25954 1.81981 0
M  V30 9056 C 890.138 5.31693 2.14686 0
M  V30 9057 N 889.634 6.47714 2.45844 0
M  V30 9058 N 891.427 5.19084 2.15657 0
M  V30 9059 H 883.578 2.11397 -0.206215 0
M  V30 9060 H 885.841 0.947537 -0.0296116 0
M  V30 9061 H 885.547 3.48368 0.482967 0
M  V30 9062 H 885.421 3.07485 2.18478 0
M  V30 9063 H 887.808 2.08801 2.08534 0
M  V30 9064 H 887.889 2.5305 0.374063 0
M  V30 9065 H 887.533 4.97699 1.01282 0
M  V30 9066 H 887.463 4.50376 2.7289 0
M  V30 9067 H 889.954 3.42266 1.60196 0
M  V30 9068 H 890.267 7.2414 2.69892 0
M  V30 9069 H 888.612 6.50995 2.43372 0
M  V30 9070 H 891.803 4.27463 1.9077 0
M  V30 9071 H 891.976 6.01592 2.40813 0
M  V30 9072 N 885.382 -0.782676 1.36792 0
M  V30 9073 C 886.622 -1.55396 1.32784 0
M  V30 9074 C 886.986 -1.91789 -0.0900272 0
M  V30 9075 O 888.187 -2.6759 -0.254725 0
M  V30 9076 C 886.458 -2.79227 2.23085 0
M  V30 9077 S 888.017 -3.69404 2.36825 0
M  V30 9078 H 884.835 -0.532139 0.471539 0
M  V30 9079 H 887.437 -0.921285 1.72431 0
M  V30 9080 H 886.141 -2.50553 3.25041 0
M  V30 9081 H 885.672 -3.47462 1.84482 0
M  V30 9082 H 887.687 -4.70683 1.57074 0
M  V30 9083 N 886.86 -1.21182 -1.00761 0
M  V30 9084 C 888.271 -1.02652 -1.55947 0
M  V30 9085 C 888.622 0.414466 -1.91772 0
M  V30 9086 O 887.747 1.29727 -1.73204 0
M  V30 9087 C 888.342 -1.85713 -2.83366 0
M  V30 9088 C 886.901 -1.71523 -3.35048 0
M  V30 9089 C 886.048 -1.83087 -2.08265 0
M  V30 9090 H 888.999 -1.35242 -0.830379 0
M  V30 9091 H 889.02 -1.36583 -3.55141 0
M  V30 9092 H 888.532 -2.90584 -2.5726 0
M  V30 9093 H 886.633 -0.693257 -3.66094 0
M  V30 9094 H 886.746 -2.53333 -4.06644 0
M  V30 9095 H 885.11 -1.26367 -2.21141 0
M  V30 9096 H 885.893 -2.8946 -1.84575 0
M  V30 9097 N 888.338 1.20213 -1.01915 0
M  V30 9098 C 889.563 1.94163 -0.729076 0
M  V30 9099 C 889.988 1.74416 0.704323 0
M  V30 9100 O 889.346 1.0401 1.48498 0
M  V30 9101 C 889.394 3.44258 -1.07324 0
M  V30 9102 O 888.498 4.11979 -0.186367 0
M  V30 9103 H 887.839 0.606506 -0.270272 0
M  V30 9104 H 890.369 1.52571 -1.3632 0
M  V30 9105 H 890.379 3.94888 -1.02603 0
M  V30 9106 H 889.054 3.57954 -2.11759 0
M  V30 9107 H 887.631 3.7176 -0.291334 0
M  V30 9108 N 889.816 0.795718 1.36037 0
M  V30 9109 C 891.064 0.370291 1.98679 0
M  V30 9110 C 891.385 -1.06332 1.63458 0
M  V30 9111 O 890.655 -1.73394 0.911671 0
M  V30 9112 H 889.235 0.133928 0.734896 0
M  V30 9113 H 891.897 1.01915 1.6613 0
M  V30 9114 H 890.993 0.467207 3.08583 0
M  V30 9115 N 891.294 -1.47756 0.548274 0
M  V30 9116 C 892.54 -2.02789 0.0209265 0
M  V30 9117 C 892.873 -1.42268 -1.32187 0
M  V30 9118 O 892.148 -0.575001 -1.85806 0
M  V30 9119 C 892.431 -3.60007 -0.0816674 0
M  V30 9120 C 892.284 -4.30977 1.28759 0
M  V30 9121 C 893.603 -4.32777 -0.799515 0
M  V30 9122 H 890.722 -0.736944 0.00907884 0
M  V30 9123 H 893.364 -1.76282 0.708839 0
M  V30 9124 H 891.514 -3.82722 -0.667537 0
M  V30 9125 H 893.186 -4.19629 1.91597 0
M  V30 9126 H 891.429 -3.9168 1.86466 0
M  V30 9127 H 892.1 -5.39488 1.16861 0
M  V30 9128 H 894.576 -4.15001 -0.30216 0
M  V30 9129 H 893.452 -5.42431 -0.840239 0
M  V30 9130 H 893.713 -4.01358 -1.85375 0
M  V30 9131 N 892.772 -0.284283 -1.55015 0
M  V30 9132 C 893.719 0.599194 -2.22886 0
M  V30 9133 C 894.689 1.14264 -1.20553 0
M  V30 9134 O 895.874 1.19025 -1.49123 0
M  V30 9135 C 893.014 1.77317 -2.96062 0
M  V30 9136 C 892.127 1.26271 -4.13134 0
M  V30 9137 C 891.262 2.39922 -4.73931 0
M  V30 9138 C 890.301 1.85925 -5.8318 0
M  V30 9139 N 889.438 2.93084 -6.38002 0
M  V30 9140 H 894.278 0.0137816 -2.97997 0
M  V30 9141 H 891.815 -0.00496503 -1.47099 0
M  V30 9142 H 893.773 2.46339 -3.36709 0
M  V30 9143 H 892.403 2.33047 -2.23358 0
M  V30 9144 H 891.455 0.465296 -3.77544 0
M  V30 9145 H 892.767 0.827284 -4.91892 0
M  V30 9146 H 891.921 3.1692 -5.17346 0
M  V30 9147 H 890.66 2.86784 -3.9447 0
M  V30 9148 H 889.665 1.07409 -5.39206 0
M  V30 9149 H 890.89 1.39987 -6.64515 0
M  V30 9150 H 888.836 3.3931 -5.61431 0
M  V30 9151 H 888.753 2.53986 -7.12058 0
M  V30 9152 H 890.021 3.7003 -6.86075 0
M  V30 9153 N 894.251 1.57596 -0.0117121 0
M  V30 9154 C 895.662 1.79033 0.529521 0
M  V30 9155 C 896.013 0.920299 1.73277 0
M  V30 9156 O 895.138 0.125934 2.16033 0
M  V30 9157 C 895.733 3.24695 0.967405 0
M  V30 9158 C 894.292 3.47188 1.45387 0
M  V30 9159 C 893.439 2.74245 0.410466 0
M  V30 9160 H 896.39 1.56908 -0.237836 0
M  V30 9161 H 896.411 3.33451 1.83278 0
M  V30 9162 H 895.923 3.87992 0.0914605 0
M  V30 9163 H 894.024 2.89121 2.35032 0
M  V30 9164 H 894.137 4.55886 1.47325 0
M  V30 9165 H 892.501 2.39209 0.874721 0
M  V30 9166 H 893.284 3.40248 -0.456713 0
M  V30 9167 N 895.729 -0.261212 1.5542 0
M  V30 9168 C 897.006 -1.01321 1.67312 0
M  V30 9169 C 897.386 -2.0388 0.547356 0
M  V30 9170 O 896.734 -2.24003 -0.451083 0
M  V30 9171 C 896.944 -1.65943 3.07024 0
M  V30 9172 C 898.292 -2.16666 3.65159 0
M  V30 9173 O 899.316 -1.75909 3.09733 0
M  V30 9174 O 898.175 -2.91455 4.62294 0
M  V30 9175 H 895.269 -0.470714 0.679968 0
M  V30 9176 H 897.815 -0.256133 1.67756 0
M  V30 9177 H 896.587 -0.916868 3.80407 0
M  V30 9178 H 896.21 -2.48308 3.1053 0
M  V30 9179 N 897.207 -1.48554 -0.526253 0
M  V30 9180 C 898.137 -1.66252 -1.63959 0
M  V30 9181 C 899.118 -0.511351 -1.62232 0
M  V30 9182 O 900.303 -0.744322 -1.7937 0
M  V30 9183 C 897.433 -1.70556 -3.02536 0
M  V30 9184 C 896.387 -2.8521 -3.19123 0
M  V30 9185 C 895.713 -2.74606 -4.58798 0
M  V30 9186 C 897.013 -4.26463 -3.0154 0
M  V30 9187 H 898.707 -2.59459 -1.49404 0
M  V30 9188 H 896.253 -1.24862 -0.717326 0
M  V30 9189 H 898.206 -1.81524 -3.80298 0
M  V30 9190 H 896.93 -0.739297 -3.18123 0
M  V30 9191 H 895.589 -2.73802 -2.43779 0
M  V30 9192 H 895.237 -1.75941 -4.71226 0
M  V30 9193 H 894.937 -3.51544 -4.70841 0
M  V30 9194 H 896.461 -2.87548 -5.38655 0
M  V30 9195 H 897.875 -4.38685 -3.69091 0
M  V30 9196 H 896.272 -5.04428 -3.25073 0
M  V30 9197 H 897.342 -4.42667 -1.97925 0
M  V30 9198 N 898.685 0.775411 -1.37205 0
M  V30 9199 C 899.91 1.5696 -1.35567 0
M  V30 9200 C 900.335 1.88012 0.0575554 0
M  V30 9201 O 899.693 1.48954 1.03355 0
M  V30 9202 C 899.741 2.85886 -2.19776 0
M  V30 9203 O 898.845 3.80103 -1.59987 0
M  V30 9204 H 898.186 0.475583 -0.463375 0
M  V30 9205 H 900.716 0.96001 -1.80679 0
M  V30 9206 H 900.726 3.35024 -2.32859 0
M  V30 9207 H 899.401 2.62613 -3.22502 0
M  V30 9208 H 897.978 3.38736 -1.55924 0
M  V30 9209 N 900.163 1.21714 1.00117 0
M  V30 9210 C 901.393 1.06124 1.77261 0
M  V30 9211 C 901.801 -0.391717 1.85101 0
M  V30 9212 O 901.144 -1.28347 1.31426 0
M  V30 9213 C 901.206 1.58778 3.22536 0
M  V30 9214 C 900.87 3.07289 3.38264 0
M  V30 9215 C 901.867 4.04801 3.26239 0
M  V30 9216 C 899.552 3.46574 3.63582 0
M  V30 9217 C 901.546 5.39585 3.39303 0
M  V30 9218 C 899.233 4.81509 3.76288 0
M  V30 9219 C 900.231 5.77824 3.64155 0
M  V30 9220 O 899.919 7.1031 3.7645 0
M  V30 9221 H 899.651 0.372979 0.563793 0
M  V30 9222 H 902.205 1.61589 1.26799 0
M  V30 9223 H 900.435 0.977129 3.74151 0
M  V30 9224 H 902.124 1.38974 3.81367 0
M  V30 9225 H 902.89 3.75795 3.066 0
M  V30 9226 H 898.769 2.72137 3.72106 0
M  V30 9227 H 902.313 6.14744 3.2975 0
M  V30 9228 H 898.21 5.102 3.95432 0
M  V30 9229 H 898.978 7.17774 3.93374 0
M  V30 9230 N 901.641 -1.19671 1.02551 0
M  V30 9231 C 902.574 -2.21522 0.547998 0
M  V30 9232 C 903.552 -1.57363 -0.409349 0
M  V30 9233 O 904.736 -1.85638 -0.327248 0
M  V30 9234 C 901.863 -3.38101 -0.201375 0
M  V30 9235 C 900.909 -4.20601 0.706886 0
M  V30 9236 S 901.742 -4.89066 2.18116 0
M  V30 9237 C 902.898 -6.09058 1.4422 0
M  V30 9238 H 903.131 -2.61684 1.41099 0
M  V30 9239 H 900.664 -1.29864 0.835153 0
M  V30 9240 H 902.622 -4.05674 -0.627607 0
M  V30 9241 H 901.283 -2.96381 -1.04005 0
M  V30 9242 H 900.476 -5.03836 0.128554 0
M  V30 9243 H 900.078 -3.58329 1.07129 0
M  V30 9244 H 902.37 -6.73588 0.726975 0
M  V30 9245 H 903.313 -6.71368 2.25102 0
M  V30 9246 H 903.721 -5.56599 0.941176 0
M  V30 9247 N 903.119 -0.802921 -1.35613 0
M  V30 9248 C 904.53 -0.443004 -1.81368 0
M  V30 9249 C 904.881 1.03459 -1.66706 0
M  V30 9250 O 904.006 1.80372 -1.19561 0
M  V30 9251 C 904.601 -0.797324 -3.29284 0
M  V30 9252 C 903.16 -0.490055 -3.73196 0
M  V30 9253 C 902.307 -1.02487 -2.57666 0
M  V30 9254 H 905.258 -0.994888 -1.23643 0
M  V30 9255 H 905.279 -0.0934638 -3.80385 0
M  V30 9256 H 904.791 -1.87278 -3.39924 0
M  V30 9257 H 902.892 0.576818 -3.68108 0
M  V30 9258 H 903.005 -1.02012 -4.68114 0
M  V30 9259 H 901.369 -0.44738 -2.5074 0
M  V30 9260 H 902.152 -2.10636 -2.71085 0
M  V30 9261 N 904.597 1.47463 -0.556102 0
M  V30 9262 C 905.846 2.01678 -0.029492 0
M  V30 9263 C 906.159 1.436 1.32809 0
M  V30 9264 O 907.365 1.89472 1.94455 0
M  V30 9265 C 905.821 3.599 -0.00223937 0
M  V30 9266 C 905.429 4.26969 -1.35651 0
M  V30 9267 C 907.173 4.2187 0.471822 0
M  V30 9268 C 905.08 5.77194 -1.28843 0
M  V30 9269 H 904.01 0.753965 -0.00725504 0
M  V30 9270 H 906.661 1.69467 -0.703789 0
M  V30 9271 H 905.043 3.89068 0.737682 0
M  V30 9272 H 906.217 4.09444 -2.11406 0
M  V30 9273 H 904.532 3.76983 -1.76842 0
M  V30 9274 H 907.129 5.31955 0.541139 0
M  V30 9275 H 907.472 3.88968 1.48356 0
M  V30 9276 H 908.005 3.97228 -0.213207 0
M  V30 9277 H 904.744 6.14713 -2.27613 0
M  V30 9278 H 904.264 5.9706 -0.572668 0
M  V30 9279 H 905.943 6.3938 -0.990031 0
M  V30 9280 N 906.075 0.2925 1.54862 0
M  V30 9281 C 907.321 -0.312645 2.00983 0
M  V30 9282 C 907.676 -1.52174 1.17732 0
M  V30 9283 O 906.969 -1.90045 0.243581 0
M  V30 9284 C 907.163 -0.728674 3.49893 0
M  V30 9285 C 906.992 0.438562 4.47556 0
M  V30 9286 C 905.762 0.927885 4.96708 0
M  V30 9287 C 907.96 1.28076 4.98097 0
M  V30 9288 N 905.942 2.06277 5.78207 0
M  V30 9289 C 907.313 2.26326 5.77214 0
M  V30 9290 C 909.368 1.31211 4.803 0
M  V30 9291 C 908.071 3.27478 6.4043 0
M  V30 9292 C 910.097 2.31216 5.44328 0
M  V30 9293 C 909.459 3.28197 6.23271 0
M  V30 9294 H 905.558 -0.0790979 0.777989 0
M  V30 9295 H 908.142 0.420481 1.90105 0
M  V30 9296 H 906.313 -1.43099 3.61078 0
M  V30 9297 H 908.045 -1.31263 3.82821 0
M  V30 9298 H 904.8 0.504272 4.70908 0
M  V30 9299 H 905.224 2.63436 6.23643 0
M  V30 9300 H 909.866 0.576079 4.18857 0
M  V30 9301 H 907.584 4.02005 7.01012 0
M  V30 9302 H 911.17 2.34405 5.3249 0
M  V30 9303 H 910.05 4.04314 6.71937 0
M  V30 9304 N 907.553 -1.57587 0.0200696 0
M  V30 9305 C 908.5 -2.09667 -0.964791 0
M  V30 9306 C 909.47 -0.99664 -1.32877 0
M  V30 9307 O 910.655 -1.2703 -1.42366 0
M  V30 9308 C 907.795 -2.62101 -2.24493 0
M  V30 9309 C 906.908 -3.8608 -1.93821 0
M  V30 9310 C 906.043 -4.26939 -3.16064 0
M  V30 9311 C 905.082 -5.43701 -2.81169 0
M  V30 9312 N 904.219 -5.79759 -3.9601 0
M  V30 9313 H 909.059 -2.93538 -0.513751 0
M  V30 9314 H 906.596 -1.45096 -0.242 0
M  V30 9315 H 908.554 -2.90587 -2.99358 0
M  V30 9316 H 907.184 -1.81074 -2.6723 0
M  V30 9317 H 906.236 -3.64378 -1.09237 0
M  V30 9318 H 907.548 -4.71028 -1.64115 0
M  V30 9319 H 906.702 -4.56814 -3.99257 0
M  V30 9320 H 905.441 -3.40739 -3.48924 0
M  V30 9321 H 904.446 -5.13529 -1.96387 0
M  V30 9322 H 905.671 -6.31593 -2.49535 0
M  V30 9323 H 903.617 -4.96516 -4.28729 0
M  V30 9324 H 903.534 -6.59327 -3.69896 0
M  V30 9325 H 904.802 -6.14235 -4.79933 0
M  V30 9326 N 909.032 0.252966 -1.55557 0
M  V30 9327 C 910.279 0.981852 -1.77104 0
M  V30 9328 C 910.607 1.85547 -0.583305 0
M  V30 9329 O 909.862 1.90836 0.43359 0
M  V30 9330 C 910.161 1.87785 -3.04091 0
M  V30 9331 C 909.827 1.16009 -4.35721 0
M  V30 9332 C 908.489 0.961697 -4.71492 0
M  V30 9333 C 910.841 0.650884 -5.1712 0
M  V30 9334 C 908.169 0.241704 -5.86202 0
M  V30 9335 C 910.521 -0.0556124 -6.32576 0
M  V30 9336 C 909.185 -0.265536 -6.66972 0
M  V30 9337 H 908.455 0.359285 -0.64807 0
M  V30 9338 H 911.102 0.252443 -1.89829 0
M  V30 9339 H 909.407 2.67412 -2.86353 0
M  V30 9340 H 911.104 2.44339 -3.17961 0
M  V30 9341 H 907.694 1.32465 -4.07616 0
M  V30 9342 H 911.878 0.791719 -4.89944 0
M  V30 9343 H 907.134 0.0685292 -6.11362 0
M  V30 9344 H 911.308 -0.457839 -6.94893 0
M  V30 9345 H 908.935 -0.8254 -7.55706 0
M  V30 9346 N 910.51 1.48831 0.518367 0
M  V30 9347 C 911.921 1.50842 1.10016 0
M  V30 9348 C 912.272 0.284744 1.94123 0
M  V30 9349 O 911.397 -0.607088 2.0771 0
M  V30 9350 C 911.992 2.73329 2.00191 0
M  V30 9351 C 910.551 2.78175 2.53566 0
M  V30 9352 C 909.698 2.4452 1.30786 0
M  V30 9353 H 912.649 1.55779 0.303073 0
M  V30 9354 H 912.67 2.52506 2.84642 0
M  V30 9355 H 912.182 3.62374 1.3895 0
M  V30 9356 H 910.283 1.93368 3.18496 0
M  V30 9357 H 910.396 3.79905 2.91906 0
M  V30 9358 H 908.76 1.95924 1.62744 0
M  V30 9359 H 909.543 3.35819 0.712797 0
M  V30 9360 N 911.988 -0.768124 1.37614 0
M  V30 9361 C 913.265 -1.51637 1.23554 0
M  V30 9362 C 913.645 -2.1042 -0.169331 0
M  V30 9363 O 912.993 -1.95834 -1.17735 0
M  V30 9364 C 913.203 -2.59436 2.33439 0
M  V30 9365 C 914.551 -3.2674 2.71157 0
M  V30 9366 O 915.575 -2.69733 2.32642 0
M  V30 9367 O 914.434 -4.29814 3.37524 0
M  V30 9368 H 911.528 -0.671778 0.482332 0
M  V30 9369 H 914.074 -0.804779 1.49403 0
M  V30 9370 H 912.846 -2.14146 3.27502 0
M  V30 9371 H 912.469 -3.38192 2.09073 0
M  V30 9372 N 913.466 -1.22244 -0.994698 0
M  V30 9373 C 914.376 -1.00722 -2.11878 0
M  V30 9374 C 915.392 0.043919 -1.73945 0
M  V30 9375 O 916.568 -0.148411 -2.00852 0
M  V30 9376 C 913.633 -0.585723 -3.41717 0
M  V30 9377 C 912.694 -1.71027 -3.93762 0
M  V30 9378 C 911.927 -1.30879 -5.17403 0
M  V30 9379 O 912.15 -0.18681 -5.70094 0
M  V30 9380 O 911.084 -2.1246 -5.63156 0
M  V30 9381 H 914.91 -1.94894 -2.32916 0
M  V30 9382 H 912.495 -1.00822 -1.10251 0
M  V30 9383 H 914.377 -0.360935 -4.19851 0
M  V30 9384 H 913.052 0.327166 -3.22042 0
M  V30 9385 H 911.959 -1.98956 -3.16808 0
M  V30 9386 H 913.292 -2.60096 -4.17865 0
M  V30 9387 N 914.944 1.19125 -1.03184 0
M  V30 9388 C 915.854 2.26112 -0.625329 0
M  V30 9389 C 916.87 1.7056 0.344298 0
M  V30 9390 O 918.046 2.0039 0.20144 0
M  V30 9391 C 915.111 3.46697 0.0145169 0
M  V30 9392 C 914.172 4.17419 -1.00299 0
M  V30 9393 C 913.405 5.32247 -0.393581 0
M  V30 9394 O 913.628 5.64724 0.802659 0
M  V30 9395 O 912.562 5.91428 -1.1179 0
M  V30 9396 H 916.388 2.63131 -1.51643 0
M  V30 9397 H 913.973 1.26036 -0.802197 0
M  V30 9398 H 915.855 4.19762 0.371139 0
M  V30 9399 H 914.53 3.11521 0.879581 0
M  V30 9400 H 913.437 3.4646 -1.41125 0
M  V30 9401 H 914.77 4.56573 -1.83852 0
M  V30 9402 N 916.422 0.810101 1.35185 0
M  V30 9403 C 917.67 0.391343 1.98275 0
M  V30 9404 C 917.991 -1.04592 1.64577 0
M  V30 9405 O 917.261 -1.72417 0.93001 0
M  V30 9406 H 915.841 0.141715 0.733434 0
M  V30 9407 H 918.503 1.03672 1.6504 0
M  V30 9408 H 917.599 0.49991 3.0807 0
M  V30 9409 N 917.9 -1.47166 0.563914 0
M  V30 9410 C 918.863 -2.28571 -0.169624 0
M  V30 9411 C 919.863 -1.37331 -0.836467 0
M  V30 9412 O 921.053 -1.59896 -0.6913 0
M  V30 9413 C 918.185 -3.17201 -1.24886 0
M  V30 9414 H 919.378 -2.94896 0.545539 0
M  V30 9415 H 916.931 -1.52966 0.321121 0
M  V30 9416 H 917.666 -2.55582 -1.99621 0
M  V30 9417 H 917.451 -3.84356 -0.775426 0
M  V30 9418 H 918.941 -3.7852 -1.76388 0
M  V30 9419 N 919.378 -0.300708 -1.54705 0
M  V30 9420 C 920.618 0.30953 -2.02043 0
M  V30 9421 C 920.982 1.51114 -1.18442 0
M  V30 9422 O 922.183 2.19273 -1.55477 0
M  V30 9423 C 920.454 0.657489 -3.513 0
M  V30 9424 S 922.013 1.25063 -4.206 0
M  V30 9425 H 918.831 0.0950019 -0.704624 0
M  V30 9426 H 921.433 -0.428512 -1.90746 0
M  V30 9427 H 920.137 -0.225532 -4.0978 0
M  V30 9428 H 919.668 1.42633 -3.66633 0
M  V30 9429 H 921.683 2.53844 -4.26354 0
M  V30 9430 N 920.856 1.57574 -0.0284266 0
M  V30 9431 C 921.788 2.07079 0.982391 0
M  V30 9432 C 922.801 0.994078 1.28926 0
M  V30 9433 O 923.99 1.27028 1.25404 0
M  V30 9434 C 921.09 2.47978 2.30998 0
M  V30 9435 C 920.263 3.7872 2.18838 0
M  V30 9436 C 919.322 4.06177 3.34524 0
M  V30 9437 O 918.348 4.76438 3.11441 0
M  V30 9438 N 919.55 3.56297 4.58293 0
M  V30 9439 H 922.315 2.94421 0.560011 0
M  V30 9440 H 919.876 1.61124 0.158347 0
M  V30 9441 H 921.868 2.63439 3.07216 0
M  V30 9442 H 920.438 1.66005 2.64879 0
M  V30 9443 H 919.658 3.73062 1.27351 0
M  V30 9444 H 920.946 4.6438 2.07915 0
M  V30 9445 H 920.344 2.99453 4.79942 0
M  V30 9446 H 918.901 3.77038 5.31682 0
M  V30 9447 N 922.334 -0.244713 1.55689 0
M  V30 9448 C 923.745 -0.813603 1.6804 0
M  V30 9449 C 924.096 -1.85936 0.626281 0
M  V30 9450 O 923.221 -2.15206 -0.227038 0
M  V30 9451 C 923.816 -1.48252 3.04642 0
M  V30 9452 C 922.375 -1.99908 3.18926 0
M  V30 9453 C 921.522 -0.850958 2.6392 0
M  V30 9454 H 924.473 -0.0204805 1.58687 0
M  V30 9455 H 924.494 -2.35062 2.99209 0
M  V30 9456 H 924.006 -0.721164 3.81341 0
M  V30 9457 H 922.107 -2.78918 2.47054 0
M  V30 9458 H 922.22 -2.19497 4.25862 0
M  V30 9459 H 920.584 -1.25206 2.21801 0
M  V30 9460 H 921.367 -0.10265 3.43146 0
M  V30 9461 N 923.813 -1.49104 -0.510467 0
M  V30 9462 C 925.053 -1.59723 -1.27545 0
M  V30 9463 C 925.417 -0.273525 -1.90042 0
M  V30 9464 O 926.618 -0.254835 -2.67589 0
M  V30 9465 C 924.889 -2.71771 -2.3211 0
M  V30 9466 S 926.448 -3.02282 -3.18074 0
M  V30 9467 H 923.266 -0.563489 -0.433591 0
M  V30 9468 H 925.868 -1.86719 -0.579328 0
M  V30 9469 H 924.572 -3.66483 -1.84711 0
M  V30 9470 H 924.103 -2.46739 -3.06404 0
M  V30 9471 H 926.118 -2.43076 -4.32583 0
M  V30 9472 N 925.291 0.760815 -1.38019 0
M  V30 9473 C 926.702 1.33773 -1.30237 0
M  V30 9474 C 927.053 1.96148 0.0451153 0
M  V30 9475 O 926.178 1.94574 0.9471 0
M  V30 9476 C 926.773 2.43227 -2.35851 0
M  V30 9477 C 925.332 2.96659 -2.31669 0
M  V30 9478 C 924.479 1.69972 -2.191 0
M  V30 9479 H 927.43 0.560237 -1.48482 0
M  V30 9480 H 927.451 3.22985 -2.01149 0
M  V30 9481 H 926.963 1.978 -3.33911 0
M  V30 9482 H 925.064 3.46433 -1.37167 0
M  V30 9483 H 925.177 3.51529 -3.25521 0
M  V30 9484 H 923.541 1.9332 -1.65829 0
M  V30 9485 H 924.324 1.26633 -3.19091 0
M  V30 9486 N 926.769 1.22769 0.988202 0
M  V30 9487 C 928.018 1.0492 1.72263 0
M  V30 9488 C 928.331 -0.415282 1.91141 0
M  V30 9489 O 929.537 -0.713547 2.61956 0
M  V30 9490 C 927.993 1.82891 3.09966 0
M  V30 9491 C 927.601 3.33618 2.99003 0
M  V30 9492 C 929.345 1.73505 3.87423 0
M  V30 9493 C 927.252 4.04012 4.3189 0
M  V30 9494 H 926.182 0.38899 0.645912 0
M  V30 9495 H 928.833 1.46664 1.10281 0
M  V30 9496 H 927.215 1.33948 3.72658 0
M  V30 9497 H 928.389 3.8999 2.45448 0
M  V30 9498 H 926.704 3.43732 2.35027 0
M  V30 9499 H 929.301 2.23416 4.85787 0
M  V30 9500 H 929.644 0.696344 4.10435 0
M  V30 9501 H 930.177 2.20016 3.31418 0
M  V30 9502 H 926.916 5.08155 4.14075 0
M  V30 9503 H 926.436 3.52428 4.8534 0
M  V30 9504 H 928.115 4.0987 5.00615 0
M  V30 9505 N 928.247 -1.18576 1.03814 0
M  V30 9506 C 929.195 -2.24166 0.620678 0
M  V30 9507 C 930.189 -1.65718 -0.351282 0
M  V30 9508 O 931.395 -1.78665 -0.218848 0
M  V30 9509 H 927.77 -0.729522 0.182487 0
M  V30 9510 H 929.741 -2.56686 1.52166 0
M  V30 9511 C 928.49 -3.477 -0.00307331 0
M  V30 9512 H 927.813 -3.92969 0.735874 0
M  V30 9513 H 929.253 -4.23214 -0.257988 0
M  V30 9514 C 927.712 -3.12757 -1.2524 0
M  V30 9515 O 928.242 -3.26261 -2.34344 0
M  V30 9516 N 926.448 -2.67104 -1.14471 0
M  V30 9517 H 925.995 -2.56316 -0.256873 0
M  V30 9518 H 925.953 -2.44096 -1.98153 0
M  V30 9519 N 929.725 -0.817259 -1.34754 0
M  V30 9520 C 930.965 -0.408429 -2.00278 0
M  V30 9521 C 931.329 1.00818 -1.634 0
M  V30 9522 O 932.53 1.51959 -2.21725 0
M  V30 9523 C 930.801 -0.598219 -3.52358 0
M  V30 9524 S 932.36 -0.281395 -4.37897 0
M  V30 9525 H 929.178 -0.154587 -0.693991 0
M  V30 9526 H 931.78 -1.06184 -1.6415 0
M  V30 9527 H 930.484 -1.62901 -3.76685 0
M  V30 9528 H 930.015 0.0701299 -3.93337 0
M  V30 9529 H 932.03 0.907024 -4.8784 0
M  V30 9530 N 931.203 1.46865 -0.571711 0
M  V30 9531 C 932.431 2.06818 -0.0583975 0
M  V30 9532 C 932.846 1.42218 1.24175 0
M  V30 9533 O 932.203 0.523655 1.74826 0
M  V30 9534 C 932.254 3.61281 0.125673 0
M  V30 9535 O 931.975 4.23462 -1.123 0
M  V30 9536 C 933.476 4.38137 0.674604 0
M  V30 9537 H 930.696 0.668948 -0.052438 0
M  V30 9538 H 933.24 1.88656 -0.789251 0
M  V30 9539 H 931.395 3.78908 0.806707 0
M  V30 9540 H 931.809 5.16192 -0.929869 0
M  V30 9541 H 933.283 5.46845 0.752626 0
M  V30 9542 H 933.76 4.05419 1.68915 0
M  V30 9543 H 934.366 4.2529 0.0287979 0
M  V30 9544 N 932.681 0.308908 1.54543 0
M  V30 9545 C 933.631 -0.578902 2.20528 0
M  V30 9546 C 934.615 -1.09288 1.18088 0
M  V30 9547 O 935.807 -1.03234 1.43777 0
M  V30 9548 C 932.936 -1.74649 2.95555 0
M  V30 9549 C 932.022 -1.24809 4.05319 0
M  V30 9550 N 932.413 -0.46828 5.03628 0
M  V30 9551 C 930.711 -1.52813 4.19004 0
M  V30 9552 C 931.412 -0.201896 5.8135 0
M  V30 9553 N 930.388 -0.783927 5.37918 0
M  V30 9554 H 934.19 0.0243496 2.9389 0
M  V30 9555 H 931.704 0.114049 1.61999 0
M  V30 9556 H 933.701 -2.39414 3.41301 0
M  V30 9557 H 932.361 -2.35336 2.23712 0
M  V30 9558 H 933.372 -0.112453 5.17778 0
M  V30 9559 H 930.049 -2.14191 3.58369 0
M  V30 9560 H 931.439 0.424929 6.70555 0
M  V30 9561 N 934.159 -1.57557 0.0367827 0
M  V30 9562 C 935.384 -1.96828 -0.653707 0
M  V30 9563 C 935.809 -0.913559 -1.64425 0
M  V30 9564 O 935.167 0.124749 -1.8087 0
M  V30 9565 C 935.215 -3.35189 -1.32969 0
M  V30 9566 O 934.319 -3.32095 -2.44513 0
M  V30 9567 H 933.66 -0.64157 -0.171124 0
M  V30 9568 H 936.19 -2.04351 0.100912 0
M  V30 9569 H 936.2 -3.71593 -1.68472 0
M  V30 9570 H 934.875 -4.11496 -0.603654 0
M  V30 9571 H 933.452 -3.07418 -2.11065 0
M  V30 9572 N 935.637 0.236453 -1.55816 0
M  V30 9573 C 936.877 0.970249 -1.79904 0
M  V30 9574 C 937.241 1.8212 -0.607965 0
M  V30 9575 O 938.442 2.58759 -0.727833 0
M  V30 9576 C 936.713 1.79938 -3.088 0
M  V30 9577 S 938.272 2.59084 -3.54148 0
M  V30 9578 H 935.09 0.32618 -0.631765 0
M  V30 9579 H 937.692 0.237147 -1.94056 0
M  V30 9580 H 936.396 1.16412 -3.93544 0
M  V30 9581 H 935.927 2.57504 -2.97414 0
M  V30 9582 H 937.942 3.82315 -3.16306 0
M  V30 9583 N 937.115 1.49373 0.502552 0
M  V30 9584 C 938.361 1.59016 1.25864 0
M  V30 9585 C 938.694 0.27532 1.92238 0
M  V30 9586 O 937.969 -0.720988 1.80643 0
M  V30 9587 C 938.252 2.74828 2.32683 0
M  V30 9588 C 938.105 4.16102 1.7082 0
M  V30 9589 C 939.424 2.86288 3.34256 0
M  V30 9590 H 936.543 0.578798 0.456248 0
M  V30 9591 H 939.185 1.81651 0.557032 0
M  V30 9592 H 937.335 2.5566 2.92524 0
M  V30 9593 H 939.007 4.46782 1.14818 0
M  V30 9594 H 937.25 4.21822 1.01238 0
M  V30 9595 H 937.921 4.93006 2.48292 0
M  V30 9596 H 940.397 3.03733 2.84404 0
M  V30 9597 H 939.273 3.69001 4.06362 0
M  V30 9598 H 939.534 1.95576 3.96488 0
M  V30 9599 N 938.594 -0.753485 1.38421 0
M  V30 9600 C 939.871 -1.50318 1.25155 0
M  V30 9601 C 940.251 -2.10588 -0.147003 0
M  V30 9602 O 939.599 -1.97071 -1.15651 0
M  V30 9603 C 939.809 -2.56946 2.36177 0
M  V30 9604 C 941.157 -3.23846 2.74607 0
M  V30 9605 O 942.181 -2.67251 2.3549 0
M  V30 9606 O 941.04 -4.2621 3.42064 0
M  V30 9607 H 938.134 -0.666624 0.48943 0
M  V30 9608 H 940.68 -0.788887 1.50249 0
M  V30 9609 H 939.452 -2.1066 3.29754 0
M  V30 9610 H 939.075 -3.35956 2.12648 0
M  V30 9611 N 940.072 -1.23292 -0.981677 0
M  V30 9612 C 941.002 -1.03738 -2.09191 0
M  V30 9613 C 941.983 0.0453041 -1.7004 0
M  V30 9614 O 943.168 -0.119092 -1.93834 0
M  V30 9615 C 940.298 -0.626426 -3.41604 0
M  V30 9616 C 939.252 -1.65631 -3.94652 0
M  V30 9617 C 938.578 -1.10084 -5.23245 0
M  V30 9618 C 939.878 -3.04903 -4.24066 0
M  V30 9619 H 941.572 -1.966 -2.25807 0
M  V30 9620 H 939.118 -0.946656 -1.0851 0
M  V30 9621 H 941.071 -0.476689 -4.18695 0
M  V30 9622 H 939.795 0.337873 -3.24848 0
M  V30 9623 H 938.454 -1.79402 -3.19704 0
M  V30 9624 H 938.102 -0.127562 -5.02838 0
M  V30 9625 H 937.802 -1.78896 -5.59705 0
M  V30 9626 H 939.326 -0.962928 -6.02959 0
M  V30 9627 H 940.74 -2.94441 -4.91912 0
M  V30 9628 H 939.137 -3.70941 -4.71724 0
M  V30 9629 H 940.207 -3.53991 -3.31389 0
M  V30 9630 N 941.55 1.18024 -1.04442 0
M  V30 9631 C 942.827 1.8398 -0.664125 0
M  V30 9632 C 943.207 1.92961 0.856116 0
M  V30 9633 O 942.555 1.45839 1.75907 0
M  V30 9634 C 942.765 3.22069 -1.34433 0
M  V30 9635 C 944.113 3.98063 -1.47754 0
M  V30 9636 O 945.137 3.31523 -1.30274 0
M  V30 9637 O 943.996 5.17291 -1.76272 0
M  V30 9638 H 941.09 0.793543 -0.23285 0
M  V30 9639 H 943.636 1.25385 -1.14354 0
M  V30 9640 H 942.408 3.10458 -2.38184 0
M  V30 9641 H 942.031 3.88325 -0.853782 0
M  V30 9642 N 943.028 0.824394 1.34319 0
M  V30 9643 C 944.305 0.335692 1.92698 0
M  V30 9644 C 944.685 -1.17715 1.75232 0
M  V30 9645 O 944.033 -1.98493 1.13194 0
M  V30 9646 C 944.243 0.766647 3.40475 0
M  V30 9647 C 945.591 0.766323 4.17627 0
M  V30 9648 O 946.615 0.709321 3.49066 0
M  V30 9649 O 945.474 0.840856 5.39992 0
M  V30 9650 H 942.568 0.0919996 0.821867 0
M  V30 9651 H 945.114 0.909282 1.43283 0
M  V30 9652 H 943.886 1.80859 3.46995 0
M  V30 9653 H 943.509 0.168833 3.97241 0
M  V30 9654 N 944.506 -1.46559 0.579492 0
M  V30 9655 C 945.453 -2.30275 -0.155598 0
M  V30 9656 C 946.423 -1.40422 -0.887175 0
M  V30 9657 O 947.608 -1.69373 -0.878481 0
M  V30 9658 C 944.748 -3.24827 -1.16539 0
M  V30 9659 C 943.861 -4.29778 -0.43759 0
M  V30 9660 C 942.996 -5.11461 -1.43462 0
M  V30 9661 C 942.035 -6.08164 -0.693048 0
M  V30 9662 N 941.172 -6.82726 -1.63799 0
M  V30 9663 H 946.012 -2.92607 0.564356 0
M  V30 9664 H 943.549 -1.44211 0.290126 0
M  V30 9665 H 945.507 -3.78088 -1.76368 0
M  V30 9666 H 944.137 -2.64311 -1.8531 0
M  V30 9667 H 943.189 -3.794 0.27567 0
M  V30 9668 H 944.501 -4.98597 0.142298 0
M  V30 9669 H 943.655 -5.68982 -2.1058 0
M  V30 9670 H 942.394 -4.42595 -2.04844 0
M  V30 9671 H 941.399 -5.49799 -0.00807093 0
M  V30 9672 H 942.624 -6.79047 -0.0846678 0
M  V30 9673 H 940.57 -6.16572 -2.23997 0
M  V30 9674 H 940.487 -7.47795 -1.11082 0
M  V30 9675 H 941.755 -7.44807 -2.29962 0
M  V30 9676 N 945.984 -0.3171 -1.54377 0
M  V30 9677 C 947.232 0.286842 -2.00054 0
M  V30 9678 C 947.553 1.53161 -1.20692 0
M  V30 9679 O 946.823 1.93479 -0.307045 0
M  V30 9680 H 945.403 0.108979 -0.739008 0
M  V30 9681 H 948.065 -0.432152 -1.90049 0
M  V30 9682 H 947.161 0.547729 -3.07256 0
M  V30 9683 N 947.462 1.57535 -0.0451378 0
M  V30 9684 C 948.702 1.9432 0.633955 0
M  V30 9685 C 949.066 0.922924 1.68363 0
M  V30 9686 O 950.267 1.17751 2.41636 0
M  V30 9687 C 948.538 3.35933 1.21999 0
M  V30 9688 S 950.097 3.94666 1.91793 0
M  V30 9689 H 946.915 0.679798 0.208318 0
M  V30 9690 H 949.517 1.95175 -0.112633 0
M  V30 9691 H 948.221 4.07993 0.443821 0
M  V30 9692 H 947.752 3.38559 2.00353 0
M  V30 9693 H 949.767 3.79401 3.19796 0
M  V30 9694 N 948.94 -0.228186 1.55939 0
M  V30 9695 C 950.351 -0.795734 1.68893 0
M  V30 9696 C 950.702 -1.85261 0.645967 0
M  V30 9697 O 949.827 -2.15434 -0.2042 0
M  V30 9698 C 950.422 -1.45013 3.06197 0
M  V30 9699 C 948.981 -1.96514 3.21028 0
M  V30 9700 C 948.128 -0.822918 2.64808 0
M  V30 9701 H 951.079 -0.0036485 1.587 0
M  V30 9702 H 951.1 -2.31875 3.01685 0
M  V30 9703 H 950.612 -0.680678 3.82084 0
M  V30 9704 H 948.713 -2.76282 2.49998 0
M  V30 9705 H 948.826 -2.14967 4.28166 0
M  V30 9706 H 947.19 -1.22846 2.23116 0
M  V30 9707 H 947.973 -0.0662493 3.43236 0
M  V30 9708 N 950.418 -1.49637 -0.494624 0
M  V30 9709 C 951.381 -1.66252 -1.57775 0
M  V30 9710 C 952.381 -0.534054 -1.51672 0
M  V30 9711 O 953.571 -0.800637 -1.54711 0
M  V30 9712 C 950.703 -1.66584 -2.97426 0
M  V30 9713 H 951.896 -2.62864 -1.4437 0
M  V30 9714 H 949.449 -1.38764 -0.719323 0
M  V30 9715 H 950.184 -0.715798 -3.16302 0
M  V30 9716 H 949.969 -2.48543 -3.03264 0
M  V30 9717 H 951.459 -1.81474 -3.76108 0
M  V30 9718 N 951.896 0.746133 -1.38819 0
M  V30 9719 C 952.806 1.89063 -1.38897 0
M  V30 9720 C 953.822 1.71648 -0.28513 0
M  V30 9721 O 954.998 1.94443 -0.524783 0
M  V30 9722 C 952.063 3.24523 -1.22007 0
M  V30 9723 C 951.124 3.54411 -2.42263 0
M  V30 9724 C 950.357 4.83408 -2.26169 0
M  V30 9725 O 950.58 5.56325 -1.25931 0
M  V30 9726 O 949.514 5.12943 -3.14918 0
M  V30 9727 H 953.34 1.91951 -2.35347 0
M  V30 9728 H 950.925 0.892433 -1.19816 0
M  V30 9729 H 952.807 4.05496 -1.14677 0
M  V30 9730 H 951.482 3.2243 -0.286455 0
M  V30 9731 H 950.389 2.73569 -2.55168 0
M  V30 9732 H 951.722 3.61273 -3.3428 0
M  V30 9733 N 953.375 1.23811 0.975125 0
M  V30 9734 C 954.307 0.981779 2.07108 0
M  V30 9735 C 955.32 -0.0461211 1.62735 0
M  V30 9736 O 956.509 0.190039 1.77486 0
M  V30 9737 C 953.609 0.458364 3.35786 0
M  V30 9738 C 952.782 1.54767 4.09104 0
M  V30 9739 C 951.841 1.0282 5.16057 0
M  V30 9740 O 950.867 1.71831 5.42644 0
M  V30 9741 N 952.069 -0.141243 5.80328 0
M  V30 9742 H 954.834 1.92537 2.29673 0
M  V30 9743 H 952.395 1.1474 1.14221 0
M  V30 9744 H 954.387 0.0957686 4.04587 0
M  V30 9745 H 952.957 -0.390768 3.10148 0
M  V30 9746 H 952.177 2.08279 3.34684 0
M  V30 9747 H 953.465 2.28006 4.54853 0
M  V30 9748 H 952.863 -0.718382 5.6112 0
M  V30 9749 H 951.42 -0.445052 6.50279 0
M  V30 9750 N 954.853 -1.17469 1.05066 0
M  V30 9751 C 956.269 -1.39699 0.771769 0
M  V30 9752 C 956.469 -1.91253 -0.634382 0
M  V30 9753 O 955.525 -2.10334 -1.39699 0
M  V30 9754 C 956.838 -2.38886 1.82631 0
M  V30 9755 C 958.386 -2.52595 1.84838 0
M  V30 9756 C 958.861 -3.55054 2.89311 0
M  V30 9757 N 960.352 -3.6257 2.88266 0
M  V30 9758 C 961.087 -4.41603 3.65752 0
M  V30 9759 N 960.583 -5.24162 4.53019 0
M  V30 9760 N 962.376 -4.36464 3.54197 0
M  V30 9761 H 954.527 -0.823355 1.95792 0
M  V30 9762 H 956.79 -0.42432 0.847736 0
M  V30 9763 H 956.496 -2.08075 2.83545 0
M  V30 9764 H 956.37 -3.38371 1.66687 0
M  V30 9765 H 958.757 -2.82717 0.845888 0
M  V30 9766 H 958.838 -1.53188 2.04859 0
M  V30 9767 H 958.482 -3.2567 3.89745 0
M  V30 9768 H 958.412 -4.54162 2.66542 0
M  V30 9769 H 960.903 -3.03625 2.24989 0
M  V30 9770 H 961.216 -5.81646 5.0883 0
M  V30 9771 H 959.561 -5.23547 4.57081 0
M  V30 9772 H 962.752 -3.7102 2.85416 0
M  V30 9773 H 962.925 -4.97814 4.14832 0
M  V30 9774 N 956.331 -0.831506 -1.3388 0
M  V30 9775 C 957.294 -0.264773 -2.27666 0
M  V30 9776 C 958.294 0.562273 -1.50649 0
M  V30 9777 O 959.484 0.377131 -1.70069 0
M  V30 9778 C 956.616 0.627814 -3.35069 0
M  V30 9779 H 957.809 -1.09225 -2.79303 0
M  V30 9780 H 955.362 -0.604021 -1.44157 0
M  V30 9781 H 956.097 1.47802 -2.88661 0
M  V30 9782 H 955.882 0.0361552 -3.92083 0
M  V30 9783 H 957.372 1.01786 -4.05005 0
M  V30 9784 N 957.809 1.4625 -0.587256 0
M  V30 9785 C 959.034 2.07252 -0.0784517 0
M  V30 9786 C 959.459 1.43239 1.21919 0
M  V30 9787 O 958.817 0.517791 1.73749 0
M  V30 9788 C 958.865 3.60534 0.0691037 0
M  V30 9789 O 957.969 3.96773 1.12448 0
M  V30 9790 H 957.31 0.660825 -0.064859 0
M  V30 9791 H 959.84 1.87819 -0.811491 0
M  V30 9792 H 959.85 4.0708 0.273826 0
M  V30 9793 H 958.525 4.06516 -0.878514 0
M  V30 9794 H 957.102 3.6193 0.897852 0
M  V30 9795 N 959.287 0.325282 1.54207 0
M  V30 9796 C 960.698 -0.162426 1.85992 0
M  V30 9797 C 961.049 -1.51482 1.2469 0
M  V30 9798 O 960.174 -2.092 0.553578 0
M  V30 9799 C 960.769 -0.3015 3.37456 0
M  V30 9800 C 959.328 -0.73343 3.69185 0
M  V30 9801 C 958.475 0.143831 2.76927 0
M  V30 9802 H 961.426 0.545508 1.4903 0
M  V30 9803 H 961.447 -1.13212 3.63268 0
M  V30 9804 H 960.959 0.682942 3.82044 0
M  V30 9805 H 959.06 -1.72755 3.30131 0
M  V30 9806 H 959.173 -0.535987 4.76092 0
M  V30 9807 H 957.537 -0.380892 2.51836 0
M  V30 9808 H 958.32 1.12507 3.24341 0
M  V30 9809 N 960.765 -1.57509 0.0534917 0
M  V30 9810 C 961.695 -2.14698 -0.917999 0
M  V30 9811 C 962.676 -1.06924 -1.32292 0
M  V30 9812 O 963.861 -1.34875 -1.39723 0
M  V30 9813 C 960.991 -2.69383 -2.19203 0
M  V30 9814 C 959.945 -3.82161 -1.9271 0
M  V30 9815 C 959.271 -4.23373 -3.26587 0
M  V30 9816 C 960.571 -5.07199 -1.24686 0
M  V30 9817 H 962.265 -2.96125 -0.44165 0
M  V30 9818 H 959.811 -1.42446 -0.210993 0
M  V30 9819 H 961.764 -3.08031 -2.87567 0
M  V30 9820 H 960.488 -1.85151 -2.69048 0
M  V30 9821 H 959.147 -3.43989 -1.26757 0
M  V30 9822 H 958.795 -3.36089 -3.74237 0
M  V30 9823 H 958.495 -4.99385 -3.09658 0
M  V30 9824 H 960.019 -4.64623 -3.96178 0
M  V30 9825 H 961.433 -5.43279 -1.83088 0
M  V30 9826 H 959.83 -5.88369 -1.18076 0
M  V30 9827 H 960.9 -4.84386 -0.223227 0
M  V30 9828 N 962.243 0.219913 -1.56058 0
M  V30 9829 C 963.471 0.960915 -1.83232 0
M  V30 9830 C 963.886 1.77878 -0.632828 0
M  V30 9831 O 963.243 1.78093 0.398624 0
M  V30 9832 C 963.294 1.87716 -3.08942 0
M  V30 9833 O 963.015 1.09235 -4.24263 0
M  V30 9834 C 964.516 2.73192 -3.49115 0
M  V30 9835 H 961.736 0.281546 -0.609075 0
M  V30 9836 H 964.28 0.234648 -2.03149 0
M  V30 9837 H 962.435 2.55736 -2.90995 0
M  V30 9838 H 962.849 1.71446 -4.95688 0
M  V30 9839 H 964.323 3.33181 -4.40107 0
M  V30 9840 H 964.8 3.45668 -2.70943 0
M  V30 9841 H 965.406 2.10583 -3.69506 0
M  V30 9842 N 963.721 1.49897 0.486681 0
M  V30 9843 C 964.946 1.64106 1.26823 0
M  V30 9844 C 965.371 0.317967 1.85393 0
M  V30 9845 O 964.729 -0.71626 1.66551 0
M  V30 9846 C 964.777 2.72301 2.36399 0
M  V30 9847 O 963.881 2.32469 3.40634 0
M  V30 9848 H 963.222 0.548794 0.373793 0
M  V30 9849 H 965.752 1.96177 0.581017 0
M  V30 9850 H 965.762 2.94906 2.81948 0
M  V30 9851 H 964.437 3.68335 1.93137 0
M  V30 9852 H 963.014 2.20251 3.00905 0
M  V30 9853 N 965.199 -0.738761 1.39212 0
M  V30 9854 C 966.448 -1.49368 1.35543 0
M  V30 9855 C 966.761 -1.95543 -0.0471091 0
M  V30 9856 O 967.967 -2.70714 -0.206376 0
M  V30 9857 C 966.423 -2.69882 2.381 0
M  V30 9858 C 966.031 -2.30672 3.8405 0
M  V30 9859 C 967.775 -3.47718 2.435 0
M  V30 9860 C 965.682 -3.47886 4.78256 0
M  V30 9861 H 964.612 -0.560898 0.503894 0
M  V30 9862 H 967.263 -0.806221 1.6484 0
M  V30 9863 H 965.645 -3.40684 2.01867 0
M  V30 9864 H 966.819 -1.67441 4.29302 0
M  V30 9865 H 965.134 -1.65936 3.81909 0
M  V30 9866 H 967.731 -4.34897 3.11077 0
M  V30 9867 H 968.074 -3.89919 1.45838 0
M  V30 9868 H 968.607 -2.83942 2.78606 0
M  V30 9869 H 965.346 -3.10739 5.77167 0
M  V30 9870 H 964.866 -4.10111 4.37686 0
M  V30 9871 H 966.545 -4.14271 4.96979 0
M  V30 9872 N 966.677 -1.24326 -0.968545 0
M  V30 9873 C 967.926 -1.07647 -1.70572 0
M  V30 9874 C 968.239 0.384821 -1.91777 0
M  V30 9875 O 969.445 0.671782 -2.63058 0
M  V30 9876 C 967.901 -1.87799 -3.07017 0
M  V30 9877 C 967.509 -3.38333 -2.93658 0
M  V30 9878 C 969.253 -1.79647 -3.84613 0
M  V30 9879 C 967.16 -4.10831 -4.25407 0
M  V30 9880 H 966.09 -0.399216 -0.639642 0
M  V30 9881 H 968.741 -1.484 -1.07934 0
M  V30 9882 H 967.123 -1.3986 -3.7048 0
M  V30 9883 H 968.297 -3.93845 -2.39213 0
M  V30 9884 H 966.612 -3.47427 -2.29528 0
M  V30 9885 H 969.209 -2.31116 -4.82172 0
M  V30 9886 H 969.552 -0.761553 -4.09275 0
M  V30 9887 H 970.085 -2.25261 -3.27875 0
M  V30 9888 H 966.824 -5.14679 -4.05939 0
M  V30 9889 H 966.344 -3.60105 -4.79671 0
M  V30 9890 H 968.023 -4.17783 -4.94031 0
M  V30 9891 N 968.156 1.1691 -1.05688 0
M  V30 9892 C 969.381 1.91745 -0.790478 0
M  V30 9893 C 969.806 1.76568 0.648478 0
M  V30 9894 O 969.164 1.08682 1.45114 0
M  V30 9895 C 969.212 3.4067 -1.18222 0
M  V30 9896 O 968.316 4.11177 -0.317341 0
M  V30 9897 H 967.657 0.5976 -0.28943 0
M  V30 9898 H 970.187 1.48157 -1.41105 0
M  V30 9899 H 970.197 3.91424 -1.15114 0
M  V30 9900 H 968.872 3.51036 -2.2304 0
M  V30 9901 H 967.449 3.70645 -0.409459 0
M  V30 9902 N 969.634 0.838594 1.33437 0
M  V30 9903 C 970.597 0.276843 2.27522 0
M  V30 9904 C 971.597 -0.554275 1.50945 0
M  V30 9905 O 972.787 -0.368107 1.70266 0
M  V30 9906 C 969.919 -0.610036 3.35397 0
M  V30 9907 H 971.112 1.10705 2.78719 0
M  V30 9908 H 968.665 0.611657 1.43835 0
M  V30 9909 H 969.4 -1.46269 2.89441 0
M  V30 9910 H 969.185 -0.0153615 3.92097 0
M  V30 9911 H 970.675 -0.996368 4.05539 0
M  V30 9912 N 971.112 -1.45937 0.595003 0
M  V30 9913 C 972.358 -2.0262 0.0854317 0
M  V30 9914 C 972.691 -1.46402 -1.27594 0
M  V30 9915 O 971.966 -0.633823 -1.83883 0
M  V30 9916 C 972.249 -3.60085 0.0329075 0
M  V30 9917 C 972.102 -4.26663 1.42405 0
M  V30 9918 C 973.421 -4.35101 -0.661426 0
M  V30 9919 H 970.54 -0.736282 0.0325196 0
M  V30 9920 H 973.182 -1.73938 0.764563 0
M  V30 9921 H 971.332 -3.84652 -0.545439 0
M  V30 9922 H 973.004 -4.13321 2.04851 0
M  V30 9923 H 971.247 -3.85549 1.98833 0
M  V30 9924 H 971.918 -5.35497 1.33965 0
M  V30 9925 H 974.394 -4.15753 -0.169977 0
M  V30 9926 H 973.27 -5.44829 -0.667243 0
M  V30 9927 H 973.531 -4.07053 -1.72513 0
M  V30 9928 N 972.59 -0.333456 -1.54032 0
M  V30 9929 C 973.836 0.266527 -2.01041 0
M  V30 9930 C 974.169 1.51006 -1.2211 0
M  V30 9931 O 973.444 1.92078 -0.306016 0
M  V30 9932 C 973.727 0.59078 -3.55221 0
M  V30 9933 C 973.58 -0.664143 -4.4487 0
M  V30 9934 C 974.899 1.40447 -4.17088 0
M  V30 9935 H 972.018 0.0953979 -0.7308 0
M  V30 9936 H 974.66 -0.451995 -1.84545 0
M  V30 9937 H 972.81 1.20292 -3.69408 0
M  V30 9938 H 974.482 -1.30227 -4.42537 0
M  V30 9939 H 972.725 -1.29106 -4.14143 0
M  V30 9940 H 973.396 -0.392664 -5.50602 0
M  V30 9941 H 975.872 0.886946 -4.06537 0
M  V30 9942 H 974.748 1.6001 -5.2506 0
M  V30 9943 H 975.009 2.40357 -3.71054 0
M  V30 9944 N 974.068 1.57479 -0.061844 0
M  V30 9945 C 975.316 1.92727 0.608336 0
M  V30 9946 C 975.637 0.941799 1.70749 0
M  V30 9947 O 974.907 -0.0116608 1.95897 0
M  V30 9948 H 973.487 0.71145 0.2277 0
M  V30 9949 H 976.149 1.94546 -0.117359 0
M  V30 9950 H 975.245 2.9426 1.04007 0
M  V30 9951 N 975.546 -0.211634 1.56173 0
M  V30 9952 C 976.795 -0.932647 1.78842 0
M  V30 9953 C 977.108 -1.85103 0.63217 0
M  V30 9954 O 978.314 -2.61143 0.742746 0
M  V30 9955 C 976.77 -1.70866 3.16753 0
M  V30 9956 C 976.378 -0.835934 4.40132 0
M  V30 9957 C 978.122 -2.4203 3.48743 0
M  V30 9958 C 976.029 -1.60987 5.69067 0
M  V30 9959 H 974.959 -0.351983 0.666801 0
M  V30 9960 H 977.61 -0.186284 1.82552 0
M  V30 9961 H 975.992 -2.4983 3.07247 0
M  V30 9962 H 977.166 -0.0861298 4.60719 0
M  V30 9963 H 975.481 -0.235941 4.15731 0
M  V30 9964 H 978.078 -3.00453 4.42303 0
M  V30 9965 H 978.421 -3.15406 2.71707 0
M  V30 9966 H 978.954 -1.70048 3.59623 0
M  V30 9967 H 975.693 -0.9192 6.49023 0
M  V30 9968 H 975.213 -2.33403 5.52524 0
M  V30 9969 H 976.892 -2.16798 6.09596 0
M  V30 9970 N 977.024 -1.50153 -0.478725 0
M  V30 9971 C 977.954 -1.71384 -1.58587 0
M  V30 9972 C 978.935 -0.562705 -1.60523 0
M  V30 9973 O 980.12 -0.80101 -1.76911 0
M  V30 9974 C 977.25 -1.80094 -2.96957 0
M  V30 9975 C 976.204 -2.95218 -3.09888 0
M  V30 9976 C 975.53 -2.89063 -4.49829 0
M  V30 9977 C 976.83 -4.35841 -2.8782 0
M  V30 9978 H 978.524 -2.64081 -1.41073 0
M  V30 9979 H 976.07 -1.27081 -0.677239 0
M  V30 9980 H 978.023 -1.93531 -3.74331 0
M  V30 9981 H 976.747 -0.840131 -3.1561 0
M  V30 9982 H 975.406 -2.81419 -2.34944 0
M  V30 9983 H 975.054 -1.90844 -4.6539 0
M  V30 9984 H 974.754 -3.66345 -4.59418 0
M  V30 9985 H 976.278 -3.04539 -5.29234 0
M  V30 9986 H 977.692 -4.50205 -3.54948 0
M  V30 9987 H 976.089 -5.14515 -3.0886 0
M  V30 9988 H 977.159 -4.48739 -1.83742 0
M  V30 9989 N 978.502 0.731368 -1.39602 0
M  V30 9990 C 979.432 1.85855 -1.41351 0
M  V30 9991 C 980.413 1.67839 -0.2764 0
M  V30 9992 O 981.598 1.88104 -0.482747 0
M  V30 9993 C 978.728 3.23644 -1.25983 0
M  V30 9994 C 977.682 3.56304 -2.37132 0
M  V30 9995 C 977.008 4.93069 -2.0685 0
M  V30 9996 C 978.308 3.58906 -3.79452 0
M  V30 9997 H 980.002 1.84648 -2.3568 0
M  V30 9998 H 977.548 0.886955 -1.13442 0
M  V30 9999 H 979.501 4.02176 -1.25826 0
M  V30 10000 H 978.225 3.25387 -0.281234 0
M  V30 10001 H 976.884 2.80104 -2.36511 0
M  V30 10002 H 976.532 4.91396 -1.0742 0
M  V30 10003 H 976.232 5.15888 -2.81306 0
M  V30 10004 H 977.756 5.73953 -2.0835 0
M  V30 10005 H 979.17 4.27508 -3.81982 0
M  V30 10006 H 977.567 3.93246 -4.53297 0
M  V30 10007 H 978.637 2.58631 -4.10168 0
M  V30 10008 N 979.98 1.24838 0.961938 0
M  V30 10009 C 981.226 1.09313 1.70817 0
M  V30 10010 C 981.559 -0.366244 1.90715 0
M  V30 10011 O 980.834 -1.27036 1.47282 0
M  V30 10012 C 981.117 1.83988 3.09549 0
M  V30 10013 C 980.97 3.3771 2.97106 0
M  V30 10014 C 982.289 1.61718 4.09311 0
M  V30 10015 H 979.408 0.398498 0.619974 0
M  V30 10016 H 982.05 1.53579 1.11864 0
M  V30 10017 H 980.2 1.46363 3.59875 0
M  V30 10018 H 981.872 3.84967 2.54161 0
M  V30 10019 H 980.115 3.65795 2.33187 0
M  V30 10020 H 980.786 3.85166 3.95412 0
M  V30 10021 H 983.262 1.94458 3.67866 0
M  V30 10022 H 982.138 2.16415 5.04436 0
M  V30 10023 H 982.399 0.55677 4.3858 0
M  V30 10024 N 981.458 -1.16348 1.06306 0
M  V30 10025 C 982.704 -1.87158 0.781007 0
M  V30 10026 C 983.037 -1.81499 -0.690784 0
M  V30 10027 O 982.312 -1.23074 -1.50609 0
M  V30 10028 C 982.595 -3.3672 1.27639 0
M  V30 10029 C 982.448 -3.51069 2.81194 0
M  V30 10030 C 983.767 -4.31122 0.884388 0
M  V30 10031 H 980.886 -0.679586 0.285187 0
M  V30 10032 H 983.528 -1.36756 1.31901 0
M  V30 10033 H 981.678 -3.79775 0.818715 0
M  V30 10034 H 983.35 -3.16952 3.35171 0
M  V30 10035 H 981.593 -2.92976 3.19918 0
M  V30 10036 H 982.264 -4.56105 3.10921 0
M  V30 10037 H 984.74 -3.95969 1.27858 0
M  V30 10038 H 983.616 -5.34279 1.25847 0
M  V30 10039 H 983.877 -4.41598 -0.210673 0
M  V30 10040 N 982.937 -0.845659 -1.3299 0
M  V30 10041 C 984.183 -0.445311 -1.9785 0
M  V30 10042 C 984.516 0.994476 -1.66805 0
M  V30 10043 O 983.791 1.69636 -0.95151 0
M  V30 10044 C 984.074 -0.674371 -3.53729 0
M  V30 10045 C 983.927 -2.16192 -3.94437 0
M  V30 10046 C 985.246 -0.124908 -4.39923 0
M  V30 10047 H 982.365 -0.163269 -0.718688 0
M  V30 10048 H 985.007 -1.06242 -1.5752 0
M  V30 10049 H 983.157 -0.149091 -3.88214 0
M  V30 10050 H 984.829 -2.75259 -3.70176 0
M  V30 10051 H 983.072 -2.64386 -3.43922 0
M  V30 10052 H 983.743 -2.27292 -5.03033 0
M  V30 10053 H 986.219 -0.573986 -4.12122 0
M  V30 10054 H 985.095 -0.314816 -5.47996 0
M  V30 10055 H 985.356 0.971758 -4.31288 0
M  V30 10056 N 984.415 1.45619 -0.602734 0
M  V30 10057 C 985.345 2.33258 0.106342 0
M  V30 10058 C 986.326 1.46543 0.863664 0
M  V30 10059 O 987.511 1.75324 0.835175 0
M  V30 10060 C 984.641 3.29168 1.10751 0
M  V30 10061 C 983.595 4.25481 0.463717 0
M  V30 10062 C 982.921 5.11046 1.57278 0
M  V30 10063 C 984.221 5.18702 -0.61199 0
M  V30 10064 H 985.915 2.92795 -0.625423 0
M  V30 10065 H 983.461 1.40793 -0.302213 0
M  V30 10066 H 985.414 3.89346 1.61208 0
M  V30 10067 H 984.138 2.6778 1.8698 0
M  V30 10068 H 982.797 3.66595 -0.0199496 0
M  V30 10069 H 982.445 4.46029 2.32524 0
M  V30 10070 H 982.145 5.76286 1.14755 0
M  V30 10071 H 983.669 5.74091 2.07972 0
M  V30 10072 H 985.083 5.72979 -0.191686 0
M  V30 10073 H 983.48 5.92393 -0.958686 0
M  V30 10074 H 984.55 4.61424 -1.4905 0
M  V30 10075 N 985.893 0.34162 1.53853 0
M  V30 10076 C 987.141 -0.254979 2.00485 0
M  V30 10077 C 987.462 -1.51222 1.23114 0
M  V30 10078 O 986.732 -1.92966 0.337787 0
M  V30 10079 H 985.312 -0.0972084 0.740648 0
M  V30 10080 H 987.974 0.462332 1.89337 0
M  V30 10081 H 987.07 -0.498778 3.08089 0
M  V30 10082 N 987.371 -1.57444 0.0701946 0
M  V30 10083 C 988.617 -1.93716 -0.600178 0
M  V30 10084 C 988.95 -0.950329 -1.69359 0
M  V30 10085 O 988.225 0.0207123 -1.94489 0
M  V30 10086 C 988.508 -3.40266 -1.17861 0
M  V30 10087 C 988.361 -4.49706 -0.0919575 0
M  V30 10088 C 989.68 -3.87599 -2.08459 0
M  V30 10089 H 986.799 -0.704421 -0.216704 0
M  V30 10090 H 989.441 -1.89514 0.135838 0
M  V30 10091 H 987.591 -3.43977 -1.80587 0
M  V30 10092 H 989.263 -4.58116 0.541031 0
M  V30 10093 H 987.506 -4.29937 0.577639 0
M  V30 10094 H 988.177 -5.49381 -0.537048 0
M  V30 10095 H 990.653 -3.85883 -1.5567 0
M  V30 10096 H 989.529 -4.90755 -2.45867 0
M  V30 10097 H 989.79 -3.25448 -2.99226 0
M  V30 10098 N 988.849 0.203349 -1.56283 0
M  V30 10099 C 990.095 0.926381 -1.80405 0
M  V30 10100 C 990.428 1.8325 -0.642883 0
M  V30 10101 O 989.703 1.91196 0.356998 0
M  V30 10102 C 989.986 1.74972 -3.14733 0
M  V30 10103 C 989.839 0.868866 -4.41328 0
M  V30 10104 C 991.158 2.72394 -3.45672 0
M  V30 10105 H 988.277 0.335346 -0.656286 0
M  V30 10106 H 990.919 0.1942 -1.89005 0
M  V30 10107 H 989.069 2.37394 -3.07533 0
M  V30 10108 H 990.741 0.259986 -4.60567 0
M  V30 10109 H 988.984 0.175161 -4.33446 0
M  V30 10110 H 989.655 1.47975 -5.31796 0
M  V30 10111 H 992.131 2.20105 -3.53119 0
M  V30 10112 H 991.007 3.27091 -4.40798 0
M  V30 10113 H 991.268 3.51035 -2.6875 0
M  V30 10114 N 990.327 1.50405 0.470755 0
M  V30 10115 C 991.574 1.61411 1.22281 0
M  V30 10116 C 991.902 0.314603 1.91939 0
M  V30 10117 O 991.157 -0.699531 1.82771 0
M  V30 10118 C 991.456 2.74426 2.28965 0
M  V30 10119 C 991.122 4.14896 1.76557 0
M  V30 10120 C 989.784 4.53116 1.61985 0
M  V30 10121 C 992.136 5.02686 1.3768 0
M  V30 10122 C 989.464 5.76868 1.0696 0
M  V30 10123 C 991.816 6.26985 0.840967 0
M  V30 10124 C 990.48 6.64008 0.68188 0
M  V30 10125 H 989.75 0.590645 0.447459 0
M  V30 10126 H 992.397 1.84339 0.518783 0
M  V30 10127 H 990.702 2.45588 3.05277 0
M  V30 10128 H 992.399 2.80146 2.86914 0
M  V30 10129 H 988.989 3.84743 1.88867 0
M  V30 10130 H 993.173 4.7379 1.47772 0
M  V30 10131 H 988.429 6.04227 0.933808 0
M  V30 10132 H 992.603 6.94372 0.531066 0
M  V30 10133 H 990.23 7.59778 0.25335 0
M  V30 10134 N 991.805 -0.723954 1.39988 0
M  V30 10135 C 993.053 -1.48078 1.3754 0
M  V30 10136 C 993.374 -1.94985 -0.0243358 0
M  V30 10137 O 992.644 -1.69764 -0.977602 0
M  V30 10138 H 991.224 -0.549354 0.506181 0
M  V30 10139 H 993.886 -0.858746 1.74962 0
M  V30 10140 H 992.982 -2.35763 2.04505 0
M  V30 10141 N 993.283 -1.25346 -0.955304 0
M  V30 10142 C 994.532 -1.0945 -1.69421 0
M  V30 10143 C 994.845 0.364459 -1.92175 0
M  V30 10144 O 996.051 0.643843 -2.63755 0
M  V30 10145 C 994.507 -1.91045 -3.05008 0
M  V30 10146 C 994.115 -3.41428 -2.90053 0
M  V30 10147 C 995.859 -1.83716 -3.82686 0
M  V30 10148 C 993.766 -4.1532 -4.21026 0
M  V30 10149 H 992.696 -0.405978 -0.635372 0
M  V30 10150 H 995.347 -1.49536 -1.06354 0
M  V30 10151 H 993.729 -1.43781 -3.68975 0
M  V30 10152 H 994.903 -3.9636 -2.35022 0
M  V30 10153 H 993.218 -3.49842 -2.25831 0
M  V30 10154 H 995.815 -2.36217 -4.79693 0
M  V30 10155 H 996.158 -0.804919 -4.08444 0
M  V30 10156 H 996.691 -2.28726 -3.25468 0
M  V30 10157 H 993.43 -5.18955 -4.00457 0
M  V30 10158 H 992.95 -3.65172 -4.75825 0
M  V30 10159 H 994.629 -4.22999 -4.89572 0
M  V30 10160 N 994.761 1.15782 -1.06922 0
M  V30 10161 C 995.691 2.22538 -0.707045 0
M  V30 10162 C 996.672 1.67371 0.303471 0
M  V30 10163 O 997.857 1.9339 0.177189 0
M  V30 10164 C 994.987 3.47158 -0.0994269 0
M  V30 10165 C 993.941 4.15257 -1.03661 0
M  V30 10166 C 993.267 5.33902 -0.291974 0
M  V30 10167 C 994.567 4.65516 -2.36837 0
M  V30 10168 H 996.261 2.53089 -1.59958 0
M  V30 10169 H 993.807 1.21649 -0.770552 0
M  V30 10170 H 995.76 4.21073 0.165852 0
M  V30 10171 H 994.484 3.15926 0.828155 0
M  V30 10172 H 993.143 3.43276 -1.28674 0
M  V30 10173 H 992.791 4.98926 0.638928 0
M  V30 10174 H 992.491 5.80407 -0.916613 0
M  V30 10175 H 994.015 6.1059 -0.0343915 0
M  V30 10176 H 995.429 5.30981 -2.16175 0
M  V30 10177 H 993.826 5.22666 -2.94856 0
M  V30 10178 H 994.896 3.81387 -2.99453 0
M  V30 10179 N 996.239 0.8527 1.3254 0
M  V30 10180 C 997.488 0.45136 1.96585 0
M  V30 10181 C 997.801 -0.997773 1.68237 0
M  V30 10182 O 999.007 -1.50445 2.26006 0
M  V30 10183 C 997.463 0.75619 3.51866 0
M  V30 10184 C 997.071 2.22092 3.89075 0
M  V30 10185 C 998.815 0.422478 4.22392 0
M  V30 10186 C 996.722 2.46908 5.37392 0
M  V30 10187 H 995.652 0.165052 0.735713 0
M  V30 10188 H 998.303 1.04321 1.50962 0
M  V30 10189 H 996.685 0.0937988 3.95889 0
M  V30 10190 H 997.859 2.92494 3.56067 0
M  V30 10191 H 996.174 2.51896 3.31568 0
M  V30 10192 H 998.771 0.58533 5.31487 0
M  V30 10193 H 999.114 -0.635737 4.11417 0
M  V30 10194 H 999.647 1.04068 3.83946 0
M  V30 10195 H 996.386 3.51346 5.53386 0
M  V30 10196 H 995.906 1.81082 5.71812 0
M  V30 10197 H 997.585 2.30758 6.0445 0
M  V30 10198 N 997.718 -1.45297 0.610449 0
M  V30 10199 C 998.665 -2.30553 -0.106718 0
M  V30 10200 C 999.635 -1.42272 -0.85719 0
M  V30 10201 O 1000.82 -1.71199 -0.842357 0
M  V30 10202 C 997.96 -3.27226 -1.09623 0
M  V30 10203 C 997.073 -4.3061 -0.346329 0
M  V30 10204 C 996.208 -5.14389 -1.32581 0
M  V30 10205 C 995.247 -6.09497 -0.563892 0
M  V30 10206 N 994.384 -6.86047 -1.4928 0
M  V30 10207 H 999.224 -2.91344 0.626296 0
M  V30 10208 H 996.761 -1.43563 0.32065 0
M  V30 10209 H 998.719 -3.81744 -1.68308 0
M  V30 10210 H 997.349 -2.68182 -1.79662 0
M  V30 10211 H 996.401 -3.7873 0.356084 0
M  V30 10212 H 997.713 -4.98183 0.248026 0
M  V30 10213 H 996.867 -5.73321 -1.98464 0
M  V30 10214 H 995.606 -4.4684 -1.9541 0
M  V30 10215 H 994.611 -5.49693 0.108551 0
M  V30 10216 H 995.836 -6.79074 0.0593872 0
M  V30 10217 H 993.782 -6.21185 -2.10868 0
M  V30 10218 H 993.699 -7.49983 -0.951953 0
M  V30 10219 H 994.967 -7.49518 -2.14112 0
M  V30 10220 N 999.196 -0.349774 -1.5367 0
M  V30 10221 C 1000.61 0.00191293 -1.596 0
M  V30 10222 C 1000.81 1.48175 -1.36552 0
M  V30 10223 O 999.868 2.24129 -1.16285 0
M  V30 10224 C 1001.18 -0.439848 -2.97466 0
M  V30 10225 C 1002.73 -0.392721 -3.10526 0
M  V30 10226 C 1003.2 -0.810047 -4.5078 0
M  V30 10227 N 1004.69 -0.764478 -4.56848 0
M  V30 10228 C 1005.43 -1.05927 -5.63531 0
M  V30 10229 N 1004.93 -1.42253 -6.78038 0
M  V30 10230 N 1006.72 -0.983098 -5.53436 0
M  V30 10231 H 998.87 -1.31364 -1.66905 0
M  V30 10232 H 1001.13 -0.535908 -0.781989 0
M  V30 10233 H 1000.84 -1.47189 -3.19419 0
M  V30 10234 H 1000.71 0.181735 -3.76762 0
M  V30 10235 H 1003.1 0.630161 -2.88293 0
M  V30 10236 H 1003.18 -1.04959 -2.33275 0
M  V30 10237 H 1002.82 -1.83097 -4.73749 0
M  V30 10238 H 1002.75 -0.130591 -5.26438 0
M  V30 10239 H 1005.25 -0.496637 -3.74622 0
M  V30 10240 H 1005.56 -1.63215 -7.55368 0
M  V30 10241 H 1003.9 -1.46104 -6.79469 0
M  V30 10242 H 1007.09 -0.698601 -4.62858 0
M  V30 10243 H 1007.27 -1.21618 -6.36485 0
M  V30 10244 N 1000.67 1.57404 -0.0785433 0
M  V30 10245 C 1002.09 1.57158 0.2781 0
M  V30 10246 C 1002.29 1.08847 1.69572 0
M  V30 10247 O 1001.35 0.757407 2.40873 0
M  V30 10248 C 1002.66 3.00589 0.0816067 0
M  V30 10249 C 1004.21 3.12637 0.150627 0
M  V30 10250 C 1004.68 4.57997 -0.0176685 0
M  V30 10251 N 1006.17 4.63185 0.0377145 0
M  V30 10252 C 1006.91 5.7336 -0.0679907 0
M  V30 10253 N 1006.4 6.92426 -0.227598 0
M  V30 10254 N 1008.2 5.62099 -0.0104424 0
M  V30 10255 H 1000.35 1.87121 -1.00496 0
M  V30 10256 H 1002.61 0.862937 -0.392484 0
M  V30 10257 H 1002.32 3.40072 -0.896869 0
M  V30 10258 H 1002.19 3.67931 0.831046 0
M  V30 10259 H 1004.58 2.73037 1.11959 0
M  V30 10260 H 1004.66 2.4792 -0.630028 0
M  V30 10261 H 1004.3 4.98288 -0.983431 0
M  V30 10262 H 1004.23 5.20754 0.782475 0
M  V30 10263 H 1006.72 3.77564 0.159208 0
M  V30 10264 H 1007.04 7.72217 -0.300217 0
M  V30 10265 H 1005.38 6.94502 -0.263049 0
M  V30 10266 H 1008.57 4.67964 0.112999 0
M  V30 10267 H 1008.75 6.47928 -0.0962747 0
M  V30 10268 N 1002.15 -0.195058 1.56388 0
M  V30 10269 C 1003.08 -1.26581 1.91076 0
M  V30 10270 C 1004.1 -1.41707 0.801436 0
M  V30 10271 O 1005.29 -1.42132 1.07985 0
M  V30 10272 C 1002.39 -2.63794 2.12758 0
M  V30 10273 C 1001.56 -2.70275 3.43904 0
M  V30 10274 C 1000.62 -3.88685 3.54698 0
M  V30 10275 O 999.644 -3.75786 4.2752 0
M  V30 10276 N 1000.85 -5.04141 2.87789 0
M  V30 10277 H 1003.61 -0.971401 2.83521 0
M  V30 10278 H 1001.17 -0.384976 1.57256 0
M  V30 10279 H 1003.16 -3.41434 2.17267 0
M  V30 10280 H 1001.73 -2.85723 1.26812 0
M  V30 10281 H 1000.95 -1.78909 3.51262 0
M  V30 10282 H 1002.24 -2.71597 4.30247 0
M  V30 10283 H 1001.64 -5.17519 2.28452 0
M  V30 10284 H 1000.2 -5.79727 2.97925 0
M  V30 10285 N 1003.63 -1.50653 -0.462772 0
M  V30 10286 C 1004.56 -1.66286 -1.5774 0
M  V30 10287 C 1005.57 -0.544094 -1.53439 0
M  V30 10288 O 1006.76 -0.817566 -1.58676 0
M  V30 10289 C 1003.86 -1.63893 -2.96635 0
M  V30 10290 C 1003.04 -2.91939 -3.25716 0
M  V30 10291 C 1002.1 -2.82076 -4.44206 0
M  V30 10292 O 1001.12 -3.56032 -4.44106 0
M  V30 10293 N 1002.32 -1.96196 -5.4634 0
M  V30 10294 H 1005.09 -2.6243 -1.44742 0
M  V30 10295 H 1002.65 -1.48221 -0.651326 0
M  V30 10296 H 1004.64 -1.54897 -3.73884 0
M  V30 10297 H 1003.21 -0.75449 -3.03358 0
M  V30 10298 H 1002.43 -3.14998 -2.37002 0
M  V30 10299 H 1003.72 -3.7675 -3.4196 0
M  V30 10300 H 1003.12 -1.35439 -5.49247 0
M  V30 10301 H 1001.67 -1.93097 -6.2254 0
M  V30 10302 N 1005.11 0.71652 -1.4037 0
M  V30 10303 C 1006.06 1.8306 -1.40562 0
M  V30 10304 C 1007.03 1.64009 -0.262697 0
M  V30 10305 O 1008.21 1.85157 -0.460619 0
M  V30 10306 C 1005.35 3.2076 -1.27307 0
M  V30 10307 C 1004.46 3.51389 -2.51296 0
M  V30 10308 C 1003.6 4.78589 -2.30491 0
M  V30 10309 C 1002.64 5.02119 -3.50061 0
M  V30 10310 N 1001.77 6.20533 -3.28457 0
M  V30 10311 H 1006.61 1.82231 -2.35788 0
M  V30 10312 H 1004.15 0.890198 -1.17106 0
M  V30 10313 H 1006.11 4.00274 -1.17628 0
M  V30 10314 H 1004.74 3.2082 -0.357005 0
M  V30 10315 H 1003.79 2.66436 -2.71507 0
M  V30 10316 H 1005.1 3.64686 -3.40302 0
M  V30 10317 H 1004.26 5.66119 -2.1816 0
M  V30 10318 H 1003 4.67499 -1.38909 0
M  V30 10319 H 1002 4.13044 -3.6287 0
M  V30 10320 H 1003.23 5.15082 -4.42569 0
M  V30 10321 H 1001.17 6.10695 -2.39556 0
M  V30 10322 H 1001.09 6.34502 -4.11027 0
M  V30 10323 H 1002.36 7.10853 -3.19857 0
M  V30 10324 N 1006.59 1.25851 0.948643 0
M  V30 10325 C 1007.84 1.10347 1.68838 0
M  V30 10326 C 1008.15 -0.354262 1.92365 0
M  V30 10327 O 1009.35 -0.629847 2.64093 0
M  V30 10328 C 1007.81 1.92659 3.03991 0
M  V30 10329 C 1007.42 3.42962 2.88238 0
M  V30 10330 C 1009.16 1.85743 3.81707 0
M  V30 10331 C 1007.07 4.17547 4.18818 0
M  V30 10332 H 1006 0.409342 0.63321 0
M  V30 10333 H 1008.65 1.50098 1.05559 0
M  V30 10334 H 1007.03 1.45736 3.68208 0
M  V30 10335 H 1008.21 3.97601 2.32917 0
M  V30 10336 H 1006.52 3.51035 2.23972 0
M  V30 10337 H 1009.12 2.38758 4.78434 0
M  V30 10338 H 1009.46 0.826568 4.08012 0
M  V30 10339 H 1009.99 2.30449 3.2425 0
M  V30 10340 H 1006.73 5.21072 3.97699 0
M  V30 10341 H 1006.25 3.6769 4.73882 0
M  V30 10342 H 1007.93 4.25589 4.87322 0
M  V30 10343 N 1008.06 -1.15214 1.07534 0
M  V30 10344 C 1009.48 -1.38031 0.801228 0
M  V30 10345 C 1009.68 -1.92556 -0.593672 0
M  V30 10346 O 1008.74 -2.1325 -1.35206 0
M  V30 10347 C 1010.05 -2.34958 1.87657 0
M  V30 10348 C 1011.6 -2.48617 1.90154 0
M  V30 10349 C 1012.07 -3.48837 2.96777 0
M  V30 10350 N 1013.56 -3.56374 2.95892 0
M  V30 10351 C 1014.3 -4.33746 3.75036 0
M  V30 10352 N 1013.79 -5.14435 4.64036 0
M  V30 10353 N 1015.59 -4.28853 3.63375 0
M  V30 10354 H 1007.74 -0.781639 1.97495 0
M  V30 10355 H 1010 -0.406243 0.856546 0
M  V30 10356 H 1009.71 -2.02013 2.87895 0
M  V30 10357 H 1009.58 -3.3476 1.73827 0
M  V30 10358 H 1011.97 -2.80859 0.905666 0
M  V30 10359 H 1012.05 -1.48808 2.08062 0
M  V30 10360 H 1011.69 -3.1733 3.96565 0
M  V30 10361 H 1011.62 -4.48406 2.76116 0
M  V30 10362 H 1014.11 -2.98784 2.31379 0
M  V30 10363 H 1014.43 -5.70722 5.21053 0
M  V30 10364 H 1012.77 -5.13734 4.68084 0
M  V30 10365 H 1015.96 -3.64882 2.93221 0
M  V30 10366 H 1016.14 -4.88903 4.25298 0
M  V30 10367 N 1009.54 -0.859717 -1.32086 0
M  V30 10368 C 1010.49 -0.306042 -2.28762 0
M  V30 10369 C 1011.46 0.589801 -1.55276 0
M  V30 10370 O 1012.64 0.523633 -1.83474 0
M  V30 10371 C 1009.78 0.495256 -3.41528 0
M  V30 10372 C 1008.9 -0.426947 -4.29885 0
M  V30 10373 C 1008.03 0.387474 -5.29785 0
M  V30 10374 C 1007.07 -0.531807 -6.09785 0
M  V30 10375 N 1006.21 0.245741 -7.0167 0
M  V30 10376 H 1011.05 -1.1357 -2.7551 0
M  V30 10377 H 1008.59 -0.571468 -1.35546 0
M  V30 10378 H 1010.54 0.97551 -4.05635 0
M  V30 10379 H 1009.17 1.28969 -2.95917 0
M  V30 10380 H 1008.23 -1.02561 -3.66313 0
M  V30 10381 H 1009.54 -1.13226 -4.85779 0
M  V30 10382 H 1008.69 0.930677 -5.99519 0
M  V30 10383 H 1007.43 1.12612 -4.74521 0
M  V30 10384 H 1006.44 -1.08685 -5.3895 0
M  V30 10385 H 1007.66 -1.26915 -6.67135 0
M  V30 10386 H 1005.61 0.967391 -6.48828 0
M  V30 10387 H 1005.52 -0.400432 -7.54939 0
M  V30 10388 H 1006.79 0.770507 -7.75683 0
M  V30 10389 N 1011.02 1.44971 -0.618145 0
M  V30 10390 C 1012.25 2.06228 -0.123985 0
M  V30 10391 C 1012.66 1.46166 1.20134 0
M  V30 10392 O 1012 0.574099 1.74499 0
M  V30 10393 C 1012.06 3.59413 0.0789098 0
M  V30 10394 C 1011.73 4.41869 -1.16624 0
M  V30 10395 C 1012.72 4.76177 -2.0869 0
M  V30 10396 C 1010.41 4.82453 -1.39802 0
M  V30 10397 C 1012.4 5.49938 -3.22254 0
M  V30 10398 C 1010.09 5.55965 -2.53665 0
M  V30 10399 C 1011.09 5.89626 -3.44718 0
M  V30 10400 O 1010.78 6.61644 -4.56598 0
M  V30 10401 H 1010.51 0.672274 -0.0708822 0
M  V30 10402 H 1013.06 1.87038 -0.848868 0
M  V30 10403 H 1011.29 3.77043 0.8588 0
M  V30 10404 H 1012.98 4.02478 0.52599 0
M  V30 10405 H 1013.75 4.45372 -1.92012 0
M  V30 10406 H 1009.63 4.55681 -0.698245 0
M  V30 10407 H 1013.17 5.76129 -3.93347 0
M  V30 10408 H 1009.07 5.86185 -2.70291 0
M  V30 10409 H 1009.84 6.80103 -4.55414 0
M  V30 10410 N 1012.5 0.357919 1.53482 0
M  V30 10411 C 1013.73 -0.23514 2.05559 0
M  V30 10412 C 1014.14 -1.43068 1.23195 0
M  V30 10413 O 1013.5 -1.80481 0.270741 0
M  V30 10414 C 1013.55 -0.636147 3.55859 0
M  V30 10415 O 1013.27 0.511864 4.35099 0
M  V30 10416 C 1014.77 -1.28841 4.24164 0
M  V30 10417 H 1011.99 -0.0428446 0.669631 0
M  V30 10418 H 1014.54 0.51407 1.97933 0
M  V30 10419 H 1012.69 -1.33528 3.63661 0
M  V30 10420 H 1013.1 0.189328 5.24158 0
M  V30 10421 H 1014.58 -1.51962 5.30671 0
M  V30 10422 H 1015.06 -2.24638 3.77405 0
M  V30 10423 H 1015.66 -0.630914 4.20594 0
M  V30 10424 N 1013.98 -1.5736 0.0868897 0
M  V30 10425 C 1014.91 -2.09211 -0.911382 0
M  V30 10426 C 1015.89 -1.00072 -1.28157 0
M  V30 10427 O 1017.07 -1.27514 -1.38825 0
M  V30 10428 C 1014.2 -2.56229 -2.21504 0
M  V30 10429 C 1013.24 -3.76948 -1.99531 0
M  V30 10430 S 1014.08 -5.20926 -1.24083 0
M  V30 10431 C 1015.23 -5.71288 -2.55697 0
M  V30 10432 H 1015.47 -2.93557 -0.470245 0
M  V30 10433 H 1013 -1.53883 -0.126218 0
M  V30 10434 H 1014.96 -2.83978 -2.96424 0
M  V30 10435 H 1013.62 -1.72123 -2.6274 0
M  V30 10436 H 1012.81 -4.07887 -2.96048 0
M  V30 10437 H 1012.41 -3.4965 -1.32744 0
M  V30 10438 H 1014.71 -5.79054 -3.51714 0
M  V30 10439 H 1015.65 -6.6993 -2.29347 0
M  V30 10440 H 1016.06 -4.99178 -2.63594 0
M  V30 10441 N 1015.45 0.186762 -1.56489 0
M  V30 10442 C 1016.87 0.537933 -1.50261 0
M  V30 10443 C 1017.07 1.85435 -0.788414 0
M  V30 10444 O 1016.13 2.50168 -0.342377 0
M  V30 10445 C 1017.44 0.584965 -2.94955 0
M  V30 10446 C 1018.99 0.673228 -3.05674 0
M  V30 10447 C 1019.46 0.751294 -4.51796 0
M  V30 10448 N 1020.95 0.814599 -4.55981 0
M  V30 10449 C 1021.69 0.895313 -5.66367 0
M  V30 10450 N 1021.18 0.937814 -6.86423 0
M  V30 10451 N 1022.98 0.933145 -5.543 0
M  V30 10452 H 1015.13 -0.676636 -2.01334 0
M  V30 10453 H 1017.39 -0.242079 -0.916571 0
M  V30 10454 H 1017.1 -0.313361 -3.50301 0
M  V30 10455 H 1016.97 1.4368 -3.48763 0
M  V30 10456 H 1019.36 1.56198 -2.50372 0
M  V30 10457 H 1019.44 -0.204976 -2.54977 0
M  V30 10458 H 1019.08 -0.133143 -5.07725 0
M  V30 10459 H 1019.01 1.64542 -5.00233 0
M  V30 10460 H 1021.5 0.790662 -3.69536 0
M  V30 10461 H 1021.82 1.00015 -7.66301 0
M  V30 10462 H 1020.16 0.906351 -6.89065 0
M  V30 10463 H 1023.35 0.896836 -4.59428 0
M  V30 10464 H 1023.53 0.992588 -6.40353 0
M  V30 10465 N 1016.93 1.50896 0.454776 0
M  V30 10466 C 1018.35 1.38684 0.78987 0
M  V30 10467 C 1018.55 0.455587 1.96282 0
M  V30 10468 O 1017.6 -0.0957503 2.52318 0
M  V30 10469 C 1018.92 2.80381 1.08661 0
M  V30 10470 C 1020.47 2.8941 1.19209 0
M  V30 10471 C 1020.94 4.31976 1.52187 0
M  V30 10472 N 1022.43 4.35002 1.59146 0
M  V30 10473 C 1023.17 5.42326 1.862 0
M  V30 10474 N 1022.66 6.59835 2.11164 0
M  V30 10475 N 1024.46 5.29786 1.87838 0
M  V30 10476 H 1016.61 2.10006 -0.317981 0
M  V30 10477 H 1018.87 0.944636 -0.0797969 0
M  V30 10478 H 1018.58 3.50438 0.297626 0
M  V30 10479 H 1018.45 3.18634 2.01872 0
M  V30 10480 H 1020.84 2.19561 1.97173 0
M  V30 10481 H 1020.92 2.54677 0.239401 0
M  V30 10482 H 1020.56 5.02368 0.747576 0
M  V30 10483 H 1020.49 4.64208 2.48633 0
M  V30 10484 H 1022.98 3.50276 1.41828 0
M  V30 10485 H 1023.3 7.37428 2.31128 0
M  V30 10486 H 1021.64 6.62981 2.08522 0
M  V30 10487 H 1024.83 4.36974 1.67843 0
M  V30 10488 H 1025 6.13511 2.08585 0
M  V30 10489 N 1018.41 -0.709066 1.40748 0
M  V30 10490 C 1019.34 -1.83583 1.4429 0
M  V30 10491 C 1020.32 -1.67378 0.303067 0
M  V30 10492 O 1021.51 -1.87312 0.512612 0
M  V30 10493 C 1018.64 -3.21599 1.31116 0
M  V30 10494 C 1017.59 -3.52486 2.4277 0
M  V30 10495 C 1016.92 -4.89716 2.14668 0
M  V30 10496 C 1018.22 -3.52824 3.85113 0
M  V30 10497 H 1019.91 -1.80876 2.38588 0
M  V30 10498 H 1017.46 -0.868795 1.14839 0
M  V30 10499 H 1019.41 -4.00123 1.32209 0
M  V30 10500 H 1018.13 -3.24898 0.332965 0
M  V30 10501 H 1016.79 -2.76305 2.40937 0
M  V30 10502 H 1016.44 -4.89625 1.15224 0
M  V30 10503 H 1016.14 -5.11347 2.89478 0
M  V30 10504 H 1017.66 -5.70566 2.17455 0
M  V30 10505 H 1019.08 -4.21377 3.88734 0
M  V30 10506 H 1017.48 -3.85984 4.59496 0
M  V30 10507 H 1018.55 -2.52073 4.14231 0
M  V30 10508 N 1019.89 -1.26353 -0.941956 0
M  V30 10509 C 1020.82 -1.10341 -2.05784 0
M  V30 10510 C 1021.8 -0.00881565 -1.70098 0
M  V30 10511 O 1022.99 -0.180699 -1.93357 0
M  V30 10512 C 1020.12 -0.734788 -3.39438 0
M  V30 10513 C 1019.07 -1.78103 -3.89183 0
M  V30 10514 C 1018.4 -1.26675 -5.19478 0
M  V30 10515 C 1019.7 -3.1824 -4.14151 0
M  V30 10516 H 1021.39 -2.03684 -2.19438 0
M  V30 10517 H 1018.94 -0.980698 -1.05443 0
M  V30 10518 H 1020.89 -0.609653 -4.16967 0
M  V30 10519 H 1019.61 0.234354 -3.25758 0
M  V30 10520 H 1018.27 -1.89482 -3.13835 0
M  V30 10521 H 1017.92 -0.287472 -5.02178 0
M  V30 10522 H 1017.62 -1.96612 -5.53731 0
M  V30 10523 H 1019.14 -1.15427 -5.99591 0
M  V30 10524 H 1020.56 -3.09942 -4.82296 0
M  V30 10525 H 1018.95 -3.8576 -4.59684 0
M  V30 10526 H 1020.02 -3.64354 -3.19959 0
M  V30 10527 N 1021.37 1.14642 -1.08144 0
M  V30 10528 C 1022.3 2.19283 -0.6669 0
M  V30 10529 C 1023.31 1.60292 0.284668 0
M  V30 10530 O 1024.5 1.78352 0.0727383 0
M  V30 10531 C 1021.6 3.38877 0.0398572 0
M  V30 10532 C 1020.77 4.274 -0.929929 0
M  V30 10533 C 1019.83 5.25562 -0.258991 0
M  V30 10534 O 1018.86 5.61999 -0.902563 0
M  V30 10535 N 1020.06 5.71958 0.992177 0
M  V30 10536 H 1022.83 2.55464 -1.5671 0
M  V30 10537 H 1020.39 1.29836 -0.96717 0
M  V30 10538 H 1022.38 4.01605 0.499583 0
M  V30 10539 H 1020.95 3.01043 0.842118 0
M  V30 10540 H 1020.17 3.61649 -1.56857 0
M  V30 10541 H 1021.46 4.83411 -1.58717 0
M  V30 10542 H 1020.86 5.44481 1.53484 0
M  V30 10543 H 1019.41 6.36687 1.39544 0
M  V30 10544 N 1022.85 0.866709 1.31628 0
M  V30 10545 C 1023.76 0.323408 2.3236 0
M  V30 10546 C 1024.77 -0.564995 1.64572 0
M  V30 10547 O 1025.95 -0.462489 1.96018 0
M  V30 10548 C 1023.01 -0.469045 3.43513 0
M  V30 10549 C 1022.07 0.446928 4.26967 0
M  V30 10550 C 1021.31 -0.307799 5.32812 0
M  V30 10551 O 1021.53 -1.5363 5.49321 0
M  V30 10552 O 1020.46 0.332653 6.0098 0
M  V30 10553 H 1024.29 1.15827 2.80745 0
M  V30 10554 H 1021.87 0.629987 1.35468 0
M  V30 10555 H 1023.76 -0.918405 4.1127 0
M  V30 10556 H 1022.43 -1.28051 2.97296 0
M  V30 10557 H 1021.34 0.944719 3.61975 0
M  V30 10558 H 1022.67 1.2239 4.76741 0
M  V30 10559 N 1024.32 -1.44642 0.625825 0
M  V30 10560 C 1025.55 -2.06458 0.135116 0
M  V30 10561 C 1025.97 -1.46729 -1.18811 0
M  V30 10562 O 1025.32 -0.58818 -1.72762 0
M  V30 10563 C 1025.37 -3.61499 0.00850114 0
M  V30 10564 O 1025.1 -4.19002 1.2794 0
M  V30 10565 C 1026.6 -4.40339 -0.511527 0
M  V30 10566 H 1023.82 -0.666541 0.0772294 0
M  V30 10567 H 1026.36 -1.85597 0.858726 0
M  V30 10568 H 1024.52 -3.81641 -0.665522 0
M  V30 10569 H 1024.93 -5.12385 1.12081 0
M  V30 10570 H 1026.4 -5.49262 -0.549149 0
M  V30 10571 H 1026.88 -4.11409 -1.53752 0
M  V30 10572 H 1027.49 -4.25104 0.129066 0
M  V30 10573 N 1025.8 -0.366053 -1.5329 0
M  V30 10574 C 1026.71 0.488111 -2.29466 0
M  V30 10575 C 1027.73 1.09219 -1.35452 0
M  V30 10576 O 1028.9 1.10303 -1.68509 0
M  V30 10577 C 1025.97 1.61202 -3.06944 0
M  V30 10578 C 1025.03 1.03543 -4.16626 0
M  V30 10579 C 1024.26 2.10578 -4.904 0
M  V30 10580 O 1024.49 3.31697 -4.6404 0
M  V30 10581 O 1023.42 1.73609 -5.76319 0
M  V30 10582 H 1027.25 -0.131789 -3.03414 0
M  V30 10583 H 1024.83 -0.130421 -1.4883 0
M  V30 10584 H 1026.71 2.26546 -3.55324 0
M  V30 10585 H 1025.39 2.21732 -2.35832 0
M  V30 10586 H 1024.29 0.345892 -3.72498 0
M  V30 10587 H 1025.63 0.474687 -4.89906 0
M  V30 10588 N 1027.28 1.57312 -0.0952337 0
M  V30 10589 C 1028.21 2.17056 0.860753 0
M  V30 10590 C 1029.19 1.10394 1.29411 0
M  V30 10591 O 1030.38 1.38532 1.36098 0
M  V30 10592 C 1027.51 2.751 2.11984 0
M  V30 10593 C 1026.46 3.87136 1.8251 0
M  V30 10594 C 1025.79 4.31883 3.15247 0
M  V30 10595 C 1027.09 5.10326 1.11194 0
M  V30 10596 H 1028.78 2.97192 0.362983 0
M  V30 10597 H 1026.33 1.42955 0.173151 0
M  V30 10598 H 1028.28 3.15547 2.79299 0
M  V30 10599 H 1027 1.92219 2.64044 0
M  V30 10600 H 1025.66 3.47229 1.17592 0
M  V30 10601 H 1025.31 3.45893 3.65195 0
M  V30 10602 H 1025.01 5.0742 2.96309 0
M  V30 10603 H 1026.53 4.74964 3.83721 0
M  V30 10604 H 1027.95 5.47942 1.6862 0
M  V30 10605 H 1026.34 5.91293 1.02435 0
M  V30 10606 H 1027.41 4.84807 0.0947227 0
M  V30 10607 N 1028.76 -0.17846 1.56586 0
M  V30 10608 C 1030 -0.897562 1.81856 0
M  V30 10609 C 1030.34 -1.82204 0.671955 0
M  V30 10610 O 1029.61 -1.91739 -0.326535 0
M  V30 10611 C 1029.89 -1.69942 3.17477 0
M  V30 10612 C 1029.75 -0.798545 4.42655 0
M  V30 10613 C 1031.07 -2.66861 3.49962 0
M  V30 10614 H 1028.19 -0.324863 0.661539 0
M  V30 10615 H 1030.83 -0.164106 1.8929 0
M  V30 10616 H 1028.98 -2.32471 3.11271 0
M  V30 10617 H 1030.65 -0.18668 4.60922 0
M  V30 10618 H 1028.89 -0.106181 4.3367 0
M  V30 10619 H 1029.56 -1.39496 5.34083 0
M  V30 10620 H 1032.04 -2.1446 3.56576 0
M  V30 10621 H 1030.92 -3.20037 4.45946 0
M  V30 10622 H 1031.18 -3.46715 2.74301 0
M  V30 10623 N 1030.24 -1.51135 -0.446768 0
M  V30 10624 C 1031.15 -1.74595 -1.56696 0
M  V30 10625 C 1032.16 -0.629816 -1.62201 0
M  V30 10626 O 1033.34 -0.910987 -1.79619 0
M  V30 10627 C 1030.4 -1.85738 -2.9275 0
M  V30 10628 C 1029.46 -3.09564 -2.97437 0
M  V30 10629 C 1028.7 -3.20165 -4.27001 0
M  V30 10630 O 1028.92 -2.36939 -5.1886 0
M  V30 10631 O 1027.85 -4.13077 -4.3778 0
M  V30 10632 H 1031.68 -2.69601 -1.39817 0
M  V30 10633 H 1029.26 -1.35523 -0.628805 0
M  V30 10634 H 1031.15 -1.95107 -3.73512 0
M  V30 10635 H 1029.82 -0.939184 -3.09776 0
M  V30 10636 H 1028.73 -3.05679 -2.15664 0
M  V30 10637 H 1030.06 -4.01041 -2.85353 0
M  V30 10638 N 1031.71 0.701592 -1.41122 0
M  V30 10639 C 1033.12 1.28129 -1.35793 0
M  V30 10640 C 1033.48 1.96163 -0.0381185 0
M  V30 10641 O 1032.6 1.98416 0.863723 0
M  V30 10642 C 1033.2 2.33005 -2.45955 0
M  V30 10643 C 1031.75 2.86566 -2.44043 0
M  V30 10644 C 1030.9 1.60526 -2.26112 0
M  V30 10645 H 1033.85 0.496756 -1.50725 0
M  V30 10646 H 1033.87 3.14163 -2.14667 0
M  V30 10647 H 1033.39 1.8346 -3.42 0
M  V30 10648 H 1031.49 3.40304 -1.51737 0
M  V30 10649 H 1031.6 3.37406 -3.40138 0
M  V30 10650 H 1029.96 1.86113 -1.7388 0
M  V30 10651 H 1030.75 1.12985 -3.24175 0
M  V30 10652 N 1033.19 1.2685 0.935242 0
M  V30 10653 C 1034.12 1.1143 2.05196 0
M  V30 10654 C 1035.1 0.0178362 1.70091 0
M  V30 10655 O 1036.29 0.190951 1.93259 0
M  V30 10656 C 1033.42 0.752779 3.39044 0
M  V30 10657 C 1032.37 1.80164 3.88233 0
M  V30 10658 C 1031.7 1.29428 5.18799 0
M  V30 10659 C 1033 3.20431 4.12457 0
M  V30 10660 H 1034.69 2.04845 2.18355 0
M  V30 10661 H 1032.24 0.986276 1.04922 0
M  V30 10662 H 1034.19 0.631757 4.16637 0
M  V30 10663 H 1032.91 -0.217075 3.25878 0
M  V30 10664 H 1031.57 1.91144 3.12825 0
M  V30 10665 H 1031.22 0.3141 5.02018 0
M  V30 10666 H 1030.92 1.99546 5.5268 0
M  V30 10667 H 1032.45 1.18605 5.9897 0
M  V30 10668 H 1033.86 3.12495 4.80645 0
M  V30 10669 H 1032.26 3.88193 4.57631 0
M  V30 10670 H 1033.33 3.66046 3.18023 0
M  V30 10671 N 1034.67 -1.14067 1.0875 0
M  V30 10672 C 1035.9 -1.89041 0.840902 0
M  V30 10673 C 1036.31 -1.78768 -0.60725 0
M  V30 10674 O 1035.67 -1.14945 -1.41753 0
M  V30 10675 C 1035.72 -3.38891 1.25838 0
M  V30 10676 O 1035.44 -3.48886 2.64972 0
M  V30 10677 C 1036.94 -4.30852 1.04315 0
M  V30 10678 H 1034.16 -0.598685 0.303014 0
M  V30 10679 H 1036.71 -1.44438 1.44769 0
M  V30 10680 H 1034.86 -3.81103 0.695627 0
M  V30 10681 H 1035.28 -4.41989 2.82393 0
M  V30 10682 H 1036.75 -5.34353 1.38461 0
M  V30 10683 H 1037.23 -4.39196 -0.0195784 0
M  V30 10684 H 1037.83 -3.944 1.59151 0
M  V30 10685 N 1036.15 -0.873678 -1.31166 0
M  V30 10686 C 1037.56 -0.53852 -1.78765 0
M  V30 10687 C 1037.91 0.944765 -1.71955 0
M  V30 10688 O 1037.04 1.73781 -1.28954 0
M  V30 10689 C 1037.63 -0.970749 -3.24595 0
M  V30 10690 C 1036.19 -0.687189 -3.70074 0
M  V30 10691 C 1035.34 -1.16001 -2.51871 0
M  V30 10692 H 1038.29 -1.05903 -1.18196 0
M  V30 10693 H 1038.31 -0.294966 -3.79355 0
M  V30 10694 H 1037.82 -2.05034 -3.29519 0
M  V30 10695 H 1035.92 0.380881 -3.70648 0
M  V30 10696 H 1036.03 -1.26682 -4.62048 0
M  V30 10697 H 1034.4 -0.579663 -2.48016 0
M  V30 10698 H 1035.18 -2.2471 -2.59539 0
M  V30 10699 N 1037.63 1.44308 -0.633487 0
M  V30 10700 C 1038.85 2.06897 -0.144347 0
M  V30 10701 C 1039.28 1.47045 1.173 0
M  V30 10702 O 1038.63 0.572806 1.72013 0
M  V30 10703 C 1038.68 3.60571 -0.0456324 0
M  V30 10704 O 1037.79 4.0015 0.997682 0
M  V30 10705 H 1037.13 0.658427 -0.0858499 0
M  V30 10706 H 1039.66 1.85142 -0.870833 0
M  V30 10707 H 1039.67 4.07745 0.144178 0
M  V30 10708 H 1038.34 4.03515 -1.0074 0
M  V30 10709 H 1036.92 3.64603 0.782252 0
M  V30 10710 N 1039.1 0.374177 1.53094 0
M  V30 10711 C 1040.35 -0.212396 2.00981 0
M  V30 10712 C 1040.67 -1.48576 1.26293 0
M  V30 10713 O 1039.94 -1.92206 0.378642 0
M  V30 10714 H 1038.52 -0.0814763 0.742543 0
M  V30 10715 H 1041.19 0.502389 1.88314 0
M  V30 10716 H 1040.28 -0.433316 3.09077 0
M  V30 10717 N 1040.58 -1.57259 0.103575 0
M  V30 10718 C 1041.55 -2.13337 -0.837859 0
M  V30 10719 C 1042.55 -1.06459 -1.20512 0
M  V30 10720 O 1043.74 -1.32307 -1.13316 0
M  V30 10721 C 1040.87 -2.66093 -2.13089 0
M  V30 10722 H 1042.06 -2.97842 -0.350775 0
M  V30 10723 H 1039.61 -1.55621 -0.145511 0
M  V30 10724 H 1040.35 -1.85133 -2.66264 0
M  V30 10725 H 1040.13 -3.44244 -1.87719 0
M  V30 10726 H 1041.62 -3.09443 -2.80419 0
M  V30 10727 N 1042.06 0.170153 -1.56679 0
M  V30 10728 C 1042.99 1.23945 -1.91606 0
M  V30 10729 C 1043.97 1.42725 -0.779004 0
M  V30 10730 O 1045.16 1.57712 -1.03243 0
M  V30 10731 C 1042.28 2.60222 -2.168 0
M  V30 10732 C 1041.33 2.58172 -3.39484 0
M  V30 10733 S 1042.16 2.0714 -4.93815 0
M  V30 10734 C 1043.32 3.45192 -5.22105 0
M  V30 10735 H 1043.55 0.941345 -2.82004 0
M  V30 10736 H 1041.08 0.374771 -1.49783 0
M  V30 10737 H 1043.04 3.38656 -2.31996 0
M  V30 10738 H 1041.7 2.87232 -1.27107 0
M  V30 10739 H 1040.9 3.58435 -3.54317 0
M  V30 10740 H 1040.5 1.87834 -3.2341 0
M  V30 10741 H 1042.79 4.41194 -5.14154 0
M  V30 10742 H 1043.73 3.35233 -6.23718 0
M  V30 10743 H 1044.14 3.41257 -4.49671 0
M  V30 10744 N 1043.54 1.5137 0.438746 0
M  V30 10745 C 1044.95 1.56462 1.01866 0
M  V30 10746 C 1045.3 0.387244 1.9234 0
M  V30 10747 O 1044.43 -0.496131 2.10636 0
M  V30 10748 C 1045.02 2.83557 1.85421 0
M  V30 10749 C 1043.58 2.91224 2.38464 0
M  V30 10750 C 1042.73 2.51109 1.17641 0
M  V30 10751 H 1045.68 1.57167 0.220072 0
M  V30 10752 H 1045.7 2.6724 2.70857 0
M  V30 10753 H 1045.21 3.69229 1.19546 0
M  V30 10754 H 1043.31 2.09979 3.07798 0
M  V30 10755 H 1043.42 3.94844 2.71358 0
M  V30 10756 H 1041.79 2.04276 1.5213 0
M  V30 10757 H 1042.57 3.39125 0.533785 0
M  V30 10758 N 1045.02 -0.694098 1.41492 0
M  V30 10759 C 1045.96 -1.82932 1.43662 0
M  V30 10760 C 1046.96 -1.66455 0.31449 0
M  V30 10761 O 1048.16 -1.73298 0.486589 0
M  V30 10762 H 1044.54 -0.602847 0.449533 0
M  V30 10763 H 1046.51 -1.78218 2.39334 0
M  V30 10764 C 1045.26 -3.20962 1.33712 0
M  V30 10765 H 1044.58 -3.34257 2.19345 0
M  V30 10766 H 1046.02 -4.00467 1.39291 0
M  V30 10767 C 1044.48 -3.36863 0.0496332 0
M  V30 10768 O 1045.01 -3.91371 -0.905093 0
M  V30 10769 N 1043.22 -2.90588 -0.0269299 0
M  V30 10770 H 1042.76 -2.46417 0.750752 0
M  V30 10771 H 1042.72 -3.01605 -0.887781 0
M  V30 10772 N 1046.49 -1.27344 -0.928501 0
M  V30 10773 C 1047.43 -1.05797 -2.03322 0
M  V30 10774 C 1048.44 -0.0143086 -1.62794 0
M  V30 10775 O 1049.63 -0.25578 -1.76658 0
M  V30 10776 C 1046.73 -0.582673 -3.33853 0
M  V30 10777 C 1045.9 -1.69844 -4.03078 0
M  V30 10778 C 1044.96 -1.21902 -5.11885 0
M  V30 10779 O 1043.99 -1.91853 -5.35893 0
M  V30 10780 N 1045.19 -0.0742392 -5.80453 0
M  V30 10781 H 1047.95 -2.00928 -2.22369 0
M  V30 10782 H 1045.51 -1.189 -1.09883 0
M  V30 10783 H 1047.51 -0.245862 -4.03952 0
M  V30 10784 H 1046.08 0.27539 -3.11385 0
M  V30 10785 H 1045.3 -2.20557 -3.26723 0
M  V30 10786 H 1046.58 -2.4473 -4.46077 0
M  V30 10787 H 1045.98 0.509631 -5.634 0
M  V30 10788 H 1044.54 0.203399 -6.51483 0
M  V30 10789 N 1047.97 1.13488 -1.09353 0
M  V30 10790 C 1048.94 2.17066 -0.735863 0
M  V30 10791 C 1049.94 1.59086 0.234181 0
M  V30 10792 O 1051.13 1.74196 0.012463 0
M  V30 10793 C 1048.26 3.40786 -0.0880975 0
M  V30 10794 H 1049.45 2.50221 -1.65316 0
M  V30 10795 H 1047 1.28304 -0.89263 0
M  V30 10796 H 1047.74 3.1322 0.840462 0
M  V30 10797 H 1047.52 3.8414 -0.786073 0
M  V30 10798 H 1049.01 4.17342 0.146775 0
M  V30 10799 N 1049.45 0.880621 1.30701 0
M  V30 10800 C 1050.38 0.301443 2.27209 0
M  V30 10801 C 1051.4 -0.541533 1.53529 0
M  V30 10802 O 1052.59 -0.361791 1.74795 0
M  V30 10803 C 1049.69 -0.59038 3.33718 0
M  V30 10804 C 1048.86 0.222549 4.36833 0
M  V30 10805 C 1047.92 -0.599083 5.22779 0
M  V30 10806 O 1046.94 -0.0233267 5.69195 0
M  V30 10807 N 1048.15 -1.90904 5.48211 0
M  V30 10808 H 1050.91 1.13083 2.77547 0
M  V30 10809 H 1048.47 0.743168 1.43835 0
M  V30 10810 H 1050.46 -1.14599 3.88135 0
M  V30 10811 H 1049.03 -1.32044 2.83343 0
M  V30 10812 H 1048.25 0.959606 3.82342 0
M  V30 10813 H 1049.54 0.779965 5.02786 0
M  V30 10814 H 1048.94 -2.3998 5.12275 0
M  V30 10815 H 1047.5 -2.4122 6.05521 0
M  V30 10816 N 1050.93 -1.4397 0.641131 0
M  V30 10817 C 1051.86 -2.27948 -0.10731 0
M  V30 10818 C 1052.84 -1.39124 -0.841615 0
M  V30 10819 O 1054.02 -1.68566 -0.843662 0
M  V30 10820 C 1051.15 -3.18277 -1.15835 0
M  V30 10821 C 1050.2 -4.23276 -0.52345 0
M  V30 10822 S 1051.03 -5.30984 0.693969 0
M  V30 10823 C 1052.19 -6.24882 -0.356831 0
M  V30 10824 H 1052.42 -2.91077 0.605083 0
M  V30 10825 H 1049.95 -1.48303 0.429598 0
M  V30 10826 H 1051.91 -3.70867 -1.75977 0
M  V30 10827 H 1050.57 -2.54348 -1.84299 0
M  V30 10828 H 1049.76 -4.86533 -1.31536 0
M  V30 10829 H 1049.37 -3.74 0.00358355 0
M  V30 10830 H 1051.66 -6.66305 -1.22653 0
M  V30 10831 H 1052.6 -7.07692 0.240412 0
M  V30 10832 H 1053.01 -5.60301 -0.687217 0
M  V30 10833 N 1052.41 -0.382291 -1.52893 0
M  V30 10834 C 1053.82 -0.031941 -1.59568 0
M  V30 10835 C 1054.02 1.45245 -1.39664 0
M  V30 10836 O 1053.08 2.21612 -1.21013 0
M  V30 10837 C 1054.39 -0.502846 -2.96466 0
M  V30 10838 C 1055.94 -0.4585 -3.09624 0
M  V30 10839 C 1056.42 -0.905481 -4.4896 0
M  V30 10840 N 1057.91 -0.861211 -4.55124 0
M  V30 10841 C 1058.64 -1.17856 -5.61157 0
M  V30 10842 N 1058.14 -1.56603 -6.74868 0
M  V30 10843 N 1059.93 -1.10027 -5.51226 0
M  V30 10844 H 1052.08 -1.34875 -1.64081 0
M  V30 10845 H 1054.34 -0.552375 -0.770446 0
M  V30 10846 H 1054.05 -1.53931 -3.16225 0
M  V30 10847 H 1053.92 0.101777 -3.77063 0
M  V30 10848 H 1056.31 0.568868 -2.89565 0
M  V30 10849 H 1056.39 -1.09884 -2.30996 0
M  V30 10850 H 1056.04 -1.93105 -4.69759 0
M  V30 10851 H 1055.97 -0.242227 -5.26043 0
M  V30 10852 H 1058.46 -0.575988 -3.73485 0
M  V30 10853 H 1058.77 -1.792 -7.51736 0
M  V30 10854 H 1057.12 -1.60484 -6.76217 0
M  V30 10855 H 1060.31 -0.796623 -4.61272 0
M  V30 10856 H 1060.48 -1.35091 -6.33762 0
M  V30 10857 N 1053.89 1.57202 -0.111913 0
M  V30 10858 C 1055.13 1.94125 0.547573 0
M  V30 10859 C 1055.45 0.997026 1.68282 0
M  V30 10860 O 1056.65 1.26063 2.40459 0
M  V30 10861 C 1055.11 3.44982 1.02545 0
M  V30 10862 C 1054.72 4.47927 -0.0809529 0
M  V30 10863 C 1056.46 3.90837 1.65671 0
M  V30 10864 C 1054.37 5.89955 0.413224 0
M  V30 10865 H 1053.3 0.724651 0.208321 0
M  V30 10866 H 1055.95 1.82507 -0.190625 0
M  V30 10867 H 1054.33 3.5181 1.81785 0
M  V30 10868 H 1055.51 4.52761 -0.857003 0
M  V30 10869 H 1053.82 4.11782 -0.618434 0
M  V30 10870 H 1056.42 4.9436 2.03746 0
M  V30 10871 H 1056.76 3.30417 2.53239 0
M  V30 10872 H 1057.29 3.8678 0.929844 0
M  V30 10873 H 1054.03 6.54113 -0.426238 0
M  V30 10874 H 1053.55 5.88557 1.15591 0
M  V30 10875 H 1055.23 6.41032 0.876756 0
M  V30 10876 N 1055.36 -0.161842 1.56767 0
M  V30 10877 C 1056.29 -1.20226 2.0017 0
M  V30 10878 C 1057.27 -1.4564 0.878807 0
M  V30 10879 O 1058.46 -1.56813 1.14557 0
M  V30 10880 C 1055.59 -2.53897 2.36968 0
M  V30 10881 C 1054.54 -2.43033 3.52305 0
M  V30 10882 C 1053.87 -3.81281 3.74872 0
M  V30 10883 C 1055.17 -1.927 4.85453 0
M  V30 10884 H 1056.86 -0.84142 2.87333 0
M  V30 10885 H 1054.41 -0.403309 1.38237 0
M  V30 10886 H 1056.36 -3.26893 2.6593 0
M  V30 10887 H 1055.09 -2.91787 1.46724 0
M  V30 10888 H 1053.75 -1.7249 3.23485 0
M  V30 10889 H 1053.39 -4.1658 2.81904 0
M  V30 10890 H 1053.09 -3.74877 4.52483 0
M  V30 10891 H 1054.62 -4.55848 4.06245 0
M  V30 10892 H 1056.03 -2.55477 5.13229 0
M  V30 10893 H 1054.43 -1.97222 5.66766 0
M  V30 10894 H 1055.5 -0.881816 4.76814 0
M  V30 10895 N 1056.84 -1.516 -0.430713 0
M  V30 10896 C 1057.79 -1.73392 -1.52328 0
M  V30 10897 C 1058.76 -0.575758 -1.55802 0
M  V30 10898 O 1059.94 -0.810931 -1.72709 0
M  V30 10899 C 1057.08 -1.87092 -2.89984 0
M  V30 10900 C 1056.2 -3.14668 -2.95987 0
M  V30 10901 C 1055.33 -3.18923 -4.24807 0
M  V30 10902 C 1054.37 -4.40787 -4.24703 0
M  V30 10903 N 1053.51 -4.42556 -5.45059 0
M  V30 10904 H 1058.35 -2.6665 -1.33048 0
M  V30 10905 H 1055.88 -1.32146 -0.646207 0
M  V30 10906 H 1057.84 -1.93017 -3.69865 0
M  V30 10907 H 1056.47 -0.972363 -3.07807 0
M  V30 10908 H 1055.52 -3.1802 -2.08728 0
M  V30 10909 H 1056.84 -4.04562 -2.91772 0
M  V30 10910 H 1055.99 -3.23801 -5.13067 0
M  V30 10911 H 1054.73 -2.2693 -4.31688 0
M  V30 10912 H 1053.73 -4.36079 -3.34836 0
M  V30 10913 H 1054.96 -5.34053 -4.19481 0
M  V30 10914 H 1052.91 -3.53435 -5.52648 0
M  V30 10915 H 1052.82 -5.26267 -5.42751 0
M  V30 10916 H 1054.09 -4.51634 -6.35332 0
M  V30 10917 N 1058.32 0.686584 -1.41858 0
M  V30 10918 C 1059.23 1.83002 -1.46791 0
M  V30 10919 C 1060.25 1.70284 -0.357675 0
M  V30 10920 O 1061.42 1.92042 -0.606781 0
M  V30 10921 C 1058.49 3.19056 -1.35661 0
M  V30 10922 C 1057.55 3.43817 -2.57077 0
M  V30 10923 C 1056.78 4.7338 -2.46469 0
M  V30 10924 O 1057 5.50483 -1.49413 0
M  V30 10925 O 1055.94 4.99124 -3.36391 0
M  V30 10926 H 1059.76 1.81797 -2.43277 0
M  V30 10927 H 1057.35 0.840812 -1.23494 0
M  V30 10928 H 1059.23 4.00267 -1.31773 0
M  V30 10929 H 1057.91 3.20925 -0.422951 0
M  V30 10930 H 1056.81 2.625 -2.66541 0
M  V30 10931 H 1058.15 3.4677 -3.49302 0
M  V30 10932 N 1059.8 1.27835 0.921735 0
M  V30 10933 C 1061.03 1.17352 1.704 0
M  V30 10934 C 1061.44 -0.268892 1.86875 0
M  V30 10935 O 1060.8 -1.18253 1.39005 0
M  V30 10936 C 1060.85 1.85889 3.10045 0
M  V30 10937 O 1060.57 3.24495 2.94338 0
M  V30 10938 C 1062.07 1.81607 4.04393 0
M  V30 10939 H 1059.29 0.40773 0.532914 0
M  V30 10940 H 1061.83 1.68815 1.15419 0
M  V30 10941 H 1059.99 1.38316 3.61867 0
M  V30 10942 H 1060.4 3.58705 3.82663 0
M  V30 10943 H 1061.88 2.34165 4.99871 0
M  V30 10944 H 1062.35 0.786697 4.32097 0
M  V30 10945 H 1062.96 2.28822 3.58498 0
M  V30 10946 N 1061.28 -1.12907 1.09954 0
M  V30 10947 C 1062.19 -2.22082 0.756095 0
M  V30 10948 C 1063.2 -1.72277 -0.244272 0
M  V30 10949 O 1064.38 -2.01224 -0.0842637 0
M  V30 10950 C 1061.44 -3.46192 0.187642 0
M  V30 10951 C 1060.5 -4.10861 1.24465 0
M  V30 10952 C 1059.74 -5.29047 0.703227 0
M  V30 10953 O 1059.96 -5.68443 -0.472043 0
M  V30 10954 O 1058.89 -5.83904 1.46082 0
M  V30 10955 H 1062.72 -2.53842 1.66727 0
M  V30 10956 H 1060.3 -1.21145 0.874316 0
M  V30 10957 H 1062.19 -4.21212 -0.125774 0
M  V30 10958 H 1060.86 -3.16119 -0.696459 0
M  V30 10959 H 1059.77 -3.37643 1.61085 0
M  V30 10960 H 1061.1 -4.45078 2.10159 0
M  V30 10961 N 1062.75 -0.88754 -1.30232 0
M  V30 10962 C 1063.68 -0.372481 -2.3051 0
M  V30 10963 C 1064.66 0.546037 -1.61098 0
M  V30 10964 O 1065.85 0.459345 -1.88689 0
M  V30 10965 C 1062.98 0.411605 -3.44852 0
M  V30 10966 C 1061.93 -0.415383 -4.2598 0
M  V30 10967 C 1061.26 0.495463 -5.324 0
M  V30 10968 C 1062.56 -1.65886 -4.95257 0
M  V30 10969 H 1064.25 -1.21045 -2.7384 0
M  V30 10970 H 1061.8 -0.583498 -1.31648 0
M  V30 10971 H 1063.75 0.782584 -4.1407 0
M  V30 10972 H 1062.48 1.28325 -3.00334 0
M  V30 10973 H 1061.14 -0.768534 -3.58454 0
M  V30 10974 H 1060.78 1.36489 -4.84128 0
M  V30 10975 H 1060.48 -0.0540885 -5.87575 0
M  V30 10976 H 1062.01 0.862901 -6.04472 0
M  V30 10977 H 1063.42 -1.35832 -5.56976 0
M  V30 10978 H 1061.82 -2.14881 -5.60309 0
M  V30 10979 H 1062.89 -2.40181 -4.21237 0
M  V30 10980 N 1064.23 1.43628 -0.648757 0
M  V30 10981 C 1065.65 1.56442 -0.315921 0
M  V30 10982 C 1065.85 1.63322 1.18018 0
M  V30 10983 O 1064.9 1.58585 1.96487 0
M  V30 10984 C 1066.22 2.82751 -1.02335 0
M  V30 10985 C 1067.77 2.96488 -1.00318 0
M  V30 10986 C 1068.24 4.25623 -1.69142 0
M  V30 10987 N 1069.73 4.32477 -1.65885 0
M  V30 10988 C 1070.47 5.31154 -2.16016 0
M  V30 10989 N 1069.96 6.36135 -2.74415 0
M  V30 10990 N 1071.76 5.22778 -2.06541 0
M  V30 10991 H 1063.91 1.37405 -1.61968 0
M  V30 10992 H 1066.17 0.65962 -0.680886 0
M  V30 10993 H 1065.88 2.83714 -2.07844 0
M  V30 10994 H 1065.75 3.72836 -0.572114 0
M  V30 10995 H 1068.14 2.95068 0.0434919 0
M  V30 10996 H 1068.22 2.07704 -1.49307 0
M  V30 10997 H 1067.86 4.27804 -2.73763 0
M  V30 10998 H 1067.79 5.13296 -1.17622 0
M  V30 10999 H 1070.28 3.57232 -1.23264 0
M  V30 11000 H 1070.6 7.07743 -3.10355 0
M  V30 11001 H 1068.94 6.36771 -2.78474 0
M  V30 11002 H 1072.13 4.39678 -1.60625 0
M  V30 11003 H 1072.3 5.99523 -2.45919 0
M  V30 11004 N 1065.71 0.390394 1.52688 0
M  V30 11005 C 1066.66 -0.444229 2.26485 0
M  V30 11006 C 1067.63 -1.05688 1.28138 0
M  V30 11007 O 1068.81 -1.0847 1.56968 0
M  V30 11008 C 1065.95 -1.56501 3.07574 0
M  V30 11009 C 1065.07 -0.975111 4.20851 0
M  V30 11010 C 1064.2 -2.06704 4.89333 0
M  V30 11011 C 1063.24 -1.45309 5.94602 0
M  V30 11012 N 1062.38 -2.48437 6.56676 0
M  V30 11013 H 1067.22 0.191535 2.97384 0
M  V30 11014 H 1064.75 0.106287 1.46716 0
M  V30 11015 H 1066.71 -2.22558 3.52879 0
M  V30 11016 H 1065.34 -2.17107 2.38881 0
M  V30 11017 H 1064.39 -0.204109 3.79852 0
M  V30 11018 H 1065.71 -0.486465 4.96422 0
M  V30 11019 H 1064.86 -2.80528 5.37949 0
M  V30 11020 H 1063.6 -2.58928 4.13289 0
M  V30 11021 H 1062.6 -0.700091 5.45324 0
M  V30 11022 H 1063.83 -0.938775 6.7258 0
M  V30 11023 H 1061.77 -2.99829 5.83471 0
M  V30 11024 H 1061.69 -2.04331 7.27863 0
M  V30 11025 H 1062.96 -3.21888 7.09935 0
M  V30 11026 N 1067.19 -1.57141 0.120249 0
M  V30 11027 C 1068.43 -1.95527 -0.538245 0
M  V30 11028 C 1068.77 -1.00373 -1.6625 0
M  V30 11029 O 1068.04 -0.0411734 -1.94456 0
M  V30 11030 C 1068.33 -3.43843 -1.06976 0
M  V30 11031 C 1068.18 -4.49771 0.0511596 0
M  V30 11032 C 1069.5 -3.94035 -1.96022 0
M  V30 11033 H 1066.62 -0.710958 -0.194183 0
M  V30 11034 H 1069.26 -1.88986 0.196061 0
M  V30 11035 H 1067.41 -3.49548 -1.69553 0
M  V30 11036 H 1069.08 -4.56163 0.686503 0
M  V30 11037 H 1067.32 -4.27882 0.714127 0
M  V30 11038 H 1067.99 -5.50812 -0.361995 0
M  V30 11039 H 1070.47 -3.9064 -1.43315 0
M  V30 11040 H 1069.35 -4.98329 -2.3013 0
M  V30 11041 H 1069.61 -3.34803 -2.8872 0
M  V30 11042 N 1068.67 0.153526 -1.5685 0
M  V30 11043 C 1069.61 1.18973 -1.97773 0
M  V30 11044 C 1070.58 1.43041 -0.844311 0
M  V30 11045 O 1071.77 1.55484 -1.10586 0
M  V30 11046 C 1068.91 2.51981 -2.35795 0
M  V30 11047 C 1068.02 2.35143 -3.62397 0
M  V30 11048 C 1067.16 3.61141 -3.89552 0
M  V30 11049 C 1066.2 3.39311 -5.09445 0
M  V30 11050 N 1065.33 4.57423 -5.32643 0
M  V30 11051 H 1070.17 0.833758 -2.86099 0
M  V30 11052 H 1067.71 0.400252 -1.4155 0
M  V30 11053 H 1069.67 3.29527 -2.55867 0
M  V30 11054 H 1068.3 2.85539 -1.50557 0
M  V30 11055 H 1067.35 1.48684 -3.50139 0
M  V30 11056 H 1068.66 2.14969 -4.501 0
M  V30 11057 H 1067.82 4.47117 -4.10087 0
M  V30 11058 H 1066.55 3.84312 -3.00259 0
M  V30 11059 H 1065.56 2.51723 -4.8879 0
M  V30 11060 H 1066.78 3.17545 -6.00285 0
M  V30 11061 H 1064.73 4.8078 -4.46303 0
M  V30 11062 H 1064.65 4.40228 -6.14602 0
M  V30 11063 H 1065.92 5.44632 -5.57671 0
M  V30 11064 N 1070.14 1.51827 0.422667 0
M  V30 11065 C 1071.39 1.65464 1.17258 0
M  V30 11066 C 1071.72 0.376834 1.90509 0
M  V30 11067 O 1071 -0.624219 1.84211 0
M  V30 11068 C 1071.28 2.86776 2.17788 0
M  V30 11069 C 1071.13 4.24571 1.48523 0
M  V30 11070 C 1072.45 3.03603 3.18611 0
M  V30 11071 H 1069.57 0.602169 0.424925 0
M  V30 11072 H 1072.21 1.84349 0.45996 0
M  V30 11073 H 1070.36 2.70806 2.78561 0
M  V30 11074 H 1072.04 4.5224 0.909739 0
M  V30 11075 H 1070.28 4.26595 0.787354 0
M  V30 11076 H 1070.95 5.05475 2.2181 0
M  V30 11077 H 1073.43 3.18381 2.67904 0
M  V30 11078 H 1072.3 3.90022 3.8623 0
M  V30 11079 H 1072.56 2.16318 3.85563 0
M  V30 11080 N 1071.62 -0.679052 1.4222 0
M  V30 11081 C 1072.55 -1.80481 1.48152 0
M  V30 11082 C 1073.53 -1.66698 0.338502 0
M  V30 11083 O 1074.72 -1.86183 0.552228 0
M  V30 11084 C 1071.85 -3.18746 1.37908 0
M  V30 11085 C 1070.8 -3.47258 2.50192 0
M  V30 11086 C 1070.13 -4.85052 2.25008 0
M  V30 11087 C 1071.43 -3.44576 3.92511 0
M  V30 11088 H 1073.12 -1.75774 2.42371 0
M  V30 11089 H 1070.67 -0.844241 1.16656 0
M  V30 11090 H 1072.62 -3.97229 1.40666 0
M  V30 11091 H 1071.35 -3.24119 0.401806 0
M  V30 11092 H 1070 -2.71133 2.46744 0
M  V30 11093 H 1069.65 -4.8707 1.25584 0
M  V30 11094 H 1069.35 -5.05092 3.00259 0
M  V30 11095 H 1070.88 -5.65825 2.29508 0
M  V30 11096 H 1072.29 -4.13036 3.97585 0
M  V30 11097 H 1070.69 -3.76151 4.67579 0
M  V30 11098 H 1071.76 -2.4323 4.19484 0
M  V30 11099 N 1073.1 -1.28322 -0.914942 0
M  V30 11100 C 1074.35 -1.15179 -1.66067 0
M  V30 11101 C 1074.67 0.300279 -1.92674 0
M  V30 11102 O 1073.94 1.20821 -1.54205 0
M  V30 11103 H 1072.52 -0.423264 -0.615513 0
M  V30 11104 H 1075.18 -1.61034 -1.09791 0
M  V30 11105 H 1074.28 -1.69048 -2.62353 0
M  V30 11106 N 1074.58 1.12322 -1.10551 0
M  V30 11107 C 1075.8 1.8822 -0.871093 0
M  V30 11108 C 1076.23 1.7916 0.573005 0
M  V30 11109 O 1075.59 1.14738 1.40374 0
M  V30 11110 C 1075.63 3.35349 -1.32565 0
M  V30 11111 O 1074.74 4.09461 -0.49145 0
M  V30 11112 H 1074.08 0.584787 -0.314516 0
M  V30 11113 H 1076.61 1.42039 -1.47262 0
M  V30 11114 H 1076.62 3.86189 -1.31612 0
M  V30 11115 H 1075.29 3.4126 -2.37728 0
M  V30 11116 H 1073.87 3.68575 -0.566294 0
M  V30 11117 N 1076.06 0.894434 1.2976 0
M  V30 11118 C 1077.3 0.516646 1.95385 0
M  V30 11119 C 1077.63 -0.939141 1.70895 0
M  V30 11120 O 1076.9 -1.66153 1.03778 0
M  V30 11121 H 1075.48 0.188072 0.722937 0
M  V30 11122 H 1078.14 1.13958 1.58113 0
M  V30 11123 H 1077.23 0.694819 3.04267 0
M  V30 11124 N 1077.53 -1.43282 0.656365 0
M  V30 11125 C 1078.5 -2.29188 -0.0239173 0
M  V30 11126 C 1079.5 -1.42373 -0.747436 0
M  V30 11127 O 1080.69 -1.63969 -0.588213 0
M  V30 11128 C 1077.82 -3.24501 -1.0446 0
M  V30 11129 H 1079.01 -2.9083 0.731978 0
M  V30 11130 H 1076.57 -1.50614 0.417752 0
M  V30 11131 H 1077.3 -2.6776 -1.82962 0
M  V30 11132 H 1077.09 -3.88509 -0.52942 0
M  V30 11133 H 1078.58 -3.88971 -1.51958 0
M  V30 11134 N 1079.01 -0.398486 -1.52479 0
M  V30 11135 C 1080.26 0.180752 -2.01692 0
M  V30 11136 C 1080.59 1.46044 -1.28457 0
M  V30 11137 O 1079.84 1.92051 -0.376162 0
M  V30 11138 C 1080.14 0.485909 -3.54081 0
M  V30 11139 C 1079.81 -0.703321 -4.45381 0
M  V30 11140 C 1078.47 -1.02955 -4.70057 0
M  V30 11141 C 1080.82 -1.49848 -4.99194 0
M  V30 11142 C 1078.15 -2.15231 -5.45795 0
M  V30 11143 C 1080.5 -2.61192 -5.76161 0
M  V30 11144 C 1079.17 -2.94313 -5.99113 0
M  V30 11145 H 1078.44 0.0661417 -0.738042 0
M  V30 11146 H 1081.08 -0.53772 -1.83796 0
M  V30 11147 H 1079.39 1.28582 -3.701 0
M  V30 11148 H 1081.09 0.946872 -3.89661 0
M  V30 11149 H 1077.68 -0.439062 -4.26345 0
M  V30 11150 H 1081.86 -1.25968 -4.80048 0
M  V30 11151 H 1077.12 -2.41252 -5.61789 0
M  V30 11152 H 1081.29 -3.23201 -6.16858 0
M  V30 11153 H 1078.92 -3.81431 -6.57583 0
M  V30 11154 N 1080.49 1.57075 -0.12858 0
M  V30 11155 C 1081.74 1.95134 0.526046 0
M  V30 11156 C 1082.06 1.01337 1.66601 0
M  V30 11157 O 1081.33 0.0714361 1.9577 0
M  V30 11158 H 1079.91 0.720468 0.19732 0
M  V30 11159 H 1082.57 1.93874 -0.199767 0
M  V30 11160 H 1081.67 2.98406 0.914332 0
M  V30 11161 N 1081.97 -0.145205 1.5693 0
M  V30 11162 C 1083.2 -0.872398 1.87608 0
M  V30 11163 C 1083.61 -1.74657 0.716975 0
M  V30 11164 O 1082.97 -1.79792 -0.3132 0
M  V30 11165 C 1083.02 -1.72762 3.17546 0
M  V30 11166 O 1082.74 -0.888681 4.28992 0
M  V30 11167 C 1084.24 -2.56224 3.61751 0
M  V30 11168 H 1081.46 -0.252166 0.621815 0
M  V30 11169 H 1084.01 -0.137456 2.04038 0
M  V30 11170 H 1082.16 -2.41561 3.02865 0
M  V30 11171 H 1082.58 -1.47601 5.03303 0
M  V30 11172 H 1084.05 -3.11804 4.55502 0
M  V30 11173 H 1084.53 -3.32347 2.87127 0
M  V30 11174 H 1085.13 -1.92714 3.79133 0
M  V30 11175 N 1083.45 -1.52049 -0.414609 0
M  V30 11176 C 1084.69 -1.66084 -1.16379 0
M  V30 11177 C 1085.03 -0.386932 -1.90306 0
M  V30 11178 O 1084.3 0.614441 -1.8454 0
M  V30 11179 C 1084.58 -2.87927 -2.16264 0
M  V30 11180 C 1084.44 -4.25353 -1.46269 0
M  V30 11181 C 1085.76 -3.05289 -3.16996 0
M  V30 11182 H 1082.88 -0.604414 -0.421726 0
M  V30 11183 H 1085.52 -1.8459 -0.450177 0
M  V30 11184 H 1083.67 -2.7228 -2.77121 0
M  V30 11185 H 1085.34 -4.52717 -0.885743 0
M  V30 11186 H 1083.58 -4.27006 -0.76472 0
M  V30 11187 H 1084.25 -5.06644 -2.19126 0
M  V30 11188 H 1086.73 -3.19798 -2.66212 0
M  V30 11189 H 1085.61 -3.92065 -3.84156 0
M  V30 11190 H 1085.87 -2.1836 -3.84411 0
M  V30 11191 N 1084.93 0.6715 -1.42579 0
M  V30 11192 C 1086.16 1.4576 -1.46416 0
M  V30 11193 C 1086.56 1.89051 -0.0749843 0
M  V30 11194 O 1085.91 1.58927 0.921296 0
M  V30 11195 C 1085.97 2.7365 -2.33144 0
M  V30 11196 C 1085.63 2.52414 -3.80968 0
M  V30 11197 C 1086.63 2.16804 -4.72538 0
M  V30 11198 C 1084.31 2.67306 -4.25268 0
M  V30 11199 C 1086.31 1.96358 -6.06401 0
M  V30 11200 C 1084 2.46475 -5.5919 0
M  V30 11201 C 1084.99 2.11055 -6.49573 0
M  V30 11202 O 1084.68 1.90428 -7.8102 0
M  V30 11203 H 1084.41 0.454896 -0.500045 0
M  V30 11204 H 1086.97 0.832198 -1.87786 0
M  V30 11205 H 1085.2 3.38684 -1.86629 0
M  V30 11206 H 1086.89 3.35543 -2.28398 0
M  V30 11207 H 1087.65 2.04891 -4.39596 0
M  V30 11208 H 1083.53 2.93854 -3.55206 0
M  V30 11209 H 1087.08 1.68634 -6.76911 0
M  V30 11210 H 1082.97 2.57985 -5.91704 0
M  V30 11211 H 1083.74 2.05 -7.92412 0
M  V30 11212 N 1086.4 1.28806 0.908124 0
M  V30 11213 C 1087.35 1.13215 2.01125 0
M  V30 11214 C 1088.32 0.0277357 1.66077 0
M  V30 11215 O 1089.51 0.193707 1.89814 0
M  V30 11216 C 1086.65 0.805887 3.35558 0
M  V30 11217 C 1085.76 1.9899 3.83441 0
M  V30 11218 C 1084.89 1.60376 5.06412 0
M  V30 11219 C 1083.93 2.75409 5.46641 0
M  V30 11220 N 1083.07 2.37249 6.60801 0
M  V30 11221 H 1087.91 2.07598 2.13792 0
M  V30 11222 H 1085.45 1.03316 1.0471 0
M  V30 11223 H 1087.4 0.597451 4.129 0
M  V30 11224 H 1086.03 -0.101023 3.22642 0
M  V30 11225 H 1085.09 2.31029 3.02208 0
M  V30 11226 H 1086.4 2.85214 4.09212 0
M  V30 11227 H 1085.55 1.35772 5.91313 0
M  V30 11228 H 1084.29 0.712888 4.82462 0
M  V30 11229 H 1083.3 3.00705 4.60279 0
M  V30 11230 H 1084.52 3.65148 5.72577 0
M  V30 11231 H 1082.47 1.50638 6.3847 0
M  V30 11232 H 1082.38 3.17008 6.86325 0
M  V30 11233 H 1083.65 2.15943 7.48992 0
M  V30 11234 N 1087.88 -1.11734 1.11145 0
M  V30 11235 C 1089.13 -1.83043 0.856717 0
M  V30 11236 C 1089.45 -1.84901 -0.619407 0
M  V30 11237 O 1088.72 -1.31738 -1.44989 0
M  V30 11238 H 1087.3 -0.677823 0.31395 0
M  V30 11239 H 1089.96 -1.35262 1.40322 0
M  V30 11240 H 1089.06 -2.87005 1.22616 0
M  V30 11241 N 1089.36 -0.901303 -1.29284 0
M  V30 11242 C 1090.61 -0.52401 -1.94774 0
M  V30 11243 C 1090.92 0.934645 -1.71825 0
M  V30 11244 O 1092.13 1.41953 -2.31434 0
M  V30 11245 C 1090.58 -0.886262 -3.48817 0
M  V30 11246 C 1090.19 -2.3638 -3.80564 0
M  V30 11247 C 1091.94 -0.578955 -4.20533 0
M  V30 11248 C 1089.84 -2.66682 -5.27858 0
M  V30 11249 H 1088.77 -0.192244 -0.72908 0
M  V30 11250 H 1091.42 -1.09852 -1.46986 0
M  V30 11251 H 1089.81 -0.240666 -3.95268 0
M  V30 11252 H 1090.98 -3.05508 -3.44966 0
M  V30 11253 H 1089.29 -2.64029 -3.2199 0
M  V30 11254 H 1091.89 -0.782185 -5.28948 0
M  V30 11255 H 1092.23 0.482605 -4.13493 0
M  V30 11256 H 1092.77 -1.18246 -3.79819 0
M  V30 11257 H 1089.51 -3.71643 -5.39965 0
M  V30 11258 H 1089.03 -2.02179 -5.64698 0
M  V30 11259 H 1090.71 -2.53033 -5.95469 0
M  V30 11260 N 1090.84 1.42931 -0.663954 0
M  V30 11261 C 1092.08 2.02505 -0.190647 0
M  V30 11262 C 1092.44 1.51506 1.18591 0
M  V30 11263 O 1091.73 0.702962 1.78239 0
M  V30 11264 C 1091.93 3.57072 -0.153163 0
M  V30 11265 C 1091.75 4.23069 -1.52454 0
M  V30 11266 C 1090.52 4.58694 -2.11961 0
M  V30 11267 C 1092.72 4.51373 -2.46509 0
M  V30 11268 N 1090.7 5.09818 -3.41993 0
M  V30 11269 C 1092.08 5.03931 -3.61184 0
M  V30 11270 C 1094.13 4.33351 -2.45176 0
M  V30 11271 C 1092.83 5.40362 -4.74765 0
M  V30 11272 C 1094.86 4.70851 -3.57845 0
M  V30 11273 C 1094.22 5.23551 -4.71246 0
M  V30 11274 H 1090.32 0.773581 -0.114438 0
M  V30 11275 H 1092.9 1.73951 -0.874589 0
M  V30 11276 H 1091.08 3.85166 0.500156 0
M  V30 11277 H 1092.81 4.03336 0.332015 0
M  V30 11278 H 1089.56 4.44091 -1.6456 0
M  V30 11279 H 1089.99 5.39821 -4.08561 0
M  V30 11280 H 1094.63 3.91871 -1.58735 0
M  V30 11281 H 1092.35 5.8078 -5.6189 0
M  V30 11282 H 1095.93 4.58593 -3.58028 0
M  V30 11283 H 1094.81 5.52029 -5.56986 0
M  V30 11284 N 1092.32 0.406567 1.52266 0
M  V30 11285 C 1093.56 -0.171391 2.00971 0
M  V30 11286 C 1093.88 -1.46443 1.29668 0
M  V30 11287 O 1095.08 -2.12348 1.69176 0
M  V30 11288 C 1093.54 -0.35599 3.58135 0
M  V30 11289 C 1093.15 0.924803 4.38351 0
M  V30 11290 C 1094.89 -0.889378 4.15079 0
M  V30 11291 C 1092.8 0.707534 5.87152 0
M  V30 11292 H 1091.73 -0.0678253 0.750943 0
M  V30 11293 H 1094.38 0.531619 1.7563 0
M  V30 11294 H 1092.76 -1.12127 3.79794 0
M  V30 11295 H 1093.94 1.69603 4.28452 0
M  V30 11296 H 1092.25 1.38442 3.92712 0
M  V30 11297 H 1094.85 -1.06792 5.23927 0
M  V30 11298 H 1095.19 -1.86334 3.7227 0
M  V30 11299 H 1095.72 -0.183224 3.97378 0
M  V30 11300 H 1092.46 1.65299 6.34316 0
M  V30 11301 H 1091.98 -0.024446 5.99795 0
M  V30 11302 H 1093.66 0.348721 6.4606 0
M  V30 11303 N 1093.79 -1.57004 0.136909 0
M  V30 11304 C 1095.21 -1.82675 -0.385577 0
M  V30 11305 C 1095.56 -1.05508 -1.65416 0
M  V30 11306 O 1094.68 -0.297207 -2.14349 0
M  V30 11307 C 1095.28 -3.31356 -0.706326 0
M  V30 11308 C 1093.84 -3.57644 -1.17337 0
M  V30 11309 C 1092.98 -2.7664 -0.191239 0
M  V30 11310 H 1095.93 -1.54522 0.36177 0
M  V30 11311 H 1095.95 -3.4696 -1.56201 0
M  V30 11312 H 1095.47 -3.87492 0.217147 0
M  V30 11313 H 1093.57 -3.06883 -2.11313 0
M  V30 11314 H 1093.68 -4.66152 -1.10632 0
M  V30 11315 H 1092.04 -2.45403 -0.681867 0
M  V30 11316 H 1092.83 -3.35543 0.725647 0
M  V30 11317 N 1095.27 0.136881 -1.57004 0
M  V30 11318 C 1096.55 0.87705 -1.74835 0
M  V30 11319 C 1096.93 1.98886 -0.707639 0
M  V30 11320 O 1096.28 2.26879 0.271652 0
M  V30 11321 C 1096.49 1.41021 -3.1924 0
M  V30 11322 C 1097.84 1.86963 -3.81222 0
M  V30 11323 O 1098.86 1.5074 -3.22732 0
M  V30 11324 O 1097.72 2.53798 -4.83993 0
M  V30 11325 H 1094.81 0.415192 -0.715223 0
M  V30 11326 H 1097.36 0.122016 -1.69261 0
M  V30 11327 H 1096.13 0.611677 -3.8649 0
M  V30 11328 H 1095.75 2.22846 -3.2928 0
M  V30 11329 N 1096.75 1.52266 0.40654 0
M  V30 11330 C 1098 1.66123 1.15097 0
M  V30 11331 C 1098.32 0.394836 1.90961 0
M  V30 11332 O 1097.59 -0.590349 1.86793 0
M  V30 11333 H 1096.17 0.612317 0.427875 0
M  V30 11334 H 1098.83 1.89318 0.463106 0
M  V30 11335 H 1097.93 2.50351 1.86361 0
M  V30 11336 N 1098.23 -0.663929 1.42933 0
M  V30 11337 C 1099.14 -1.80643 1.49683 0
M  V30 11338 C 1100.15 -1.69694 0.38472 0
M  V30 11339 O 1101.33 -1.91052 0.637256 0
M  V30 11340 C 1098.4 -3.16858 1.4072 0
M  V30 11341 C 1097.46 -3.39684 2.62514 0
M  V30 11342 C 1096.69 -4.69399 2.53969 0
M  V30 11343 O 1096.91 -5.48037 1.58152 0
M  V30 11344 O 1095.85 -4.93709 3.44289 0
M  V30 11345 H 1099.67 -1.77903 2.46138 0
M  V30 11346 H 1097.26 -0.821059 1.24816 0
M  V30 11347 H 1099.14 -3.9812 1.38124 0
M  V30 11348 H 1097.81 -3.20211 0.473954 0
M  V30 11349 H 1096.72 -2.58227 2.70684 0
M  V30 11350 H 1098.05 -3.41169 3.54774 0
M  V30 11351 N 1099.71 -1.29285 -0.901281 0
M  V30 11352 C 1100.65 -1.14159 -2.02659 0
M  V30 11353 C 1101.65 -0.0575887 -1.69302 0
M  V30 11354 O 1102.85 -0.217273 -1.78684 0
M  V30 11355 H 1099.23 -0.352584 -0.66422 0
M  V30 11356 H 1101.2 -2.09434 -2.12555 0
M  V30 11357 C 1099.95 -0.833253 -3.37568 0
M  V30 11358 H 1099.27 -1.65939 -3.63737 0
M  V30 11359 H 1100.71 -0.767436 -4.16997 0
M  V30 11360 C 1099.17 0.46344 -3.33697 0
M  V30 11361 O 1099.7 1.48998 -3.73045 0
M  V30 11362 N 1097.91 0.468709 -2.86795 0
M  V30 11363 H 1097.45 -0.36712 -2.54971 0
M  V30 11364 H 1097.41 1.3363 -2.84588 0
M  V30 11365 N 1101.18 1.11143 -1.11736 0
M  V30 11366 C 1102.43 1.83219 -0.869413 0
M  V30 11367 C 1102.76 1.84588 0.603402 0
M  V30 11368 O 1102.04 1.30119 1.44566 0
M  V30 11369 C 1102.32 3.30247 -1.43559 0
M  V30 11370 C 1102.17 3.37253 -2.97624 0
M  V30 11371 C 1103.49 4.26412 -1.08907 0
M  V30 11372 H 1100.61 0.665205 -0.317286 0
M  V30 11373 H 1103.25 1.30307 -1.38275 0
M  V30 11374 H 1101.4 3.75437 -0.998978 0
M  V30 11375 H 1103.08 3.00599 -3.49911 0
M  V30 11376 H 1101.32 2.77378 -3.33532 0
M  V30 11377 H 1101.99 4.40752 -3.32328 0
M  V30 11378 H 1104.47 3.89418 -1.46604 0
M  V30 11379 H 1103.34 5.27666 -1.51195 0
M  V30 11380 H 1103.6 4.421 -0.000259009 0
M  V30 11381 N 1102.66 0.908147 1.28804 0
M  V30 11382 C 1103.61 0.390734 2.27468 0
M  V30 11383 C 1104.58 -0.531765 1.57358 0
M  V30 11384 O 1105.76 -0.455177 1.85291 0
M  V30 11385 C 1102.9 -0.368159 3.43131 0
M  V30 11386 C 1102.02 0.586202 4.28004 0
M  V30 11387 C 1101.15 -0.190581 5.30858 0
M  V30 11388 C 1100.19 0.757758 6.07391 0
M  V30 11389 N 1099.33 0.0148488 7.02098 0
M  V30 11390 H 1104.17 1.23717 2.71105 0
M  V30 11391 H 1101.71 0.621382 1.33331 0
M  V30 11392 H 1103.66 -0.824289 4.08976 0
M  V30 11393 H 1102.29 -1.17898 3.00499 0
M  V30 11394 H 1101.35 1.16086 3.62254 0
M  V30 11395 H 1102.66 1.31177 4.81242 0
M  V30 11396 H 1101.81 -0.707528 6.0256 0
M  V30 11397 H 1100.55 -0.949234 4.78373 0
M  V30 11398 H 1099.56 1.28613 5.34545 0
M  V30 11399 H 1100.78 1.51588 6.61965 0
M  V30 11400 H 1098.73 -0.725916 6.51971 0
M  V30 11401 H 1098.64 0.680347 7.52932 0
M  V30 11402 H 1099.91 -0.482086 7.78008 0
M  V30 11403 N 1104.14 -1.42577 0.671525 0
M  V30 11404 C 1105.39 -2.00806 0.189663 0
M  V30 11405 C 1105.7 -1.537 -1.20978 0
M  V30 11406 O 1106.91 -2.04325 -1.78784 0
M  V30 11407 C 1105.36 -3.58744 0.288227 0
M  V30 11408 C 1104.97 -4.14839 1.69152 0
M  V30 11409 C 1106.72 -4.24285 -0.13509 0
M  V30 11410 C 1104.62 -5.65131 1.74302 0
M  V30 11411 H 1103.55 -0.751004 0.067146 0
M  V30 11412 H 1106.2 -1.63338 0.83623 0
M  V30 11413 H 1104.59 -3.937 -0.426175 0
M  V30 11414 H 1105.76 -3.91349 2.43274 0
M  V30 11415 H 1104.08 -3.61738 2.0624 0
M  V30 11416 H 1106.67 -5.34573 -0.116709 0
M  V30 11417 H 1107.02 -3.99527 -1.16977 0
M  V30 11418 H 1107.55 -3.94278 0.528191 0
M  V30 11419 H 1104.29 -5.94682 2.75742 0
M  V30 11420 H 1103.81 -5.90621 1.04531 0
M  V30 11421 H 1105.49 -6.29491 1.49498 0
M  V30 11422 N 1105.62 -0.414636 -1.52048 0
M  V30 11423 C 1107.03 0.0537107 -1.86623 0
M  V30 11424 C 1107.38 1.43955 -1.3331 0
M  V30 11425 O 1106.51 2.05616 -0.674606 0
M  V30 11426 C 1107.1 0.104241 -3.3864 0
M  V30 11427 C 1105.66 0.516936 -3.72833 0
M  V30 11428 C 1104.81 -0.305042 -2.75617 0
M  V30 11429 H 1107.76 -0.631469 -1.45596 0
M  V30 11430 H 1107.78 0.918395 -3.6925 0
M  V30 11431 H 1107.29 -0.904523 -3.77412 0
M  V30 11432 H 1105.39 1.53214 -3.39641 0
M  V30 11433 H 1105.5 0.2575 -4.78408 0
M  V30 11434 H 1103.87 0.233416 -2.53628 0
M  V30 11435 H 1104.65 -1.31226 -3.1723 0
M  V30 11436 N 1107.1 1.56929 -0.145233 0
M  V30 11437 C 1108.34 1.96358 0.50707 0
M  V30 11438 C 1108.68 1.03005 1.64632 0
M  V30 11439 O 1107.95 0.0721045 1.94366 0
M  V30 11440 C 1108.23 3.45502 1.01492 0
M  V30 11441 C 1108.09 4.49633 -0.122708 0
M  V30 11442 C 1109.41 3.97103 1.89729 0
M  V30 11443 H 1106.52 0.713958 0.182848 0
M  V30 11444 H 1109.17 1.8865 -0.226102 0
M  V30 11445 H 1107.32 3.52202 1.6397 0
M  V30 11446 H 1108.99 4.55013 -0.758988 0
M  V30 11447 H 1107.23 4.26691 -0.782109 0
M  V30 11448 H 1107.9 5.51318 0.27432 0
M  V30 11449 H 1110.38 3.92871 1.37082 0
M  V30 11450 H 1109.25 5.01927 2.22173 0
M  V30 11451 H 1109.52 3.39354 2.83357 0
M  V30 11452 N 1108.58 -0.128553 1.57075 0
M  V30 11453 C 1109.54 -1.14215 1.98715 0
M  V30 11454 C 1110.54 -1.34843 0.876019 0
M  V30 11455 O 1111.73 -1.31522 1.14227 0
M  V30 11456 C 1108.86 -2.49865 2.31905 0
M  V30 11457 H 1110.05 -0.784481 2.89458 0
M  V30 11458 H 1107.61 -0.372531 1.51796 0
M  V30 11459 H 1108.34 -2.9057 1.44012 0
M  V30 11460 H 1108.13 -2.3625 3.12935 0
M  V30 11461 H 1109.62 -3.22832 2.64895 0
M  V30 11462 N 1110.05 -1.5248 -0.398459 0
M  V30 11463 C 1111.3 -1.66287 -1.14155 0
M  V30 11464 C 1111.62 -0.40429 -1.91376 0
M  V30 11465 O 1112.82 -0.422341 -2.68195 0
M  V30 11466 C 1111.28 -2.93831 -2.07825 0
M  V30 11467 C 1110.89 -4.26836 -1.3607 0
M  V30 11468 C 1112.63 -3.17004 -2.82327 0
M  V30 11469 C 1110.54 -5.45495 -2.28451 0
M  V30 11470 H 1109.47 -0.619478 -0.42984 0
M  V30 11471 H 1112.12 -1.78972 -0.405112 0
M  V30 11472 H 1110.5 -2.7487 -2.85065 0
M  V30 11473 H 1111.67 -4.56317 -0.641205 0
M  V30 11474 H 1109.99 -4.0985 -0.735659 0
M  V30 11475 H 1112.59 -4.02834 -3.51609 0
M  V30 11476 H 1112.93 -2.3168 -3.45876 0
M  V30 11477 H 1113.46 -3.36487 -2.12183 0
M  V30 11478 H 1110.2 -6.33198 -1.69532 0
M  V30 11479 H 1109.72 -5.20338 -2.98343 0
M  V30 11480 H 1111.4 -5.78996 -2.88743 0
M  V30 11481 N 1111.53 0.65634 -1.43283 0
M  V30 11482 C 1112.48 1.76934 -1.48199 0
M  V30 11483 C 1113.45 1.62748 -0.332023 0
M  V30 11484 O 1114.63 1.83036 -0.538735 0
M  V30 11485 C 1111.77 3.15072 -1.40797 0
M  V30 11486 C 1110.89 3.40414 -2.65974 0
M  V30 11487 C 1110.02 4.68383 -2.50582 0
M  V30 11488 C 1109.06 4.8682 -3.71043 0
M  V30 11489 N 1108.2 6.06043 -3.5448 0
M  V30 11490 H 1113.04 1.72067 -2.43304 0
M  V30 11491 H 1110.57 0.839728 -1.20777 0
M  V30 11492 H 1112.53 3.94925 -1.345 0
M  V30 11493 H 1111.16 3.19017 -0.492754 0
M  V30 11494 H 1110.21 2.54681 -2.82563 0
M  V30 11495 H 1111.53 3.49925 -3.55463 0
M  V30 11496 H 1110.68 5.56357 -2.41975 0
M  V30 11497 H 1109.42 4.61187 -1.58612 0
M  V30 11498 H 1108.42 3.97282 -3.80062 0
M  V30 11499 H 1109.65 4.95847 -4.64017 0
M  V30 11500 H 1107.6 5.99985 -2.65242 0
M  V30 11501 H 1107.51 6.16498 -4.37568 0
M  V30 11502 H 1108.78 6.96647 -3.49719 0
M  V30 11503 N 1113.01 1.29761 0.894412 0
M  V30 11504 C 1114.26 1.18214 1.64782 0
M  V30 11505 C 1114.59 -0.264635 1.92388 0
M  V30 11506 O 1113.86 -1.19051 1.53809 0
M  V30 11507 C 1114.15 2.00138 2.99361 0
M  V30 11508 C 1114 3.52984 2.78787 0
M  V30 11509 C 1115.32 1.83187 4.00163 0
M  V30 11510 H 1112.44 0.430802 0.597979 0
M  V30 11511 H 1115.08 1.59292 1.03566 0
M  V30 11512 H 1113.23 1.65233 3.51611 0
M  V30 11513 H 1114.9 3.97898 2.33398 0
M  V30 11514 H 1113.14 3.77642 2.13469 0
M  V30 11515 H 1113.82 4.05585 3.7444 0
M  V30 11516 H 1116.29 2.13684 3.57041 0
M  V30 11517 H 1115.17 2.42849 4.92255 0
M  V30 11518 H 1115.43 0.788469 4.35012 0
M  V30 11519 N 1114.49 -1.10549 1.12324 0
M  V30 11520 C 1115.42 -2.18911 0.812416 0
M  V30 11521 C 1116.4 -1.68628 -0.22327 0
M  V30 11522 O 1117.58 -1.94015 -0.0847184 0
M  V30 11523 C 1114.71 -3.46288 0.264947 0
M  V30 11524 C 1113.67 -4.09838 1.23356 0
M  V30 11525 C 1112.99 -5.31901 0.546374 0
M  V30 11526 C 1114.29 -4.53686 2.58778 0
M  V30 11527 H 1115.99 -2.45169 1.71851 0
M  V30 11528 H 1113.53 -1.17834 0.827715 0
M  V30 11529 H 1115.49 -4.21385 0.0352364 0
M  V30 11530 H 1114.21 -3.19517 -0.676479 0
M  V30 11531 H 1112.87 -3.36746 1.44906 0
M  V30 11532 H 1112.52 -5.01406 -0.400157 0
M  V30 11533 H 1112.22 -5.75372 1.19249 0
M  V30 11534 H 1113.74 -6.09731 0.325673 0
M  V30 11535 H 1115.16 -5.20063 2.41263 0
M  V30 11536 H 1113.55 -5.08003 3.19457 0
M  V30 11537 H 1114.62 -3.66665 3.17309 0
M  V30 11538 N 1115.97 -0.914965 -1.28321 0
M  V30 11539 C 1117.38 -0.613297 -1.47346 0
M  V30 11540 C 1117.58 0.84106 -1.83108 0
M  V30 11541 O 1116.64 1.62004 -1.93678 0
M  V30 11542 C 1117.95 -1.55224 -2.57538 0
M  V30 11543 C 1119.5 -1.55909 -2.71407 0
M  V30 11544 C 1119.97 -2.48468 -3.84744 0
M  V30 11545 N 1121.46 -2.46602 -3.92099 0
M  V30 11546 C 1122.2 -3.14917 -4.79182 0
M  V30 11547 N 1121.7 -3.92566 -5.70845 0
M  V30 11548 N 1123.49 -3.03998 -4.72802 0
M  V30 11549 H 1115.64 -1.85539 -1.03388 0
M  V30 11550 H 1117.9 -0.795875 -0.515061 0
M  V30 11551 H 1117.61 -2.58917 -2.38023 0
M  V30 11552 H 1117.48 -1.28426 -3.54664 0
M  V30 11553 H 1119.87 -0.52953 -2.9031 0
M  V30 11554 H 1119.95 -1.86751 -1.74808 0
M  V30 11555 H 1119.59 -3.51526 -3.66595 0
M  V30 11556 H 1119.52 -2.14928 -4.80743 0
M  V30 11557 H 1122.02 -1.90199 -3.26547 0
M  V30 11558 H 1122.33 -4.41709 -6.34123 0
M  V30 11559 H 1120.67 -3.96671 -5.70681 0
M  V30 11560 H 1123.86 -2.42839 -4.00184 0
M  V30 11561 H 1124.04 -3.57511 -5.40454 0
M  V30 11562 N 1117.44 1.42219 -0.679077 0
M  V30 11563 C 1118.35 2.346 -0.00345919 0
M  V30 11564 C 1119.37 1.55327 0.784181 0
M  V30 11565 O 1120.55 1.87878 0.725524 0
M  V30 11566 C 1117.61 3.33905 0.933194 0
M  V30 11567 C 1116.67 4.29073 0.139607 0
M  V30 11568 C 1115.9 5.23634 1.03165 0
M  V30 11569 O 1116.13 5.23234 2.27119 0
M  V30 11570 O 1115.06 5.99901 0.490159 0
M  V30 11571 H 1118.89 2.9392 -0.764525 0
M  V30 11572 H 1116.47 1.42794 -0.439329 0
M  V30 11573 H 1118.35 3.949 1.47077 0
M  V30 11574 H 1117.03 2.77052 1.67404 0
M  V30 11575 H 1115.94 3.71478 -0.442177 0
M  V30 11576 H 1117.27 4.88979 -0.562214 0
M  V30 11577 N 1118.92 0.422693 1.51826 0
M  V30 11578 C 1119.87 -0.41063 2.28947 0
M  V30 11579 C 1120.86 -1.03389 1.34191 0
M  V30 11580 O 1122.07 -0.970533 1.51594 0
M  V30 11581 H 1118.44 -0.151219 0.736639 0
M  V30 11582 H 1120.42 0.260859 2.97258 0
M  V30 11583 C 1119.16 -1.50758 3.13317 0
M  V30 11584 H 1118.49 -1.03734 3.86108 0
M  V30 11585 H 1119.93 -2.0642 3.7036 0
M  V30 11586 C 1118.39 -2.48261 2.27746 0
M  V30 11587 O 1118.92 -3.52462 1.92701 0
M  V30 11588 N 1117.12 -2.18795 1.91251 0
M  V30 11589 H 1116.67 -1.34088 2.1995 0
M  V30 11590 H 1116.63 -2.84276 1.34293 0
M  V30 11591 N 1120.4 -1.5685 0.153553 0
M  V30 11592 C 1121.63 -2.00701 -0.502678 0
M  V30 11593 C 1122.04 -1.0337 -1.57988 0
M  V30 11594 O 1121.4 -0.0317233 -1.82472 0
M  V30 11595 C 1121.45 -3.44443 -1.09732 0
M  V30 11596 O 1121.17 -4.38054 -0.0631405 0
M  V30 11597 C 1122.67 -4.03605 -1.83352 0
M  V30 11598 H 1119.89 -0.658229 -0.130289 0
M  V30 11599 H 1122.44 -2.02965 0.250063 0
M  V30 11600 H 1120.59 -3.43009 -1.80065 0
M  V30 11601 H 1121.01 -5.22114 -0.499681 0
M  V30 11602 H 1122.48 -5.0616 -2.20241 0
M  V30 11603 H 1122.96 -3.44687 -2.7219 0
M  V30 11604 H 1123.56 -4.08688 -1.17703 0
M  V30 11605 N 1121.88 0.120221 -1.57141 0
M  V30 11606 C 1123.1 0.84637 -1.89344 0
M  V30 11607 C 1123.53 1.72702 -0.745365 0
M  V30 11608 O 1122.89 1.7873 0.304155 0
M  V30 11609 C 1122.93 1.65671 -3.20289 0
M  V30 11610 O 1122.04 2.76353 -3.06109 0
M  V30 11611 H 1121.38 0.234132 -0.621352 0
M  V30 11612 H 1123.91 0.102986 -2.04341 0
M  V30 11613 H 1123.92 2.04621 -3.52979 0
M  V30 11614 H 1122.59 1.01023 -4.03444 0
M  V30 11615 H 1121.17 2.40615 -2.84884 0
M  V30 11616 N 1123.36 1.52689 0.390367 0
M  V30 11617 C 1124.77 1.59623 0.968366 0
M  V30 11618 C 1125.12 0.44824 1.91011 0
M  V30 11619 O 1124.24 -0.428868 2.12108 0
M  V30 11620 C 1124.84 2.89312 1.76306 0
M  V30 11621 C 1123.4 2.98664 2.29079 0
M  V30 11622 C 1122.54 2.54725 1.09593 0
M  V30 11623 H 1125.5 1.57787 0.169959 0
M  V30 11624 H 1125.52 2.75721 2.62217 0
M  V30 11625 H 1125.03 3.72846 1.07738 0
M  V30 11626 H 1123.13 2.19665 3.00962 0
M  V30 11627 H 1123.24 4.03277 2.58659 0
M  V30 11628 H 1121.61 2.09012 1.45554 0
M  V30 11629 H 1122.39 3.40651 0.425625 0
M  V30 11630 N 1124.83 -0.648732 1.43629 0
M  V30 11631 C 1125.78 -1.76145 1.49136 0
M  V30 11632 C 1126.75 -1.62569 0.340649 0
M  V30 11633 O 1127.94 -1.82748 0.548435 0
M  V30 11634 C 1125.08 -3.14321 1.42466 0
M  V30 11635 C 1124.19 -3.38999 2.67776 0
M  V30 11636 C 1123.32 -4.67047 2.53062 0
M  V30 11637 C 1122.36 -4.84845 3.7362 0
M  V30 11638 N 1121.5 -6.04155 3.57689 0
M  V30 11639 H 1126.34 -1.70774 2.44213 0
M  V30 11640 H 1123.88 -0.833311 1.2122 0
M  V30 11641 H 1125.84 -3.94206 1.36592 0
M  V30 11642 H 1124.47 -3.18751 0.509666 0
M  V30 11643 H 1123.52 -2.53179 2.83909 0
M  V30 11644 H 1124.83 -3.48035 3.57314 0
M  V30 11645 H 1123.98 -5.55066 2.44922 0
M  V30 11646 H 1122.72 -4.60339 1.61056 0
M  V30 11647 H 1121.73 -3.95261 3.82163 0
M  V30 11648 H 1122.95 -4.9338 4.6664 0
M  V30 11649 H 1120.9 -5.9857 2.6842 0
M  V30 11650 H 1120.82 -6.14169 4.40832 0
M  V30 11651 H 1122.08 -6.94782 3.53409 0
M  V30 11652 N 1126.31 -1.30234 -0.887518 0
M  V30 11653 C 1127.28 -1.16384 -1.97452 0
M  V30 11654 C 1128.28 -0.0957942 -1.60514 0
M  V30 11655 O 1129.47 -0.343706 -1.70776 0
M  V30 11656 C 1126.6 -0.782514 -3.31797 0
M  V30 11657 H 1127.79 -2.12952 -2.11167 0
M  V30 11658 H 1125.34 -1.13594 -1.07359 0
M  V30 11659 H 1126.08 0.18278 -3.23785 0
M  V30 11660 H 1125.86 -1.55434 -3.59976 0
M  V30 11661 H 1127.35 -0.709011 -4.11537 0
M  V30 11662 N 1127.79 1.09952 -1.12909 0
M  V30 11663 C 1128.74 2.18525 -0.796849 0
M  V30 11664 C 1129.73 1.67985 0.218483 0
M  V30 11665 O 1130.94 1.79839 0.07618 0
M  V30 11666 H 1127.31 0.712714 -0.239882 0
M  V30 11667 H 1129.28 2.43783 -1.72083 0
M  V30 11668 C 1128.03 3.46625 -0.273237 0
M  V30 11669 H 1127.36 3.85879 -1.04582 0
M  V30 11670 H 1128.8 4.23926 -0.0791355 0
M  V30 11671 C 1127.26 3.2172 0.999903 0
M  V30 11672 O 1127.79 3.43851 2.07676 0
M  V30 11673 N 1125.99 2.75356 0.928833 0
M  V30 11674 H 1125.54 2.57547 0.052379 0
M  V30 11675 H 1125.5 2.5907 1.78129 0
M  V30 11676 N 1129.27 0.921757 1.27833 0
M  V30 11677 C 1130.22 0.414838 2.27041 0
M  V30 11678 C 1131.19 -0.515045 1.57913 0
M  V30 11679 O 1132.37 -0.435499 1.85763 0
M  V30 11680 C 1129.51 -0.331744 3.43502 0
M  V30 11681 C 1128.62 0.631565 4.27358 0
M  V30 11682 C 1127.76 -0.134265 5.3103 0
M  V30 11683 C 1126.8 0.822138 6.06554 0
M  V30 11684 N 1125.93 0.0893149 7.02043 0
M  V30 11685 H 1130.77 1.26585 2.69778 0
M  V30 11686 H 1128.31 0.635488 1.32665 0
M  V30 11687 H 1130.27 -0.780866 4.09827 0
M  V30 11688 H 1128.9 -1.14704 3.01733 0
M  V30 11689 H 1127.95 1.19922 3.61003 0
M  V30 11690 H 1129.26 1.36274 4.79824 0
M  V30 11691 H 1128.42 -0.643579 6.03277 0
M  V30 11692 H 1127.16 -0.898443 4.79353 0
M  V30 11693 H 1126.16 1.34275 5.33151 0
M  V30 11694 H 1127.39 1.586 6.6032 0
M  V30 11695 H 1125.33 -0.656725 6.52704 0
M  V30 11696 H 1125.25 0.760167 7.52169 0
M  V30 11697 H 1126.52 -0.399541 7.78475 0
M  V30 11698 N 1130.75 -1.41857 0.686609 0
M  V30 11699 C 1131.66 -2.34595 0.0159005 0
M  V30 11700 C 1132.67 -1.55741 -0.775933 0
M  V30 11701 O 1133.85 -1.8826 -0.71555 0
M  V30 11702 C 1130.91 -3.34395 -0.915473 0
M  V30 11703 C 1129.97 -4.29141 -0.116851 0
M  V30 11704 C 1129.21 -5.24174 -1.00386 0
M  V30 11705 O 1129.43 -5.24431 -2.2434 0
M  V30 11706 O 1128.36 -6.00152 -0.458337 0
M  V30 11707 H 1132.19 -2.9351 0.780101 0
M  V30 11708 H 1129.78 -1.42559 0.446896 0
M  V30 11709 H 1131.66 -3.95675 -1.44981 0
M  V30 11710 H 1130.33 -2.77936 -1.65932 0
M  V30 11711 H 1129.24 -3.71238 0.461871 0
M  V30 11712 H 1130.57 -4.88673 0.588138 0
M  V30 11713 N 1132.22 -0.430739 -1.51599 0
M  V30 11714 C 1133.47 0.139396 -2.01218 0
M  V30 11715 C 1133.79 1.44361 -1.31982 0
M  V30 11716 O 1134.99 2.0963 -1.72533 0
M  V30 11717 C 1133.45 0.298969 -3.58656 0
M  V30 11718 C 1133.06 -0.994424 -4.36824 0
M  V30 11719 C 1134.8 0.82323 -4.16441 0
M  V30 11720 C 1132.71 -0.800855 -5.85952 0
M  V30 11721 H 1131.64 0.0558698 -0.751927 0
M  V30 11722 H 1134.29 -0.559493 -1.74762 0
M  V30 11723 H 1132.67 1.06071 -3.8153 0
M  V30 11724 H 1133.84 -1.76398 -4.257 0
M  V30 11725 H 1132.16 -1.44672 -3.9046 0
M  V30 11726 H 1134.76 0.984434 -5.2556 0
M  V30 11727 H 1135.1 1.80388 -3.75188 0
M  V30 11728 H 1135.63 0.119982 -3.97619 0
M  V30 11729 H 1132.37 -1.75369 -6.31606 0
M  V30 11730 H 1131.89 -0.0709793 -5.99758 0
M  V30 11731 H 1133.57 -0.451459 -6.45423 0
M  V30 11732 N 1133.7 1.56767 -0.161869 0
M  V30 11733 C 1134.63 2.20511 0.767918 0
M  V30 11734 C 1135.61 1.15783 1.24612 0
M  V30 11735 O 1136.8 1.44179 1.301 0
M  V30 11736 C 1133.93 2.83844 2.00125 0
M  V30 11737 C 1132.88 3.94528 1.65926 0
M  V30 11738 C 1132.21 4.44866 2.96646 0
M  V30 11739 C 1133.51 5.14583 0.894497 0
M  V30 11740 H 1135.2 2.98464 0.236607 0
M  V30 11741 H 1132.75 1.43561 0.112363 0
M  V30 11742 H 1134.7 3.27109 2.65664 0
M  V30 11743 H 1133.43 2.03246 2.55654 0
M  V30 11744 H 1132.08 3.51904 1.02759 0
M  V30 11745 H 1131.73 3.61071 3.50196 0
M  V30 11746 H 1131.43 5.19531 2.74521 0
M  V30 11747 H 1132.96 4.90812 3.6323 0
M  V30 11748 H 1134.37 5.54601 1.45228 0
M  V30 11749 H 1132.77 5.95105 0.772636 0
M  V30 11750 H 1133.84 4.84773 -0.110986 0
M  V30 11751 N 1135.18 -0.111886 1.57202 0
M  V30 11752 C 1136.46 -0.849125 1.76208 0
M  V30 11753 C 1136.84 -1.97735 0.73919 0
M  V30 11754 O 1136.19 -2.27283 -0.235523 0
M  V30 11755 C 1136.4 -1.35924 3.21443 0
M  V30 11756 C 1137.74 -1.80874 3.84148 0
M  V30 11757 O 1138.77 -1.45587 3.25089 0
M  V30 11758 O 1137.63 -2.46065 4.87969 0
M  V30 11759 H 1134.72 -0.403761 0.721738 0
M  V30 11760 H 1137.27 -0.0950726 1.69433 0
M  V30 11761 H 1136.04 -0.550113 3.87414 0
M  V30 11762 H 1135.66 -2.17579 3.32784 0
M  V30 11763 N 1136.66 -1.52894 -0.382264 0
M  V30 11764 C 1137.57 -1.81084 -1.4915 0
M  V30 11765 C 1138.58 -0.698045 -1.59384 0
M  V30 11766 O 1139.76 -0.98635 -1.75594 0
M  V30 11767 C 1136.83 -1.97987 -2.84608 0
M  V30 11768 C 1135.89 -3.219 -2.8404 0
M  V30 11769 C 1135.12 -3.37988 -4.13037 0
M  V30 11770 O 1135.34 -2.58733 -5.08344 0
M  V30 11771 O 1134.28 -4.31273 -4.19866 0
M  V30 11772 H 1138.1 -2.75289 -1.28257 0
M  V30 11773 H 1135.69 -1.38068 -0.57076 0
M  V30 11774 H 1137.57 -2.10773 -3.64901 0
M  V30 11775 H 1136.24 -1.06972 -3.05514 0
M  V30 11776 H 1135.15 -3.14551 -2.02505 0
M  V30 11777 H 1136.48 -4.12783 -2.68087 0
M  V30 11778 N 1138.14 0.641106 -1.43971 0
M  V30 11779 C 1139.1 1.73539 -1.49723 0
M  V30 11780 C 1140.1 1.56235 -0.380438 0
M  V30 11781 O 1141.29 1.61912 -0.642673 0
M  V30 11782 C 1138.42 3.1253 -1.36153 0
M  V30 11783 H 1139.62 1.69816 -2.47189 0
M  V30 11784 H 1137.17 0.853867 -1.30915 0
M  V30 11785 H 1137.9 3.21856 -0.39742 0
M  V30 11786 H 1137.69 3.26496 -2.17124 0
M  V30 11787 H 1139.18 3.92303 -1.43138 0
M  V30 11788 N 1139.62 1.30703 0.880598 0
M  V30 11789 C 1140.85 1.22536 1.66339 0
M  V30 11790 C 1141.25 -0.213507 1.87991 0
M  V30 11791 O 1140.6 -1.15236 1.43061 0
M  V30 11792 C 1140.66 1.88798 3.05934 0
M  V30 11793 C 1140.32 3.38131 3.07435 0
M  V30 11794 C 1141.32 4.34053 2.86171 0
M  V30 11795 C 1139 3.79651 3.28893 0
M  V30 11796 C 1141 5.69469 2.86328 0
M  V30 11797 C 1138.69 5.15182 3.2868 0
M  V30 11798 C 1139.68 6.09902 3.07423 0
M  V30 11799 O 1139.37 7.42957 3.07034 0
M  V30 11800 H 1139.1 0.425018 0.525677 0
M  V30 11801 H 1141.66 1.72939 1.1082 0
M  V30 11802 H 1139.89 1.3293 3.63134 0
M  V30 11803 H 1141.58 1.74691 3.66385 0
M  V30 11804 H 1142.34 4.03307 2.69385 0
M  V30 11805 H 1138.22 3.06365 3.44473 0
M  V30 11806 H 1141.77 6.43375 2.69655 0
M  V30 11807 H 1137.66 5.45567 3.45002 0
M  V30 11808 H 1138.43 7.52 3.23169 0
M  V30 11809 N 1141.09 -1.09351 1.1349 0
M  V30 11810 C 1142.34 -1.81812 0.898452 0
M  V30 11811 C 1142.67 -1.85525 -0.573959 0
M  V30 11812 O 1141.95 -1.32403 -1.42477 0
M  V30 11813 C 1142.23 -3.27921 1.48794 0
M  V30 11814 C 1142.08 -3.32476 3.02952 0
M  V30 11815 C 1143.4 -4.24625 1.15678 0
M  V30 11816 H 1140.52 -0.660074 0.327829 0
M  V30 11817 H 1143.16 -1.28091 1.40331 0
M  V30 11818 H 1141.31 -3.738 1.05858 0
M  V30 11819 H 1142.99 -2.94994 3.54649 0
M  V30 11820 H 1141.23 -2.72037 3.37903 0
M  V30 11821 H 1141.9 -4.35409 3.39298 0
M  V30 11822 H 1144.38 -3.87036 1.52781 0
M  V30 11823 H 1143.25 -5.25194 1.59571 0
M  V30 11824 H 1143.51 -4.42044 0.0705933 0
M  V30 11825 N 1142.57 -0.928524 -1.27343 0
M  V30 11826 C 1143.5 -0.372628 -2.25137 0
M  V30 11827 C 1144.48 0.531468 -1.53669 0
M  V30 11828 O 1145.67 0.471788 -1.825 0
M  V30 11829 C 1142.79 0.465841 -3.35481 0
M  V30 11830 C 1141.84 -0.374941 -4.24849 0
M  V30 11831 S 1142.67 -1.791 -5.04662 0
M  V30 11832 C 1143.83 -0.960233 -6.1849 0
M  V30 11833 H 1144.06 -1.20147 -2.71941 0
M  V30 11834 H 1141.59 -0.730764 -1.36012 0
M  V30 11835 H 1143.55 0.943741 -3.99504 0
M  V30 11836 H 1142.21 1.26922 -2.87314 0
M  V30 11837 H 1141.41 0.266871 -5.03293 0
M  V30 11838 H 1141.01 -0.787045 -3.65625 0
M  V30 11839 H 1143.3 -0.196615 -6.77215 0
M  V30 11840 H 1144.24 -1.71771 -6.8695 0
M  V30 11841 H 1144.65 -0.501881 -5.62265 0
M  V30 11842 N 1144.05 1.41491 -0.694123 0
M  V30 11843 C 1145.01 2.2917 -0.0368562 0
M  V30 11844 C 1146.01 1.44305 0.709426 0
M  V30 11845 O 1147.2 1.6547 0.544533 0
M  V30 11846 C 1144.33 3.27156 0.958201 0
M  V30 11847 H 1145.53 2.88787 -0.808829 0
M  V30 11848 H 1143.08 1.49453 -0.457538 0
M  V30 11849 H 1143.82 2.72516 1.75799 0
M  V30 11850 H 1143.6 3.89776 0.426227 0
M  V30 11851 H 1145.09 3.92863 1.41592 0
M  V30 11852 N 1145.53 0.438773 1.51369 0
M  V30 11853 C 1146.78 -0.126962 2.01701 0
M  V30 11854 C 1147.1 -1.43086 1.32481 0
M  V30 11855 O 1146.37 -1.90427 0.459823 0
M  V30 11856 H 1144.95 -0.0499092 0.745331 0
M  V30 11857 H 1147.61 0.581808 1.86013 0
M  V30 11858 H 1146.7 -0.301836 3.10637 0
M  V30 11859 N 1147.01 -1.56678 0.170181 0
M  V30 11860 C 1148.25 -1.9714 -0.475767 0
M  V30 11861 C 1148.58 -1.05611 -1.62972 0
M  V30 11862 O 1147.86 -0.103017 -1.94227 0
M  V30 11863 C 1148.14 -3.47072 -0.959828 0
M  V30 11864 C 1148 -4.4938 0.194225 0
M  V30 11865 C 1149.31 -4.00071 -1.83387 0
M  V30 11866 H 1146.43 -0.716776 -0.171466 0
M  V30 11867 H 1149.08 -1.88266 0.256086 0
M  V30 11868 H 1147.23 -3.54766 -1.58346 0
M  V30 11869 H 1148.9 -4.53748 0.83128 0
M  V30 11870 H 1147.14 -4.25393 0.849893 0
M  V30 11871 H 1147.81 -5.51685 -0.186575 0
M  V30 11872 H 1150.29 -3.95002 -1.30815 0
M  V30 11873 H 1149.16 -5.05398 -2.14159 0
M  V30 11874 H 1149.42 -3.43819 -2.77923 0
M  V30 11875 N 1148.48 0.103547 -1.57259 0
M  V30 11876 C 1149.73 0.806979 -1.8529 0
M  V30 11877 C 1150.05 1.79679 -0.757653 0
M  V30 11878 O 1149.32 1.94695 0.216913 0
M  V30 11879 H 1147.9 0.301012 -0.683667 0
M  V30 11880 H 1150.56 0.0871886 -1.94705 0
M  V30 11881 H 1149.66 1.34275 -2.81738 0
M  V30 11882 N 1149.96 1.53094 0.37415 0
M  V30 11883 C 1151.19 1.73061 1.143 0
M  V30 11884 C 1151.61 0.454611 1.82524 0
M  V30 11885 O 1150.97 -0.590743 1.71406 0
M  V30 11886 C 1151.02 2.89086 2.15549 0
M  V30 11887 O 1150.12 2.57096 3.22452 0
M  V30 11888 H 1149.46 0.575009 0.332055 0
M  V30 11889 H 1151.99 1.99946 0.433897 0
M  V30 11890 H 1152 3.15007 2.59296 0
M  V30 11891 H 1150.68 3.81647 1.65283 0
M  V30 11892 H 1149.25 2.41965 2.83738 0
M  V30 11893 N 1151.44 -0.633461 1.44309 0
M  V30 11894 C 1152.85 -1.21504 1.41752 0
M  V30 11895 C 1153.2 -1.95758 0.131667 0
M  V30 11896 O 1152.33 -2.02311 -0.768072 0
M  V30 11897 C 1152.92 -2.21005 2.56792 0
M  V30 11898 C 1151.48 -2.74596 2.57438 0
M  V30 11899 C 1150.63 -1.49555 2.33513 0
M  V30 11900 H 1153.58 -0.424277 1.52923 0
M  V30 11901 H 1153.6 -3.03563 2.29412 0
M  V30 11902 H 1153.11 -1.66934 3.50364 0
M  V30 11903 H 1151.21 -3.32676 1.67801 0
M  V30 11904 H 1151.33 -3.20794 3.55849 0
M  V30 11905 H 1149.69 -1.77605 1.82561 0
M  V30 11906 H 1150.47 -0.973899 3.29196 0
M  V30 11907 N 1152.92 -1.31168 -0.873655 0
M  V30 11908 C 1154.15 -1.23416 -1.65686 0
M  V30 11909 C 1154.56 0.203534 -1.88102 0
M  V30 11910 O 1153.9 1.14476 -1.4367 0
M  V30 11911 C 1153.96 -1.90418 -3.04929 0
M  V30 11912 C 1153.63 -3.39757 -3.05637 0
M  V30 11913 C 1154.62 -4.35565 -2.83865 0
M  V30 11914 C 1152.31 -3.81389 -3.26875 0
M  V30 11915 C 1154.3 -5.70979 -2.83304 0
M  V30 11916 C 1151.99 -5.16918 -3.25943 0
M  V30 11917 C 1152.99 -6.11524 -3.04184 0
M  V30 11918 O 1152.67 -7.44575 -3.0309 0
M  V30 11919 H 1152.41 -0.4278 -0.523415 0
M  V30 11920 H 1154.96 -1.73525 -1.09902 0
M  V30 11921 H 1153.19 -1.34854 -3.62424 0
M  V30 11922 H 1154.88 -1.76631 -3.65453 0
M  V30 11923 H 1155.65 -4.0473 -2.67243 0
M  V30 11924 H 1151.52 -3.08187 -3.42844 0
M  V30 11925 H 1155.07 -6.44796 -2.66239 0
M  V30 11926 H 1150.97 -5.47389 -3.42104 0
M  V30 11927 H 1151.73 -7.53703 -3.19177 0
M  V30 11928 N 1154.4 1.08748 -1.14068 0
M  V30 11929 C 1155.64 1.81333 -0.908081 0
M  V30 11930 C 1155.98 1.85826 0.564112 0
M  V30 11931 O 1155.25 1.33157 1.41773 0
M  V30 11932 C 1155.53 3.27127 -1.50531 0
M  V30 11933 C 1155.39 3.30865 -3.04711 0
M  V30 11934 C 1156.71 4.24006 -1.17928 0
M  V30 11935 H 1153.82 0.658326 -0.331325 0
M  V30 11936 H 1156.47 1.27345 -1.41008 0
M  V30 11937 H 1154.62 3.73233 -1.07839 0
M  V30 11938 H 1156.29 2.93109 -3.56209 0
M  V30 11939 H 1154.53 2.70241 -3.39341 0
M  V30 11940 H 1155.2 4.33603 -3.41603 0
M  V30 11941 H 1157.68 3.86221 -1.54831 0
M  V30 11942 H 1156.55 5.2434 -1.62353 0
M  V30 11943 H 1156.82 4.42 -0.0940349 0
M  V30 11944 N 1155.87 0.935264 1.26849 0
M  V30 11945 C 1157.1 0.595704 1.98661 0
M  V30 11946 C 1157.52 -0.821001 1.69237 0
M  V30 11947 O 1156.88 -1.55211 0.936982 0
M  V30 11948 C 1156.93 0.837275 3.50745 0
M  V30 11949 O 1156.03 -0.0934914 4.12294 0
M  V30 11950 H 1155.38 0.228512 0.623441 0
M  V30 11951 H 1157.91 1.25658 1.61466 0
M  V30 11952 H 1157.92 0.755827 4.00938 0
M  V30 11953 H 1156.59 1.86993 3.71492 0
M  V30 11954 H 1155.17 0.0385124 3.7288 0
M  V30 11955 N 1157.35 -1.41121 0.701616 0
M  V30 11956 C 1158.77 -1.55162 0.373766 0
M  V30 11957 C 1158.97 -1.6759 -1.11875 0
M  V30 11958 O 1158.02 -1.65768 -1.90465 0
M  V30 11959 C 1159.34 -2.78758 1.12759 0
M  V30 11960 C 1160.89 -2.92561 1.11253 0
M  V30 11961 C 1161.36 -4.19052 1.84822 0
M  V30 11962 N 1162.85 -4.26023 1.81821 0
M  V30 11963 C 1163.59 -5.22771 2.3558 0
M  V30 11964 N 1163.08 -6.25512 2.97836 0
M  V30 11965 N 1164.88 -5.14752 2.25802 0
M  V30 11966 H 1157.03 -1.31299 1.66956 0
M  V30 11967 H 1159.29 -0.633894 0.704898 0
M  V30 11968 H 1159 -2.75804 2.18231 0
M  V30 11969 H 1158.87 -3.70456 0.710095 0
M  V30 11970 H 1161.26 -2.95026 0.0660506 0
M  V30 11971 H 1161.34 -2.0202 1.56913 0
M  V30 11972 H 1160.98 -4.17349 2.89452 0
M  V30 11973 H 1160.91 -5.08577 1.36592 0
M  V30 11974 H 1163.4 -3.52411 1.36438 0
M  V30 11975 H 1163.72 -6.95736 3.36409 0
M  V30 11976 H 1162.06 -6.25997 3.01916 0
M  V30 11977 H 1165.25 -4.33414 1.76833 0
M  V30 11978 H 1165.42 -5.89983 2.68001 0
M  V30 11979 N 1158.83 -0.446794 -1.51134 0
M  V30 11980 C 1159.76 0.350229 -2.30858 0
M  V30 11981 C 1160.74 1.0125 -1.36684 0
M  V30 11982 O 1161.93 1.01433 -1.65605 0
M  V30 11983 C 1159.06 1.4464 -3.15748 0
M  V30 11984 C 1158.01 0.907102 -4.18277 0
M  V30 11985 C 1157.34 2.09974 -4.91747 0
M  V30 11986 C 1158.64 -0.0649758 -5.2226 0
M  V30 11987 H 1160.33 -0.315105 -2.97737 0
M  V30 11988 H 1157.88 -0.152985 -1.43185 0
M  V30 11989 H 1159.83 2.01127 -3.70305 0
M  V30 11990 H 1158.55 2.14016 -2.46708 0
M  V30 11991 H 1157.21 0.364382 -3.64785 0
M  V30 11992 H 1156.86 2.77991 -4.19202 0
M  V30 11993 H 1156.56 1.74523 -5.61084 0
M  V30 11994 H 1158.08 2.66996 -5.49131 0
M  V30 11995 H 1159.5 0.4099 -5.71833 0
M  V30 11996 H 1157.9 -0.332529 -5.99178 0
M  V30 11997 H 1158.97 -0.998681 -4.74504 0
M  V30 11998 N 1160.31 1.56586 -0.178487 0
M  V30 11999 C 1161.24 2.21313 0.744486 0
M  V30 12000 C 1162.22 1.17098 1.23377 0
M  V30 12001 O 1163.4 1.45551 1.28563 0
M  V30 12002 C 1160.53 2.8595 1.97103 0
M  V30 12003 C 1159.49 3.96266 1.61732 0
M  V30 12004 C 1158.81 4.47987 2.91911 0
M  V30 12005 C 1160.11 5.15503 0.839868 0
M  V30 12006 H 1161.81 2.98698 0.204938 0
M  V30 12007 H 1159.35 1.43672 0.0971306 0
M  V30 12008 H 1161.31 3.29909 2.6218 0
M  V30 12009 H 1160.03 2.05946 2.53484 0
M  V30 12010 H 1158.69 3.52974 0.990208 0
M  V30 12011 H 1158.34 3.64765 3.46346 0
M  V30 12012 H 1158.04 5.22413 2.68995 0
M  V30 12013 H 1159.56 4.94637 3.58004 0
M  V30 12014 H 1160.98 5.5611 1.39337 0
M  V30 12015 H 1159.37 5.95891 0.709473 0
M  V30 12016 H 1160.44 4.84628 -0.162396 0
M  V30 12017 N 1161.79 -0.095206 1.57312 0
M  V30 12018 C 1163.03 -0.797142 1.85715 0
M  V30 12019 C 1163.36 -1.79275 0.767171 0
M  V30 12020 O 1162.63 -1.94808 -0.206584 0
M  V30 12021 H 1161.21 -0.297382 0.685254 0
M  V30 12022 H 1163.87 -0.0768617 1.94748 0
M  V30 12023 H 1162.96 -1.32779 2.82447 0
M  V30 12024 N 1163.26 -1.53291 -0.366026 0
M  V30 12025 C 1164.51 -1.68671 -1.10602 0
M  V30 12026 C 1164.83 -0.444793 -1.90476 0
M  V30 12027 O 1166.03 -0.479135 -2.67239 0
M  V30 12028 C 1164.49 -2.98174 -2.01545 0
M  V30 12029 C 1164.1 -4.29626 -1.26986 0
M  V30 12030 C 1165.84 -3.22921 -2.7554 0
M  V30 12031 C 1163.75 -5.50218 -2.16828 0
M  V30 12032 H 1162.68 -0.628456 -0.416604 0
M  V30 12033 H 1165.33 -1.79791 -0.367058 0
M  V30 12034 H 1163.71 -2.80855 -2.79171 0
M  V30 12035 H 1164.88 -4.57574 -0.544269 0
M  V30 12036 H 1163.2 -4.11318 -0.648558 0
M  V30 12037 H 1165.8 -4.10202 -3.42985 0
M  V30 12038 H 1166.14 -2.38964 -3.40884 0
M  V30 12039 H 1166.67 -3.40912 -2.04997 0
M  V30 12040 H 1163.41 -6.36651 -1.56063 0
M  V30 12041 H 1162.93 -5.26549 -2.87238 0
M  V30 12042 H 1164.61 -5.84991 -2.76396 0
M  V30 12043 N 1164.74 0.6258 -1.44643 0
M  V30 12044 C 1165.98 1.39676 -1.49232 0
M  V30 12045 C 1166.35 1.91601 -0.123682 0
M  V30 12046 O 1167.55 2.68764 -0.0442486 0
M  V30 12047 C 1165.82 2.52704 -2.52736 0
M  V30 12048 S 1167.38 3.40795 -2.76413 0
M  V30 12049 H 1164.2 0.476436 -0.527759 0
M  V30 12050 H 1166.8 0.72394 -1.81602 0
M  V30 12051 H 1165.5 2.12876 -3.50873 0
M  V30 12052 H 1165.03 3.24806 -2.21956 0
M  V30 12053 H 1167.05 4.5031 -2.08412 0
M  V30 12054 N 1166.22 1.31629 0.866686 0
M  V30 12055 C 1167.15 1.22151 1.99001 0
M  V30 12056 C 1168.13 0.107972 1.69757 0
M  V30 12057 O 1169.32 0.293125 1.91975 0
M  V30 12058 C 1166.45 0.93144 3.34577 0
M  V30 12059 C 1165.4 2.0049 3.78137 0
M  V30 12060 C 1164.73 1.56747 5.11209 0
M  V30 12061 C 1166.03 3.41844 3.94892 0
M  V30 12062 H 1167.72 2.16132 2.0719 0
M  V30 12063 H 1165.27 1.04051 0.995463 0
M  V30 12064 H 1167.22 0.851719 4.12703 0
M  V30 12065 H 1165.94 -0.0440289 3.2657 0
M  V30 12066 H 1164.6 2.07457 3.02253 0
M  V30 12067 H 1164.25 0.579767 4.99648 0
M  V30 12068 H 1163.95 2.28562 5.41326 0
M  V30 12069 H 1165.47 1.50188 5.91841 0
M  V30 12070 H 1166.89 3.37534 4.63405 0
M  V30 12071 H 1165.29 4.11905 4.36411 0
M  V30 12072 H 1166.36 3.82389 2.98172 0
M  V30 12073 N 1167.7 -1.08142 1.14644 0
M  V30 12074 C 1168.93 -1.84318 0.939926 0
M  V30 12075 C 1169.34 -1.81735 -0.511636 0
M  V30 12076 O 1168.7 -1.22297 -1.35461 0
M  V30 12077 C 1168.75 -3.31744 1.43625 0
M  V30 12078 O 1168.47 -3.3435 2.83094 0
M  V30 12079 C 1169.97 -4.24717 1.27007 0
M  V30 12080 H 1167.19 -0.581781 0.334323 0
M  V30 12081 H 1169.74 -1.36561 1.52221 0
M  V30 12082 H 1167.89 -3.7688 0.896664 0
M  V30 12083 H 1168.31 -4.26399 3.05425 0
M  V30 12084 H 1169.78 -5.26262 1.66591 0
M  V30 12085 H 1170.26 -4.38682 0.213257 0
M  V30 12086 H 1170.86 -3.85409 1.79833 0
M  V30 12087 N 1169.18 -0.941978 -1.26351 0
M  V30 12088 C 1170.4 -0.606231 -1.98342 0
M  V30 12089 C 1170.83 0.812014 -1.6967 0
M  V30 12090 O 1170.19 1.54712 -0.9452 0
M  V30 12091 C 1170.23 -0.855864 -3.50296 0
M  V30 12092 O 1169.34 0.0716251 -4.12338 0
M  V30 12093 H 1168.68 -0.231815 -0.62222 0
M  V30 12094 H 1171.21 -1.26513 -1.60797 0
M  V30 12095 H 1171.22 -0.777079 -4.00531 0
M  V30 12096 H 1169.89 -1.8896 -3.70496 0
M  V30 12097 H 1168.47 -0.0582866 -3.72854 0
M  V30 12098 N 1170.66 1.40747 -0.709091 0
M  V30 12099 C 1171.88 2.05319 -0.255258 0
M  V30 12100 C 1172.3 1.53406 1.10054 0
M  V30 12101 O 1171.66 0.687905 1.69039 0
M  V30 12102 C 1171.71 3.60835 -0.219251 0
M  V30 12103 O 1171.43 4.1083 -1.52151 0
M  V30 12104 C 1172.93 4.42572 0.253927 0
M  V30 12105 H 1170.15 0.660904 -0.115959 0
M  V30 12106 H 1172.69 1.80274 -0.965474 0
M  V30 12107 H 1170.85 3.84872 0.441882 0
M  V30 12108 H 1171.26 5.04979 -1.41764 0
M  V30 12109 H 1172.74 5.51529 0.22798 0
M  V30 12110 H 1173.21 4.19673 1.29504 0
M  V30 12111 H 1173.82 4.23629 -0.376694 0
M  V30 12112 N 1172.13 0.454803 1.50895 0
M  V30 12113 C 1173.38 -0.105927 2.02523 0
M  V30 12114 C 1173.71 -1.40825 1.33724 0
M  V30 12115 O 1172.99 -1.89038 0.457683 0
M  V30 12116 C 1173.27 -0.306635 3.58792 0
M  V30 12117 C 1173.12 1.01556 4.38185 0
M  V30 12118 C 1174.44 -1.06858 4.2693 0
M  V30 12119 H 1171.56 -0.0370232 0.736069 0
M  V30 12120 H 1174.2 0.597215 1.8037 0
M  V30 12121 H 1172.35 -0.905563 3.77799 0
M  V30 12122 H 1174.03 1.64981 4.30789 0
M  V30 12123 H 1172.27 1.61608 4.02574 0
M  V30 12124 H 1172.94 0.828959 5.4574 0
M  V30 12125 H 1175.42 -0.561086 4.123 0
M  V30 12126 H 1174.29 -1.1778 5.36115 0
M  V30 12127 H 1174.55 -2.10111 3.8898 0
M  V30 12128 N 1173.61 -1.56489 0.186789 0
M  V30 12129 C 1174.54 -2.15911 -0.769104 0
M  V30 12130 C 1175.56 -1.11872 -1.18273 0
M  V30 12131 O 1176.75 -1.38999 -1.1199 0
M  V30 12132 C 1173.85 -2.69957 -2.04882 0
M  V30 12133 C 1173.02 -3.98812 -1.79631 0
M  V30 12134 C 1172.08 -4.37767 -2.9197 0
M  V30 12135 O 1171.1 -5.0535 -2.61935 0
M  V30 12136 N 1172.31 -4.0059 -4.20128 0
M  V30 12137 H 1175.07 -2.98561 -0.261007 0
M  V30 12138 H 1172.63 -1.61899 0.00453357 0
M  V30 12139 H 1174.62 -2.93006 -2.79158 0
M  V30 12140 H 1173.19 -1.91808 -2.46837 0
M  V30 12141 H 1172.41 -3.8398 -0.891776 0
M  V30 12142 H 1173.7 -4.82939 -1.60148 0
M  V30 12143 H 1173.1 -3.46213 -4.47385 0
M  V30 12144 H 1171.66 -4.28608 -4.91059 0
M  V30 12145 N 1175.09 0.086862 -1.5736 0
M  V30 12146 C 1176.02 1.10538 -2.05678 0
M  V30 12147 C 1177 1.41281 -0.947293 0
M  V30 12148 O 1178.19 1.51169 -1.21908 0
M  V30 12149 C 1175.32 2.42302 -2.48812 0
M  V30 12150 C 1174.27 2.25948 -3.63499 0
M  V30 12151 C 1173.6 3.62961 -3.92637 0
M  V30 12152 C 1174.9 1.69319 -4.94094 0
M  V30 12153 H 1176.59 0.703371 -2.91021 0
M  V30 12154 H 1174.14 0.336895 -1.40004 0
M  V30 12155 H 1176.09 3.13833 -2.81224 0
M  V30 12156 H 1174.81 2.84454 -1.60479 0
M  V30 12157 H 1173.47 1.5686 -3.31347 0
M  V30 12158 H 1173.12 4.02656 -3.01459 0
M  V30 12159 H 1172.82 3.52862 -4.69853 0
M  V30 12160 H 1174.34 4.35946 -4.27531 0
M  V30 12161 H 1175.76 2.30699 -5.24834 0
M  V30 12162 H 1174.15 1.69957 -5.7553 0
M  V30 12163 H 1175.22 0.653318 -4.80479 0
M  V30 12164 N 1176.57 1.53483 0.357892 0
M  V30 12165 C 1177.81 1.70289 1.10134 0
M  V30 12166 C 1178.15 0.457296 1.88739 0
M  V30 12167 O 1177.42 -0.545527 1.86693 0
M  V30 12168 C 1177.7 2.95755 2.05429 0
M  V30 12169 C 1177.56 4.30489 1.30382 0
M  V30 12170 C 1178.88 3.16844 3.05447 0
M  V30 12171 H 1176 0.61965 0.399003 0
M  V30 12172 H 1178.64 1.86133 0.381357 0
M  V30 12173 H 1176.79 2.82377 2.66825 0
M  V30 12174 H 1178.46 4.55692 0.71711 0
M  V30 12175 H 1176.7 4.2955 0.605712 0
M  V30 12176 H 1177.37 5.14427 2.00171 0
M  V30 12177 H 1179.85 3.29458 2.54159 0
M  V30 12178 H 1178.73 4.06053 3.69341 0
M  V30 12179 H 1178.99 2.32476 3.76041 0
M  V30 12180 N 1178.05 -0.61812 1.44973 0
M  V30 12181 C 1179.27 -1.40429 1.51945 0
M  V30 12182 C 1179.69 -1.88215 0.148556 0
M  V30 12183 O 1179.05 -1.61603 -0.847978 0
M  V30 12184 C 1179.1 -2.61588 2.49507 0
M  V30 12185 O 1178.82 -2.15791 3.81269 0
M  V30 12186 C 1180.32 -3.5457 2.66074 0
M  V30 12187 H 1177.54 -0.43023 0.514921 0
M  V30 12188 H 1180.08 -0.754791 1.90061 0
M  V30 12189 H 1178.24 -3.22602 2.14492 0
M  V30 12190 H 1178.65 -2.94434 4.34061 0
M  V30 12191 H 1180.13 -4.36155 3.38338 0
M  V30 12192 H 1180.6 -4.04227 1.71746 0
M  V30 12193 H 1181.21 -2.99416 3.02043 0
M  V30 12194 N 1179.52 -1.32087 -0.859693 0
M  V30 12195 C 1180.46 -1.16426 -1.97428 0
M  V30 12196 C 1181.47 -0.100582 -1.62489 0
M  V30 12197 O 1182.66 -0.349063 -1.75054 0
M  V30 12198 C 1179.76 -0.758822 -3.30295 0
M  V30 12199 C 1178.93 -1.90971 -3.93508 0
M  V30 12200 C 1177.99 -1.48865 -5.04704 0
M  V30 12201 O 1177.02 -2.1999 -5.2497 0
M  V30 12202 N 1178.22 -0.38182 -5.79243 0
M  V30 12203 H 1180.98 -2.12433 -2.11406 0
M  V30 12204 H 1178.54 -1.24558 -1.03426 0
M  V30 12205 H 1180.54 -0.459643 -4.02081 0
M  V30 12206 H 1179.11 0.109944 -3.12407 0
M  V30 12207 H 1178.33 -2.37566 -3.14573 0
M  V30 12208 H 1179.61 -2.68032 -4.32477 0
M  V30 12209 H 1179.01 0.210268 -5.65309 0
M  V30 12210 H 1177.57 -0.142224 -6.51645 0
M  V30 12211 N 1181 1.07532 -1.15215 0
M  V30 12212 C 1181.93 2.1668 -0.870171 0
M  V30 12213 C 1182.91 1.69161 0.178483 0
M  V30 12214 O 1184.1 1.94172 0.0332489 0
M  V30 12215 C 1181.23 3.45464 -0.356666 0
M  V30 12216 C 1180.18 4.06424 -1.34179 0
M  V30 12217 C 1179.51 5.30266 -0.687206 0
M  V30 12218 C 1180.81 4.46666 -2.70715 0
M  V30 12219 H 1182.5 2.40526 -1.7829 0
M  V30 12220 H 1180.05 1.15598 -0.858665 0
M  V30 12221 H 1182 4.21144 -0.146947 0
M  V30 12222 H 1180.72 3.21199 0.591527 0
M  V30 12223 H 1179.38 3.32786 -1.53783 0
M  V30 12224 H 1179.03 5.0229 0.267077 0
M  V30 12225 H 1178.73 5.72009 -1.34462 0
M  V30 12226 H 1180.26 6.08653 -0.487218 0
M  V30 12227 H 1181.67 5.13483 -2.54966 0
M  V30 12228 H 1180.07 4.99355 -3.32813 0
M  V30 12229 H 1181.14 3.58123 -3.26919 0
M  V30 12230 N 1182.48 0.948665 1.2585 0
M  V30 12231 C 1183.41 0.408398 2.24516 0
M  V30 12232 C 1184.39 -0.506954 1.54495 0
M  V30 12233 O 1185.58 -0.442695 1.83228 0
M  V30 12234 C 1182.7 -0.41241 3.3618 0
M  V30 12235 C 1181.75 0.442483 4.24198 0
M  V30 12236 S 1182.58 1.87106 5.01749 0
M  V30 12237 C 1183.74 1.05851 6.16884 0
M  V30 12238 H 1183.97 1.24458 2.69995 0
M  V30 12239 H 1181.5 0.752309 1.34832 0
M  V30 12240 H 1183.46 -0.880064 4.00955 0
M  V30 12241 H 1182.12 -1.22335 2.89297 0
M  V30 12242 H 1181.32 -0.186767 5.03654 0
M  V30 12243 H 1180.92 0.845113 3.64327 0
M  V30 12244 H 1183.21 0.304329 6.76816 0
M  V30 12245 H 1184.15 1.82678 6.8413 0
M  V30 12246 H 1184.56 0.591269 5.61395 0
M  V30 12247 N 1183.96 -1.40369 0.716545 0
M  V30 12248 C 1185.37 -1.83783 0.328719 0
M  V30 12249 C 1185.72 -1.5991 -1.13681 0
M  V30 12250 O 1184.85 -1.08048 -1.87496 0
M  V30 12251 C 1185.44 -3.33626 0.589848 0
M  V30 12252 C 1184 -3.7553 0.25572 0
M  V30 12253 C 1183.15 -2.63571 0.861733 0
M  V30 12254 H 1186.1 -1.29623 0.915621 0
M  V30 12255 H 1186.12 -3.80225 -0.14459 0
M  V30 12256 H 1185.63 -3.5097 1.65655 0
M  V30 12257 H 1183.73 -3.63781 -0.805883 0
M  V30 12258 H 1183.84 -4.73577 0.725388 0
M  V30 12259 H 1182.21 -2.53047 0.289706 0
M  V30 12260 H 1182.99 -2.83727 1.93272 0
M  V30 12261 N 1185.44 -0.462799 -1.50652 0
M  V30 12262 C 1186.67 0.0928413 -2.06391 0
M  V30 12263 C 1187.07 1.34791 -1.3277 0
M  V30 12264 O 1186.42 1.79555 -0.388048 0
M  V30 12265 C 1186.48 0.45517 -3.56607 0
M  V30 12266 C 1186.14 -0.696698 -4.51658 0
M  V30 12267 C 1187.14 -1.57633 -4.95427 0
M  V30 12268 C 1184.83 -0.884669 -4.94448 0
M  V30 12269 C 1186.82 -2.62841 -5.80684 0
M  V30 12270 C 1184.51 -1.93998 -5.79489 0
M  V30 12271 C 1185.5 -2.81022 -6.22508 0
M  V30 12272 O 1185.19 -3.84738 -7.05856 0
M  V30 12273 H 1184.92 -3.18898e-05 -0.676 0
M  V30 12274 H 1187.48 -0.648161 -1.94905 0
M  V30 12275 H 1185.71 1.24924 -3.65966 0
M  V30 12276 H 1187.4 0.944923 -3.94748 0
M  V30 12277 H 1188.16 -1.44276 -4.63044 0
M  V30 12278 H 1184.04 -0.216807 -4.6049 0
M  V30 12279 H 1187.59 -3.30797 -6.14182 0
M  V30 12280 H 1183.48 -2.07366 -6.11285 0
M  V30 12281 H 1184.25 -3.81626 -7.24088 0
M  V30 12282 N 1186.91 1.56388 -0.195085 0
M  V30 12283 C 1188.16 1.97189 0.44281 0
M  V30 12284 C 1188.48 1.08312 1.62153 0
M  V30 12285 O 1187.75 0.154404 1.95291 0
M  V30 12286 H 1186.33 0.728188 0.166585 0
M  V30 12287 H 1189 1.92852 -0.281815 0
M  V30 12288 H 1188.09 3.02016 0.786945 0
M  V30 12289 N 1188.39 -0.0785156 1.57404 0
M  V30 12290 C 1189.63 -0.784359 1.88752 0
M  V30 12291 C 1190 -1.75081 0.788079 0
M  V30 12292 O 1191.2 -2.50125 0.984431 0
M  V30 12293 C 1189.47 -1.47962 3.25334 0
M  V30 12294 S 1191.03 -2.22146 3.78413 0
M  V30 12295 H 1187.85 -0.260976 0.661372 0
M  V30 12296 H 1190.45 -0.0407396 1.95458 0
M  V30 12297 H 1189.15 -0.762338 4.03257 0
M  V30 12298 H 1188.68 -2.26281 3.21808 0
M  V30 12299 H 1190.7 -3.48558 3.5316 0
M  V30 12300 N 1189.87 -1.5367 -0.349747 0
M  V30 12301 C 1190.8 -1.84208 -1.43492 0
M  V30 12302 C 1191.78 -0.696725 -1.55177 0
M  V30 12303 O 1192.97 -0.948061 -1.69486 0
M  V30 12304 C 1190.1 -2.04613 -2.80625 0
M  V30 12305 C 1189.05 -3.20419 -2.83753 0
M  V30 12306 C 1188.38 -3.26147 -4.23713 0
M  V30 12307 C 1189.68 -4.58666 -2.49846 0
M  V30 12308 H 1191.37 -2.75087 -1.18185 0
M  V30 12309 H 1188.92 -1.32363 -0.567101 0
M  V30 12310 H 1190.87 -2.2456 -3.56582 0
M  V30 12311 H 1189.59 -1.10459 -3.07354 0
M  V30 12312 H 1188.25 -3.00318 -2.10249 0
M  V30 12313 H 1187.9 -2.29599 -4.47541 0
M  V30 12314 H 1187.6 -4.03963 -4.26717 0
M  V30 12315 H 1189.12 -3.48296 -5.0152 0
M  V30 12316 H 1190.54 -4.78668 -3.15516 0
M  V30 12317 H 1188.94 -5.3884 -2.64144 0
M  V30 12318 H 1190.01 -4.62697 -1.4505 0
M  V30 12319 N 1191.35 0.610423 -1.45298 0
M  V30 12320 C 1192.28 1.73207 -1.56594 0
M  V30 12321 C 1193.26 1.64893 -0.417651 0
M  V30 12322 O 1194.44 1.83336 -0.64043 0
M  V30 12323 C 1191.57 3.11803 -1.52959 0
M  V30 12324 C 1190.53 3.34925 -2.66475 0
M  V30 12325 C 1189.85 4.73764 -2.47894 0
M  V30 12326 C 1191.15 3.25456 -4.08504 0
M  V30 12327 H 1192.85 1.6401 -2.50482 0
M  V30 12328 H 1190.39 0.787621 -1.20551 0
M  V30 12329 H 1192.35 3.90065 -1.59458 0
M  V30 12330 H 1191.07 3.21833 -0.55599 0
M  V30 12331 H 1189.73 2.59051 -2.59399 0
M  V30 12332 H 1189.38 4.80524 -1.4868 0
M  V30 12333 H 1189.08 4.90191 -3.24016 0
M  V30 12334 H 1190.6 5.54231 -2.56243 0
M  V30 12335 H 1192.02 3.93597 -4.16839 0
M  V30 12336 H 1190.41 3.53414 -4.84994 0
M  V30 12337 H 1191.48 2.22939 -4.30612 0
M  V30 12338 N 1192.83 1.32541 0.852676 0
M  V30 12339 C 1194.1 1.1383 1.59067 0
M  V30 12340 C 1194.48 -0.300584 2.08949 0
M  V30 12341 O 1193.83 -1.29751 1.88088 0
M  V30 12342 C 1194.04 2.16758 2.73527 0
M  V30 12343 C 1195.39 2.50194 3.43057 0
M  V30 12344 O 1196.41 2.15319 2.83754 0
M  V30 12345 O 1195.27 3.09985 4.50079 0
M  V30 12346 H 1192.37 0.439379 0.700625 0
M  V30 12347 H 1194.91 1.44078 0.896632 0
M  V30 12348 H 1193.68 3.13469 2.34207 0
M  V30 12349 H 1193.31 1.87515 3.50605 0
M  V30 12350 N 1194.3 -1.0692 1.15784 0
M  V30 12351 C 1195.25 -2.12473 0.826994 0
M  V30 12352 C 1196.24 -1.59766 -0.19073 0
M  V30 12353 O 1197.43 -1.76998 0.00917115 0
M  V30 12354 C 1194.56 -3.41779 0.322847 0
M  V30 12355 C 1193.65 -4.01329 1.37098 0
M  V30 12356 N 1194.04 -4.35077 2.57957 0
M  V30 12357 C 1192.33 -4.28854 1.22475 0
M  V30 12358 C 1193.04 -4.82326 3.25171 0
M  V30 12359 N 1192.01 -4.81369 2.52556 0
M  V30 12360 H 1195.81 -2.36404 1.74614 0
M  V30 12361 H 1193.33 -1.244 1.04395 0
M  V30 12362 H 1195.32 -4.16845 0.0674576 0
M  V30 12363 H 1193.98 -3.19289 -0.590311 0
M  V30 12364 H 1195 -4.25626 2.95065 0
M  V30 12365 H 1191.67 -4.15841 0.371839 0
M  V30 12366 H 1193.06 -5.17695 4.28301 0
M  V30 12367 N 1195.78 -0.955326 -1.25345 0
M  V30 12368 C 1197.03 -0.611388 -1.93365 0
M  V30 12369 C 1197.36 0.84953 -1.74633 0
M  V30 12370 O 1196.64 1.60962 -1.09185 0
M  V30 12371 C 1196.92 -0.971732 -3.46741 0
M  V30 12372 C 1196.77 -2.48843 -3.74696 0
M  V30 12373 C 1198.09 -0.497295 -4.37281 0
M  V30 12374 H 1195.21 -0.223591 -0.702265 0
M  V30 12375 H 1197.85 -1.1921 -1.47949 0
M  V30 12376 H 1196 -0.477568 -3.85554 0
M  V30 12377 H 1197.67 -3.05641 -3.45516 0
M  V30 12378 H 1195.92 -2.92582 -3.20278 0
M  V30 12379 H 1196.59 -2.69107 -4.8196 0
M  V30 12380 H 1199.06 -0.921196 -4.05775 0
M  V30 12381 H 1197.94 -0.778113 -5.43357 0
M  V30 12382 H 1198.2 0.602743 -4.37972 0
M  V30 12383 N 1197.26 1.39987 -0.723979 0
M  V30 12384 C 1198.68 1.54547 -0.398403 0
M  V30 12385 C 1198.88 1.69348 1.09194 0
M  V30 12386 O 1197.93 1.68778 1.87804 0
M  V30 12387 C 1199.25 2.76929 -1.1718 0
M  V30 12388 C 1200.79 2.90754 -1.15893 0
M  V30 12389 C 1201.27 4.16059 -1.91465 0
M  V30 12390 N 1202.76 4.23076 -1.88576 0
M  V30 12391 C 1203.5 5.18957 -2.43867 0
M  V30 12392 N 1202.99 6.20695 -3.0775 0
M  V30 12393 N 1204.78 5.11095 -2.33962 0
M  V30 12394 H 1196.94 1.28626 -1.69024 0
M  V30 12395 H 1199.2 0.6226 -0.714894 0
M  V30 12396 H 1198.9 2.72298 -2.22591 0
M  V30 12397 H 1198.78 3.69279 -0.768941 0
M  V30 12398 H 1201.17 2.94884 -0.112978 0
M  V30 12399 H 1201.25 1.99498 -1.60107 0
M  V30 12400 H 1200.89 4.12691 -2.96055 0
M  V30 12401 H 1200.82 5.06339 -1.44665 0
M  V30 12402 H 1203.31 3.50195 -1.42027 0
M  V30 12403 H 1203.62 6.90296 -3.47435 0
M  V30 12404 H 1201.97 6.21114 -3.11837 0
M  V30 12405 H 1205.16 4.30546 -1.83706 0
M  V30 12406 H 1205.33 5.85644 -2.77353 0
M  V30 12407 N 1198.74 0.470782 1.50404 0
M  V30 12408 C 1199.65 -0.328877 2.32283 0
M  V30 12409 C 1200.67 -0.99629 1.42654 0
M  V30 12410 O 1201.84 -0.984331 1.75707 0
M  V30 12411 C 1198.91 -1.39675 3.1732 0
M  V30 12412 C 1197.97 -0.745965 4.22769 0
M  V30 12413 C 1197.2 -1.76295 5.03742 0
M  V30 12414 O 1197.42 -2.98943 4.85788 0
M  V30 12415 O 1196.36 -1.33495 5.86909 0
M  V30 12416 H 1200.18 0.340491 3.01785 0
M  V30 12417 H 1197.77 0.232637 1.47578 0
M  V30 12418 H 1199.65 -2.0153 3.70086 0
M  V30 12419 H 1198.33 -2.04959 2.50546 0
M  V30 12420 H 1197.23 -0.0884647 3.73995 0
M  V30 12421 H 1198.57 -0.136074 4.92012 0
M  V30 12422 N 1200.22 -1.56282 0.203376 0
M  V30 12423 C 1201.17 -2.20822 -0.730784 0
M  V30 12424 C 1202.16 -1.18193 -1.21354 0
M  V30 12425 O 1203.37 -1.36318 -1.17547 0
M  V30 12426 H 1199.74 -0.707792 -0.254036 0
M  V30 12427 H 1201.71 -2.97955 -0.162825 0
M  V30 12428 C 1200.46 -2.88803 -1.93618 0
M  V30 12429 H 1199.78 -3.67521 -1.57379 0
M  V30 12430 H 1201.22 -3.37387 -2.56799 0
M  V30 12431 C 1199.68 -1.90285 -2.78017 0
M  V30 12432 O 1200.21 -1.40833 -3.76203 0
M  V30 12433 N 1198.42 -1.58332 -2.43679 0
M  V30 12434 H 1197.97 -1.9874 -1.63891 0
M  V30 12435 H 1197.92 -0.926722 -3.00432 0
M  V30 12436 N 1201.7 0.070167 -1.57444 0
M  V30 12437 C 1203.11 0.424991 -1.53838 0
M  V30 12438 C 1203.31 1.79076 -0.923793 0
M  V30 12439 O 1202.37 2.46939 -0.527002 0
M  V30 12440 C 1203.68 0.364562 -2.98482 0
M  V30 12441 C 1205.23 0.444631 -3.09826 0
M  V30 12442 C 1205.7 0.414093 -4.56124 0
M  V30 12443 N 1207.19 0.474119 -4.60767 0
M  V30 12444 C 1207.93 0.472729 -5.71448 0
M  V30 12445 N 1207.43 0.426059 -6.91489 0
M  V30 12446 N 1209.22 0.519408 -5.59695 0
M  V30 12447 H 1201.37 -0.824117 -1.9576 0
M  V30 12448 H 1203.63 -0.309401 -0.896089 0
M  V30 12449 H 1203.34 -0.572343 -3.47012 0
M  V30 12450 H 1203.21 1.17414 -3.5846 0
M  V30 12451 H 1205.6 1.37196 -2.61269 0
M  V30 12452 H 1205.68 -0.393547 -2.52755 0
M  V30 12453 H 1205.32 -0.509394 -5.05339 0
M  V30 12454 H 1205.25 1.26983 -5.11061 0
M  V30 12455 H 1207.75 0.514371 -3.74383 0
M  V30 12456 H 1208.06 0.428969 -7.71609 0
M  V30 12457 H 1206.4 0.392722 -6.9389 0
M  V30 12458 H 1209.59 0.553573 -4.64815 0
M  V30 12459 H 1209.77 0.514856 -6.45951 0
M  V30 12460 N 1203.17 1.53854 0.341593 0
M  V30 12461 C 1204.42 1.70856 1.07948 0
M  V30 12462 C 1204.74 0.475474 1.89114 0
M  V30 12463 O 1204.01 -0.510592 1.89129 0
M  V30 12464 H 1202.59 0.629914 0.401519 0
M  V30 12465 H 1205.25 1.91112 0.382393 0
M  V30 12466 H 1204.35 2.5803 1.75575 0
M  V30 12467 N 1204.65 -0.602709 1.4562 0
M  V30 12468 C 1206.07 -0.923983 1.30133 0
M  V30 12469 C 1206.27 -1.99842 0.25796 0
M  V30 12470 O 1205.32 -2.50112 -0.346414 0
M  V30 12471 C 1206.64 -1.36029 2.68173 0
M  V30 12472 C 1208.18 -1.47423 2.76108 0
M  V30 12473 C 1208.66 -1.94427 4.14683 0
M  V30 12474 N 1210.15 -2.01653 4.17002 0
M  V30 12475 C 1210.89 -2.39255 5.211 0
M  V30 12476 N 1210.38 -2.75791 6.3554 0
M  V30 12477 N 1212.17 -2.39636 5.08459 0
M  V30 12478 H 1204.33 0.107377 2.12128 0
M  V30 12479 H 1206.59 -0.0146216 0.947887 0
M  V30 12480 H 1206.29 -0.644949 3.45736 0
M  V30 12481 H 1206.17 -2.32584 2.96959 0
M  V30 12482 H 1208.56 -2.18047 1.98845 0
M  V30 12483 H 1208.64 -0.4917 2.5103 0
M  V30 12484 H 1208.28 -1.24389 4.92433 0
M  V30 12485 H 1208.21 -2.93603 4.37156 0
M  V30 12486 H 1210.7 -1.75988 3.3442 0
M  V30 12487 H 1211.01 -3.03378 7.10761 0
M  V30 12488 H 1209.36 -2.73475 6.38934 0
M  V30 12489 H 1212.55 -2.10502 4.18098 0
M  V30 12490 H 1212.72 -2.68614 5.89704 0
M  V30 12491 N 1206.13 -1.32992 -0.845635 0
M  V30 12492 C 1207.06 -1.25301 -1.97033 0
M  V30 12493 C 1208.04 -0.134966 -1.69564 0
M  V30 12494 O 1209.23 -0.323629 -1.91484 0
M  V30 12495 C 1206.36 -0.984551 -3.33052 0
M  V30 12496 C 1205.31 -2.06481 -3.749 0
M  V30 12497 C 1204.64 -1.6486 -5.08651 0
M  V30 12498 C 1205.94 -3.48083 -3.89404 0
M  V30 12499 H 1207.63 -2.194 -2.03725 0
M  V30 12500 H 1205.18 -1.05621 -0.978783 0
M  V30 12501 H 1207.13 -0.917269 -4.11296 0
M  V30 12502 H 1205.85 -0.00793116 -3.26599 0
M  V30 12503 H 1204.51 -2.1224 -2.98915 0
M  V30 12504 H 1204.16 -0.659183 -4.98662 0
M  V30 12505 H 1203.86 -2.37145 -5.37621 0
M  V30 12506 H 1205.38 -1.59585 -5.89377 0
M  V30 12507 H 1206.8 -3.44863 -4.57976 0
M  V30 12508 H 1205.19 -4.18796 -4.29802 0
M  V30 12509 H 1206.26 -3.87084 -2.92051 0
M  V30 12510 N 1207.61 1.06304 -1.1635 0
M  V30 12511 C 1208.86 1.78747 -0.943074 0
M  V30 12512 C 1209.18 1.87646 0.530483 0
M  V30 12513 O 1208.45 1.38506 1.38538 0
M  V30 12514 H 1207.03 0.662072 -0.345932 0
M  V30 12515 H 1209.69 1.28413 -1.46615 0
M  V30 12516 H 1208.78 2.80828 -1.3617 0
M  V30 12517 N 1209.09 0.96196 1.24836 0
M  V30 12518 C 1210.31 0.637709 1.97353 0
M  V30 12519 C 1210.74 -0.784919 1.7094 0
M  V30 12520 O 1210.09 -1.53188 0.969694 0
M  V30 12521 C 1210.14 0.911485 3.4889 0
M  V30 12522 O 1209.25 -0.00601668 4.124 0
M  V30 12523 H 1208.59 0.241685 0.618453 0
M  V30 12524 H 1211.12 1.29055 1.58764 0
M  V30 12525 H 1211.13 0.840702 3.99245 0
M  V30 12526 H 1209.8 1.9483 3.67442 0
M  V30 12527 H 1208.38 0.117597 3.72715 0
M  V30 12528 N 1210.56 -1.39601 0.731392 0
M  V30 12529 C 1211.5 -2.29147 0.0494974 0
M  V30 12530 C 1212.51 -1.46635 -0.707248 0
M  V30 12531 O 1213.7 -1.6975 -0.552008 0
M  V30 12532 C 1210.8 -3.25191 -0.954152 0
M  V30 12533 C 1209.97 -4.36629 -0.259674 0
M  V30 12534 C 1209.03 -5.13007 -1.17092 0
M  V30 12535 O 1208.06 -5.65479 -0.64976 0
M  V30 12536 N 1209.26 -5.23865 -2.50092 0
M  V30 12537 H 1212.02 -2.88308 0.818433 0
M  V30 12538 H 1209.58 -1.51142 0.580316 0
M  V30 12539 H 1211.58 -3.73161 -1.56629 0
M  V30 12540 H 1210.15 -2.67085 -1.62432 0
M  V30 12541 H 1209.37 -3.90582 0.532888 0
M  V30 12542 H 1210.65 -5.08317 0.221753 0
M  V30 12543 H 1210.05 -4.82745 -2.94913 0
M  V30 12544 H 1208.61 -5.75288 -3.0641 0
M  V30 12545 N 1212.04 -0.478751 -1.50152 0
M  V30 12546 C 1213.32 0.135533 -1.9513 0
M  V30 12547 C 1213.7 1.56253 -1.41944 0
M  V30 12548 O 1213.05 2.19824 -0.623673 0
M  V30 12549 C 1213.26 0.0710037 -3.48928 0
M  V30 12550 C 1214.61 0.256075 -4.23827 0
M  V30 12551 O 1215.63 0.147234 -3.55896 0
M  V30 12552 O 1214.49 0.476741 -5.44417 0
M  V30 12553 H 1211.58 0.107491 -0.819985 0
M  V30 12554 H 1214.13 -0.539701 -1.60889 0
M  V30 12555 H 1212.9 -0.925012 -3.80209 0
M  V30 12556 H 1212.52 0.787362 -3.89726 0
M  V30 12557 N 1213.52 1.56172 -0.211661 0
M  V30 12558 C 1214.45 2.22843 0.697375 0
M  V30 12559 C 1215.43 1.19689 1.20866 0
M  V30 12560 O 1216.62 1.48245 1.25447 0
M  V30 12561 C 1213.75 2.90067 1.90993 0
M  V30 12562 C 1212.7 3.99608 1.5329 0
M  V30 12563 C 1212.03 4.54078 2.82343 0
M  V30 12564 C 1213.33 5.17169 0.730333 0
M  V30 12565 H 1215.02 2.99065 0.141533 0
M  V30 12566 H 1212.57 1.43846 0.0666337 0
M  V30 12567 H 1214.52 3.35396 2.55123 0
M  V30 12568 H 1213.24 2.11276 2.49058 0
M  V30 12569 H 1211.9 3.54995 0.915115 0
M  V30 12570 H 1211.55 3.72029 3.38531 0
M  V30 12571 H 1211.25 5.28001 2.57853 0
M  V30 12572 H 1212.77 5.02119 3.47432 0
M  V30 12573 H 1214.19 5.5894 1.2751 0
M  V30 12574 H 1212.59 5.97262 0.582916 0
M  V30 12575 H 1213.66 4.84174 -0.265157 0
M  V30 12576 N 1215 -0.0618163 1.57479 0
M  V30 12577 C 1215.93 -1.07252 2.07411 0
M  V30 12578 C 1216.91 -1.39756 0.969649 0
M  V30 12579 O 1218.09 -1.4921 1.24298 0
M  V30 12580 C 1215.22 -2.38313 2.52635 0
M  V30 12581 C 1214.18 -2.20136 3.67048 0
M  V30 12582 C 1213.5 -3.56668 3.98361 0
M  V30 12583 C 1214.8 -1.61437 4.96725 0
M  V30 12584 H 1216.5 -0.656983 2.92103 0
M  V30 12585 H 1214.04 -0.314579 1.40522 0
M  V30 12586 H 1216 -3.09319 2.86181 0
M  V30 12587 H 1214.72 -2.81865 1.64984 0
M  V30 12588 H 1213.38 -1.51569 3.338 0
M  V30 12589 H 1213.03 -3.97809 3.07826 0
M  V30 12590 H 1212.73 -3.45342 4.75408 0
M  V30 12591 H 1214.25 -4.2909 4.34413 0
M  V30 12592 H 1215.67 -2.2232 5.28438 0
M  V30 12593 H 1214.06 -1.60779 5.78161 0
M  V30 12594 H 1215.13 -0.576795 4.81457 0
M  V30 12595 N 1216.48 -1.54033 -0.333429 0
M  V30 12596 C 1217.42 -1.83441 -1.43011 0
M  V30 12597 C 1218.42 -0.705592 -1.54006 0
M  V30 12598 O 1219.62 -0.889098 -1.56509 0
M  V30 12599 H 1216 -0.581326 -0.477037 0
M  V30 12600 H 1217.97 -2.75172 -1.15426 0
M  V30 12601 C 1216.72 -2.0698 -2.79382 0
M  V30 12602 H 1216.04 -2.93297 -2.71692 0
M  V30 12603 H 1217.48 -2.31517 -3.55212 0
M  V30 12604 C 1215.94 -0.85835 -3.25782 0
M  V30 12605 O 1216.47 -0.062739 -4.01651 0
M  V30 12606 N 1214.68 -0.672738 -2.82706 0
M  V30 12607 H 1214.22 -1.32136 -2.21128 0
M  V30 12608 H 1214.18 0.136347 -3.14104 0
M  V30 12609 N 1217.95 0.594978 -1.45938 0
M  V30 12610 C 1219.2 1.35356 -1.51823 0
M  V30 12611 C 1219.56 1.91711 -0.162721 0
M  V30 12612 O 1218.85 1.72831 0.827047 0
M  V30 12613 C 1219.04 2.51129 -2.54301 0
M  V30 12614 C 1218.87 2.06113 -3.99684 0
M  V30 12615 C 1217.64 1.91698 -4.67525 0
M  V30 12616 C 1219.84 1.62817 -4.87848 0
M  V30 12617 N 1217.82 1.40625 -5.97577 0
M  V30 12618 C 1219.19 1.23248 -6.07626 0
M  V30 12619 C 1221.25 1.50523 -4.74602 0
M  V30 12620 C 1219.95 0.726124 -7.15626 0
M  V30 12621 C 1221.98 1.0129 -5.82661 0
M  V30 12622 C 1221.34 0.626938 -7.01604 0
M  V30 12623 H 1217.44 0.488744 -0.610454 0
M  V30 12624 H 1220.02 0.678804 -1.82484 0
M  V30 12625 H 1218.19 3.16184 -2.25571 0
M  V30 12626 H 1219.92 3.18046 -2.50257 0
M  V30 12627 H 1216.68 2.1327 -4.22863 0
M  V30 12628 H 1217.1 1.17285 -6.66763 0
M  V30 12629 H 1221.75 1.78985 -3.83046 0
M  V30 12630 H 1219.46 0.429069 -8.0696 0
M  V30 12631 H 1223.05 0.921864 -5.7445 0
M  V30 12632 H 1221.93 0.251849 -7.83795 0
M  V30 12633 N 1219.43 1.33438 0.838571 0
M  V30 12634 C 1220.67 1.26245 1.60753 0
M  V30 12635 C 1221.04 -0.169255 1.91253 0
M  V30 12636 O 1222.24 -0.365157 2.66308 0
M  V30 12637 C 1220.51 2.11348 2.88213 0
M  V30 12638 S 1222.07 2.21348 3.78881 0
M  V30 12639 H 1218.89 0.449132 0.551182 0
M  V30 12640 H 1221.49 1.68474 0.991798 0
M  V30 12641 H 1220.19 3.14402 2.63779 0
M  V30 12642 H 1219.72 1.69957 3.54793 0
M  V30 12643 H 1221.74 1.37477 4.76775 0
M  V30 12644 N 1220.91 -1.05686 1.16912 0
M  V30 12645 C 1221.84 -2.12775 0.824755 0
M  V30 12646 C 1222.82 -1.61286 -0.206289 0
M  V30 12647 O 1224.01 -1.8829 -0.0889616 0
M  V30 12648 C 1221.13 -3.37922 0.229422 0
M  V30 12649 C 1220.18 -4.08226 1.23506 0
M  V30 12650 S 1221.01 -4.57424 2.78431 0
M  V30 12651 C 1222.17 -5.85825 2.20364 0
M  V30 12652 H 1222.4 -2.41657 1.73174 0
M  V30 12653 H 1219.93 -1.18212 0.99324 0
M  V30 12654 H 1221.89 -4.10359 -0.107588 0
M  V30 12655 H 1220.55 -3.07186 -0.655424 0
M  V30 12656 H 1219.75 -4.98129 0.767059 0
M  V30 12657 H 1219.35 -3.41832 1.51747 0
M  V30 12658 H 1221.64 -6.58912 1.57611 0
M  V30 12659 H 1222.58 -6.37364 3.08501 0
M  V30 12660 H 1222.99 -5.4015 1.64008 0
M  V30 12661 N 1222.39 -0.968567 -1.24324 0
M  V30 12662 C 1223.32 -0.457247 -2.24593 0
M  V30 12663 C 1224.33 0.434483 -1.56895 0
M  V30 12664 O 1225.52 0.240519 -1.76872 0
M  V30 12665 C 1222.62 0.359086 -3.36992 0
M  V30 12666 C 1221.8 -0.522945 -4.34263 0
M  V30 12667 C 1220.85 0.237528 -5.25664 0
M  V30 12668 O 1219.88 -0.368835 -5.68004 0
M  V30 12669 N 1221.08 1.52686 -5.6006 0
M  V30 12670 H 1223.85 -1.31934 -2.69098 0
M  V30 12671 H 1221.41 -0.840488 -1.38374 0
M  V30 12672 H 1223.4 0.87589 -3.95108 0
M  V30 12673 H 1221.97 1.12212 -2.91766 0
M  V30 12674 H 1221.19 -1.22071 -3.74823 0
M  V30 12675 H 1222.48 -1.12447 -4.96219 0
M  V30 12676 H 1221.88 2.0412 -5.2759 0
M  V30 12677 H 1220.43 1.98934 -6.207 0
M  V30 12678 N 1223.87 1.39211 -0.738786 0
M  V30 12679 C 1225.12 1.99673 -0.285254 0
M  V30 12680 C 1225.43 1.59297 1.13507 0
M  V30 12681 O 1226.63 2.12622 1.68832 0
M  V30 12682 C 1225.09 3.5696 -0.45906 0
M  V30 12683 C 1224.7 4.06297 -1.88751 0
M  V30 12684 C 1226.44 4.24446 -0.0674954 0
M  V30 12685 C 1224.35 5.56171 -2.01067 0
M  V30 12686 H 1223.28 0.746945 -0.102901 0
M  V30 12687 H 1225.93 1.59163 -0.913209 0
M  V30 12688 H 1224.31 3.95285 0.23785 0
M  V30 12689 H 1225.49 3.79297 -2.61669 0
M  V30 12690 H 1223.8 3.51486 -2.23264 0
M  V30 12691 H 1226.4 5.34521 -0.138475 0
M  V30 12692 H 1226.74 4.04653 0.977823 0
M  V30 12693 H 1227.27 3.91309 -0.715704 0
M  V30 12694 H 1224.01 5.80849 -3.03801 0
M  V30 12695 H 1223.53 5.84961 -1.32591 0
M  V30 12696 H 1225.21 6.21642 -1.79362 0
M  V30 12697 N 1225.34 0.486708 1.49896 0
M  V30 12698 C 1226.31 -0.288126 2.27382 0
M  V30 12699 C 1227.31 -0.906675 1.32801 0
M  V30 12700 O 1228.5 -0.773425 1.56089 0
M  V30 12701 C 1225.63 -1.41194 3.10285 0
M  V30 12702 H 1226.82 0.391618 2.97332 0
M  V30 12703 H 1224.38 0.24123 1.54427 0
M  V30 12704 H 1225.11 -2.12627 2.44868 0
M  V30 12705 H 1224.9 -0.974033 3.79809 0
M  V30 12706 H 1226.39 -1.95812 3.68846 0
M  V30 12707 N 1226.82 -1.56058 0.219941 0
M  V30 12708 C 1227.77 -2.20218 -0.690846 0
M  V30 12709 C 1228.74 -1.15725 -1.19151 0
M  V30 12710 O 1229.93 -1.44073 -1.2509 0
M  V30 12711 C 1227.07 -2.88477 -1.89408 0
M  V30 12712 C 1226.18 -4.07559 -1.43246 0
M  V30 12713 C 1225.31 -4.63605 -2.59314 0
M  V30 12714 C 1224.35 -5.74993 -2.0988 0
M  V30 12715 N 1223.49 -6.25337 -3.19214 0
M  V30 12716 H 1228.33 -2.97685 -0.136992 0
M  V30 12717 H 1225.87 -1.46994 -0.055865 0
M  V30 12718 H 1227.82 -3.26235 -2.60051 0
M  V30 12719 H 1226.45 -2.1353 -2.42084 0
M  V30 12720 H 1225.51 -3.75297 -0.621013 0
M  V30 12721 H 1226.82 -4.8805 -1.02997 0
M  V30 12722 H 1225.97 -5.03798 -3.38041 0
M  V30 12723 H 1224.71 -3.82274 -3.0285 0
M  V30 12724 H 1223.72 -5.34304 -1.29613 0
M  V30 12725 H 1224.94 -6.58158 -1.67345 0
M  V30 12726 H 1222.89 -5.4692 -3.62236 0
M  V30 12727 H 1222.8 -7.00947 -2.83213 0
M  V30 12728 H 1224.07 -6.70187 -3.98083 0
M  V30 12729 N 1228.3 0.053464 -1.57509 0
M  V30 12730 C 1229.55 0.747622 -1.87763 0
M  V30 12731 C 1229.87 1.77178 -0.814433 0
M  V30 12732 O 1229.14 1.95287 0.154862 0
M  V30 12733 H 1227.72 0.279109 -0.692898 0
M  V30 12734 H 1230.38 0.0252006 -1.94884 0
M  V30 12735 H 1229.48 1.25244 -2.85868 0
M  V30 12736 N 1229.78 1.54207 0.325255 0
M  V30 12737 C 1230.71 1.78318 1.42401 0
M  V30 12738 C 1231.69 0.633078 1.49769 0
M  V30 12739 O 1232.87 0.870324 1.67205 0
M  V30 12740 C 1230 1.89823 2.80509 0
M  V30 12741 C 1229.05 3.12102 2.9068 0
M  V30 12742 S 1229.88 4.70746 2.55262 0
M  V30 12743 C 1231.04 4.85154 3.95444 0
M  V30 12744 H 1231.27 2.71234 1.21736 0
M  V30 12745 H 1228.8 1.45309 0.521993 0
M  V30 12746 H 1230.76 1.97136 3.60066 0
M  V30 12747 H 1229.42 0.978873 2.98458 0
M  V30 12748 H 1228.61 3.16881 3.91921 0
M  V30 12749 H 1228.22 3.03109 2.19091 0
M  V30 12750 H 1230.51 4.67687 4.90178 0
M  V30 12751 H 1231.45 5.87254 3.95649 0
M  V30 12752 H 1231.86 4.13471 3.8432 0
M  V30 12753 N 1231.26 -0.58723 1.46251 0
M  V30 12754 C 1232.48 -1.37661 1.55126 0
M  V30 12755 C 1232.91 -1.87123 0.191489 0
M  V30 12756 O 1232.27 -1.6131 -0.827576 0
M  V30 12757 C 1232.31 -2.54324 2.5564 0
M  V30 12758 O 1231.42 -3.55617 2.0883 0
M  V30 12759 H 1230.76 -0.410154 0.522178 0
M  V30 12760 H 1233.29 -0.712738 1.91784 0
M  V30 12761 H 1233.3 -3.01301 2.75103 0
M  V30 12762 H 1231.97 -2.17675 3.54387 0
M  V30 12763 H 1230.55 -3.15151 1.99335 0
M  V30 12764 N 1232.74 -1.33881 -0.831482 0
M  V30 12765 C 1233.97 -1.28625 -1.61676 0
M  V30 12766 C 1234.37 0.143588 -1.88654 0
M  V30 12767 O 1233.72 1.09847 -1.47239 0
M  V30 12768 C 1233.78 -2.00022 -2.98716 0
M  V30 12769 C 1233.44 -3.49309 -2.94674 0
M  V30 12770 C 1234.44 -4.44375 -2.69864 0
M  V30 12771 C 1232.12 -3.91596 -3.14576 0
M  V30 12772 C 1234.12 -5.79703 -2.64996 0
M  V30 12773 C 1231.81 -5.27026 -3.09333 0
M  V30 12774 C 1232.8 -6.20892 -2.84575 0
M  V30 12775 O 1232.49 -7.53841 -2.79248 0
M  V30 12776 H 1232.22 -0.444235 -0.50954 0
M  V30 12777 H 1234.78 -1.76933 -1.04326 0
M  V30 12778 H 1233.01 -1.46316 -3.57951 0
M  V30 12779 H 1234.7 -1.88168 -3.59649 0
M  V30 12780 H 1235.46 -4.13027 -2.54231 0
M  V30 12781 H 1231.34 -3.18938 -3.32865 0
M  V30 12782 H 1234.89 -6.5294 -2.45591 0
M  V30 12783 H 1230.78 -5.57996 -3.24516 0
M  V30 12784 H 1231.55 -7.63476 -2.95037 0
M  V30 12785 N 1234.21 1.05064 -1.1747 0
M  V30 12786 C 1235.14 2.14786 -0.915936 0
M  V30 12787 C 1236.12 1.69502 0.142561 0
M  V30 12788 O 1237.31 1.94198 -0.00794522 0
M  V30 12789 C 1234.44 3.44629 -0.429864 0
M  V30 12790 C 1233.39 4.03486 -1.42769 0
M  V30 12791 C 1232.72 5.28689 -0.799528 0
M  V30 12792 C 1234.02 4.40823 -2.80129 0
M  V30 12793 H 1235.71 2.3669 -1.83352 0
M  V30 12794 H 1233.26 1.13751 -0.882992 0
M  V30 12795 H 1235.21 4.20737 -0.236245 0
M  V30 12796 H 1233.94 3.22381 0.523263 0
M  V30 12797 H 1232.6 3.29449 -1.60808 0
M  V30 12798 H 1232.24 5.02744 0.160474 0
M  V30 12799 H 1231.94 5.69028 -1.46565 0
M  V30 12800 H 1233.47 6.07483 -0.616212 0
M  V30 12801 H 1234.88 5.07959 -2.65801 0
M  V30 12802 H 1233.28 4.92183 -3.43331 0
M  V30 12803 H 1234.35 3.51108 -3.34441 0
M  V30 12804 N 1235.69 0.975146 1.23809 0
M  V30 12805 C 1236.6 0.51917 2.28783 0
M  V30 12806 C 1237.62 -0.423487 1.68768 0
M  V30 12807 O 1238.79 -0.294699 1.99232 0
M  V30 12808 C 1235.86 -0.176229 3.46252 0
M  V30 12809 C 1234.92 0.807177 4.21643 0
M  V30 12810 C 1234.15 0.144869 5.33503 0
M  V30 12811 O 1234.38 -1.06522 5.60365 0
M  V30 12812 O 1233.31 0.84079 5.95999 0
M  V30 12813 H 1237.14 1.39204 2.69919 0
M  V30 12814 H 1234.72 0.74253 1.29641 0
M  V30 12815 H 1236.6 -0.566547 4.17574 0
M  V30 12816 H 1235.28 -1.02394 3.07078 0
M  V30 12817 H 1234.18 1.2481 3.52666 0
M  V30 12818 H 1235.52 1.62354 4.64653 0
M  V30 12819 N 1237.17 -1.38817 0.746158 0
M  V30 12820 C 1238.45 -1.94303 0.224841 0
M  V30 12821 C 1238.83 -1.68207 -1.27552 0
M  V30 12822 O 1238.17 -1.01647 -2.04646 0
M  V30 12823 C 1238.38 -3.44306 0.5705 0
M  V30 12824 C 1239.73 -4.21329 0.526015 0
M  V30 12825 O 1240.76 -3.52554 0.508351 0
M  V30 12826 O 1239.62 -5.4392 0.530383 0
M  V30 12827 H 1236.71 -0.825785 0.0448047 0
M  V30 12828 H 1239.26 -1.48253 0.825775 0
M  V30 12829 H 1238.03 -3.56779 1.60701 0
M  V30 12830 H 1237.65 -3.97556 -0.0588271 0
M  V30 12831 N 1238.65 -0.49465 -1.49636 0
M  V30 12832 C 1239.89 0.0521945 -2.02733 0
M  V30 12833 C 1240.23 1.3723 -1.37411 0
M  V30 12834 O 1239.5 1.87758 -0.507642 0
M  V30 12835 C 1239.78 0.2114 -3.59479 0
M  V30 12836 C 1239.64 -1.13138 -4.35339 0
M  V30 12837 C 1240.96 0.955015 -4.29613 0
M  V30 12838 H 1238.08 0.0174946 -0.736792 0
M  V30 12839 H 1240.72 -0.644827 -1.78723 0
M  V30 12840 H 1238.87 0.805078 -3.80067 0
M  V30 12841 H 1240.54 -1.76345 -4.26263 0
M  V30 12842 H 1238.78 -1.72224 -3.98147 0
M  V30 12843 H 1239.45 -0.97336 -5.4335 0
M  V30 12844 H 1241.93 0.451575 -4.13642 0
M  V30 12845 H 1240.81 1.03524 -5.39049 0
M  V30 12846 H 1241.07 1.99724 -3.94414 0
M  V30 12847 N 1240.13 1.55939 -0.228214 0
M  V30 12848 C 1241.54 1.59094 0.12704 0
M  V30 12849 C 1241.74 1.24514 1.58425 0
M  V30 12850 O 1240.8 0.983544 2.32557 0
M  V30 12851 C 1242.11 2.99999 -0.205268 0
M  V30 12852 C 1243.66 3.1265 -0.148046 0
M  V30 12853 C 1244.13 4.55743 -0.454122 0
M  V30 12854 N 1245.62 4.61435 -0.403937 0
M  V30 12855 C 1246.36 5.70101 -0.614173 0
M  V30 12856 N 1245.86 6.87104 -0.88654 0
M  V30 12857 N 1247.65 5.5944 -0.546153 0
M  V30 12858 H 1239.8 1.7669 -1.17874 0
M  V30 12859 H 1242.06 0.821599 -0.472947 0
M  V30 12860 H 1241.77 3.29976 -1.21692 0
M  V30 12861 H 1241.64 3.74177 0.476573 0
M  V30 12862 H 1244.03 2.82465 0.854255 0
M  V30 12863 H 1244.11 2.40786 -0.863462 0
M  V30 12864 H 1243.75 4.86646 -1.45389 0
M  V30 12865 H 1243.68 5.25841 0.282561 0
M  V30 12866 H 1246.18 3.77363 -0.201388 0
M  V30 12867 H 1246.49 7.65839 -1.03488 0
M  V30 12868 H 1244.83 6.88833 -0.923808 0
M  V30 12869 H 1248.02 4.6691 -0.33355 0
M  V30 12870 H 1248.2 6.44061 -0.713402 0
M  V30 12871 N 1241.6 -0.0451101 1.57535 0
M  V30 12872 C 1242.53 -1.05046 2.08537 0
M  V30 12873 C 1243.52 -1.3872 0.984418 0
M  V30 12874 O 1244.7 -1.47884 1.25873 0
M  V30 12875 C 1241.83 -2.3562 2.55148 0
M  V30 12876 C 1240.78 -2.16231 3.69362 0
M  V30 12877 C 1240.11 -3.52423 4.02122 0
M  V30 12878 C 1241.41 -1.56159 4.98409 0
M  V30 12879 H 1243.1 -0.625965 2.92783 0
M  V30 12880 H 1240.65 -0.299657 1.40848 0
M  V30 12881 H 1242.6 -3.06266 2.89446 0
M  V30 12882 H 1241.33 -2.80099 1.67964 0
M  V30 12883 H 1239.99 -1.4802 3.35389 0
M  V30 12884 H 1239.63 -3.94522 3.12028 0
M  V30 12885 H 1239.33 -3.4028 4.79044 0
M  V30 12886 H 1240.86 -4.24458 4.38939 0
M  V30 12887 H 1242.27 -2.16703 5.30766 0
M  V30 12888 H 1240.67 -1.54638 5.79834 0
M  V30 12889 H 1241.74 -0.525698 4.82042 0
M  V30 12890 N 1243.08 -1.54377 -0.317073 0
M  V30 12891 C 1244.33 -1.73149 -1.05581 0
M  V30 12892 C 1244.66 -0.507176 -1.8746 0
M  V30 12893 O 1243.94 0.495837 -1.88074 0
M  V30 12894 C 1244.22 -3.01098 -1.97515 0
M  V30 12895 C 1244.07 -4.33794 -1.18922 0
M  V30 12896 C 1245.39 -3.24831 -2.9694 0
M  V30 12897 H 1242.51 -0.630011 -0.382434 0
M  V30 12898 H 1245.15 -1.87079 -0.331873 0
M  V30 12899 H 1243.3 -2.89352 -2.59244 0
M  V30 12900 H 1244.97 -4.57433 -0.596039 0
M  V30 12901 H 1243.22 -4.31005 -0.491612 0
M  V30 12902 H 1243.89 -5.19554 -1.86462 0
M  V30 12903 H 1246.36 -3.3608 -2.45335 0
M  V30 12904 H 1245.24 -4.15702 -3.58445 0
M  V30 12905 H 1245.5 -2.42365 -3.69745 0
M  V30 12906 N 1244.56 0.579466 -1.4656 0
M  V30 12907 C 1245.51 1.68327 -1.53785 0
M  V30 12908 C 1246.49 1.55887 -0.398512 0
M  V30 12909 O 1247.69 1.64746 -0.647119 0
M  V30 12910 C 1244.82 3.07113 -1.53416 0
M  V30 12911 C 1243.9 3.24839 -2.72655 0
M  V30 12912 N 1244.29 3.12711 -3.97549 0
M  V30 12913 C 1242.59 3.55786 -2.68947 0
M  V30 12914 C 1243.29 3.32528 -4.77284 0
M  V30 12915 N 1242.27 3.57834 -4.09214 0
M  V30 12916 H 1246.07 1.57486 -2.48144 0
M  V30 12917 H 1243.58 0.783591 -1.42245 0
M  V30 12918 H 1245.58 3.86338 -1.5668 0
M  V30 12919 H 1244.24 3.19083 -0.601365 0
M  V30 12920 H 1245.25 2.90508 -4.28749 0
M  V30 12921 H 1241.93 3.7442 -1.84705 0
M  V30 12922 H 1243.32 3.28308 -5.86228 0
M  V30 12923 N 1246.04 1.3432 0.824371 0
M  V30 12924 C 1247.45 1.1397 1.11727 0
M  V30 12925 C 1247.65 -0.0597597 2.01411 0
M  V30 12926 O 1246.71 -0.735717 2.41544 0
M  V30 12927 C 1248.02 2.43423 1.76538 0
M  V30 12928 C 1249.57 2.49466 1.89039 0
M  V30 12929 C 1250.05 3.78917 2.57266 0
M  V30 12930 N 1251.54 3.8007 2.64767 0
M  V30 12931 C 1252.27 4.76953 3.18282 0
M  V30 12932 N 1251.77 5.84217 3.72373 0
M  V30 12933 N 1253.56 4.6441 3.1667 0
M  V30 12934 H 1245.71 2.11175 0.227802 0
M  V30 12935 H 1247.98 0.933774 0.163615 0
M  V30 12936 H 1247.68 3.31278 1.18102 0
M  V30 12937 H 1247.56 2.56655 2.7642 0
M  V30 12938 H 1249.94 1.62052 2.46623 0
M  V30 12939 H 1250.02 2.40163 0.880635 0
M  V30 12940 H 1249.67 4.6672 2.00336 0
M  V30 12941 H 1249.6 3.85502 3.58742 0
M  V30 12942 H 1252.09 3.02556 2.26425 0
M  V30 12943 H 1252.4 6.54159 4.11455 0
M  V30 12944 H 1250.75 5.87933 3.70621 0
M  V30 12945 H 1253.94 3.7976 2.73678 0
M  V30 12946 H 1254.11 5.40081 3.58073 0
M  V30 12947 N 1247.52 -1.0444 1.18026 0
M  V30 12948 C 1248.79 -1.74533 0.883045 0
M  V30 12949 C 1249.17 -2.01944 -0.614975 0
M  V30 12950 O 1248.52 -1.66158 -1.56855 0
M  V30 12951 C 1248.73 -3.0332 1.72621 0
M  V30 12952 C 1250.08 -3.77128 1.9509 0
M  V30 12953 O 1251.1 -3.13209 1.69643 0
M  V30 12954 O 1249.96 -4.92001 2.37903 0
M  V30 12955 H 1247.06 -0.759315 0.327673 0
M  V30 12956 H 1249.6 -1.10539 1.2876 0
M  V30 12957 H 1248.37 -2.79171 2.74188 0
M  V30 12958 H 1248 -3.75052 1.31993 0
M  V30 12959 N 1248.99 -0.981699 -1.2329 0
M  V30 12960 C 1249.92 -0.542441 -2.27112 0
M  V30 12961 C 1250.91 0.425034 -1.64704 0
M  V30 12962 O 1252.09 0.318114 -1.91577 0
M  V30 12963 C 1249.22 0.154668 -3.46955 0
M  V30 12964 C 1248.17 -0.73022 -4.21725 0
M  V30 12965 C 1247.5 0.0991766 -5.34608 0
M  V30 12966 C 1248.8 -2.02166 -4.81587 0
M  V30 12967 H 1250.49 -1.41024 -2.64107 0
M  V30 12968 H 1248.04 -0.679544 -1.26957 0
M  V30 12969 H 1249.99 0.473281 -4.18734 0
M  V30 12970 H 1248.72 1.05693 -3.09025 0
M  V30 12971 H 1247.38 -1.03231 -3.51765 0
M  V30 12972 H 1247.02 1.00201 -4.92919 0
M  V30 12973 H 1246.72 -0.489788 -5.85555 0
M  V30 12974 H 1248.25 0.412141 -6.09207 0
M  V30 12975 H 1249.66 -1.76773 -5.45366 0
M  V30 12976 H 1248.06 -2.55851 -5.42826 0
M  V30 12977 H 1249.13 -2.70766 -4.02261 0
M  V30 12978 N 1250.47 1.3842 -0.753509 0
M  V30 12979 C 1251.44 2.28808 -0.134022 0
M  V30 12980 C 1252.44 1.47184 0.647583 0
M  V30 12981 O 1253.63 1.67631 0.473861 0
M  V30 12982 C 1250.76 3.30926 0.81858 0
M  V30 12983 H 1251.95 2.85097 -0.930586 0
M  V30 12984 H 1249.5 1.47378 -0.520514 0
M  V30 12985 H 1250.24 2.79728 1.64082 0
M  V30 12986 H 1250.02 3.91234 0.260526 0
M  V30 12987 H 1251.51 3.98515 1.24802 0
M  V30 12988 N 1251.95 0.502579 1.49372 0
M  V30 12989 C 1252.91 -0.263993 2.27675 0
M  V30 12990 C 1253.91 -0.892538 1.33755 0
M  V30 12991 O 1255.1 -0.756826 1.56901 0
M  V30 12992 C 1252.24 -1.37895 3.11765 0
M  V30 12993 H 1253.43 0.423132 2.969 0
M  V30 12994 H 1250.98 0.257595 1.54163 0
M  V30 12995 H 1251.72 -2.10018 2.47109 0
M  V30 12996 H 1251.5 -0.933694 3.80821 0
M  V30 12997 H 1252.99 -1.91889 3.70902 0
M  V30 12998 N 1253.43 -1.55816 0.23648 0
M  V30 12999 C 1254.84 -1.59159 -0.118601 0
M  V30 13000 C 1255.04 -1.25352 -1.57763 0
M  V30 13001 O 1254.1 -0.995863 -2.32032 0
M  V30 13002 C 1255.41 -2.99885 0.221175 0
M  V30 13003 C 1256.96 -3.12567 0.164624 0
M  V30 13004 C 1257.44 -4.55496 0.478285 0
M  V30 13005 N 1258.93 -4.61215 0.428402 0
M  V30 13006 C 1259.66 -5.69768 0.644398 0
M  V30 13007 N 1259.16 -6.86624 0.922966 0
M  V30 13008 N 1260.95 -5.59143 0.575814 0
M  V30 13009 H 1253.1 -1.76063 1.18809 0
M  V30 13010 H 1255.37 -0.819079 0.477297 0
M  V30 13011 H 1255.07 -3.29326 1.2344 0
M  V30 13012 H 1254.95 -3.74425 -0.456723 0
M  V30 13013 H 1257.33 -2.82914 -0.839263 0
M  V30 13014 H 1257.41 -2.40325 0.876219 0
M  V30 13015 H 1257.06 -4.85868 1.47968 0
M  V30 13016 H 1256.99 -5.25984 -0.254671 0
M  V30 13017 H 1259.48 -3.77251 0.221398 0
M  V30 13018 H 1259.79 -7.6528 1.07548 0
M  V30 13019 H 1258.14 -6.88333 0.960325 0
M  V30 13020 H 1261.33 -4.66727 0.358307 0
M  V30 13021 H 1261.5 -6.43674 0.747548 0
M  V30 13022 N 1254.91 0.036755 -1.57557 0
M  V30 13023 C 1255.85 1.05823 -2.07133 0
M  V30 13024 C 1256.85 1.37923 -0.983546 0
M  V30 13025 O 1258.05 1.36918 -1.16848 0
M  V30 13026 H 1254.43 0.358761 -0.660905 0
M  V30 13027 H 1256.4 0.614232 -2.9201 0
M  V30 13028 C 1255.15 2.35302 -2.55985 0
M  V30 13029 H 1254.47 2.11461 -3.393 0
M  V30 13030 H 1255.91 3.05139 -2.94391 0
M  V30 13031 C 1254.37 3.0373 -1.45773 0
M  V30 13032 O 1254.9 3.9325 -0.819587 0
M  V30 13033 N 1253.11 2.64931 -1.19416 0
M  V30 13034 H 1252.65 1.92219 -1.71492 0
M  V30 13035 H 1252.61 3.11033 -0.458865 0
M  V30 13036 N 1256.39 1.54543 0.308881 0
M  V30 13037 C 1257.63 1.73706 1.04661 0
M  V30 13038 C 1257.96 0.517111 1.87189 0
M  V30 13039 O 1257.24 -0.485856 1.88334 0
M  V30 13040 C 1257.52 3.02141 1.95916 0
M  V30 13041 C 1257.38 4.34419 1.1662 0
M  V30 13042 C 1258.69 3.26401 2.95213 0
M  V30 13043 H 1255.81 0.63203 0.379087 0
M  V30 13044 H 1258.46 1.87253 0.321947 0
M  V30 13045 H 1256.61 2.90723 2.57706 0
M  V30 13046 H 1258.28 4.57743 0.571772 0
M  V30 13047 H 1256.52 4.3126 0.468747 0
M  V30 13048 H 1257.19 5.20535 1.83704 0
M  V30 13049 H 1259.67 3.37377 2.43549 0
M  V30 13050 H 1258.54 4.17597 3.56235 0
M  V30 13051 H 1258.8 2.44322 3.68455 0
M  V30 13052 N 1257.86 -0.571685 1.46866 0
M  V30 13053 C 1258.79 -1.68994 1.61131 0
M  V30 13054 C 1259.77 -1.63728 0.461222 0
M  V30 13055 O 1260.96 -1.81574 0.688813 0
M  V30 13056 C 1258.09 -3.07638 1.61172 0
M  V30 13057 C 1257.04 -3.27742 2.75262 0
M  V30 13058 C 1256.37 -4.67025 2.60368 0
M  V30 13059 C 1257.67 -3.14511 4.16989 0
M  V30 13060 H 1259.36 -1.57311 2.54742 0
M  V30 13061 H 1256.91 -0.755382 1.22597 0
M  V30 13062 H 1258.86 -3.857 1.69744 0
M  V30 13063 H 1257.59 -3.20245 0.641122 0
M  V30 13064 H 1256.25 -2.52083 2.66176 0
M  V30 13065 H 1255.89 -4.76413 1.61368 0
M  V30 13066 H 1255.59 -4.81428 3.36899 0
M  V30 13067 H 1257.12 -5.47242 2.70848 0
M  V30 13068 H 1258.53 -3.82407 4.27128 0
M  V30 13069 H 1256.93 -3.40431 4.94193 0
M  V30 13070 H 1258 -2.11443 4.36371 0
M  V30 13071 N 1259.34 -1.34755 -0.817236 0
M  V30 13072 C 1260.59 -1.2762 -1.5761 0
M  V30 13073 C 1260.92 0.152017 -1.93604 0
M  V30 13074 O 1260.2 1.09881 -1.60488 0
M  V30 13075 C 1260.48 -2.17251 -2.87183 0
M  V30 13076 C 1260.33 -3.68638 -2.57733 0
M  V30 13077 C 1261.65 -2.06206 -3.88802 0
M  V30 13078 H 1258.77 -0.464933 -0.571845 0
M  V30 13079 H 1261.41 -1.6506 -0.941028 0
M  V30 13080 H 1259.56 -1.85452 -3.41379 0
M  V30 13081 H 1261.23 -4.10829 -2.09802 0
M  V30 13082 H 1259.48 -3.89445 -1.91089 0
M  V30 13083 H 1260.15 -4.26726 -3.50156 0
M  V30 13084 H 1262.62 -2.34137 -3.43975 0
M  V30 13085 H 1261.5 -2.71136 -4.77259 0
M  V30 13086 H 1261.76 -1.04075 -4.29675 0
M  V30 13087 N 1260.82 1.03812 -1.18578 0
M  V30 13088 C 1261.77 2.11883 -0.915115 0
M  V30 13089 C 1262.74 1.65453 0.146479 0
M  V30 13090 O 1263.92 1.90799 0.00630058 0
M  V30 13091 C 1261.06 3.42157 -0.449755 0
M  V30 13092 C 1260.17 4.02185 -1.57706 0
M  V30 13093 C 1259.31 5.20431 -1.06417 0
M  V30 13094 C 1258.35 5.72496 -2.16599 0
M  V30 13095 N 1257.49 6.82027 -1.66685 0
M  V30 13096 H 1262.33 2.34373 -1.84047 0
M  V30 13097 H 1259.86 1.14962 -0.917728 0
M  V30 13098 H 1261.82 4.16888 -0.161407 0
M  V30 13099 H 1260.45 3.19806 0.438622 0
M  V30 13100 H 1259.5 3.24757 -1.98083 0
M  V30 13101 H 1260.81 4.36851 -2.40754 0
M  V30 13102 H 1259.97 6.02286 -0.730497 0
M  V30 13103 H 1258.71 4.87276 -0.203301 0
M  V30 13104 H 1257.71 4.8926 -2.50808 0
M  V30 13105 H 1258.94 6.07694 -3.03126 0
M  V30 13106 H 1256.88 6.50742 -0.828916 0
M  V30 13107 H 1256.8 7.1577 -2.43329 0
M  V30 13108 H 1258.07 7.67499 -1.36253 0
M  V30 13109 N 1262.3 0.988223 1.22768 0
M  V30 13110 C 1263.52 0.679426 1.95955 0
M  V30 13111 C 1263.95 -0.748483 1.72567 0
M  V30 13112 O 1263.31 -1.51097 1.00197 0
M  V30 13113 C 1263.35 0.985284 3.46878 0
M  V30 13114 O 1262.46 0.0814607 4.1232 0
M  V30 13115 H 1261.8 0.254749 0.613188 0
M  V30 13116 H 1264.33 1.32393 1.55991 0
M  V30 13117 H 1264.34 0.925198 3.97371 0
M  V30 13118 H 1263.01 2.02581 3.63227 0
M  V30 13119 H 1261.59 0.196629 3.72381 0
M  V30 13120 N 1263.78 -1.38018 0.760839 0
M  V30 13121 C 1265.19 -1.82645 0.387022 0
M  V30 13122 C 1265.54 -1.63445 -1.08536 0
M  V30 13123 O 1264.66 -1.13958 -1.83963 0
M  V30 13124 C 1265.26 -3.3158 0.69569 0
M  V30 13125 C 1263.82 -3.74527 0.375063 0
M  V30 13126 C 1262.96 -2.60696 0.94515 0
M  V30 13127 H 1265.91 -1.26644 0.956396 0
M  V30 13128 H 1265.94 -3.80493 -0.0235511 0
M  V30 13129 H 1265.45 -3.45522 1.76737 0
M  V30 13130 H 1263.55 -3.6616 -0.689741 0
M  V30 13131 H 1263.66 -4.71029 0.875685 0
M  V30 13132 H 1262.03 -2.51997 0.370065 0
M  V30 13133 H 1262.81 -2.77434 2.02201 0
M  V30 13134 N 1265.25 -0.510493 -1.49103 0
M  V30 13135 C 1266.2 0.276449 -2.30951 0
M  V30 13136 C 1267.2 0.953893 -1.3999 0
M  V30 13137 O 1268.4 0.880499 -1.56994 0
M  V30 13138 H 1264.78 0.108013 -0.744202 0
M  V30 13139 H 1266.75 -0.433725 -2.95231 0
M  V30 13140 C 1265.5 1.32234 -3.21573 0
M  V30 13141 H 1264.82 0.810468 -3.91499 0
M  V30 13142 H 1266.26 1.84476 -3.81765 0
M  V30 13143 C 1264.72 2.3456 -2.41833 0
M  V30 13144 O 1265.25 3.40627 -2.12922 0
M  V30 13145 N 1263.45 2.07272 -2.03682 0
M  V30 13146 H 1263 1.21036 -2.27394 0
M  V30 13147 H 1262.96 2.75963 -1.50638 0
M  V30 13148 N 1266.73 1.55688 -0.24474 0
M  V30 13149 C 1267.68 2.17946 0.669596 0
M  V30 13150 C 1268.67 1.13468 1.14078 0
M  V30 13151 O 1269.86 1.39385 1.09091 0
M  V30 13152 C 1266.99 2.8808 1.86721 0
M  V30 13153 C 1266.07 3.99811 1.41463 0
M  V30 13154 N 1266.46 5.01261 0.676131 0
M  V30 13155 C 1264.76 4.12327 1.70008 0
M  V30 13156 C 1265.46 5.80017 0.442113 0
M  V30 13157 N 1264.44 5.34216 1.00569 0
M  V30 13158 H 1268.24 2.93739 0.0971953 0
M  V30 13159 H 1265.75 1.62332 -0.0469646 0
M  V30 13160 H 1267.75 3.31109 2.53322 0
M  V30 13161 H 1266.41 2.13789 2.44385 0
M  V30 13162 H 1267.42 5.1687 0.326459 0
M  V30 13163 H 1264.1 3.49206 2.28827 0
M  V30 13164 H 1265.49 6.71739 -0.14729 0
M  V30 13165 N 1268.21 -0.0283989 1.57574 0
M  V30 13166 C 1269.46 -0.720142 1.89583 0
M  V30 13167 C 1269.79 -1.7497 0.842562 0
M  V30 13168 O 1269.06 -1.93979 -0.142294 0
M  V30 13169 C 1269.35 -1.38909 3.32229 0
M  V30 13170 C 1269.2 -0.372998 4.48251 0
M  V30 13171 C 1270.52 -2.32289 3.73804 0
M  V30 13172 H 1267.64 -0.26033 0.689491 0
M  V30 13173 H 1270.28 0.0170607 1.89992 0
M  V30 13174 H 1268.43 -2.01744 3.32011 0
M  V30 13175 H 1270.1 0.253492 4.60603 0
M  V30 13176 H 1268.34 0.30765 4.32708 0
M  V30 13177 H 1269.02 -0.879549 5.44948 0
M  V30 13178 H 1271.49 -1.79497 3.75393 0
M  V30 13179 H 1270.37 -2.76075 4.74419 0
M  V30 13180 H 1270.63 -3.18992 3.06099 0
M  V30 13181 N 1269.69 -1.54705 -0.300681 0
M  V30 13182 C 1270.63 -1.85678 -1.37084 0
M  V30 13183 C 1271.6 -0.70573 -1.50362 0
M  V30 13184 O 1272.79 -0.954385 -1.65215 0
M  V30 13185 C 1269.93 -2.10995 -2.73084 0
M  V30 13186 C 1269.04 -3.38621 -2.68254 0
M  V30 13187 C 1268.18 -3.53779 -3.9625 0
M  V30 13188 C 1267.22 -4.75195 -3.85818 0
M  V30 13189 N 1266.35 -4.87157 -5.05591 0
M  V30 13190 H 1271.19 -2.76967 -1.09971 0
M  V30 13191 H 1268.73 -1.37147 -0.531887 0
M  V30 13192 H 1270.69 -2.23669 -3.52176 0
M  V30 13193 H 1269.32 -1.22973 -2.98458 0
M  V30 13194 H 1268.37 -3.34566 -1.81025 0
M  V30 13195 H 1269.68 -4.27834 -2.56436 0
M  V30 13196 H 1268.84 -3.66119 -4.83779 0
M  V30 13197 H 1267.58 -2.62699 -4.10902 0
M  V30 13198 H 1266.58 -4.62888 -2.96673 0
M  V30 13199 H 1267.81 -5.67683 -3.72711 0
M  V30 13200 H 1265.75 -3.99001 -5.20706 0
M  V30 13201 H 1265.67 -5.70372 -4.96197 0
M  V30 13202 H 1266.94 -5.03854 -5.9477 0
M  V30 13203 N 1271.17 0.563888 -1.47167 0
M  V30 13204 C 1272.42 1.31766 -1.5271 0
M  V30 13205 C 1272.73 1.94664 -0.191164 0
M  V30 13206 O 1273.93 2.71214 -0.124543 0
M  V30 13207 C 1272.39 2.38907 -2.69168 0
M  V30 13208 C 1272 1.8223 -4.09263 0
M  V30 13209 C 1273.74 3.15508 -2.83999 0
M  V30 13210 C 1271.65 2.87111 -5.17031 0
M  V30 13211 H 1270.58 0.495421 -0.568396 0
M  V30 13212 H 1273.23 0.599665 -1.73425 0
M  V30 13213 H 1271.61 3.13591 -2.4182 0
M  V30 13214 H 1272.79 1.13963 -4.46485 0
M  V30 13215 H 1271.1 1.18235 -3.99261 0
M  V30 13216 H 1273.7 3.93816 -3.61681 0
M  V30 13217 H 1274.04 3.69277 -1.92197 0
M  V30 13218 H 1274.57 2.47934 -3.11085 0
M  V30 13219 H 1271.31 2.38204 -6.10687 0
M  V30 13220 H 1270.83 3.53809 -4.84334 0
M  V30 13221 H 1272.51 3.50724 -5.43692 0
M  V30 13222 N 1272.64 1.35187 0.810078 0
M  V30 13223 C 1273.87 1.31371 1.59841 0
M  V30 13224 C 1274.29 -0.109547 1.88482 0
M  V30 13225 O 1273.64 -1.06047 1.48527 0
M  V30 13226 C 1273.7 2.11496 2.93175 0
M  V30 13227 O 1273.42 3.48273 2.65777 0
M  V30 13228 C 1274.92 2.15226 3.87547 0
M  V30 13229 H 1272.14 0.451428 0.496441 0
M  V30 13230 H 1274.68 1.7799 1.00697 0
M  V30 13231 H 1272.84 1.68486 3.48843 0
M  V30 13232 H 1273.25 3.89845 3.50886 0
M  V30 13233 H 1274.72 2.75687 4.78226 0
M  V30 13234 H 1275.2 1.15007 4.23875 0
M  V30 13235 H 1275.81 2.58382 3.37815 0
M  V30 13236 N 1274.12 -1.03182 1.19127 0
M  V30 13237 C 1275.4 -1.73586 0.901507 0
M  V30 13238 C 1275.78 -2.02585 -0.593521 0
M  V30 13239 O 1275.13 -1.67813 -1.55084 0
M  V30 13240 C 1275.34 -3.01472 1.75829 0
M  V30 13241 C 1276.69 -3.75037 1.99078 0
M  V30 13242 O 1277.71 -3.11392 1.72956 0
M  V30 13243 O 1276.57 -4.8945 2.43108 0
M  V30 13244 H 1273.66 -0.755797 0.335708 0
M  V30 13245 H 1276.21 -1.09167 1.29925 0
M  V30 13246 H 1274.98 -2.76247 2.77134 0
M  V30 13247 H 1274.6 -3.73631 1.35963 0
M  V30 13248 N 1275.6 -0.99472 -1.22242 0
M  V30 13249 C 1276.85 -0.671602 -1.91039 0
M  V30 13250 C 1277.18 0.796543 -1.77441 0
M  V30 13251 O 1276.43 1.59179 -1.13845 0
M  V30 13252 C 1276.73 -1.02561 -3.42368 0
M  V30 13253 C 1276.4 -2.48632 -3.76155 0
M  V30 13254 C 1275.06 -2.88549 -3.85088 0
M  V30 13255 C 1277.41 -3.43302 -3.92165 0
M  V30 13256 C 1274.74 -4.22121 -4.07469 0
M  V30 13257 C 1277.09 -4.76534 -4.1605 0
M  V30 13258 C 1275.75 -5.1619 -4.23207 0
M  V30 13259 H 1275.02 -0.245756 -0.69906 0
M  V30 13260 H 1277.67 -1.25125 -1.44969 0
M  V30 13261 H 1275.98 -0.364073 -3.90105 0
M  V30 13262 H 1277.67 -0.753612 -3.93855 0
M  V30 13263 H 1274.26 -2.16693 -3.69787 0
M  V30 13264 H 1278.45 -3.13633 -3.8464 0
M  V30 13265 H 1273.7 -4.52431 -4.11238 0
M  V30 13266 H 1277.88 -5.49835 -4.27381 0
M  V30 13267 H 1275.5 -6.19708 -4.40303 0
M  V30 13268 N 1277.08 1.37613 -0.768148 0
M  V30 13269 C 1278.33 1.99384 -0.330187 0
M  V30 13270 C 1278.65 1.61283 1.09604 0
M  V30 13271 O 1277.92 0.876551 1.75195 0
M  V30 13272 H 1276.5 0.737445 -0.119095 0
M  V30 13273 H 1279.16 1.6815 -0.985476 0
M  V30 13274 H 1278.26 3.09462 -0.40494 0
M  V30 13275 N 1278.56 0.518393 1.4883 0
M  V30 13276 C 1279.49 -0.239685 2.32267 0
M  V30 13277 C 1280.47 -0.94613 1.41359 0
M  V30 13278 O 1281.65 -0.934162 1.70256 0
M  V30 13279 C 1278.78 -1.29411 3.22289 0
M  V30 13280 C 1277.74 -0.706504 4.22129 0
M  V30 13281 C 1277.06 -1.86273 5.01205 0
M  V30 13282 C 1278.36 0.314079 5.21355 0
M  V30 13283 H 1280.06 0.4568 2.95895 0
M  V30 13284 H 1277.6 0.221126 1.42292 0
M  V30 13285 H 1279.56 -1.8323 3.7948 0
M  V30 13286 H 1278.28 -2.02001 2.56638 0
M  V30 13287 H 1276.94 -0.189924 3.66108 0
M  V30 13288 H 1276.59 -2.57674 4.31988 0
M  V30 13289 H 1276.29 -1.47554 5.68772 0
M  V30 13290 H 1277.81 -2.40492 5.61245 0
M  V30 13291 H 1279.22 -0.136604 5.73137 0
M  V30 13292 H 1277.62 0.618026 5.96909 0
M  V30 13293 H 1278.69 1.22394 4.69199 0
M  V30 13294 N 1280.03 -1.55556 0.252993 0
M  V30 13295 C 1281 -2.20351 -0.630705 0
M  V30 13296 C 1282 -1.17461 -1.09816 0
M  V30 13297 O 1283.19 -1.42505 -1.00189 0
M  V30 13298 C 1280.32 -2.85192 -1.86757 0
M  V30 13299 H 1281.51 -2.99829 -0.0652939 0
M  V30 13300 H 1279.07 -1.563 0.00347982 0
M  V30 13301 H 1279.8 -2.09669 -2.47406 0
M  V30 13302 H 1279.59 -3.60569 -1.54053 0
M  V30 13303 H 1281.08 -3.34762 -2.49648 0
M  V30 13304 N 1281.51 0.0200419 -1.57587 0
M  V30 13305 C 1282.93 0.375834 -1.55112 0
M  V30 13306 C 1283.13 1.76047 -0.980297 0
M  V30 13307 O 1282.18 2.45138 -0.605297 0
M  V30 13308 C 1283.5 0.269418 -2.99491 0
M  V30 13309 C 1285.05 0.345838 -3.11084 0
M  V30 13310 C 1285.52 0.268771 -4.57211 0
M  V30 13311 N 1287.01 0.32729 -4.62042 0
M  V30 13312 C 1287.75 0.290688 -5.72663 0
M  V30 13313 N 1287.24 0.205851 -6.92494 0
M  V30 13314 N 1289.04 0.341082 -5.61064 0
M  V30 13315 H 1281.19 -0.885979 -1.93039 0
M  V30 13316 H 1283.45 -0.337753 -0.885792 0
M  V30 13317 H 1283.16 -0.682452 -3.45015 0
M  V30 13318 H 1283.03 1.0595 -3.62014 0
M  V30 13319 H 1285.42 1.28814 -2.65501 0
M  V30 13320 H 1285.5 -0.47376 -2.51375 0
M  V30 13321 H 1285.14 -0.669906 -5.03463 0
M  V30 13322 H 1285.07 1.10659 -5.14842 0
M  V30 13323 H 1287.56 0.395004 -3.7583 0
M  V30 13324 H 1287.88 0.18327 -7.72583 0
M  V30 13325 H 1286.22 0.171768 -6.94788 0
M  V30 13326 H 1289.41 0.405415 -4.66341 0
M  V30 13327 H 1289.58 0.309091 -6.47262 0
M  V30 13328 N 1282.99 1.54862 0.292472 0
M  V30 13329 C 1283.92 1.89406 1.36556 0
M  V30 13330 C 1284.9 0.753838 1.52484 0
M  V30 13331 O 1286.09 1.01031 1.6585 0
M  V30 13332 C 1283.22 2.14888 2.72838 0
M  V30 13333 C 1282.17 3.3073 2.71665 0
M  V30 13334 C 1281.5 3.41648 4.11316 0
M  V30 13335 C 1282.8 4.67622 2.32651 0
M  V30 13336 H 1284.49 2.79284 1.07894 0
M  V30 13337 H 1282.04 1.34377 0.517585 0
M  V30 13338 H 1283.99 2.3764 3.48002 0
M  V30 13339 H 1282.71 1.2179 3.03042 0
M  V30 13340 H 1281.37 3.07915 1.98958 0
M  V30 13341 H 1281.02 2.46051 4.38711 0
M  V30 13342 H 1280.72 4.19522 4.11431 0
M  V30 13343 H 1282.24 3.6667 4.88248 0
M  V30 13344 H 1283.66 4.90048 2.97533 0
M  V30 13345 H 1282.06 5.48272 2.43963 0
M  V30 13346 H 1283.13 4.67762 1.27777 0
M  V30 13347 N 1284.47 -0.556076 1.47464 0
M  V30 13348 C 1285.4 -1.67275 1.62915 0
M  V30 13349 C 1286.38 -1.63229 0.478562 0
M  V30 13350 O 1287.56 -1.80833 0.708032 0
M  V30 13351 C 1284.69 -3.05911 1.64426 0
M  V30 13352 C 1283.65 -3.24804 2.78722 0
M  V30 13353 C 1282.97 -4.64238 2.65307 0
M  V30 13354 C 1284.27 -3.10071 4.20302 0
M  V30 13355 H 1285.97 -1.54601 2.56396 0
M  V30 13356 H 1283.51 -0.742337 1.23391 0
M  V30 13357 H 1285.47 -3.83878 1.73826 0
M  V30 13358 H 1284.19 -3.19547 0.675053 0
M  V30 13359 H 1282.85 -2.49246 2.68835 0
M  V30 13360 H 1282.5 -4.74675 1.66412 0
M  V30 13361 H 1282.2 -4.77828 3.41986 0
M  V30 13362 H 1283.72 -5.44339 2.76637 0
M  V30 13363 H 1285.14 -3.77855 4.3116 0
M  V30 13364 H 1283.53 -3.3517 4.97776 0
M  V30 13365 H 1284.6 -2.06803 4.38589 0
M  V30 13366 N 1285.95 -1.35615 -0.802897 0
M  V30 13367 C 1287.22 -1.19655 -1.54732 0
M  V30 13368 C 1287.6 0.222827 -2.09921 0
M  V30 13369 O 1286.95 1.2268 -1.92774 0
M  V30 13370 C 1287.16 -2.26761 -2.65293 0
M  V30 13371 C 1288.51 -2.62754 -3.33535 0
M  V30 13372 O 1289.53 -2.25702 -2.75567 0
M  V30 13373 O 1288.39 -3.26476 -4.38264 0
M  V30 13374 H 1285.49 -0.465079 -0.683835 0
M  V30 13375 H 1288.03 -1.47307 -0.84254 0
M  V30 13376 H 1286.81 -3.21946 -2.22411 0
M  V30 13377 H 1286.43 -2.00399 -3.43404 0
M  V30 13378 N 1287.43 1.02549 -1.19673 0
M  V30 13379 C 1288.67 1.75408 -0.995732 0
M  V30 13380 C 1288.99 1.89773 0.473863 0
M  V30 13381 O 1290.19 2.59638 0.793762 0
M  V30 13382 C 1288.65 3.15444 -1.73273 0
M  V30 13383 C 1288.26 3.09121 -3.24266 0
M  V30 13384 C 1290 3.92575 -1.61509 0
M  V30 13385 C 1287.91 4.44109 -3.9054 0
M  V30 13386 H 1286.84 0.657569 -0.368944 0
M  V30 13387 H 1289.49 1.14739 -1.43203 0
M  V30 13388 H 1287.87 3.76601 -1.22425 0
M  V30 13389 H 1289.05 2.57325 -3.82257 0
M  V30 13390 H 1287.36 2.45485 -3.36342 0
M  V30 13391 H 1289.96 4.92428 -2.08372 0
M  V30 13392 H 1290.3 4.12382 -0.569804 0
M  V30 13393 H 1290.83 3.38027 -2.09721 0
M  V30 13394 H 1287.57 4.29506 -4.95182 0
M  V30 13395 H 1287.09 4.95947 -3.37337 0
M  V30 13396 H 1288.77 5.12982 -3.94282 0
M  V30 13397 N 1288.9 1.00119 1.21713 0
M  V30 13398 C 1290.18 0.597366 1.86255 0
M  V30 13399 C 1290.56 -0.925124 1.89749 0
M  V30 13400 O 1289.91 -1.8105 1.39402 0
M  V30 13401 C 1290.12 1.22735 3.26707 0
M  V30 13402 C 1291.47 1.33307 4.03131 0
M  V30 13403 O 1292.49 1.18237 3.36003 0
M  V30 13404 O 1291.35 1.57509 5.2331 0
M  V30 13405 H 1288.44 0.204091 0.801421 0
M  V30 13406 H 1290.99 1.09759 1.29426 0
M  V30 13407 H 1289.76 2.26837 3.18843 0
M  V30 13408 H 1289.38 0.713232 3.91151 0
M  V30 13409 N 1290.38 -1.37203 0.775435 0
M  V30 13410 C 1291.29 -2.34019 0.165062 0
M  V30 13411 C 1292.31 -1.6036 -0.675316 0
M  V30 13412 O 1293.48 -1.9243 -0.594375 0
M  V30 13413 C 1290.55 -3.3954 -0.700957 0
M  V30 13414 C 1289.61 -4.29015 0.156304 0
M  V30 13415 C 1288.84 -5.29497 -0.668476 0
M  V30 13416 O 1289.07 -5.37636 -1.90535 0
M  V30 13417 O 1288 -6.01852 -0.0757351 0
M  V30 13418 H 1291.83 -2.87955 0.965184 0
M  V30 13419 H 1289.41 -1.39429 0.536654 0
M  V30 13420 H 1291.29 -4.04094 -1.19524 0
M  V30 13421 H 1289.97 -2.87926 -1.4792 0
M  V30 13422 H 1288.87 -3.67549 0.69703 0
M  V30 13423 H 1290.21 -4.83944 0.897725 0
M  V30 13424 N 1291.86 -0.526279 -1.48553 0
M  V30 13425 C 1293.09 0.0052277 -2.06899 0
M  V30 13426 C 1293.5 1.2849 -1.38332 0
M  V30 13427 O 1292.86 1.76354 -0.469648 0
M  V30 13428 C 1292.91 0.236709 -3.60724 0
M  V30 13429 O 1292.63 -0.992256 -4.26715 0
M  V30 13430 C 1294.13 0.809014 -4.35855 0
M  V30 13431 H 1291.35 -0.0318426 -0.670244 0
M  V30 13432 H 1293.9 -0.730865 -1.90994 0
M  V30 13433 H 1292.05 0.922842 -3.76248 0
M  V30 13434 H 1292.47 -0.770697 -5.18807 0
M  V30 13435 H 1293.94 0.920428 -5.44272 0
M  V30 13436 H 1294.42 1.81302 -4.00033 0
M  V30 13437 H 1295.02 0.159564 -4.25001 0
M  V30 13438 N 1293.34 1.5542 -0.261239 0
M  V30 13439 C 1294.25 2.25627 0.642625 0
M  V30 13440 C 1295.26 1.27732 1.18155 0
M  V30 13441 O 1296.44 1.60639 1.21479 0
M  V30 13442 C 1293.5 2.95303 1.8165 0
M  V30 13443 C 1292.57 4.08644 1.31563 0
M  V30 13444 C 1291.8 4.74988 2.43355 0
M  V30 13445 O 1292.02 4.40474 3.62407 0
M  V30 13446 O 1290.96 5.63217 2.12299 0
M  V30 13447 H 1294.78 3.03609 0.0743091 0
M  V30 13448 H 1292.37 1.49372 -0.0291754 0
M  V30 13449 H 1294.25 3.3914 2.50125 0
M  V30 13450 H 1292.92 2.2025 2.37217 0
M  V30 13451 H 1291.83 3.69294 0.597746 0
M  V30 13452 H 1293.16 4.85558 0.805878 0
M  V30 13453 N 1294.82 -0.0116844 1.57596 0
M  V30 13454 C 1296.05 -0.70923 1.94045 0
M  V30 13455 C 1296.45 -1.6848 0.860877 0
M  V30 13456 O 1295.8 -1.82913 -0.169896 0
M  V30 13457 C 1295.86 -1.50653 3.2641 0
M  V30 13458 C 1295.52 -0.693838 4.51702 0
M  V30 13459 C 1296.52 0.0134445 5.19898 0
M  V30 13460 C 1294.2 -0.643252 4.98164 0
M  V30 13461 C 1296.2 0.760426 6.32848 0
M  V30 13462 C 1293.89 0.107462 6.11006 0
M  V30 13463 C 1294.88 0.808045 6.78203 0
M  V30 13464 O 1294.57 1.54654 7.88884 0
M  V30 13465 H 1294.3 -0.203265 0.644716 0
M  V30 13466 H 1296.86 0.0320123 2.05375 0
M  V30 13467 H 1295.09 -2.29199 3.11456 0
M  V30 13468 H 1296.78 -2.08832 3.48058 0
M  V30 13469 H 1297.54 -0.016558 4.84997 0
M  V30 13470 H 1293.42 -1.17807 4.45693 0
M  V30 13471 H 1296.97 1.30779 6.85232 0
M  V30 13472 H 1292.86 0.139327 6.4535 0
M  V30 13473 H 1293.63 1.46202 8.05337 0
M  V30 13474 N 1296.29 -1.55015 -0.284256 0
M  V30 13475 C 1297.24 -1.83508 -1.3531 0
M  V30 13476 C 1298.23 -0.693244 -1.452 0
M  V30 13477 O 1299.42 -0.954312 -1.4907 0
M  V30 13478 C 1296.55 -2.10059 -2.71533 0
M  V30 13479 C 1295.63 -3.30472 -2.65799 0
M  V30 13480 N 1296.03 -4.50644 -2.29682 0
M  V30 13481 C 1294.32 -3.32836 -2.96878 0
M  V30 13482 C 1295.02 -5.32708 -2.33661 0
M  V30 13483 N 1294 -4.70837 -2.71687 0
M  V30 13484 H 1297.8 -2.73973 -1.06377 0
M  V30 13485 H 1295.32 -1.5474 -0.492875 0
M  V30 13486 H 1297.31 -2.28624 -3.48621 0
M  V30 13487 H 1295.97 -1.20872 -3.01364 0
M  V30 13488 H 1296.98 -4.76945 -2.0185 0
M  V30 13489 H 1293.66 -2.53807 -3.31494 0
M  V30 13490 H 1295.05 -6.38766 -2.08394 0
M  V30 13491 N 1297.77 0.548248 -1.47757 0
M  V30 13492 C 1298.73 1.63666 -1.60456 0
M  V30 13493 C 1299.73 1.53499 -0.479028 0
M  V30 13494 O 1300.92 1.57497 -0.744342 0
M  V30 13495 C 1298.06 3.03239 -1.55754 0
M  V30 13496 H 1299.25 1.53752 -2.57488 0
M  V30 13497 H 1296.8 0.768881 -1.36081 0
M  V30 13498 H 1297.54 3.18677 -0.601303 0
M  V30 13499 H 1297.32 3.12027 -2.37448 0
M  V30 13500 H 1298.81 3.82406 -1.67797 0
M  V30 13501 N 1299.25 1.36039 0.795694 0
M  V30 13502 C 1300.53 1.20474 1.54096 0
M  V30 13503 C 1300.91 -0.211691 2.10036 0
M  V30 13504 O 1300.25 -1.21656 1.93422 0
M  V30 13505 C 1300.46 2.28164 2.64087 0
M  V30 13506 C 1301.81 2.64519 3.32137 0
M  V30 13507 O 1302.84 2.2716 2.74366 0
M  V30 13508 O 1301.7 3.28796 4.36527 0
M  V30 13509 H 1298.79 0.468699 0.681359 0
M  V30 13510 H 1301.34 1.47752 0.834716 0
M  V30 13511 H 1300.11 3.23121 2.20701 0
M  V30 13512 H 1299.73 2.02217 3.42336 0
M  V30 13513 N 1300.73 -1.01913 1.20215 0
M  V30 13514 C 1301.98 -1.75124 1.00876 0
M  V30 13515 C 1302.3 -1.89485 -0.460475 0
M  V30 13516 O 1301.57 -1.43552 -1.33302 0
M  V30 13517 H 1300.15 -0.648777 0.370266 0
M  V30 13518 H 1302.81 -1.22883 1.5128 0
M  V30 13519 H 1301.91 -2.7558 1.46499 0
M  V30 13520 N 1302.21 -1.00763 -1.2118 0
M  V30 13521 C 1303.45 -0.690459 -1.8994 0
M  V30 13522 C 1303.78 0.781464 -1.78656 0
M  V30 13523 O 1303.05 1.56135 -1.18316 0
M  V30 13524 H 1301.63 -0.252397 -0.703068 0
M  V30 13525 H 1304.29 -1.2773 -1.47211 0
M  V30 13526 H 1303.38 -0.96594 -2.96776 0
M  V30 13527 N 1303.68 1.3679 -0.7827 0
M  V30 13528 C 1304.63 2.30139 -0.174595 0
M  V30 13529 C 1305.6 1.51645 0.677714 0
M  V30 13530 O 1306.79 1.80176 0.627796 0
M  V30 13531 C 1303.93 3.38133 0.689936 0
M  V30 13532 C 1303.04 4.31624 -0.180179 0
M  V30 13533 C 1302.17 5.26698 0.69009 0
M  V30 13534 C 1301.21 6.1183 -0.181891 0
M  V30 13535 N 1300.35 6.99113 0.646977 0
M  V30 13536 H 1305.19 2.81559 -0.97613 0
M  V30 13537 H 1302.73 1.38595 -0.492944 0
M  V30 13538 H 1304.69 3.99386 1.2061 0
M  V30 13539 H 1303.32 2.88049 1.45696 0
M  V30 13540 H 1302.37 3.71583 -0.81425 0
M  V30 13541 H 1303.68 4.91464 -0.852337 0
M  V30 13542 H 1302.83 5.93209 1.27232 0
M  V30 13543 H 1301.57 4.67297 1.3959 0
M  V30 13544 H 1300.58 5.44288 -0.776572 0
M  V30 13545 H 1301.8 6.73306 -0.885195 0
M  V30 13546 H 1299.75 6.42227 1.3372 0
M  V30 13547 H 1299.67 7.55993 0.0323547 0
M  V30 13548 H 1300.93 7.7 1.21325 0
M  V30 13549 N 1305.16 0.53415 1.48272 0
M  V30 13550 C 1306.41 0.00157492 2.028 0
M  V30 13551 C 1306.74 -1.33538 1.41001 0
M  V30 13552 O 1306.02 -1.86347 0.557245 0
M  V30 13553 C 1306.3 -0.116016 3.59913 0
M  V30 13554 C 1306.15 1.2464 4.32186 0
M  V30 13555 C 1307.47 -0.840775 4.31994 0
M  V30 13556 H 1304.59 0.00204634 0.736997 0
M  V30 13557 H 1307.23 0.691985 1.76951 0
M  V30 13558 H 1305.38 -0.704027 3.82068 0
M  V30 13559 H 1307.05 1.87584 4.21438 0
M  V30 13560 H 1305.3 1.8272 3.93441 0
M  V30 13561 H 1305.97 1.11708 5.40579 0
M  V30 13562 H 1308.44 -0.341746 4.14694 0
M  V30 13563 H 1307.32 -0.89196 5.41604 0
M  V30 13564 H 1307.58 -1.89197 3.99571 0
M  V30 13565 N 1306.64 -1.55279 0.269478 0
M  V30 13566 C 1308.05 -1.85286 -0.229372 0
M  V30 13567 C 1308.4 -1.19148 -1.55879 0
M  V30 13568 O 1307.53 -0.4778 -2.11059 0
M  V30 13569 C 1308.12 -3.3615 -0.42296 0
M  V30 13570 C 1306.68 -3.66301 -0.866047 0
M  V30 13571 C 1305.83 -2.77265 0.0439028 0
M  V30 13572 H 1308.78 -1.509 0.491427 0
M  V30 13573 H 1308.8 -3.5895 -1.26234 0
M  V30 13574 H 1308.31 -3.84258 0.544768 0
M  V30 13575 H 1306.41 -3.23688 -1.84545 0
M  V30 13576 H 1306.53 -4.73851 -0.707274 0
M  V30 13577 H 1304.89 -2.50299 -0.471433 0
M  V30 13578 H 1305.67 -3.28186 1.00741 0
M  V30 13579 N 1308.12 0.00332656 -1.576 0
M  V30 13580 C 1309.37 0.688044 -1.89602 0
M  V30 13581 C 1309.68 1.75121 -0.871316 0
M  V30 13582 O 1310.89 2.49032 -1.08144 0
M  V30 13583 C 1309.34 1.27494 -3.36561 0
M  V30 13584 C 1308.95 0.246771 -4.4732 0
M  V30 13585 C 1310.69 1.93804 -3.77677 0
M  V30 13586 C 1308.6 0.843471 -5.85354 0
M  V30 13587 H 1307.53 0.260747 -0.707479 0
M  V30 13588 H 1310.18 -0.0566727 -1.83412 0
M  V30 13589 H 1308.56 2.07022 -3.37577 0
M  V30 13590 H 1309.74 -0.523668 -4.57815 0
M  V30 13591 H 1308.05 -0.3157 -4.15202 0
M  V30 13592 H 1310.65 2.39347 -4.78139 0
M  V30 13593 H 1310.99 2.7672 -3.11017 0
M  V30 13594 H 1311.53 1.21015 -3.78946 0
M  V30 13595 H 1308.27 0.0531655 -6.55478 0
M  V30 13596 H 1307.79 1.58315 -5.7853 0
M  V30 13597 H 1309.46 1.34311 -6.32906 0
M  V30 13598 N 1309.6 1.55164 0.276031 0
M  V30 13599 C 1310.54 1.87836 1.34113 0
M  V30 13600 C 1311.51 0.729562 1.4922 0
M  V30 13601 O 1312.7 0.980549 1.63676 0
M  V30 13602 C 1309.84 2.15313 2.69693 0
M  V30 13603 C 1308.95 3.42845 2.62833 0
M  V30 13604 C 1308.09 3.60038 3.90572 0
M  V30 13605 C 1307.13 4.81273 3.7821 0
M  V30 13606 N 1306.26 4.95139 4.97777 0
M  V30 13607 H 1311.1 2.78681 1.0555 0
M  V30 13608 H 1308.64 1.37976 0.510001 0
M  V30 13609 H 1310.6 2.29243 3.48573 0
M  V30 13610 H 1309.23 1.27706 2.96464 0
M  V30 13611 H 1308.28 3.37403 1.75679 0
M  V30 13612 H 1309.59 4.3186 2.49597 0
M  V30 13613 H 1308.75 3.73769 4.77893 0
M  V30 13614 H 1307.48 2.69203 4.06671 0
M  V30 13615 H 1306.49 4.67549 2.89271 0
M  V30 13616 H 1307.71 5.7354 3.63632 0
M  V30 13617 H 1305.66 4.07234 5.14292 0
M  V30 13618 H 1305.58 5.78194 4.8706 0
M  V30 13619 H 1306.85 5.13253 5.86679 0
M  V30 13620 N 1311.07 -0.540404 1.48045 0
M  V30 13621 C 1312.32 -1.29628 1.56742 0
M  V30 13622 C 1312.68 -1.90975 0.233761 0
M  V30 13623 O 1311.97 -1.75781 -0.762333 0
M  V30 13624 C 1312.16 -2.41517 2.63447 0
M  V30 13625 C 1311.99 -1.91137 4.07059 0
M  V30 13626 C 1310.76 -1.74214 4.74318 0
M  V30 13627 C 1312.96 -1.44598 4.93554 0
M  V30 13628 N 1310.94 -1.1835 6.02384 0
M  V30 13629 C 1312.31 -1.00612 6.11782 0
M  V30 13630 C 1314.37 -1.32805 4.79862 0
M  V30 13631 C 1313.07 -0.460024 7.17827 0
M  V30 13632 C 1315.1 -0.795956 5.86019 0
M  V30 13633 C 1314.46 -0.36611 7.03448 0
M  V30 13634 H 1310.56 -0.46575 0.628173 0
M  V30 13635 H 1313.14 -0.610609 1.84877 0
M  V30 13636 H 1311.31 -3.07594 2.37151 0
M  V30 13637 H 1313.04 -3.08539 2.61889 0
M  V30 13638 H 1309.8 -1.97429 4.30487 0
M  V30 13639 H 1310.22 -0.924579 6.70657 0
M  V30 13640 H 1314.87 -1.64645 3.89425 0
M  V30 13641 H 1312.58 -0.129275 8.07997 0
M  V30 13642 H 1316.17 -0.708026 5.77476 0
M  V30 13643 H 1315.05 0.0392247 7.8419 0
M  V30 13644 N 1312.55 -1.36459 -0.788468 0
M  V30 13645 C 1313.49 -1.25222 -1.90774 0
M  V30 13646 C 1314.46 -0.136188 -1.62029 0
M  V30 13647 O 1315.65 -0.307486 -1.85975 0
M  V30 13648 C 1312.77 -0.932287 -3.25616 0
M  V30 13649 C 1311.82 -2.0629 -3.73292 0
M  V30 13650 S 1312.65 -3.68084 -3.8894 0
M  V30 13651 C 1313.81 -3.38206 -5.26657 0
M  V30 13652 H 1314.04 -2.19959 -2.00013 0
M  V30 13653 H 1311.58 -1.21886 -0.947801 0
M  V30 13654 H 1313.53 -0.754514 -4.03506 0
M  V30 13655 H 1312.19 -0.00268413 -3.141 0
M  V30 13656 H 1311.39 -1.79363 -4.71004 0
M  V30 13657 H 1310.99 -2.19994 -3.02454 0
M  V30 13658 H 1313.28 -2.92158 -6.11269 0
M  V30 13659 H 1314.22 -4.35185 -5.58587 0
M  V30 13660 H 1314.63 -2.73531 -4.93802 0
M  V30 13661 N 1314.03 1.01274 -1.20754 0
M  V30 13662 C 1314.99 2.08056 -0.961528 0
M  V30 13663 C 1315.99 1.60671 0.0644461 0
M  V30 13664 O 1317.18 1.73349 -0.172022 0
M  V30 13665 C 1314.32 3.37938 -0.448381 0
M  V30 13666 H 1315.51 2.31314 -1.90877 0
M  V30 13667 H 1313.06 1.18133 -1.02344 0
M  V30 13668 H 1313.8 3.20357 0.504144 0
M  V30 13669 H 1313.58 3.73659 -1.18833 0
M  V30 13670 H 1315.07 4.16551 -0.295876 0
M  V30 13671 N 1315.51 1.01404 1.20644 0
M  V30 13672 C 1316.44 0.602465 2.25594 0
M  V30 13673 C 1317.42 -0.381216 1.65773 0
M  V30 13674 O 1318.61 -0.267209 1.92353 0
M  V30 13675 C 1315.74 -0.0626245 3.47244 0
M  V30 13676 C 1314.69 0.841776 4.1964 0
M  V30 13677 C 1314.02 0.0426002 5.34683 0
M  V30 13678 C 1315.32 2.14864 4.76058 0
M  V30 13679 H 1317.01 1.47977 2.60275 0
M  V30 13680 H 1314.56 0.712966 1.25111 0
M  V30 13681 H 1316.51 -0.362095 4.19841 0
M  V30 13682 H 1315.23 -0.974627 3.11719 0
M  V30 13683 H 1313.89 1.12521 3.48905 0
M  V30 13684 H 1313.54 -0.870973 4.95402 0
M  V30 13685 H 1313.24 0.644866 5.84051 0
M  V30 13686 H 1314.76 -0.250476 6.10086 0
M  V30 13687 H 1316.18 1.9117 5.40488 0
M  V30 13688 H 1314.57 2.70153 5.35852 0
M  V30 13689 H 1315.64 2.81336 3.9494 0
M  V30 13690 N 1316.99 -1.36373 0.789944 0
M  V30 13691 C 1317.9 -2.3383 0.189873 0
M  V30 13692 C 1318.91 -1.61068 -0.65827 0
M  V30 13693 O 1320.09 -1.93049 -0.573932 0
M  V30 13694 C 1317.15 -3.40264 -0.664905 0
M  V30 13695 C 1316.22 -4.28825 0.201798 0
M  V30 13696 C 1315.45 -5.30176 -0.612278 0
M  V30 13697 O 1315.67 -5.39627 -1.84821 0
M  V30 13698 O 1314.61 -6.01899 -0.0118964 0
M  V30 13699 H 1318.43 -2.86915 0.995671 0
M  V30 13700 H 1316.02 -1.38852 0.551412 0
M  V30 13701 H 1317.9 -4.05339 -1.15231 0
M  V30 13702 H 1316.57 -2.89478 -1.44858 0
M  V30 13703 H 1315.48 -3.66789 0.735974 0
M  V30 13704 H 1316.81 -4.82965 0.949003 0
M  V30 13705 N 1318.47 -0.542005 -1.47987 0
M  V30 13706 C 1319.69 -0.0146835 -2.07395 0
M  V30 13707 C 1320.12 1.26266 -1.39422 0
M  V30 13708 O 1319.47 1.75259 -0.464118 0
M  V30 13709 C 1319.52 0.179937 -3.60151 0
M  V30 13710 O 1318.63 1.24596 -3.93128 0
M  V30 13711 H 1317.97 -0.0445076 -0.662507 0
M  V30 13712 H 1320.5 -0.753352 -1.90226 0
M  V30 13713 H 1320.51 0.398876 -4.06046 0
M  V30 13714 H 1319.18 -0.753093 -4.09025 0
M  V30 13715 H 1317.76 1.00872 -3.58997 0
M  V30 13716 N 1319.94 1.55134 -0.277709 0
M  V30 13717 C 1321.19 1.98831 0.338982 0
M  V30 13718 C 1321.51 1.16958 1.56781 0
M  V30 13719 O 1322.71 1.50811 2.25762 0
M  V30 13720 C 1321.17 3.53899 0.654465 0
M  V30 13721 C 1320.78 4.44553 -0.554703 0
M  V30 13722 C 1322.52 4.06179 1.23364 0
M  V30 13723 C 1320.43 5.91014 -0.213663 0
M  V30 13724 H 1319.36 0.742632 0.130434 0
M  V30 13725 H 1322.01 1.79463 -0.382768 0
M  V30 13726 H 1320.39 3.69078 1.43519 0
M  V30 13727 H 1321.56 4.41143 -1.33151 0
M  V30 13728 H 1319.88 4.02921 -1.0509 0
M  V30 13729 H 1322.48 5.13152 1.50265 0
M  V30 13730 H 1322.82 3.5537 2.16836 0
M  V30 13731 H 1323.35 3.9445 0.515147 0
M  V30 13732 H 1320.09 6.45924 -1.11633 0
M  V30 13733 H 1319.61 5.97486 0.526329 0
M  V30 13734 H 1321.29 6.46712 0.19319 0
M  V30 13735 N 1321.42 0.00503138 1.57599 0
M  V30 13736 C 1322.35 -0.983586 2.11773 0
M  V30 13737 C 1323.33 -1.35518 1.02805 0
M  V30 13738 O 1324.52 -1.43804 1.30514 0
M  V30 13739 C 1321.65 -2.27383 2.62515 0
M  V30 13740 C 1320.6 -2.0437 3.76054 0
M  V30 13741 C 1319.93 -3.39451 4.1313 0
M  V30 13742 C 1321.23 -1.40223 5.03125 0
M  V30 13743 H 1322.92 -0.532501 2.94627 0
M  V30 13744 H 1320.47 -0.254696 1.4173 0
M  V30 13745 H 1322.42 -2.96903 2.99043 0
M  V30 13746 H 1321.14 -2.74614 1.7679 0
M  V30 13747 H 1319.8 -1.37275 3.39928 0
M  V30 13748 H 1319.45 -3.84395 3.24422 0
M  V30 13749 H 1319.15 -3.24868 4.89627 0
M  V30 13750 H 1320.68 -4.10279 4.52221 0
M  V30 13751 H 1322.09 -1.99708 5.37392 0
M  V30 13752 H 1320.49 -1.36112 5.8446 0
M  V30 13753 H 1321.56 -0.372073 4.8347 0
M  V30 13754 N 1322.9 -1.55308 -0.267798 0
M  V30 13755 C 1324.32 -1.47264 -0.61526 0
M  V30 13756 C 1324.52 -0.691025 -1.8928 0
M  V30 13757 O 1323.57 -0.211964 -2.51609 0
M  V30 13758 C 1324.88 -2.91519 -0.73739 0
M  V30 13759 C 1326.43 -3.01764 -0.831102 0
M  V30 13760 C 1326.91 -4.47283 -0.984965 0
M  V30 13761 N 1328.4 -4.51134 -1.05036 0
M  V30 13762 C 1329.13 -5.60952 -1.1883 0
M  V30 13763 N 1328.63 -6.80625 -1.29311 0
M  V30 13764 N 1330.42 -5.48705 -1.21982 0
M  V30 13765 H 1322.57 -2.04577 0.57114 0
M  V30 13766 H 1324.84 -0.927908 0.194141 0
M  V30 13767 H 1324.54 -3.51456 0.130974 0
M  V30 13768 H 1324.42 -3.40829 -1.61603 0
M  V30 13769 H 1326.8 -2.4192 -1.68993 0
M  V30 13770 H 1326.88 -2.55698 0.0722509 0
M  V30 13771 H 1326.53 -5.07732 -0.130776 0
M  V30 13772 H 1326.46 -4.91011 -1.90305 0
M  V30 13773 H 1328.95 -3.6493 -0.981551 0
M  V30 13774 H 1329.26 -7.60071 -1.39685 0
M  V30 13775 H 1327.61 -6.83426 -1.26306 0
M  V30 13776 H 1330.8 -4.5415 -1.13428 0
M  V30 13777 H 1330.97 -6.34332 -1.32388 0
M  V30 13778 N 1324.38 0.532545 -1.4833 0
M  V30 13779 C 1325.79 0.860843 -1.34394 0
M  V30 13780 C 1325.99 1.98384 -0.353013 0
M  V30 13781 O 1325.05 2.5148 0.226688 0
M  V30 13782 C 1326.36 1.23079 -2.74358 0
M  V30 13783 C 1327.91 1.34082 -2.82827 0
M  V30 13784 C 1328.39 1.74421 -4.23487 0
M  V30 13785 N 1329.88 1.81528 -4.26148 0
M  V30 13786 C 1330.61 2.1412 -5.31921 0
M  V30 13787 N 1330.11 2.45154 -6.47975 0
M  V30 13788 N 1331.9 2.15104 -5.19314 0
M  V30 13789 H 1324.05 -0.208464 -2.11375 0
M  V30 13790 H 1326.31 -0.03062 -0.947505 0
M  V30 13791 H 1326.02 0.47926 -3.48419 0
M  V30 13792 H 1325.89 2.18151 -3.07718 0
M  V30 13793 H 1328.28 2.08311 -2.09022 0
M  V30 13794 H 1328.36 0.37137 -2.5309 0
M  V30 13795 H 1328.01 1.00752 -4.97807 0
M  V30 13796 H 1327.94 2.72411 -4.50666 0
M  V30 13797 H 1330.43 1.59832 -3.42436 0
M  V30 13798 H 1330.74 2.69121 -7.24426 0
M  V30 13799 H 1329.09 2.42679 -6.51254 0
M  V30 13800 H 1332.28 1.90315 -4.27666 0
M  V30 13801 H 1332.45 2.40173 -6.01848 0
M  V30 13802 N 1325.86 1.36875 0.78122 0
M  V30 13803 C 1327.27 1.17467 1.08044 0
M  V30 13804 C 1327.47 0.00434799 2.015 0
M  V30 13805 O 1326.53 -0.658499 2.43762 0
M  V30 13806 C 1327.84 2.48917 1.68704 0
M  V30 13807 C 1329.39 2.55354 1.81007 0
M  V30 13808 C 1329.86 3.8691 2.45081 0
M  V30 13809 N 1331.35 3.88301 2.52541 0
M  V30 13810 C 1332.09 4.86837 3.02947 0
M  V30 13811 N 1331.59 5.95768 3.53598 0
M  V30 13812 N 1333.38 4.74249 3.01735 0
M  V30 13813 H 1325.53 2.11793 0.160503 0
M  V30 13814 H 1327.79 0.938507 0.133825 0
M  V30 13815 H 1327.5 3.34867 1.07503 0
M  V30 13816 H 1327.37 2.65319 2.68115 0
M  V30 13817 H 1329.76 1.69816 2.41343 0
M  V30 13818 H 1329.84 2.42843 0.803783 0
M  V30 13819 H 1329.48 4.72858 1.85386 0
M  V30 13820 H 1329.41 3.9672 3.46296 0
M  V30 13821 H 1331.91 3.09607 2.16684 0
M  V30 13822 H 1332.22 6.66918 3.90435 0
M  V30 13823 H 1330.56 5.99426 3.51728 0
M  V30 13824 H 1333.75 3.88275 2.61458 0
M  V30 13825 H 1333.93 5.512 3.40709 0
M  V30 13826 N 1327.33 -1.00632 1.21289 0
M  V30 13827 C 1328.58 -1.74388 1.02932 0
M  V30 13828 C 1328.91 -1.8952 -0.437327 0
M  V30 13829 O 1328.16 -1.42551 -1.3408 0
M  V30 13830 C 1328.46 -3.1598 1.67007 0
M  V30 13831 C 1328.13 -3.208 3.16857 0
M  V30 13832 C 1326.79 -3.21823 3.57748 0
M  V30 13833 C 1329.14 -3.18147 4.12834 0
M  V30 13834 C 1326.47 -3.17877 4.93124 0
M  V30 13835 C 1328.82 -3.15743 5.48169 0
M  V30 13836 C 1327.49 -3.15074 5.88459 0
M  V30 13837 H 1326.76 -0.638133 0.376653 0
M  V30 13838 H 1329.4 -1.17953 1.50862 0
M  V30 13839 H 1327.71 -3.75639 1.11365 0
M  V30 13840 H 1329.41 -3.71764 1.50307 0
M  V30 13841 H 1326 -3.20746 2.84289 0
M  V30 13842 H 1330.18 -3.16519 3.82269 0
M  V30 13843 H 1325.44 -3.15696 5.2359 0
M  V30 13844 H 1329.61 -3.12644 6.22275 0
M  V30 13845 H 1327.24 -3.11771 6.93327 0
M  V30 13846 N 1328.81 -1.02043 -1.20104 0
M  V30 13847 C 1330.04 -0.731315 -1.93544 0
M  V30 13848 C 1330.45 0.708582 -1.74999 0
M  V30 13849 O 1329.81 1.481 -1.06642 0
M  V30 13850 C 1329.86 -1.06233 -3.45538 0
M  V30 13851 O 1329.58 -2.44568 -3.63481 0
M  V30 13852 C 1331.08 -0.794818 -4.36116 0
M  V30 13853 H 1328.3 -0.268248 -0.615048 0
M  V30 13854 H 1330.85 -1.36264 -1.52488 0
M  V30 13855 H 1329 -0.476341 -3.8446 0
M  V30 13856 H 1329.42 -2.5663 -4.57429 0
M  V30 13857 H 1330.89 -1.07647 -5.41402 0
M  V30 13858 H 1331.37 0.270944 -4.38363 0
M  V30 13859 H 1331.97 -1.36314 -4.02863 0
M  V30 13860 N 1330.29 1.35952 -0.797165 0
M  V30 13861 C 1331.24 2.27336 -0.173856 0
M  V30 13862 C 1332.22 1.47328 0.646778 0
M  V30 13863 O 1333.42 1.69626 0.505581 0
M  V30 13864 C 1330.55 3.36411 0.684297 0
M  V30 13865 C 1329.63 4.2385 -0.145551 0
M  V30 13866 N 1330.02 4.91263 -1.20391 0
M  V30 13867 C 1328.32 4.45938 0.074359 0
M  V30 13868 C 1329.02 5.56006 -1.70974 0
M  V30 13869 N 1328 5.33989 -1.0177 0
M  V30 13870 H 1331.8 2.76945 -0.983794 0
M  V30 13871 H 1329.31 1.49369 -0.637388 0
M  V30 13872 H 1331.31 4.00817 1.14681 0
M  V30 13873 H 1329.97 2.88355 1.49269 0
M  V30 13874 H 1330.98 4.93004 -1.58644 0
M  V30 13875 H 1327.66 4.08701 0.852644 0
M  V30 13876 H 1329.05 6.19818 -2.59375 0
M  V30 13877 N 1331.77 0.549846 1.47697 0
M  V30 13878 C 1332.7 -0.239345 2.27947 0
M  V30 13879 C 1333.71 -0.886206 1.36566 0
M  V30 13880 O 1334.9 -0.761298 1.61451 0
M  V30 13881 C 1332 -1.35591 3.10593 0
M  V30 13882 C 1331.18 -0.807234 4.29887 0
M  V30 13883 C 1330.23 -1.80738 4.94187 0
M  V30 13884 O 1329.26 -1.35641 5.52802 0
M  V30 13885 N 1330.46 -3.14046 4.88216 0
M  V30 13886 H 1333.23 0.449001 2.96318 0
M  V30 13887 H 1330.79 0.385443 1.57245 0
M  V30 13888 H 1332.78 -2.02356 3.50477 0
M  V30 13889 H 1331.35 -1.94761 2.44514 0
M  V30 13890 H 1330.57 0.0369877 3.94183 0
M  V30 13891 H 1331.86 -0.419877 5.07065 0
M  V30 13892 H 1331.26 -3.53335 4.41781 0
M  V30 13893 H 1329.81 -3.7639 5.32141 0
M  V30 13894 N 1333.25 -1.54984 0.285932 0
M  V30 13895 C 1334.47 -2.04699 -0.333621 0
M  V30 13896 C 1334.9 -1.16252 -1.47875 0
M  V30 13897 O 1334.25 -0.163376 -1.80562 0
M  V30 13898 C 1334.3 -3.52022 -0.78187 0
M  V30 13899 O 1333.41 -3.66639 -1.88812 0
M  V30 13900 H 1332.75 -0.660579 -0.0673203 0
M  V30 13901 H 1335.28 -2.00171 0.423386 0
M  V30 13902 H 1335.29 -3.93591 -1.07473 0
M  V30 13903 H 1333.96 -4.15862 0.055893 0
M  V30 13904 H 1332.54 -3.36974 -1.59696 0
M  V30 13905 N 1334.72 -0.0133892 -1.57594 0
M  V30 13906 C 1336 0.706416 -1.82398 0
M  V30 13907 C 1336.38 1.91236 -0.893983 0
M  V30 13908 O 1335.73 2.28436 0.0541675 0
M  V30 13909 C 1335.94 1.09951 -3.31228 0
M  V30 13910 C 1337.29 1.49776 -3.97306 0
M  V30 13911 O 1338.31 1.19293 -3.3563 0
M  V30 13912 O 1337.17 2.06511 -5.0598 0
M  V30 13913 H 1334.26 0.345131 -0.751541 0
M  V30 13914 H 1336.81 -0.0398687 -1.69653 0
M  V30 13915 H 1335.58 0.240514 -3.9056 0
M  V30 13916 H 1335.21 1.90447 -3.49021 0
M  V30 13917 N 1336.2 1.55448 0.259558 0
M  V30 13918 C 1337.45 1.76948 0.990816 0
M  V30 13919 C 1337.78 0.576401 1.85449 0
M  V30 13920 O 1337.06 -0.425693 1.89784 0
M  V30 13921 C 1337.34 3.08221 1.86204 0
M  V30 13922 C 1337.19 4.37909 1.0274 0
M  V30 13923 C 1338.51 3.35627 2.84679 0
M  V30 13924 H 1335.63 0.64377 0.358788 0
M  V30 13925 H 1338.27 1.88182 0.262211 0
M  V30 13926 H 1336.42 2.98775 2.48326 0
M  V30 13927 H 1338.09 4.5933 0.425855 0
M  V30 13928 H 1336.34 4.32533 0.331308 0
M  V30 13929 H 1337.01 5.26116 1.6705 0
M  V30 13930 H 1339.48 3.44954 2.32693 0
M  V30 13931 H 1338.36 4.28719 3.42769 0
M  V30 13932 H 1338.62 2.55921 3.60496 0
M  V30 13933 N 1337.68 -0.524672 1.4861 0
M  V30 13934 C 1338.93 -1.27958 1.58108 0
M  V30 13935 C 1339.28 -1.90716 0.254003 0
M  V30 13936 O 1338.57 -1.7658 -0.743646 0
M  V30 13937 C 1338.77 -2.3871 2.65993 0
M  V30 13938 C 1338.6 -1.86809 4.09063 0
M  V30 13939 C 1337.37 -1.69174 4.76139 0
M  V30 13940 C 1339.57 -1.39355 4.9506 0
M  V30 13941 N 1337.55 -1.11954 6.03605 0
M  V30 13942 C 1338.92 -0.941175 6.12815 0
M  V30 13943 C 1340.97 -1.27708 4.81243 0
M  V30 13944 C 1339.68 -0.383863 7.18275 0
M  V30 13945 C 1341.7 -0.733756 5.8683 0
M  V30 13946 C 1341.06 -0.291479 7.03797 0
M  V30 13947 H 1337.16 -0.459061 0.633077 0
M  V30 13948 H 1339.75 -0.590966 1.85515 0
M  V30 13949 H 1337.92 -3.05061 2.404 0
M  V30 13950 H 1339.65 -3.05744 2.65146 0
M  V30 13951 H 1336.41 -1.92852 4.32556 0
M  V30 13952 H 1336.83 -0.853395 6.716 0
M  V30 13953 H 1341.47 -1.60506 3.91149 0
M  V30 13954 H 1339.19 -0.0435691 8.08088 0
M  V30 13955 H 1342.78 -0.646737 5.78194 0
M  V30 13956 H 1341.66 0.122396 7.84104 0
M  V30 13957 N 1339.16 -1.37287 -0.77395 0
M  V30 13958 C 1340.38 -1.35734 -1.56815 0
M  V30 13959 C 1340.81 0.0555546 -1.88018 0
M  V30 13960 O 1340.17 1.03197 -1.49064 0
M  V30 13961 C 1340.21 -2.2008 -2.85652 0
M  V30 13962 O 1339.32 -1.60391 -3.79932 0
M  V30 13963 H 1338.66 -0.463881 -0.47509 0
M  V30 13964 H 1341.19 -1.80781 -0.958087 0
M  V30 13965 H 1341.2 -2.33215 -3.34776 0
M  V30 13966 H 1339.87 -3.22781 -2.6227 0
M  V30 13967 H 1338.45 -1.56285 -3.3857 0
M  V30 13968 N 1340.64 0.999871 -1.21821 0
M  V30 13969 C 1341.87 1.77148 -1.06312 0
M  V30 13970 C 1342.27 1.85142 0.389747 0
M  V30 13971 O 1341.62 1.31562 1.28207 0
M  V30 13972 C 1341.68 3.22367 -1.59122 0
M  V30 13973 C 1341.34 3.37937 -3.07649 0
M  V30 13974 C 1342.34 3.25808 -4.05148 0
M  V30 13975 C 1340.03 3.63213 -3.46961 0
M  V30 13976 C 1342.02 3.38729 -5.39946 0
M  V30 13977 C 1339.71 3.75775 -4.81909 0
M  V30 13978 C 1340.7 3.6354 -5.78211 0
M  V30 13979 O 1340.39 3.75694 -7.1071 0
M  V30 13980 H 1340.12 0.563396 -0.373578 0
M  V30 13981 H 1342.68 1.26627 -1.61724 0
M  V30 13982 H 1340.91 3.74047 -0.98111 0
M  V30 13983 H 1342.6 3.81219 -1.39379 0
M  V30 13984 H 1343.36 3.062 -3.76121 0
M  V30 13985 H 1339.24 3.71816 -2.72533 0
M  V30 13986 H 1342.79 3.29096 -6.15095 0
M  V30 13987 H 1338.68 3.94889 -5.1062 0
M  V30 13988 H 1339.45 3.9261 -7.18192 0
M  V30 13989 N 1342.11 1.02678 1.19562 0
M  V30 13990 C 1343.36 0.72059 1.88817 0
M  V30 13991 C 1343.68 -0.752942 1.79877 0
M  V30 13992 O 1342.95 -1.54233 1.20785 0
M  V30 13993 H 1341.53 0.26355 0.698964 0
M  V30 13994 H 1344.2 1.30056 1.4516 0
M  V30 13995 H 1343.29 1.01303 2.95202 0
M  V30 13996 N 1343.59 -1.35528 0.804364 0
M  V30 13997 C 1344.84 -1.99126 0.384261 0
M  V30 13998 C 1345.17 -1.63668 -1.0453 0
M  V30 13999 O 1344.45 -0.898896 -1.72482 0
M  V30 14000 C 1344.73 -3.55636 0.565278 0
M  V30 14001 C 1344.58 -4.00899 2.03961 0
M  V30 14002 C 1345.9 -4.40099 -0.0104301 0
M  V30 14003 H 1343.02 -0.723369 0.141092 0
M  V30 14004 H 1345.66 -1.60712 1.01348 0
M  V30 14005 H 1343.81 -3.88489 0.0296425 0
M  V30 14006 H 1345.48 -3.78465 2.63746 0
M  V30 14007 H 1343.73 -3.5189 2.53685 0
M  V30 14008 H 1344.4 -5.09785 2.11716 0
M  V30 14009 H 1346.87 -4.13692 0.446985 0
M  V30 14010 H 1345.75 -5.48705 0.146155 0
M  V30 14011 H 1346.01 -4.28096 -1.10392 0
M  V30 14012 N 1345.07 -0.557671 -1.47404 0
M  V30 14013 C 1346.3 -0.0386599 -2.06864 0
M  V30 14014 C 1346.71 1.25527 -1.41027 0
M  V30 14015 O 1346.07 1.75318 -0.506949 0
M  V30 14016 C 1346.12 0.160141 -3.61145 0
M  V30 14017 O 1345.84 -1.08255 -4.24515 0
M  V30 14018 C 1347.34 0.716381 -4.37473 0
M  V30 14019 H 1344.56 -0.0460523 -0.669418 0
M  V30 14020 H 1347.11 -0.771214 -1.894 0
M  V30 14021 H 1345.26 0.842826 -3.78121 0
M  V30 14022 H 1345.68 -0.88057 -5.17055 0
M  V30 14023 H 1347.15 0.804773 -5.46102 0
M  V30 14024 H 1347.63 1.72776 -4.03788 0
M  V30 14025 H 1348.23 0.0693787 -4.25243 0
M  V30 14026 N 1346.55 1.54831 -0.294147 0
M  V30 14027 C 1347.8 2.00298 0.317605 0
M  V30 14028 C 1348.13 1.18228 1.54064 0
M  V30 14029 O 1347.4 0.257034 1.92794 0
M  V30 14030 C 1347.69 3.53602 0.680991 0
M  V30 14031 C 1347.54 4.46416 -0.550711 0
M  V30 14032 C 1348.86 4.13379 1.51016 0
M  V30 14033 H 1345.98 0.728135 0.113965 0
M  V30 14034 H 1348.62 1.85636 -0.404883 0
M  V30 14035 H 1346.77 3.66227 1.29654 0
M  V30 14036 H 1348.44 4.45707 -1.18922 0
M  V30 14037 H 1346.68 4.17294 -1.18524 0
M  V30 14038 H 1347.36 5.51423 -0.252412 0
M  V30 14039 H 1349.83 4.04148 0.99012 0
M  V30 14040 H 1348.71 5.20818 1.73321 0
M  V30 14041 H 1348.97 3.64817 2.49722 0
M  V30 14042 N 1348.03 0.0217466 1.57585 0
M  V30 14043 C 1349.27 -0.653715 1.92609 0
M  V30 14044 C 1349.63 -1.70158 0.897998 0
M  V30 14045 O 1348.92 -1.91403 -0.0869654 0
M  V30 14046 C 1349.12 -1.3197 3.32143 0
M  V30 14047 C 1348.94 -0.33786 4.48429 0
M  V30 14048 C 1347.71 0.0596192 5.05265 0
M  V30 14049 C 1349.91 0.404844 5.12704 0
M  V30 14050 N 1347.89 1.03739 6.05071 0
M  V30 14051 C 1349.27 1.2366 6.07543 0
M  V30 14052 C 1351.32 0.466341 4.95711 0
M  V30 14053 C 1350.02 2.1243 6.87216 0
M  V30 14054 C 1352.05 1.34134 5.75988 0
M  V30 14055 C 1351.41 2.1609 6.70436 0
M  V30 14056 H 1347.51 -0.211748 0.752786 0
M  V30 14057 H 1350.09 0.0871946 1.94505 0
M  V30 14058 H 1348.27 -2.03078 3.3108 0
M  V30 14059 H 1350 -1.95159 3.54535 0
M  V30 14060 H 1346.75 -0.313299 4.72563 0
M  V30 14061 H 1347.18 1.5223 6.59663 0
M  V30 14062 H 1351.82 -0.153024 4.22523 0
M  V30 14063 H 1349.54 2.75424 7.59715 0
M  V30 14064 H 1353.12 1.39312 5.64875 0
M  V30 14065 H 1352 2.82701 7.31471 0
M  V30 14066 N 1349.51 -1.55583 -0.251311 0
M  V30 14067 C 1350.42 -1.93073 -1.33266 0
M  V30 14068 C 1351.43 -0.830612 -1.52895 0
M  V30 14069 O 1352.61 -1.13162 -1.66602 0
M  V30 14070 C 1349.67 -2.21396 -2.66805 0
M  V30 14071 C 1348.73 -3.44815 -2.55737 0
M  V30 14072 C 1347.97 -3.71777 -3.82907 0
M  V30 14073 O 1348.19 -3.00884 -4.84587 0
M  V30 14074 O 1347.12 -4.65305 -3.81805 0
M  V30 14075 H 1350.95 -2.85168 -1.04465 0
M  V30 14076 H 1348.53 -1.42408 -0.451693 0
M  V30 14077 H 1350.42 -2.4094 -3.45725 0
M  V30 14078 H 1349.09 -1.3248 -2.95348 0
M  V30 14079 H 1348 -3.30582 -1.75118 0
M  V30 14080 H 1349.33 -4.34019 -2.32139 0
M  V30 14081 N 1350.98 0.516783 -1.48886 0
M  V30 14082 C 1351.91 1.62897 -1.67292 0
M  V30 14083 C 1352.89 1.61903 -0.521671 0
M  V30 14084 O 1354.08 1.78892 -0.755728 0
M  V30 14085 C 1351.21 3.01444 -1.72478 0
M  V30 14086 C 1350.16 3.173 -2.87236 0
M  V30 14087 C 1349.49 4.5704 -2.77522 0
M  V30 14088 C 1350.79 2.98818 -4.28375 0
M  V30 14089 H 1352.48 1.47748 -2.60405 0
M  V30 14090 H 1350.03 0.709361 -1.25316 0
M  V30 14091 H 1351.98 3.79135 -1.83942 0
M  V30 14092 H 1350.71 3.17645 -0.759538 0
M  V30 14093 H 1349.37 2.4203 -2.75349 0
M  V30 14094 H 1349.01 4.70096 -1.78938 0
M  V30 14095 H 1348.71 4.68593 -3.54534 0
M  V30 14096 H 1350.24 5.36813 -2.90972 0
M  V30 14097 H 1351.65 3.66291 -4.41026 0
M  V30 14098 H 1350.05 3.21854 -5.06488 0
M  V30 14099 H 1351.12 1.95102 -4.43918 0
M  V30 14100 N 1352.46 1.37696 0.766659 0
M  V30 14101 C 1353.39 1.28241 1.88758 0
M  V30 14102 C 1354.37 0.161948 1.61791 0
M  V30 14103 O 1355.56 0.337034 1.85462 0
M  V30 14104 C 1352.68 0.983972 3.24092 0
M  V30 14105 C 1351.73 2.12202 3.69963 0
M  V30 14106 S 1352.56 3.74225 3.83035 0
M  V30 14107 C 1353.72 3.46542 5.2121 0
M  V30 14108 H 1353.95 2.23113 1.96489 0
M  V30 14109 H 1351.48 1.23378 0.92829 0
M  V30 14110 H 1353.44 0.818612 4.02255 0
M  V30 14111 H 1352.1 0.0526544 3.14056 0
M  V30 14112 H 1351.3 1.86834 4.68091 0
M  V30 14113 H 1350.9 2.24778 2.98916 0
M  V30 14114 H 1353.19 3.01845 6.06544 0
M  V30 14115 H 1354.13 4.44016 5.51593 0
M  V30 14116 H 1354.54 2.81353 4.89388 0
M  V30 14117 N 1353.94 -0.993397 1.22349 0
M  V30 14118 C 1355.17 -1.76838 1.07406 0
M  V30 14119 C 1355.58 -1.8503 -0.37542 0
M  V30 14120 O 1354.94 -1.32008 -1.26016 0
M  V30 14121 C 1354.99 -3.20177 1.67837 0
M  V30 14122 O 1354.71 -3.12429 3.07115 0
M  V30 14123 C 1356.21 -4.14125 1.58161 0
M  V30 14124 H 1353.43 -0.555379 0.376557 0
M  V30 14125 H 1355.98 -1.24893 1.61932 0
M  V30 14126 H 1354.13 -3.69191 1.17375 0
M  V30 14127 H 1354.55 -4.02568 3.36213 0
M  V30 14128 H 1356.02 -5.12455 2.05169 0
M  V30 14129 H 1356.5 -4.35892 0.538073 0
M  V30 14130 H 1357.1 -3.71008 2.07926 0
M  V30 14131 N 1355.42 -1.03311 -1.19015 0
M  V30 14132 C 1356.66 -0.732039 -1.88805 0
M  V30 14133 C 1356.99 0.739688 -1.79886 0
M  V30 14134 O 1356.25 1.55476 -1.18851 0
M  V30 14135 C 1356.55 -1.13402 -3.38932 0
M  V30 14136 C 1356.21 -2.60473 -3.68055 0
M  V30 14137 C 1354.87 -3.00654 -3.75713 0
M  V30 14138 C 1357.23 -3.55604 -3.81045 0
M  V30 14139 C 1354.55 -4.3487 -3.93833 0
M  V30 14140 C 1356.91 -4.89529 -4.00679 0
M  V30 14141 C 1355.57 -5.29392 -4.06571 0
M  V30 14142 H 1354.84 -0.267872 -0.690888 0
M  V30 14143 H 1357.49 -1.29673 -1.40915 0
M  V30 14144 H 1355.79 -0.487997 -3.88749 0
M  V30 14145 H 1357.49 -0.878532 -3.91258 0
M  V30 14146 H 1354.08 -2.28348 -3.62706 0
M  V30 14147 H 1358.26 -3.25711 -3.74467 0
M  V30 14148 H 1353.52 -4.65285 -3.96636 0
M  V30 14149 H 1357.69 -5.63153 -4.09672 0
M  V30 14150 H 1355.32 -6.33402 -4.20364 0
M  V30 14151 N 1356.9 1.35099 -0.81154 0
M  V30 14152 C 1358.14 1.98233 -0.393453 0
M  V30 14153 C 1358.46 1.64688 1.04417 0
M  V30 14154 O 1357.73 0.931845 1.72318 0
M  V30 14155 H 1356.31 0.733283 -0.142496 0
M  V30 14156 H 1358.98 1.6493 -1.03847 0
M  V30 14157 H 1358.07 3.08017 -0.503188 0
M  V30 14158 N 1358.37 0.56548 1.47106 0
M  V30 14159 C 1359.34 -0.167191 2.28589 0
M  V30 14160 C 1360.34 -0.835005 1.3742 0
M  V30 14161 O 1361.53 -0.689598 1.59969 0
M  V30 14162 C 1358.66 -1.24548 3.17333 0
M  V30 14163 H 1359.85 0.548677 2.94838 0
M  V30 14164 H 1357.4 0.322749 1.52931 0
M  V30 14165 H 1358.14 -1.99348 2.55794 0
M  V30 14166 H 1357.92 -0.771335 3.84438 0
M  V30 14167 H 1359.41 -1.75985 3.78707 0
M  V30 14168 N 1359.85 -1.54672 0.302354 0
M  V30 14169 C 1360.8 -2.2357 -0.573141 0
M  V30 14170 C 1361.77 -1.21878 -1.12849 0
M  V30 14171 O 1362.95 -1.50502 -1.17277 0
M  V30 14172 C 1360.09 -2.98111 -1.7385 0
M  V30 14173 C 1359.21 -4.14579 -1.21441 0
M  V30 14174 C 1358.34 -4.76699 -2.34374 0
M  V30 14175 C 1357.38 -5.8531 -1.79106 0
M  V30 14176 N 1356.52 -6.41379 -2.85618 0
M  V30 14177 H 1361.36 -2.97993 0.0209969 0
M  V30 14178 H 1358.9 -1.47083 0.0221318 0
M  V30 14179 H 1360.85 -3.39561 -2.42392 0
M  V30 14180 H 1359.48 -2.26063 -2.30425 0
M  V30 14181 H 1358.54 -3.78061 -0.421204 0
M  V30 14182 H 1359.85 -4.92824 -0.769821 0
M  V30 14183 H 1359 -5.21009 -3.10861 0
M  V30 14184 H 1357.74 -3.9779 -2.8216 0
M  V30 14185 H 1356.75 -5.40423 -1.01109 0
M  V30 14186 H 1357.97 -6.66104 -1.32222 0
M  V30 14187 H 1355.92 -5.65352 -3.32735 0
M  V30 14188 H 1355.83 -7.14974 -2.45659 0
M  V30 14189 H 1357.1 -6.90346 -3.61998 0
M  V30 14190 N 1361.33 -0.0301034 -1.57571 0
M  V30 14191 C 1362.74 0.508591 -1.79639 0
M  V30 14192 C 1363.09 1.72191 -0.940458 0
M  V30 14193 O 1362.22 2.15872 -0.151138 0
M  V30 14194 C 1362.81 0.929446 -3.25802 0
M  V30 14195 C 1361.37 1.41325 -3.48861 0
M  V30 14196 C 1360.52 0.378433 -2.74706 0
M  V30 14197 H 1363.47 -0.256131 -1.56619 0
M  V30 14198 H 1363.49 1.79374 -3.35567 0
M  V30 14199 H 1363 0.0461738 -3.88073 0
M  V30 14200 H 1361.1 2.31641 -2.91844 0
M  V30 14201 H 1361.22 1.41995 -4.57574 0
M  V30 14202 H 1359.58 0.846744 -2.40213 0
M  V30 14203 H 1360.36 -0.49639 -3.39692 0
M  V30 14204 N 1362.81 1.55714 0.243056 0
M  V30 14205 C 1364.04 1.81522 0.986577 0
M  V30 14206 C 1364.45 0.604051 1.79298 0
M  V30 14207 O 1363.79 -0.43674 1.78433 0
M  V30 14208 C 1363.85 3.0074 1.96967 0
M  V30 14209 C 1363.52 4.3661 1.34983 0
M  V30 14210 C 1364.51 5.14456 0.7504 0
M  V30 14211 C 1362.2 4.83311 1.36805 0
M  V30 14212 C 1364.19 6.37153 0.177438 0
M  V30 14213 C 1361.88 6.05956 0.791233 0
M  V30 14214 C 1362.88 6.82716 0.196959 0
M  V30 14215 O 1362.56 8.03044 -0.370938 0
M  V30 14216 H 1362.3 0.607864 0.295765 0
M  V30 14217 H 1364.85 2.03617 0.270018 0
M  V30 14218 H 1363.08 2.74409 2.72464 0
M  V30 14219 H 1364.77 3.13606 2.57694 0
M  V30 14220 H 1365.54 4.79493 0.728809 0
M  V30 14221 H 1361.41 4.23553 1.81999 0
M  V30 14222 H 1364.96 6.97009 -0.287042 0
M  V30 14223 H 1360.86 6.40396 0.810164 0
M  V30 14224 H 1361.62 8.18077 -0.263173 0
M  V30 14225 N 1364.29 -0.50888 1.49158 0
M  V30 14226 C 1365.56 -1.27021 1.48745 0
M  V30 14227 C 1365.94 -2.10045 0.210772 0
M  V30 14228 O 1365.29 -2.13773 -0.807061 0
M  V30 14229 C 1365.5 -2.13367 2.76181 0
M  V30 14230 C 1366.85 -2.72815 3.25357 0
M  V30 14231 O 1367.87 -2.23639 2.77243 0
M  V30 14232 O 1366.73 -3.62316 4.09133 0
M  V30 14233 H 1363.83 -0.574387 0.594986 0
M  V30 14234 H 1366.37 -0.523798 1.61414 0
M  V30 14235 H 1365.14 -1.51941 3.60596 0
M  V30 14236 H 1364.77 -2.95215 2.66334 0
M  V30 14237 N 1365.76 -1.381 -0.759346 0
M  V30 14238 C 1367.01 -1.33727 -1.5153 0
M  V30 14239 C 1367.33 0.0739504 -1.9486 0
M  V30 14240 O 1366.6 1.02049 -1.67221 0
M  V30 14241 H 1365.18 -0.492037 -0.562058 0
M  V30 14242 H 1367.85 -1.72719 -0.902995 0
M  V30 14243 H 1366.94 -1.98439 -2.40891 0
M  V30 14244 N 1367.24 0.986894 -1.22875 0
M  V30 14245 C 1368.49 1.72152 -1.05103 0
M  V30 14246 C 1368.8 1.91185 0.413248 0
M  V30 14247 O 1370.01 2.62031 0.710759 0
M  V30 14248 C 1368.47 3.09771 -1.8322 0
M  V30 14249 C 1368.07 2.98648 -3.33936 0
M  V30 14250 C 1369.82 3.87238 -1.73917 0
M  V30 14251 C 1367.73 4.31459 -4.04471 0
M  V30 14252 H 1366.66 0.645498 -0.389677 0
M  V30 14253 H 1369.31 1.10125 -1.46781 0
M  V30 14254 H 1367.69 3.72515 -1.34345 0
M  V30 14255 H 1368.86 2.45033 -3.9025 0
M  V30 14256 H 1367.18 2.34661 -3.43982 0
M  V30 14257 H 1369.77 4.85549 -2.23933 0
M  V30 14258 H 1370.12 4.1036 -0.700711 0
M  V30 14259 H 1370.65 3.31183 -2.20369 0
M  V30 14260 H 1367.39 4.13534 -5.08596 0
M  V30 14261 H 1366.91 4.84964 -3.52944 0
M  V30 14262 H 1368.59 5.00179 -4.10403 0
M  V30 14263 N 1368.72 1.0394 1.18466 0
M  V30 14264 C 1370.13 0.77011 1.70077 0
M  V30 14265 C 1370.48 -0.70916 1.82935 0
M  V30 14266 O 1369.61 -1.55209 1.50795 0
M  V30 14267 C 1370.2 1.39132 3.08914 0
M  V30 14268 C 1368.76 1.17037 3.57742 0
M  V30 14269 C 1367.91 1.48279 2.34326 0
M  V30 14270 H 1370.86 1.20598 1.03159 0
M  V30 14271 H 1370.88 0.793861 3.72126 0
M  V30 14272 H 1370.39 2.46795 2.99523 0
M  V30 14273 H 1368.49 0.112435 3.7243 0
M  V30 14274 H 1368.61 1.8665 4.41247 0
M  V30 14275 H 1366.97 0.902438 2.38177 0
M  V30 14276 H 1367.75 2.57047 2.27556 0
M  V30 14277 N 1370.2 -1.34667 0.818693 0
M  V30 14278 C 1371.16 -2.27908 0.243037 0
M  V30 14279 C 1372.16 -1.50106 -0.576622 0
M  V30 14280 O 1373.35 -1.69701 -0.393342 0
M  V30 14281 C 1370.48 -3.34455 -0.659759 0
M  V30 14282 H 1371.68 -2.80332 1.06555 0
M  V30 14283 H 1369.23 -1.44727 0.590237 0
M  V30 14284 H 1369.96 -2.87238 -1.50549 0
M  V30 14285 H 1369.75 -3.92031 -0.073567 0
M  V30 14286 H 1371.24 -4.04016 -1.05646 0
M  V30 14287 N 1371.68 -0.573274 -1.46804 0
M  V30 14288 C 1373.09 -0.23423 -1.57872 0
M  V30 14289 C 1373.29 1.26342 -1.56971 0
M  V30 14290 O 1372.35 2.04459 -1.48165 0
M  V30 14291 C 1373.66 -0.875097 -2.87685 0
M  V30 14292 C 1375.21 -0.847812 -3.01299 0
M  V30 14293 C 1375.68 -1.46804 -4.33835 0
M  V30 14294 N 1377.18 -1.43196 -4.4051 0
M  V30 14295 C 1377.91 -1.88133 -5.41658 0
M  V30 14296 N 1377.41 -2.41001 -6.49531 0
M  V30 14297 N 1379.2 -1.79107 -5.32801 0
M  V30 14298 H 1371.35 -1.54612 -1.45633 0
M  V30 14299 H 1373.61 -0.645703 -0.694098 0
M  V30 14300 H 1373.32 -1.92826 -2.94127 0
M  V30 14301 H 1373.19 -0.377671 -3.75305 0
M  V30 14302 H 1375.58 0.196707 -2.94444 0
M  V30 14303 H 1375.66 -1.38316 -2.1518 0
M  V30 14304 H 1375.31 -2.51171 -4.41447 0
M  V30 14305 H 1375.24 -0.908 -5.18713 0
M  V30 14306 H 1377.73 -1.04541 -3.63152 0
M  V30 14307 H 1378.04 -2.73172 -7.22908 0
M  V30 14308 H 1376.38 -2.45021 -6.50377 0
M  V30 14309 H 1379.58 -1.37569 -4.47429 0
M  V30 14310 H 1379.75 -2.14445 -6.11488 0
M  V30 14311 N 1373.15 1.5451 -0.310553 0
M  V30 14312 C 1374.06 2.27557 0.570518 0
M  V30 14313 C 1375.08 1.31426 1.14032 0
M  V30 14314 O 1376.26 1.64423 1.16306 0
M  V30 14315 C 1373.32 3.00933 1.72163 0
M  V30 14316 C 1372.38 4.12623 1.18495 0
M  V30 14317 C 1371.62 4.8249 2.28121 0
M  V30 14318 O 1371.84 4.5178 3.48211 0
M  V30 14319 O 1370.77 5.69686 1.94273 0
M  V30 14320 H 1374.6 3.03692 -0.0223195 0
M  V30 14321 H 1372.18 1.49203 -0.0766821 0
M  V30 14322 H 1374.07 3.46925 2.39208 0
M  V30 14323 H 1372.74 2.27685 2.3009 0
M  V30 14324 H 1371.65 3.71008 0.479956 0
M  V30 14325 H 1372.98 4.87876 0.650994 0
M  V30 14326 N 1374.63 0.0384594 1.57553 0
M  V30 14327 C 1375.88 -0.637533 1.91359 0
M  V30 14328 C 1376.2 -1.7275 0.91744 0
M  V30 14329 O 1377.4 -2.46078 1.14709 0
M  V30 14330 C 1375.86 -1.18526 3.39823 0
M  V30 14331 C 1375.47 -0.128086 4.47817 0
M  V30 14332 C 1377.21 -1.83723 3.82683 0
M  V30 14333 C 1375.12 -0.687978 5.87385 0
M  V30 14334 H 1374.05 -0.241898 0.714144 0
M  V30 14335 H 1376.7 0.105281 1.83198 0
M  V30 14336 H 1375.08 -1.97999 3.42947 0
M  V30 14337 H 1376.25 0.644865 4.56265 0
M  V30 14338 H 1374.57 0.425672 4.14219 0
M  V30 14339 H 1377.17 -2.26585 4.84317 0
M  V30 14340 H 1377.51 -2.68377 3.18244 0
M  V30 14341 H 1378.04 -1.10926 3.82021 0
M  V30 14342 H 1374.78 0.120642 6.55389 0
M  V30 14343 H 1374.3 -1.4292 5.82524 0
M  V30 14344 H 1375.98 -1.17483 6.36244 0
M  V30 14345 N 1376.11 -1.55841 -0.234795 0
M  V30 14346 C 1377.52 -1.68555 -0.802886 0
M  V30 14347 C 1377.87 -0.638107 -1.85533 0
M  V30 14348 O 1377 0.21333 -2.15346 0
M  V30 14349 C 1377.59 -3.0558 -1.46309 0
M  V30 14350 C 1376.15 -3.20192 -1.97874 0
M  V30 14351 C 1375.3 -2.64457 -0.834136 0
M  V30 14352 H 1378.25 -1.58697 -0.0103759 0
M  V30 14353 H 1378.27 -3.007 -2.33152 0
M  V30 14354 H 1377.78 -3.81792 -0.696868 0
M  V30 14355 H 1375.88 -2.48825 -2.77339 0
M  V30 14356 H 1376 -4.27251 -2.1678 0
M  V30 14357 H 1374.36 -2.22593 -1.23791 0
M  V30 14358 H 1375.14 -3.43205 -0.0807988 0
M  V30 14359 N 1377.59 0.500963 -1.49426 0
M  V30 14360 C 1378.87 1.26231 -1.49416 0
M  V30 14361 C 1379.25 2.0993 -0.221908 0
M  V30 14362 O 1378.59 2.14198 0.795712 0
M  V30 14363 C 1378.8 2.11899 -2.77308 0
M  V30 14364 C 1380.15 2.71086 -3.26799 0
M  V30 14365 O 1381.18 2.22166 -2.78425 0
M  V30 14366 O 1380.04 3.60141 -4.11049 0
M  V30 14367 H 1377.13 0.571224 -0.598024 0
M  V30 14368 H 1379.68 0.51523 -1.61689 0
M  V30 14369 H 1378.45 1.50027 -3.61397 0
M  V30 14370 H 1378.07 2.93799 -2.67896 0
M  V30 14371 N 1379.07 1.38501 0.752011 0
M  V30 14372 C 1380 1.38577 1.87933 0
M  V30 14373 C 1380.98 0.251454 1.68231 0
M  V30 14374 O 1382.16 0.45477 1.888 0
M  V30 14375 C 1379.29 1.21164 3.25479 0
M  V30 14376 C 1378.25 2.31816 3.59785 0
M  V30 14377 C 1377.57 1.99508 4.96085 0
M  V30 14378 C 1378.87 3.74082 3.645 0
M  V30 14379 H 1380.57 2.32913 1.88127 0
M  V30 14380 H 1378.11 1.12113 0.903698 0
M  V30 14381 H 1380.07 1.19842 4.04 0
M  V30 14382 H 1378.79 0.232899 3.25769 0
M  V30 14383 H 1377.45 2.32327 2.83584 0
M  V30 14384 H 1377.1 1.00114 4.92936 0
M  V30 14385 H 1376.8 2.73617 5.20007 0
M  V30 14386 H 1378.32 1.99807 5.76983 0
M  V30 14387 H 1379.74 3.75593 4.33131 0
M  V30 14388 H 1378.13 4.47409 3.99931 0
M  V30 14389 H 1379.2 4.06284 2.64692 0
M  V30 14390 N 1380.55 -0.980364 1.23396 0
M  V30 14391 C 1381.48 -2.0908 1.0396 0
M  V30 14392 C 1382.46 -1.70044 -0.0434946 0
M  V30 14393 O 1383.64 -1.93822 0.121155 0
M  V30 14394 C 1380.77 -3.41537 0.630061 0
M  V30 14395 C 1379.73 -3.94476 1.66051 0
M  V30 14396 C 1379.05 -5.23128 1.10641 0
M  V30 14397 C 1380.35 -4.23741 3.05354 0
M  V30 14398 H 1382.05 -2.25598 1.9684 0
M  V30 14399 H 1379.59 -1.08409 0.94781 0
M  V30 14400 H 1381.54 -4.18644 0.481145 0
M  V30 14401 H 1380.27 -3.24883 -0.334416 0
M  V30 14402 H 1378.93 -3.19513 1.79742 0
M  V30 14403 H 1378.58 -5.02824 0.132913 0
M  V30 14404 H 1378.28 -5.59515 1.79492 0
M  V30 14405 H 1379.8 -6.02857 0.969344 0
M  V30 14406 H 1381.21 -4.91598 2.94964 0
M  V30 14407 H 1379.61 -4.71329 3.71442 0
M  V30 14408 H 1380.68 -3.31012 3.54343 0
M  V30 14409 N 1382.02 -1.04567 -1.17913 0
M  V30 14410 C 1382.93 -0.651674 -2.25367 0
M  V30 14411 C 1383.95 0.32437 -1.7095 0
M  V30 14412 O 1385.13 0.178039 -2.00612 0
M  V30 14413 C 1382.19 -0.0259452 -3.4669 0
M  V30 14414 C 1381.25 -1.05163 -4.1622 0
M  V30 14415 C 1380.48 -0.45567 -5.31751 0
M  V30 14416 O 1380.71 0.736698 -5.65623 0
M  V30 14417 O 1379.64 -1.18684 -5.90083 0
M  V30 14418 H 1383.47 -1.54704 -2.61344 0
M  V30 14419 H 1381.05 -0.816852 -1.25092 0
M  V30 14420 H 1382.93 0.322126 -4.20167 0
M  V30 14421 H 1381.61 0.843165 -3.12526 0
M  V30 14422 H 1380.52 -1.45159 -3.44789 0
M  V30 14423 H 1381.85 -1.89168 -4.54397 0
M  V30 14424 N 1383.5 1.34231 -0.825823 0
M  V30 14425 C 1384.45 2.29467 -0.247724 0
M  V30 14426 C 1385.42 1.53724 0.629127 0
M  V30 14427 O 1386.6 1.82082 0.570156 0
M  V30 14428 C 1383.74 3.40157 0.582012 0
M  V30 14429 C 1382.86 4.30832 -0.317406 0
M  V30 14430 C 1381.99 5.28627 0.522176 0
M  V30 14431 C 1381.03 6.10941 -0.376448 0
M  V30 14432 N 1380.17 7.00817 0.424232 0
M  V30 14433 H 1385.01 2.78311 -1.06521 0
M  V30 14434 H 1382.54 1.36956 -0.536788 0
M  V30 14435 H 1384.5 4.03021 1.07843 0
M  V30 14436 H 1383.13 2.92539 1.36459 0
M  V30 14437 H 1382.18 3.68805 -0.932054 0
M  V30 14438 H 1383.5 4.88503 -1.00826 0
M  V30 14439 H 1382.65 5.96957 1.08295 0
M  V30 14440 H 1381.39 4.71501 1.24652 0
M  V30 14441 H 1380.39 5.41542 -0.94934 0
M  V30 14442 H 1381.62 6.70149 -1.09895 0
M  V30 14443 H 1379.57 6.46156 1.1322 0
M  V30 14444 H 1379.48 7.55713 -0.208175 0
M  V30 14445 H 1380.75 7.7347 0.967664 0
M  V30 14446 N 1384.98 0.581051 1.46498 0
M  V30 14447 C 1386.23 0.0658652 2.01993 0
M  V30 14448 C 1386.55 -1.29807 1.45516 0
M  V30 14449 O 1385.82 -1.85177 0.639233 0
M  V30 14450 H 1384.4 0.0213584 0.746695 0
M  V30 14451 H 1387.06 0.756456 1.79621 0
M  V30 14452 H 1386.16 -0.00438128 3.121 0
M  V30 14453 N 1386.46 -1.54343 0.318742 0
M  V30 14454 C 1387.37 -2.27856 -0.558442 0
M  V30 14455 C 1388.38 -1.32029 -1.13333 0
M  V30 14456 O 1389.56 -1.65037 -1.15433 0
M  V30 14457 C 1386.62 -3.01842 -1.70565 0
M  V30 14458 C 1385.69 -4.13245 -1.16305 0
M  V30 14459 C 1384.92 -4.83693 -2.25559 0
M  V30 14460 O 1385.14 -4.53621 -3.4581 0
M  V30 14461 O 1384.08 -5.70708 -1.91249 0
M  V30 14462 H 1387.9 -3.03676 0.0384247 0
M  V30 14463 H 1385.49 -1.4916 0.0845936 0
M  V30 14464 H 1387.37 -3.48189 -2.37365 0
M  V30 14465 H 1386.04 -2.28902 -2.28879 0
M  V30 14466 H 1384.95 -3.71258 -0.460274 0
M  V30 14467 H 1386.28 -4.88214 -0.625111 0
M  V30 14468 N 1387.94 -0.0468143 -1.5753 0
M  V30 14469 C 1389.35 0.309707 -1.56566 0
M  V30 14470 C 1389.55 1.7173 -1.05408 0
M  V30 14471 O 1388.61 2.4235 -0.708723 0
M  V30 14472 C 1389.92 0.142151 -3.00364 0
M  V30 14473 C 1391.47 0.213585 -3.1227 0
M  V30 14474 C 1391.94 0.0746102 -4.57939 0
M  V30 14475 N 1393.43 0.131027 -4.63015 0
M  V30 14476 C 1394.17 0.0475409 -5.7338 0
M  V30 14477 N 1393.67 -0.0880445 -6.92744 0
M  V30 14478 N 1395.46 0.102809 -5.62006 0
M  V30 14479 H 1387.61 -0.967057 -1.89108 0
M  V30 14480 H 1389.87 -0.375018 -0.870669 0
M  V30 14481 H 1389.58 -0.828171 -3.4181 0
M  V30 14482 H 1389.45 0.905006 -3.66182 0
M  V30 14483 H 1391.84 1.17438 -2.70726 0
M  V30 14484 H 1391.92 -0.57995 -2.49139 0
M  V30 14485 H 1391.56 -0.882839 -5.00168 0
M  V30 14486 H 1391.49 0.887235 -5.19072 0
M  V30 14487 H 1393.99 0.235246 -3.77167 0
M  V30 14488 H 1394.3 -0.144574 -7.72665 0
M  V30 14489 H 1392.64 -0.12307 -6.94891 0
M  V30 14490 H 1395.83 0.207259 -4.67641 0
M  V30 14491 H 1396.01 0.0342865 -6.47991 0
M  V30 14492 N 1389.41 1.55964 0.226527 0
M  V30 14493 C 1390.34 1.95028 1.284 0
M  V30 14494 C 1391.33 0.817833 1.49149 0
M  V30 14495 O 1392.51 1.07975 1.61416 0
M  V30 14496 C 1389.64 2.26266 2.63478 0
M  V30 14497 C 1388.59 3.41954 2.57393 0
M  V30 14498 C 1387.92 3.58786 3.96456 0
M  V30 14499 C 1389.22 4.77069 2.12608 0
M  V30 14500 H 1390.91 2.83608 0.959513 0
M  V30 14501 H 1388.46 1.36451 0.460125 0
M  V30 14502 H 1390.41 2.52186 3.3761 0
M  V30 14503 H 1389.14 1.34533 2.97604 0
M  V30 14504 H 1387.8 3.16076 1.85719 0
M  V30 14505 H 1387.44 2.64437 4.27881 0
M  V30 14506 H 1387.14 4.36595 3.93267 0
M  V30 14507 H 1388.67 3.87048 4.72256 0
M  V30 14508 H 1390.08 5.02226 2.76481 0
M  V30 14509 H 1388.48 5.58126 2.2049 0
M  V30 14510 H 1389.55 4.7276 1.07823 0
M  V30 14511 N 1390.89 -0.493031 1.4969 0
M  V30 14512 C 1392.3 -1.0744 1.52688 0
M  V30 14513 C 1392.65 -1.93612 0.317652 0
M  V30 14514 O 1391.78 -2.0871 -0.571745 0
M  V30 14515 C 1392.37 -1.95523 2.76688 0
M  V30 14516 C 1390.93 -2.48808 2.82438 0
M  V30 14517 C 1390.08 -1.26617 2.46705 0
M  V30 14518 H 1393.03 -0.276589 1.56271 0
M  V30 14519 H 1393.05 -2.80315 2.57301 0
M  V30 14520 H 1392.56 -1.32779 3.6468 0
M  V30 14521 H 1390.67 -3.15168 1.98746 0
M  V30 14522 H 1390.78 -2.85416 3.84805 0
M  V30 14523 H 1389.14 -1.59396 1.98658 0
M  V30 14524 H 1389.93 -0.655695 3.3698 0
M  V30 14525 N 1392.37 -1.38898 -0.744656 0
M  V30 14526 C 1393.3 -1.32739 -1.8685 0
M  V30 14527 C 1394.32 -0.23793 -1.61052 0
M  V30 14528 O 1395.5 -0.496166 -1.71466 0
M  V30 14529 C 1392.6 -1.03602 -3.22676 0
M  V30 14530 C 1391.78 -2.23634 -3.75908 0
M  V30 14531 C 1390.84 -1.91103 -4.90271 0
M  V30 14532 O 1389.86 -2.6369 -5.04437 0
M  V30 14533 N 1391.06 -0.871358 -5.73923 0
M  V30 14534 H 1393.83 -2.29585 -1.92641 0
M  V30 14535 H 1391.39 -1.32875 -0.924979 0
M  V30 14536 H 1393.38 -0.798755 -3.96739 0
M  V30 14537 H 1391.95 -0.155218 -3.12214 0
M  V30 14538 H 1391.17 -2.63371 -2.93307 0
M  V30 14539 H 1392.46 -3.0372 -4.08205 0
M  V30 14540 H 1391.86 -0.269591 -5.65057 0
M  V30 14541 H 1390.42 -0.693984 -6.48095 0
M  V30 14542 N 1393.85 0.973806 -1.23914 0
M  V30 14543 C 1395.26 1.53057 -1.06913 0
M  V30 14544 C 1395.61 1.92842 0.361423 0
M  V30 14545 O 1394.74 1.76716 1.24901 0
M  V30 14546 C 1395.33 2.78137 -1.93457 0
M  V30 14547 C 1393.89 3.3019 -1.80697 0
M  V30 14548 C 1393.04 2.03137 -1.88761 0
M  V30 14549 H 1395.99 0.792767 -1.37481 0
M  V30 14550 H 1396.01 3.5124 -1.46325 0
M  V30 14551 H 1395.52 2.49149 -2.97568 0
M  V30 14552 H 1393.62 3.64043 -0.793951 0
M  V30 14553 H 1393.73 3.99503 -2.64451 0
M  V30 14554 H 1392.1 2.17572 -1.32418 0
M  V30 14555 H 1392.88 1.76522 -2.9444 0
M  V30 14556 N 1395.33 1.05191 1.17357 0
M  V30 14557 C 1396.74 0.788105 1.69251 0
M  V30 14558 C 1397.09 -0.689717 1.83677 0
M  V30 14559 O 1396.21 -1.53601 1.52433 0
M  V30 14560 C 1396.81 1.42401 3.07421 0
M  V30 14561 C 1395.37 1.20825 3.5648 0
M  V30 14562 C 1394.51 1.50756 2.3274 0
M  V30 14563 H 1397.47 1.21686 1.01874 0
M  V30 14564 H 1397.49 0.833285 3.71264 0
M  V30 14565 H 1397 2.49958 2.96889 0
M  V30 14566 H 1395.1 0.15193 3.7229 0
M  V30 14567 H 1395.21 1.91319 4.39242 0
M  V30 14568 H 1393.58 0.927649 2.37206 0
M  V30 14569 H 1394.36 2.59446 2.24817 0
M  V30 14570 N 1396.8 -1.33791 0.83293 0
M  V30 14571 C 1398.05 -1.97233 0.422127 0
M  V30 14572 C 1398.37 -1.66738 -1.02264 0
M  V30 14573 O 1399.57 -2.23747 -1.53783 0
M  V30 14574 C 1398.03 -3.5295 0.703872 0
M  V30 14575 C 1397.64 -3.92329 2.16292 0
M  V30 14576 C 1399.38 -4.22973 0.359727 0
M  V30 14577 C 1397.29 -5.40999 2.38903 0
M  V30 14578 H 1396.22 -0.738082 0.154112 0
M  V30 14579 H 1398.87 -1.52494 1.02068 0
M  V30 14580 H 1397.25 -3.95985 0.0350184 0
M  V30 14581 H 1398.42 -3.6037 2.87176 0
M  V30 14582 H 1396.74 -3.35271 2.46947 0
M  V30 14583 H 1399.34 -5.32297 0.506366 0
M  V30 14584 H 1399.68 -4.10428 -0.696743 0
M  V30 14585 H 1400.21 -3.85449 0.983568 0
M  V30 14586 H 1396.95 -5.58541 3.43093 0
M  V30 14587 H 1396.47 -5.74438 1.72573 0
M  V30 14588 H 1398.15 -6.07809 2.2176 0
M  V30 14589 N 1398.28 -0.588812 -1.46187 0
M  V30 14590 C 1399.52 -0.0794904 -2.04245 0
M  V30 14591 C 1399.89 1.25893 -1.44965 0
M  V30 14592 O 1401.09 1.85785 -1.94261 0
M  V30 14593 C 1399.36 -0.0210846 -3.57394 0
M  V30 14594 S 1400.92 0.429775 -4.3669 0
M  V30 14595 H 1397.74 -0.0404337 -0.709849 0
M  V30 14596 H 1400.34 -0.782686 -1.79149 0
M  V30 14597 H 1399.04 -0.999032 -3.98055 0
M  V30 14598 H 1398.57 0.704691 -3.87037 0
M  V30 14599 H 1400.59 1.68327 -4.66777 0
M  V30 14600 N 1399.76 1.54172 -0.326923 0
M  V30 14601 C 1400.99 2.05044 0.276508 0
M  V30 14602 C 1401.4 1.20288 1.45521 0
M  V30 14603 O 1400.76 0.234324 1.80989 0
M  V30 14604 C 1400.81 3.54505 0.707714 0
M  V30 14605 O 1400.53 4.36042 -0.424098 0
M  V30 14606 C 1402.03 4.21482 1.3736 0
M  V30 14607 H 1399.25 0.668632 0.0563273 0
M  V30 14608 H 1401.8 1.98929 -0.474087 0
M  V30 14609 H 1399.95 3.60896 1.40828 0
M  V30 14610 H 1400.37 5.24433 -0.0836846 0
M  V30 14611 H 1401.84 5.27501 1.62623 0
M  V30 14612 H 1402.32 3.72802 2.32196 0
M  V30 14613 H 1402.92 4.19238 0.715526 0
M  V30 14614 N 1401.24 0.0551678 1.57503 0
M  V30 14615 C 1402.49 -0.617201 1.92025 0
M  V30 14616 C 1402.8 -1.71767 0.93571 0
M  V30 14617 O 1404.01 -2.44847 1.17312 0
M  V30 14618 C 1402.46 -1.14915 3.41061 0
M  V30 14619 C 1402.07 -0.0805814 4.47928 0
M  V30 14620 C 1403.81 -1.79654 3.8461 0
M  V30 14621 C 1401.72 -0.625639 5.88081 0
M  V30 14622 H 1400.65 -0.23431 0.716669 0
M  V30 14623 H 1403.3 0.124706 1.83076 0
M  V30 14624 H 1401.68 -1.9435 3.45028 0
M  V30 14625 H 1402.86 0.693222 4.55556 0
M  V30 14626 H 1401.17 0.469581 4.13744 0
M  V30 14627 H 1403.77 -2.21436 4.86693 0
M  V30 14628 H 1404.11 -2.64987 3.21073 0
M  V30 14629 H 1404.65 -1.06868 3.83176 0
M  V30 14630 H 1401.39 0.190148 6.55224 0
M  V30 14631 H 1400.91 -1.36734 5.84007 0
M  V30 14632 H 1402.58 -1.10728 6.37454 0
M  V30 14633 N 1402.72 -1.56081 -0.218252 0
M  V30 14634 C 1403.99 -1.70043 -0.966684 0
M  V30 14635 C 1404.37 -0.603372 -2.02293 0
M  V30 14636 O 1403.72 0.389138 -2.25162 0
M  V30 14637 C 1403.93 -3.11484 -1.57413 0
M  V30 14638 C 1405.28 -3.70995 -2.06513 0
M  V30 14639 O 1406.3 -3.14466 -1.67301 0
M  V30 14640 O 1405.16 -4.70156 -2.78596 0
M  V30 14641 H 1402.26 -0.692691 -0.451784 0
M  V30 14642 H 1404.8 -1.68398 -0.209774 0
M  V30 14643 H 1403.57 -3.8279 -0.811614 0
M  V30 14644 H 1403.2 -3.1726 -2.3965 0
M  V30 14645 N 1404.2 0.485086 -1.49949 0
M  V30 14646 C 1405.44 1.23999 -1.60474 0
M  V30 14647 C 1405.77 1.91904 -0.297736 0
M  V30 14648 O 1405.05 1.81472 0.699857 0
M  V30 14649 C 1405.33 2.2946 -2.77525 0
M  V30 14650 C 1405.19 1.65952 -4.18067 0
M  V30 14651 C 1406.5 3.30893 -2.90169 0
M  V30 14652 H 1403.62 0.449462 -0.584083 0
M  V30 14653 H 1406.27 0.535795 -1.82289 0
M  V30 14654 H 1404.42 2.89521 -2.59056 0
M  V30 14655 H 1406.09 1.09596 -4.48092 0
M  V30 14656 H 1404.33 0.963079 -4.22974 0
M  V30 14657 H 1405 2.42521 -4.9587 0
M  V30 14658 H 1407.48 2.8084 -3.07031 0
M  V30 14659 H 1406.35 4.02027 -3.73718 0
M  V30 14660 H 1406.61 3.94178 -2.0019 0
M  V30 14661 N 1405.67 1.39291 0.737279 0
M  V30 14662 C 1406.9 1.39457 1.52431 0
M  V30 14663 C 1407.31 -0.0132866 1.89195 0
M  V30 14664 O 1406.65 -0.99443 1.54456 0
M  V30 14665 C 1406.72 2.20125 2.84227 0
M  V30 14666 C 1406.38 3.68778 2.6991 0
M  V30 14667 C 1407.38 4.6191 2.38611 0
M  V30 14668 C 1405.06 4.12336 2.86853 0
M  V30 14669 C 1407.06 5.96581 2.24432 0
M  V30 14670 C 1404.74 5.47083 2.72292 0
M  V30 14671 C 1405.74 6.3902 2.41127 0
M  V30 14672 O 1405.43 7.71287 2.26654 0
M  V30 14673 H 1405.16 0.478281 0.477727 0
M  V30 14674 H 1407.72 1.837 0.918891 0
M  V30 14675 H 1405.95 1.70627 3.47021 0
M  V30 14676 H 1407.63 2.12497 3.45832 0
M  V30 14677 H 1408.4 4.29559 2.25175 0
M  V30 14678 H 1404.28 3.41111 3.10103 0
M  V30 14679 H 1407.82 6.68307 2.00028 0
M  V30 14680 H 1403.72 5.79026 2.85306 0
M  V30 14681 H 1404.49 7.81987 2.41742 0
M  V30 14682 N 1407.15 -0.967221 1.24429 0
M  V30 14683 C 1408.08 -2.06071 0.980314 0
M  V30 14684 C 1409.06 -1.62372 -0.0860829 0
M  V30 14685 O 1410.25 -1.88431 0.0509524 0
M  V30 14686 C 1407.37 -3.35289 0.479452 0
M  V30 14687 C 1406.42 -3.9794 1.53447 0
M  V30 14688 S 1407.25 -4.3551 3.11595 0
M  V30 14689 C 1408.41 -5.67865 2.63212 0
M  V30 14690 H 1408.64 -2.28145 1.90623 0
M  V30 14691 H 1406.17 -1.10519 1.07819 0
M  V30 14692 H 1408.13 -4.10027 0.197103 0
M  V30 14693 H 1406.79 -3.11201 -0.425755 0
M  V30 14694 H 1405.99 -4.91067 1.13445 0
M  V30 14695 H 1405.59 -3.29634 1.76685 0
M  V30 14696 H 1407.88 -6.45405 2.06054 0
M  V30 14697 H 1408.82 -6.12724 3.5493 0
M  V30 14698 H 1409.23 -5.26496 2.03623 0
M  V30 14699 N 1408.63 -1.05812 -1.16797 0
M  V30 14700 C 1409.88 -0.767008 -1.86547 0
M  V30 14701 C 1410.19 0.708979 -1.82299 0
M  V30 14702 O 1411.4 1.11428 -2.4758 0
M  V30 14703 C 1409.85 -1.32186 -3.34746 0
M  V30 14704 C 1409.46 -2.82774 -3.4748 0
M  V30 14705 C 1411.21 -1.10808 -4.09783 0
M  V30 14706 C 1409.11 -3.31529 -4.89737 0
M  V30 14707 H 1408.04 -0.283235 -0.698781 0
M  V30 14708 H 1410.69 -1.27621 -1.31853 0
M  V30 14709 H 1409.08 -0.740453 -3.89016 0
M  V30 14710 H 1410.25 -3.46825 -3.03396 0
M  V30 14711 H 1408.56 -3.02765 -2.85871 0
M  V30 14712 H 1411.16 -1.44728 -5.14741 0
M  V30 14713 H 1411.5 -0.046167 -4.16274 0
M  V30 14714 H 1412.04 -1.65502 -3.61737 0
M  V30 14715 H 1408.78 -4.37177 -4.88422 0
M  V30 14716 H 1408.3 -2.72224 -5.34466 0
M  V30 14717 H 1409.98 -3.26572 -5.58534 0
M  V30 14718 N 1410.11 1.33347 -0.840014 0
M  V30 14719 C 1411.04 2.27146 -0.219068 0
M  V30 14720 C 1412.02 1.4971 0.634472 0
M  V30 14721 O 1413.2 1.7888 0.594485 0
M  V30 14722 C 1410.33 3.31549 0.692312 0
M  V30 14723 C 1409.38 4.26413 -0.0859186 0
M  V30 14724 S 1410.21 5.15647 -1.44458 0
M  V30 14725 C 1411.36 6.23579 -0.538524 0
M  V30 14726 H 1411.6 2.79464 -1.01426 0
M  V30 14727 H 1409.13 1.40655 -0.636829 0
M  V30 14728 H 1411.09 3.92183 1.21254 0
M  V30 14729 H 1409.75 2.78044 1.46117 0
M  V30 14730 H 1408.94 5.00324 0.60762 0
M  V30 14731 H 1408.54 3.70121 -0.537243 0
M  V30 14732 H 1410.84 6.76989 0.263167 0
M  V30 14733 H 1411.78 6.97019 -1.24782 0
M  V30 14734 H 1412.19 5.64374 -0.119363 0
M  V30 14735 N 1411.59 0.596556 1.45873 0
M  V30 14736 C 1412.83 0.0875879 2.02611 0
M  V30 14737 C 1413.16 -1.27438 1.46538 0
M  V30 14738 O 1412.44 -1.83815 0.635779 0
M  V30 14739 C 1412.72 0.0367394 3.60081 0
M  V30 14740 C 1412.58 1.42859 4.26511 0
M  V30 14741 C 1413.89 -0.656795 4.35171 0
M  V30 14742 H 1411.01 0.0333031 0.736247 0
M  V30 14743 H 1413.66 0.766413 1.73857 0
M  V30 14744 H 1411.81 -0.541345 3.8471 0
M  V30 14745 H 1413.48 2.0529 4.13102 0
M  V30 14746 H 1411.72 1.99243 3.85337 0
M  V30 14747 H 1412.39 1.34535 5.35354 0
M  V30 14748 H 1414.87 -0.165553 4.15771 0
M  V30 14749 H 1413.74 -0.661445 5.449 0
M  V30 14750 H 1414 -1.72079 4.07236 0
M  V30 14751 N 1413.06 -1.53996 0.335095 0
M  V30 14752 C 1414.01 -2.24736 -0.52559 0
M  V30 14753 C 1414.98 -1.24244 -1.10239 0
M  V30 14754 O 1416.17 -1.52955 -1.14058 0
M  V30 14755 C 1413.31 -3.01732 -1.67487 0
M  V30 14756 C 1412.42 -4.17062 -1.1262 0
M  V30 14757 C 1411.55 -4.81563 -2.2421 0
M  V30 14758 C 1410.59 -5.88977 -1.6665 0
M  V30 14759 N 1409.73 -6.47293 -2.71949 0
M  V30 14760 H 1414.57 -2.97881 0.0842008 0
M  V30 14761 H 1412.11 -1.47003 0.0533254 0
M  V30 14762 H 1414.06 -3.44626 -2.35135 0
M  V30 14763 H 1412.69 -2.30899 -2.25578 0
M  V30 14764 H 1411.75 -3.78869 -0.340917 0
M  V30 14765 H 1413.06 -4.94346 -0.665113 0
M  V30 14766 H 1412.21 -5.27486 -2.9974 0
M  V30 14767 H 1410.95 -4.03685 -2.73659 0
M  V30 14768 H 1409.96 -5.42446 -0.89623 0
M  V30 14769 H 1411.18 -6.68758 -1.18064 0
M  V30 14770 H 1409.13 -5.72283 -3.20668 0
M  V30 14771 H 1409.04 -7.20024 -2.30438 0
M  V30 14772 H 1410.31 -6.97869 -3.47273 0
M  V30 14773 N 1414.54 -0.0635198 -1.57472 0
M  V30 14774 C 1415.78 0.611234 -1.95047 0
M  V30 14775 C 1416.15 1.67274 -0.94251 0
M  V30 14776 O 1417.35 2.40246 -1.20563 0
M  V30 14777 C 1415.62 1.18071 -3.37334 0
M  V30 14778 S 1417.18 1.87174 -3.96877 0
M  V30 14779 H 1413.99 0.20037 -0.682182 0
M  V30 14780 H 1416.6 -0.135403 -1.95031 0
M  V30 14781 H 1415.3 0.396176 -4.08483 0
M  V30 14782 H 1414.83 1.96388 -3.40874 0
M  V30 14783 H 1416.85 3.15346 -3.83107 0
M  V30 14784 N 1416.02 1.56195 0.209972 0
M  V30 14785 C 1417.27 1.80917 0.929554 0
M  V30 14786 C 1417.62 0.638305 1.81503 0
M  V30 14787 O 1416.91 -0.367181 1.88049 0
M  V30 14788 C 1417.11 3.09154 1.79328 0
M  V30 14789 C 1416.94 4.38602 0.99291 0
M  V30 14790 C 1415.71 5.0066 0.683231 0
M  V30 14791 C 1417.9 5.13089 0.352678 0
M  V30 14792 N 1415.89 6.13746 -0.137328 0
M  V30 14793 C 1417.26 6.19117 -0.330748 0
M  V30 14794 C 1419.31 4.97184 0.266887 0
M  V30 14795 C 1418.02 7.10966 -1.09177 0
M  V30 14796 C 1420.04 5.89443 -0.480701 0
M  V30 14797 C 1419.4 6.94906 -1.15263 0
M  V30 14798 H 1415.5 0.713515 0.320031 0
M  V30 14799 H 1418.09 1.93676 0.199467 0
M  V30 14800 H 1416.26 2.97657 2.49509 0
M  V30 14801 H 1417.99 3.22021 2.45121 0
M  V30 14802 H 1414.74 4.62834 1.00407 0
M  V30 14803 H 1415.17 6.74869 -0.536782 0
M  V30 14804 H 1419.81 4.15692 0.772025 0
M  V30 14805 H 1417.53 7.91932 -1.60839 0
M  V30 14806 H 1421.11 5.79211 -0.54824 0
M  V30 14807 H 1419.99 7.65063 -1.72185 0
M  V30 14808 N 1417.5 -0.477127 1.50204 0
M  V30 14809 C 1418.43 -1.59442 1.63259 0
M  V30 14810 C 1419.41 -1.55327 0.480864 0
M  V30 14811 O 1420.59 -1.75038 0.699578 0
M  V30 14812 C 1417.72 -2.98009 1.6096 0
M  V30 14813 C 1416.77 -3.20301 2.8162 0
M  V30 14814 S 1417.6 -3.00849 4.43001 0
M  V30 14815 C 1418.75 -4.41769 4.43386 0
M  V30 14816 H 1418.99 -1.48128 2.5777 0
M  V30 14817 H 1416.52 -0.66403 1.39392 0
M  V30 14818 H 1418.48 -3.779 1.60319 0
M  V30 14819 H 1417.14 -3.06718 0.676948 0
M  V30 14820 H 1416.33 -4.21515 2.76299 0
M  V30 14821 H 1415.93 -2.48173 2.79797 0
M  V30 14822 H 1418.23 -5.34294 4.16576 0
M  V30 14823 H 1419.17 -4.52135 5.44958 0
M  V30 14824 H 1419.58 -4.23565 3.73166 0
M  V30 14825 N 1418.98 -1.3968 -0.729882 0
M  V30 14826 C 1420.23 -1.36492 -1.48502 0
M  V30 14827 C 1420.54 0.0346572 -1.95569 0
M  V30 14828 O 1421.74 0.189135 -2.7084 0
M  V30 14829 C 1420.2 -2.39813 -2.68361 0
M  V30 14830 C 1419.81 -3.85511 -2.28222 0
M  V30 14831 C 1421.55 -2.45709 -3.46161 0
M  V30 14832 C 1419.46 -4.80462 -3.44834 0
M  V30 14833 H 1418.39 -0.507455 -0.557679 0
M  V30 14834 H 1421.04 -1.6535 -0.795708 0
M  V30 14835 H 1419.42 -2.04033 -3.39392 0
M  V30 14836 H 1420.6 -4.30359 -1.64704 0
M  V30 14837 H 1418.91 -3.82957 -1.63501 0
M  V30 14838 H 1421.51 -3.1384 -4.32907 0
M  V30 14839 H 1421.85 -1.48318 -3.88983 0
M  V30 14840 H 1422.38 -2.80409 -2.82163 0
M  V30 14841 H 1419.12 -5.79134 -3.07057 0
M  V30 14842 H 1418.64 -4.40289 -4.07315 0
M  V30 14843 H 1420.32 -4.99607 -4.11098 0
M  V30 14844 N 1420.45 0.960609 -1.2494 0
M  V30 14845 C 1421.73 1.68035 -1.00118 0
M  V30 14846 C 1422.11 2.057 0.474399 0
M  V30 14847 O 1421.46 1.76569 1.45036 0
M  V30 14848 C 1421.67 2.90708 -1.93106 0
M  V30 14849 C 1423.02 3.62792 -2.20606 0
M  V30 14850 O 1424.04 3.00778 -1.90816 0
M  V30 14851 O 1422.9 4.74443 -2.71231 0
M  V30 14852 H 1419.99 0.734939 -0.379202 0
M  V30 14853 H 1422.54 1.01407 -1.36069 0
M  V30 14854 H 1421.31 2.59619 -2.92769 0
M  V30 14855 H 1420.94 3.65068 -1.57515 0
M  V30 14856 N 1421.93 1.0643 1.16234 0
M  V30 14857 C 1423.16 0.802671 1.91238 0
M  V30 14858 C 1423.58 -0.637222 1.76978 0
M  V30 14859 O 1422.94 -1.44419 1.09603 0
M  V30 14860 C 1422.99 1.20389 3.3991 0
M  V30 14861 O 1422.09 0.343516 4.10967 0
M  V30 14862 H 1421.43 0.29323 0.595745 0
M  V30 14863 H 1423.96 1.42046 1.47255 0
M  V30 14864 H 1423.97 1.17604 3.90683 0
M  V30 14865 H 1422.65 2.2527 3.49608 0
M  V30 14866 H 1421.23 0.433051 3.70377 0
M  V30 14867 N 1423.41 -1.329 0.847073 0
M  V30 14868 C 1424.32 -2.32815 0.288878 0
M  V30 14869 C 1425.34 -1.63715 -0.589363 0
M  V30 14870 O 1426.51 -1.9531 -0.491537 0
M  V30 14871 C 1423.58 -3.42778 -0.519988 0
M  V30 14872 C 1422.64 -4.27584 0.383496 0
M  V30 14873 C 1421.87 -5.32296 -0.386862 0
M  V30 14874 O 1422.09 -5.4698 -1.61768 0
M  V30 14875 O 1421.03 -6.01408 0.2434 0
M  V30 14876 H 1424.85 -2.82434 1.11647 0
M  V30 14877 H 1422.44 -1.36388 0.609807 0
M  V30 14878 H 1424.32 -4.09862 -0.979357 0
M  V30 14879 H 1423 -2.95362 -1.3245 0
M  V30 14880 H 1421.9 -3.63338 0.890879 0
M  V30 14881 H 1423.24 -4.78505 1.15299 0
M  V30 14882 N 1424.89 -0.604284 -1.45555 0
M  V30 14883 C 1426.13 -0.101149 -2.0415 0
M  V30 14884 C 1426.49 1.24348 -1.46292 0
M  V30 14885 O 1427.69 1.83714 -1.9622 0
M  V30 14886 C 1425.96 -0.0589898 -3.57351 0
M  V30 14887 S 1427.52 0.383434 -4.37122 0
M  V30 14888 H 1424.34 -0.0479603 -0.709381 0
M  V30 14889 H 1426.94 -0.801643 -1.78309 0
M  V30 14890 H 1425.65 -1.04119 -3.96973 0
M  V30 14891 H 1425.18 0.663601 -3.87763 0
M  V30 14892 H 1427.19 1.63367 -4.68536 0
M  V30 14893 N 1426.37 1.53816 -0.343257 0
M  V30 14894 C 1427.78 1.59598 0.00867849 0
M  V30 14895 C 1427.98 1.35922 1.48753 0
M  V30 14896 O 1427.04 1.15334 2.2462 0
M  V30 14897 C 1428.35 2.97649 -0.427234 0
M  V30 14898 C 1429.9 3.1069 -0.379554 0
M  V30 14899 C 1430.37 4.51119 -0.79093 0
M  V30 14900 N 1431.87 4.57168 -0.745105 0
M  V30 14901 C 1432.6 5.63975 -1.03537 0
M  V30 14902 N 1432.1 6.78635 -1.39377 0
M  V30 14903 N 1433.89 5.53848 -0.959628 0
M  V30 14904 H 1426.04 1.6746 -1.30656 0
M  V30 14905 H 1428.3 0.784254 -0.532588 0
M  V30 14906 H 1428.01 3.2004 -1.45834 0
M  V30 14907 H 1427.88 3.76682 0.197704 0
M  V30 14908 H 1430.27 2.88024 0.642376 0
M  V30 14909 H 1430.35 2.33718 -1.03969 0
M  V30 14910 H 1430 4.74521 -1.81087 0
M  V30 14911 H 1429.93 5.26489 -0.108274 0
M  V30 14912 H 1432.42 3.7483 -0.480752 0
M  V30 14913 H 1432.73 7.56053 -1.60011 0
M  V30 14914 H 1431.07 6.80083 -1.43222 0
M  V30 14915 H 1434.27 4.6315 -0.678974 0
M  V30 14916 H 1434.44 6.36995 -1.18919 0
M  V30 14917 N 1427.84 0.0718701 1.57436 0
M  V30 14918 C 1429.26 -0.460784 1.80924 0
M  V30 14919 C 1429.61 -1.69637 0.985781 0
M  V30 14920 O 1428.73 -2.15395 0.208319 0
M  V30 14921 C 1429.33 -0.842738 3.28151 0
M  V30 14922 C 1427.89 -1.32026 3.52486 0
M  V30 14923 C 1427.03 -0.305466 2.75612 0
M  V30 14924 H 1429.98 0.297566 1.55885 0
M  V30 14925 H 1430 -1.70414 3.40205 0
M  V30 14926 H 1429.52 0.056733 3.88059 0
M  V30 14927 H 1427.62 -2.23822 2.97883 0
M  V30 14928 H 1427.73 -1.29813 4.61178 0
M  V30 14929 H 1426.09 -0.782758 2.42374 0
M  V30 14930 H 1426.88 0.586279 3.38257 0
M  V30 14931 N 1429.32 -1.56304 -0.201686 0
M  V30 14932 C 1430.74 -1.49741 -0.552247 0
M  V30 14933 C 1430.94 -0.770683 -1.86179 0
M  V30 14934 O 1429.99 -0.318489 -2.50483 0
M  V30 14935 C 1431.31 -2.94384 -0.613083 0
M  V30 14936 C 1432.86 -3.05018 -0.702365 0
M  V30 14937 C 1433.33 -4.51058 -0.794371 0
M  V30 14938 N 1434.82 -4.55183 -0.858072 0
M  V30 14939 C 1435.56 -5.65487 -0.949317 0
M  V30 14940 N 1435.05 -6.85497 -1.00327 0
M  V30 14941 N 1436.85 -5.53385 -0.985995 0
M  V30 14942 H 1429 -2.01971 0.657394 0
M  V30 14943 H 1431.26 -0.918839 0.233322 0
M  V30 14944 H 1430.97 -3.50584 0.279921 0
M  V30 14945 H 1430.84 -3.47376 -1.47002 0
M  V30 14946 H 1433.23 -2.4887 -1.5858 0
M  V30 14947 H 1433.31 -2.55161 0.180636 0
M  V30 14948 H 1432.95 -5.07829 0.0846883 0
M  V30 14949 H 1432.88 -4.98641 -1.69308 0
M  V30 14950 H 1435.37 -3.68765 -0.825888 0
M  V30 14951 H 1435.69 -7.65312 -1.07322 0
M  V30 14952 H 1434.03 -6.88169 -0.972061 0
M  V30 14953 H 1437.22 -4.58552 -0.940635 0
M  V30 14954 H 1437.39 -6.39376 -1.05365 0
M  V30 14955 N 1430.8 0.469154 -1.50455 0
M  V30 14956 C 1432.05 1.22109 -1.61541 0
M  V30 14957 C 1432.38 1.91905 -0.316646 0
M  V30 14958 O 1431.63 1.82845 0.697585 0
M  V30 14959 C 1431.93 2.28673 -2.7467 0
M  V30 14960 C 1431.6 1.76115 -4.15083 0
M  V30 14961 C 1430.26 1.61503 -4.53288 0
M  V30 14962 C 1432.61 1.37145 -5.02833 0
M  V30 14963 C 1429.94 1.06346 -5.76981 0
M  V30 14964 C 1432.29 0.834294 -6.27074 0
M  V30 14965 C 1430.95 0.674814 -6.6408 0
M  V30 14966 H 1430.22 0.44683 -0.591121 0
M  V30 14967 H 1432.87 0.516821 -1.84394 0
M  V30 14968 H 1431.18 3.05015 -2.45912 0
M  V30 14969 H 1432.87 2.86615 -2.80451 0
M  V30 14970 H 1429.46 1.88457 -3.84944 0
M  V30 14971 H 1433.65 1.47268 -4.73947 0
M  V30 14972 H 1428.9 0.927377 -6.04326 0
M  V30 14973 H 1433.08 0.523676 -6.94428 0
M  V30 14974 H 1430.7 0.245264 -7.59804 0
M  V30 14975 N 1432.28 1.40065 0.722464 0
M  V30 14976 C 1433.69 1.21944 1.02965 0
M  V30 14977 C 1433.89 0.0898069 2.013 0
M  V30 14978 O 1432.95 -0.554519 2.46336 0
M  V30 14979 C 1434.26 2.55848 1.57995 0
M  V30 14980 C 1435.81 2.62801 1.70013 0
M  V30 14981 C 1436.29 3.96957 2.2845 0
M  V30 14982 N 1437.78 3.98662 2.35844 0
M  V30 14983 C 1438.51 4.99248 2.82026 0
M  V30 14984 N 1438.01 6.1023 3.28012 0
M  V30 14985 N 1439.8 4.8662 2.81349 0
M  V30 14986 H 1431.95 2.12283 0.0705301 0
M  V30 14987 H 1434.22 0.943338 0.0938991 0
M  V30 14988 H 1433.92 3.39125 0.932034 0
M  V30 14989 H 1433.8 2.76452 2.5662 0
M  V30 14990 H 1436.18 1.799 2.33923 0
M  V30 14991 H 1436.26 2.46034 0.700062 0
M  V30 14992 H 1435.91 4.80295 1.65164 0
M  V30 14993 H 1435.84 4.1105 3.29158 0
M  V30 14994 H 1438.33 3.18518 2.03358 0
M  V30 14995 H 1438.64 6.82878 3.61797 0
M  V30 14996 H 1436.99 6.13805 3.25988 0
M  V30 14997 H 1440.18 3.99015 2.44755 0
M  V30 14998 H 1440.35 5.65155 3.17024 0
M  V30 14999 N 1433.76 -0.95397 1.25448 0
M  V30 15000 C 1434.67 -2.08452 1.07634 0
M  V30 15001 C 1435.68 -1.73995 0.013294 0
M  V30 15002 O 1436.86 -2.00256 0.214367 0
M  V30 15003 C 1433.92 -3.39606 0.697756 0
M  V30 15004 C 1432.99 -3.87926 1.83881 0
M  V30 15005 C 1432.22 -5.12821 1.47819 0
M  V30 15006 O 1432.44 -5.69172 0.374143 0
M  V30 15007 O 1431.38 -5.55866 2.3086 0
M  V30 15008 H 1435.2 -2.26382 2.02447 0
M  V30 15009 H 1432.79 -1.06877 1.04392 0
M  V30 15010 H 1434.67 -4.18438 0.498778 0
M  V30 15011 H 1433.34 -3.22944 -0.221108 0
M  V30 15012 H 1432.25 -3.10095 2.09265 0
M  V30 15013 H 1433.58 -4.09087 2.73694 0
M  V30 15014 N 1435.24 -1.07045 -1.15668 0
M  V30 15015 C 1436.17 -0.709413 -2.22463 0
M  V30 15016 C 1437.15 0.30169 -1.67403 0
M  V30 15017 O 1438.33 0.175131 -1.93409 0
M  V30 15018 C 1435.46 -0.103121 -3.47147 0
M  V30 15019 C 1434.42 -1.04103 -4.15146 0
M  V30 15020 C 1433.74 -0.297656 -5.33871 0
M  V30 15021 C 1435.04 -2.37332 -4.65264 0
M  V30 15022 H 1436.74 -1.60227 -2.52918 0
M  V30 15023 H 1434.28 -0.771846 -1.21567 0
M  V30 15024 H 1436.23 0.161371 -4.21091 0
M  V30 15025 H 1434.96 0.824792 -3.16014 0
M  V30 15026 H 1433.62 -1.2904 -3.43139 0
M  V30 15027 H 1433.27 0.633618 -4.98993 0
M  V30 15028 H 1432.97 -0.922789 -5.80309 0
M  V30 15029 H 1434.49 -0.0408892 -6.10586 0
M  V30 15030 H 1435.9 -2.1674 -5.30751 0
M  V30 15031 H 1434.3 -2.95412 -5.22352 0
M  V30 15032 H 1435.37 -2.99859 -3.81068 0
M  V30 15033 N 1436.71 1.32449 -0.85411 0
M  V30 15034 C 1437.96 1.97563 -0.4579 0
M  V30 15035 C 1438.29 1.67435 0.983835 0
M  V30 15036 O 1437.57 0.962292 1.69027 0
M  V30 15037 C 1437.85 3.53292 -0.69688 0
M  V30 15038 C 1437.7 3.93053 -2.18699 0
M  V30 15039 C 1439.02 4.39834 -0.152917 0
M  V30 15040 H 1436.14 0.717634 -0.167842 0
M  V30 15041 H 1438.78 1.5684 -1.07243 0
M  V30 15042 H 1436.93 3.88111 -0.173807 0
M  V30 15043 H 1438.61 3.68416 -2.7761 0
M  V30 15044 H 1436.85 3.42232 -2.6657 0
M  V30 15045 H 1437.52 5.01576 -2.3049 0
M  V30 15046 H 1440 4.11748 -0.600216 0
M  V30 15047 H 1438.87 5.47785 -0.349703 0
M  V30 15048 H 1439.13 4.31898 0.944276 0
M  V30 15049 N 1438.19 0.611994 1.45232 0
M  V30 15050 C 1439.42 0.113618 2.07089 0
M  V30 15051 C 1439.84 -1.1947 1.45288 0
M  V30 15052 O 1439.2 -1.72845 0.547207 0
M  V30 15053 C 1439.25 -0.00789978 3.60599 0
M  V30 15054 O 1438.35 -1.05697 3.98625 0
M  V30 15055 H 1437.69 0.076066 0.659629 0
M  V30 15056 H 1440.22 0.843253 1.86415 0
M  V30 15057 H 1440.23 -0.204692 4.07486 0
M  V30 15058 H 1438.91 0.947386 4.04966 0
M  V30 15059 H 1437.48 -0.836291 3.63401 0
M  V30 15060 N 1439.67 -1.53632 0.351409 0
M  V30 15061 C 1440.58 -2.2899 -0.509985 0
M  V30 15062 C 1441.6 -1.34403 -1.10507 0
M  V30 15063 O 1442.77 -1.67448 -1.11906 0
M  V30 15064 C 1439.84 -3.05392 -1.64124 0
M  V30 15065 C 1438.9 -4.15619 -1.07514 0
M  V30 15066 C 1438.13 -4.88369 -2.15248 0
M  V30 15067 O 1438.35 -4.60854 -3.3611 0
M  V30 15068 O 1437.29 -5.74636 -1.79101 0
M  V30 15069 H 1441.11 -3.03526 0.10283 0
M  V30 15070 H 1438.7 -1.48947 0.116214 0
M  V30 15071 H 1440.58 -3.53146 -2.29926 0
M  V30 15072 H 1439.26 -2.33705 -2.23972 0
M  V30 15073 H 1438.16 -3.7215 -0.381421 0
M  V30 15074 H 1439.5 -4.8943 -0.521413 0
M  V30 15075 N 1441.15 -0.0802183 -1.57396 0
M  V30 15076 C 1442.39 0.586962 -1.93807 0
M  V30 15077 C 1442.72 1.69107 -0.960887 0
M  V30 15078 O 1441.98 1.95688 0.0220779 0
M  V30 15079 C 1442.28 1.19551 -3.36812 0
M  V30 15080 C 1441.94 0.216701 -4.50379 0
M  V30 15081 C 1440.6 -0.0525552 -4.81171 0
M  V30 15082 C 1442.96 -0.452467 -5.19232 0
M  V30 15083 C 1440.28 -0.997923 -5.78151 0
M  V30 15084 C 1442.64 -1.38621 -6.17225 0
M  V30 15085 C 1441.3 -1.66385 -6.4643 0
M  V30 15086 H 1440.57 0.214785 -0.709189 0
M  V30 15087 H 1443.22 -0.152888 -1.90889 0
M  V30 15088 H 1441.52 2.01129 -3.36236 0
M  V30 15089 H 1443.22 1.71918 -3.62278 0
M  V30 15090 H 1439.81 0.436747 -4.26369 0
M  V30 15091 H 1443.99 -0.257573 -4.95631 0
M  V30 15092 H 1439.25 -1.22019 -5.991 0
M  V30 15093 H 1443.42 -1.91063 -6.69677 0
M  V30 15094 H 1441.05 -2.39799 -7.21388 0
M  V30 15095 N 1442.63 1.56409 0.193394 0
M  V30 15096 C 1443.85 1.8519 0.933775 0
M  V30 15097 C 1444.28 0.663991 1.75991 0
M  V30 15098 O 1443.63 -0.387198 1.77117 0
M  V30 15099 C 1443.68 3.12212 1.80432 0
M  V30 15100 O 1442.79 2.92884 2.90332 0
M  V30 15101 H 1442.13 0.609754 0.262862 0
M  V30 15102 H 1444.66 2.03638 0.198195 0
M  V30 15103 H 1444.67 3.4305 2.20864 0
M  V30 15104 H 1443.34 3.98292 1.19733 0
M  V30 15105 H 1441.92 2.73349 2.53643 0
M  V30 15106 N 1444.1 -0.461169 1.50702 0
M  V30 15107 C 1445.52 -0.795741 1.38348 0
M  V30 15108 C 1445.72 -1.96473 0.447263 0
M  V30 15109 O 1444.78 -2.52276 -0.106445 0
M  V30 15110 C 1446.09 -1.09849 2.79917 0
M  V30 15111 C 1447.64 -1.20435 2.88902 0
M  V30 15112 C 1448.11 -1.54017 4.31327 0
M  V30 15113 N 1449.6 -1.60989 4.34323 0
M  V30 15114 C 1450.34 -1.88498 5.41531 0
M  V30 15115 N 1449.83 -2.13959 6.58933 0
M  V30 15116 N 1451.63 -1.90082 5.28985 0
M  V30 15117 H 1443.78 0.309076 2.10139 0
M  V30 15118 H 1446.04 0.0757918 0.944965 0
M  V30 15119 H 1445.75 -0.312479 3.50309 0
M  V30 15120 H 1445.62 -2.03221 3.17775 0
M  V30 15121 H 1448.01 -1.98102 2.18723 0
M  V30 15122 H 1448.09 -0.250195 2.54573 0
M  V30 15123 H 1447.73 -0.768865 5.02047 0
M  V30 15124 H 1447.66 -2.50599 4.6315 0
M  V30 15125 H 1450.15 -1.43312 3.49672 0
M  V30 15126 H 1450.47 -2.34251 7.36442 0
M  V30 15127 H 1448.81 -2.11331 6.62091 0
M  V30 15128 H 1452 -1.69693 4.36259 0
M  V30 15129 H 1452.18 -2.11184 6.12622 0
M  V30 15130 N 1445.58 -1.40446 -0.715026 0
M  V30 15131 C 1446.51 -1.35159 -1.83868 0
M  V30 15132 C 1447.49 -0.221884 -1.61079 0
M  V30 15133 O 1448.68 -0.405635 -1.84084 0
M  V30 15134 C 1445.8 -1.10358 -3.20217 0
M  V30 15135 C 1444.85 -2.25787 -3.61832 0
M  V30 15136 S 1445.68 -3.88183 -3.68882 0
M  V30 15137 C 1446.84 -3.65647 -5.07989 0
M  V30 15138 H 1447.07 -2.30252 -1.88073 0
M  V30 15139 H 1444.6 -1.26738 -0.881859 0
M  V30 15140 H 1446.56 -0.967343 -3.9894 0
M  V30 15141 H 1445.22 -0.169178 -3.13644 0
M  V30 15142 H 1444.42 -2.04078 -4.60834 0
M  V30 15143 H 1444.02 -2.35717 -2.90368 0
M  V30 15144 H 1446.31 -3.24149 -5.94923 0
M  V30 15145 H 1447.25 -4.64182 -5.34734 0
M  V30 15146 H 1447.66 -2.99322 -4.78609 0
M  V30 15147 N 1447.06 0.947303 -1.25952 0
M  V30 15148 C 1448.02 2.02667 -1.07046 0
M  V30 15149 C 1449.02 1.60787 -0.0208127 0
M  V30 15150 O 1450.21 1.72193 -0.263668 0
M  V30 15151 C 1447.34 3.35087 -0.626885 0
M  V30 15152 H 1448.54 2.20871 -2.0287 0
M  V30 15153 H 1446.09 1.12541 -1.08462 0
M  V30 15154 H 1446.83 3.22579 0.333621 0
M  V30 15155 H 1446.61 3.66835 -1.38473 0
M  V30 15156 H 1448.1 4.14397 -0.516264 0
M  V30 15157 N 1448.54 1.07657 1.15099 0
M  V30 15158 C 1449.95 0.802696 1.37945 0
M  V30 15159 C 1450.15 -0.591622 1.92619 0
M  V30 15160 O 1449.21 -1.34979 2.13394 0
M  V30 15161 C 1450.52 1.87907 2.34759 0
M  V30 15162 C 1452.07 1.90418 2.48415 0
M  V30 15163 C 1452.55 2.97148 3.48521 0
M  V30 15164 N 1454.04 2.96271 3.56059 0
M  V30 15165 C 1454.77 3.75498 4.33346 0
M  V30 15166 N 1454.27 4.64583 5.1394 0
M  V30 15167 N 1456.06 3.63831 4.28466 0
M  V30 15168 H 1448.21 1.97578 0.779537 0
M  V30 15169 H 1450.48 0.856978 0.405331 0
M  V30 15170 H 1450.18 2.8811 2.01707 0
M  V30 15171 H 1450.06 1.74183 3.34575 0
M  V30 15172 H 1452.44 0.908655 2.80762 0
M  V30 15173 H 1452.52 2.0822 1.48586 0
M  V30 15174 H 1452.17 3.96903 3.16908 0
M  V30 15175 H 1452.1 2.76593 4.48112 0
M  V30 15176 H 1454.59 2.31697 2.98538 0
M  V30 15177 H 1454.9 5.2166 5.70167 0
M  V30 15178 H 1453.25 4.6863 5.13236 0
M  V30 15179 H 1456.44 2.93609 3.6457 0
M  V30 15180 H 1456.61 4.25818 4.8845 0
M  V30 15181 N 1450.02 -1.31994 0.861122 0
M  V30 15182 C 1451.29 -1.91699 0.388705 0
M  V30 15183 C 1451.67 -1.78412 -1.12838 0
M  V30 15184 O 1451.02 -1.18625 -1.95296 0
M  V30 15185 C 1451.23 -3.38232 0.860248 0
M  V30 15186 C 1452.58 -4.15355 0.881201 0
M  V30 15187 O 1453.6 -3.46977 0.805313 0
M  V30 15188 O 1452.46 -5.37468 0.98945 0
M  V30 15189 H 1449.56 -0.819017 0.114629 0
M  V30 15190 H 1452.1 -1.40721 0.94845 0
M  V30 15191 H 1450.87 -3.41876 1.9036 0
M  V30 15192 H 1450.5 -3.96625 0.278316 0
M  V30 15193 N 1451.49 -0.619688 -1.44906 0
M  V30 15194 C 1452.91 -0.203309 -1.8559 0
M  V30 15195 C 1453.26 1.24265 -1.51831 0
M  V30 15196 O 1452.38 1.94392 -0.950819 0
M  V30 15197 C 1452.98 -0.362204 -3.36858 0
M  V30 15198 C 1451.54 -0.000423575 -3.764 0
M  V30 15199 C 1450.68 -0.680979 -2.68808 0
M  V30 15200 H 1453.63 -0.825595 -1.35535 0
M  V30 15201 H 1453.65 0.402149 -3.78369 0
M  V30 15202 H 1453.17 -1.41468 -3.61398 0
M  V30 15203 H 1451.27 1.05077 -3.57477 0
M  V30 15204 H 1451.38 -0.402508 -4.77406 0
M  V30 15205 H 1449.74 -0.117407 -2.54429 0
M  V30 15206 H 1450.53 -1.73583 -2.96182 0
M  V30 15207 N 1452.97 1.53444 -0.359552 0
M  V30 15208 C 1453.9 2.23121 0.524379 0
M  V30 15209 C 1454.92 1.24324 1.05106 0
M  V30 15210 O 1456.11 1.50584 0.958476 0
M  V30 15211 C 1453.21 2.91055 1.7361 0
M  V30 15212 C 1452.38 4.16306 1.34195 0
M  V30 15213 C 1451.44 4.67504 2.41508 0
M  V30 15214 O 1450.46 5.3133 2.04149 0
M  V30 15215 N 1451.67 4.44801 3.73005 0
M  V30 15216 H 1454.43 2.99612 -0.072427 0
M  V30 15217 H 1451.99 1.60846 -0.184438 0
M  V30 15218 H 1453.98 3.22216 2.44865 0
M  V30 15219 H 1452.55 2.18052 2.23991 0
M  V30 15220 H 1451.77 3.91513 0.459501 0
M  V30 15221 H 1453.06 4.97746 1.05483 0
M  V30 15222 H 1452.46 3.9379 4.06136 0
M  V30 15223 H 1451.02 4.80528 4.40382 0
M  V30 15224 N 1454.45 0.0885642 1.57351 0
M  V30 15225 C 1455.87 -0.268088 1.57332 0
M  V30 15226 C 1456.07 -1.68875 1.09924 0
M  V30 15227 O 1455.12 -2.40385 0.772729 0
M  V30 15228 C 1456.44 -0.0624654 3.00635 0
M  V30 15229 C 1457.98 -0.130717 3.12727 0
M  V30 15230 C 1458.46 0.0468305 4.57976 0
M  V30 15231 N 1459.95 -0.00822093 4.63199 0
M  V30 15232 C 1460.68 0.104497 5.73305 0
M  V30 15233 N 1460.18 0.271682 6.92267 0
M  V30 15234 N 1461.97 0.0462333 5.62081 0
M  V30 15235 H 1454.12 1.01686 1.86477 0
M  V30 15236 H 1456.39 0.397971 0.86042 0
M  V30 15237 H 1456.09 0.918505 3.39494 0
M  V30 15238 H 1455.97 -0.807602 3.68453 0
M  V30 15239 H 1458.35 -1.10219 2.73744 0
M  V30 15240 H 1458.44 0.645801 2.47514 0
M  V30 15241 H 1458.08 1.01514 4.97652 0
M  V30 15242 H 1458.01 -0.7493 5.21242 0
M  V30 15243 H 1460.5 -0.135164 3.77658 0
M  V30 15244 H 1460.81 0.349381 7.7201 0
M  V30 15245 H 1459.16 0.307265 6.9432 0
M  V30 15246 H 1462.35 -0.0831995 4.68026 0
M  V30 15247 H 1462.52 0.137529 6.47854 0
M  V30 15248 N 1455.93 -1.56509 -0.185096 0
M  V30 15249 C 1457.18 -1.81206 -0.903924 0
M  V30 15250 C 1457.5 -0.663423 -1.82836 0
M  V30 15251 O 1456.76 0.350211 -1.92541 0
M  V30 15252 C 1457.06 -3.11968 -1.74387 0
M  V30 15253 C 1456.72 -4.40353 -0.969552 0
M  V30 15254 C 1455.39 -4.75227 -0.755799 0
M  V30 15255 C 1457.74 -5.19461 -0.425443 0
M  V30 15256 C 1455.07 -5.86698 0.0133856 0
M  V30 15257 C 1457.42 -6.31736 0.330582 0
M  V30 15258 C 1456.08 -6.65187 0.555262 0
M  V30 15259 H 1455.35 -0.663078 -0.330769 0
M  V30 15260 H 1458 -1.90747 -0.169673 0
M  V30 15261 H 1456.3 -2.97708 -2.5471 0
M  V30 15262 H 1458 -3.28284 -2.30284 0
M  V30 15263 H 1454.59 -4.1299 -1.14618 0
M  V30 15264 H 1458.77 -4.92923 -0.577959 0
M  V30 15265 H 1454.03 -6.11081 0.197335 0
M  V30 15266 H 1458.2 -6.92246 0.759523 0
M  V30 15267 H 1455.83 -7.51403 1.15318 0
M  V30 15268 N 1457.41 0.45317 -1.50944 0
M  V30 15269 C 1458.65 1.20568 -1.63068 0
M  V30 15270 C 1458.99 1.91229 -0.338375 0
M  V30 15271 O 1458.26 1.82916 0.661207 0
M  V30 15272 C 1458.54 2.23522 -2.8233 0
M  V30 15273 C 1458.4 1.57047 -4.21493 0
M  V30 15274 C 1459.72 3.24663 -2.97123 0
M  V30 15275 H 1456.83 0.436971 -0.593486 0
M  V30 15276 H 1459.48 0.497008 -1.83384 0
M  V30 15277 H 1457.63 2.83961 -2.65139 0
M  V30 15278 H 1459.3 1.00067 -4.50316 0
M  V30 15279 H 1457.54 0.873143 -4.24922 0
M  V30 15280 H 1458.21 2.31949 -5.00903 0
M  V30 15281 H 1460.69 2.74264 -3.12919 0
M  V30 15282 H 1459.56 3.9401 -3.82161 0
M  V30 15283 H 1459.83 3.89843 -2.08506 0
M  V30 15284 N 1458.88 1.40823 0.707568 0
M  V30 15285 C 1460.13 1.39741 1.4697 0
M  V30 15286 C 1460.46 0.00231194 1.942 0
M  V30 15287 O 1459.74 -0.967798 1.68713 0
M  V30 15288 C 1460.02 2.39385 2.69011 0
M  V30 15289 C 1459.87 3.87953 2.27624 0
M  V30 15290 C 1461.19 2.3645 3.71186 0
M  V30 15291 H 1458.31 0.508904 0.533091 0
M  V30 15292 H 1460.95 1.72015 0.806888 0
M  V30 15293 H 1459.1 2.11993 3.25563 0
M  V30 15294 H 1460.78 4.26202 1.76492 0
M  V30 15295 H 1459.02 4.03399 1.59537 0
M  V30 15296 H 1459.69 4.53201 3.15139 0
M  V30 15297 H 1462.17 2.60731 3.24282 0
M  V30 15298 H 1461.04 3.08204 4.54204 0
M  V30 15299 H 1461.3 1.3789 4.20046 0
M  V30 15300 N 1460.36 -0.94061 1.26453 0
M  V30 15301 C 1461.61 -1.68132 1.1142 0
M  V30 15302 C 1461.92 -1.92587 -0.342006 0
M  V30 15303 O 1463.13 -2.64489 -0.613018 0
M  V30 15304 C 1461.59 -3.02758 1.94591 0
M  V30 15305 C 1461.19 -2.86049 3.4479 0
M  V30 15306 C 1462.94 -3.80516 1.88169 0
M  V30 15307 C 1460.85 -4.1615 4.20206 0
M  V30 15308 H 1459.78 -0.630591 0.413366 0
M  V30 15309 H 1462.43 -1.04602 1.50767 0
M  V30 15310 H 1460.81 -3.67272 1.48078 0
M  V30 15311 H 1461.98 -2.3038 3.99076 0
M  V30 15312 H 1460.3 -2.21732 3.52454 0
M  V30 15313 H 1462.89 -4.76904 2.41799 0
M  V30 15314 H 1463.24 -4.07477 0.852531 0
M  V30 15315 H 1463.77 -3.22776 2.32509 0
M  V30 15316 H 1460.51 -3.94373 5.23593 0
M  V30 15317 H 1460.03 -4.71531 3.707 0
M  V30 15318 H 1461.71 -4.84602 4.28684 0
M  V30 15319 N 1461.84 -1.08266 -1.14527 0
M  V30 15320 C 1462.77 -0.669233 -2.19212 0
M  V30 15321 C 1463.79 0.282962 -1.60322 0
M  V30 15322 O 1464.97 0.0708403 -1.78359 0
M  V30 15323 C 1462.07 0.0362509 -3.38881 0
M  V30 15324 C 1461.25 -0.934477 -4.27301 0
M  V30 15325 C 1460.31 -0.264584 -5.25534 0
M  V30 15326 O 1459.33 -0.908543 -5.61902 0
M  V30 15327 N 1460.53 0.98609 -5.72063 0
M  V30 15328 H 1463.3 -1.56982 -2.55297 0
M  V30 15329 H 1460.86 -0.968551 -1.29733 0
M  V30 15330 H 1462.85 0.495309 -4.01658 0
M  V30 15331 H 1461.42 0.838913 -3.01133 0
M  V30 15332 H 1460.64 -1.57241 -3.61481 0
M  V30 15333 H 1461.93 -1.59232 -4.83242 0
M  V30 15334 H 1461.33 1.52904 -5.44644 0
M  V30 15335 H 1459.89 1.38867 -6.36835 0
M  V30 15336 N 1463.32 1.31536 -0.86811 0
M  V30 15337 C 1464.27 2.30504 -0.311581 0
M  V30 15338 C 1465.26 1.59439 0.572332 0
M  V30 15339 O 1466.47 1.74059 0.458639 0
M  V30 15340 H 1462.84 0.747508 -0.0820745 0
M  V30 15341 H 1464.81 2.74919 -1.16026 0
M  V30 15342 C 1463.56 3.44459 0.473622 0
M  V30 15343 H 1462.89 3.99313 -0.197259 0
M  V30 15344 H 1464.33 4.15829 0.828393 0
M  V30 15345 C 1462.78 2.92929 1.66416 0
M  V30 15346 O 1463.31 2.91543 2.76344 0
M  V30 15347 N 1461.52 2.49154 1.49568 0
M  V30 15348 H 1461.07 2.50481 0.601408 0
M  V30 15349 H 1461.03 2.15032 2.29366 0
M  V30 15350 N 1464.8 0.627364 1.44575 0
M  V30 15351 C 1465.71 -0.0811184 2.3446 0
M  V30 15352 C 1466.72 -0.839668 1.52399 0
M  V30 15353 O 1467.9 -0.792784 1.8514 0
M  V30 15354 C 1464.96 -1.05296 3.30323 0
M  V30 15355 C 1464.03 -0.294201 4.28291 0
M  V30 15356 C 1463.26 -1.21975 5.19575 0
M  V30 15357 O 1463.48 -2.45834 5.14706 0
M  V30 15358 O 1462.42 -0.70611 5.97744 0
M  V30 15359 H 1466.24 0.658067 2.96485 0
M  V30 15360 H 1463.83 0.387565 1.44285 0
M  V30 15361 H 1465.71 -1.61218 3.89341 0
M  V30 15362 H 1464.38 -1.77283 2.70837 0
M  V30 15363 H 1463.29 0.307969 3.7283 0
M  V30 15364 H 1464.62 0.385567 4.90687 0
M  V30 15365 N 1466.28 -1.53251 0.367684 0
M  V30 15366 C 1467.55 -1.93617 -0.277842 0
M  V30 15367 C 1467.93 -1.3014 -1.66213 0
M  V30 15368 O 1467.28 -0.461277 -2.23796 0
M  V30 15369 C 1467.49 -3.47475 -0.325937 0
M  V30 15370 C 1468.84 -4.2082 -0.565276 0
M  V30 15371 O 1469.86 -3.53866 -0.407057 0
M  V30 15372 O 1468.72 -5.39474 -0.873522 0
M  V30 15373 H 1465.82 -0.80993 -0.167158 0
M  V30 15374 H 1468.36 -1.64405 0.420621 0
M  V30 15375 H 1467.13 -3.85955 0.644542 0
M  V30 15376 H 1466.76 -3.82926 -1.07021 0
M  V30 15377 N 1467.75 -0.0969077 -1.57302 0
M  V30 15378 C 1468.68 0.858443 -2.17147 0
M  V30 15379 C 1469.66 1.29294 -1.10531 0
M  V30 15380 O 1470.85 1.3595 -1.38676 0
M  V30 15381 C 1467.98 2.11691 -2.75326 0
M  V30 15382 C 1466.93 1.82097 -3.8733 0
M  V30 15383 C 1466.26 3.14787 -4.32219 0
M  V30 15384 C 1467.56 1.10651 -5.10444 0
M  V30 15385 H 1469.25 0.35982 -2.9723 0
M  V30 15386 H 1466.8 0.17163 -1.42974 0
M  V30 15387 H 1468.75 2.78963 -3.15844 0
M  V30 15388 H 1467.48 2.63839 -1.925 0
M  V30 15389 H 1466.14 1.17222 -3.47354 0
M  V30 15390 H 1465.78 3.64826 -3.46281 0
M  V30 15391 H 1465.48 2.95769 -5.07735 0
M  V30 15392 H 1467.01 3.83215 -4.75372 0
M  V30 15393 H 1468.42 1.68036 -5.48121 0
M  V30 15394 H 1466.82 1.01805 -5.91401 0
M  V30 15395 H 1467.89 0.0895634 -4.84817 0
M  V30 15396 N 1469.23 1.56605 0.176793 0
M  V30 15397 C 1470.48 1.81324 0.892535 0
M  V30 15398 C 1470.8 0.67301 1.83018 0
M  V30 15399 O 1470.07 -0.307498 1.93472 0
M  V30 15400 H 1468.65 0.668881 0.332576 0
M  V30 15401 H 1471.31 1.94086 0.17792 0
M  V30 15402 H 1470.41 2.75168 1.47272 0
M  V30 15403 N 1470.71 -0.445159 1.51182 0
M  V30 15404 C 1472.12 -1.02528 1.56028 0
M  V30 15405 C 1472.47 -1.92503 0.379087 0
M  V30 15406 O 1471.6 -2.10424 -0.505056 0
M  V30 15407 C 1472.19 -1.86621 2.82768 0
M  V30 15408 C 1470.75 -2.39697 2.90211 0
M  V30 15409 C 1469.9 -1.18705 2.50608 0
M  V30 15410 H 1472.85 -0.226732 1.57072 0
M  V30 15411 H 1472.87 -2.71987 2.66089 0
M  V30 15412 H 1472.38 -1.2111 3.68719 0
M  V30 15413 H 1470.48 -3.08686 2.08672 0
M  V30 15414 H 1470.6 -2.73029 3.9369 0
M  V30 15415 H 1468.96 -1.52995 2.03629 0
M  V30 15416 H 1469.74 -0.548156 3.38895 0
M  V30 15417 N 1472.19 -1.41197 -0.700089 0
M  V30 15418 C 1473.15 -1.42419 -1.79582 0
M  V30 15419 C 1474.15 -0.31551 -1.57674 0
M  V30 15420 O 1475.34 -0.575173 -1.64431 0
M  V30 15421 C 1472.47 -1.23114 -3.17893 0
M  V30 15422 H 1473.67 -2.39956 -1.79892 0
M  V30 15423 H 1471.22 -1.27273 -0.907271 0
M  V30 15424 H 1471.95 -0.263992 -3.23224 0
M  V30 15425 H 1471.74 -2.03437 -3.35195 0
M  V30 15426 H 1473.23 -1.26793 -3.97886 0
M  V30 15427 N 1473.67 0.933891 -1.2695 0
M  V30 15428 C 1474.89 1.72042 -1.15828 0
M  V30 15429 C 1475.32 1.85975 0.28193 0
M  V30 15430 O 1474.67 1.35528 1.20423 0
M  V30 15431 C 1474.72 3.10112 -1.84019 0
M  V30 15432 O 1473.83 3.96504 -1.13394 0
M  V30 15433 H 1473.17 0.527573 -0.40319 0
M  V30 15434 H 1475.7 1.16914 -1.67905 0
M  V30 15435 H 1475.71 3.60461 -1.91133 0
M  V30 15436 H 1474.38 2.99287 -2.8879 0
M  V30 15437 H 1472.96 3.54948 -1.14307 0
M  V30 15438 N 1475.14 1.08871 1.13951 0
M  V30 15439 C 1476.55 0.841552 1.66658 0
M  V30 15440 C 1476.91 -0.630932 1.85779 0
M  V30 15441 O 1476.03 -1.48673 1.57243 0
M  V30 15442 C 1476.63 1.52109 3.02735 0
M  V30 15443 C 1475.18 1.32105 3.52456 0
M  V30 15444 C 1474.33 1.58084 2.27826 0
M  V30 15445 H 1477.28 1.24865 0.97951 0
M  V30 15446 H 1477.3 0.950978 3.68425 0
M  V30 15447 H 1476.82 2.59276 2.88786 0
M  V30 15448 H 1474.92 0.270294 3.71618 0
M  V30 15449 H 1475.03 2.05197 4.32933 0
M  V30 15450 H 1473.39 1.00264 2.34135 0
M  V30 15451 H 1474.18 2.66467 2.16449 0
M  V30 15452 N 1476.62 -1.31073 0.875073 0
M  V30 15453 C 1477.55 -2.30855 0.350468 0
M  V30 15454 C 1478.53 -1.60569 -0.561384 0
M  V30 15455 O 1479.72 -1.88242 -0.477329 0
M  V30 15456 C 1476.85 -3.44444 -0.444493 0
M  V30 15457 C 1475.8 -4.26357 0.374716 0
M  V30 15458 C 1475.13 -5.31903 -0.546243 0
M  V30 15459 C 1476.43 -4.96817 1.61153 0
M  V30 15460 H 1478.12 -2.74983 1.18427 0
M  V30 15461 H 1475.67 -1.32199 0.570909 0
M  V30 15462 H 1477.62 -4.13304 -0.82206 0
M  V30 15463 H 1476.34 -2.99096 -1.31185 0
M  V30 15464 H 1475 -3.59171 0.734295 0
M  V30 15465 H 1474.65 -4.82803 -1.41102 0
M  V30 15466 H 1474.35 -5.876 -0.00198173 0
M  V30 15467 H 1475.88 -6.03621 -0.920542 0
M  V30 15468 H 1477.29 -5.58247 1.30511 0
M  V30 15469 H 1475.69 -5.62334 2.09524 0
M  V30 15470 H 1476.76 -4.2351 2.36151 0
M  V30 15471 N 1478.1 -0.635022 -1.4424 0
M  V30 15472 C 1479.38 -0.0718064 -1.95468 0
M  V30 15473 C 1479.76 1.40348 -1.57689 0
M  V30 15474 O 1479.11 2.11986 -0.852888 0
M  V30 15475 C 1479.32 -0.298793 -3.47719 0
M  V30 15476 C 1480.66 -0.194056 -4.24156 0
M  V30 15477 O 1481.69 -0.230368 -3.55454 0
M  V30 15478 O 1480.55 -0.102294 -5.46404 0
M  V30 15479 H 1477.64 0.0200784 -0.826756 0
M  V30 15480 H 1480.19 -0.706996 -1.54271 0
M  V30 15481 H 1478.96 -1.32233 -3.6828 0
M  V30 15482 H 1478.58 0.370347 -3.95871 0
M  V30 15483 N 1479.58 1.53054 -0.375806 0
M  V30 15484 C 1480.8 2.06296 0.213708 0
M  V30 15485 C 1481.23 1.24675 1.40846 0
M  V30 15486 O 1480.59 0.268371 1.79303 0
M  V30 15487 C 1480.63 3.55981 0.575301 0
M  V30 15488 O 1479.74 3.77023 1.67115 0
M  V30 15489 H 1479.08 0.66338 0.0286922 0
M  V30 15490 H 1481.61 1.97362 -0.539371 0
M  V30 15491 H 1481.62 3.99187 0.843431 0
M  V30 15492 H 1480.29 4.14829 -0.298258 0
M  V30 15493 H 1478.87 3.45712 1.39778 0
M  V30 15494 N 1481.06 0.105248 1.57248 0
M  V30 15495 C 1482.28 -0.564157 1.9906 0
M  V30 15496 C 1482.7 -1.61092 0.984624 0
M  V30 15497 O 1482.06 -1.82484 -0.0244031 0
M  V30 15498 C 1482.11 -1.20272 3.40906 0
M  V30 15499 O 1481.83 -0.197815 4.37653 0
M  V30 15500 C 1483.33 -1.95677 3.97776 0
M  V30 15501 H 1480.55 -0.150468 0.653912 0
M  V30 15502 H 1483.09 0.187532 2.03638 0
M  V30 15503 H 1481.25 -1.90528 3.3731 0
M  V30 15504 H 1481.66 -0.659998 5.20331 0
M  V30 15505 H 1483.14 -2.35702 4.99148 0
M  V30 15506 H 1483.61 -2.82661 3.36154 0
M  V30 15507 H 1484.22 -1.30215 4.04876 0
M  V30 15508 N 1482.53 -1.56697 -0.168486 0
M  V30 15509 C 1483.78 -1.82154 -0.884654 0
M  V30 15510 C 1484.11 -0.682778 -1.82122 0
M  V30 15511 O 1483.36 0.32977 -1.92902 0
M  V30 15512 C 1483.66 -3.138 -1.71068 0
M  V30 15513 C 1483.33 -4.41356 -0.922793 0
M  V30 15514 C 1481.99 -4.76002 -0.705352 0
M  V30 15515 C 1484.34 -5.19883 -0.370323 0
M  V30 15516 C 1481.67 -5.86651 0.0756121 0
M  V30 15517 C 1484.02 -6.31349 0.397568 0
M  V30 15518 C 1482.69 -6.6456 0.625782 0
M  V30 15519 H 1481.96 -0.666549 -0.323718 0
M  V30 15520 H 1484.6 -1.90916 -0.149432 0
M  V30 15521 H 1482.91 -3.00393 -2.51538 0
M  V30 15522 H 1484.61 -3.30708 -2.2679 0
M  V30 15523 H 1481.2 -4.14182 -1.10231 0
M  V30 15524 H 1485.38 -4.93509 -0.525646 0
M  V30 15525 H 1480.64 -6.10838 0.262137 0
M  V30 15526 H 1484.81 -6.91401 0.832902 0
M  V30 15527 H 1482.44 -7.50137 1.23281 0
M  V30 15528 N 1484.01 0.437135 -1.51416 0
M  V30 15529 C 1485.24 1.20723 -1.67659 0
M  V30 15530 C 1485.65 1.85476 -0.373547 0
M  V30 15531 O 1484.99 1.71516 0.657876 0
M  V30 15532 C 1485.06 2.33257 -2.73553 0
M  V30 15533 C 1484.72 1.8887 -4.16146 0
M  V30 15534 C 1485.72 1.39203 -5.00918 0
M  V30 15535 C 1483.4 1.96555 -4.62246 0
M  V30 15536 C 1485.4 0.978071 -6.29851 0
M  V30 15537 C 1483.08 1.54771 -5.91176 0
M  V30 15538 C 1484.08 1.05479 -6.74806 0
M  V30 15539 O 1483.77 0.64288 -8.01325 0
M  V30 15540 H 1483.5 0.36993 -0.565798 0
M  V30 15541 H 1486.05 0.524183 -1.98599 0
M  V30 15542 H 1484.28 3.04839 -2.37929 0
M  V30 15543 H 1485.97 2.95121 -2.78673 0
M  V30 15544 H 1486.74 1.3266 -4.66505 0
M  V30 15545 H 1482.62 2.33868 -3.97274 0
M  V30 15546 H 1486.16 0.592633 -6.95078 0
M  V30 15547 H 1482.06 1.60985 -6.25103 0
M  V30 15548 H 1482.83 0.768711 -8.14882 0
M  V30 15549 N 1485.49 1.41566 0.692592 0
M  V30 15550 C 1486.91 1.24101 1.00355 0
M  V30 15551 C 1487.11 0.132485 2.01064 0
M  V30 15552 O 1486.16 -0.502142 2.47457 0
M  V30 15553 C 1487.48 2.59142 1.52532 0
M  V30 15554 C 1489.02 2.66348 1.64401 0
M  V30 15555 C 1489.5 4.01713 2.19978 0
M  V30 15556 N 1490.99 4.03575 2.27335 0
M  V30 15557 C 1491.72 5.05118 2.71373 0
M  V30 15558 N 1491.22 6.1705 3.14994 0
M  V30 15559 N 1493.01 4.92479 2.70963 0
M  V30 15560 H 1485.16 2.12385 0.0254859 0
M  V30 15561 H 1487.43 0.945118 0.0738684 0
M  V30 15562 H 1487.13 3.41026 0.85989 0
M  V30 15563 H 1487.01 2.81833 2.50699 0
M  V30 15564 H 1489.39 1.84821 2.30055 0
M  V30 15565 H 1489.48 2.47464 0.647717 0
M  V30 15566 H 1489.12 4.8369 1.54939 0
M  V30 15567 H 1489.05 4.1794 3.20365 0
M  V30 15568 H 1491.54 3.2276 1.96556 0
M  V30 15569 H 1491.85 6.90399 3.47231 0
M  V30 15570 H 1490.2 6.20582 3.12895 0
M  V30 15571 H 1493.39 4.04117 2.36236 0
M  V30 15572 H 1493.56 5.71752 3.04965 0
M  V30 15573 N 1486.97 -0.927146 1.27443 0
M  V30 15574 C 1488.19 -1.71426 1.16739 0
M  V30 15575 C 1488.62 -1.86122 -0.272063 0
M  V30 15576 O 1487.98 -1.36165 -1.19703 0
M  V30 15577 C 1488.02 -3.09131 1.85661 0
M  V30 15578 O 1487.13 -3.95897 1.15495 0
M  V30 15579 H 1486.47 -0.525428 0.405983 0
M  V30 15580 H 1489 -1.16022 1.68523 0
M  V30 15581 H 1489.01 -3.59442 1.93042 0
M  V30 15582 H 1487.68 -2.97752 2.90373 0
M  V30 15583 H 1486.26 -3.54337 1.16187 0
M  V30 15584 N 1488.45 -1.09474 -1.13372 0
M  V30 15585 C 1489.38 -0.756441 -2.20908 0
M  V30 15586 C 1490.36 0.266113 -1.68006 0
M  V30 15587 O 1491.54 0.134067 -1.93737 0
M  V30 15588 C 1488.67 -0.176733 -3.4685 0
M  V30 15589 C 1487.63 -1.12886 -4.12845 0
M  V30 15590 C 1486.95 -0.410831 -5.33119 0
M  V30 15591 C 1488.25 -2.47148 -4.60125 0
M  V30 15592 H 1489.95 -1.65555 -2.49463 0
M  V30 15593 H 1487.49 -0.797458 -1.19902 0
M  V30 15594 H 1489.45 0.0720151 -4.21338 0
M  V30 15595 H 1488.17 0.757576 -3.17692 0
M  V30 15596 H 1486.83 -1.36289 -3.40325 0
M  V30 15597 H 1486.48 0.527632 -5.00225 0
M  V30 15598 H 1486.18 -1.04567 -5.78221 0
M  V30 15599 H 1487.7 -0.170394 -6.10362 0
M  V30 15600 H 1489.11 -2.27949 -5.26034 0
M  V30 15601 H 1487.51 -3.06425 -5.15969 0
M  V30 15602 H 1488.58 -3.07874 -3.74622 0
M  V30 15603 N 1489.92 1.30607 -0.882012 0
M  V30 15604 C 1490.85 2.30666 -0.362706 0
M  V30 15605 C 1491.84 1.60865 0.552861 0
M  V30 15606 O 1493.02 1.88493 0.467339 0
M  V30 15607 C 1490.15 3.44675 0.42622 0
M  V30 15608 C 1489.1 4.26152 -0.397322 0
M  V30 15609 C 1488.43 5.32185 0.518027 0
M  V30 15610 C 1489.73 4.95955 -1.63785 0
M  V30 15611 H 1491.42 2.74351 -1.19883 0
M  V30 15612 H 1488.97 1.31895 -0.577912 0
M  V30 15613 H 1490.92 4.13734 0.80013 0
M  V30 15614 H 1489.65 2.99787 1.29597 0
M  V30 15615 H 1488.31 3.58776 -0.753332 0
M  V30 15616 H 1487.95 4.83545 1.3854 0
M  V30 15617 H 1487.65 5.87593 -0.0291802 0
M  V30 15618 H 1489.18 6.04101 0.888518 0
M  V30 15619 H 1490.59 5.57547 -1.3347 0
M  V30 15620 H 1488.99 5.61215 -2.12504 0
M  V30 15621 H 1490.06 4.22252 -2.38394 0
M  V30 15622 N 1491.4 0.642663 1.43901 0
M  V30 15623 C 1492.31 -0.0562462 2.34533 0
M  V30 15624 C 1493.33 -0.823457 1.53281 0
M  V30 15625 O 1494.5 -0.773103 1.85971 0
M  V30 15626 C 1491.57 -1.01787 3.31422 0
M  V30 15627 C 1490.63 -0.248759 4.28579 0
M  V30 15628 C 1489.86 -1.16458 5.20839 0
M  V30 15629 O 1490.09 -2.40361 5.17284 0
M  V30 15630 O 1489.02 -0.642671 5.98459 0
M  V30 15631 H 1492.85 0.689476 2.9577 0
M  V30 15632 H 1490.43 0.402847 1.43866 0
M  V30 15633 H 1492.31 -1.5708 3.91029 0
M  V30 15634 H 1490.99 -1.744 2.72702 0
M  V30 15635 H 1489.9 0.347495 3.72483 0
M  V30 15636 H 1491.23 0.437589 4.90251 0
M  V30 15637 N 1492.88 -1.52852 0.383918 0
M  V30 15638 C 1494.16 -1.939 -0.25729 0
M  V30 15639 C 1494.54 -1.31895 -1.64824 0
M  V30 15640 O 1493.89 -0.484987 -2.23294 0
M  V30 15641 C 1494.1 -3.47801 -0.289064 0
M  V30 15642 C 1495.44 -4.21396 -0.520611 0
M  V30 15643 O 1496.47 -3.54278 -0.369502 0
M  V30 15644 O 1495.33 -5.4037 -0.816254 0
M  V30 15645 H 1492.42 -0.811658 -0.158558 0
M  V30 15646 H 1494.97 -1.63949 0.438034 0
M  V30 15647 H 1493.74 -3.8525 0.685441 0
M  V30 15648 H 1493.36 -3.8404 -1.02953 0
M  V30 15649 N 1494.36 -0.113586 -1.5719 0
M  V30 15650 C 1495.64 0.588987 -1.86522 0
M  V30 15651 C 1496.02 1.85163 -1.01379 0
M  V30 15652 O 1495.36 2.28318 -0.0912188 0
M  V30 15653 C 1495.57 0.886633 -3.3755 0
M  V30 15654 C 1496.92 1.24206 -4.06027 0
M  V30 15655 O 1497.95 0.977068 -3.42537 0
M  V30 15656 O 1496.81 1.73914 -5.18089 0
M  V30 15657 H 1493.9 0.296637 -0.771968 0
M  V30 15658 H 1496.45 -0.147681 -1.69056 0
M  V30 15659 H 1495.22 -0.00835421 -3.91299 0
M  V30 15660 H 1494.84 1.67865 -3.60426 0
M  V30 15661 N 1495.84 1.56784 0.160173 0
M  V30 15662 C 1497.11 1.73513 0.902908 0
M  V30 15663 C 1497.49 0.678036 1.99915 0
M  V30 15664 O 1496.84 -0.305302 2.26451 0
M  V30 15665 C 1497.05 3.17111 1.45744 0
M  V30 15666 C 1498.4 3.78404 1.92602 0
M  V30 15667 O 1499.42 3.20459 1.55515 0
M  V30 15668 O 1498.28 4.80172 2.60954 0
M  V30 15669 H 1495.38 0.708981 0.425764 0
M  V30 15670 H 1497.92 1.69061 0.147129 0
M  V30 15671 H 1496.7 3.85539 0.668985 0
M  V30 15672 H 1496.32 3.25936 2.2771 0
M  V30 15673 N 1497.32 -0.429099 1.51646 0
M  V30 15674 C 1498.25 -1.54168 1.68249 0
M  V30 15675 C 1499.23 -1.53718 0.530037 0
M  V30 15676 O 1500.41 -1.72723 0.754911 0
M  V30 15677 C 1497.54 -2.92738 1.7036 0
M  V30 15678 C 1496.58 -3.11179 2.91668 0
M  V30 15679 S 1497.42 -2.86603 4.52348 0
M  V30 15680 C 1498.57 -4.2744 4.57216 0
M  V30 15681 H 1498.81 -1.39852 2.62352 0
M  V30 15682 H 1496.34 -0.619348 1.41434 0
M  V30 15683 H 1498.3 -3.72608 1.7226 0
M  V30 15684 H 1496.96 -3.0441 0.774186 0
M  V30 15685 H 1496.15 -4.12512 2.89569 0
M  V30 15686 H 1495.75 -2.39146 2.87551 0
M  V30 15687 H 1498.04 -5.20771 4.33363 0
M  V30 15688 H 1498.99 -4.34569 5.59067 0
M  V30 15689 H 1499.4 -4.11479 3.86452 0
M  V30 15690 N 1498.79 -1.41931 -0.685074 0
M  V30 15691 C 1500.04 -1.41571 -1.44229 0
M  V30 15692 C 1500.36 -0.0294445 -1.94978 0
M  V30 15693 O 1499.63 0.930414 -1.72395 0
M  V30 15694 H 1498.21 -0.521138 -0.535186 0
M  V30 15695 H 1500.87 -1.77263 -0.81017 0
M  V30 15696 H 1499.97 -2.10929 -2.30034 0
M  V30 15697 N 1500.27 0.920374 -1.27933 0
M  V30 15698 C 1501.55 1.64765 -1.05413 0
M  V30 15699 C 1501.93 2.07106 0.408717 0
M  V30 15700 O 1501.28 1.81094 1.39346 0
M  V30 15701 C 1501.49 2.84417 -2.02257 0
M  V30 15702 C 1502.83 3.5559 -2.32036 0
M  V30 15703 O 1503.86 2.94555 -2.00289 0
M  V30 15704 O 1502.72 4.65574 -2.86187 0
M  V30 15705 H 1499.81 0.722503 -0.402391 0
M  V30 15706 H 1502.36 0.970263 -1.39226 0
M  V30 15707 H 1501.13 2.50174 -3.0088 0
M  V30 15708 H 1500.75 3.59872 -1.6905 0
M  V30 15709 N 1501.75 1.10074 1.1279 0
M  V30 15710 C 1502.68 0.768146 2.20503 0
M  V30 15711 C 1503.66 -0.257199 1.68144 0
M  V30 15712 O 1504.85 -0.12379 1.93805 0
M  V30 15713 C 1501.98 0.195125 3.46751 0
M  V30 15714 C 1500.93 1.15074 4.1224 0
M  V30 15715 C 1500.26 0.439098 5.32894 0
M  V30 15716 C 1501.56 2.49584 4.58808 0
M  V30 15717 H 1503.25 1.66876 2.48581 0
M  V30 15718 H 1500.8 0.803806 1.19478 0
M  V30 15719 H 1502.75 -0.0496695 4.21371 0
M  V30 15720 H 1501.47 -0.740717 3.1809 0
M  V30 15721 H 1500.13 1.38092 3.39597 0
M  V30 15722 H 1499.78 -0.501096 5.00498 0
M  V30 15723 H 1499.48 1.07632 5.77658 0
M  V30 15724 H 1501 0.202761 6.10263 0
M  V30 15725 H 1502.42 2.30736 5.24818 0
M  V30 15726 H 1500.81 3.09157 5.14336 0
M  V30 15727 H 1501.88 3.09857 3.72984 0
M  V30 15728 N 1503.23 -1.30138 0.888926 0
M  V30 15729 C 1504.47 -1.96279 0.51012 0
M  V30 15730 C 1504.81 -1.69984 -0.939096 0
M  V30 15731 O 1504.08 -1.00677 -1.66416 0
M  V30 15732 C 1504.36 -3.51321 0.790305 0
M  V30 15733 C 1504.22 -3.87116 2.29044 0
M  V30 15734 C 1505.54 -4.39274 0.269477 0
M  V30 15735 H 1502.66 -0.712931 0.18681 0
M  V30 15736 H 1505.3 -1.53942 1.11364 0
M  V30 15737 H 1503.45 -3.87514 0.276647 0
M  V30 15738 H 1505.12 -3.60926 2.87281 0
M  V30 15739 H 1503.36 -3.35044 2.7555 0
M  V30 15740 H 1504.03 -4.95288 2.43708 0
M  V30 15741 H 1506.51 -4.10012 0.709173 0
M  V30 15742 H 1505.39 -5.46665 0.494815 0
M  V30 15743 H 1505.65 -4.3425 -0.829434 0
M  V30 15744 N 1504.71 -0.650285 -1.43559 0
M  V30 15745 C 1505.98 -0.0925343 -1.95381 0
M  V30 15746 C 1506.36 1.38668 -1.59168 0
M  V30 15747 O 1505.71 2.11069 -0.875324 0
M  V30 15748 C 1505.92 -0.335657 -3.47382 0
M  V30 15749 C 1507.27 -0.239032 -4.23927 0
M  V30 15750 O 1508.29 -0.268056 -3.5519 0
M  V30 15751 O 1507.15 -0.160241 -5.46265 0
M  V30 15752 H 1504.25 0.0113084 -0.826923 0
M  V30 15753 H 1506.79 -0.723319 -1.53513 0
M  V30 15754 H 1505.56 -1.36132 -3.66857 0
M  V30 15755 H 1505.19 0.328339 -3.96242 0
M  V30 15756 N 1506.18 1.52647 -0.392018 0
M  V30 15757 C 1507.15 2.25135 0.429754 0
M  V30 15758 C 1508.15 1.26871 0.987946 0
M  V30 15759 O 1509.34 1.50947 0.86952 0
M  V30 15760 C 1506.47 3.00849 1.60321 0
M  V30 15761 H 1507.66 2.99199 -0.204918 0
M  V30 15762 H 1505.21 1.55634 -0.144188 0
M  V30 15763 H 1505.95 2.31092 2.27524 0
M  V30 15764 H 1505.73 3.72975 1.20964 0
M  V30 15765 H 1507.22 3.55879 2.18494 0
M  V30 15766 N 1507.66 0.121921 1.57128 0
M  V30 15767 C 1508.57 -0.840825 2.19014 0
M  V30 15768 C 1509.59 -1.29051 1.16712 0
M  V30 15769 O 1510.76 -1.35289 1.49194 0
M  V30 15770 C 1507.83 -2.07204 2.7797 0
M  V30 15771 C 1506.89 -1.67399 3.95318 0
M  V30 15772 C 1506.12 -2.84652 4.51452 0
M  V30 15773 O 1506.35 -4.00161 4.06482 0
M  V30 15774 O 1505.28 -2.61568 5.42094 0
M  V30 15775 H 1509.11 -0.344146 3.01744 0
M  V30 15776 H 1506.69 -0.103841 1.49039 0
M  V30 15777 H 1508.57 -2.79307 3.1554 0
M  V30 15778 H 1507.25 -2.55872 1.9827 0
M  V30 15779 H 1506.16 -0.92395 3.62511 0
M  V30 15780 H 1507.49 -1.2347 4.76462 0
M  V30 15781 N 1509.14 -1.56867 -0.151857 0
M  V30 15782 C 1510.05 -2.01157 -1.20718 0
M  V30 15783 C 1511.07 -0.926166 -1.47303 0
M  V30 15784 O 1512.24 -1.23528 -1.59069 0
M  V30 15785 C 1509.31 -2.37915 -2.52185 0
M  V30 15786 C 1508.37 -3.60381 -2.3329 0
M  V30 15787 C 1507.6 -3.95376 -3.58488 0
M  V30 15788 O 1507.82 -3.31093 -4.64471 0
M  V30 15789 O 1506.76 -4.88645 -3.5144 0
M  V30 15790 H 1510.58 -2.91234 -0.861175 0
M  V30 15791 H 1508.17 -1.44993 -0.360213 0
M  V30 15792 H 1510.05 -2.6244 -3.29702 0
M  V30 15793 H 1508.73 -1.50995 -2.86325 0
M  V30 15794 H 1507.63 -3.4105 -1.5374 0
M  V30 15795 H 1508.97 -4.47903 -2.04067 0
M  V30 15796 N 1510.62 0.421051 -1.51871 0
M  V30 15797 C 1511.85 1.18938 -1.6893 0
M  V30 15798 C 1512.26 1.85069 -0.393198 0
M  V30 15799 O 1511.6 1.72204 0.639648 0
M  V30 15800 C 1511.66 2.30343 -2.76012 0
M  V30 15801 C 1511.33 1.84446 -4.18125 0
M  V30 15802 C 1512.32 1.33882 -5.02366 0
M  V30 15803 C 1510.01 1.91642 -4.64305 0
M  V30 15804 C 1512 0.911212 -6.30853 0
M  V30 15805 C 1509.69 1.48492 -5.92784 0
M  V30 15806 C 1510.69 0.98316 -6.75887 0
M  V30 15807 O 1510.37 0.557853 -8.01962 0
M  V30 15808 H 1510.11 0.363908 -0.56969 0
M  V30 15809 H 1512.66 0.503089 -1.99144 0
M  V30 15810 H 1510.89 3.02298 -2.41148 0
M  V30 15811 H 1512.58 2.92148 -2.81787 0
M  V30 15812 H 1513.35 1.27704 -4.67885 0
M  V30 15813 H 1509.22 2.29641 -3.99732 0
M  V30 15814 H 1512.77 0.518877 -6.95668 0
M  V30 15815 H 1508.67 1.54345 -6.26776 0
M  V30 15816 H 1509.43 0.682238 -8.15652 0
M  V30 15817 N 1512.1 1.42293 0.677538 0
M  V30 15818 C 1513.03 1.48344 1.80323 0
M  V30 15819 C 1514.01 0.340276 1.66662 0
M  V30 15820 O 1515.19 0.554209 1.86124 0
M  V30 15821 C 1512.32 1.38247 3.18599 0
M  V30 15822 C 1511.28 2.50562 3.46991 0
M  V30 15823 C 1510.6 2.25524 4.84812 0
M  V30 15824 C 1511.9 3.92877 3.44158 0
M  V30 15825 H 1513.6 2.42558 1.75516 0
M  V30 15826 H 1511.14 1.16746 0.842999 0
M  V30 15827 H 1513.1 1.41089 3.97079 0
M  V30 15828 H 1511.82 0.405255 3.24076 0
M  V30 15829 H 1510.48 2.47032 2.7087 0
M  V30 15830 H 1510.13 1.26102 4.86937 0
M  V30 15831 H 1509.83 3.00797 5.04772 0
M  V30 15832 H 1511.35 2.3011 5.65581 0
M  V30 15833 H 1512.76 3.98024 4.12613 0
M  V30 15834 H 1511.16 4.6798 3.75653 0
M  V30 15835 H 1512.23 4.19743 2.42783 0
M  V30 15836 N 1513.57 -0.913576 1.28419 0
M  V30 15837 C 1514.82 -1.66519 1.15755 0
M  V30 15838 C 1515.15 -1.91974 -0.293166 0
M  V30 15839 O 1514.43 -1.52025 -1.21321 0
M  V30 15840 C 1514.71 -3.02299 1.95672 0
M  V30 15841 C 1514.56 -2.83996 3.48807 0
M  V30 15842 C 1515.88 -4.02838 1.77226 0
M  V30 15843 H 1513 -0.604309 0.421877 0
M  V30 15844 H 1515.64 -1.05919 1.57737 0
M  V30 15845 H 1513.79 -3.54025 1.59995 0
M  V30 15846 H 1515.47 -2.39279 3.9439 0
M  V30 15847 H 1513.71 -2.19052 3.74431 0
M  V30 15848 H 1514.38 -3.80419 3.99982 0
M  V30 15849 H 1516.86 -3.60174 2.0836 0
M  V30 15850 H 1515.73 -4.95806 2.35515 0
M  V30 15851 H 1515.99 -4.36135 0.723804 0
M  V30 15852 N 1515.05 -1.1067 -1.12204 0
M  V30 15853 C 1516.46 -0.867959 -1.65298 0
M  V30 15854 C 1516.81 0.601297 -1.86759 0
M  V30 15855 O 1515.94 1.46153 -1.59588 0
M  V30 15856 C 1516.53 -1.56906 -3.00276 0
M  V30 15857 C 1515.09 -1.37696 -3.5031 0
M  V30 15858 C 1514.24 -1.61688 -2.25282 0
M  V30 15859 H 1517.19 -1.26408 -0.959521 0
M  V30 15860 H 1517.21 -1.00947 -3.66865 0
M  V30 15861 H 1516.72 -2.63838 -2.84625 0
M  V30 15862 H 1514.83 -0.329381 -3.71141 0
M  V30 15863 H 1514.94 -2.12058 -4.29614 0
M  V30 15864 H 1513.3 -1.03977 -2.3251 0
M  V30 15865 H 1514.09 -2.69877 -2.12182 0
M  V30 15866 N 1516.53 1.29665 -0.895815 0
M  V30 15867 C 1517.46 2.26842 -0.327939 0
M  V30 15868 C 1518.48 1.54151 0.523578 0
M  V30 15869 O 1519.66 1.75205 0.341367 0
M  V30 15870 C 1516.76 3.34384 0.551393 0
M  V30 15871 C 1515.94 4.36544 -0.273514 0
M  V30 15872 C 1515 5.23442 0.538031 0
M  V30 15873 O 1514.02 5.69184 -0.0431025 0
M  V30 15874 N 1515.22 5.50402 1.84493 0
M  V30 15875 H 1517.99 2.76208 -1.16315 0
M  V30 15876 H 1515.55 1.42958 -0.759903 0
M  V30 15877 H 1517.54 3.89446 1.10062 0
M  V30 15878 H 1516.11 2.84864 1.28728 0
M  V30 15879 H 1515.33 3.81196 -1.00416 0
M  V30 15880 H 1516.62 5.01842 -0.838589 0
M  V30 15881 H 1516.02 5.15041 2.33985 0
M  V30 15882 H 1514.58 6.08295 2.34137 0
M  V30 15883 N 1518.01 0.657889 1.43212 0
M  V30 15884 C 1518.94 -0.0695999 2.29094 0
M  V30 15885 C 1519.95 -0.782463 1.42763 0
M  V30 15886 O 1521.14 -0.63944 1.66654 0
M  V30 15887 C 1518.24 -1.12178 3.19796 0
M  V30 15888 C 1517.42 -0.486131 4.3469 0
M  V30 15889 C 1516.47 -1.43582 5.06232 0
M  V30 15890 O 1515.5 -0.942622 5.61341 0
M  V30 15891 N 1516.7 -2.76966 5.10167 0
M  V30 15892 H 1519.47 0.667565 2.92171 0
M  V30 15893 H 1517.03 0.501022 1.53953 0
M  V30 15894 H 1519.02 -1.75801 3.64522 0
M  V30 15895 H 1517.59 -1.76087 2.58287 0
M  V30 15896 H 1516.81 0.329281 3.92822 0
M  V30 15897 H 1518.1 -0.0425918 5.08782 0
M  V30 15898 H 1517.5 -3.19592 4.66774 0
M  V30 15899 H 1516.05 -3.3588 5.58595 0
M  V30 15900 N 1519.49 -1.52437 0.400108 0
M  V30 15901 C 1520.73 -2.01312 -0.178252 0
M  V30 15902 C 1521.06 -1.28797 -1.46411 0
M  V30 15903 O 1520.33 -0.411211 -1.91536 0
M  V30 15904 H 1518.91 -0.743819 -0.0688613 0
M  V30 15905 H 1521.57 -1.87434 0.53428 0
M  V30 15906 H 1520.66 -3.09768 -0.380793 0
M  V30 15907 N 1520.96 -0.130252 -1.57061 0
M  V30 15908 C 1522.21 0.525006 -1.95576 0
M  V30 15909 C 1522.54 1.65964 -1.0142 0
M  V30 15910 O 1521.79 1.95659 -0.0401898 0
M  V30 15911 C 1522.09 1.08776 -3.40445 0
M  V30 15912 C 1521.76 0.0733062 -4.5084 0
M  V30 15913 C 1520.42 -0.20561 -4.80761 0
M  V30 15914 C 1522.77 -0.617428 -5.1753 0
M  V30 15915 C 1520.1 -1.18135 -5.74683 0
M  V30 15916 C 1522.45 -1.58188 -6.12503 0
M  V30 15917 C 1521.12 -1.86866 -6.4081 0
M  V30 15918 H 1520.39 0.192113 -0.715663 0
M  V30 15919 H 1523.03 -0.21354 -1.90306 0
M  V30 15920 H 1521.34 1.9033 -3.42464 0
M  V30 15921 H 1523.04 1.60305 -3.67564 0
M  V30 15922 H 1519.63 0.30088 -4.27543 0
M  V30 15923 H 1523.81 -0.415124 -4.94561 0
M  V30 15924 H 1519.07 -1.41017 -5.94915 0
M  V30 15925 H 1523.24 -2.12271 -6.6326 0
M  V30 15926 H 1520.87 -2.62628 -7.13394 0
M  V30 15927 N 1522.44 1.56945 0.143535 0
M  V30 15928 C 1523.69 1.83538 0.855563 0
M  V30 15929 C 1524.02 0.711666 1.81013 0
M  V30 15930 O 1523.27 -0.299039 1.93402 0
M  V30 15931 C 1523.57 3.16482 1.66054 0
M  V30 15932 C 1523.24 4.42768 0.85246 0
M  V30 15933 C 1521.9 4.77064 0.629535 0
M  V30 15934 C 1524.25 5.20406 0.287567 0
M  V30 15935 C 1521.58 5.86457 -0.168934 0
M  V30 15936 C 1523.93 6.30637 -0.49796 0
M  V30 15937 C 1522.6 6.6348 -0.731429 0
M  V30 15938 H 1521.87 0.671615 0.313073 0
M  V30 15939 H 1524.51 1.9113 0.11904 0
M  V30 15940 H 1522.82 3.04357 2.46727 0
M  V30 15941 H 1524.52 3.34274 2.215 0
M  V30 15942 H 1521.11 4.15884 1.03628 0
M  V30 15943 H 1525.29 4.94282 0.447066 0
M  V30 15944 H 1520.55 6.10343 -0.359283 0
M  V30 15945 H 1524.72 6.89989 -0.942792 0
M  V30 15946 H 1522.35 7.48081 -1.35199 0
M  V30 15947 N 1523.92 -0.412991 1.52093 0
M  V30 15948 C 1525.16 -1.16951 1.67636 0
M  V30 15949 C 1525.53 -1.87875 0.39583 0
M  V30 15950 O 1526.73 -2.65382 0.42732 0
M  V30 15951 C 1525 -2.14052 2.8621 0
M  V30 15952 S 1526.56 -2.97863 3.22215 0
M  V30 15953 H 1523.37 -0.396249 0.590345 0
M  V30 15954 H 1525.98 -0.457386 1.90074 0
M  V30 15955 H 1524.68 -1.60628 3.7766 0
M  V30 15956 H 1524.21 -2.89809 2.66034 0
M  V30 15957 H 1526.23 -4.15961 2.70538 0
M  V30 15958 N 1525.4 -1.4265 -0.669982 0
M  V30 15959 C 1526.81 -1.38614 -1.25072 0
M  V30 15960 C 1527.16 -0.0818051 -1.96029 0
M  V30 15961 O 1526.29 0.81931 -2.0029 0
M  V30 15962 C 1526.88 -2.51085 -2.27469 0
M  V30 15963 C 1525.44 -2.50366 -2.81059 0
M  V30 15964 C 1524.59 -2.29632 -1.5545 0
M  V30 15965 H 1527.54 -1.51794 -0.463058 0
M  V30 15966 H 1527.56 -2.21612 -3.09303 0
M  V30 15967 H 1527.07 -3.46002 -1.75796 0
M  V30 15968 H 1525.17 -1.5928 -3.36839 0
M  V30 15969 H 1525.29 -3.47569 -3.29746 0
M  V30 15970 H 1523.65 -1.77982 -1.82193 0
M  V30 15971 H 1524.43 -3.26611 -1.05736 0
M  V30 15972 N 1526.88 0.906753 -1.28902 0
M  V30 15973 C 1528.15 1.63637 -1.07155 0
M  V30 15974 C 1528.53 2.07527 0.386727 0
M  V30 15975 O 1527.88 1.82562 1.37417 0
M  V30 15976 C 1528.09 2.82256 -2.05263 0
M  V30 15977 C 1529.44 3.53109 -2.35794 0
M  V30 15978 O 1530.46 2.92414 -2.03402 0
M  V30 15979 O 1529.32 4.62512 -2.91109 0
M  V30 15980 H 1526.42 0.718194 -0.410032 0
M  V30 15981 H 1528.96 0.955442 -1.40248 0
M  V30 15982 H 1527.74 2.46968 -3.03517 0
M  V30 15983 H 1527.36 3.58059 -1.72857 0
M  V30 15984 N 1528.36 1.11264 1.11616 0
M  V30 15985 C 1529.77 0.876713 1.64835 0
M  V30 15986 C 1530.12 -0.591384 1.87075 0
M  V30 15987 O 1529.24 -1.45304 1.60361 0
M  V30 15988 C 1529.84 1.58496 2.9944 0
M  V30 15989 C 1528.4 1.39551 3.49575 0
M  V30 15990 C 1527.54 1.62881 2.24422 0
M  V30 15991 H 1530.49 1.26915 0.952804 0
M  V30 15992 H 1530.52 1.02891 3.66325 0
M  V30 15993 H 1530.03 2.65344 2.83221 0
M  V30 15994 H 1528.13 0.349059 3.70961 0
M  V30 15995 H 1528.24 2.14334 4.28483 0
M  V30 15996 H 1526.61 1.05208 2.31955 0
M  V30 15997 H 1527.39 2.70999 2.10748 0
M  V30 15998 N 1529.83 -1.29188 0.902679 0
M  V30 15999 C 1530.8 -2.25901 0.387485 0
M  V30 16000 C 1531.8 -1.53469 -0.479993 0
M  V30 16001 O 1532.99 -1.71859 -0.284623 0
M  V30 16002 C 1530.12 -3.37974 -0.445723 0
M  V30 16003 H 1531.31 -2.72988 1.24167 0
M  V30 16004 H 1528.86 -1.4068 0.681083 0
M  V30 16005 H 1529.6 -2.9623 -1.31977 0
M  V30 16006 H 1529.38 -3.91705 0.175899 0
M  V30 16007 H 1530.87 -4.09917 -0.797384 0
M  V30 16008 N 1531.31 -0.665475 -1.42861 0
M  V30 16009 C 1532.72 -0.26225 -1.84849 0
M  V30 16010 C 1533.07 1.19372 -1.55707 0
M  V30 16011 O 1532.2 1.91269 -1.01218 0
M  V30 16012 C 1532.79 -0.469189 -3.35535 0
M  V30 16013 C 1531.35 -0.120172 -3.76208 0
M  V30 16014 C 1530.5 -0.766153 -2.66506 0
M  V30 16015 H 1533.45 -0.868296 -1.32839 0
M  V30 16016 H 1533.47 0.281571 -3.79457 0
M  V30 16017 H 1532.98 -1.52894 -3.56714 0
M  V30 16018 H 1531.08 0.936505 -3.60639 0
M  V30 16019 H 1531.2 -0.554188 -4.75884 0
M  V30 16020 H 1529.56 -0.198292 -2.53927 0
M  V30 16021 H 1530.34 -1.82918 -2.9051 0
M  V30 16022 N 1532.79 1.52222 -0.408187 0
M  V30 16023 C 1534.04 2.01404 0.167574 0
M  V30 16024 C 1534.36 1.29572 1.45726 0
M  V30 16025 O 1533.63 0.421363 1.91315 0
M  V30 16026 H 1532.21 0.744174 0.0649156 0
M  V30 16027 H 1534.87 1.87148 -0.544212 0
M  V30 16028 H 1533.97 3.09966 0.36436 0
M  V30 16029 N 1534.27 0.138579 1.5699 0
M  V30 16030 C 1535.23 -0.79013 2.1515 0
M  V30 16031 C 1536.23 -1.1811 1.09117 0
M  V30 16032 O 1537.42 -1.1034 1.34798 0
M  V30 16033 C 1534.55 -2.07109 2.70774 0
M  V30 16034 H 1535.75 -0.284343 2.98549 0
M  V30 16035 H 1533.3 -0.11081 1.55907 0
M  V30 16036 H 1534.03 -2.62074 1.91018 0
M  V30 16037 H 1533.82 -1.80004 3.4834 0
M  V30 16038 H 1535.31 -2.73456 3.15613 0
M  V30 16039 N 1535.75 -1.57019 -0.13521 0
M  V30 16040 C 1536.99 -1.83626 -0.844147 0
M  V30 16041 C 1537.31 -0.721298 -1.81169 0
M  V30 16042 O 1536.58 0.256095 -1.94219 0
M  V30 16043 H 1535.16 -0.677464 -0.314725 0
M  V30 16044 H 1537.83 -1.9449 -0.126399 0
M  V30 16045 H 1536.92 -2.78976 -1.39925 0
M  V30 16046 N 1537.22 0.404919 -1.52309 0
M  V30 16047 C 1538.47 1.14921 -1.66246 0
M  V30 16048 C 1538.79 1.90919 -0.396868 0
M  V30 16049 O 1538.06 1.86856 0.588361 0
M  V30 16050 H 1536.64 0.427223 -0.612772 0
M  V30 16051 H 1539.31 0.461091 -1.89367 0
M  V30 16052 H 1538.4 1.86095 -2.5055 0
M  V30 16053 N 1538.7 1.43003 0.662408 0
M  V30 16054 C 1539.64 1.4189 1.78725 0
M  V30 16055 C 1540.61 0.281515 1.60144 0
M  V30 16056 O 1541.8 0.473677 1.82452 0
M  V30 16057 C 1538.92 1.22166 3.159 0
M  V30 16058 C 1537.97 2.39061 3.53203 0
M  V30 16059 S 1538.8 4.01607 3.54221 0
M  V30 16060 C 1539.96 3.84249 4.94068 0
M  V30 16061 H 1540.19 2.37073 1.79398 0
M  V30 16062 H 1537.73 1.29924 0.834214 0
M  V30 16063 H 1539.68 1.11474 3.95074 0
M  V30 16064 H 1538.34 0.285468 3.128 0
M  V30 16065 H 1537.54 2.21041 4.52943 0
M  V30 16066 H 1537.14 2.46331 2.81419 0
M  V30 16067 H 1539.43 3.46006 5.82483 0
M  V30 16068 H 1540.37 4.83709 5.17138 0
M  V30 16069 H 1540.78 3.16879 4.6717 0
M  V30 16070 N 1540.18 -0.899904 1.29381 0
M  V30 16071 C 1541.43 -1.65282 1.17515 0
M  V30 16072 C 1541.76 -1.92275 -0.272788 0
M  V30 16073 O 1541.03 -1.53303 -1.19701 0
M  V30 16074 C 1541.32 -3.00207 1.98867 0
M  V30 16075 C 1541.17 -2.80281 3.51799 0
M  V30 16076 C 1542.49 -4.00936 1.81489 0
M  V30 16077 H 1539.61 -0.5998 0.428263 0
M  V30 16078 H 1542.25 -1.04241 1.58852 0
M  V30 16079 H 1540.4 -3.52308 1.63741 0
M  V30 16080 H 1542.07 -2.35082 3.96905 0
M  V30 16081 H 1540.32 -2.15068 3.76733 0
M  V30 16082 H 1540.99 -3.76155 4.03994 0
M  V30 16083 H 1543.46 -3.57944 2.12169 0
M  V30 16084 H 1542.34 -4.9328 2.4076 0
M  V30 16085 H 1542.6 -4.35342 0.770021 0
M  V30 16086 N 1541.66 -1.11854 -1.11024 0
M  V30 16087 C 1542.61 -0.749858 -2.15316 0
M  V30 16088 C 1543.59 0.248202 -1.58974 0
M  V30 16089 O 1544.78 0.054644 -1.76916 0
M  V30 16090 C 1541.91 -0.199423 -3.4272 0
M  V30 16091 C 1541 -1.22541 -4.06011 0
M  V30 16092 N 1541.39 -2.42104 -4.44094 0
M  V30 16093 C 1539.69 -1.06935 -4.32991 0
M  V30 16094 C 1540.39 -3.07572 -4.93735 0
M  V30 16095 N 1539.37 -2.35038 -4.90161 0
M  V30 16096 H 1543.17 -1.65978 -2.42546 0
M  V30 16097 H 1540.68 -0.998423 -1.28083 0
M  V30 16098 H 1542.68 0.0828628 -4.16818 0
M  V30 16099 H 1541.34 0.705033 -3.16953 0
M  V30 16100 H 1542.35 -2.79529 -4.35986 0
M  V30 16101 H 1539.03 -0.221683 -4.16911 0
M  V30 16102 H 1540.42 -4.0936 -5.32799 0
M  V30 16103 N 1543.14 1.28707 -0.909517 0
M  V30 16104 C 1544.09 2.25045 -0.365899 0
M  V30 16105 C 1545.07 1.5228 0.51959 0
M  V30 16106 O 1546.26 1.733 0.360004 0
M  V30 16107 C 1543.39 3.41 0.396725 0
M  V30 16108 C 1542.48 4.21092 -0.504243 0
M  V30 16109 N 1542.87 4.79293 -1.61592 0
M  V30 16110 C 1541.17 4.44964 -0.303843 0
M  V30 16111 C 1541.87 5.39516 -2.17481 0
M  V30 16112 N 1540.84 5.23442 -1.4666 0
M  V30 16113 H 1544.65 2.67611 -1.21497 0
M  V30 16114 H 1542.16 1.4343 -0.761686 0
M  V30 16115 H 1544.16 4.09094 0.80299 0
M  V30 16116 H 1542.82 2.99969 1.24294 0
M  V30 16117 H 1543.83 4.77785 -1.99856 0
M  V30 16118 H 1540.5 4.14456 0.503201 0
M  V30 16119 H 1541.89 5.95606 -3.10972 0
M  V30 16120 N 1544.61 0.673042 1.42506 0
M  V30 16121 C 1546.03 0.342429 1.55883 0
M  V30 16122 C 1546.23 -1.15229 1.65302 0
M  V30 16123 O 1545.29 -1.93767 1.61897 0
M  V30 16124 C 1546.6 1.0712 2.80973 0
M  V30 16125 C 1548.15 1.05336 2.94743 0
M  V30 16126 C 1548.62 1.76342 4.22691 0
M  V30 16127 N 1550.11 1.73201 4.29599 0
M  V30 16128 C 1550.85 2.25 5.27411 0
M  V30 16129 N 1550.34 2.85173 6.31386 0
M  V30 16130 N 1552.14 2.15385 5.19197 0
M  V30 16131 H 1544.29 1.64277 1.34636 0
M  V30 16132 H 1546.55 0.691984 0.647968 0
M  V30 16133 H 1546.26 2.1263 2.80145 0
M  V30 16134 H 1546.13 0.635313 3.71811 0
M  V30 16135 H 1548.52 0.00659669 2.95099 0
M  V30 16136 H 1548.6 1.52811 2.0514 0
M  V30 16137 H 1548.24 2.80985 4.23096 0
M  V30 16138 H 1548.17 1.26317 5.11225 0
M  V30 16139 H 1550.66 1.2931 3.55088 0
M  V30 16140 H 1550.98 3.22323 7.02373 0
M  V30 16141 H 1549.32 2.89242 6.31953 0
M  V30 16142 H 1552.51 1.68065 4.36889 0
M  V30 16143 H 1552.69 2.5606 5.95262 0
M  V30 16144 N 1546.09 -1.52004 0.416254 0
M  V30 16145 C 1547.04 -2.24037 -0.423226 0
M  V30 16146 C 1548.03 -1.25444 -1.0076 0
M  V30 16147 O 1549.22 -1.50646 -0.92924 0
M  V30 16148 C 1546.35 -3.07048 -1.53547 0
M  V30 16149 C 1545.43 -4.13056 -0.961518 0
M  V30 16150 N 1545.82 -5.0567 -0.114849 0
M  V30 16151 C 1544.12 -4.28667 -1.2313 0
M  V30 16152 C 1544.82 -5.81338 0.205249 0
M  V30 16153 N 1543.8 -5.42084 -0.405736 0
M  V30 16154 H 1547.6 -2.93 0.229864 0
M  V30 16155 H 1545.12 -1.60804 0.227087 0
M  V30 16156 H 1547.11 -3.57212 -2.14954 0
M  V30 16157 H 1545.77 -2.39626 -2.19111 0
M  V30 16158 H 1546.78 -5.17296 0.250006 0
M  V30 16159 H 1543.46 -3.72474 -1.88599 0
M  V30 16160 H 1544.85 -6.6594 0.892938 0
M  V30 16161 N 1547.57 -0.146903 -1.56914 0
M  V30 16162 C 1548.99 0.20951 -1.58219 0
M  V30 16163 C 1549.19 1.64679 -1.16116 0
M  V30 16164 O 1548.24 2.37352 -0.861414 0
M  V30 16165 C 1549.56 -0.0491564 -3.0066 0
M  V30 16166 C 1551.1 0.0145605 -3.12997 0
M  V30 16167 C 1551.58 -0.216773 -4.57487 0
M  V30 16168 N 1553.07 -0.163698 -4.62911 0
M  V30 16169 C 1553.8 -0.317204 -5.72522 0
M  V30 16170 N 1553.3 -0.528426 -6.90782 0
M  V30 16171 N 1555.09 -0.254814 -5.61522 0
M  V30 16172 H 1547.24 -1.08536 -1.82575 0
M  V30 16173 H 1549.51 -0.42963 -0.845057 0
M  V30 16174 H 1549.21 -1.04387 -3.35851 0
M  V30 16175 H 1549.09 0.670296 -3.71197 0
M  V30 16176 H 1551.47 0.999829 -2.77646 0
M  V30 16177 H 1551.56 -0.737219 -2.44946 0
M  V30 16178 H 1551.2 -1.19914 -4.93541 0
M  V30 16179 H 1551.13 0.555329 -5.23664 0
M  V30 16180 H 1553.62 -0.00509433 -3.779 0
M  V30 16181 H 1553.93 -0.635667 -7.70181 0
M  V30 16182 H 1552.28 -0.564746 -6.92702 0
M  V30 16183 H 1555.47 -0.0905626 -4.68012 0
M  V30 16184 H 1555.64 -0.377881 -6.46897 0
M  V30 16185 N 1549.05 1.57088 0.126881 0
M  V30 16186 C 1550.27 1.88984 0.854389 0
M  V30 16187 C 1550.7 0.738037 1.73016 0
M  V30 16188 O 1550.06 -0.311728 1.786 0
M  V30 16189 C 1550.1 3.19584 1.67028 0
M  V30 16190 O 1549.21 3.04935 2.77648 0
M  V30 16191 H 1548.55 0.620354 0.236763 0
M  V30 16192 H 1551.08 2.04295 0.111647 0
M  V30 16193 H 1551.09 3.52109 2.06115 0
M  V30 16194 H 1549.76 4.03012 1.02732 0
M  V30 16195 H 1548.34 2.83861 2.41821 0
M  V30 16196 N 1550.53 -0.396836 1.52522 0
M  V30 16197 C 1551.75 -1.16857 1.71345 0
M  V30 16198 C 1552.18 -1.83178 0.427465 0
M  V30 16199 O 1551.53 -1.7051 -0.616123 0
M  V30 16200 C 1551.58 -2.19817 2.85855 0
M  V30 16201 O 1550.69 -3.26233 2.52281 0
M  V30 16202 H 1550.03 -0.340554 0.570017 0
M  V30 16203 H 1552.56 -0.463532 1.9928 0
M  V30 16204 H 1552.57 -2.63944 3.11123 0
M  V30 16205 H 1551.24 -1.70931 3.79151 0
M  V30 16206 H 1549.82 -2.87299 2.37726 0
M  V30 16207 N 1552.01 -1.43353 -0.654814 0
M  V30 16208 C 1553.23 -1.48536 -1.44748 0
M  V30 16209 C 1553.66 -0.103991 -1.87812 0
M  V30 16210 O 1553.01 0.901924 -1.57274 0
M  V30 16211 C 1553.06 -2.43498 -2.65972 0
M  V30 16212 O 1552.17 -1.92014 -3.64972 0
M  V30 16213 H 1551.51 -0.502476 -0.434067 0
M  V30 16214 H 1554.04 -1.88251 -0.801427 0
M  V30 16215 H 1554.05 -2.60748 -3.13806 0
M  V30 16216 H 1552.72 -3.43847 -2.3397 0
M  V30 16217 H 1551.3 -1.84417 -3.24106 0
M  V30 16218 N 1553.48 0.89303 -1.29857 0
M  V30 16219 C 1554.71 1.67744 -1.21119 0
M  V30 16220 C 1555.13 1.87428 0.227198 0
M  V30 16221 O 1554.48 1.41605 1.15128 0
M  V30 16222 C 1554.53 3.05827 -1.92749 0
M  V30 16223 O 1554.26 2.87036 -3.30971 0
M  V30 16224 C 1555.76 4.00248 -1.9057 0
M  V30 16225 H 1552.98 0.523699 -0.4195 0
M  V30 16226 H 1555.52 1.1163 -1.71344 0
M  V30 16227 H 1553.68 3.58696 -1.46342 0
M  V30 16228 H 1554.09 3.74578 -3.6714 0
M  V30 16229 H 1555.56 4.9453 -2.45242 0
M  V30 16230 H 1556.04 4.30237 -0.882753 0
M  V30 16231 H 1556.65 3.53312 -2.36751 0
M  V30 16232 N 1554.96 1.12442 1.10429 0
M  V30 16233 C 1556.38 0.860481 1.34417 0
M  V30 16234 C 1556.58 -0.509394 1.94955 0
M  V30 16235 O 1555.63 -1.25807 2.18927 0
M  V30 16236 C 1556.95 1.97694 2.26578 0
M  V30 16237 C 1558.49 2.00783 2.40115 0
M  V30 16238 C 1558.97 3.11663 3.35604 0
M  V30 16239 N 1560.46 3.11106 3.43173 0
M  V30 16240 C 1561.2 3.9354 4.1703 0
M  V30 16241 N 1560.69 4.85963 4.93773 0
M  V30 16242 N 1562.48 3.81677 4.12649 0
M  V30 16243 H 1554.64 2.00706 0.695036 0
M  V30 16244 H 1556.9 0.873398 0.368619 0
M  V30 16245 H 1556.6 2.96405 1.89306 0
M  V30 16246 H 1556.48 1.88217 3.26886 0
M  V30 16247 H 1558.87 1.02692 2.76656 0
M  V30 16248 H 1558.95 2.14335 1.39621 0
M  V30 16249 H 1558.59 4.09987 2.99789 0
M  V30 16250 H 1558.52 2.9535 4.35977 0
M  V30 16251 H 1561.01 2.4415 2.88442 0
M  V30 16252 H 1561.32 5.45373 5.47529 0
M  V30 16253 H 1559.67 4.89976 4.92898 0
M  V30 16254 H 1562.86 3.08808 3.51789 0
M  V30 16255 H 1563.03 4.46151 4.6995 0
M  V30 16256 N 1556.44 -1.28223 0.91633 0
M  V30 16257 C 1557.66 -1.99523 0.566147 0
M  V30 16258 C 1558.09 -1.68 -0.846034 0
M  V30 16259 O 1557.45 -0.913838 -1.56584 0
M  V30 16260 C 1557.5 -3.51949 0.785114 0
M  V30 16261 O 1556.6 -4.1211 -0.154686 0
M  V30 16262 H 1555.94 -0.626764 0.219232 0
M  V30 16263 H 1558.47 -1.63313 1.23247 0
M  V30 16264 H 1558.48 -4.02016 0.696224 0
M  V30 16265 H 1557.16 -3.74227 1.81457 0
M  V30 16266 H 1555.73 -3.72896 -0.0168463 0
M  V30 16267 N 1557.92 -0.68059 -1.42147 0
M  V30 16268 C 1559.17 -0.204857 -2.01059 0
M  V30 16269 C 1559.49 1.19475 -1.54113 0
M  V30 16270 O 1558.76 1.80334 -0.765279 0
M  V30 16271 H 1557.34 -0.0727459 -0.743449 0
M  V30 16272 H 1560 -0.878396 -1.73983 0
M  V30 16273 H 1559.09 -0.210628 -3.11388 0
M  V30 16274 N 1559.4 1.51781 -0.424309 0
M  V30 16275 C 1560.64 2.0157 0.146203 0
M  V30 16276 C 1560.96 1.3111 1.44344 0
M  V30 16277 O 1560.23 0.441631 1.90857 0
M  V30 16278 H 1558.81 0.744821 0.057019 0
M  V30 16279 H 1561.48 1.8656 -0.564031 0
M  V30 16280 H 1560.57 3.10335 0.331464 0
M  V30 16281 N 1560.87 0.155222 1.56834 0
M  V30 16282 C 1562.12 -0.49285 1.95998 0
M  V30 16283 C 1562.44 -1.64857 1.0415 0
M  V30 16284 O 1561.71 -1.9562 0.104654 0
M  V30 16285 H 1560.29 -0.185063 0.723713 0
M  V30 16286 H 1562.95 0.232644 1.93507 0
M  V30 16287 H 1562.05 -0.863552 2.99915 0
M  V30 16288 N 1562.35 -1.57153 -0.118549 0
M  V30 16289 C 1563.63 -1.75846 -0.856587 0
M  V30 16290 C 1564.01 -0.730801 -1.98047 0
M  V30 16291 O 1563.36 0.245156 -2.27181 0
M  V30 16292 C 1563.57 -3.20864 -1.37286 0
M  V30 16293 C 1564.91 -3.83378 -1.82501 0
M  V30 16294 O 1565.94 -3.24469 -1.46964 0
M  V30 16295 O 1564.8 -4.86922 -2.48132 0
M  V30 16296 H 1561.89 -0.72002 -0.406817 0
M  V30 16297 H 1564.44 -1.69392 -0.102254 0
M  V30 16298 H 1563.21 -3.87177 -0.566531 0
M  V30 16299 H 1562.83 -3.31858 -2.18988 0
M  V30 16300 N 1563.83 0.388742 -1.5273 0
M  V30 16301 C 1564.76 1.48133 -1.80496 0
M  V30 16302 C 1565.74 1.56899 -0.657008 0
M  V30 16303 O 1566.93 1.71844 -0.904621 0
M  V30 16304 C 1564.06 2.85742 -1.97405 0
M  V30 16305 C 1563.01 2.91815 -3.13094 0
M  V30 16306 C 1562.34 4.31876 -3.15258 0
M  V30 16307 C 1563.64 2.61438 -4.52159 0
M  V30 16308 H 1565.33 1.25147 -2.7199 0
M  V30 16309 H 1562.88 0.600603 -1.30877 0
M  V30 16310 H 1564.83 3.62182 -2.15412 0
M  V30 16311 H 1563.55 3.10065 -1.02601 0
M  V30 16312 H 1562.21 2.17824 -2.9487 0
M  V30 16313 H 1561.86 4.53239 -2.18135 0
M  V30 16314 H 1561.56 4.3686 -3.92972 0
M  V30 16315 H 1563.08 5.10221 -3.3542 0
M  V30 16316 H 1564.5 3.27596 -4.70483 0
M  V30 16317 H 1562.89 2.77771 -5.31943 0
M  V30 16318 H 1563.96 1.56778 -4.58856 0
M  V30 16319 N 1565.31 1.43698 0.647203 0
M  V30 16320 C 1566.54 1.49085 1.43462 0
M  V30 16321 C 1566.95 0.110605 1.88476 0
M  V30 16322 O 1566.31 -0.880365 1.59862 0
M  V30 16323 C 1566.36 2.44186 2.66562 0
M  V30 16324 O 1566.08 3.76844 2.23429 0
M  V30 16325 C 1567.58 2.58876 3.59858 0
M  V30 16326 H 1564.8 0.506148 0.440517 0
M  V30 16327 H 1567.34 1.88502 0.792931 0
M  V30 16328 H 1565.5 2.07949 3.26858 0
M  V30 16329 H 1565.91 4.2804 3.0312 0
M  V30 16330 H 1567.39 3.29482 4.42883 0
M  V30 16331 H 1567.86 1.63567 4.07606 0
M  V30 16332 H 1568.47 2.95949 3.05441 0
M  V30 16333 N 1566.79 -0.886131 1.30328 0
M  V30 16334 C 1567.72 -2.00793 1.19183 0
M  V30 16335 C 1568.7 -1.69899 0.08276 0
M  V30 16336 O 1569.88 -1.92389 0.264593 0
M  V30 16337 C 1567.01 -3.35922 0.881669 0
M  V30 16338 C 1565.97 -3.81072 1.94855 0
M  V30 16339 C 1565.29 -5.1348 1.4914 0
M  V30 16340 C 1566.59 -3.99923 3.35944 0
M  V30 16341 H 1568.29 -2.10375 2.13032 0
M  V30 16342 H 1565.83 -1.0108 1.02561 0
M  V30 16343 H 1567.79 -4.13922 0.790359 0
M  V30 16344 H 1566.51 -3.26469 -0.0925037 0
M  V30 16345 H 1565.17 -3.053 2.02947 0
M  V30 16346 H 1564.82 -5.00453 0.50553 0
M  V30 16347 H 1564.52 -5.44659 2.205 0
M  V30 16348 H 1566.04 -5.94005 1.41386 0
M  V30 16349 H 1567.45 -4.68364 3.30617 0
M  V30 16350 H 1565.85 -4.42477 4.05381 0
M  V30 16351 H 1566.92 -3.03816 3.77921 0
M  V30 16352 N 1568.26 -1.13026 -1.09832 0
M  V30 16353 C 1569.51 -0.887662 -1.81563 0
M  V30 16354 C 1569.83 0.587935 -1.85926 0
M  V30 16355 O 1569.1 1.42732 -1.3418 0
M  V30 16356 H 1567.68 -0.32541 -0.672397 0
M  V30 16357 H 1570.35 -1.42597 -1.32861 0
M  V30 16358 H 1569.44 -1.2747 -2.84882 0
M  V30 16359 N 1569.74 1.27735 -0.923117 0
M  V30 16360 C 1570.67 2.29395 -0.435907 0
M  V30 16361 C 1571.65 1.62542 0.501403 0
M  V30 16362 O 1572.84 1.89884 0.407135 0
M  V30 16363 C 1569.97 3.45856 0.316348 0
M  V30 16364 C 1568.92 4.24672 -0.532697 0
M  V30 16365 C 1568.25 5.33563 0.348454 0
M  V30 16366 C 1569.55 4.90494 -1.79481 0
M  V30 16367 H 1571.24 2.70398 -1.28551 0
M  V30 16368 H 1568.79 1.29989 -0.619581 0
M  V30 16369 H 1570.74 4.1607 0.668098 0
M  V30 16370 H 1569.47 3.03758 1.19994 0
M  V30 16371 H 1568.12 3.56198 -0.867093 0
M  V30 16372 H 1567.77 4.87708 1.23086 0
M  V30 16373 H 1567.47 5.87202 -0.216104 0
M  V30 16374 H 1569 6.06622 0.695878 0
M  V30 16375 H 1570.41 5.53019 -1.5114 0
M  V30 16376 H 1568.81 5.5417 -2.30251 0
M  V30 16377 H 1569.88 4.14454 -2.51707 0
M  V30 16378 N 1571.22 0.688118 1.41784 0
M  V30 16379 C 1572.13 0.018397 2.34593 0
M  V30 16380 C 1573.15 -0.774275 1.55824 0
M  V30 16381 O 1574.32 -0.713546 1.88336 0
M  V30 16382 C 1571.39 -0.911914 3.34492 0
M  V30 16383 C 1570.45 -0.112284 4.29153 0
M  V30 16384 C 1569.68 -0.998285 5.2428 0
M  V30 16385 O 1569.9 -2.23782 5.24669 0
M  V30 16386 O 1568.84 -0.451951 6.00201 0
M  V30 16387 H 1572.66 0.783224 2.93427 0
M  V30 16388 H 1570.25 0.448413 1.42512 0
M  V30 16389 H 1572.13 -1.4456 3.95829 0
M  V30 16390 H 1570.81 -1.65636 2.78112 0
M  V30 16391 H 1569.71 0.465822 3.71189 0
M  V30 16392 H 1571.05 0.593338 4.88611 0
M  V30 16393 N 1572.7 -1.51554 0.432352 0
M  V30 16394 C 1574.11 -1.86673 -0.0319274 0
M  V30 16395 C 1574.46 -1.34981 -1.42389 0
M  V30 16396 O 1573.59 -0.698556 -2.04815 0
M  V30 16397 C 1574.18 -3.38738 -0.0647127 0
M  V30 16398 C 1572.74 -3.73411 -0.47339 0
M  V30 16399 C 1571.89 -2.75242 0.337187 0
M  V30 16400 H 1574.84 -1.44849 0.648417 0
M  V30 16401 H 1574.86 -3.70297 -0.875239 0
M  V30 16402 H 1574.37 -3.76331 0.948507 0
M  V30 16403 H 1572.47 -3.41406 -1.4924 0
M  V30 16404 H 1572.58 -4.78675 -0.20165 0
M  V30 16405 H 1570.95 -2.53883 -0.203801 0
M  V30 16406 H 1571.73 -3.15677 1.34919 0
M  V30 16407 N 1574.18 -0.163538 -1.56749 0
M  V30 16408 C 1575.4 0.493087 -2.01453 0
M  V30 16409 C 1575.83 1.56535 -1.043 0
M  V30 16410 O 1575.18 1.81287 -0.0213039 0
M  V30 16411 C 1575.23 1.05546 -3.44808 0
M  V30 16412 O 1574.34 2.16977 -3.50706 0
M  V30 16413 H 1573.68 0.118905 -0.653267 0
M  V30 16414 H 1576.21 -0.265139 -2.02875 0
M  V30 16415 H 1576.22 1.38002 -3.83953 0
M  V30 16416 H 1574.89 0.270333 -4.1502 0
M  V30 16417 H 1573.47 1.85625 -3.23416 0
M  V30 16418 N 1575.65 1.57214 0.110213 0
M  V30 16419 C 1576.56 2.04287 1.15342 0
M  V30 16420 C 1577.58 0.964895 1.44796 0
M  V30 16421 O 1578.76 1.27702 1.55737 0
M  V30 16422 C 1575.82 2.44518 2.45788 0
M  V30 16423 C 1574.88 3.66439 2.23653 0
M  V30 16424 C 1574.12 4.04742 3.47879 0
M  V30 16425 O 1574.34 3.43291 4.5553 0
M  V30 16426 O 1573.27 4.97791 3.38361 0
M  V30 16427 H 1577.1 2.93415 0.783656 0
M  V30 16428 H 1574.68 1.45897 0.321644 0
M  V30 16429 H 1576.57 2.71089 3.22628 0
M  V30 16430 H 1575.24 1.58533 2.82221 0
M  V30 16431 H 1574.15 3.45006 1.44643 0
M  V30 16432 H 1575.48 4.53156 1.9212 0
M  V30 16433 N 1577.13 -0.380637 1.52934 0
M  V30 16434 C 1578.04 -1.48957 1.81243 0
M  V30 16435 C 1579.06 -1.5931 0.69974 0
M  V30 16436 O 1580.23 -1.75488 0.988218 0
M  V30 16437 C 1577.3 -2.84397 1.9829 0
M  V30 16438 C 1576.36 -2.83697 3.22202 0
M  V30 16439 C 1575.59 -4.12677 3.38427 0
M  V30 16440 O 1575.82 -5.08068 2.59274 0
M  V30 16441 O 1574.75 -4.19407 4.31719 0
M  V30 16442 H 1578.58 -1.27964 2.75425 0
M  V30 16443 H 1576.16 -0.56929 1.38128 0
M  V30 16444 H 1578.04 -3.64676 2.11161 0
M  V30 16445 H 1576.72 -3.054 1.07298 0
M  V30 16446 H 1575.63 -2.0217 3.14767 0
M  V30 16447 H 1576.96 -2.67648 4.13068 0
M  V30 16448 N 1578.61 -1.44039 -0.639573 0
M  V30 16449 C 1579.52 -1.52728 -1.78077 0
M  V30 16450 C 1580.54 -0.413467 -1.69016 0
M  V30 16451 O 1581.71 -0.669592 -1.89943 0
M  V30 16452 C 1578.78 -1.46078 -3.14424 0
M  V30 16453 C 1577.84 -2.68242 -3.35179 0
M  V30 16454 C 1577.07 -2.61899 -4.65021 0
M  V30 16455 O 1577.29 -1.67431 -5.45273 0
M  V30 16456 O 1576.23 -3.52619 -4.87795 0
M  V30 16457 H 1580.05 -2.49122 -1.737 0
M  V30 16458 H 1577.64 -1.26191 -0.799755 0
M  V30 16459 H 1579.52 -1.44861 -3.95719 0
M  V30 16460 H 1578.2 -0.528236 -3.19361 0
M  V30 16461 H 1577.1 -2.75028 -2.53595 0
M  V30 16462 H 1578.44 -3.60514 -3.35098 0
M  V30 16463 N 1580.09 0.879207 -1.30796 0
M  V30 16464 C 1581.05 1.96707 -1.17639 0
M  V30 16465 C 1582.05 1.6045 -0.106013 0
M  V30 16466 O 1583.24 1.70553 -0.354573 0
M  V30 16467 C 1580.37 3.31292 -0.803625 0
M  V30 16468 H 1581.57 2.09806 -2.14293 0
M  V30 16469 H 1579.12 1.06634 -1.14276 0
M  V30 16470 H 1579.85 3.23894 0.162159 0
M  V30 16471 H 1579.64 3.58979 -1.57723 0
M  V30 16472 H 1581.13 4.11077 -0.735201 0
M  V30 16473 N 1581.57 1.13606 1.09231 0
M  V30 16474 C 1582.98 0.91148 1.62938 0
M  V30 16475 C 1583.33 -0.55157 1.88287 0
M  V30 16476 O 1582.45 -1.4187 1.63407 0
M  V30 16477 C 1583.05 1.64812 2.96011 0
M  V30 16478 C 1581.61 1.46935 3.46536 0
M  V30 16479 C 1580.76 1.67605 2.20916 0
M  V30 16480 H 1583.71 1.28907 0.925669 0
M  V30 16481 H 1583.73 1.10638 3.6406 0
M  V30 16482 H 1583.24 2.71291 2.77529 0
M  V30 16483 H 1581.34 0.427667 3.70138 0
M  V30 16484 H 1581.45 2.23374 4.2384 0
M  V30 16485 H 1579.82 1.10105 2.29672 0
M  V30 16486 H 1580.6 2.75408 2.04952 0
M  V30 16487 N 1583.05 -1.27244 0.929878 0
M  V30 16488 C 1584.46 -1.4662 0.630451 0
M  V30 16489 C 1584.66 -1.84077 -0.819633 0
M  V30 16490 O 1583.72 -1.95555 -1.59733 0
M  V30 16491 C 1585.03 -2.55709 1.58219 0
M  V30 16492 C 1586.58 -2.69569 1.59065 0
M  V30 16493 C 1587.05 -3.81818 2.52941 0
M  V30 16494 N 1588.54 -3.89195 2.51161 0
M  V30 16495 C 1589.28 -4.75474 3.20488 0
M  V30 16496 N 1588.78 -5.66225 3.99201 0
M  V30 16497 N 1590.57 -4.69222 3.09495 0
M  V30 16498 H 1582.72 -1.01216 1.86733 0
M  V30 16499 H 1584.98 -0.505737 0.801832 0
M  V30 16500 H 1584.69 -2.34985 2.61677 0
M  V30 16501 H 1584.56 -3.53141 1.32556 0
M  V30 16502 H 1586.95 -2.89672 0.563375 0
M  V30 16503 H 1587.03 -1.72616 1.88778 0
M  V30 16504 H 1586.67 -3.62467 3.55781 0
M  V30 16505 H 1586.6 -4.78202 2.20524 0
M  V30 16506 H 1589.1 -3.24305 1.93997 0
M  V30 16507 H 1589.41 -6.28925 4.4908 0
M  V30 16508 H 1587.75 -5.66013 4.03304 0
M  V30 16509 H 1590.94 -3.97322 2.47493 0
M  V30 16510 H 1591.12 -5.36244 3.63794 0
M  V30 16511 N 1584.52 -0.695628 -1.41417 0
M  V30 16512 C 1585.75 -0.234163 -2.06074 0
M  V30 16513 C 1586.17 1.10796 -1.52006 0
M  V30 16514 O 1585.53 1.6936 -0.64705 0
M  V30 16515 C 1585.58 -0.202353 -3.60032 0
M  V30 16516 O 1584.68 0.822767 -4.04109 0
M  V30 16517 H 1584.02 -0.114395 -0.654072 0
M  V30 16518 H 1586.55 -0.950503 -1.81181 0
M  V30 16519 H 1586.56 -0.0332321 -4.07986 0
M  V30 16520 H 1585.24 -1.18188 -3.98754 0
M  V30 16521 H 1583.82 0.622995 -3.67659 0
M  V30 16522 N 1586 1.51322 -0.440383 0
M  V30 16523 C 1587.41 1.86687 0.0220272 0
M  V30 16524 C 1587.76 1.35734 1.41671 0
M  V30 16525 O 1586.89 0.709408 2.04442 0
M  V30 16526 C 1587.48 3.38768 0.0467477 0
M  V30 16527 C 1586.04 3.73657 0.45358 0
M  V30 16528 C 1585.19 2.7506 -0.351779 0
M  V30 16529 H 1588.14 1.44503 -0.65609 0
M  V30 16530 H 1588.16 3.70756 0.855589 0
M  V30 16531 H 1587.67 3.75823 -0.968451 0
M  V30 16532 H 1585.77 3.42193 1.47427 0
M  V30 16533 H 1585.89 4.78776 0.176262 0
M  V30 16534 H 1584.25 2.53988 0.190334 0
M  V30 16535 H 1585.03 3.14957 -1.36591 0
M  V30 16536 N 1587.48 0.171848 1.5666 0
M  V30 16537 C 1588.41 -0.753861 2.20996 0
M  V30 16538 C 1589.39 -1.23873 1.16574 0
M  V30 16539 O 1590.58 -1.29179 1.45005 0
M  V30 16540 C 1587.71 -1.98314 2.85112 0
M  V30 16541 C 1586.66 -1.6341 3.95577 0
M  V30 16542 C 1585.99 -2.93807 4.46745 0
M  V30 16543 C 1587.29 -0.861713 5.15142 0
M  V30 16544 H 1588.98 -0.217598 2.98608 0
M  V30 16545 H 1586.53 -0.10322 1.4363 0
M  V30 16546 H 1588.48 -2.63576 3.28794 0
M  V30 16547 H 1587.2 -2.54354 2.04869 0
M  V30 16548 H 1585.86 -1.00516 3.52551 0
M  V30 16549 H 1585.51 -3.47889 3.63293 0
M  V30 16550 H 1585.21 -2.71207 5.21268 0
M  V30 16551 H 1586.73 -3.60098 4.93114 0
M  V30 16552 H 1588.15 -1.41693 5.55514 0
M  V30 16553 H 1586.54 -0.734727 5.95585 0
M  V30 16554 H 1587.61 0.141851 4.84692 0
M  V30 16555 N 1588.96 -1.5727 -0.101874 0
M  V30 16556 C 1589.92 -2.00625 -1.10826 0
M  V30 16557 C 1590.92 -0.89878 -1.33336 0
M  V30 16558 O 1592.11 -1.16442 -1.29564 0
M  V30 16559 C 1589.24 -2.36113 -2.45893 0
M  V30 16560 H 1590.44 -2.90748 -0.735238 0
M  V30 16561 H 1587.99 -1.52406 -0.346713 0
M  V30 16562 H 1588.72 -1.48923 -2.88084 0
M  V30 16563 H 1588.51 -3.169 -2.30904 0
M  V30 16564 H 1590 -2.70336 -3.1829 0
M  V30 16565 N 1590.44 0.372521 -1.53134 0
M  V30 16566 C 1591.85 0.949671 -1.60742 0
M  V30 16567 C 1592.2 1.90475 -0.470501 0
M  V30 16568 O 1591.32 2.12594 0.404085 0
M  V30 16569 C 1591.92 1.72918 -2.9135 0
M  V30 16570 C 1590.48 2.25577 -3.01317 0
M  V30 16571 C 1589.62 1.06612 -2.55986 0
M  V30 16572 H 1592.57 0.151533 -1.57975 0
M  V30 16573 H 1592.6 2.58982 -2.78763 0
M  V30 16574 H 1592.11 1.0338 -3.74078 0
M  V30 16575 H 1590.21 2.98378 -2.23162 0
M  V30 16576 H 1590.32 2.53935 -4.06268 0
M  V30 16577 H 1588.69 1.43105 -2.10697 0
M  V30 16578 H 1589.47 0.38584 -3.41125 0
M  V30 16579 N 1591.91 1.44376 0.631925 0
M  V30 16580 C 1593.14 1.5082 1.42366 0
M  V30 16581 C 1593.56 0.133858 1.87623 0
M  V30 16582 O 1592.92 -0.876789 1.58689 0
M  V30 16583 C 1592.97 2.47698 2.62065 0
M  V30 16584 O 1592.07 1.97796 3.61871 0
M  V30 16585 H 1591.41 0.509318 0.426018 0
M  V30 16586 H 1593.94 1.89502 0.771376 0
M  V30 16587 H 1593.95 2.65708 3.09618 0
M  V30 16588 H 1592.63 3.47526 2.2847 0
M  V30 16589 H 1591.21 1.89549 3.21131 0
M  V30 16590 N 1593.39 -0.872258 1.31261 0
M  V30 16591 C 1594.3 -2.01185 1.20673 0
M  V30 16592 C 1595.32 -1.73558 0.123921 0
M  V30 16593 O 1596.49 -1.98487 0.341288 0
M  V30 16594 C 1593.56 -3.34481 0.91232 0
M  V30 16595 C 1592.62 -3.75446 2.08179 0
M  V30 16596 C 1591.85 -5.02382 1.80134 0
M  V30 16597 O 1592.08 -5.6564 0.735358 0
M  V30 16598 O 1591.01 -5.40059 2.65744 0
M  V30 16599 H 1594.84 -2.13049 2.16434 0
M  V30 16600 H 1592.42 -1.00021 1.10978 0
M  V30 16601 H 1594.3 -4.14419 0.763879 0
M  V30 16602 H 1592.98 -3.23696 -0.0152802 0
M  V30 16603 H 1591.88 -2.96159 2.28562 0
M  V30 16604 H 1593.22 -3.90853 2.99156 0
M  V30 16605 N 1594.87 -1.14184 -1.08627 0
M  V30 16606 C 1596.12 -0.906869 -1.80611 0
M  V30 16607 C 1596.44 0.568182 -1.86539 0
M  V30 16608 O 1595.71 1.41301 -1.35687 0
M  V30 16609 H 1594.29 -0.332523 -0.668908 0
M  V30 16610 H 1596.95 -1.43998 -1.31341 0
M  V30 16611 H 1596.05 -1.30484 -2.83514 0
M  V30 16612 N 1596.35 1.26749 -0.936613 0
M  V30 16613 C 1597.31 2.24794 -0.447243 0
M  V30 16614 C 1598.31 1.54688 0.439135 0
M  V30 16615 O 1599.5 1.72553 0.238957 0
M  V30 16616 C 1596.63 3.39036 0.355958 0
M  V30 16617 H 1597.83 2.696 -1.31361 0
M  V30 16618 H 1595.38 1.38825 -0.718143 0
M  V30 16619 H 1596.11 2.99625 1.24077 0
M  V30 16620 H 1595.9 3.91101 -0.279691 0
M  V30 16621 H 1597.39 4.11887 0.688421 0
M  V30 16622 N 1597.83 0.703118 1.41046 0
M  V30 16623 C 1599.07 0.236818 2.00708 0
M  V30 16624 C 1599.4 -1.17008 1.55994 0
M  V30 16625 O 1598.67 -1.79094 0.793871 0
M  V30 16626 H 1597.25 0.0845643 0.742198 0
M  V30 16627 H 1599.91 0.905964 1.72564 0
M  V30 16628 H 1599 0.260141 3.11014 0
M  V30 16629 N 1599.3 -1.51086 0.448402 0
M  V30 16630 C 1600.53 -2.07081 -0.115038 0
M  V30 16631 C 1600.95 -1.31253 -1.34737 0
M  V30 16632 O 1600.31 -0.353613 -1.77818 0
M  V30 16633 C 1600.36 -3.58321 -0.404803 0
M  V30 16634 O 1599.46 -3.84567 -1.48936 0
M  V30 16635 H 1598.81 -0.663993 0.00299118 0
M  V30 16636 H 1601.34 -1.94564 0.632921 0
M  V30 16637 H 1601.35 -4.02756 -0.652013 0
M  V30 16638 H 1600.02 -4.12934 0.495838 0
M  V30 16639 H 1598.6 -3.51987 -1.23124 0
M  V30 16640 N 1600.78 -0.180154 -1.56567 0
M  V30 16641 C 1602.06 0.509347 -1.88852 0
M  V30 16642 C 1602.44 1.80697 -1.09141 0
M  V30 16643 O 1601.79 2.27726 -0.187974 0
M  V30 16644 C 1602 0.742669 -3.41006 0
M  V30 16645 C 1603.35 1.06873 -4.1093 0
M  V30 16646 O 1604.37 0.830907 -3.46373 0
M  V30 16647 O 1603.23 1.51784 -5.24999 0
M  V30 16648 H 1600.32 0.263629 -0.783855 0
M  V30 16649 H 1602.87 -0.219251 -1.68278 0
M  V30 16650 H 1601.64 -0.17431 -3.90912 0
M  V30 16651 H 1601.26 1.52427 -3.67222 0
M  V30 16652 N 1602.26 1.57322 0.0935319 0
M  V30 16653 C 1603.51 1.86443 0.797919 0
M  V30 16654 C 1603.84 0.769491 1.78304 0
M  V30 16655 O 1603.11 -0.222383 1.93225 0
M  V30 16656 C 1603.4 3.26201 1.52528 0
M  V30 16657 C 1603.25 4.46325 0.558031 0
M  V30 16658 C 1604.57 3.63879 2.47548 0
M  V30 16659 H 1601.69 0.678136 0.288618 0
M  V30 16660 H 1604.33 1.899 0.0615161 0
M  V30 16661 H 1602.48 3.23385 2.15301 0
M  V30 16662 H 1604.15 4.61257 -0.0628154 0
M  V30 16663 H 1602.4 4.3361 -0.128462 0
M  V30 16664 H 1603.07 5.40845 1.10413 0
M  V30 16665 H 1605.54 3.6765 1.94866 0
M  V30 16666 H 1604.42 4.62598 2.95456 0
M  V30 16667 H 1604.68 2.92647 3.31376 0
M  V30 16668 N 1603.74 -0.364395 1.53329 0
M  V30 16669 C 1604.99 -1.10691 1.69569 0
M  V30 16670 C 1605.31 -1.89268 0.448093 0
M  V30 16671 O 1604.57 -1.87216 -0.56997 0
M  V30 16672 C 1604.87 -2.09208 2.8977 0
M  V30 16673 C 1604.53 -1.47103 4.26229 0
M  V30 16674 C 1603.2 -1.29893 4.63337 0
M  V30 16675 C 1605.55 -1.0218 5.11086 0
M  V30 16676 C 1602.88 -0.663463 5.82937 0
M  V30 16677 C 1605.23 -0.400334 6.31332 0
M  V30 16678 C 1603.89 -0.21574 6.67151 0
M  V30 16679 H 1603.16 -0.405048 0.620498 0
M  V30 16680 H 1605.81 -0.388568 1.87516 0
M  V30 16681 H 1604.11 -2.8735 2.6634 0
M  V30 16682 H 1605.81 -2.66615 2.99529 0
M  V30 16683 H 1602.4 -1.61491 3.97012 0
M  V30 16684 H 1606.58 -1.14269 4.82966 0
M  V30 16685 H 1601.84 -0.508867 6.09279 0
M  V30 16686 H 1606.01 -0.0440554 6.96386 0
M  V30 16687 H 1603.64 0.278732 7.59689 0
M  V30 16688 N 1605.22 -1.44709 -0.62426 0
M  V30 16689 C 1606.49 -1.38328 -1.38292 0
M  V30 16690 C 1606.87 -0.0454388 -2.11051 0
M  V30 16691 O 1606.22 0.972183 -2.06787 0
M  V30 16692 C 1606.43 -2.58602 -2.34364 0
M  V30 16693 C 1607.78 -3.02966 -2.97484 0
M  V30 16694 O 1608.8 -2.58856 -2.44688 0
M  V30 16695 O 1607.66 -3.79466 -3.93278 0
M  V30 16696 H 1604.76 -0.54812 -0.619269 0
M  V30 16697 H 1607.3 -1.5681 -0.648741 0
M  V30 16698 H 1606.07 -3.47573 -1.79746 0
M  V30 16699 H 1605.7 -2.42368 -3.15188 0
M  V30 16700 N 1606.69 0.865285 -1.31722 0
M  V30 16701 C 1607.94 1.61549 -1.21435 0
M  V30 16702 C 1608.26 1.9368 0.226501 0
M  V30 16703 O 1607.53 1.58705 1.14846 0
M  V30 16704 H 1606.11 0.598905 -0.446454 0
M  V30 16705 H 1608.78 1.03563 -1.65108 0
M  V30 16706 H 1607.87 2.55708 -1.78941 0
M  V30 16707 N 1608.17 1.14759 1.0802 0
M  V30 16708 C 1609.45 0.828957 1.77166 0
M  V30 16709 C 1609.83 -0.676783 1.99957 0
M  V30 16710 O 1609.18 -1.61891 1.61256 0
M  V30 16711 C 1609.39 1.63213 3.08484 0
M  V30 16712 C 1610.74 1.834 3.82948 0
M  V30 16713 O 1611.76 1.59932 3.18277 0
M  V30 16714 O 1610.62 2.22661 4.99083 0
M  V30 16715 H 1607.71 0.304168 0.769032 0
M  V30 16716 H 1610.26 1.253 1.14446 0
M  V30 16717 H 1609.03 2.65474 2.8747 0
M  V30 16718 H 1608.65 1.20397 3.78933 0
M  V30 16719 N 1609.65 -1.26251 0.943322 0
M  V30 16720 C 1610.58 -2.28673 0.472347 0
M  V30 16721 C 1611.56 -1.63319 -0.475481 0
M  V30 16722 O 1612.75 -1.90508 -0.376875 0
M  V30 16723 C 1609.88 -3.46316 -0.261286 0
M  V30 16724 C 1608.83 -4.23771 0.600192 0
M  V30 16725 C 1608.16 -5.3405 -0.263525 0
M  V30 16726 C 1609.46 -4.87576 1.87262 0
M  V30 16727 H 1611.15 -2.68319 1.32836 0
M  V30 16728 H 1608.7 -1.28987 0.640182 0
M  V30 16729 H 1610.65 -4.1708 -0.601821 0
M  V30 16730 H 1609.37 -3.05629 -1.15146 0
M  V30 16731 H 1608.03 -3.54774 0.923651 0
M  V30 16732 H 1607.68 -4.89604 -1.15312 0
M  V30 16733 H 1607.38 -5.86784 0.309495 0
M  V30 16734 H 1608.9 -6.07652 -0.599281 0
M  V30 16735 H 1610.32 -5.50544 1.59919 0
M  V30 16736 H 1608.72 -5.50437 2.39038 0
M  V30 16737 H 1609.79 -4.10397 2.58268 0
M  V30 16738 N 1611.13 -0.710588 -1.40671 0
M  V30 16739 C 1612.38 -0.247459 -2.00579 0
M  V30 16740 C 1612.7 1.16179 -1.56612 0
M  V30 16741 O 1611.97 1.7867 -0.803358 0
M  V30 16742 H 1610.55 -0.0884992 -0.741739 0
M  V30 16743 H 1613.21 -0.915103 -1.72081 0
M  V30 16744 H 1612.31 -0.276631 -3.10872 0
M  V30 16745 N 1612.61 1.50847 -0.456408 0
M  V30 16746 C 1613.54 2.24825 0.391003 0
M  V30 16747 C 1614.52 1.27531 1.00869 0
M  V30 16748 O 1615.7 1.56717 1.04747 0
M  V30 16749 C 1612.83 3.01329 1.54657 0
M  V30 16750 C 1611.88 4.13431 1.0477 0
M  V30 16751 S 1612.71 5.35494 -0.0257471 0
M  V30 16752 C 1613.86 6.15541 1.13404 0
M  V30 16753 H 1614.1 2.96354 -0.237018 0
M  V30 16754 H 1611.63 1.52506 -0.241121 0
M  V30 16755 H 1613.59 3.46 2.20894 0
M  V30 16756 H 1612.25 2.29354 2.14606 0
M  V30 16757 H 1611.44 4.66309 1.91238 0
M  V30 16758 H 1611.04 3.71119 0.463285 0
M  V30 16759 H 1613.34 6.45784 2.04865 0
M  V30 16760 H 1614.28 7.05158 0.644835 0
M  V30 16761 H 1614.69 5.47341 1.38123 0
M  V30 16762 N 1614.09 0.188454 1.56469 0
M  V30 16763 C 1615.33 -0.451165 1.97 0
M  V30 16764 C 1615.65 -1.6261 1.07624 0
M  V30 16765 O 1614.92 -1.95354 0.146125 0
M  V30 16766 H 1613.5 -0.16967 0.727476 0
M  V30 16767 H 1616.17 0.273638 1.9297 0
M  V30 16768 H 1615.26 -0.799741 3.0168 0
M  V30 16769 N 1615.56 -1.5737 -0.0851874 0
M  V30 16770 C 1616.53 -2.01789 -1.08692 0
M  V30 16771 C 1617.53 -0.912872 -1.32376 0
M  V30 16772 O 1618.72 -1.1781 -1.28322 0
M  V30 16773 C 1615.85 -2.38708 -2.43375 0
M  V30 16774 H 1617.04 -2.91511 -0.704359 0
M  V30 16775 H 1614.59 -1.52765 -0.330528 0
M  V30 16776 H 1615.33 -1.5197 -2.86488 0
M  V30 16777 H 1615.11 -3.19331 -2.2753 0
M  V30 16778 H 1616.6 -2.73697 -3.15404 0
M  V30 16779 N 1617.04 0.356258 -1.53521 0
M  V30 16780 C 1618 1.41975 -1.79933 0
M  V30 16781 C 1619 1.46177 -0.669997 0
M  V30 16782 O 1620.19 1.46774 -0.938239 0
M  V30 16783 C 1617.33 2.81015 -1.92985 0
M  V30 16784 H 1618.52 1.19824 -2.74922 0
M  V30 16785 H 1616.07 0.589928 -1.4474 0
M  V30 16786 H 1616.81 3.08466 -1.00095 0
M  V30 16787 H 1616.59 2.79363 -2.75135 0
M  V30 16788 H 1618.08 3.58013 -2.1498 0
M  V30 16789 N 1618.52 1.45038 0.616577 0
M  V30 16790 C 1619.47 1.53022 1.7278 0
M  V30 16791 C 1620.44 0.376778 1.6177 0
M  V30 16792 O 1621.62 0.589006 1.81481 0
M  V30 16793 C 1618.76 1.49432 3.11069 0
M  V30 16794 C 1617.87 2.7526 3.3295 0
M  V30 16795 C 1617.01 2.63403 4.61294 0
M  V30 16796 C 1616.05 3.84327 4.76402 0
M  V30 16797 N 1615.19 3.71058 5.96037 0
M  V30 16798 H 1620.03 2.47957 1.65292 0
M  V30 16799 H 1617.56 1.23046 0.806102 0
M  V30 16800 H 1619.52 1.45339 3.91066 0
M  V30 16801 H 1618.15 0.580542 3.17537 0
M  V30 16802 H 1617.2 2.89479 2.46792 0
M  V30 16803 H 1618.51 3.64978 3.39989 0
M  V30 16804 H 1617.67 2.57226 5.49472 0
M  V30 16805 H 1616.41 1.7127 4.56638 0
M  V30 16806 H 1615.41 3.90873 3.8665 0
M  V30 16807 H 1616.64 4.77515 4.82863 0
M  V30 16808 H 1614.58 2.81687 5.92443 0
M  V30 16809 H 1614.5 4.54403 6.04197 0
M  V30 16810 H 1615.77 3.68798 6.86738 0
M  V30 16811 N 1620 -0.858287 1.32179 0
M  V30 16812 C 1621.25 -1.60902 1.2229 0
M  V30 16813 C 1621.57 -1.93797 -0.216227 0
M  V30 16814 O 1620.84 -1.59312 -1.14002 0
M  V30 16815 H 1619.42 -0.596529 0.449624 0
M  V30 16816 H 1622.08 -1.02686 1.65655 0
M  V30 16817 H 1621.17 -2.54755 1.80295 0
M  V30 16818 N 1621.48 -1.1533 -1.07409 0
M  V30 16819 C 1622.41 -0.872476 -2.16587 0
M  V30 16820 C 1623.39 0.176683 -1.6918 0
M  V30 16821 O 1624.57 0.0311826 -1.94175 0
M  V30 16822 C 1621.7 -0.360342 -3.45426 0
M  V30 16823 C 1620.66 -1.34611 -4.06281 0
M  V30 16824 C 1619.98 -0.692848 -5.30192 0
M  V30 16825 C 1621.28 -2.71191 -4.46378 0
M  V30 16826 H 1622.98 -1.78546 -2.40336 0
M  V30 16827 H 1620.52 -0.859895 -1.15507 0
M  V30 16828 H 1622.47 -0.151429 -4.21128 0
M  V30 16829 H 1621.2 0.588109 -3.21261 0
M  V30 16830 H 1619.86 -1.54137 -3.32622 0
M  V30 16831 H 1619.51 0.261732 -5.02319 0
M  V30 16832 H 1619.21 -1.35071 -5.71865 0
M  V30 16833 H 1620.73 -0.493695 -6.08601 0
M  V30 16834 H 1622.14 -2.55513 -5.13212 0
M  V30 16835 H 1620.54 -3.33345 -4.99 0
M  V30 16836 H 1621.61 -3.273 -3.57775 0
M  V30 16837 N 1622.95 1.25748 -0.950004 0
M  V30 16838 C 1623.89 2.25247 -0.423855 0
M  V30 16839 C 1624.9 1.56233 0.457726 0
M  V30 16840 O 1626.09 1.76496 0.266749 0
M  V30 16841 C 1623.19 3.36422 0.409074 0
M  V30 16842 C 1622.36 4.34991 -0.458421 0
M  V30 16843 C 1621.42 5.25253 0.315537 0
M  V30 16844 O 1620.45 5.68489 -0.284474 0
M  V30 16845 N 1621.65 5.57732 1.60983 0
M  V30 16846 H 1624.41 2.71026 -1.27925 0
M  V30 16847 H 1621.97 1.39607 -0.819853 0
M  V30 16848 H 1623.97 3.93764 0.934447 0
M  V30 16849 H 1622.54 2.90068 1.1653 0
M  V30 16850 H 1621.76 3.76594 -1.16494 0
M  V30 16851 H 1623.04 4.97833 -1.05068 0
M  V30 16852 H 1622.44 5.24502 2.1193 0
M  V30 16853 H 1621 6.17678 2.08126 0
M  V30 16854 N 1624.43 0.718038 1.40292 0
M  V30 16855 C 1625.66 0.266918 2.05675 0
M  V30 16856 C 1626.08 -1.08364 1.53749 0
M  V30 16857 O 1625.44 -1.6831 0.673912 0
M  V30 16858 C 1625.49 0.259606 3.59664 0
M  V30 16859 O 1624.59 -0.758372 4.05367 0
M  V30 16860 H 1623.93 0.124786 0.652169 0
M  V30 16861 H 1626.46 0.979207 1.79646 0
M  V30 16862 H 1626.47 0.098135 4.07882 0
M  V30 16863 H 1625.15 1.24517 3.96823 0
M  V30 16864 H 1623.72 -0.564425 3.68604 0
M  V30 16865 N 1625.91 -1.50602 0.464402 0
M  V30 16866 C 1626.84 -2.31252 -0.323263 0
M  V30 16867 C 1627.82 -1.37856 -0.996476 0
M  V30 16868 O 1629.01 -1.66777 -0.994933 0
M  V30 16869 C 1626.14 -3.17414 -1.40945 0
M  V30 16870 C 1625.09 -4.19307 -0.858226 0
M  V30 16871 C 1624.42 -4.94164 -2.0422 0
M  V30 16872 C 1625.72 -5.22148 0.125921 0
M  V30 16873 H 1627.41 -2.97349 0.34983 0
M  V30 16874 H 1624.96 -1.42997 0.169685 0
M  V30 16875 H 1626.91 -3.72627 -1.96791 0
M  V30 16876 H 1625.63 -2.49189 -2.11122 0
M  V30 16877 H 1624.29 -3.65185 -0.321785 0
M  V30 16878 H 1623.94 -4.22417 -2.7308 0
M  V30 16879 H 1623.64 -5.63083 -1.67963 0
M  V30 16880 H 1625.16 -5.5221 -2.60569 0
M  V30 16881 H 1626.58 -5.72272 -0.343136 0
M  V30 16882 H 1624.98 -5.98749 0.402433 0
M  V30 16883 H 1626.05 -4.73307 1.05399 0
M  V30 16884 N 1627.39 -0.19675 -1.56367 0
M  V30 16885 C 1628.8 0.315555 -1.84014 0
M  V30 16886 C 1629.15 1.61267 -1.11747 0
M  V30 16887 O 1628.28 2.13058 -0.378824 0
M  V30 16888 C 1628.87 0.579307 -3.33811 0
M  V30 16889 C 1627.43 1.03598 -3.61862 0
M  V30 16890 C 1626.58 0.0854845 -2.77168 0
M  V30 16891 H 1629.53 -0.4205 -1.53028 0
M  V30 16892 H 1629.55 1.42841 -3.52671 0
M  V30 16893 H 1629.06 -0.364925 -3.86381 0
M  V30 16894 H 1627.16 1.99443 -3.14727 0
M  V30 16895 H 1627.27 0.927547 -4.70035 0
M  V30 16896 H 1625.64 0.58768 -2.47827 0
M  V30 16897 H 1626.42 -0.853221 -3.32528 0
M  V30 16898 N 1628.87 1.57413 0.0768405 0
M  V30 16899 C 1630.09 1.91224 0.790007 0
M  V30 16900 C 1630.51 0.792232 1.71374 0
M  V30 16901 O 1629.87 -0.234736 1.80984 0
M  V30 16902 C 1629.92 3.24757 1.58793 0
M  V30 16903 O 1629.64 4.3245 0.701329 0
M  V30 16904 C 1631.14 3.72549 2.40254 0
M  V30 16905 H 1628.36 0.63219 0.224893 0
M  V30 16906 H 1630.9 2.04442 0.0486173 0
M  V30 16907 H 1629.06 3.13081 2.28165 0
M  V30 16908 H 1629.47 5.09245 1.2558 0
M  V30 16909 H 1630.95 4.68628 2.91705 0
M  V30 16910 H 1631.42 3.01305 3.1955 0
M  V30 16911 H 1632.03 3.87153 1.76048 0
M  V30 16912 N 1630.34 -0.348112 1.53707 0
M  V30 16913 C 1631.29 -1.42782 1.77756 0
M  V30 16914 C 1632.28 -1.47942 0.63261 0
M  V30 16915 O 1633.47 -1.52889 0.891855 0
M  V30 16916 C 1630.6 -2.79986 1.98652 0
M  V30 16917 C 1629.69 -2.79237 3.19199 0
M  V30 16918 N 1630.08 -2.4812 4.40761 0
M  V30 16919 C 1628.37 -3.10387 3.20275 0
M  V30 16920 C 1629.08 -2.55489 5.2259 0
M  V30 16921 N 1628.05 -2.90923 4.592 0
M  V30 16922 H 1631.85 -1.17615 2.6934 0
M  V30 16923 H 1629.37 -0.556438 1.5257 0
M  V30 16924 H 1631.36 -3.57777 2.14013 0
M  V30 16925 H 1630.02 -3.06104 1.08307 0
M  V30 16926 H 1631.04 -2.214 4.68191 0
M  V30 16927 H 1627.71 -3.41706 2.39882 0
M  V30 16928 H 1629.1 -2.34629 6.29602 0
M  V30 16929 N 1631.82 -1.45363 -0.608876 0
M  V30 16930 C 1633.1 -1.39787 -1.36817 0
M  V30 16931 C 1633.48 -0.067821 -2.10991 0
M  V30 16932 O 1632.83 0.950196 -2.07806 0
M  V30 16933 C 1633.04 -2.61073 -2.31608 0
M  V30 16934 C 1634.39 -3.06104 -2.94254 0
M  V30 16935 O 1635.41 -2.61436 -2.41929 0
M  V30 16936 O 1634.27 -3.83616 -3.89231 0
M  V30 16937 H 1631.36 -0.554657 -0.61342 0
M  V30 16938 H 1633.91 -1.57489 -0.632073 0
M  V30 16939 H 1632.68 -3.4946 -1.76049 0
M  V30 16940 H 1632.3 -2.45697 -3.126 0
M  V30 16941 N 1633.3 0.851265 -1.32632 0
M  V30 16942 C 1634.71 1.4217 -1.21015 0
M  V30 16943 C 1635.06 1.95409 0.175972 0
M  V30 16944 O 1634.19 1.87816 1.07489 0
M  V30 16945 C 1634.78 2.58431 -2.19086 0
M  V30 16946 C 1633.34 3.11464 -2.11346 0
M  V30 16947 C 1632.49 1.84221 -2.07263 0
M  V30 16948 H 1635.44 0.65812 -1.44411 0
M  V30 16949 H 1635.46 3.35694 -1.79137 0
M  V30 16950 H 1634.97 2.19652 -3.1996 0
M  V30 16951 H 1633.07 3.54818 -1.13732 0
M  V30 16952 H 1633.19 3.72478 -3.01325 0
M  V30 16953 H 1631.55 2.0396 -1.52553 0
M  V30 16954 H 1632.33 1.47654 -3.09924 0
M  V30 16955 N 1634.78 1.15898 1.06796 0
M  V30 16956 C 1636 0.961859 1.83747 0
M  V30 16957 C 1636.43 -0.48494 1.81741 0
M  V30 16958 O 1635.79 -1.3461 1.21449 0
M  V30 16959 C 1635.83 1.48764 3.28484 0
M  V30 16960 O 1634.94 0.690576 4.06577 0
M  V30 16961 H 1634.28 0.342664 0.568751 0
M  V30 16962 H 1636.81 1.54015 1.34687 0
M  V30 16963 H 1636.82 1.50291 3.79311 0
M  V30 16964 H 1635.49 2.54089 3.29259 0
M  V30 16965 H 1634.07 0.74539 3.65374 0
M  V30 16966 N 1636.26 -1.25243 0.956659 0
M  V30 16967 C 1637.67 -1.74909 0.652979 0
M  V30 16968 C 1638.02 -1.77704 -0.831605 0
M  V30 16969 O 1637.14 -1.39921 -1.65079 0
M  V30 16970 C 1637.74 -3.17639 1.1786 0
M  V30 16971 C 1636.3 -3.64856 0.925034 0
M  V30 16972 C 1635.44 -2.43844 1.32044 0
M  V30 16973 H 1638.4 -1.11101 1.13324 0
M  V30 16974 H 1638.42 -3.76654 0.539633 0
M  V30 16975 H 1637.93 -3.15572 2.25911 0
M  V30 16976 H 1636.03 -3.72335 -0.14043 0
M  V30 16977 H 1636.14 -4.5289 1.56292 0
M  V30 16978 H 1634.51 -2.43749 0.738813 0
M  V30 16979 H 1635.29 -2.44466 2.41021 0
M  V30 16980 N 1637.73 -0.725468 -1.3991 0
M  V30 16981 C 1638.66 -0.094211 -2.3331 0
M  V30 16982 C 1639.65 0.734728 -1.53414 0
M  V30 16983 O 1640.83 0.681647 -1.81844 0
M  V30 16984 C 1637.96 0.820958 -3.37457 0
M  V30 16985 C 1636.91 0.0968983 -4.2789 0
M  V30 16986 C 1636.24 1.12845 -5.22657 0
M  V30 16987 C 1637.54 -1.05483 -5.11537 0
M  V30 16988 H 1639.23 -0.874365 -2.86348 0
M  V30 16989 H 1636.78 -0.421913 -1.3768 0
M  V30 16990 H 1638.73 1.27203 -4.01743 0
M  V30 16991 H 1637.46 1.63312 -2.82837 0
M  V30 16992 H 1636.12 -0.334454 -3.65071 0
M  V30 16993 H 1635.76 1.93392 -4.64337 0
M  V30 16994 H 1635.46 0.648805 -5.84007 0
M  V30 16995 H 1636.99 1.57942 -5.89819 0
M  V30 16996 H 1638.4 -0.682657 -5.69221 0
M  V30 16997 H 1636.8 -1.46349 -5.81981 0
M  V30 16998 H 1637.87 -1.88095 -4.46932 0
M  V30 16999 N 1639.21 1.50354 -0.472382 0
M  V30 17000 C 1640.14 2.26396 0.357429 0
M  V30 17001 C 1641.16 1.31778 0.955949 0
M  V30 17002 O 1642.35 1.57279 0.844136 0
M  V30 17003 C 1639.45 3.03131 1.51542 0
M  V30 17004 C 1638.62 4.25113 1.02945 0
M  V30 17005 C 1637.68 4.84131 2.06164 0
M  V30 17006 O 1636.7 5.4501 1.64174 0
M  V30 17007 N 1637.91 4.71244 3.38983 0
M  V30 17008 H 1640.67 2.9825 -0.294473 0
M  V30 17009 H 1638.23 1.59035 -0.303242 0
M  V30 17010 H 1640.22 3.39492 2.20289 0
M  V30 17011 H 1638.79 2.34067 2.07199 0
M  V30 17012 H 1638.01 3.93843 0.167821 0
M  V30 17013 H 1639.3 5.04199 0.682705 0
M  V30 17014 H 1638.7 4.22831 3.75807 0
M  V30 17015 H 1637.26 5.11871 4.03524 0
M  V30 17016 N 1640.69 0.205039 1.56261 0
M  V30 17017 C 1642.11 -0.150644 1.58887 0
M  V30 17018 C 1642.31 -1.60256 1.22148 0
M  V30 17019 O 1641.36 -2.33991 0.948912 0
M  V30 17020 C 1642.68 0.160711 3.0027 0
M  V30 17021 C 1644.22 0.101616 3.12835 0
M  V30 17022 C 1644.7 0.386417 4.56367 0
M  V30 17023 N 1646.19 0.335392 4.61984 0
M  V30 17024 C 1646.93 0.529473 5.7095 0
M  V30 17025 N 1646.42 0.784441 6.88345 0
M  V30 17026 N 1648.21 0.463044 5.6019 0
M  V30 17027 H 1640.37 1.15238 1.78421 0
M  V30 17028 H 1642.63 0.460698 0.82853 0
M  V30 17029 H 1642.33 1.1678 3.31746 0
M  V30 17030 H 1642.21 -0.532067 3.73429 0
M  V30 17031 H 1644.6 -0.896093 2.81166 0
M  V30 17032 H 1644.68 0.827622 2.42041 0
M  V30 17033 H 1644.32 1.38149 4.88751 0
M  V30 17034 H 1644.25 -0.360592 5.25364 0
M  V30 17035 H 1646.74 0.145346 3.7762 0
M  V30 17036 H 1647.05 0.921077 7.67291 0
M  V30 17037 H 1645.4 0.821448 6.90128 0
M  V30 17038 H 1648.59 0.2642 4.67354 0
M  V30 17039 H 1648.76 0.617712 6.45049 0
M  V30 17040 N 1642.17 -1.57451 -0.0684915 0
M  V30 17041 C 1643.4 -1.91362 -0.778724 0
M  V30 17042 C 1643.81 -0.799579 -1.71474 0
M  V30 17043 O 1643.15 0.235727 -1.82181 0
M  V30 17044 C 1643.21 -3.20767 -1.62323 0
M  V30 17045 C 1642.88 -4.48907 -0.85623 0
M  V30 17046 C 1643.87 -5.19609 -0.173992 0
M  V30 17047 C 1641.56 -4.95521 -0.822427 0
M  V30 17048 C 1643.55 -6.35178 0.531784 0
M  V30 17049 C 1641.24 -6.10996 -0.11288 0
M  V30 17050 C 1642.24 -6.80675 0.563022 0
M  V30 17051 O 1641.93 -7.93946 1.26113 0
M  V30 17052 H 1641.66 -0.636969 -0.226376 0
M  V30 17053 H 1644.21 -2.05357 -0.0420481 0
M  V30 17054 H 1642.44 -3.0299 -2.40279 0
M  V30 17055 H 1644.13 -3.40303 -2.21244 0
M  V30 17056 H 1644.9 -4.84622 -0.191393 0
M  V30 17057 H 1640.78 -4.41156 -1.33798 0
M  V30 17058 H 1644.32 -6.89501 1.05991 0
M  V30 17059 H 1640.22 -6.45432 -0.0934182 0
M  V30 17060 H 1640.98 -8.10084 1.17074 0
M  V30 17061 N 1643.65 0.339955 -1.5389 0
M  V30 17062 C 1644.87 1.10417 -1.75564 0
M  V30 17063 C 1645.3 1.81466 -0.495156 0
M  V30 17064 O 1644.66 1.72679 0.552415 0
M  V30 17065 C 1644.7 2.09056 -2.93816 0
M  V30 17066 O 1643.81 3.16645 -2.64215 0
M  V30 17067 H 1643.15 0.319164 -0.582263 0
M  V30 17068 H 1645.68 0.389251 -2.00863 0
M  V30 17069 H 1645.69 2.52215 -3.20705 0
M  V30 17070 H 1644.36 1.56741 -3.85234 0
M  V30 17071 H 1642.94 2.78278 -2.48225 0
M  V30 17072 N 1645.13 1.45684 0.601159 0
M  V30 17073 C 1646.04 1.57396 1.73965 0
M  V30 17074 C 1647.05 0.458133 1.6786 0
M  V30 17075 O 1648.23 0.719717 1.88101 0
M  V30 17076 C 1645.29 1.54363 3.1044 0
M  V30 17077 C 1644.35 2.77034 3.27949 0
M  V30 17078 C 1643.59 2.74136 4.57914 0
M  V30 17079 O 1643.81 1.81829 5.40643 0
M  V30 17080 O 1642.74 3.65428 4.78274 0
M  V30 17081 H 1646.57 2.5364 1.67034 0
M  V30 17082 H 1644.15 1.28267 0.766017 0
M  V30 17083 H 1646.04 1.55302 3.91739 0
M  V30 17084 H 1644.71 0.612723 3.17848 0
M  V30 17085 H 1643.62 2.81655 2.46214 0
M  V30 17086 H 1644.95 3.69272 3.25422 0
M  V30 17087 N 1646.6 -0.84422 1.33082 0
M  V30 17088 C 1647.88 -1.58339 1.1484 0
M  V30 17089 C 1648.26 -2.09136 -0.287273 0
M  V30 17090 O 1647.61 -1.8891 -1.2855 0
M  V30 17091 C 1647.82 -2.72141 2.18496 0
M  V30 17092 C 1649.17 -3.41457 2.52373 0
M  V30 17093 O 1650.19 -2.82377 2.17122 0
M  V30 17094 O 1649.05 -4.48096 3.12845 0
M  V30 17095 H 1646.14 -0.697813 0.443831 0
M  V30 17096 H 1648.69 -0.88744 1.44646 0
M  V30 17097 H 1647.46 -2.32206 3.14954 0
M  V30 17098 H 1647.08 -3.49404 1.89744 0
M  V30 17099 N 1648.08 -1.16463 -1.0618 0
M  V30 17100 C 1649.49 -0.95436 -1.60465 0
M  V30 17101 C 1649.84 0.501455 -1.89684 0
M  V30 17102 O 1648.97 1.37488 -1.67111 0
M  V30 17103 C 1649.56 -1.72603 -2.91537 0
M  V30 17104 C 1648.12 -1.56071 -3.42518 0
M  V30 17105 C 1647.27 -1.73403 -2.16395 0
M  V30 17106 H 1650.22 -1.31316 -0.891166 0
M  V30 17107 H 1650.24 -1.20252 -3.60998 0
M  V30 17108 H 1649.75 -2.78554 -2.70239 0
M  V30 17109 H 1647.85 -0.525652 -3.68874 0
M  V30 17110 H 1647.97 -2.34533 -4.17769 0
M  V30 17111 H 1646.33 -1.16155 -2.26672 0
M  V30 17112 H 1647.11 -2.80745 -1.97578 0
M  V30 17113 N 1649.56 1.24734 -0.963288 0
M  V30 17114 C 1650.79 1.96745 -0.640234 0
M  V30 17115 C 1651.2 1.71503 0.789445 0
M  V30 17116 O 1650.56 0.996174 1.52914 0
M  V30 17117 C 1650.61 3.50118 -0.899987 0
M  V30 17118 O 1650.33 3.74494 -2.27346 0
M  V30 17119 C 1651.83 4.39349 -0.590511 0
M  V30 17120 H 1649.05 0.626892 -0.239266 0
M  V30 17121 H 1651.6 1.58678 -1.29002 0
M  V30 17122 H 1649.75 3.86264 -0.296478 0
M  V30 17123 H 1650.17 4.68902 -2.35013 0
M  V30 17124 H 1651.64 5.45834 -0.822744 0
M  V30 17125 H 1652.12 4.36622 0.475138 0
M  V30 17126 H 1652.72 4.08783 -1.17373 0
M  V30 17127 N 1651.04 0.732878 1.39523 0
M  V30 17128 C 1652.28 0.280305 2.00854 0
M  V30 17129 C 1652.62 -1.12891 1.58017 0
M  V30 17130 O 1651.89 -1.76919 0.808086 0
M  V30 17131 C 1652.17 0.37978 3.58092 0
M  V30 17132 C 1652.03 1.82861 4.10953 0
M  V30 17133 C 1653.35 -0.239026 4.3945 0
M  V30 17134 H 1650.47 0.103326 0.729721 0
M  V30 17135 H 1653.11 0.928634 1.6576 0
M  V30 17136 H 1651.26 -0.172198 3.88118 0
M  V30 17137 H 1652.93 2.4373 3.91655 0
M  V30 17138 H 1651.17 2.35064 3.64592 0
M  V30 17139 H 1651.84 1.84949 5.20094 0
M  V30 17140 H 1654.32 0.231488 4.15456 0
M  V30 17141 H 1653.2 -0.139068 5.48724 0
M  V30 17142 H 1653.46 -1.32481 4.21783 0
M  V30 17143 N 1652.52 -1.50101 0.480349 0
M  V30 17144 C 1653.93 -1.8668 0.0274773 0
M  V30 17145 C 1654.28 -1.39442 -1.38023 0
M  V30 17146 O 1653.4 -0.763363 -2.02489 0
M  V30 17147 C 1654 -3.38773 0.043087 0
M  V30 17148 C 1652.56 -3.74728 -0.354352 0
M  V30 17149 C 1651.7 -2.7403 0.424583 0
M  V30 17150 H 1654.65 -1.42713 0.694172 0
M  V30 17151 H 1654.68 -3.72894 -0.756989 0
M  V30 17152 H 1654.19 -3.73123 1.06775 0
M  V30 17153 H 1652.29 -3.45981 -1.38303 0
M  V30 17154 H 1652.4 -4.79075 -0.0492608 0
M  V30 17155 H 1650.77 -2.54403 -0.122927 0
M  V30 17156 H 1651.55 -3.11225 1.44894 0
M  V30 17157 N 1653.99 -0.213323 -1.5615 0
M  V30 17158 C 1654.92 0.695003 -2.22917 0
M  V30 17159 C 1655.9 1.20738 -1.19818 0
M  V30 17160 O 1657.09 1.25289 -1.48379 0
M  V30 17161 C 1654.22 1.90685 -2.9027 0
M  V30 17162 C 1653.17 1.52865 -3.9977 0
M  V30 17163 C 1652.5 2.81859 -4.54378 0
M  V30 17164 C 1653.8 0.724829 -5.17246 0
M  V30 17165 H 1655.49 0.138351 -2.9908 0
M  V30 17166 H 1653.04 0.0651029 -1.43853 0
M  V30 17167 H 1654.99 2.54766 -3.35667 0
M  V30 17168 H 1653.72 2.48833 -2.11541 0
M  V30 17169 H 1652.38 0.911336 -3.55092 0
M  V30 17170 H 1652.02 3.38135 -3.72389 0
M  V30 17171 H 1651.72 2.57291 -5.28275 0
M  V30 17172 H 1653.25 3.46897 -5.02489 0
M  V30 17173 H 1654.66 1.26915 -5.59076 0
M  V30 17174 H 1653.06 0.57656 -5.97324 0
M  V30 17175 H 1654.13 -0.270309 -4.84146 0
M  V30 17176 N 1655.47 1.57485 0.0601405 0
M  V30 17177 C 1656.88 1.76433 0.610583 0
M  V30 17178 C 1657.23 0.840353 1.77292 0
M  V30 17179 O 1656.36 0.0273238 2.16383 0
M  V30 17180 C 1656.95 3.19947 1.11441 0
M  V30 17181 C 1655.51 3.402 1.61062 0
M  V30 17182 C 1654.66 2.72089 0.535055 0
M  V30 17183 H 1657.61 1.57829 -0.166062 0
M  V30 17184 H 1657.63 3.24749 1.98288 0
M  V30 17185 H 1657.14 3.87172 0.268233 0
M  V30 17186 H 1655.25 2.78106 2.47967 0
M  V30 17187 H 1655.36 4.48696 1.67954 0
M  V30 17188 H 1653.72 2.34972 0.982855 0
M  V30 17189 H 1654.51 3.41977 -0.301135 0
M  V30 17190 N 1656.95 -0.331789 1.54068 0
M  V30 17191 C 1658.18 -1.09484 1.76148 0
M  V30 17192 C 1658.6 -1.81201 0.504772 0
M  V30 17193 O 1657.96 -1.7297 -0.54325 0
M  V30 17194 C 1658.01 -2.07495 2.94921 0
M  V30 17195 O 1657.11 -3.15239 2.65891 0
M  V30 17196 H 1656.45 -0.316071 0.583948 0
M  V30 17197 H 1658.98 -0.378593 2.01067 0
M  V30 17198 H 1658.99 -2.5051 3.22038 0
M  V30 17199 H 1657.67 -1.54696 3.8606 0
M  V30 17200 H 1656.24 -2.76958 2.49697 0
M  V30 17201 N 1658.43 -1.46001 -0.593424 0
M  V30 17202 C 1659.34 -1.58316 -1.73128 0
M  V30 17203 C 1660.35 -0.467029 -1.67615 0
M  V30 17204 O 1661.53 -0.729682 -1.87717 0
M  V30 17205 C 1658.6 -1.56007 -3.09617 0
M  V30 17206 C 1657.66 -2.78769 -3.26475 0
M  V30 17207 C 1656.89 -2.76561 -4.56453 0
M  V30 17208 O 1657.11 -1.84694 -5.39671 0
M  V30 17209 O 1656.05 -3.67959 -4.76329 0
M  V30 17210 H 1659.87 -2.54522 -1.65686 0
M  V30 17211 H 1657.46 -1.28672 -0.759204 0
M  V30 17212 H 1659.34 -1.57377 -3.9091 0
M  V30 17213 H 1658.01 -0.629571 -3.17519 0
M  V30 17214 H 1656.92 -2.82956 -2.44717 0
M  V30 17215 H 1658.25 -3.70992 -3.23459 0
M  V30 17216 N 1659.91 0.83715 -1.33527 0
M  V30 17217 C 1661.13 1.62456 -1.28124 0
M  V30 17218 C 1661.55 1.88223 0.147499 0
M  V30 17219 O 1660.91 1.4636 1.09018 0
M  V30 17220 C 1660.96 2.97376 -2.05547 0
M  V30 17221 O 1660.68 2.7274 -3.42847 0
M  V30 17222 C 1662.18 3.91805 -2.07374 0
M  V30 17223 H 1659.4 0.505436 -0.441334 0
M  V30 17224 H 1661.94 1.04263 -1.75925 0
M  V30 17225 H 1660.1 3.52166 -1.61424 0
M  V30 17226 H 1660.51 3.58669 -3.82696 0
M  V30 17227 H 1661.99 4.83684 -2.65996 0
M  V30 17228 H 1662.46 4.26106 -1.06444 0
M  V30 17229 H 1663.07 3.42952 -2.51523 0
M  V30 17230 N 1661.38 1.17024 1.05561 0
M  V30 17231 C 1662.66 0.86635 1.75367 0
M  V30 17232 C 1663.04 -0.634217 2.01348 0
M  V30 17233 O 1662.39 -1.58434 1.64654 0
M  V30 17234 C 1662.6 1.69719 3.04953 0
M  V30 17235 C 1663.95 1.91482 3.78972 0
M  V30 17236 O 1664.97 1.66647 3.14813 0
M  V30 17237 O 1663.83 2.33197 4.94248 0
M  V30 17238 H 1660.92 0.320412 0.762407 0
M  V30 17239 H 1663.47 1.277 1.11763 0
M  V30 17240 H 1662.24 2.71512 2.81775 0
M  V30 17241 H 1661.87 1.28408 3.76294 0
M  V30 17242 N 1662.86 -1.24221 0.969889 0
M  V30 17243 C 1664.11 -1.91973 0.631725 0
M  V30 17244 C 1664.43 -1.76169 -0.836032 0
M  V30 17245 O 1663.7 -1.13459 -1.597 0
M  V30 17246 H 1662.28 -0.710497 0.230658 0
M  V30 17247 H 1664.94 -1.51069 1.23143 0
M  V30 17248 H 1664.04 -2.99606 0.874223 0
M  V30 17249 N 1664.34 -0.740267 -1.39132 0
M  V30 17250 C 1665.57 -0.300494 -2.04403 0
M  V30 17251 C 1665.98 1.07148 -1.55936 0
M  V30 17252 O 1665.32 1.68929 -0.72172 0
M  V30 17253 C 1665.38 -0.229797 -3.58765 0
M  V30 17254 C 1665.05 -1.54111 -4.30231 0
M  V30 17255 C 1666.04 -2.48781 -4.56513 0
M  V30 17256 C 1663.73 -1.80686 -4.68677 0
M  V30 17257 C 1665.72 -3.68255 -5.20256 0
M  V30 17258 C 1663.41 -3.00437 -5.32147 0
M  V30 17259 C 1664.41 -3.94043 -5.5787 0
M  V30 17260 O 1664.1 -5.1169 -6.20023 0
M  V30 17261 H 1663.83 -0.128309 -0.663711 0
M  V30 17262 H 1666.38 -1.00624 -1.79064 0
M  V30 17263 H 1664.61 0.532089 -3.83022 0
M  V30 17264 H 1666.3 0.178681 -4.05507 0
M  V30 17265 H 1667.07 -2.29521 -4.27253 0
M  V30 17266 H 1662.95 -1.08669 -4.48009 0
M  V30 17267 H 1666.49 -4.41334 -5.4025 0
M  V30 17268 H 1662.39 -3.19595 -5.60829 0
M  V30 17269 H 1663.16 -5.12095 -6.38515 0
M  V30 17270 N 1665.82 1.49844 -0.488302 0
M  V30 17271 C 1667.06 2.02709 0.060788 0
M  V30 17272 C 1667.4 1.36828 1.37811 0
M  V30 17273 O 1666.67 0.499679 1.87972 0
M  V30 17274 C 1666.96 3.59386 0.226637 0
M  V30 17275 C 1666.81 4.35814 -1.11292 0
M  V30 17276 C 1668.13 4.29204 0.973218 0
M  V30 17277 H 1665.25 0.736712 0.0206177 0
M  V30 17278 H 1667.89 1.78995 -0.637245 0
M  V30 17279 H 1666.04 3.79722 0.821182 0
M  V30 17280 H 1667.71 4.27007 -1.74536 0
M  V30 17281 H 1665.95 3.98874 -1.70535 0
M  V30 17282 H 1666.62 5.43758 -0.950319 0
M  V30 17283 H 1669.1 4.13447 0.469106 0
M  V30 17284 H 1667.98 5.38605 1.05809 0
M  V30 17285 H 1668.24 3.93564 2.01394 0
M  V30 17286 N 1667.3 0.221601 1.56034 0
M  V30 17287 C 1668.26 -0.674973 2.19036 0
M  V30 17288 C 1669.26 -1.1216 1.15225 0
M  V30 17289 O 1670.45 -1.0304 1.40458 0
M  V30 17290 C 1667.58 -1.92465 2.81372 0
M  V30 17291 H 1668.77 -0.125689 2.99637 0
M  V30 17292 H 1666.33 -0.0280114 1.56275 0
M  V30 17293 H 1667.06 -2.5158 2.04641 0
M  V30 17294 H 1666.85 -1.61286 3.57392 0
M  V30 17295 H 1668.34 -2.56342 3.29664 0
M  V30 17296 N 1668.77 -1.57515 -0.0517878 0
M  V30 17297 C 1670.19 -1.76755 -0.601218 0
M  V30 17298 C 1670.54 -0.849744 -1.76844 0
M  V30 17299 O 1669.66 -0.0387987 -2.16365 0
M  V30 17300 C 1670.26 -3.20534 -1.09743 0
M  V30 17301 C 1668.82 -3.41049 -1.59256 0
M  V30 17302 C 1667.96 -2.72369 -0.520618 0
M  V30 17303 H 1670.91 -1.57739 0.174429 0
M  V30 17304 H 1670.93 -3.25796 -1.96563 0
M  V30 17305 H 1670.45 -3.87309 -0.247696 0
M  V30 17306 H 1668.55 -2.79417 -2.46489 0
M  V30 17307 H 1668.66 -4.49581 -1.65572 0
M  V30 17308 H 1667.02 -2.3549 -0.97038 0
M  V30 17309 H 1667.81 -3.41812 0.319266 0
M  V30 17310 N 1670.25 0.323614 -1.54242 0
M  V30 17311 C 1671.18 1.40344 -1.86616 0
M  V30 17312 C 1672.16 1.53972 -0.722963 0
M  V30 17313 O 1673.35 1.67852 -0.976692 0
M  V30 17314 C 1670.48 2.77112 -2.09347 0
M  V30 17315 C 1669.43 2.78273 -3.25189 0
M  V30 17316 C 1668.76 4.18116 -3.33291 0
M  V30 17317 C 1670.06 2.42025 -4.6284 0
M  V30 17318 H 1671.75 1.13499 -2.77053 0
M  V30 17319 H 1669.3 0.544553 -1.33306 0
M  V30 17320 H 1671.25 3.52719 -2.3058 0
M  V30 17321 H 1669.98 3.05435 -1.1566 0
M  V30 17322 H 1668.64 2.05121 -3.03844 0
M  V30 17323 H 1668.28 4.4358 -2.37163 0
M  V30 17324 H 1667.98 4.19799 -4.11147 0
M  V30 17325 H 1669.51 4.95536 -3.56758 0
M  V30 17326 H 1670.92 3.07346 -4.83954 0
M  V30 17327 H 1669.32 2.5496 -5.43245 0
M  V30 17328 H 1670.39 1.37175 -4.65092 0
M  V30 17329 N 1671.73 1.46313 0.585673 0
M  V30 17330 C 1672.96 1.55035 1.3701 0
M  V30 17331 C 1673.37 0.190444 1.87837 0
M  V30 17332 O 1672.73 -0.81177 1.63452 0
M  V30 17333 C 1672.78 2.55272 2.55965 0
M  V30 17334 O 1672.5 3.85981 2.07245 0
M  V30 17335 C 1674 2.73906 3.48555 0
M  V30 17336 H 1671.22 0.524377 0.418653 0
M  V30 17337 H 1673.77 1.91695 0.712267 0
M  V30 17338 H 1671.92 2.21625 3.17744 0
M  V30 17339 H 1672.34 4.40512 2.84692 0
M  V30 17340 H 1673.81 3.4797 4.2851 0
M  V30 17341 H 1674.29 1.80708 4.00301 0
M  V30 17342 H 1674.89 3.08638 2.92614 0
M  V30 17343 N 1673.21 -0.830057 1.33969 0
M  V30 17344 C 1674.45 -1.59946 1.27266 0
M  V30 17345 C 1674.81 -1.91356 -0.157074 0
M  V30 17346 O 1676.01 -2.66535 -0.348192 0
M  V30 17347 C 1674.29 -2.86861 2.13179 0
M  V30 17348 S 1675.84 -3.77464 2.23756 0
M  V30 17349 H 1672.66 -0.548311 0.452632 0
M  V30 17350 H 1675.26 -0.981051 1.69102 0
M  V30 17351 H 1673.97 -2.61772 3.16076 0
M  V30 17352 H 1673.5 -3.53704 1.72212 0
M  V30 17353 H 1675.51 -4.7589 1.4051 0
M  V30 17354 N 1674.69 -1.17582 -1.04939 0
M  V30 17355 C 1675.91 -0.99097 -1.82194 0
M  V30 17356 C 1676.34 0.455965 -1.8249 0
M  V30 17357 O 1675.7 1.32661 -1.23575 0
M  V30 17358 C 1675.74 -1.53971 -3.26076 0
M  V30 17359 O 1674.85 -0.755172 -4.05427 0
M  V30 17360 H 1674.19 -0.351669 -0.563227 0
M  V30 17361 H 1676.72 -1.56138 -1.3222 0
M  V30 17362 H 1676.73 -1.56307 -3.76872 0
M  V30 17363 H 1675.4 -2.59295 -3.25175 0
M  V30 17364 H 1673.98 -0.803423 -3.64142 0
M  V30 17365 N 1676.17 1.23705 -0.976463 0
M  V30 17366 C 1677.58 1.73848 -0.680723 0
M  V30 17367 C 1677.93 1.79005 0.803228 0
M  V30 17368 O 1677.05 1.42529 1.62832 0
M  V30 17369 C 1677.65 3.15724 -1.22898 0
M  V30 17370 C 1676.21 3.63338 -0.982963 0
M  V30 17371 C 1675.35 2.41712 -1.35906 0
M  V30 17372 H 1678.3 1.09284 -1.15077 0
M  V30 17373 H 1678.33 3.75748 -0.599487 0
M  V30 17374 H 1677.84 3.11938 -2.30903 0
M  V30 17375 H 1675.94 3.72512 0.0811766 0
M  V30 17376 H 1676.05 4.50347 -1.63477 0
M  V30 17377 H 1674.42 2.42543 -0.777498 0
M  V30 17378 H 1675.2 2.40601 -2.4488 0
M  V30 17379 N 1677.64 0.747635 1.38738 0
M  V30 17380 C 1678.58 0.0762364 2.29073 0
M  V30 17381 C 1679.59 -0.690087 1.4745 0
M  V30 17382 O 1680.78 -0.53216 1.70383 0
M  V30 17383 C 1677.88 -0.916136 3.26282 0
M  V30 17384 C 1677.05 -0.2087 4.36902 0
M  V30 17385 C 1676.11 -1.11097 5.14338 0
M  V30 17386 O 1675.14 -0.583722 5.66199 0
M  V30 17387 N 1676.34 -2.43961 5.26748 0
M  V30 17388 H 1679.1 0.852024 2.87334 0
M  V30 17389 H 1676.66 0.597915 1.50455 0
M  V30 17390 H 1678.66 -1.52263 3.74964 0
M  V30 17391 H 1677.23 -1.59304 2.68963 0
M  V30 17392 H 1676.45 0.578435 3.89933 0
M  V30 17393 H 1677.73 0.281061 5.08023 0
M  V30 17394 H 1677.13 -2.89259 4.86154 0
M  V30 17395 H 1675.69 -2.99676 5.78824 0
M  V30 17396 N 1679.12 -1.49583 0.496242 0
M  V30 17397 C 1680.53 -1.8664 0.0472756 0
M  V30 17398 C 1680.88 -1.40898 -1.36536 0
M  V30 17399 O 1680.01 -0.784796 -2.01668 0
M  V30 17400 C 1680.6 -3.38708 0.079016 0
M  V30 17401 C 1679.16 -3.75083 -0.314587 0
M  V30 17402 C 1678.31 -2.73565 0.453624 0
M  V30 17403 H 1681.26 -1.41969 0.709269 0
M  V30 17404 H 1681.28 -3.73676 -0.717396 0
M  V30 17405 H 1680.79 -3.71969 1.10727 0
M  V30 17406 H 1678.89 -3.47429 -1.34625 0
M  V30 17407 H 1679.01 -4.791 0.00155427 0
M  V30 17408 H 1677.37 -2.54519 -0.095937 0
M  V30 17409 H 1678.15 -3.0967 1.48186 0
M  V30 17410 N 1680.6 -0.229873 -1.55915 0
M  V30 17411 C 1681.51 0.687953 -2.24286 0
M  V30 17412 C 1682.53 1.20705 -1.25325 0
M  V30 17413 O 1683.7 1.2469 -1.58159 0
M  V30 17414 C 1680.77 1.87563 -2.91584 0
M  V30 17415 C 1679.83 1.39769 -4.0591 0
M  V30 17416 C 1679.06 2.52876 -4.69989 0
M  V30 17417 O 1679.28 3.71208 -4.33083 0
M  V30 17418 O 1678.22 2.23603 -5.58825 0
M  V30 17419 H 1682.04 0.135464 -3.03398 0
M  V30 17420 H 1679.63 0.000925172 -1.494 0
M  V30 17421 H 1681.51 2.56907 -3.34031 0
M  V30 17422 H 1680.19 2.41606 -2.15426 0
M  V30 17423 H 1679.09 0.672029 -3.68014 0
M  V30 17424 H 1680.43 0.903543 -4.83836 0
M  V30 17425 N 1682.08 1.5754 0.0434337 0
M  V30 17426 C 1683.31 1.92577 0.748182 0
M  V30 17427 C 1683.72 0.826758 1.7018 0
M  V30 17428 O 1683.06 -0.206713 1.82533 0
M  V30 17429 C 1683.12 3.23309 1.57199 0
M  V30 17430 C 1682.78 4.50213 0.784705 0
M  V30 17431 C 1683.78 5.1982 0.091305 0
M  V30 17432 C 1681.47 4.96767 0.74349 0
M  V30 17433 C 1683.46 6.34251 -0.632768 0
M  V30 17434 C 1681.15 6.11098 0.0156621 0
M  V30 17435 C 1682.15 6.79694 -0.67124 0
M  V30 17436 O 1681.83 7.91839 -1.38728 0
M  V30 17437 H 1681.57 0.64049 0.216213 0
M  V30 17438 H 1684.12 2.05398 0.00937223 0
M  V30 17439 H 1682.35 3.06775 2.35428 0
M  V30 17440 H 1684.04 3.43779 2.15802 0
M  V30 17441 H 1684.8 4.84865 0.11427 0
M  V30 17442 H 1680.68 4.43229 1.26763 0
M  V30 17443 H 1684.23 6.87728 -1.16947 0
M  V30 17444 H 1680.12 6.45499 -0.00927628 0
M  V30 17445 H 1680.89 8.08119 -1.29947 0
M  V30 17446 N 1683.56 -0.31543 1.54411 0
M  V30 17447 C 1684.8 -1.05396 1.73261 0
M  V30 17448 C 1685.13 -1.87406 0.509171 0
M  V30 17449 O 1684.41 -1.88126 -0.493836 0
M  V30 17450 C 1684.69 -1.97195 3.01308 0
M  V30 17451 C 1684.55 -1.18461 4.33921 0
M  V30 17452 C 1685.86 -2.96594 3.25146 0
M  V30 17453 H 1682.98 -0.381763 0.630417 0
M  V30 17454 H 1685.63 -0.329882 1.87114 0
M  V30 17455 H 1683.78 -2.58936 2.89628 0
M  V30 17456 H 1685.45 -0.591171 4.57496 0
M  V30 17457 H 1683.69 -0.487025 4.31057 0
M  V30 17458 H 1684.36 -1.85909 5.19752 0
M  V30 17459 H 1686.84 -2.44977 3.36341 0
M  V30 17460 H 1685.71 -3.58002 4.16084 0
M  V30 17461 H 1685.97 -3.69487 2.42758 0
M  V30 17462 N 1685.03 -1.46622 -0.577906 0
M  V30 17463 C 1685.98 -1.57926 -1.70769 0
M  V30 17464 C 1686.98 -0.447509 -1.63382 0
M  V30 17465 O 1688.18 -0.624559 -1.68817 0
M  V30 17466 H 1684.56 -0.496618 -0.56469 0
M  V30 17467 H 1686.53 -2.52908 -1.58367 0
M  V30 17468 C 1685.28 -1.59124 -3.09152 0
M  V30 17469 H 1684.6 -2.45549 -3.15509 0
M  V30 17470 H 1686.04 -1.71087 -3.8795 0
M  V30 17471 C 1684.5 -0.320734 -3.3537 0
M  V30 17472 O 1685.03 0.586999 -3.97388 0
M  V30 17473 N 1683.24 -0.207156 -2.89861 0
M  V30 17474 H 1682.78 -0.946744 -2.39572 0
M  V30 17475 H 1682.74 0.642028 -3.07775 0
M  V30 17476 N 1686.51 0.822941 -1.34408 0
M  V30 17477 C 1687.44 1.94142 -1.21826 0
M  V30 17478 C 1688.46 1.6215 -0.145353 0
M  V30 17479 O 1689.65 1.74025 -0.397205 0
M  V30 17480 C 1686.75 3.28077 -0.849619 0
M  V30 17481 C 1685.92 3.88092 -2.0175 0
M  V30 17482 C 1684.98 5.00406 -1.62726 0
M  V30 17483 O 1684 5.18703 -2.34383 0
M  V30 17484 N 1685.21 5.7797 -0.541413 0
M  V30 17485 H 1687.97 2.05467 -2.18182 0
M  V30 17486 H 1685.53 0.999521 -1.27362 0
M  V30 17487 H 1687.52 4.00661 -0.57035 0
M  V30 17488 H 1686.09 3.12591 0.0237499 0
M  V30 17489 H 1685.31 3.07902 -2.46151 0
M  V30 17490 H 1686.6 4.24921 -2.79856 0
M  V30 17491 H 1686 5.65674 0.0542929 0
M  V30 17492 H 1684.56 6.51005 -0.321874 0
M  V30 17493 N 1687.99 1.18137 1.04314 0
M  V30 17494 C 1689.4 0.979768 1.58926 0
M  V30 17495 C 1689.75 -0.471214 1.90457 0
M  V30 17496 O 1688.88 -1.34812 1.69277 0
M  V30 17497 C 1689.47 1.77219 2.88754 0
M  V30 17498 C 1688.03 1.61501 3.39992 0
M  V30 17499 C 1687.18 1.76824 2.13609 0
M  V30 17500 H 1690.13 1.32717 0.870162 0
M  V30 17501 H 1690.15 1.2598 3.59039 0
M  V30 17502 H 1689.66 2.82818 2.65773 0
M  V30 17503 H 1687.76 0.58427 3.67991 0
M  V30 17504 H 1687.88 2.4115 4.13985 0
M  V30 17505 H 1686.24 1.19747 2.24795 0
M  V30 17506 H 1687.02 2.83853 1.93087 0
M  V30 17507 N 1689.47 -1.23186 0.98301 0
M  V30 17508 C 1690.75 -1.87121 0.569651 0
M  V30 17509 C 1691.13 -1.88355 -0.95319 0
M  V30 17510 O 1690.47 -1.36699 -1.831 0
M  V30 17511 C 1690.68 -3.28493 1.17871 0
M  V30 17512 C 1692.03 -4.05065 1.27308 0
M  V30 17513 O 1693.06 -3.37722 1.13236 0
M  V30 17514 O 1691.91 -5.2559 1.49723 0
M  V30 17515 H 1689.01 -0.804363 0.192171 0
M  V30 17516 H 1691.55 -1.31041 1.07826 0
M  V30 17517 H 1690.33 -3.22175 2.22078 0
M  V30 17518 H 1689.95 -3.92166 0.655087 0
M  V30 17519 N 1690.95 -0.754982 -1.38339 0
M  V30 17520 C 1692.19 -0.312224 -2.00382 0
M  V30 17521 C 1692.53 1.10362 -1.59793 0
M  V30 17522 O 1691.8 1.75611 -0.83613 0
M  V30 17523 C 1692.08 -0.436701 -3.57442 0
M  V30 17524 C 1691.94 -1.89376 -4.07991 0
M  V30 17525 C 1693.26 0.169083 -4.39775 0
M  V30 17526 H 1690.37 -0.114922 -0.727985 0
M  V30 17527 H 1693.02 -0.954887 -1.64262 0
M  V30 17528 H 1691.17 0.11043 -3.88343 0
M  V30 17529 H 1692.84 -2.4993 -3.87728 0
M  V30 17530 H 1691.08 -2.40834 -3.60807 0
M  V30 17531 H 1691.75 -1.932 -5.17086 0
M  V30 17532 H 1694.23 -0.297554 -4.15035 0
M  V30 17533 H 1693.1 0.0517531 -5.48876 0
M  V30 17534 H 1693.37 1.25754 -4.23838 0
M  V30 17535 N 1692.42 1.49318 -0.504168 0
M  V30 17536 C 1693.84 1.58793 -0.160331 0
M  V30 17537 C 1694.04 1.50906 1.33527 0
M  V30 17538 O 1693.1 1.38466 2.11148 0
M  V30 17539 C 1694.41 2.91454 -0.739945 0
M  V30 17540 C 1695.96 3.04926 -0.706338 0
M  V30 17541 C 1696.43 4.4021 -1.26407 0
M  V30 17542 N 1697.92 4.46711 -1.22491 0
M  V30 17543 C 1698.66 5.49844 -1.62661 0
M  V30 17544 N 1698.15 6.60066 -2.10439 0
M  V30 17545 N 1699.95 5.40576 -1.54058 0
M  V30 17546 H 1692.1 1.52687 -1.4765 0
M  V30 17547 H 1694.36 0.723463 -0.612622 0
M  V30 17548 H 1694.07 3.02802 -1.78896 0
M  V30 17549 H 1693.94 3.76658 -0.202187 0
M  V30 17550 H 1696.33 2.93206 0.333845 0
M  V30 17551 H 1696.41 2.21398 -1.28128 0
M  V30 17552 H 1696.05 4.52683 -2.30305 0
M  V30 17553 H 1695.98 5.22384 -0.665041 0
M  V30 17554 H 1698.47 3.67634 -0.874869 0
M  V30 17555 H 1698.79 7.34865 -2.39153 0
M  V30 17556 H 1697.13 6.61098 -2.14415 0
M  V30 17557 H 1700.32 4.53359 -1.16548 0
M  V30 17558 H 1700.5 6.20826 -1.85687 0
M  V30 17559 N 1693.9 0.238138 1.5579 0
M  V30 17560 C 1695.31 -0.266656 1.84786 0
M  V30 17561 C 1695.66 -1.58248 1.15983 0
M  V30 17562 O 1694.79 -2.11979 0.43518 0
M  V30 17563 C 1695.38 -0.4906 3.35229 0
M  V30 17564 C 1693.94 -0.939672 3.64482 0
M  V30 17565 C 1693.09 -0.0119682 2.77297 0
M  V30 17566 H 1696.04 0.460924 1.51859 0
M  V30 17567 H 1696.06 -1.3344 3.56334 0
M  V30 17568 H 1695.57 0.467239 3.85277 0
M  V30 17569 H 1693.68 -1.91029 3.19904 0
M  V30 17570 H 1693.79 -0.8026 4.72329 0
M  V30 17571 H 1692.15 -0.521767 2.49298 0
M  V30 17572 H 1692.94 0.941085 3.30149 0
M  V30 17573 N 1695.38 -1.57561 -0.0350783 0
M  V30 17574 C 1696.31 -2.02953 -1.06502 0
M  V30 17575 C 1697.33 -0.941331 -1.32826 0
M  V30 17576 O 1698.51 -1.21873 -1.30419 0
M  V30 17577 C 1695.61 -2.38471 -2.40801 0
M  V30 17578 C 1694.79 -3.69596 -2.33917 0
M  V30 17579 C 1693.85 -3.9237 -3.50616 0
M  V30 17580 O 1692.87 -4.63504 -3.30382 0
M  V30 17581 N 1694.07 -3.37544 -4.72275 0
M  V30 17582 H 1696.84 -2.91926 -0.678169 0
M  V30 17583 H 1694.4 -1.60355 -0.22313 0
M  V30 17584 H 1696.39 -2.50849 -3.1758 0
M  V30 17585 H 1694.96 -1.55199 -2.71352 0
M  V30 17586 H 1694.18 -3.67629 -1.42277 0
M  V30 17587 H 1695.47 -4.55627 -2.26455 0
M  V30 17588 H 1694.87 -2.79875 -4.91616 0
M  V30 17589 H 1693.43 -3.55312 -5.4644 0
M  V30 17590 N 1696.86 0.307236 -1.54576 0
M  V30 17591 C 1698.27 0.88064 -1.64626 0
M  V30 17592 C 1698.62 1.88308 -0.550865 0
M  V30 17593 O 1697.75 2.14116 0.313553 0
M  V30 17594 C 1698.34 1.60405 -2.98422 0
M  V30 17595 C 1696.9 2.12595 -3.10613 0
M  V30 17596 C 1696.05 0.956593 -2.60278 0
M  V30 17597 H 1699 0.0843939 -1.58475 0
M  V30 17598 H 1699.02 2.46925 -2.89496 0
M  V30 17599 H 1698.53 0.874209 -3.78126 0
M  V30 17600 H 1696.63 2.88644 -2.35617 0
M  V30 17601 H 1696.74 2.36475 -4.16673 0
M  V30 17602 H 1695.11 1.3404 -2.16576 0
M  V30 17603 H 1695.89 0.24081 -3.42454 0
M  V30 17604 N 1698.34 1.46926 0.570122 0
M  V30 17605 C 1699.75 1.469 1.15227 0
M  V30 17606 C 1700.1 0.216651 1.95 0
M  V30 17607 O 1699.22 -0.679388 2.05459 0
M  V30 17608 C 1699.82 2.66158 2.09632 0
M  V30 17609 C 1698.38 2.69133 2.63144 0
M  V30 17610 C 1697.52 2.39795 1.39262 0
M  V30 17611 H 1700.48 1.54623 0.35739 0
M  V30 17612 H 1700.5 2.42393 2.93302 0
M  V30 17613 H 1700.01 3.5729 1.51543 0
M  V30 17614 H 1698.11 1.82106 3.25066 0
M  V30 17615 H 1698.22 3.69459 3.05019 0
M  V30 17616 H 1696.59 1.9011 1.695 0
M  V30 17617 H 1697.37 3.33119 0.829855 0
M  V30 17618 N 1699.82 -0.815801 1.34842 0
M  V30 17619 C 1701.04 -1.60915 1.30848 0
M  V30 17620 C 1701.47 -1.87758 -0.113345 0
M  V30 17621 O 1700.82 -1.4582 -1.07732 0
M  V30 17622 C 1700.87 -2.92284 2.11192 0
M  V30 17623 O 1699.98 -3.84685 1.48632 0
M  V30 17624 H 1699.32 -0.48913 0.449052 0
M  V30 17625 H 1701.85 -1.01322 1.7775 0
M  V30 17626 H 1701.86 -3.41789 2.2281 0
M  V30 17627 H 1700.53 -2.72071 3.14563 0
M  V30 17628 H 1699.11 -3.43215 1.458 0
M  V30 17629 N 1701.29 -1.18689 -1.03686 0
M  V30 17630 C 1702.7 -0.988182 -1.58404 0
M  V30 17631 C 1703.06 0.461107 -1.90705 0
M  V30 17632 O 1702.18 1.33912 -1.6999 0
M  V30 17633 C 1702.78 -1.78748 -2.8781 0
M  V30 17634 C 1701.33 -1.63301 -3.39131 0
M  V30 17635 C 1700.48 -1.77954 -2.12668 0
M  V30 17636 H 1703.43 -1.33177 -0.863112 0
M  V30 17637 H 1703.45 -1.27882 -3.58366 0
M  V30 17638 H 1702.97 -2.84224 -2.6427 0
M  V30 17639 H 1701.07 -0.603777 -3.67676 0
M  V30 17640 H 1701.18 -2.43342 -4.127 0
M  V30 17641 H 1699.54 -1.20937 -2.24157 0
M  V30 17642 H 1700.33 -2.84873 -1.91579 0
M  V30 17643 N 1702.77 1.22662 -0.989529 0
M  V30 17644 C 1704.19 1.43445 -0.699687 0
M  V30 17645 C 1704.39 1.87778 0.730875 0
M  V30 17646 O 1703.44 2.02953 1.5022 0
M  V30 17647 C 1704.76 2.47869 -1.70239 0
M  V30 17648 C 1706.3 2.61672 -1.71746 0
M  V30 17649 C 1706.78 3.69315 -2.7087 0
M  V30 17650 N 1708.27 3.76768 -2.69444 0
M  V30 17651 C 1709.01 4.59641 -3.42808 0
M  V30 17652 N 1708.5 5.46533 -4.25762 0
M  V30 17653 N 1710.29 4.53921 -3.3153 0
M  V30 17654 H 1702.45 0.921912 -1.91349 0
M  V30 17655 H 1704.71 0.466905 -0.825048 0
M  V30 17656 H 1704.41 2.22233 -2.7259 0
M  V30 17657 H 1704.29 3.46415 -1.49254 0
M  V30 17658 H 1706.68 2.86655 -0.70094 0
M  V30 17659 H 1706.76 1.63413 -1.96799 0
M  V30 17660 H 1706.4 3.4508 -3.72669 0
M  V30 17661 H 1706.33 4.67136 -2.43088 0
M  V30 17662 H 1708.82 3.1468 -2.09249 0
M  V30 17663 H 1709.13 6.06783 -4.78575 0
M  V30 17664 H 1707.48 5.46126 -4.2985 0
M  V30 17665 H 1710.67 3.85062 -2.66168 0
M  V30 17666 H 1710.84 5.18277 -3.88964 0
M  V30 17667 N 1704.25 0.762308 1.37937 0
M  V30 17668 C 1705.16 0.142724 2.34165 0
M  V30 17669 C 1706.18 -0.690588 1.59709 0
M  V30 17670 O 1707.35 -0.61271 1.91854 0
M  V30 17671 C 1704.42 -0.733325 3.38856 0
M  V30 17672 C 1703.48 0.115359 4.29145 0
M  V30 17673 C 1702.71 -0.718972 5.28835 0
M  V30 17674 O 1702.93 -1.95656 5.35794 0
M  V30 17675 O 1701.87 -0.133162 6.01753 0
M  V30 17676 H 1705.69 0.937662 2.88863 0
M  V30 17677 H 1703.28 0.523325 1.39935 0
M  V30 17678 H 1705.16 -1.23374 4.02935 0
M  V30 17679 H 1703.84 -1.50661 2.86501 0
M  V30 17680 H 1702.74 0.661926 3.68197 0
M  V30 17681 H 1704.08 0.851505 4.84779 0
M  V30 17682 N 1705.73 -1.49049 0.51208 0
M  V30 17683 C 1706.98 -2.0208 -0.0284326 0
M  V30 17684 C 1707.3 -1.39303 -1.36454 0
M  V30 17685 O 1706.57 -0.552155 -1.87958 0
M  V30 17686 H 1705.15 -0.746878 -0.0134968 0
M  V30 17687 H 1707.81 -1.82954 0.671842 0
M  V30 17688 H 1706.9 -3.11739 -0.149966 0
M  V30 17689 N 1707.21 -0.246397 -1.55662 0
M  V30 17690 C 1708.62 0.256853 -1.84925 0
M  V30 17691 C 1708.97 1.5763 -1.16821 0
M  V30 17692 O 1708.09 2.11745 -0.446415 0
M  V30 17693 C 1708.69 0.472815 -3.35485 0
M  V30 17694 C 1707.25 0.92033 -3.64975 0
M  V30 17695 C 1706.39 -0.00273772 -2.773 0
M  V30 17696 H 1709.34 -0.468971 -1.51612 0
M  V30 17697 H 1709.37 1.31549 -3.57037 0
M  V30 17698 H 1708.88 -0.487664 -3.85024 0
M  V30 17699 H 1706.98 1.89329 -3.20913 0
M  V30 17700 H 1707.09 0.77754 -4.72748 0
M  V30 17701 H 1705.46 0.508539 -2.49572 0
M  V30 17702 H 1706.24 -0.958581 -3.29645 0
M  V30 17703 N 1708.68 1.57577 0.026722 0
M  V30 17704 C 1709.61 2.09748 1.02605 0
M  V30 17705 C 1710.59 1.00054 1.37562 0
M  V30 17706 O 1711.78 1.2759 1.46405 0
M  V30 17707 C 1708.91 2.57881 2.32626 0
M  V30 17708 C 1707.86 3.7186 2.11905 0
M  V30 17709 C 1707.19 4.06208 3.47706 0
M  V30 17710 C 1708.49 5.00198 1.50332 0
M  V30 17711 H 1710.18 2.93494 0.591753 0
M  V30 17712 H 1707.73 1.41188 0.283199 0
M  V30 17713 H 1709.68 2.93 3.02868 0
M  V30 17714 H 1708.41 1.71222 2.7812 0
M  V30 17715 H 1707.07 3.37094 1.44096 0
M  V30 17716 H 1706.71 3.16611 3.90853 0
M  V30 17717 H 1706.41 4.82982 3.34667 0
M  V30 17718 H 1707.94 4.43863 4.19306 0
M  V30 17719 H 1709.35 5.33259 2.10494 0
M  V30 17720 H 1707.75 5.81599 1.4786 0
M  V30 17721 H 1708.82 4.82623 0.469405 0
M  V30 17722 N 1710.16 -0.299034 1.54737 0
M  V30 17723 C 1711.57 -0.871897 1.6509 0
M  V30 17724 C 1711.92 -1.88013 0.560843 0
M  V30 17725 O 1711.05 -2.1428 -0.302194 0
M  V30 17726 C 1711.64 -1.5882 2.99269 0
M  V30 17727 C 1710.2 -2.10944 3.11736 0
M  V30 17728 C 1709.35 -0.942776 2.60782 0
M  V30 17729 H 1712.3 -0.0759883 1.58518 0
M  V30 17730 H 1712.32 -2.45387 2.90802 0
M  V30 17731 H 1711.83 -0.854144 3.78584 0
M  V30 17732 H 1709.93 -2.87391 2.37144 0
M  V30 17733 H 1710.05 -2.34262 4.17921 0
M  V30 17734 H 1708.41 -1.3289 2.17284 0
M  V30 17735 H 1709.19 -0.222646 3.42577 0
M  V30 17736 N 1711.64 -1.47227 -0.562322 0
M  V30 17737 C 1712.6 -1.58887 -1.6519 0
M  V30 17738 C 1713.6 -0.464359 -1.53949 0
M  V30 17739 O 1714.79 -0.729279 -1.582 0
M  V30 17740 C 1711.92 -1.52853 -3.04711 0
M  V30 17741 H 1713.12 -2.5601 -1.56202 0
M  V30 17742 H 1710.67 -1.35341 -0.781832 0
M  V30 17743 H 1711.41 -0.570867 -3.19236 0
M  V30 17744 H 1711.19 -2.3446 -3.14279 0
M  V30 17745 H 1712.68 -1.6414 -3.83989 0
M  V30 17746 N 1713.12 0.808639 -1.35273 0
M  V30 17747 C 1714.08 1.90195 -1.279 0
M  V30 17748 C 1715.08 1.59663 -0.190915 0
M  V30 17749 O 1716.27 1.68434 -0.444482 0
M  V30 17750 C 1713.4 3.26567 -0.978106 0
M  V30 17751 H 1714.6 1.98152 -2.25113 0
M  V30 17752 H 1712.15 1.00426 -1.19767 0
M  V30 17753 H 1712.88 3.24299 -0.00975789 0
M  V30 17754 H 1712.67 3.50114 -1.7653 0
M  V30 17755 H 1714.16 4.06602 -0.95207 0
M  V30 17756 N 1714.6 1.19237 1.03055 0
M  V30 17757 C 1716.01 0.944224 1.28672 0
M  V30 17758 C 1716.21 -0.384378 1.978 0
M  V30 17759 O 1715.27 -1.11629 2.26484 0
M  V30 17760 C 1716.58 2.11704 2.13546 0
M  V30 17761 C 1718.13 2.15647 2.2686 0
M  V30 17762 C 1718.6 3.32375 3.15105 0
M  V30 17763 N 1720.1 3.323 3.22693 0
M  V30 17764 C 1720.83 4.19265 3.91158 0
M  V30 17765 N 1720.33 5.16381 4.61868 0
M  V30 17766 N 1722.12 4.07147 3.87541 0
M  V30 17767 H 1714.27 2.0472 0.565987 0
M  V30 17768 H 1716.53 0.895073 0.312328 0
M  V30 17769 H 1716.24 3.07845 1.70072 0
M  V30 17770 H 1716.11 2.08624 3.14254 0
M  V30 17771 H 1718.5 1.20078 2.69565 0
M  V30 17772 H 1718.58 2.22781 1.25708 0
M  V30 17773 H 1718.23 4.28222 2.73108 0
M  V30 17774 H 1718.16 3.22478 4.16312 0
M  V30 17775 H 1720.65 2.62 2.72331 0
M  V30 17776 H 1720.96 5.7909 5.11737 0
M  V30 17777 H 1719.3 5.20331 4.60739 0
M  V30 17778 H 1722.5 3.30555 3.31438 0
M  V30 17779 H 1722.67 4.75135 4.40625 0
M  V30 17780 N 1716.07 -1.22136 0.99602 0
M  V30 17781 C 1717.49 -1.72743 0.708295 0
M  V30 17782 C 1717.84 -1.8026 -0.774649 0
M  V30 17783 O 1716.96 -1.45102 -1.60544 0
M  V30 17784 C 1717.56 -3.13729 1.27905 0
M  V30 17785 C 1716.12 -3.61729 1.04064 0
M  V30 17786 C 1715.26 -2.39519 1.39735 0
M  V30 17787 H 1718.21 -1.07439 1.16801 0
M  V30 17788 H 1718.23 -3.74746 0.65919 0
M  V30 17789 H 1717.75 -3.08225 2.35836 0
M  V30 17790 H 1715.85 -3.72594 -0.0219029 0
M  V30 17791 H 1715.96 -4.47689 1.70621 0
M  V30 17792 H 1714.32 -2.41275 0.815986 0
M  V30 17793 H 1715.11 -2.36675 2.48677 0
M  V30 17794 N 1717.55 -0.769612 -1.37531 0
M  V30 17795 C 1718.52 -0.160716 -2.28636 0
M  V30 17796 C 1719.52 0.630362 -1.47929 0
M  V30 17797 O 1720.71 0.454265 -1.68173 0
M  V30 17798 C 1717.84 0.779904 -3.31859 0
M  V30 17799 H 1719.03 -0.963794 -2.83991 0
M  V30 17800 H 1716.58 -0.537678 -1.46761 0
M  V30 17801 H 1717.32 1.60807 -2.81623 0
M  V30 17802 H 1717.1 0.21485 -3.91511 0
M  V30 17803 H 1718.59 1.20143 -3.99944 0
M  V30 17804 N 1719.03 1.48775 -0.519977 0
M  V30 17805 C 1720.28 2.02092 0.0177154 0
M  V30 17806 C 1720.6 1.40024 1.35714 0
M  V30 17807 O 1719.87 0.562115 1.87662 0
M  V30 17808 H 1718.45 0.746939 0.00953578 0
M  V30 17809 H 1721.11 1.82595 -0.681535 0
M  V30 17810 H 1720.21 3.11815 0.133431 0
M  V30 17811 N 1720.51 0.254649 1.55529 0
M  V30 17812 C 1721.47 -0.62836 2.20418 0
M  V30 17813 C 1722.47 -1.09691 1.17578 0
M  V30 17814 O 1723.66 -1.00037 1.42612 0
M  V30 17815 C 1720.79 -1.86453 2.85391 0
M  V30 17816 H 1721.99 -0.0621032 2.99836 0
M  V30 17817 H 1719.54 0.00514311 1.56299 0
M  V30 17818 H 1720.27 -2.47182 2.09932 0
M  V30 17819 H 1720.06 -1.53669 3.60733 0
M  V30 17820 H 1721.55 -2.49291 3.35028 0
M  V30 17821 N 1721.99 -1.57589 -0.0183649 0
M  V30 17822 C 1723.21 -1.94024 -0.718491 0
M  V30 17823 C 1723.63 -0.85529 -1.68316 0
M  V30 17824 O 1722.99 0.167403 -1.81731 0
M  V30 17825 C 1723.04 -3.30427 -1.4663 0
M  V30 17826 O 1722.76 -4.34755 -0.540345 0
M  V30 17827 C 1724.26 -3.81209 -2.26262 0
M  V30 17828 H 1721.48 -0.640101 -0.201275 0
M  V30 17829 H 1724.02 -2.04482 0.0272935 0
M  V30 17830 H 1722.18 -3.21333 -2.16388 0
M  V30 17831 H 1722.59 -5.13554 -1.06593 0
M  V30 17832 H 1724.07 -4.79131 -2.74112 0
M  V30 17833 H 1724.54 -3.12957 -3.08147 0
M  V30 17834 H 1725.15 -3.9342 -1.61558 0
M  V30 17835 N 1723.46 0.290824 -1.54893 0
M  V30 17836 C 1724.39 1.36354 -1.89551 0
M  V30 17837 C 1725.38 1.52403 -0.75546 0
M  V30 17838 O 1726.56 1.65743 -1.01208 0
M  V30 17839 C 1723.69 2.72609 -2.15178 0
M  V30 17840 C 1722.64 2.71313 -3.31019 0
M  V30 17841 C 1721.97 4.10952 -3.42085 0
M  V30 17842 C 1723.27 2.32153 -4.6787 0
M  V30 17843 H 1724.96 1.07597 -2.79398 0
M  V30 17844 H 1722.51 0.516154 -1.34432 0
M  V30 17845 H 1724.46 3.47749 -2.3801 0
M  V30 17846 H 1723.19 3.02913 -1.22112 0
M  V30 17847 H 1721.85 1.9863 -3.08126 0
M  V30 17848 H 1721.49 4.38449 -2.46518 0
M  V30 17849 H 1721.19 4.10984 -4.1996 0
M  V30 17850 H 1722.72 4.87857 -3.67189 0
M  V30 17851 H 1724.13 2.97011 -4.90364 0
M  V30 17852 H 1722.53 2.4338 -5.48531 0
M  V30 17853 H 1723.6 1.27279 -4.67897 0
M  V30 17854 N 1724.94 1.47523 0.554506 0
M  V30 17855 C 1725.85 1.62851 1.68869 0
M  V30 17856 C 1726.87 0.511305 1.66318 0
M  V30 17857 O 1728.04 0.779195 1.85716 0
M  V30 17858 C 1725.11 1.64161 3.05372 0
M  V30 17859 C 1724.17 2.87327 3.1897 0
M  V30 17860 C 1723.4 2.88566 4.48961 0
M  V30 17861 O 1723.63 1.98937 5.34584 0
M  V30 17862 O 1722.56 3.80459 4.66406 0
M  V30 17863 H 1726.39 2.58826 1.5888 0
M  V30 17864 H 1723.97 1.3064 0.724822 0
M  V30 17865 H 1725.85 1.67686 3.866 0
M  V30 17866 H 1724.53 0.713534 3.15738 0
M  V30 17867 H 1723.44 2.89345 2.37129 0
M  V30 17868 H 1724.77 3.79438 3.13509 0
M  V30 17869 N 1726.42 -0.801453 1.357 0
M  V30 17870 C 1727.84 -1.09776 1.1585 0
M  V30 17871 C 1728.04 -2.01484 -0.0255653 0
M  V30 17872 O 1727.09 -2.42758 -0.694613 0
M  V30 17873 C 1728.41 -1.72381 2.46385 0
M  V30 17874 C 1729.95 -1.84777 2.52639 0
M  V30 17875 C 1730.43 -2.50797 3.83229 0
M  V30 17876 N 1731.92 -2.58277 3.84509 0
M  V30 17877 C 1732.65 -3.10141 4.82286 0
M  V30 17878 N 1732.15 -3.62404 5.90454 0
M  V30 17879 N 1733.94 -3.08742 4.69718 0
M  V30 17880 H 1726.09 -0.191926 2.11531 0
M  V30 17881 H 1728.36 -0.147742 0.936417 0
M  V30 17882 H 1728.06 -1.12462 3.33234 0
M  V30 17883 H 1727.94 -2.72024 2.6131 0
M  V30 17884 H 1730.32 -2.43837 1.66215 0
M  V30 17885 H 1730.41 -0.839745 2.41624 0
M  V30 17886 H 1730.05 -1.92385 4.70053 0
M  V30 17887 H 1729.98 -3.52147 3.91535 0
M  V30 17888 H 1732.47 -2.21257 3.06356 0
M  V30 17889 H 1732.78 -4.00293 6.61049 0
M  V30 17890 H 1731.13 -3.60588 5.94139 0
M  V30 17891 H 1734.32 -2.67193 3.84351 0
M  V30 17892 H 1734.49 -3.48854 5.46081 0
M  V30 17893 N 1727.9 -1.19782 -1.02421 0
M  V30 17894 C 1729.31 -1.00493 -1.57347 0
M  V30 17895 C 1729.66 0.440854 -1.91183 0
M  V30 17896 O 1728.79 1.32102 -1.714 0
M  V30 17897 C 1729.38 -1.8179 -2.85898 0
M  V30 17898 C 1727.94 -1.66889 -3.3738 0
M  V30 17899 C 1727.09 -1.80199 -2.10769 0
M  V30 17900 H 1730.04 -1.34085 -0.848938 0
M  V30 17901 H 1730.06 -1.31676 -3.5699 0
M  V30 17902 H 1729.57 -2.87011 -2.6124 0
M  V30 17903 H 1727.67 -0.64274 -3.67014 0
M  V30 17904 H 1727.78 -2.47705 -4.10096 0
M  V30 17905 H 1726.15 -1.23308 -2.22862 0
M  V30 17906 H 1726.93 -2.86889 -1.88546 0
M  V30 17907 N 1729.38 1.21606 -1.00248 0
M  V30 17908 C 1730.32 2.23884 -0.560771 0
M  V30 17909 C 1731.29 1.60913 0.411864 0
M  V30 17910 O 1732.48 1.88191 0.314476 0
M  V30 17911 C 1729.62 3.44928 0.108948 0
M  V30 17912 C 1728.73 4.22381 -0.906566 0
M  V30 17913 C 1727.87 5.30787 -0.20937 0
M  V30 17914 C 1726.91 5.99969 -1.2126 0
M  V30 17915 N 1726.04 6.99997 -0.543057 0
M  V30 17916 H 1730.88 2.61029 -1.43764 0
M  V30 17917 H 1728.42 1.28278 -0.719937 0
M  V30 17918 H 1730.38 4.14019 0.514244 0
M  V30 17919 H 1729.01 3.08518 0.949544 0
M  V30 17920 H 1728.06 3.52493 -1.43012 0
M  V30 17921 H 1729.37 4.70009 -1.67013 0
M  V30 17922 H 1728.53 6.06176 0.252164 0
M  V30 17923 H 1727.27 4.84159 0.586621 0
M  V30 17924 H 1726.27 5.23353 -1.68467 0
M  V30 17925 H 1727.5 6.48684 -2.00963 0
M  V30 17926 H 1725.44 6.55585 0.233324 0
M  V30 17927 H 1725.36 7.45679 -1.24492 0
M  V30 17928 H 1726.63 7.7943 -0.104643 0
M  V30 17929 N 1730.86 0.776895 1.37121 0
M  V30 17930 C 1732.08 0.355097 2.0383 0
M  V30 17931 C 1732.5 -1.02441 1.58591 0
M  V30 17932 O 1731.86 -1.65482 0.769533 0
M  V30 17933 C 1731.91 0.394984 3.59336 0
M  V30 17934 O 1731.63 1.72008 4.0292 0
M  V30 17935 C 1733.13 -0.0377636 4.43284 0
M  V30 17936 H 1730.35 0.148056 0.654462 0
M  V30 17937 H 1732.89 1.05225 1.75351 0
M  V30 17938 H 1731.05 -0.253638 3.86569 0
M  V30 17939 H 1731.46 1.66225 4.97463 0
M  V30 17940 H 1732.94 0.0412956 5.51985 0
M  V30 17941 H 1733.41 -1.08881 4.2549 0
M  V30 17942 H 1734.02 0.582867 4.21287 0
M  V30 17943 N 1732.33 -1.48497 0.527859 0
M  V30 17944 C 1733.26 -2.32414 -0.224891 0
M  V30 17945 C 1734.24 -1.41959 -0.93711 0
M  V30 17946 O 1735.43 -1.70847 -0.923302 0
M  V30 17947 C 1732.56 -3.23106 -1.27356 0
M  V30 17948 C 1731.51 -4.2257 -0.679611 0
M  V30 17949 C 1730.84 -5.02381 -1.83077 0
M  V30 17950 C 1732.14 -5.21144 0.347269 0
M  V30 17951 H 1733.83 -2.95598 0.475632 0
M  V30 17952 H 1731.38 -1.42148 0.230182 0
M  V30 17953 H 1733.33 -3.80639 -1.8081 0
M  V30 17954 H 1732.06 -2.57919 -2.00363 0
M  V30 17955 H 1730.72 -3.66221 -0.166608 0
M  V30 17956 H 1730.36 -4.3362 -2.54918 0
M  V30 17957 H 1730.06 -5.697 -1.43929 0
M  V30 17958 H 1731.59 -5.62765 -2.36914 0
M  V30 17959 H 1733 -5.73213 -0.100107 0
M  V30 17960 H 1731.4 -5.96503 0.656021 0
M  V30 17961 H 1732.47 -4.6841 1.25379 0
M  V30 17962 N 1733.81 -0.262893 -1.55392 0
M  V30 17963 C 1735.04 0.363972 -2.04181 0
M  V30 17964 C 1735.46 1.49585 -1.14044 0
M  V30 17965 O 1734.82 1.80785 -0.136553 0
M  V30 17966 C 1734.87 0.834041 -3.50822 0
M  V30 17967 O 1733.97 1.94234 -3.63795 0
M  V30 17968 H 1733.31 0.0771193 -0.659506 0
M  V30 17969 H 1735.84 -0.393623 -2.00778 0
M  V30 17970 H 1735.85 1.13304 -3.91952 0
M  V30 17971 H 1734.53 0.00584833 -4.159 0
M  V30 17972 H 1733.1 1.64681 -3.34566 0
M  V30 17973 N 1735.29 1.57597 0.0100073 0
M  V30 17974 C 1736.7 1.78287 0.554143 0
M  V30 17975 C 1737.05 0.896332 1.74529 0
M  V30 17976 O 1736.18 0.0961505 2.16186 0
M  V30 17977 C 1736.77 3.23331 1.01206 0
M  V30 17978 C 1735.33 3.45152 1.50157 0
M  V30 17979 C 1734.48 2.73654 0.448221 0
M  V30 17980 H 1737.43 1.57221 -0.216189 0
M  V30 17981 H 1737.45 3.30893 1.87856 0
M  V30 17982 H 1736.96 3.87829 0.144921 0
M  V30 17983 H 1735.06 2.85854 2.38994 0
M  V30 17984 H 1735.18 4.53813 1.53594 0
M  V30 17985 H 1733.54 2.3798 0.907603 0
M  V30 17986 H 1734.32 3.40846 -0.40978 0
M  V30 17987 N 1736.77 -0.282606 1.55045 0
M  V30 17988 C 1738.02 -1.01346 1.74852 0
M  V30 17989 C 1738.34 -1.87161 0.547327 0
M  V30 17990 O 1737.61 -1.9094 -0.438015 0
M  V30 17991 H 1736.19 -0.377178 0.644784 0
M  V30 17992 H 1738.85 -0.309152 1.92432 0
M  V30 17993 H 1737.94 -1.65596 2.64545 0
M  V30 17994 N 1738.25 -1.47815 -0.546675 0
M  V30 17995 C 1739.19 -1.61092 -1.65282 0
M  V30 17996 C 1740.16 -0.453531 -1.59788 0
M  V30 17997 O 1741.35 -0.674923 -1.78464 0
M  V30 17998 C 1738.49 -1.64103 -3.03585 0
M  V30 17999 C 1737.6 -2.90832 -3.19438 0
M  V30 18000 C 1736.74 -2.85112 -4.48201 0
M  V30 18001 C 1735.77 -4.06619 -4.57523 0
M  V30 18002 N 1734.91 -3.99073 -5.77655 0
M  V30 18003 H 1739.75 -2.55561 -1.53273 0
M  V30 18004 H 1737.29 -1.26752 -0.746477 0
M  V30 18005 H 1739.25 -1.63832 -3.83686 0
M  V30 18006 H 1737.88 -0.731382 -3.14405 0
M  V30 18007 H 1736.93 -3.00924 -2.327 0
M  V30 18008 H 1738.24 -3.80783 -3.22188 0
M  V30 18009 H 1737.39 -2.83149 -5.36574 0
M  V30 18010 H 1736.13 -1.92862 -4.47946 0
M  V30 18011 H 1735.14 -4.08876 -3.67561 0
M  V30 18012 H 1736.36 -5.00009 -4.5953 0
M  V30 18013 H 1734.31 -3.09633 -5.78328 0
M  V30 18014 H 1734.23 -4.82713 -5.81829 0
M  V30 18015 H 1735.49 -4.01143 -6.6836 0
M  V30 18016 N 1739.72 0.794246 -1.36123 0
M  V30 18017 C 1740.67 1.92808 -1.30108 0
M  V30 18018 C 1741.67 1.68289 -0.193734 0
M  V30 18019 O 1742.87 1.76354 -0.360454 0
M  V30 18020 H 1739.25 0.633671 -0.404926 0
M  V30 18021 H 1741.22 1.95 -2.2587 0
M  V30 18022 C 1739.97 3.29762 -1.10238 0
M  V30 18023 H 1739.29 3.49193 -1.9469 0
M  V30 18024 H 1740.73 4.09463 -1.10073 0
M  V30 18025 C 1739.19 3.36345 0.193222 0
M  V30 18026 O 1739.72 3.83832 1.18474 0
M  V30 18027 N 1737.92 2.89638 0.236243 0
M  V30 18028 H 1737.47 2.51186 -0.571245 0
M  V30 18029 H 1737.43 2.94424 1.1028 0
M  V30 18030 N 1741.2 1.20323 1.01785 0
M  V30 18031 C 1742.45 1.01063 1.75016 0
M  V30 18032 C 1742.77 -0.458458 1.89534 0
M  V30 18033 O 1742.04 -1.3315 1.43694 0
M  V30 18034 H 1740.62 0.370957 0.648383 0
M  V30 18035 H 1743.28 1.51411 1.22722 0
M  V30 18036 H 1742.38 1.46792 2.75424 0
M  V30 18037 N 1742.68 -1.21073 1.00892 0
M  V30 18038 C 1743.93 -1.90524 0.694879 0
M  V30 18039 C 1744.26 -1.78161 -0.772802 0
M  V30 18040 O 1743.53 -1.1608 -1.56063 0
M  V30 18041 C 1743.82 -3.42188 1.12156 0
M  V30 18042 C 1743.67 -3.63523 2.64898 0
M  V30 18043 C 1744.99 -4.34706 0.68694 0
M  V30 18044 H 1742.11 -0.69188 0.253912 0
M  V30 18045 H 1744.75 -1.42626 1.2553 0
M  V30 18046 H 1742.9 -3.83113 0.644742 0
M  V30 18047 H 1744.57 -3.31901 3.20374 0
M  V30 18048 H 1742.81 -3.07255 3.0623 0
M  V30 18049 H 1743.49 -4.69805 2.89806 0
M  V30 18050 H 1745.96 -4.01386 1.09674 0
M  V30 18051 H 1744.84 -5.3946 1.01361 0
M  V30 18052 H 1745.1 -4.40178 -0.411757 0
M  V30 18053 N 1744.16 -0.784156 -1.36707 0
M  V30 18054 C 1745.4 -0.354658 -1.99675 0
M  V30 18055 C 1745.74 1.06948 -1.62098 0
M  V30 18056 O 1745.01 1.73798 -0.873192 0
M  V30 18057 C 1745.3 -0.512421 -3.56435 0
M  V30 18058 C 1745.15 -1.97987 -4.03883 0
M  V30 18059 C 1746.47 0.075762 -4.40035 0
M  V30 18060 H 1743.59 -0.130338 -0.725383 0
M  V30 18061 H 1746.23 -0.989515 -1.62199 0
M  V30 18062 H 1744.38 0.0280323 -3.8849 0
M  V30 18063 H 1746.05 -2.58098 -3.82339 0
M  V30 18064 H 1744.29 -2.48433 -3.55617 0
M  V30 18065 H 1744.96 -2.04125 -5.12871 0
M  V30 18066 H 1747.44 -0.385522 -4.1431 0
M  V30 18067 H 1746.32 -0.0646832 -5.48862 0
M  V30 18068 H 1746.58 1.16735 -4.2641 0
M  V30 18069 N 1745.64 1.48215 -0.535727 0
M  V30 18070 C 1746.58 2.29711 0.223891 0
M  V30 18071 C 1747.55 1.37727 0.928471 0
M  V30 18072 O 1748.74 1.66691 0.928375 0
M  V30 18073 C 1745.88 3.21224 1.26131 0
M  V30 18074 C 1744.99 4.2829 0.564985 0
M  V30 18075 C 1744.13 5.06976 1.58583 0
M  V30 18076 C 1743.17 6.05838 0.873288 0
M  V30 18077 N 1742.3 6.77562 1.83994 0
M  V30 18078 H 1747.14 2.94154 -0.477242 0
M  V30 18079 H 1744.68 1.45008 -0.247186 0
M  V30 18080 H 1746.64 3.72685 1.87514 0
M  V30 18081 H 1745.27 2.58693 1.93075 0
M  V30 18082 H 1744.32 3.80051 -0.162916 0
M  V30 18083 H 1745.63 4.988 0.00578231 0
M  V30 18084 H 1744.79 5.6248 2.27379 0
M  V30 18085 H 1743.52 4.36319 2.17893 0
M  V30 18086 H 1742.53 5.49533 0.171286 0
M  V30 18087 H 1743.75 6.78497 0.286219 0
M  V30 18088 H 1741.7 6.09651 2.42202 0
M  V30 18089 H 1741.62 7.44167 1.33233 0
M  V30 18090 H 1742.89 7.37652 2.51971 0
M  V30 18091 N 1747.11 0.27113 1.5525 0
M  V30 18092 C 1748.39 -0.398374 1.915 0
M  V30 18093 C 1748.77 -1.74026 1.19491 0
M  V30 18094 O 1748.12 -2.26242 0.320425 0
M  V30 18095 C 1748.33 -0.542589 3.44756 0
M  V30 18096 C 1749.68 -0.827326 4.16462 0
M  V30 18097 O 1750.7 -0.627548 3.50628 0
M  V30 18098 O 1749.56 -1.20917 5.32955 0
M  V30 18099 H 1746.65 -0.217479 0.797892 0
M  V30 18100 H 1749.2 0.316988 1.66713 0
M  V30 18101 H 1747.97 0.401926 3.8923 0
M  V30 18102 H 1747.6 -1.30757 3.75484 0
M  V30 18103 N 1748.59 -1.576 -0.00164943 0
M  V30 18104 C 1749.84 -1.90778 -0.68786 0
M  V30 18105 C 1750.17 -0.872138 -1.73515 0
M  V30 18106 O 1749.45 0.109349 -1.94192 0
M  V30 18107 C 1749.73 -3.34539 -1.3325 0
M  V30 18108 C 1749.58 -4.48819 -0.296862 0
M  V30 18109 C 1750.9 -3.77693 -2.25911 0
M  V30 18110 H 1748.02 -0.69381 -0.24859 0
M  V30 18111 H 1750.66 -1.89936 0.0493059 0
M  V30 18112 H 1748.81 -3.35388 -1.9608 0
M  V30 18113 H 1750.48 -4.60106 0.331635 0
M  V30 18114 H 1748.73 -4.32123 0.38105 0
M  V30 18115 H 1749.4 -5.46362 -0.786927 0
M  V30 18116 H 1751.87 -3.78386 -1.73099 0
M  V30 18117 H 1750.75 -4.79037 -2.67983 0
M  V30 18118 H 1751.01 -3.11469 -3.1375 0
M  V30 18119 N 1750.07 0.274379 -1.55193 0
M  V30 18120 C 1751.32 1.00617 -1.75734 0
M  V30 18121 C 1751.65 1.86334 -0.557679 0
M  V30 18122 O 1750.9 1.90221 0.459848 0
M  V30 18123 C 1751.2 1.91958 -3.01475 0
M  V30 18124 C 1750.87 1.22002 -4.34081 0
M  V30 18125 C 1749.53 1.02658 -4.70122 0
M  V30 18126 C 1751.88 0.722087 -5.16174 0
M  V30 18127 C 1749.21 0.322465 -5.85813 0
M  V30 18128 C 1751.56 0.0315683 -6.32592 0
M  V30 18129 C 1750.22 -0.173595 -6.67274 0
M  V30 18130 H 1749.49 0.368182 -0.643058 0
M  V30 18131 H 1752.14 0.278579 -1.89463 0
M  V30 18132 H 1750.45 2.71333 -2.8264 0
M  V30 18133 H 1752.14 2.48698 -3.14564 0
M  V30 18134 H 1748.73 1.3807 -4.05752 0
M  V30 18135 H 1752.92 0.859163 -4.88807 0
M  V30 18136 H 1748.17 0.152775 -6.11209 0
M  V30 18137 H 1752.35 -0.362033 -6.95458 0
M  V30 18138 H 1749.97 -0.721178 -7.56771 0
M  V30 18139 N 1751.55 1.48103 0.538828 0
M  V30 18140 C 1752.51 1.61495 1.62641 0
M  V30 18141 C 1753.51 0.488792 1.53191 0
M  V30 18142 O 1754.7 0.754355 1.57019 0
M  V30 18143 C 1751.83 1.57681 3.02241 0
M  V30 18144 H 1753.03 2.58462 1.5211 0
M  V30 18145 H 1750.58 1.36567 0.760201 0
M  V30 18146 H 1751.31 0.621583 3.18287 0
M  V30 18147 H 1751.1 2.3943 3.10509 0
M  V30 18148 H 1752.59 1.70228 3.81329 0
M  V30 18149 N 1753.03 -0.787016 1.36542 0
M  V30 18150 C 1754.27 -1.54499 1.30906 0
M  V30 18151 C 1754.6 -1.94183 -0.110963 0
M  V30 18152 O 1753.86 -1.63149 -1.08079 0
M  V30 18153 C 1754.16 -2.83235 2.17974 0
M  V30 18154 C 1753.82 -2.62677 3.66485 0
M  V30 18155 C 1752.48 -2.56779 4.06962 0
M  V30 18156 C 1754.84 -2.43853 4.60636 0
M  V30 18157 C 1752.16 -2.30026 5.39727 0
M  V30 18158 C 1754.52 -2.18626 5.93621 0
M  V30 18159 C 1753.18 -2.11162 6.33219 0
M  V30 18160 H 1752.45 -0.565352 0.479017 0
M  V30 18161 H 1755.1 -0.907794 1.68616 0
M  V30 18162 H 1753.4 -3.51435 1.73208 0
M  V30 18163 H 1755.1 -3.41038 2.10936 0
M  V30 18164 H 1751.69 -2.68125 3.34376 0
M  V30 18165 H 1755.87 -2.4741 4.30235 0
M  V30 18166 H 1751.13 -2.22731 5.69386 0
M  V30 18167 H 1755.3 -2.03056 6.66139 0
M  V30 18168 H 1752.93 -1.90195 7.36023 0
M  V30 18169 N 1754.5 -1.20861 -1.01145 0
M  V30 18170 C 1755.75 -1.0199 -1.74478 0
M  V30 18171 C 1756.07 0.4484 -1.89775 0
M  V30 18172 O 1755.34 1.32386 -1.44398 0
M  V30 18173 H 1753.92 -0.37439 -0.646406 0
M  V30 18174 H 1756.59 -1.5206 -1.21917 0
M  V30 18175 H 1755.68 -1.48251 -2.74642 0
M  V30 18176 N 1755.98 1.20536 -1.01532 0
M  V30 18177 C 1757.23 1.89496 -0.70254 0
M  V30 18178 C 1757.55 1.7915 0.770072 0
M  V30 18179 O 1756.82 1.19308 1.55379 0
M  V30 18180 H 1755.4 0.701447 -0.256868 0
M  V30 18181 H 1758.06 1.46394 -1.28665 0
M  V30 18182 H 1757.16 2.96155 -0.984817 0
M  V30 18183 N 1757.46 0.791395 1.36289 0
M  V30 18184 C 1758.42 0.197069 2.28351 0
M  V30 18185 C 1759.42 -0.606748 1.48913 0
M  V30 18186 O 1760.61 -0.427453 1.68874 0
M  V30 18187 C 1757.75 -0.727009 3.33058 0
M  V30 18188 H 1758.94 1.00885 2.82422 0
M  V30 18189 H 1756.49 0.560959 1.45887 0
M  V30 18190 H 1757.23 -1.56306 2.84146 0
M  V30 18191 H 1757.01 -0.152537 3.91803 0
M  V30 18192 H 1758.5 -1.13765 4.01805 0
M  V30 18193 N 1758.94 -1.47929 0.54358 0
M  V30 18194 C 1760.19 -2.02795 0.014488 0
M  V30 18195 C 1760.52 -1.41848 -1.32638 0
M  V30 18196 O 1759.79 -0.569099 -1.85988 0
M  V30 18197 C 1760.08 -3.5998 -0.093097 0
M  V30 18198 C 1759.93 -4.31384 1.2739 0
M  V30 18199 C 1761.25 -4.32521 -0.813251 0
M  V30 18200 H 1758.37 -0.736969 0.00673905 0
M  V30 18201 H 1761.01 -1.76507 0.703238 0
M  V30 18202 H 1759.16 -3.82508 -0.679685 0
M  V30 18203 H 1760.83 -4.20235 1.90264 0
M  V30 18204 H 1759.07 -3.9227 1.85221 0
M  V30 18205 H 1759.75 -5.39856 1.15148 0
M  V30 18206 H 1762.22 -4.14903 -0.315334 0
M  V30 18207 H 1761.1 -5.42161 -0.857456 0
M  V30 18208 H 1761.36 -4.00768 -1.86649 0
M  V30 18209 N 1760.42 -0.27936 -1.55104 0
M  V30 18210 C 1761.33 0.616249 -2.26361 0
M  V30 18211 C 1762.34 1.16656 -1.29102 0
M  V30 18212 O 1763.52 1.19596 -1.62046 0
M  V30 18213 C 1760.58 1.78191 -2.97403 0
M  V30 18214 C 1759.65 1.26785 -4.10151 0
M  V30 18215 C 1758.88 2.37795 -4.77796 0
M  V30 18216 O 1759.1 3.57242 -4.44673 0
M  V30 18217 O 1758.04 2.05711 -5.65656 0
M  V30 18218 H 1761.86 0.0388715 -3.03675 0
M  V30 18219 H 1759.45 -0.0466058 -1.49327 0
M  V30 18220 H 1761.33 2.4615 -3.42036 0
M  V30 18221 H 1760 2.3463 -2.23003 0
M  V30 18222 H 1758.91 0.554608 -3.69966 0
M  V30 18223 H 1760.24 0.749157 -4.86465 0
M  V30 18224 N 1761.9 1.57599 -0.0067085 0
M  V30 18225 C 1762.84 2.09973 1.00071 0
M  V30 18226 C 1763.84 1.02121 1.35158 0
M  V30 18227 O 1765.04 1.20579 1.33644 0
M  V30 18228 H 1761.42 0.670547 0.340398 0
M  V30 18229 H 1763.39 2.93593 0.533471 0
M  V30 18230 C 1762.14 2.62376 2.28153 0
M  V30 18231 H 1761.46 3.45002 2.02024 0
M  V30 18232 H 1762.9 3.02694 2.96905 0
M  V30 18233 C 1761.36 1.54093 2.99595 0
M  V30 18234 O 1761.89 0.927722 3.9084 0
M  V30 18235 N 1760.1 1.26676 2.61537 0
M  V30 18236 H 1759.64 1.76728 1.87417 0
M  V30 18237 H 1759.6 0.544464 3.0965 0
M  V30 18238 N 1763.37 -0.266145 1.55336 0
M  V30 18239 C 1764.78 -0.836683 1.66903 0
M  V30 18240 C 1765.14 -1.86781 0.600597 0
M  V30 18241 O 1764.26 -2.14872 -0.256674 0
M  V30 18242 C 1764.86 -1.52436 3.0257 0
M  V30 18243 C 1763.41 -2.04284 3.1614 0
M  V30 18244 C 1762.56 -0.887248 2.62723 0
M  V30 18245 H 1765.51 -0.0423472 1.58643 0
M  V30 18246 H 1765.53 -2.39163 2.95941 0
M  V30 18247 H 1765.05 -0.773649 3.80311 0
M  V30 18248 H 1763.15 -2.82296 2.43187 0
M  V30 18249 H 1763.26 -2.25345 4.22796 0
M  V30 18250 H 1761.62 -1.28251 2.20054 0
M  V30 18251 H 1762.41 -0.14993 3.42972 0
M  V30 18252 N 1764.85 -1.48386 -0.530967 0
M  V30 18253 C 1765.76 -1.65516 -1.66257 0
M  V30 18254 C 1766.78 -0.5377 -1.65483 0
M  V30 18255 O 1767.95 -0.808642 -1.84453 0
M  V30 18256 C 1765.02 -1.68999 -3.02722 0
M  V30 18257 C 1764.08 -2.92365 -3.14358 0
M  V30 18258 C 1763.31 -2.95672 -4.44313 0
M  V30 18259 O 1763.54 -2.07417 -5.31352 0
M  V30 18260 O 1762.47 -3.87831 -4.60294 0
M  V30 18261 H 1766.3 -2.61321 -1.54742 0
M  V30 18262 H 1763.88 -1.31776 -0.703946 0
M  V30 18263 H 1765.76 -1.73816 -3.83883 0
M  V30 18264 H 1764.44 -0.763675 -3.14563 0
M  V30 18265 H 1763.34 -2.93081 -2.32496 0
M  V30 18266 H 1764.68 -3.84378 -3.07433 0
M  V30 18267 N 1766.33 0.779763 -1.36958 0
M  V30 18268 C 1767.56 1.56648 -1.34704 0
M  V30 18269 C 1767.97 1.89065 0.071459 0
M  V30 18270 O 1767.31 1.51325 1.04146 0
M  V30 18271 C 1767.37 2.90862 -2.11281 0
M  V30 18272 C 1767.04 2.81123 -3.60304 0
M  V30 18273 C 1768.03 2.52702 -4.54354 0
M  V30 18274 C 1765.72 2.99397 -4.0332 0
M  V30 18275 C 1767.71 2.42671 -5.89398 0
M  V30 18276 C 1765.4 2.88987 -5.38451 0
M  V30 18277 C 1766.4 2.60663 -6.31303 0
M  V30 18278 O 1766.09 2.50264 -7.63952 0
M  V30 18279 H 1765.82 0.492209 -0.463364 0
M  V30 18280 H 1768.37 0.974946 -1.80787 0
M  V30 18281 H 1766.6 3.52104 -1.59875 0
M  V30 18282 H 1768.29 3.52203 -2.01762 0
M  V30 18283 H 1769.06 2.38277 -4.22432 0
M  V30 18284 H 1764.94 3.20446 -3.31414 0
M  V30 18285 H 1768.48 2.20484 -6.6184 0
M  V30 18286 H 1764.38 3.02977 -5.69978 0
M  V30 18287 H 1765.14 2.65674 -7.74183 0
M  V30 18288 N 1767.81 1.21396 1.00503 0
M  V30 18289 C 1768.74 0.997268 2.11132 0
M  V30 18290 C 1769.72 -0.0777455 1.69922 0
M  V30 18291 O 1770.9 0.08208 1.94026 0
M  V30 18292 C 1768.03 0.561122 3.42737 0
M  V30 18293 C 1766.99 1.58069 3.97741 0
M  V30 18294 C 1766.31 1.00079 5.25251 0
M  V30 18295 C 1767.61 2.96754 4.29807 0
M  V30 18296 H 1769.31 1.92255 2.29518 0
M  V30 18297 H 1766.85 0.925776 1.10297 0
M  V30 18298 H 1768.81 0.396701 4.19529 0
M  V30 18299 H 1767.53 -0.399804 3.24144 0
M  V30 18300 H 1766.19 1.73268 3.23069 0
M  V30 18301 H 1765.84 0.0315797 5.0299 0
M  V30 18302 H 1765.54 1.68182 5.63017 0
M  V30 18303 H 1767.06 0.847687 6.04687 0
M  V30 18304 H 1768.48 2.85 4.97441 0
M  V30 18305 H 1766.87 3.61871 4.78717 0
M  V30 18306 H 1767.94 3.47602 3.38084 0
M  V30 18307 N 1769.29 -1.19996 1.0217 0
M  V30 18308 C 1770.51 -1.93466 0.733374 0
M  V30 18309 C 1770.93 -1.75074 -0.70672 0
M  V30 18310 O 1770.29 -1.068 -1.47987 0
M  V30 18311 C 1770.34 -3.45425 1.06601 0
M  V30 18312 O 1770.06 -3.6322 2.44954 0
M  V30 18313 C 1771.56 -4.36032 0.799458 0
M  V30 18314 H 1768.78 -0.614762 0.268903 0
M  V30 18315 H 1771.32 -1.52343 1.36426 0
M  V30 18316 H 1769.48 -3.84409 0.480432 0
M  V30 18317 H 1769.89 -4.57155 2.57117 0
M  V30 18318 H 1771.37 -5.41287 1.08223 0
M  V30 18319 H 1771.84 -4.38392 -0.266279 0
M  V30 18320 H 1772.45 -4.02718 1.36743 0
M  V30 18321 N 1770.76 -0.798611 -1.35867 0
M  V30 18322 C 1772.17 -0.437243 -1.81508 0
M  V30 18323 C 1772.53 1.03987 -1.66376 0
M  V30 18324 O 1771.65 1.80751 -1.18988 0
M  V30 18325 C 1772.25 -0.786865 -3.29536 0
M  V30 18326 C 1770.8 -0.478204 -3.7335 0
M  V30 18327 C 1769.95 -1.01668 -2.5799 0
M  V30 18328 H 1772.9 -0.990957 -1.23959 0
M  V30 18329 H 1772.92 -0.0813864 -3.80413 0
M  V30 18330 H 1772.44 -1.86198 -3.40517 0
M  V30 18331 H 1770.54 0.588503 -3.67923 0
M  V30 18332 H 1770.65 -1.00525 -4.68435 0
M  V30 18333 H 1769.01 -0.439417 -2.50881 0
M  V30 18334 H 1769.8 -2.09775 -2.71753 0
M  V30 18335 N 1772.24 1.47639 -0.551417 0
M  V30 18336 C 1773.17 2.27972 0.236919 0
M  V30 18337 C 1774.19 1.3666 0.884752 0
M  V30 18338 O 1775.38 1.61532 0.75958 0
M  V30 18339 C 1772.48 3.10738 1.3526 0
M  V30 18340 C 1771.65 4.29972 0.802659 0
M  V30 18341 C 1770.71 4.94379 1.80212 0
M  V30 18342 O 1769.73 5.52946 1.35053 0
M  V30 18343 N 1770.94 4.8855 3.13526 0
M  V30 18344 H 1773.7 2.9627 -0.452154 0
M  V30 18345 H 1771.26 1.57204 -0.387116 0
M  V30 18346 H 1773.25 3.50692 2.01983 0
M  V30 18347 H 1771.82 2.44721 1.945 0
M  V30 18348 H 1771.04 3.94178 -0.0411825 0
M  V30 18349 H 1772.33 5.07109 0.41448 0
M  V30 18350 H 1771.73 4.42157 3.52865 0
M  V30 18351 H 1770.29 5.32541 3.75823 0
M  V30 18352 N 1773.72 0.287581 1.54954 0
M  V30 18353 C 1774.97 -0.324967 1.9947 0
M  V30 18354 C 1775.29 -1.55437 1.17747 0
M  V30 18355 O 1774.56 -1.9403 0.270067 0
M  V30 18356 H 1773.14 -0.123062 0.736794 0
M  V30 18357 H 1775.8 0.395805 1.90839 0
M  V30 18358 H 1774.9 -0.606265 3.06155 0
M  V30 18359 N 1775.2 -1.57593 0.0150662 0
M  V30 18360 C 1776.45 -1.90836 -0.665282 0
M  V30 18361 C 1776.77 -0.890693 -1.73469 0
M  V30 18362 O 1776.04 0.0698113 -1.95776 0
M  V30 18363 H 1774.62 -0.704377 -0.24872 0
M  V30 18364 H 1777.28 -1.94809 0.0595521 0
M  V30 18365 H 1776.38 -2.91043 -1.12697 0
M  V30 18366 N 1776.68 0.257904 -1.55475 0
M  V30 18367 C 1777.64 1.30244 -1.88598 0
M  V30 18368 C 1778.64 1.4162 -0.761604 0
M  V30 18369 O 1779.83 1.4051 -1.02968 0
M  V30 18370 C 1776.96 2.68173 -2.10466 0
M  V30 18371 H 1778.15 1.02098 -2.81986 0
M  V30 18372 H 1775.71 0.496685 -1.48198 0
M  V30 18373 H 1776.44 3.01476 -1.1951 0
M  V30 18374 H 1776.23 2.61299 -2.92344 0
M  V30 18375 H 1777.72 3.43616 -2.37313 0
M  V30 18376 N 1778.15 1.48666 0.52309 0
M  V30 18377 C 1779.12 1.63211 1.60919 0
M  V30 18378 C 1780.12 0.505012 1.52664 0
M  V30 18379 O 1781.31 0.770967 1.56211 0
M  V30 18380 C 1778.44 1.60878 3.00551 0
M  V30 18381 H 1779.63 2.60061 1.4936 0
M  V30 18382 H 1777.19 1.37366 0.745674 0
M  V30 18383 H 1777.92 0.655306 3.1761 0
M  V30 18384 H 1777.71 2.4271 3.07952 0
M  V30 18385 H 1779.2 1.74263 3.79502 0
M  V30 18386 N 1779.63 -0.772489 1.37369 0
M  V30 18387 C 1781.04 -1.34873 1.29098 0
M  V30 18388 C 1781.39 -1.96103 -0.0617433 0
M  V30 18389 O 1780.52 -1.93764 -0.963562 0
M  V30 18390 C 1781.11 -2.45218 2.33781 0
M  V30 18391 C 1779.67 -2.98612 2.29146 0
M  V30 18392 C 1778.82 -1.71823 2.17651 0
M  V30 18393 H 1781.77 -0.572805 1.48002 0
M  V30 18394 H 1781.79 -3.24679 1.98404 0
M  V30 18395 H 1781.3 -2.00624 3.32222 0
M  V30 18396 H 1779.41 -3.47583 1.34225 0
M  V30 18397 H 1779.52 -3.54276 3.22529 0
M  V30 18398 H 1777.88 -1.94719 1.64185 0
M  V30 18399 H 1778.67 -1.29334 3.18006 0
M  V30 18400 N 1781.11 -1.21927 -0.998575 0
M  V30 18401 C 1782.04 -0.942076 -2.08944 0
M  V30 18402 C 1783.06 0.0771683 -1.62617 0
M  V30 18403 O 1784.24 -0.156133 -1.77816 0
M  V30 18404 C 1781.34 -0.394201 -3.366 0
M  V30 18405 C 1780.52 -1.46931 -4.11983 0
M  V30 18406 C 1779.58 -0.929531 -5.17925 0
M  V30 18407 O 1778.6 -1.61444 -5.45824 0
M  V30 18408 N 1779.8 0.251965 -5.79953 0
M  V30 18409 H 1782.57 -1.88119 -2.33306 0
M  V30 18410 H 1780.13 -1.12539 -1.16389 0
M  V30 18411 H 1782.12 -0.0185416 -4.04696 0
M  V30 18412 H 1780.69 0.449884 -3.09346 0
M  V30 18413 H 1779.91 -2.01854 -3.38598 0
M  V30 18414 H 1781.2 -2.19284 -4.59121 0
M  V30 18415 H 1780.6 0.825333 -5.59647 0
M  V30 18416 H 1779.16 0.569068 -6.49311 0
M  V30 18417 N 1782.59 1.19452 -1.02805 0
M  V30 18418 C 1784 1.70804 -0.753845 0
M  V30 18419 C 1784.35 1.8225 0.726584 0
M  V30 18420 O 1783.48 1.49307 1.56641 0
M  V30 18421 C 1784.07 3.10227 -1.36178 0
M  V30 18422 C 1782.63 3.58842 -1.13618 0
M  V30 18423 C 1781.78 2.3573 -1.46036 0
M  V30 18424 H 1784.73 1.04305 -1.19608 0
M  V30 18425 H 1784.75 3.72867 -0.758315 0
M  V30 18426 H 1784.26 3.01864 -2.43925 0
M  V30 18427 H 1782.36 3.72521 -0.0768914 0
M  V30 18428 H 1782.47 4.43008 -1.82431 0
M  V30 18429 H 1780.84 2.39027 -0.879669 0
M  V30 18430 H 1781.62 2.29998 -2.54864 0
M  V30 18431 N 1784.07 0.805805 1.35442 0
M  V30 18432 C 1785.02 0.188328 2.27221 0
M  V30 18433 C 1786 -0.637384 1.47737 0
M  V30 18434 O 1787.19 -0.49477 1.69944 0
M  V30 18435 C 1784.32 -0.662862 3.3684 0
M  V30 18436 C 1783.41 0.172537 4.23749 0
M  V30 18437 N 1783.8 1.23516 4.90487 0
M  V30 18438 C 1782.1 -0.0459629 4.45976 0
M  V30 18439 C 1782.8 1.74511 5.54906 0
M  V30 18440 N 1781.77 1.05168 5.3333 0
M  V30 18441 H 1785.58 1.00141 2.76313 0
M  V30 18442 H 1783.09 0.646886 1.4896 0
M  V30 18443 H 1785.09 -1.12126 4.01539 0
M  V30 18444 H 1783.75 -1.4743 2.893 0
M  V30 18445 H 1784.76 1.6178 4.91983 0
M  V30 18446 H 1781.43 -0.826604 4.09235 0
M  V30 18447 H 1782.82 2.63317 6.18154 0
M  V30 18448 N 1785.54 -1.47344 0.559239 0
M  V30 18449 C 1786.96 -1.86272 0.126394 0
M  V30 18450 C 1787.31 -1.46563 -1.30437 0
M  V30 18451 O 1786.43 -0.869624 -1.98158 0
M  V30 18452 C 1787.03 -3.38068 0.222602 0
M  V30 18453 C 1785.59 -3.7608 -0.155219 0
M  V30 18454 C 1784.73 -2.71394 0.569244 0
M  V30 18455 H 1787.68 -1.38833 0.768845 0
M  V30 18456 H 1787.7 -3.76382 -0.558262 0
M  V30 18457 H 1787.22 -3.66938 1.26404 0
M  V30 18458 H 1785.32 -3.52826 -1.19768 0
M  V30 18459 H 1785.43 -4.78662 0.204756 0
M  V30 18460 H 1783.79 -2.54697 0.0120996 0
M  V30 18461 H 1784.58 -3.03107 1.61187 0
M  V30 18462 N 1787.02 -0.295795 -1.54799 0
M  V30 18463 C 1788.43 0.19789 -1.85648 0
M  V30 18464 C 1788.78 1.53834 -1.21776 0
M  V30 18465 O 1787.91 2.10218 -0.513554 0
M  V30 18466 C 1788.5 0.365844 -3.36819 0
M  V30 18467 C 1787.06 0.80375 -3.67718 0
M  V30 18468 C 1786.21 -0.0909572 -2.77151 0
M  V30 18469 H 1789.16 -0.516968 -1.50044 0
M  V30 18470 H 1789.18 1.20123 -3.61041 0
M  V30 18471 H 1788.69 -0.60991 -3.83278 0
M  V30 18472 H 1786.8 1.79024 -3.26774 0
M  V30 18473 H 1786.91 0.626745 -4.74983 0
M  V30 18474 H 1785.27 0.428882 -2.51063 0
M  V30 18475 H 1786.06 -1.06297 -3.26429 0
M  V30 18476 N 1788.5 1.57583 -0.0234236 0
M  V30 18477 C 1789.91 1.79422 0.516201 0
M  V30 18478 C 1790.26 0.933151 1.72588 0
M  V30 18479 O 1789.39 0.141985 2.15934 0
M  V30 18480 C 1789.98 3.25405 0.943248 0
M  V30 18481 C 1788.54 3.48259 1.42802 0
M  V30 18482 C 1787.69 2.74543 0.390074 0
M  V30 18483 H 1790.64 1.56727 -0.24949 0
M  V30 18484 H 1790.66 3.34803 1.80795 0
M  V30 18485 H 1790.17 3.88049 0.0626242 0
M  V30 18486 H 1788.27 2.9086 2.32877 0
M  V30 18487 H 1788.39 4.56968 1.43933 0
M  V30 18488 H 1786.75 2.39852 0.856919 0
M  V30 18489 H 1787.53 3.399 -0.481986 0
M  V30 18490 N 1789.98 -0.249655 1.5561 0
M  V30 18491 C 1790.94 -1.29242 1.89286 0
M  V30 18492 C 1791.94 -1.41214 0.769104 0
M  V30 18493 O 1793.13 -1.39962 1.03712 0
M  V30 18494 C 1790.26 -2.67053 2.11885 0
M  V30 18495 H 1791.46 -1.00601 2.82523 0
M  V30 18496 H 1789.01 -0.488819 1.4846 0
M  V30 18497 H 1789.75 -3.00838 1.21107 0
M  V30 18498 H 1789.53 -2.59745 2.93726 0
M  V30 18499 H 1791.02 -3.42353 2.39132 0
M  V30 18500 N 1791.46 -1.48941 -0.515198 0
M  V30 18501 C 1792.7 -1.5771 -1.27019 0
M  V30 18502 C 1793.03 -0.257484 -1.92788 0
M  V30 18503 O 1792.29 0.753481 -1.80613 0
M  V30 18504 C 1792.59 -2.67508 -2.37011 0
M  V30 18505 C 1792.25 -4.09471 -1.88796 0
M  V30 18506 C 1790.91 -4.48108 -1.75365 0
M  V30 18507 C 1793.27 -4.98378 -1.52543 0
M  V30 18508 C 1790.59 -5.73438 -1.24038 0
M  V30 18509 C 1792.95 -6.24212 -1.02673 0
M  V30 18510 C 1791.61 -6.61691 -0.878703 0
M  V30 18511 H 1790.88 -0.577101 -0.464796 0
M  V30 18512 H 1793.53 -1.82718 -0.573279 0
M  V30 18513 H 1791.83 -2.36417 -3.12433 0
M  V30 18514 H 1793.53 -2.71505 -2.95104 0
M  V30 18515 H 1790.12 -3.78967 -2.00205 0
M  V30 18516 H 1794.3 -4.69194 -1.61773 0
M  V30 18517 H 1789.56 -6.01188 -1.11277 0
M  V30 18518 H 1793.73 -6.9249 -0.73697 0
M  V30 18519 H 1791.36 -7.58691 -0.478792 0
M  V30 18520 N 1792.94 0.765193 -1.37777 0
M  V30 18521 C 1794.16 1.55948 -1.3673 0
M  V30 18522 C 1794.59 1.8805 0.0435817 0
M  V30 18523 O 1793.94 1.49718 1.02246 0
M  V30 18524 C 1793.99 2.84245 -2.21895 0
M  V30 18525 O 1793.1 3.78903 -1.62807 0
M  V30 18526 H 1792.44 0.472127 -0.466897 0
M  V30 18527 H 1794.97 0.946556 -1.81388 0
M  V30 18528 H 1794.98 3.33284 -2.35342 0
M  V30 18529 H 1793.65 2.60209 -3.24444 0
M  V30 18530 H 1792.23 3.37568 -1.58437 0
M  V30 18531 N 1794.41 1.22455 0.992094 0
M  V30 18532 C 1795.82 1.04629 1.54627 0
M  V30 18533 C 1796.18 -0.390011 1.92285 0
M  V30 18534 O 1795.3 -1.27511 1.74842 0
M  V30 18535 C 1795.9 1.89306 2.80978 0
M  V30 18536 C 1794.45 1.75775 3.32836 0
M  V30 18537 C 1793.6 1.85724 2.05917 0
M  V30 18538 H 1796.55 1.36288 0.813089 0
M  V30 18539 H 1796.57 1.41095 3.53373 0
M  V30 18540 H 1796.09 2.93836 2.53539 0
M  V30 18541 H 1794.19 0.739821 3.65181 0
M  V30 18542 H 1794.3 2.58491 4.03385 0
M  V30 18543 H 1792.66 1.29173 2.19514 0
M  V30 18544 H 1793.45 2.91787 1.80874 0
M  V30 18545 N 1795.89 -1.18905 1.03437 0
M  V30 18546 C 1796.85 -2.20529 0.624461 0
M  V30 18547 C 1797.85 -1.57688 -0.314824 0
M  V30 18548 O 1799.04 -1.73906 -0.101082 0
M  V30 18549 C 1796.18 -3.40793 -0.0854166 0
M  V30 18550 H 1797.37 -2.58309 1.5237 0
M  V30 18551 H 1794.92 -1.32679 0.826189 0
M  V30 18552 H 1795.66 -3.08538 -0.998747 0
M  V30 18553 H 1795.44 -3.87642 0.589596 0
M  V30 18554 H 1796.93 -4.16055 -0.358938 0
M  V30 18555 N 1797.37 -0.812977 -1.35013 0
M  V30 18556 C 1798.62 -0.396345 -1.98583 0
M  V30 18557 C 1798.94 1.0381 -1.6448 0
M  V30 18558 O 1798.2 1.73604 -0.903344 0
M  V30 18559 C 1798.5 -0.534083 -3.53387 0
M  V30 18560 C 1798.16 -1.93278 -4.07375 0
M  V30 18561 C 1796.83 -2.31543 -4.21831 0
M  V30 18562 C 1799.18 -2.84756 -4.36535 0
M  V30 18563 C 1796.51 -3.60641 -4.62769 0
M  V30 18564 C 1798.86 -4.13308 -4.78915 0
M  V30 18565 C 1797.52 -4.51563 -4.91576 0
M  V30 18566 H 1796.79 -0.145033 -0.726668 0
M  V30 18567 H 1799.44 -1.035 -1.61121 0
M  V30 18568 H 1797.74 0.188002 -3.91349 0
M  V30 18569 H 1799.44 -0.192396 -4.00538 0
M  V30 18570 H 1796.03 -1.62551 -3.96579 0
M  V30 18571 H 1800.22 -2.56441 -4.24914 0
M  V30 18572 H 1795.47 -3.9012 -4.70761 0
M  V30 18573 H 1799.65 -4.84287 -5.00439 0
M  V30 18574 H 1797.27 -5.51649 -5.23056 0
M  V30 18575 N 1798.85 1.47045 -0.567045 0
M  V30 18576 C 1800.12 1.9559 0.0194544 0
M  V30 18577 C 1800.5 1.5097 1.47551 0
M  V30 18578 O 1799.85 0.753072 2.15734 0
M  V30 18579 C 1800.06 3.48734 -0.136263 0
M  V30 18580 C 1801.41 4.246 0.00401745 0
M  V30 18581 O 1802.43 3.56142 -0.0643042 0
M  V30 18582 O 1801.29 5.46287 0.152706 0
M  V30 18583 H 1798.39 0.82492 0.0586233 0
M  V30 18584 H 1800.93 1.57401 -0.634262 0
M  V30 18585 H 1799.71 3.74048 -1.14909 0
M  V30 18586 H 1799.33 3.93713 0.554612 0
M  V30 18587 N 1800.33 0.304 1.5464 0
M  V30 18588 C 1801.27 -0.586475 2.25085 0
M  V30 18589 C 1802.27 -1.13458 1.25792 0
M  V30 18590 O 1803.47 -1.08487 1.43633 0
M  V30 18591 H 1799.85 -0.20774 0.722737 0
M  V30 18592 H 1801.82 0.0301682 2.98385 0
M  V30 18593 C 1800.57 -1.74539 3.00718 0
M  V30 18594 H 1799.89 -1.33287 3.76928 0
M  V30 18595 H 1801.33 -2.34447 3.53285 0
M  V30 18596 C 1799.79 -2.65132 2.07862 0
M  V30 18597 O 1800.32 -3.6631 1.64863 0
M  V30 18598 N 1798.53 -2.32932 1.73756 0
M  V30 18599 H 1798.07 -1.50698 2.08921 0
M  V30 18600 H 1798.03 -2.93811 1.11904 0
M  V30 18601 N 1801.8 -1.57568 0.0317802 0
M  V30 18602 C 1802.73 -2.13412 -0.947499 0
M  V30 18603 C 1803.71 -1.05091 -1.33753 0
M  V30 18604 O 1804.9 -1.32936 -1.41568 0
M  V30 18605 C 1802.03 -2.66337 -2.22895 0
M  V30 18606 C 1800.98 -3.79469 -1.97958 0
M  V30 18607 C 1800.31 -4.18833 -3.3239 0
M  V30 18608 C 1801.61 -5.05432 -1.31664 0
M  V30 18609 H 1803.3 -2.95488 -0.482417 0
M  V30 18610 H 1800.85 -1.42142 -0.230603 0
M  V30 18611 H 1802.8 -3.04039 -2.91784 0
M  V30 18612 H 1801.53 -1.81426 -2.71574 0
M  V30 18613 H 1800.19 -3.42209 -1.31485 0
M  V30 18614 H 1799.83 -3.30899 -3.78833 0
M  V30 18615 H 1799.53 -4.95071 -3.16511 0
M  V30 18616 H 1801.06 -4.5912 -4.02544 0
M  V30 18617 H 1802.47 -5.40704 -1.90558 0
M  V30 18618 H 1800.87 -5.86686 -1.26173 0
M  V30 18619 H 1801.94 -4.84032 -0.28996 0
M  V30 18620 N 1803.28 0.241399 -1.5574 0
M  V30 18621 C 1804.51 0.984645 -1.81627 0
M  V30 18622 C 1804.92 1.79234 -0.605959 0
M  V30 18623 O 1804.26 1.78479 0.434841 0
M  V30 18624 C 1804.33 1.96647 -3.00949 0
M  V30 18625 C 1803.99 1.34519 -4.36754 0
M  V30 18626 C 1804.99 0.744925 -5.14536 0
M  V30 18627 C 1802.67 1.3629 -4.83457 0
M  V30 18628 C 1804.67 0.170657 -6.37171 0
M  V30 18629 C 1802.35 0.784784 -6.0604 0
M  V30 18630 C 1803.35 0.189694 -6.82737 0
M  V30 18631 O 1803.04 -0.379483 -8.03004 0
M  V30 18632 H 1802.77 0.295118 -0.608179 0
M  V30 18633 H 1805.32 0.267851 -2.03646 0
M  V30 18634 H 1803.55 2.72172 -2.74699 0
M  V30 18635 H 1805.24 2.5736 -3.1388 0
M  V30 18636 H 1806.01 0.723706 -4.7957 0
M  V30 18637 H 1801.89 1.81548 -4.23747 0
M  V30 18638 H 1805.43 -0.294459 -6.96978 0
M  V30 18639 H 1801.33 0.803348 -6.40482 0
M  V30 18640 H 1802.1 -0.271879 -8.18048 0
M  V30 18641 N 1804.76 1.49212 0.507292 0
M  V30 18642 C 1805.99 1.61845 1.28412 0
M  V30 18643 C 1806.4 0.286619 1.87016 0
M  V30 18644 O 1805.74 -0.737169 1.6826 0
M  V30 18645 C 1805.8 2.62374 2.45764 0
M  V30 18646 C 1805.47 4.06882 2.08077 0
M  V30 18647 C 1806.46 4.93879 1.62418 0
M  V30 18648 C 1804.15 4.52574 2.17904 0
M  V30 18649 C 1806.14 6.24603 1.27082 0
M  V30 18650 C 1803.83 5.83313 1.8218 0
M  V30 18651 C 1804.83 6.69151 1.36843 0
M  V30 18652 O 1804.52 7.97454 1.01598 0
M  V30 18653 H 1804.25 0.547926 0.395921 0
M  V30 18654 H 1806.8 1.95937 0.616255 0
M  V30 18655 H 1805.03 2.23449 3.15606 0
M  V30 18656 H 1806.72 2.64603 3.07799 0
M  V30 18657 H 1807.49 4.59808 1.54277 0
M  V30 18658 H 1803.37 3.85932 2.52146 0
M  V30 18659 H 1806.91 6.91557 0.91623 0
M  V30 18660 H 1802.81 6.16913 1.89969 0
M  V30 18661 H 1803.58 8.10409 1.148 0
M  V30 18662 N 1806.24 -0.757876 1.38181 0
M  V30 18663 C 1807.48 -1.51822 1.35358 0
M  V30 18664 C 1807.84 -1.92314 -0.0574579 0
M  V30 18665 O 1807.13 -1.62246 -1.01916 0
M  V30 18666 C 1807.33 -2.78548 2.23933 0
M  V30 18667 C 1807.16 -2.50444 3.73508 0
M  V30 18668 C 1805.93 -2.43877 4.42552 0
M  V30 18669 C 1808.12 -2.17507 4.66042 0
M  V30 18670 N 1806.11 -2.08003 5.77588 0
M  V30 18671 C 1807.48 -1.91888 5.89558 0
M  V30 18672 C 1809.53 -2.0378 4.54288 0
M  V30 18673 C 1808.23 -1.53928 7.02637 0
M  V30 18674 C 1810.26 -1.67221 5.67266 0
M  V30 18675 C 1809.62 -1.42472 6.89841 0
M  V30 18676 H 1805.72 -0.555312 0.550593 0
M  V30 18677 H 1808.31 -0.882923 1.7353 0
M  V30 18678 H 1806.48 -3.39893 1.87956 0
M  V30 18679 H 1808.21 -3.44565 2.12267 0
M  V30 18680 H 1804.96 -2.60203 3.95716 0
M  V30 18681 H 1805.39 -1.92723 6.48989 0
M  V30 18682 H 1810.03 -2.21592 3.60079 0
M  V30 18683 H 1807.75 -1.34856 7.96768 0
M  V30 18684 H 1811.33 -1.57238 5.60149 0
M  V30 18685 H 1810.21 -1.14602 7.75781 0
M  V30 18686 N 1807.72 -1.22979 -0.985586 0
M  V30 18687 C 1808.99 -0.967121 -1.70018 0
M  V30 18688 C 1809.37 0.515746 -2.04703 0
M  V30 18689 O 1808.72 1.48564 -1.73611 0
M  V30 18690 C 1808.93 -1.8721 -2.94539 0
M  V30 18691 C 1810.28 -2.13251 -3.67163 0
M  V30 18692 O 1811.3 -1.84718 -3.04562 0
M  V30 18693 O 1810.16 -2.61617 -4.79811 0
M  V30 18694 H 1807.26 -0.364318 -0.74243 0
M  V30 18695 H 1809.8 -1.33998 -1.04127 0
M  V30 18696 H 1808.57 -2.87478 -2.65465 0
M  V30 18697 H 1808.2 -1.50128 -3.68167 0
M  V30 18698 N 1809.19 1.18355 -1.04066 0
M  V30 18699 C 1810.13 2.21482 -0.58977 0
M  V30 18700 C 1811.14 1.59198 0.340576 0
M  V30 18701 O 1812.33 1.77988 0.135094 0
M  V30 18702 C 1809.43 3.3853 0.158397 0
M  V30 18703 C 1808.6 4.30392 -0.779824 0
M  V30 18704 C 1807.66 5.26147 -0.0749517 0
M  V30 18705 O 1806.69 5.64812 -0.705381 0
M  V30 18706 N 1807.89 5.68137 1.19168 0
M  V30 18707 H 1810.65 2.60791 -1.47676 0
M  V30 18708 H 1808.21 1.33141 -0.921151 0
M  V30 18709 H 1810.21 3.99611 0.639788 0
M  V30 18710 H 1808.78 2.97913 0.946929 0
M  V30 18711 H 1808 3.66915 -1.44107 0
M  V30 18712 H 1809.28 4.88668 -1.41707 0
M  V30 18713 H 1808.68 5.38777 1.7244 0
M  V30 18714 H 1807.24 6.31415 1.61735 0
M  V30 18715 N 1810.67 0.820125 1.3458 0
M  V30 18716 C 1811.95 0.329573 1.92803 0
M  V30 18717 C 1812.33 -1.18271 1.74858 0
M  V30 18718 O 1811.68 -1.98851 1.12564 0
M  V30 18719 C 1811.89 0.755833 3.40717 0
M  V30 18720 C 1813.24 0.75306 4.17869 0
M  V30 18721 O 1814.26 0.698235 3.49289 0
M  V30 18722 O 1813.12 0.823708 5.40257 0
M  V30 18723 H 1810.21 0.0893898 0.822155 0
M  V30 18724 H 1812.76 0.904729 1.43571 0
M  V30 18725 H 1811.53 1.79757 3.47568 0
M  V30 18726 H 1811.15 0.15622 3.97293 0
M  V30 18727 N 1812.15 -1.46743 0.574835 0
M  V30 18728 C 1813.56 -1.86127 0.146143 0
M  V30 18729 C 1813.91 -1.47938 -1.28875 0
M  V30 18730 O 1813.04 -0.890593 -1.97224 0
M  V30 18731 C 1813.63 -3.37813 0.258447 0
M  V30 18732 C 1812.19 -3.76223 -0.115322 0
M  V30 18733 C 1811.34 -2.70775 0.597997 0
M  V30 18734 H 1814.29 -1.38009 0.783526 0
M  V30 18735 H 1814.31 -3.76953 -0.51831 0
M  V30 18736 H 1813.82 -3.65577 1.30288 0
M  V30 18737 H 1811.92 -3.54077 -1.16019 0
M  V30 18738 H 1812.04 -4.78418 0.255513 0
M  V30 18739 H 1810.4 -2.5467 0.039113 0
M  V30 18740 H 1811.18 -3.0138 1.64393 0
M  V30 18741 N 1813.63 -0.312197 -1.54477 0
M  V30 18742 C 1815.04 0.178189 -1.85848 0
M  V30 18743 C 1815.39 1.52534 -1.23401 0
M  V30 18744 O 1814.52 2.09661 -0.535822 0
M  V30 18745 C 1815.11 0.330099 -3.37188 0
M  V30 18746 C 1813.67 0.764703 -3.6855 0
M  V30 18747 C 1812.82 -0.120348 -2.77039 0
M  V30 18748 H 1815.77 -0.532853 -1.49487 0
M  V30 18749 H 1815.79 1.16287 -3.62295 0
M  V30 18750 H 1815.3 -0.650527 -3.82609 0
M  V30 18751 H 1813.4 1.75548 -3.28654 0
M  V30 18752 H 1813.51 0.576331 -4.75621 0
M  V30 18753 H 1811.88 0.402229 -2.51504 0
M  V30 18754 H 1812.66 -1.09753 -3.25283 0
M  V30 18755 N 1815.11 1.57549 -0.040136 0
M  V30 18756 C 1816.02 2.14351 0.953457 0
M  V30 18757 C 1817.03 1.09851 1.3494 0
M  V30 18758 O 1818.21 1.41965 1.42857 0
M  V30 18759 C 1815.27 2.66832 2.21363 0
M  V30 18760 C 1814.33 3.86088 1.87708 0
M  V30 18761 C 1813.57 4.36057 3.07718 0
M  V30 18762 O 1813.79 3.85147 4.20735 0
M  V30 18763 O 1812.72 5.27775 2.89374 0
M  V30 18764 H 1816.55 2.99549 0.500423 0
M  V30 18765 H 1814.14 1.48298 0.18112 0
M  V30 18766 H 1816.02 3.00605 2.95321 0
M  V30 18767 H 1814.69 1.84711 2.65826 0
M  V30 18768 H 1813.6 3.57222 1.11101 0
M  V30 18769 H 1814.93 4.69405 1.48053 0
M  V30 18770 N 1816.58 -0.233136 1.55866 0
M  V30 18771 C 1818 -0.582304 1.48598 0
M  V30 18772 C 1818.2 -1.87694 0.733016 0
M  V30 18773 O 1817.26 -2.51074 0.267959 0
M  V30 18774 C 1818.57 -0.67227 2.93089 0
M  V30 18775 C 1820.12 -0.763676 3.03541 0
M  V30 18776 C 1820.59 -0.885087 4.49366 0
M  V30 18777 N 1822.08 -0.949606 4.53362 0
M  V30 18778 C 1822.82 -1.06306 5.6346 0
M  V30 18779 N 1822.31 -1.14118 6.83337 0
M  V30 18780 N 1824.11 -1.09729 5.51286 0
M  V30 18781 H 1816.26 0.616568 2.03254 0
M  V30 18782 H 1818.52 0.214762 0.923353 0
M  V30 18783 H 1818.23 0.20923 3.51077 0
M  V30 18784 H 1818.1 -1.5397 3.44344 0
M  V30 18785 H 1820.49 -1.63562 2.45625 0
M  V30 18786 H 1820.57 0.129191 2.55474 0
M  V30 18787 H 1820.21 -0.017644 5.07897 0
M  V30 18788 H 1820.14 -1.7932 4.95128 0
M  V30 18789 H 1822.63 -0.900018 3.67026 0
M  V30 18790 H 1822.95 -1.2272 7.62994 0
M  V30 18791 H 1821.29 -1.11051 6.8607 0
M  V30 18792 H 1824.48 -1.03283 4.56563 0
M  V30 18793 H 1824.66 -1.18225 6.37124 0
M  V30 18794 N 1818.06 -1.49479 -0.499372 0
M  V30 18795 C 1819.31 -1.58734 -1.25092 0
M  V30 18796 C 1819.63 -0.276701 -1.93027 0
M  V30 18797 O 1818.9 0.704058 -1.82811 0
M  V30 18798 H 1817.48 -0.584857 -0.464706 0
M  V30 18799 H 1820.14 -1.86113 -0.578608 0
M  V30 18800 H 1819.24 -2.38422 -2.01399 0
M  V30 18801 N 1819.54 0.750537 -1.38581 0
M  V30 18802 C 1820.5 1.84599 -1.35852 0
M  V30 18803 C 1821.5 1.58709 -0.258462 0
M  V30 18804 O 1822.69 1.66397 -0.51552 0
M  V30 18805 C 1819.83 3.22124 -1.11573 0
M  V30 18806 H 1821.02 1.88426 -2.33314 0
M  V30 18807 H 1818.57 0.952564 -1.23919 0
M  V30 18808 H 1819.31 3.23965 -0.147295 0
M  V30 18809 H 1819.09 3.42311 -1.91221 0
M  V30 18810 H 1820.58 4.02198 -1.12367 0
M  V30 18811 N 1821.02 1.235 0.979051 0
M  V30 18812 C 1822.43 1.06263 1.53509 0
M  V30 18813 C 1822.78 -0.369594 1.92687 0
M  V30 18814 O 1821.91 -1.25649 1.76185 0
M  V30 18815 C 1822.5 1.92276 2.78954 0
M  V30 18816 C 1821.06 1.79296 3.30953 0
M  V30 18817 C 1820.21 1.87898 2.03935 0
M  V30 18818 H 1823.16 1.37143 0.798588 0
M  V30 18819 H 1823.18 1.44835 3.51857 0
M  V30 18820 H 1822.69 2.96509 2.50408 0
M  V30 18821 H 1820.79 0.778512 3.64376 0
M  V30 18822 H 1820.91 2.62755 4.0062 0
M  V30 18823 H 1819.27 1.31494 2.18131 0
M  V30 18824 H 1820.05 2.93689 1.77769 0
M  V30 18825 N 1822.5 -1.17802 1.04693 0
M  V30 18826 C 1823.91 -1.69583 0.780923 0
M  V30 18827 C 1824.26 -1.83383 -0.697497 0
M  V30 18828 O 1823.38 -1.51781 -1.54245 0
M  V30 18829 C 1823.98 -3.08021 1.41097 0
M  V30 18830 C 1822.54 -3.56989 1.19313 0
M  V30 18831 C 1821.69 -2.33377 1.49768 0
M  V30 18832 H 1824.64 -1.02389 1.21253 0
M  V30 18833 H 1824.66 -3.71613 0.817539 0
M  V30 18834 H 1824.17 -2.97945 2.48697 0
M  V30 18835 H 1822.27 -3.72351 0.136146 0
M  V30 18836 H 1822.38 -4.40049 1.89456 0
M  V30 18837 H 1820.75 -2.37597 0.917585 0
M  V30 18838 H 1821.53 -2.25914 2.58491 0
M  V30 18839 N 1823.98 -0.827251 -1.34143 0
M  V30 18840 C 1825.2 -0.429514 -2.02904 0
M  V30 18841 C 1825.63 0.958033 -1.61874 0
M  V30 18842 O 1824.98 1.62422 -0.805528 0
M  V30 18843 C 1825.03 -0.544592 -3.56464 0
M  V30 18844 O 1824.14 0.433849 -4.10112 0
M  V30 18845 H 1823.48 -0.176216 -0.64019 0
M  V30 18846 H 1826.01 -1.11887 -1.71297 0
M  V30 18847 H 1826.02 -0.421949 -4.05812 0
M  V30 18848 H 1824.69 -1.55657 -3.85673 0
M  V30 18849 H 1823.27 0.269729 -3.71923 0
M  V30 18850 N 1825.45 1.46436 -0.582609 0
M  V30 18851 C 1826.68 2.06768 -0.0737657 0
M  V30 18852 C 1827.1 1.43137 1.23115 0
M  V30 18853 O 1826.45 0.536633 1.74432 0
M  V30 18854 C 1826.5 3.61365 0.0988205 0
M  V30 18855 O 1826.23 4.22616 -1.15444 0
M  V30 18856 C 1827.73 4.38626 0.642025 0
M  V30 18857 H 1824.95 0.66854 -0.0574078 0
M  V30 18858 H 1827.49 1.88064 -0.80325 0
M  V30 18859 H 1825.65 3.79497 0.778526 0
M  V30 18860 H 1826.06 5.15486 -0.968204 0
M  V30 18861 H 1827.53 5.47389 0.711966 0
M  V30 18862 H 1828.01 4.06663 1.65897 0
M  V30 18863 H 1828.62 4.253 -0.00280852 0
M  V30 18864 N 1826.93 0.320385 1.54309 0
M  V30 18865 C 1828.18 -0.283143 2.00511 0
M  V30 18866 C 1828.51 -1.52391 1.2086 0
M  V30 18867 O 1827.76 -1.93716 0.277955 0
M  V30 18868 C 1828.06 -0.665444 3.5115 0
M  V30 18869 C 1827.73 0.475789 4.48383 0
M  V30 18870 C 1826.39 0.789037 4.74687 0
M  V30 18871 C 1828.74 1.24253 5.06172 0
M  V30 18872 C 1826.07 1.87181 5.5604 0
M  V30 18873 C 1828.42 2.31537 5.88705 0
M  V30 18874 C 1827.08 2.63447 6.13312 0
M  V30 18875 H 1826.35 -0.103609 0.733721 0
M  V30 18876 H 1829 0.443504 1.86294 0
M  V30 18877 H 1827.31 -1.47247 3.63078 0
M  V30 18878 H 1829 -1.14391 3.84338 0
M  V30 18879 H 1825.59 0.221559 4.28027 0
M  V30 18880 H 1829.78 1.01379 4.85835 0
M  V30 18881 H 1825.03 2.12354 5.73337 0
M  V30 18882 H 1829.21 2.91395 6.32504 0
M  V30 18883 H 1826.83 3.47477 6.76139 0
M  V30 18884 N 1828.41 -1.57525 0.0484906 0
M  V30 18885 C 1829.36 -2.11374 -0.926816 0
M  V30 18886 C 1830.33 -1.02045 -1.31058 0
M  V30 18887 O 1831.51 -1.29577 -1.40052 0
M  V30 18888 C 1828.65 -2.66107 -2.19729 0
M  V30 18889 C 1827.76 -3.89513 -1.86826 0
M  V30 18890 C 1826.9 -4.32571 -3.08312 0
M  V30 18891 C 1825.94 -5.48684 -2.71317 0
M  V30 18892 N 1825.08 -5.86808 -3.85488 0
M  V30 18893 H 1829.92 -2.94417 -0.460721 0
M  V30 18894 H 1827.45 -1.45509 -0.215789 0
M  V30 18895 H 1829.41 -2.95939 -2.94068 0
M  V30 18896 H 1828.04 -1.85865 -2.63921 0
M  V30 18897 H 1827.09 -3.66289 -1.02647 0
M  V30 18898 H 1828.4 -4.73912 -1.55592 0
M  V30 18899 H 1827.56 -4.63941 -3.90952 0
M  V30 18900 H 1826.3 -3.46978 -3.42721 0
M  V30 18901 H 1825.3 -5.16988 -1.87092 0
M  V30 18902 H 1826.53 -6.35991 -2.38102 0
M  V30 18903 H 1824.47 -5.04168 -4.19703 0
M  V30 18904 H 1824.39 -6.65892 -3.57944 0
M  V30 18905 H 1825.66 -6.22792 -4.68776 0
M  V30 18906 N 1829.89 0.224867 -1.55988 0
M  V30 18907 C 1831.14 0.947871 -1.78493 0
M  V30 18908 C 1831.46 1.85001 -0.616413 0
M  V30 18909 O 1830.73 1.92435 0.366847 0
M  V30 18910 H 1829.31 0.352987 -0.658338 0
M  V30 18911 H 1831.97 0.237519 -1.93447 0
M  V30 18912 H 1831.06 1.55664 -2.70509 0
M  V30 18913 N 1831.37 1.49742 0.491438 0
M  V30 18914 C 1832.59 1.63435 1.26873 0
M  V30 18915 C 1833.01 0.309516 1.86246 0
M  V30 18916 O 1832.37 -0.706178 1.68284 0
M  V30 18917 C 1832.42 2.71034 2.39213 0
M  V30 18918 O 1832.14 3.98379 1.82278 0
M  V30 18919 C 1833.64 2.95518 3.3043 0
M  V30 18920 H 1830.86 0.54994 0.384457 0
M  V30 18921 H 1833.4 1.95837 0.588914 0
M  V30 18922 H 1831.56 2.41384 3.03006 0
M  V30 18923 H 1831.97 4.57725 2.56101 0
M  V30 18924 H 1833.45 3.74517 4.05513 0
M  V30 18925 H 1833.92 2.058 3.87999 0
M  V30 18926 H 1834.53 3.26622 2.72393 0
M  V30 18927 N 1832.84 -0.743177 1.38977 0
M  V30 18928 C 1834.26 -1.32104 1.3193 0
M  V30 18929 C 1834.61 -1.9619 -0.0201331 0
M  V30 18930 O 1833.73 -1.95764 -0.922245 0
M  V30 18931 C 1834.33 -2.40204 2.3893 0
M  V30 18932 C 1832.89 -2.93684 2.35428 0
M  V30 18933 C 1832.03 -1.67168 2.21247 0
M  V30 18934 H 1834.98 -0.541283 1.49184 0
M  V30 18935 H 1835 -3.20397 2.05246 0
M  V30 18936 H 1834.52 -1.93532 3.36403 0
M  V30 18937 H 1832.62 -3.44658 1.41568 0
M  V30 18938 H 1832.73 -3.47355 3.29971 0
M  V30 18939 H 1831.09 -1.91193 1.68278 0
M  V30 18940 H 1831.88 -1.22559 3.20678 0
M  V30 18941 N 1834.32 -1.24018 -0.972487 0
M  V30 18942 C 1835.55 -1.10392 -1.74989 0
M  V30 18943 C 1835.97 0.34396 -1.8564 0
M  V30 18944 O 1835.32 1.23757 -1.34128 0
M  V30 18945 C 1835.37 -1.73247 -3.17282 0
M  V30 18946 O 1835.09 -3.12374 -3.07171 0
M  V30 18947 C 1836.6 -1.65168 -4.11381 0
M  V30 18948 H 1833.82 -0.38593 -0.548907 0
M  V30 18949 H 1836.36 -1.64028 -1.22127 0
M  V30 18950 H 1834.51 -1.23625 -3.67145 0
M  V30 18951 H 1834.93 -3.42997 -3.96804 0
M  V30 18952 H 1836.4 -2.13837 -5.08898 0
M  V30 18953 H 1836.88 -0.61198 -4.34915 0
M  V30 18954 H 1837.49 -2.14194 -3.67425 0
M  V30 18955 N 1835.8 1.17245 -1.05316 0
M  V30 18956 C 1836.76 2.19508 -0.659467 0
M  V30 18957 C 1837.76 1.58169 0.289697 0
M  V30 18958 O 1838.95 1.74045 0.0734019 0
M  V30 18959 C 1836.09 3.40886 0.0311886 0
M  V30 18960 H 1837.28 2.55852 -1.5646 0
M  V30 18961 H 1834.83 1.31348 -0.847193 0
M  V30 18962 H 1835.57 3.10088 0.949535 0
M  V30 18963 H 1835.35 3.86655 -0.651191 0
M  V30 18964 H 1836.84 4.16573 0.292702 0
M  V30 18965 N 1837.28 0.834353 1.33702 0
M  V30 18966 C 1838.19 0.266649 2.3308 0
M  V30 18967 C 1839.2 -0.604958 1.63145 0
M  V30 18968 O 1840.38 -0.510151 1.94832 0
M  V30 18969 C 1837.45 -0.552673 3.42267 0
M  V30 18970 C 1836.51 0.342677 4.2793 0
M  V30 18971 C 1835.74 -0.437637 5.31903 0
M  V30 18972 O 1835.96 -1.6698 5.45412 0
M  V30 18973 O 1834.9 0.186001 6.01613 0
M  V30 18974 H 1838.72 1.08946 2.83486 0
M  V30 18975 H 1836.31 0.596765 1.36964 0
M  V30 18976 H 1838.19 -1.01842 4.08908 0
M  V30 18977 H 1836.86 -1.35263 2.94085 0
M  V30 18978 H 1835.77 0.856168 3.64171 0
M  V30 18979 H 1837.1 1.10728 4.79583 0
M  V30 18980 N 1838.76 -1.46125 0.590367 0
M  V30 18981 C 1839.7 -2.32108 -0.151168 0
M  V30 18982 C 1840.7 -1.44943 -0.876804 0
M  V30 18983 O 1841.9 -1.61526 -0.794323 0
M  V30 18984 H 1838.28 -0.748954 -0.0676159 0
M  V30 18985 H 1840.25 -2.92454 0.592723 0
M  V30 18986 C 1839 -3.28253 -1.14653 0
M  V30 18987 H 1838.32 -3.95309 -0.597597 0
M  V30 18988 H 1839.76 -3.91181 -1.63564 0
M  V30 18989 C 1838.22 -2.54162 -2.21141 0
M  V30 18990 O 1838.75 -2.31029 -3.28616 0
M  V30 18991 N 1836.96 -2.14592 -1.95956 0
M  V30 18992 H 1836.5 -2.33606 -1.08564 0
M  V30 18993 H 1836.46 -1.65339 -2.67414 0
M  V30 18994 N 1840.23 -0.328564 -1.54137 0
M  V30 18995 C 1841.65 0.158467 -1.86026 0
M  V30 18996 C 1842 1.51216 -1.25012 0
M  V30 18997 O 1841.12 2.09081 -0.558029 0
M  V30 18998 C 1841.72 0.294317 -3.37519 0
M  V30 18999 C 1840.28 0.72557 -3.69341 0
M  V30 19000 C 1839.42 -0.149724 -2.76895 0
M  V30 19001 H 1842.37 -0.548678 -1.48913 0
M  V30 19002 H 1842.39 1.12438 -3.63508 0
M  V30 19003 H 1841.91 -0.691071 -3.81898 0
M  V30 19004 H 1840.01 1.72052 -3.30498 0
M  V30 19005 H 1840.12 0.525853 -4.76205 0
M  V30 19006 H 1838.48 0.375531 -2.51916 0
M  V30 19007 H 1839.27 -1.13197 -3.24101 0
M  V30 19008 N 1841.71 1.57497 -0.0568439 0
M  V30 19009 C 1842.62 2.1535 0.930668 0
M  V30 19010 C 1843.64 1.11276 1.33767 0
M  V30 19011 O 1844.81 1.43472 1.41343 0
M  V30 19012 C 1841.88 2.69165 2.18521 0
M  V30 19013 C 1840.94 3.88057 1.83603 0
M  V30 19014 C 1840.17 4.39296 3.03076 0
M  V30 19015 O 1840.4 3.89588 4.16627 0
M  V30 19016 O 1839.33 5.30814 2.8376 0
M  V30 19017 H 1843.16 3.00063 0.468623 0
M  V30 19018 H 1840.74 1.48482 0.16538 0
M  V30 19019 H 1842.62 3.03721 2.92116 0
M  V30 19020 H 1841.3 1.8752 2.63852 0
M  V30 19021 H 1840.21 3.5838 1.07306 0
M  V30 19022 H 1841.54 4.70949 1.43066 0
M  V30 19023 N 1843.19 -0.216591 1.56105 0
M  V30 19024 C 1844.42 -0.955625 1.8317 0
M  V30 19025 C 1844.83 -1.78247 0.634397 0
M  V30 19026 O 1844.17 -1.79148 -0.406391 0
M  V30 19027 C 1844.23 -1.91834 3.04039 0
M  V30 19028 C 1843.9 -1.27553 4.38838 0
M  V30 19029 C 1844.89 -0.662972 5.15656 0
M  V30 19030 C 1842.58 -1.28582 4.85564 0
M  V30 19031 C 1844.57 -0.0692674 6.37362 0
M  V30 19032 C 1842.26 -0.688269 6.07212 0
M  V30 19033 C 1843.26 -0.0810524 6.82952 0
M  V30 19034 O 1842.95 0.507186 8.02298 0
M  V30 19035 H 1842.68 -0.285405 0.612797 0
M  V30 19036 H 1845.23 -0.235419 2.04046 0
M  V30 19037 H 1843.46 -2.67767 2.78994 0
M  V30 19038 H 1845.15 -2.52334 3.17934 0
M  V30 19039 H 1845.92 -0.647319 4.80661 0
M  V30 19040 H 1841.8 -1.74784 4.26581 0
M  V30 19041 H 1845.34 0.405305 6.96422 0
M  V30 19042 H 1841.24 -0.701352 6.41679 0
M  V30 19043 H 1842.01 0.401989 8.17512 0
M  V30 19044 N 1844.67 -1.5 -0.48349 0
M  V30 19045 C 1845.6 -1.70879 -1.5913 0
M  V30 19046 C 1846.58 -0.557606 -1.60701 0
M  V30 19047 O 1847.76 -0.79539 -1.77164 0
M  V30 19048 C 1844.89 -1.7915 -2.97527 0
M  V30 19049 C 1843.85 -2.94233 -3.10823 0
M  V30 19050 C 1843.17 -2.87634 -4.50745 0
M  V30 19051 C 1844.47 -4.34925 -2.89202 0
M  V30 19052 H 1846.17 -2.63632 -1.41911 0
M  V30 19053 H 1843.71 -1.26865 -0.68127 0
M  V30 19054 H 1845.67 -1.92342 -3.74943 0
M  V30 19055 H 1844.39 -0.830106 -3.15875 0
M  V30 19056 H 1843.05 -2.80672 -2.35837 0
M  V30 19057 H 1842.7 -1.89365 -4.65993 0
M  V30 19058 H 1842.4 -3.64885 -4.60579 0
M  V30 19059 H 1843.92 -3.02857 -5.30198 0
M  V30 19060 H 1845.34 -4.49076 -3.56376 0
M  V30 19061 H 1843.73 -5.13531 -3.10492 0
M  V30 19062 H 1844.8 -4.48154 -1.85165 0
M  V30 19063 N 1846.15 0.735796 -1.39369 0
M  V30 19064 C 1847.39 1.49239 -1.3628 0
M  V30 19065 C 1847.72 1.94957 0.0408659 0
M  V30 19066 O 1846.99 1.68929 0.991959 0
M  V30 19067 H 1845.57 0.553626 -0.501506 0
M  V30 19068 H 1848.23 0.873549 -1.74227 0
M  V30 19069 H 1847.32 2.37488 -2.02499 0
M  V30 19070 N 1847.63 1.24532 0.965897 0
M  V30 19071 C 1848.56 1.06393 2.07853 0
M  V30 19072 C 1849.54 -0.0236467 1.70084 0
M  V30 19073 O 1850.72 0.143767 1.93667 0
M  V30 19074 C 1847.85 0.669877 3.40778 0
M  V30 19075 C 1846.81 1.70643 3.92511 0
M  V30 19076 C 1846.13 1.16738 5.21801 0
M  V30 19077 C 1847.43 3.10278 4.20149 0
M  V30 19078 H 1849.13 1.99459 2.23285 0
M  V30 19079 H 1846.67 0.960397 1.07296 0
M  V30 19080 H 1848.62 0.52997 4.18054 0
M  V30 19081 H 1847.35 -0.296477 3.25252 0
M  V30 19082 H 1846.01 1.83458 3.17393 0
M  V30 19083 H 1845.66 0.191586 5.02635 0
M  V30 19084 H 1845.36 1.86009 5.57382 0
M  V30 19085 H 1846.88 1.03963 6.01684 0
M  V30 19086 H 1848.29 3.00681 4.88123 0
M  V30 19087 H 1846.69 3.76918 4.66962 0
M  V30 19088 H 1847.76 3.58182 3.26854 0
M  V30 19089 N 1849.1 -1.16685 1.05936 0
M  V30 19090 C 1850.38 -1.8312 0.6875 0
M  V30 19091 C 1850.76 -1.94035 -0.831474 0
M  V30 19092 O 1850.11 -1.48067 -1.74036 0
M  V30 19093 C 1850.32 -3.20331 1.38524 0
M  V30 19094 C 1851.67 -3.96149 1.52811 0
M  V30 19095 O 1852.69 -3.29837 1.34485 0
M  V30 19096 O 1851.55 -5.15005 1.82845 0
M  V30 19097 H 1848.64 -0.790513 0.242937 0
M  V30 19098 H 1851.19 -1.23918 1.15941 0
M  V30 19099 H 1849.96 -3.074 2.42118 0
M  V30 19100 H 1849.58 -3.87206 0.903164 0
M  V30 19101 N 1850.58 -0.841432 -1.33258 0
M  V30 19102 C 1851.83 -0.439027 -1.97991 0
M  V30 19103 C 1852.16 0.999767 -1.66488 0
M  V30 19104 O 1851.44 1.69938 -0.94612 0
M  V30 19105 C 1851.72 -0.663137 -3.53941 0
M  V30 19106 C 1851.57 -2.14939 -3.95122 0
M  V30 19107 C 1852.89 -0.11094 -4.3996 0
M  V30 19108 H 1850.01 -0.160987 -0.719203 0
M  V30 19109 H 1852.65 -1.05742 -1.57856 0
M  V30 19110 H 1850.8 -0.136765 -3.88259 0
M  V30 19111 H 1852.47 -2.74082 -3.71048 0
M  V30 19112 H 1850.72 -2.63293 -3.4476 0
M  V30 19113 H 1851.39 -2.25694 -5.03752 0
M  V30 19114 H 1853.86 -0.560898 -4.12302 0
M  V30 19115 H 1852.74 -0.297416 -5.48094 0
M  V30 19116 H 1853 0.985446 -4.30977 0
M  V30 19117 N 1852.06 1.4581 -0.598108 0
M  V30 19118 C 1853.47 1.85871 -0.175736 0
M  V30 19119 C 1853.82 1.49969 1.26505 0
M  V30 19120 O 1852.95 0.921857 1.95782 0
M  V30 19121 C 1853.54 3.37359 -0.312157 0
M  V30 19122 C 1852.1 3.76359 0.0554534 0
M  V30 19123 C 1851.25 2.6979 -0.640999 0
M  V30 19124 H 1854.2 1.36745 -0.805383 0
M  V30 19125 H 1854.22 3.7773 0.458274 0
M  V30 19126 H 1853.73 3.63458 -1.36088 0
M  V30 19127 H 1851.83 3.55878 1.10372 0
M  V30 19128 H 1851.95 4.77951 -0.331592 0
M  V30 19129 H 1850.31 2.54576 -0.0796238 0
M  V30 19130 H 1851.09 2.98726 -1.69167 0
M  V30 19131 N 1853.54 0.336733 1.53961 0
M  V30 19132 C 1854.78 -0.262248 2.01097 0
M  V30 19133 C 1855.12 -1.50745 1.22431 0
M  V30 19134 O 1854.39 -1.92012 0.310103 0
M  V30 19135 C 1854.67 -0.583219 3.55346 0
M  V30 19136 C 1854.53 0.67361 4.44727 0
M  V30 19137 C 1855.85 -1.39558 4.17386 0
M  V30 19138 H 1852.97 -0.0938423 0.731001 0
M  V30 19139 H 1855.61 0.455921 1.84449 0
M  V30 19140 H 1853.76 -1.19505 3.69663 0
M  V30 19141 H 1855.43 1.31168 4.42258 0
M  V30 19142 H 1853.67 1.29987 4.13867 0
M  V30 19143 H 1854.34 0.404382 5.50517 0
M  V30 19144 H 1856.82 -0.878292 4.06725 0
M  V30 19145 H 1855.7 -1.58892 5.25399 0
M  V30 19146 H 1855.96 -2.39567 3.71564 0
M  V30 19147 O 1855.05 -1.60197 0.204746 0
M  V30 19148 H 1855.75 -1.89958 -0.378899 0
M  V30 END ATOM
M  V30 BEGIN BOND
M  V30 END BOND
M  V30 END CTAB
M  END
$$$$
