drugbank_target|P37088 Amiloride-sensitive sodium channel subunit alpha (DB00384; DB00594)
 OpenBabel12092119263D

  0  0  0     0  0            999 V3000
M  V30 BEGIN CTAB
M  V30 COUNTS 10443 10598 0 0 0
M  V30 BEGIN ATOM
M  V30 1 H -0.908 1.98254 -0.117106 0
M  V30 2 N 0 1.576 0 0
M  V30 3 C 0.933 2.03868 1.02534 0
M  V30 4 C 1.911 0.928543 1.3348 0
M  V30 5 O 3.095 1.19667 1.45644 0
M  V30 6 C 0.222 2.43627 2.35294 0
M  V30 7 C -0.732 3.65373 2.2001 0
M  V30 8 S 0.101 5.13292 1.52614 0
M  V30 9 C 1.257 5.56322 2.86805 0
M  V30 10 H 1.49 2.90518 0.631377 0
M  V30 11 H -0.977 1.52953 0.210867 0
M  V30 12 H 0.981 2.67203 3.11629 0
M  V30 13 H -0.358 1.57376 2.7183 0
M  V30 14 H -1.165 3.90944 3.18086 0
M  V30 15 H -1.563 3.418 1.51819 0
M  V30 16 H 0.729 5.58782 3.83104 0
M  V30 17 H 1.672 6.56266 2.65933 0
M  V30 18 H 2.08 4.83886 2.90714 0
M  V30 19 N 1.4781 -0.272755 1.55222 0
M  V30 20 C 2.3881 -1.35918 1.91216 0
M  V30 21 C 3.4041 -1.54026 0.809436 0
M  V30 22 O 4.5801 -1.68148 1.10852 0
M  V30 23 C 1.6451 -2.69834 2.17693 0
M  V30 24 C 0.7061 -2.6047 3.41253 0
M  V30 25 C -0.0609 -3.88 3.66458 0
M  V30 26 O 0.1621 -4.88693 2.94169 0
M  V30 27 O -0.9039 -3.88189 4.59992 0
M  V30 28 H 2.9221 -1.0839 2.83699 0
M  V30 29 H 0.5071 -0.471301 1.41771 0
M  V30 30 H 2.3891 -3.49017 2.36147 0
M  V30 31 H 1.0641 -2.97148 1.28392 0
M  V30 32 H -0.0289 -1.79663 3.28134 0
M  V30 33 H 1.3041 -2.38106 4.30774 0
M  V30 34 N 2.9562 -1.48159 -0.537278 0
M  V30 35 C 4.2042 -1.55497 -1.29094 0
M  V30 36 C 4.5252 -0.227454 -1.93669 0
M  V30 37 O 3.7952 0.750386 -1.80959 0
M  V30 38 H 2.3752 -0.572832 -0.47945 0
M  V30 39 H 5.0372 -1.84579 -0.625818 0
M  V30 40 H 4.1332 -2.33216 -2.07405 0
M  V30 41 N 4.4343 0.785586 -1.36625 0
M  V30 42 C 5.3823 1.91978 -1.31329 0
M  V30 43 C 6.3763 1.68162 -0.204416 0
M  V30 44 O 7.5823 1.76122 -0.371645 0
M  V30 45 H 3.9573 0.631087 -0.408942 0
M  V30 46 H 5.9283 1.93562 -2.27104 0
M  V30 47 C 4.6773 3.29055 -1.12329 0
M  V30 48 H 4.0003 3.4795 -1.96903 0
M  V30 49 H 5.4403 4.08756 -1.12671 0
M  V30 50 C 3.8993 3.36461 0.171861 0
M  V30 51 O 4.4293 3.84576 1.16035 0
M  V30 52 N 2.6353 2.89782 0.217846 0
M  V30 53 H 2.1823 2.50819 -0.587183 0
M  V30 54 H 2.1403 2.95119 1.08408 0
M  V30 55 N 5.9124 1.20967 1.01018 0
M  V30 56 C 6.8594 0.964281 2.09691 0
M  V30 57 C 7.8294 -0.107853 1.65749 0
M  V30 58 O 9.0144 0.0381987 1.90762 0
M  V30 59 C 6.1544 0.52943 3.41015 0
M  V30 60 C 5.2674 1.67043 3.98398 0
M  V30 61 C 4.4024 1.18525 5.17808 0
M  V30 62 C 3.4414 2.29892 5.67288 0
M  V30 63 N 2.5784 1.82546 6.77954 0
M  V30 64 H 7.4184 1.89463 2.30017 0
M  V30 65 H 4.9554 0.944289 1.1279 0
M  V30 66 H 6.9134 0.258588 4.16398 0
M  V30 67 H 5.5434 -0.363919 3.20742 0
M  V30 68 H 4.5954 2.05603 3.20049 0
M  V30 69 H 5.9074 2.50877 4.31117 0
M  V30 70 H 5.0614 0.870762 6.00419 0
M  V30 71 H 3.8004 0.316887 4.86669 0
M  V30 72 H 2.8054 2.6215 4.83278 0
M  V30 73 H 4.0304 3.17216 6.00459 0
M  V30 74 H 1.9764 0.980454 6.48632 0
M  V30 75 H 1.8934 2.59956 7.09901 0
M  V30 76 H 3.1614 1.54115 7.64113 0
M  V30 77 N 7.3905 -1.2043 1.01659 0
M  V30 78 C 8.3205 -2.25466 0.607226 0
M  V30 79 C 9.3015 -1.65853 -0.377716 0
M  V30 80 O 10.4865 -1.92409 -0.263149 0
M  V30 81 C 7.6165 -3.47256 -0.0552949 0
M  V30 82 C 6.5705 -4.19462 0.850632 0
M  V30 83 C 5.8965 -5.34673 0.0538859 0
M  V30 84 C 7.1965 -4.75603 2.15868 0
M  V30 85 H 8.8905 -2.59962 1.48526 0
M  V30 86 H 6.4365 -1.2496 0.715605 0
M  V30 87 H 8.3895 -4.19917 -0.353233 0
M  V30 88 H 7.1135 -3.11924 -0.968045 0
M  V30 89 H 5.7725 -3.48667 1.13257 0
M  V30 90 H 5.4205 -4.95585 -0.860514 0
M  V30 91 H 5.1205 -5.83913 0.657192 0
M  V30 92 H 6.6445 -6.10138 -0.237598 0
M  V30 93 H 8.0585 -5.40083 1.92311 0
M  V30 94 H 6.4555 -5.3528 2.71284 0
M  V30 95 H 7.5255 -3.94346 2.82169 0
M  V30 96 N 8.8686 -0.792821 -1.36206 0
M  V30 97 C 9.7786 -0.194808 -2.3379 0
M  V30 98 C 10.7946 0.654869 -1.61206 0
M  V30 99 O 11.9706 0.569856 -1.9317 0
M  V30 100 C 9.0356 0.657721 -3.40404 0
M  V30 101 C 8.0966 -0.210849 -4.28782 0
M  V30 102 C 7.3296 0.601086 -5.30304 0
M  V30 103 O 7.5526 1.83682 -5.40016 0
M  V30 104 O 6.4866 -0.000808277 -6.019 0
M  V30 105 H 10.3126 -1.00172 -2.86704 0
M  V30 106 H 7.8976 -0.554341 -1.38735 0
M  V30 107 H 9.7796 1.14375 -4.05581 0
M  V30 108 H 8.4546 1.44247 -2.89784 0
M  V30 109 H 7.3616 -0.743714 -3.66633 0
M  V30 110 H 8.6946 -0.959195 -4.82763 0
M  V30 111 N 10.3467 1.47872 -0.545128 0
M  V30 112 C 11.2567 2.33633 0.212746 0
M  V30 113 C 12.2727 1.4744 0.923983 0
M  V30 114 O 13.4487 1.80393 0.895572 0
M  V30 115 C 10.5137 3.23884 1.23693 0
M  V30 116 C 9.5747 4.25961 0.534417 0
M  V30 117 C 8.8077 5.11899 1.5098 0
M  V30 118 O 9.0307 5.00077 2.7437 0
M  V30 119 O 7.9647 5.92831 1.0409 0
M  V30 120 H 11.7907 2.99714 -0.490416 0
M  V30 121 H 9.3757 1.46235 -0.305871 0
M  V30 122 H 11.2577 3.79666 1.82843 0
M  V30 123 H 9.9327 2.60446 1.92222 0
M  V30 124 H 8.8397 3.73972 -0.0979679 0
M  V30 125 H 10.1727 4.92079 -0.109213 0
M  V30 126 N 11.8248 0.280983 1.55075 0
M  V30 127 C 12.7568 -0.637268 2.20163 0
M  V30 128 C 13.7698 -1.11298 1.18813 0
M  V30 129 O 14.9588 -1.03388 1.4551 0
M  V30 130 C 12.0588 -1.88199 2.81841 0
M  V30 131 C 11.2318 -1.55211 4.08936 0
M  V30 132 C 10.2908 -2.64991 4.54606 0
M  V30 133 O 9.3168 -2.30929 5.2025 0
M  V30 134 N 10.5188 -3.95161 4.25238 0
M  V30 135 H 13.2838 -0.0801694 2.99593 0
M  V30 136 H 10.8448 0.102329 1.61576 0
M  V30 137 H 12.8368 -2.60948 3.09335 0
M  V30 138 H 11.4068 -2.34799 2.06369 0
M  V30 139 H 10.6268 -0.658185 3.88666 0
M  V30 140 H 11.9148 -1.30681 4.91732 0
M  V30 141 H 11.3128 -4.25653 3.72607 0
M  V30 142 H 9.8698 -4.6427 4.5749 0
M  V30 143 N 13.3029 -1.57598 0.00835791 0
M  V30 144 C 14.5799 -1.82172 -0.712235 0
M  V30 145 C 14.9599 -0.887873 -1.9152 0
M  V30 146 O 14.3079 0.06146 -2.28417 0
M  V30 147 C 14.5179 -3.30875 -1.11008 0
M  V30 148 C 15.8659 -3.96826 -1.51044 0
M  V30 149 O 16.8899 -3.35248 -1.20364 0
M  V30 150 O 15.7489 -5.05318 -2.08125 0
M  V30 151 H 12.8429 -0.750435 -0.347529 0
M  V30 152 H 15.3889 -1.69665 0.0344523 0
M  V30 153 H 14.1609 -3.90481 -0.252982 0
M  V30 154 H 13.7839 -3.48412 -1.9156 0
M  V30 155 N 14.781 0.264519 -1.55364 0
M  V30 156 C 16.006 1.01726 -1.80739 0
M  V30 157 C 16.431 1.78836 -0.583044 0
M  V30 158 O 15.789 1.75167 0.467566 0
M  V30 159 C 15.837 1.94482 -3.03659 0
M  V30 160 O 14.941 3.03386 -2.7934 0
M  V30 161 H 14.282 0.290395 -0.597132 0
M  V30 162 H 16.812 0.290854 -2.02522 0
M  V30 163 H 16.822 2.36278 -3.32621 0
M  V30 164 H 15.497 1.37772 -3.92418 0
M  V30 165 H 14.074 2.65844 -2.61498 0
M  V30 166 N 16.2591 1.48442 0.529413 0
M  V30 167 C 17.4841 1.60406 1.31471 0
M  V30 168 C 17.9091 0.264738 1.86228 0
M  V30 169 O 17.2671 -0.763668 1.64432 0
M  V30 170 C 17.3151 2.65419 2.44101 0
M  V30 171 O 16.4191 2.22618 3.47153 0
M  V30 172 H 15.7601 0.537863 0.389357 0
M  V30 173 H 18.2901 1.94432 0.636965 0
M  V30 174 H 18.3001 2.86709 2.90279 0
M  V30 175 H 16.9751 3.62652 2.03608 0
M  V30 176 H 15.5521 2.11543 3.0709 0
M  V30 177 N 17.7372 -0.778329 1.37039 0
M  V30 178 C 19.1482 -1.35421 1.28523 0
M  V30 179 C 19.4992 -1.96075 -0.0700901 0
M  V30 180 O 18.6242 -1.93352 -0.971801 0
M  V30 181 C 19.2192 -2.46211 2.32735 0
M  V30 182 C 17.7782 -2.99585 2.27873 0
M  V30 183 C 16.9252 -1.72748 2.16918 0
M  V30 184 H 19.8762 -0.5791 1.47757 0
M  V30 185 H 19.8972 -3.2552 1.9702 0
M  V30 186 H 19.4092 -2.02036 3.31365 0
M  V30 187 H 17.5102 -3.48152 1.32745 0
M  V30 188 H 17.6232 -3.55646 3.21018 0
M  V30 189 H 15.9872 -1.95416 1.63354 0
M  V30 190 H 16.7702 -1.30686 3.17452 0
M  V30 191 N 19.2153 -1.21501 -1.00376 0
M  V30 192 C 20.6263 -1.03146 -1.55621 0
M  V30 193 C 20.9773 0.408375 -1.91903 0
M  V30 194 O 20.1023 1.29177 -1.73616 0
M  V30 195 C 20.6973 -1.86612 -2.82775 0
M  V30 196 C 19.2563 -1.72586 -3.34501 0
M  V30 197 C 18.4033 -1.83747 -2.07683 0
M  V30 198 H 21.3543 -1.35505 -0.826081 0
M  V30 199 H 21.3753 -1.3771 -3.54706 0
M  V30 200 H 20.8873 -2.91399 -2.56336 0
M  V30 201 H 18.9883 -0.704877 -3.65872 0
M  V30 202 H 19.1013 -2.54623 -4.05837 0
M  V30 203 H 17.4653 -1.27069 -2.20739 0
M  V30 204 H 18.2483 -2.90044 -1.83655 0
M  V30 205 N 20.6934 1.19889 -1.02296 0
M  V30 206 C 21.6254 2.22334 -0.556787 0
M  V30 207 C 22.6384 1.58674 0.364199 0
M  V30 208 O 23.8274 1.77768 0.161533 0
M  V30 209 C 20.9274 3.38257 0.208694 0
M  V30 210 C 20.1004 4.31504 -0.71577 0
M  V30 211 C 19.1594 5.262 0.00325597 0
M  V30 212 O 18.1854 5.65798 -0.621357 0
M  V30 213 N 19.3874 5.66303 1.27599 0
M  V30 214 H 22.1524 2.62957 -1.43784 0
M  V30 215 H 19.7134 1.34495 -0.901261 0
M  V30 216 H 21.7054 3.98616 0.699111 0
M  V30 217 H 20.2754 2.96472 0.991102 0
M  V30 218 H 19.4954 3.69016 -1.38638 0
M  V30 219 H 20.7834 4.9072 -1.34428 0
M  V30 220 H 20.1814 5.36155 1.80429 0
M  V30 221 H 18.7384 6.28942 1.71102 0
M  V30 222 N 22.1715 0.800033 1.35784 0
M  V30 223 C 23.3965 0.388511 2.03729 0
M  V30 224 C 23.8215 -0.990481 1.5991 0
M  V30 225 O 23.1795 -1.64013 0.772612 0
M  V30 226 C 23.2275 0.4726 3.5749 0
M  V30 227 O 22.3315 -0.51646 4.09153 0
M  V30 228 H 21.6725 0.163271 0.643614 0
M  V30 229 H 24.2025 1.0841 1.73518 0
M  V30 230 H 24.2125 0.34003 4.06581 0
M  V30 231 H 22.8875 1.47848 3.88734 0
M  V30 232 H 21.4645 -0.344673 3.71304 0
M  V30 233 N 23.6496 -1.47581 0.552962 0
M  V30 234 C 24.8776 -2.06875 0.0320556 0
M  V30 235 C 25.2926 -1.40625 -1.25976 0
M  V30 236 O 24.6496 -0.501349 -1.75479 0
M  V30 237 C 24.7006 -3.61092 -0.17167 0
M  V30 238 O 24.4216 -4.24858 1.06899 0
M  V30 239 C 25.9226 -4.37242 -0.730344 0
M  V30 240 H 23.1426 -0.669561 0.043915 0
M  V30 241 H 25.6866 -1.89646 0.765163 0
M  V30 242 H 23.8416 -3.7785 -0.854894 0
M  V30 243 H 24.2556 -5.17334 0.864059 0
M  V30 244 H 25.7296 -5.45842 -0.822203 0
M  V30 245 H 26.2066 -4.03235 -1.74064 0
M  V30 246 H 26.8126 -4.25219 -0.0829543 0
M  V30 247 N 25.1277 -0.289203 -1.54924 0
M  V30 248 C 26.5387 0.205791 -1.85562 0
M  V30 249 C 26.8897 1.54351 -1.2112 0
M  V30 250 O 26.0147 2.10435 -0.504601 0
M  V30 251 C 26.6097 0.380177 -3.3666 0
M  V30 252 C 25.1687 0.819395 -3.67373 0
M  V30 253 C 24.3157 -0.079159 -2.77187 0
M  V30 254 H 27.2667 -0.510577 -1.50262 0
M  V30 255 H 27.2877 1.21659 -3.60526 0
M  V30 256 H 26.7997 -0.593589 -3.83534 0
M  V30 257 H 24.9007 1.80413 -3.26009 0
M  V30 258 H 25.0137 0.646957 -4.74712 0
M  V30 259 H 23.3777 0.439565 -2.50878 0
M  V30 260 H 24.1607 -1.04906 -3.26878 0
M  V30 261 N 26.6058 1.57591 -0.0167156 0
M  V30 262 C 27.8538 1.90906 0.663285 0
M  V30 263 C 28.1748 0.892509 1.73376 0
M  V30 264 O 27.4448 -0.0677623 1.95783 0
M  V30 265 H 26.0248 0.704637 0.247983 0
M  V30 266 H 28.6868 1.94803 -0.0615909 0
M  V30 267 H 27.7828 2.9116 1.12393 0
M  V30 268 N 28.0839 -0.256276 1.55502 0
M  V30 269 C 29.0139 -1.32102 1.92539 0
M  V30 270 C 29.9949 -1.50684 0.789194 0
M  V30 271 O 31.1799 -1.63449 1.04872 0
M  V30 272 C 28.3099 -2.67752 2.21192 0
M  V30 273 C 27.2639 -2.63878 3.36975 0
M  V30 274 C 26.5899 -4.03236 3.51147 0
M  V30 275 C 27.8899 -2.21682 4.72921 0
M  V30 276 H 29.5839 -1.01351 2.81724 0
M  V30 277 H 27.1299 -0.486105 1.35547 0
M  V30 278 H 29.0829 -3.42365 2.45691 0
M  V30 279 H 27.8069 -3.0012 1.28824 0
M  V30 280 H 26.4659 -1.91722 3.12471 0
M  V30 281 H 26.1139 -4.32854 2.56216 0
M  V30 282 H 25.8139 -4.01535 4.29003 0
M  V30 283 H 27.3379 -4.79563 3.77957 0
M  V30 284 H 28.7519 -2.86023 4.96854 0
M  V30 285 H 27.1489 -2.3111 5.53812 0
M  V30 286 H 28.2189 -1.16833 4.70615 0
M  V30 287 N 29.562 -1.4872 -0.521534 0
M  V30 288 C 30.495 -1.58451 -1.64221 0
M  V30 289 C 31.473 -0.434513 -1.56687 0
M  V30 290 O 32.657 -0.647275 -1.77038 0
M  V30 291 C 29.784 -1.52037 -3.02659 0
M  V30 292 C 28.83 -2.71981 -3.28525 0
M  V30 293 S 29.663 -4.33869 -3.13876 0
M  V30 294 C 30.819 -4.30067 -4.54745 0
M  V30 295 H 31.052 -2.53256 -1.55719 0
M  V30 296 H 28.585 -1.37358 -0.705143 0
M  V30 297 H 30.543 -1.49023 -3.82495 0
M  V30 298 H 29.204 -0.585541 -3.08594 0
M  V30 299 H 28.397 -2.63656 -4.29536 0
M  V30 300 H 27.999 -2.72302 -2.56374 0
M  V30 301 H 30.291 -4.00521 -5.46433 0
M  V30 302 H 31.234 -5.31287 -4.68123 0
M  V30 303 H 31.642 -3.60419 -4.34463 0
M  V30 304 N 31.0401 0.771051 -1.3745 0
M  V30 305 C 31.9871 1.88435 -1.3327 0
M  V30 306 C 32.9571 1.64914 -0.198136 0
M  V30 307 O 34.1421 1.86821 -0.387606 0
M  V30 308 C 31.2821 3.25509 -1.14622 0
M  V30 309 C 30.3951 3.60979 -2.37314 0
M  V30 310 C 29.5301 4.87265 -2.11533 0
M  V30 311 C 28.5691 5.15469 -3.30088 0
M  V30 312 N 27.7061 6.32944 -3.03853 0
M  V30 313 H 32.5461 1.91344 -2.28455 0
M  V30 314 H 30.0831 0.935466 -1.13523 0
M  V30 315 H 32.0411 4.04582 -1.01831 0
M  V30 316 H 30.6711 3.21974 -0.230837 0
M  V30 317 H 29.7231 2.76885 -2.60842 0
M  V30 318 H 31.0351 3.77759 -3.25729 0
M  V30 319 H 30.1891 5.74244 -1.95777 0
M  V30 320 H 28.9281 4.7259 -1.20457 0
M  V30 321 H 27.9331 4.26966 -3.46382 0
M  V30 322 H 29.1581 5.32052 -4.22016 0
M  V30 323 H 27.1041 6.19625 -2.15407 0
M  V30 324 H 27.0211 6.50143 -3.85812 0
M  V30 325 H 28.2891 7.22857 -2.91716 0
M  V30 326 N 32.5182 1.22032 0.997298 0
M  V30 327 C 33.7662 1.04016 1.73278 0
M  V30 328 C 34.0872 -0.426255 1.90284 0
M  V30 329 O 33.3572 -1.30694 1.45931 0
M  V30 330 H 31.9372 0.381897 0.642 0
M  V30 331 H 34.5992 1.5347 1.20137 0
M  V30 332 H 33.6952 1.51441 2.72896 0
M  V30 333 N 33.9963 -1.19345 1.0293 0
M  V30 334 C 34.9443 -2.24621 0.604001 0
M  V30 335 C 35.9383 -1.65452 -0.363587 0
M  V30 336 O 37.1443 -1.78497 -0.23212 0
M  V30 337 H 33.5193 -0.730858 0.177061 0
M  V30 338 H 35.4903 -2.5781 1.50255 0
M  V30 339 C 34.2393 -3.47688 -0.0289127 0
M  V30 340 H 33.5623 -3.93505 0.706651 0
M  V30 341 H 35.0023 -4.23011 -0.289432 0
M  V30 342 C 33.4613 -3.11817 -1.2756 0
M  V30 343 O 33.9913 -3.2451 -2.36762 0
M  V30 344 N 32.1973 -2.66246 -1.16453 0
M  V30 345 H 31.7443 -2.56118 -0.275914 0
M  V30 346 H 31.7023 -2.42617 -1.99961 0
M  V30 347 N 35.4744 -0.807222 -1.35358 0
M  V30 348 C 36.4214 -0.216037 -2.29787 0
M  V30 349 C 37.3914 0.650278 -1.52842 0
M  V30 350 O 38.5764 0.595227 -1.81278 0
M  V30 351 C 35.7164 0.628893 -3.39321 0
M  V30 352 C 34.8294 -0.257927 -4.31229 0
M  V30 353 C 33.9644 0.595069 -5.27856 0
M  V30 354 C 33.0034 -0.292111 -6.11403 0
M  V30 355 N 32.1404 0.520895 -7.00165 0
M  V30 356 H 36.9804 -1.02671 -2.79755 0
M  V30 357 H 34.5174 -0.517839 -1.37684 0
M  V30 358 H 36.4754 1.13393 -4.01494 0
M  V30 359 H 35.1054 1.40482 -2.90628 0
M  V30 360 H 34.1574 -0.881076 -3.70056 0
M  V30 361 H 35.4694 -0.940759 -4.89848 0
M  V30 362 H 34.6234 1.16522 -5.95405 0
M  V30 363 H 33.3624 1.31146 -4.69736 0
M  V30 364 H 32.3674 -0.874525 -5.428 0
M  V30 365 H 33.5924 -1.00638 -6.71602 0
M  V30 366 H 31.5384 1.22125 -6.44532 0
M  V30 367 H 31.4554 -0.103877 -7.55929 0
M  V30 368 H 32.7234 1.0743 -7.72062 0
M  V30 369 N 36.9525 1.47285 -0.560781 0
M  V30 370 C 38.3685 1.58065 -0.22081 0
M  V30 371 C 38.5685 1.55892 1.27671 0
M  V30 372 O 37.6245 1.46422 2.0571 0
M  V30 373 C 38.9375 2.88418 -0.850625 0
M  V30 374 C 40.4855 3.02009 -0.822184 0
M  V30 375 C 40.9605 4.35066 -1.43113 0
M  V30 376 N 42.4515 4.41711 -1.39448 0
M  V30 377 C 43.1865 5.43237 -1.83525 0
M  V30 378 N 42.6825 6.51555 -2.35474 0
M  V30 379 N 44.4755 5.34304 -1.74574 0
M  V30 380 H 36.6265 1.46941 -1.53369 0
M  V30 381 H 38.8895 0.699558 -0.639783 0
M  V30 382 H 38.5955 2.95755 -1.9032 0
M  V30 383 H 38.4695 3.75612 -0.345773 0
M  V30 384 H 40.8565 2.94266 0.221714 0
M  V30 385 H 40.9375 2.16347 -1.36483 0
M  V30 386 H 40.5815 4.43565 -2.47412 0
M  V30 387 H 40.5115 5.19465 -0.863899 0
M  V30 388 H 43.0025 3.64027 -1.01452 0
M  V30 389 H 43.3155 7.25203 -2.67021 0
M  V30 390 H 41.6605 6.52435 -2.39487 0
M  V30 391 H 44.8515 4.48581 -1.33763 0
M  V30 392 H 45.0245 6.13288 -2.09242 0
M  V30 393 N 38.4306 0.297415 1.54768 0
M  V30 394 C 39.3406 -0.58983 2.27064 0
M  V30 395 C 40.3566 -1.15144 1.30453 0
M  V30 396 O 41.5326 -1.17699 1.63428 0
M  V30 397 C 38.5976 -1.74714 2.9946 0
M  V30 398 C 37.6586 -1.21997 4.11601 0
M  V30 399 C 36.8916 -2.32212 4.80535 0
M  V30 400 O 37.1146 -3.52036 4.48806 0
M  V30 401 O 36.0486 -1.99106 5.68014 0
M  V30 402 H 39.8746 -0.00348199 3.037 0
M  V30 403 H 37.4596 0.0640035 1.49263 0
M  V30 404 H 39.3416 -2.42147 3.44881 0
M  V30 405 H 38.0166 -2.32016 2.25722 0
M  V30 406 H 36.9236 -0.511458 3.70587 0
M  V30 407 H 38.2566 -0.692419 4.87305 0
M  V30 408 N 39.9087 -1.5758 0.0250728 0
M  V30 409 C 40.8187 -2.1343 -0.973905 0
M  V30 410 C 41.8347 -1.08556 -1.35984 0
M  V30 411 O 43.0107 -1.40592 -1.44207 0
M  V30 412 C 40.0757 -2.64703 -2.23904 0
M  V30 413 C 39.1367 -3.84276 -1.91391 0
M  V30 414 C 38.3697 -4.33095 -3.11873 0
M  V30 415 O 38.5927 -3.81107 -4.24398 0
M  V30 416 O 37.5267 -5.24984 -2.94406 0
M  V30 417 H 41.3527 -2.99057 -0.529036 0
M  V30 418 H 38.9377 -1.48118 -0.195288 0
M  V30 419 H 40.8197 -2.97769 -2.98181 0
M  V30 420 H 39.4947 -1.82161 -2.6758 0
M  V30 421 H 38.4017 -3.56143 -1.14511 0
M  V30 422 H 39.7347 -4.67968 -1.52534 0
M  V30 423 N 41.3868 0.248026 -1.55636 0
M  V30 424 C 42.3188 1.32993 -1.8667 0
M  V30 425 C 43.3318 1.44345 -0.752877 0
M  V30 426 O 44.5208 1.45715 -1.03098 0
M  V30 427 C 41.6208 2.70863 -2.03682 0
M  V30 428 C 40.7938 2.81792 -3.34532 0
M  V30 429 C 39.8528 4.005 -3.41301 0
M  V30 430 O 38.8788 3.9008 -4.14519 0
M  V30 431 N 40.0808 5.13618 -2.70512 0
M  V30 432 H 42.8458 1.06707 -2.8006 0
M  V30 433 H 40.4068 0.438129 -1.55859 0
M  V30 434 H 42.3988 3.48612 -2.05553 0
M  V30 435 H 40.9688 2.89862 -1.17041 0
M  V30 436 H 40.1888 1.90729 -3.44987 0
M  V30 437 H 41.4768 2.86043 -4.20781 0
M  V30 438 H 40.8748 5.24975 -2.10755 0
M  V30 439 H 39.4318 5.89505 -2.78077 0
M  V30 440 N 42.8649 1.48995 0.513639 0
M  V30 441 C 44.1129 1.57531 1.26604 0
M  V30 442 C 44.4339 0.258236 1.93283 0
M  V30 443 O 43.7039 -0.721502 1.8213 0
M  V30 444 H 42.2839 0.580387 0.470276 0
M  V30 445 H 44.9459 1.85552 0.596373 0
M  V30 446 H 44.0419 2.36486 2.03669 0
M  V30 447 N 44.343 -0.763751 1.37857 0
M  V30 448 C 45.273 -1.89103 1.36975 0
M  V30 449 C 46.254 -1.68439 0.237152 0
M  V30 450 O 47.439 -1.8918 0.438713 0
M  V30 451 C 44.569 -3.26496 1.18395 0
M  V30 452 C 43.523 -3.61741 2.28751 0
M  V30 453 C 42.849 -4.97762 1.95286 0
M  V30 454 C 44.149 -3.67665 3.70972 0
M  V30 455 H 45.843 -1.90099 2.31307 0
M  V30 456 H 43.389 -0.91319 1.11341 0
M  V30 457 H 45.342 -4.05003 1.16406 0
M  V30 458 H 44.066 -3.25955 0.205215 0
M  V30 459 H 42.725 -2.85547 2.29909 0
M  V30 460 H 42.373 -4.93769 0.959221 0
M  V30 461 H 42.073 -5.22313 2.69189 0
M  V30 462 H 43.597 -5.7866 1.94898 0
M  V30 463 H 45.011 -4.36307 3.719 0
M  V30 464 H 43.408 -4.03718 4.43995 0
M  V30 465 H 44.478 -2.68134 4.0402 0
M  V30 466 N 45.8211 -1.22559 -0.990812 0
M  V30 467 C 47.0691 -1.04933 -1.72724 0
M  V30 468 C 47.3901 0.416158 -1.90508 0
M  V30 469 O 46.6601 1.29918 -1.46622 0
M  V30 470 H 45.2401 -0.385296 -0.639965 0
M  V30 471 H 47.9021 -1.54105 -1.19322 0
M  V30 472 H 46.9981 -1.52886 -2.72089 0
M  V30 473 N 47.2992 1.18797 -1.03562 0
M  V30 474 C 48.7102 1.70322 -0.764676 0
M  V30 475 C 49.0612 1.82708 0.714996 0
M  V30 476 O 48.1862 1.50299 1.55689 0
M  V30 477 C 48.7812 3.09356 -1.38145 0
M  V30 478 C 47.3402 3.58114 -1.15895 0
M  V30 479 C 46.4872 2.34798 -1.4753 0
M  V30 480 H 49.4382 1.03543 -1.20268 0
M  V30 481 H 49.4592 3.72378 -0.781977 0
M  V30 482 H 48.9712 3.00309 -2.45837 0
M  V30 483 H 47.0722 3.72464 -0.100544 0
M  V30 484 H 47.1852 4.4184 -1.8524 0
M  V30 485 H 45.5492 2.38464 -0.894829 0
M  V30 486 H 46.3322 2.28375 -2.56319 0
M  V30 487 N 48.7773 0.814389 1.34928 0
M  V30 488 C 49.6873 0.231978 2.3345 0
M  V30 489 C 50.7033 -0.629139 1.62228 0
M  V30 490 O 51.8793 -0.539052 1.94052 0
M  V30 491 C 48.9443 -0.603482 3.41407 0
M  V30 492 C 48.0053 0.279037 4.28392 0
M  V30 493 C 47.2383 -0.516643 5.31193 0
M  V30 494 O 47.4613 -1.75068 5.4287 0
M  V30 495 O 46.3953 0.0965652 6.01823 0
M  V30 496 H 50.2213 1.04721 2.85074 0
M  V30 497 H 47.8063 0.576343 1.37836 0
M  V30 498 H 49.6883 -1.07908 4.0735 0
M  V30 499 H 48.3633 -1.39618 2.92042 0
M  V30 500 H 47.2703 0.801948 3.65403 0
M  V30 501 H 48.6033 1.03588 4.81176 0
M  V30 502 N 50.2554 -1.46986 0.568584 0
M  V30 503 C 51.6664 -1.86188 0.138219 0
M  V30 504 C 52.0174 -1.47388 -1.29504 0
M  V30 505 O 51.1424 -0.88219 -1.97602 0
M  V30 506 C 51.7374 -3.3792 0.244065 0
M  V30 507 C 50.2964 -3.76171 -0.131335 0
M  V30 508 C 49.4434 -2.71027 0.586465 0
M  V30 509 H 52.3944 -1.38342 0.777645 0
M  V30 510 H 52.4154 -3.76729 -0.534351 0
M  V30 511 H 51.9274 -3.66128 1.28731 0
M  V30 512 H 50.0284 -3.5358 -1.17526 0
M  V30 513 H 50.1414 -4.78523 0.235146 0
M  V30 514 H 48.5054 -2.54684 0.0282722 0
M  V30 515 H 49.2884 -3.02077 1.63109 0
M  V30 516 N 51.7335 -0.305618 -1.54608 0
M  V30 517 C 52.6965 0.555591 -2.22364 0
M  V30 518 C 53.6965 1.05768 -1.21119 0
M  V30 519 O 54.8865 0.952972 -1.45822 0
M  V30 520 C 52.0185 1.76974 -2.91364 0
M  V30 521 H 53.2115 -0.0364572 -2.99878 0
M  V30 522 H 50.7645 -0.0565007 -1.56198 0
M  V30 523 H 51.4995 2.40151 -2.17941 0
M  V30 524 H 51.2845 1.41732 -3.65588 0
M  V30 525 H 52.7745 2.38148 -3.43038 0
M  V30 526 N 53.2116 1.57565 -0.0334293 0
M  V30 527 C 54.1746 2.09393 0.932048 0
M  V30 528 C 55.1746 1.00986 1.25134 0
M  V30 529 O 56.3646 1.27129 1.19096 0
M  V30 530 C 53.4966 2.56338 2.2473 0
M  V30 531 H 54.6896 2.95984 0.483085 0
M  V30 532 H 52.2426 1.54819 0.21468 0
M  V30 533 H 52.9776 1.7309 2.74245 0
M  V30 534 H 52.7626 3.35542 2.02865 0
M  V30 535 H 54.2526 2.96646 2.93923 0
M  V30 536 N 54.6897 -0.239769 1.55765 0
M  V30 537 C 56.1007 -0.808263 1.68297 0
M  V30 538 C 56.4517 -1.85736 0.632181 0
M  V30 539 O 55.5767 -2.15277 -0.220204 0
M  V30 540 C 56.1717 -1.47284 3.05111 0
M  V30 541 C 54.7307 -1.98895 3.19559 0
M  V30 542 C 53.8777 -0.842575 2.64189 0
M  V30 543 H 56.8287 -0.0154422 1.58692 0
M  V30 544 H 56.8497 -2.34111 2.99954 0
M  V30 545 H 56.3617 -0.709053 3.81568 0
M  V30 546 H 54.4627 -2.78132 2.47938 0
M  V30 547 H 54.5757 -2.18143 4.26556 0
M  V30 548 H 52.9397 -1.24501 2.22197 0
M  V30 549 H 53.7227 -0.0917552 3.43177 0
M  V30 550 N 56.1678 -1.49265 -0.50573 0
M  V30 551 C 57.0998 -1.617 -1.62437 0
M  V30 552 C 58.1128 -0.499924 -1.54934 0
M  V30 553 O 59.3018 -0.771785 -1.60953 0
M  V30 554 C 56.4018 -1.5533 -3.01207 0
M  V30 555 C 55.5748 -2.8249 -3.33943 0
M  V30 556 C 54.6338 -2.69238 -4.52103 0
M  V30 557 O 53.6598 -3.43167 -4.5412 0
M  V30 558 N 54.8618 -1.80468 -5.51735 0
M  V30 559 H 57.6268 -2.58177 -1.52199 0
M  V30 560 H 55.1878 -1.46294 -0.693511 0
M  V30 561 H 57.1798 -1.44125 -3.78167 0
M  V30 562 H 55.7498 -0.667297 -3.05395 0
M  V30 563 H 54.9698 -3.08081 -2.45926 0
M  V30 564 H 56.2578 -3.66802 -3.5261 0
M  V30 565 H 55.6558 -1.19653 -5.52901 0
M  V30 566 H 54.2128 -1.75188 -6.27816 0
M  V30 567 N 57.6459 0.756429 -1.3826 0
M  V30 568 C 58.5779 1.87971 -1.31147 0
M  V30 569 C 59.5909 1.61248 -0.224239 0
M  V30 570 O 60.7799 1.71881 -0.481581 0
M  V30 571 C 57.8799 3.23545 -1.00857 0
M  V30 572 C 57.0529 3.77794 -2.20432 0
M  V30 573 C 56.1119 4.91877 -1.86931 0
M  V30 574 O 55.1379 5.06659 -2.59395 0
M  V30 575 N 56.3399 5.74643 -0.822568 0
M  V30 576 H 59.1049 1.94585 -2.2794 0
M  V30 577 H 56.6659 0.936234 -1.32084 0
M  V30 578 H 58.6579 3.97403 -0.765021 0
M  V30 579 H 57.2279 3.12335 -0.128687 0
M  V30 580 H 56.4479 2.95534 -2.6087 0
M  V30 581 H 57.7359 4.10771 -3.00241 0
M  V30 582 H 57.1339 5.65266 -0.221575 0
M  V30 583 H 55.6909 6.48661 -0.638899 0
M  V30 584 N 59.124 1.23083 0.984299 0
M  V30 585 C 60.535 1.05609 1.5396 0
M  V30 586 C 60.886 -0.377793 1.92528 0
M  V30 587 O 60.011 -1.26398 1.75649 0
M  V30 588 C 60.606 1.91087 2.7977 0
M  V30 589 C 59.165 1.77885 3.31713 0
M  V30 590 C 58.312 1.87028 2.04733 0
M  V30 591 H 61.263 1.36802 0.804419 0
M  V30 592 H 61.284 1.43336 3.5247 0
M  V30 593 H 60.796 2.9544 2.51668 0
M  V30 594 H 58.897 0.762995 3.64704 0
M  V30 595 H 59.01 2.61047 4.01735 0
M  V30 596 H 57.374 1.30565 2.18689 0
M  V30 597 H 58.157 2.92929 1.79017 0
M  V30 598 N 60.6021 -1.18246 1.0419 0
M  V30 599 C 61.8301 -1.92195 0.766072 0
M  V30 600 C 62.2451 -1.76247 -0.676933 0
M  V30 601 O 61.6021 -1.09293 -1.46155 0
M  V30 602 C 61.6531 -3.43568 1.12442 0
M  V30 603 O 61.3741 -3.59015 2.51078 0
M  V30 604 C 62.8751 -4.34613 0.873275 0
M  V30 605 H 60.0951 -0.610114 0.279288 0
M  V30 606 H 62.6391 -1.50007 1.38989 0
M  V30 607 H 60.7941 -3.8354 0.545542 0
M  V30 608 H 61.2081 -4.5273 2.64831 0
M  V30 609 H 62.6821 -5.39374 1.17385 0
M  V30 610 H 63.1591 -4.38781 -0.191909 0
M  V30 611 H 63.7651 -4.00341 1.43551 0
M  V30 612 N 62.0802 -0.821533 -1.34494 0
M  V30 613 C 63.0432 -0.247847 -2.27856 0
M  V30 614 C 64.0432 0.573453 -1.50227 0
M  V30 615 O 65.2332 0.389759 -1.69784 0
M  V30 616 C 62.3652 0.652698 -3.34593 0
M  V30 617 H 63.5582 -1.07146 -2.80107 0
M  V30 618 H 61.1112 -0.593291 -1.44602 0
M  V30 619 H 61.8462 1.49943 -2.87555 0
M  V30 620 H 61.6312 0.065292 -3.92046 0
M  V30 621 H 63.1212 1.04793 -4.04238 0
M  V30 622 N 63.5583 1.46682 -0.576371 0
M  V30 623 C 64.4683 2.34032 0.163141 0
M  V30 624 C 65.4843 1.49367 0.892501 0
M  V30 625 O 66.6603 1.82252 0.857106 0
M  V30 626 C 63.7253 3.26435 1.16795 0
M  V30 627 C 62.7863 4.26998 0.443944 0
M  V30 628 C 62.0193 5.14986 1.40088 0
M  V30 629 O 62.2423 5.05785 2.637 0
M  V30 630 O 61.1763 5.94906 0.914917 0
M  V30 631 H 65.0023 2.98607 -0.55388 0
M  V30 632 H 62.5873 1.45554 -0.336821 0
M  V30 633 H 64.4693 3.83459 1.74748 0
M  V30 634 H 63.1443 2.64465 1.86655 0
M  V30 635 H 62.0513 3.7368 -0.177271 0
M  V30 636 H 63.3843 4.91736 -0.213566 0
M  V30 637 N 65.0364 0.313813 1.54444 0
M  V30 638 C 65.9464 -0.565714 2.27677 0
M  V30 639 C 66.9624 -1.13754 1.31666 0
M  V30 640 O 68.1384 -1.15959 1.64668 0
M  V30 641 C 65.2034 -1.71528 3.01296 0
M  V30 642 C 64.2644 -1.17624 4.12872 0
M  V30 643 C 63.4974 -2.27102 4.8297 0
M  V30 644 O 63.7204 -3.47256 4.52514 0
M  V30 645 O 62.6544 -1.9307 5.70094 0
M  V30 646 H 66.4804 0.0287296 3.03686 0
M  V30 647 H 64.0654 0.0798312 1.49187 0
M  V30 648 H 65.9474 -2.38476 3.4743 0
M  V30 649 H 64.6224 -2.29608 2.2817 0
M  V30 650 H 63.5294 -0.472124 3.71109 0
M  V30 651 H 64.8624 -0.640695 4.88012 0
M  V30 652 N 66.5145 -1.57545 0.0417849 0
M  V30 653 C 67.4245 -2.14451 -0.951213 0
M  V30 654 C 68.4405 -1.09992 -1.34825 0
M  V30 655 O 69.6165 -1.42114 -1.42708 0
M  V30 656 C 66.6815 -2.67063 -2.21084 0
M  V30 657 C 65.7425 -3.86284 -1.87304 0
M  V30 658 C 64.9755 -4.36378 -3.07261 0
M  V30 659 O 65.1985 -3.85587 -4.20332 0
M  V30 660 O 64.1325 -5.28077 -2.88822 0
M  V30 661 H 67.9585 -2.99601 -0.497287 0
M  V30 662 H 65.5435 -1.48317 -0.179567 0
M  V30 663 H 67.4255 -3.00914 -2.95006 0
M  V30 664 H 66.1005 -1.84989 -2.65633 0
M  V30 665 H 65.0075 -3.57338 -1.10727 0
M  V30 666 H 66.3405 -4.6956 -1.47562 0
M  V30 667 N 67.9926 0.231505 -1.5589 0
M  V30 668 C 68.9556 1.27028 -1.90779 0
M  V30 669 C 69.9556 1.40308 -0.785507 0
M  V30 670 O 71.1456 1.38744 -1.05336 0
M  V30 671 C 68.2776 2.64566 -2.14983 0
M  V30 672 H 69.4706 0.973017 -2.83677 0
M  V30 673 H 67.0236 0.471486 -1.49019 0
M  V30 674 H 67.7586 2.99406 -1.24604 0
M  V30 675 H 67.5436 2.56305 -2.96732 0
M  V30 676 H 69.0336 3.39543 -2.43105 0
M  V30 677 N 69.4707 1.49531 0.497807 0
M  V30 678 C 70.4007 1.6935 1.60757 0
M  V30 679 C 71.3817 0.542218 1.61227 0
M  V30 680 O 72.5667 0.778417 1.77917 0
M  V30 681 C 69.6967 1.76298 2.99226 0
M  V30 682 C 68.6507 2.91248 3.13622 0
M  V30 683 C 67.9767 2.83312 4.53474 0
M  V30 684 C 69.2767 4.3214 2.93346 0
M  V30 685 H 70.9707 2.62263 1.44425 0
M  V30 686 H 68.5167 1.26208 0.693367 0
M  V30 687 H 70.4697 1.88749 3.76765 0
M  V30 688 H 69.1937 0.799871 3.16654 0
M  V30 689 H 67.8527 2.78404 2.38509 0
M  V30 690 H 67.5007 1.84902 4.67782 0
M  V30 691 H 67.2007 3.60465 4.64046 0
M  V30 692 H 68.7247 2.97775 5.33069 0
M  V30 693 H 70.1387 4.45649 3.60652 0
M  V30 694 H 68.5357 5.1054 3.15387 0
M  V30 695 H 69.6057 4.46363 1.89441 0
M  V30 696 N 70.9488 -0.749086 1.3866 0
M  V30 697 C 72.1978 -1.50371 1.3443 0
M  V30 698 C 72.5108 -1.95503 -0.0616397 0
M  V30 699 O 73.7168 -2.70554 -0.226489 0
M  V30 700 C 72.1728 -2.71644 2.36088 0
M  V30 701 C 71.7808 -2.3352 3.82325 0
M  V30 702 C 73.5248 -3.49518 2.40909 0
M  V30 703 C 71.4318 -3.51431 4.75658 0
M  V30 704 H 70.3618 -0.564628 0.499712 0
M  V30 705 H 73.0128 -0.818449 1.64237 0
M  V30 706 H 71.3948 -3.42175 1.9933 0
M  V30 707 H 72.5688 -1.70627 4.28046 0
M  V30 708 H 70.8838 -1.6877 3.80665 0
M  V30 709 H 73.4808 -4.37197 3.07836 0
M  V30 710 H 73.8238 -3.90992 1.42937 0
M  V30 711 H 74.3568 -2.86005 2.76489 0
M  V30 712 H 71.0958 -3.15019 5.74842 0
M  V30 713 H 70.6158 -4.13352 4.34627 0
M  V30 714 H 72.2948 -4.17953 4.93887 0
M  V30 715 N 72.4269 -1.23603 -0.977757 0
M  V30 716 C 73.3369 -1.03632 -2.1047 0
M  V30 717 C 74.3529 0.0199435 -1.73989 0
M  V30 718 O 75.5289 -0.176076 -2.00629 0
M  V30 719 C 72.5939 -0.63276 -3.40877 0
M  V30 720 C 71.6549 -1.76437 -3.91367 0
M  V30 721 C 70.8879 -1.37997 -5.15551 0
M  V30 722 O 71.1109 -0.265357 -5.69782 0
M  V30 723 O 70.0449 -2.20201 -5.60174 0
M  V30 724 H 73.8709 -1.98086 -2.30208 0
M  V30 725 H 71.4559 -1.02332 -1.08851 0
M  V30 726 H 73.3379 -0.418761 -4.19314 0
M  V30 727 H 72.0129 0.282754 -3.22463 0
M  V30 728 H 70.9199 -2.03304 -3.14036 0
M  V30 729 H 72.2529 -2.6583 -4.14241 0
M  V30 730 N 73.905 1.17692 -1.04816 0
M  V30 731 C 75.152 1.87859 -0.75599 0
M  V30 732 C 75.48 1.80812 0.716752 0
M  V30 733 O 74.735 1.20819 1.53952 0
M  V30 734 C 75.034 3.37462 -1.17703 0
M  V30 735 C 74.7 3.64713 -2.65133 0
M  V30 736 C 73.362 3.71859 -3.05408 0
M  V30 737 C 75.714 3.76492 -3.60421 0
M  V30 738 C 73.042 3.88271 -4.39843 0
M  V30 739 C 75.394 3.94421 -4.94585 0
M  V30 740 C 74.058 3.99806 -5.3452 0
M  V30 741 H 73.328 0.687425 -0.276636 0
M  V30 742 H 75.975 1.39255 -1.31455 0
M  V30 743 H 74.28 3.88097 -0.537395 0
M  V30 744 H 75.977 3.90109 -0.928218 0
M  V30 745 H 72.567 3.59772 -2.32942 0
M  V30 746 H 76.751 3.70295 -3.30447 0
M  V30 747 H 72.007 3.90687 -4.70291 0
M  V30 748 H 76.181 4.02477 -5.68318 0
M  V30 749 H 73.808 4.12276 -6.38696 0
M  V30 750 N 75.3831 0.828654 1.34056 0
M  V30 751 C 76.3331 0.226828 2.26869 0
M  V30 752 C 77.3171 -0.612243 1.48796 0
M  V30 753 O 78.5091 -0.465884 1.70759 0
M  V30 754 C 75.6381 -0.605654 3.37915 0
M  V30 755 C 74.7241 0.244361 4.23395 0
M  V30 756 N 75.1151 1.31815 4.88322 0
M  V30 757 C 73.4131 0.0296616 4.4599 0
M  V30 758 C 74.1141 1.83895 5.51867 0
M  V30 759 N 73.0901 1.14196 5.3147 0
M  V30 760 H 76.8921 1.04811 2.74576 0
M  V30 761 H 74.4061 0.67205 1.47842 0
M  V30 762 H 76.4031 -1.05302 4.03382 0
M  V30 763 H 75.0631 -1.42504 2.91758 0
M  V30 764 H 76.0741 1.70099 4.8917 0
M  V30 765 H 72.7511 -0.757097 4.10578 0
M  V30 766 H 74.1411 2.7376 6.136 0
M  V30 767 N 76.8612 -1.46375 0.584142 0
M  V30 768 C 78.2772 -1.57694 0.245929 0
M  V30 769 C 78.4772 -1.57903 -1.25175 0
M  V30 770 O 77.5332 -1.49676 -2.03355 0
M  V30 771 C 78.8462 -2.87028 0.896402 0
M  V30 772 C 80.3942 -3.00662 0.870127 0
M  V30 773 C 80.8692 -4.32734 1.50017 0
M  V30 774 N 82.3602 -4.39436 1.46458 0
M  V30 775 C 83.0952 -5.40248 1.92144 0
M  V30 776 N 82.5912 -6.47726 2.4581 0
M  V30 777 N 84.3842 -5.31459 1.83052 0
M  V30 778 H 76.5352 -1.44483 1.55687 0
M  V30 779 H 78.7982 -0.689291 0.650831 0
M  V30 780 H 78.5042 -2.9269 1.95002 0
M  V30 781 H 78.3782 -3.75014 0.405486 0
M  V30 782 H 80.7652 -2.94581 -0.174871 0
M  V30 783 H 80.8462 -2.14148 1.39908 0
M  V30 784 H 80.4902 -4.39573 2.54437 0
M  V30 785 H 80.4202 -5.18025 0.946432 0
M  V30 786 H 82.9112 -3.62367 1.07231 0
M  V30 787 H 83.2242 -7.20863 2.78525 0
M  V30 788 H 81.5692 -6.48542 2.49836 0
M  V30 789 H 84.7602 -4.46396 1.40883 0
M  V30 790 H 84.9332 -6.09881 2.18973 0
M  V30 791 N 78.3393 -0.321999 -1.54275 0
M  V30 792 C 79.5643 0.285791 -2.05422 0
M  V30 793 C 79.9893 1.45124 -1.19669 0
M  V30 794 O 79.3473 1.80132 -0.205441 0
M  V30 795 C 79.3953 0.69956 -3.53749 0
M  V30 796 O 78.4993 1.8021 -3.70942 0
M  V30 797 H 77.8403 0.0518962 -0.661969 0
M  V30 798 H 80.3703 -0.469954 -1.9913 0
M  V30 799 H 80.3803 0.982649 -3.9599 0
M  V30 800 H 79.0553 -0.152864 -4.15619 0
M  V30 801 H 77.6323 1.51794 -3.40607 0
M  V30 802 N 79.8174 1.5752 -0.0501392 0
M  V30 803 C 81.0474 1.96678 0.632573 0
M  V30 804 C 81.4554 0.926298 1.64974 0
M  V30 805 O 80.7984 -0.09802 1.83438 0
M  V30 806 C 80.8604 3.32068 1.37735 0
M  V30 807 C 80.5244 4.54076 0.516131 0
M  V30 808 C 81.5214 5.19445 -0.217357 0
M  V30 809 C 79.2064 5.00304 0.44736 0
M  V30 810 C 81.2004 6.29378 -1.00807 0
M  V30 811 C 78.8874 6.10114 -0.347038 0
M  V30 812 C 79.8854 6.74512 -1.07344 0
M  V30 813 O 79.5734 7.82211 -1.85477 0
M  V30 814 H 79.3054 0.652193 0.177821 0
M  V30 815 H 81.8594 2.05091 -0.112543 0
M  V30 816 H 80.0894 3.20206 2.16807 0
M  V30 817 H 81.7784 3.55981 1.95019 0
M  V30 818 H 82.5444 4.84689 -0.173688 0
M  V30 819 H 78.4234 4.49971 1.00235 0
M  V30 820 H 81.9674 6.79575 -1.57556 0
M  V30 821 H 77.8644 6.44307 -0.392349 0
M  V30 822 H 78.6324 7.98982 -1.77678 0
M  V30 823 N 81.2955 -0.223234 1.56011 0
M  V30 824 C 82.7115 -0.572856 1.48965 0
M  V30 825 C 82.9115 -1.87225 0.74492 0
M  V30 826 O 81.9675 -2.50899 0.283896 0
M  V30 827 C 83.2805 -0.653646 2.9351 0
M  V30 828 C 84.8285 -0.744386 3.0402 0
M  V30 829 C 85.3035 -0.856535 4.49919 0
M  V30 830 N 86.7945 -0.9208 4.53955 0
M  V30 831 C 87.5295 -1.02726 5.64123 0
M  V30 832 N 87.0255 -1.09777 6.84047 0
M  V30 833 N 88.8185 -1.06226 5.51971 0
M  V30 834 H 80.9695 0.629462 2.02858 0
M  V30 835 H 83.2325 0.220621 0.921971 0
M  V30 836 H 82.9385 0.231518 3.50937 0
M  V30 837 H 82.8125 -1.51781 3.45315 0
M  V30 838 H 85.1995 -1.61999 2.46658 0
M  V30 839 H 85.2805 0.14541 2.55386 0
M  V30 840 H 84.9245 0.0146069 5.07898 0
M  V30 841 H 84.8545 -1.76172 4.96257 0
M  V30 842 H 87.3455 -0.876694 3.6759 0
M  V30 843 H 87.6585 -1.17872 7.63758 0
M  V30 844 H 86.0035 -1.06693 6.86762 0
M  V30 845 H 89.1945 -1.00382 4.5721 0
M  V30 846 H 89.3675 -1.14177 6.37862 0
M  V30 847 N 82.7736 -1.49793 -0.48987 0
M  V30 848 C 83.6836 -1.70036 -1.61632 0
M  V30 849 C 84.6996 -0.583102 -1.63939 0
M  V30 850 O 85.8756 -0.859169 -1.82154 0
M  V30 851 C 82.9406 -1.77277 -2.97949 0
M  V30 852 C 82.0016 -3.00918 -3.06181 0
M  V30 853 C 81.2346 -3.07804 -4.35996 0
M  V30 854 O 81.4576 -2.21982 -5.25433 0
M  V30 855 O 80.3916 -4.00369 -4.49431 0
M  V30 856 H 84.2176 -2.65486 -1.47482 0
M  V30 857 H 81.8026 -1.33666 -0.667362 0
M  V30 858 H 83.6846 -1.84329 -3.78947 0
M  V30 859 H 82.3596 -0.850076 -3.12339 0
M  V30 860 H 81.2666 -2.99377 -2.2433 0
M  V30 861 H 82.5996 -3.92704 -2.96723 0
M  V30 862 N 84.2517 0.741722 -1.39055 0
M  V30 863 C 85.1817 1.869 -1.39966 0
M  V30 864 C 86.1627 1.6804 -0.26392 0
M  V30 865 O 87.3477 1.88458 -0.468755 0
M  V30 866 C 84.4777 3.24572 -1.23574 0
M  V30 867 C 83.4317 3.58056 -2.34477 0
M  V30 868 C 82.7577 4.94593 -2.0318 0
M  V30 869 C 84.0577 3.61716 -3.76774 0
M  V30 870 H 85.7517 1.86395 -2.34302 0
M  V30 871 H 83.2977 0.895361 -1.1278 0
M  V30 872 H 85.2507 4.031 -1.22834 0
M  V30 873 H 83.9747 3.25587 -0.257045 0
M  V30 874 H 82.6337 2.81854 -2.34423 0
M  V30 875 H 82.2817 4.92181 -1.03765 0
M  V30 876 H 81.9817 5.17964 -2.77465 0
M  V30 877 H 83.5057 5.75486 -2.04079 0
M  V30 878 H 84.9197 4.30335 -3.78794 0
M  V30 879 H 83.3167 3.96603 -4.50362 0
M  V30 880 H 84.3867 2.61672 -4.08235 0
M  V30 881 N 85.7298 1.2412 0.971189 0
M  V30 882 C 86.9768 1.07881 1.71371 0
M  V30 883 C 87.3048 -0.382901 1.90694 0
M  V30 884 O 86.5598 -1.29945 1.46331 0
M  V30 885 C 86.8588 1.75983 3.11071 0
M  V30 886 C 86.5248 3.25909 3.11599 0
M  V30 887 C 85.1868 3.66813 3.11451 0
M  V30 888 C 87.5388 4.21771 3.062 0
M  V30 889 C 84.8668 5.02021 3.03631 0
M  V30 890 C 87.2188 5.56982 2.99923 0
M  V30 891 C 85.8828 5.97237 2.98102 0
M  V30 892 H 85.1528 0.394764 0.62709 0
M  V30 893 H 87.7998 1.54176 1.13587 0
M  V30 894 H 86.1048 1.22072 3.72298 0
M  V30 895 H 87.8018 1.60887 3.6731 0
M  V30 896 H 84.3918 2.93353 3.12477 0
M  V30 897 H 88.5758 3.91172 3.05447 0
M  V30 898 H 83.8318 5.32411 3.0058 0
M  V30 899 H 88.0058 6.30969 2.94704 0
M  V30 900 H 85.6328 7.01967 2.91798 0
M  V30 901 N 87.2079 -1.17134 1.05439 0
M  V30 902 C 88.1179 -2.24878 0.668365 0
M  V30 903 C 89.1339 -1.71186 -0.311687 0
M  V30 904 O 90.3099 -2.00738 -0.163161 0
M  V30 905 C 87.3749 -3.46662 0.051648 0
M  V30 906 C 86.4359 -4.15429 1.08246 0
M  V30 907 C 85.6689 -5.31399 0.495082 0
M  V30 908 O 85.8919 -5.66153 -0.694743 0
M  V30 909 O 84.8259 -5.89187 1.23056 0
M  V30 910 H 88.6519 -2.60189 1.56637 0
M  V30 911 H 86.2369 -1.24482 0.826104 0
M  V30 912 H 88.1189 -4.20394 -0.290966 0
M  V30 913 H 86.7939 -3.13142 -0.819971 0
M  V30 914 H 85.7009 -3.43704 1.47711 0
M  V30 915 H 87.0339 -4.52982 1.92532 0
M  V30 916 N 88.686 -0.835752 -1.33615 0
M  V30 917 C 89.933 -0.429959 -1.97883 0
M  V30 918 C 90.261 1.01006 -1.66217 0
M  V30 919 O 89.516 1.72047 -0.93265 0
M  V30 920 C 89.815 -0.593925 -3.52431 0
M  V30 921 C 89.481 -2.00158 -4.04039 0
M  V30 922 C 88.143 -2.38662 -4.17844 0
M  V30 923 C 90.495 -2.92117 -4.31644 0
M  V30 924 C 87.823 -3.68435 -4.56588 0
M  V30 925 C 90.175 -4.21368 -4.71838 0
M  V30 926 C 88.839 -4.59833 -4.83849 0
M  V30 927 H 88.109 -0.157333 -0.724104 0
M  V30 928 H 90.756 -1.06217 -1.59343 0
M  V30 929 H 89.061 0.121619 -3.91611 0
M  V30 930 H 90.758 -0.260282 -4.00154 0
M  V30 931 H 87.348 -1.69252 -3.93766 0
M  V30 932 H 91.532 -2.63608 -4.20505 0
M  V30 933 H 86.788 -3.98046 -4.64079 0
M  V30 934 H 90.962 -4.92703 -4.92155 0
M  V30 935 H 88.589 -5.60438 -5.13627 0
M  V30 936 N 90.1641 1.46063 -0.591896 0
M  V30 937 C 91.4111 2.02338 -0.0809991 0
M  V30 938 C 91.7391 1.46228 1.28249 0
M  V30 939 O 90.9941 0.620818 1.85592 0
M  V30 940 C 91.2931 3.57391 0.0249813 0
M  V30 941 C 90.9591 4.32583 -1.27211 0
M  V30 942 C 89.6211 4.52844 -1.62745 0
M  V30 943 C 91.9731 4.75687 -2.13005 0
M  V30 944 C 89.3011 5.13462 -2.83855 0
M  V30 945 C 91.6531 5.37644 -3.3335 0
M  V30 946 C 90.3171 5.5613 -3.69155 0
M  V30 947 H 89.5871 0.740407 -0.0296397 0
M  V30 948 H 92.2341 1.75321 -0.770374 0
M  V30 949 H 90.5391 3.83597 0.797537 0
M  V30 950 H 92.2361 3.98621 0.436184 0
M  V30 951 H 88.8261 4.17116 -0.985499 0
M  V30 952 H 93.0101 4.59782 -1.86855 0
M  V30 953 H 88.2661 5.25965 -3.11722 0
M  V30 954 H 92.4401 5.7 -4.00092 0
M  V30 955 H 90.0671 6.0287 -4.63089 0
M  V30 956 N 91.6422 0.330177 1.54103 0
M  V30 957 C 92.8822 -0.270916 2.02597 0
M  V30 958 C 93.2462 -1.48826 1.21304 0
M  V30 959 O 94.4472 -2.16266 1.59633 0
M  V30 960 C 92.7182 -0.590328 3.52491 0
M  V30 961 S 94.2772 -1.17014 4.2291 0
M  V30 962 H 91.0952 -0.0815379 0.706309 0
M  V30 963 H 93.6972 0.464835 1.89893 0
M  V30 964 H 92.4012 0.303691 4.09275 0
M  V30 965 H 91.9322 -1.3561 3.69288 0
M  V30 966 H 93.9472 -2.45662 4.3112 0
M  V30 967 N 93.1203 -1.57491 0.0584922 0
M  V30 968 C 94.0683 -2.13148 -0.931168 0
M  V30 969 C 95.0623 -1.06507 -1.31729 0
M  V30 970 O 96.2683 -1.24906 -1.29609 0
M  V30 971 H 92.6433 -0.68137 -0.31818 0
M  V30 972 H 94.6143 -2.95187 -0.436707 0
M  V30 973 C 93.3633 -2.69732 -2.19408 0
M  V30 974 H 92.6863 -3.51454 -1.90578 0
M  V30 975 H 94.1263 -3.12287 -2.86798 0
M  V30 976 C 92.5853 -1.63855 -2.94369 0
M  V30 977 O 93.1153 -1.05565 -3.87581 0
M  V30 978 N 91.3213 -1.35202 -2.57233 0
M  V30 979 H 90.8683 -1.82791 -1.81508 0
M  V30 980 H 90.8263 -0.645922 -3.07693 0
M  V30 981 N 94.5984 0.214957 -1.56127 0
M  V30 982 C 95.5464 1.28601 -1.93816 0
M  V30 983 C 96.5404 1.48175 -0.821016 0
M  V30 984 O 97.7464 1.49271 -1.0059 0
M  V30 985 H 94.1214 0.431302 -0.616022 0
M  V30 986 H 96.0924 0.940991 -2.83175 0
M  V30 987 C 94.8414 2.62779 -2.27689 0
M  V30 988 H 94.1644 2.48527 -3.13168 0
M  V30 989 H 95.6044 3.36517 -2.57939 0
M  V30 990 C 94.0634 3.18285 -1.10436 0
M  V30 991 O 94.5934 4.00002 -0.368945 0
M  V30 992 N 92.7994 2.7675 -0.886433 0
M  V30 993 H 92.3464 2.10404 -1.48619 0
M  V30 994 H 92.3044 3.14229 -0.103656 0
M  V30 995 N 96.0765 1.50051 0.48192 0
M  V30 996 C 97.3045 1.64237 1.25832 0
M  V30 997 C 97.7195 0.321336 1.86045 0
M  V30 998 O 97.0765 -0.695478 1.68729 0
M  V30 999 C 97.1275 2.72548 2.37487 0
M  V30 1000 O 96.8485 3.99529 1.79745 0
M  V30 1001 C 98.3495 2.9761 3.28547 0
M  V30 1002 H 95.5695 0.55237 0.380957 0
M  V30 1003 H 98.1135 1.96207 0.576467 0
M  V30 1004 H 96.2685 2.43303 3.01467 0
M  V30 1005 H 96.6825 4.59342 2.5319 0
M  V30 1006 H 98.1565 3.77084 4.03127 0
M  V30 1007 H 98.6335 2.0826 3.86684 0
M  V30 1008 H 99.2395 3.28345 2.70314 0
M  V30 1009 N 97.5546 -0.734337 1.39446 0
M  V30 1010 C 98.7826 -1.52358 1.39981 0
M  V30 1011 C 99.1976 -1.88799 -0.0054975 0
M  V30 1012 O 98.5546 -1.54146 -0.976998 0
M  V30 1013 C 98.6056 -2.81072 2.27333 0
M  V30 1014 O 98.3266 -2.46178 3.62392 0
M  V30 1015 C 99.8276 -3.75096 2.36259 0
M  V30 1016 H 97.0476 -0.470806 0.478103 0
M  V30 1017 H 99.5916 -0.907339 1.83269 0
M  V30 1018 H 97.7466 -3.39026 1.87457 0
M  V30 1019 H 98.1606 -3.28866 4.08592 0
M  V30 1020 H 99.6346 -4.62305 3.01626 0
M  V30 1021 H 100.112 -4.16892 1.38194 0
M  V30 1022 H 100.718 -3.23061 2.76608 0
M  V30 1023 N 99.0327 -1.24633 -0.964593 0
M  V30 1024 C 100.282 -1.08188 -1.7023 0
M  V30 1025 C 100.595 0.37873 -1.91898 0
M  V30 1026 O 101.801 0.663427 -2.6327 0
M  V30 1027 C 100.257 -1.88773 -3.06419 0
M  V30 1028 C 99.8647 -3.39263 -2.92582 0
M  V30 1029 C 101.609 -1.80867 -3.84041 0
M  V30 1030 C 99.5157 -4.1218 -4.24101 0
M  V30 1031 H 98.4457 -0.401245 -0.638372 0
M  V30 1032 H 101.097 -1.48742 -1.07462 0
M  V30 1033 H 99.4787 -1.41035 -3.70034 0
M  V30 1034 H 100.653 -3.94603 -2.37961 0
M  V30 1035 H 98.9677 -3.48154 -2.28424 0
M  V30 1036 H 101.565 -2.32646 -4.81435 0
M  V30 1037 H 101.908 -0.774543 -4.09031 0
M  V30 1038 H 102.441 -2.26301 -3.27159 0
M  V30 1039 H 99.1797 -5.15965 -4.04303 0
M  V30 1040 H 98.6997 -3.61626 -4.78526 0
M  V30 1041 H 100.379 -4.19349 -4.92702 0
M  V30 1042 N 100.511 1.16574 -1.06058 0
M  V30 1043 C 101.461 2.18854 -0.63929 0
M  V30 1044 C 102.445 1.57505 0.328798 0
M  V30 1045 O 103.637 1.76408 0.144623 0
M  V30 1046 C 100.766 3.43291 -0.0247203 0
M  V30 1047 C 99.8518 4.11722 -1.01716 0
M  V30 1048 N 100.243 4.55841 -2.19186 0
M  V30 1049 C 98.5408 4.37872 -0.847569 0
M  V30 1050 C 99.2418 5.08751 -2.82042 0
M  V30 1051 N 98.2178 5.01489 -2.09784 0
M  V30 1052 H 102.02 2.5068 -1.53417 0
M  V30 1053 H 99.5338 1.32999 -0.931935 0
M  V30 1054 H 101.531 4.15856 0.294915 0
M  V30 1055 H 100.191 3.12954 0.865448 0
M  V30 1056 H 101.202 4.49649 -2.56975 0
M  V30 1057 H 97.8788 4.17499 -0.00918848 0
M  V30 1058 H 99.2688 5.52944 -3.81709 0
M  V30 1059 N 101.989 0.842826 1.3317 0
M  V30 1060 C 103.237 0.439577 1.97262 0
M  V30 1061 C 103.558 -1.00548 1.67078 0
M  V30 1062 O 102.828 -1.70098 0.971779 0
M  V30 1063 H 101.408 0.159558 0.72976 0
M  V30 1064 H 104.07 1.07665 1.62463 0
M  V30 1065 H 103.166 0.574886 3.0676 0
M  V30 1066 N 103.467 -1.45747 0.599634 0
M  V30 1067 C 104.43 -2.28917 -0.113835 0
M  V30 1068 C 105.43 -1.3933 -0.802729 0
M  V30 1069 O 106.62 -1.61534 -0.652103 0
M  V30 1070 C 103.752 -3.20152 -1.17114 0
M  V30 1071 H 104.945 -2.93478 0.617289 0
M  V30 1072 H 102.498 -1.52137 0.358327 0
M  V30 1073 H 103.233 -2.60374 -1.93329 0
M  V30 1074 H 103.018 -3.86133 -0.681468 0
M  V30 1075 H 104.508 -3.82708 -1.67105 0
M  V30 1076 N 104.945 -0.338344 -1.53925 0
M  V30 1077 C 106.194 0.260732 -2.00008 0
M  V30 1078 C 106.507 1.52073 -1.23017 0
M  V30 1079 O 107.713 2.19672 -1.5955 0
M  V30 1080 C 106.169 0.51515 -3.56194 0
M  V30 1081 C 105.777 -0.728645 -4.42035 0
M  V30 1082 C 107.521 1.07337 -4.10706 0
M  V30 1083 C 105.428 -0.445315 -5.89721 0
M  V30 1084 H 104.358 0.101205 -0.747177 0
M  V30 1085 H 107.009 -0.452866 -1.77824 0
M  V30 1086 H 105.391 1.28932 -3.74423 0
M  V30 1087 H 106.565 -1.50352 -4.35581 0
M  V30 1088 H 104.88 -1.20813 -3.98489 0
M  V30 1089 H 107.477 1.30022 -5.18651 0
M  V30 1090 H 107.82 2.0273 -3.63602 0
M  V30 1091 H 108.353 0.360034 -3.96167 0
M  V30 1092 H 105.092 -1.36883 -6.41049 0
M  V30 1093 H 104.612 0.291569 -5.99091 0
M  V30 1094 H 106.291 -0.0606218 -6.46972 0
M  V30 1095 N 106.423 1.57458 -0.0668435 0
M  V30 1096 C 107.839 1.56947 0.289772 0
M  V30 1097 C 108.039 1.07584 1.70376 0
M  V30 1098 O 107.095 0.739486 2.41429 0
M  V30 1099 C 108.408 3.0052 0.103943 0
M  V30 1100 C 109.956 3.12517 0.173857 0
M  V30 1101 C 110.431 4.57997 0.0163682 0
M  V30 1102 N 111.922 4.63144 0.0721352 0
M  V30 1103 C 112.657 5.73394 -0.0253794 0
M  V30 1104 N 112.153 6.92576 -0.176133 0
M  V30 1105 N 113.946 5.62091 0.0313305 0
M  V30 1106 H 106.097 1.87863 -0.991027 0
M  V30 1107 H 108.36 0.86583 -0.38606 0
M  V30 1108 H 108.066 3.40729 -0.871572 0
M  V30 1109 H 107.94 3.67304 0.858366 0
M  V30 1110 H 110.327 2.72197 1.13985 0
M  V30 1111 H 110.408 2.48381 -0.611586 0
M  V30 1112 H 110.052 4.99005 -0.946374 0
M  V30 1113 H 109.982 5.20158 0.821153 0
M  V30 1114 H 112.473 3.77436 0.187263 0
M  V30 1115 H 112.786 7.72418 -0.242821 0
M  V30 1116 H 111.131 6.94678 -0.211429 0
M  V30 1117 H 114.322 4.67867 0.147773 0
M  V30 1118 H 114.495 6.47982 -0.048121 0
M  V30 1119 N 107.901 -0.206675 1.56239 0
M  V30 1120 C 108.831 -1.25909 1.96645 0
M  V30 1121 C 109.812 -1.48097 0.836734 0
M  V30 1122 O 110.997 -1.6003 1.10019 0
M  V30 1123 C 108.127 -2.6058 2.29599 0
M  V30 1124 C 107.081 -2.53024 3.452 0
M  V30 1125 C 106.407 -3.91861 3.63798 0
M  V30 1126 C 107.707 -2.06524 4.79734 0
M  V30 1127 H 109.401 -0.923369 2.84806 0
M  V30 1128 H 106.947 -0.442735 1.37025 0
M  V30 1129 H 108.9 -3.34375 2.56459 0
M  V30 1130 H 107.624 -2.95869 1.38307 0
M  V30 1131 H 106.283 -1.81684 3.18412 0
M  V30 1132 H 105.931 -4.24483 2.69857 0
M  V30 1133 H 105.631 -3.87683 4.4156 0
M  V30 1134 H 107.155 -4.67296 3.93022 0
M  V30 1135 H 108.569 -2.70072 5.05702 0
M  V30 1136 H 106.966 -2.13374 5.60885 0
M  V30 1137 H 108.036 -1.01802 4.74093 0
M  V30 1138 N 109.379 -1.50304 -0.473955 0
M  V30 1139 C 110.625 -1.61389 -1.22806 0
M  V30 1140 C 110.958 -0.311955 -1.91678 0
M  V30 1141 O 110.233 0.686384 -1.81986 0
M  V30 1142 C 110.516 -2.79219 -2.27396 0
M  V30 1143 C 110.369 -4.19286 -1.62848 0
M  V30 1144 C 111.688 -2.92614 -3.28732 0
M  V30 1145 H 108.807 -0.587399 -0.445119 0
M  V30 1146 H 111.449 -1.82681 -0.522265 0
M  V30 1147 H 109.599 -2.61195 -2.87592 0
M  V30 1148 H 111.271 -4.48892 -1.06271 0
M  V30 1149 H 109.514 -4.23677 -0.931693 0
M  V30 1150 H 110.185 -4.97655 -2.38838 0
M  V30 1151 H 112.661 -3.09105 -2.78556 0
M  V30 1152 H 111.537 -3.76688 -3.99246 0
M  V30 1153 H 111.798 -2.03107 -3.92683 0
M  V30 1154 N 110.857 0.726932 -1.39834 0
M  V30 1155 C 112.097 1.4992 -1.38936 0
M  V30 1156 C 112.461 1.91996 0.0126883 0
M  V30 1157 O 113.662 2.68399 0.146715 0
M  V30 1158 C 111.933 2.70013 -2.34153 0
M  V30 1159 S 113.492 3.59563 -2.51515 0
M  V30 1160 H 110.31 0.51271 -0.492595 0
M  V30 1161 H 112.912 0.85107 -1.76003 0
M  V30 1162 H 111.616 2.37254 -3.34871 0
M  V30 1163 H 111.147 3.39748 -1.98331 0
M  V30 1164 H 113.162 4.63973 -1.75909 0
M  V30 1165 N 112.336 1.25143 0.95797 0
M  V30 1166 C 113.561 1.12521 1.74223 0
M  V30 1167 C 113.986 -0.317402 1.85403 0
M  V30 1168 O 113.344 -1.2299 1.33204 0
M  V30 1169 C 113.392 1.78062 3.1357 0
M  V30 1170 O 112.496 1.058 3.98598 0
M  V30 1171 H 111.837 0.39304 0.535178 0
M  V30 1172 H 114.367 1.65641 1.201 0
M  V30 1173 H 114.377 1.84213 3.64046 0
M  V30 1174 H 113.052 2.83021 3.04749 0
M  V30 1175 H 111.629 1.07506 3.57067 0
M  V30 1176 N 113.814 -1.1601 1.06675 0
M  V30 1177 C 114.746 -2.20115 0.638921 0
M  V30 1178 C 115.759 -1.59916 -0.305057 0
M  V30 1179 O 116.948 -1.78245 -0.0954446 0
M  V30 1180 C 114.048 -3.38798 -0.0830083 0
M  V30 1181 C 113.221 -4.2855 0.875426 0
M  V30 1182 C 112.28 -5.25849 0.192042 0
M  V30 1183 O 111.306 -5.63102 0.830921 0
M  V30 1184 N 112.508 -5.70648 -1.06493 0
M  V30 1185 H 115.273 -2.57439 1.53444 0
M  V30 1186 H 112.834 -1.31057 0.950557 0
M  V30 1187 H 114.826 -4.00936 -0.550685 0
M  V30 1188 H 113.396 -2.99947 -0.880386 0
M  V30 1189 H 112.616 -3.63617 1.52238 0
M  V30 1190 H 113.904 -4.85393 1.52548 0
M  V30 1191 H 113.302 -5.42482 -1.60405 0
M  V30 1192 H 111.859 -6.34859 -1.47641 0
M  V30 1193 N 115.292 -0.849877 -1.32721 0
M  V30 1194 C 116.242 -0.262892 -2.26479 0
M  V30 1195 C 117.226 0.588493 -1.49752 0
M  V30 1196 O 118.418 0.438659 -1.71478 0
M  V30 1197 C 115.547 0.551818 -3.38836 0
M  V30 1198 C 114.633 -0.311689 -4.22953 0
M  V30 1199 N 115.024 -1.39567 -4.86163 0
M  V30 1200 C 113.322 -0.100611 -4.45887 0
M  V30 1201 C 114.023 -1.92651 -5.48872 0
M  V30 1202 N 112.999 -1.22637 -5.29586 0
M  V30 1203 H 116.801 -1.09166 -2.72873 0
M  V30 1204 H 114.315 -0.695486 -1.46754 0
M  V30 1205 H 116.312 0.988713 -4.05006 0
M  V30 1206 H 114.972 1.37844 -2.93988 0
M  V30 1207 H 115.983 -1.77859 -4.86402 0
M  V30 1208 H 112.66 0.691681 -4.11731 0
M  V30 1209 H 114.05 -2.83487 -6.09167 0
M  V30 1210 N 116.77 1.45427 -0.607355 0
M  V30 1211 C 117.718 2.32269 0.12411 0
M  V30 1212 C 118.712 1.45955 0.859854 0
M  V30 1213 O 119.918 1.6244 0.775447 0
M  V30 1214 H 116.293 0.749691 0.0588839 0
M  V30 1215 H 118.264 2.91743 -0.626762 0
M  V30 1216 C 117.013 3.29567 1.1082 0
M  V30 1217 H 116.336 3.95978 0.551492 0
M  V30 1218 H 117.776 3.93061 1.58995 0
M  V30 1219 C 116.235 2.56722 2.18164 0
M  V30 1220 O 116.765 2.34842 3.25902 0
M  V30 1221 N 114.971 2.16861 1.93442 0
M  V30 1222 H 114.518 2.34855 1.05834 0
M  V30 1223 H 114.476 1.68444 2.65469 0
M  V30 1224 N 118.248 0.346503 1.53744 0
M  V30 1225 C 119.664 -0.00530975 1.59599 0
M  V30 1226 C 119.864 -1.48465 1.36236 0
M  V30 1227 O 118.92 -2.24376 1.15808 0
M  V30 1228 C 120.233 0.433516 2.97559 0
M  V30 1229 C 121.781 0.386111 3.10609 0
M  V30 1230 C 122.256 0.800451 4.50951 0
M  V30 1231 N 123.747 0.754753 4.5701 0
M  V30 1232 C 124.482 1.04727 5.63755 0
M  V30 1233 N 123.978 1.4081 6.7834 0
M  V30 1234 N 125.771 0.971316 5.53644 0
M  V30 1235 H 117.922 1.31009 1.67184 0
M  V30 1236 H 120.185 0.534242 0.783128 0
M  V30 1237 H 119.891 1.46509 3.19731 0
M  V30 1238 H 119.765 -0.189753 3.76722 0
M  V30 1239 H 122.152 -0.636295 2.88158 0
M  V30 1240 H 122.233 1.04462 2.33498 0
M  V30 1241 H 121.877 1.82088 4.74137 0
M  V30 1242 H 121.807 0.119386 5.26465 0
M  V30 1243 H 124.298 0.488662 3.74727 0
M  V30 1244 H 124.611 1.61607 7.55714 0
M  V30 1245 H 122.956 1.44657 6.79779 0
M  V30 1246 H 126.147 0.688748 4.63005 0
M  V30 1247 H 126.32 1.20263 6.36742 0
M  V30 1248 N 119.726 -1.57421 0.075193 0
M  V30 1249 C 120.659 -2.08528 -0.926904 0
M  V30 1250 C 121.637 -0.991171 -1.28898 0
M  V30 1251 O 122.821 -1.26479 -1.39769 0
M  V30 1252 C 119.948 -2.54576 -2.23402 0
M  V30 1253 C 118.994 -3.75454 -2.02327 0
M  V30 1254 S 119.827 -5.19989 -1.27951 0
M  V30 1255 C 120.983 -5.69372 -2.59935 0
M  V30 1256 H 121.216 -2.932 -0.492048 0
M  V30 1257 H 118.749 -1.53785 -0.137651 0
M  V30 1258 H 120.707 -2.81767 -2.98526 0
M  V30 1259 H 119.368 -1.70166 -2.64012 0
M  V30 1260 H 118.561 -4.05675 -2.99071 0
M  V30 1261 H 118.163 -3.48654 -1.35339 0
M  V30 1262 H 120.455 -5.76424 -3.56008 0
M  V30 1263 H 121.398 -6.68207 -2.34319 0
M  V30 1264 H 121.806 -4.97205 -2.67296 0
M  V30 1265 N 121.204 0.198386 -1.56346 0
M  V30 1266 C 122.151 1.24589 -1.94284 0
M  V30 1267 C 123.121 1.454 -0.802997 0
M  V30 1268 O 124.306 1.58588 -1.06087 0
M  V30 1269 C 121.446 2.58631 -2.28482 0
M  V30 1270 C 120.559 2.45426 -3.55514 0
M  V30 1271 C 119.694 3.7215 -3.79049 0
M  V30 1272 C 118.733 3.53763 -4.99518 0
M  V30 1273 N 117.87 4.72491 -5.19323 0
M  V30 1274 H 122.71 0.915356 -2.83593 0
M  V30 1275 H 120.247 0.440629 -1.40346 0
M  V30 1276 H 122.205 3.3672 -2.46324 0
M  V30 1277 H 120.835 2.89734 -1.42317 0
M  V30 1278 H 119.887 1.58652 -3.45737 0
M  V30 1279 H 121.199 2.27772 -4.43758 0
M  V30 1280 H 120.353 4.58679 -3.97113 0
M  V30 1281 H 119.092 3.92754 -2.89129 0
M  V30 1282 H 118.097 2.65619 -4.8138 0
M  V30 1283 H 119.322 3.34607 -5.90944 0
M  V30 1284 H 117.268 4.93365 -4.3235 0
M  V30 1285 H 117.185 4.5765 -6.01741 0
M  V30 1286 H 118.453 5.6038 -5.41843 0
M  V30 1287 N 122.682 1.50554 0.465978 0
M  V30 1288 C 123.91 1.65563 1.24083 0
M  V30 1289 C 124.325 0.341051 1.85694 0
M  V30 1290 O 123.682 -0.677543 1.69457 0
M  V30 1291 C 123.733 2.75051 2.34583 0
M  V30 1292 O 123.454 4.01413 1.75497 0
M  V30 1293 C 124.955 3.01078 3.25372 0
M  V30 1294 H 122.175 0.55638 0.375077 0
M  V30 1295 H 124.719 1.96807 0.555624 0
M  V30 1296 H 122.874 2.46486 2.9887 0
M  V30 1297 H 123.288 4.62002 2.48303 0
M  V30 1298 H 124.762 3.81339 3.99105 0
M  V30 1299 H 125.239 2.12349 3.84453 0
M  V30 1300 H 125.845 3.31194 2.66816 0
M  V30 1301 N 124.16 -0.719506 1.40217 0
M  V30 1302 C 125.123 -1.8153 1.39927 0
M  V30 1303 C 126.123 -1.58095 0.293723 0
M  V30 1304 O 127.313 -1.65209 0.552429 0
M  V30 1305 C 124.445 -3.19561 1.18716 0
M  V30 1306 H 125.638 -1.83186 2.37451 0
M  V30 1307 H 123.191 -0.924746 1.26008 0
M  V30 1308 H 123.926 -3.23557 0.219366 0
M  V30 1309 H 123.711 -3.3797 1.98793 0
M  V30 1310 H 125.201 -3.99598 1.21291 0
M  V30 1311 N 125.638 -1.25649 -0.95132 0
M  V30 1312 C 126.885 -1.10594 -1.69633 0
M  V30 1313 C 127.213 0.352515 -1.91279 0
M  V30 1314 O 126.468 1.27601 -1.4838 0
M  V30 1315 C 126.767 -1.80909 -3.08231 0
M  V30 1316 C 126.433 -3.30825 -3.06375 0
M  V30 1317 C 125.095 -3.71722 -3.05576 0
M  V30 1318 C 127.447 -4.26589 -2.99452 0
M  V30 1319 C 124.775 -5.06788 -2.95606 0
M  V30 1320 C 127.127 -5.61683 -2.91024 0
M  V30 1321 C 125.791 -6.01904 -2.88562 0
M  V30 1322 H 125.061 -0.404691 -0.620731 0
M  V30 1323 H 127.708 -1.55964 -1.11119 0
M  V30 1324 H 126.013 -1.27979 -3.70309 0
M  V30 1325 H 127.71 -1.6671 -3.64704 0
M  V30 1326 H 124.3 -2.98287 -3.07771 0
M  V30 1327 H 128.484 -3.95982 -2.99185 0
M  V30 1328 H 123.74 -5.37126 -2.92071 0
M  V30 1329 H 127.914 -6.35578 -2.84629 0
M  V30 1330 H 125.541 -7.06521 -2.80593 0
M  V30 1331 N 127.117 1.15442 -1.07289 0
M  V30 1332 C 128.363 1.8672 -0.806679 0
M  V30 1333 C 128.718 1.80723 0.660084 0
M  V30 1334 O 128.011 1.21902 1.47819 0
M  V30 1335 C 128.205 3.3489 -1.24834 0
M  V30 1336 C 128.034 3.55313 -2.7565 0
M  V30 1337 C 126.804 3.7082 -3.4325 0
M  V30 1338 C 129.002 3.53188 -3.73848 0
M  V30 1339 N 126.984 3.7929 -4.82713 0
M  V30 1340 C 128.355 3.67765 -4.99149 0
M  V30 1341 C 130.41 3.36459 -3.67015 0
M  V30 1342 C 129.113 3.6734 -6.18428 0
M  V30 1343 C 131.139 3.37333 -4.85758 0
M  V30 1344 C 130.501 3.52438 -6.09891 0
M  V30 1345 H 126.6 0.700433 -0.347733 0
M  V30 1346 H 129.184 1.38441 -1.36902 0
M  V30 1347 H 127.355 3.81786 -0.713713 0
M  V30 1348 H 129.087 3.93875 -0.929745 0
M  V30 1349 H 125.842 3.71568 -2.93656 0
M  V30 1350 H 126.266 3.8727 -5.55294 0
M  V30 1351 H 130.908 3.237 -2.71989 0
M  V30 1352 H 128.626 3.78878 -7.13777 0
M  V30 1353 H 132.212 3.25617 -4.82146 0
M  V30 1354 H 131.092 3.53047 -7.00234 0
M  V30 1355 N 128.595 0.856903 1.32268 0
M  V30 1356 C 129.558 0.308171 2.27119 0
M  V30 1357 C 130.558 -0.533421 1.51695 0
M  V30 1358 O 131.748 -0.344607 1.70757 0
M  V30 1359 C 128.88 -0.563757 3.36206 0
M  V30 1360 H 130.073 1.14535 2.77167 0
M  V30 1361 H 127.626 0.631421 1.42978 0
M  V30 1362 H 128.361 -1.42266 2.91429 0
M  V30 1363 H 128.146 0.0386749 3.92081 0
M  V30 1364 H 129.636 -0.940386 4.06874 0
M  V30 1365 N 130.073 -1.45103 0.615059 0
M  V30 1366 C 131.319 -2.02483 0.113347 0
M  V30 1367 C 131.652 -1.48146 -1.25564 0
M  V30 1368 O 130.927 -0.659104 -1.82992 0
M  V30 1369 C 131.21 -3.60005 0.0825278 0
M  V30 1370 C 131.063 -4.2466 1.48271 0
M  V30 1371 C 132.382 -4.35972 -0.601401 0
M  V30 1372 H 129.501 -0.735764 0.0426632 0
M  V30 1373 H 132.143 -1.72868 0.788461 0
M  V30 1374 H 130.293 -3.85367 -0.492378 0
M  V30 1375 H 131.965 -4.10458 2.10527 0
M  V30 1376 H 130.208 -3.82772 2.04127 0
M  V30 1377 H 130.879 -5.336 1.41332 0
M  V30 1378 H 133.355 -4.15947 -0.112666 0
M  V30 1379 H 132.231 -5.45697 -0.592097 0
M  V30 1380 H 132.492 -4.09391 -1.66887 0
M  V30 1381 N 131.551 -0.354651 -1.53558 0
M  V30 1382 C 132.481 0.489091 -2.2832 0
M  V30 1383 C 133.462 1.09324 -1.30316 0
M  V30 1384 O 134.647 1.11255 -1.59173 0
M  V30 1385 C 131.777 1.63456 -3.0643 0
M  V30 1386 C 130.731 1.1582 -4.12031 0
M  V30 1387 C 130.057 2.39305 -4.7816 0
M  V30 1388 C 131.357 0.250731 -5.21698 0
M  V30 1389 H 133.051 -0.134614 -2.99097 0
M  V30 1390 H 130.597 -0.0661826 -1.43848 0
M  V30 1391 H 132.55 2.23136 -3.57475 0
M  V30 1392 H 131.274 2.28533 -2.33325 0
M  V30 1393 H 129.933 0.584146 -3.61916 0
M  V30 1394 H 129.581 3.02814 -4.01637 0
M  V30 1395 H 129.281 2.08109 -5.49513 0
M  V30 1396 H 130.805 2.99691 -5.31994 0
M  V30 1397 H 132.219 0.754695 -5.68311 0
M  V30 1398 H 130.616 0.0301468 -6.00092 0
M  V30 1399 H 131.686 -0.710125 -4.79672 0
M  V30 1400 N 133.029 1.57378 -0.0835403 0
M  V30 1401 C 134.275 1.95025 0.577664 0
M  V30 1402 C 134.63 0.964049 1.66505 0
M  V30 1403 O 133.923 -0.0118235 1.91596 0
M  V30 1404 C 134.117 3.37063 1.1884 0
M  V30 1405 C 133.946 4.49409 0.16171 0
M  V30 1406 C 132.716 5.04642 -0.257756 0
M  V30 1407 C 134.914 5.10722 -0.605634 0
M  V30 1408 N 132.896 6.00537 -1.27393 0
M  V30 1409 C 134.267 6.02225 -1.47395 0
M  V30 1410 C 136.322 4.93501 -0.660418 0
M  V30 1411 C 135.025 6.78355 -2.39221 0
M  V30 1412 C 137.051 5.70283 -1.56623 0
M  V30 1413 C 136.413 6.61444 -2.4222 0
M  V30 1414 H 132.512 0.760512 0.182058 0
M  V30 1415 H 135.096 1.94013 -0.163419 0
M  V30 1416 H 133.267 3.3879 1.89936 0
M  V30 1417 H 134.999 3.61917 1.81103 0
M  V30 1418 H 131.754 4.73428 0.127702 0
M  V30 1419 H 132.178 6.53184 -1.77987 0
M  V30 1420 H 136.82 4.22798 -0.0128221 0
M  V30 1421 H 134.538 7.48327 -3.05011 0
M  V30 1422 H 138.124 5.58976 -1.61361 0
M  V30 1423 H 137.004 7.1982 -3.11174 0
M  V30 1424 N 134.507 -0.190092 1.56449 0
M  V30 1425 C 135.437 -1.23816 1.97969 0
M  V30 1426 C 136.418 -1.47201 0.852395 0
M  V30 1427 O 137.603 -1.58854 1.1171 0
M  V30 1428 C 134.733 -2.5813 2.3235 0
M  V30 1429 C 133.687 -2.49348 3.47864 0
M  V30 1430 C 133.013 -3.8798 3.67934 0
M  V30 1431 C 134.313 -2.01424 4.81898 0
M  V30 1432 H 136.007 -0.89311 2.85769 0
M  V30 1433 H 133.553 -0.428177 1.37487 0
M  V30 1434 H 135.506 -3.31637 2.59991 0
M  V30 1435 H 134.23 -2.94386 1.41438 0
M  V30 1436 H 132.889 -1.78297 3.20321 0
M  V30 1437 H 132.537 -4.21597 2.74344 0
M  V30 1438 H 132.237 -3.82978 4.45648 0
M  V30 1439 H 133.761 -4.63101 3.97957 0
M  V30 1440 H 135.175 -2.64693 5.08538 0
M  V30 1441 H 133.572 -2.07413 5.63116 0
M  V30 1442 H 134.642 -0.967677 4.75146 0
M  V30 1443 N 135.985 -1.50799 -0.457987 0
M  V30 1444 C 137.225 -1.64088 -1.21879 0
M  V30 1445 C 137.589 -0.339848 -1.88968 0
M  V30 1446 O 138.79 -0.348301 -2.66534 0
M  V30 1447 C 137.061 -2.79726 -2.2246 0
M  V30 1448 S 138.62 -3.13225 -3.07303 0
M  V30 1449 H 135.438 -0.578314 -0.41361 0
M  V30 1450 H 138.04 -1.88632 -0.513645 0
M  V30 1451 H 136.744 -3.72722 -1.71775 0
M  V30 1452 H 136.275 -2.57308 -2.97584 0
M  V30 1453 H 138.29 -2.58062 -4.23814 0
M  V30 1454 N 137.463 0.71206 -1.40597 0
M  V30 1455 C 138.691 1.50111 -1.42388 0
M  V30 1456 C 139.106 1.88784 -0.0245395 0
M  V30 1457 O 138.463 1.55681 0.952351 0
M  V30 1458 C 138.514 2.7742 -2.31776 0
M  V30 1459 O 138.235 2.40382 -3.66262 0
M  V30 1460 C 139.736 3.7129 -2.42196 0
M  V30 1461 H 136.956 0.46314 -0.485533 0
M  V30 1462 H 139.5 0.878068 -1.8469 0
M  V30 1463 H 137.655 3.36001 -1.92827 0
M  V30 1464 H 138.069 3.22324 -4.13772 0
M  V30 1465 H 139.543 4.57448 -3.08943 0
M  V30 1466 H 140.02 4.14641 -1.44809 0
M  V30 1467 H 140.626 3.18619 -2.81712 0
M  V30 1468 N 138.941 1.26152 0.944643 0
M  V30 1469 C 140.188 1.11492 1.69044 0
M  V30 1470 C 140.516 -0.342366 1.91463 0
M  V30 1471 O 139.771 -1.26812 1.49054 0
M  V30 1472 C 140.07 1.82541 3.07268 0
M  V30 1473 C 139.736 3.32445 3.04616 0
M  V30 1474 C 138.398 3.73337 3.036 0
M  V30 1475 C 140.75 4.28171 2.97185 0
M  V30 1476 C 138.078 5.08348 2.92915 0
M  V30 1477 C 140.43 5.63218 2.88041 0
M  V30 1478 C 139.094 6.03426 2.85366 0
M  V30 1479 H 138.364 0.407977 0.618576 0
M  V30 1480 H 141.011 1.56551 1.10291 0
M  V30 1481 H 139.316 1.29941 3.69625 0
M  V30 1482 H 141.013 1.68642 3.63815 0
M  V30 1483 H 137.603 2.99915 3.06185 0
M  V30 1484 H 141.787 3.97563 2.97081 0
M  V30 1485 H 137.043 5.38667 2.89219 0
M  V30 1486 H 141.217 6.37078 2.81254 0
M  V30 1487 H 138.844 7.07999 2.76842 0
M  V30 1488 N 140.419 -1.14872 1.07899 0
M  V30 1489 C 141.667 -1.85422 0.803941 0
M  V30 1490 C 141.988 -1.83051 -0.67211 0
M  V30 1491 O 141.258 -1.27532 -1.48703 0
M  V30 1492 H 139.838 -0.686537 0.294408 0
M  V30 1493 H 142.5 -1.39226 1.3639 0
M  V30 1494 H 141.596 -2.90399 1.14346 0
M  V30 1495 N 141.898 -0.863906 -1.31812 0
M  V30 1496 C 142.831 -0.259963 -2.26714 0
M  V30 1497 C 143.809 0.607392 -1.50829 0
M  V30 1498 O 144.993 0.562155 -1.79922 0
M  V30 1499 C 142.12 0.632456 -3.32743 0
M  V30 1500 C 141.166 -0.162743 -4.26189 0
M  V30 1501 S 141.999 -1.53726 -5.12961 0
M  V30 1502 C 143.155 -0.650803 -6.22507 0
M  V30 1503 H 143.388 -1.06445 -2.77591 0
M  V30 1504 H 140.921 -0.662071 -1.39485 0
M  V30 1505 H 142.879 1.14167 -3.94305 0
M  V30 1506 H 141.54 1.41083 -2.80632 0
M  V30 1507 H 140.733 0.517366 -5.01338 0
M  V30 1508 H 140.335 -0.60385 -3.69093 0
M  V30 1509 H 142.627 0.141134 -6.77353 0
M  V30 1510 H 143.57 -1.37322 -6.94657 0
M  V30 1511 H 143.978 -0.221041 -5.64067 0
M  V30 1512 N 143.376 1.44774 -0.622745 0
M  V30 1513 C 144.309 2.27792 0.136329 0
M  V30 1514 C 145.287 1.38041 0.859264 0
M  V30 1515 O 146.471 1.67478 0.86506 0
M  V30 1516 C 143.598 3.16776 1.19878 0
M  V30 1517 C 142.644 4.22575 0.57731 0
M  V30 1518 S 143.477 5.31825 -0.626294 0
M  V30 1519 C 144.633 6.24377 0.436378 0
M  V30 1520 H 144.866 2.91824 -0.567967 0
M  V30 1521 H 142.399 1.48838 -0.410677 0
M  V30 1522 H 144.357 3.68596 1.80686 0
M  V30 1523 H 143.018 2.5198 1.87523 0
M  V30 1524 H 142.211 4.84818 1.37721 0
M  V30 1525 H 141.813 3.73974 0.0440439 0
M  V30 1526 H 144.105 6.64689 1.31128 0
M  V30 1527 H 145.048 7.07941 -0.150271 0
M  V30 1528 H 145.456 5.59381 0.758513 0
M  V30 1529 N 144.854 0.36279 1.53368 0
M  V30 1530 C 146.084 -0.228281 2.05335 0
M  V30 1531 C 146.492 -1.43226 1.23625 0
M  V30 1532 O 145.835 -1.81717 0.269206 0
M  V30 1533 C 145.897 -0.688549 3.52845 0
M  V30 1534 C 145.561 0.398362 4.5526 0
M  V30 1535 C 146.558 1.24732 5.04716 0
M  V30 1536 C 144.243 0.557805 4.99193 0
M  V30 1537 C 146.237 2.2411 5.96702 0
M  V30 1538 C 143.924 1.55495 5.90986 0
M  V30 1539 C 144.922 2.39503 6.39631 0
M  V30 1540 O 144.61 3.37517 7.29615 0
M  V30 1541 H 144.342 -0.044395 0.674541 0
M  V30 1542 H 146.896 0.518668 1.98744 0
M  V30 1543 H 145.126 -1.48706 3.56964 0
M  V30 1544 H 146.815 -1.20231 3.87685 0
M  V30 1545 H 147.581 1.13532 4.71525 0
M  V30 1546 H 143.46 -0.0862959 4.60919 0
M  V30 1547 H 147.004 2.89718 6.34594 0
M  V30 1548 H 142.901 1.66744 6.23592 0
M  V30 1549 H 143.669 3.33213 7.47604 0
M  V30 1550 N 146.332 -1.57332 0.0918853 0
M  V30 1551 C 147.578 -1.95328 -0.567313 0
M  V30 1552 C 147.933 -0.972866 -1.65991 0
M  V30 1553 O 147.226 0.00166256 -1.916 0
M  V30 1554 C 147.42 -3.37689 -1.17051 0
M  V30 1555 C 147.249 -4.49489 -0.137875 0
M  V30 1556 C 146.019 -5.04498 0.284515 0
M  V30 1557 C 148.217 -5.10393 0.63271 0
M  V30 1558 N 146.199 -5.99853 1.30576 0
M  V30 1559 C 147.57 -6.01435 1.50587 0
M  V30 1560 C 149.625 -4.93143 0.68658 0
M  V30 1561 C 148.328 -6.77077 2.42815 0
M  V30 1562 C 150.354 -5.69445 1.59645 0
M  V30 1563 C 149.716 -6.60151 2.45725 0
M  V30 1564 H 145.815 -0.761467 -0.178023 0
M  V30 1565 H 148.399 -1.93924 0.173706 0
M  V30 1566 H 146.57 -3.39793 -1.88136 0
M  V30 1567 H 148.302 -3.62872 -1.79181 0
M  V30 1568 H 145.057 -4.73489 -0.102593 0
M  V30 1569 H 145.481 -6.52231 1.81449 0
M  V30 1570 H 150.123 -4.22785 0.035244 0
M  V30 1571 H 147.841 -7.46699 3.08975 0
M  V30 1572 H 151.427 -5.58112 1.64323 0
M  V30 1573 H 150.307 -7.18159 3.14987 0
M  V30 1574 N 147.81 0.181792 -1.56548 0
M  V30 1575 C 148.742 1.24956 -1.92142 0
M  V30 1576 C 149.755 1.41022 -0.813422 0
M  V30 1577 O 150.944 1.41212 -1.09186 0
M  V30 1578 C 148.044 2.61981 -2.14987 0
M  V30 1579 C 147.217 2.6735 -3.46183 0
M  V30 1580 C 146.276 3.85664 -3.5798 0
M  V30 1581 O 145.302 3.72148 -4.30691 0
M  V30 1582 N 146.504 5.01683 -2.92053 0
M  V30 1583 H 149.269 0.947329 -2.84334 0
M  V30 1584 H 146.83 0.371629 -1.57577 0
M  V30 1585 H 148.822 3.3958 -2.20154 0
M  V30 1586 H 147.392 2.84637 -1.2923 0
M  V30 1587 H 146.612 1.75925 -3.52766 0
M  V30 1588 H 147.9 2.67939 -4.32534 0
M  V30 1589 H 147.298 5.15564 -2.32832 0
M  V30 1590 H 145.855 5.77181 -3.0283 0
M  V30 1591 N 149.288 1.51039 0.449983 0
M  V30 1592 C 150.535 1.63081 1.20045 0
M  V30 1593 C 150.863 0.341024 1.91487 0
M  V30 1594 O 150.118 -0.674276 1.83717 0
M  V30 1595 C 150.417 2.77556 2.25161 0
M  V30 1596 C 150.083 4.17289 1.70823 0
M  V30 1597 C 148.745 4.55305 1.55725 0
M  V30 1598 C 151.097 5.04536 1.3074 0
M  V30 1599 C 148.425 5.78287 0.989999 0
M  V30 1600 C 150.777 6.28085 0.754482 0
M  V30 1601 C 149.441 6.64885 0.590308 0
M  V30 1602 H 148.711 0.596755 0.439277 0
M  V30 1603 H 151.358 1.85037 0.49333 0
M  V30 1604 H 149.663 2.49771 3.01863 0
M  V30 1605 H 151.36 2.84073 2.83026 0
M  V30 1606 H 147.95 3.8731 1.83546 0
M  V30 1607 H 152.134 4.75782 1.41229 0
M  V30 1608 H 147.39 6.05456 0.850451 0
M  V30 1609 H 151.564 6.95038 0.435324 0
M  V30 1610 H 149.191 7.60055 0.14862 0
M  V30 1611 N 150.766 -0.704594 1.40972 0
M  V30 1612 C 152.014 -1.46169 1.39568 0
M  V30 1613 C 152.335 -1.95 0.00253745 0
M  V30 1614 O 151.605 -1.71095 -0.954114 0
M  V30 1615 H 150.185 -0.542326 0.513704 0
M  V30 1616 H 152.847 -0.834553 1.76128 0
M  V30 1617 H 151.943 -2.32922 2.07735 0
M  V30 1618 N 152.244 -1.26651 -0.937939 0
M  V30 1619 C 153.174 -1.10993 -2.05433 0
M  V30 1620 C 154.155 -0.0142161 -1.70094 0
M  V30 1621 O 155.34 -0.186837 -1.93299 0
M  V30 1622 C 152.47 -0.745561 -3.39203 0
M  V30 1623 C 151.424 -1.79337 -3.88616 0
M  V30 1624 C 150.75 -1.28324 -5.19073 0
M  V30 1625 C 152.05 -3.19553 -4.13138 0
M  V30 1626 H 153.744 -2.0438 -2.1879 0
M  V30 1627 H 151.29 -0.984041 -1.05131 0
M  V30 1628 H 153.243 -0.622888 -4.16771 0
M  V30 1629 H 151.967 0.22401 -3.25831 0
M  V30 1630 H 150.626 -1.90477 -3.13231 0
M  V30 1631 H 150.274 -0.303414 -5.02084 0
M  V30 1632 H 149.974 -1.98369 -5.53103 0
M  V30 1633 H 151.498 -1.1733 -5.99221 0
M  V30 1634 H 152.912 -3.11471 -4.81309 0
M  V30 1635 H 151.309 -3.87218 -4.58457 0
M  V30 1636 H 152.379 -3.65368 -3.18801 0
M  V30 1637 N 153.722 1.14298 -1.08507 0
M  V30 1638 C 154.652 2.21542 -0.737646 0
M  V30 1639 C 155.633 1.67773 0.280377 0
M  V30 1640 O 156.818 1.93616 0.150521 0
M  V30 1641 C 153.948 3.46988 -0.147259 0
M  V30 1642 C 152.902 4.13789 -1.09374 0
M  V30 1643 C 152.228 5.33449 -0.365524 0
M  V30 1644 C 153.528 4.62208 -2.4323 0
M  V30 1645 H 155.222 2.5086 -1.6343 0
M  V30 1646 H 152.768 1.20576 -0.787243 0
M  V30 1647 H 154.721 4.21262 0.107808 0
M  V30 1648 H 153.445 3.17037 0.784538 0
M  V30 1649 H 152.104 3.4147 -1.33393 0
M  V30 1650 H 151.752 4.99759 0.57011 0
M  V30 1651 H 151.452 5.79088 -0.996512 0
M  V30 1652 H 152.976 6.10485 -0.118534 0
M  V30 1653 H 154.39 5.27952 -2.23472 0
M  V30 1654 H 152.787 5.18553 -3.02031 0
M  V30 1655 H 153.857 3.77224 -3.04681 0
M  V30 1656 N 155.201 0.870884 1.31352 0
M  V30 1657 C 156.448 0.482273 1.96673 0
M  V30 1658 C 156.776 -0.965638 1.68836 0
M  V30 1659 O 156.031 -1.69514 0.977937 0
M  V30 1660 C 156.33 0.687157 3.50732 0
M  V30 1661 C 155.996 2.108 3.9859 0
M  V30 1662 C 154.658 2.49656 4.1137 0
M  V30 1663 C 157.01 3.03459 4.23748 0
M  V30 1664 C 154.338 3.80412 4.46659 0
M  V30 1665 C 156.69 4.3373 4.60501 0
M  V30 1666 C 155.354 4.725 4.71487 0
M  V30 1667 H 154.624 0.176476 0.719679 0
M  V30 1668 H 157.271 1.10405 1.56471 0
M  V30 1669 H 155.576 -0.0177476 3.91796 0
M  V30 1670 H 157.273 0.366284 3.99324 0
M  V30 1671 H 153.863 1.79633 3.8914 0
M  V30 1672 H 158.047 2.74665 4.13368 0
M  V30 1673 H 153.303 4.1021 4.53362 0
M  V30 1674 H 157.477 5.05578 4.78919 0
M  V30 1675 H 155.104 5.73859 4.98588 0
M  V30 1676 N 156.679 -1.44442 0.630414 0
M  V30 1677 C 157.927 -2.01653 0.134351 0
M  V30 1678 C 158.248 -1.49836 -1.24796 0
M  V30 1679 O 157.518 -0.701684 -1.82902 0
M  V30 1680 H 156.098 -0.74554 0.0466769 0
M  V30 1681 H 158.76 -1.76952 0.816955 0
M  V30 1682 H 157.856 -3.11935 0.101498 0
M  V30 1683 N 158.157 -0.370918 -1.53173 0
M  V30 1684 C 159.067 0.480823 -2.2962 0
M  V30 1685 C 160.083 1.08789 -1.35798 0
M  V30 1686 O 161.259 1.09768 -1.68858 0
M  V30 1687 C 158.324 1.60227 -3.07454 0
M  V30 1688 C 157.385 1.0222 -4.16953 0
M  V30 1689 C 156.618 2.0902 -4.91066 0
M  V30 1690 O 156.841 3.30222 -4.65091 0
M  V30 1691 O 155.775 1.71778 -5.76867 0
M  V30 1692 H 159.601 -0.141421 -3.03371 0
M  V30 1693 H 157.186 -0.135146 -1.48787 0
M  V30 1694 H 159.068 2.25417 -3.56041 0
M  V30 1695 H 157.743 2.20982 -2.36535 0
M  V30 1696 H 156.65 0.334064 -3.72605 0
M  V30 1697 H 157.983 0.459131 -4.90054 0
M  V30 1698 N 159.635 1.57281 -0.100228 0
M  V30 1699 C 160.865 1.98591 0.569681 0
M  V30 1700 C 161.273 0.978315 1.61943 0
M  V30 1701 O 160.616 -0.0396108 1.83657 0
M  V30 1702 C 160.678 3.36282 1.271 0
M  V30 1703 C 160.342 4.55488 0.371409 0
M  V30 1704 C 161.339 5.18491 -0.382504 0
M  V30 1705 C 159.024 5.01474 0.287965 0
M  V30 1706 C 161.018 6.25852 -1.20779 0
M  V30 1707 C 158.705 6.08701 -0.540965 0
M  V30 1708 C 159.703 6.70755 -1.28749 0
M  V30 1709 O 159.391 7.75914 -2.10269 0
M  V30 1710 H 159.123 0.65752 0.156982 0
M  V30 1711 H 161.677 2.0463 -0.177734 0
M  V30 1712 H 159.907 3.26941 2.0651 0
M  V30 1713 H 161.596 3.62005 1.83595 0
M  V30 1714 H 162.362 4.83891 -0.3278 0
M  V30 1715 H 158.241 4.52932 0.858689 0
M  V30 1716 H 161.785 6.74218 -1.79096 0
M  V30 1717 H 157.682 6.42732 -0.597131 0
M  V30 1718 H 158.45 7.92925 -2.03007 0
M  V30 1719 N 161.113 -0.173488 1.56642 0
M  V30 1720 C 162.36 -0.890465 1.81871 0
M  V30 1721 C 162.688 -1.82339 0.67696 0
M  V30 1722 O 161.943 -1.92795 -0.335926 0
M  V30 1723 C 162.242 -1.72069 3.13252 0
M  V30 1724 C 161.908 -0.936878 4.41059 0
M  V30 1725 C 160.57 -0.720545 4.75775 0
M  V30 1726 C 162.922 -0.386919 5.19762 0
M  V30 1727 C 160.25 0.0568829 5.86672 0
M  V30 1728 C 162.602 0.37741 6.31473 0
M  V30 1729 C 161.266 0.604563 6.64757 0
M  V30 1730 H 160.536 -0.325844 0.665512 0
M  V30 1731 H 163.183 -0.155527 1.90867 0
M  V30 1732 H 161.488 -2.52496 2.99588 0
M  V30 1733 H 163.185 -2.27844 3.29982 0
M  V30 1734 H 159.775 -1.11553 4.13828 0
M  V30 1735 H 163.959 -0.541398 4.93338 0
M  V30 1736 H 159.215 0.242635 6.10918 0
M  V30 1737 H 163.389 0.810825 6.91664 0
M  V30 1738 H 161.016 1.20885 7.50527 0
M  V30 1739 N 162.591 -1.51276 -0.441967 0
M  V30 1740 C 163.816 -1.67799 -1.21895 0
M  V30 1741 C 164.241 -0.372864 -1.84367 0
M  V30 1742 O 163.599 0.666501 -1.68604 0
M  V30 1743 C 163.647 -2.79199 -2.28211 0
M  V30 1744 O 162.751 -2.42479 -3.33583 0
M  V30 1745 H 162.092 -0.559649 -0.357336 0
M  V30 1746 H 164.622 -1.97815 -0.522522 0
M  V30 1747 H 164.632 -3.03146 -2.73069 0
M  V30 1748 H 163.307 -3.73906 -1.82118 0
M  V30 1749 H 161.884 -2.29087 -2.94234 0
M  V30 1750 N 164.069 0.697108 -1.41344 0
M  V30 1751 C 165.299 1.48377 -1.43763 0
M  V30 1752 C 165.707 1.89156 -0.0408726 0
M  V30 1753 O 165.05 1.57239 0.949812 0
M  V30 1754 C 165.112 2.7781 -2.2817 0
M  V30 1755 C 164.776 2.59244 -3.76353 0
M  V30 1756 C 165.773 2.25292 -4.68551 0
M  V30 1757 C 163.458 2.74933 -4.20378 0
M  V30 1758 C 165.452 2.07264 -6.02761 0
M  V30 1759 C 163.139 2.56521 -5.54653 0
M  V30 1760 C 164.137 2.22737 -6.4566 0
M  V30 1761 O 163.825 2.04485 -7.77458 0
M  V30 1762 H 163.557 0.463842 -0.491759 0
M  V30 1763 H 166.111 0.865934 -1.86255 0
M  V30 1764 H 164.341 3.41995 -1.8049 0
M  V30 1765 H 166.03 3.39608 -2.22309 0
M  V30 1766 H 166.796 2.12787 -4.35829 0
M  V30 1767 H 162.675 3.00213 -3.49848 0
M  V30 1768 H 166.219 1.80817 -6.73759 0
M  V30 1769 H 162.116 2.68616 -5.86955 0
M  V30 1770 H 162.884 2.1926 -7.88586 0
M  V30 1771 N 165.547 1.27147 0.931209 0
M  V30 1772 C 166.958 1.12044 1.49342 0
M  V30 1773 C 167.309 -0.295795 1.93957 0
M  V30 1774 O 166.434 -1.18835 1.80852 0
M  V30 1775 C 167.029 2.02781 2.71414 0
M  V30 1776 C 165.588 1.91794 3.2387 0
M  V30 1777 C 164.735 1.95543 1.96617 0
M  V30 1778 H 167.686 1.40091 0.745672 0
M  V30 1779 H 167.707 1.58156 3.46074 0
M  V30 1780 H 167.219 3.05848 2.38911 0
M  V30 1781 H 165.32 0.916992 3.6114 0
M  V30 1782 H 165.433 2.77852 3.90302 0
M  V30 1783 H 163.797 1.39722 2.12955 0
M  V30 1784 H 164.58 3.00259 1.66432 0
M  V30 1785 N 167.025 -1.13721 1.09112 0
M  V30 1786 C 168.271 -1.85198 0.826414 0
M  V30 1787 C 168.604 -1.83129 -0.646319 0
M  V30 1788 O 167.879 -1.2671 -1.47563 0
M  V30 1789 C 168.162 -3.33507 1.35812 0
M  V30 1790 C 168.015 -3.44108 2.89672 0
M  V30 1791 C 169.334 -4.28838 0.989256 0
M  V30 1792 H 166.453 -0.67243 0.301675 0
M  V30 1793 H 169.095 -1.33499 1.35197 0
M  V30 1794 H 167.245 -3.77666 0.911082 0
M  V30 1795 H 168.917 -3.08684 3.428 0
M  V30 1796 H 167.16 -2.85087 3.26967 0
M  V30 1797 H 167.831 -4.48388 3.21951 0
M  V30 1798 H 170.307 -3.92734 1.37475 0
M  V30 1799 H 169.183 -5.31051 1.38838 0
M  V30 1800 H 169.444 -4.4198 -0.102924 0
M  V30 1801 N 168.503 -0.877838 -1.30888 0
M  V30 1802 C 169.728 -0.506629 -2.01117 0
M  V30 1803 C 170.153 0.895564 -1.65412 0
M  V30 1804 O 169.511 1.5923 -0.866922 0
M  V30 1805 C 169.559 -0.680223 -3.54126 0
M  V30 1806 O 168.663 0.277033 -4.11468 0
M  V30 1807 H 168.004 -0.200518 -0.633 0
M  V30 1808 H 170.534 -1.18342 -1.66902 0
M  V30 1809 H 170.544 -0.5765 -4.03907 0
M  V30 1810 H 169.219 -1.70261 -3.79452 0
M  V30 1811 H 167.796 0.127606 -3.72682 0
M  V30 1812 N 169.982 1.44106 -0.638065 0
M  V30 1813 C 170.912 2.33448 0.0494287 0
M  V30 1814 C 171.893 1.48606 0.827672 0
M  V30 1815 O 173.078 1.77308 0.792173 0
M  V30 1816 C 170.208 3.31771 1.02691 0
M  V30 1817 C 169.162 4.26485 0.359823 0
M  V30 1818 C 168.488 5.14729 1.44769 0
M  V30 1819 C 169.788 5.17056 -0.738296 0
M  V30 1820 H 171.482 2.91183 -0.696636 0
M  V30 1821 H 169.028 1.40014 -0.336456 0
M  V30 1822 H 170.981 3.93161 1.51666 0
M  V30 1823 H 169.705 2.7226 1.80395 0
M  V30 1824 H 168.364 3.66437 -0.10934 0
M  V30 1825 H 168.012 4.51566 2.21578 0
M  V30 1826 H 167.712 5.78913 1.00668 0
M  V30 1827 H 169.236 5.78991 1.93911 0
M  V30 1828 H 170.65 5.72342 -0.331354 0
M  V30 1829 H 169.047 5.89879 -1.10286 0
M  V30 1830 H 170.117 4.57652 -1.60258 0
M  V30 1831 N 171.46 0.379036 1.52974 0
M  V30 1832 C 172.408 -0.476033 2.27677 0
M  V30 1833 C 173.402 -1.0719 1.31174 0
M  V30 1834 O 174.608 -1.01355 1.48752 0
M  V30 1835 H 170.983 -0.172255 0.732006 0
M  V30 1836 H 172.954 0.175615 2.97883 0
M  V30 1837 C 171.703 -1.5967 3.0887 0
M  V30 1838 H 171.026 -1.1475 3.82978 0
M  V30 1839 H 172.466 -2.16943 3.64296 0
M  V30 1840 C 170.925 -2.54682 2.20542 0
M  V30 1841 O 171.455 -3.57836 1.82527 0
M  V30 1842 N 169.661 -2.24183 1.84907 0
M  V30 1843 H 169.208 -1.40333 2.1602 0
M  V30 1844 H 169.166 -2.88006 1.26096 0
M  V30 1845 N 172.938 -1.57226 0.108567 0
M  V30 1846 C 174.187 -1.94008 -0.551703 0
M  V30 1847 C 174.5 -0.993442 -1.68494 0
M  V30 1848 O 175.706 -1.25551 -2.40726 0
M  V30 1849 C 174.162 -3.44763 -1.03279 0
M  V30 1850 C 173.77 -4.47943 0.0714193 0
M  V30 1851 C 175.514 -3.90483 -1.66503 0
M  V30 1852 C 173.421 -5.89865 -0.425779 0
M  V30 1853 H 172.351 -0.724206 -0.209863 0
M  V30 1854 H 175.002 -1.82547 0.186741 0
M  V30 1855 H 173.384 -3.51422 -1.82533 0
M  V30 1856 H 174.558 -4.52942 0.847365 0
M  V30 1857 H 172.873 -4.11913 0.609669 0
M  V30 1858 H 175.47 -4.93925 -2.04798 0
M  V30 1859 H 175.813 -3.29877 -2.53942 0
M  V30 1860 H 176.346 -3.86581 -0.938074 0
M  V30 1861 H 173.085 -6.54202 0.412316 0
M  V30 1862 H 172.605 -5.88309 -1.16843 0
M  V30 1863 H 174.284 -6.40844 -0.890397 0
M  V30 1864 N 174.416 0.165178 -1.56732 0
M  V30 1865 C 175.364 1.22369 -1.97809 0
M  V30 1866 C 176.358 1.45488 -0.867741 0
M  V30 1867 O 177.564 1.45995 -1.05288 0
M  V30 1868 H 173.939 0.411486 -0.629431 0
M  V30 1869 H 175.91 0.850425 -2.86025 0
M  V30 1870 C 174.659 2.55403 -2.35934 0
M  V30 1871 H 173.982 2.38438 -3.20916 0
M  V30 1872 H 175.422 3.2814 -2.68514 0
M  V30 1873 C 173.881 3.14611 -1.20506 0
M  V30 1874 O 174.411 3.98626 -0.496016 0
M  V30 1875 N 172.617 2.7379 -0.97403 0
M  V30 1876 H 172.164 2.0557 -1.55238 0
M  V30 1877 H 172.122 3.1374 -0.203573 0
M  V30 1878 N 175.894 1.51508 0.433938 0
M  V30 1879 C 176.824 1.76016 1.53429 0
M  V30 1880 C 177.805 0.610112 1.58782 0
M  V30 1881 O 178.99 0.853177 1.74455 0
M  V30 1882 C 176.12 1.88831 2.9148 0
M  V30 1883 C 175.074 3.04288 3.00987 0
M  V30 1884 C 174.4 3.0229 4.4105 0
M  V30 1885 C 175.7 4.44193 2.74754 0
M  V30 1886 H 177.394 2.68152 1.33171 0
M  V30 1887 H 174.94 1.29035 0.639214 0
M  V30 1888 H 176.893 2.04559 3.6842 0
M  V30 1889 H 175.617 0.933455 3.12976 0
M  V30 1890 H 174.276 2.8827 2.26486 0
M  V30 1891 H 173.924 2.04576 4.59519 0
M  V30 1892 H 173.624 3.79822 4.4834 0
M  V30 1893 H 175.148 3.20116 5.1996 0
M  V30 1894 H 176.562 4.60544 3.41426 0
M  V30 1895 H 174.959 5.23457 2.9345 0
M  V30 1896 H 176.029 4.53996 1.70339 0
M  V30 1897 N 177.372 -0.689602 1.41712 0
M  V30 1898 C 178.32 -1.82475 1.44242 0
M  V30 1899 C 179.314 -1.66354 0.319774 0
M  V30 1900 O 180.52 -1.73143 0.492089 0
M  V30 1901 H 176.895 -0.601416 0.451445 0
M  V30 1902 H 178.866 -1.77458 2.39899 0
M  V30 1903 C 177.615 -3.20535 1.3473 0
M  V30 1904 H 176.938 -3.33559 2.20405 0
M  V30 1905 H 178.378 -4.00023 1.40562 0
M  V30 1906 C 176.837 -3.36846 0.0603281 0
M  V30 1907 O 177.367 -3.91656 -0.892663 0
M  V30 1908 N 175.573 -2.90595 -0.0177039 0
M  V30 1909 H 175.12 -2.46178 0.758572 0
M  V30 1910 H 175.078 -3.01886 -0.878201 0
M  V30 1911 N 178.85 -1.27639 -0.924453 0
M  V30 1912 C 180.075 -1.17101 -1.71179 0
M  V30 1913 C 180.5 0.268134 -1.86179 0
M  V30 1914 O 179.858 1.19415 -1.36418 0
M  V30 1915 C 179.906 -1.86313 -3.08739 0
M  V30 1916 O 179.01 -1.16331 -3.95652 0
M  V30 1917 H 178.351 -0.407091 -0.524569 0
M  V30 1918 H 180.881 -1.68767 -1.15666 0
M  V30 1919 H 180.891 -1.938 -3.59034 0
M  V30 1920 H 179.566 -2.91001 -2.97138 0
M  V30 1921 H 178.143 -1.16935 -3.54091 0
M  V30 1922 N 180.328 1.1314 -1.09713 0
M  V30 1923 C 181.605 1.80762 -0.747302 0
M  V30 1924 C 181.985 1.96663 0.767265 0
M  V30 1925 O 181.333 1.53706 1.69076 0
M  V30 1926 C 181.543 3.15606 -1.48975 0
M  V30 1927 C 182.891 3.90914 -1.65746 0
M  V30 1928 O 183.915 3.25239 -1.45251 0
M  V30 1929 O 182.774 5.08718 -1.9967 0
M  V30 1930 H 179.868 0.782103 -0.268782 0
M  V30 1931 H 182.414 1.20041 -1.19951 0
M  V30 1932 H 181.186 2.99278 -2.52088 0
M  V30 1933 H 180.809 3.84029 -1.02991 0
M  V30 1934 N 181.806 0.884767 1.30421 0
M  V30 1935 C 182.753 0.349642 2.28136 0
M  V30 1936 C 183.723 -0.560061 1.56373 0
M  V30 1937 O 184.908 -0.488524 1.8444 0
M  V30 1938 C 182.048 -0.42999 3.42411 0
M  V30 1939 C 181.161 0.508907 4.28992 0
M  V30 1940 C 180.296 -0.286301 5.30428 0
M  V30 1941 C 179.335 0.648079 6.08659 0
M  V30 1942 N 178.472 -0.111792 7.02011 0
M  V30 1943 H 183.312 1.18807 2.73293 0
M  V30 1944 H 180.849 0.597231 1.3443 0
M  V30 1945 H 182.807 -0.897923 4.07423 0
M  V30 1946 H 181.437 -1.23299 2.98324 0
M  V30 1947 H 180.489 1.09533 3.64289 0
M  V30 1948 H 181.801 1.22475 4.8353 0
M  V30 1949 H 180.955 -0.816098 6.01186 0
M  V30 1950 H 179.694 -1.03536 4.76583 0
M  V30 1951 H 178.699 1.18951 5.36778 0
M  V30 1952 H 179.924 1.39623 6.64592 0
M  V30 1953 H 177.87 -0.843395 6.50556 0
M  V30 1954 H 177.787 0.544429 7.54037 0
M  V30 1955 H 179.055 -0.622339 7.77012 0
M  V30 1956 N 183.284 -1.43765 0.645699 0
M  V30 1957 C 184.214 -2.33471 -0.0370477 0
M  V30 1958 C 185.195 -1.49042 -0.819779 0
M  V30 1959 O 186.38 -1.77726 -0.782758 0
M  V30 1960 C 183.51 -3.32311 -1.0093 0
M  V30 1961 C 182.464 -4.2667 -0.337201 0
M  V30 1962 C 181.79 -5.1549 -1.42037 0
M  V30 1963 C 183.09 -5.16657 0.765706 0
M  V30 1964 H 184.784 -2.90809 0.712069 0
M  V30 1965 H 182.33 -1.39834 0.343876 0
M  V30 1966 H 184.283 -3.9396 -1.49578 0
M  V30 1967 H 183.007 -2.73213 -1.78948 0
M  V30 1968 H 181.666 -3.66374 0.128771 0
M  V30 1969 H 181.314 -4.52735 -2.1918 0
M  V30 1970 H 181.014 -5.79438 -0.975966 0
M  V30 1971 H 182.538 -5.80012 -1.90838 0
M  V30 1972 H 183.952 -5.72158 0.361702 0
M  V30 1973 H 182.349 -5.89286 1.13413 0
M  V30 1974 H 183.419 -4.56796 1.62683 0
M  V30 1975 N 184.763 -0.387143 -1.52771 0
M  V30 1976 C 186.009 0.196025 -2.0185 0
M  V30 1977 C 186.342 1.46641 -1.27319 0
M  V30 1978 O 185.617 1.90889 -0.373032 0
M  V30 1979 C 185.9 0.466136 -3.5707 0
M  V30 1980 C 185.753 -0.819385 -4.42274 0
M  V30 1981 C 187.072 1.25768 -4.21747 0
M  V30 1982 H 184.191 0.0697708 -0.73369 0
M  V30 1983 H 186.833 -0.516286 -1.82851 0
M  V30 1984 H 184.983 1.07293 -3.7339 0
M  V30 1985 H 186.655 -1.4563 -4.37709 0
M  V30 1986 H 184.898 -1.43517 -4.09372 0
M  V30 1987 H 185.569 -0.585065 -5.48891 0
M  V30 1988 H 188.045 0.744167 -4.09391 0
M  V30 1989 H 186.921 1.41541 -5.30337 0
M  V30 1990 H 187.182 2.27228 -3.79236 0
M  V30 1991 N 186.241 1.57166 -0.116904 0
M  V30 1992 C 187.488 1.95123 0.541603 0
M  V30 1993 C 187.816 1.00006 1.6682 0
M  V30 1994 O 187.071 0.0235658 1.95686 0
M  V30 1995 C 187.37 3.39508 1.11664 0
M  V30 1996 C 187.036 4.50762 0.111606 0
M  V30 1997 C 185.698 4.80918 -0.164758 0
M  V30 1998 C 188.05 5.18036 -0.573438 0
M  V30 1999 C 185.378 5.75666 -1.13249 0
M  V30 2000 C 187.73 6.13824 -1.52978 0
M  V30 2001 C 186.394 6.42374 -1.81415 0
M  V30 2002 H 185.664 0.714005 0.198187 0
M  V30 2003 H 188.311 1.9048 -0.197365 0
M  V30 2004 H 186.616 3.40835 1.93232 0
M  V30 2005 H 188.313 3.66189 1.63422 0
M  V30 2006 H 184.903 4.27272 0.337192 0
M  V30 2007 H 189.087 4.94896 -0.373092 0
M  V30 2008 H 184.343 5.96092 -1.35958 0
M  V30 2009 H 188.517 6.65039 -2.06629 0
M  V30 2010 H 186.144 7.15599 -2.56557 0
M  V30 2011 N 187.719 -0.156864 1.56817 0
M  V30 2012 C 189.13 -0.717916 1.72345 0
M  V30 2013 C 189.481 -1.82124 0.729747 0
M  V30 2014 O 188.606 -2.16141 -0.105781 0
M  V30 2015 C 189.201 -1.30904 3.12489 0
M  V30 2016 C 187.76 -1.81676 3.29653 0
M  V30 2017 C 186.907 -0.701349 2.68284 0
M  V30 2018 H 189.858 0.0686989 1.58551 0
M  V30 2019 H 189.879 -2.17882 3.11942 0
M  V30 2020 H 189.391 -0.505796 3.8479 0
M  V30 2021 H 187.492 -2.64598 2.62333 0
M  V30 2022 H 187.605 -1.95226 4.3752 0
M  V30 2023 H 185.969 -1.12548 2.28484 0
M  V30 2024 H 186.752 0.0902846 3.43181 0
M  V30 2025 N 189.197 -1.51736 -0.425897 0
M  V30 2026 C 190.16 -1.73271 -1.50032 0
M  V30 2027 C 191.16 -0.602639 -1.4908 0
M  V30 2028 O 192.35 -0.87033 -1.509 0
M  V30 2029 C 189.482 -1.79969 -2.89523 0
M  V30 2030 H 190.675 -2.69172 -1.32237 0
M  V30 2031 H 188.228 -1.41899 -0.65532 0
M  V30 2032 H 188.963 -0.859241 -3.1271 0
M  V30 2033 H 188.748 -2.62109 -2.91619 0
M  V30 2034 H 190.238 -1.9843 -3.67444 0
M  V30 2035 N 190.675 0.682077 -1.42076 0
M  V30 2036 C 191.921 1.44428 -1.42367 0
M  V30 2037 C 192.254 1.94164 -0.0373056 0
M  V30 2038 O 191.529 1.70429 0.937239 0
M  V30 2039 C 191.812 2.64654 -2.44194 0
M  V30 2040 C 191.665 2.20596 -3.91991 0
M  V30 2041 C 192.984 3.66865 -2.431 0
M  V30 2042 H 190.103 0.523834 -0.518428 0
M  V30 2043 H 192.745 0.77576 -1.73442 0
M  V30 2044 H 190.895 3.2169 -2.17826 0
M  V30 2045 H 192.567 1.68783 -4.29313 0
M  V30 2046 H 190.81 1.52242 -4.06208 0
M  V30 2047 H 191.481 3.06921 -4.58807 0
M  V30 2048 H 193.957 3.19531 -2.66532 0
M  V30 2049 H 192.833 4.48577 -3.16339 0
M  V30 2050 H 193.094 4.17493 -1.45437 0
M  V30 2051 N 192.153 1.28127 0.917671 0
M  V30 2052 C 193.381 1.17892 1.70026 0
M  V30 2053 C 193.796 -0.262958 1.8696 0
M  V30 2054 O 193.153 -1.17811 1.3938 0
M  V30 2055 C 193.204 1.86872 3.09453 0
M  V30 2056 O 192.925 3.25428 2.93306 0
M  V30 2057 C 194.426 1.8289 4.03815 0
M  V30 2058 H 191.646 0.40942 0.531617 0
M  V30 2059 H 194.19 1.69181 1.14883 0
M  V30 2060 H 192.345 1.39464 3.61426 0
M  V30 2061 H 192.759 3.59918 3.81523 0
M  V30 2062 H 194.233 2.35751 4.99125 0
M  V30 2063 H 194.71 0.800412 4.31845 0
M  V30 2064 H 195.316 2.29959 3.57769 0
M  V30 2065 N 193.631 -1.12557 1.10312 0
M  V30 2066 C 194.88 -1.83395 0.839588 0
M  V30 2067 C 195.193 -1.84939 -0.636929 0
M  V30 2068 O 196.399 -2.51761 -1.01631 0
M  V30 2069 C 194.855 -3.29303 1.45215 0
M  V30 2070 C 194.463 -3.36122 2.96186 0
M  V30 2071 C 196.207 -4.05121 1.26796 0
M  V30 2072 C 194.114 -4.76357 3.50483 0
M  V30 2073 H 193.044 -0.687133 0.310425 0
M  V30 2074 H 195.695 -1.26746 1.32694 0
M  V30 2075 H 194.077 -3.85812 0.892469 0
M  V30 2076 H 195.251 -2.89559 3.58458 0
M  V30 2077 H 193.566 -2.73776 3.13745 0
M  V30 2078 H 196.163 -5.08668 1.64806 0
M  V30 2079 H 196.506 -4.15773 0.209409 0
M  V30 2080 H 197.039 -3.54967 1.79563 0
M  V30 2081 H 193.778 -4.70899 4.55998 0
M  V30 2082 H 193.298 -5.23377 2.92978 0
M  V30 2083 H 194.977 -5.45294 3.48228 0
M  V30 2084 N 195.109 -0.891671 -1.2995 0
M  V30 2085 C 196.349 -0.520296 -1.97667 0
M  V30 2086 C 196.713 0.914797 -1.68806 0
M  V30 2087 O 197.914 1.39263 -2.29911 0
M  V30 2088 C 196.185 -0.795222 -3.48441 0
M  V30 2089 S 197.744 -0.526953 -4.35624 0
M  V30 2090 H 194.562 -0.19333 -0.684211 0
M  V30 2091 H 197.164 -1.15238 -1.57926 0
M  V30 2092 H 195.868 -1.83805 -3.66938 0
M  V30 2093 H 195.399 -0.15095 -3.9311 0
M  V30 2094 H 197.414 0.631533 -4.92165 0
M  V30 2095 N 196.587 1.43421 -0.653314 0
M  V30 2096 C 197.815 2.06163 -0.174491 0
M  V30 2097 C 198.23 1.48969 1.1599 0
M  V30 2098 O 197.587 0.621042 1.71608 0
M  V30 2099 C 197.638 3.61417 -0.0774865 0
M  V30 2100 O 197.359 4.16485 -1.35912 0
M  V30 2101 C 198.86 4.41235 0.427402 0
M  V30 2102 H 196.08 0.664946 -0.0899353 0
M  V30 2103 H 198.624 1.83924 -0.893988 0
M  V30 2104 H 196.779 3.82841 0.59257 0
M  V30 2105 H 197.193 5.10153 -1.21839 0
M  V30 2106 H 198.667 5.5021 0.44423 0
M  V30 2107 H 199.144 4.14268 1.45873 0
M  V30 2108 H 199.75 4.2478 -0.210167 0
M  V30 2109 N 198.065 0.39524 1.52563 0
M  V30 2110 C 198.995 -0.428384 2.29537 0
M  V30 2111 C 199.976 -1.05831 1.33169 0
M  V30 2112 O 201.161 -1.06995 1.62067 0
M  V30 2113 C 198.291 -1.55274 3.10656 0
M  V30 2114 C 197.245 -1.04855 4.14957 0
M  V30 2115 C 196.571 -2.26543 4.84337 0
M  V30 2116 C 197.871 -0.112324 5.22179 0
M  V30 2117 H 199.565 0.213867 2.98635 0
M  V30 2118 H 197.111 0.104298 1.43622 0
M  V30 2119 H 199.064 -2.1358 3.63265 0
M  V30 2120 H 197.788 -2.22266 2.39302 0
M  V30 2121 H 196.447 -0.487985 3.63338 0
M  V30 2122 H 196.095 -2.92059 4.09525 0
M  V30 2123 H 195.795 -1.93466 5.54837 0
M  V30 2124 H 197.319 -2.85481 5.39753 0
M  V30 2125 H 198.733 -0.603752 5.70112 0
M  V30 2126 H 197.13 0.128968 5.99961 0
M  V30 2127 H 198.2 0.837052 4.77621 0
M  V30 2128 N 199.544 -1.57102 0.125237 0
M  V30 2129 C 200.492 -2.16905 -0.839927 0
M  V30 2130 C 201.486 -1.11998 -1.27094 0
M  V30 2131 O 202.692 -1.3029 -1.24195 0
M  V30 2132 H 199.067 -0.694252 -0.288995 0
M  V30 2133 H 201.038 -2.96774 -0.311115 0
M  V30 2134 C 199.787 -2.78795 -2.07771 0
M  V30 2135 H 199.11 -3.59221 -1.755 0
M  V30 2136 H 200.55 -3.2417 -2.73295 0
M  V30 2137 C 199.009 -1.76193 -2.87155 0
M  V30 2138 O 199.539 -1.21909 -3.82755 0
M  V30 2139 N 197.745 -1.45991 -2.51267 0
M  V30 2140 H 197.292 -1.90325 -1.73592 0
M  V30 2141 H 197.25 -0.775844 -3.04677 0
M  V30 2142 N 201.022 0.148545 -1.56898 0
M  V30 2143 C 202.433 0.708766 -1.72723 0
M  V30 2144 C 202.784 1.81734 -0.739395 0
M  V30 2145 O 201.909 2.16194 0.0943169 0
M  V30 2146 C 202.504 1.29245 -3.13179 0
M  V30 2147 C 201.063 1.79925 -3.30611 0
M  V30 2148 C 200.21 0.687111 -2.68652 0
M  V30 2149 H 203.161 -0.0771063 -1.58513 0
M  V30 2150 H 203.182 2.16224 -3.13093 0
M  V30 2151 H 202.694 0.485382 -3.85053 0
M  V30 2152 H 200.795 2.63203 -2.63732 0
M  V30 2153 H 200.908 1.92903 -4.38549 0
M  V30 2154 H 199.272 1.11335 -2.29078 0
M  V30 2155 H 200.055 -0.108483 -3.43129 0
M  V30 2156 N 202.5 1.5196 0.417844 0
M  V30 2157 C 203.73 1.69181 1.18581 0
M  V30 2158 C 204.138 0.397104 1.84986 0
M  V30 2159 O 203.481 -0.636011 1.72339 0
M  V30 2160 C 203.543 2.76497 2.29759 0
M  V30 2161 C 203.207 4.18514 1.83563 0
M  V30 2162 C 204.204 5.02648 1.32821 0
M  V30 2163 C 201.889 4.64708 1.90661 0
M  V30 2164 C 203.883 6.31044 0.897894 0
M  V30 2165 C 201.57 5.93096 1.47241 0
M  V30 2166 C 202.568 6.76093 0.968891 0
M  V30 2167 O 202.256 8.02078 0.540924 0
M  V30 2168 H 201.988 0.570457 0.362705 0
M  V30 2169 H 204.542 1.99249 0.498885 0
M  V30 2170 H 202.772 2.41786 3.01789 0
M  V30 2171 H 204.461 2.82403 2.91553 0
M  V30 2172 H 205.227 4.68154 1.26716 0
M  V30 2173 H 201.106 4.00216 2.28797 0
M  V30 2174 H 204.65 6.95776 0.504192 0
M  V30 2175 H 200.547 6.271 1.53022 0
M  V30 2176 H 201.315 8.15794 0.66502 0
M  V30 2177 N 203.978 -0.674533 1.42435 0
M  V30 2178 C 205.394 -0.98769 1.25367 0
M  V30 2179 C 205.594 -2.00879 0.158044 0
M  V30 2180 O 204.65 -2.48075 -0.470633 0
M  V30 2181 C 205.963 -1.49224 2.6106 0
M  V30 2182 C 207.511 -1.61 2.68417 0
M  V30 2183 C 207.986 -2.14852 4.04478 0
M  V30 2184 N 209.477 -2.22185 4.06434 0
M  V30 2185 C 210.212 -2.64928 5.08528 0
M  V30 2186 N 209.708 -3.07121 6.21006 0
M  V30 2187 N 211.501 -2.64679 4.95885 0
M  V30 2188 H 203.652 0.00152503 2.124 0
M  V30 2189 H 205.915 -0.0618434 0.945981 0
M  V30 2190 H 205.621 -0.816453 3.42092 0
M  V30 2191 H 205.495 -2.47094 2.84999 0
M  V30 2192 H 207.882 -2.27686 1.87732 0
M  V30 2193 H 207.963 -0.616195 2.48267 0
M  V30 2194 H 207.607 -1.48775 4.85622 0
M  V30 2195 H 207.537 -3.15024 4.2198 0
M  V30 2196 H 210.028 -1.92435 3.25234 0
M  V30 2197 H 210.341 -3.38423 6.94759 0
M  V30 2198 H 208.686 -3.04978 6.24511 0
M  V30 2199 H 211.877 -2.31078 4.07088 0
M  V30 2200 H 212.05 -2.9767 5.75584 0
M  V30 2201 N 205.456 -1.28612 -0.910864 0
M  V30 2202 C 206.686 -1.1862 -1.69153 0
M  V30 2203 C 207.094 0.257324 -1.87442 0
M  V30 2204 O 206.437 1.18543 -1.40332 0
M  V30 2205 C 206.499 -1.81606 -3.10257 0
M  V30 2206 C 206.163 -3.30864 -3.15243 0
M  V30 2207 C 207.16 -4.27256 -2.96223 0
M  V30 2208 C 204.845 -3.71871 -3.37664 0
M  V30 2209 C 206.839 -5.62631 -2.99541 0
M  V30 2210 C 204.526 -5.07371 -3.40614 0
M  V30 2211 C 205.524 -6.02561 -3.21573 0
M  V30 2212 O 205.212 -7.35589 -3.2429 0
M  V30 2213 H 204.944 -0.412633 -0.535453 0
M  V30 2214 H 207.498 -1.70306 -1.14827 0
M  V30 2215 H 205.728 -1.24418 -3.66138 0
M  V30 2216 H 207.417 -1.66092 -3.70362 0
M  V30 2217 H 208.183 -3.9691 -2.78725 0
M  V30 2218 H 204.062 -2.98241 -3.5153 0
M  V30 2219 H 207.606 -6.36907 -2.84597 0
M  V30 2220 H 203.503 -5.37366 -3.57642 0
M  V30 2221 H 204.271 -7.44252 -3.40633 0
M  V30 2222 N 206.934 1.1197 -1.10907 0
M  V30 2223 C 208.345 1.65114 -0.871446 0
M  V30 2224 C 208.696 1.86885 0.597353 0
M  V30 2225 O 207.821 1.59896 1.45816 0
M  V30 2226 C 208.416 2.99944 -1.5754 0
M  V30 2227 C 206.975 3.50018 -1.38435 0
M  V30 2228 C 206.122 2.24941 -1.62164 0
M  V30 2229 H 209.073 0.956851 -1.2661 0
M  V30 2230 H 209.094 3.66651 -1.01721 0
M  V30 2231 H 208.606 2.84067 -2.64438 0
M  V30 2232 H 206.707 3.71071 -0.337214 0
M  V30 2233 H 206.82 4.29165 -2.12965 0
M  V30 2234 H 205.184 2.3229 -1.04467 0
M  V30 2235 H 205.967 2.11612 -2.70324 0
M  V30 2236 N 208.412 0.89855 1.29475 0
M  V30 2237 C 209.322 0.379974 2.31502 0
M  V30 2238 C 210.338 -0.524695 1.659 0
M  V30 2239 O 211.514 -0.414551 1.97087 0
M  V30 2240 C 208.579 -0.385138 3.44554 0
M  V30 2241 C 207.64 0.550914 4.2575 0
M  V30 2242 C 206.873 -0.177778 5.33404 0
M  V30 2243 O 207.096 -1.40189 5.52904 0
M  V30 2244 O 206.03 0.479106 5.9999 0
M  V30 2245 H 209.856 1.22639 2.77837 0
M  V30 2246 H 207.441 0.662834 1.33891 0
M  V30 2247 H 209.323 -0.817841 4.13388 0
M  V30 2248 H 207.998 -1.20763 3.0033 0
M  V30 2249 H 206.905 1.03271 3.59564 0
M  V30 2250 H 208.238 1.33979 4.73614 0
M  V30 2251 N 209.89 -1.43072 0.660911 0
M  V30 2252 C 211.139 -2.00942 0.174735 0
M  V30 2253 C 211.452 -1.52797 -1.22117 0
M  V30 2254 O 212.658 -2.02991 -1.80297 0
M  V30 2255 C 211.114 -3.58948 0.261559 0
M  V30 2256 C 210.722 -4.16085 1.66064 0
M  V30 2257 C 212.466 -4.24173 -0.166617 0
M  V30 2258 C 210.373 -5.6641 1.70098 0
M  V30 2259 H 209.303 -0.751483 0.0615631 0
M  V30 2260 H 211.954 -1.63955 0.824069 0
M  V30 2261 H 210.336 -3.93372 -0.455421 0
M  V30 2262 H 211.51 -3.93147 2.40359 0
M  V30 2263 H 209.825 -3.6326 2.03546 0
M  V30 2264 H 212.422 -5.34471 -0.156433 0
M  V30 2265 H 212.765 -3.98647 -1.19943 0
M  V30 2266 H 213.298 -3.94659 0.498875 0
M  V30 2267 H 210.037 -5.96715 2.71315 0
M  V30 2268 H 209.557 -5.91382 1.00139 0
M  V30 2269 H 211.236 -6.30585 1.44816 0
M  V30 2270 N 211.368 -0.403325 -1.52352 0
M  V30 2271 C 212.315 0.425011 -2.26853 0
M  V30 2272 C 213.285 1.04598 -1.29029 0
M  V30 2273 O 214.47 1.07135 -1.57882 0
M  V30 2274 C 211.61 1.53888 -3.08889 0
M  V30 2275 C 210.723 0.939396 -4.21663 0
M  V30 2276 C 209.858 2.02547 -4.91068 0
M  V30 2277 C 208.897 1.40263 -5.95813 0
M  V30 2278 N 208.034 2.4286 -6.58759 0
M  V30 2279 H 212.874 -0.21674 -2.97211 0
M  V30 2280 H 210.411 -0.118722 -1.4662 0
M  V30 2281 H 212.369 2.19558 -3.54753 0
M  V30 2282 H 210.999 2.15074 -2.40714 0
M  V30 2283 H 210.051 0.171898 -3.80011 0
M  V30 2284 H 211.363 0.44436 -4.96817 0
M  V30 2285 H 210.517 2.75958 -5.40308 0
M  V30 2286 H 209.256 2.55415 -4.15469 0
M  V30 2287 H 208.261 0.653833 -5.45898 0
M  V30 2288 H 209.486 0.881719 -6.73352 0
M  V30 2289 H 207.432 2.94871 -5.85992 0
M  V30 2290 H 207.349 1.98152 -7.2957 0
M  V30 2291 H 208.617 3.15858 -7.12639 0
M  V30 2292 N 212.846 1.57033 -0.133567 0
M  V30 2293 C 213.756 2.19632 0.824564 0
M  V30 2294 C 214.772 1.17666 1.28182 0
M  V30 2295 O 215.948 1.50193 1.3418 0
M  V30 2296 C 213.013 2.79499 2.05137 0
M  V30 2297 C 212.074 3.96548 1.64464 0
M  V30 2298 C 211.307 4.5355 2.81297 0
M  V30 2299 O 211.53 4.09438 3.97136 0
M  V30 2300 O 210.464 5.44018 2.57542 0
M  V30 2301 H 214.29 3.01991 0.321766 0
M  V30 2302 H 211.875 1.49112 0.0927889 0
M  V30 2303 H 213.757 3.17602 2.7696 0
M  V30 2304 H 212.432 2.00162 2.54395 0
M  V30 2305 H 211.339 3.63186 0.897048 0
M  V30 2306 H 212.672 4.77364 1.19934 0
M  V30 2307 N 214.325 -0.140222 1.56975 0
M  V30 2308 C 215.235 -1.19223 2.02047 0
M  V30 2309 C 216.251 -1.46612 0.937062 0
M  V30 2310 O 217.427 -1.58148 1.24704 0
M  V30 2311 C 214.492 -2.50414 2.39778 0
M  V30 2312 C 213.553 -2.30612 3.621 0
M  V30 2313 C 212.786 -3.55547 3.98023 0
M  V30 2314 O 213.009 -4.62004 3.34528 0
M  V30 2315 O 211.943 -3.47808 4.91237 0
M  V30 2316 H 215.769 -0.839559 2.91865 0
M  V30 2317 H 213.354 -0.349453 1.45256 0
M  V30 2318 H 215.236 -3.27747 2.64877 0
M  V30 2319 H 213.911 -2.85198 1.53114 0
M  V30 2320 H 212.818 -1.51207 3.4218 0
M  V30 2321 H 214.151 -2.00741 4.49404 0
M  V30 2322 N 215.803 -1.52179 -0.40978 0
M  V30 2323 C 216.733 -1.78435 -1.5061 0
M  V30 2324 C 217.714 -0.635295 -1.57791 0
M  V30 2325 O 218.899 -0.880823 -1.73076 0
M  V30 2326 C 216.029 -1.93444 -2.88439 0
M  V30 2327 C 214.983 -3.09038 -2.96108 0
M  V30 2328 C 214.309 -3.09268 -4.36185 0
M  V30 2329 C 215.609 -4.48508 -2.67652 0
M  V30 2330 H 217.303 -2.70237 -1.28889 0
M  V30 2331 H 214.849 -1.30036 -0.618605 0
M  V30 2332 H 216.802 -2.10394 -3.65119 0
M  V30 2333 H 215.526 -0.983129 -3.11452 0
M  V30 2334 H 214.185 -2.91837 -2.21872 0
M  V30 2335 H 213.833 -2.11861 -4.56206 0
M  V30 2336 H 213.533 -3.86907 -4.42241 0
M  V30 2337 H 215.057 -3.28348 -5.14801 0
M  V30 2338 H 216.471 -4.65918 -3.34056 0
M  V30 2339 H 214.868 -5.28059 -2.85085 0
M  V30 2340 H 215.938 -4.56649 -1.63095 0
M  V30 2341 N 217.281 0.66697 -1.42791 0
M  V30 2342 C 218.191 1.80962 -1.49299 0
M  V30 2343 C 219.207 1.69775 -0.381108 0
M  V30 2344 O 220.383 1.91188 -0.633188 0
M  V30 2345 C 217.448 3.17156 -1.40045 0
M  V30 2346 C 216.509 3.40242 -2.6179 0
M  V30 2347 C 215.742 4.69939 -2.52969 0
M  V30 2348 O 215.965 5.48372 -1.56985 0
M  V30 2349 O 214.899 4.94441 -3.43237 0
M  V30 2350 H 218.725 1.78427 -2.45759 0
M  V30 2351 H 216.31 0.823713 -1.24641 0
M  V30 2352 H 218.192 3.98413 -1.37276 0
M  V30 2353 H 216.867 3.20312 -0.467138 0
M  V30 2354 H 215.774 2.58802 -2.70134 0
M  V30 2355 H 217.107 3.41923 -3.54047 0
M  V30 2356 N 218.759 1.29093 0.90403 0
M  V30 2357 C 219.669 1.15727 2.0407 0
M  V30 2358 C 220.685 0.0815308 1.73809 0
M  V30 2359 O 221.861 0.292749 1.99261 0
M  V30 2360 C 218.926 0.830424 3.36608 0
M  V30 2361 C 217.987 1.98955 3.80415 0
M  V30 2362 C 217.22 1.6782 5.06628 0
M  V30 2363 O 217.443 0.597105 5.67266 0
M  V30 2364 O 216.377 2.52486 5.46383 0
M  V30 2365 H 220.203 2.11171 2.18267 0
M  V30 2366 H 217.788 1.08504 1.027 0
M  V30 2367 H 219.67 0.662521 4.16159 0
M  V30 2368 H 218.345 -0.0942678 3.23563 0
M  V30 2369 H 217.252 2.21267 3.01648 0
M  V30 2370 H 218.585 2.89529 3.98037 0
M  V30 2371 N 220.237 -1.11381 1.11499 0
M  V30 2372 C 221.167 -2.19509 0.796125 0
M  V30 2373 C 222.148 -1.68458 -0.235796 0
M  V30 2374 O 223.333 -1.93947 -0.0991344 0
M  V30 2375 C 220.463 -3.46475 0.239205 0
M  V30 2376 C 219.417 -4.10744 1.20307 0
M  V30 2377 C 218.743 -5.32293 0.50683 0
M  V30 2378 C 220.043 -4.55597 2.55399 0
M  V30 2379 H 221.737 -2.46439 1.70024 0
M  V30 2380 H 219.283 -1.18446 0.818935 0
M  V30 2381 H 221.236 -4.214 0.00392006 0
M  V30 2382 H 219.96 -3.19006 -0.700206 0
M  V30 2383 H 218.619 -3.37813 1.42399 0
M  V30 2384 H 218.267 -5.01095 -0.437408 0
M  V30 2385 H 217.967 -5.76243 1.1497 0
M  V30 2386 H 219.491 -6.09956 0.280351 0
M  V30 2387 H 220.905 -5.21841 2.37391 0
M  V30 2388 H 219.302 -5.10363 3.15673 0
M  V30 2389 H 220.372 -3.69013 3.14575 0
M  V30 2390 N 221.715 -0.905404 -1.28997 0
M  V30 2391 C 222.992 -0.453513 -1.9027 0
M  V30 2392 C 223.372 1.06721 -1.82137 0
M  V30 2393 O 222.72 1.91159 -1.25182 0
M  V30 2394 C 222.93 -0.974494 -3.35119 0
M  V30 2395 C 224.278 -1.0216 -4.12127 0
M  V30 2396 O 225.302 -0.922557 -3.44046 0
M  V30 2397 O 224.161 -1.17121 -5.33802 0
M  V30 2398 H 221.255 -0.142347 -0.814657 0
M  V30 2399 H 223.801 -0.995642 -1.37423 0
M  V30 2400 H 222.573 -2.01848 -3.35221 0
M  V30 2401 H 222.196 -0.412706 -3.95452 0
M  V30 2402 N 223.193 1.4272 -0.668489 0
M  V30 2403 C 224.609 1.55992 -0.33745 0
M  V30 2404 C 224.809 1.64933 1.15756 0
M  V30 2405 O 223.865 1.61278 1.94282 0
M  V30 2406 C 225.178 2.81314 -1.06222 0
M  V30 2407 C 226.726 2.95078 -1.04394 0
M  V30 2408 C 227.201 4.23252 -1.74991 0
M  V30 2409 N 228.692 4.3015 -1.71829 0
M  V30 2410 C 229.427 5.28127 -2.23315 0
M  V30 2411 N 228.923 6.32293 -2.83156 0
M  V30 2412 N 230.716 5.19882 -2.13726 0
M  V30 2413 H 222.867 1.3516 -1.63846 0
M  V30 2414 H 225.13 0.650174 -0.689912 0
M  V30 2415 H 224.836 2.80823 -2.11734 0
M  V30 2416 H 224.71 3.72012 -0.62344 0
M  V30 2417 H 227.097 2.951 0.0028244 0
M  V30 2418 H 227.178 2.05627 -1.52155 0
M  V30 2419 H 226.822 4.2399 -2.79633 0
M  V30 2420 H 226.752 5.11626 -1.24685 0
M  V30 2421 H 229.243 3.55499 -1.28175 0
M  V30 2422 H 229.556 7.03398 -3.20079 0
M  V30 2423 H 227.901 6.32873 -2.87223 0
M  V30 2424 H 231.092 4.37423 -1.66669 0
M  V30 2425 H 231.265 5.96077 -2.54158 0
M  V30 2426 N 224.671 0.411399 1.52136 0
M  V30 2427 C 225.92 -0.165009 2.01024 0
M  V30 2428 C 226.233 -1.4603 1.30133 0
M  V30 2429 O 227.439 -2.1181 1.69849 0
M  V30 2430 C 225.895 -0.344618 3.58246 0
M  V30 2431 C 225.503 0.938716 4.38055 0
M  V30 2432 C 227.247 -0.876195 4.15359 0
M  V30 2433 C 225.154 0.726172 5.86925 0
M  V30 2434 H 224.084 -0.0654407 0.751155 0
M  V30 2435 H 226.735 0.537192 1.75461 0
M  V30 2436 H 225.117 -1.10921 3.80148 0
M  V30 2437 H 226.291 1.70963 4.27912 0
M  V30 2438 H 224.606 1.39688 3.92271 0
M  V30 2439 H 227.203 -1.05128 5.24263 0
M  V30 2440 H 227.546 -1.85152 3.7286 0
M  V30 2441 H 228.079 -0.170607 3.97434 0
M  V30 2442 H 224.818 1.67312 6.33788 0
M  V30 2443 H 224.338 -0.00540283 5.998 0
M  V30 2444 H 226.017 0.369231 6.45946 0
M  V30 2445 N 226.149 -1.5696 0.141893 0
M  V30 2446 C 227.377 -2.00322 -0.517579 0
M  V30 2447 C 227.792 -1.02193 -1.58752 0
M  V30 2448 O 227.149 -0.0181619 -1.82491 0
M  V30 2449 C 227.2 -3.43618 -1.12289 0
M  V30 2450 O 226.921 -4.37995 -0.0956929 0
M  V30 2451 C 228.422 -4.02231 -1.86347 0
M  V30 2452 H 225.642 -0.657243 -0.135177 0
M  V30 2453 H 228.186 -2.03146 0.234973 0
M  V30 2454 H 226.341 -3.41662 -1.82609 0
M  V30 2455 H 226.755 -5.21729 -0.538469 0
M  V30 2456 H 228.229 -5.04509 -2.23997 0
M  V30 2457 H 228.706 -3.42655 -2.74744 0
M  V30 2458 H 229.312 -4.07802 -1.20737 0
M  V30 2459 N 227.627 0.131896 -1.57047 0
M  V30 2460 C 228.537 1.1815 -2.02676 0
M  V30 2461 C 229.553 1.46113 -0.944824 0
M  V30 2462 O 230.729 1.57485 -1.25541 0
M  V30 2463 C 227.794 2.49139 -2.41103 0
M  V30 2464 C 226.855 2.28688 -3.63318 0
M  V30 2465 C 226.088 3.53431 -3.99903 0
M  V30 2466 O 226.311 4.60223 -3.36973 0
M  V30 2467 O 225.245 3.45198 -4.93074 0
M  V30 2468 H 229.071 0.824069 -2.92306 0
M  V30 2469 H 226.656 0.341745 -1.45439 0
M  V30 2470 H 228.538 3.26338 -2.66611 0
M  V30 2471 H 227.213 2.84382 -1.54624 0
M  V30 2472 H 226.12 1.4939 -3.42977 0
M  V30 2473 H 227.453 1.98355 -4.50462 0
M  V30 2474 N 229.106 1.52395 0.401703 0
M  V30 2475 C 230.038 1.72505 1.50912 0
M  V30 2476 C 231.051 0.605468 1.51122 0
M  V30 2477 O 232.24 0.880828 1.55254 0
M  V30 2478 C 229.34 1.75711 2.89791 0
M  V30 2479 C 228.513 3.04824 3.1369 0
M  V30 2480 C 227.572 2.99743 4.32482 0
M  V30 2481 O 226.598 3.73635 4.29402 0
M  V30 2482 N 227.8 2.18047 5.37992 0
M  V30 2483 H 230.565 2.68049 1.34052 0
M  V30 2484 H 228.126 1.50724 0.591084 0
M  V30 2485 H 230.118 1.69834 3.6734 0
M  V30 2486 H 228.688 0.876092 3.00072 0
M  V30 2487 H 227.908 3.2429 2.24119 0
M  V30 2488 H 229.196 3.90221 3.26504 0
M  V30 2489 H 228.594 1.57456 5.43345 0
M  V30 2490 H 227.151 2.18021 6.14256 0
M  V30 2491 N 230.584 -0.659388 1.43143 0
M  V30 2492 C 231.812 -1.44723 1.47861 0
M  V30 2493 C 232.227 -1.88563 0.0945886 0
M  V30 2494 O 231.584 -1.59108 -0.893915 0
M  V30 2495 C 231.635 -2.68627 2.41913 0
M  V30 2496 O 231.356 -2.26623 3.74932 0
M  V30 2497 C 232.857 -3.62045 2.55809 0
M  V30 2498 H 230.077 -0.444801 0.502387 0
M  V30 2499 H 232.621 -0.808916 1.87821 0
M  V30 2500 H 230.776 -3.28613 2.05164 0
M  V30 2501 H 231.19 -3.06745 4.2545 0
M  V30 2502 H 232.664 -4.45666 3.25708 0
M  V30 2503 H 233.141 -4.08981 1.60099 0
M  V30 2504 H 233.747 -3.07944 2.93344 0
M  V30 2505 N 232.062 -1.29571 -0.897171 0
M  V30 2506 C 232.992 -1.17473 -2.01798 0
M  V30 2507 C 233.973 -0.068323 -1.69963 0
M  V30 2508 O 235.158 -0.248239 -1.92607 0
M  V30 2509 C 232.288 -0.853099 -3.36659 0
M  V30 2510 C 231.242 -1.9161 -3.82713 0
M  V30 2511 C 230.568 -1.44773 -5.14728 0
M  V30 2512 C 231.868 -3.32535 -4.02763 0
M  V30 2513 H 233.562 -2.11237 -2.12177 0
M  V30 2514 H 231.108 -1.01699 -1.01948 0
M  V30 2515 H 233.061 -0.755165 -4.14578 0
M  V30 2516 H 231.785 0.120236 -3.26379 0
M  V30 2517 H 230.444 -2.00346 -3.07013 0
M  V30 2518 H 230.092 -0.462995 -5.00865 0
M  V30 2519 H 229.792 -2.15865 -5.46513 0
M  V30 2520 H 231.316 -1.36334 -5.95185 0
M  V30 2521 H 232.73 -3.26626 -4.71156 0
M  V30 2522 H 231.127 -4.01607 -4.45905 0
M  V30 2523 H 232.197 -3.75326 -3.07016 0
M  V30 2524 N 233.54 1.10788 -1.12088 0
M  V30 2525 C 234.787 1.82671 -0.873931 0
M  V30 2526 C 235.115 1.85004 0.600311 0
M  V30 2527 O 234.37 1.30365 1.45957 0
M  V30 2528 C 234.669 3.29294 -1.38926 0
M  V30 2529 C 234.335 3.47113 -2.87791 0
M  V30 2530 C 232.997 3.51684 -3.28439 0
M  V30 2531 C 235.349 3.52808 -3.83635 0
M  V30 2532 C 232.677 3.59513 -4.63646 0
M  V30 2533 C 235.029 3.62169 -5.18668 0
M  V30 2534 C 233.693 3.65003 -5.58864 0
M  V30 2535 H 232.963 0.668441 -0.319794 0
M  V30 2536 H 235.61 1.30613 -1.40045 0
M  V30 2537 H 233.915 3.83894 -0.783122 0
M  V30 2538 H 235.612 3.83416 -1.17443 0
M  V30 2539 H 232.202 3.4423 -2.5535 0
M  V30 2540 H 236.386 3.4853 -3.53328 0
M  V30 2541 H 231.642 3.59987 -4.94185 0
M  V30 2542 H 235.816 3.6552 -5.92763 0
M  V30 2543 H 233.443 3.70822 -6.63623 0
M  V30 2544 N 235.018 0.912232 1.28515 0
M  V30 2545 C 236.295 0.463597 1.90027 0
M  V30 2546 C 236.675 -1.05753 1.82701 0
M  V30 2547 O 236.023 -1.90492 1.26194 0
M  V30 2548 C 236.233 0.992253 3.34597 0
M  V30 2549 C 237.581 1.04344 4.11579 0
M  V30 2550 O 238.605 0.94079 3.43551 0
M  V30 2551 O 237.464 1.1995 5.33174 0
M  V30 2552 H 234.558 0.146666 0.813891 0
M  V30 2553 H 237.104 1.00292 1.36893 0
M  V30 2554 H 235.876 2.03623 3.34146 0
M  V30 2555 H 235.499 0.433672 3.95228 0
M  V30 2556 N 236.496 -1.42363 0.676048 0
M  V30 2557 C 237.426 -2.33497 0.0124832 0
M  V30 2558 C 238.407 -1.50748 -0.787981 0
M  V30 2559 O 239.592 -1.79346 -0.744884 0
M  V30 2560 C 236.722 -3.34377 -0.938582 0
M  V30 2561 C 235.676 -4.27289 -0.246622 0
M  V30 2562 C 235.002 -5.18386 -1.31071 0
M  V30 2563 C 236.302 -5.14916 0.875125 0
M  V30 2564 H 237.996 -2.89233 0.773593 0
M  V30 2565 H 235.542 -1.39073 0.37346 0
M  V30 2566 H 237.495 -3.97044 -1.41188 0
M  V30 2567 H 236.219 -2.76947 -1.73113 0
M  V30 2568 H 234.878 -3.66018 0.206456 0
M  V30 2569 H 234.526 -4.57282 -2.09528 0
M  V30 2570 H 234.226 -5.81378 -0.852839 0
M  V30 2571 H 235.75 -5.83929 -1.78492 0
M  V30 2572 H 237.164 -5.71262 0.482983 0
M  V30 2573 H 235.561 -5.86747 1.25887 0
M  V30 2574 H 236.631 -4.53242 1.72335 0
M  V30 2575 N 237.974 -0.419461 -1.51915 0
M  V30 2576 C 239.204 0.151915 -2.06041 0
M  V30 2577 C 239.612 1.38539 -1.28855 0
M  V30 2578 O 238.955 1.80592 -0.336463 0
M  V30 2579 C 239.017 0.557119 -3.55157 0
M  V30 2580 C 238.681 -0.567054 -4.53468 0
M  V30 2581 C 239.678 -1.43379 -4.99738 0
M  V30 2582 C 237.363 -0.742693 -4.96779 0
M  V30 2583 C 239.357 -2.46102 -5.87973 0
M  V30 2584 C 237.044 -1.77322 -5.84808 0
M  V30 2585 C 238.042 -2.63078 -6.30301 0
M  V30 2586 O 237.73 -3.64364 -7.16585 0
M  V30 2587 H 237.462 0.0193293 -0.675724 0
M  V30 2588 H 240.016 -0.592073 -1.96682 0
M  V30 2589 H 238.246 1.35355 -3.62238 0
M  V30 2590 H 239.935 1.05759 -3.9188 0
M  V30 2591 H 240.701 -1.30954 -4.66986 0
M  V30 2592 H 236.58 -0.0848307 -4.60922 0
M  V30 2593 H 240.124 -3.13071 -6.23404 0
M  V30 2594 H 236.021 -1.89773 -6.16974 0
M  V30 2595 H 236.789 -3.60731 -7.34721 0
M  V30 2596 N 239.452 1.56882 -0.150215 0
M  V30 2597 C 240.399 2.16922 0.788244 0
M  V30 2598 C 241.369 1.10303 1.24187 0
M  V30 2599 O 242.554 1.38359 1.31383 0
M  V30 2600 C 239.694 2.79754 2.02068 0
M  V30 2601 C 238.807 4.00775 1.61257 0
M  V30 2602 C 237.942 4.51595 2.79705 0
M  V30 2603 C 236.981 5.65074 2.35282 0
M  V30 2604 N 236.118 6.10499 3.4675 0
M  V30 2605 H 240.958 2.96779 0.269444 0
M  V30 2606 H 238.495 1.46599 0.12128 0
M  V30 2607 H 240.453 3.14329 2.74323 0
M  V30 2608 H 239.083 2.02536 2.51354 0
M  V30 2609 H 238.135 3.72158 0.787553 0
M  V30 2610 H 239.447 4.82978 1.24633 0
M  V30 2611 H 238.601 4.88242 3.60145 0
M  V30 2612 H 237.34 3.68406 3.19576 0
M  V30 2613 H 236.345 5.28 1.53283 0
M  V30 2614 H 237.57 6.50052 1.96493 0
M  V30 2615 H 235.516 5.30243 3.86236 0
M  V30 2616 H 235.433 6.87637 3.14152 0
M  V30 2617 H 236.701 6.51791 4.27537 0
M  V30 2618 N 240.93 -0.123565 1.57115 0
M  V30 2619 C 242.16 -0.845233 1.88519 0
M  V30 2620 C 242.568 -1.74168 0.739064 0
M  V30 2621 O 241.911 -1.81244 -0.299355 0
M  V30 2622 C 241.973 -1.73452 3.14888 0
M  V30 2623 C 241.637 -1.01285 4.45635 0
M  V30 2624 C 242.634 -0.355774 5.18681 0
M  V30 2625 C 240.319 -0.99538 4.92339 0
M  V30 2626 C 242.313 0.309114 6.3665 0
M  V30 2627 C 240 -0.32669 6.10226 0
M  V30 2628 C 240.998 0.324406 6.82229 0
M  V30 2629 O 240.686 0.982437 7.97874 0
M  V30 2630 H 240.418 -0.248534 0.628655 0
M  V30 2631 H 242.972 -0.113907 2.05084 0
M  V30 2632 H 241.202 -2.50737 2.94394 0
M  V30 2633 H 242.891 -2.33021 3.32349 0
M  V30 2634 H 243.657 -0.360918 4.83655 0
M  V30 2635 H 239.536 -1.49159 4.36202 0
M  V30 2636 H 243.08 0.8179 6.92789 0
M  V30 2637 H 238.977 -0.319294 6.4471 0
M  V30 2638 H 239.745 0.886454 8.13686 0
M  V30 2639 N 242.408 -1.52605 -0.393616 0
M  V30 2640 C 243.633 -1.71592 -1.16495 0
M  V30 2641 C 244.058 -0.43133 -1.83088 0
M  V30 2642 O 243.416 0.612523 -1.7064 0
M  V30 2643 C 243.464 -2.86318 -2.19213 0
M  V30 2644 O 242.568 -2.52969 -3.257 0
M  V30 2645 H 241.909 -0.570734 -0.33935 0
M  V30 2646 H 244.439 -1.99377 -0.459324 0
M  V30 2647 H 244.449 -3.1168 -2.63286 0
M  V30 2648 H 243.124 -3.79511 -1.7013 0
M  V30 2649 H 241.701 -2.38332 -2.86797 0
M  V30 2650 N 243.887 0.651787 -1.4349 0
M  V30 2651 C 245.112 1.44434 -1.48841 0
M  V30 2652 C 245.537 1.8779 -0.107955 0
M  V30 2653 O 244.895 1.57464 0.898602 0
M  V30 2654 C 244.943 2.65458 -2.44059 0
M  V30 2655 O 244.047 3.64566 -1.92784 0
M  V30 2656 H 243.388 0.433005 -0.503391 0
M  V30 2657 H 245.918 0.797451 -1.88419 0
M  V30 2658 H 245.928 3.13255 -2.6141 0
M  V30 2659 H 244.603 2.33244 -3.4434 0
M  V30 2660 H 243.18 3.23716 -1.851 0
M  V30 2661 N 245.365 1.30045 0.890287 0
M  V30 2662 C 246.612 1.18561 1.64163 0
M  V30 2663 C 246.94 -0.260852 1.92743 0
M  V30 2664 O 246.195 -1.20376 1.54299 0
M  V30 2665 C 246.494 1.95409 2.99249 0
M  V30 2666 C 246.16 3.45066 2.90242 0
M  V30 2667 C 244.822 3.85878 2.87492 0
M  V30 2668 C 247.174 4.4039 2.78758 0
M  V30 2669 C 244.502 5.20314 2.7109 0
M  V30 2670 C 246.854 5.74928 2.63894 0
M  V30 2671 C 245.518 6.14986 2.59516 0
M  V30 2672 H 244.788 0.433846 0.600715 0
M  V30 2673 H 247.435 1.61088 1.03552 0
M  V30 2674 H 245.74 1.45501 3.63781 0
M  V30 2675 H 247.437 1.8392 3.56334 0
M  V30 2676 H 244.027 3.12631 2.93189 0
M  V30 2677 H 248.211 4.09806 2.79952 0
M  V30 2678 H 243.467 5.50449 2.66112 0
M  V30 2679 H 247.641 6.48434 2.53981 0
M  V30 2680 H 245.268 7.19104 2.46565 0
M  V30 2681 N 246.843 -1.10192 1.12674 0
M  V30 2682 C 248.071 -1.85983 0.906527 0
M  V30 2683 C 248.486 -1.80783 -0.544333 0
M  V30 2684 O 247.843 -1.19834 -1.37645 0
M  V30 2685 C 247.894 -3.34281 1.37618 0
M  V30 2686 O 247.615 -3.39401 2.77017 0
M  V30 2687 C 249.116 -4.26938 1.19325 0
M  V30 2688 H 246.336 -0.587716 0.323775 0
M  V30 2689 H 248.88 -1.39284 1.49734 0
M  V30 2690 H 247.035 -3.78436 0.828539 0
M  V30 2691 H 247.449 -4.31838 2.97684 0
M  V30 2692 H 248.923 -5.29181 1.57071 0
M  V30 2693 H 249.4 -4.38995 0.134097 0
M  V30 2694 H 250.006 -3.8859 1.72852 0
M  V30 2695 N 248.321 -0.919034 -1.28029 0
M  V30 2696 C 249.549 -0.570971 -1.98866 0
M  V30 2697 C 249.964 0.848996 -1.68634 0
M  V30 2698 O 249.321 1.56307 -0.942036 0
M  V30 2699 C 249.372 -0.776876 -3.53054 0
M  V30 2700 O 249.093 -2.14097 -3.82222 0
M  V30 2701 C 250.594 -0.436356 -4.41147 0
M  V30 2702 H 247.814 -0.217175 -0.634883 0
M  V30 2703 H 250.358 -1.23368 -1.63097 0
M  V30 2704 H 248.513 -0.161085 -3.87065 0
M  V30 2705 H 248.927 -2.18455 -4.76841 0
M  V30 2706 H 250.401 -0.63117 -5.4838 0
M  V30 2707 H 250.878 0.627686 -4.34692 0
M  V30 2708 H 251.484 -1.02991 -4.12641 0
M  V30 2709 N 249.799 1.42003 -0.683588 0
M  V30 2710 C 250.729 2.33487 -0.024866 0
M  V30 2711 C 251.71 1.51163 0.779975 0
M  V30 2712 O 252.895 1.79739 0.735362 0
M  V30 2713 C 250.025 3.3487 0.920836 0
M  V30 2714 C 248.979 4.27414 0.223958 0
M  V30 2715 C 248.305 5.19074 1.2832 0
M  V30 2716 C 249.605 5.14445 -0.90242 0
M  V30 2717 H 251.299 2.88819 -0.788921 0
M  V30 2718 H 248.845 1.38873 -0.38083 0
M  V30 2719 H 250.798 3.97787 1.39081 0
M  V30 2720 H 249.522 2.77861 1.71642 0
M  V30 2721 H 248.181 3.65904 -0.225864 0
M  V30 2722 H 247.829 4.58387 2.071 0
M  V30 2723 H 247.529 5.81822 0.821995 0
M  V30 2724 H 249.053 5.84867 1.75392 0
M  V30 2725 H 250.467 5.70998 -0.513272 0
M  V30 2726 H 248.864 5.86072 -1.28997 0
M  V30 2727 H 249.934 4.52322 -1.74737 0
M  V30 2728 N 251.277 0.427512 1.51691 0
M  V30 2729 C 252.523 -0.142439 2.02299 0
M  V30 2730 C 252.856 -1.43214 1.31162 0
M  V30 2731 O 252.131 -1.89833 0.423511 0
M  V30 2732 C 252.414 -0.371301 3.58181 0
M  V30 2733 C 252.267 0.936358 4.39946 0
M  V30 2734 C 253.586 -1.14542 4.24933 0
M  V30 2735 H 250.705 -0.0502937 0.735282 0
M  V30 2736 H 253.347 0.564584 1.81418 0
M  V30 2737 H 251.497 -0.973559 3.76104 0
M  V30 2738 H 253.169 1.57184 4.33694 0
M  V30 2739 H 251.412 1.5432 4.05423 0
M  V30 2740 H 252.083 0.730388 5.47147 0
M  V30 2741 H 254.559 -0.635362 4.11221 0
M  V30 2742 H 253.435 -1.27431 5.33903 0
M  V30 2743 H 253.696 -2.17093 3.85127 0
M  V30 2744 N 252.755 -1.56801 0.158532 0
M  V30 2745 C 253.718 -2.16138 -0.762705 0
M  V30 2746 C 254.718 -1.1061 -1.16713 0
M  V30 2747 O 255.908 -1.36191 -1.08617 0
M  V30 2748 C 253.04 -2.73386 -2.03649 0
M  V30 2749 H 254.233 -2.98886 -0.246354 0
M  V30 2750 H 251.786 -1.56035 -0.0909744 0
M  V30 2751 H 252.521 -1.94335 -2.59623 0
M  V30 2752 H 252.306 -3.50601 -1.75559 0
M  V30 2753 H 253.796 -3.19065 -2.6942 0
M  V30 2754 N 254.233 0.115231 -1.57178 0
M  V30 2755 C 255.481 0.820727 -1.84685 0
M  V30 2756 C 255.802 1.80237 -0.744279 0
M  V30 2757 O 255.072 1.94529 0.231375 0
M  V30 2758 H 253.652 0.306084 -0.681411 0
M  V30 2759 H 256.314 0.101656 -1.94635 0
M  V30 2760 H 255.41 1.36366 -2.80733 0
M  V30 2761 N 255.711 1.52812 0.385517 0
M  V30 2762 C 256.936 1.72207 1.15583 0
M  V30 2763 C 257.361 0.441034 1.82857 0
M  V30 2764 O 256.719 -0.603465 1.70962 0
M  V30 2765 C 256.767 2.87476 2.17692 0
M  V30 2766 O 255.871 2.54693 3.24354 0
M  V30 2767 H 255.212 0.572526 0.336319 0
M  V30 2768 H 257.742 1.99618 0.448744 0
M  V30 2769 H 257.752 3.13072 2.6163 0
M  V30 2770 H 256.427 3.80408 1.68115 0
M  V30 2771 H 255.004 2.3985 2.85529 0
M  V30 2772 N 257.189 -0.644168 1.43834 0
M  V30 2773 C 258.605 -0.960875 1.27434 0
M  V30 2774 C 258.805 -2.00499 0.200618 0
M  V30 2775 O 257.861 -2.49018 -0.417906 0
M  V30 2776 C 259.174 -1.43653 2.64167 0
M  V30 2777 C 260.722 -1.55271 2.71772 0
M  V30 2778 C 261.197 -2.06224 4.08944 0
M  V30 2779 N 262.688 -2.13513 4.11055 0
M  V30 2780 C 263.423 -2.54081 5.14033 0
M  V30 2781 N 262.919 -2.9388 6.27381 0
M  V30 2782 N 264.712 -2.54101 5.01387 0
M  V30 2783 H 256.863 0.0465779 2.12349 0
M  V30 2784 H 259.126 -0.0417638 0.94708 0
M  V30 2785 H 258.832 -0.743706 3.43747 0
M  V30 2786 H 258.706 -2.40993 2.90176 0
M  V30 2787 H 261.093 -2.23653 1.92519 0
M  V30 2788 H 261.174 -0.563395 2.49519 0
M  V30 2789 H 260.818 -1.38441 4.88668 0
M  V30 2790 H 260.748 -3.06003 4.28567 0
M  V30 2791 H 263.239 -1.85493 3.29242 0
M  V30 2792 H 263.552 -3.2361 7.01781 0
M  V30 2793 H 261.897 -2.91663 6.30839 0
M  V30 2794 H 265.088 -2.22391 4.11898 0
M  V30 2795 H 265.261 -2.85394 5.81768 0
M  V30 2796 N 258.668 -1.30515 -0.883378 0
M  V30 2797 C 259.893 -1.22487 -1.67367 0
M  V30 2798 C 260.318 0.208767 -1.86938 0
M  V30 2799 O 259.676 1.15015 -1.40148 0
M  V30 2800 C 259.724 -1.96041 -3.02655 0
M  V30 2801 O 258.828 -1.28859 -3.91751 0
M  V30 2802 H 258.169 -0.423573 -0.511353 0
M  V30 2803 H 260.699 -1.72362 -1.10239 0
M  V30 2804 H 260.709 -2.05124 -3.52687 0
M  V30 2805 H 259.384 -3.00307 -2.8773 0
M  V30 2806 H 257.961 -1.28141 -3.50192 0
M  V30 2807 N 260.146 1.09593 -1.13257 0
M  V30 2808 C 261.562 1.33775 -0.870423 0
M  V30 2809 C 261.762 1.95327 0.494926 0
M  V30 2810 O 260.818 2.19853 1.2418 0
M  V30 2811 C 262.131 2.25106 -1.99369 0
M  V30 2812 C 263.679 2.3862 -2.02558 0
M  V30 2813 C 264.154 3.33285 -3.14142 0
M  V30 2814 N 265.645 3.40857 -3.13641 0
M  V30 2815 C 266.38 4.14101 -3.96621 0
M  V30 2816 N 265.876 4.90157 -4.8961 0
M  V30 2817 N 267.669 4.09808 -3.84726 0
M  V30 2818 H 259.82 0.680136 -2.01216 0
M  V30 2819 H 262.083 0.362133 -0.876107 0
M  V30 2820 H 261.789 1.87103 -2.97801 0
M  V30 2821 H 261.663 3.25481 -1.90635 0
M  V30 2822 H 264.05 2.75887 -1.0474 0
M  V30 2823 H 264.131 1.38028 -2.15364 0
M  V30 2824 H 263.775 2.96741 -4.12198 0
M  V30 2825 H 263.705 4.33776 -2.98574 0
M  V30 2826 H 266.196 2.86624 -2.46282 0
M  V30 2827 H 266.509 5.4347 -5.49418 0
M  V30 2828 H 264.854 4.89251 -4.93617 0
M  V30 2829 H 268.045 3.4949 -3.11408 0
M  V30 2830 H 268.218 4.66629 -4.49623 0
M  V30 2831 N 261.624 0.925811 1.2754 0
M  V30 2832 C 263.04 0.625767 1.46821 0
M  V30 2833 C 263.24 -0.825506 1.83814 0
M  V30 2834 O 262.296 -1.60356 1.95044 0
M  V30 2835 C 263.609 1.57402 2.56213 0
M  V30 2836 C 265.157 1.58204 2.70075 0
M  V30 2837 C 265.632 2.51721 3.82623 0
M  V30 2838 N 267.123 2.49917 3.89994 0
M  V30 2839 C 267.858 3.18968 4.76494 0
M  V30 2840 N 267.354 3.97391 5.67496 0
M  V30 2841 N 269.147 3.07996 4.70208 0
M  V30 2842 H 261.298 1.86409 1.01811 0
M  V30 2843 H 263.561 0.800213 0.508295 0
M  V30 2844 H 263.267 2.60925 2.35819 0
M  V30 2845 H 263.141 1.31428 3.53563 0
M  V30 2846 H 265.528 0.554124 2.89851 0
M  V30 2847 H 265.609 1.88226 1.73218 0
M  V30 2848 H 265.253 3.54622 3.63601 0
M  V30 2849 H 265.183 2.18996 4.78903 0
M  V30 2850 H 267.674 1.9296 3.24923 0
M  V30 2851 H 267.987 4.4707 6.30356 0
M  V30 2852 H 266.332 4.01495 5.67298 0
M  V30 2853 H 269.523 2.46223 3.9811 0
M  V30 2854 H 269.696 3.6208 5.37403 0
M  V30 2855 N 263.102 -1.41638 0.69111 0
M  V30 2856 C 264.379 -1.95036 0.148421 0
M  V30 2857 C 264.759 -1.63072 -1.34055 0
M  V30 2858 O 264.107 -0.93538 -2.08478 0
M  V30 2859 C 264.317 -3.46279 0.434951 0
M  V30 2860 C 265.665 -4.23069 0.360275 0
M  V30 2861 O 266.689 -3.54277 0.369613 0
M  V30 2862 O 265.548 -5.45583 0.316534 0
M  V30 2863 H 262.642 -0.826908 0.0123654 0
M  V30 2864 H 265.188 -1.5138 0.766963 0
M  V30 2865 H 263.96 -3.6281 1.46576 0
M  V30 2866 H 263.583 -3.97019 -0.214787 0
M  V30 2867 N 264.58 -0.43555 -1.51462 0
M  V30 2868 C 265.51 0.367376 -2.30592 0
M  V30 2869 C 266.491 1.02263 -1.35928 0
M  V30 2870 O 267.676 1.02661 -1.64847 0
M  V30 2871 C 264.806 1.46983 -3.14664 0
M  V30 2872 C 263.76 0.938161 -4.17591 0
M  V30 2873 C 263.086 2.13622 -4.90173 0
M  V30 2874 C 264.386 -0.0261621 -5.22293 0
M  V30 2875 H 266.08 -0.292969 -2.97963 0
M  V30 2876 H 263.626 -0.14234 -1.43295 0
M  V30 2877 H 265.579 2.03873 -3.688 0
M  V30 2878 H 264.303 2.15843 -2.4511 0
M  V30 2879 H 262.962 0.391481 -3.64504 0
M  V30 2880 H 262.61 2.81098 -4.17124 0
M  V30 2881 H 262.31 1.78688 -5.59772 0
M  V30 2882 H 263.834 2.7107 -5.47132 0
M  V30 2883 H 265.248 0.452384 -5.71512 0
M  V30 2884 H 263.645 -0.287992 -5.99409 0
M  V30 2885 H 264.715 -0.963391 -4.75233 0
M  V30 2886 N 266.058 1.56714 -0.166846 0
M  V30 2887 C 267.474 1.58473 0.189372 0
M  V30 2888 C 267.674 1.18201 1.63189 0
M  V30 2889 O 266.73 0.891528 2.36237 0
M  V30 2890 C 268.043 3.00573 -0.0873872 0
M  V30 2891 C 269.591 3.1299 -0.0252443 0
M  V30 2892 C 270.066 4.57174 -0.274934 0
M  V30 2893 N 271.557 4.62665 -0.222553 0
M  V30 2894 C 272.292 5.72072 -0.389985 0
M  V30 2895 N 271.788 6.90054 -0.616229 0
M  V30 2896 N 273.581 5.61153 -0.326202 0
M  V30 2897 H 265.732 1.8118 -1.10849 0
M  V30 2898 H 267.995 0.839525 -0.440342 0
M  V30 2899 H 267.701 3.34497 -1.0865 0
M  V30 2900 H 267.575 3.72019 0.623037 0
M  V30 2901 H 269.962 2.78895 0.96444 0
M  V30 2902 H 270.043 2.43989 -0.768309 0
M  V30 2903 H 269.687 4.91976 -1.26181 0
M  V30 2904 H 269.617 5.24328 0.48869 0
M  V30 2905 H 272.108 3.77863 -0.0531512 0
M  V30 2906 H 272.421 7.69311 -0.733559 0
M  V30 2907 H 270.766 6.91927 -0.652791 0
M  V30 2908 H 273.957 4.67859 -0.150072 0
M  V30 2909 H 274.13 6.46364 -0.460116 0
M  V30 2910 N 267.536 -0.106894 1.57237 0
M  V30 2911 C 268.784 -0.810921 1.85117 0
M  V30 2912 C 269.105 -1.7984 0.753827 0
M  V30 2913 O 268.375 -1.94649 -0.221056 0
M  V30 2914 H 266.955 -0.302466 0.683025 0
M  V30 2915 H 269.617 -0.0913324 1.94686 0
M  V30 2916 H 268.713 -1.34875 2.81452 0
M  V30 2917 N 269.014 -1.53014 -0.377408 0
M  V30 2918 C 270.242 -1.72515 -1.14219 0
M  V30 2919 C 270.657 -0.448735 -1.8339 0
M  V30 2920 O 270.014 0.577592 -1.73119 0
M  V30 2921 C 270.065 -2.8826 -2.18148 0
M  V30 2922 O 269.786 -4.10962 -1.51795 0
M  V30 2923 C 271.287 -3.19536 -3.07264 0
M  V30 2924 H 268.507 -0.577301 -0.342001 0
M  V30 2925 H 271.051 -1.99712 -0.439935 0
M  V30 2926 H 269.206 -2.63492 -2.83991 0
M  V30 2927 H 269.62 -4.75693 -2.20945 0
M  V30 2928 H 271.094 -4.03959 -3.76193 0
M  V30 2929 H 271.571 -2.34403 -3.71419 0
M  V30 2930 H 272.177 -3.46186 -2.47053 0
M  V30 2931 N 270.492 0.636531 -1.44174 0
M  V30 2932 C 271.422 1.76003 -1.53444 0
M  V30 2933 C 272.403 1.65619 -0.387841 0
M  V30 2934 O 273.588 1.84461 -0.607257 0
M  V30 2935 C 270.718 3.14511 -1.4731 0
M  V30 2936 C 269.672 3.39677 -2.60391 0
M  V30 2937 C 268.998 4.78159 -2.39308 0
M  V30 2938 C 270.298 3.32772 -4.02567 0
M  V30 2939 H 271.992 1.68501 -2.47483 0
M  V30 2940 H 269.538 0.809237 -1.19111 0
M  V30 2941 H 271.491 3.92878 -1.52397 0
M  V30 2942 H 270.215 3.22783 -0.49785 0
M  V30 2943 H 268.874 2.63688 -2.54684 0
M  V30 2944 H 268.522 4.83128 -1.39988 0
M  V30 2945 H 268.222 4.95956 -3.15122 0
M  V30 2946 H 269.746 5.58762 -2.46205 0
M  V30 2947 H 271.16 4.01051 -4.09672 0
M  V30 2948 H 269.557 3.62104 -4.7854 0
M  V30 2949 H 270.627 2.30669 -4.2652 0
M  V30 2950 N 271.97 1.30982 0.876444 0
M  V30 2951 C 273.381 1.18277 1.44456 0
M  V30 2952 C 273.732 -0.213265 1.95037 0
M  V30 2953 O 272.857 -1.11057 1.85729 0
M  V30 2954 C 273.452 2.1411 2.62569 0
M  V30 2955 C 272.011 2.05358 3.15444 0
M  V30 2956 C 271.158 2.03706 1.88146 0
M  V30 2957 H 274.109 1.43127 0.685584 0
M  V30 2958 H 274.13 1.72692 3.39054 0
M  V30 2959 H 273.642 3.15706 2.25724 0
M  V30 2960 H 271.743 1.06934 3.56926 0
M  V30 2961 H 271.856 2.94156 3.78166 0
M  V30 2962 H 270.22 1.48629 2.06837 0
M  V30 2963 H 271.003 3.07047 1.53547 0
M  V30 2964 N 273.449 -1.08991 1.13837 0
M  V30 2965 C 274.399 -2.1393 0.788535 0
M  V30 2966 C 275.383 -1.59396 -0.219516 0
M  V30 2967 O 276.575 -1.76985 -0.0227557 0
M  V30 2968 C 273.704 -3.42305 0.261147 0
M  V30 2969 C 272.79 -4.03736 1.29837 0
M  V30 2970 N 273.181 -4.39659 2.50067 0
M  V30 2971 C 271.479 -4.30993 1.1472 0
M  V30 2972 C 272.18 -4.88113 3.16419 0
M  V30 2973 N 271.156 -4.85846 2.43832 0
M  V30 2974 H 274.958 -2.39516 1.70322 0
M  V30 2975 H 272.472 -1.26263 1.02134 0
M  V30 2976 H 274.469 -4.16899 -0.0077405 0
M  V30 2977 H 273.129 -3.18172 -0.647805 0
M  V30 2978 H 274.14 -4.30878 2.8734 0
M  V30 2979 H 270.817 -4.16444 0.296773 0
M  V30 2980 H 272.207 -5.25336 4.18894 0
M  V30 2981 N 274.927 -0.932562 -1.27047 0
M  V30 2982 C 276.338 -0.619451 -1.76124 0
M  V30 2983 C 276.689 0.865397 -1.76083 0
M  V30 2984 O 275.814 1.67722 -1.36742 0
M  V30 2985 C 276.409 -1.11771 -3.19832 0
M  V30 2986 C 274.968 -0.855174 -3.66557 0
M  V30 2987 C 274.115 -1.27362 -2.46321 0
M  V30 2988 H 277.066 -1.11181 -1.13245 0
M  V30 2989 H 277.087 -0.46759 -3.77616 0
M  V30 2990 H 276.599 -2.19842 -3.1983 0
M  V30 2991 H 274.7 0.211524 -3.71999 0
M  V30 2992 H 274.813 -1.47613 -4.55793 0
M  V30 2993 H 273.177 -0.692119 -2.45116 0
M  V30 2994 H 273.96 -2.36307 -2.49025 0
M  V30 2995 N 276.405 1.4127 -0.698611 0
M  V30 2996 C 277.335 2.33447 -0.049629 0
M  V30 2997 C 278.316 1.51982 0.763898 0
M  V30 2998 O 279.501 1.80509 0.716257 0
M  V30 2999 C 276.631 3.35828 0.885267 0
M  V30 3000 C 275.585 4.27627 0.178613 0
M  V30 3001 C 274.911 5.20406 1.22807 0
M  V30 3002 C 276.211 5.13459 -0.956933 0
M  V30 3003 H 277.905 2.87966 -0.81951 0
M  V30 3004 H 275.451 1.38461 -0.395538 0
M  V30 3005 H 277.404 3.9924 1.34854 0
M  V30 3006 H 276.128 2.79666 1.68685 0
M  V30 3007 H 274.787 3.65643 -0.26466 0
M  V30 3008 H 274.435 4.60558 2.02226 0
M  V30 3009 H 274.135 5.82661 0.760239 0
M  V30 3010 H 275.659 5.86695 1.69179 0
M  V30 3011 H 277.073 5.70421 -0.573805 0
M  V30 3012 H 275.47 5.8467 -1.35205 0
M  V30 3013 H 276.54 4.50443 -1.79524 0
M  V30 3014 N 277.883 0.443576 1.51229 0
M  V30 3015 C 278.815 -0.400608 2.25672 0
M  V30 3016 C 279.828 -0.980945 1.29928 0
M  V30 3017 O 281.017 -0.874024 1.55638 0
M  V30 3018 C 278.117 -1.57304 3.00181 0
M  V30 3019 C 277.29 -1.11046 4.23069 0
M  V30 3020 C 276.349 -2.15374 4.80105 0
M  V30 3021 O 275.375 -1.74554 5.41774 0
M  V30 3022 N 276.577 -3.47922 4.64683 0
M  V30 3023 H 279.342 0.23745 2.98758 0
M  V30 3024 H 276.903 0.272809 1.59585 0
M  V30 3025 H 278.895 -2.26733 3.35223 0
M  V30 3026 H 277.465 -2.11632 2.30066 0
M  V30 3027 H 276.685 -0.243019 3.9345 0
M  V30 3028 H 277.973 -0.778888 5.02803 0
M  V30 3029 H 277.371 -3.83815 4.15575 0
M  V30 3030 H 275.928 -4.13228 5.0407 0
M  V30 3031 N 279.361 -1.56624 0.175154 0
M  V30 3032 C 280.777 -1.58571 -0.180966 0
M  V30 3033 C 280.977 -1.19065 -1.6256 0
M  V30 3034 O 280.033 -0.904044 -2.35761 0
M  V30 3035 C 281.346 -3.00522 0.103326 0
M  V30 3036 C 282.894 -3.12972 0.0418426 0
M  V30 3037 C 283.369 -4.57022 0.299175 0
M  V30 3038 N 284.86 -4.62541 0.247086 0
M  V30 3039 C 285.595 -5.71857 0.420318 0
M  V30 3040 N 285.091 -6.89717 0.652816 0
M  V30 3041 N 286.884 -5.60972 0.355957 0
M  V30 3042 H 279.035 -1.80589 1.11809 0
M  V30 3043 H 281.298 -0.837178 0.444788 0
M  V30 3044 H 281.004 -3.33916 1.10422 0
M  V30 3045 H 280.878 -3.72344 -0.603299 0
M  V30 3046 H 283.265 -2.79403 -0.949636 0
M  V30 3047 H 283.346 -2.43578 0.781238 0
M  V30 3048 H 282.99 -4.913 1.28788 0
M  V30 3049 H 282.92 -5.24579 -0.460876 0
M  V30 3050 H 285.411 -3.77829 0.0731895 0
M  V30 3051 H 285.724 -7.68911 0.774347 0
M  V30 3052 H 284.069 -6.91572 0.689476 0
M  V30 3053 H 287.26 -4.67773 0.174882 0
M  V30 3054 H 287.433 -6.46111 0.494388 0
M  V30 3055 N 280.839 0.0985539 -1.57292 0
M  V30 3056 C 281.769 1.12064 -2.04851 0
M  V30 3057 C 282.75 1.41981 -0.936767 0
M  V30 3058 O 283.935 1.52071 -1.20781 0
M  V30 3059 C 281.065 2.44144 -2.47004 0
M  V30 3060 C 280.019 2.28643 -3.6181 0
M  V30 3061 C 279.345 3.65869 -3.89929 0
M  V30 3062 C 280.645 1.72986 -4.92822 0
M  V30 3063 H 282.339 0.724979 -2.9049 0
M  V30 3064 H 279.885 0.34729 -1.39749 0
M  V30 3065 H 281.838 3.15914 -2.78884 0
M  V30 3066 H 280.562 2.85639 -1.5836 0
M  V30 3067 H 279.221 1.59318 -3.30172 0
M  V30 3068 H 278.869 4.04885 -2.98458 0
M  V30 3069 H 278.569 3.56344 -4.67218 0
M  V30 3070 H 280.093 4.39112 -4.2428 0
M  V30 3071 H 281.507 2.34593 -5.23105 0
M  V30 3072 H 279.904 1.74229 -5.74251 0
M  V30 3073 H 280.974 0.689007 -4.7998 0
M  V30 3074 N 282.317 1.53212 0.369288 0
M  V30 3075 C 283.733 1.42902 0.710712 0
M  V30 3076 C 283.933 0.565135 1.93413 0
M  V30 3077 O 282.989 0.0461484 2.52458 0
M  V30 3078 C 284.302 2.86042 0.927382 0
M  V30 3079 C 285.85 2.9565 1.02762 0
M  V30 3080 C 286.325 4.39843 1.27679 0
M  V30 3081 N 287.816 4.43256 1.34457 0
M  V30 3082 C 288.551 5.51929 1.55439 0
M  V30 3083 N 288.047 6.70655 1.73762 0
M  V30 3084 N 289.84 5.39502 1.57779 0
M  V30 3085 H 281.991 2.07888 -0.435457 0
M  V30 3086 H 284.254 0.938661 -0.132739 0
M  V30 3087 H 283.96 3.51557 0.100287 0
M  V30 3088 H 283.834 3.29472 1.83653 0
M  V30 3089 H 286.221 2.30291 1.84527 0
M  V30 3090 H 286.302 2.5562 0.0959504 0
M  V30 3091 H 285.946 5.05774 0.464175 0
M  V30 3092 H 285.876 4.77443 2.22162 0
M  V30 3093 H 288.367 3.5769 1.21926 0
M  V30 3094 H 288.68 7.49248 1.89335 0
M  V30 3095 H 287.025 6.73648 1.70948 0
M  V30 3096 H 290.216 4.45713 1.43029 0
M  V30 3097 H 290.389 6.2426 1.7379 0
M  V30 3098 N 283.795 -0.628877 1.44509 0
M  V30 3099 C 285.041 -1.39045 1.47629 0
M  V30 3100 C 285.374 -1.93892 0.109343 0
M  V30 3101 O 284.649 -1.7379 -0.87334 0
M  V30 3102 C 284.932 -2.55408 2.53848 0
M  V30 3103 C 284.785 -2.05896 3.99909 0
M  V30 3104 C 286.104 -3.5759 2.56549 0
M  V30 3105 H 283.223 -0.504232 0.537512 0
M  V30 3106 H 285.865 -0.710854 1.76201 0
M  V30 3107 H 284.015 -3.13384 2.29615 0
M  V30 3108 H 285.687 -1.52734 4.35282 0
M  V30 3109 H 283.93 -1.37061 4.11578 0
M  V30 3110 H 284.601 -2.89681 4.69882 0
M  V30 3111 H 287.077 -3.09419 2.78207 0
M  V30 3112 H 285.953 -4.36527 3.32769 0
M  V30 3113 H 286.214 -4.11808 1.60832 0
M  V30 3114 N 285.273 -1.31445 -0.869486 0
M  V30 3115 C 286.684 -1.19042 -1.43826 0
M  V30 3116 C 287.035 0.202919 -1.95148 0
M  V30 3117 O 286.16 1.10071 -1.86315 0
M  V30 3118 C 286.755 -2.15499 -2.6143 0
M  V30 3119 C 285.314 -2.07028 -3.14351 0
M  V30 3120 C 284.461 -2.04701 -1.87063 0
M  V30 3121 H 287.412 -1.43489 -0.677984 0
M  V30 3122 H 287.433 -1.74488 -3.38134 0
M  V30 3123 H 286.945 -3.16899 -2.24046 0
M  V30 3124 H 285.046 -1.08825 -3.56354 0
M  V30 3125 H 285.159 -2.96157 -3.766 0
M  V30 3126 H 283.523 -1.49724 -2.06046 0
M  V30 3127 H 284.306 -3.07857 -1.51917 0
M  V30 3128 N 286.751 1.08385 -1.14413 0
M  V30 3129 C 288.162 1.62258 -0.923535 0
M  V30 3130 C 288.513 1.88691 0.537595 0
M  V30 3131 O 287.638 1.64454 1.40655 0
M  V30 3132 C 288.233 2.94781 -1.67002 0
M  V30 3133 C 286.792 3.45437 -1.495 0
M  V30 3134 C 285.939 2.19668 -1.69238 0
M  V30 3135 H 288.89 0.916086 -1.2959 0
M  V30 3136 H 288.911 3.63229 -1.13334 0
M  V30 3137 H 288.423 2.7551 -2.73342 0
M  V30 3138 H 286.524 3.6981 -0.455097 0
M  V30 3139 H 286.637 4.22173 -2.2651 0
M  V30 3140 H 285.001 2.28849 -1.11804 0
M  V30 3141 H 285.784 2.02905 -2.7692 0
M  V30 3142 N 288.23 0.939286 1.26551 0
M  V30 3143 C 289.641 0.628782 1.75793 0
M  V30 3144 C 289.992 -0.856046 1.7654 0
M  V30 3145 O 289.117 -1.66994 1.3763 0
M  V30 3146 C 289.712 1.13465 3.19235 0
M  V30 3147 C 288.271 0.874601 3.66098 0
M  V30 3148 C 287.418 1.28667 2.45642 0
M  V30 3149 H 290.369 1.1178 1.12654 0
M  V30 3150 H 290.39 0.487609 3.77363 0
M  V30 3151 H 289.902 2.21535 3.1866 0
M  V30 3152 H 288.003 -0.191793 3.72106 0
M  V30 3153 H 288.116 1.50028 4.55004 0
M  V30 3154 H 286.48 0.705109 2.44745 0
M  V30 3155 H 287.263 2.37625 2.47769 0
M  V30 3156 N 289.708 -1.40897 0.706093 0
M  V30 3157 C 291.119 -1.84023 0.315052 0
M  V30 3158 C 291.47 -1.5906 -1.14866 0
M  V30 3159 O 290.595 -1.06651 -1.88293 0
M  V30 3160 C 291.19 -3.34055 0.565038 0
M  V30 3161 C 289.749 -3.7571 0.227806 0
M  V30 3162 C 288.896 -2.64204 0.842122 0
M  V30 3163 H 291.847 -1.303 0.905963 0
M  V30 3164 H 291.868 -3.80107 -0.172843 0
M  V30 3165 H 291.38 -3.52192 1.63042 0
M  V30 3166 H 289.481 -3.63172 -0.832895 0
M  V30 3167 H 289.594 -4.74103 0.690174 0
M  V30 3168 H 287.958 -2.53255 0.270893 0
M  V30 3169 H 288.741 -2.85155 1.91158 0
M  V30 3170 N 291.186 -0.45159 -1.50991 0
M  V30 3171 C 292.136 0.370861 -2.24964 0
M  V30 3172 C 293.12 0.978074 -1.2776 0
M  V30 3173 O 294.312 0.893854 -1.52772 0
M  V30 3174 C 291.441 1.46344 -3.10545 0
M  V30 3175 C 290.527 0.864924 -4.15187 0
M  V30 3176 N 290.918 -0.00311354 -5.058 0
M  V30 3177 C 289.216 1.13099 -4.31422 0
M  V30 3178 C 289.917 -0.340772 -5.80701 0
M  V30 3179 N 288.893 0.279203 -5.42883 0
M  V30 3180 H 292.695 -0.298134 -2.92384 0
M  V30 3181 H 290.209 -0.264528 -1.60231 0
M  V30 3182 H 292.206 2.06565 -3.62128 0
M  V30 3183 H 290.866 2.13463 -2.4467 0
M  V30 3184 H 291.877 -0.37058 -5.16572 0
M  V30 3185 H 288.554 1.79861 -3.76771 0
M  V30 3186 H 289.944 -1.048 -6.63677 0
M  V30 3187 N 292.664 1.56529 -0.183458 0
M  V30 3188 C 293.912 1.96855 0.457452 0
M  V30 3189 C 294.233 1.07104 1.62953 0
M  V30 3190 O 293.503 0.139887 1.954 0
M  V30 3191 H 292.083 0.72693 0.171992 0
M  V30 3192 H 294.745 1.93056 -0.267476 0
M  V30 3193 H 293.841 3.01423 0.809368 0
M  V30 3194 N 294.142 -0.090211 1.57342 0
M  V30 3195 C 295.105 -1.09335 2.01441 0
M  V30 3196 C 296.105 -1.32666 0.908641 0
M  V30 3197 O 297.295 -1.28697 1.174 0
M  V30 3198 C 294.427 -2.44136 2.3793 0
M  V30 3199 H 295.62 -0.713662 2.91285 0
M  V30 3200 H 293.173 -0.335404 1.52659 0
M  V30 3201 H 293.908 -2.86972 1.51055 0
M  V30 3202 H 293.693 -2.28548 3.18603 0
M  V30 3203 H 295.183 -3.16277 2.72688 0
M  V30 3204 N 295.62 -1.53406 -0.361157 0
M  V30 3205 C 297.036 -1.43277 -0.703124 0
M  V30 3206 C 297.236 -0.575384 -1.9311 0
M  V30 3207 O 296.292 -0.0595362 -2.5243 0
M  V30 3208 C 297.605 -2.8653 -0.9122 0
M  V30 3209 C 299.153 -2.96191 -1.01193 0
M  V30 3210 C 299.628 -4.40514 -1.25345 0
M  V30 3211 N 301.119 -4.43962 -1.32105 0
M  V30 3212 C 301.854 -5.52746 -1.5251 0
M  V30 3213 N 301.35 -6.71567 -1.70203 0
M  V30 3214 N 303.143 -5.40331 -1.54916 0
M  V30 3215 H 295.294 -2.07654 0.446475 0
M  V30 3216 H 297.557 -0.937944 0.137715 0
M  V30 3217 H 297.263 -3.51605 -0.0816414 0
M  V30 3218 H 297.137 -3.30441 -1.81903 0
M  V30 3219 H 299.524 -2.31266 -1.83303 0
M  V30 3220 H 299.605 -2.55667 -0.0823929 0
M  V30 3221 H 299.249 -5.06014 -0.437346 0
M  V30 3222 H 299.179 -4.78614 -2.19627 0
M  V30 3223 H 301.67 -3.58332 -1.20028 0
M  V30 3224 H 301.983 -7.50241 -1.85359 0
M  V30 3225 H 300.328 -6.74545 -1.67373 0
M  V30 3226 H 303.519 -4.46465 -1.40663 0
M  V30 3227 H 303.692 -6.25173 -1.70477 0
M  V30 3228 N 297.098 0.621204 -1.44841 0
M  V30 3229 C 298.514 0.94048 -1.28946 0
M  V30 3230 C 298.714 2.00154 -0.23249 0
M  V30 3231 O 297.77 2.49651 0.378237 0
M  V30 3232 C 299.083 1.39433 -2.66419 0
M  V30 3233 C 300.631 1.50927 -2.74208 0
M  V30 3234 C 301.106 1.99692 -4.12174 0
M  V30 3235 N 302.597 2.06947 -4.144 0
M  V30 3236 C 303.332 2.45871 -5.1801 0
M  V30 3237 N 302.828 2.83862 -6.31977 0
M  V30 3238 N 304.621 2.46092 -5.05366 0
M  V30 3239 H 296.772 -0.0803548 -2.12248 0
M  V30 3240 H 299.035 0.0266913 -0.947624 0
M  V30 3241 H 298.741 0.688925 -3.44887 0
M  V30 3242 H 298.615 2.36347 -2.93973 0
M  V30 3243 H 301.002 2.20561 -1.96053 0
M  V30 3244 H 301.083 0.523627 -2.50383 0
M  V30 3245 H 300.727 1.30649 -4.90809 0
M  V30 3246 H 300.657 2.99146 -4.33381 0
M  V30 3247 H 303.148 1.80232 -3.32152 0
M  V30 3248 H 303.461 3.12405 -7.0684 0
M  V30 3249 H 301.806 2.8159 -6.35399 0
M  V30 3250 H 304.997 2.1581 -4.15384 0
M  V30 3251 H 305.17 2.76102 -5.86235 0
M  V30 3252 N 298.576 1.31904 0.862503 0
M  V30 3253 C 299.539 1.20131 1.95195 0
M  V30 3254 C 300.539 0.126409 1.60302 0
M  V30 3255 O 301.729 0.376234 1.70089 0
M  V30 3256 C 298.861 0.845691 3.30244 0
M  V30 3257 H 300.054 2.16943 2.07064 0
M  V30 3258 H 297.607 1.15622 1.05172 0
M  V30 3259 H 298.342 -0.120957 3.24074 0
M  V30 3260 H 298.127 1.62276 3.56944 0
M  V30 3261 H 299.617 0.787418 4.10109 0
M  V30 3262 N 300.054 -1.07777 1.14986 0
M  V30 3263 C 301.47 -1.32373 0.891596 0
M  V30 3264 C 301.67 -1.9609 -0.463788 0
M  V30 3265 O 300.726 -2.21801 -1.20667 0
M  V30 3266 C 302.039 -2.21905 2.02925 0
M  V30 3267 C 303.587 -2.35367 2.06329 0
M  V30 3268 C 304.062 -3.28245 3.19405 0
M  V30 3269 N 305.553 -3.35824 3.19024 0
M  V30 3270 C 306.288 -4.07739 4.03158 0
M  V30 3271 N 305.784 -4.82306 4.97346 0
M  V30 3272 N 307.577 -4.03635 3.91197 0
M  V30 3273 H 299.728 -0.648039 2.02273 0
M  V30 3274 H 301.991 -0.348149 0.881757 0
M  V30 3275 H 301.697 -1.82342 3.0074 0
M  V30 3276 H 301.571 -3.22407 1.95789 0
M  V30 3277 H 303.958 -2.74186 1.09116 0
M  V30 3278 H 304.039 -1.34585 2.17533 0
M  V30 3279 H 303.683 -2.90146 4.16867 0
M  V30 3280 H 303.613 -4.28971 3.05437 0
M  V30 3281 H 306.104 -2.8267 2.50811 0
M  V30 3282 H 306.417 -5.34661 5.57994 0
M  V30 3283 H 304.762 -4.81337 5.01338 0
M  V30 3284 H 307.953 -3.44491 3.16928 0
M  V30 3285 H 308.126 -4.59417 4.5699 0
M  V30 3286 N 301.532 -0.945985 -1.26051 0
M  V30 3287 C 302.757 -0.612525 -1.98149 0
M  V30 3288 C 303.182 0.806623 -1.69927 0
M  V30 3289 O 302.54 1.54411 -0.950108 0
M  V30 3290 C 302.588 -0.866981 -3.50023 0
M  V30 3291 O 301.692 0.0585333 -4.12358 0
M  V30 3292 H 301.033 -0.23379 -0.621481 0
M  V30 3293 H 303.563 -1.27023 -1.60395 0
M  V30 3294 H 303.573 -0.789792 -4.00283 0
M  V30 3295 H 302.248 -1.90135 -3.69894 0
M  V30 3296 H 300.825 -0.0701241 -3.72834 0
M  V30 3297 N 303.011 1.40521 -0.713556 0
M  V30 3298 C 304.257 2.01221 -0.252564 0
M  V30 3299 C 304.59 1.56444 1.1506 0
M  V30 3300 O 303.865 0.783597 1.78017 0
M  V30 3301 C 304.148 3.58582 -0.330332 0
M  V30 3302 C 304.001 4.13437 -1.77173 0
M  V30 3303 C 305.32 4.39079 0.299641 0
M  V30 3304 H 302.439 0.731077 -0.0932471 0
M  V30 3305 H 305.081 1.67026 -0.905673 0
M  V30 3306 H 303.231 3.87844 0.225737 0
M  V30 3307 H 304.903 3.9498 -2.38303 0
M  V30 3308 H 303.146 3.67801 -2.3001 0
M  V30 3309 H 303.817 5.22597 -1.77755 0
M  V30 3310 H 306.293 4.15735 -0.174139 0
M  V30 3311 H 305.169 5.4848 0.214771 0
M  V30 3312 H 305.43 4.19915 1.38288 0
M  V30 3313 N 304.489 0.459591 1.5075 0
M  V30 3314 C 305.452 -0.329093 2.26825 0
M  V30 3315 C 306.452 -0.930481 1.31144 0
M  V30 3316 O 307.642 -0.801453 1.54669 0
M  V30 3317 C 304.774 -1.46768 3.07688 0
M  V30 3318 H 305.967 0.337924 2.9799 0
M  V30 3319 H 303.52 0.213336 1.54837 0
M  V30 3320 H 304.255 -2.17009 2.40993 0
M  V30 3321 H 304.04 -1.04238 3.77991 0
M  V30 3322 H 305.53 -2.02433 3.65254 0
M  V30 3323 N 305.967 -1.56429 0.191757 0
M  V30 3324 C 307.192 -2.02309 -0.456706 0
M  V30 3325 C 307.617 -1.07103 -1.5463 0
M  V30 3326 O 306.975 -0.0539677 -1.8122 0
M  V30 3327 C 307.023 -3.46654 -0.993159 0
M  V30 3328 O 306.127 -3.54559 -2.10622 0
M  V30 3329 H 305.468 -0.655303 -0.107114 0
M  V30 3330 H 307.998 -2.02364 0.301653 0
M  V30 3331 H 308.008 -3.86377 -1.31061 0
M  V30 3332 H 306.683 -4.1544 -0.195504 0
M  V30 3333 H 305.26 -3.26708 -1.79767 0
M  V30 3334 N 307.445 0.0818655 -1.57387 0
M  V30 3335 C 308.67 0.799946 -1.91352 0
M  V30 3336 C 309.095 1.70833 -0.787258 0
M  V30 3337 O 308.453 1.79419 0.26048 0
M  V30 3338 C 308.501 1.57812 -3.24234 0
M  V30 3339 O 307.605 2.68806 -3.12757 0
M  V30 3340 H 306.946 0.21891 -0.626877 0
M  V30 3341 H 309.476 0.0531256 -2.04531 0
M  V30 3342 H 309.486 1.95952 -3.57864 0
M  V30 3343 H 308.161 0.911548 -4.05788 0
M  V30 3344 H 306.738 2.33597 -2.90666 0
M  V30 3345 N 308.923 1.53595 0.353017 0
M  V30 3346 C 309.853 1.83902 1.43883 0
M  V30 3347 C 310.834 0.693421 1.55324 0
M  V30 3348 O 312.019 0.944452 1.69687 0
M  V30 3349 C 309.149 2.04016 2.8106 0
M  V30 3350 C 308.103 3.19814 2.84434 0
M  V30 3351 C 307.429 3.25244 4.24406 0
M  V30 3352 C 308.729 4.58133 2.50822 0
M  V30 3353 H 310.423 2.74835 1.1877 0
M  V30 3354 H 307.969 1.32242 0.569917 0
M  V30 3355 H 309.922 2.238 3.57059 0
M  V30 3356 H 308.646 1.09804 3.07588 0
M  V30 3357 H 307.305 2.9987 2.10887 0
M  V30 3358 H 306.953 2.28646 4.48029 0
M  V30 3359 H 306.653 4.03054 4.27576 0
M  V30 3360 H 308.177 3.47228 5.0226 0
M  V30 3361 H 309.591 4.77995 3.16534 0
M  V30 3362 H 307.988 5.38276 2.6529 0
M  V30 3363 H 309.058 4.62387 1.46034 0
M  V30 3364 N 310.401 -0.613514 1.45168 0
M  V30 3365 C 311.817 -0.933629 1.29443 0
M  V30 3366 C 312.017 -2.00028 0.243101 0
M  V30 3367 O 311.073 -2.49848 -0.364992 0
M  V30 3368 C 312.386 -1.38018 2.67155 0
M  V30 3369 C 313.934 -1.49471 2.75004 0
M  V30 3370 C 314.409 -1.97503 4.13227 0
M  V30 3371 N 315.9 -2.04746 4.15491 0
M  V30 3372 C 316.635 -2.43121 5.19307 0
M  V30 3373 N 316.131 -2.80506 6.33473 0
M  V30 3374 N 317.924 -2.43408 5.06664 0
M  V30 3375 H 310.075 0.0916097 2.12202 0
M  V30 3376 H 312.338 -0.0216655 0.947752 0
M  V30 3377 H 312.044 -0.670625 3.45247 0
M  V30 3378 H 311.918 -2.34784 2.95222 0
M  V30 3379 H 314.305 -2.19519 1.9722 0
M  V30 3380 H 314.386 -0.510342 2.50657 0
M  V30 3381 H 314.03 -1.28045 4.91495 0
M  V30 3382 H 313.96 -2.96843 4.34962 0
M  V30 3383 H 316.451 -1.78468 3.33103 0
M  V30 3384 H 316.764 -3.08652 7.08487 0
M  V30 3385 H 315.109 -2.78216 6.36884 0
M  V30 3386 H 318.3 -2.13604 4.16523 0
M  V30 3387 H 318.473 -2.72989 5.87691 0
M  V30 3388 N 311.879 -1.3236 -0.855495 0
M  V30 3389 C 313.156 -1.13491 -1.59309 0
M  V30 3390 C 313.536 0.30503 -2.08885 0
M  V30 3391 O 312.884 1.30151 -1.87811 0
M  V30 3392 C 313.094 -2.16176 -2.73987 0
M  V30 3393 C 314.442 -2.49463 -3.43589 0
M  V30 3394 O 315.466 -2.14715 -2.84211 0
M  V30 3395 O 314.325 -3.09027 -4.50738 0
M  V30 3396 H 311.419 -0.437887 -0.701559 0
M  V30 3397 H 313.965 -1.43887 -0.899696 0
M  V30 3398 H 312.737 -3.1297 -2.34873 0
M  V30 3399 H 312.36 -1.86769 -3.51003 0
M  V30 3400 N 313.357 1.07166 -1.15556 0
M  V30 3401 C 314.305 2.16517 -0.8499 0
M  V30 3402 C 315.299 1.68468 0.177454 0
M  V30 3403 O 316.505 1.79971 0.0323026 0
M  V30 3404 H 312.88 0.706652 -0.25719 0
M  V30 3405 H 314.851 2.39514 -1.77976 0
M  V30 3406 C 313.6 3.45855 -0.357682 0
M  V30 3407 H 312.923 3.83214 -1.13961 0
M  V30 3408 H 314.363 4.23607 -0.182489 0
M  V30 3409 C 312.822 3.24062 0.921152 0
M  V30 3410 O 313.352 3.48813 1.9923 0
M  V30 3411 N 311.558 2.77539 0.86141 0
M  V30 3412 H 311.105 2.57598 -0.0104408 0
M  V30 3413 H 311.063 2.63337 1.71758 0
M  V30 3414 N 314.835 0.952656 1.25548 0
M  V30 3415 C 315.783 0.462354 2.27958 0
M  V30 3416 C 316.777 -0.46634 1.62855 0
M  V30 3417 O 317.983 -0.343287 1.76696 0
M  V30 3418 H 314.358 0.13101 0.7405 0
M  V30 3419 H 316.329 1.33839 2.66702 0
M  V30 3420 C 315.078 -0.24628 3.46827 0
M  V30 3421 H 314.401 0.459192 3.97154 0
M  V30 3422 H 315.841 -0.553393 4.20373 0
M  V30 3423 C 314.3 -1.4681 3.0323 0
M  V30 3424 O 314.83 -2.56591 3.09069 0
M  V30 3425 N 313.036 -1.32874 2.58443 0
M  V30 3426 H 312.583 -0.435536 2.53891 0
M  V30 3427 H 312.541 -2.14742 2.29637 0
M  V30 3428 N 316.313 -1.40141 0.720998 0
M  V30 3429 C 317.724 -1.83678 0.334553 0
M  V30 3430 C 318.075 -1.6027 -1.13173 0
M  V30 3431 O 317.2 -1.08643 -1.87152 0
M  V30 3432 C 317.795 -3.33437 0.600437 0
M  V30 3433 C 316.354 -3.75447 0.267642 0
M  V30 3434 C 315.501 -2.63296 0.870097 0
M  V30 3435 H 318.452 -1.29331 0.919732 0
M  V30 3436 H 318.473 -3.80269 -0.132517 0
M  V30 3437 H 317.985 -3.50442 1.66768 0
M  V30 3438 H 316.086 -3.64035 -0.794329 0
M  V30 3439 H 316.199 -4.73344 0.74042 0
M  V30 3440 H 314.563 -2.52954 0.297739 0
M  V30 3441 H 315.346 -2.83112 1.94172 0
M  V30 3442 N 317.792 -0.46758 -1.50504 0
M  V30 3443 C 318.724 0.364655 -2.26281 0
M  V30 3444 C 319.737 0.960151 -1.31472 0
M  V30 3445 O 320.926 0.849153 -1.57008 0
M  V30 3446 C 318.026 1.52509 -3.02645 0
M  V30 3447 C 317.199 1.04302 -4.24782 0
M  V30 3448 C 316.258 2.07709 -4.8347 0
M  V30 3449 O 315.284 1.65913 -5.44483 0
M  V30 3450 N 316.486 3.40485 -4.70159 0
M  V30 3451 H 319.251 -0.28495 -2.98342 0
M  V30 3452 H 316.812 -0.298163 -1.59131 0
M  V30 3453 H 318.804 2.21371 -3.38787 0
M  V30 3454 H 317.374 2.07945 -2.33404 0
M  V30 3455 H 316.594 0.180393 -3.93787 0
M  V30 3456 H 317.882 0.698798 -5.03978 0
M  V30 3457 H 317.28 3.77155 -4.21629 0
M  V30 3458 H 315.837 4.05156 -5.1058 0
M  V30 3459 N 319.27 1.56325 -0.20005 0
M  V30 3460 C 320.516 1.98012 0.438059 0
M  V30 3461 C 320.849 1.08702 1.60927 0
M  V30 3462 O 320.124 0.140064 1.93995 0
M  V30 3463 C 320.407 3.48841 0.893419 0
M  V30 3464 C 320.26 4.48928 -0.279947 0
M  V30 3465 C 321.579 4.03498 1.75719 0
M  V30 3466 H 318.698 0.719918 0.157757 0
M  V30 3467 H 321.34 1.87743 -0.291968 0
M  V30 3468 H 319.49 3.57723 1.51547 0
M  V30 3469 H 321.162 4.52079 -0.91772 0
M  V30 3470 H 319.405 4.23694 -0.930919 0
M  V30 3471 H 320.076 5.5194 0.0812601 0
M  V30 3472 H 322.552 3.97427 1.23253 0
M  V30 3473 H 321.428 5.09393 2.04476 0
M  V30 3474 H 321.689 3.4906 2.71311 0
M  V30 3475 N 320.748 -0.0735177 1.57428 0
M  V30 3476 C 322.025 -0.805903 1.78226 0
M  V30 3477 C 322.405 -1.95874 0.787189 0
M  V30 3478 O 321.753 -2.2779 -0.180029 0
M  V30 3479 C 321.963 -1.28045 3.24662 0
M  V30 3480 C 323.311 -1.71453 3.88444 0
M  V30 3481 O 324.335 -1.37616 3.28543 0
M  V30 3482 O 323.194 -2.34093 4.93825 0
M  V30 3483 H 320.288 -0.386041 0.73137 0
M  V30 3484 H 322.834 -0.0537269 1.69615 0
M  V30 3485 H 321.606 -0.455476 3.8864 0
M  V30 3486 H 321.229 -2.094 3.37991 0
M  V30 3487 N 322.226 -1.5378 -0.344866 0
M  V30 3488 C 323.472 -1.72158 -1.0832 0
M  V30 3489 C 323.827 -0.478218 -1.86362 0
M  V30 3490 O 323.12 0.529152 -1.84148 0
M  V30 3491 C 323.314 -2.92407 -2.05506 0
M  V30 3492 C 323.143 -4.28318 -1.37017 0
M  V30 3493 C 321.913 -4.92832 -1.11558 0
M  V30 3494 C 324.111 -5.08086 -0.797071 0
M  V30 3495 N 322.093 -6.12619 -0.396358 0
M  V30 3496 C 323.464 -6.1965 -0.208336 0
M  V30 3497 C 325.519 -4.92986 -0.697787 0
M  V30 3498 C 324.222 -7.17763 0.470023 0
M  V30 3499 C 326.248 -5.91391 -0.033171 0
M  V30 3500 C 325.61 -7.02292 0.544599 0
M  V30 3501 H 321.709 -0.683017 -0.380805 0
M  V30 3502 H 324.293 -1.91211 -0.366961 0
M  V30 3503 H 322.464 -2.74857 -2.74423 0
M  V30 3504 H 324.196 -2.9951 -2.72169 0
M  V30 3505 H 320.951 -4.52362 -1.40234 0
M  V30 3506 H 321.375 -6.7698 -0.0515119 0
M  V30 3507 H 326.017 -4.07414 -1.13022 0
M  V30 3508 H 323.735 -8.0291 0.914351 0
M  V30 3509 H 327.321 -5.81784 0.0430009 0
M  V30 3510 H 326.201 -7.77129 1.05073 0
M  V30 3511 N 323.704 0.605807 -1.45491 0
M  V30 3512 C 324.651 1.7164 -1.54299 0
M  V30 3513 C 325.621 1.61486 -0.388761 0
M  V30 3514 O 326.806 1.81039 -0.602445 0
M  V30 3515 C 323.946 3.09953 -1.51734 0
M  V30 3516 C 323.059 3.309 -2.77721 0
M  V30 3517 C 322.194 4.59329 -2.66816 0
M  V30 3518 C 321.233 4.7354 -3.87848 0
M  V30 3519 N 320.37 5.9327 -3.75467 0
M  V30 3520 H 325.21 1.63449 -2.49176 0
M  V30 3521 H 322.747 0.796957 -1.23641 0
M  V30 3522 H 324.705 3.89977 -1.48235 0
M  V30 3523 H 323.335 3.17098 -0.604068 0
M  V30 3524 H 322.387 2.44639 -2.913 0
M  V30 3525 H 323.699 3.37274 -3.67488 0
M  V30 3526 H 322.853 5.4755 -2.61292 0
M  V30 3527 H 321.592 4.55355 -1.74651 0
M  V30 3528 H 320.597 3.83741 -3.93729 0
M  V30 3529 H 321.822 4.79309 -4.81082 0
M  V30 3530 H 319.768 5.90338 -2.86072 0
M  V30 3531 H 319.685 6.00811 -4.5887 0
M  V30 3532 H 320.953 6.83984 -3.73879 0
M  V30 3533 N 325.182 1.32811 0.848464 0
M  V30 3534 C 326.459 1.14334 1.58704 0
M  V30 3535 C 326.839 -0.293948 2.09043 0
M  V30 3536 O 326.187 -1.29153 1.88499 0
M  V30 3537 C 326.397 2.17626 2.72837 0
M  V30 3538 C 327.745 2.51282 3.42261 0
M  V30 3539 O 328.769 2.16219 2.83068 0
M  V30 3540 O 327.628 3.11413 4.49093 0
M  V30 3541 H 324.722 0.441601 0.699226 0
M  V30 3542 H 327.268 1.44362 0.892053 0
M  V30 3543 H 326.04 3.14211 2.3321 0
M  V30 3544 H 325.663 1.88628 3.50008 0
M  V30 3545 N 326.66 -1.06551 1.16123 0
M  V30 3546 C 327.906 -1.79719 0.952505 0
M  V30 3547 C 328.261 -1.85396 -0.514385 0
M  V30 3548 O 327.554 -1.33263 -1.37665 0
M  V30 3549 C 327.748 -3.23911 1.51052 0
M  V30 3550 C 327.577 -3.32284 3.03013 0
M  V30 3551 C 326.347 -3.42371 3.71632 0
M  V30 3552 C 328.545 -3.22363 4.00732 0
M  V30 3553 N 326.527 -3.39732 5.11327 0
M  V30 3554 C 327.898 -3.26937 5.26794 0
M  V30 3555 C 329.953 -3.0623 3.92591 0
M  V30 3556 C 328.656 -3.17035 6.45663 0
M  V30 3557 C 330.682 -2.97665 5.11028 0
M  V30 3558 C 330.044 -3.02858 6.35969 0
M  V30 3559 H 326.143 -0.670585 0.402293 0
M  V30 3560 H 328.727 -1.27125 1.4747 0
M  V30 3561 H 326.898 -3.74907 1.01484 0
M  V30 3562 H 328.63 -3.85242 1.2398 0
M  V30 3563 H 325.385 -3.47058 3.22254 0
M  V30 3564 H 325.809 -3.41919 5.84312 0
M  V30 3565 H 330.451 -3.01063 2.96852 0
M  V30 3566 H 328.169 -3.2096 7.41627 0
M  V30 3567 H 331.755 -2.86273 5.06497 0
M  V30 3568 H 330.635 -2.96286 7.26075 0
M  V30 3569 N 328.138 -0.959301 -1.25041 0
M  V30 3570 C 329.085 -0.482057 -2.2571 0
M  V30 3571 C 330.055 0.467939 -1.59372 0
M  V30 3572 O 331.24 0.380159 -1.86974 0
M  V30 3573 C 328.38 0.229623 -3.44335 0
M  V30 3574 C 327.493 -0.758156 -4.25295 0
M  V30 3575 C 326.628 -0.0234403 -5.31195 0
M  V30 3576 C 325.667 -1.00184 -6.03846 0
M  V30 3577 N 324.804 -0.29769 -7.01469 0
M  V30 3578 H 329.644 -1.34538 -2.65901 0
M  V30 3579 H 327.181 -0.674592 -1.3072 0
M  V30 3580 H 329.139 0.658856 -4.11965 0
M  V30 3581 H 327.769 1.05696 -3.05005 0
M  V30 3582 H 326.821 -1.30586 -3.57284 0
M  V30 3583 H 328.133 -1.50458 -4.75567 0
M  V30 3584 H 327.287 0.464201 -6.04922 0
M  V30 3585 H 326.026 0.755741 -4.81809 0
M  V30 3586 H 325.031 -1.50044 -5.2893 0
M  V30 3587 H 326.256 -1.78133 -6.55321 0
M  V30 3588 H 324.202 0.462668 -6.54366 0
M  V30 3589 H 324.119 -0.983128 -7.4958 0
M  V30 3590 H 325.387 0.16826 -7.79318 0
M  V30 3591 N 329.616 1.39756 -0.72842 0
M  V30 3592 C 330.865 1.99879 -0.270407 0
M  V30 3593 C 331.178 1.58449 1.14688 0
M  V30 3594 O 332.384 2.11362 1.70407 0
M  V30 3595 C 330.84 3.57292 -0.43252 0
M  V30 3596 C 330.448 4.07688 -1.85727 0
M  V30 3597 C 332.192 4.24485 -0.0359507 0
M  V30 3598 C 330.099 5.5765 -1.96928 0
M  V30 3599 H 329.029 0.747689 -0.0973472 0
M  V30 3600 H 331.68 1.59837 -0.901355 0
M  V30 3601 H 330.062 3.95097 0.267219 0
M  V30 3602 H 331.236 3.81231 -2.58843 0
M  V30 3603 H 329.551 3.53135 -2.20646 0
M  V30 3604 H 332.148 5.34609 -0.0987484 0
M  V30 3605 H 332.491 4.03915 1.00787 0
M  V30 3606 H 333.024 3.9183 -0.686604 0
M  V30 3607 H 329.763 5.8309 -2.99476 0
M  V30 3608 H 329.283 5.8593 -1.28241 0
M  V30 3609 H 330.962 6.22957 -1.74737 0
M  V30 3610 N 331.094 0.475555 1.50254 0
M  V30 3611 C 332.342 -0.077738 2.0195 0
M  V30 3612 C 332.663 -1.39813 1.35931 0
M  V30 3613 O 331.933 -1.89249 0.506123 0
M  V30 3614 H 330.513 -0.031719 0.746326 0
M  V30 3615 H 333.175 0.626995 1.84539 0
M  V30 3616 H 332.271 -0.225995 3.11281 0
M  V30 3617 N 332.573 -1.56217 0.208337 0
M  V30 3618 C 333.82 -1.97949 -0.42692 0
M  V30 3619 C 334.148 -1.09562 -1.60706 0
M  V30 3620 O 333.403 -0.137616 -1.95216 0
M  V30 3621 C 333.702 -3.45441 -0.916797 0
M  V30 3622 C 333.368 -4.50646 0.151391 0
M  V30 3623 C 332.03 -4.79139 0.444867 0
M  V30 3624 C 334.382 -5.13811 0.874492 0
M  V30 3625 C 331.71 -5.68084 1.46619 0
M  V30 3626 C 334.062 -6.03861 1.88506 0
M  V30 3627 C 332.726 -6.30704 2.18559 0
M  V30 3628 H 331.996 -0.724345 -0.156221 0
M  V30 3629 H 334.643 -1.89006 0.308084 0
M  V30 3630 H 332.948 -3.51521 -1.73032 0
M  V30 3631 H 334.645 -3.75094 -1.41794 0
M  V30 3632 H 331.235 -4.28511 -0.0875068 0
M  V30 3633 H 335.419 -4.91879 0.660996 0
M  V30 3634 H 330.675 -5.87151 1.7048 0
M  V30 3635 H 334.849 -6.51861 2.45051 0
M  V30 3636 H 332.476 -6.99424 2.97843 0
M  V30 3637 N 334.051 0.0651679 -1.57465 0
M  V30 3638 C 334.983 1.10359 -2.00882 0
M  V30 3639 C 335.996 1.346 -0.915788 0
M  V30 3640 O 337.185 1.32723 -1.1936 0
M  V30 3641 C 334.285 2.45312 -2.33828 0
M  V30 3642 C 333.458 2.40934 -3.65061 0
M  V30 3643 C 332.517 3.58047 -3.85602 0
M  V30 3644 O 331.543 3.39175 -4.57109 0
M  V30 3645 N 332.745 4.78637 -3.28462 0
M  V30 3646 H 335.51 0.733807 -2.90578 0
M  V30 3647 H 333.071 0.253719 -1.599 0
M  V30 3648 H 335.063 3.22314 -2.44737 0
M  V30 3649 H 333.633 2.74267 -1.49988 0
M  V30 3650 H 332.853 1.49273 -3.64844 0
M  V30 3651 H 334.141 2.35117 -4.51218 0
M  V30 3652 H 333.539 4.96872 -2.70433 0
M  V30 3653 H 332.096 5.53127 -3.44809 0
M  V30 3654 N 335.529 1.53961 0.336706 0
M  V30 3655 C 336.459 1.85417 1.41925 0
M  V30 3656 C 337.44 0.709856 1.5458 0
M  V30 3657 O 338.625 0.962396 1.68676 0
M  V30 3658 C 335.755 2.06985 2.78881 0
M  V30 3659 C 334.709 3.22813 2.81026 0
M  V30 3660 C 334.035 3.29727 4.20932 0
M  V30 3661 C 335.335 4.60767 2.45949 0
M  V30 3662 H 337.029 2.76079 1.15848 0
M  V30 3663 H 334.575 1.32839 0.555859 0
M  V30 3664 H 336.528 2.27575 3.54665 0
M  V30 3665 H 335.252 1.13061 3.06406 0
M  V30 3666 H 333.911 3.0209 2.07695 0
M  V30 3667 H 333.559 2.33385 4.45579 0
M  V30 3668 H 333.259 4.07566 4.23277 0
M  V30 3669 H 334.783 3.52536 4.98549 0
M  V30 3670 H 336.197 4.81325 3.11446 0
M  V30 3671 H 334.594 5.4106 2.59566 0
M  V30 3672 H 335.664 4.6391 1.41122 0
M  V30 3673 N 337.007 -0.598083 1.45811 0
M  V30 3674 C 338.247 -1.36802 1.5187 0
M  V30 3675 C 338.611 -1.9133 0.160224 0
M  V30 3676 O 339.812 -2.6863 0.0955302 0
M  V30 3677 C 338.083 -2.47835 2.57513 0
M  V30 3678 S 339.642 -3.35458 2.82866 0
M  V30 3679 H 336.46 -0.466278 0.536755 0
M  V30 3680 H 339.062 -0.689152 1.82951 0
M  V30 3681 H 337.766 -2.06141 3.54872 0
M  V30 3682 H 337.297 -3.20512 2.28114 0
M  V30 3683 H 339.312 -4.46251 2.16967 0
M  V30 3684 N 338.485 -1.33259 -0.841409 0
M  V30 3685 C 339.433 -1.23279 -1.97244 0
M  V30 3686 C 340.427 -0.134706 -1.68864 0
M  V30 3687 O 341.633 -0.298501 -1.77508 0
M  V30 3688 H 338.008 -0.382497 -0.647457 0
M  V30 3689 H 339.979 -2.18906 -2.02787 0
M  V30 3690 C 338.728 -0.986268 -3.33419 0
M  V30 3691 H 338.051 -1.82347 -3.55794 0
M  V30 3692 H 339.491 -0.956728 -4.13065 0
M  V30 3693 C 337.95 0.310842 -3.35463 0
M  V30 3694 O 338.48 1.31838 -3.79449 0
M  V30 3695 N 336.686 0.337485 -2.88634 0
M  V30 3696 H 336.233 -0.482967 -2.53032 0
M  V30 3697 H 336.191 1.20518 -2.90384 0
M  V30 3698 N 339.963 1.05934 -1.16686 0
M  V30 3699 C 340.895 2.13468 -0.834503 0
M  V30 3700 C 341.908 1.62013 0.15984 0
M  V30 3701 O 343.097 1.7838 -0.0654228 0
M  V30 3702 C 340.197 3.3817 -0.222361 0
M  V30 3703 C 339.37 4.18928 -1.25771 0
M  V30 3704 C 338.429 5.21985 -0.664703 0
M  V30 3705 O 337.455 5.53334 -1.33453 0
M  V30 3706 N 338.657 5.77919 0.546834 0
M  V30 3707 H 341.422 2.42578 -1.75999 0
M  V30 3708 H 338.983 1.21967 -1.06469 0
M  V30 3709 H 340.975 4.04266 0.187472 0
M  V30 3710 H 339.545 3.06655 0.606758 0
M  V30 3711 H 338.765 3.48433 -1.84358 0
M  V30 3712 H 340.053 4.69687 -1.95631 0
M  V30 3713 H 339.451 5.54721 1.10912 0
M  V30 3714 H 338.008 6.45573 0.898829 0
M  V30 3715 N 341.441 0.965919 1.2453 0
M  V30 3716 C 342.389 0.486506 2.27455 0
M  V30 3717 C 343.383 -0.449041 1.6334 0
M  V30 3718 O 344.589 -0.324527 1.7705 0
M  V30 3719 H 340.964 0.138857 0.739069 0
M  V30 3720 H 342.935 1.3666 2.65267 0
M  V30 3721 C 341.684 -0.209481 3.47068 0
M  V30 3722 H 341.007 0.50129 3.96645 0
M  V30 3723 H 342.447 -0.508775 4.20936 0
M  V30 3724 C 340.906 -1.43586 3.0477 0
M  V30 3725 O 341.436 -2.53299 3.11773 0
M  V30 3726 N 339.642 -1.30126 2.59838 0
M  V30 3727 H 339.189 -0.408583 2.54339 0
M  V30 3728 H 339.147 -2.12294 2.31902 0
M  V30 3729 N 342.919 -1.39368 0.735821 0
M  V30 3730 C 343.866 -2.30599 0.0963825 0
M  V30 3731 C 344.836 -1.49257 -0.728794 0
M  V30 3732 O 346.021 -1.77941 -0.688588 0
M  V30 3733 C 343.161 -3.35596 -0.804305 0
M  V30 3734 C 342.274 -4.31987 0.0335761 0
M  V30 3735 C 341.409 -5.24053 -0.868461 0
M  V30 3736 C 340.448 -6.12095 -0.0258776 0
M  V30 3737 N 339.585 -6.96514 -0.883893 0
M  V30 3738 H 344.425 -2.8471 0.880002 0
M  V30 3739 H 341.962 -1.40188 0.445619 0
M  V30 3740 H 343.92 -3.95062 -1.34096 0
M  V30 3741 H 342.55 -2.82938 -1.55389 0
M  V30 3742 H 341.602 -3.74133 0.68766 0
M  V30 3743 H 342.914 -4.94074 0.685036 0
M  V30 3744 H 342.068 -5.88549 -1.47293 0
M  V30 3745 H 340.807 -4.62289 -1.5537 0
M  V30 3746 H 339.812 -5.4661 0.591386 0
M  V30 3747 H 341.037 -6.75923 0.656156 0
M  V30 3748 H 338.983 -6.37318 -1.55441 0
M  V30 3749 H 338.9 -7.55448 -0.288931 0
M  V30 3750 H 340.168 -7.65439 -1.4739 0
M  V30 3751 N 344.397 -0.483516 -1.5 0
M  V30 3752 C 345.622 0.0667119 -2.07293 0
M  V30 3753 C 346.047 1.3164 -1.3436 0
M  V30 3754 O 345.405 1.76945 -0.394987 0
M  V30 3755 C 345.453 0.321126 -3.59167 0
M  V30 3756 O 344.557 1.39927 -3.87936 0
M  V30 3757 H 343.898 -0.0184758 -0.663743 0
M  V30 3758 H 346.428 -0.678125 -1.93035 0
M  V30 3759 H 346.438 0.557906 -4.04168 0
M  V30 3760 H 345.113 -0.592007 -4.11665 0
M  V30 3761 H 343.69 1.14882 -3.54763 0
M  V30 3762 N 345.875 1.56104 -0.216619 0
M  V30 3763 C 347.152 1.89988 0.465165 0
M  V30 3764 C 347.532 1.13326 1.78102 0
M  V30 3765 O 346.88 0.241033 2.27225 0
M  V30 3766 C 347.09 3.42646 0.662939 0
M  V30 3767 C 348.438 4.13311 0.972602 0
M  V30 3768 O 349.462 3.48217 0.749901 0
M  V30 3769 O 348.321 5.28396 1.39499 0
M  V30 3770 H 345.415 0.78979 0.245276 0
M  V30 3771 H 347.961 1.67721 -0.258436 0
M  V30 3772 H 346.733 3.90399 -0.26543 0
M  V30 3773 H 346.356 3.70677 1.43821 0
M  V30 3774 N 347.353 -0.0568162 1.57498 0
M  V30 3775 C 348.593 -0.758273 1.89815 0
M  V30 3776 C 348.957 -1.73978 0.812132 0
M  V30 3777 O 350.158 -2.48744 1.01881 0
M  V30 3778 C 348.429 -1.43465 3.27342 0
M  V30 3779 S 349.988 -2.1691 3.81439 0
M  V30 3780 H 346.806 -0.251836 0.664906 0
M  V30 3781 H 349.408 -0.0137997 1.95495 0
M  V30 3782 H 348.112 -0.706693 4.0427 0
M  V30 3783 H 347.643 -2.21825 3.24896 0
M  V30 3784 H 349.658 -3.43658 3.5793 0
M  V30 3785 N 348.832 -1.54138 -0.328536 0
M  V30 3786 C 350.079 -1.72105 -1.06706 0
M  V30 3787 C 350.407 -0.492111 -1.88171 0
M  V30 3788 O 349.662 0.526153 -1.88494 0
M  V30 3789 C 349.961 -2.9457 -2.02393 0
M  V30 3790 C 349.627 -4.29544 -1.37122 0
M  V30 3791 C 348.289 -4.6624 -1.19052 0
M  V30 3792 C 350.641 -5.1333 -0.902331 0
M  V30 3793 C 347.969 -5.84325 -0.527331 0
M  V30 3794 C 350.321 -6.32094 -0.252988 0
M  V30 3795 C 348.985 -6.67473 -0.0600901 0
M  V30 3796 H 348.255 -0.629775 -0.390466 0
M  V30 3797 H 350.902 -1.88372 -0.34473 0
M  V30 3798 H 349.207 -2.72969 -2.81061 0
M  V30 3799 H 350.904 -3.05665 -2.59557 0
M  V30 3800 H 347.494 -4.0067 -1.52188 0
M  V30 3801 H 351.678 -4.855 -1.02974 0
M  V30 3802 H 346.934 -6.103 -0.366634 0
M  V30 3803 H 351.108 -6.96299 0.118366 0
M  V30 3804 H 348.735 -7.58832 0.455828 0
M  V30 3805 N 350.31 0.590341 -1.46126 0
M  V30 3806 C 351.54 1.37304 -1.54373 0
M  V30 3807 C 351.948 1.88332 -0.181071 0
M  V30 3808 O 351.291 1.63852 0.830559 0
M  V30 3809 C 351.353 2.6012 -2.48149 0
M  V30 3810 C 351.017 2.30613 -3.94546 0
M  V30 3811 C 352.014 1.89915 -4.83971 0
M  V30 3812 C 349.699 2.42993 -4.39613 0
M  V30 3813 C 351.693 1.61981 -6.16475 0
M  V30 3814 C 349.38 2.14672 -5.72153 0
M  V30 3815 C 350.378 1.7423 -6.60404 0
M  V30 3816 O 350.066 1.46251 -7.90485 0
M  V30 3817 H 349.798 0.426086 -0.524811 0
M  V30 3818 H 352.352 0.72539 -1.92165 0
M  V30 3819 H 350.582 3.27664 -2.05361 0
M  V30 3820 H 352.271 3.22182 -2.46887 0
M  V30 3821 H 353.037 1.79872 -4.50412 0
M  V30 3822 H 348.916 2.73435 -3.71153 0
M  V30 3823 H 352.46 1.30341 -6.85315 0
M  V30 3824 H 348.357 2.24337 -6.05263 0
M  V30 3825 H 349.125 1.6016 -8.02677 0
M  V30 3826 N 351.788 1.33704 0.83433 0
M  V30 3827 C 352.72 1.20172 1.9517 0
M  V30 3828 C 353.733 0.131572 1.62267 0
M  V30 3829 O 354.922 0.382406 1.74356 0
M  V30 3830 C 352.022 0.821716 3.28787 0
M  V30 3831 C 351.195 1.98446 3.89792 0
M  V30 3832 C 350.254 1.58469 5.01771 0
M  V30 3833 O 349.28 2.29968 5.20676 0
M  V30 3834 N 350.482 0.492291 5.78409 0
M  V30 3835 H 353.247 2.16429 2.07313 0
M  V30 3836 H 350.808 1.26509 1.0103 0
M  V30 3837 H 352.8 0.536291 4.01131 0
M  V30 3838 H 351.37 -0.0503058 3.1256 0
M  V30 3839 H 350.59 2.43526 3.09982 0
M  V30 3840 H 351.878 2.76236 4.27283 0
M  V30 3841 H 351.276 -0.102349 5.65607 0
M  V30 3842 H 349.833 0.266555 6.51255 0
M  V30 3843 N 353.266 -1.05314 1.17247 0
M  V30 3844 C 354.494 -1.81971 0.984593 0
M  V30 3845 C 354.909 -1.82929 -0.467166 0
M  V30 3846 O 354.266 -1.25564 -1.32438 0
M  V30 3847 C 354.317 -3.28143 1.51672 0
M  V30 3848 O 354.038 -3.27347 2.91163 0
M  V30 3849 C 355.539 -4.21493 1.37326 0
M  V30 3850 H 352.759 -0.573455 0.348411 0
M  V30 3851 H 355.303 -1.32808 1.55506 0
M  V30 3852 H 353.458 -3.74582 0.988302 0
M  V30 3853 H 353.872 -4.18824 3.15732 0
M  V30 3854 H 355.346 -5.22043 1.79375 0
M  V30 3855 H 355.823 -4.38031 0.320169 0
M  V30 3856 H 356.429 -3.80909 1.89178 0
M  V30 3857 N 354.744 -0.972509 -1.24016 0
M  V30 3858 C 355.974 -0.653853 -1.9598 0
M  V30 3859 C 356.382 0.781801 -1.72292 0
M  V30 3860 O 355.725 1.53677 -1.00644 0
M  V30 3861 C 355.787 -0.854608 -3.49194 0
M  V30 3862 C 355.451 -2.27082 -3.96589 0
M  V30 3863 C 356.448 -3.24892 -4.05883 0
M  V30 3864 C 354.133 -2.5998 -4.29786 0
M  V30 3865 C 356.127 -4.53684 -4.47716 0
M  V30 3866 C 353.814 -3.88997 -4.71301 0
M  V30 3867 C 354.812 -4.85661 -4.80232 0
M  V30 3868 O 354.5 -6.12376 -5.20818 0
M  V30 3869 H 354.232 -0.242572 -0.630979 0
M  V30 3870 H 356.786 -1.30431 -1.58673 0
M  V30 3871 H 355.016 -0.146985 -3.86421 0
M  V30 3872 H 356.705 -0.534311 -4.02368 0
M  V30 3873 H 357.471 -3.00805 -3.80449 0
M  V30 3874 H 353.35 -1.85457 -4.22051 0
M  V30 3875 H 356.894 -5.29135 -4.54601 0
M  V30 3876 H 352.791 -4.12882 -4.96184 0
M  V30 3877 H 353.559 -6.16013 -5.38953 0
M  V30 3878 N 356.222 1.38976 -0.743202 0
M  V30 3879 C 357.447 2.05161 -0.303936 0
M  V30 3880 C 357.872 1.55677 1.05576 0
M  V30 3881 O 357.23 0.704131 1.67068 0
M  V30 3882 C 357.278 3.59138 -0.324373 0
M  V30 3883 O 356.382 4.06668 0.685204 0
M  V30 3884 H 355.723 0.649815 -0.136518 0
M  V30 3885 H 358.253 1.77852 -1.01142 0
M  V30 3886 H 358.263 4.07639 -0.171618 0
M  V30 3887 H 356.938 3.94515 -1.31647 0
M  V30 3888 H 355.515 3.69561 0.497913 0
M  V30 3889 N 357.7 0.491464 1.49741 0
M  V30 3890 C 358.925 -0.0557177 2.07325 0
M  V30 3891 C 359.35 -1.30925 1.35056 0
M  V30 3892 O 358.708 -1.76733 0.404365 0
M  V30 3893 C 358.756 -0.302074 3.59333 0
M  V30 3894 O 357.86 -1.37868 3.88672 0
M  V30 3895 H 357.201 0.0219956 0.663636 0
M  V30 3896 H 359.731 0.688352 1.92673 0
M  V30 3897 H 359.741 -0.536464 4.04458 0
M  V30 3898 H 358.416 0.61383 4.11345 0
M  V30 3899 H 356.993 -1.12999 3.55367 0
M  V30 3900 N 359.178 -1.55987 0.224894 0
M  V30 3901 C 360.426 -1.97998 -0.405099 0
M  V30 3902 C 360.747 -1.11387 -1.60056 0
M  V30 3903 O 360.017 -0.191645 -1.9496 0
M  V30 3904 H 358.597 -0.731235 -0.152658 0
M  V30 3905 H 361.259 -1.92279 0.318567 0
M  V30 3906 H 360.355 -3.03463 -0.729167 0
M  V30 3907 N 360.656 0.0484629 -1.57525 0
M  V30 3908 C 361.902 0.744226 -1.88651 0
M  V30 3909 C 362.235 1.76029 -0.820212 0
M  V30 3910 O 361.51 1.93782 0.166985 0
M  V30 3911 C 361.793 1.43128 -3.30434 0
M  V30 3912 C 361.646 0.43005 -4.47739 0
M  V30 3913 C 362.965 2.37031 -3.70816 0
M  V30 3914 H 360.084 0.269089 -0.68612 0
M  V30 3915 H 362.726 0.00713532 -1.89999 0
M  V30 3916 H 360.876 2.05956 -3.29415 0
M  V30 3917 H 362.548 -0.194816 -4.60888 0
M  V30 3918 H 360.791 -0.252522 -4.33064 0
M  V30 3919 H 361.462 0.948874 -5.43783 0
M  V30 3920 H 363.938 1.84263 -3.73077 0
M  V30 3921 H 362.814 2.82094 -4.70865 0
M  V30 3922 H 363.075 3.22864 -3.02012 0
M  V30 3923 N 362.134 1.5431 0.320358 0
M  V30 3924 C 363.411 1.63322 1.07635 0
M  V30 3925 C 363.791 0.46912 2.05821 0
M  V30 3926 O 363.139 -0.536274 2.22118 0
M  V30 3927 C 363.349 3.00465 1.77544 0
M  V30 3928 C 364.697 3.56621 2.30449 0
M  V30 3929 O 365.721 3.02791 1.87606 0
M  V30 3930 O 364.58 4.5083 3.08892 0
M  V30 3931 H 361.674 0.661502 0.496331 0
M  V30 3932 H 364.22 1.66656 0.319992 0
M  V30 3933 H 362.992 3.76629 1.06143 0
M  V30 3934 H 362.615 3.00824 2.59982 0
M  V30 3935 N 363.613 -0.582584 1.46437 0
M  V30 3936 C 364.576 -1.67366 1.56592 0
M  V30 3937 C 365.576 -1.54575 0.443072 0
M  V30 3938 O 366.766 -1.59191 0.707381 0
M  V30 3939 C 363.898 -3.06791 1.48634 0
M  V30 3940 H 365.091 -1.5972 2.5383 0
M  V30 3941 H 362.644 -0.800432 1.34249 0
M  V30 3942 H 363.379 -3.19993 0.526763 0
M  V30 3943 H 363.164 -3.17484 2.30101 0
M  V30 3944 H 364.654 -3.86218 1.58826 0
M  V30 3945 N 365.091 -1.34144 -0.827227 0
M  V30 3946 C 366.337 -1.26446 -1.58554 0
M  V30 3947 C 366.67 0.1664 -1.93486 0
M  V30 3948 O 365.945 1.1107 -1.59667 0
M  V30 3949 C 366.228 -2.15111 -2.8879 0
M  V30 3950 C 366.081 -3.66712 -2.60465 0
M  V30 3951 C 367.4 -2.03311 -3.90324 0
M  V30 3952 H 364.519 -0.46067 -0.575284 0
M  V30 3953 H 367.161 -1.64356 -0.953269 0
M  V30 3954 H 365.311 -1.8291 -3.42748 0
M  V30 3955 H 366.983 -4.09259 -2.1285 0
M  V30 3956 H 365.226 -3.88014 -1.93978 0
M  V30 3957 H 365.897 -4.24112 -3.53317 0
M  V30 3958 H 368.373 -2.31574 -3.45706 0
M  V30 3959 H 367.249 -2.67582 -4.79261 0
M  V30 3960 H 367.51 -1.00879 -4.30437 0
M  V30 3961 N 366.569 1.04691 -1.17803 0
M  V30 3962 C 367.985 1.29963 -0.926379 0
M  V30 3963 C 368.185 1.97251 0.411635 0
M  V30 3964 O 367.241 2.24922 1.14744 0
M  V30 3965 C 368.554 2.16447 -2.08737 0
M  V30 3966 C 370.102 2.29814 -2.12496 0
M  V30 3967 C 370.577 3.19661 -3.27995 0
M  V30 3968 N 372.068 3.27247 -3.27816 0
M  V30 3969 C 372.803 3.96906 -4.13827 0
M  V30 3970 N 372.299 4.6895 -5.09959 0
M  V30 3971 N 374.092 3.93122 -4.01761 0
M  V30 3972 H 366.243 0.594182 -2.0392 0
M  V30 3973 H 368.506 0.324649 -0.890678 0
M  V30 3974 H 368.212 1.74304 -3.05469 0
M  V30 3975 H 368.086 3.17103 -2.04268 0
M  V30 3976 H 370.473 2.71196 -1.16347 0
M  V30 3977 H 370.554 1.2877 -2.21025 0
M  V30 3978 H 370.198 2.78991 -4.24413 0
M  V30 3979 H 370.128 4.20722 -3.16703 0
M  V30 3980 H 372.619 2.75921 -2.58217 0
M  V30 3981 H 372.932 5.19679 -5.71974 0
M  V30 3982 H 371.277 4.67875 -5.13924 0
M  V30 3983 H 374.468 3.35967 -3.2595 0
M  V30 3984 H 374.641 4.47139 -4.6901 0
M  V30 3985 N 368.047 0.979072 1.23499 0
M  V30 3986 C 368.957 0.526431 2.28617 0
M  V30 3987 C 369.973 -0.418126 1.68901 0
M  V30 3988 O 371.149 -0.288372 1.99325 0
M  V30 3989 C 368.214 -0.165235 3.46306 0
M  V30 3990 C 367.275 0.82056 4.21385 0
M  V30 3991 C 366.508 0.161807 5.33455 0
M  V30 3992 O 366.731 -1.04742 5.60701 0
M  V30 3993 O 365.665 0.859708 5.95729 0
M  V30 3994 H 369.491 1.4006 2.69475 0
M  V30 3995 H 367.076 0.746643 1.29405 0
M  V30 3996 H 368.958 -0.553287 4.17752 0
M  V30 3997 H 367.633 -1.01419 3.07402 0
M  V30 3998 H 366.54 1.25929 3.52268 0
M  V30 3999 H 367.873 1.63828 4.64135 0
M  V30 4000 N 369.525 -1.3858 0.750561 0
M  V30 4001 C 370.771 -2.0095 0.31477 0
M  V30 4002 C 371.126 -1.58509 -1.09053 0
M  V30 4003 O 370.419 -0.8112 -1.7358 0
M  V30 4004 C 370.613 -3.55455 0.372373 0
M  V30 4005 C 370.442 -4.12898 1.78173 0
M  V30 4006 C 369.212 -4.44797 2.39757 0
M  V30 4007 C 371.41 -4.35366 2.7379 0
M  V30 4008 N 369.392 -4.87831 3.72685 0
M  V30 4009 C 370.763 -4.80775 3.91478 0
M  V30 4010 C 372.818 -4.1746 2.71351 0
M  V30 4011 C 371.521 -5.10155 5.07084 0
M  V30 4012 C 373.547 -4.47963 3.86113 0
M  V30 4013 C 372.909 -4.93593 5.02539 0
M  V30 4014 H 369.008 -0.765083 0.161776 0
M  V30 4015 H 371.592 -1.68246 0.979867 0
M  V30 4016 H 369.763 -3.87512 -0.26244 0
M  V30 4017 H 371.495 -4.04614 -0.0834479 0
M  V30 4018 H 368.25 -4.33135 1.91548 0
M  V30 4019 H 368.674 -5.13685 4.40972 0
M  V30 4020 H 373.316 -3.81372 1.82524 0
M  V30 4021 H 371.034 -5.45141 5.96529 0
M  V30 4022 H 374.62 -4.35717 3.85542 0
M  V30 4023 H 373.5 -5.16746 5.89867 0
M  V30 4024 N 371.003 -0.499398 -1.49478 0
M  V30 4025 C 372.233 0.0424839 -2.06556 0
M  V30 4026 C 372.641 1.31514 -1.36018 0
M  V30 4027 O 371.984 1.78555 -0.431718 0
M  V30 4028 C 372.046 0.368074 -3.57611 0
M  V30 4029 C 371.71 -0.806631 -4.49825 0
M  V30 4030 C 372.707 -1.69667 -4.91436 0
M  V30 4031 C 370.392 -1.00498 -4.92144 0
M  V30 4032 C 372.386 -2.76923 -5.74101 0
M  V30 4033 C 370.073 -2.08072 -5.74586 0
M  V30 4034 C 371.071 -2.96119 -6.15469 0
M  V30 4035 O 370.759 -4.01836 -6.96264 0
M  V30 4036 H 370.491 -0.0165165 -0.675798 0
M  V30 4037 H 373.045 -0.695497 -1.93267 0
M  V30 4038 H 371.275 1.15963 -3.68903 0
M  V30 4039 H 372.964 0.848381 -3.96935 0
M  V30 4040 H 373.73 -1.55524 -4.59388 0
M  V30 4041 H 369.609 -0.329036 -4.59824 0
M  V30 4042 H 373.153 -3.45676 -6.05932 0
M  V30 4043 H 369.05 -2.22211 -6.06047 0
M  V30 4044 H 369.818 -3.9917 -7.14567 0
M  V30 4045 N 372.481 1.55866 -0.233164 0
M  V30 4046 C 373.897 1.59133 0.121988 0
M  V30 4047 C 374.097 1.25016 1.58029 0
M  V30 4048 O 373.153 0.990922 2.32243 0
M  V30 4049 C 374.466 2.99932 -0.214792 0
M  V30 4050 C 376.014 3.12601 -0.157971 0
M  V30 4051 C 376.489 4.55597 -0.46859 0
M  V30 4052 N 377.98 4.61305 -0.418585 0
M  V30 4053 C 378.715 5.69903 -0.63227 0
M  V30 4054 N 378.211 6.86819 -0.90835 0
M  V30 4055 N 380.004 5.59264 -0.563913 0
M  V30 4056 H 372.155 1.76315 -1.18434 0
M  V30 4057 H 374.418 0.820093 -0.475553 0
M  V30 4058 H 374.124 3.29588 -1.22739 0
M  V30 4059 H 373.998 3.74327 0.464691 0
M  V30 4060 H 376.385 2.82735 0.845283 0
M  V30 4061 H 376.466 2.40511 -0.871102 0
M  V30 4062 H 376.11 4.86182 -1.46934 0
M  V30 4063 H 376.04 5.25928 0.265865 0
M  V30 4064 H 378.531 3.77297 -0.213368 0
M  V30 4065 H 378.844 7.65507 -1.05919 0
M  V30 4066 H 377.189 6.88536 -0.945673 0
M  V30 4067 H 380.38 4.66802 -0.348372 0
M  V30 4068 H 380.553 6.43831 -0.733847 0
M  V30 4069 N 373.959 -0.0401083 1.57549 0
M  V30 4070 C 375.206 -0.733125 1.88763 0
M  V30 4071 C 375.534 -1.75946 0.829058 0
M  V30 4072 O 374.789 -1.94949 -0.171323 0
M  V30 4073 C 375.088 -1.44902 3.26708 0
M  V30 4074 C 374.754 -0.559707 4.47413 0
M  V30 4075 C 373.416 -0.314731 4.8017 0
M  V30 4076 C 375.768 0.0549743 5.21171 0
M  V30 4077 C 373.096 0.553886 5.8408 0
M  V30 4078 C 375.448 0.911229 6.26003 0
M  V30 4079 C 374.112 1.16577 6.57241 0
M  V30 4080 H 373.382 -0.268269 0.690733 0
M  V30 4081 H 376.029 0.00679408 1.91499 0
M  V30 4082 H 374.334 -2.26197 3.1991 0
M  V30 4083 H 376.031 -1.99058 3.48105 0
M  V30 4084 H 372.621 -0.760793 4.21794 0
M  V30 4085 H 376.805 -0.121344 4.96152 0
M  V30 4086 H 372.061 0.759518 6.06664 0
M  V30 4087 H 376.235 1.3941 6.82303 0
M  V30 4088 H 373.862 1.84058 7.37582 0
M  V30 4089 N 375.437 -1.54477 -0.31217 0
M  V30 4090 C 376.387 -1.81037 -1.38598 0
M  V30 4091 C 377.371 -0.666941 -1.46426 0
M  V30 4092 O 378.563 -0.927269 -1.50767 0
M  V30 4093 C 375.692 -2.05127 -2.75277 0
M  V30 4094 C 374.778 -3.25624 -2.71716 0
M  V30 4095 N 375.169 -4.46428 -2.37773 0
M  V30 4096 C 373.467 -3.27427 -3.02833 0
M  V30 4097 C 374.168 -5.28406 -2.43232 0
M  V30 4098 N 373.144 -4.6586 -2.80135 0
M  V30 4099 H 376.946 -2.7201 -1.11301 0
M  V30 4100 H 374.46 -1.53826 -0.520705 0
M  V30 4101 H 376.457 -2.22299 -3.52688 0
M  V30 4102 H 375.117 -1.15416 -3.03495 0
M  V30 4103 H 376.128 -4.73227 -2.1042 0
M  V30 4104 H 372.805 -2.47786 -3.36018 0
M  V30 4105 H 374.195 -6.34903 -2.19882 0
M  V30 4106 N 376.915 0.57481 -1.46744 0
M  V30 4107 C 378.145 1.35659 -1.55821 0
M  V30 4108 C 378.553 1.88129 -0.201036 0
M  V30 4109 O 377.896 1.64723 0.813134 0
M  V30 4110 C 377.958 2.57473 -2.50894 0
M  V30 4111 C 377.622 2.26415 -3.9697 0
M  V30 4112 C 378.619 1.84771 -4.85958 0
M  V30 4113 C 376.304 2.38316 -4.42166 0
M  V30 4114 C 378.298 1.55434 -6.18158 0
M  V30 4115 C 375.985 2.08591 -5.74398 0
M  V30 4116 C 376.983 1.67216 -6.62214 0
M  V30 4117 O 376.671 1.37859 -7.91991 0
M  V30 4118 H 376.403 0.420496 -0.529301 0
M  V30 4119 H 378.957 0.704967 -1.92923 0
M  V30 4120 H 377.187 3.25468 -2.08824 0
M  V30 4121 H 378.876 3.19546 -2.50291 0
M  V30 4122 H 379.642 1.75085 -4.52295 0
M  V30 4123 H 375.521 2.69483 -3.74032 0
M  V30 4124 H 379.065 1.23065 -6.86659 0
M  V30 4125 H 374.962 2.17905 -6.07608 0
M  V30 4126 H 375.73 1.51638 -8.04331 0
M  V30 4127 N 378.394 1.34581 0.820102 0
M  V30 4128 C 379.643 1.26437 1.57151 0
M  V30 4129 C 379.956 -0.163111 1.94919 0
M  V30 4130 O 381.162 -0.366722 2.69012 0
M  V30 4131 C 379.618 2.21658 2.83541 0
M  V30 4132 C 379.226 3.69679 2.53065 0
M  V30 4133 C 380.97 2.22428 3.61561 0
M  V30 4134 C 378.877 4.56761 3.75664 0
M  V30 4135 H 377.807 0.469707 0.589823 0
M  V30 4136 H 380.458 1.59763 0.902656 0
M  V30 4137 H 378.84 1.81287 3.52067 0
M  V30 4138 H 380.014 4.18605 1.92631 0
M  V30 4139 H 378.329 3.71384 1.88316 0
M  V30 4140 H 380.926 2.8471 4.52597 0
M  V30 4141 H 381.269 1.22434 3.97889 0
M  V30 4142 H 381.802 2.61259 2.99981 0
M  V30 4143 H 378.541 5.57702 3.44454 0
M  V30 4144 H 378.061 4.12568 4.35371 0
M  V30 4145 H 379.74 4.71509 4.43044 0
M  V30 4146 N 379.872 -1.04064 1.18357 0
M  V30 4147 C 380.82 -2.14187 0.907007 0
M  V30 4148 C 381.814 -1.68879 -0.132725 0
M  V30 4149 O 383.02 -1.79993 0.0154248 0
M  V30 4150 H 379.395 -0.699585 0.275835 0
M  V30 4151 H 381.366 -2.34711 1.84264 0
M  V30 4152 C 380.115 -3.44785 0.449254 0
M  V30 4153 H 379.438 -3.80058 1.24081 0
M  V30 4154 H 380.878 -4.22974 0.294737 0
M  V30 4155 C 379.337 -3.26391 -0.834909 0
M  V30 4156 O 379.867 -3.53973 -1.89911 0
M  V30 4157 N 378.073 -2.79726 -0.787523 0
M  V30 4158 H 377.62 -2.5748 0.0787347 0
M  V30 4159 H 377.578 -2.67798 -1.64716 0
M  V30 4160 N 381.35 -0.985608 -1.22978 0
M  V30 4161 C 382.599 -0.652881 -1.90841 0
M  V30 4162 C 382.912 0.817842 -1.77681 0
M  V30 4163 O 384.118 1.26185 -2.40395 0
M  V30 4164 C 382.574 -1.11717 -3.42122 0
M  V30 4165 C 382.182 -2.6126 -3.63933 0
M  V30 4166 C 383.926 -0.85843 -4.1573 0
M  V30 4167 C 381.833 -3.0133 -5.08876 0
M  V30 4168 H 380.763 -0.240491 -0.714619 0
M  V30 4169 H 383.414 -1.1942 -1.39324 0
M  V30 4170 H 381.796 -0.504027 -3.92779 0
M  V30 4171 H 382.97 -3.27858 -3.23799 0
M  V30 4172 H 381.285 -2.84937 -3.03644 0
M  V30 4173 H 383.882 -1.13359 -5.22546 0
M  V30 4174 H 384.225 0.205461 -4.15793 0
M  V30 4175 H 384.758 -1.43341 -3.71077 0
M  V30 4176 H 381.497 -4.06864 -5.13947 0
M  V30 4177 H 381.017 -2.3943 -5.49939 0
M  V30 4178 H 382.696 -2.92224 -5.77247 0
M  V30 4179 N 382.828 1.3818 -0.7579 0
M  V30 4180 C 383.758 2.33027 -0.148597 0
M  V30 4181 C 384.739 1.55085 0.69875 0
M  V30 4182 O 385.924 1.83384 0.639053 0
M  V30 4183 C 383.054 3.3928 0.742034 0
M  V30 4184 C 382.008 4.28 -0.00291946 0
M  V30 4185 C 381.334 5.25146 1.00625 0
M  V30 4186 C 382.634 5.08938 -1.17385 0
M  V30 4187 H 384.328 2.84231 -0.940909 0
M  V30 4188 H 381.874 1.36659 -0.453908 0
M  V30 4189 H 383.827 4.046 1.17799 0
M  V30 4190 H 382.551 2.86569 1.56671 0
M  V30 4191 H 381.21 3.64192 -0.419504 0
M  V30 4192 H 380.858 4.68721 1.8251 0
M  V30 4193 H 380.558 5.85361 0.512428 0
M  V30 4194 H 382.082 5.93342 1.44143 0
M  V30 4195 H 383.496 5.67474 -0.815224 0
M  V30 4196 H 381.893 5.7841 -1.59882 0
M  V30 4197 H 382.963 4.42424 -1.98468 0
M  V30 4198 N 384.306 0.507319 1.49211 0
M  V30 4199 C 385.531 -0.033725 2.07373 0
M  V30 4200 C 385.956 -1.29485 1.36437 0
M  V30 4201 O 385.314 -1.76294 0.423087 0
M  V30 4202 C 385.362 -0.263945 3.59633 0
M  V30 4203 O 384.466 -1.33737 3.90113 0
M  V30 4204 H 383.807 0.0290331 0.663365 0
M  V30 4205 H 386.337 0.708749 1.91932 0
M  V30 4206 H 386.347 -0.493536 4.05004 0
M  V30 4207 H 385.022 0.657424 4.10671 0
M  V30 4208 H 383.599 -1.09224 3.56545 0
M  V30 4209 N 385.784 -1.5574 0.241426 0
M  V30 4210 C 387.2 -1.59196 -0.113548 0
M  V30 4211 C 387.4 -1.25852 -1.57364 0
M  V30 4212 O 386.456 -1.00322 -2.31715 0
M  V30 4213 C 387.769 -2.99814 0.230695 0
M  V30 4214 C 389.317 -3.12513 0.174547 0
M  V30 4215 C 389.792 -4.55342 0.492744 0
M  V30 4216 N 391.283 -4.61076 0.443043 0
M  V30 4217 C 392.018 -5.6956 0.662484 0
M  V30 4218 N 391.514 -6.86328 0.944761 0
M  V30 4219 N 393.307 -5.58957 0.593564 0
M  V30 4220 H 385.458 -1.75685 1.19368 0
M  V30 4221 H 387.721 -0.81756 0.479896 0
M  V30 4222 H 387.427 -3.28932 1.24485 0
M  V30 4223 H 387.301 -3.74568 -0.444833 0
M  V30 4224 H 389.688 -2.83179 -0.830277 0
M  V30 4225 H 389.769 -2.40045 0.883845 0
M  V30 4226 H 389.413 -4.85396 1.4951 0
M  V30 4227 H 389.343 -5.26062 -0.23797 0
M  V30 4228 H 391.834 -3.77179 0.233374 0
M  V30 4229 H 392.147 -7.64935 1.09977 0
M  V30 4230 H 390.492 -6.88025 0.982175 0
M  V30 4231 H 393.683 -4.66611 0.373123 0
M  V30 4232 H 393.856 -6.43433 0.767981 0
M  V30 4233 N 387.262 0.0317525 -1.57568 0
M  V30 4234 C 388.192 1.03274 -2.0942 0
M  V30 4235 C 389.173 1.3788 -0.996143 0
M  V30 4236 O 390.358 1.46811 -1.27122 0
M  V30 4237 C 387.488 2.33448 -2.57137 0
M  V30 4238 C 386.442 2.13091 -3.71182 0
M  V30 4239 C 385.768 3.49001 -4.05095 0
M  V30 4240 C 387.068 1.51928 -4.99715 0
M  V30 4241 H 388.762 0.60112 -2.93303 0
M  V30 4242 H 386.308 0.287705 -1.41097 0
M  V30 4243 H 388.261 3.03802 -2.92032 0
M  V30 4244 H 386.985 2.78665 -1.70333 0
M  V30 4245 H 385.644 1.45171 -3.36632 0
M  V30 4246 H 385.292 3.91862 -3.15362 0
M  V30 4247 H 384.992 3.36207 -4.81911 0
M  V30 4248 H 386.516 4.20721 -4.42522 0
M  V30 4249 H 387.93 2.12196 -5.32584 0
M  V30 4250 H 386.327 1.49716 -5.81124 0
M  V30 4251 H 387.397 0.484811 -4.8247 0
M  V30 4252 N 388.74 1.54641 0.303973 0
M  V30 4253 C 390.151 1.64811 0.877163 0
M  V30 4254 C 390.502 0.554838 1.88191 0
M  V30 4255 O 389.627 -0.309033 2.14182 0
M  V30 4256 C 390.222 2.9876 1.59775 0
M  V30 4257 C 388.781 3.11061 2.11938 0
M  V30 4258 C 387.928 2.60479 0.951097 0
M  V30 4259 H 390.879 1.58493 0.0810486 0
M  V30 4260 H 390.9 2.90017 2.46314 0
M  V30 4261 H 390.412 3.7831 0.866226 0
M  V30 4262 H 388.513 2.36225 2.88146 0
M  V30 4263 H 388.626 4.17171 2.35595 0
M  V30 4264 H 386.99 2.16859 1.33583 0
M  V30 4265 H 387.773 3.42504 0.233581 0
M  V30 4266 N 390.218 -0.567019 1.47046 0
M  V30 4267 C 391.128 -1.70247 1.6141 0
M  V30 4268 C 392.144 -1.66746 0.497157 0
M  V30 4269 O 393.32 -1.86371 0.763389 0
M  V30 4270 C 390.385 -3.06756 1.61561 0
M  V30 4271 C 389.446 -3.21399 2.84607 0
M  V30 4272 C 388.679 -4.51396 2.84741 0
M  V30 4273 O 388.902 -5.36255 1.94388 0
M  V30 4274 O 387.836 -4.69621 3.76483 0
M  V30 4275 H 391.662 -1.61073 2.57467 0
M  V30 4276 H 389.247 -0.735894 1.30019 0
M  V30 4277 H 391.129 -3.8801 1.64396 0
M  V30 4278 H 389.804 -3.16333 0.686684 0
M  V30 4279 H 388.711 -2.39579 2.8732 0
M  V30 4280 H 390.044 -3.16721 3.76761 0
M  V30 4281 N 391.696 -1.35014 -0.812953 0
M  V30 4282 C 392.924 -1.31031 -1.6012 0
M  V30 4283 C 393.339 0.113558 -1.88458 0
M  V30 4284 O 392.696 1.06363 -1.48301 0
M  V30 4285 C 392.747 -2.10872 -2.93624 0
M  V30 4286 O 392.468 -3.47706 -2.66518 0
M  V30 4287 C 393.969 -2.14401 -3.88004 0
M  V30 4288 H 391.189 -0.45037 -0.497401 0
M  V30 4289 H 393.733 -1.77775 -1.01076 0
M  V30 4290 H 391.888 -1.67744 -3.492 0
M  V30 4291 H 392.302 -3.89097 -3.51715 0
M  V30 4292 H 393.776 -2.74669 -4.78812 0
M  V30 4293 H 394.253 -1.14105 -4.24119 0
M  V30 4294 H 394.859 -2.57662 -3.38364 0
M  V30 4295 N 393.175 1.03435 -1.18907 0
M  V30 4296 C 394.105 2.13503 -0.945448 0
M  V30 4297 C 395.086 1.69682 0.119189 0
M  V30 4298 O 396.271 1.94169 -0.034707 0
M  V30 4299 C 393.401 3.44004 -0.477316 0
M  V30 4300 C 392.355 4.0148 -1.48316 0
M  V30 4301 C 391.681 5.27537 -0.872311 0
M  V30 4302 C 392.981 4.36921 -2.86177 0
M  V30 4303 H 394.675 2.34141 -1.86597 0
M  V30 4304 H 392.221 1.12523 -0.898584 0
M  V30 4305 H 394.174 4.20372 -0.294204 0
M  V30 4306 H 392.898 3.23072 0.478786 0
M  V30 4307 H 391.557 3.27201 -1.65332 0
M  V30 4308 H 391.205 5.02917 0.0911752 0
M  V30 4309 H 390.905 5.66954 -1.54393 0
M  V30 4310 H 392.429 6.06576 -0.699871 0
M  V30 4311 H 393.843 5.04248 -2.72776 0
M  V30 4312 H 392.24 4.87405 -3.50081 0
M  V30 4313 H 393.31 3.46466 -3.39248 0
M  V30 4314 N 394.653 0.992116 1.22453 0
M  V30 4315 C 396.064 0.702776 1.72968 0
M  V30 4316 C 396.415 -0.780399 1.80012 0
M  V30 4317 O 395.54 -1.61007 1.44589 0
M  V30 4318 C 396.135 1.26903 3.14135 0
M  V30 4319 C 394.694 1.02909 3.62059 0
M  V30 4320 C 393.841 1.38969 2.39964 0
M  V30 4321 H 396.792 1.16457 1.07812 0
M  V30 4322 H 396.813 0.647223 3.74955 0
M  V30 4323 H 396.325 2.34851 3.08977 0
M  V30 4324 H 394.426 -0.0337979 3.72585 0
M  V30 4325 H 394.539 1.69191 4.48231 0
M  V30 4326 H 392.903 0.808279 2.41535 0
M  V30 4327 H 393.686 2.4792 2.37467 0
M  V30 4328 N 396.131 -1.37776 0.765217 0
M  V30 4329 C 397.356 -2.04651 0.336537 0
M  V30 4330 C 397.781 -1.57337 -1.03086 0
M  V30 4331 O 397.139 -0.730621 -1.65927 0
M  V30 4332 C 397.187 -3.58577 0.381468 0
M  V30 4333 O 396.291 -4.07706 -0.62042 0
M  V30 4334 H 395.632 -0.64756 0.146838 0
M  V30 4335 H 398.162 -1.76221 1.03959 0
M  V30 4336 H 398.172 -4.07314 0.236448 0
M  V30 4337 H 396.847 -3.9237 1.37907 0
M  V30 4338 H 395.424 -3.70306 -0.439056 0
M  V30 4339 N 397.609 -0.515225 -1.4894 0
M  V30 4340 C 398.539 0.244628 -2.32215 0
M  V30 4341 C 399.52 0.949136 -1.41157 0
M  V30 4342 O 400.705 0.937783 -1.70057 0
M  V30 4343 C 397.835 1.30096 -3.22013 0
M  V30 4344 C 396.789 0.715486 -4.21977 0
M  V30 4345 C 396.115 1.87339 -5.00808 0
M  V30 4346 C 397.415 -0.302982 -5.2142 0
M  V30 4347 H 399.109 -0.450501 -2.95991 0
M  V30 4348 H 396.655 -0.218098 -1.42339 0
M  V30 4349 H 398.608 1.84037 -3.79089 0
M  V30 4350 H 397.332 2.02547 -2.56207 0
M  V30 4351 H 395.991 0.197715 -3.66066 0
M  V30 4352 H 395.639 2.58592 -4.31438 0
M  V30 4353 H 395.339 1.48764 -5.68457 0
M  V30 4354 H 396.863 2.41686 -5.60732 0
M  V30 4355 H 398.277 0.148802 -5.73107 0
M  V30 4356 H 396.674 -0.60532 -5.97039 0
M  V30 4357 H 397.744 -1.21395 -4.69459 0
M  V30 4358 N 399.087 1.5561 -0.249682 0
M  V30 4359 C 399.997 2.25143 0.659375 0
M  V30 4360 C 401.013 1.2685 1.19101 0
M  V30 4361 O 402.189 1.59732 1.22669 0
M  V30 4362 C 399.254 2.93945 1.8384 0
M  V30 4363 C 398.315 4.07655 1.34596 0
M  V30 4364 C 397.548 4.73167 2.46878 0
M  V30 4365 O 397.771 4.37768 3.65671 0
M  V30 4366 O 396.705 5.61623 2.16478 0
M  V30 4367 H 400.531 3.03545 0.0968698 0
M  V30 4368 H 398.116 1.49389 -0.018074 0
M  V30 4369 H 399.998 3.37271 2.52638 0
M  V30 4370 H 398.673 2.18481 2.38847 0
M  V30 4371 H 397.58 3.68839 0.625174 0
M  V30 4372 H 398.913 4.84946 0.841941 0
M  V30 4373 N 400.565 -0.0233959 1.57583 0
M  V30 4374 C 401.475 -1.03907 2.10334 0
M  V30 4375 C 402.491 -1.39257 1.04323 0
M  V30 4376 O 403.667 -1.48462 1.36091 0
M  V30 4377 C 400.732 -2.31938 2.57693 0
M  V30 4378 C 399.793 -2.03117 3.78209 0
M  V30 4379 C 399.026 -3.25043 4.233 0
M  V30 4380 O 399.249 -4.35916 3.67876 0
M  V30 4381 O 398.183 -3.10411 5.15683 0
M  V30 4382 H 402.009 -0.620748 2.97288 0
M  V30 4383 H 399.594 -0.240743 1.47448 0
M  V30 4384 H 401.476 -3.07196 2.88458 0
M  V30 4385 H 400.151 -2.73055 1.73847 0
M  V30 4386 H 399.058 -1.25408 3.52454 0
M  V30 4387 H 400.391 -1.66852 4.63056 0
M  V30 4388 N 402.043 -1.548 -0.295768 0
M  V30 4389 C 403.32 -1.65014 -1.05023 0
M  V30 4390 C 403.7 -0.501805 -2.05049 0
M  V30 4391 O 403.048 0.500869 -2.22943 0
M  V30 4392 C 403.258 -3.03252 -1.72741 0
M  V30 4393 C 404.606 -3.60242 -2.24746 0
M  V30 4394 O 405.63 -3.05737 -1.82765 0
M  V30 4395 O 404.489 -4.55687 -3.01681 0
M  V30 4396 H 401.583 -0.669314 -0.485744 0
M  V30 4397 H 404.129 -1.67144 -0.293438 0
M  V30 4398 H 402.901 -3.7827 -1.00138 0
M  V30 4399 H 402.524 -3.04922 -2.55163 0
M  V30 4400 N 403.521 0.559213 -1.47345 0
M  V30 4401 C 404.749 1.34194 -1.57479 0
M  V30 4402 C 405.164 1.87463 -0.224261 0
M  V30 4403 O 404.521 1.64888 0.782185 0
M  V30 4404 C 404.572 2.51324 -2.59843 0
M  V30 4405 O 404.293 2.00256 -3.89653 0
M  V30 4406 C 405.794 3.43563 -2.80142 0
M  V30 4407 H 403.014 0.409136 -0.531835 0
M  V30 4408 H 405.558 0.677609 -1.92947 0
M  V30 4409 H 403.713 3.13699 -2.27314 0
M  V30 4410 H 404.127 2.76708 -4.4557 0
M  V30 4411 H 405.601 4.2217 -3.55635 0
M  V30 4412 H 406.078 3.9698 -1.87892 0
M  V30 4413 H 406.684 2.87005 -3.1386 0
M  V30 4414 N 404.999 1.35443 0.805782 0
M  V30 4415 C 405.929 1.31095 1.93226 0
M  V30 4416 C 406.91 0.185244 1.69088 0
M  V30 4417 O 408.095 0.380332 1.90439 0
M  V30 4418 C 405.225 1.08299 3.29983 0
M  V30 4419 C 404.179 2.17519 3.68605 0
M  V30 4420 C 403.505 1.79887 5.03532 0
M  V30 4421 C 404.805 3.5949 3.78898 0
M  V30 4422 H 406.499 2.25352 1.97122 0
M  V30 4423 H 404.045 1.0848 0.946996 0
M  V30 4424 H 405.998 1.03897 4.08391 0
M  V30 4425 H 404.722 0.104885 3.26432 0
M  V30 4426 H 403.381 2.2102 2.92482 0
M  V30 4427 H 403.029 0.80693 4.96485 0
M  V30 4428 H 402.729 2.53001 5.30344 0
M  V30 4429 H 404.253 1.77011 5.84379 0
M  V30 4430 H 405.667 3.58307 4.47536 0
M  V30 4431 H 404.064 4.31371 4.1718 0
M  V30 4432 H 405.134 3.95584 2.80431 0
M  V30 4433 N 406.477 -1.02803 1.19454 0
M  V30 4434 C 407.725 -1.75869 0.995722 0
M  V30 4435 C 408.046 -1.89138 -0.474543 0
M  V30 4436 O 407.316 -1.42558 -1.34366 0
M  V30 4437 H 405.896 -0.651511 0.365435 0
M  V30 4438 H 408.558 -1.24004 1.50363 0
M  V30 4439 H 407.654 -2.76661 1.44447 0
M  V30 4440 N 407.956 -0.998596 -1.21925 0
M  V30 4441 C 408.904 -0.546641 -2.26085 0
M  V30 4442 C 409.898 0.405576 -1.64473 0
M  V30 4443 O 411.104 0.277471 -1.77849 0
M  V30 4444 H 407.479 -0.158403 -0.735127 0
M  V30 4445 H 409.45 -1.43645 -2.61551 0
M  V30 4446 C 408.199 0.117388 -3.47502 0
M  V30 4447 H 407.522 -0.606277 -3.95176 0
M  V30 4448 H 408.962 0.396993 -4.22137 0
M  V30 4449 C 407.421 1.35455 -3.0847 0
M  V30 4450 O 407.951 2.44944 -3.18379 0
M  V30 4451 N 406.157 1.23191 -2.63196 0
M  V30 4452 H 405.704 0.341006 -2.55333 0
M  V30 4453 H 405.662 2.06071 -2.37449 0
M  V30 4454 N 409.434 1.37368 -0.772513 0
M  V30 4455 C 410.681 1.99673 -0.337182 0
M  V30 4456 C 411.009 1.61324 1.0865 0
M  V30 4457 O 410.264 0.851377 1.7621 0
M  V30 4458 C 410.563 3.54817 -0.428876 0
M  V30 4459 C 410.229 4.12936 -1.81092 0
M  V30 4460 C 408.891 4.28523 -2.1891 0
M  V30 4461 C 411.243 4.44801 -2.71664 0
M  V30 4462 C 408.571 4.73277 -3.46735 0
M  V30 4463 C 410.923 4.90981 -3.98899 0
M  V30 4464 C 409.587 5.04773 -4.36761 0
M  V30 4465 H 408.857 0.730656 -0.123384 0
M  V30 4466 H 411.504 1.64124 -0.986686 0
M  V30 4467 H 409.809 3.90618 0.304167 0
M  V30 4468 H 411.506 4.00933 -0.0733334 0
M  V30 4469 H 408.096 4.01233 -1.50699 0
M  V30 4470 H 412.28 4.32344 -2.43706 0
M  V30 4471 H 407.536 4.82142 -3.75964 0
M  V30 4472 H 411.71 5.14603 -4.69208 0
M  V30 4473 H 409.337 5.39211 -5.35868 0
M  V30 4474 N 410.912 0.523116 1.48665 0
M  V30 4475 C 412.161 -0.01544 2.01694 0
M  V30 4476 C 412.474 -1.35975 1.40606 0
M  V30 4477 O 413.68 -1.98627 1.85093 0
M  V30 4478 C 412.136 -0.0779303 3.59816 0
M  V30 4479 C 411.744 1.26107 4.29885 0
M  V30 4480 C 413.488 -0.565678 4.20714 0
M  V30 4481 C 411.395 1.15954 5.79921 0
M  V30 4482 H 410.325 -0.00954163 0.75394 0
M  V30 4483 H 412.976 0.665865 1.70993 0
M  V30 4484 H 411.358 -0.824165 3.87329 0
M  V30 4485 H 412.532 2.02233 4.14051 0
M  V30 4486 H 410.847 1.68401 3.80828 0
M  V30 4487 H 413.444 -0.6595 5.30617 0
M  V30 4488 H 413.787 -1.56984 3.85567 0
M  V30 4489 H 414.32 0.12467 3.97605 0
M  V30 4490 H 411.059 2.13864 6.19631 0
M  V30 4491 H 410.579 0.439529 5.98187 0
M  V30 4492 H 412.258 0.847361 6.41427 0
M  V30 4493 N 412.39 -1.55475 0.257931 0
M  V30 4494 C 413.637 -1.99207 -0.363728 0
M  V30 4495 C 413.965 -1.1462 -1.57139 0
M  V30 4496 O 413.22 -0.199653 -1.94679 0
M  V30 4497 C 413.519 -3.48183 -0.806433 0
M  V30 4498 C 413.185 -4.49936 0.294684 0
M  V30 4499 C 411.847 -4.77481 0.597076 0
M  V30 4500 C 414.199 -5.10769 1.03751 0
M  V30 4501 C 411.527 -5.63132 1.64618 0
M  V30 4502 C 413.879 -5.97558 2.07622 0
M  V30 4503 C 412.543 -6.23432 2.38514 0
M  V30 4504 H 411.813 -0.728949 -0.133097 0
M  V30 4505 H 414.46 -1.8793 0.368059 0
M  V30 4506 H 412.765 -3.56848 -1.61761 0
M  V30 4507 H 414.462 -3.79415 -1.29789 0
M  V30 4508 H 411.052 -4.28572 0.0488649 0
M  V30 4509 H 415.236 -4.89527 0.817149 0
M  V30 4510 H 410.492 -5.8143 1.89074 0
M  V30 4511 H 414.666 -6.43735 2.65666 0
M  V30 4512 H 412.293 -6.89594 3.19943 0
M  V30 4513 N 413.868 0.0150385 -1.57593 0
M  V30 4514 C 414.831 0.995996 -2.06428 0
M  V30 4515 C 415.831 1.2818 -0.970903 0
M  V30 4516 O 417.021 1.22949 -1.23406 0
M  V30 4517 C 414.153 2.32506 -2.49307 0
M  V30 4518 H 415.346 0.573873 -2.94358 0
M  V30 4519 H 412.899 0.262186 -1.54085 0
M  V30 4520 H 413.634 2.79438 -1.64575 0
M  V30 4521 H 413.419 2.13087 -3.29145 0
M  V30 4522 H 414.909 3.02906 -2.87468 0
M  V30 4523 N 415.346 1.54954 0.287554 0
M  V30 4524 C 416.586 1.76617 1.02887 0
M  V30 4525 C 416.95 0.547759 1.84021 0
M  V30 4526 O 418.151 0.642365 2.61012 0
M  V30 4527 C 416.422 3.02717 1.89993 0
M  V30 4528 S 417.981 3.45438 2.70588 0
M  V30 4529 H 414.799 0.6207 0.346775 0
M  V30 4530 H 417.401 1.93172 0.30082 0
M  V30 4531 H 416.105 3.89503 1.29287 0
M  V30 4532 H 415.636 2.88787 2.67144 0
M  V30 4533 H 417.651 3.03566 3.92508 0
M  V30 4534 N 416.824 -0.551391 1.4764 0
M  V30 4535 C 418.24 -0.877887 1.33287 0
M  V30 4536 C 418.44 -1.98817 0.327721 0
M  V30 4537 O 417.496 -2.51171 -0.258695 0
M  V30 4538 C 418.809 -1.26563 2.72768 0
M  V30 4539 C 420.357 -1.37673 2.81097 0
M  V30 4540 C 420.832 -1.79799 4.21232 0
M  V30 4541 N 422.323 -1.8694 4.23802 0
M  V30 4542 C 423.058 -2.20876 5.29151 0
M  V30 4543 N 422.554 -2.53386 6.448 0
M  V30 4544 N 424.347 -2.217 5.16532 0
M  V30 4545 H 416.498 0.18153 2.11623 0
M  V30 4546 H 418.761 0.0185514 0.947818 0
M  V30 4547 H 418.467 -0.523591 3.47781 0
M  V30 4548 H 418.341 -2.22052 3.04915 0
M  V30 4549 H 420.728 -2.10956 2.06353 0
M  V30 4550 H 420.809 -0.40357 2.52596 0
M  V30 4551 H 420.453 -1.07083 4.96483 0
M  V30 4552 H 420.383 -2.78128 4.4716 0
M  V30 4553 H 422.874 -1.64179 3.40373 0
M  V30 4554 H 423.187 -2.78325 7.20941 0
M  V30 4555 H 421.532 -2.50953 6.48111 0
M  V30 4556 H 424.723 -1.95745 4.25207 0
M  V30 4557 H 424.896 -2.47818 5.98741 0
M  V30 4558 N 418.302 -1.35869 -0.798587 0
M  V30 4559 C 419.549 -1.29588 -1.55606 0
M  V30 4560 C 419.877 0.127456 -1.94082 0
M  V30 4561 O 419.132 1.09461 -1.62225 0
M  V30 4562 C 419.431 -2.1556 -2.85077 0
M  V30 4563 C 419.097 -3.6424 -2.65781 0
M  V30 4564 C 417.759 -4.04766 -2.60227 0
M  V30 4565 C 420.111 -4.58547 -2.47758 0
M  V30 4566 C 417.439 -5.37753 -2.34603 0
M  V30 4567 C 419.791 -5.91742 -2.23662 0
M  V30 4568 C 418.455 -6.31402 -2.16534 0
M  V30 4569 H 417.725 -0.474197 -0.569402 0
M  V30 4570 H 420.372 -1.67839 -0.922086 0
M  V30 4571 H 418.677 -1.70216 -3.52893 0
M  V30 4572 H 420.374 -2.08031 -3.42818 0
M  V30 4573 H 416.964 -3.32086 -2.70956 0
M  V30 4574 H 421.148 -4.28117 -2.51056 0
M  V30 4575 H 416.404 -5.67474 -2.2756 0
M  V30 4576 H 420.578 -6.6439 -2.08708 0
M  V30 4577 H 418.205 -7.34381 -1.96441 0
M  V30 4578 N 419.78 1.02168 -1.19998 0
M  V30 4579 C 420.728 2.12717 -0.940967 0
M  V30 4580 C 421.722 1.69069 0.105841 0
M  V30 4581 O 422.928 1.79946 -0.0440583 0
M  V30 4582 H 419.303 0.695108 -0.28693 0
M  V30 4583 H 421.274 2.3175 -1.87975 0
M  V30 4584 C 420.023 3.44027 -0.504049 0
M  V30 4585 H 419.346 3.78036 -1.30112 0
M  V30 4586 H 420.786 4.22452 -0.361991 0
M  V30 4587 C 419.245 3.27678 0.782878 0
M  V30 4588 O 419.775 3.56949 1.84256 0
M  V30 4589 N 417.981 2.80943 0.742921 0
M  V30 4590 H 417.528 2.57322 -0.119687 0
M  V30 4591 H 417.486 2.70385 1.60435 0
M  V30 4592 N 421.258 1.00505 1.21394 0
M  V30 4593 C 422.19 0.52372 2.23136 0
M  V30 4594 C 423.203 -0.387714 1.58116 0
M  V30 4595 O 424.392 -0.187905 1.77508 0
M  V30 4596 C 421.492 -0.258885 3.3791 0
M  V30 4597 C 420.665 0.651634 4.32519 0
M  V30 4598 C 419.724 -0.0813705 5.26137 0
M  V30 4599 O 418.75 0.537295 5.66658 0
M  V30 4600 N 419.952 -1.35992 5.64346 0
M  V30 4601 H 422.717 1.39865 2.65062 0
M  V30 4602 H 420.278 0.881196 1.35818 0
M  V30 4603 H 422.27 -0.758208 3.97534 0
M  V30 4604 H 420.84 -1.035 2.94968 0
M  V30 4605 H 420.06 1.33145 3.71034 0
M  V30 4606 H 421.348 1.27129 4.92662 0
M  V30 4607 H 420.746 -1.88368 5.33417 0
M  V30 4608 H 419.303 -1.8042 6.26332 0
M  V30 4609 N 422.737 -1.36956 0.779787 0
M  V30 4610 C 423.983 -1.99787 0.348281 0
M  V30 4611 C 424.316 -1.61756 -1.07465 0
M  V30 4612 O 423.591 -0.867639 -1.74075 0
M  V30 4613 C 423.874 -3.56597 0.50104 0
M  V30 4614 C 423.727 -4.04513 1.96697 0
M  V30 4615 C 425.046 -4.40008 -0.0898097 0
M  V30 4616 H 422.165 -0.725796 0.128022 0
M  V30 4617 H 424.807 -1.62514 0.984331 0
M  V30 4618 H 422.957 -3.88479 -0.0404347 0
M  V30 4619 H 424.629 -3.83161 2.56876 0
M  V30 4620 H 422.872 -3.56408 2.47297 0
M  V30 4621 H 423.543 -5.1352 2.02486 0
M  V30 4622 H 426.019 -4.14431 0.372293 0
M  V30 4623 H 424.895 -5.4888 0.0471605 0
M  V30 4624 H 425.156 -4.26035 -1.18096 0
M  V30 4625 N 424.215 -0.530993 -1.48385 0
M  V30 4626 C 425.44 0.000729535 -2.074 0
M  V30 4627 C 425.865 1.27298 -1.3848 0
M  V30 4628 O 425.223 1.75599 -0.451081 0
M  V30 4629 C 425.271 0.206697 -3.60007 0
M  V30 4630 O 424.375 1.27514 -3.92191 0
M  V30 4631 H 423.716 -0.039583 -0.662819 0
M  V30 4632 H 426.246 -0.739194 -1.9078 0
M  V30 4633 H 426.256 0.42904 -4.05738 0
M  V30 4634 H 424.931 -0.722675 -4.09573 0
M  V30 4635 H 423.508 1.03537 -3.58238 0
M  V30 4636 N 425.693 1.55336 -0.266172 0
M  V30 4637 C 426.933 2.01303 0.354459 0
M  V30 4638 C 427.297 1.15046 1.53715 0
M  V30 4639 O 428.498 1.50554 2.22681 0
M  V30 4640 C 426.769 3.49748 0.735579 0
M  V30 4641 S 428.328 4.1771 1.34401 0
M  V30 4642 H 425.146 0.702333 0.110674 0
M  V30 4643 H 427.748 1.91653 -0.385916 0
M  V30 4644 H 426.452 4.10181 -0.134196 0
M  V30 4645 H 425.983 3.63364 1.50764 0
M  V30 4646 H 427.998 4.20594 2.63278 0
M  V30 4647 N 427.171 -0.0066808 1.57599 0
M  V30 4648 C 428.119 -1.01851 2.09115 0
M  V30 4649 C 429.113 -1.36021 1.00969 0
M  V30 4650 O 430.319 -1.34663 1.19439 0
M  V30 4651 H 426.694 -0.346083 0.667631 0
M  V30 4652 H 428.665 -0.558394 2.93129 0
M  V30 4653 C 427.414 -2.30374 2.60429 0
M  V30 4654 H 426.737 -2.04947 3.43273 0
M  V30 4655 H 428.177 -2.99466 3.00161 0
M  V30 4656 C 426.636 -3.00893 1.51542 0
M  V30 4657 O 427.166 -3.91614 0.894484 0
M  V30 4658 N 425.372 -2.62603 1.2445 0
M  V30 4659 H 424.919 -1.88911 1.75129 0
M  V30 4660 H 424.877 -3.10101 0.518137 0
M  V30 4661 N 428.649 -1.55105 -0.279332 0
M  V30 4662 C 429.581 -1.83952 -1.36727 0
M  V30 4663 C 430.594 -0.723642 -1.45833 0
M  V30 4664 O 431.783 -1.00141 -1.47763 0
M  V30 4665 C 428.883 -1.98183 -2.74912 0
M  V30 4666 C 428.056 -3.28787 -2.88475 0
M  V30 4667 C 427.115 -3.33162 -4.07295 0
M  V30 4668 O 426.141 -4.06576 -3.98353 0
M  V30 4669 N 427.343 -2.60109 -5.18964 0
M  V30 4670 H 430.108 -2.77853 -1.12328 0
M  V30 4671 H 427.669 -1.54945 -0.469442 0
M  V30 4672 H 429.661 -1.98488 -3.52682 0
M  V30 4673 H 428.231 -1.11177 -2.92162 0
M  V30 4674 H 427.451 -3.41075 -1.97641 0
M  V30 4675 H 428.739 -4.14933 -2.94463 0
M  V30 4676 H 428.137 -2.00136 -5.29115 0
M  V30 4677 H 426.694 -2.66143 -5.94988 0
M  V30 4678 N 430.127 0.543554 -1.4793 0
M  V30 4679 C 431.09 1.63156 -1.60975 0
M  V30 4680 C 432.09 1.53346 -0.483899 0
M  V30 4681 O 433.28 1.5726 -0.749339 0
M  V30 4682 C 430.412 3.02743 -1.56716 0
M  V30 4683 H 431.605 1.52934 -2.57975 0
M  V30 4684 H 429.158 0.764557 -1.36324 0
M  V30 4685 H 429.893 3.18484 -0.611418 0
M  V30 4686 H 429.678 3.11272 -2.38438 0
M  V30 4687 H 431.168 3.81871 -1.6901 0
M  V30 4688 N 431.605 1.3629 0.791371 0
M  V30 4689 C 432.553 1.30514 1.92533 0
M  V30 4690 C 433.547 0.197285 1.68247 0
M  V30 4691 O 434.753 0.364176 1.76278 0
M  V30 4692 H 431.128 0.406263 0.632815 0
M  V30 4693 H 433.099 2.26282 1.94523 0
M  V30 4694 C 431.848 1.10933 3.29529 0
M  V30 4695 H 431.171 1.95427 3.48781 0
M  V30 4696 H 432.611 1.10937 4.0923 0
M  V30 4697 C 431.07 -0.186123 3.36385 0
M  V30 4698 O 431.6 -1.17664 3.84081 0
M  V30 4699 N 429.806 -0.230128 2.89687 0
M  V30 4700 H 429.353 0.576545 2.51065 0
M  V30 4701 H 429.311 -1.09658 2.94657 0
M  V30 4702 N 433.083 -1.0153 1.20538 0
M  V30 4703 C 434.313 -1.78487 1.04048 0
M  V30 4704 C 434.721 -1.84631 -0.413292 0
M  V30 4705 O 434.064 -1.29919 -1.29872 0
M  V30 4706 C 434.126 -3.24367 1.55003 0
M  V30 4707 C 433.79 -3.41827 3.0332 0
M  V30 4708 C 434.787 -3.30941 4.00966 0
M  V30 4709 C 432.472 -3.67602 3.42307 0
M  V30 4710 C 434.466 -3.45577 5.35589 0
M  V30 4711 C 432.153 -3.81881 4.77085 0
M  V30 4712 C 433.151 -3.70874 5.73534 0
M  V30 4713 O 432.839 -3.84714 7.05868 0
M  V30 4714 H 432.571 -0.568108 0.366373 0
M  V30 4715 H 435.125 -1.28677 1.60098 0
M  V30 4716 H 433.355 -3.75266 0.933397 0
M  V30 4717 H 435.044 -3.82963 1.34514 0
M  V30 4718 H 435.81 -3.10964 3.72191 0
M  V30 4719 H 431.689 -3.75256 2.67776 0
M  V30 4720 H 435.233 -3.36902 6.10854 0
M  V30 4721 H 431.13 -4.01359 5.0555 0
M  V30 4722 H 431.898 -4.01724 7.13134 0
M  V30 4723 N 434.561 -1.01147 -1.20859 0
M  V30 4724 C 435.786 -0.716698 -1.94623 0
M  V30 4725 C 436.211 0.715415 -1.73964 0
M  V30 4726 O 435.569 1.49157 -1.03062 0
M  V30 4727 C 435.617 -1.0513 -3.44935 0
M  V30 4728 O 434.721 -0.160131 -4.12089 0
M  V30 4729 H 434.062 -0.266404 -0.608214 0
M  V30 4730 H 436.592 -1.35346 -1.53436 0
M  V30 4731 H 436.602 -1.00086 -3.95533 0
M  V30 4732 H 435.277 -2.09475 -3.59295 0
M  V30 4733 H 433.854 -0.267657 -3.71938 0
M  V30 4734 N 436.039 1.36541 -0.78704 0
M  V30 4735 C 436.989 2.27459 -0.156957 0
M  V30 4736 C 437.973 1.46843 0.657709 0
M  V30 4737 O 439.165 1.69245 0.518173 0
M  V30 4738 C 436.294 3.35893 0.709278 0
M  V30 4739 C 435.38 4.23947 -0.114049 0
M  V30 4740 N 435.771 4.92145 -1.16736 0
M  V30 4741 C 434.069 4.4587 0.107497 0
M  V30 4742 C 434.77 5.57261 -1.66837 0
M  V30 4743 N 433.746 5.3473 -0.977992 0
M  V30 4744 H 437.548 2.77669 -0.963185 0
M  V30 4745 H 435.062 1.49839 -0.62627 0
M  V30 4746 H 437.059 3.99953 1.17656 0
M  V30 4747 H 435.719 2.87238 1.51408 0
M  V30 4748 H 436.73 4.94169 -1.54976 0
M  V30 4749 H 433.407 4.08056 0.882994 0
M  V30 4750 H 434.797 6.21728 -2.54762 0
M  V30 4751 N 437.518 0.538854 1.48102 0
M  V30 4752 C 438.765 0.0080018 2.02498 0
M  V30 4753 C 439.093 -1.33437 1.41509 0
M  V30 4754 O 438.348 -1.87709 0.553507 0
M  V30 4755 C 438.647 -0.153808 3.57069 0
M  V30 4756 C 438.313 1.11533 4.36888 0
M  V30 4757 C 436.975 1.46314 4.58417 0
M  V30 4758 C 439.327 1.95718 4.83057 0
M  V30 4759 C 436.655 2.6516 5.23361 0
M  V30 4760 C 439.007 3.13751 5.49312 0
M  V30 4761 C 437.671 3.48866 5.69077 0
M  V30 4762 H 436.941 0.00292807 0.740994 0
M  V30 4763 H 439.588 0.706668 1.77984 0
M  V30 4764 H 437.893 -0.935309 3.80472 0
M  V30 4765 H 439.59 -0.579607 3.96789 0
M  V30 4766 H 436.18 0.834484 4.20398 0
M  V30 4767 H 440.364 1.70158 4.66219 0
M  V30 4768 H 435.62 2.92558 5.36861 0
M  V30 4769 H 439.794 3.79282 5.84053 0
M  V30 4770 H 437.421 4.41054 6.19173 0
M  V30 4771 N 438.996 -1.55193 0.274407 0
M  V30 4772 C 439.946 -2.19184 -0.627882 0
M  V30 4773 C 440.93 -1.15625 -1.11892 0
M  V30 4774 O 442.122 -1.41441 -1.06411 0
M  V30 4775 C 439.251 -2.91591 -1.81189 0
M  V30 4776 C 438.337 -4.02438 -1.33807 0
M  V30 4777 N 438.728 -5.0246 -0.580349 0
M  V30 4778 C 437.026 -4.15496 -1.62109 0
M  V30 4779 C 437.727 -5.80756 -0.331344 0
M  V30 4780 N 436.703 -5.36038 -0.903556 0
M  V30 4781 H 440.505 -2.93871 -0.0411216 0
M  V30 4782 H 438.019 -1.62213 0.0779348 0
M  V30 4783 H 440.016 -3.35883 -2.46957 0
M  V30 4784 H 438.676 -2.18414 -2.40261 0
M  V30 4785 H 439.687 -5.17399 -0.227762 0
M  V30 4786 H 436.364 -3.53509 -2.22121 0
M  V30 4787 H 437.754 -6.71335 0.275454 0
M  V30 4788 N 440.474 -0.00167713 -1.576 0
M  V30 4789 C 441.424 0.997744 -2.0501 0
M  V30 4790 C 442.408 1.30214 -0.94515 0
M  V30 4791 O 443.6 1.29284 -1.20891 0
M  V30 4792 C 440.729 2.2892 -2.55833 0
M  V30 4793 C 439.815 2.01437 -3.73208 0
M  V30 4794 N 440.206 1.44119 -4.84833 0
M  V30 4795 C 438.504 2.31571 -3.8117 0
M  V30 4796 C 439.205 1.33145 -5.66257 0
M  V30 4797 N 438.181 1.81763 -5.12312 0
M  V30 4798 H 441.983 0.549098 -2.88725 0
M  V30 4799 H 439.497 0.20398 -1.61114 0
M  V30 4800 H 441.494 3.01361 -2.88075 0
M  V30 4801 H 440.154 2.74436 -1.73537 0
M  V30 4802 H 441.165 1.11978 -5.0565 0
M  V30 4803 H 437.842 2.7995 -3.09732 0
M  V30 4804 H 439.232 0.890567 -6.65972 0
M  V30 4805 N 441.952 1.55251 0.271103 0
M  V30 4806 C 443.363 1.66635 0.842007 0
M  V30 4807 C 443.714 0.594631 1.86972 0
M  V30 4808 O 442.839 -0.263532 2.14789 0
M  V30 4809 C 443.434 3.02082 1.53401 0
M  V30 4810 C 441.993 3.15487 2.05293 0
M  V30 4811 C 441.14 2.62438 0.895631 0
M  V30 4812 H 444.091 1.58629 0.0474117 0
M  V30 4813 H 444.112 2.95176 2.40107 0
M  V30 4814 H 443.624 3.80062 0.785786 0
M  V30 4815 H 441.725 2.42284 2.83071 0
M  V30 4816 H 441.838 4.22075 2.26693 0
M  V30 4817 H 440.202 2.19644 1.28953 0
M  V30 4818 H 440.985 3.42923 0.160878 0
M  V30 4819 N 443.43 -0.535701 1.48216 0
M  V30 4820 C 444.363 -1.65726 1.56876 0
M  V30 4821 C 445.341 -1.57094 0.419542 0
M  V30 4822 O 446.525 -1.77648 0.630352 0
M  V30 4823 C 443.652 -3.04096 1.49142 0
M  V30 4824 C 442.698 -3.31105 2.68834 0
M  V30 4825 S 443.531 -3.18001 4.30854 0
M  V30 4826 C 444.687 -4.58828 4.25709 0
M  V30 4827 H 444.92 -1.58129 2.51759 0
M  V30 4828 H 442.453 -0.718218 1.36678 0
M  V30 4829 H 444.411 -3.839 1.45366 0
M  V30 4830 H 443.072 -3.09139 0.556067 0
M  V30 4831 H 442.265 -4.32033 2.59545 0
M  V30 4832 H 441.867 -2.58961 2.69843 0
M  V30 4833 H 444.159 -5.5023 3.95289 0
M  V30 4834 H 445.102 -4.73172 5.26796 0
M  V30 4835 H 445.51 -4.37883 3.56257 0
M  V30 4836 N 444.908 -1.36708 -0.784132 0
M  V30 4837 C 446.138 -1.34203 -1.57077 0
M  V30 4838 C 446.546 0.0774945 -1.89041 0
M  V30 4839 O 445.889 1.04628 -1.50992 0
M  V30 4840 C 445.951 -2.10351 -2.91535 0
M  V30 4841 C 445.615 -3.59405 -2.82272 0
M  V30 4842 C 446.612 -4.53545 -2.54151 0
M  V30 4843 C 444.297 -4.02362 -3.00683 0
M  V30 4844 C 446.291 -5.8862 -2.44551 0
M  V30 4845 C 443.978 -5.37526 -2.90704 0
M  V30 4846 C 444.976 -6.30468 -2.62677 0
M  V30 4847 O 444.664 -7.63149 -2.52702 0
M  V30 4848 H 444.396 -0.461791 -0.493685 0
M  V30 4849 H 446.95 -1.80475 -0.980712 0
M  V30 4850 H 445.18 -1.5875 -3.52612 0
M  V30 4851 H 446.869 -2.00636 -3.52845 0
M  V30 4852 H 447.635 -4.21669 -2.39625 0
M  V30 4853 H 443.514 -3.30389 -3.21503 0
M  V30 4854 H 447.058 -6.61133 -2.22596 0
M  V30 4855 H 442.955 -5.69008 -3.04795 0
M  V30 4856 H 443.723 -7.73331 -2.68144 0
M  V30 4857 N 446.386 1.0089 -1.21074 0
M  V30 4858 C 447.634 1.74262 -1.02358 0
M  V30 4859 C 447.955 1.89869 0.444393 0
M  V30 4860 O 447.225 1.44677 1.32081 0
M  V30 4861 H 445.805 0.645615 -0.375754 0
M  V30 4862 H 448.467 1.21596 -1.52317 0
M  V30 4863 H 447.563 2.74328 -1.4883 0
M  V30 4864 N 447.864 1.01787 1.20321 0
M  V30 4865 C 448.812 0.58254 2.25187 0
M  V30 4866 C 449.806 -0.379359 1.65098 0
M  V30 4867 O 451.012 -0.249142 1.78267 0
M  V30 4868 H 447.387 0.170078 0.732514 0
M  V30 4869 H 449.358 1.47788 2.59232 0
M  V30 4870 C 448.107 -0.0620885 3.47645 0
M  V30 4871 H 447.43 0.669069 3.94162 0
M  V30 4872 H 448.87 -0.329784 4.22716 0
M  V30 4873 C 447.329 -1.3053 3.10586 0
M  V30 4874 O 447.859 -2.39848 3.22236 0
M  V30 4875 N 446.065 -1.18988 2.65123 0
M  V30 4876 H 445.612 -0.300341 2.55843 0
M  V30 4877 H 445.57 -2.02267 2.40698 0
M  V30 4878 N 449.342 -1.36122 0.79427 0
M  V30 4879 C 450.582 -2.00942 0.374376 0
M  V30 4880 C 450.946 -1.61666 -1.03577 0
M  V30 4881 O 452.147 -2.19113 -1.55701 0
M  V30 4882 C 450.418 -3.53323 0.538327 0
M  V30 4883 S 451.977 -4.38311 0.20703 0
M  V30 4884 H 448.795 -0.696515 0.142785 0
M  V30 4885 H 451.397 -1.65929 1.03382 0
M  V30 4886 H 450.101 -3.79395 1.56484 0
M  V30 4887 H 449.632 -3.93162 -0.136882 0
M  V30 4888 H 451.647 -4.8623 -0.989695 0
M  V30 4889 N 450.82 -0.546701 -1.47814 0
M  V30 4890 C 452.05 -0.0232519 -2.06587 0
M  V30 4891 C 452.458 1.2712 -1.40133 0
M  V30 4892 O 451.801 1.77091 -0.488305 0
M  V30 4893 C 451.863 0.254117 -3.58601 0
M  V30 4894 C 451.527 -0.949331 -4.47031 0
M  V30 4895 C 452.524 -1.85216 -4.85789 0
M  V30 4896 C 450.209 -1.16104 -4.88697 0
M  V30 4897 C 452.203 -2.95047 -5.65001 0
M  V30 4898 C 449.89 -2.26247 -5.67676 0
M  V30 4899 C 450.888 -3.1555 -6.05737 0
M  V30 4900 O 450.576 -4.23784 -6.83127 0
M  V30 4901 H 450.308 -0.0380082 -0.674931 0
M  V30 4902 H 452.862 -0.756631 -1.90956 0
M  V30 4903 H 451.092 1.04168 -3.72406 0
M  V30 4904 H 452.781 0.72167 -3.99433 0
M  V30 4905 H 453.547 -1.70061 -4.54207 0
M  V30 4906 H 449.426 -0.475159 -4.58545 0
M  V30 4907 H 452.97 -3.64778 -5.94628 0
M  V30 4908 H 448.867 -2.41379 -5.98671 0
M  V30 4909 H 449.635 -4.21701 -7.01506 0
M  V30 4910 N 452.299 1.55045 -0.282633 0
M  V30 4911 C 453.527 2.04168 0.33512 0
M  V30 4912 C 453.942 1.16071 1.48906 0
M  V30 4913 O 453.299 0.182391 1.81586 0
M  V30 4914 C 453.35 3.52332 0.808957 0
M  V30 4915 O 453.071 4.37078 -0.299038 0
M  V30 4916 C 454.572 4.17375 1.49375 0
M  V30 4917 H 451.792 0.666744 0.0754543 0
M  V30 4918 H 454.336 2.00205 -0.416918 0
M  V30 4919 H 452.491 3.56715 1.51106 0
M  V30 4920 H 452.905 5.24458 0.0665514 0
M  V30 4921 H 454.379 5.22627 1.77664 0
M  V30 4922 H 454.856 3.65999 2.42778 0
M  V30 4923 H 455.462 4.17016 0.835305 0
M  V30 4924 N 453.777 0.010035 1.57597 0
M  V30 4925 C 455.024 -0.6727 1.91 0
M  V30 4926 C 455.352 -1.73219 0.884614 0
M  V30 4927 O 454.607 -1.95395 -0.109215 0
M  V30 4928 C 454.906 -1.34434 3.31153 0
M  V30 4929 C 454.572 -0.417083 4.48967 0
M  V30 4930 C 453.234 -0.161809 4.80928 0
M  V30 4931 C 455.586 0.220753 5.20732 0
M  V30 4932 C 452.914 0.739426 5.82022 0
M  V30 4933 C 455.266 1.10993 6.22787 0
M  V30 4934 C 453.93 1.37428 6.532 0
M  V30 4935 H 453.2 -0.246158 0.698918 0
M  V30 4936 H 455.847 0.0677145 1.9138 0
M  V30 4937 H 454.152 -2.15905 3.26944 0
M  V30 4938 H 455.849 -1.87883 3.54261 0
M  V30 4939 H 452.439 -0.626217 4.24001 0
M  V30 4940 H 456.623 0.0365643 4.96287 0
M  V30 4941 H 451.879 0.952139 6.03941 0
M  V30 4942 H 456.053 1.61046 6.77523 0
M  V30 4943 H 453.68 2.0743 7.31353 0
M  V30 4944 N 455.255 -1.55392 -0.262866 0
M  V30 4945 C 456.203 -1.8977 -1.345 0
M  V30 4946 C 457.197 -0.775063 -1.50629 0
M  V30 4947 O 458.403 -0.959519 -1.52293 0
M  V30 4948 H 454.778 -0.602467 -0.450041 0
M  V30 4949 H 456.749 -2.80147 -1.02762 0
M  V30 4950 C 455.498 -2.19501 -2.69657 0
M  V30 4951 H 454.821 -3.05378 -2.5804 0
M  V30 4952 H 456.261 -2.47469 -3.44289 0
M  V30 4953 C 454.72 -1.00597 -3.21531 0
M  V30 4954 O 455.25 -0.245768 -4.00947 0
M  V30 4955 N 453.456 -0.800911 -2.79345 0
M  V30 4956 H 453.003 -1.42079 -2.14875 0
M  V30 4957 H 452.961 -0.00697996 -3.14399 0
M  V30 4958 N 456.733 0.527833 -1.48498 0
M  V30 4959 C 458.01 1.28905 -1.47115 0
M  V30 4960 C 458.39 2.10297 -0.184007 0
M  V30 4961 O 457.738 2.12728 0.834218 0
M  V30 4962 C 457.948 2.16866 -2.73441 0
M  V30 4963 C 459.296 2.76936 -3.21857 0
M  V30 4964 O 460.32 2.27152 -2.74373 0
M  V30 4965 O 459.179 3.67496 -4.04486 0
M  V30 4966 H 456.273 0.581918 -0.587623 0
M  V30 4967 H 458.819 0.544311 -1.60734 0
M  V30 4968 H 457.591 1.56521 -3.58632 0
M  V30 4969 H 457.214 2.98583 -2.62553 0
M  V30 4970 N 458.211 1.37122 0.776871 0
M  V30 4971 C 459.158 1.3247 1.88998 0
M  V30 4972 C 460.128 0.191143 1.64997 0
M  V30 4973 O 461.313 0.379683 1.86984 0
M  V30 4974 C 458.453 1.13241 3.25992 0
M  V30 4975 C 457.566 2.35782 3.61982 0
M  V30 4976 C 456.701 2.09465 4.88158 0
M  V30 4977 C 455.74 3.279 5.16864 0
M  V30 4978 N 454.877 3.01167 6.34226 0
M  V30 4979 H 459.717 2.27642 1.9231 0
M  V30 4980 H 457.254 1.13125 0.94027 0
M  V30 4981 H 459.212 1.00115 4.0501 0
M  V30 4982 H 457.842 0.217186 3.22069 0
M  V30 4983 H 456.894 2.59666 2.77989 0
M  V30 4984 H 458.206 3.24125 3.79137 0
M  V30 4985 H 457.36 1.93341 5.75069 0
M  V30 4986 H 456.099 1.18452 4.73097 0
M  V30 4987 H 455.104 3.44569 4.2843 0
M  V30 4988 H 456.329 4.19757 5.33836 0
M  V30 4989 H 454.275 2.12779 6.20533 0
M  V30 4990 H 454.192 3.83052 6.51772 0
M  V30 4991 H 455.46 2.88649 7.24087 0
M  V30 4992 N 459.689 -1.00246 1.21608 0
M  V30 4993 C 460.637 -2.11193 0.97469 0
M  V30 4994 C 461.631 -1.69216 -0.0789303 0
M  V30 4995 O 462.837 -1.79853 0.0726806 0
M  V30 4996 H 459.212 -0.690455 0.297953 0
M  V30 4997 H 461.183 -2.2873 1.91638 0
M  V30 4998 C 459.932 -3.43182 0.558717 0
M  V30 4999 H 459.255 -3.75918 1.3611 0
M  V30 5000 H 460.695 -4.21823 0.429154 0
M  V30 5001 C 459.154 -3.28882 -0.730648 0
M  V30 5002 O 459.684 -3.59835 -1.78554 0
M  V30 5003 N 457.89 -2.8209 -0.698131 0
M  V30 5004 H 457.437 -2.57099 0.16061 0
M  V30 5005 H 457.395 -2.72903 -1.56113 0
M  V30 5006 N 461.167 -1.02423 -1.1978 0
M  V30 5007 C 462.115 -0.594474 -2.24875 0
M  V30 5008 C 463.109 0.370598 -1.65296 0
M  V30 5009 O 464.315 0.239684 -1.78397 0
M  V30 5010 H 460.69 -0.173961 -0.731602 0
M  V30 5011 H 462.661 -1.4916 -2.58445 0
M  V30 5012 C 461.41 0.0436512 -3.47673 0
M  V30 5013 H 460.733 -0.689963 -3.93801 0
M  V30 5014 H 462.173 0.307362 -4.22884 0
M  V30 5015 C 460.632 1.28881 -3.11274 0
M  V30 5016 O 461.162 2.38135 -3.23503 0
M  V30 5017 N 459.368 1.1758 -2.6575 0
M  V30 5018 H 458.915 0.286769 -2.55999 0
M  V30 5019 H 458.873 2.00988 -2.41767 0
M  V30 5020 N 462.645 1.35699 -0.801477 0
M  V30 5021 C 463.87 2.03687 -0.390678 0
M  V30 5022 C 464.295 1.60015 0.988778 0
M  V30 5023 O 463.653 0.774357 1.63931 0
M  V30 5024 C 463.701 3.57439 -0.476404 0
M  V30 5025 O 462.805 4.09208 0.512106 0
M  V30 5026 H 462.146 0.64344 -0.163956 0
M  V30 5027 H 464.676 1.73403 -1.08594 0
M  V30 5028 H 464.686 4.06544 -0.344357 0
M  V30 5029 H 463.361 3.88576 -1.48262 0
M  V30 5030 H 461.938 3.7134 0.340721 0
M  V30 5031 N 464.123 0.554532 1.47522 0
M  V30 5032 C 465.071 -0.207765 2.3167 0
M  V30 5033 C 466.065 -0.911914 1.4276 0
M  V30 5034 O 467.271 -0.833504 1.59539 0
M  V30 5035 H 463.646 -0.0858726 0.747081 0
M  V30 5036 H 465.617 0.521178 2.93813 0
M  V30 5037 C 464.366 -1.2263 3.25357 0
M  V30 5038 H 463.689 -0.693887 3.93732 0
M  V30 5039 H 465.129 -1.73062 3.87073 0
M  V30 5040 C 463.588 -2.27278 2.4869 0
M  V30 5041 O 464.118 -3.34156 2.22941 0
M  V30 5042 N 462.324 -2.01134 2.09746 0
M  V30 5043 H 461.871 -1.14232 2.30887 0
M  V30 5044 H 461.829 -2.71369 1.58765 0
M  V30 5045 N 465.601 -1.54893 0.290851 0
M  V30 5046 C 466.531 -2.26103 -0.583084 0
M  V30 5047 C 467.512 -1.25684 -1.14619 0
M  V30 5048 O 468.697 -1.54436 -1.17741 0
M  V30 5049 C 465.827 -2.99409 -1.75987 0
M  V30 5050 C 464.781 -4.0689 -1.32758 0
M  V30 5051 C 464.107 -4.67856 -2.58872 0
M  V30 5052 C 465.407 -5.20215 -0.46624 0
M  V30 5053 H 467.101 -2.99398 0.0108214 0
M  V30 5054 H 464.647 -1.43998 0.00664468 0
M  V30 5055 H 466.6 -3.47943 -2.37727 0
M  V30 5056 H 465.324 -2.23675 -2.37985 0
M  V30 5057 H 463.983 -3.59191 -0.733299 0
M  V30 5058 H 463.631 -3.88772 -3.19163 0
M  V30 5059 H 463.331 -5.40438 -2.30653 0
M  V30 5060 H 464.855 -5.19147 -3.21433 0
M  V30 5061 H 466.269 -5.64704 -0.989047 0
M  V30 5062 H 464.666 -5.99455 -0.27826 0
M  V30 5063 H 465.736 -4.82198 0.511173 0
M  V30 5064 N 467.08 -0.0183926 -1.57589 0
M  V30 5065 C 468.326 0.657813 -1.92469 0
M  V30 5066 C 468.681 1.70349 -0.894375 0
M  V30 5067 O 467.974 1.91384 0.0910389 0
M  V30 5068 C 468.168 1.32676 -3.31861 0
M  V30 5069 C 467.997 0.347403 -4.48356 0
M  V30 5070 C 466.767 -0.0488653 -5.05276 0
M  V30 5071 C 468.965 -0.393931 -5.12789 0
M  V30 5072 N 466.947 -1.02451 -6.05291 0
M  V30 5073 C 468.318 -1.22367 -6.07804 0
M  V30 5074 C 470.373 -0.455789 -4.95809 0
M  V30 5075 C 469.076 -2.10966 -6.87667 0
M  V30 5076 C 471.102 -1.32908 -5.76272 0
M  V30 5077 C 470.464 -2.14662 -6.70894 0
M  V30 5078 H 466.563 0.21335 -0.752334 0
M  V30 5079 H 469.147 -0.0830547 -1.94523 0
M  V30 5080 H 467.318 2.03782 -3.30647 0
M  V30 5081 H 469.05 1.95913 -3.54119 0
M  V30 5082 H 465.805 0.323356 -4.72495 0
M  V30 5083 H 466.229 -1.50826 -6.59985 0
M  V30 5084 H 470.871 0.162017 -4.22489 0
M  V30 5085 H 468.589 -2.73807 -7.603 0
M  V30 5086 H 472.175 -1.38109 -5.6517 0
M  V30 5087 H 471.055 -2.81143 -7.32071 0
M  V30 5088 N 468.558 1.5553 0.254621 0
M  V30 5089 C 469.491 1.84624 1.34124 0
M  V30 5090 C 470.469 0.700693 1.46728 0
M  V30 5091 O 471.653 0.94564 1.63064 0
M  V30 5092 C 468.78 2.02412 2.71564 0
M  V30 5093 C 467.826 3.25028 2.7615 0
M  V30 5094 S 468.659 4.81893 2.33538 0
M  V30 5095 C 469.815 5.02677 3.72917 0
M  V30 5096 H 470.048 2.76501 1.09245 0
M  V30 5097 H 467.581 1.47537 0.455211 0
M  V30 5098 H 469.539 2.13345 3.50705 0
M  V30 5099 H 468.2 1.11391 2.93685 0
M  V30 5100 H 467.393 3.34418 3.77069 0
M  V30 5101 H 466.995 3.12781 2.05046 0
M  V30 5102 H 469.287 4.89546 4.68349 0
M  V30 5103 H 470.23 6.0468 3.68467 0
M  V30 5104 H 470.638 4.30561 3.65072 0
M  V30 5105 N 470.036 -0.519951 1.48776 0
M  V30 5106 C 471.261 -1.30447 1.6124 0
M  V30 5107 C 471.686 -1.86055 0.276591 0
M  V30 5108 O 471.044 -1.64915 -0.753183 0
M  V30 5109 C 471.092 -2.42406 2.66967 0
M  V30 5110 O 470.196 -3.45728 2.24824 0
M  V30 5111 H 469.537 -0.385924 0.540332 0
M  V30 5112 H 472.067 -0.624572 1.94834 0
M  V30 5113 H 472.077 -2.88447 2.88552 0
M  V30 5114 H 470.752 -2.01294 3.63941 0
M  V30 5115 H 469.329 -3.05737 2.13494 0
M  V30 5116 N 471.514 -1.37532 -0.769588 0
M  V30 5117 C 472.739 -1.36231 -1.56384 0
M  V30 5118 C 473.164 0.0495849 -1.88035 0
M  V30 5119 O 472.522 1.02723 -1.49391 0
M  V30 5120 C 472.57 -2.20986 -2.84952 0
M  V30 5121 O 471.674 -1.61597 -3.79421 0
M  V30 5122 H 471.015 -0.465387 -0.473615 0
M  V30 5123 H 473.545 -1.81085 -0.952342 0
M  V30 5124 H 473.555 -2.34277 -3.34034 0
M  V30 5125 H 472.23 -3.23612 -2.61243 0
M  V30 5126 H 470.807 -1.57359 -3.38072 0
M  V30 5127 N 472.992 0.995999 -1.22138 0
M  V30 5128 C 473.925 2.08302 -0.931952 0
M  V30 5129 C 474.903 1.62127 0.123956 0
M  V30 5130 O 476.087 1.88499 -0.00696004 0
M  V30 5131 C 473.214 3.36317 -0.401068 0
M  V30 5132 C 472.26 4.01413 -1.44117 0
M  V30 5133 S 473.093 4.42664 -3.01345 0
M  V30 5134 C 474.249 5.73853 -2.49887 0
M  V30 5135 H 474.482 2.32532 -1.85246 0
M  V30 5136 H 472.015 1.13005 -1.0521 0
M  V30 5137 H 473.973 4.10375 -0.101352 0
M  V30 5138 H 472.634 3.10123 0.498272 0
M  V30 5139 H 471.827 4.9358 -1.01952 0
M  V30 5140 H 471.429 3.33668 -1.68943 0
M  V30 5141 H 473.721 6.50039 -1.90934 0
M  V30 5142 H 474.664 6.20841 -3.40532 0
M  V30 5143 H 475.072 5.31105 -1.9128 0
M  V30 5144 N 474.47 1.03057 1.19235 0
M  V30 5145 C 475.881 0.757449 1.70645 0
M  V30 5146 C 476.232 -0.722735 1.82403 0
M  V30 5147 O 475.357 -1.56325 1.49638 0
M  V30 5148 C 475.952 1.36833 3.09939 0
M  V30 5149 C 474.511 1.14375 3.58602 0
M  V30 5150 C 473.658 1.46533 2.35422 0
M  V30 5151 H 476.609 1.19828 1.04052 0
M  V30 5152 H 476.63 0.766184 3.72706 0
M  V30 5153 H 476.142 2.44562 3.01349 0
M  V30 5154 H 474.243 0.0847542 3.72504 0
M  V30 5155 H 474.356 1.83366 4.42622 0
M  V30 5156 H 472.72 0.884712 2.38841 0
M  V30 5157 H 473.503 2.55349 2.2946 0
M  V30 5158 N 475.948 -1.35272 0.808662 0
M  V30 5159 C 477.196 -1.98316 0.389233 0
M  V30 5160 C 477.517 -1.64465 -1.04767 0
M  V30 5161 O 476.787 -0.928175 -1.72516 0
M  V30 5162 H 475.367 -0.733585 0.140935 0
M  V30 5163 H 478.029 -1.6515 1.03496 0
M  V30 5164 H 477.125 -3.08123 0.496631 0
M  V30 5165 N 477.426 -0.562348 -1.47226 0
M  V30 5166 C 478.675 -0.038041 -2.01664 0
M  V30 5167 C 478.988 1.32199 -1.44162 0
M  V30 5168 O 480.194 1.9365 -1.90294 0
M  V30 5169 C 478.65 -0.0174958 -3.59896 0
M  V30 5170 C 478.258 -1.3746 -4.2639 0
M  V30 5171 C 480.002 0.453934 -4.22066 0
M  V30 5172 C 477.909 -1.31289 -5.76643 0
M  V30 5173 H 476.839 -0.0104511 -0.753928 0
M  V30 5174 H 479.49 -0.710966 -1.69167 0
M  V30 5175 H 477.872 0.721182 -3.89378 0
M  V30 5176 H 479.046 -2.1314 -4.08544 0
M  V30 5177 H 477.361 -1.78438 -3.7623 0
M  V30 5178 H 479.958 0.518584 -5.32179 0
M  V30 5179 H 480.301 1.46706 -3.89594 0
M  V30 5180 H 480.834 -0.230044 -3.97134 0
M  V30 5181 H 477.573 -2.30217 -6.13743 0
M  V30 5182 H 477.093 -0.597973 -5.96812 0
M  V30 5183 H 478.772 -1.01713 -6.38955 0
M  V30 5184 N 478.904 1.54736 -0.299062 0
M  V30 5185 C 479.852 2.24897 0.593658 0
M  V30 5186 C 480.846 1.25429 1.13859 0
M  V30 5187 O 482.052 1.43286 1.08945 0
M  V30 5188 H 478.427 0.72207 0.210046 0
M  V30 5189 H 480.398 2.98393 -0.0206421 0
M  V30 5190 C 479.147 3.00159 1.75499 0
M  V30 5191 H 478.47 3.76501 1.34489 0
M  V30 5192 H 479.91 3.52535 2.35574 0
M  V30 5193 C 478.369 2.07015 2.65794 0
M  V30 5194 O 478.899 1.63692 3.66835 0
M  V30 5195 N 477.105 1.73012 2.33485 0
M  V30 5196 H 476.652 2.08439 1.51364 0
M  V30 5197 H 476.61 1.10965 2.94167 0
M  V30 5198 N 480.382 0.0267497 1.57577 0
M  V30 5199 C 481.33 -0.973923 2.11229 0
M  V30 5200 C 482.324 -1.33849 1.03831 0
M  V30 5201 O 483.53 -1.321 1.22269 0
M  V30 5202 H 479.905 -0.331844 0.674821 0
M  V30 5203 H 481.876 -0.496092 2.94247 0
M  V30 5204 C 480.625 -2.24798 2.65257 0
M  V30 5205 H 479.948 -1.9762 3.47543 0
M  V30 5206 H 481.388 -2.93031 3.06445 0
M  V30 5207 C 479.847 -2.97611 1.57891 0
M  V30 5208 O 480.377 -3.89629 0.97735 0
M  V30 5209 N 478.583 -2.59905 1.29992 0
M  V30 5210 H 478.13 -1.85154 1.79097 0
M  V30 5211 H 478.088 -3.08932 0.583798 0
M  V30 5212 N 481.861 -1.55662 -0.24637 0
M  V30 5213 C 483.109 -1.77168 -0.972411 0
M  V30 5214 C 483.43 -0.590827 -1.85834 0
M  V30 5215 O 482.7 0.393365 -1.9191 0
M  V30 5216 H 481.28 -0.653405 -0.362038 0
M  V30 5217 H 483.942 -1.93101 -0.264189 0
M  V30 5218 H 483.038 -2.68335 -1.59382 0
M  V30 5219 N 483.339 0.512053 -1.4905 0
M  V30 5220 C 484.269 1.62365 -1.67809 0
M  V30 5221 C 485.25 1.61737 -0.526809 0
M  V30 5222 O 486.435 1.78651 -0.761404 0
M  V30 5223 C 483.565 3.00895 -1.73435 0
M  V30 5224 C 482.519 3.16387 -2.88242 0
M  V30 5225 C 481.845 4.56157 -2.78971 0
M  V30 5226 C 483.145 2.97457 -4.29321 0
M  V30 5227 H 484.839 1.46921 -2.60873 0
M  V30 5228 H 482.385 0.705379 -1.2554 0
M  V30 5229 H 484.338 3.78549 -1.85145 0
M  V30 5230 H 483.062 3.17403 -0.769619 0
M  V30 5231 H 481.721 2.41155 -2.76116 0
M  V30 5232 H 481.369 4.69525 -1.8043 0
M  V30 5233 H 481.069 4.67465 -3.5602 0
M  V30 5234 H 482.593 5.35886 -2.92675 0
M  V30 5235 H 484.007 3.64888 -4.42187 0
M  V30 5236 H 482.404 3.20245 -5.07507 0
M  V30 5237 H 483.474 1.93692 -4.44535 0
M  V30 5238 N 484.817 1.37938 0.762283 0
M  V30 5239 C 486.042 1.37059 1.55659 0
M  V30 5240 C 486.467 -0.0396123 1.88058 0
M  V30 5241 O 485.825 -1.01929 1.49934 0
M  V30 5242 C 485.873 2.22494 2.83776 0
M  V30 5243 O 484.977 1.63607 3.78559 0
M  V30 5244 H 484.318 0.467892 0.47114 0
M  V30 5245 H 486.848 1.81587 0.942725 0
M  V30 5246 H 486.858 2.36045 3.32786 0
M  V30 5247 H 485.533 3.24993 2.59524 0
M  V30 5248 H 484.11 1.5915 3.37233 0
M  V30 5249 N 486.295 -0.989507 1.22664 0
M  V30 5250 C 487.225 -2.09847 1.02404 0
M  V30 5251 C 488.206 -1.70007 -0.0561303 0
M  V30 5252 O 489.391 -1.93906 0.106748 0
M  V30 5253 C 486.521 -3.41996 0.604663 0
M  V30 5254 C 485.475 -3.95699 1.63115 0
M  V30 5255 C 484.801 -5.23936 1.0675 0
M  V30 5256 C 486.101 -4.25999 3.02196 0
M  V30 5257 H 487.795 -2.27054 1.95158 0
M  V30 5258 H 485.341 -1.09111 0.939727 0
M  V30 5259 H 487.294 -4.1899 0.45002 0
M  V30 5260 H 486.018 -3.24626 -0.35855 0
M  V30 5261 H 484.677 -3.2084 1.77362 0
M  V30 5262 H 484.325 -5.02909 0.0955422 0
M  V30 5263 H 484.025 -5.60833 1.75328 0
M  V30 5264 H 485.549 -6.0356 0.924516 0
M  V30 5265 H 486.963 -4.93777 2.91303 0
M  V30 5266 H 485.36 -4.74076 3.67929 0
M  V30 5267 H 486.43 -3.33636 3.51873 0
M  V30 5268 N 487.773 -1.03688 -1.18687 0
M  V30 5269 C 488.706 -0.569112 -2.2099 0
M  V30 5270 C 489.684 0.394315 -1.57746 0
M  V30 5271 O 490.868 0.309519 -1.85941 0
M  V30 5272 C 487.995 0.169104 -3.38278 0
M  V30 5273 C 487.041 -0.746989 -4.19908 0
M  V30 5274 S 487.874 -2.22773 -4.86963 0
M  V30 5275 C 489.03 -1.50025 -6.07654 0
M  V30 5276 H 489.263 -1.43589 -2.60326 0
M  V30 5277 H 486.796 -0.847507 -1.29061 0
M  V30 5278 H 488.754 0.588868 -4.06254 0
M  V30 5279 H 487.415 1.01172 -2.9736 0
M  V30 5280 H 486.608 -0.176626 -5.0369 0
M  V30 5281 H 486.21 -1.10543 -3.5729 0
M  V30 5282 H 488.502 -0.791217 -6.72864 0
M  V30 5283 H 489.445 -2.31498 -6.69189 0
M  V30 5284 H 489.853 -0.994245 -5.55675 0
M  V30 5285 N 489.251 1.34841 -0.815825 0
M  V30 5286 C 490.181 2.32187 -0.247298 0
M  V30 5287 C 491.162 1.5791 0.632344 0
M  V30 5288 O 492.347 1.8593 0.560698 0
M  V30 5289 C 489.477 3.42122 0.597466 0
M  V30 5290 C 488.431 4.27602 -0.184446 0
M  V30 5291 C 487.757 5.28942 0.782609 0
M  V30 5292 C 489.057 5.03502 -1.38865 0
M  V30 5293 H 490.751 2.79985 -1.06061 0
M  V30 5294 H 488.297 1.34611 -0.511461 0
M  V30 5295 H 490.25 4.09232 1.00533 0
M  V30 5296 H 488.974 2.92956 1.44376 0
M  V30 5297 H 487.633 3.62085 -0.573592 0
M  V30 5298 H 487.281 4.7604 1.62466 0
M  V30 5299 H 486.981 5.87008 0.263695 0
M  V30 5300 H 488.505 5.98922 1.18848 0
M  V30 5301 H 489.919 5.63506 -1.05518 0
M  V30 5302 H 488.316 5.71108 -1.8427 0
M  V30 5303 H 489.386 4.33608 -2.17054 0
M  V30 5304 N 490.729 0.570148 1.46925 0
M  V30 5305 C 492.145 0.23087 1.57921 0
M  V30 5306 C 492.345 -1.26676 1.56702 0
M  V30 5307 O 491.401 -2.04774 1.47729 0
M  V30 5308 C 492.714 0.868973 2.8787 0
M  V30 5309 C 494.262 0.841397 3.01479 0
M  V30 5310 C 494.737 1.45881 4.34146 0
M  V30 5311 N 496.228 1.42258 4.40814 0
M  V30 5312 C 496.963 1.8698 5.42057 0
M  V30 5313 N 496.459 2.39618 6.50042 0
M  V30 5314 N 498.252 1.77972 5.33181 0
M  V30 5315 H 490.403 1.54301 1.45962 0
M  V30 5316 H 492.666 0.644224 0.69547 0
M  V30 5317 H 492.372 1.922 2.94537 0
M  V30 5318 H 492.246 0.369682 3.75384 0
M  V30 5319 H 494.633 -0.202973 2.94401 0
M  V30 5320 H 494.714 1.37858 2.15474 0
M  V30 5321 H 494.358 2.50231 4.4198 0
M  V30 5322 H 494.288 0.896958 5.18905 0
M  V30 5323 H 496.779 1.03768 3.63374 0
M  V30 5324 H 497.092 2.71633 7.23488 0
M  V30 5325 H 495.437 2.43636 6.50897 0
M  V30 5326 H 498.628 1.36617 4.4772 0
M  V30 5327 H 498.801 2.13143 6.11943 0
M  V30 5328 N 492.207 -1.54576 0.307264 0
M  V30 5329 C 493.17 -2.22423 -0.553224 0
M  V30 5330 C 494.17 -1.21231 -1.05639 0
M  V30 5331 O 495.36 -1.45923 -0.951419 0
M  V30 5332 C 492.492 -2.91552 -1.76664 0
M  V30 5333 H 493.685 -2.99874 0.0396484 0
M  V30 5334 H 491.238 -1.56192 0.0581629 0
M  V30 5335 H 491.973 -2.18196 -2.39918 0
M  V30 5336 H 491.758 -3.65738 -1.41343 0
M  V30 5337 H 493.248 -3.43292 -2.37783 0
M  V30 5338 N 493.685 -0.035106 -1.57561 0
M  V30 5339 C 494.595 0.960295 -2.14046 0
M  V30 5340 C 495.611 1.3529 -1.0942 0
M  V30 5341 O 496.787 1.43309 -1.41508 0
M  V30 5342 C 493.852 2.22214 -2.66124 0
M  V30 5343 C 492.913 1.8894 -3.85487 0
M  V30 5344 C 492.146 3.09109 -4.35072 0
M  V30 5345 O 492.369 4.21963 -3.83802 0
M  V30 5346 O 491.303 2.91058 -5.26848 0
M  V30 5347 H 495.129 0.509983 -2.99387 0
M  V30 5348 H 492.714 0.185853 -1.48239 0
M  V30 5349 H 494.596 2.96279 -2.99661 0
M  V30 5350 H 493.271 2.66414 -1.83862 0
M  V30 5351 H 492.178 1.12241 -3.56865 0
M  V30 5352 H 493.511 1.49551 -4.6893 0
M  V30 5353 N 495.163 1.55791 0.238111 0
M  V30 5354 C 496.095 1.87513 1.31802 0
M  V30 5355 C 497.108 0.762053 1.43863 0
M  V30 5356 O 498.297 1.04024 1.45056 0
M  V30 5357 C 495.397 2.05402 2.69561 0
M  V30 5358 C 494.57 3.3632 2.79656 0
M  V30 5359 C 493.629 3.43844 3.98319 0
M  V30 5360 O 492.655 4.16994 3.87433 0
M  V30 5361 N 493.857 2.73777 5.11885 0
M  V30 5362 H 496.622 2.80734 1.04922 0
M  V30 5363 H 494.183 1.56135 0.428196 0
M  V30 5364 H 496.175 2.07769 3.47296 0
M  V30 5365 H 494.745 1.18884 2.89111 0
M  V30 5366 H 493.965 3.46195 1.88528 0
M  V30 5367 H 495.253 4.22594 2.83358 0
M  V30 5368 H 494.651 2.14094 5.23622 0
M  V30 5369 H 493.208 2.81825 5.87723 0
M  V30 5370 N 496.642 -0.504142 1.49319 0
M  V30 5371 C 497.59 -1.62689 1.66238 0
M  V30 5372 C 498.584 -1.6095 0.528349 0
M  V30 5373 O 499.79 -1.65496 0.707887 0
M  V30 5374 H 496.165 -0.539247 0.524134 0
M  V30 5375 H 498.136 -1.45571 2.60484 0
M  V30 5376 C 496.885 -3.00841 1.74328 0
M  V30 5377 H 496.208 -3.02884 2.60963 0
M  V30 5378 H 497.648 -3.78945 1.90202 0
M  V30 5379 C 496.107 -3.33355 0.487416 0
M  V30 5380 O 496.637 -3.99819 -0.388294 0
M  V30 5381 N 494.843 -2.88469 0.351306 0
M  V30 5382 H 494.39 -2.34557 1.06492 0
M  V30 5383 H 494.348 -3.10591 -0.487899 0
M  V30 5384 N 498.12 -1.38341 -0.754957 0
M  V30 5385 C 499.397 -1.24995 -1.50451 0
M  V30 5386 C 499.777 0.149244 -2.10572 0
M  V30 5387 O 499.125 1.15861 -1.96948 0
M  V30 5388 C 499.335 -2.35904 -2.57197 0
M  V30 5389 C 500.683 -2.74262 -3.24138 0
M  V30 5390 O 501.707 -2.35205 -2.67501 0
M  V30 5391 O 500.566 -3.4161 -4.26574 0
M  V30 5392 H 497.66 -0.48872 -0.667144 0
M  V30 5393 H 500.206 -1.50165 -0.790486 0
M  V30 5394 H 498.978 -3.2953 -2.11011 0
M  V30 5395 H 498.601 -2.12291 -3.36182 0
M  V30 5396 N 499.598 0.982988 -1.23187 0
M  V30 5397 C 500.845 1.72392 -1.06241 0
M  V30 5398 C 501.173 1.9032 0.40108 0
M  V30 5399 O 500.428 1.45084 1.31336 0
M  V30 5400 C 500.727 3.12736 -1.73006 0
M  V30 5401 C 500.393 3.14695 -3.22921 0
M  V30 5402 C 499.055 3.14937 -3.63824 0
M  V30 5403 C 501.407 3.10211 -4.1883 0
M  V30 5404 C 498.735 3.08408 -4.99101 0
M  V30 5405 C 501.087 3.05224 -5.54095 0
M  V30 5406 C 499.751 3.03787 -5.94365 0
M  V30 5407 H 499.021 0.630829 -0.388762 0
M  V30 5408 H 501.668 1.15053 -1.53085 0
M  V30 5409 H 499.973 3.73446 -1.18514 0
M  V30 5410 H 501.67 3.68828 -1.57374 0
M  V30 5411 H 498.26 3.15262 -2.90358 0
M  V30 5412 H 502.444 3.09166 -3.8824 0
M  V30 5413 H 497.7 3.05646 -5.29519 0
M  V30 5414 H 501.874 3.00712 -6.28128 0
M  V30 5415 H 499.501 2.98483 -6.99151 0
M  V30 5416 N 501.076 1.04316 1.18135 0
M  V30 5417 C 502.325 0.74319 1.87509 0
M  V30 5418 C 502.638 -0.732136 1.81381 0
M  V30 5419 O 503.844 -1.14572 2.46141 0
M  V30 5420 C 502.3 1.27913 3.36402 0
M  V30 5421 C 501.908 2.78326 3.51053 0
M  V30 5422 C 503.652 1.0558 4.11161 0
M  V30 5423 C 501.559 3.25266 4.93919 0
M  V30 5424 H 500.489 0.274313 0.702331 0
M  V30 5425 H 503.14 1.25931 1.33467 0
M  V30 5426 H 501.522 0.690853 3.89927 0
M  V30 5427 H 502.696 3.42933 3.07788 0
M  V30 5428 H 501.011 2.991 2.89704 0
M  V30 5429 H 503.608 1.38161 5.16542 0
M  V30 5430 H 503.951 -0.00684729 4.16299 0
M  V30 5431 H 504.484 1.60882 3.63816 0
M  V30 5432 H 501.223 4.30922 4.9395 0
M  V30 5433 H 500.743 2.65396 5.3789 0
M  V30 5434 H 502.422 3.19433 5.62647 0
M  V30 5435 N 502.554 -1.34406 0.822964 0
M  V30 5436 C 503.965 -1.8069 0.469879 0
M  V30 5437 C 504.316 -1.68223 -1.00972 0
M  V30 5438 O 503.441 -1.22226 -1.78577 0
M  V30 5439 C 504.036 -3.28064 0.846118 0
M  V30 5440 C 502.595 -3.72428 0.545402 0
M  V30 5441 C 501.742 -2.56116 1.06301 0
M  V30 5442 H 504.693 -1.22153 1.01313 0
M  V30 5443 H 504.714 -3.80205 0.149922 0
M  V30 5444 H 504.226 -3.37107 1.92304 0
M  V30 5445 H 502.327 -3.68924 -0.522109 0
M  V30 5446 H 502.44 -4.66548 1.0895 0
M  V30 5447 H 500.804 -2.50048 0.484554 0
M  V30 5448 H 501.587 -2.67928 2.14638 0
M  V30 5449 N 504.032 -0.577932 -1.46621 0
M  V30 5450 C 504.962 0.145917 -2.33044 0
M  V30 5451 C 505.943 0.888412 -1.45056 0
M  V30 5452 O 507.128 0.864812 -1.73881 0
M  V30 5453 C 504.258 1.16322 -3.27241 0
M  V30 5454 C 503.212 0.535868 -4.24632 0
M  V30 5455 C 502.538 1.65929 -5.08303 0
M  V30 5456 C 503.838 -0.523861 -5.19666 0
M  V30 5457 H 505.532 -0.575636 -2.93814 0
M  V30 5458 H 503.078 -0.278272 -1.41286 0
M  V30 5459 H 505.031 1.67793 -3.86553 0
M  V30 5460 H 503.755 1.91498 -2.64567 0
M  V30 5461 H 502.414 0.0422759 -3.66576 0
M  V30 5462 H 502.062 2.40061 -4.42018 0
M  V30 5463 H 501.762 1.2452 -5.74255 0
M  V30 5464 H 503.286 2.17686 -5.70478 0
M  V30 5465 H 504.7 -0.0944059 -5.73222 0
M  V30 5466 H 503.097 -0.858 -5.93935 0
M  V30 5467 H 504.167 -1.41197 -4.63887 0
M  V30 5468 N 505.51 1.54411 -0.315457 0
M  V30 5469 C 506.44 2.27002 0.547039 0
M  V30 5470 C 507.421 1.27492 1.12605 0
M  V30 5471 O 508.606 1.5629 1.15269 0
M  V30 5472 C 505.736 3.02171 1.71201 0
M  V30 5473 C 504.69 4.0895 1.26268 0
M  V30 5474 C 504.016 4.71915 2.51396 0
M  V30 5475 C 505.316 5.20891 0.383419 0
M  V30 5476 H 507.01 2.99343 -0.0584517 0
M  V30 5477 H 504.556 1.4397 -0.0295527 0
M  V30 5478 H 506.509 3.51681 2.32161 0
M  V30 5479 H 505.233 2.27433 2.34397 0
M  V30 5480 H 503.892 3.60312 0.676062 0
M  V30 5481 H 503.54 3.93801 3.12937 0
M  V30 5482 H 503.24 5.44039 2.22026 0
M  V30 5483 H 504.764 5.24195 3.13133 0
M  V30 5484 H 506.178 5.66206 0.899082 0
M  V30 5485 H 504.575 5.99821 0.182857 0
M  V30 5486 H 505.645 4.81324 -0.587821 0
M  V30 5487 N 506.988 0.0434614 1.5754 0
M  V30 5488 C 508.213 -0.645358 1.97104 0
M  V30 5489 C 508.638 -1.64037 0.920521 0
M  V30 5490 O 507.996 -1.80922 -0.11708 0
M  V30 5491 C 508.044 -1.31547 3.35749 0
M  V30 5492 O 507.148 -2.43103 3.33129 0
M  V30 5493 H 506.489 -0.168403 0.64229 0
M  V30 5494 H 509.019 0.109573 2.04306 0
M  V30 5495 H 509.029 -1.66895 3.72304 0
M  V30 5496 H 507.704 -0.586205 4.11748 0
M  V30 5497 H 506.281 -2.0976 3.0831 0
M  V30 5498 N 508.466 -1.55915 -0.229846 0
M  V30 5499 C 509.694 -1.82617 -0.972562 0
M  V30 5500 C 510.109 -0.621488 -1.78278 0
M  V30 5501 O 509.466 0.409956 -1.77836 0
M  V30 5502 C 509.517 -3.0774 -1.89679 0
M  V30 5503 O 509.238 -4.23559 -1.11934 0
M  V30 5504 C 510.739 -3.47368 -2.75409 0
M  V30 5505 H 507.959 -0.60727 -0.285419 0
M  V30 5506 H 510.503 -2.02996 -0.247579 0
M  V30 5507 H 508.658 -2.89361 -2.57583 0
M  V30 5508 H 509.072 -4.94586 -1.74599 0
M  V30 5509 H 510.546 -4.37977 -3.35977 0
M  V30 5510 H 511.023 -2.68737 -3.47386 0
M  V30 5511 H 511.629 -3.68158 -2.12931 0
M  V30 5512 N 509.944 0.496216 -1.49584 0
M  V30 5513 C 511.19 1.25189 -1.59548 0
M  V30 5514 C 511.523 1.9212 -0.283466 0
M  V30 5515 O 510.798 1.80947 0.713324 0
M  V30 5516 C 511.081 2.31516 -2.75812 0
M  V30 5517 C 510.934 1.69054 -4.16822 0
M  V30 5518 C 512.253 3.3304 -2.87702 0
M  V30 5519 H 509.372 0.45379 -0.580727 0
M  V30 5520 H 512.014 0.549327 -1.81886 0
M  V30 5521 H 510.164 2.91438 -2.56897 0
M  V30 5522 H 511.836 1.12923 -4.47265 0
M  V30 5523 H 510.079 0.994485 -4.22247 0
M  V30 5524 H 510.75 2.462 -4.94054 0
M  V30 5525 H 513.226 2.83114 -3.04936 0
M  V30 5526 H 512.102 4.04794 -3.7072 0
M  V30 5527 H 512.363 3.95655 -1.97255 0
M  V30 5528 N 511.423 1.38739 0.74761 0
M  V30 5529 C 512.651 1.38521 1.53686 0
M  V30 5530 C 513.066 -0.0235129 1.88785 0
M  V30 5531 O 512.423 -0.991662 1.53207 0
M  V30 5532 C 512.474 2.24641 2.83229 0
M  V30 5533 O 512.195 3.60026 2.49625 0
M  V30 5534 C 513.696 2.32669 3.77333 0
M  V30 5535 H 510.916 0.473589 0.475347 0
M  V30 5536 H 513.46 1.82395 0.924786 0
M  V30 5537 H 511.615 1.84213 3.40799 0
M  V30 5538 H 512.029 4.05435 3.3275 0
M  V30 5539 H 513.503 2.97201 4.65162 0
M  V30 5540 H 513.98 1.3421 4.18192 0
M  V30 5541 H 514.586 2.73512 3.25685 0
M  V30 5542 N 512.901 -0.976442 1.23707 0
M  V30 5543 C 514.149 -1.71487 1.06942 0
M  V30 5544 C 514.47 -1.9098 -0.393897 0
M  V30 5545 O 513.74 -1.48128 -1.28198 0
M  V30 5546 H 512.32 -0.635425 0.392739 0
M  V30 5547 H 514.982 -1.17515 1.55487 0
M  V30 5548 H 514.078 -2.70286 1.56051 0
M  V30 5549 N 514.379 -1.04941 -1.1758 0
M  V30 5550 C 515.342 -0.652456 -2.19717 0
M  V30 5551 C 516.342 0.294745 -1.58076 0
M  V30 5552 O 517.532 0.0789579 -1.74021 0
M  V30 5553 C 514.664 0.0420712 -3.40874 0
M  V30 5554 H 515.857 -1.55642 -2.5635 0
M  V30 5555 H 513.41 -0.842995 -1.31618 0
M  V30 5556 H 514.145 0.95943 -3.09783 0
M  V30 5557 H 513.93 -0.638844 -3.86861 0
M  V30 5558 H 515.42 0.306 -4.16477 0
M  V30 5559 N 515.857 1.33968 -0.830081 0
M  V30 5560 C 517.273 1.51003 -0.516742 0
M  V30 5561 C 517.473 1.77286 0.957694 0
M  V30 5562 O 516.529 1.82797 1.74188 0
M  V30 5563 C 517.842 2.67036 -1.38247 0
M  V30 5564 C 519.39 2.80919 -1.38034 0
M  V30 5565 C 519.865 4.00004 -2.23071 0
M  V30 5566 N 521.356 4.07224 -2.20733 0
M  V30 5567 C 522.091 4.98541 -2.83275 0
M  V30 5568 N 521.587 5.95033 -3.54835 0
M  V30 5569 N 523.38 4.91469 -2.72791 0
M  V30 5570 H 515.531 1.15168 -1.78466 0
M  V30 5571 H 517.794 0.565443 -0.760906 0
M  V30 5572 H 517.5 2.54266 -2.42985 0
M  V30 5573 H 517.374 3.62226 -1.05225 0
M  V30 5574 H 519.761 2.93127 -0.340713 0
M  V30 5575 H 519.842 1.86517 -1.75057 0
M  V30 5576 H 519.486 3.88557 -3.27087 0
M  V30 5577 H 519.416 4.93634 -1.83394 0
M  V30 5578 H 521.907 3.38162 -1.68687 0
M  V30 5579 H 522.22 6.61357 -3.99784 0
M  V30 5580 H 520.565 5.95135 -3.58942 0
M  V30 5581 H 523.756 4.15048 -2.16456 0
M  V30 5582 H 523.929 5.62439 -3.21818 0
M  V30 5583 N 517.335 0.585699 1.46312 0
M  V30 5584 C 518.581 0.0725284 2.0267 0
M  V30 5585 C 518.914 -1.28523 1.45586 0
M  V30 5586 O 518.189 -1.84283 0.622101 0
M  V30 5587 C 518.472 0.0099788 3.60099 0
M  V30 5588 C 518.325 1.39685 4.27561 0
M  V30 5589 C 519.644 -0.689117 4.34671 0
M  V30 5590 H 516.763 0.0278307 0.736474 0
M  V30 5591 H 519.405 0.753472 1.74421 0
M  V30 5592 H 517.555 -0.56992 3.84297 0
M  V30 5593 H 519.227 2.02215 4.14617 0
M  V30 5594 H 517.47 1.96374 3.86807 0
M  V30 5595 H 518.141 1.30553 5.36339 0
M  V30 5596 H 520.617 -0.196446 4.15636 0
M  V30 5597 H 519.493 -0.701921 5.44393 0
M  V30 5598 H 519.754 -1.75101 4.05946 0
M  V30 5599 N 518.813 -1.54241 0.323641 0
M  V30 5600 C 519.746 -2.20579 -0.584833 0
M  V30 5601 C 520.724 -1.18286 -1.11567 0
M  V30 5602 O 521.908 -1.47025 -1.17966 0
M  V30 5603 C 519.035 -2.86754 -1.80249 0
M  V30 5604 C 518.081 -4.02767 -1.4029 0
M  V30 5605 S 518.914 -5.33693 -0.439539 0
M  V30 5606 C 520.07 -6.03362 -1.66448 0
M  V30 5607 H 520.303 -2.97292 -0.0213238 0
M  V30 5608 H 517.836 -1.54024 0.107726 0
M  V30 5609 H 519.794 -3.25503 -2.50116 0
M  V30 5610 H 518.455 -2.09844 -2.33719 0
M  V30 5611 H 517.648 -4.47933 -2.31024 0
M  V30 5612 H 517.25 -3.65692 -0.783928 0
M  V30 5613 H 519.542 -6.25546 -2.6019 0
M  V30 5614 H 520.485 -6.9689 -1.25498 0
M  V30 5615 H 520.893 -5.33273 -1.85149 0
M  V30 5616 N 520.291 -0.0518155 -1.57515 0
M  V30 5617 C 521.537 0.622745 -1.93002 0
M  V30 5618 C 521.87 1.70456 -0.930499 0
M  V30 5619 O 521.145 1.94452 0.0434086 0
M  V30 5620 C 521.428 1.21824 -3.38867 0
M  V30 5621 C 521.281 0.144434 -4.49568 0
M  V30 5622 C 522.6 2.12968 -3.8514 0
M  V30 5623 H 519.719 0.22491 -0.701844 0
M  V30 5624 H 522.361 -0.113711 -1.89659 0
M  V30 5625 H 520.511 1.8459 -3.41846 0
M  V30 5626 H 522.183 -0.48753 -4.58717 0
M  V30 5627 H 520.426 -0.527424 -4.30582 0
M  V30 5628 H 521.097 0.601127 -5.48717 0
M  V30 5629 H 523.573 1.60163 -3.8404 0
M  V30 5630 H 522.449 2.51578 -4.87852 0
M  V30 5631 H 522.71 3.03004 -3.21934 0
M  V30 5632 N 521.769 1.56035 0.221574 0
M  V30 5633 C 522.719 1.8881 1.27807 0
M  V30 5634 C 523.703 0.751177 1.42289 0
M  V30 5635 O 524.895 1.01359 1.45104 0
M  V30 5636 C 522.024 2.20828 2.6285 0
M  V30 5637 C 521.11 3.40912 2.52269 0
M  V30 5638 N 521.501 4.59531 2.1134 0
M  V30 5639 C 519.799 3.44526 2.83228 0
M  V30 5640 C 520.5 5.41689 2.1201 0
M  V30 5641 N 519.476 4.814 2.52497 0
M  V30 5642 H 523.278 2.78036 0.952529 0
M  V30 5643 H 520.792 1.566 0.430134 0
M  V30 5644 H 522.789 2.42483 3.39127 0
M  V30 5645 H 521.449 1.32914 2.9625 0
M  V30 5646 H 522.46 4.8469 1.82472 0
M  V30 5647 H 519.137 2.66956 3.21 0
M  V30 5648 H 520.527 6.46643 1.82491 0
M  V30 5649 N 523.247 -0.488276 1.49845 0
M  V30 5650 C 524.495 -1.23911 1.59657 0
M  V30 5651 C 524.816 -1.92816 0.291005 0
M  V30 5652 O 524.086 -1.83328 -0.690485 0
M  V30 5653 H 522.666 -0.460357 0.588286 0
M  V30 5654 H 525.328 -0.564794 1.86537 0
M  V30 5655 H 524.424 -1.99625 2.39909 0
M  V30 5656 N 524.725 -1.39134 -0.740242 0
M  V30 5657 C 525.657 -1.33332 -1.86428 0
M  V30 5658 C 526.67 -0.243042 -1.60976 0
M  V30 5659 O 527.859 -0.501608 -1.71307 0
M  V30 5660 C 524.959 -1.04626 -3.22346 0
M  V30 5661 C 524.132 -2.24826 -3.75196 0
M  V30 5662 C 523.191 -1.92659 -4.89662 0
M  V30 5663 O 522.217 -2.6529 -5.03597 0
M  V30 5664 N 523.419 -0.889575 -5.73643 0
M  V30 5665 H 526.184 -2.30196 -1.91911 0
M  V30 5666 H 523.745 -1.33168 -0.920756 0
M  V30 5667 H 525.737 -0.811347 -3.96484 0
M  V30 5668 H 524.307 -0.165129 -3.12164 0
M  V30 5669 H 523.527 -2.64301 -2.9247 0
M  V30 5670 H 524.815 -3.05015 -4.07239 0
M  V30 5671 H 524.213 -0.287529 -5.64969 0
M  V30 5672 H 522.77 -0.714557 -6.47871 0
M  V30 5673 N 526.204 0.969867 -1.24223 0
M  V30 5674 C 527.481 1.68774 -0.988664 0
M  V30 5675 C 527.861 2.05342 0.489673 0
M  V30 5676 O 527.209 1.75486 1.46345 0
M  V30 5677 C 527.419 2.92135 -1.90941 0
M  V30 5678 C 528.767 3.64422 -2.17903 0
M  V30 5679 O 529.791 3.02188 -1.88576 0
M  V30 5680 O 528.65 4.76446 -2.67697 0
M  V30 5681 H 525.744 0.737736 -0.37373 0
M  V30 5682 H 528.29 1.02415 -1.35312 0
M  V30 5683 H 527.062 2.61788 -2.90831 0
M  V30 5684 H 526.685 3.66228 -1.54798 0
M  V30 5685 N 527.682 1.05563 1.17022 0
M  V30 5686 C 528.592 0.670758 2.24807 0
M  V30 5687 C 529.608 -0.309865 1.71219 0
M  V30 5688 O 530.784 -0.161025 2.00755 0
M  V30 5689 C 527.849 0.055337 3.46656 0
M  V30 5690 C 526.91 1.08688 4.15314 0
M  V30 5691 C 526.143 0.500736 5.31346 0
M  V30 5692 O 526.366 -0.688718 5.66227 0
M  V30 5693 O 525.3 1.23683 5.89055 0
M  V30 5694 H 529.126 1.56914 2.60023 0
M  V30 5695 H 526.711 0.827428 1.24395 0
M  V30 5696 H 528.593 -0.286492 4.20425 0
M  V30 5697 H 527.268 -0.816638 3.13229 0
M  V30 5698 H 526.175 1.48077 3.43546 0
M  V30 5699 H 527.508 1.93014 4.52777 0
M  V30 5700 N 529.16 -1.33526 0.837174 0
M  V30 5701 C 530.571 -1.80182 0.489017 0
M  V30 5702 C 530.922 -1.69285 -0.991826 0
M  V30 5703 O 530.047 -1.24113 -1.77271 0
M  V30 5704 C 530.642 -3.27149 0.880866 0
M  V30 5705 C 529.201 -3.71828 0.584872 0
M  V30 5706 C 528.348 -2.54974 1.09011 0
M  V30 5707 H 531.299 -1.21071 1.02603 0
M  V30 5708 H 531.32 -3.80024 0.190239 0
M  V30 5709 H 530.832 -3.35048 1.95869 0
M  V30 5710 H 528.933 -3.69457 -0.48295 0
M  V30 5711 H 529.046 -4.65366 1.13892 0
M  V30 5712 H 527.41 -2.4952 0.511047 0
M  V30 5713 H 528.193 -2.65637 2.17467 0
M  V30 5714 N 530.638 -0.59345 -1.46 0
M  V30 5715 C 531.601 0.123538 -2.28867 0
M  V30 5716 C 532.601 0.808628 -1.38989 0
M  V30 5717 O 533.791 0.658945 -1.61256 0
M  V30 5718 C 530.923 1.1847 -3.19653 0
M  V30 5719 H 532.116 -0.604843 -2.93737 0
M  V30 5720 H 529.669 -0.351875 -1.52288 0
M  V30 5721 H 530.404 1.94431 -2.59552 0
M  V30 5722 H 530.189 0.69783 -3.8584 0
M  V30 5723 H 531.679 1.68726 -3.81997 0
M  V30 5724 N 532.116 1.54067 -0.331816 0
M  V30 5725 C 533.363 2.00715 0.268269 0
M  V30 5726 C 533.691 1.21986 1.51491 0
M  V30 5727 O 532.946 0.292309 1.93505 0
M  V30 5728 C 533.245 3.51634 0.639392 0
M  V30 5729 C 532.911 4.48018 -0.509019 0
M  V30 5730 C 531.573 4.74089 -0.824209 0
M  V30 5731 C 533.925 5.05237 -1.28003 0
M  V30 5732 C 531.253 5.54637 -1.91298 0
M  V30 5733 C 533.605 5.86972 -2.35895 0
M  V30 5734 C 532.269 6.11342 -2.67987 0
M  V30 5735 H 531.539 0.734469 0.0981667 0
M  V30 5736 H 534.186 1.8596 -0.457304 0
M  V30 5737 H 532.491 3.6416 1.44551 0
M  V30 5738 H 534.188 3.85175 1.11539 0
M  V30 5739 H 530.778 4.27851 -0.253287 0
M  V30 5740 H 534.962 4.8507 -1.04978 0
M  V30 5741 H 530.218 5.71747 -2.16599 0
M  V30 5742 H 534.392 6.30327 -2.96076 0
M  V30 5743 H 532.019 6.73544 -3.5248 0
M  V30 5744 N 533.594 0.0601682 1.57485 0
M  V30 5745 C 534.527 -0.94676 2.07634 0
M  V30 5746 C 535.505 -1.29837 0.978826 0
M  V30 5747 O 536.689 -1.40969 1.2514 0
M  V30 5748 C 533.816 -2.25822 2.52433 0
M  V30 5749 C 532.862 -2.05901 3.73507 0
M  V30 5750 S 533.695 -1.32907 5.18745 0
M  V30 5751 C 534.851 -2.65356 5.66866 0
M  V30 5752 H 535.084 -0.520003 2.92717 0
M  V30 5753 H 532.617 -0.152319 1.53647 0
M  V30 5754 H 534.575 -3.01201 2.78905 0
M  V30 5755 H 533.236 -2.65624 1.67639 0
M  V30 5756 H 532.429 -3.02929 4.02803 0
M  V30 5757 H 532.031 -1.38659 3.47347 0
M  V30 5758 H 534.323 -3.61492 5.73001 0
M  V30 5759 H 535.266 -2.40685 6.6594 0
M  V30 5760 H 535.674 -2.72028 4.94632 0
M  V30 5761 N 535.072 -1.5615 -0.213296 0
M  V30 5762 C 536.349 -1.70349 -0.961281 0
M  V30 5763 C 536.729 -0.609791 -2.02101 0
M  V30 5764 O 536.077 0.381987 -2.25285 0
M  V30 5765 C 536.287 -3.11982 -1.56424 0
M  V30 5766 C 537.635 -3.71649 -2.05334 0
M  V30 5767 O 538.659 -3.14995 -1.66302 0
M  V30 5768 O 537.518 -4.71038 -2.77102 0
M  V30 5769 H 534.612 -0.694121 -0.449582 0
M  V30 5770 H 537.158 -1.68464 -0.204426 0
M  V30 5771 H 535.93 -3.83046 -0.799457 0
M  V30 5772 H 535.553 -3.18019 -2.38641 0
M  V30 5773 N 536.55 0.480323 -1.50102 0
M  V30 5774 C 537.827 1.24159 -1.51142 0
M  V30 5775 C 538.207 2.09605 -0.250818 0
M  V30 5776 O 537.555 2.15274 0.766118 0
M  V30 5777 C 537.765 2.08057 -2.80202 0
M  V30 5778 C 539.113 2.66556 -3.30504 0
M  V30 5779 O 540.137 2.18308 -2.81461 0
M  V30 5780 O 538.996 3.54442 -4.15973 0
M  V30 5781 H 536.09 0.562928 -0.605839 0
M  V30 5782 H 538.636 0.492899 -1.62384 0
M  V30 5783 H 537.408 1.45032 -3.6343 0
M  V30 5784 H 537.031 2.90079 -2.71919 0
M  V30 5785 N 538.028 1.39524 0.732853 0
M  V30 5786 C 539.276 1.36594 1.48951 0
M  V30 5787 C 539.597 -0.0367507 1.94965 0
M  V30 5788 O 538.867 -0.988391 1.69138 0
M  V30 5789 H 537.447 0.502673 0.552566 0
M  V30 5790 H 540.109 1.74411 0.869869 0
M  V30 5791 H 539.205 2.03 2.3706 0
M  V30 5792 N 539.506 -0.963266 1.24736 0
M  V30 5793 C 540.754 -1.70343 1.08755 0
M  V30 5794 C 541.075 -1.91387 -0.373619 0
M  V30 5795 O 540.345 -1.4948 -1.2662 0
M  V30 5796 H 538.925 -0.631224 0.399456 0
M  V30 5797 H 541.587 -1.15859 1.56725 0
M  V30 5798 H 540.683 -2.68616 1.58909 0
M  V30 5799 N 540.985 -1.06182 -1.16461 0
M  V30 5800 C 542.232 -0.777863 -1.86964 0
M  V30 5801 C 542.56 0.695602 -1.81636 0
M  V30 5802 O 541.815 1.52532 -1.22607 0
M  V30 5803 C 542.114 -1.21633 -3.36066 0
M  V30 5804 C 541.78 -2.69371 -3.61594 0
M  V30 5805 C 540.442 -3.09727 -3.6827 0
M  V30 5806 C 542.794 -3.64791 -3.7226 0
M  V30 5807 C 540.122 -4.44345 -3.83112 0
M  V30 5808 C 542.474 -4.99155 -3.88623 0
M  V30 5809 C 541.138 -5.39149 -3.93541 0
M  V30 5810 H 540.408 -0.28464 -0.68415 0
M  V30 5811 H 543.055 -1.33071 -1.37711 0
M  V30 5812 H 541.36 -0.582651 -3.87443 0
M  V30 5813 H 543.057 -0.973682 -3.88999 0
M  V30 5814 H 539.647 -2.37124 -3.57029 0
M  V30 5815 H 543.831 -3.34746 -3.66413 0
M  V30 5816 H 539.087 -4.74819 -3.85172 0
M  V30 5817 H 543.261 -5.72976 -3.95817 0
M  V30 5818 H 540.888 -6.43464 -4.04794 0
M  V30 5819 N 542.463 1.3308 -0.844243 0
M  V30 5820 C 543.411 2.31028 -0.269954 0
M  V30 5821 C 544.405 1.58381 0.600997 0
M  V30 5822 O 545.611 1.73203 0.48996 0
M  V30 5823 H 541.986 0.748866 -0.0685782 0
M  V30 5824 H 543.957 2.76967 -1.11049 0
M  V30 5825 C 542.706 3.43549 0.535676 0
M  V30 5826 H 542.029 3.99604 -0.125202 0
M  V30 5827 H 543.469 4.14267 0.903262 0
M  V30 5828 C 541.928 2.8988 1.71672 0
M  V30 5829 O 542.458 2.86511 2.81557 0
M  V30 5830 N 540.664 2.46416 1.54037 0
M  V30 5831 H 540.211 2.49356 0.64649 0
M  V30 5832 H 540.169 2.1086 2.33207 0
M  V30 5833 N 543.941 0.601185 1.45683 0
M  V30 5834 C 544.871 -0.108824 2.33246 0
M  V30 5835 C 545.852 -0.865223 1.46451 0
M  V30 5836 O 547.037 -0.83704 1.75235 0
M  V30 5837 C 544.167 -1.11101 3.2905 0
M  V30 5838 C 543.121 -0.468244 4.25431 0
M  V30 5839 C 542.447 -1.57822 5.10878 0
M  V30 5840 C 543.747 0.606469 5.18767 0
M  V30 5841 H 545.441 0.622306 2.92861 0
M  V30 5842 H 542.987 0.300714 1.40825 0
M  V30 5843 H 544.94 -1.61622 3.89174 0
M  V30 5844 H 543.664 -1.87265 2.67581 0
M  V30 5845 H 542.323 0.0160484 3.66596 0
M  V30 5846 H 541.971 -2.32998 4.45781 0
M  V30 5847 H 541.671 -1.15369 5.76163 0
M  V30 5848 H 543.195 -2.08583 5.73869 0
M  V30 5849 H 544.609 0.185589 5.73 0
M  V30 5850 H 543.006 0.952381 5.92494 0
M  V30 5851 H 544.076 1.48559 4.61582 0
M  V30 5852 N 545.419 -1.53889 0.339982 0
M  V30 5853 C 546.835 -1.59595 -0.0120752 0
M  V30 5854 C 547.035 -1.35605 -1.49042 0
M  V30 5855 O 546.091 -1.14856 -2.24865 0
M  V30 5856 C 547.404 -2.9774 0.420898 0
M  V30 5857 C 548.952 -3.1077 0.37294 0
M  V30 5858 C 549.427 -4.51286 0.781327 0
M  V30 5859 N 550.918 -4.57325 0.735374 0
M  V30 5860 C 551.653 -5.64194 1.02336 0
M  V30 5861 N 551.149 -6.7893 1.37933 0
M  V30 5862 N 552.942 -5.54051 0.947838 0
M  V30 5863 H 545.093 -1.67738 1.30299 0
M  V30 5864 H 547.356 -0.785385 0.530918 0
M  V30 5865 H 547.062 -3.20349 1.45152 0
M  V30 5866 H 546.936 -3.76639 -0.205721 0
M  V30 5867 H 549.323 -2.87886 -0.648505 0
M  V30 5868 H 549.404 -2.33939 1.03472 0
M  V30 5869 H 549.048 -4.74905 1.80077 0
M  V30 5870 H 548.978 -5.26511 0.0970679 0
M  V30 5871 H 551.469 -3.74931 0.472773 0
M  V30 5872 H 551.782 -7.56392 1.58402 0
M  V30 5873 H 550.127 -6.80386 1.41774 0
M  V30 5874 H 553.318 -4.63293 0.669115 0
M  V30 5875 H 553.491 -6.37246 1.17563 0
M  V30 5876 N 546.897 -0.0685191 -1.57451 0
M  V30 5877 C 548.308 0.464634 -1.80826 0
M  V30 5878 C 548.659 1.69847 -0.982169 0
M  V30 5879 O 547.784 2.15439 -0.203734 0
M  V30 5880 C 548.379 0.849721 -3.27971 0
M  V30 5881 C 546.938 1.32776 -3.52204 0
M  V30 5882 C 546.085 0.311332 -2.75547 0
M  V30 5883 H 549.036 -0.294248 -1.55948 0
M  V30 5884 H 549.057 1.71138 -3.39841 0
M  V30 5885 H 548.569 -0.0484736 -3.8807 0
M  V30 5886 H 546.67 2.24456 -2.97406 0
M  V30 5887 H 546.783 1.30794 -4.60901 0
M  V30 5888 H 545.147 0.787915 -2.42206 0
M  V30 5889 H 545.93 -0.579078 -3.38381 0
M  V30 5890 N 548.375 1.56261 0.205012 0
M  V30 5891 C 549.623 1.79684 0.925096 0
M  V30 5892 C 549.944 0.63989 1.84202 0
M  V30 5893 O 549.214 -0.342345 1.92885 0
M  V30 5894 H 547.794 0.662774 0.344587 0
M  V30 5895 H 550.456 1.93734 0.212899 0
M  V30 5896 H 549.552 2.72467 1.52211 0
M  V30 5897 N 549.853 -0.472356 1.50355 0
M  V30 5898 C 551.099 -1.22634 1.6152 0
M  V30 5899 C 551.432 -1.91645 0.313995 0
M  V30 5900 O 550.707 -1.82059 -0.684446 0
M  V30 5901 C 550.99 -2.27099 2.7946 0
M  V30 5902 C 550.843 -1.62402 4.19459 0
M  V30 5903 C 552.162 -3.28421 2.92964 0
M  V30 5904 H 549.281 -0.444494 0.587873 0
M  V30 5905 H 551.923 -0.520321 1.82737 0
M  V30 5906 H 550.073 -2.87314 2.61501 0
M  V30 5907 H 551.745 -1.05793 4.49005 0
M  V30 5908 H 549.988 -0.927184 4.23776 0
M  V30 5909 H 550.659 -2.38309 4.97909 0
M  V30 5910 H 553.135 -2.78227 3.09401 0
M  V30 5911 H 552.011 -3.98845 3.77113 0
M  V30 5912 H 552.272 -3.92467 2.03525 0
M  V30 5913 N 551.331 -1.39911 -0.725443 0
M  V30 5914 C 552.241 -1.41688 -1.8698 0
M  V30 5915 C 553.257 -0.310579 -1.71206 0
M  V30 5916 O 554.433 -0.55359 -1.93642 0
M  V30 5917 C 551.498 -1.26811 -3.22676 0
M  V30 5918 C 550.559 -2.47497 -3.50776 0
M  V30 5919 C 549.792 -2.3332 -4.79997 0
M  V30 5920 O 550.015 -1.34175 -5.54394 0
M  V30 5921 O 548.949 -3.22498 -5.08211 0
M  V30 5922 H 552.775 -2.38171 -1.88436 0
M  V30 5923 H 550.36 -1.21128 -0.874548 0
M  V30 5924 H 552.242 -1.20684 -4.03749 0
M  V30 5925 H 550.917 -0.334289 -3.21969 0
M  V30 5926 H 549.824 -2.59201 -2.69751 0
M  V30 5927 H 551.157 -3.39606 -3.5627 0
M  V30 5928 N 552.809 0.956637 -1.25245 0
M  V30 5929 C 554.037 1.73571 -1.12608 0
M  V30 5930 C 554.452 1.86063 0.320324 0
M  V30 5931 O 553.809 1.35691 1.22042 0
M  V30 5932 C 553.86 3.15053 -1.77268 0
M  V30 5933 O 553.581 3.03174 -3.16255 0
M  V30 5934 C 555.082 4.09248 -1.70386 0
M  V30 5935 H 552.302 0.543955 -0.392879 0
M  V30 5936 H 554.846 1.20031 -1.65568 0
M  V30 5937 H 553.001 3.65543 -1.28284 0
M  V30 5938 H 553.415 3.9241 -3.48015 0
M  V30 5939 H 554.889 5.06138 -2.20291 0
M  V30 5940 H 555.366 4.34102 -0.667239 0
M  V30 5941 H 555.972 3.64672 -2.18849 0
M  V30 5942 N 554.287 1.06798 1.15896 0
M  V30 5943 C 555.512 0.808739 1.90982 0
M  V30 5944 C 555.937 -0.6316 1.77179 0
M  V30 5945 O 555.295 -1.4407 1.10061 0
M  V30 5946 C 555.343 1.21468 3.39526 0
M  V30 5947 O 554.447 0.356562 4.10856 0
M  V30 5948 H 553.788 0.29512 0.594811 0
M  V30 5949 H 556.318 1.42513 1.46804 0
M  V30 5950 H 556.328 1.18844 3.90308 0
M  V30 5951 H 555.003 2.26379 3.48891 0
M  V30 5952 H 553.58 0.444808 3.70238 0
M  V30 5953 N 555.766 -1.3263 0.851289 0
M  V30 5954 C 557.015 -1.96633 0.449267 0
M  V30 5955 C 557.328 -1.68131 -0.999562 0
M  V30 5956 O 558.534 -2.25845 -1.50685 0
M  V30 5957 C 556.99 -3.51946 0.752446 0
M  V30 5958 C 556.598 -3.89311 2.21678 0
M  V30 5959 C 558.342 -4.22437 0.417983 0
M  V30 5960 C 556.249 -5.37655 2.46336 0
M  V30 5961 H 555.179 -0.735888 0.164269 0
M  V30 5962 H 557.83 -1.51073 1.0416 0
M  V30 5963 H 556.212 -3.95899 0.0895858 0
M  V30 5964 H 557.386 -3.56378 2.92115 0
M  V30 5965 H 555.701 -3.31836 2.51543 0
M  V30 5966 H 558.298 -5.31549 0.579674 0
M  V30 5967 H 558.641 -4.11349 -0.640115 0
M  V30 5968 H 559.174 -3.84057 1.03659 0
M  V30 5969 H 555.913 -5.5376 3.50757 0
M  V30 5970 H 555.433 -5.72005 1.80473 0
M  V30 5971 H 557.112 -6.04695 2.30115 0
M  V30 5972 N 557.244 -0.608902 -1.45362 0
M  V30 5973 C 558.469 -0.10921 -2.07112 0
M  V30 5974 C 558.894 1.19779 -1.45033 0
M  V30 5975 O 558.252 1.72961 -0.543527 0
M  V30 5976 C 558.3 0.0155745 -3.60597 0
M  V30 5977 O 557.404 1.06546 -3.98399 0
M  V30 5978 H 556.745 -0.0746619 -0.659789 0
M  V30 5979 H 559.275 -0.839283 -1.86594 0
M  V30 5980 H 559.285 0.213364 -4.07442 0
M  V30 5981 H 557.96 -0.938765 -4.05167 0
M  V30 5982 H 556.537 0.844024 -3.63223 0
M  V30 5983 N 558.722 1.53707 -0.348139 0
M  V30 5984 C 559.655 2.21481 0.549667 0
M  V30 5985 C 560.633 1.20046 1.09671 0
M  V30 5986 O 561.817 1.48883 1.15612 0
M  V30 5987 C 558.944 2.89585 1.75664 0
M  V30 5988 C 557.99 4.04948 1.33864 0
M  V30 5989 S 558.823 5.34325 0.354577 0
M  V30 5990 C 559.979 6.05934 1.56828 0
M  V30 5991 H 560.212 2.97289 -0.0259755 0
M  V30 5992 H 557.745 1.53833 -0.132216 0
M  V30 5993 H 559.703 3.29441 2.44906 0
M  V30 5994 H 558.364 2.13535 2.30351 0
M  V30 5995 H 557.557 4.51552 2.23868 0
M  V30 5996 H 557.159 3.66893 0.725651 0
M  V30 5997 H 559.451 6.29606 2.50205 0
M  V30 5998 H 560.394 6.98799 1.14395 0
M  V30 5999 H 560.802 5.36151 1.76642 0
M  V30 6000 N 560.2 0.0768682 1.57412 0
M  V30 6001 C 561.616 -0.279772 1.57129 0
M  V30 6002 C 561.816 -1.69688 1.08666 0
M  V30 6003 O 560.872 -2.40953 0.754843 0
M  V30 6004 C 562.185 -0.0848055 3.0058 0
M  V30 6005 C 563.733 -0.153954 3.12621 0
M  V30 6006 C 564.208 0.0127946 4.57998 0
M  V30 6007 N 565.699 -0.0426435 4.6318 0
M  V30 6008 C 566.434 0.0618892 5.73367 0
M  V30 6009 N 565.93 0.220229 6.9245 0
M  V30 6010 N 567.723 0.00446072 5.621 0
M  V30 6011 H 559.874 1.00297 1.87228 0
M  V30 6012 H 562.137 0.391565 0.863354 0
M  V30 6013 H 561.843 0.89325 3.40168 0
M  V30 6014 H 561.717 -0.834961 3.67843 0
M  V30 6015 H 564.104 -1.1225 2.72917 0
M  V30 6016 H 564.185 0.627389 2.47987 0
M  V30 6017 H 563.829 0.978128 4.98392 0
M  V30 6018 H 563.759 -0.788016 5.20671 0
M  V30 6019 H 566.25 -0.163226 3.77547 0
M  V30 6020 H 566.563 0.291999 7.72248 0
M  V30 6021 H 564.908 0.255658 6.9453 0
M  V30 6022 H 568.099 -0.117979 4.67951 0
M  V30 6023 H 568.272 0.0893796 6.47938 0
M  V30 6024 N 561.678 -1.56367 -0.196722 0
M  V30 6025 C 562.625 -1.94417 -1.24382 0
M  V30 6026 C 563.595 -0.804543 -1.45315 0
M  V30 6027 O 564.78 -1.06256 -1.58475 0
M  V30 6028 C 561.92 -2.28757 -2.58388 0
M  V30 6029 C 561.033 -3.55775 -2.45047 0
M  V30 6030 C 560.168 -3.79445 -3.71746 0
M  V30 6031 C 559.207 -4.99894 -3.53231 0
M  V30 6032 N 558.344 -5.19826 -4.71938 0
M  V30 6033 H 563.184 -2.83691 -0.912338 0
M  V30 6034 H 560.721 -1.40392 -0.439135 0
M  V30 6035 H 562.679 -2.46682 -3.36457 0
M  V30 6036 H 561.309 -1.42625 -2.89582 0
M  V30 6037 H 560.361 -3.45905 -1.58284 0
M  V30 6038 H 561.673 -4.44 -2.27299 0
M  V30 6039 H 560.827 -3.97601 -4.58256 0
M  V30 6040 H 559.566 -2.89546 -3.92446 0
M  V30 6041 H 558.571 -4.81662 -2.65107 0
M  V30 6042 H 559.796 -5.913 -3.33978 0
M  V30 6043 H 557.742 -4.32875 -4.92905 0
M  V30 6044 H 557.659 -6.02228 -4.57009 0
M  V30 6045 H 558.927 -5.42439 -5.59803 0
M  V30 6046 N 563.156 0.464375 -1.50603 0
M  V30 6047 C 564.066 1.58723 -1.72754 0
M  V30 6048 C 565.082 1.62925 -0.610844 0
M  V30 6049 O 566.258 1.8067 -0.889963 0
M  V30 6050 C 563.323 2.94897 -1.82309 0
M  V30 6051 C 562.384 3.0103 -3.06071 0
M  V30 6052 C 561.617 4.30708 -3.1516 0
M  V30 6053 O 561.84 5.2159 -2.30868 0
M  V30 6054 O 560.774 4.42571 -4.0794 0
M  V30 6055 H 564.6 1.42954 -2.67951 0
M  V30 6056 H 562.185 0.644579 -1.3478 0
M  V30 6057 H 564.067 3.75764 -1.90735 0
M  V30 6058 H 562.742 3.10851 -0.902967 0
M  V30 6059 H 561.649 2.19217 -3.03142 0
M  V30 6060 H 562.982 2.90014 -3.97684 0
M  V30 6061 N 564.634 1.40294 0.718013 0
M  V30 6062 C 565.862 1.4175 1.50714 0
M  V30 6063 C 566.277 0.0165366 1.88793 0
M  V30 6064 O 565.634 -0.958942 1.55276 0
M  V30 6065 C 565.685 2.30598 2.784 0
M  V30 6066 O 565.406 3.6524 2.41932 0
M  V30 6067 C 566.907 2.4062 3.72313 0
M  V30 6068 H 564.127 0.483565 0.465194 0
M  V30 6069 H 566.671 1.84316 0.885889 0
M  V30 6070 H 564.826 1.91401 3.36815 0
M  V30 6071 H 565.24 4.12402 3.24076 0
M  V30 6072 H 566.714 3.07001 4.58753 0
M  V30 6073 H 567.191 1.4305 4.15251 0
M  V30 6074 H 567.797 2.80359 3.19811 0
M  V30 6075 N 566.112 -0.949982 1.2575 0
M  V30 6076 C 567.042 -2.06483 1.09028 0
M  V30 6077 C 568.023 -1.701 -0.00201532 0
M  V30 6078 O 569.208 -1.93469 0.168383 0
M  V30 6079 C 566.338 -3.39899 0.71316 0
M  V30 6080 C 565.292 -3.90309 1.75621 0
M  V30 6081 C 564.618 -5.20274 1.23365 0
M  V30 6082 C 565.918 -4.16169 3.15596 0
M  V30 6083 H 567.612 -2.20731 2.02283 0
M  V30 6084 H 565.158 -1.06066 0.973964 0
M  V30 6085 H 567.111 -4.17346 0.58309 0
M  V30 6086 H 565.835 -3.25602 -0.255091 0
M  V30 6087 H 564.494 -3.15035 1.8748 0
M  V30 6088 H 564.142 -5.02351 0.255491 0
M  V30 6089 H 563.842 -5.54971 1.93082 0
M  V30 6090 H 565.366 -6.00314 1.11607 0
M  V30 6091 H 566.78 -4.84259 3.06864 0
M  V30 6092 H 565.177 -4.62131 3.82825 0
M  V30 6093 H 566.247 -3.22273 3.6231 0
M  V30 6094 N 567.59 -1.07411 -1.15328 0
M  V30 6095 C 568.867 -0.710732 -1.82231 0
M  V30 6096 C 569.247 0.806732 -1.95077 0
M  V30 6097 O 568.595 1.72139 -1.50268 0
M  V30 6098 C 568.805 -1.42586 -3.18544 0
M  V30 6099 C 570.153 -1.57836 -3.94174 0
M  V30 6100 O 571.177 -1.38669 -3.281 0
M  V30 6101 O 570.036 -1.8938 -5.12638 0
M  V30 6102 H 567.13 -0.25297 -0.78736 0
M  V30 6103 H 569.676 -1.17508 -1.22434 0
M  V30 6104 H 568.448 -2.46008 -3.04296 0
M  V30 6105 H 568.071 -0.952332 -3.86026 0
M  V30 6106 N 569.068 1.32177 -0.85831 0
M  V30 6107 C 570.484 1.49873 -0.548656 0
M  V30 6108 C 570.684 1.79278 0.919874 0
M  V30 6109 O 569.74 1.86451 1.70271 0
M  V30 6110 C 571.053 2.64043 -1.4388 0
M  V30 6111 C 572.601 2.77928 -1.43961 0
M  V30 6112 C 573.076 3.95182 -2.31506 0
M  V30 6113 N 574.567 4.0245 -2.29321 0
M  V30 6114 C 575.302 4.9242 -2.93786 0
M  V30 6115 N 574.798 5.87373 -3.67376 0
M  V30 6116 N 576.591 4.85572 -2.83155 0
M  V30 6117 H 568.742 1.11357 -1.80868 0
M  V30 6118 H 571.005 0.549175 -0.772729 0
M  V30 6119 H 570.711 2.49055 -2.48324 0
M  V30 6120 H 570.585 3.59912 -1.12885 0
M  V30 6121 H 572.972 2.92338 -0.402813 0
M  V30 6122 H 573.053 1.82762 -1.78974 0
M  V30 6123 H 572.697 3.81531 -3.35256 0
M  V30 6124 H 572.627 4.89633 -1.93823 0
M  V30 6125 H 575.118 3.34507 -1.75822 0
M  V30 6126 H 575.431 6.52728 -4.13722 0
M  V30 6127 H 573.776 5.87388 -3.71484 0
M  V30 6128 H 576.967 4.10363 -2.25211 0
M  V30 6129 H 577.14 5.55486 -3.33676 0
M  V30 6130 N 570.547 0.616602 1.45037 0
M  V30 6131 C 571.477 -0.0840787 2.33349 0
M  V30 6132 C 572.458 -0.849641 1.4736 0
M  V30 6133 O 573.643 -0.818407 1.76113 0
M  V30 6134 C 570.773 -1.07604 3.3021 0
M  V30 6135 C 569.727 -0.423096 4.25904 0
M  V30 6136 C 569.053 -1.52394 5.12523 0
M  V30 6137 C 570.353 0.661457 5.18095 0
M  V30 6138 H 572.047 0.653333 2.92185 0
M  V30 6139 H 569.593 0.315634 1.40498 0
M  V30 6140 H 571.546 -1.57485 3.90866 0
M  V30 6141 H 570.27 -1.84416 2.69552 0
M  V30 6142 H 568.929 0.05493 3.66559 0
M  V30 6143 H 568.577 -2.28257 4.48227 0
M  V30 6144 H 568.277 -1.09251 5.77354 0
M  V30 6145 H 569.801 -2.02485 5.76049 0
M  V30 6146 H 571.215 0.246353 5.7277 0
M  V30 6147 H 569.612 1.01517 5.91451 0
M  V30 6148 H 570.682 1.53446 4.59981 0
M  V30 6149 N 572.025 -1.5352 0.356285 0
M  V30 6150 C 573.273 -2.00719 -0.235837 0
M  V30 6151 C 573.594 -1.24551 -1.5004 0
M  V30 6152 O 572.864 -0.356185 -1.92635 0
M  V30 6153 H 571.444 -0.741542 -0.0901366 0
M  V30 6154 H 574.106 -1.88887 0.480378 0
M  V30 6155 H 573.202 -3.08551 -0.469357 0
M  V30 6156 N 573.503 -0.0852151 -1.57369 0
M  V30 6157 C 574.751 0.579658 -1.93609 0
M  V30 6158 C 575.072 1.69332 -0.967043 0
M  V30 6159 O 574.342 1.95892 -0.0174215 0
M  V30 6160 H 572.922 0.217113 -0.714752 0
M  V30 6161 H 575.584 -0.146226 -1.94351 0
M  V30 6162 H 574.68 0.996276 -2.95771 0
M  V30 6163 N 574.981 1.5647 0.188427 0
M  V30 6164 C 576.258 1.71857 0.934058 0
M  V30 6165 C 576.638 0.641867 2.01105 0
M  V30 6166 O 575.986 -0.346098 2.25864 0
M  V30 6167 C 576.196 3.14431 1.5144 0
M  V30 6168 C 577.544 3.74869 1.99396 0
M  V30 6169 O 578.568 3.17601 1.61269 0
M  V30 6170 O 577.427 4.75387 2.69573 0
M  V30 6171 H 574.521 0.701186 0.438483 0
M  V30 6172 H 577.067 1.68768 0.177599 0
M  V30 6173 H 575.839 3.8427 0.738416 0
M  V30 6174 H 575.462 3.21775 2.33552 0
M  V30 6175 N 576.459 -0.456382 1.50847 0
M  V30 6176 C 577.689 -1.22848 1.66108 0
M  V30 6177 C 578.097 -1.85936 0.349897 0
M  V30 6178 O 577.44 -1.70664 -0.679665 0
M  V30 6179 C 577.502 -2.36722 2.70561 0
M  V30 6180 C 577.166 -1.94154 4.13707 0
M  V30 6181 C 578.163 -1.4557 4.99105 0
M  V30 6182 C 575.848 -2.02426 4.59705 0
M  V30 6183 C 577.842 -1.0582 6.28555 0
M  V30 6184 C 575.529 -1.62287 5.89157 0
M  V30 6185 C 576.527 -1.14064 6.73408 0
M  V30 6186 O 576.215 -0.744873 8.00442 0
M  V30 6187 H 575.947 -0.377105 0.561042 0
M  V30 6188 H 578.501 -0.549431 1.97915 0
M  V30 6189 H 576.731 -3.07844 2.34027 0
M  V30 6190 H 578.42 -2.98646 2.74892 0
M  V30 6191 H 579.186 -1.38589 4.64777 0
M  V30 6192 H 575.065 -2.38908 3.94264 0
M  V30 6193 H 578.609 -0.6811 6.94267 0
M  V30 6194 H 574.506 -1.68932 6.23003 0
M  V30 6195 H 575.274 -0.87242 8.13837 0
M  V30 6196 N 577.937 -1.40673 -0.710563 0
M  V30 6197 C 579.185 -1.38947 -1.46759 0
M  V30 6198 C 579.506 0.00572879 -1.94999 0
M  V30 6199 O 578.776 0.961358 -1.70689 0
M  V30 6200 H 577.356 -0.5114 -0.544499 0
M  V30 6201 H 580.018 -1.75773 -0.842012 0
M  V30 6202 H 579.114 -2.06745 -2.33801 0
M  V30 6203 N 579.415 0.9433 -1.26252 0
M  V30 6204 C 580.692 1.66639 -1.02424 0
M  V30 6205 C 581.072 2.06335 0.446006 0
M  V30 6206 O 580.42 1.78551 1.42589 0
M  V30 6207 C 580.63 2.88019 -1.97094 0
M  V30 6208 C 581.978 3.59718 -2.25584 0
M  V30 6209 O 583.002 2.9812 -1.94943 0
M  V30 6210 O 581.861 4.7066 -2.77743 0
M  V30 6211 H 578.955 0.729643 -0.389294 0
M  V30 6212 H 581.501 0.995218 -1.37454 0
M  V30 6213 H 580.273 2.5556 -2.96319 0
M  V30 6214 H 579.896 3.62863 -1.62532 0
M  V30 6215 N 580.893 1.08022 1.14757 0
M  V30 6216 C 582.133 0.816959 1.87364 0
M  V30 6217 C 582.497 -0.645407 1.80827 0
M  V30 6218 O 583.698 -1.024 2.48531 0
M  V30 6219 C 581.969 1.31961 3.32146 0
M  V30 6220 S 583.528 1.18806 4.2241 0
M  V30 6221 H 580.346 0.295862 0.646519 0
M  V30 6222 H 582.948 1.3807 1.38408 0
M  V30 6223 H 581.652 2.37847 3.3445 0
M  V30 6224 H 581.183 0.751371 3.86158 0
M  V30 6225 H 583.198 0.129865 4.9603 0
M  V30 6226 N 582.371 -1.3172 0.865308 0
M  V30 6227 C 583.599 -2.01057 0.488251 0
M  V30 6228 C 584.014 -1.64979 -0.918 0
M  V30 6229 O 583.371 -0.876597 -1.60069 0
M  V30 6230 C 583.422 -3.55964 0.630224 0
M  V30 6231 O 583.143 -3.90749 1.98109 0
M  V30 6232 C 584.644 -4.42574 0.253567 0
M  V30 6233 H 581.864 -0.64332 0.190736 0
M  V30 6234 H 584.408 -1.68058 1.16519 0
M  V30 6235 H 582.563 -3.874 0.000895422 0
M  V30 6236 H 582.977 -4.85467 1.9855 0
M  V30 6237 H 584.451 -5.50521 0.403875 0
M  V30 6238 H 584.928 -4.31724 -0.806895 0
M  V30 6239 H 585.534 -4.16547 0.858404 0
M  V30 6240 N 583.85 -0.624285 -1.44708 0
M  V30 6241 C 584.797 0.0847135 -2.30644 0
M  V30 6242 C 585.767 0.843575 -1.43084 0
M  V30 6243 O 586.952 0.825982 -1.71995 0
M  V30 6244 C 584.091 1.06495 -3.28257 0
M  V30 6245 C 583.205 0.305224 -4.3092 0
M  V30 6246 C 582.34 1.27667 -5.1563 0
M  V30 6247 C 581.379 0.505706 -6.10007 0
M  V30 6248 N 580.516 1.42727 -6.8744 0
M  V30 6249 H 585.356 -0.654068 -2.90733 0
M  V30 6250 H 582.893 -0.334334 -1.4325 0
M  V30 6251 H 584.851 1.64658 -3.83332 0
M  V30 6252 H 583.481 1.77094 -2.69884 0
M  V30 6253 H 582.533 -0.392207 -3.78373 0
M  V30 6254 H 583.845 -0.295553 -4.97924 0
M  V30 6255 H 582.999 1.92984 -5.75189 0
M  V30 6256 H 581.738 1.91137 -4.48685 0
M  V30 6257 H 580.743 -0.160999 -5.49564 0
M  V30 6258 H 581.968 -0.124183 -6.78986 0
M  V30 6259 H 579.913 2.04931 -6.23169 0
M  V30 6260 H 579.831 0.880345 -7.50857 0
M  V30 6261 H 581.099 2.0695 -7.51526 0
M  V30 6262 N 585.328 1.53329 -0.364422 0
M  V30 6263 C 586.276 2.27212 0.497737 0
M  V30 6264 C 587.27 1.30146 1.08437 0
M  V30 6265 O 588.476 1.47778 1.0277 0
M  V30 6266 H 584.851 0.730329 0.179232 0
M  V30 6267 H 586.822 2.98037 -0.147182 0
M  V30 6268 C 585.571 3.07333 1.6261 0
M  V30 6269 H 584.894 3.81866 1.184 0
M  V30 6270 H 586.334 3.62209 2.20409 0
M  V30 6271 C 584.793 2.18102 2.56775 0
M  V30 6272 O 585.323 1.79104 3.59562 0
M  V30 6273 N 583.529 1.82759 2.25937 0
M  V30 6274 H 583.076 2.14671 1.42387 0
M  V30 6275 H 583.034 1.23342 2.89196 0
M  V30 6276 N 586.806 0.0935595 1.57322 0
M  V30 6277 C 588.054 -0.569383 1.93913 0
M  V30 6278 C 588.375 -1.68817 0.976009 0
M  V30 6279 O 587.645 -1.9588 0.0278099 0
M  V30 6280 H 586.225 -0.21332 0.715894 0
M  V30 6281 H 588.887 0.156531 1.9427 0
M  V30 6282 H 587.983 -0.980577 2.96296 0
M  V30 6283 N 588.284 -1.56567 -0.180126 0
M  V30 6284 C 589.509 -1.85975 -0.918041 0
M  V30 6285 C 589.934 -0.678888 -1.75422 0
M  V30 6286 O 589.292 0.372168 -1.77439 0
M  V30 6287 C 589.34 -3.13731 -1.77779 0
M  V30 6288 O 588.444 -2.95335 -2.87838 0
M  V30 6289 H 587.785 -0.61196 -0.257683 0
M  V30 6290 H 590.315 -2.03798 -0.180923 0
M  V30 6291 H 590.325 -3.4491 -2.17948 0
M  V30 6292 H 589 -3.99293 -1.16352 0
M  V30 6293 H 587.577 -2.7549 -2.51316 0
M  V30 6294 N 589.762 0.448376 -1.51087 0
M  V30 6295 C 591.039 1.20926 -1.53741 0
M  V30 6296 C 591.419 2.09025 -0.295222 0
M  V30 6297 O 590.767 2.16851 0.720283 0
M  V30 6298 C 590.977 2.02067 -2.84552 0
M  V30 6299 C 592.325 2.59486 -3.36084 0
M  V30 6300 O 593.349 2.12289 -2.86028 0
M  V30 6301 O 592.208 3.45539 -4.23397 0
M  V30 6302 H 589.302 0.549951 -0.617643 0
M  V30 6303 H 591.848 0.458344 -1.63393 0
M  V30 6304 H 590.62 1.37291 -3.66425 0
M  V30 6305 H 590.243 2.84246 -2.78011 0
M  V30 6306 N 591.24 1.41047 0.703093 0
M  V30 6307 C 592.486 1.40207 1.46526 0
M  V30 6308 C 592.819 0.00847763 1.94198 0
M  V30 6309 O 592.094 -0.962437 1.69019 0
M  V30 6310 C 592.377 2.40238 2.6825 0
M  V30 6311 C 592.23 3.88674 2.26391 0
M  V30 6312 C 593.549 2.37627 3.70434 0
M  V30 6313 H 590.668 0.510594 0.531472 0
M  V30 6314 H 593.31 1.72271 0.801422 0
M  V30 6315 H 591.46 2.13026 3.24888 0
M  V30 6316 H 593.132 4.2676 1.75138 0
M  V30 6317 H 591.375 4.03903 1.58255 0
M  V30 6318 H 592.046 4.542 3.13698 0
M  V30 6319 H 594.522 2.61759 3.23452 0
M  V30 6320 H 593.398 3.09645 4.53223 0
M  V30 6321 H 593.659 1.39223 4.19606 0
M  V30 6322 N 592.718 -0.936591 1.26751 0
M  V30 6323 C 594.129 -1.49816 1.1141 0
M  V30 6324 C 594.48 -1.9383 -0.304015 0
M  V30 6325 O 593.605 -1.80346 -1.196 0
M  V30 6326 C 594.2 -2.72271 2.01629 0
M  V30 6327 C 592.759 -3.2468 1.9042 0
M  V30 6328 C 591.906 -1.97444 1.94708 0
M  V30 6329 H 594.857 -0.751604 1.39773 0
M  V30 6330 H 594.878 -3.46741 1.56688 0
M  V30 6331 H 594.39 -2.40205 3.04833 0
M  V30 6332 H 592.491 -3.61525 0.901674 0
M  V30 6333 H 592.604 -3.91476 2.76195 0
M  V30 6334 H 590.968 -2.13545 1.38818 0
M  V30 6335 H 591.751 -1.67703 2.9955 0
M  V30 6336 N 594.196 -1.08629 -1.14182 0
M  V30 6337 C 595.442 -0.818556 -1.85546 0
M  V30 6338 C 595.775 0.654076 -1.82854 0
M  V30 6339 O 595.05 1.48099 -1.26083 0
M  V30 6340 C 595.333 -1.34397 -3.3408 0
M  V30 6341 C 595.186 -2.8821 -3.45333 0
M  V30 6342 C 596.505 -0.971069 -4.29253 0
M  V30 6343 H 593.624 -0.298821 -0.673702 0
M  V30 6344 H 596.266 -1.34629 -1.34071 0
M  V30 6345 H 594.416 -0.895064 -3.78049 0
M  V30 6346 H 596.088 -3.41488 -3.10134 0
M  V30 6347 H 594.331 -3.25756 -2.86471 0
M  V30 6348 H 595.002 -3.20047 -4.49749 0
M  V30 6349 H 597.478 -1.35809 -3.93313 0
M  V30 6350 H 596.354 -1.36586 -5.31635 0
M  V30 6351 H 596.615 0.121659 -4.41933 0
M  V30 6352 N 595.674 1.31259 -0.872281 0
M  V30 6353 C 596.584 2.32221 -0.333255 0
M  V30 6354 C 597.6 1.6481 0.558013 0
M  V30 6355 O 598.776 1.96212 0.454175 0
M  V30 6356 C 595.841 3.43708 0.454479 0
M  V30 6357 C 594.902 4.26774 -0.465024 0
M  V30 6358 C 594.135 5.32937 0.28521 0
M  V30 6359 O 594.358 5.49968 1.513 0
M  V30 6360 O 593.292 6.00834 -0.358126 0
M  V30 6361 H 597.118 2.80252 -1.17016 0
M  V30 6362 H 594.703 1.352 -0.635724 0
M  V30 6363 H 596.585 4.11656 0.900963 0
M  V30 6364 H 595.26 2.97836 1.26789 0
M  V30 6365 H 594.167 3.61571 -0.960055 0
M  V30 6366 H 595.5 4.76217 -1.2441 0
M  V30 6367 N 597.152 0.631951 1.44375 0
M  V30 6368 C 598.1 -0.0846693 2.32446 0
M  V30 6369 C 599.094 -0.834957 1.47393 0
M  V30 6370 O 600.3 -0.747764 1.63733 0
M  V30 6371 H 596.675 -0.0461508 0.750583 0
M  V30 6372 H 598.646 0.67619 2.90638 0
M  V30 6373 C 597.395 -1.05211 3.314 0
M  V30 6374 H 596.718 -0.484203 3.96857 0
M  V30 6375 H 598.158 -1.523 3.95703 0
M  V30 6376 C 596.617 -2.13776 2.60387 0
M  V30 6377 O 597.147 -3.21869 2.4034 0
M  V30 6378 N 595.353 -1.89733 2.20113 0
M  V30 6379 H 594.9 -1.01833 2.36618 0
M  V30 6380 H 594.858 -2.62572 1.72926 0
M  V30 6381 N 598.631 -1.53133 0.372548 0
M  V30 6382 C 599.561 -2.28876 -0.462412 0
M  V30 6383 C 600.542 -1.31583 -1.07796 0
M  V30 6384 O 601.727 -1.60461 -1.09389 0
M  V30 6385 C 598.857 -3.08317 -1.59868 0
M  V30 6386 C 597.811 -4.13355 -1.11003 0
M  V30 6387 C 597.137 -4.8092 -2.33708 0
M  V30 6388 C 598.437 -5.21955 -0.18983 0
M  V30 6389 H 600.131 -2.9892 0.169511 0
M  V30 6390 H 597.677 -1.43761 0.0829658 0
M  V30 6391 H 599.63 -3.60055 -2.18949 0
M  V30 6392 H 598.354 -2.35976 -2.25794 0
M  V30 6393 H 597.013 -3.62573 -0.541869 0
M  V30 6394 H 596.661 -4.05144 -2.98106 0
M  V30 6395 H 596.361 -5.51904 -2.01682 0
M  V30 6396 H 597.885 -5.35455 -2.93462 0
M  V30 6397 H 599.299 -5.69153 -0.688319 0
M  V30 6398 H 597.696 -6.00087 0.0398887 0
M  V30 6399 H 598.766 -4.78811 0.766057 0
M  V30 6400 N 600.109 -0.101901 -1.5727 0
M  V30 6401 C 601.339 0.567568 -1.98651 0
M  V30 6402 C 601.747 1.61839 -0.980037 0
M  V30 6403 O 601.09 1.83661 0.0376564 0
M  V30 6404 C 601.152 1.26742 -3.36417 0
M  V30 6405 C 600.816 0.366561 -4.55528 0
M  V30 6406 C 601.813 -0.388022 -5.1845 0
M  V30 6407 C 599.498 0.282629 -5.01504 0
M  V30 6408 C 601.492 -1.21445 -6.25724 0
M  V30 6409 C 599.179 -0.547443 -6.08643 0
M  V30 6410 C 600.177 -1.29462 -6.70618 0
M  V30 6411 O 599.865 -2.11095 -7.7569 0
M  V30 6412 H 599.597 0.156282 -0.657687 0
M  V30 6413 H 602.151 -0.179912 -2.04611 0
M  V30 6414 H 600.381 2.06162 -3.27161 0
M  V30 6415 H 602.07 1.8321 -3.622 0
M  V30 6416 H 602.836 -0.332949 -4.83856 0
M  V30 6417 H 598.715 0.853868 -4.53023 0
M  V30 6418 H 602.259 -1.79814 -6.74027 0
M  V30 6419 H 598.156 -0.603971 -6.42668 0
M  V30 6420 H 598.924 -2.03851 -7.92709 0
M  V30 6421 N 601.587 1.56661 0.17182 0
M  V30 6422 C 602.998 1.71652 0.734329 0
M  V30 6423 C 603.349 0.712335 1.82812 0
M  V30 6424 O 602.474 -0.126401 2.16031 0
M  V30 6425 C 603.069 3.11226 1.3388 0
M  V30 6426 C 601.628 3.27904 1.84813 0
M  V30 6427 C 600.775 2.67603 0.726917 0
M  V30 6428 H 603.726 1.5861 -0.0535665 0
M  V30 6429 H 603.747 3.09849 2.20849 0
M  V30 6430 H 603.259 3.8429 0.54249 0
M  V30 6431 H 601.36 2.59796 2.6709 0
M  V30 6432 H 601.473 4.35637 1.99392 0
M  V30 6433 H 599.837 2.274 1.14723 0
M  V30 6434 H 600.62 3.43252 -0.0575334 0
M  V30 6435 N 603.065 -0.440357 1.51323 0
M  V30 6436 C 604.29 -1.21716 1.67928 0
M  V30 6437 C 604.715 -1.84328 0.374826 0
M  V30 6438 O 604.073 -1.68675 -0.664706 0
M  V30 6439 C 604.121 -2.27914 2.79442 0
M  V30 6440 O 603.225 -3.33325 2.42834 0
M  V30 6441 H 602.566 -0.35674 0.560029 0
M  V30 6442 H 605.096 -0.520417 1.97871 0
M  V30 6443 H 605.106 -2.72746 3.03436 0
M  V30 6444 H 603.781 -1.8172 3.741 0
M  V30 6445 H 602.358 -2.9399 2.294 0
M  V30 6446 N 604.543 -1.41418 -0.695603 0
M  V30 6447 C 605.49 -1.43264 -1.80954 0
M  V30 6448 C 606.46 -0.287016 -1.63601 0
M  V30 6449 O 607.645 -0.488054 -1.84452 0
M  V30 6450 C 604.785 -1.32054 -3.18835 0
M  V30 6451 C 603.898 -2.56485 -3.4762 0
M  V30 6452 C 603.033 -2.3757 -4.75115 0
M  V30 6453 C 602.072 -3.57477 -4.96867 0
M  V30 6454 N 601.209 -3.37632 -6.15588 0
M  V30 6455 H 606.049 -2.38467 -1.78711 0
M  V30 6456 H 603.586 -1.18415 -0.872715 0
M  V30 6457 H 605.544 -1.23558 -3.98484 0
M  V30 6458 H 604.174 -0.404592 -3.20254 0
M  V30 6459 H 603.226 -2.75432 -2.62376 0
M  V30 6460 H 604.538 -3.45678 -3.59594 0
M  V30 6461 H 603.692 -2.2654 -5.62818 0
M  V30 6462 H 602.431 -1.45834 -4.65386 0
M  V30 6463 H 601.436 -3.68961 -4.07612 0
M  V30 6464 H 602.661 -4.50167 -5.08455 0
M  V30 6465 H 600.607 -2.48596 -6.07072 0
M  V30 6466 H 600.524 -4.20401 -6.2833 0
M  V30 6467 H 601.792 -3.30375 -7.06026 0
M  V30 6468 N 606.021 0.929856 -1.27246 0
M  V30 6469 C 607.251 1.70895 -1.16096 0
M  V30 6470 C 607.659 1.87039 0.285122 0
M  V30 6471 O 607.002 1.38557 1.20614 0
M  V30 6472 C 607.064 3.12919 -1.7698 0
M  V30 6473 C 606.728 3.2012 -3.26148 0
M  V30 6474 C 607.725 3.02533 -4.22812 0
M  V30 6475 C 605.41 3.43148 -3.66817 0
M  V30 6476 C 607.404 3.07861 -5.58122 0
M  V30 6477 C 605.091 3.48109 -5.02258 0
M  V30 6478 C 606.089 3.30483 -5.97721 0
M  V30 6479 O 605.777 3.35175 -7.30694 0
M  V30 6480 H 605.509 0.54152 -0.404639 0
M  V30 6481 H 608.063 1.17342 -1.68582 0
M  V30 6482 H 606.293 3.67945 -1.18969 0
M  V30 6483 H 607.982 3.72787 -1.60576 0
M  V30 6484 H 608.748 2.84586 -3.92728 0
M  V30 6485 H 604.627 3.55918 -2.9299 0
M  V30 6486 H 608.171 2.94021 -6.32612 0
M  V30 6487 H 604.068 3.65579 -5.31998 0
M  V30 6488 H 604.836 3.51644 -7.39114 0
M  V30 6489 N 607.499 1.09233 1.13605 0
M  V30 6490 C 608.727 0.848908 1.88683 0
M  V30 6491 C 609.142 -0.599667 1.79024 0
M  V30 6492 O 608.499 -1.41265 1.15544 0
M  V30 6493 C 608.55 1.27273 3.38355 0
M  V30 6494 O 608.271 2.66449 3.47759 0
M  V30 6495 C 609.772 1.0614 4.30406 0
M  V30 6496 H 606.992 0.305549 0.597395 0
M  V30 6497 H 609.536 1.4538 1.43823 0
M  V30 6498 H 607.691 0.711776 3.80805 0
M  V30 6499 H 608.105 2.84264 4.40788 0
M  V30 6500 H 609.579 1.40725 5.33761 0
M  V30 6501 H 610.056 -0.000960332 4.392 0
M  V30 6502 H 610.662 1.60821 3.93722 0
M  V30 6503 N 608.977 -1.30795 0.87923 0
M  V30 6504 C 609.909 -2.27241 0.299025 0
M  V30 6505 C 610.922 -1.53472 -0.543166 0
M  V30 6506 O 612.111 -1.74756 -0.363651 0
M  V30 6507 C 609.211 -3.33655 -0.593931 0
M  V30 6508 C 608.384 -4.36857 0.2179 0
M  V30 6509 C 607.443 -5.22715 -0.604646 0
M  V30 6510 O 606.469 -5.69192 -0.0293838 0
M  V30 6511 N 607.671 -5.48008 -1.91488 0
M  V30 6512 H 610.436 -2.77667 1.12788 0
M  V30 6513 H 607.997 -1.43914 0.741637 0
M  V30 6514 H 609.989 -3.88013 -1.15012 0
M  V30 6515 H 608.559 -2.83202 -1.32346 0
M  V30 6516 H 607.779 -3.82444 0.955536 0
M  V30 6517 H 609.067 -5.02869 0.774614 0
M  V30 6518 H 608.465 -5.1202 -2.40525 0
M  V30 6519 H 607.022 -6.05264 -2.41864 0
M  V30 6520 N 610.455 -0.639598 -1.44038 0
M  V30 6521 C 611.387 0.0987684 -2.28987 0
M  V30 6522 C 612.4 0.80058 -1.41755 0
M  V30 6523 O 613.589 0.660611 -1.65826 0
M  V30 6524 C 610.689 1.16242 -3.18341 0
M  V30 6525 C 609.862 0.541447 -4.34036 0
M  V30 6526 C 608.921 1.50017 -5.04362 0
M  V30 6527 O 607.947 1.01403 -5.60095 0
M  V30 6528 N 609.149 2.83441 -5.06598 0
M  V30 6529 H 611.914 -0.630305 -2.92997 0
M  V30 6530 H 609.475 -0.481376 -1.54578 0
M  V30 6531 H 611.467 1.80429 -3.62253 0
M  V30 6532 H 610.037 1.79362 -2.56024 0
M  V30 6533 H 609.257 -0.27923 -3.9321 0
M  V30 6534 H 610.545 0.107379 -5.08687 0
M  V30 6535 H 609.943 3.2551 -4.62666 0
M  V30 6536 H 608.5 3.42966 -5.54272 0
M  V30 6537 N 611.933 1.52934 -0.380664 0
M  V30 6538 C 613.179 2.01765 0.20458 0
M  V30 6539 C 613.512 1.26696 1.47179 0
M  V30 6540 O 612.787 0.364936 1.91046 0
M  V30 6541 C 613.07 3.56869 0.481269 0
M  V30 6542 C 612.923 4.42617 -0.800629 0
M  V30 6543 C 614.242 4.2121 1.27554 0
M  V30 6544 H 611.361 0.733388 0.0728803 0
M  V30 6545 H 614.003 1.83068 -0.50853 0
M  V30 6546 H 612.153 3.72932 1.08875 0
M  V30 6547 H 613.825 4.38323 -1.43773 0
M  V30 6548 H 612.068 4.09977 -1.4178 0
M  V30 6549 H 612.739 5.49134 -0.561791 0
M  V30 6550 H 615.215 4.09072 0.761514 0
M  V30 6551 H 614.091 5.29732 1.43788 0
M  V30 6552 H 614.352 3.78269 2.28833 0
M  V30 6553 N 613.412 0.11024 1.57214 0
M  V30 6554 C 614.652 -0.553061 1.96775 0
M  V30 6555 C 615.016 -1.64403 0.991753 0
M  V30 6556 O 616.217 -2.36561 1.27642 0
M  V30 6557 C 614.488 -1.08004 3.4069 0
M  V30 6558 S 616.047 -1.75309 4.02259 0
M  V30 6559 H 612.865 -0.18003 0.68783 0
M  V30 6560 H 615.467 0.193242 1.94543 0
M  V30 6561 H 614.171 -0.274735 4.09479 0
M  V30 6562 H 613.702 -1.86182 3.46554 0
M  V30 6563 H 615.717 -3.03834 3.923 0
M  V30 6564 N 614.89 -1.56749 -0.16351 0
M  V30 6565 C 616.139 -1.81626 -0.877211 0
M  V30 6566 C 616.452 -0.688791 -1.83071 0
M  V30 6567 O 617.658 -0.822697 -2.58735 0
M  V30 6568 C 616.114 -3.21858 -1.61045 0
M  V30 6569 C 615.722 -4.42494 -0.700195 0
M  V30 6570 C 617.466 -3.56021 -2.31192 0
M  V30 6571 C 615.373 -5.73748 -1.43412 0
M  V30 6572 H 614.303 -0.67731 -0.331312 0
M  V30 6573 H 616.954 -1.83039 -0.13006 0
M  V30 6574 H 615.336 -3.14784 -2.40264 0
M  V30 6575 H 616.51 -4.60766 0.0555849 0
M  V30 6576 H 614.825 -4.1626 -0.10799 0
M  V30 6577 H 617.422 -4.51333 -2.8671 0
M  V30 6578 H 617.765 -2.81277 -3.06902 0
M  V30 6579 H 618.298 -3.64682 -1.58909 0
M  V30 6580 H 615.037 -6.51543 -0.719186 0
M  V30 6581 H 614.557 -5.5944 -2.16302 0
M  V30 6582 H 616.236 -6.15975 -1.9795 0
M  V30 6583 N 616.368 0.432326 -1.51554 0
M  V30 6584 C 617.318 1.52366 -1.69614 0
M  V30 6585 C 618.302 1.51205 -0.550083 0
M  V30 6586 O 619.494 1.57573 -0.806206 0
M  V30 6587 C 616.623 2.90513 -1.82913 0
M  V30 6588 C 615.709 2.9641 -3.03318 0
M  V30 6589 N 616.1 2.72043 -4.26411 0
M  V30 6590 C 614.398 3.27572 -3.02675 0
M  V30 6591 C 615.099 2.83912 -5.07709 0
M  V30 6592 N 614.075 3.15798 -4.42462 0
M  V30 6593 H 617.877 1.32285 -2.62446 0
M  V30 6594 H 615.391 0.639708 -1.4927 0
M  V30 6595 H 617.388 3.69032 -1.93962 0
M  V30 6596 H 616.048 3.1161 -0.912655 0
M  V30 6597 H 617.059 2.46876 -4.55272 0
M  V30 6598 H 613.736 3.54411 -2.20678 0
M  V30 6599 H 615.126 2.68984 -6.15709 0
M  V30 6600 N 617.846 1.41785 0.688094 0
M  V30 6601 C 619.071 1.45117 1.48175 0
M  V30 6602 C 619.496 0.060129 1.88004 0
M  V30 6603 O 618.854 -0.938385 1.55126 0
M  V30 6604 C 618.902 2.37224 2.71583 0
M  V30 6605 O 618.006 1.83443 3.69354 0
M  V30 6606 H 617.347 0.492208 0.445676 0
M  V30 6607 H 619.877 1.86329 0.845145 0
M  V30 6608 H 619.887 2.53353 3.19806 0
M  V30 6609 H 618.562 3.38293 2.41931 0
M  V30 6610 H 617.139 1.76802 3.28322 0
M  V30 6611 N 619.324 -0.923095 1.27737 0
M  V30 6612 C 620.564 -1.6858 1.15586 0
M  V30 6613 C 620.928 -1.89758 -0.292562 0
M  V30 6614 O 622.129 -2.6339 -0.536583 0
M  V30 6615 C 620.4 -3.01275 1.92271 0
M  V30 6616 S 621.959 -3.924 1.96387 0
M  V30 6617 H 618.777 -0.579069 0.412554 0
M  V30 6618 H 621.379 -1.09866 1.61709 0
M  V30 6619 H 620.083 -2.83556 2.96689 0
M  V30 6620 H 619.614 -3.6504 1.46661 0
M  V30 6621 H 621.629 -4.84667 1.06361 0
M  V30 6622 N 620.802 -1.09834 -1.13024 0
M  V30 6623 C 622.049 -0.83695 -1.84395 0
M  V30 6624 C 622.377 0.637463 -1.83757 0
M  V30 6625 O 621.632 1.48554 -1.27398 0
M  V30 6626 C 621.931 -1.32263 -3.32026 0
M  V30 6627 C 621.597 -2.80739 -3.52841 0
M  V30 6628 C 620.259 -3.21286 -3.5823 0
M  V30 6629 C 622.611 -3.76449 -3.60466 0
M  V30 6630 C 619.939 -4.56308 -3.68781 0
M  V30 6631 C 622.291 -5.11266 -3.72546 0
M  V30 6632 C 620.955 -5.51397 -3.76189 0
M  V30 6633 H 620.225 -0.306262 -0.674748 0
M  V30 6634 H 622.872 -1.37385 -1.33408 0
M  V30 6635 H 621.177 -0.705618 -3.85394 0
M  V30 6636 H 622.874 -1.09695 -3.85705 0
M  V30 6637 H 619.464 -2.48363 -3.49305 0
M  V30 6638 H 623.648 -3.46234 -3.55578 0
M  V30 6639 H 618.904 -4.86832 -3.69871 0
M  V30 6640 H 623.078 -5.85279 -3.77388 0
M  V30 6641 H 620.705 -6.56017 -3.84117 0
M  V30 6642 N 622.28 1.30327 -0.886154 0
M  V30 6643 C 623.212 2.27079 -0.311072 0
M  V30 6644 C 624.225 1.53758 0.53502 0
M  V30 6645 O 625.414 1.74947 0.354378 0
M  V30 6646 C 622.514 3.33965 0.576228 0
M  V30 6647 C 621.687 4.36735 -0.241064 0
M  V30 6648 C 620.746 5.23028 0.576916 0
M  V30 6649 O 619.772 5.692 -0.000802231 0
M  V30 6650 N 620.974 5.49016 1.88579 0
M  V30 6651 H 623.739 2.77065 -1.14259 0
M  V30 6652 H 621.3 1.43519 -0.749258 0
M  V30 6653 H 623.292 3.88618 1.12953 0
M  V30 6654 H 621.862 2.839 1.30842 0
M  V30 6655 H 621.082 3.81932 -0.975805 0
M  V30 6656 H 622.37 5.02451 -0.801272 0
M  V30 6657 H 621.768 5.13288 2.37806 0
M  V30 6658 H 620.325 6.06539 2.38651 0
M  V30 6659 N 623.758 0.647228 1.43697 0
M  V30 6660 C 624.668 -0.0487997 2.34549 0
M  V30 6661 C 625.684 -0.818586 1.53542 0
M  V30 6662 O 626.86 -0.767195 1.86215 0
M  V30 6663 C 623.925 -1.00734 3.31743 0
M  V30 6664 C 622.986 -0.23515 4.28655 0
M  V30 6665 C 622.219 -1.14803 5.21206 0
M  V30 6666 O 622.442 -2.38717 5.18045 0
M  V30 6667 O 621.376 -0.623667 5.9866 0
M  V30 6668 H 625.202 0.698863 2.9555 0
M  V30 6669 H 622.787 0.407412 1.43738 0
M  V30 6670 H 624.669 -1.55837 3.91526 0
M  V30 6671 H 623.344 -1.73534 2.73254 0
M  V30 6672 H 622.251 0.359319 3.7237 0
M  V30 6673 H 623.584 0.453152 4.9011 0
M  V30 6674 N 625.236 -1.5273 0.388769 0
M  V30 6675 C 626.461 -2.0647 -0.19621 0
M  V30 6676 C 626.886 -1.25865 -1.39784 0
M  V30 6677 O 626.244 -0.283562 -1.79069 0
M  V30 6678 C 626.292 -3.56456 -0.5451 0
M  V30 6679 O 625.396 -3.78426 -1.63912 0
M  V30 6680 H 624.737 -0.663599 -0.023067 0
M  V30 6681 H 627.267 -1.96898 0.556084 0
M  V30 6682 H 627.277 -3.99888 -0.809557 0
M  V30 6683 H 625.952 -4.14561 0.333417 0
M  V30 6684 H 624.529 -3.46884 -1.36842 0
M  V30 6685 N 626.714 -0.118576 -1.57153 0
M  V30 6686 C 627.647 0.869046 -2.11004 0
M  V30 6687 C 628.625 1.26115 -1.02634 0
M  V30 6688 O 629.809 1.36228 -1.30285 0
M  V30 6689 C 626.936 2.16297 -2.6064 0
M  V30 6690 C 625.982 1.91896 -3.80891 0
M  V30 6691 S 626.815 1.13562 -5.2332 0
M  V30 6692 C 627.971 2.44135 -5.76324 0
M  V30 6693 H 628.204 0.411005 -2.94445 0
M  V30 6694 H 625.737 0.0951891 -1.54106 0
M  V30 6695 H 627.695 2.90642 -2.89892 0
M  V30 6696 H 626.356 2.59219 -1.77382 0
M  V30 6697 H 625.549 2.8777 -4.13768 0
M  V30 6698 H 625.151 1.25672 -3.52253 0
M  V30 6699 H 627.443 3.39976 -5.86022 0
M  V30 6700 H 628.386 2.15803 -6.74414 0
M  V30 6701 H 628.794 2.53483 -5.04387 0
M  V30 6702 N 628.193 1.56834 0.155195 0
M  V30 6703 C 629.442 1.82088 0.867567 0
M  V30 6704 C 629.755 0.69849 1.82703 0
M  V30 6705 O 630.961 0.836407 2.58295 0
M  V30 6706 C 629.417 3.22707 1.59336 0
M  V30 6707 C 629.025 4.42859 0.676719 0
M  V30 6708 C 630.769 3.57242 2.293 0
M  V30 6709 C 628.676 5.74501 1.40367 0
M  V30 6710 H 627.606 0.679057 0.327715 0
M  V30 6711 H 630.257 1.83105 0.120351 0
M  V30 6712 H 628.639 3.16054 2.38591 0
M  V30 6713 H 629.813 4.60731 -0.0800196 0
M  V30 6714 H 628.128 4.16311 0.0859129 0
M  V30 6715 H 630.725 4.52847 2.84312 0
M  V30 6716 H 631.068 2.82901 3.05406 0
M  V30 6717 H 631.601 3.6552 1.56972 0
M  V30 6718 H 628.34 6.51915 0.684623 0
M  V30 6719 H 627.86 5.60579 2.13332 0
M  V30 6720 H 629.539 6.17016 1.94681 0
M  V30 6721 N 629.671 -0.424282 1.51781 0
M  V30 6722 C 630.618 -1.51591 1.74037 0
M  V30 6723 C 631.588 -1.55556 0.582358 0
M  V30 6724 O 632.773 -1.72364 0.818245 0
M  V30 6725 C 629.913 -2.89188 1.8832 0
M  V30 6726 C 629.026 -2.9465 3.1592 0
M  V30 6727 C 628.161 -4.23452 3.20721 0
M  V30 6728 C 627.2 -4.22831 4.42584 0
M  V30 6729 N 626.337 -5.43178 4.44862 0
M  V30 6730 H 631.177 -1.31917 2.67212 0
M  V30 6731 H 628.714 -0.640599 1.32419 0
M  V30 6732 H 630.672 -3.69044 1.94583 0
M  V30 6733 H 629.302 -3.07392 0.985402 0
M  V30 6734 H 628.354 -2.07378 3.18902 0
M  V30 6735 H 629.666 -2.90055 4.05795 0
M  V30 6736 H 628.82 -5.1169 3.25973 0
M  V30 6737 H 627.559 -4.30722 2.28757 0
M  V30 6738 H 626.564 -3.32984 4.37495 0
M  V30 6739 H 627.789 -4.17213 5.35826 0
M  V30 6740 H 625.735 -5.51145 3.55775 0
M  V30 6741 H 625.652 -5.40515 5.28563 0
M  V30 6742 H 626.92 -6.33412 4.54324 0
M  V30 6743 N 631.149 -1.42148 -0.680565 0
M  V30 6744 C 632.059 -1.47565 -1.82378 0
M  V30 6745 C 633.075 -0.36489 -1.70131 0
M  V30 6746 O 634.251 -0.614916 -1.91783 0
M  V30 6747 C 631.316 -1.37013 -3.18478 0
M  V30 6748 C 630.377 -2.58532 -3.42724 0
M  V30 6749 C 629.61 -2.48473 -4.72331 0
M  V30 6750 O 629.833 -1.51745 -5.49845 0
M  V30 6751 O 628.767 -3.38503 -4.97694 0
M  V30 6752 H 632.593 -2.44045 -1.80764 0
M  V30 6753 H 630.178 -1.23849 -0.835569 0
M  V30 6754 H 632.06 -1.33468 -3.99705 0
M  V30 6755 H 630.735 -0.436552 -3.20743 0
M  V30 6756 H 629.642 -2.67652 -2.61368 0
M  V30 6757 H 630.975 -3.50769 -3.45286 0
M  V30 6758 N 632.627 0.916307 -1.28225 0
M  V30 6759 C 633.867 1.67964 -1.16479 0
M  V30 6760 C 634.231 1.8991 0.282494 0
M  V30 6761 O 635.432 2.63671 0.522607 0
M  V30 6762 C 633.703 3.00251 -1.93866 0
M  V30 6763 S 635.262 3.91353 -1.98465 0
M  V30 6764 H 632.08 0.576873 -0.415619 0
M  V30 6765 H 634.682 1.09006 -1.62289 0
M  V30 6766 H 633.386 2.81978 -2.98189 0
M  V30 6767 H 632.917 3.64257 -1.48595 0
M  V30 6768 H 634.932 4.84096 -1.0893 0
M  V30 6769 N 634.105 1.10431 1.1244 0
M  V30 6770 C 635.353 0.845045 1.83585 0
M  V30 6771 C 635.674 -0.631168 1.84503 0
M  V30 6772 O 634.944 -1.45825 1.30813 0
M  V30 6773 H 633.524 0.309628 0.679809 0
M  V30 6774 H 636.186 1.39458 1.36153 0
M  V30 6775 H 635.282 1.20786 2.8778 0
M  V30 6776 N 635.583 -1.29855 0.893053 0
M  V30 6777 C 636.823 -1.97612 0.522399 0
M  V30 6778 C 637.187 -1.68903 -0.913 0
M  V30 6779 O 638.388 -2.30059 -1.39019 0
M  V30 6780 C 636.659 -3.48356 0.79893 0
M  V30 6781 S 638.218 -4.35568 0.531588 0
M  V30 6782 H 635.036 -0.684005 0.194058 0
M  V30 6783 H 637.638 -1.57803 1.15406 0
M  V30 6784 H 636.342 -3.66743 1.84196 0
M  V30 6785 H 635.873 -3.93094 0.155133 0
M  V30 6786 H 637.888 -4.92232 -0.626295 0
M  V30 6787 N 637.061 -0.65484 -1.43351 0
M  V30 6788 C 638.024 0.0263562 -2.29185 0
M  V30 6789 C 639.024 0.748951 -1.42293 0
M  V30 6790 O 640.214 0.589957 -1.63906 0
M  V30 6791 C 637.346 1.04806 -3.2439 0
M  V30 6792 H 638.539 -0.728883 -2.90908 0
M  V30 6793 H 636.092 -0.416149 -1.50658 0
M  V30 6794 H 636.827 1.83247 -2.67565 0
M  V30 6795 H 636.612 0.533554 -3.88453 0
M  V30 6796 H 638.102 1.52372 -3.88809 0
M  V30 6797 N 638.539 1.52521 -0.396863 0
M  V30 6798 C 639.769 2.05792 0.182485 0
M  V30 6799 C 640.177 1.26784 1.40436 0
M  V30 6800 O 639.52 0.309617 1.81072 0
M  V30 6801 C 639.582 3.54291 0.609781 0
M  V30 6802 C 639.246 4.5426 -0.499674 0
M  V30 6803 C 640.243 5.01812 -1.35944 0
M  V30 6804 C 637.928 4.97827 -0.668864 0
M  V30 6805 C 639.922 5.91562 -2.37346 0
M  V30 6806 C 637.609 5.87376 -1.68621 0
M  V30 6807 C 638.607 6.34137 -2.53692 0
M  V30 6808 O 638.295 7.21915 -3.53686 0
M  V30 6809 H 638.027 0.675362 0.0293583 0
M  V30 6810 H 640.581 1.97539 -0.56281 0
M  V30 6811 H 638.811 3.60188 1.40717 0
M  V30 6812 H 640.5 3.90267 1.11565 0
M  V30 6813 H 641.266 4.68879 -1.24008 0
M  V30 6814 H 637.145 4.60997 -0.0163971 0
M  V30 6815 H 640.689 6.27983 -3.03782 0
M  V30 6816 H 636.586 6.19723 -1.80593 0
M  V30 6817 H 637.354 7.39996 -3.49784 0
M  V30 6818 N 640.017 0.126909 1.57088 0
M  V30 6819 C 641.266 -0.529024 1.94639 0
M  V30 6820 C 641.579 -1.67323 1.01304 0
M  V30 6821 O 642.785 -2.39245 1.28352 0
M  V30 6822 C 641.241 -0.992483 3.45945 0
M  V30 6823 C 640.849 0.123691 4.47829 0
M  V30 6824 C 642.593 -1.61934 3.924 0
M  V30 6825 C 640.5 -0.356911 5.90322 0
M  V30 6826 H 639.43 -0.201397 0.726605 0
M  V30 6827 H 642.081 0.208032 1.82317 0
M  V30 6828 H 640.463 -1.7842 3.53528 0
M  V30 6829 H 641.637 0.900168 4.51922 0
M  V30 6830 H 639.952 0.657699 4.11173 0
M  V30 6831 H 642.549 -1.9902 4.96281 0
M  V30 6832 H 642.892 -2.50075 3.32819 0
M  V30 6833 H 643.425 -0.892894 3.8765 0
M  V30 6834 H 640.164 0.488636 6.53676 0
M  V30 6835 H 639.684 -1.0997 5.89633 0
M  V30 6836 H 641.363 -0.815547 6.41839 0
M  V30 6837 N 641.495 -1.56914 -0.146875 0
M  V30 6838 C 642.742 -1.83356 -0.859467 0
M  V30 6839 C 643.07 -0.707811 -1.81164 0
M  V30 6840 O 642.325 0.303155 -1.93338 0
M  V30 6841 C 642.624 -3.16128 -1.66727 0
M  V30 6842 C 642.29 -4.42586 -0.861881 0
M  V30 6843 C 640.952 -4.76929 -0.639687 0
M  V30 6844 C 643.304 -5.20344 -0.298643 0
M  V30 6845 C 640.632 -5.86491 0.156451 0
M  V30 6846 C 642.984 -6.30742 0.484536 0
M  V30 6847 C 641.648 -6.63635 0.717306 0
M  V30 6848 H 640.918 -0.670947 -0.314501 0
M  V30 6849 H 643.565 -1.91104 -0.123108 0
M  V30 6850 H 641.87 -3.03831 -2.47374 0
M  V30 6851 H 643.567 -3.33802 -2.2221 0
M  V30 6852 H 640.157 -4.15662 -1.04513 0
M  V30 6853 H 644.341 -4.94186 -0.457585 0
M  V30 6854 H 639.597 -6.10419 0.346292 0
M  V30 6855 H 643.771 -6.90188 0.928105 0
M  V30 6856 H 641.398 -7.48367 1.33607 0
M  V30 6857 N 642.974 0.416227 -1.52004 0
M  V30 6858 C 644.204 1.18401 -1.69307 0
M  V30 6859 C 644.612 1.84943 -0.399072 0
M  V30 6860 O 643.955 1.72406 0.634177 0
M  V30 6861 C 644.017 2.29465 -2.76742 0
M  V30 6862 C 643.681 1.83117 -4.18709 0
M  V30 6863 C 644.678 1.32286 -5.02789 0
M  V30 6864 C 642.363 1.90167 -4.64911 0
M  V30 6865 C 644.357 0.891178 -6.31139 0
M  V30 6866 C 642.044 1.4661 -5.93253 0
M  V30 6867 C 643.042 0.961696 -6.76196 0
M  V30 6868 O 642.73 0.532388 -8.02135 0
M  V30 6869 H 642.462 0.362098 -0.570843 0
M  V30 6870 H 645.016 0.496764 -1.99302 0
M  V30 6871 H 643.246 3.01531 -2.42107 0
M  V30 6872 H 644.935 2.91252 -2.82713 0
M  V30 6873 H 645.701 1.26218 -4.68288 0
M  V30 6874 H 641.58 2.28371 -4.00459 0
M  V30 6875 H 645.124 0.496788 -6.95829 0
M  V30 6876 H 641.021 1.52355 -6.27263 0
M  V30 6877 H 641.789 0.656339 -8.15864 0
M  V30 6878 N 644.452 1.42507 0.673017 0
M  V30 6879 C 645.863 1.38347 1.25367 0
M  V30 6880 C 646.214 0.0776327 1.96046 0
M  V30 6881 O 645.339 -0.823571 2.00116 0
M  V30 6882 C 645.934 2.506 2.28002 0
M  V30 6883 C 644.493 2.49767 2.81591 0
M  V30 6884 C 643.64 2.293 1.55938 0
M  V30 6885 H 646.591 1.51695 0.466288 0
M  V30 6886 H 646.612 2.20953 3.09774 0
M  V30 6887 H 646.124 3.45627 1.76532 0
M  V30 6888 H 644.225 1.58563 3.37177 0
M  V30 6889 H 644.338 3.46867 3.30485 0
M  V30 6890 H 642.702 1.77594 1.82572 0
M  V30 6891 H 643.485 3.26385 1.06431 0
M  V30 6892 N 645.93 -0.909495 1.28709 0
M  V30 6893 C 647.346 -1.18862 1.06508 0
M  V30 6894 C 647.546 -2.00604 -0.189864 0
M  V30 6895 O 646.602 -2.36281 -0.890355 0
M  V30 6896 C 647.915 -1.91908 2.31499 0
M  V30 6897 C 649.463 -2.04773 2.36721 0
M  V30 6898 C 649.938 -2.81228 3.6149 0
M  V30 6899 N 651.429 -2.88787 3.62155 0
M  V30 6900 C 652.164 -3.48455 4.55375 0
M  V30 6901 N 651.66 -4.09369 5.58918 0
M  V30 6902 N 653.453 -3.46035 4.42963 0
M  V30 6903 H 645.604 -0.363867 2.0926 0
M  V30 6904 H 647.867 -0.223649 0.921241 0
M  V30 6905 H 647.573 -1.39275 3.22948 0
M  V30 6906 H 647.447 -2.92436 2.38245 0
M  V30 6907 H 649.834 -2.56585 1.45767 0
M  V30 6908 H 649.915 -1.03408 2.33967 0
M  V30 6909 H 649.559 -2.30094 4.5279 0
M  V30 6910 H 649.489 -3.82917 3.61499 0
M  V30 6911 H 651.98 -2.45514 2.87283 0
M  V30 6912 H 652.293 -4.52891 6.26187 0
M  V30 6913 H 650.638 -4.0786 5.62739 0
M  V30 6914 H 653.829 -2.9766 3.6127 0
M  V30 6915 H 654.002 -3.92244 5.15799 0
M  V30 6916 N 647.408 -1.11026 -1.11852 0
M  V30 6917 C 648.819 -0.873203 -1.65021 0
M  V30 6918 C 649.17 0.595364 -1.86949 0
M  V30 6919 O 648.295 1.45645 -1.60051 0
M  V30 6920 C 648.89 -1.57859 -2.99777 0
M  V30 6921 C 647.449 -1.38807 -3.49871 0
M  V30 6922 C 646.596 -1.62403 -2.24768 0
M  V30 6923 H 649.547 -1.26712 -0.955503 0
M  V30 6924 H 649.568 -1.02111 -3.66543 0
M  V30 6925 H 649.08 -2.6474 -2.83786 0
M  V30 6926 H 647.181 -0.341163 -3.71035 0
M  V30 6927 H 647.294 -2.13421 -4.28938 0
M  V30 6928 H 645.658 -1.04714 -2.32179 0
M  V30 6929 H 646.441 -2.70549 -2.11324 0
M  V30 6930 N 648.886 1.2938 -0.899927 0
M  V30 6931 C 649.818 2.26737 -0.335139 0
M  V30 6932 C 650.831 1.54316 0.518681 0
M  V30 6933 O 652.02 1.75313 0.335803 0
M  V30 6934 C 649.12 3.34558 0.540774 0
M  V30 6935 C 648.293 4.36455 -0.287372 0
M  V30 6936 C 647.352 5.2361 0.52141 0
M  V30 6937 O 646.378 5.69167 -0.0611735 0
M  V30 6938 N 647.58 5.50985 1.82745 0
M  V30 6939 H 650.345 2.75838 -1.17191 0
M  V30 6940 H 647.906 1.42716 -0.764438 0
M  V30 6941 H 649.898 3.89794 1.08825 0
M  V30 6942 H 648.468 2.85272 1.27823 0
M  V30 6943 H 647.688 3.80875 -1.01626 0
M  V30 6944 H 648.976 5.01573 -0.854518 0
M  V30 6945 H 648.374 5.15781 2.32349 0
M  V30 6946 H 646.931 6.09036 2.32204 0
M  V30 6947 N 650.364 0.662433 1.43002 0
M  V30 6948 C 651.312 -0.035345 2.32573 0
M  V30 6949 C 652.306 -0.803505 1.49131 0
M  V30 6950 O 653.512 -0.712865 1.65282 0
M  V30 6951 H 649.887 -0.0302194 0.751393 0
M  V30 6952 H 651.858 0.737686 2.89138 0
M  V30 6953 C 650.607 -0.981575 3.33557 0
M  V30 6954 H 649.93 -0.399914 3.97795 0
M  V30 6955 H 651.37 -1.43873 3.98844 0
M  V30 6956 C 649.829 -2.08204 2.64863 0
M  V30 6957 O 650.359 -3.16698 2.47113 0
M  V30 6958 N 648.565 -1.85022 2.24088 0
M  V30 6959 H 648.112 -0.967909 2.38724 0
M  V30 6960 H 648.07 -2.58845 1.78457 0
M  V30 6961 N 651.842 -1.52309 0.404946 0
M  V30 6962 C 653.088 -2.02065 -0.172455 0
M  V30 6963 C 653.421 -1.29022 -1.45145 0
M  V30 6964 O 652.696 -0.395284 -1.90441 0
M  V30 6965 C 652.979 -3.5759 -0.424433 0
M  V30 6966 C 652.832 -4.41287 0.870945 0
M  V30 6967 C 654.151 -4.23186 -1.20837 0
M  V30 6968 H 651.27 -0.734454 -0.0612035 0
M  V30 6969 H 653.912 -1.82236 0.53759 0
M  V30 6970 H 652.062 -3.74617 -1.02929 0
M  V30 6971 H 653.734 -4.3598 1.50729 0
M  V30 6972 H 651.977 -4.07669 1.48284 0
M  V30 6973 H 652.648 -5.48171 0.649083 0
M  V30 6974 H 655.124 -4.10232 -0.696338 0
M  V30 6975 H 654 -5.31953 -1.35343 0
M  V30 6976 H 654.261 -3.81862 -2.22786 0
M  V30 6977 N 653.32 -0.135238 -1.57019 0
M  V30 6978 C 654.23 0.822226 -2.19719 0
M  V30 6979 C 655.246 1.28057 -1.17802 0
M  V30 6980 O 656.422 1.3402 -1.50335 0
M  V30 6981 C 653.487 2.0484 -2.79717 0
M  V30 6982 C 652.548 1.64042 -3.96723 0
M  V30 6983 C 651.781 2.80814 -4.53849 0
M  V30 6984 O 652.004 3.967 -4.0986 0
M  V30 6985 O 650.938 2.56963 -5.44292 0
M  V30 6986 H 654.764 0.318552 -3.02025 0
M  V30 6987 H 652.349 0.0912021 -1.49121 0
M  V30 6988 H 654.231 2.76622 -3.17897 0
M  V30 6989 H 652.906 2.54182 -2.00432 0
M  V30 6990 H 651.813 0.893182 -3.63281 0
M  V30 6991 H 653.146 1.19426 -4.77492 0
M  V30 6992 N 654.798 1.5699 0.138552 0
M  V30 6993 C 656.028 1.87704 0.863184 0
M  V30 6994 C 656.436 0.722411 1.74865 0
M  V30 6995 O 655.779 -0.316636 1.80951 0
M  V30 6996 C 655.841 3.13219 1.76449 0
M  V30 6997 C 655.505 4.44648 1.05532 0
M  V30 6998 C 656.502 5.18318 0.405252 0
M  V30 6999 C 654.187 4.91367 1.04231 0
M  V30 7000 C 656.181 6.36916 -0.24835 0
M  V30 7001 C 653.868 6.09887 0.384904 0
M  V30 7002 C 654.866 6.82508 -0.259292 0
M  V30 7003 O 654.554 7.98775 -0.906258 0
M  V30 7004 H 654.286 0.626255 0.254521 0
M  V30 7005 H 656.84 2.04966 0.133472 0
M  V30 7006 H 655.07 2.91988 2.53535 0
M  V30 7007 H 656.759 3.30111 2.36181 0
M  V30 7008 H 657.525 4.83289 0.407053 0
M  V30 7009 H 653.404 4.34759 1.53315 0
M  V30 7010 H 656.948 6.93538 -0.751755 0
M  V30 7011 H 652.845 6.44376 0.380799 0
M  V30 7012 H 653.613 8.14494 -0.80877 0
M  V30 7013 N 656.276 -0.40816 1.52223 0
M  V30 7014 C 657.516 -1.16418 1.68006 0
M  V30 7015 C 657.88 -1.87749 0.401793 0
M  V30 7016 O 659.081 -2.65245 0.435743 0
M  V30 7017 C 657.352 -2.13143 2.86889 0
M  V30 7018 S 658.911 -2.96839 3.2316 0
M  V30 7019 H 655.729 -0.394373 0.5916 0
M  V30 7020 H 658.331 -0.451349 1.90219 0
M  V30 7021 H 657.035 -1.59428 3.78168 0
M  V30 7022 H 656.566 -2.88963 2.66953 0
M  V30 7023 H 658.581 -4.151 2.71857 0
M  V30 7024 N 657.755 -1.42862 -0.66545 0
M  V30 7025 C 659.032 -1.3431 -1.42197 0
M  V30 7026 C 659.412 0.0150265 -2.11095 0
M  V30 7027 O 658.76 1.03101 -2.03918 0
M  V30 7028 C 658.97 -2.51783 -2.41674 0
M  V30 7029 C 660.318 -2.94321 -3.0604 0
M  V30 7030 O 661.342 -2.51741 -2.52001 0
M  V30 7031 O 660.201 -3.68047 -4.03985 0
M  V30 7032 H 657.295 -0.530159 -0.634713 0
M  V30 7033 H 659.841 -1.54888 -0.693386 0
M  V30 7034 H 658.613 -3.42282 -1.89627 0
M  V30 7035 H 658.236 -2.33241 -3.22001 0
M  V30 7036 N 659.233 0.902656 -1.29189 0
M  V30 7037 C 660.463 1.68394 -1.19695 0
M  V30 7038 C 660.871 1.87602 0.245384 0
M  V30 7039 O 660.214 1.41084 1.17648 0
M  V30 7040 C 660.276 3.09094 -1.83578 0
M  V30 7041 C 659.94 3.1313 -3.32864 0
M  V30 7042 C 660.937 2.93497 -4.29134 0
M  V30 7043 C 658.622 3.3529 -3.74013 0
M  V30 7044 C 660.616 2.95953 -5.64527 0
M  V30 7045 C 658.303 3.37377 -5.09529 0
M  V30 7046 C 659.301 3.1773 -6.04596 0
M  V30 7047 O 658.989 3.196 -7.37639 0
M  V30 7048 H 658.721 0.532815 -0.416034 0
M  V30 7049 H 661.275 1.1374 -1.71033 0
M  V30 7050 H 659.505 3.65338 -1.26747 0
M  V30 7051 H 661.194 3.69297 -1.68447 0
M  V30 7052 H 661.96 2.76192 -3.98677 0
M  V30 7053 H 657.839 3.49623 -3.00474 0
M  V30 7054 H 661.383 2.80536 -6.38706 0
M  V30 7055 H 657.28 3.54213 -5.39633 0
M  V30 7056 H 658.048 3.35887 -7.46406 0
M  V30 7057 N 660.711 1.11618 1.11262 0
M  V30 7058 C 662.127 0.850468 1.35053 0
M  V30 7059 C 662.327 -0.523868 1.94571 0
M  V30 7060 O 661.383 -1.2743 2.17986 0
M  V30 7061 C 662.696 1.96005 2.28041 0
M  V30 7062 C 664.244 1.98993 2.416 0
M  V30 7063 C 664.719 3.0916 3.37911 0
M  V30 7064 N 666.21 3.08547 3.45475 0
M  V30 7065 C 666.945 3.9043 4.19943 0
M  V30 7066 N 666.441 4.8228 4.97371 0
M  V30 7067 N 668.234 3.786 4.15474 0
M  V30 7068 H 660.385 2.00184 0.709932 0
M  V30 7069 H 662.648 0.870635 0.375099 0
M  V30 7070 H 662.354 2.9499 1.91503 0
M  V30 7071 H 662.228 1.85782 3.28275 0
M  V30 7072 H 664.615 1.00633 2.77411 0
M  V30 7073 H 664.696 2.13292 1.4121 0
M  V30 7074 H 664.34 4.07748 3.02827 0
M  V30 7075 H 664.27 2.92102 4.3816 0
M  V30 7076 H 666.761 2.42 2.90249 0
M  V30 7077 H 667.074 5.41289 5.51567 0
M  V30 7078 H 665.419 4.863 4.96525 0
M  V30 7079 H 668.61 3.06185 3.54074 0
M  V30 7080 H 668.783 4.42647 4.73253 0
M  V30 7081 N 662.189 -1.289 0.906776 0
M  V30 7082 C 663.136 -2.2751 0.388313 0
M  V30 7083 C 664.106 -1.57301 -0.533439 0
M  V30 7084 O 665.291 -1.85243 -0.457148 0
M  V30 7085 C 662.431 -3.43091 -0.37181 0
M  V30 7086 C 661.544 -4.28066 0.581647 0
M  V30 7087 C 660.679 -5.30837 -0.19623 0
M  V30 7088 C 659.718 -6.07472 0.751294 0
M  V30 7089 N 658.855 -7.021 0.00737727 0
M  V30 7090 H 663.695 -2.71237 1.23428 0
M  V30 7091 H 661.232 -1.33397 0.619962 0
M  V30 7092 H 663.19 -4.08888 -0.828641 0
M  V30 7093 H 661.82 -3.00374 -1.18218 0
M  V30 7094 H 660.872 -3.62378 1.157 0
M  V30 7095 H 662.184 -4.81382 1.30665 0
M  V30 7096 H 661.338 -6.02485 -0.71394 0
M  V30 7097 H 660.077 -4.78272 -0.954324 0
M  V30 7098 H 659.082 -5.34682 1.28044 0
M  V30 7099 H 660.307 -6.62126 1.50883 0
M  V30 7100 H 658.253 -6.51894 -0.732854 0
M  V30 7101 H 658.17 -7.53004 0.672334 0
M  V30 7102 H 659.438 -7.77956 -0.490365 0
M  V30 7103 N 663.667 -0.670007 -1.42649 0
M  V30 7104 C 664.617 0.0339546 -2.27975 0
M  V30 7105 C 665.601 0.778295 -1.40824 0
M  V30 7106 O 666.793 0.657997 -1.64315 0
M  V30 7107 C 663.922 0.987899 -3.28779 0
M  V30 7108 C 663.008 0.241153 -4.23414 0
M  V30 7109 N 663.399 -0.751392 -5.00188 0
M  V30 7110 C 661.697 0.480269 -4.43407 0
M  V30 7111 C 662.398 -1.19615 -5.69269 0
M  V30 7112 N 661.374 -0.527045 -5.41039 0
M  V30 7113 H 665.176 -0.727425 -2.84756 0
M  V30 7114 H 662.69 -0.498673 -1.54554 0
M  V30 7115 H 664.687 1.50716 -3.88703 0
M  V30 7116 H 663.347 1.74916 -2.73559 0
M  V30 7117 H 664.358 -1.13075 -5.05405 0
M  V30 7118 H 661.035 1.2214 -3.99234 0
M  V30 7119 H 662.425 -2.01836 -6.40868 0
M  V30 7120 N 665.145 1.52092 -0.413018 0
M  V30 7121 C 666.37 2.06756 0.163338 0
M  V30 7122 C 666.795 1.28073 1.37764 0
M  V30 7123 O 666.153 0.312015 1.78595 0
M  V30 7124 C 666.201 3.57278 0.488322 0
M  V30 7125 O 665.305 3.80986 1.57871 0
M  V30 7126 H 664.646 0.663882 0.0125068 0
M  V30 7127 H 667.176 1.95988 -0.587339 0
M  V30 7128 H 667.186 4.01125 0.745836 0
M  V30 7129 H 665.861 4.13978 -0.399327 0
M  V30 7130 H 664.438 3.49017 1.31306 0
M  V30 7131 N 666.623 0.143563 1.56945 0
M  V30 7132 C 667.848 -0.518701 2.00809 0
M  V30 7133 C 668.273 -1.5785 1.02298 0
M  V30 7134 O 667.631 -1.813 -0.0017839 0
M  V30 7135 C 667.679 -1.09929 3.43436 0
M  V30 7136 O 666.783 -2.21425 3.47915 0
M  V30 7137 H 666.124 -0.127215 0.6517 0
M  V30 7138 H 668.654 0.239283 2.03196 0
M  V30 7139 H 668.664 -1.4288 3.82164 0
M  V30 7140 H 667.339 -0.323162 4.14643 0
M  V30 7141 H 665.916 -1.89728 3.21026 0
M  V30 7142 N 668.101 -1.57061 -0.130224 0
M  V30 7143 C 669.347 -1.85412 -0.836295 0
M  V30 7144 C 669.702 -0.729831 -1.7802 0
M  V30 7145 O 668.995 0.271021 -1.89673 0
M  V30 7146 C 669.189 -3.17878 -1.63365 0
M  V30 7147 C 669.018 -4.43086 -0.768453 0
M  V30 7148 C 667.788 -5.03488 -0.427598 0
M  V30 7149 C 669.986 -5.14219 -0.0911495 0
M  V30 7150 N 667.968 -6.12253 0.449439 0
M  V30 7151 C 669.339 -6.16632 0.645341 0
M  V30 7152 C 671.394 -4.97898 -0.0135625 0
M  V30 7153 C 670.097 -7.0449 1.45212 0
M  V30 7154 C 672.123 -5.86234 0.780001 0
M  V30 7155 C 671.485 -6.88141 1.50472 0
M  V30 7156 H 667.584 -0.728875 -0.283311 0
M  V30 7157 H 670.168 -1.9444 -0.100662 0
M  V30 7158 H 668.339 -3.09967 -2.3404 0
M  V30 7159 H 670.071 -3.34076 -2.28419 0
M  V30 7160 H 666.826 -4.67344 -0.767264 0
M  V30 7161 H 667.25 -6.71263 0.879476 0
M  V30 7162 H 671.892 -4.19082 -0.559511 0
M  V30 7163 H 669.61 -7.82722 2.00926 0
M  V30 7164 H 673.196 -5.75671 0.842246 0
M  V30 7165 H 672.076 -7.55311 2.1089 0
M  V30 7166 N 669.579 0.400081 -1.52437 0
M  V30 7167 C 670.827 1.14392 -1.6661 0
M  V30 7168 C 671.148 1.90792 -0.402927 0
M  V30 7169 O 670.418 1.87042 0.582425 0
M  V30 7170 H 668.998 0.425275 -0.614125 0
M  V30 7171 H 671.66 0.455076 -1.89513 0
M  V30 7172 H 670.756 1.85298 -2.51139 0
M  V30 7173 N 671.057 1.43213 0.657864 0
M  V30 7174 C 672.287 1.478 1.44356 0
M  V30 7175 C 672.695 0.0930206 1.88971 0
M  V30 7176 O 672.038 -0.906089 1.59799 0
M  V30 7177 C 672.1 2.35745 2.71412 0
M  V30 7178 C 671.764 3.83359 2.48767 0
M  V30 7179 C 672.761 4.74585 2.12285 0
M  V30 7180 C 670.446 4.27799 2.63235 0
M  V30 7181 C 672.44 6.08247 1.90562 0
M  V30 7182 C 670.127 5.61516 2.41128 0
M  V30 7183 C 671.125 6.51557 2.04847 0
M  V30 7184 O 670.813 7.82802 1.82967 0
M  V30 7185 H 670.545 0.504363 0.450104 0
M  V30 7186 H 673.099 1.88572 0.814241 0
M  V30 7187 H 671.329 1.89852 3.36887 0
M  V30 7188 H 673.018 2.31589 3.33348 0
M  V30 7189 H 673.784 4.41531 2.00687 0
M  V30 7190 H 669.663 3.57993 2.90451 0
M  V30 7191 H 673.207 6.78489 1.62168 0
M  V30 7192 H 669.104 5.94139 2.52327 0
M  V30 7193 H 669.872 7.94332 1.97429 0
M  V30 7194 N 672.536 -0.895792 1.29666 0
M  V30 7195 C 673.776 -1.6609 1.19136 0
M  V30 7196 C 674.14 -1.90336 -0.252245 0
M  V30 7197 O 675.341 -2.64469 -0.480593 0
M  V30 7198 C 673.612 -2.97129 1.98618 0
M  V30 7199 S 675.171 -3.88146 2.04666 0
M  V30 7200 H 671.989 -0.570188 0.424744 0
M  V30 7201 H 674.591 -1.06411 1.64003 0
M  V30 7202 H 673.295 -2.77199 3.02637 0
M  V30 7203 H 672.826 -3.61847 1.54371 0
M  V30 7204 H 674.841 -4.82301 1.16618 0
M  V30 7205 N 674.014 -1.12206 -1.10668 0
M  V30 7206 C 675.244 -0.897332 -1.86095 0
M  V30 7207 C 675.652 0.556778 -1.80822 0
M  V30 7208 O 674.995 1.39658 -1.19337 0
M  V30 7209 C 675.057 -1.29095 -3.35522 0
M  V30 7210 C 674.721 -2.75586 -3.64556 0
M  V30 7211 C 675.718 -3.73785 -3.6136 0
M  V30 7212 C 673.403 -3.12432 -3.93309 0
M  V30 7213 C 675.397 -5.06845 -3.86506 0
M  V30 7214 C 673.084 -4.45675 -4.18111 0
M  V30 7215 C 674.082 -5.42691 -4.147 0
M  V30 7216 O 673.77 -6.73532 -4.38873 0
M  V30 7217 H 673.502 -0.320704 -0.595084 0
M  V30 7218 H 676.056 -1.49517 -1.40833 0
M  V30 7219 H 674.286 -0.636299 -3.81429 0
M  V30 7220 H 675.975 -1.04073 -3.92331 0
M  V30 7221 H 676.741 -3.46664 -3.39189 0
M  V30 7222 H 672.62 -2.3753 -3.95096 0
M  V30 7223 H 676.164 -5.82559 -3.83758 0
M  V30 7224 H 672.061 -4.72526 -4.39761 0
M  V30 7225 H 672.829 -6.79442 -4.564 0
M  V30 7226 N 675.492 1.28418 -0.913599 0
M  V30 7227 C 676.722 1.98817 -0.56172 0
M  V30 7228 C 677.13 1.68457 0.861321 0
M  V30 7229 O 676.473 0.933653 1.58204 0
M  V30 7230 C 676.535 3.52801 -0.690785 0
M  V30 7231 C 676.199 4.0675 -2.08334 0
M  V30 7232 C 677.196 4.20597 -3.05604 0
M  V30 7233 C 674.881 4.41445 -2.39648 0
M  V30 7234 C 676.875 4.68392 -4.32305 0
M  V30 7235 C 674.562 4.88934 -3.66588 0
M  V30 7236 C 675.56 5.02364 -4.6273 0
M  V30 7237 O 675.248 5.48817 -5.87414 0
M  V30 7238 H 674.98 0.641608 -0.212874 0
M  V30 7239 H 677.534 1.64584 -1.22887 0
M  V30 7240 H 675.764 3.86686 0.0334336 0
M  V30 7241 H 677.453 4.04422 -0.346031 0
M  V30 7242 H 678.219 3.94067 -2.8273 0
M  V30 7243 H 674.098 4.30242 -1.65567 0
M  V30 7244 H 677.642 4.7879 -5.07352 0
M  V30 7245 H 673.539 5.14904 -3.89287 0
M  V30 7246 H 674.307 5.67103 -5.90201 0
M  V30 7247 N 676.97 0.677563 1.42291 0
M  V30 7248 C 677.917 0.000947061 2.308 0
M  V30 7249 C 678.887 -0.789889 1.46116 0
M  V30 7250 O 680.072 -0.761578 1.74942 0
M  V30 7251 C 677.212 -0.942387 3.31984 0
M  V30 7252 C 676.325 -0.14508 4.31756 0
M  V30 7253 C 675.46 -1.08442 5.20013 0
M  V30 7254 C 674.499 -0.278958 6.11464 0
M  V30 7255 N 673.636 -1.17115 6.92263 0
M  V30 7256 H 678.476 0.761521 2.88106 0
M  V30 7257 H 676.013 0.38727 1.41911 0
M  V30 7258 H 677.971 -1.50317 3.89179 0
M  V30 7259 H 676.601 -1.66956 2.76271 0
M  V30 7260 H 675.653 0.532368 3.76656 0
M  V30 7261 H 676.965 0.48015 4.96484 0
M  V30 7262 H 676.119 -1.71504 5.81955 0
M  V30 7263 H 674.858 -1.74353 4.55469 0
M  V30 7264 H 673.863 0.364856 5.48588 0
M  V30 7265 H 675.088 0.376099 6.78058 0
M  V30 7266 H 673.034 -1.81661 6.30345 0
M  V30 7267 H 672.951 -0.601063 7.53607 0
M  V30 7268 H 674.219 -1.78915 7.58689 0
M  V30 7269 N 678.448 -1.51871 0.421078 0
M  V30 7270 C 679.378 -2.30231 -0.389363 0
M  V30 7271 C 680.359 -1.34946 -1.03555 0
M  V30 7272 O 681.544 -1.63859 -1.04229 0
M  V30 7273 C 678.674 -3.13247 -1.49979 0
M  V30 7274 C 677.628 -4.16677 -0.977966 0
M  V30 7275 C 676.954 -4.88112 -2.1829 0
M  V30 7276 C 678.254 -5.22295 -0.0236775 0
M  V30 7277 H 679.948 -2.98229 0.264524 0
M  V30 7278 H 677.494 -1.43424 0.12866 0
M  V30 7279 H 679.447 -3.66838 -2.07383 0
M  V30 7280 H 678.171 -2.4304 -2.18173 0
M  V30 7281 H 676.83 -3.64114 -0.426245 0
M  V30 7282 H 676.478 -4.14423 -2.85066 0
M  V30 7283 H 676.178 -5.58041 -1.84021 0
M  V30 7284 H 677.702 -5.44521 -2.76278 0
M  V30 7285 H 679.116 -5.71055 -0.506899 0
M  V30 7286 H 677.513 -5.99656 0.230782 0
M  V30 7287 H 678.583 -4.76131 0.917999 0
M  V30 7288 N 679.926 -0.151884 -1.56866 0
M  V30 7289 C 680.858 0.817008 -2.14144 0
M  V30 7290 C 681.871 1.20735 -1.0921 0
M  V30 7291 O 683.06 1.15058 -1.36469 0
M  V30 7292 C 680.16 2.10844 -2.65326 0
M  V30 7293 C 679.333 1.88471 -3.94712 0
M  V30 7294 C 678.392 3.01649 -4.31155 0
M  V30 7295 O 677.418 2.73127 -4.9939 0
M  V30 7296 N 678.62 4.28947 -3.91132 0
M  V30 7297 H 681.385 0.327448 -2.97906 0
M  V30 7298 H 678.946 0.0315313 -1.61869 0
M  V30 7299 H 680.938 2.85616 -2.86715 0
M  V30 7300 H 679.508 2.51049 -1.86262 0
M  V30 7301 H 678.728 0.977088 -3.81899 0
M  V30 7302 H 680.016 1.70866 -4.79252 0
M  V30 7303 H 679.414 4.54986 -3.36161 0
M  V30 7304 H 677.971 5.00484 -4.17563 0
M  V30 7305 N 681.404 1.57128 0.121893 0
M  V30 7306 C 682.65 1.84974 0.831418 0
M  V30 7307 C 682.983 0.737204 1.79663 0
M  V30 7308 O 682.258 -0.257199 1.92792 0
M  V30 7309 C 682.541 3.23397 1.58386 0
M  V30 7310 C 682.394 4.45246 0.638445 0
M  V30 7311 C 683.713 3.59355 2.54071 0
M  V30 7312 H 680.832 0.67282 0.300803 0
M  V30 7313 H 683.474 1.89759 0.0957587 0
M  V30 7314 H 681.624 3.19449 2.21098 0
M  V30 7315 H 683.296 4.61295 0.0203925 0
M  V30 7316 H 681.539 4.33771 -0.05023 0
M  V30 7317 H 682.21 5.38765 1.20151 0
M  V30 7318 H 684.686 3.64075 2.01465 0
M  V30 7319 H 683.562 4.57193 3.03752 0
M  V30 7320 H 683.823 2.86622 3.36601 0
M  V30 7321 N 682.882 -0.391992 1.52647 0
M  V30 7322 C 684.159 -1.15136 1.58123 0
M  V30 7323 C 684.539 -2.07786 0.372597 0
M  V30 7324 O 683.887 -2.19374 -0.639304 0
M  V30 7325 C 684.097 -1.91367 2.91856 0
M  V30 7326 C 685.445 -2.46833 3.45483 0
M  V30 7327 O 686.469 -2.01527 2.9371 0
M  V30 7328 O 685.328 -3.29587 4.3593 0
M  V30 7329 H 682.422 -0.526649 0.637629 0
M  V30 7330 H 684.968 -0.397386 1.64982 0
M  V30 7331 H 683.74 -1.23597 3.71268 0
M  V30 7332 H 683.363 -2.73732 2.88369 0
M  V30 7333 N 684.36 -1.4356 -0.65026 0
M  V30 7334 C 685.607 -1.45333 -1.41012 0
M  V30 7335 C 685.935 -0.0787282 -1.94341 0
M  V30 7336 O 685.19 0.916715 -1.72901 0
M  V30 7337 C 685.489 -2.44528 -2.60654 0
M  V30 7338 C 685.155 -3.90331 -2.25727 0
M  V30 7339 C 683.817 -4.3004 -2.15914 0
M  V30 7340 C 686.169 -4.822 -1.97821 0
M  V30 7341 C 683.497 -5.59568 -1.76354 0
M  V30 7342 C 685.849 -6.12095 -1.59759 0
M  V30 7343 C 684.513 -6.50778 -1.48473 0
M  V30 7344 H 683.783 -0.531813 -0.516 0
M  V30 7345 H 686.43 -1.76657 -0.739219 0
M  V30 7346 H 684.735 -2.06619 -3.3289 0
M  V30 7347 H 686.432 -2.43155 -3.18868 0
M  V30 7348 H 683.022 -3.58905 -2.34276 0
M  V30 7349 H 687.206 -4.5229 -2.04322 0
M  V30 7350 H 682.462 -5.88376 -1.66205 0
M  V30 7351 H 686.636 -6.82751 -1.37198 0
M  V30 7352 H 684.263 -7.5105 -1.17591 0
M  V30 7353 N 685.838 0.888903 -1.30139 0
M  V30 7354 C 687.063 1.67884 -1.21777 0
M  V30 7355 C 687.488 1.86848 0.216689 0
M  V30 7356 O 686.846 1.39659 1.15608 0
M  V30 7357 C 686.894 3.03483 -1.94757 0
M  V30 7358 O 685.998 3.92294 -1.27198 0
M  V30 7359 H 685.339 0.513144 -0.421402 0
M  V30 7360 H 687.869 1.10968 -1.71893 0
M  V30 7361 H 687.879 3.53553 -2.03627 0
M  V30 7362 H 686.554 2.89 -2.99085 0
M  V30 7363 H 685.131 3.50732 -1.26655 0
M  V30 7364 N 687.317 1.12792 1.10072 0
M  V30 7365 C 688.542 0.908838 1.86427 0
M  V30 7366 C 688.967 -0.536793 1.80278 0
M  V30 7367 O 688.325 -1.38033 1.17543 0
M  V30 7368 C 688.373 1.39295 3.3261 0
M  V30 7369 O 687.477 0.573846 4.08388 0
M  V30 7370 H 686.818 0.326234 0.578331 0
M  V30 7371 H 689.348 1.50094 1.39043 0
M  V30 7372 H 689.358 1.39366 3.83459 0
M  V30 7373 H 688.033 2.44555 3.36401 0
M  V30 7374 H 686.61 0.640438 3.67359 0
M  V30 7375 N 688.795 -1.27931 0.920396 0
M  V30 7376 C 690.072 -1.89728 0.475687 0
M  V30 7377 C 690.452 -1.8337 -1.04588 0
M  V30 7378 O 689.8 -1.27404 -1.89685 0
M  V30 7379 C 690.01 -3.33959 1.01354 0
M  V30 7380 C 691.358 -4.10907 1.06963 0
M  V30 7381 O 692.382 -3.42945 0.962646 0
M  V30 7382 O 691.241 -5.32399 1.23343 0
M  V30 7383 H 688.335 -0.81294 0.151845 0
M  V30 7384 H 690.881 -1.36252 1.01161 0
M  V30 7385 H 689.653 -3.32843 2.05746 0
M  V30 7386 H 689.276 -3.94944 0.458829 0
M  V30 7387 N 690.273 -0.685099 -1.4193 0
M  V30 7388 C 691.223 0.00977295 -2.27998 0
M  V30 7389 C 692.207 0.763315 -1.41641 0
M  V30 7390 O 693.399 0.640532 -1.65004 0
M  V30 7391 C 690.528 0.952972 -3.29808 0
M  V30 7392 C 689.614 0.196231 -4.23646 0
M  V30 7393 N 690.005 -0.804401 -4.99363 0
M  V30 7394 C 688.303 0.433213 -4.43891 0
M  V30 7395 C 689.004 -1.25646 -5.67968 0
M  V30 7396 N 687.98 -0.5844 -5.4045 0
M  V30 7397 H 691.782 -0.757586 -2.83968 0
M  V30 7398 H 689.296 -0.515037 -1.54017 0
M  V30 7399 H 691.293 1.46585 -3.9028 0
M  V30 7400 H 689.953 1.72004 -2.75399 0
M  V30 7401 H 690.964 -1.18429 -5.04177 0
M  V30 7402 H 687.641 1.17899 -4.00507 0
M  V30 7403 H 689.031 -2.08622 -6.38691 0
M  V30 7404 N 691.751 1.51645 -0.429126 0
M  V30 7405 C 692.681 2.30434 0.377148 0
M  V30 7406 C 693.662 1.35493 1.02838 0
M  V30 7407 O 694.847 1.6441 1.03359 0
M  V30 7408 C 691.977 3.14038 1.48315 0
M  V30 7409 C 690.931 4.1719 0.955855 0
M  V30 7410 C 690.257 4.89263 2.15698 0
M  V30 7411 C 691.557 5.223 -0.00402136 0
M  V30 7412 H 693.251 2.98085 -0.280336 0
M  V30 7413 H 690.797 1.43354 -0.136265 0
M  V30 7414 H 692.75 3.67933 2.05435 0
M  V30 7415 H 691.474 2.44193 2.16881 0
M  V30 7416 H 690.133 3.64335 0.406929 0
M  V30 7417 H 689.781 4.15929 2.82864 0
M  V30 7418 H 689.481 5.59009 1.81059 0
M  V30 7419 H 691.005 5.45978 2.73387 0
M  V30 7420 H 692.419 5.71315 0.476607 0
M  V30 7421 H 690.816 5.99525 -0.26258 0
M  V30 7422 H 691.886 4.75638 -0.943236 0
M  V30 7423 N 693.229 0.160201 1.56784 0
M  V30 7424 C 694.477 -0.486625 1.96154 0
M  V30 7425 C 694.798 -1.64525 1.04673 0
M  V30 7426 O 694.068 -1.95586 0.110864 0
M  V30 7427 H 692.648 -0.182764 0.724297 0
M  V30 7428 H 695.31 0.238787 1.93432 0
M  V30 7429 H 694.406 -0.854025 3.00188 0
M  V30 7430 N 694.707 -1.5719 -0.113559 0
M  V30 7431 C 695.947 -1.86958 -0.82621 0
M  V30 7432 C 696.311 -0.748884 -1.76793 0
M  V30 7433 O 697.512 -0.92847 -2.52256 0
M  V30 7434 C 695.783 -3.21957 -1.55173 0
M  V30 7435 S 697.342 -3.73371 -2.3052 0
M  V30 7436 H 694.16 -0.655394 -0.275643 0
M  V30 7437 H 696.762 -1.95318 -0.0842684 0
M  V30 7438 H 695.466 -4.01459 -0.851977 0
M  V30 7439 H 694.997 -3.16688 -2.33393 0
M  V30 7440 H 697.012 -3.45308 -3.56338 0
M  V30 7441 N 696.185 0.383891 -1.52853 0
M  V30 7442 C 697.432 1.12842 -1.68146 0
M  V30 7443 C 697.76 1.89823 -0.423954 0
M  V30 7444 O 697.015 1.86475 0.593765 0
M  V30 7445 C 697.314 2.12881 -2.87082 0
M  V30 7446 C 696.98 1.52519 -4.24322 0
M  V30 7447 C 695.642 1.35783 -4.61645 0
M  V30 7448 C 697.994 1.0868 -5.09743 0
M  V30 7449 C 695.322 0.737643 -5.82044 0
M  V30 7450 C 697.674 0.480699 -6.30771 0
M  V30 7451 C 696.338 0.300681 -6.66822 0
M  V30 7452 H 695.608 0.412917 -0.615289 0
M  V30 7453 H 698.255 0.412416 -1.87006 0
M  V30 7454 H 696.56 2.90719 -2.62659 0
M  V30 7455 H 698.257 2.70408 -2.96109 0
M  V30 7456 H 694.847 1.66534 -3.94923 0
M  V30 7457 H 699.031 1.2041 -4.81472 0
M  V30 7458 H 694.287 0.586415 -6.08581 0
M  V30 7459 H 698.461 0.132733 -6.96273 0
M  V30 7460 H 696.088 -0.181966 -7.59982 0
M  V30 7461 N 697.663 1.43903 0.642637 0
M  V30 7462 C 698.891 1.4954 1.42988 0
M  V30 7463 C 699.306 0.116588 1.8844 0
M  V30 7464 O 698.663 -0.875285 1.60141 0
M  V30 7465 C 698.714 2.45031 2.65785 0
M  V30 7466 O 698.435 3.77551 2.22232 0
M  V30 7467 C 699.936 2.60017 3.59035 0
M  V30 7468 H 697.156 0.507544 0.438907 0
M  V30 7469 H 699.7 1.88752 0.786942 0
M  V30 7470 H 697.855 2.08985 3.26196 0
M  V30 7471 H 698.269 4.29001 3.01759 0
M  V30 7472 H 699.743 3.30887 4.41835 0
M  V30 7473 H 700.22 1.64861 4.07084 0
M  V30 7474 H 700.826 2.96918 3.045 0
M  V30 7475 N 699.141 -0.881989 1.30609 0
M  V30 7476 C 700.088 -1.98803 1.17244 0
M  V30 7477 C 701.058 -1.65987 0.0611905 0
M  V30 7478 O 702.243 -1.89385 0.231911 0
M  V30 7479 C 699.383 -3.33867 0.87333 0
M  V30 7480 C 698.496 -3.79354 2.06675 0
M  V30 7481 C 697.631 -5.03078 1.70547 0
M  V30 7482 C 696.67 -5.40981 2.86366 0
M  V30 7483 N 695.807 -6.55886 2.50514 0
M  V30 7484 H 700.647 -2.09566 2.11863 0
M  V30 7485 H 698.184 -1.02607 1.05405 0
M  V30 7486 H 700.142 -4.11612 0.680519 0
M  V30 7487 H 698.772 -3.2278 -0.0359983 0
M  V30 7488 H 697.824 -2.97492 2.37071 0
M  V30 7489 H 699.136 -4.03382 2.93401 0
M  V30 7490 H 698.29 -5.88457 1.47658 0
M  V30 7491 H 697.029 -4.80927 0.809947 0
M  V30 7492 H 696.034 -4.54127 3.09917 0
M  V30 7493 H 697.259 -5.65104 3.76609 0
M  V30 7494 H 695.205 -6.35306 1.63471 0
M  V30 7495 H 695.122 -6.79799 3.30771 0
M  V30 7496 H 696.39 -7.44489 2.30989 0
M  V30 7497 N 700.619 -1.13374 -1.09472 0
M  V30 7498 C 701.859 -0.905422 -1.83252 0
M  V30 7499 C 702.223 0.558396 -1.83701 0
M  V30 7500 O 703.424 0.904254 -2.53134 0
M  V30 7501 C 701.695 -1.47658 -3.25472 0
M  V30 7502 S 703.254 -1.38825 -4.16261 0
M  V30 7503 H 700.072 -0.326371 -0.631667 0
M  V30 7504 H 702.674 -1.44517 -1.31663 0
M  V30 7505 H 701.378 -2.53533 -3.22722 0
M  V30 7506 H 700.909 -0.934756 -3.82133 0
M  V30 7507 H 702.924 -0.366379 -4.94846 0
M  V30 7508 N 702.098 1.27442 -0.927168 0
M  V30 7509 C 703.514 1.46754 -0.627329 0
M  V30 7510 C 703.714 1.83902 0.823549 0
M  V30 7511 O 702.77 1.95215 1.60148 0
M  V30 7512 C 704.083 2.56045 -1.57674 0
M  V30 7513 C 705.631 2.69906 -1.58491 0
M  V30 7514 C 706.106 3.82355 -2.52128 0
M  V30 7515 N 707.597 3.89728 -2.50332 0
M  V30 7516 C 708.332 4.76155 -3.19475 0
M  V30 7517 N 707.828 5.67073 -3.97995 0
M  V30 7518 N 709.621 4.6988 -3.08496 0
M  V30 7519 H 701.772 1.01613 -1.86517 0
M  V30 7520 H 704.035 0.507443 -0.800753 0
M  V30 7521 H 703.741 2.35542 -2.61176 0
M  V30 7522 H 703.615 3.53423 -1.31804 0
M  V30 7523 H 706.002 2.89792 -0.557208 0
M  V30 7524 H 706.083 1.73018 -1.8841 0
M  V30 7525 H 705.727 3.63224 -3.55008 0
M  V30 7526 H 705.657 4.7867 -2.19505 0
M  V30 7527 H 708.148 3.24717 -1.93306 0
M  V30 7528 H 708.461 6.2988 -4.4774 0
M  V30 7529 H 706.806 5.6687 -4.02098 0
M  V30 7530 H 709.997 3.97848 -2.46646 0
M  V30 7531 H 710.17 5.37017 -3.62652 0
M  V30 7532 N 703.576 0.692616 1.41565 0
M  V30 7533 C 704.523 0.0254264 2.30786 0
M  V30 7534 C 705.493 -0.774347 1.46946 0
M  V30 7535 O 706.678 -0.742981 1.7574 0
M  V30 7536 C 703.818 -0.907123 3.32964 0
M  V30 7537 C 702.931 -0.0992784 4.31886 0
M  V30 7538 C 702.066 -1.0292 5.21134 0
M  V30 7539 C 701.105 -0.214088 6.11725 0
M  V30 7540 N 700.242 -1.09766 6.93467 0
M  V30 7541 H 705.082 0.792036 2.87282 0
M  V30 7542 H 702.619 0.4023 1.41492 0
M  V30 7543 H 704.577 -1.46181 3.90752 0
M  V30 7544 H 703.207 -1.64016 2.78026 0
M  V30 7545 H 702.259 0.572287 3.76071 0
M  V30 7546 H 703.571 0.532782 4.95946 0
M  V30 7547 H 702.725 -1.65321 5.83741 0
M  V30 7548 H 701.464 -1.69512 4.57293 0
M  V30 7549 H 700.469 0.42302 5.4817 0
M  V30 7550 H 701.694 0.447995 6.77621 0
M  V30 7551 H 699.64 -1.74965 6.32237 0
M  V30 7552 H 699.557 -0.521099 7.54202 0
M  V30 7553 H 700.825 -1.70858 7.60544 0
M  V30 7554 N 705.054 -1.51416 0.437162 0
M  V30 7555 C 706.465 -1.86682 -0.0260005 0
M  V30 7556 C 706.816 -1.35432 -1.4196 0
M  V30 7557 O 705.941 -0.705055 -2.04592 0
M  V30 7558 C 706.536 -3.38757 -0.0539577 0
M  V30 7559 C 705.095 -3.7356 -0.461532 0
M  V30 7560 C 704.242 -2.75134 0.345924 0
M  V30 7561 H 707.193 -1.44642 0.653013 0
M  V30 7562 H 707.214 -3.70573 -0.863478 0
M  V30 7563 H 706.726 -3.76028 0.96045 0
M  V30 7564 H 704.827 -3.41878 -1.48155 0
M  V30 7565 H 704.94 -4.78737 -0.186451 0
M  V30 7566 H 703.304 -2.53947 -0.195739 0
M  V30 7567 H 704.087 -3.15247 1.35921 0
M  V30 7568 N 706.532 -0.168513 -1.56696 0
M  V30 7569 C 707.772 0.479648 -1.98693 0
M  V30 7570 C 708.136 1.60609 -1.05209 0
M  V30 7571 O 709.337 2.3166 -1.36334 0
M  V30 7572 C 707.608 0.952852 -3.44464 0
M  V30 7573 S 709.167 1.60259 -4.08488 0
M  V30 7574 H 705.985 0.154377 -0.694038 0
M  V30 7575 H 708.587 -0.265312 -1.93691 0
M  V30 7576 H 707.291 0.12257 -4.10217 0
M  V30 7577 H 706.822 1.73192 -3.53225 0
M  V30 7578 H 708.837 2.89065 -4.03307 0
M  V30 7579 N 708.01 1.57248 0.105221 0
M  V30 7580 C 709.235 1.90143 0.828264 0
M  V30 7581 C 709.66 0.761811 1.71983 0
M  V30 7582 O 709.018 -0.287086 1.79013 0
M  V30 7583 C 709.066 3.21856 1.62608 0
M  V30 7584 O 708.17 3.08732 2.7342 0
M  V30 7585 H 707.511 0.623558 0.228192 0
M  V30 7586 H 710.041 2.0443 0.0834826 0
M  V30 7587 H 710.051 3.54916 2.01243 0
M  V30 7588 H 708.726 4.0439 0.971687 0
M  V30 7589 H 707.303 2.87167 2.37886 0
M  V30 7590 N 709.488 -0.375779 1.53054 0
M  V30 7591 C 710.734 -1.12114 1.68992 0
M  V30 7592 C 711.067 -1.8926 0.435238 0
M  V30 7593 O 710.342 -1.86044 -0.567278 0
M  V30 7594 C 710.625 -2.08867 2.93337 0
M  V30 7595 C 710.478 -1.35397 4.28938 0
M  V30 7596 C 711.797 -3.09124 3.13257 0
M  V30 7597 H 708.916 -0.406207 0.614951 0
M  V30 7598 H 711.558 -0.403054 1.85676 0
M  V30 7599 H 709.708 -2.70102 2.79244 0
M  V30 7600 H 711.38 -0.770242 4.54824 0
M  V30 7601 H 709.623 -0.655801 4.28814 0
M  V30 7602 H 710.294 -2.06161 5.12056 0
M  V30 7603 H 712.77 -2.57987 3.26469 0
M  V30 7604 H 711.646 -3.74054 4.01715 0
M  V30 7605 H 711.907 -3.78729 2.28072 0
M  V30 7606 N 710.966 -1.44241 -0.634997 0
M  V30 7607 C 712.194 -1.50296 -1.42193 0
M  V30 7608 C 712.609 -0.12658 -1.88375 0
M  V30 7609 O 711.966 0.86678 -1.60603 0
M  V30 7610 C 712.017 -2.46437 -2.64482 0
M  V30 7611 O 711.738 -3.78724 -2.20226 0
M  V30 7612 C 713.239 -2.61918 -3.57651 0
M  V30 7613 H 710.459 -0.509865 -0.43621 0
M  V30 7614 H 713.003 -1.89167 -0.776921 0
M  V30 7615 H 711.158 -2.10712 -3.25083 0
M  V30 7616 H 711.572 -4.30595 -2.9948 0
M  V30 7617 H 713.046 -3.33225 -4.40074 0
M  V30 7618 H 713.523 -1.67017 -4.06204 0
M  V30 7619 H 714.129 -2.98528 -3.02921 0
M  V30 7620 N 712.444 0.87505 -1.31075 0
M  V30 7621 C 713.669 1.66583 -1.23551 0
M  V30 7622 C 714.094 1.87067 0.19686 0
M  V30 7623 O 713.452 1.40877 1.1412 0
M  V30 7624 C 713.5 3.01401 -1.97965 0
M  V30 7625 O 712.604 3.90923 -1.31351 0
M  V30 7626 H 711.945 0.508645 -0.426821 0
M  V30 7627 H 714.475 1.09139 -1.7306 0
M  V30 7628 H 714.485 3.51374 -2.07366 0
M  V30 7629 H 713.16 2.85812 -3.02133 0
M  V30 7630 H 711.737 3.49369 -1.30368 0
M  V30 7631 N 713.922 1.13953 1.08869 0
M  V30 7632 C 715.152 0.926825 1.84644 0
M  V30 7633 C 715.56 -0.527941 1.81685 0
M  V30 7634 O 714.903 -1.37742 1.21543 0
M  V30 7635 C 714.965 1.34416 3.33426 0
M  V30 7636 C 714.629 2.81351 3.60126 0
M  V30 7637 C 715.626 3.79486 3.55368 0
M  V30 7638 C 713.311 3.1865 3.88288 0
M  V30 7639 C 715.305 5.1293 3.78393 0
M  V30 7640 C 712.992 4.5227 4.10968 0
M  V30 7641 C 713.99 5.4922 4.06013 0
M  V30 7642 O 713.678 6.80429 4.28102 0
M  V30 7643 H 713.41 0.33013 0.589907 0
M  V30 7644 H 715.964 1.51738 1.38436 0
M  V30 7645 H 714.194 0.696901 3.80368 0
M  V30 7646 H 715.883 1.10302 3.90626 0
M  V30 7647 H 716.649 3.52017 3.3363 0
M  V30 7648 H 712.528 2.43785 3.91267 0
M  V30 7649 H 716.072 5.88591 3.74442 0
M  V30 7650 H 711.969 4.79462 4.32188 0
M  V30 7651 H 712.737 6.86617 4.45533 0
M  V30 7652 N 715.4 -1.26948 0.933913 0
M  V30 7653 C 716.332 -2.25768 0.395137 0
M  V30 7654 C 717.345 -1.55637 -0.477585 0
M  V30 7655 O 718.534 -1.76142 -0.289204 0
M  V30 7656 C 715.634 -3.35874 -0.451882 0
M  V30 7657 C 714.807 -4.3554 0.40299 0
M  V30 7658 C 713.866 -5.24809 -0.3824 0
M  V30 7659 O 712.892 -5.68805 0.212057 0
M  V30 7660 N 714.094 -5.55636 -1.68072 0
M  V30 7661 H 716.859 -2.72634 1.24463 0
M  V30 7662 H 714.42 -1.40639 0.802008 0
M  V30 7663 H 716.412 -3.92542 -0.984516 0
M  V30 7664 H 714.982 -2.8856 -1.20215 0
M  V30 7665 H 714.202 -3.78047 1.11688 0
M  V30 7666 H 715.49 -4.99131 0.987201 0
M  V30 7667 H 714.888 -5.2176 -2.18592 0
M  V30 7668 H 713.445 -6.14978 -2.15975 0
M  V30 7669 N 716.879 -0.700114 -1.41195 0
M  V30 7670 C 717.809 -0.0521132 -2.33442 0
M  V30 7671 C 718.79 0.76228 -1.52063 0
M  V30 7672 O 719.975 0.714336 -1.80585 0
M  V30 7673 C 717.105 0.881693 -3.35922 0
M  V30 7674 C 716.059 0.174062 -4.27646 0
M  V30 7675 C 715.385 1.22254 -5.20536 0
M  V30 7676 C 716.685 -0.962396 -5.13357 0
M  V30 7677 H 718.379 -0.822574 -2.87879 0
M  V30 7678 H 715.925 -0.397011 -1.38419 0
M  V30 7679 H 717.878 1.34429 -3.99383 0
M  V30 7680 H 716.602 1.68387 -2.79845 0
M  V30 7681 H 715.261 -0.268551 -3.65615 0
M  V30 7682 H 714.909 2.01736 -4.60773 0
M  V30 7683 H 714.609 0.754038 -5.82742 0
M  V30 7684 H 716.133 1.68555 -5.86874 0
M  V30 7685 H 717.547 -0.579875 -5.7036 0
M  V30 7686 H 715.944 -1.35828 -5.84526 0
M  V30 7687 H 717.014 -1.80003 -4.50252 0
M  V30 7688 N 718.357 1.51182 -0.445186 0
M  V30 7689 C 719.582 2.07056 0.119445 0
M  V30 7690 C 720.007 1.30966 1.35016 0
M  V30 7691 O 719.365 0.349827 1.77893 0
M  V30 7692 C 719.413 3.58234 0.412428 0
M  V30 7693 O 718.517 3.84249 1.49754 0
M  V30 7694 H 717.858 0.663998 -0.00157797 0
M  V30 7695 H 720.388 1.94699 -0.628779 0
M  V30 7696 H 720.398 4.02617 0.660583 0
M  V30 7697 H 719.073 4.13038 -0.487049 0
M  V30 7698 H 717.65 3.51724 1.23873 0
M  V30 7699 N 719.835 0.176821 1.56605 0
M  V30 7700 C 720.798 -0.737429 2.17013 0
M  V30 7701 C 721.798 -1.15414 1.11965 0
M  V30 7702 O 722.988 -1.0702 1.37449 0
M  V30 7703 C 720.12 -2.00445 2.75744 0
M  V30 7704 H 721.313 -0.211455 2.99154 0
M  V30 7705 H 718.866 -0.0727582 1.56131 0
M  V30 7706 H 719.601 -2.57338 1.97352 0
M  V30 7707 H 719.386 -1.71456 3.52626 0
M  V30 7708 H 720.876 -2.65679 3.22187 0
M  V30 7709 N 721.313 -1.57302 -0.09688 0
M  V30 7710 C 722.561 -1.8563 -0.799117 0
M  V30 7711 C 722.882 -0.765263 -1.79356 0
M  V30 7712 O 722.152 0.208657 -1.94786 0
M  V30 7713 H 720.732 -0.684937 -0.298111 0
M  V30 7714 H 723.394 -1.9474 -0.0789341 0
M  V30 7715 H 722.49 -2.82305 -1.3308 0
M  V30 7716 N 722.791 0.367657 -1.53252 0
M  V30 7717 C 724.021 1.12955 -1.72988 0
M  V30 7718 C 724.429 1.8358 -0.457708 0
M  V30 7719 O 723.772 1.74336 0.579006 0
M  V30 7720 C 723.834 2.20545 -2.83902 0
M  V30 7721 C 723.498 1.69704 -4.24323 0
M  V30 7722 C 724.495 1.16223 -5.06743 0
M  V30 7723 C 722.18 1.7528 -4.70725 0
M  V30 7724 C 724.174 0.689935 -6.33655 0
M  V30 7725 C 721.861 1.27662 -5.97617 0
M  V30 7726 C 722.859 0.746083 -6.78913 0
M  V30 7727 O 722.547 0.276925 -8.03423 0
M  V30 7728 H 722.279 0.343753 -0.582074 0
M  V30 7729 H 724.833 0.433106 -2.00782 0
M  V30 7730 H 723.063 2.93676 -2.51577 0
M  V30 7731 H 724.752 2.82111 -2.91836 0
M  V30 7732 H 725.518 1.11256 -4.72067 0
M  V30 7733 H 721.397 2.15515 -4.07522 0
M  V30 7734 H 724.941 0.275164 -6.97057 0
M  V30 7735 H 720.838 1.32322 -6.31792 0
M  V30 7736 H 721.606 0.396445 -8.17539 0
M  V30 7737 N 724.269 1.44576 0.627338 0
M  V30 7738 C 725.494 1.51271 1.41887 0
M  V30 7739 C 725.919 0.139814 1.8758 0
M  V30 7740 O 725.277 -0.871746 1.58966 0
M  V30 7741 C 725.325 2.48529 2.61277 0
M  V30 7742 O 724.429 1.98944 3.61241 0
M  V30 7743 H 723.77 0.510668 0.424399 0
M  V30 7744 H 726.3 1.89746 0.765356 0
M  V30 7745 H 726.31 2.66689 3.08773 0
M  V30 7746 H 724.985 3.48249 2.27366 0
M  V30 7747 H 723.562 1.90568 3.20528 0
M  V30 7748 N 725.747 -0.868086 1.31537 0
M  V30 7749 C 727.163 -1.15414 1.10235 0
M  V30 7750 C 727.363 -2.01106 -0.125947 0
M  V30 7751 O 726.419 -2.38994 -0.814734 0
M  V30 7752 C 727.732 -1.84445 2.37488 0
M  V30 7753 C 729.28 -1.97139 2.43116 0
M  V30 7754 C 729.755 -2.69585 3.70254 0
M  V30 7755 N 731.246 -2.77119 3.71159 0
M  V30 7756 C 731.981 -3.33791 4.6623 0
M  V30 7757 N 731.477 -3.9138 5.71659 0
M  V30 7758 N 733.27 -3.31767 4.53747 0
M  V30 7759 H 725.421 -0.297109 2.10312 0
M  V30 7760 H 727.684 -0.194227 0.92789 0
M  V30 7761 H 727.39 -1.2893 3.27215 0
M  V30 7762 H 727.264 -2.84709 2.47428 0
M  V30 7763 H 729.651 -2.51818 1.53856 0
M  V30 7764 H 729.732 -0.95912 2.37138 0
M  V30 7765 H 729.376 -2.15572 4.59881 0
M  V30 7766 H 729.306 -3.71223 3.73499 0
M  V30 7767 H 731.797 -2.3625 2.94948 0
M  V30 7768 H 732.11 -4.3274 6.40278 0
M  V30 7769 H 730.455 -3.8975 5.7543 0
M  V30 7770 H 733.646 -2.86016 3.70557 0
M  V30 7771 H 733.819 -3.75636 5.28017 0
M  V30 7772 N 727.225 -1.14528 -1.08264 0
M  V30 7773 C 728.471 -0.925721 -1.81113 0
M  V30 7774 C 728.826 0.54185 -1.84612 0
M  V30 7775 O 728.119 1.39628 -1.31205 0
M  V30 7776 C 728.313 -1.46226 -3.26117 0
M  V30 7777 C 728.142 -2.98047 -3.36746 0
M  V30 7778 C 726.912 -3.66508 -3.4785 0
M  V30 7779 C 729.11 -3.95903 -3.28277 0
M  V30 7780 N 727.092 -5.06227 -3.47285 0
M  V30 7781 C 728.463 -5.21883 -3.34721 0
M  V30 7782 C 730.518 -3.88002 -3.12024 0
M  V30 7783 C 729.221 -6.40886 -3.26585 0
M  V30 7784 C 731.247 -5.06553 -3.05219 0
M  V30 7785 C 730.609 -6.31403 -3.12266 0
M  V30 7786 H 726.708 -0.392294 -0.676483 0
M  V30 7787 H 729.292 -1.45567 -1.293 0
M  V30 7788 H 727.463 -0.959076 -3.76373 0
M  V30 7789 H 729.195 -1.18247 -3.8704 0
M  V30 7790 H 725.95 -3.17067 -3.51804 0
M  V30 7791 H 726.374 -5.79172 -3.50555 0
M  V30 7792 H 731.016 -2.9235 -3.05436 0
M  V30 7793 H 728.734 -7.36781 -3.31934 0
M  V30 7794 H 732.32 -5.02191 -2.93761 0
M  V30 7795 H 731.2 -7.21596 -3.07032 0
M  V30 7796 N 728.703 1.26451 -0.940633 0
M  V30 7797 C 730.114 1.75726 -0.630653 0
M  V30 7798 C 730.465 1.76631 0.854167 0
M  V30 7799 O 729.59 1.37807 1.66848 0
M  V30 7800 C 730.185 3.19114 -1.13805 0
M  V30 7801 C 728.744 3.66005 -0.878497 0
M  V30 7802 C 727.891 2.45505 -1.28928 0
M  V30 7803 H 730.842 1.12535 -1.119 0
M  V30 7804 H 730.863 3.77311 -0.491625 0
M  V30 7805 H 730.375 3.18424 -2.21874 0
M  V30 7806 H 728.476 3.72126 0.187833 0
M  V30 7807 H 728.589 4.54844 -1.50512 0
M  V30 7808 H 726.953 2.4467 -0.707713 0
M  V30 7809 H 727.736 2.47516 -2.37888 0
M  V30 7810 N 730.181 0.707592 1.40822 0
M  V30 7811 C 731.406 0.251626 2.05868 0
M  V30 7812 C 731.831 -1.09503 1.5294 0
M  V30 7813 O 731.189 -1.68806 0.661385 0
M  V30 7814 C 731.237 0.23287 3.59847 0
M  V30 7815 O 730.341 -0.788477 4.04792 0
M  V30 7816 H 729.682 0.119936 0.653078 0
M  V30 7817 H 732.212 0.96583 1.80369 0
M  V30 7818 H 732.222 0.0678204 4.07944 0
M  V30 7819 H 730.897 1.21565 3.97737 0
M  V30 7820 H 729.474 -0.591802 3.68174 0
M  V30 7821 N 731.66 -1.50943 0.453197 0
M  V30 7822 C 732.906 -2.02512 -0.108082 0
M  V30 7823 C 733.239 -1.33574 -1.40967 0
M  V30 7824 O 732.514 -0.455671 -1.89087 0
M  V30 7825 C 732.797 -3.58759 -0.310453 0
M  V30 7826 C 732.65 -4.38293 1.0109 0
M  V30 7827 C 733.969 -4.26816 -1.07313 0
M  V30 7828 H 731.088 -0.73603 -0.0378064 0
M  V30 7829 H 733.73 -1.80433 0.595295 0
M  V30 7830 H 731.88 -3.77702 -0.909582 0
M  V30 7831 H 733.552 -4.30964 1.64523 0
M  V30 7832 H 731.795 -4.02745 1.61179 0
M  V30 7833 H 732.466 -5.45828 0.82315 0
M  V30 7834 H 734.942 -4.1224 -0.565473 0
M  V30 7835 H 733.818 -5.35989 -1.1835 0
M  V30 7836 H 734.079 -3.88757 -2.10525 0
M  V30 7837 N 733.138 -0.185124 -1.56509 0
M  V30 7838 C 734.366 0.462139 -2.01673 0
M  V30 7839 C 734.781 1.55873 -1.06532 0
M  V30 7840 O 734.138 1.82371 -0.0684805 0
M  V30 7841 C 734.189 1.0277 -3.46584 0
M  V30 7842 O 733.91 -0.0251296 -4.38093 0
M  V30 7843 C 735.411 1.75183 -4.07217 0
M  V30 7844 H 732.631 0.117001 -0.660721 0
M  V30 7845 H 735.175 -0.290905 -2.0242 0
M  V30 7846 H 733.33 1.73118 -3.46568 0
M  V30 7847 H 733.744 0.394387 -5.23015 0
M  V30 7848 H 735.218 2.09999 -5.10494 0
M  V30 7849 H 735.695 2.6519 -3.50101 0
M  V30 7850 H 736.301 1.09445 -4.10977 0
M  V30 7851 N 734.616 1.57351 0.0885366 0
M  V30 7852 C 735.841 1.91011 0.80805 0
M  V30 7853 C 736.266 0.780009 1.71165 0
M  V30 7854 O 735.624 -0.268083 1.79307 0
M  V30 7855 C 735.672 3.23562 1.59185 0
M  V30 7856 O 734.776 3.11615 2.7013 0
M  V30 7857 H 734.117 0.625943 0.221565 0
M  V30 7858 H 736.647 2.04507 0.0617954 0
M  V30 7859 H 736.657 3.5703 1.97468 0
M  V30 7860 H 735.332 4.05398 0.928741 0
M  V30 7861 H 733.909 2.89673 2.34827 0
M  V30 7862 N 736.094 -0.359525 1.53444 0
M  V30 7863 C 737.026 -1.46098 1.76602 0
M  V30 7864 C 738.039 -1.49395 0.646912 0
M  V30 7865 O 739.228 -1.52765 0.923307 0
M  V30 7866 C 736.328 -2.84836 1.83635 0
M  V30 7867 C 735.501 -3.05164 3.13358 0
M  V30 7868 C 734.56 -4.24051 3.11556 0
M  V30 7869 O 733.586 -4.18935 3.85334 0
M  V30 7870 N 734.788 -5.31775 2.328 0
M  V30 7871 H 737.553 -1.2661 2.71643 0
M  V30 7872 H 735.114 -0.549294 1.52297 0
M  V30 7873 H 737.106 -3.62516 1.799 0
M  V30 7874 H 735.676 -2.97542 0.958509 0
M  V30 7875 H 734.896 -2.15091 3.30348 0
M  V30 7876 H 736.184 -3.15619 3.99076 0
M  V30 7877 H 735.582 -5.38796 1.7238 0
M  V30 7878 H 734.139 -6.0801 2.34877 0
M  V30 7879 N 737.572 -1.44907 -0.619662 0
M  V30 7880 C 738.482 -1.55168 -1.75955 0
M  V30 7881 C 739.498 -0.43672 -1.6843 0
M  V30 7882 O 740.674 -0.695704 -1.89002 0
M  V30 7883 C 737.739 -1.50397 -3.12381 0
M  V30 7884 C 736.8 -2.72835 -3.31451 0
M  V30 7885 C 736.033 -2.68283 -4.61368 0
M  V30 7886 O 736.256 -1.74929 -5.42914 0
M  V30 7887 O 735.19 -3.59308 -4.82889 0
M  V30 7888 H 739.016 -2.51493 -1.7025 0
M  V30 7889 H 736.601 -1.27282 -0.782289 0
M  V30 7890 H 738.483 -1.50301 -3.93685 0
M  V30 7891 H 737.158 -0.572197 -3.18603 0
M  V30 7892 H 736.065 -2.78496 -2.49781 0
M  V30 7893 H 737.398 -3.65098 -3.30098 0
M  V30 7894 N 739.05 0.861098 -1.31996 0
M  V30 7895 C 740.296 1.61707 -1.23379 0
M  V30 7896 C 740.651 1.91315 0.204026 0
M  V30 7897 O 739.944 1.53997 1.13998 0
M  V30 7898 C 740.138 2.94822 -2.02027 0
M  V30 7899 C 739.967 2.78212 -3.5331 0
M  V30 7900 C 738.737 2.76933 -4.22654 0
M  V30 7901 C 740.935 2.52432 -4.48088 0
M  V30 7902 N 738.917 2.51466 -5.60034 0
M  V30 7903 C 740.288 2.36312 -5.73198 0
M  V30 7904 C 742.343 2.37848 -4.37416 0
M  V30 7905 C 741.046 2.0709 -6.88844 0
M  V30 7906 C 743.072 2.10016 -5.52854 0
M  V30 7907 C 742.434 1.94691 -6.7696 0
M  V30 7908 H 738.533 0.595703 -0.506618 0
M  V30 7909 H 741.117 1.01275 -1.66287 0
M  V30 7910 H 739.288 3.53243 -1.61474 0
M  V30 7911 H 741.02 3.59756 -1.85358 0
M  V30 7912 H 737.775 2.89638 -3.74709 0
M  V30 7913 H 738.199 2.41679 -6.32392 0
M  V30 7914 H 742.841 2.4842 -3.42122 0
M  V30 7915 H 740.559 1.95256 -7.84156 0
M  V30 7916 H 744.145 1.99519 -5.46519 0
M  V30 7917 H 743.025 1.7346 -7.64775 0
M  V30 7918 N 740.528 1.15101 1.07655 0
M  V30 7919 C 741.774 0.925343 1.80458 0
M  V30 7920 C 742.107 -0.546354 1.86356 0
M  V30 7921 O 741.382 -1.40496 1.34503 0
M  V30 7922 C 741.665 1.53646 3.25676 0
M  V30 7923 C 741.518 3.07854 3.27942 0
M  V30 7924 C 742.837 1.21968 4.22861 0
M  V30 7925 H 739.956 0.337592 0.655134 0
M  V30 7926 H 742.598 1.42217 1.25993 0
M  V30 7927 H 740.748 1.11395 3.72187 0
M  V30 7928 H 742.42 3.58989 2.89697 0
M  V30 7929 H 740.663 3.41904 2.66991 0
M  V30 7930 H 741.334 3.45725 4.30324 0
M  V30 7931 H 743.81 1.5851 3.84726 0
M  V30 7932 H 742.686 1.67349 5.22767 0
M  V30 7933 H 742.947 0.136207 4.4189 0
M  V30 7934 N 742.006 -1.2595 0.947325 0
M  V30 7935 C 743.253 -1.93463 0.598178 0
M  V30 7936 C 743.581 -1.74271 -0.863705 0
M  V30 7937 O 742.836 -1.07684 -1.63409 0
M  V30 7938 C 743.135 -3.46034 0.894158 0
M  V30 7939 C 742.801 -3.85373 2.3409 0
M  V30 7940 C 741.463 -3.95823 2.73637 0
M  V30 7941 C 743.815 -4.04986 3.2808 0
M  V30 7942 C 741.143 -4.23288 4.06257 0
M  V30 7943 C 743.495 -4.3394 4.60303 0
M  V30 7944 C 742.159 -4.42606 4.99656 0
M  V30 7945 H 741.429 -0.707933 0.218889 0
M  V30 7946 H 744.076 -1.4964 1.19499 0
M  V30 7947 H 742.381 -3.9121 0.214874 0
M  V30 7948 H 744.078 -3.96445 0.602698 0
M  V30 7949 H 740.668 -3.7779 2.02417 0
M  V30 7950 H 744.852 -3.96333 2.9872 0
M  V30 7951 H 740.108 -4.28211 4.36401 0
M  V30 7952 H 744.282 -4.48061 5.33118 0
M  V30 7953 H 741.909 -4.63641 6.02446 0
M  V30 7954 N 743.484 -0.715051 -1.40445 0
M  V30 7955 C 744.416 -0.0227516 -2.29189 0
M  V30 7956 C 745.429 0.724313 -1.458 0
M  V30 7957 O 746.618 0.571781 -1.69094 0
M  V30 7958 C 743.718 0.992038 -3.24055 0
M  V30 7959 C 742.891 0.310613 -4.36296 0
M  V30 7960 C 741.95 1.23071 -5.11605 0
M  V30 7961 O 740.976 0.71571 -5.64682 0
M  V30 7962 N 742.178 2.56188 -5.2091 0
M  V30 7963 H 744.943 -0.78473 -2.89244 0
M  V30 7964 H 742.504 -0.562637 -1.51809 0
M  V30 7965 H 744.496 1.60973 -3.71308 0
M  V30 7966 H 743.066 1.65538 -2.65171 0
M  V30 7967 H 742.286 -0.487269 -3.91177 0
M  V30 7968 H 743.574 -0.162415 -5.08541 0
M  V30 7969 H 742.972 3.00527 -4.7927 0
M  V30 7970 H 741.529 3.13103 -5.71673 0
M  V30 7971 N 744.962 1.50701 -0.461195 0
M  V30 7972 C 745.895 2.24948 0.383863 0
M  V30 7973 C 746.873 1.27851 1.00464 0
M  V30 7974 O 748.057 1.57049 1.04249 0
M  V30 7975 C 745.184 3.01818 1.537 0
M  V30 7976 C 744.23 4.13762 1.03457 0
M  V30 7977 S 745.063 5.35483 -0.0427485 0
M  V30 7978 C 746.219 6.15898 1.11449 0
M  V30 7979 H 746.452 2.96277 -0.246425 0
M  V30 7980 H 743.985 1.52428 -0.245961 0
M  V30 7981 H 745.943 3.467 2.19794 0
M  V30 7982 H 744.604 2.30034 2.13877 0
M  V30 7983 H 743.797 4.66914 1.89757 0
M  V30 7984 H 743.399 3.71265 0.4515 0
M  V30 7985 H 745.691 6.46431 2.02813 0
M  V30 7986 H 746.634 7.05359 0.622444 0
M  V30 7987 H 747.042 5.47777 1.36385 0
M  V30 7988 N 746.441 0.193421 1.56409 0
M  V30 7989 C 747.371 -0.723334 2.22014 0
M  V30 7990 C 748.352 -1.22254 1.1827 0
M  V30 7991 O 749.537 -1.27168 1.46771 0
M  V30 7992 C 746.667 -1.94366 2.87818 0
M  V30 7993 C 745.621 -1.57943 3.97791 0
M  V30 7994 C 744.947 -2.87623 4.50752 0
M  V30 7995 C 746.247 -0.790639 5.16281 0
M  V30 7996 H 747.941 -0.176426 2.9888 0
M  V30 7997 H 745.487 -0.0834166 1.43758 0
M  V30 7998 H 747.44 -2.5902 3.32396 0
M  V30 7999 H 746.164 -2.51507 2.08355 0
M  V30 8000 H 744.823 -0.956482 3.53903 0
M  V30 8001 H 744.471 -3.4285 3.68053 0
M  V30 8002 H 744.171 -2.63998 5.24956 0
M  V30 8003 H 745.695 -3.53268 4.9803 0
M  V30 8004 H 747.109 -1.34024 5.57414 0
M  V30 8005 H 745.506 -0.65258 5.96541 0
M  V30 8006 H 746.576 0.208633 4.84451 0
M  V30 8007 N 747.919 -1.57396 -0.0801906 0
M  V30 8008 C 749.144 -1.91437 -0.797909 0
M  V30 8009 C 749.569 -0.789075 -1.70749 0
M  V30 8010 O 748.927 0.25857 -1.79447 0
M  V30 8011 C 748.975 -3.24402 -1.57467 0
M  V30 8012 O 748.079 -3.13043 -2.68473 0
M  V30 8013 H 747.42 -0.627109 -0.218243 0
M  V30 8014 H 749.95 -2.04537 -0.050949 0
M  V30 8015 H 749.96 -3.58072 -1.95571 0
M  V30 8016 H 748.635 -4.05884 -0.907229 0
M  V30 8017 H 747.212 -2.90915 -2.33287 0
M  V30 8018 N 749.397 0.351382 -1.53633 0
M  V30 8019 C 750.813 0.693987 -1.43722 0
M  V30 8020 C 751.013 1.9274 -0.587669 0
M  V30 8021 O 750.069 2.52387 -0.0756082 0
M  V30 8022 C 751.382 0.893937 -2.87105 0
M  V30 8023 C 752.93 0.993051 -2.96829 0
M  V30 8024 C 753.405 1.22537 -4.41303 0
M  V30 8025 N 754.896 1.29275 -4.44795 0
M  V30 8026 C 755.631 1.48988 -5.53706 0
M  V30 8027 N 755.127 1.65924 -6.72637 0
M  V30 8028 N 756.92 1.51472 -5.41306 0
M  V30 8029 H 749.071 -0.459688 -2.07366 0
M  V30 8030 H 751.334 -0.143684 -0.937048 0
M  V30 8031 H 751.04 0.0592517 -3.5165 0
M  V30 8032 H 750.914 1.79795 -3.31592 0
M  V30 8033 H 753.301 1.81827 -2.32429 0
M  V30 8034 H 753.382 0.0661119 -2.55715 0
M  V30 8035 H 753.026 0.405117 -5.06282 0
M  V30 8036 H 752.956 2.16575 -4.80003 0
M  V30 8037 H 755.447 1.17743 -3.59089 0
M  V30 8038 H 755.76 1.80578 -7.51406 0
M  V30 8039 H 754.105 1.63075 -6.75597 0
M  V30 8040 H 757.296 1.37818 -4.47352 0
M  V30 8041 H 757.469 1.66493 -6.26246 0
M  V30 8042 N 750.875 1.45233 0.611969 0
M  V30 8043 C 751.807 1.49575 1.73666 0
M  V30 8044 C 752.82 0.386987 1.58134 0
M  V30 8045 O 754.009 0.653804 1.66095 0
M  V30 8046 C 751.109 1.33223 3.11617 0
M  V30 8047 C 750.282 2.57694 3.5343 0
M  V30 8048 C 749.341 2.35962 4.70328 0
M  V30 8049 O 748.367 3.09553 4.77667 0
M  V30 8050 N 749.569 1.40243 5.63305 0
M  V30 8051 H 752.334 2.46539 1.70407 0
M  V30 8052 H 749.895 1.40917 0.79712 0
M  V30 8053 H 751.887 1.16502 3.87569 0
M  V30 8054 H 750.457 0.44551 3.09409 0
M  V30 8055 H 749.677 2.8956 2.67486 0
M  V30 8056 H 750.965 3.40441 3.78124 0
M  V30 8057 H 750.363 0.795023 5.60086 0
M  V30 8058 H 748.92 1.29496 6.38807 0
M  V30 8059 N 752.353 -0.854086 1.3245 0
M  V30 8060 C 753.301 -1.98411 1.21391 0
M  V30 8061 C 754.295 -1.68984 0.118586 0
M  V30 8062 O 755.501 -1.77784 0.281549 0
M  V30 8063 H 751.876 -0.651077 0.376301 0
M  V30 8064 H 753.847 -2.04867 2.16961 0
M  V30 8065 C 752.596 -3.34345 0.954407 0
M  V30 8066 H 751.919 -3.57518 1.78944 0
M  V30 8067 H 753.359 -4.13959 0.917269 0
M  V30 8068 C 751.818 -3.35151 -0.342838 0
M  V30 8069 O 752.348 -3.78174 -1.35452 0
M  V30 8070 N 750.554 -2.88298 -0.365012 0
M  V30 8071 H 750.101 -2.53481 0.4588 0
M  V30 8072 H 750.059 -2.8922 -1.23284 0
M  V30 8073 N 753.831 -1.1567 -1.07043 0
M  V30 8074 C 754.779 -0.852204 -2.16426 0
M  V30 8075 C 755.773 0.175661 -1.68487 0
M  V30 8076 O 756.979 0.0303874 -1.79974 0
M  V30 8077 H 753.354 -0.257942 -0.706378 0
M  V30 8078 H 755.325 -1.78231 -2.39324 0
M  V30 8079 C 754.074 -0.361362 -3.45817 0
M  V30 8080 H 753.397 -1.14369 -3.83092 0
M  V30 8081 H 754.837 -0.186997 -4.23587 0
M  V30 8082 C 753.296 0.917703 -3.2416 0
M  V30 8083 O 753.826 1.98858 -3.49025 0
M  V30 8084 N 752.032 0.858456 -2.77631 0
M  V30 8085 H 751.579 -0.0131821 -2.57597 0
M  V30 8086 H 751.537 1.71478 -2.6352 0
M  V30 8087 N 755.309 1.25446 -0.953992 0
M  V30 8088 C 756.539 1.96929 -0.624688 0
M  V30 8089 C 756.947 1.71112 0.807292 0
M  V30 8090 O 756.29 0.983512 1.55154 0
M  V30 8091 C 756.352 3.50425 -0.802676 0
M  V30 8092 C 756.016 3.99916 -2.21169 0
M  V30 8093 C 757.013 4.10662 -3.18831 0
M  V30 8094 C 754.698 4.33598 -2.53571 0
M  V30 8095 C 756.692 4.54401 -4.46988 0
M  V30 8096 C 754.379 4.77024 -3.81958 0
M  V30 8097 C 755.377 4.87388 -4.78478 0
M  V30 8098 O 755.065 5.29851 -6.04577 0
M  V30 8099 H 754.797 0.634511 -0.233179 0
M  V30 8100 H 757.351 1.60591 -1.28061 0
M  V30 8101 H 755.581 3.86596 -0.0896044 0
M  V30 8102 H 757.27 4.03117 -0.47452 0
M  V30 8103 H 758.036 3.84872 -2.95124 0
M  V30 8104 H 753.915 4.24757 -1.79171 0
M  V30 8105 H 757.459 4.62406 -5.22328 0
M  V30 8106 H 753.356 5.02258 -4.05471 0
M  V30 8107 H 754.124 5.48039 -6.07944 0
M  V30 8108 N 756.787 0.722489 1.40064 0
M  V30 8109 C 758.015 0.274838 2.05066 0
M  V30 8110 C 758.43 -1.08586 1.54449 0
M  V30 8111 O 757.787 -1.68375 0.704003 0
M  V30 8112 C 757.838 0.253673 3.60609 0
M  V30 8113 O 757.559 1.56064 4.0936 0
M  V30 8114 C 759.06 -0.211684 4.42794 0
M  V30 8115 H 756.28 0.12226 0.659768 0
M  V30 8116 H 758.824 0.982632 1.79345 0
M  V30 8117 H 756.979 -0.405137 3.85276 0
M  V30 8118 H 757.393 1.46576 5.03603 0
M  V30 8119 H 758.867 -0.175341 5.51721 0
M  V30 8120 H 759.344 -1.25493 4.2089 0
M  V30 8121 H 759.95 0.4171 4.2325 0
M  V30 8122 N 758.265 -1.50454 0.469181 0
M  V30 8123 C 759.511 -2.02615 -0.0865971 0
M  V30 8124 C 759.844 -1.35062 -1.39542 0
M  V30 8125 O 759.119 -0.475701 -1.88593 0
M  V30 8126 C 759.402 -3.59068 -0.272385 0
M  V30 8127 C 759.255 -4.37196 1.05733 0
M  V30 8128 C 760.574 -4.2793 -1.0278 0
M  V30 8129 H 757.693 -0.736389 -0.0299977 0
M  V30 8130 H 760.335 -1.79792 0.614399 0
M  V30 8131 H 758.485 -3.78646 -0.869471 0
M  V30 8132 H 760.157 -4.29195 1.69084 0
M  V30 8133 H 758.4 -4.01013 1.65442 0
M  V30 8134 H 759.071 -5.44924 0.880997 0
M  V30 8135 H 761.547 -4.12816 -0.521718 0
M  V30 8136 H 760.423 -5.37214 -1.12659 0
M  V30 8137 H 760.684 -3.90968 -2.0639 0
M  V30 8138 N 759.743 -0.201713 -1.56304 0
M  V30 8139 C 760.691 0.733133 -2.20744 0
M  V30 8140 C 761.685 1.2148 -1.18064 0
M  V30 8141 O 762.891 1.17692 -1.36193 0
M  V30 8142 H 759.266 0.254789 -0.707521 0
M  V30 8143 H 761.237 0.165996 -2.97938 0
M  V30 8144 C 759.986 1.93925 -2.88597 0
M  V30 8145 H 759.309 1.5777 -3.67353 0
M  V30 8146 H 760.749 2.57158 -3.37114 0
M  V30 8147 C 759.208 2.78219 -1.89989 0
M  V30 8148 O 759.738 3.76353 -1.40432 0
M  V30 8149 N 757.944 2.43847 -1.58072 0
M  V30 8150 H 757.491 1.64103 -1.98565 0
M  V30 8151 H 757.449 3.0053 -0.923524 0
M  V30 8152 N 761.222 1.57436 0.0718424 0
M  V30 8153 C 762.17 2.04725 1.10411 0
M  V30 8154 C 763.164 0.952579 1.4008 0
M  V30 8155 O 764.37 1.13769 1.39487 0
M  V30 8156 H 760.745 0.652749 0.373393 0
M  V30 8157 H 762.716 2.90569 0.679126 0
M  V30 8158 C 761.465 2.5068 2.40946 0
M  V30 8159 H 760.788 3.34505 2.18967 0
M  V30 8160 H 762.228 2.87521 3.11621 0
M  V30 8161 C 760.687 1.38971 3.06902 0
M  V30 8162 O 761.217 0.731786 3.94978 0
M  V30 8163 N 759.423 1.13485 2.67525 0
M  V30 8164 H 758.97 1.67168 1.95991 0
M  V30 8165 H 758.928 0.389467 3.11978 0
M  V30 8166 N 762.7 -0.34323 1.53817 0
M  V30 8167 C 763.647 -1.42153 1.81827 0
M  V30 8168 C 764.617 -1.52251 0.663996 0
M  V30 8169 O 765.802 -1.67784 0.908461 0
M  V30 8170 C 762.942 -2.78799 2.03384 0
M  V30 8171 C 762.055 -2.7749 3.31094 0
M  V30 8172 C 761.19 -4.05856 3.42717 0
M  V30 8173 C 760.229 -3.98776 4.64375 0
M  V30 8174 N 759.366 -5.18833 4.73029 0
M  V30 8175 H 764.206 -1.17567 2.73829 0
M  V30 8176 H 761.743 -0.569506 1.35628 0
M  V30 8177 H 763.701 -3.58211 2.13872 0
M  V30 8178 H 762.331 -3.01736 1.14696 0
M  V30 8179 H 761.383 -1.90182 3.29446 0
M  V30 8180 H 762.695 -2.68137 4.206 0
M  V30 8181 H 761.849 -4.93691 3.52638 0
M  V30 8182 H 760.588 -4.1799 2.51267 0
M  V30 8183 H 759.593 -3.09325 4.5453 0
M  V30 8184 H 760.818 -3.88224 5.57189 0
M  V30 8185 H 758.764 -5.31511 3.84489 0
M  V30 8186 H 758.681 -5.11737 5.56472 0
M  V30 8187 H 759.949 -6.08439 4.87261 0
M  V30 8188 N 764.178 -1.45556 -0.604258 0
M  V30 8189 C 765.594 -1.30035 -0.925368 0
M  V30 8190 C 765.794 -0.255833 -1.99869 0
M  V30 8191 O 764.85 0.349076 -2.50075 0
M  V30 8192 C 766.163 -2.68028 -1.36314 0
M  V30 8193 C 767.711 -2.75951 -1.47717 0
M  V30 8194 C 768.186 -4.14476 -1.94868 0
M  V30 8195 N 769.677 -4.16787 -2.02097 0
M  V30 8196 C 770.412 -5.20845 -2.39809 0
M  V30 8197 N 769.908 -6.35246 -2.76467 0
M  V30 8198 N 771.701 -5.08204 -2.40177 0
M  V30 8199 H 763.852 -2.1214 0.10512 0
M  V30 8200 H 766.115 -0.947871 -0.0156303 0
M  V30 8201 H 765.821 -3.45667 -0.648628 0
M  V30 8202 H 765.695 -2.96711 -2.329 0
M  V30 8203 H 768.082 -1.98613 -2.18258 0
M  V30 8204 H 768.163 -2.50977 -0.494371 0
M  V30 8205 H 767.807 -4.923 -1.24912 0
M  V30 8206 H 767.737 -4.36843 -2.94068 0
M  V30 8207 H 770.228 -3.34233 -1.76343 0
M  V30 8208 H 770.541 -7.10438 -3.04134 0
M  V30 8209 H 768.886 -6.38642 -2.74155 0
M  V30 8210 H 772.077 -4.17874 -2.10947 0
M  V30 8211 H 772.25 -5.89417 -2.69242 0
M  V30 8212 N 765.656 0.84705 -1.32902 0
M  V30 8213 C 766.604 1.97765 -1.22441 0
M  V30 8214 C 767.598 1.68919 -0.127546 0
M  V30 8215 O 768.804 1.77633 -0.290973 0
M  V30 8216 H 765.179 0.649072 -0.379748 0
M  V30 8217 H 767.15 2.03713 -2.18044 0
M  V30 8218 C 765.899 3.33834 -0.972125 0
M  V30 8219 H 765.222 3.56564 -1.80837 0
M  V30 8220 H 766.662 4.13467 -0.939209 0
M  V30 8221 C 765.121 3.35328 0.325059 0
M  V30 8222 O 765.651 3.78887 1.33445 0
M  V30 8223 N 763.857 2.88488 0.349718 0
M  V30 8224 H 763.404 2.53234 -0.472236 0
M  V30 8225 H 763.362 2.8987 1.21748 0
M  V30 8226 N 767.134 1.16236 1.06428 0
M  V30 8227 C 768.382 0.941171 1.78847 0
M  V30 8228 C 768.703 -0.53248 1.87589 0
M  V30 8229 O 767.973 -1.38686 1.38358 0
M  V30 8230 H 766.553 0.345228 0.66244 0
M  V30 8231 H 769.215 1.46479 1.28569 0
M  V30 8232 H 768.311 1.35871 2.80972 0
M  V30 8233 N 768.612 -1.24939 0.960631 0
M  V30 8234 C 769.858 -1.93104 0.61958 0
M  V30 8235 C 770.191 -1.74991 -0.84212 0
M  V30 8236 O 769.466 -1.09867 -1.60498 0
M  V30 8237 C 769.749 -3.46326 0.986422 0
M  V30 8238 C 769.602 -3.73638 2.50429 0
M  V30 8239 C 770.921 -4.37067 0.515827 0
M  V30 8240 H 768.04 -0.701311 0.226566 0
M  V30 8241 H 770.682 -1.47442 1.19836 0
M  V30 8242 H 768.832 -3.85348 0.493907 0
M  V30 8243 H 770.504 -3.44217 3.07103 0
M  V30 8244 H 768.747 -3.19035 2.93937 0
M  V30 8245 H 769.418 -4.80815 2.71147 0
M  V30 8246 H 771.894 -4.05381 0.938389 0
M  V30 8247 H 770.77 -5.43022 0.80114 0
M  V30 8248 H 771.031 -4.38224 -0.584171 0
M  V30 8249 N 770.09 -0.729906 -1.39679 0
M  V30 8250 C 771.053 -0.0951668 -2.29002 0
M  V30 8251 C 772.053 0.672471 -1.46063 0
M  V30 8252 O 773.243 0.502245 -1.66803 0
M  V30 8253 C 770.375 0.874631 -3.29489 0
M  V30 8254 H 771.568 -0.882062 -2.86635 0
M  V30 8255 H 769.121 -0.495424 -1.4824 0
M  V30 8256 H 769.856 1.68807 -2.76902 0
M  V30 8257 H 769.641 0.326893 -3.90735 0
M  V30 8258 H 771.131 1.31548 -3.96339 0
M  V30 8259 N 771.568 1.50203 -0.477153 0
M  V30 8260 C 772.515 2.28656 0.31386 0
M  V30 8261 C 773.485 1.33977 0.981802 0
M  V30 8262 O 774.67 1.62919 0.993072 0
M  V30 8263 C 771.81 3.16027 1.38639 0
M  V30 8264 C 770.923 4.25743 0.732615 0
M  V30 8265 C 770.058 5.00363 1.78355 0
M  V30 8266 C 769.097 6.01945 1.11035 0
M  V30 8267 N 768.234 6.6982 2.10441 0
M  V30 8268 H 773.074 2.958 -0.361445 0
M  V30 8269 H 770.611 1.45867 -0.190093 0
M  V30 8270 H 772.569 3.6504 2.01994 0
M  V30 8271 H 771.199 2.50917 2.03077 0
M  V30 8272 H 770.251 3.80398 -0.0136546 0
M  V30 8273 H 771.563 4.98393 0.201513 0
M  V30 8274 H 770.717 5.53124 2.49276 0
M  V30 8275 H 769.456 4.27432 2.34847 0
M  V30 8276 H 768.461 5.48438 0.386797 0
M  V30 8277 H 769.686 6.76851 0.552248 0
M  V30 8278 H 767.632 5.99677 2.65939 0
M  V30 8279 H 767.549 7.38366 1.62332 0
M  V30 8280 H 768.817 7.27196 2.80724 0
M  V30 8281 N 773.046 0.209999 1.56195 0
M  V30 8282 C 774.292 -0.425442 1.98287 0
M  V30 8283 C 774.625 -1.60232 1.09724 0
M  V30 8284 O 773.9 -1.93902 0.152414 0
M  V30 8285 C 774.183 -0.871189 3.49403 0
M  V30 8286 C 774.036 0.308527 4.48741 0
M  V30 8287 C 775.355 -1.73146 4.04609 0
M  V30 8288 H 772.474 -0.153169 0.720908 0
M  V30 8289 H 775.116 0.303916 1.87554 0
M  V30 8290 H 773.266 -1.49266 3.58681 0
M  V30 8291 H 774.938 0.946487 4.51486 0
M  V30 8292 H 773.181 0.957878 4.23092 0
M  V30 8293 H 773.852 -0.0461143 5.51981 0
M  V30 8294 H 776.328 -1.2072 3.98203 0
M  V30 8295 H 775.204 -2.01228 5.10684 0
M  V30 8296 H 775.465 -2.69083 3.5078 0
M  V30 8297 N 774.524 -1.57472 -0.0634922 0
M  V30 8298 C 775.472 -2.05307 -1.09323 0
M  V30 8299 C 776.466 -0.959995 -1.39572 0
M  V30 8300 O 777.672 -1.14507 -1.38882 0
M  V30 8301 H 774.047 -0.65472 -0.369927 0
M  V30 8302 H 776.018 -2.90925 -0.663707 0
M  V30 8303 C 774.767 -2.51954 -2.39613 0
M  V30 8304 H 774.09 -3.35662 -2.1719 0
M  V30 8305 H 775.53 -2.89169 -3.10092 0
M  V30 8306 C 773.989 -1.40596 -3.06161 0
M  V30 8307 O 774.519 -0.752722 -3.94585 0
M  V30 8308 N 772.725 -1.14902 -2.66919 0
M  V30 8309 H 772.272 -1.68205 -1.95102 0
M  V30 8310 H 772.23 -0.406006 -3.11767 0
M  V30 8311 N 776.003 0.335068 -1.53997 0
M  V30 8312 C 777.252 1.07182 -1.70865 0
M  V30 8313 C 777.565 1.89541 -0.483078 0
M  V30 8314 O 778.771 2.66219 -0.532879 0
M  V30 8315 C 777.227 1.95497 -3.02174 0
M  V30 8316 C 776.835 1.18304 -4.32097 0
M  V30 8317 C 778.579 2.68978 -3.28407 0
M  V30 8318 C 776.486 2.05699 -5.54474 0
M  V30 8319 H 775.416 0.403857 -0.636722 0
M  V30 8320 H 778.067 0.33076 -1.80494 0
M  V30 8321 H 776.449 2.73456 -2.86423 0
M  V30 8322 H 777.623 0.451969 -4.58578 0
M  V30 8323 H 775.938 0.565556 -4.12541 0
M  V30 8324 H 778.535 3.34651 -4.17029 0
M  V30 8325 H 778.878 3.36 -2.45784 0
M  V30 8326 H 779.411 1.98087 -3.44973 0
M  V30 8327 H 776.15 1.43204 -6.39666 0
M  V30 8328 H 775.67 2.76572 -5.32229 0
M  V30 8329 H 777.349 2.64554 -5.90441 0
M  V30 8330 N 777.481 1.45874 0.596531 0
M  V30 8331 C 778.728 1.50467 1.35521 0
M  V30 8332 C 779.056 0.150802 1.93915 0
M  V30 8333 O 778.311 -0.851913 1.76184 0
M  V30 8334 C 778.61 2.54034 2.51399 0
M  V30 8335 C 778.276 3.9844 2.11085 0
M  V30 8336 C 776.938 4.37758 1.99804 0
M  V30 8337 C 779.29 4.89209 1.79788 0
M  V30 8338 C 776.618 5.65727 1.55465 0
M  V30 8339 C 778.97 6.17602 1.36931 0
M  V30 8340 C 777.634 6.5584 1.24218 0
M  V30 8341 H 776.904 0.550597 0.495907 0
M  V30 8342 H 779.551 1.79279 0.673145 0
M  V30 8343 H 777.856 2.18832 3.24992 0
M  V30 8344 H 779.553 2.54822 3.09624 0
M  V30 8345 H 776.143 3.67353 2.20794 0
M  V30 8346 H 780.327 4.59562 1.87395 0
M  V30 8347 H 775.583 5.94139 1.44253 0
M  V30 8348 H 779.757 6.87373 1.11764 0
M  V30 8349 H 777.384 7.54897 0.896353 0
M  V30 8350 N 778.959 -0.83999 1.33349 0
M  V30 8351 C 780.206 -1.59517 1.24742 0
M  V30 8352 C 780.534 -1.93598 -0.187077 0
M  V30 8353 O 779.789 -1.58782 -1.14398 0
M  V30 8354 C 780.088 -2.91571 2.06691 0
M  V30 8355 C 779.754 -2.76856 3.55895 0
M  V30 8356 C 778.416 -2.72551 3.96572 0
M  V30 8357 C 780.768 -2.61741 4.50712 0
M  V30 8358 C 778.096 -2.51028 5.30285 0
M  V30 8359 C 780.448 -2.41752 5.84584 0
M  V30 8360 C 779.112 -2.35848 6.24445 0
M  V30 8361 H 778.382 -0.583714 0.456463 0
M  V30 8362 H 781.029 -0.973261 1.64924 0
M  V30 8363 H 779.334 -3.57961 1.59284 0
M  V30 8364 H 781.031 -3.49053 1.9739 0
M  V30 8365 H 777.621 -2.81039 3.23597 0
M  V30 8366 H 781.805 -2.64102 4.20195 0
M  V30 8367 H 777.061 -2.44903 5.60208 0
M  V30 8368 H 781.235 -2.2904 6.57658 0
M  V30 8369 H 778.862 -2.18931 7.27993 0
M  V30 8370 N 780.437 -1.16799 -1.0581 0
M  V30 8371 C 781.384 -0.87902 -2.13405 0
M  V30 8372 C 782.354 0.174541 -1.6518 0
M  V30 8373 O 783.539 0.0386843 -1.90761 0
M  V30 8374 C 780.679 -0.391616 -3.42871 0
M  V30 8375 C 779.792 -1.50857 -4.04804 0
M  V30 8376 C 778.927 -0.975682 -5.22163 0
M  V30 8377 C 777.966 -2.06851 -5.76089 0
M  V30 8378 N 777.103 -1.55085 -6.84758 0
M  V30 8379 H 781.943 -1.80043 -2.37463 0
M  V30 8380 H 779.48 -0.898083 -1.16503 0
M  V30 8381 H 781.438 -0.0906247 -4.17102 0
M  V30 8382 H 780.068 0.49284 -3.19016 0
M  V30 8383 H 779.12 -1.92542 -3.28073 0
M  V30 8384 H 780.432 -2.33305 -4.40874 0
M  V30 8385 H 779.586 -0.628165 -6.03439 0
M  V30 8386 H 778.325 -0.120566 -4.87551 0
M  V30 8387 H 777.33 -2.42467 -4.93447 0
M  V30 8388 H 778.555 -2.92768 -6.12751 0
M  V30 8389 H 776.501 -0.718345 -6.52055 0
M  V30 8390 H 776.418 -2.31145 -7.19797 0
M  V30 8391 H 777.686 -1.23206 -7.69702 0
M  V30 8392 N 781.915 1.24427 -0.967243 0
M  V30 8393 C 782.825 2.29109 -0.504592 0
M  V30 8394 C 783.841 1.68495 0.434224 0
M  V30 8395 O 785.017 1.99041 0.307379 0
M  V30 8396 C 782.082 3.46133 0.198273 0
M  V30 8397 C 781.143 4.22149 -0.780313 0
M  V30 8398 C 780.376 5.33585 -0.110896 0
M  V30 8399 O 780.599 5.59676 1.10088 0
M  V30 8400 O 779.533 5.96522 -0.802823 0
M  V30 8401 H 783.359 2.708 -1.37482 0
M  V30 8402 H 780.944 1.30111 -0.73426 0
M  V30 8403 H 782.826 4.17205 0.593124 0
M  V30 8404 H 781.501 3.0642 1.04347 0
M  V30 8405 H 780.408 3.53454 -1.22561 0
M  V30 8406 H 781.741 4.65677 -1.59392 0
M  V30 8407 N 783.393 0.737304 1.3929 0
M  V30 8408 C 784.323 0.113988 2.33222 0
M  V30 8409 C 785.304 -0.721695 1.54031 0
M  V30 8410 O 786.489 -0.666206 1.82415 0
M  V30 8411 C 783.619 -0.792319 3.38141 0
M  V30 8412 C 782.573 -0.0606178 4.27957 0
M  V30 8413 C 781.899 -1.08409 5.23595 0
M  V30 8414 C 783.199 1.09817 5.10625 0
M  V30 8415 H 784.893 0.898611 2.85596 0
M  V30 8416 H 782.439 0.433571 1.37318 0
M  V30 8417 H 784.392 -1.23793 4.02807 0
M  V30 8418 H 783.116 -1.60908 2.84211 0
M  V30 8419 H 781.775 0.365393 3.64775 0
M  V30 8420 H 781.423 -1.89449 4.6596 0
M  V30 8421 H 781.123 -0.599269 5.84536 0
M  V30 8422 H 782.647 -1.52936 5.91137 0
M  V30 8423 H 784.061 0.730892 5.68622 0
M  V30 8424 H 782.458 1.51278 5.80719 0
M  V30 8425 H 783.528 1.91878 4.45321 0
M  V30 8426 N 784.871 -1.49948 0.485112 0
M  V30 8427 C 785.819 -2.30449 -0.315609 0
M  V30 8428 C 786.813 -1.38351 -0.977516 0
M  V30 8429 O 788.019 -1.55477 -0.907019 0
M  V30 8430 H 784.394 -0.742262 -0.120629 0
M  V30 8431 H 786.365 -2.95925 0.383552 0
M  V30 8432 C 785.114 -3.19283 -1.37673 0
M  V30 8433 H 784.437 -3.90067 -0.876801 0
M  V30 8434 H 785.877 -3.78579 -1.90929 0
M  V30 8435 C 784.336 -2.37817 -2.38631 0
M  V30 8436 O 784.866 -2.0711 -3.44192 0
M  V30 8437 N 783.072 -2.00135 -2.107 0
M  V30 8438 H 782.619 -2.25307 -1.24878 0
M  V30 8439 H 782.577 -1.45933 -2.7848 0
M  V30 8440 N 786.349 -0.21828 -1.56081 0
M  V30 8441 C 787.579 0.41865 -2.02314 0
M  V30 8442 C 787.987 1.54124 -1.09739 0
M  V30 8443 O 787.33 1.83435 -0.0986829 0
M  V30 8444 C 787.392 1.01439 -3.44892 0
M  V30 8445 C 787.056 0.0276523 -4.56992 0
M  V30 8446 C 788.053 -0.771526 -5.14143 0
M  V30 8447 C 785.738 -0.0901537 -5.02219 0
M  V30 8448 C 787.732 -1.67525 -6.14991 0
M  V30 8449 C 785.419 -0.997411 -6.02905 0
M  V30 8450 C 786.417 -1.78851 -6.59167 0
M  V30 8451 O 786.105 -2.68052 -7.57894 0
M  V30 8452 H 785.837 0.107066 -0.667468 0
M  V30 8453 H 788.391 -0.331191 -2.02712 0
M  V30 8454 H 786.621 1.81326 -3.41552 0
M  V30 8455 H 788.31 1.55838 -3.74792 0
M  V30 8456 H 789.076 -0.690945 -4.80053 0
M  V30 8457 H 784.955 0.515474 -4.58109 0
M  V30 8458 H 788.499 -2.29316 -6.58832 0
M  V30 8459 H 784.396 -1.07902 -6.36418 0
M  V30 8460 H 785.164 -2.6209 -7.75404 0
M  V30 8461 N 787.827 1.57504 0.0551401 0
M  V30 8462 C 788.774 2.04825 1.06373 0
M  V30 8463 C 789.744 0.932108 1.37481 0
M  V30 8464 O 790.929 1.20093 1.48265 0
M  V30 8465 C 788.069 2.51091 2.36743 0
M  V30 8466 C 787.182 3.76392 2.12021 0
M  V30 8467 C 786.317 4.11373 3.36074 0
M  V30 8468 C 785.356 5.29666 3.0679 0
M  V30 8469 N 784.493 5.60205 4.2322 0
M  V30 8470 H 789.333 2.90753 0.653216 0
M  V30 8471 H 786.87 1.43776 0.310951 0
M  V30 8472 H 788.828 2.75973 3.12881 0
M  V30 8473 H 787.458 1.68118 2.75565 0
M  V30 8474 H 786.51 3.58751 1.26498 0
M  V30 8475 H 787.822 4.62662 1.86401 0
M  V30 8476 H 786.976 4.37245 4.20597 0
M  V30 8477 H 785.715 3.23704 3.64784 0
M  V30 8478 H 784.72 5.03574 2.20664 0
M  V30 8479 H 785.945 6.18968 2.79385 0
M  V30 8480 H 783.891 4.75495 4.5193 0
M  V30 8481 H 783.808 6.40928 4.00933 0
M  V30 8482 H 785.076 5.90637 5.08692 0
M  V30 8483 N 789.305 -0.326896 1.54172 0
M  V30 8484 C 790.533 -1.08486 1.76177 0
M  V30 8485 C 790.948 -1.81815 0.508788 0
M  V30 8486 O 790.305 -1.74924 -0.520362 0
M  V30 8487 C 790.356 -2.08552 2.95276 0
M  V30 8488 O 790.077 -1.38202 4.15731 0
M  V30 8489 C 791.578 -2.96593 3.29466 0
M  V30 8490 H 788.798 -0.322835 0.588233 0
M  V30 8491 H 791.342 -0.374036 2.0105 0
M  V30 8492 H 789.497 -2.75174 2.72687 0
M  V30 8493 H 789.911 -2.05186 4.827 0
M  V30 8494 H 791.385 -3.62708 4.16109 0
M  V30 8495 H 791.862 -3.63511 2.46487 0
M  V30 8496 H 792.468 -2.35537 3.54122 0
M  V30 8497 N 790.784 -1.46188 -0.588786 0
M  V30 8498 C 791.732 -1.56653 -1.71938 0
M  V30 8499 C 792.726 -0.435354 -1.6371 0
M  V30 8500 O 793.932 -0.611996 -1.69277 0
M  V30 8501 H 790.307 -0.492408 -0.568365 0
M  V30 8502 H 792.278 -2.51724 -1.60242 0
M  V30 8503 C 791.027 -1.56822 -3.10326 0
M  V30 8504 H 790.35 -2.43198 -3.17325 0
M  V30 8505 H 791.79 -1.68199 -3.89211 0
M  V30 8506 C 790.249 -0.295802 -3.35599 0
M  V30 8507 O 790.779 0.616515 -3.96941 0
M  V30 8508 N 788.985 -0.185609 -2.90007 0
M  V30 8509 H 788.532 -0.928914 -2.40269 0
M  V30 8510 H 788.49 0.664883 -3.07289 0
M  V30 8511 N 792.262 0.832906 -1.33792 0
M  V30 8512 C 793.487 1.62568 -1.28788 0
M  V30 8513 C 793.912 1.87599 0.137246 0
M  V30 8514 O 793.27 1.44436 1.0958 0
M  V30 8515 C 793.318 2.9495 -2.07453 0
M  V30 8516 O 792.422 3.86546 -1.43722 0
M  V30 8517 H 791.763 0.494809 -0.442787 0
M  V30 8518 H 794.293 1.03578 -1.76445 0
M  V30 8519 H 794.303 3.44599 -2.1844 0
M  V30 8520 H 792.978 2.76055 -3.11073 0
M  V30 8521 H 791.555 3.45044 -1.41417 0
M  V30 8522 N 793.74 1.17359 1.05189 0
M  V30 8523 C 794.65 0.904984 2.16442 0
M  V30 8524 C 795.666 -0.12686 1.73537 0
M  V30 8525 O 796.842 0.0524127 2.01332 0
M  V30 8526 C 793.907 0.422019 3.44122 0
M  V30 8527 C 792.968 1.52045 4.01473 0
M  V30 8528 C 792.201 1.06044 5.23059 0
M  V30 8529 O 792.424 -0.0854023 5.70336 0
M  V30 8530 O 791.358 1.85349 5.72651 0
M  V30 8531 H 795.184 1.8356 2.41949 0
M  V30 8532 H 792.769 0.95447 1.14936 0
M  V30 8533 H 794.651 0.160208 4.21095 0
M  V30 8534 H 793.326 -0.480444 3.20115 0
M  V30 8535 H 792.233 1.83615 3.25939 0
M  V30 8536 H 793.566 2.39863 4.29798 0
M  V30 8537 N 795.218 -1.23913 0.973828 0
M  V30 8538 C 796.443 -1.96735 0.656511 0
M  V30 8539 C 796.868 -1.71682 -0.768571 0
M  V30 8540 O 796.226 -0.984267 -1.52256 0
M  V30 8541 C 796.274 -3.48004 0.944735 0
M  V30 8542 O 795.378 -4.12387 0.0333357 0
M  V30 8543 H 794.719 -0.616119 0.247575 0
M  V30 8544 H 797.249 -1.57525 1.30564 0
M  V30 8545 H 797.259 -3.98424 0.87876 0
M  V30 8546 H 795.934 -3.65567 1.98328 0
M  V30 8547 H 794.511 -3.72585 0.153157 0
M  V30 8548 N 796.696 -0.74468 -1.38897 0
M  V30 8549 C 798.107 -0.36568 -1.83084 0
M  V30 8550 C 798.458 1.10436 -1.62168 0
M  V30 8551 O 797.583 1.85281 -1.11804 0
M  V30 8552 C 798.178 -0.656946 -3.3237 0
M  V30 8553 C 796.737 -0.331329 -3.74939 0
M  V30 8554 C 795.884 -0.914661 -2.61781 0
M  V30 8555 H 798.835 -0.941551 -1.27752 0
M  V30 8556 H 798.856 0.0679546 -3.80439 0
M  V30 8557 H 798.368 -1.72693 -3.47561 0
M  V30 8558 H 796.469 0.732426 -3.6533 0
M  V30 8559 H 796.582 -0.820655 -4.72019 0
M  V30 8560 H 794.946 -0.34063 -2.52412 0
M  V30 8561 H 795.729 -1.98949 -2.79775 0
M  V30 8562 N 798.174 1.49689 -0.493057 0
M  V30 8563 C 799.399 2.07331 0.0535114 0
M  V30 8564 C 799.824 1.35196 1.30781 0
M  V30 8565 O 799.182 0.406246 1.7669 0
M  V30 8566 C 799.23 3.59364 0.29825 0
M  V30 8567 O 798.334 3.88819 1.37454 0
M  V30 8568 H 797.675 0.663612 -0.0227018 0
M  V30 8569 H 800.205 1.926 -0.690402 0
M  V30 8570 H 800.215 4.04515 0.532159 0
M  V30 8571 H 798.89 4.1128 -0.618207 0
M  V30 8572 H 797.467 3.55487 1.12621 0
M  V30 8573 N 799.652 0.226554 1.55963 0
M  V30 8574 C 800.898 -0.404387 1.98727 0
M  V30 8575 C 801.231 -1.59059 1.11418 0
M  V30 8576 O 800.506 -1.93729 0.172971 0
M  V30 8577 C 800.789 -0.834081 3.50307 0
M  V30 8578 C 800.642 0.356104 4.48388 0
M  V30 8579 C 801.961 -1.68845 4.06423 0
M  V30 8580 H 799.08 -0.145515 0.722492 0
M  V30 8581 H 801.722 0.323791 1.87221 0
M  V30 8582 H 799.872 -1.45454 3.60244 0
M  V30 8583 H 801.544 0.99432 4.50456 0
M  V30 8584 H 799.787 1.0027 4.22053 0
M  V30 8585 H 800.458 0.0124333 5.51999 0
M  V30 8586 H 802.934 -1.16489 3.99461 0
M  V30 8587 H 801.81 -1.958 5.1279 0
M  V30 8588 H 802.071 -2.65347 3.53615 0
M  V30 8589 N 801.13 -1.57531 -0.0467866 0
M  V30 8590 C 802.358 -1.92696 -0.753371 0
M  V30 8591 C 802.773 -0.824792 -1.69831 0
M  V30 8592 O 802.13 0.200155 -1.81399 0
M  V30 8593 C 802.181 -3.27728 -1.52566 0
M  V30 8594 O 801.902 -4.3371 -0.618674 0
M  V30 8595 C 803.403 -3.77066 -2.33101 0
M  V30 8596 H 800.623 -0.636367 -0.212788 0
M  V30 8597 H 803.167 -2.04498 -0.00959361 0
M  V30 8598 H 801.322 -3.17378 -2.22148 0
M  V30 8599 H 801.736 -5.11548 -1.15839 0
M  V30 8600 H 803.21 -4.74109 -2.82709 0
M  V30 8601 H 803.687 -3.07348 -3.13741 0
M  V30 8602 H 804.293 -3.90442 -1.68628 0
M  V30 8603 N 802.608 0.318715 -1.54344 0
M  V30 8604 C 803.541 1.41644 -1.7892 0
M  V30 8605 C 804.519 1.495 -0.639421 0
M  V30 8606 O 805.703 1.66835 -0.877404 0
M  V30 8607 C 802.83 2.79701 -1.9101 0
M  V30 8608 C 801.876 2.89354 -3.13331 0
M  V30 8609 S 802.709 2.53264 -4.71824 0
M  V30 8610 C 803.865 3.93384 -4.86826 0
M  V30 8611 H 804.098 1.20585 -2.71747 0
M  V30 8612 H 801.631 0.515828 -1.45529 0
M  V30 8613 H 803.589 3.59227 -1.98661 0
M  V30 8614 H 802.25 2.9804 -0.991516 0
M  V30 8615 H 801.443 3.90574 -3.1854 0
M  V30 8616 H 801.045 2.17805 -3.04035 0
M  V30 8617 H 803.337 4.88191 -4.69761 0
M  V30 8618 H 804.28 3.93156 -5.88926 0
M  V30 8619 H 804.688 3.82564 -4.15097 0
M  V30 8620 N 804.086 1.46499 0.581025 0
M  V30 8621 C 805.332 1.52121 1.34116 0
M  V30 8622 C 805.665 0.173031 1.93428 0
M  V30 8623 O 804.94 -0.815729 1.76568 0
M  V30 8624 C 805.223 2.62108 2.46924 0
M  V30 8625 C 805.076 4.06462 1.92636 0
M  V30 8626 C 806.395 2.68167 3.48962 0
M  V30 8627 H 803.514 0.5538 0.486287 0
M  V30 8628 H 806.156 1.78443 0.652538 0
M  V30 8629 H 804.306 2.39794 3.05665 0
M  V30 8630 H 805.978 4.40068 1.3834 0
M  V30 8631 H 804.221 4.15862 1.23455 0
M  V30 8632 H 804.892 4.79152 2.74076 0
M  V30 8633 H 807.368 2.8823 3.00104 0
M  V30 8634 H 806.244 3.46942 4.2535 0
M  V30 8635 H 806.505 1.74284 4.06297 0
M  V30 8636 N 805.565 -0.825799 1.34232 0
M  V30 8637 C 806.793 -1.61363 1.29497 0
M  V30 8638 C 807.208 -1.88341 -0.131536 0
M  V30 8639 O 806.565 -1.47279 -1.07773 0
M  V30 8640 C 806.616 -2.95623 2.08061 0
M  V30 8641 O 806.337 -2.69824 3.45147 0
M  V30 8642 C 807.838 -3.90032 2.10688 0
M  V30 8643 H 805.058 -0.501676 0.445603 0
M  V30 8644 H 807.602 -1.02767 1.76803 0
M  V30 8645 H 805.757 -3.50785 1.64404 0
M  V30 8646 H 806.171 -3.55412 3.85723 0
M  V30 8647 H 807.645 -4.81411 2.70087 0
M  V30 8648 H 808.122 -4.25188 1.10052 0
M  V30 8649 H 808.728 -3.40807 2.54422 0
M  V30 8650 N 807.043 -1.17915 -1.04565 0
M  V30 8651 C 807.973 -0.925033 -2.14395 0
M  V30 8652 C 808.954 0.135375 -1.6956 0
M  V30 8653 O 810.139 -0.0161774 -1.94193 0
M  V30 8654 C 807.269 -0.444469 -3.44444 0
M  V30 8655 C 806.223 -1.44478 -4.02877 0
M  V30 8656 C 805.549 -0.821933 -5.28345 0
M  V30 8657 C 806.849 -2.81995 -4.39632 0
M  V30 8658 H 808.543 -1.84354 -2.35911 0
M  V30 8659 H 806.089 -0.887806 -1.13375 0
M  V30 8660 H 808.042 -0.254078 -4.20633 0
M  V30 8661 H 806.766 0.509592 -3.226 0
M  V30 8662 H 805.425 -1.62203 -3.28764 0
M  V30 8663 H 805.073 0.139161 -5.02807 0
M  V30 8664 H 804.773 -1.48976 -5.68401 0
M  V30 8665 H 806.297 -0.641959 -6.07216 0
M  V30 8666 H 807.711 -2.67952 -5.06828 0
M  V30 8667 H 806.108 -3.45414 -4.90723 0
M  V30 8668 H 807.178 -3.35927 -3.49687 0
M  V30 8669 N 808.521 1.23394 -0.980386 0
M  V30 8670 C 809.451 2.2717 -0.540024 0
M  V30 8671 C 810.432 1.64659 0.426787 0
M  V30 8672 O 811.617 1.91543 0.320153 0
M  V30 8673 C 808.747 3.46939 0.15836 0
M  V30 8674 C 807.701 4.21802 -0.725732 0
M  V30 8675 C 807.027 5.34597 0.104866 0
M  V30 8676 C 808.327 4.81802 -2.01654 0
M  V30 8677 H 810.021 2.64257 -1.40743 0
M  V30 8678 H 807.567 1.2703 -0.678193 0
M  V30 8679 H 809.52 4.18683 0.477737 0
M  V30 8680 H 808.244 3.08912 1.06022 0
M  V30 8681 H 806.903 3.51875 -1.02857 0
M  V30 8682 H 806.551 4.92812 1.00726 0
M  V30 8683 H 806.251 5.85607 -0.483557 0
M  V30 8684 H 807.775 6.09163 0.418624 0
M  V30 8685 H 809.189 5.45554 -1.76193 0
M  V30 8686 H 807.586 5.43098 -2.55273 0
M  V30 8687 H 808.656 4.02549 -2.70338 0
M  V30 8688 N 809.999 0.752036 1.385 0
M  V30 8689 C 811.224 0.316993 2.04963 0
M  V30 8690 C 811.649 -1.04582 1.56346 0
M  V30 8691 O 811.007 -1.66616 0.714755 0
M  V30 8692 C 811.055 0.347235 3.58924 0
M  V30 8693 O 810.159 -0.659296 4.07096 0
M  V30 8694 H 809.5 0.140652 0.648932 0
M  V30 8695 H 812.03 1.02272 1.77205 0
M  V30 8696 H 812.04 0.19757 4.07521 0
M  V30 8697 H 810.715 1.34157 3.93668 0
M  V30 8698 H 809.292 -0.474371 3.6987 0
M  V30 8699 N 811.477 -1.49425 0.500989 0
M  V30 8700 C 812.425 -2.30771 -0.291149 0
M  V30 8701 C 813.419 -1.3938 -0.962787 0
M  V30 8702 O 814.625 -1.56431 -0.890477 0
M  V30 8703 H 811 -0.743499 -0.11275 0
M  V30 8704 H 812.971 -2.95501 0.414917 0
M  V30 8705 C 811.72 -3.20725 -1.34279 0
M  V30 8706 H 811.043 -3.90975 -0.83538 0
M  V30 8707 H 812.483 -3.80583 -1.86903 0
M  V30 8708 C 810.942 -2.40334 -2.36095 0
M  V30 8709 O 811.472 -2.10749 -3.41976 0
M  V30 8710 N 809.678 -2.02359 -2.08565 0
M  V30 8711 H 809.225 -2.26619 -1.22482 0
M  V30 8712 H 809.183 -1.48878 -2.76916 0
M  V30 8713 N 812.955 -0.234822 -1.55841 0
M  V30 8714 C 813.885 0.664217 -2.23854 0
M  V30 8715 C 814.866 1.19076 -1.2147 0
M  V30 8716 O 816.051 1.23232 -1.50091 0
M  V30 8717 C 813.181 1.86666 -2.9287 0
M  V30 8718 C 812.135 1.47341 -4.01839 0
M  V30 8719 C 811.461 2.75571 -4.58219 0
M  V30 8720 C 812.761 0.653479 -5.18196 0
M  V30 8721 H 814.455 0.0971213 -2.99242 0
M  V30 8722 H 812.001 0.0452724 -1.43929 0
M  V30 8723 H 813.954 2.50116 -3.39146 0
M  V30 8724 H 812.678 2.45894 -2.1495 0
M  V30 8725 H 811.337 0.862314 -3.56314 0
M  V30 8726 H 810.985 3.32971 -3.77014 0
M  V30 8727 H 810.685 2.49987 -5.31771 0
M  V30 8728 H 812.209 3.39939 -5.07221 0
M  V30 8729 H 813.623 1.19198 -5.60771 0
M  V30 8730 H 812.02 0.494188 -5.98062 0
M  V30 8731 H 813.09 -0.337004 -4.83728 0
M  V30 8732 N 814.433 1.57553 0.0384317 0
M  V30 8733 C 815.681 1.88468 0.729672 0
M  V30 8734 C 816.002 0.831302 1.76393 0
M  V30 8735 O 815.272 -0.13622 1.95426 0
M  V30 8736 H 813.852 0.695529 0.272485 0
M  V30 8737 H 816.514 1.94899 0.0066032 0
M  V30 8738 H 815.61 2.8705 1.22511 0
M  V30 8739 N 815.911 -0.310526 1.54511 0
M  V30 8740 C 817.136 -1.07046 1.7764 0
M  V30 8741 C 817.561 -1.80488 0.529696 0
M  V30 8742 O 816.919 -1.73702 -0.519361 0
M  V30 8743 C 816.967 -2.03411 2.97752 0
M  V30 8744 O 816.071 -3.11545 2.7021 0
M  V30 8745 H 815.412 -0.307994 0.588248 0
M  V30 8746 H 817.942 -0.350848 2.01569 0
M  V30 8747 H 817.952 -2.46048 3.2546 0
M  V30 8748 H 816.627 -1.49361 3.88155 0
M  V30 8749 H 815.204 -2.7349 2.53491 0
M  V30 8750 N 817.389 -1.46805 -0.573248 0
M  V30 8751 C 818.321 -1.54127 -1.6964 0
M  V30 8752 C 819.334 -0.428778 -1.57052 0
M  V30 8753 O 820.523 -0.697612 -1.64303 0
M  V30 8754 C 817.623 -1.41438 -3.07975 0
M  V30 8755 C 816.796 -2.66974 -3.46474 0
M  V30 8756 C 815.855 -2.48349 -4.63906 0
M  V30 8757 O 814.881 -3.22109 -4.69292 0
M  V30 8758 N 816.083 -1.55129 -5.59388 0
M  V30 8759 H 818.848 -2.50971 -1.6381 0
M  V30 8760 H 816.409 -1.42981 -0.759479 0
M  V30 8761 H 818.401 -1.26737 -3.84343 0
M  V30 8762 H 816.971 -0.527388 -3.08119 0
M  V30 8763 H 816.191 -2.9655 -2.59715 0
M  V30 8764 H 817.479 -3.50347 -3.68964 0
M  V30 8765 H 816.877 -0.94324 -5.57781 0
M  V30 8766 H 815.434 -1.46387 -6.35149 0
M  V30 8767 N 818.867 0.818669 -1.34668 0
M  V30 8768 C 820.113 1.577 -1.28461 0
M  V30 8769 C 820.468 1.91867 0.143057 0
M  V30 8770 O 819.761 1.57545 1.09041 0
M  V30 8771 C 819.955 2.88245 -2.11304 0
M  V30 8772 C 819.784 2.66831 -3.61982 0
M  V30 8773 C 818.554 2.63346 -4.3125 0
M  V30 8774 C 820.752 2.38049 -4.55892 0
M  V30 8775 N 818.734 2.33522 -5.67751 0
M  V30 8776 C 820.105 2.17957 -5.80426 0
M  V30 8777 C 822.16 2.23812 -4.44761 0
M  V30 8778 C 820.863 1.8507 -6.95084 0
M  V30 8779 C 822.889 1.92321 -5.59255 0
M  V30 8780 C 822.251 1.73056 -6.82811 0
M  V30 8781 H 818.35 0.579284 -0.525314 0
M  V30 8782 H 820.934 0.959336 -1.69425 0
M  V30 8783 H 819.105 3.47927 -1.7263 0
M  V30 8784 H 820.837 3.53677 -1.96709 0
M  V30 8785 H 817.592 2.7757 -3.83734 0
M  V30 8786 H 818.016 2.21438 -6.39761 0
M  V30 8787 H 822.658 2.3741 -3.49852 0
M  V30 8788 H 820.376 1.7021 -7.89971 0
M  V30 8789 H 823.962 1.82031 -5.5259 0
M  V30 8790 H 822.842 1.49042 -7.69907 0
M  V30 8791 N 820.346 1.18468 1.03938 0
M  V30 8792 C 821.571 1.00638 1.81347 0
M  V30 8793 C 821.996 -0.440477 1.8287 0
M  V30 8794 O 821.354 -1.31609 1.24695 0
M  V30 8795 C 821.402 1.5673 3.24759 0
M  V30 8796 O 820.506 0.789517 4.04772 0
M  V30 8797 H 819.847 0.356432 0.560225 0
M  V30 8798 H 822.377 1.57253 1.30891 0
M  V30 8799 H 822.387 1.59496 3.75533 0
M  V30 8800 H 821.062 2.62043 3.22965 0
M  V30 8801 H 819.639 0.834267 3.63448 0
M  V30 8802 N 821.824 -1.22873 0.986916 0
M  V30 8803 C 822.754 -2.2688 0.552064 0
M  V30 8804 C 823.735 -1.64883 -0.418048 0
M  V30 8805 O 824.92 -1.9171 -0.30999 0
M  V30 8806 C 822.05 -3.47018 -0.139959 0
M  V30 8807 C 821.004 -4.21411 0.748091 0
M  V30 8808 C 820.33 -5.34645 -0.0765132 0
M  V30 8809 C 821.63 -4.80726 2.04206 0
M  V30 8810 H 823.324 -2.63507 1.42143 0
M  V30 8811 H 820.87 -1.26668 0.68492 0
M  V30 8812 H 822.823 -4.18931 -0.455527 0
M  V30 8813 H 821.547 -3.0947 -1.04382 0
M  V30 8814 H 820.206 -3.51325 1.04721 0
M  V30 8815 H 819.854 -4.93339 -0.981109 0
M  V30 8816 H 819.554 -5.85342 0.514606 0
M  V30 8817 H 821.078 -6.09377 -0.386313 0
M  V30 8818 H 822.492 -5.44612 1.79083 0
M  V30 8819 H 820.889 -5.41737 2.5815 0
M  V30 8820 H 821.959 -4.01109 2.72469 0
M  V30 8821 N 823.302 -0.75937 -1.38099 0
M  V30 8822 C 824.548 -0.327559 -2.00745 0
M  V30 8823 C 824.903 1.08042 -1.592 0
M  V30 8824 O 824.196 1.7306 -0.822236 0
M  V30 8825 C 824.39 -0.394999 -3.55211 0
M  V30 8826 C 824.219 -1.80798 -4.11755 0
M  V30 8827 C 822.989 -2.42585 -4.43262 0
M  V30 8828 C 825.187 -2.76556 -4.33614 0
M  V30 8829 N 823.169 -3.75784 -4.85448 0
M  V30 8830 C 824.54 -3.94532 -4.78273 0
M  V30 8831 C 826.595 -2.74004 -4.15724 0
M  V30 8832 C 825.298 -5.10322 -5.06916 0
M  V30 8833 C 827.324 -3.88957 -4.45496 0
M  V30 8834 C 826.686 -5.05672 -4.90383 0
M  V30 8835 H 822.785 -0.166644 -0.764038 0
M  V30 8836 H 825.369 -0.99056 -1.67619 0
M  V30 8837 H 823.54 0.237761 -3.87672 0
M  V30 8838 H 825.272 0.0576828 -4.04659 0
M  V30 8839 H 822.027 -1.94302 -4.31907 0
M  V30 8840 H 822.451 -4.44234 -5.10867 0
M  V30 8841 H 827.093 -1.84948 -3.80203 0
M  V30 8842 H 824.811 -5.99988 -5.41332 0
M  V30 8843 H 828.397 -3.88308 -4.33253 0
M  V30 8844 H 827.277 -5.93146 -5.1298 0
M  V30 8845 N 824.78 1.49157 -0.508906 0
M  V30 8846 C 826.027 2.02473 0.0327983 0
M  V30 8847 C 826.355 1.38792 1.36261 0
M  V30 8848 O 825.61 0.515576 1.88786 0
M  V30 8849 C 825.909 3.56687 0.225717 0
M  V30 8850 C 825.575 4.39046 -1.02708 0
M  V30 8851 C 824.237 4.61271 -1.37048 0
M  V30 8852 C 826.589 4.86902 -1.85946 0
M  V30 8853 C 823.917 5.28598 -2.54562 0
M  V30 8854 C 826.269 5.55521 -3.0262 0
M  V30 8855 C 824.933 5.7599 -3.3733 0
M  V30 8856 H 824.203 0.740903 0.0120017 0
M  V30 8857 H 826.85 1.79372 -0.670665 0
M  V30 8858 H 825.155 3.78511 1.01177 0
M  V30 8859 H 826.852 3.95541 0.659433 0
M  V30 8860 H 823.442 4.21994 -0.749615 0
M  V30 8861 H 827.626 4.69553 -1.6073 0
M  V30 8862 H 822.882 5.42646 -2.81682 0
M  V30 8863 H 827.056 5.91576 -3.67438 0
M  V30 8864 H 824.683 6.27934 -4.2849 0
M  V30 8865 N 826.258 0.243083 1.55714 0
M  V30 8866 C 827.506 -0.381964 1.98458 0
M  V30 8867 C 827.827 -1.58745 1.13247 0
M  V30 8868 O 827.097 -1.94723 0.214384 0
M  V30 8869 H 825.677 -0.144114 0.732967 0
M  V30 8870 H 828.339 0.340985 1.91894 0
M  V30 8871 H 827.435 -0.693702 3.04293 0
M  V30 8872 N 827.736 -1.57571 -0.0300757 0
M  V30 8873 C 828.961 -1.93879 -0.736601 0
M  V30 8874 C 829.386 -0.842998 -1.68152 0
M  V30 8875 O 828.744 0.20135 -1.80178 0
M  V30 8876 C 828.792 -3.29247 -1.47066 0
M  V30 8877 O 827.896 -3.21426 -2.58378 0
M  V30 8878 H 827.237 -0.633735 -0.198181 0
M  V30 8879 H 829.767 -2.04595 0.0141485 0
M  V30 8880 H 829.777 -3.64113 -1.84081 0
M  V30 8881 H 828.452 -4.08565 -0.77764 0
M  V30 8882 H 827.029 -2.98189 -2.23914 0
M  V30 8883 N 829.214 0.302327 -1.54673 0
M  V30 8884 C 830.439 1.06103 -1.78205 0
M  V30 8885 C 830.864 1.80204 -0.53926 0
M  V30 8886 O 830.222 1.73975 0.510142 0
M  V30 8887 C 830.27 2.01829 -2.98827 0
M  V30 8888 O 829.374 3.10108 -2.71858 0
M  V30 8889 H 828.715 0.30487 -0.589873 0
M  V30 8890 H 831.245 0.340153 -2.01753 0
M  V30 8891 H 831.255 2.44319 -3.2676 0
M  V30 8892 H 829.93 1.473 -3.88942 0
M  V30 8893 H 828.507 2.72142 -2.54937 0
M  V30 8894 N 830.692 1.47107 0.565454 0
M  V30 8895 C 831.938 1.53535 1.32495 0
M  V30 8896 C 832.271 0.193537 1.93233 0
M  V30 8897 O 831.546 -0.796956 1.77423 0
M  V30 8898 C 831.829 2.64712 2.4413 0
M  V30 8899 C 831.682 4.08482 1.88314 0
M  V30 8900 C 833.001 2.71853 3.46098 0
M  V30 8901 H 830.12 0.558926 0.480386 0
M  V30 8902 H 832.762 1.79125 0.633575 0
M  V30 8903 H 830.912 2.43023 3.03104 0
M  V30 8904 H 832.584 4.4151 1.33665 0
M  V30 8905 H 830.827 4.17148 1.19037 0
M  V30 8906 H 831.498 4.82032 2.68978 0
M  V30 8907 H 833.974 2.91397 2.97031 0
M  V30 8908 H 832.85 3.51433 4.21646 0
M  V30 8909 H 833.111 1.78584 4.04426 0
M  V30 8910 N 832.17 -0.811516 1.35101 0
M  V30 8911 C 833.1 -1.9378 1.30275 0
M  V30 8912 C 834.081 -1.69165 0.178075 0
M  V30 8913 O 835.266 -1.90599 0.372256 0
M  V30 8914 C 832.396 -3.30439 1.06899 0
M  V30 8915 C 831.35 -3.69523 2.15955 0
M  V30 8916 C 830.676 -5.0429 1.77751 0
M  V30 8917 C 831.976 -3.80419 3.57881 0
M  V30 8918 H 833.67 -1.98075 2.24514 0
M  V30 8919 H 831.216 -0.951586 1.08078 0
M  V30 8920 H 833.169 -4.08828 1.02164 0
M  V30 8921 H 831.893 -3.26473 0.0910462 0
M  V30 8922 H 830.552 -2.93416 2.19778 0
M  V30 8923 H 830.2 -4.96823 0.785876 0
M  V30 8924 H 829.9 -5.31411 2.5075 0
M  V30 8925 H 831.424 -5.85125 1.74533 0
M  V30 8926 H 832.838 -4.49051 3.56407 0
M  V30 8927 H 831.235 -4.19005 4.29598 0
M  V30 8928 H 832.305 -2.82105 3.94391 0
M  V30 8929 N 833.648 -1.19017 -1.03309 0
M  V30 8930 C 834.873 -1.01598 -1.80811 0
M  V30 8931 C 835.298 0.430773 -1.83101 0
M  V30 8932 O 834.656 1.30946 -1.25391 0
M  V30 8933 C 834.704 -1.5845 -3.23923 0
M  V30 8934 O 833.808 -0.810972 -4.04348 0
M  V30 8935 H 833.149 -0.359398 -0.558327 0
M  V30 8936 H 835.679 -1.57945 -1.30055 0
M  V30 8937 H 835.689 -1.61486 -3.74682 0
M  V30 8938 H 834.364 -2.63752 -3.21571 0
M  V30 8939 H 832.941 -0.85353 -3.63 0
M  V30 8940 N 835.127 1.22348 -0.993418 0
M  V30 8941 C 836.373 1.91393 -0.67056 0
M  V30 8942 C 836.706 1.77163 0.795428 0
M  V30 8943 O 835.981 1.14084 1.57528 0
M  V30 8944 C 836.264 3.43589 -1.0779 0
M  V30 8945 C 836.117 3.66867 -2.60248 0
M  V30 8946 C 837.436 4.35545 -0.631527 0
M  V30 8947 H 834.555 0.695057 -0.24508 0
M  V30 8948 H 837.197 1.44213 -1.23703 0
M  V30 8949 H 835.347 3.83903 -0.595902 0
M  V30 8950 H 837.019 3.35954 -3.16121 0
M  V30 8951 H 835.262 3.1113 -3.02293 0
M  V30 8952 H 835.933 4.73457 -2.838 0
M  V30 8953 H 838.409 4.0275 -1.04554 0
M  V30 8954 H 837.285 5.40707 -0.944831 0
M  V30 8955 H 837.546 4.39618 0.467779 0
M  V30 8956 N 836.605 0.766683 1.37694 0
M  V30 8957 C 837.851 0.329201 2.0011 0
M  V30 8958 C 838.184 -1.09004 1.60723 0
M  V30 8959 O 837.459 -1.74895 0.850989 0
M  V30 8960 C 837.742 0.466989 3.57059 0
M  V30 8961 C 837.595 1.92828 4.06371 0
M  V30 8962 C 838.914 -0.131792 4.39903 0
M  V30 8963 H 836.033 0.12109 0.726984 0
M  V30 8964 H 838.675 0.968779 1.63446 0
M  V30 8965 H 836.825 -0.0775023 3.88423 0
M  V30 8966 H 838.497 2.53208 3.85595 0
M  V30 8967 H 836.74 2.43884 3.58752 0
M  V30 8968 H 837.411 1.97577 5.15429 0
M  V30 8969 H 839.887 0.332731 4.14768 0
M  V30 8970 H 838.763 -0.005217 5.489 0
M  V30 8971 H 839.024 -1.22156 4.24889 0
M  V30 8972 N 838.083 -1.48885 0.516809 0
M  V30 8973 C 838.993 -2.33185 -0.257293 0
M  V30 8974 C 840.009 -1.4565 -0.951952 0
M  V30 8975 O 841.185 -1.78651 -0.929834 0
M  V30 8976 C 838.25 -3.21465 -1.29851 0
M  V30 8977 C 837.311 -4.24863 -0.615608 0
M  V30 8978 C 836.544 -5.08925 -1.60722 0
M  V30 8979 O 836.767 -4.9475 -2.83863 0
M  V30 8980 O 835.701 -5.90737 -1.15384 0
M  V30 8981 H 839.527 -3.00596 0.433131 0
M  V30 8982 H 837.112 -1.46792 0.277908 0
M  V30 8983 H 838.994 -3.76108 -1.90055 0
M  V30 8984 H 837.669 -2.5673 -1.97158 0
M  V30 8985 H 836.576 -3.74091 0.0265829 0
M  V30 8986 H 837.909 -4.92198 0.0152871 0
M  V30 8987 N 839.561 -0.251338 -1.55583 0
M  V30 8988 C 840.494 0.687092 -2.1761 0
M  V30 8989 C 841.472 1.16963 -1.12953 0
M  V30 8990 O 842.656 1.24696 -1.41362 0
M  V30 8991 C 839.783 1.93429 -2.78034 0
M  V30 8992 C 838.829 1.58925 -3.95784 0
M  V30 8993 S 839.662 0.688019 -5.31062 0
M  V30 8994 C 840.818 1.94413 -5.94941 0
M  V30 8995 H 841.051 0.159982 -2.96869 0
M  V30 8996 H 838.584 -0.0357593 -1.54359 0
M  V30 8997 H 840.542 2.65028 -3.13481 0
M  V30 8998 H 839.203 2.43253 -1.98713 0
M  V30 8999 H 838.396 2.51668 -4.36668 0
M  V30 9000 H 837.998 0.953664 -3.61637 0
M  V30 9001 H 840.29 2.89087 -6.12727 0
M  V30 9002 H 841.233 1.5787 -6.90277 0
M  V30 9003 H 841.641 2.09824 -5.24056 0
M  V30 9004 N 841.039 1.57585 0.0217189 0
M  V30 9005 C 842.002 2.06004 1.00474 0
M  V30 9006 C 843.002 0.965461 1.2859 0
M  V30 9007 O 844.192 1.22884 1.23471 0
M  V30 9008 C 841.324 2.48319 2.33561 0
M  V30 9009 H 842.517 2.94112 0.586346 0
M  V30 9010 H 840.07 1.53973 0.268716 0
M  V30 9011 H 840.805 1.63389 2.80133 0
M  V30 9012 H 840.59 3.28239 2.1448 0
M  V30 9013 H 842.08 2.86181 3.04122 0
M  V30 9014 N 842.517 -0.29412 1.54831 0
M  V30 9015 C 843.427 -1.3854 1.89325 0
M  V30 9016 C 844.443 -1.55127 0.788133 0
M  V30 9017 O 845.619 -1.6966 1.08524 0
M  V30 9018 C 842.684 -2.72809 2.13954 0
M  V30 9019 C 841.745 -2.65148 3.37631 0
M  V30 9020 C 840.978 -3.93014 3.61076 0
M  V30 9021 O 841.201 -4.927 2.87406 0
M  V30 9022 O 840.135 -3.94491 4.54599 0
M  V30 9023 H 843.961 -1.12289 2.82179 0
M  V30 9024 H 841.546 -0.490793 1.41108 0
M  V30 9025 H 843.428 -3.52238 2.31315 0
M  V30 9026 H 842.103 -2.9889 1.24285 0
M  V30 9027 H 841.01 -1.84168 3.25627 0
M  V30 9028 H 842.343 -2.4402 4.27452 0
M  V30 9029 N 843.995 -1.47404 -0.557645 0
M  V30 9030 C 844.925 -1.62736 -1.67449 0
M  V30 9031 C 845.906 -0.476824 -1.6328 0
M  V30 9032 O 847.091 -0.706108 -1.80908 0
M  V30 9033 C 844.221 -1.641 -3.06086 0
M  V30 9034 C 843.175 -2.78377 -3.25101 0
M  V30 9035 C 842.501 -2.64812 -4.6452 0
M  V30 9036 C 843.801 -4.19971 -3.10518 0
M  V30 9037 H 845.495 -2.56232 -1.54873 0
M  V30 9038 H 843.041 -1.23312 -0.743649 0
M  V30 9039 H 844.994 -1.73417 -3.84063 0
M  V30 9040 H 843.718 -0.671652 -3.19619 0
M  V30 9041 H 842.377 -2.6857 -2.49531 0
M  V30 9042 H 842.025 -1.65906 -4.74852 0
M  V30 9043 H 841.725 -3.41477 -4.78191 0
M  V30 9044 H 843.249 -2.76057 -5.44633 0
M  V30 9045 H 844.663 -4.30757 -3.78313 0
M  V30 9046 H 843.06 -4.97419 -3.35699 0
M  V30 9047 H 844.13 -4.38369 -2.0727 0
M  V30 9048 N 845.473 0.80434 -1.35529 0
M  V30 9049 C 846.719 1.56385 -1.29118 0
M  V30 9050 C 847.052 1.9374 0.133536 0
M  V30 9051 O 846.327 1.6153 1.08344 0
M  V30 9052 C 846.61 2.85097 -2.19981 0
M  V30 9053 C 846.463 2.54204 -3.7108 0
M  V30 9054 C 847.782 3.86817 -2.09907 0
M  V30 9055 H 844.901 0.567382 -0.470368 0
M  V30 9056 H 847.543 0.925235 -1.6595 0
M  V30 9057 H 845.693 3.39594 -1.88701 0
M  V30 9058 H 847.365 2.05872 -4.12813 0
M  V30 9059 H 845.608 1.87364 -3.91251 0
M  V30 9060 H 846.279 3.46068 -4.30048 0
M  V30 9061 H 848.755 3.41725 -2.37409 0
M  V30 9062 H 847.631 4.7465 -2.75678 0
M  V30 9063 H 847.892 4.28663 -1.08171 0
M  V30 9064 N 846.951 1.19563 1.02676 0
M  V30 9065 C 848.198 0.999568 1.7611 0
M  V30 9066 C 848.526 -0.469432 1.8875 0
M  V30 9067 O 847.781 -1.36481 1.40255 0
M  V30 9068 C 848.08 1.61619 3.18769 0
M  V30 9069 C 847.746 3.11366 3.26132 0
M  V30 9070 C 846.408 3.52234 3.27848 0
M  V30 9071 C 848.76 4.07374 3.25109 0
M  V30 9072 C 846.088 4.87658 3.26201 0
M  V30 9073 C 848.44 5.42731 3.25002 0
M  V30 9074 C 847.104 5.83027 3.25017 0
M  V30 9075 H 846.374 0.365768 0.644434 0
M  V30 9076 H 849.021 1.48838 1.20497 0
M  V30 9077 H 847.326 1.04974 3.77476 0
M  V30 9078 H 849.023 1.43975 3.74262 0
M  V30 9079 H 845.613 2.78804 3.25525 0
M  V30 9080 H 849.797 3.76842 3.22961 0
M  V30 9081 H 845.053 5.18156 3.24537 0
M  V30 9082 H 849.227 6.16879 3.23161 0
M  V30 9083 H 846.854 6.87936 3.23494 0
M  V30 9084 N 848.429 -1.21819 0.999893 0
M  V30 9085 C 849.706 -1.86318 0.595384 0
M  V30 9086 C 850.086 -1.8965 -0.927143 0
M  V30 9087 O 849.434 -1.3921 -1.81199 0
M  V30 9088 C 849.644 -3.26837 1.22387 0
M  V30 9089 C 850.992 -4.03272 1.32878 0
M  V30 9090 O 852.016 -3.36129 1.1788 0
M  V30 9091 O 850.875 -5.23477 1.56952 0
M  V30 9092 H 847.969 -0.801638 0.203238 0
M  V30 9093 H 850.515 -1.29542 1.09622 0
M  V30 9094 H 849.287 -3.19084 2.26497 0
M  V30 9095 H 848.91 -3.91226 0.709069 0
M  V30 9096 N 849.908 -0.773975 -1.37286 0
M  V30 9097 C 850.838 -0.175782 -2.32837 0
M  V30 9098 C 851.819 0.680603 -1.5589 0
M  V30 9099 O 853.004 0.617607 -1.84117 0
M  V30 9100 C 850.134 0.702388 -3.40123 0
M  V30 9101 C 849.088 -0.0528687 -4.27967 0
M  V30 9102 C 848.414 0.944891 -5.26285 0
M  V30 9103 C 849.714 -1.23316 -5.07534 0
M  V30 9104 H 851.408 -0.974016 -2.83114 0
M  V30 9105 H 848.954 -0.469826 -1.3612 0
M  V30 9106 H 850.907 1.13069 -4.05947 0
M  V30 9107 H 849.631 1.53316 -2.88378 0
M  V30 9108 H 848.29 -0.461978 -3.63678 0
M  V30 9109 H 847.938 1.77028 -4.70819 0
M  V30 9110 H 847.638 0.444079 -5.8592 0
M  V30 9111 H 849.162 1.37209 -5.94984 0
M  V30 9112 H 850.576 -0.881395 -5.66484 0
M  V30 9113 H 848.973 -1.66621 -5.76504 0
M  V30 9114 H 850.043 -2.03617 -4.40077 0
M  V30 9115 N 851.386 1.48609 -0.524698 0
M  V30 9116 C 852.316 2.32366 0.229837 0
M  V30 9117 C 853.297 1.41759 0.940129 0
M  V30 9118 O 854.482 1.7065 0.926936 0
M  V30 9119 C 851.612 3.22835 1.28043 0
M  V30 9120 C 850.566 4.22424 0.688603 0
M  V30 9121 C 849.892 5.0199 1.84146 0
M  V30 9122 C 851.192 5.21217 -0.336176 0
M  V30 9123 H 852.886 2.95698 -0.469339 0
M  V30 9124 H 850.432 1.42197 -0.227156 0
M  V30 9125 H 852.385 3.80253 1.8162 0
M  V30 9126 H 851.109 2.57492 2.00912 0
M  V30 9127 H 849.768 3.66185 0.174402 0
M  V30 9128 H 849.416 4.33076 2.5584 0
M  V30 9129 H 849.116 5.69392 1.45142 0
M  V30 9130 H 850.64 5.62259 2.38111 0
M  V30 9131 H 852.054 5.7319 0.112307 0
M  V30 9132 H 850.451 5.96642 -0.643324 0
M  V30 9133 H 851.521 4.68676 -1.24381 0
M  V30 9134 N 852.864 0.259585 1.55447 0
M  V30 9135 C 854.11 -0.362143 1.9954 0
M  V30 9136 C 854.443 -1.5666 1.14767 0
M  V30 9137 O 853.718 -1.93319 0.214025 0
M  V30 9138 C 854.001 -0.759588 3.51998 0
M  V30 9139 C 853.854 0.451134 4.47532 0
M  V30 9140 C 855.173 -1.60186 4.09913 0
M  V30 9141 H 852.292 -0.130157 0.725416 0
M  V30 9142 H 854.934 0.363431 1.86492 0
M  V30 9143 H 853.084 -1.3778 3.63248 0
M  V30 9144 H 854.756 1.08965 4.48246 0
M  V30 9145 H 852.999 1.092 4.19831 0
M  V30 9146 H 853.67 0.129518 5.51848 0
M  V30 9147 H 856.146 -1.0799 4.01842 0
M  V30 9148 H 855.022 -1.84879 5.16828 0
M  V30 9149 H 855.283 -2.57787 3.59163 0
M  V30 9150 N 854.342 -1.57594 -0.0133615 0
M  V30 9151 C 855.591 -1.8916 -0.700103 0
M  V30 9152 C 855.904 -0.860147 -1.75673 0
M  V30 9153 O 857.11 -1.06556 -2.49716 0
M  V30 9154 C 855.566 -3.35742 -1.29635 0
M  V30 9155 C 855.174 -4.47154 -0.275249 0
M  V30 9156 C 856.918 -3.76436 -1.96205 0
M  V30 9157 C 854.825 -5.84805 -0.880726 0
M  V30 9158 H 853.755 -0.705805 -0.265247 0
M  V30 9159 H 856.406 -1.83445 0.044993 0
M  V30 9160 H 854.788 -3.36252 -2.09167 0
M  V30 9161 H 855.962 -4.58139 0.494506 0
M  V30 9162 H 854.277 -4.15394 0.289256 0
M  V30 9163 H 856.874 -4.76606 -2.42386 0
M  V30 9164 H 857.217 -3.09249 -2.78695 0
M  V30 9165 H 857.75 -3.78168 -1.23426 0
M  V30 9166 H 854.489 -6.55431 -0.0949013 0
M  V30 9167 H 854.009 -5.7751 -1.61995 0
M  V30 9168 H 855.688 -6.32038 -1.38338 0
M  V30 9169 N 855.82 0.285905 -1.54985 0
M  V30 9170 C 856.753 1.37817 -1.81884 0
M  V30 9171 C 857.731 1.4811 -0.670988 0
M  V30 9172 O 858.915 1.64936 -0.912595 0
M  V30 9173 C 856.042 2.75587 -1.969 0
M  V30 9174 C 855.088 2.82643 -3.19398 0
M  V30 9175 S 855.921 2.43199 -4.7709 0
M  V30 9176 C 857.077 3.82969 -4.95061 0
M  V30 9177 H 857.31 1.14794 -2.74244 0
M  V30 9178 H 854.843 0.484843 -1.4659 0
M  V30 9179 H 856.801 3.54932 -2.06236 0
M  V30 9180 H 855.462 2.9587 -1.05451 0
M  V30 9181 H 854.655 3.8373 -3.26753 0
M  V30 9182 H 854.257 2.11306 -3.08586 0
M  V30 9183 H 856.549 4.78117 -4.80011 0
M  V30 9184 H 857.492 3.80575 -5.97133 0
M  V30 9185 H 857.9 3.73673 -4.23118 0
M  V30 9186 N 857.298 1.47698 0.54982 0
M  V30 9187 C 858.545 1.54702 1.30665 0
M  V30 9188 C 858.873 0.212418 1.93337 0
M  V30 9189 O 858.128 -0.79543 1.78805 0
M  V30 9190 C 858.427 2.61903 2.4319 0
M  V30 9191 C 858.093 4.04953 1.98302 0
M  V30 9192 C 856.755 4.43893 1.85776 0
M  V30 9193 C 859.107 4.94682 1.64133 0
M  V30 9194 C 856.435 5.70387 1.37388 0
M  V30 9195 C 858.787 6.21646 1.17214 0
M  V30 9196 C 857.451 6.5946 1.0329 0
M  V30 9197 H 856.721 0.566096 0.478139 0
M  V30 9198 H 859.368 1.8133 0.615767 0
M  V30 9199 H 857.673 2.2906 3.17866 0
M  V30 9200 H 859.37 2.64543 3.0136 0
M  V30 9201 H 855.96 3.74191 2.08995 0
M  V30 9202 H 860.144 4.65291 1.72679 0
M  V30 9203 H 855.4 5.98427 1.25278 0
M  V30 9204 H 859.574 6.90581 0.898391 0
M  V30 9205 H 857.201 7.57367 0.655735 0
M  V30 9206 N 858.776 -0.797141 1.35954 0
M  V30 9207 C 859.706 -1.92387 1.32323 0
M  V30 9208 C 860.687 -1.68967 0.196007 0
M  V30 9209 O 861.872 -1.90193 0.39245 0
M  V30 9210 C 859.002 -3.29286 1.10398 0
M  V30 9211 C 857.956 -3.67212 2.19862 0
M  V30 9212 C 857.282 -5.02377 1.8309 0
M  V30 9213 C 858.582 -3.76602 3.61896 0
M  V30 9214 H 860.276 -1.95683 2.26602 0
M  V30 9215 H 857.822 -0.94007 1.09081 0
M  V30 9216 H 859.775 -4.07721 1.06495 0
M  V30 9217 H 858.499 -3.26358 0.125668 0
M  V30 9218 H 857.158 -2.91069 2.22878 0
M  V30 9219 H 856.806 -4.95961 0.838527 0
M  V30 9220 H 856.506 -5.28722 2.56372 0
M  V30 9221 H 858.03 -5.8324 1.80729 0
M  V30 9222 H 859.444 -4.45246 3.6115 0
M  V30 9223 H 857.841 -4.14425 4.34018 0
M  V30 9224 H 858.911 -2.77906 3.97361 0
M  V30 9225 N 860.254 -1.20106 -1.0204 0
M  V30 9226 C 861.187 -0.889795 -2.10138 0
M  V30 9227 C 862.165 0.156595 -1.61844 0
M  V30 9228 O 863.349 0.0310192 -1.88474 0
M  V30 9229 C 860.476 -0.333227 -3.37057 0
M  V30 9230 C 859.522 -1.36001 -4.04235 0
M  V30 9231 S 860.355 -2.92366 -4.48645 0
M  V30 9232 C 861.511 -2.38274 -5.78771 0
M  V30 9233 H 861.744 -1.80523 -2.36217 0
M  V30 9234 H 859.277 -1.02912 -1.15102 0
M  V30 9235 H 861.235 -0.0186507 -4.10496 0
M  V30 9236 H 859.896 0.560652 -3.09056 0
M  V30 9237 H 859.089 -0.919874 -4.95534 0
M  V30 9238 H 858.691 -1.62186 -3.37004 0
M  V30 9239 H 860.983 -1.77799 -6.53754 0
M  V30 9240 H 861.926 -3.27955 -6.27576 0
M  V30 9241 H 862.334 -1.8054 -5.34851 0
M  V30 9242 N 861.732 1.21287 -1.00634 0
M  V30 9243 C 862.662 2.25973 -0.588089 0
M  V30 9244 C 863.643 1.65527 0.391764 0
M  V30 9245 O 864.828 1.92179 0.279452 0
M  V30 9246 C 861.958 3.47197 0.0847336 0
M  V30 9247 C 860.912 4.20168 -0.815039 0
M  V30 9248 C 860.238 5.34699 -0.00855393 0
M  V30 9249 C 861.538 4.77416 -2.11828 0
M  V30 9250 H 863.232 2.61212 -1.46317 0
M  V30 9251 H 860.778 1.25563 -0.704985 0
M  V30 9252 H 862.731 4.19602 0.388821 0
M  V30 9253 H 861.455 3.11092 0.994456 0
M  V30 9254 H 860.114 3.49614 -1.10297 0
M  V30 9255 H 859.762 4.94837 0.902499 0
M  V30 9256 H 859.462 5.84449 -0.607664 0
M  V30 9257 H 860.986 6.09914 0.289317 0
M  V30 9258 H 862.4 5.41694 -1.87725 0
M  V30 9259 H 860.797 5.37561 -2.66736 0
M  V30 9260 H 861.867 3.96724 -2.78816 0
M  V30 9261 N 863.21 0.781244 1.36873 0
M  V30 9262 C 864.14 0.188128 2.32741 0
M  V30 9263 C 865.121 -0.672326 1.56249 0
M  V30 9264 O 866.306 -0.607835 1.84442 0
M  V30 9265 C 863.436 -0.684341 3.40491 0
M  V30 9266 C 862.39 0.0755641 4.27933 0
M  V30 9267 C 861.716 -0.916968 5.26779 0
M  V30 9268 C 863.016 1.26006 5.06873 0
M  V30 9269 H 864.71 0.989016 2.82593 0
M  V30 9270 H 862.256 0.477038 1.35869 0
M  V30 9271 H 864.209 -1.10915 4.06541 0
M  V30 9272 H 862.933 -1.51785 2.89187 0
M  V30 9273 H 861.592 0.481258 3.63427 0
M  V30 9274 H 861.24 -1.74528 4.71751 0
M  V30 9275 H 860.94 -0.413 5.86147 0
M  V30 9276 H 862.464 -1.34052 5.95703 0
M  V30 9277 H 863.878 0.911425 5.66009 0
M  V30 9278 H 862.275 1.69676 5.75613 0
M  V30 9279 H 863.345 2.05948 4.38991 0
M  V30 9280 N 864.689 -1.48329 0.532571 0
M  V30 9281 C 866.105 -1.58458 0.190605 0
M  V30 9282 C 866.305 -1.53427 -1.30623 0
M  V30 9283 O 865.361 -1.4247 -2.08467 0
M  V30 9284 C 866.674 -2.89989 0.79543 0
M  V30 9285 C 868.222 -3.03523 0.7644 0
M  V30 9286 C 868.697 -4.37718 1.34785 0
M  V30 9287 N 870.188 -4.44292 1.30993 0
M  V30 9288 C 870.923 -5.4664 1.73124 0
M  V30 9289 N 870.419 -6.5593 2.22997 0
M  V30 9290 N 872.212 -5.37538 1.64346 0
M  V30 9291 H 864.363 -1.49842 1.50537 0
M  V30 9292 H 866.626 -0.71164 0.626316 0
M  V30 9293 H 866.332 -2.99333 1.84642 0
M  V30 9294 H 866.206 -3.76203 0.27403 0
M  V30 9295 H 868.593 -2.93789 -0.277831 0
M  V30 9296 H 868.674 -2.18912 1.3233 0
M  V30 9297 H 868.318 -4.48206 2.38902 0
M  V30 9298 H 868.248 -5.21019 0.764609 0
M  V30 9299 H 870.739 -3.65897 0.944868 0
M  V30 9300 H 871.052 -7.30167 2.53133 0
M  V30 9301 H 869.397 -6.56886 2.26992 0
M  V30 9302 H 872.588 -4.51052 1.25178 0
M  V30 9303 H 872.761 -6.17169 1.97501 0
M  V30 9304 N 866.167 -0.267825 -1.55308 0
M  V30 9305 C 867.583 0.0865107 -1.59365 0
M  V30 9306 C 867.783 1.55205 -1.28505 0
M  V30 9307 O 866.839 2.29978 -1.04241 0
M  V30 9308 C 868.152 -0.28155 -2.99379 0
M  V30 9309 C 869.7 -0.227565 -3.12172 0
M  V30 9310 C 870.175 -0.569959 -4.5444 0
M  V30 9311 N 871.666 -0.521238 -4.60258 0
M  V30 9312 C 872.401 -0.759061 -5.68354 0
M  V30 9313 N 871.897 -1.06112 -6.84626 0
M  V30 9314 N 873.69 -0.688351 -5.57869 0
M  V30 9315 H 865.841 -1.22332 -1.73633 0
M  V30 9316 H 868.104 -0.493703 -0.809297 0
M  V30 9317 H 867.81 -1.3005 -3.26772 0
M  V30 9318 H 867.684 0.381192 -3.75269 0
M  V30 9319 H 870.071 0.782093 -2.84548 0
M  V30 9320 H 870.152 -0.924461 -2.38511 0
M  V30 9321 H 869.796 -1.57727 -4.82788 0
M  V30 9322 H 869.726 0.148646 -5.2639 0
M  V30 9323 H 872.217 -0.297359 -3.76728 0
M  V30 9324 H 872.53 -1.22945 -7.62958 0
M  V30 9325 H 870.875 -1.09881 -6.86259 0
M  V30 9326 H 874.066 -0.452268 -4.6591 0
M  V30 9327 H 874.239 -0.877081 -6.42037 0
M  V30 9328 N 867.645 1.57599 0.00500368 0
M  V30 9329 C 868.892 1.90349 0.690895 0
M  V30 9330 C 869.22 0.868045 1.74055 0
M  V30 9331 O 868.475 -0.127855 1.95282 0
M  V30 9332 C 868.774 3.29855 1.37588 0
M  V30 9333 C 868.44 4.48548 0.459906 0
M  V30 9334 C 867.102 4.80752 0.207693 0
M  V30 9335 C 869.454 5.20919 -0.171054 0
M  V30 9336 C 866.782 5.82701 -0.683855 0
M  V30 9337 C 869.134 6.23818 -1.05045 0
M  V30 9338 C 867.798 6.54481 -1.31189 0
M  V30 9339 H 867.068 0.696538 0.252816 0
M  V30 9340 H 869.715 1.91436 -0.0494495 0
M  V30 9341 H 868.02 3.24869 2.19015 0
M  V30 9342 H 869.717 3.52452 1.91255 0
M  V30 9343 H 866.307 4.23384 0.666648 0
M  V30 9344 H 870.491 4.96299 0.0107942 0
M  V30 9345 H 865.747 6.04822 -0.894467 0
M  V30 9346 H 869.921 6.79029 -1.54574 0
M  V30 9347 H 867.548 7.33299 -2.00442 0
M  V30 9348 N 869.123 -0.277682 1.55134 0
M  V30 9349 C 870.539 -0.624625 1.46869 0
M  V30 9350 C 870.739 -1.89717 0.678958 0
M  V30 9351 O 869.795 -2.51739 0.195939 0
M  V30 9352 C 871.108 -0.755937 2.91043 0
M  V30 9353 C 872.656 -0.850299 3.01229 0
M  V30 9354 C 873.131 -1.01343 4.46647 0
M  V30 9355 N 874.622 -1.07906 4.50456 0
M  V30 9356 C 875.357 -1.224 5.60184 0
M  V30 9357 N 874.853 -1.33642 6.79788 0
M  V30 9358 N 876.646 -1.25473 5.47917 0
M  V30 9359 H 868.797 0.558102 2.04937 0
M  V30 9360 H 871.06 0.188228 0.929125 0
M  V30 9361 H 870.766 0.108593 3.51532 0
M  V30 9362 H 870.64 -1.6377 3.39793 0
M  V30 9363 H 873.027 -1.7053 2.40839 0
M  V30 9364 H 873.108 0.0559681 2.55739 0
M  V30 9365 H 872.752 -0.163102 5.07638 0
M  V30 9366 H 872.682 -1.93427 4.89789 0
M  V30 9367 H 875.173 -1.00477 3.64298 0
M  V30 9368 H 875.486 -1.44522 7.59166 0
M  V30 9369 H 873.831 -1.30655 6.82608 0
M  V30 9370 H 877.022 -1.16317 4.53418 0
M  V30 9371 H 877.195 -1.36424 6.33476 0
M  V30 9372 N 870.601 -1.47988 -0.541979 0
M  V30 9373 C 871.826 -1.59286 -1.32826 0
M  V30 9374 C 872.251 -0.24894 -1.86445 0
M  V30 9375 O 871.609 0.777581 -1.63778 0
M  V30 9376 C 871.657 -2.6334 -2.46343 0
M  V30 9377 O 870.761 -2.19667 -3.49028 0
M  V30 9378 H 870.102 -0.534543 -0.393903 0
M  V30 9379 H 872.632 -1.93885 -0.653427 0
M  V30 9380 H 872.642 -2.84238 -2.92699 0
M  V30 9381 H 871.317 -3.60913 -2.06675 0
M  V30 9382 H 869.894 -2.08932 -3.08872 0
M  V30 9383 N 872.079 0.78992 -1.36375 0
M  V30 9384 C 873.495 1.0879 -1.16777 0
M  V30 9385 C 873.695 2.01498 0.00848236 0
M  V30 9386 O 872.751 2.43338 0.674007 0
M  V30 9387 C 874.064 1.70285 -2.47837 0
M  V30 9388 C 875.612 1.82629 -2.54196 0
M  V30 9389 C 876.087 2.47539 -3.85342 0
M  V30 9390 N 877.578 2.55008 -3.86685 0
M  V30 9391 C 878.313 3.06041 -4.84898 0
M  V30 9392 N 877.809 3.57385 -5.93505 0
M  V30 9393 N 879.602 3.04748 -4.72319 0
M  V30 9394 H 871.753 0.173985 -2.11686 0
M  V30 9395 H 874.016 0.139798 -0.937636 0
M  V30 9396 H 873.722 1.09633 -3.34176 0
M  V30 9397 H 873.596 2.69799 -2.63607 0
M  V30 9398 H 875.983 2.42419 -1.68276 0
M  V30 9399 H 876.064 0.81923 -2.42327 0
M  V30 9400 H 875.708 1.88393 -4.71668 0
M  V30 9401 H 875.638 3.48815 -3.94507 0
M  V30 9402 H 878.129 2.18651 -3.08221 0
M  V30 9403 H 878.442 3.94674 -6.64419 0
M  V30 9404 H 876.787 3.55538 -5.97175 0
M  V30 9405 H 879.978 2.63925 -3.86602 0
M  V30 9406 H 880.151 3.44212 -5.49019 0
M  V30 9407 N 873.557 1.20646 1.01402 0
M  V30 9408 C 874.787 1.04238 1.78376 0
M  V30 9409 C 875.195 -0.411327 1.84675 0
M  V30 9410 O 874.538 -1.29734 1.30057 0
M  V30 9411 C 874.6 1.55349 3.24202 0
M  V30 9412 C 874.264 3.03684 3.41504 0
M  V30 9413 C 875.261 4.01318 3.30514 0
M  V30 9414 C 872.946 3.42698 3.67237 0
M  V30 9415 C 874.94 5.35956 3.45007 0
M  V30 9416 C 872.627 4.77491 3.81373 0
M  V30 9417 C 873.625 5.73929 3.70263 0
M  V30 9418 O 873.313 7.06277 3.83963 0
M  V30 9419 H 873.045 0.366978 0.567718 0
M  V30 9420 H 875.599 1.60235 1.28506 0
M  V30 9421 H 873.829 0.93739 3.75166 0
M  V30 9422 H 875.518 1.34921 3.8282 0
M  V30 9423 H 876.284 3.72522 3.10568 0
M  V30 9424 H 872.163 2.68175 3.74971 0
M  V30 9425 H 875.707 6.11212 3.36252 0
M  V30 9426 H 871.604 5.05977 4.00821 0
M  V30 9427 H 872.372 7.13561 4.00965 0
M  V30 9428 N 875.035 -1.20752 1.01276 0
M  V30 9429 C 876.281 -1.90582 0.710627 0
M  V30 9430 C 876.636 -1.7713 -0.751184 0
M  V30 9431 O 875.929 -1.14223 -1.5383 0
M  V30 9432 C 876.123 -3.40808 1.07633 0
M  V30 9433 C 875.952 -3.68878 2.57214 0
M  V30 9434 C 874.722 -3.87805 3.23937 0
M  V30 9435 C 876.92 -3.71753 3.55393 0
M  V30 9436 N 874.902 -4.0336 4.62789 0
M  V30 9437 C 876.273 -3.92686 4.79789 0
M  V30 9438 C 878.328 -3.54697 3.4942 0
M  V30 9439 C 877.031 -3.98332 5.98936 0
M  V30 9440 C 879.057 -3.61612 4.67964 0
M  V30 9441 C 878.419 -3.83014 5.91168 0
M  V30 9442 H 874.518 -0.717219 0.311643 0
M  V30 9443 H 877.102 -1.45228 1.2968 0
M  V30 9444 H 875.273 -3.84923 0.518527 0
M  V30 9445 H 877.005 -3.98096 0.728128 0
M  V30 9446 H 873.76 -3.86029 2.74369 0
M  V30 9447 H 874.184 -4.15023 5.34869 0
M  V30 9448 H 878.826 -3.3712 2.55166 0
M  V30 9449 H 876.544 -4.14706 6.93574 0
M  V30 9450 H 880.13 -3.49728 4.64954 0
M  V30 9451 H 879.01 -3.88219 6.81363 0
M  V30 9452 N 876.513 -0.788492 -1.36457 0
M  V30 9453 C 877.738 -0.371224 -2.04051 0
M  V30 9454 C 878.163 1.004 -1.59064 0
M  V30 9455 O 877.521 1.64663 -0.758679 0
M  V30 9456 C 877.569 -0.442275 -3.57877 0
M  V30 9457 O 876.673 0.55113 -4.08701 0
M  V30 9458 H 876.014 -0.157808 -0.644975 0
M  V30 9459 H 878.544 -1.06935 -1.74431 0
M  V30 9460 H 878.554 -0.305548 -4.06854 0
M  V30 9461 H 877.229 -1.44547 -3.89973 0
M  V30 9462 H 875.806 0.37614 -3.70998 0
M  V30 9463 N 877.991 1.48044 -0.54043 0
M  V30 9464 C 879.402 1.86418 -0.102662 0
M  V30 9465 C 879.753 1.4489 1.32293 0
M  V30 9466 O 878.878 0.844319 1.99249 0
M  V30 9467 C 879.473 3.38324 -0.179533 0
M  V30 9468 C 878.032 3.75852 0.203098 0
M  V30 9469 C 877.179 2.72097 -0.534637 0
M  V30 9470 H 880.13 1.398 -0.751103 0
M  V30 9471 H 880.151 3.75641 0.606147 0
M  V30 9472 H 879.663 3.68518 -1.21721 0
M  V30 9473 H 877.764 3.51272 1.24252 0
M  V30 9474 H 877.877 4.78884 -0.143784 0
M  V30 9475 H 876.241 2.54692 0.0203358 0
M  V30 9476 H 877.024 3.05135 -1.57314 0
M  V30 9477 N 879.47 0.276058 1.55163 0
M  V30 9478 C 880.718 -0.339782 1.99223 0
M  V30 9479 C 881.039 -1.56307 1.16589 0
M  V30 9480 O 880.309 -1.94225 0.25564 0
M  V30 9481 H 878.889 -0.128534 0.735859 0
M  V30 9482 H 881.551 0.381612 1.91128 0
M  V30 9483 H 880.647 -0.629 3.05696 0
M  V30 9484 N 880.948 -1.576 0.00335426 0
M  V30 9485 C 882.364 -1.55653 -0.352766 0
M  V30 9486 C 882.564 -1.00632 -1.74572 0
M  V30 9487 O 881.62 -0.641621 -2.44212 0
M  V30 9488 C 882.933 -2.99858 -0.224929 0
M  V30 9489 C 884.481 -3.11563 -0.299619 0
M  V30 9490 C 884.956 -4.57559 -0.200868 0
M  V30 9491 N 886.447 -4.62477 -0.258663 0
M  V30 9492 C 887.182 -5.73031 -0.205644 0
M  V30 9493 N 886.678 -6.92723 -0.103027 0
M  V30 9494 N 888.471 -5.61509 -0.257754 0
M  V30 9495 H 880.622 -1.91703 0.914539 0
M  V30 9496 H 882.885 -0.88068 0.350865 0
M  V30 9497 H 882.591 -3.43964 0.733595 0
M  V30 9498 H 882.465 -3.63547 -1.00564 0
M  V30 9499 H 884.852 -2.67384 -1.24859 0
M  V30 9500 H 884.933 -2.50644 0.511025 0
M  V30 9501 H 884.577 -5.02413 0.744572 0
M  V30 9502 H 884.507 -5.16428 -1.03004 0
M  V30 9503 H 886.998 -3.76375 -0.339168 0
M  V30 9504 H 887.311 -7.7277 -0.0685593 0
M  V30 9505 H 885.656 -6.94966 -0.0686069 0
M  V30 9506 H 888.847 -4.66892 -0.336142 0
M  V30 9507 H 889.02 -6.4765 -0.21297 0
M  V30 9508 N 882.426 0.269451 -1.5528 0
M  V30 9509 C 883.674 0.998604 -1.75705 0
M  V30 9510 C 883.995 1.86691 -0.563175 0
M  V30 9511 O 883.265 1.91305 0.421811 0
M  V30 9512 H 881.845 0.371698 -0.647958 0
M  V30 9513 H 884.507 0.292826 -1.92688 0
M  V30 9514 H 883.603 1.63348 -2.6594 0
M  V30 9515 N 883.904 1.48273 0.534124 0
M  V30 9516 C 885.152 1.55771 1.28762 0
M  V30 9517 C 885.473 0.231575 1.9362 0
M  V30 9518 O 884.743 -0.746533 1.81118 0
M  V30 9519 H 883.323 0.573851 0.47823 0
M  V30 9520 H 885.985 1.84712 0.621888 0
M  V30 9521 H 885.081 2.33657 2.06908 0
M  V30 9522 N 885.382 -0.782676 1.36792 0
M  V30 9523 C 886.798 -1.08169 1.17352 0
M  V30 9524 C 886.998 -2.015 0.0022037 0
M  V30 9525 O 886.054 -2.43692 -0.661093 0
M  V30 9526 C 887.367 -1.68969 2.48737 0
M  V30 9527 C 888.915 -1.81278 2.55161 0
M  V30 9528 C 889.39 -2.45492 3.86649 0
M  V30 9529 N 890.881 -2.52954 3.88032 0
M  V30 9530 C 891.616 -3.03465 4.86515 0
M  V30 9531 N 891.112 -3.54232 5.95392 0
M  V30 9532 N 892.905 -3.02239 4.73928 0
M  V30 9533 H 885.056 -0.162757 2.11775 0
M  V30 9534 H 887.319 -0.134823 0.938364 0
M  V30 9535 H 887.025 -1.07859 3.34753 0
M  V30 9536 H 886.899 -2.68397 2.65034 0
M  V30 9537 H 889.286 -2.41524 1.69559 0
M  V30 9538 H 889.367 -0.806367 2.42758 0
M  V30 9539 H 889.011 -1.85889 4.7266 0
M  V30 9540 H 888.941 -3.46718 3.96351 0
M  V30 9541 H 891.432 -2.17014 3.09376 0
M  V30 9542 H 891.745 -3.91145 6.66503 0
M  V30 9543 H 890.09 -3.52366 5.99052 0
M  V30 9544 H 893.281 -2.61871 3.87996 0
M  V30 9545 H 893.454 -3.41295 5.50837 0
M  V30 9546 N 886.86 -1.21182 -1.00761 0
M  V30 9547 C 888.108 -1.02543 -1.74153 0
M  V30 9548 C 888.429 0.442372 -1.89916 0
M  V30 9549 O 887.699 1.31927 -1.44818 0
M  V30 9550 H 886.279 -0.37644 -0.645214 0
M  V30 9551 H 888.941 -1.52446 -1.21434 0
M  V30 9552 H 888.037 -1.49122 -2.7417 0
M  V30 9553 N 888.338 1.20213 -1.01915 0
M  V30 9554 C 889.301 2.21307 -0.596327 0
M  V30 9555 C 890.301 1.57274 0.334879 0
M  V30 9556 O 891.491 1.73764 0.12322 0
M  V30 9557 C 888.623 3.40657 0.128808 0
M  V30 9558 H 889.816 2.60228 -1.49068 0
M  V30 9559 H 887.369 1.33721 -0.809226 0
M  V30 9560 H 888.104 3.07241 1.03796 0
M  V30 9561 H 887.889 3.88361 -0.540183 0
M  V30 9562 H 889.379 4.15564 0.411892 0
M  V30 9563 N 889.816 0.795718 1.36037 0
M  V30 9564 C 890.748 0.156336 2.28666 0
M  V30 9565 C 891.761 -0.638075 1.49775 0
M  V30 9566 O 892.95 -0.472222 1.7214 0
M  V30 9567 C 890.05 -0.801417 3.29288 0
M  V30 9568 C 889.223 -0.0557118 4.37365 0
M  V30 9569 C 888.282 -0.930338 5.1791 0
M  V30 9570 O 887.308 -0.385266 5.67895 0
M  V30 9571 N 888.51 -2.25382 5.34961 0
M  V30 9572 H 891.275 0.952033 2.84177 0
M  V30 9573 H 888.836 0.650189 1.48271 0
M  V30 9574 H 890.828 -1.39051 3.80062 0
M  V30 9575 H 889.398 -1.49796 2.74372 0
M  V30 9576 H 888.618 0.714508 3.87671 0
M  V30 9577 H 889.906 0.458633 5.06729 0
M  V30 9578 H 889.304 -2.72073 4.95977 0
M  V30 9579 H 887.861 -2.79241 5.88955 0
M  V30 9580 N 891.294 -1.47756 0.548274 0
M  V30 9581 C 892.204 -2.33678 -0.207773 0
M  V30 9582 C 893.22 -1.47636 -0.920843 0
M  V30 9583 O 894.396 -1.80583 -0.89173 0
M  V30 9584 C 891.461 -3.24147 -1.23003 0
M  V30 9585 C 890.522 -4.26073 -0.52535 0
M  V30 9586 C 889.755 -5.12219 -1.4989 0
M  V30 9587 O 889.978 -5.0066 -2.73305 0
M  V30 9588 O 888.912 -5.93051 -1.02828 0
M  V30 9589 H 892.738 -2.99609 0.496794 0
M  V30 9590 H 890.323 -1.4617 0.308982 0
M  V30 9591 H 892.205 -3.80055 -1.82034 0
M  V30 9592 H 890.88 -2.60855 -1.91668 0
M  V30 9593 H 889.787 -3.7395 0.105927 0
M  V30 9594 H 891.12 -4.92054 0.119686 0
M  V30 9595 N 892.772 -0.284283 -1.55015 0
M  V30 9596 C 894.018 0.330352 -2.00091 0
M  V30 9597 C 894.351 1.54814 -1.17244 0
M  V30 9598 O 893.626 1.92954 -0.244753 0
M  V30 9599 C 893.909 0.703492 -3.53161 0
M  V30 9600 C 893.762 -0.522275 -4.46758 0
M  V30 9601 C 895.081 1.53645 -4.12409 0
M  V30 9602 H 892.2 0.118599 -0.727395 0
M  V30 9603 H 894.842 -0.393054 -1.8589 0
M  V30 9604 H 892.992 1.31983 -3.65394 0
M  V30 9605 H 894.664 -1.16082 -4.46456 0
M  V30 9606 H 892.907 -1.15865 -4.1804 0
M  V30 9607 H 893.578 -0.217295 -5.51572 0
M  V30 9608 H 896.054 1.01583 -4.0351 0
M  V30 9609 H 894.93 1.76633 -5.19704 0
M  V30 9610 H 895.191 2.5204 -3.63219 0
M  V30 9611 N 894.251 1.57596 -0.0117121 0
M  V30 9612 C 895.214 2.08089 0.960816 0
M  V30 9613 C 896.214 0.992519 1.26514 0
M  V30 9614 O 897.404 1.25475 1.20837 0
M  V30 9615 C 894.536 2.53217 2.28241 0
M  V30 9616 H 895.729 2.9529 0.523829 0
M  V30 9617 H 893.282 1.54508 0.235995 0
M  V30 9618 H 894.017 1.69294 2.76604 0
M  V30 9619 H 893.802 3.32714 2.0747 0
M  V30 9620 H 895.292 2.92568 2.97983 0
M  V30 9621 N 895.729 -0.261212 1.5542 0
M  V30 9622 C 896.954 -1.01341 1.80955 0
M  V30 9623 C 897.379 -1.78711 0.586849 0
M  V30 9624 O 896.737 -1.75266 -0.463837 0
M  V30 9625 C 896.785 -1.93835 3.04073 0
M  V30 9626 O 895.889 -3.02791 2.79985 0
M  V30 9627 H 895.23 -0.289123 0.597749 0
M  V30 9628 H 897.76 -0.286543 2.02584 0
M  V30 9629 H 897.77 -2.3557 3.33123 0
M  V30 9630 H 896.445 -1.36936 3.9271 0
M  V30 9631 H 895.022 -2.65287 2.62063 0
M  V30 9632 N 897.207 -1.48554 -0.526253 0
M  V30 9633 C 898.435 -1.60429 -1.30652 0
M  V30 9634 C 898.85 -0.265963 -1.86917 0
M  V30 9635 O 898.207 0.745262 -1.6659 0
M  V30 9636 C 898.258 -2.65377 -2.45473 0
M  V30 9637 O 897.979 -3.94017 -1.91527 0
M  V30 9638 C 899.48 -2.87726 -3.37237 0
M  V30 9639 H 896.7 -0.540817 -0.397187 0
M  V30 9640 H 899.244 -1.94409 -0.634461 0
M  V30 9641 H 897.399 -2.34246 -3.08557 0
M  V30 9642 H 897.813 -4.51623 -2.66715 0
M  V30 9643 H 899.287 -3.64951 -4.14144 0
M  V30 9644 H 899.764 -1.96688 -3.92696 0
M  V30 9645 H 900.37 -3.20176 -2.79942 0
M  V30 9646 N 898.685 0.775411 -1.37205 0
M  V30 9647 C 899.615 1.90258 -1.35367 0
M  V30 9648 C 900.596 1.68634 -0.222864 0
M  V30 9649 O 901.781 1.89545 -0.422659 0
M  V30 9650 C 898.911 3.27488 -1.15623 0
M  V30 9651 C 897.865 3.63668 -2.25676 0
M  V30 9652 C 897.191 4.994 -1.91059 0
M  V30 9653 C 898.491 3.70797 -3.67841 0
M  V30 9654 H 900.185 1.92053 -2.29687 0
M  V30 9655 H 897.731 0.922597 -1.10563 0
M  V30 9656 H 899.684 4.05976 -1.12968 0
M  V30 9657 H 898.408 3.26117 -0.177573 0
M  V30 9658 H 897.067 2.87486 -2.2748 0
M  V30 9659 H 896.715 4.94565 -0.917324 0
M  V30 9660 H 896.415 5.24576 -2.64751 0
M  V30 9661 H 897.939 5.80291 -1.89985 0
M  V30 9662 H 899.353 4.39444 -3.68187 0
M  V30 9663 H 897.75 4.07468 -4.40556 0
M  V30 9664 H 898.82 2.71549 -4.01732 0
M  V30 9665 N 900.163 1.21714 1.00117 0
M  V30 9666 C 901.126 0.981338 2.07129 0
M  V30 9667 C 902.126 -0.0491116 1.60725 0
M  V30 9668 O 903.316 0.188555 1.73177 0
M  V30 9669 C 900.448 0.480608 3.37495 0
M  V30 9670 H 901.641 1.93075 2.29482 0
M  V30 9671 H 899.194 1.03467 1.17151 0
M  V30 9672 H 899.929 -0.473552 3.20824 0
M  V30 9673 H 899.714 1.22393 3.72508 0
M  V30 9674 H 901.204 0.33561 4.16249 0
M  V30 9675 N 901.641 -1.19671 1.02551 0
M  V30 9676 C 902.866 -1.93774 0.739363 0
M  V30 9677 C 903.291 -1.74787 -0.695064 0
M  V30 9678 O 902.649 -1.04796 -1.47944 0
M  V30 9679 C 902.697 -3.43684 1.09149 0
M  V30 9680 O 901.801 -4.11874 0.208213 0
M  V30 9681 H 901.142 -0.605064 0.273484 0
M  V30 9682 H 903.672 -1.51846 1.37128 0
M  V30 9683 H 903.682 -3.94339 1.04695 0
M  V30 9684 H 902.357 -3.56826 2.13654 0
M  V30 9685 H 900.934 -3.716 0.311045 0
M  V30 9686 N 903.119 -0.802921 -1.35613 0
M  V30 9687 C 904.344 -0.392846 -2.03645 0
M  V30 9688 C 904.769 0.987075 -1.6012 0
M  V30 9689 O 904.127 1.63849 -0.776101 0
M  V30 9690 C 904.175 -0.480208 -3.57388 0
M  V30 9691 O 903.279 0.507751 -4.09262 0
M  V30 9692 H 902.62 -0.16464 -0.643265 0
M  V30 9693 H 905.15 -1.08779 -1.73287 0
M  V30 9694 H 905.16 -0.348683 -4.06507 0
M  V30 9695 H 903.835 -1.48675 -3.88418 0
M  V30 9696 H 902.412 0.336769 -3.71376 0
M  V30 9697 N 904.597 1.47463 -0.556102 0
M  V30 9698 C 906.008 1.86298 -0.122429 0
M  V30 9699 C 906.359 1.46285 1.30749 0
M  V30 9700 O 905.484 0.865405 1.98342 0
M  V30 9701 C 906.079 3.38115 -0.215407 0
M  V30 9702 C 904.638 3.76046 0.163223 0
M  V30 9703 C 903.785 2.71515 -0.563466 0
M  V30 9704 H 906.736 1.38996 -0.765888 0
M  V30 9705 H 906.757 3.76263 0.566271 0
M  V30 9706 H 906.269 3.67207 -1.25622 0
M  V30 9707 H 904.37 3.5257 1.20519 0
M  V30 9708 H 904.483 4.78705 -0.194568 0
M  V30 9709 H 902.847 2.54699 -0.00667879 0
M  V30 9710 H 903.63 3.03449 -1.60542 0
M  V30 9711 N 906.075 0.2925 1.54862 0
M  V30 9712 C 907.486 -0.201841 1.85606 0
M  V30 9713 C 907.837 -1.54093 1.21449 0
M  V30 9714 O 906.962 -2.10327 0.509079 0
M  V30 9715 C 907.557 -0.373011 3.3674 0
M  V30 9716 C 906.116 -0.811574 3.67547 0
M  V30 9717 C 905.263 0.0850583 2.7717 0
M  V30 9718 H 908.214 0.513774 1.50153 0
M  V30 9719 H 908.235 -1.20892 3.60785 0
M  V30 9720 H 907.747 0.601751 3.83407 0
M  V30 9721 H 905.848 -1.79719 3.26392 0
M  V30 9722 H 905.961 -0.636853 4.74848 0
M  V30 9723 H 904.325 -0.434224 2.50971 0
M  V30 9724 H 905.108 1.05602 3.26654 0
M  V30 9725 N 907.553 -1.57587 0.0200696 0
M  V30 9726 C 908.778 -1.96124 -0.674547 0
M  V30 9727 C 909.203 -0.896068 -1.65385 0
M  V30 9728 O 908.561 0.143925 -1.80728 0
M  V30 9729 C 908.609 -3.3376 -1.36517 0
M  V30 9730 O 907.713 -3.29483 -2.48022 0
M  V30 9731 H 907.054 -0.639719 -0.177919 0
M  V30 9732 H 909.584 -2.04447 0.0792317 0
M  V30 9733 H 909.594 -3.69785 -1.72403 0
M  V30 9734 H 908.269 -4.10832 -0.647265 0
M  V30 9735 H 906.846 -3.05162 -2.14314 0
M  V30 9736 N 909.032 0.252966 -1.55557 0
M  V30 9737 C 909.982 1.31585 -1.86197 0
M  V30 9738 C 910.966 1.43773 -0.722357 0
M  V30 9739 O 912.158 1.47117 -0.984152 0
M  V30 9740 C 909.287 2.67245 -2.15487 0
M  V30 9741 C 908.373 2.59087 -3.3576 0
M  V30 9742 N 908.764 2.20556 -4.5518 0
M  V30 9743 C 907.062 2.90112 -3.3875 0
M  V30 9744 C 907.763 2.22881 -5.37307 0
M  V30 9745 N 906.739 2.62145 -4.76215 0
M  V30 9746 H 910.541 1.00835 -2.76061 0
M  V30 9747 H 908.055 0.461598 -1.55702 0
M  V30 9748 H 910.052 3.43944 -2.35602 0
M  V30 9749 H 908.712 2.98867 -1.26919 0
M  V30 9750 H 909.723 1.922 -4.80915 0
M  V30 9751 H 906.4 3.26313 -2.60434 0
M  V30 9752 H 907.79 1.95482 -6.42835 0
M  V30 9753 N 910.51 1.48831 0.518367 0
M  V30 9754 C 911.757 1.57439 1.27355 0
M  V30 9755 C 912.085 0.25338 1.92843 0
M  V30 9756 O 911.34 -0.757323 1.80452 0
M  V30 9757 C 911.639 2.67003 2.3758 0
M  V30 9758 C 911.305 4.09069 1.89667 0
M  V30 9759 C 909.967 4.47733 1.76319 0
M  V30 9760 C 912.319 4.98052 1.53603 0
M  V30 9761 C 909.647 5.73173 1.25258 0
M  V30 9762 C 911.999 6.23992 1.04001 0
M  V30 9763 C 910.663 6.61503 0.892784 0
M  V30 9764 H 909.933 0.57611 0.466023 0
M  V30 9765 H 912.58 1.82595 0.577166 0
M  V30 9766 H 910.885 2.35751 3.12936 0
M  V30 9767 H 912.582 2.70876 2.95681 0
M  V30 9768 H 909.172 3.7854 2.01011 0
M  V30 9769 H 913.356 4.68849 1.62771 0
M  V30 9770 H 908.612 6.0095 1.12557 0
M  V30 9771 H 912.786 6.92331 0.751706 0
M  V30 9772 H 910.413 7.58587 0.494939 0
M  V30 9773 N 911.988 -0.768124 1.37614 0
M  V30 9774 C 913.228 -1.53979 1.34424 0
M  V30 9775 C 913.592 -1.91874 -0.0696803 0
M  V30 9776 O 914.793 -2.67845 -0.22633 0
M  V30 9777 C 913.064 -2.76845 2.26034 0
M  V30 9778 S 914.623 -3.66871 2.4073 0
M  V30 9779 H 911.441 -0.527108 0.477157 0
M  V30 9780 H 914.043 -0.902945 1.73399 0
M  V30 9781 H 912.747 -2.47091 3.2768 0
M  V30 9782 H 912.278 -3.45486 1.88157 0
M  V30 9783 H 914.293 -4.6899 1.62057 0
M  V30 9784 N 913.466 -1.22244 -0.994698 0
M  V30 9785 C 914.877 -1.043 -1.5485 0
M  V30 9786 C 915.228 0.394102 -1.92201 0
M  V30 9787 O 914.353 1.27883 -1.74571 0
M  V30 9788 C 914.948 -1.88708 -2.8138 0
M  V30 9789 C 913.507 -1.75067 -3.3321 0
M  V30 9790 C 912.654 -1.85286 -2.06312 0
M  V30 9791 H 915.605 -1.36115 -0.815988 0
M  V30 9792 H 915.626 -1.40342 -3.53673 0
M  V30 9793 H 915.138 -2.93296 -2.54164 0
M  V30 9794 H 913.239 -0.732047 -3.65338 0
M  V30 9795 H 913.352 -2.57632 -4.03934 0
M  V30 9796 H 911.716 -1.28706 -2.19788 0
M  V30 9797 H 912.499 -2.91401 -1.81494 0
M  V30 9798 N 914.944 1.19125 -1.03184 0
M  V30 9799 C 915.894 2.20348 -0.585731 0
M  V30 9800 C 916.878 1.56656 0.367109 0
M  V30 9801 O 918.07 1.76003 0.187598 0
M  V30 9802 C 915.199 3.43249 0.0590006 0
M  V30 9803 C 914.285 4.1408 -0.916457 0
M  V30 9804 N 914.676 4.61051 -2.08005 0
M  V30 9805 C 912.974 4.39809 -0.74054 0
M  V30 9806 C 913.675 5.15477 -2.69552 0
M  V30 9807 N 912.651 5.06456 -1.97493 0
M  V30 9808 H 916.453 2.54346 -1.47259 0
M  V30 9809 H 913.967 1.35232 -0.899225 0
M  V30 9810 H 915.964 4.15013 0.396236 0
M  V30 9811 H 914.624 3.1075 0.941507 0
M  V30 9812 H 915.635 4.55782 -2.45934 0
M  V30 9813 H 912.312 4.17397 0.0926238 0
M  V30 9814 H 913.702 5.62088 -3.68112 0
M  V30 9815 N 916.422 0.810101 1.35185 0
M  V30 9816 C 917.833 0.452616 1.81131 0
M  V30 9817 C 918.184 -1.02573 1.67252 0
M  V30 9818 O 917.309 -1.79735 1.20516 0
M  V30 9819 C 917.904 0.814775 3.28857 0
M  V30 9820 C 916.463 0.509839 3.72931 0
M  V30 9821 C 915.61 1.03852 2.57119 0
M  V30 9822 H 918.561 1.00143 1.23114 0
M  V30 9823 H 918.582 0.113635 3.8033 0
M  V30 9824 H 918.094 1.89078 3.38926 0
M  V30 9825 H 916.195 -0.557289 3.68409 0
M  V30 9826 H 916.308 1.04493 4.67566 0
M  V30 9827 H 914.672 0.460671 2.50499 0
M  V30 9828 H 915.455 2.12071 2.69964 0
M  V30 9829 N 917.9 -1.47166 0.563914 0
M  V30 9830 C 918.833 -2.27058 -0.227989 0
M  V30 9831 C 919.811 -1.34468 -0.914179 0
M  V30 9832 O 920.995 -1.63857 -0.931829 0
M  V30 9833 C 918.122 -3.11689 -1.32543 0
M  V30 9834 C 917.168 -4.19906 -0.747084 0
M  V30 9835 S 918.001 -5.33916 0.41153 0
M  V30 9836 C 919.157 -6.22112 -0.687566 0
M  V30 9837 H 919.39 -2.93876 0.449939 0
M  V30 9838 H 916.923 -1.50372 0.350382 0
M  V30 9839 H 918.881 -3.61017 -1.95389 0
M  V30 9840 H 917.542 -2.44221 -1.97522 0
M  V30 9841 H 916.735 -4.78876 -1.57141 0
M  V30 9842 H 916.337 -3.73493 -0.194671 0
M  V30 9843 H 918.629 -6.58867 -1.578 0
M  V30 9844 H 919.572 -7.07971 -0.135058 0
M  V30 9845 H 919.98 -5.55871 -0.983255 0
M  V30 9846 N 919.378 -0.300708 -1.54705 0
M  V30 9847 C 920.603 0.314073 -2.05008 0
M  V30 9848 C 921.028 1.46759 -1.17657 0
M  V30 9849 O 920.386 1.80398 -0.180598 0
M  V30 9850 C 920.434 0.748243 -3.52752 0
M  V30 9851 O 919.538 1.85305 -3.68424 0
M  V30 9852 H 918.879 0.0610139 -0.661191 0
M  V30 9853 H 921.409 -0.442467 -1.99758 0
M  V30 9854 H 921.419 1.03713 -3.94598 0
M  V30 9855 H 920.094 -0.095573 -4.1579 0
M  V30 9856 H 918.671 1.56473 -3.38483 0
M  V30 9857 N 920.856 1.57574 -0.0284266 0
M  V30 9858 C 921.786 2.1321 0.952039 0
M  V30 9859 C 922.767 1.04806 1.33977 0
M  V30 9860 O 923.952 1.32635 1.41851 0
M  V30 9861 C 921.082 2.65862 2.23461 0
M  V30 9862 C 920.036 3.79047 1.98765 0
M  V30 9863 C 919.362 4.18124 3.33281 0
M  V30 9864 C 920.662 5.05151 1.32739 0
M  V30 9865 H 922.356 2.95385 0.488705 0
M  V30 9866 H 919.902 1.42092 0.233628 0
M  V30 9867 H 921.855 3.03417 2.92431 0
M  V30 9868 H 920.579 1.80848 2.71959 0
M  V30 9869 H 919.238 3.41929 1.32213 0
M  V30 9870 H 918.886 3.30092 3.79537 0
M  V30 9871 H 918.586 4.94396 3.17563 0
M  V30 9872 H 920.11 4.58262 4.0352 0
M  V30 9873 H 921.524 5.40297 1.91708 0
M  V30 9874 H 919.921 5.86416 1.27421 0
M  V30 9875 H 920.991 4.83969 0.300261 0
M  V30 9876 N 922.334 -0.244713 1.55689 0
M  V30 9877 C 923.559 -0.994157 1.8202 0
M  V30 9878 C 923.984 -1.78079 0.60577 0
M  V30 9879 O 923.342 -1.75748 -0.445221 0
M  V30 9880 C 923.39 -1.90599 3.06111 0
M  V30 9881 O 922.494 -2.99804 2.8318 0
M  V30 9882 H 921.835 -0.282767 0.600782 0
M  V30 9883 H 924.365 -0.26504 2.02876 0
M  V30 9884 H 924.375 -2.32023 3.35603 0
M  V30 9885 H 923.05 -1.32763 3.9414 0
M  V30 9886 H 921.627 -2.62493 2.64862 0
M  V30 9887 N 923.813 -1.49104 -0.510467 0
M  V30 9888 C 924.743 -1.67981 -1.62187 0
M  V30 9889 C 925.724 -0.528529 -1.6168 0
M  V30 9890 O 926.909 -0.763305 -1.7857 0
M  V30 9891 C 924.039 -1.73755 -3.0071 0
M  V30 9892 C 922.993 -2.88579 -3.1608 0
M  V30 9893 C 922.319 -2.79457 -4.5586 0
M  V30 9894 C 923.619 -4.29638 -2.97 0
M  V30 9895 H 925.313 -2.61029 -1.46643 0
M  V30 9896 H 922.859 -1.25615 -0.704042 0
M  V30 9897 H 924.812 -1.85548 -3.78352 0
M  V30 9898 H 923.536 -0.772996 -3.17321 0
M  V30 9899 H 922.195 -2.76372 -2.40861 0
M  V30 9900 H 921.843 -1.80929 -4.69333 0
M  V30 9901 H 921.543 -3.56518 -4.67086 0
M  V30 9902 H 923.067 -2.93245 -5.35574 0
M  V30 9903 H 924.481 -4.42575 -3.64418 0
M  V30 9904 H 922.878 -5.07847 -3.19704 0
M  V30 9905 H 923.948 -4.44741 -1.93219 0
M  V30 9906 N 925.291 0.760815 -1.38019 0
M  V30 9907 C 926.516 1.55513 -1.37224 0
M  V30 9908 C 926.941 1.88062 0.037611 0
M  V30 9909 O 926.299 1.50042 1.0177 0
M  V30 9910 C 926.347 2.83539 -2.22796 0
M  V30 9911 O 925.451 3.78384 -1.64009 0
M  V30 9912 H 924.792 0.470642 -0.468393 0
M  V30 9913 H 927.322 0.940792 -1.81687 0
M  V30 9914 H 927.332 3.32535 -2.36399 0
M  V30 9915 H 926.007 2.59178 -3.25269 0
M  V30 9916 H 924.584 3.37063 -1.59508 0
M  V30 9917 N 926.769 1.22769 0.988202 0
M  V30 9918 C 927.701 0.959757 2.08138 0
M  V30 9919 C 928.714 -0.0633787 1.62677 0
M  V30 9920 O 929.903 0.171203 1.77677 0
M  V30 9921 C 927.003 0.422724 3.36253 0
M  V30 9922 C 926.176 1.50419 4.10722 0
M  V30 9923 C 925.235 0.973407 5.17118 0
M  V30 9924 O 924.261 1.66066 5.44436 0
M  V30 9925 N 925.463 -0.202787 5.80146 0
M  V30 9926 H 928.228 1.9009 2.31702 0
M  V30 9927 H 925.789 1.13522 1.15431 0
M  V30 9928 H 927.781 0.0528514 4.04665 0
M  V30 9929 H 926.351 -0.423642 3.09716 0
M  V30 9930 H 925.571 2.04718 3.36874 0
M  V30 9931 H 926.859 2.23169 4.57245 0
M  V30 9932 H 926.257 -0.777856 5.60327 0
M  V30 9933 H 924.814 -0.513998 6.4977 0
M  V30 9934 N 928.247 -1.18576 1.03814 0
M  V30 9935 C 929.658 -1.70159 0.768299 0
M  V30 9936 C 930.009 -1.8286 -0.711106 0
M  V30 9937 O 929.134 -1.5063 -1.55369 0
M  V30 9938 C 929.729 -3.09062 1.38804 0
M  V30 9939 C 928.288 -3.57866 1.16656 0
M  V30 9940 C 927.435 -2.34484 1.48029 0
M  V30 9941 H 930.386 -1.03287 1.20488 0
M  V30 9942 H 930.407 -3.72211 0.7899 0
M  V30 9943 H 929.919 -2.99785 2.46476 0
M  V30 9944 H 928.02 -3.72442 0.108471 0
M  V30 9945 H 928.133 -4.41445 1.8618 0
M  V30 9946 H 926.497 -2.38273 0.899902 0
M  V30 9947 H 927.28 -2.27829 2.56805 0
M  V30 9948 N 929.725 -0.817259 -1.34754 0
M  V30 9949 C 930.973 -0.401852 -1.98065 0
M  V30 9950 C 931.294 1.03718 -1.65129 0
M  V30 9951 O 930.564 1.71921 -0.939141 0
M  V30 9952 H 929.144 -0.145603 -0.732672 0
M  V30 9953 H 931.806 -1.04545 -1.64488 0
M  V30 9954 H 930.902 -0.516241 -3.07801 0
M  V30 9955 N 931.203 1.46865 -0.571711 0
M  V30 9956 C 932.614 1.86158 -0.142181 0
M  V30 9957 C 932.965 1.47663 1.2919 0
M  V30 9958 O 932.09 0.886393 1.97413 0
M  V30 9959 C 932.685 3.37867 -0.251256 0
M  V30 9960 C 931.244 3.76198 0.123329 0
M  V30 9961 C 930.391 2.70902 -0.592232 0
M  V30 9962 H 933.342 1.38176 -0.780587 0
M  V30 9963 H 933.363 3.76842 0.526331 0
M  V30 9964 H 932.875 3.65853 -1.2951 0
M  V30 9965 H 930.976 3.53829 1.16773 0
M  V30 9966 H 931.089 4.78471 -0.24533 0
M  V30 9967 H 929.453 2.54678 -0.0336927 0
M  V30 9968 H 930.236 3.01729 -1.63751 0
M  V30 9969 N 932.681 0.308908 1.54543 0
M  V30 9970 C 933.644 -0.550857 2.22482 0
M  V30 9971 C 934.644 -1.0551 1.21344 0
M  V30 9972 O 935.834 -0.949866 1.46025 0
M  V30 9973 C 932.966 -1.76354 2.9174 0
M  V30 9974 H 934.159 0.0428395 2.99869 0
M  V30 9975 H 931.712 0.059825 1.56185 0
M  V30 9976 H 932.447 -2.39686 2.18451 0
M  V30 9977 H 932.232 -1.40954 3.65889 0
M  V30 9978 H 933.722 -2.37417 3.43545 0
M  V30 9979 N 934.159 -1.57557 0.0367827 0
M  V30 9980 C 935.57 -1.79853 -0.500971 0
M  V30 9981 C 935.921 -0.947749 -1.71791 0
M  V30 9982 O 935.046 -0.160287 -2.15806 0
M  V30 9983 C 935.641 -3.26193 -0.915626 0
M  V30 9984 C 934.2 -3.49457 -1.39845 0
M  V30 9985 C 933.347 -2.74864 -0.366784 0
M  V30 9986 H 936.298 -1.56509 0.262768 0
M  V30 9987 H 936.319 -3.36324 -1.7795 0
M  V30 9988 H 935.831 -3.88089 -0.0297227 0
M  V30 9989 H 933.932 -2.92823 -2.30402 0
M  V30 9990 H 934.045 -4.58172 -1.40054 0
M  V30 9991 H 932.409 -2.4057 -0.836554 0
M  V30 9992 H 933.192 -3.39479 0.510785 0
M  V30 9993 N 935.637 0.236453 -1.55816 0
M  V30 9994 C 936.862 0.98449 -1.82545 0
M  V30 9995 C 937.287 1.77755 -0.615206 0
M  V30 9996 O 936.645 1.75982 0.435895 0
M  V30 9997 C 936.693 1.88973 -3.07118 0
M  V30 9998 O 935.797 2.98298 -2.84766 0
M  V30 9999 H 935.138 0.279577 -0.602273 0
M  V30 10000 H 937.668 0.254277 -2.03014 0
M  V30 10001 H 937.678 2.3024 -3.36829 0
M  V30 10002 H 936.353 1.30671 -3.94839 0
M  V30 10003 H 934.93 2.61085 -2.6625 0
M  V30 10004 N 937.115 1.49373 0.502552 0
M  V30 10005 C 938.526 1.52 1.0841 0
M  V30 10006 C 938.877 0.305317 1.9381 0
M  V30 10007 O 938.002 -0.585023 2.08342 0
M  V30 10008 C 938.597 2.75437 1.97281 0
M  V30 10009 C 937.156 2.80848 2.50602 0
M  V30 10010 C 936.303 2.45894 1.28186 0
M  V30 10011 H 939.254 1.56092 0.286533 0
M  V30 10012 H 939.275 2.55511 2.81947 0
M  V30 10013 H 938.787 3.63827 1.35098 0
M  V30 10014 H 936.888 1.96735 3.16427 0
M  V30 10015 H 937.001 3.82979 2.8786 0
M  V30 10016 H 935.365 1.97639 1.60657 0
M  V30 10017 H 936.148 3.36556 0.677139 0
M  V30 10018 N 938.594 -0.753485 1.38421 0
M  V30 10019 C 939.557 -1.84888 1.35459 0
M  V30 10020 C 940.557 -1.58764 0.255083 0
M  V30 10021 O 941.747 -1.66507 0.511978 0
M  V30 10022 C 938.879 -3.22361 1.10888 0
M  V30 10023 H 940.072 -1.88922 2.32913 0
M  V30 10024 H 937.625 -0.955199 1.23716 0
M  V30 10025 H 938.36 -3.23996 0.1404 0
M  V30 10026 H 938.145 -3.42717 1.90492 0
M  V30 10027 H 939.635 -4.02437 1.1151 0
M  V30 10028 N 940.072 -1.23292 -0.981677 0
M  V30 10029 C 941.002 -1.03738 -2.09191 0
M  V30 10030 C 941.983 0.0453041 -1.7004 0
M  V30 10031 O 943.168 -0.119092 -1.93834 0
M  V30 10032 C 940.298 -0.626426 -3.41604 0
M  V30 10033 C 939.252 -1.65631 -3.94652 0
M  V30 10034 C 938.578 -1.10084 -5.23245 0
M  V30 10035 C 939.878 -3.04903 -4.24066 0
M  V30 10036 H 941.572 -1.966 -2.25807 0
M  V30 10037 H 939.118 -0.946656 -1.0851 0
M  V30 10038 H 941.071 -0.476689 -4.18695 0
M  V30 10039 H 939.795 0.337873 -3.24848 0
M  V30 10040 H 938.454 -1.79402 -3.19704 0
M  V30 10041 H 938.102 -0.127562 -5.02838 0
M  V30 10042 H 937.802 -1.78896 -5.59705 0
M  V30 10043 H 939.326 -0.962928 -6.02959 0
M  V30 10044 H 940.74 -2.94441 -4.91912 0
M  V30 10045 H 939.137 -3.70941 -4.71724 0
M  V30 10046 H 940.207 -3.53991 -3.31389 0
M  V30 10047 N 941.55 1.18024 -1.04442 0
M  V30 10048 C 942.778 1.92032 -0.770161 0
M  V30 10049 C 943.193 1.76391 0.673181 0
M  V30 10050 O 942.55 1.09604 1.45922 0
M  V30 10051 C 942.601 3.43328 -1.13173 0
M  V30 10052 O 942.322 3.5848 -2.51841 0
M  V30 10053 C 943.823 4.34427 -0.882523 0
M  V30 10054 H 941.043 0.609518 -0.280586 0
M  V30 10055 H 943.587 1.49711 -1.39308 0
M  V30 10056 H 941.742 3.83423 -0.553704 0
M  V30 10057 H 942.156 4.52166 -2.65794 0
M  V30 10058 H 943.63 5.39123 -1.18533 0
M  V30 10059 H 944.107 4.3882 0.18257 0
M  V30 10060 H 944.713 4.00035 -1.44403 0
M  V30 10061 N 943.028 0.824394 1.34319 0
M  V30 10062 C 943.991 0.252696 2.27803 0
M  V30 10063 C 944.991 -0.570254 1.50349 0
M  V30 10064 O 946.181 -0.386145 1.69866 0
M  V30 10065 C 943.313 -0.645575 3.34731 0
M  V30 10066 H 944.506 1.07742 2.79878 0
M  V30 10067 H 942.059 0.596367 1.44475 0
M  V30 10068 H 942.794 -1.4933 2.87873 0
M  V30 10069 H 942.579 -0.0569478 3.92059 0
M  V30 10070 H 944.069 -1.03933 4.0446 0
M  V30 10071 N 944.506 -1.46559 0.579492 0
M  V30 10072 C 945.917 -1.8608 0.152052 0
M  V30 10073 C 946.268 -1.48346 -1.28405 0
M  V30 10074 O 945.393 -0.89685 -1.9694 0
M  V30 10075 C 945.988 -3.37729 0.269171 0
M  V30 10076 C 944.547 -3.76258 -0.103376 0
M  V30 10077 C 943.694 -2.70584 0.60659 0
M  V30 10078 H 946.645 -1.3776 0.787904 0
M  V30 10079 H 946.666 -3.77116 -0.506339 0
M  V30 10080 H 946.178 -3.65162 1.31448 0
M  V30 10081 H 944.279 -3.54443 -1.14895 0
M  V30 10082 H 944.392 -4.78335 0.270701 0
M  V30 10083 H 942.756 -2.54656 0.0471984 0
M  V30 10084 H 943.539 -3.00856 1.65349 0
M  V30 10085 N 945.984 -0.3171 -1.54377 0
M  V30 10086 C 947.395 0.172287 -1.85903 0
M  V30 10087 C 947.746 1.52141 -1.23885 0
M  V30 10088 O 946.871 2.0949 -0.542476 0
M  V30 10089 C 947.466 0.319392 -3.37291 0
M  V30 10090 C 946.025 0.752998 -3.68791 0
M  V30 10091 C 945.172 -0.129143 -2.76999 0
M  V30 10092 H 948.123 -0.537597 -1.49317 0
M  V30 10093 H 948.144 1.15137 -3.62662 0
M  V30 10094 H 947.656 -0.662671 -3.82401 0
M  V30 10095 H 945.757 1.74504 -3.2921 0
M  V30 10096 H 945.87 0.561228 -4.75801 0
M  V30 10097 H 944.234 0.394242 -2.5163 0
M  V30 10098 H 945.017 -1.10785 -3.24933 0
M  V30 10099 N 947.462 1.57535 -0.0451378 0
M  V30 10100 C 948.873 1.80116 0.491426 0
M  V30 10101 C 949.224 0.956846 1.71286 0
M  V30 10102 O 948.349 0.17173 2.15718 0
M  V30 10103 C 948.944 3.26674 0.898315 0
M  V30 10104 C 947.503 3.50194 1.37989 0
M  V30 10105 C 946.65 2.75054 0.352202 0
M  V30 10106 H 949.601 1.56368 -0.271065 0
M  V30 10107 H 949.622 3.37263 1.76164 0
M  V30 10108 H 949.134 3.88099 0.009141 0
M  V30 10109 H 947.235 2.94041 2.28846 0
M  V30 10110 H 947.348 4.58909 1.37622 0
M  V30 10111 H 945.712 2.4101 0.823784 0
M  V30 10112 H 946.495 3.39203 -0.528782 0
M  V30 10113 N 948.94 -0.228186 1.55939 0
M  V30 10114 C 949.903 -1.26621 1.91049 0
M  V30 10115 C 950.903 -1.40141 0.788491 0
M  V30 10116 O 952.093 -1.3852 1.05631 0
M  V30 10117 C 949.225 -2.64108 2.15545 0
M  V30 10118 H 950.418 -0.966978 2.83883 0
M  V30 10119 H 947.971 -0.468313 1.49119 0
M  V30 10120 H 948.706 -2.99141 1.25241 0
M  V30 10121 H 948.491 -2.55673 2.97277 0
M  V30 10122 H 949.981 -3.39025 2.43827 0
M  V30 10123 N 950.418 -1.49637 -0.494624 0
M  V30 10124 C 951.648 -1.62928 -1.27036 0
M  V30 10125 C 952.056 -0.302464 -1.86767 0
M  V30 10126 O 951.399 0.722878 -1.68879 0
M  V30 10127 C 951.461 -2.64449 -2.43531 0
M  V30 10128 C 951.125 -4.08632 -2.0462 0
M  V30 10129 C 952.122 -4.95238 -1.58225 0
M  V30 10130 C 949.807 -4.54405 -2.1406 0
M  V30 10131 C 951.801 -6.25658 -1.21782 0
M  V30 10132 C 949.488 -5.84836 -1.77228 0
M  V30 10133 C 950.486 -6.70287 -1.31165 0
M  V30 10134 O 950.174 -7.98287 -0.948339 0
M  V30 10135 H 949.906 -0.551263 -0.391261 0
M  V30 10136 H 952.46 -1.96453 -0.599621 0
M  V30 10137 H 950.69 -2.26117 -3.137 0
M  V30 10138 H 952.379 -2.67203 -3.05545 0
M  V30 10139 H 953.145 -4.611 -1.50373 0
M  V30 10140 H 949.024 -3.88056 -2.48865 0
M  V30 10141 H 952.568 -6.92309 -0.857566 0
M  V30 10142 H 948.465 -6.18502 -1.84732 0
M  V30 10143 H 949.233 -8.11353 -1.07925 0
M  V30 10144 N 951.896 0.746133 -1.38819 0
M  V30 10145 C 952.859 1.84167 -1.36437 0
M  V30 10146 C 953.859 1.58626 -0.263499 0
M  V30 10147 O 955.049 1.66233 -0.520801 0
M  V30 10148 C 952.181 3.21769 -1.12596 0
M  V30 10149 H 953.374 1.87684 -2.33912 0
M  V30 10150 H 950.927 0.948625 -1.24221 0
M  V30 10151 H 951.662 3.23917 -0.15758 0
M  V30 10152 H 951.447 3.41702 -1.92307 0
M  V30 10153 H 952.937 4.0184 -1.13643 0
M  V30 10154 N 953.375 1.23811 0.975125 0
M  V30 10155 C 954.603 1.10019 1.75224 0
M  V30 10156 C 955.018 -0.34791 1.85567 0
M  V30 10157 O 954.375 -1.24043 1.33864 0
M  V30 10158 C 954.426 1.72572 3.1765 0
M  V30 10159 O 954.147 3.11719 3.07836 0
M  V30 10160 C 955.648 1.64292 4.11732 0
M  V30 10161 H 952.868 0.38476 0.549728 0
M  V30 10162 H 955.412 1.63768 1.22476 0
M  V30 10163 H 953.567 1.22843 3.67408 0
M  V30 10164 H 953.981 3.42152 3.97533 0
M  V30 10165 H 955.455 2.12754 5.09352 0
M  V30 10166 H 955.932 0.602722 4.35045 0
M  V30 10167 H 956.538 2.13411 3.6788 0
M  V30 10168 N 954.853 -1.17469 1.05066 0
M  V30 10169 C 955.783 -2.23635 0.671552 0
M  V30 10170 C 956.764 -1.66867 -0.33006 0
M  V30 10171 O 957.949 -1.93084 -0.207933 0
M  V30 10172 C 955.079 -3.47272 0.0441845 0
M  V30 10173 C 954.033 -4.16854 0.97042 0
M  V30 10174 C 953.359 -5.34299 0.206998 0
M  V30 10175 C 954.659 -4.69225 2.29401 0
M  V30 10176 H 956.353 -2.55602 1.55911 0
M  V30 10177 H 953.899 -1.2286 0.751101 0
M  V30 10178 H 955.852 -4.20756 -0.23282 0
M  V30 10179 H 954.576 -3.14568 -0.878311 0
M  V30 10180 H 953.235 -3.4528 1.23197 0
M  V30 10181 H 952.883 -4.97846 -0.718222 0
M  V30 10182 H 952.583 -5.81792 0.82416 0
M  V30 10183 H 954.107 -6.10568 -0.0627525 0
M  V30 10184 H 955.521 -5.34353 2.077 0
M  V30 10185 H 953.918 -5.27291 2.86503 0
M  V30 10186 H 954.988 -3.86102 2.93348 0
M  V30 10187 N 956.331 -0.831506 -1.3388 0
M  V30 10188 C 957.579 -0.422837 -1.97627 0
M  V30 10189 C 957.9 1.01961 -1.6622 0
M  V30 10190 O 957.17 1.70916 -0.957323 0
M  V30 10191 H 955.75 -0.153365 -0.731087 0
M  V30 10192 H 958.412 -1.06284 -1.6337 0
M  V30 10193 H 957.508 -0.548858 -3.07236 0
M  V30 10194 N 957.809 1.4625 -0.587256 0
M  V30 10195 C 959.22 1.85997 -0.161918 0
M  V30 10196 C 959.571 1.49025 1.27616 0
M  V30 10197 O 958.696 0.907282 1.96462 0
M  V30 10198 C 959.291 3.37582 -0.287077 0
M  V30 10199 C 957.85 3.76308 0.0834211 0
M  V30 10200 C 956.997 2.70259 -0.620932 0
M  V30 10201 H 959.948 1.3734 -0.795199 0
M  V30 10202 H 959.969 3.77379 0.486333 0
M  V30 10203 H 959.481 3.64459 -1.33383 0
M  V30 10204 H 957.582 3.55047 1.13013 0
M  V30 10205 H 957.695 4.78184 -0.296064 0
M  V30 10206 H 956.059 2.54628 -0.0607027 0
M  V30 10207 H 956.842 2.99975 -1.66942 0
M  V30 10208 N 959.287 0.325282 1.54207 0
M  V30 10209 C 960.703 -0.0273036 1.59577 0
M  V30 10210 C 960.903 -1.50329 1.34177 0
M  V30 10211 O 959.959 -2.25951 1.12705 0
M  V30 10212 C 961.272 0.392468 2.98128 0
M  V30 10213 C 962.82 0.343269 3.11112 0
M  V30 10214 C 963.295 0.738229 4.52011 0
M  V30 10215 N 964.786 0.691701 4.58006 0
M  V30 10216 C 965.521 0.969479 5.65145 0
M  V30 10217 N 965.017 1.31448 6.80216 0
M  V30 10218 N 966.81 0.894926 5.5493 0
M  V30 10219 H 958.961 1.28692 1.68974 0
M  V30 10220 H 961.224 0.523399 0.790416 0
M  V30 10221 H 960.93 1.42089 3.2172 0
M  V30 10222 H 960.804 -0.241651 3.76425 0
M  V30 10223 H 963.191 -0.675946 2.87254 0
M  V30 10224 H 963.272 1.01235 2.34915 0
M  V30 10225 H 962.916 1.75537 4.76602 0
M  V30 10226 H 962.846 0.0468226 5.26579 0
M  V30 10227 H 965.337 0.436975 3.75365 0
M  V30 10228 H 965.65 1.51177 7.57869 0
M  V30 10229 H 963.995 1.35276 6.81708 0
M  V30 10230 H 967.186 0.624876 4.6391 0
M  V30 10231 H 967.359 1.11476 6.38339 0
M  V30 10232 N 960.765 -1.57509 0.0534917 0
M  V30 10233 C 962.176 -1.80374 -0.481867 0
M  V30 10234 C 962.527 -0.965917 -1.70776 0
M  V30 10235 O 961.652 -0.183167 -2.15623 0
M  V30 10236 C 962.247 -3.27146 -0.880978 0
M  V30 10237 C 960.806 -3.50921 -1.3613 0
M  V30 10238 C 959.953 -2.75237 -0.337611 0
M  V30 10239 H 962.904 -1.56222 0.279353 0
M  V30 10240 H 962.925 -3.38193 -1.74373 0
M  V30 10241 H 962.437 -3.88098 0.011441 0
M  V30 10242 H 960.538 -2.95251 -2.27283 0
M  V30 10243 H 960.651 -4.59632 -1.35186 0
M  V30 10244 H 959.015 -2.41444 -0.810991 0
M  V30 10245 H 959.798 -3.38918 0.546763 0
M  V30 10246 N 962.243 0.219913 -1.56058 0
M  V30 10247 C 963.468 0.965073 -1.83579 0
M  V30 10248 C 963.893 1.77092 -0.634024 0
M  V30 10249 O 963.251 1.76434 0.417205 0
M  V30 10250 C 963.299 1.85705 -3.09105 0
M  V30 10251 O 962.403 2.95261 -2.87914 0
M  V30 10252 H 961.744 0.273173 -0.605204 0
M  V30 10253 H 964.274 0.23273 -2.03272 0
M  V30 10254 H 964.284 2.26655 -3.39252 0
M  V30 10255 H 962.959 1.26476 -3.96203 0
M  V30 10256 H 961.536 2.58246 -2.69005 0
M  V30 10257 N 963.721 1.49897 0.486681 0
M  V30 10258 C 965.132 1.53142 1.06792 0
M  V30 10259 C 965.483 0.325856 1.93475 0
M  V30 10260 O 964.608 -0.562893 2.08951 0
M  V30 10261 C 965.203 2.77514 1.94348 0
M  V30 10262 C 963.762 2.83491 2.47609 0
M  V30 10263 C 962.909 2.47239 1.2557 0
M  V30 10264 H 965.86 1.56387 0.269962 0
M  V30 10265 H 965.881 2.58487 2.79221 0
M  V30 10266 H 965.393 3.65239 1.31232 0
M  V30 10267 H 963.494 2.0008 3.14323 0
M  V30 10268 H 963.607 3.86011 2.83782 0
M  V30 10269 H 961.971 1.99332 1.58552 0
M  V30 10270 H 962.754 3.37255 0.641404 0
M  V30 10271 N 965.199 -0.738761 1.39212 0
M  V30 10272 C 966.447 -1.49529 1.35962 0
M  V30 10273 C 966.768 -1.94948 -0.0450152 0
M  V30 10274 O 966.038 -1.68717 -0.995552 0
M  V30 10275 H 964.618 -0.554692 0.500326 0
M  V30 10276 H 967.28 -0.877255 1.74041 0
M  V30 10277 H 966.376 -2.37919 2.01993 0
M  V30 10278 N 966.677 -1.24326 -0.968545 0
M  V30 10279 C 967.925 -1.08032 -1.70803 0
M  V30 10280 C 968.246 0.381728 -1.91227 0
M  V30 10281 O 967.516 1.27253 -1.48942 0
M  V30 10282 H 966.096 -0.396777 -0.632912 0
M  V30 10283 H 968.758 -1.56232 -1.16523 0
M  V30 10284 H 967.854 -1.57769 -2.69287 0
M  V30 10285 N 968.156 1.1691 -1.05688 0
M  V30 10286 C 969.381 1.91745 -0.790478 0
M  V30 10287 C 969.806 1.76568 0.648478 0
M  V30 10288 O 969.164 1.08682 1.45114 0
M  V30 10289 C 969.212 3.4067 -1.18222 0
M  V30 10290 O 968.316 4.11177 -0.317341 0
M  V30 10291 H 967.657 0.5976 -0.28943 0
M  V30 10292 H 970.187 1.48157 -1.41105 0
M  V30 10293 H 970.197 3.91424 -1.15114 0
M  V30 10294 H 968.872 3.51036 -2.2304 0
M  V30 10295 H 967.449 3.70645 -0.409459 0
M  V30 10296 N 969.634 0.838594 1.33437 0
M  V30 10297 C 970.597 0.276843 2.27522 0
M  V30 10298 C 971.597 -0.554275 1.50945 0
M  V30 10299 O 972.787 -0.368107 1.70266 0
M  V30 10300 C 969.919 -0.610036 3.35397 0
M  V30 10301 H 971.112 1.10705 2.78719 0
M  V30 10302 H 968.665 0.611657 1.43835 0
M  V30 10303 H 969.4 -1.46269 2.89441 0
M  V30 10304 H 969.185 -0.0153615 3.92097 0
M  V30 10305 H 970.675 -0.996368 4.05539 0
M  V30 10306 N 971.112 -1.45937 0.595003 0
M  V30 10307 C 972.36 -2.01921 0.0851368 0
M  V30 10308 C 972.681 -1.46748 -1.28413 0
M  V30 10309 O 971.951 -0.656873 -1.84559 0
M  V30 10310 H 970.531 -0.746457 0.0284826 0
M  V30 10311 H 973.193 -1.78891 0.773561 0
M  V30 10312 H 972.289 -3.1209 0.0254002 0
M  V30 10313 N 972.59 -0.333456 -1.54032 0
M  V30 10314 C 973.553 0.515392 -2.2333 0
M  V30 10315 C 974.553 1.03566 -1.23007 0
M  V30 10316 O 975.743 0.926514 -1.47517 0
M  V30 10317 C 972.875 1.7169 -2.94508 0
M  V30 10318 H 974.068 -0.0905407 -2.99763 0
M  V30 10319 H 971.621 -0.0846651 -1.56071 0
M  V30 10320 H 972.356 2.3618 -2.22237 0
M  V30 10321 H 972.141 1.35115 -3.68085 0
M  V30 10322 H 973.631 2.31922 -3.47278 0
M  V30 10323 N 974.068 1.57479 -0.061844 0
M  V30 10324 C 975.293 1.97843 0.622311 0
M  V30 10325 C 975.718 0.939602 1.62951 0
M  V30 10326 O 975.076 -0.095958 1.81046 0
M  V30 10327 C 975.124 3.37262 1.2762 0
M  V30 10328 O 974.228 3.35943 2.39199 0
M  V30 10329 H 973.569 0.644212 0.160896 0
M  V30 10330 H 976.099 2.04165 -0.133409 0
M  V30 10331 H 976.109 3.74226 1.62539 0
M  V30 10332 H 974.784 4.12404 0.538112 0
M  V30 10333 H 973.361 3.10737 2.06148 0
M  V30 10334 N 975.546 -0.211634 1.56173 0
M  V30 10335 C 976.771 -0.955324 1.84088 0
M  V30 10336 C 977.196 -1.76754 0.643407 0
M  V30 10337 O 976.554 -1.76653 -0.407842 0
M  V30 10338 C 976.602 -1.84063 3.10085 0
M  V30 10339 O 975.706 -2.9373 2.89476 0
M  V30 10340 H 975.047 -0.26996 0.606645 0
M  V30 10341 H 977.577 -0.221947 2.03393 0
M  V30 10342 H 977.587 -2.24852 3.40449 0
M  V30 10343 H 976.262 -1.24373 3.96868 0
M  V30 10344 H 974.839 -2.56816 2.7037 0
M  V30 10345 N 977.024 -1.50153 -0.478725 0
M  V30 10346 C 978.249 -1.64776 -1.2595 0
M  V30 10347 C 978.674 -0.327794 -1.85222 0
M  V30 10348 O 978.032 0.707418 -1.66929 0
M  V30 10349 C 978.08 -2.73551 -2.34952 0
M  V30 10350 O 977.184 -2.34273 -3.39397 0
M  V30 10351 H 976.525 -0.550769 -0.370877 0
M  V30 10352 H 979.055 -1.96482 -0.570605 0
M  V30 10353 H 979.065 -2.96397 -2.8038 0
M  V30 10354 H 977.74 -3.69354 -1.91181 0
M  V30 10355 H 976.317 -2.21844 -2.99733 0
M  V30 10356 N 978.502 0.731368 -1.39602 0
M  V30 10357 C 979.73 1.52059 -1.40305 0
M  V30 10358 C 980.145 1.888 0.00147921 0
M  V30 10359 O 979.502 1.54354 0.973715 0
M  V30 10360 C 979.553 2.80588 -2.27931 0
M  V30 10361 O 979.274 2.45406 -3.62915 0
M  V30 10362 C 980.775 3.74592 -2.37056 0
M  V30 10363 H 977.995 0.469787 -0.479104 0
M  V30 10364 H 980.539 0.903436 -1.83462 0
M  V30 10365 H 978.694 3.38626 -1.88178 0
M  V30 10366 H 979.108 3.27996 -4.09291 0
M  V30 10367 H 980.582 4.61662 -3.02609 0
M  V30 10368 H 981.059 4.16597 -1.39081 0
M  V30 10369 H 981.665 3.22471 -2.77295 0
M  V30 10370 N 979.98 1.24838 0.961938 0
M  V30 10371 C 981.22 1.10348 1.72054 0
M  V30 10372 C 981.584 -0.350775 1.88769 0
M  V30 10373 O 982.785 -0.617323 2.61615 0
M  V30 10374 C 981.056 1.82916 3.07045 0
M  V30 10375 S 982.615 1.84227 3.98253 0
M  V30 10376 H 979.433 0.394552 0.591481 0
M  V30 10377 H 982.035 1.58254 1.14786 0
M  V30 10378 H 980.739 2.87829 2.92545 0
M  V30 10379 H 980.27 1.35366 3.69377 0
M  V30 10380 H 982.285 0.914073 4.87708 0
M  V30 10381 N 981.458 -1.16348 1.06306 0
M  V30 10382 C 982.869 -1.68491 0.80422 0
M  V30 10383 C 983.22 -1.84327 -0.672159 0
M  V30 10384 O 982.345 -1.53892 -1.52139 0
M  V30 10385 C 982.94 -3.06048 1.45328 0
M  V30 10386 C 981.499 -3.55311 1.24221 0
M  V30 10387 C 980.646 -2.31291 1.5297 0
M  V30 10388 H 983.597 -1.00708 1.22652 0
M  V30 10389 H 983.618 -3.70451 0.868674 0
M  V30 10390 H 983.13 -2.9449 2.52779 0
M  V30 10391 H 981.231 -3.72128 0.187447 0
M  V30 10392 H 981.344 -4.37397 1.95502 0
M  V30 10393 H 979.708 -2.3631 0.950241 0
M  V30 10394 H 980.491 -2.22331 2.6158 0
M  V30 10395 N 982.937 -0.845659 -1.3299 0
M  V30 10396 C 983.867 -0.298957 -2.31578 0
M  V30 10397 C 984.848 0.597012 -1.59279 0
M  V30 10398 O 986.033 0.519142 -1.87132 0
M  V30 10399 C 983.163 0.521109 -3.43368 0
M  V30 10400 C 982.117 -0.279651 -4.27085 0
M  V30 10401 C 981.443 0.664591 -5.30554 0
M  V30 10402 C 982.743 -1.50046 -5.00283 0
M  V30 10403 H 984.437 -1.12272 -2.77552 0
M  V30 10404 H 981.983 -0.54132 -1.33438 0
M  V30 10405 H 983.936 0.913921 -4.1137 0
M  V30 10406 H 982.66 1.37815 -2.96099 0
M  V30 10407 H 981.319 -0.654106 -3.60717 0
M  V30 10408 H 980.967 1.51822 -4.79541 0
M  V30 10409 H 980.667 0.132871 -5.8745 0
M  V30 10410 H 982.191 1.05477 -6.01421 0
M  V30 10411 H 983.605 -1.18044 -5.61016 0
M  V30 10412 H 982.002 -1.96946 -5.66862 0
M  V30 10413 H 983.072 -2.26659 -4.28665 0
M  V30 10414 N 984.415 1.45619 -0.602734 0
M  V30 10415 C 985.663 2.01873 -0.095844 0
M  V30 10416 C 985.984 1.47427 1.27633 0
M  V30 10417 O 985.254 0.666652 1.84208 0
M  V30 10418 H 983.834 0.746295 -0.0324408 0
M  V30 10419 H 986.496 1.78478 -0.783037 0
M  V30 10420 H 985.592 3.12072 -0.0419507 0
M  V30 10421 N 985.893 0.34162 1.53853 0
M  V30 10422 C 987.141 -0.254979 2.00485 0
M  V30 10423 C 987.462 -1.51222 1.23114 0
M  V30 10424 O 986.732 -1.92966 0.337787 0
M  V30 10425 H 985.312 -0.0972084 0.740648 0
M  V30 10426 H 987.974 0.462332 1.89337 0
M  V30 10427 H 987.07 -0.498778 3.08089 0
M  V30 10428 N 987.371 -1.57444 0.0701946 0
M  V30 10429 C 988.782 -1.80875 -0.462709 0
M  V30 10430 C 989.133 -0.983975 -1.69742 0
M  V30 10431 O 988.258 -0.206027 -2.15417 0
M  V30 10432 C 988.853 -3.28062 -0.84623 0
M  V30 10433 C 987.412 -3.52345 -1.32401 0
M  V30 10434 C 986.559 -2.7558 -0.308399 0
M  V30 10435 H 989.51 -1.55917 0.295907 0
M  V30 10436 H 989.531 -3.40023 -1.70776 0
M  V30 10437 H 989.043 -3.88064 0.0526033 0
M  V30 10438 H 987.144 -2.97645 -2.24139 0
M  V30 10439 H 987.257 -4.6104 -1.30304 0
M  V30 10440 H 985.621 -2.4229 -0.785337 0
M  V30 10441 H 986.404 -3.38319 0.582679 0
M  V30 10442 O 988.888 0.0704711 -1.61346 0
M  V30 10443 H 989.579 0.696202 -1.80756 0
M  V30 END ATOM
M  V30 BEGIN BOND
M  V30 END BOND
M  V30 END CTAB
M  END
$$$$
