drugbank_target|P29275 Adenosine receptor A2b (DB00201; DB00277; DB00640; DB00824; DB04932; DB05936)
 OpenBabel12092119273D

  0  0  0     0  0            999 V3000
M  V30 BEGIN CTAB
M  V30 COUNTS 5180 5238 0 0 0
M  V30 BEGIN ATOM
M  V30 1 H -0.908 1.98254 -0.117106 0
M  V30 2 N 0 1.576 0 0
M  V30 3 C 0.933 2.03868 1.02534 0
M  V30 4 C 1.911 0.928543 1.3348 0
M  V30 5 O 3.095 1.19667 1.45644 0
M  V30 6 C 0.222 2.43627 2.35294 0
M  V30 7 C -0.732 3.65373 2.2001 0
M  V30 8 S 0.101 5.13292 1.52614 0
M  V30 9 C 1.257 5.56322 2.86805 0
M  V30 10 H 1.49 2.90518 0.631377 0
M  V30 11 H -0.977 1.52953 0.210867 0
M  V30 12 H 0.981 2.67203 3.11629 0
M  V30 13 H -0.358 1.57376 2.7183 0
M  V30 14 H -1.165 3.90944 3.18086 0
M  V30 15 H -1.563 3.418 1.51819 0
M  V30 16 H 0.729 5.58782 3.83104 0
M  V30 17 H 1.672 6.56266 2.65933 0
M  V30 18 H 2.08 4.83886 2.90714 0
M  V30 19 N 1.4781 -0.272755 1.55222 0
M  V30 20 C 2.4081 -1.34136 1.91127 0
M  V30 21 C 3.3891 -1.51513 0.773168 0
M  V30 22 O 4.5741 -1.64552 1.03132 0
M  V30 23 C 1.7041 -2.70083 2.1834 0
M  V30 24 C 0.6581 -2.67437 3.34158 0
M  V30 25 C -0.0159 -4.06938 3.46851 0
M  V30 26 C 1.2841 -2.26686 4.70543 0
M  V30 27 H 2.9781 -1.04333 2.80633 0
M  V30 28 H 0.5241 -0.500454 1.35024 0
M  V30 29 H 2.4771 -3.44952 2.42046 0
M  V30 30 H 1.2011 -3.01469 1.25634 0
M  V30 31 H -0.1399 -1.95026 3.1042 0
M  V30 32 H -0.4919 -4.35547 2.51611 0
M  V30 33 H -0.7919 -4.06062 4.2472 0
M  V30 34 H 0.7321 -4.83545 3.72849 0
M  V30 35 H 2.1461 -2.91277 4.93792 0
M  V30 36 H 0.5431 -2.36971 5.5133 0
M  V30 37 H 1.6131 -1.21818 4.69349 0
M  V30 38 N 2.9562 -1.48159 -0.537278 0
M  V30 39 C 3.8862 -1.65029 -1.6519 0
M  V30 40 C 4.8672 -0.499281 -1.62607 0
M  V30 41 O 6.0522 -0.730972 -1.79918 0
M  V30 42 C 3.1822 -1.68303 -3.03795 0
M  V30 43 C 2.1362 -2.8283 -3.21234 0
M  V30 44 C 1.4622 -2.71189 -4.60826 0
M  V30 45 C 2.7622 -4.24211 -3.04701 0
M  V30 46 H 4.4562 -2.58341 -1.51328 0
M  V30 47 H 2.0022 -1.24325 -0.726585 0
M  V30 48 H 3.9552 -1.78693 -3.81637 0
M  V30 49 H 2.6792 -0.715635 -3.18663 0
M  V30 50 H 1.3382 -2.71983 -2.45807 0
M  V30 51 H 0.9862 -1.72435 -4.7252 0
M  V30 52 H 0.6862 -3.48035 -4.7344 0
M  V30 53 H 2.2102 -2.83537 -5.40777 0
M  V30 54 H 3.6242 -4.3593 -3.72341 0
M  V30 55 H 2.0212 -5.01998 -3.28813 0
M  V30 56 H 3.0912 -4.41184 -2.01209 0
M  V30 57 N 4.4343 0.785586 -1.36625 0
M  V30 58 C 5.3443 1.92964 -1.33425 0
M  V30 59 C 6.3603 1.72394 -0.235851 0
M  V30 60 O 7.5363 1.95866 -0.468878 0
M  V30 61 C 4.6013 3.27884 -1.12662 0
M  V30 62 C 3.6623 3.61204 -2.32013 0
M  V30 63 C 2.8953 4.89687 -2.12231 0
M  V30 64 O 3.1183 5.59704 -1.09945 0
M  V30 65 O 2.0523 5.21752 -3.00098 0
M  V30 66 H 5.8783 1.98613 -2.29753 0
M  V30 67 H 3.4633 0.926384 -1.17211 0
M  V30 68 H 5.3453 4.08614 -1.03016 0
M  V30 69 H 4.0203 3.23118 -0.193991 0
M  V30 70 H 2.9273 2.80765 -2.47228 0
M  V30 71 H 4.2603 3.70698 -3.23796 0
M  V30 72 N 5.9124 1.20967 1.01018 0
M  V30 73 C 7.1404 1.04956 1.78303 0
M  V30 74 C 7.5554 -0.400915 1.84494 0
M  V30 75 O 6.9124 -1.27826 1.30257 0
M  V30 76 C 6.9634 1.63403 3.22462 0
M  V30 77 O 6.6844 3.02775 3.16637 0
M  V30 78 C 8.1854 1.52432 4.16268 0
M  V30 79 H 5.4054 0.368858 0.560522 0
M  V30 80 H 7.9494 1.60193 1.27116 0
M  V30 81 H 6.1044 1.1227 3.70775 0
M  V30 82 H 6.5184 3.30626 4.07169 0
M  V30 83 H 7.9924 1.98078 5.15237 0
M  V30 84 H 8.4694 0.477875 4.36592 0
M  V30 85 H 9.0754 2.02787 3.73841 0
M  V30 86 N 7.3905 -1.2043 1.01659 0
M  V30 87 C 8.3225 -2.22626 0.544988 0
M  V30 88 C 9.3355 -1.58479 -0.372609 0
M  V30 89 O 10.5245 -1.77679 -0.170958 0
M  V30 90 C 7.6245 -3.38141 -0.22663 0
M  V30 91 C 6.7975 -4.31877 0.692876 0
M  V30 92 C 5.8565 -5.26191 -0.0311616 0
M  V30 93 O 4.8825 -5.6612 0.591343 0
M  V30 94 N 6.0845 -5.65618 -1.30601 0
M  V30 95 H 8.8495 -2.63716 1.42388 0
M  V30 96 H 6.4105 -1.34971 0.894116 0
M  V30 97 H 8.4025 -3.98239 -0.72024 0
M  V30 98 H 6.9725 -2.95943 -1.00681 0
M  V30 99 H 6.1925 -3.69746 1.36679 0
M  V30 100 H 7.4805 -4.91426 1.31824 0
M  V30 101 H 6.8785 -5.3519 -1.83269 0
M  V30 102 H 5.4355 -6.28025 -1.74435 0
M  V30 103 N 8.8686 -0.792821 -1.36206 0
M  V30 104 C 10.1456 -0.290627 -1.93429 0
M  V30 105 C 10.5256 1.21773 -1.72437 0
M  V30 106 O 9.8736 2.0108 -1.08531 0
M  V30 107 C 10.0836 -0.686973 -3.42172 0
M  V30 108 C 11.4316 -0.668643 -4.19302 0
M  V30 109 O 12.4556 -0.627658 -3.50626 0
M  V30 110 O 11.3146 -0.714597 -5.41808 0
M  V30 111 H 8.4086 -0.0727927 -0.82379 0
M  V30 112 H 10.9546 -0.875593 -1.45367 0
M  V30 113 H 9.7266 -1.72711 -3.51122 0
M  V30 114 H 9.3496 -0.0760733 -3.97527 0
M  V30 115 N 10.3467 1.47872 -0.545128 0
M  V30 116 C 11.3097 2.28337 0.198717 0
M  V30 117 C 12.3097 1.36255 0.853888 0
M  V30 118 O 13.4997 1.59003 0.711606 0
M  V30 119 C 10.6317 3.15585 1.28915 0
M  V30 120 H 11.8247 2.95567 -0.507941 0
M  V30 121 H 9.3777 1.53362 -0.301616 0
M  V30 122 H 10.1127 2.53019 2.02859 0
M  V30 123 H 9.8977 3.83337 0.824309 0
M  V30 124 H 11.3877 3.76243 1.81194 0
M  V30 125 N 11.8248 0.280983 1.55075 0
M  V30 126 C 12.7548 -0.597469 2.25727 0
M  V30 127 C 13.7358 -1.15417 1.24952 0
M  V30 128 O 14.9208 -1.18722 1.53684 0
M  V30 129 C 12.0508 -1.7789 2.98283 0
M  V30 130 C 11.0048 -1.35347 4.06036 0
M  V30 131 C 10.3308 -2.61846 4.66198 0
M  V30 132 C 11.6308 -0.499354 5.19907 0
M  V30 133 H 13.3248 -0.00824265 2.99399 0
M  V30 134 H 10.8708 -0.0025244 1.44 0
M  V30 135 H 12.8238 -2.39937 3.46422 0
M  V30 136 H 11.5478 -2.39405 2.22155 0
M  V30 137 H 10.2068 -0.756156 3.58717 0
M  V30 138 H 9.8548 -3.21632 3.86732 0
M  V30 139 H 9.5548 -2.3409 5.38958 0
M  V30 140 H 11.0788 -3.24732 5.1709 0
M  V30 141 H 12.4928 -1.02498 5.64063 0
M  V30 142 H 10.8898 -0.316424 5.99265 0
M  V30 143 H 11.9598 0.480459 4.82514 0
M  V30 144 N 13.3029 -1.57598 0.00835791 0
M  V30 145 C 14.5329 -1.94931 -0.684496 0
M  V30 146 C 14.9409 -0.882233 -1.67372 0
M  V30 147 O 14.2839 0.146621 -1.83114 0
M  V30 148 C 14.3459 -3.283 -1.4649 0
M  V30 149 C 14.0099 -4.52548 -0.63634 0
M  V30 150 C 15.0069 -5.19839 0.0795586 0
M  V30 151 C 12.6919 -4.98942 -0.579849 0
M  V30 152 C 14.6859 -6.3183 0.840843 0
M  V30 153 C 12.3729 -6.10819 0.185155 0
M  V30 154 C 13.3709 -6.77121 0.894227 0
M  V30 155 O 13.0589 -7.86853 1.64673 0
M  V30 156 H 12.7909 -0.647249 -0.19505 0
M  V30 157 H 15.3449 -2.05318 0.0581272 0
M  V30 158 H 13.5749 -3.14345 -2.2522 0
M  V30 159 H 15.2639 -3.50685 -2.04389 0
M  V30 160 H 16.0299 -4.84979 0.0451202 0
M  V30 161 H 11.9089 -4.47155 -1.1213 0
M  V30 162 H 15.4529 -6.83513 1.39483 0
M  V30 163 H 11.3499 -6.4512 0.221384 0
M  V30 164 H 12.1179 -8.03412 1.56432 0
M  V30 165 N 14.781 0.264519 -1.55364 0
M  V30 166 C 16.027 0.99646 -1.76631 0
M  V30 167 C 16.36 1.85632 -0.570478 0
M  V30 168 O 15.635 1.89647 0.43175 0
M  V30 169 C 15.918 1.87187 -3.07625 0
M  V30 170 C 15.771 1.04138 -4.37579 0
M  V30 171 C 17.09 2.85749 -3.34717 0
M  V30 172 H 14.209 0.360841 -0.642622 0
M  V30 173 H 16.851 0.268218 -1.88097 0
M  V30 174 H 15.001 2.49279 -2.9798 0
M  V30 175 H 16.673 0.440517 -4.59192 0
M  V30 176 H 14.916 0.345115 -4.32425 0
M  V30 177 H 15.587 1.68729 -5.2558 0
M  V30 178 H 18.063 2.33793 -3.4421 0
M  V30 179 H 16.939 3.44136 -4.27623 0
M  V30 180 H 17.2 3.61311 -2.54768 0
M  V30 181 N 16.2591 1.48442 0.529413 0
M  V30 182 C 17.2221 1.62524 1.61612 0
M  V30 183 C 18.2221 0.498509 1.52877 0
M  V30 184 O 19.4121 0.76431 1.56537 0
M  V30 185 C 16.5441 1.59597 3.01233 0
M  V30 186 H 17.7371 2.59423 1.50465 0
M  V30 187 H 15.2901 1.37047 0.751514 0
M  V30 188 H 16.0251 0.641781 3.17886 0
M  V30 189 H 15.8101 2.41397 3.08982 0
M  V30 190 H 17.3001 1.72646 3.80241 0
M  V30 191 N 17.7372 -0.778329 1.37039 0
M  V30 192 C 18.6672 -1.90546 1.34962 0
M  V30 193 C 19.6482 -1.68681 0.219274 0
M  V30 194 O 20.8332 -1.89634 0.418624 0
M  V30 195 C 17.9632 -3.27734 1.14925 0
M  V30 196 C 16.9172 -3.64147 2.24902 0
M  V30 197 C 16.2432 -4.99806 1.89996 0
M  V30 198 C 17.5432 -3.71579 3.67051 0
M  V30 199 H 19.2372 -1.92541 2.29277 0
M  V30 200 H 16.7832 -0.924948 1.10366 0
M  V30 201 H 18.7362 -4.06215 1.12104 0
M  V30 202 H 17.4602 -3.26154 0.170631 0
M  V30 203 H 16.1192 -2.8797 2.26868 0
M  V30 204 H 15.7672 -4.94759 0.906796 0
M  V30 205 H 15.4672 -5.25139 2.63634 0
M  V30 206 H 16.9912 -5.80694 1.88749 0
M  V30 207 H 18.4052 -4.40227 3.67251 0
M  V30 208 H 16.8022 -4.08405 4.39688 0
M  V30 209 H 17.8722 -2.72404 4.01154 0
M  V30 210 N 19.2153 -1.21501 -1.00376 0
M  V30 211 C 20.1253 -0.991447 -2.12621 0
M  V30 212 C 21.1413 0.0568446 -1.73907 0
M  V30 213 O 22.3173 -0.13348 -2.00957 0
M  V30 214 C 19.3823 -0.560312 -3.42142 0
M  V30 215 C 18.4433 -1.68096 -3.95022 0
M  V30 216 C 17.6763 -1.2703 -5.18362 0
M  V30 217 O 17.8993 -0.144438 -5.70217 0
M  V30 218 O 16.8333 -2.08269 -5.64719 0
M  V30 219 H 20.6593 -1.93158 -2.34358 0
M  V30 220 H 18.2443 -0.999999 -1.10997 0
M  V30 221 H 20.1263 -0.329724 -4.20108 0
M  V30 222 H 18.8013 0.351089 -3.2179 0
M  V30 223 H 17.7083 -1.96597 -3.18278 0
M  V30 224 H 19.0413 -2.56983 -4.19786 0
M  V30 225 N 20.6934 1.19889 -1.02296 0
M  V30 226 C 21.6234 2.25141 -0.619174 0
M  V30 227 C 22.6044 1.66051 0.368915 0
M  V30 228 O 23.7894 1.92546 0.252941 0
M  V30 229 C 20.9194 3.4728 0.0368783 0
M  V30 230 C 19.8734 4.19005 -0.872865 0
M  V30 231 C 19.1994 5.34637 -0.0822402 0
M  V30 232 C 20.4994 4.74452 -2.18387 0
M  V30 233 H 22.1934 2.59171 -1.49903 0
M  V30 234 H 19.7394 1.24579 -0.722222 0
M  V30 235 H 21.6924 4.20098 0.330958 0
M  V30 236 H 20.4164 3.12433 0.95149 0
M  V30 237 H 19.0754 3.48061 -1.15105 0
M  V30 238 H 18.7234 4.96034 0.83422 0
M  V30 239 H 18.4234 5.83557 -0.688149 0
M  V30 240 H 19.9474 6.10255 0.205238 0
M  V30 241 H 21.3614 5.39055 -1.95172 0
M  V30 242 H 19.7584 5.33834 -2.74119 0
M  V30 243 H 20.8284 3.92844 -2.84257 0
M  V30 244 N 22.1715 0.800033 1.35784 0
M  V30 245 C 23.4175 0.377901 1.99248 0
M  V30 246 C 23.7505 -1.05052 1.63333 0
M  V30 247 O 23.0255 -1.72768 0.893385 0
M  V30 248 C 23.3085 0.553922 3.55814 0
M  V30 249 C 23.1615 2.0268 4.01548 0
M  V30 250 C 24.4805 -0.0244802 4.40093 0
M  V30 251 H 21.5995 0.138782 0.723815 0
M  V30 252 H 24.2415 1.00835 1.61035 0
M  V30 253 H 22.3915 0.0172398 3.88496 0
M  V30 254 H 24.0635 2.62536 3.79305 0
M  V30 255 H 22.3065 2.5256 3.52698 0
M  V30 256 H 22.9775 2.10087 5.10458 0
M  V30 257 H 25.4535 0.433775 4.13833 0
M  V30 258 H 24.3295 0.128637 5.48749 0
M  V30 259 H 24.5905 -1.11758 4.27741 0
M  V30 260 N 23.6496 -1.47581 0.552962 0
M  V30 261 C 24.8986 -2.01684 0.0251995 0
M  V30 262 C 25.2116 -1.43317 -1.33115 0
M  V30 263 O 26.4176 -1.89057 -1.94858 0
M  V30 264 C 24.8736 -3.599 -0.00542052 0
M  V30 265 C 24.4816 -4.27257 1.34742 0
M  V30 266 C 26.2256 -4.21768 -0.4808 0
M  V30 267 C 24.1326 -5.77467 1.27614 0
M  V30 268 H 23.0626 -0.753979 0.00565033 0
M  V30 269 H 25.7136 -1.69616 0.70018 0
M  V30 270 H 24.0956 -3.88911 -0.745961 0
M  V30 271 H 25.2696 -4.09893 2.10534 0
M  V30 272 H 23.5846 -3.77358 1.76039 0
M  V30 273 H 26.1816 -5.31838 -0.55246 0
M  V30 274 H 26.5246 -3.88651 -1.49184 0
M  V30 275 H 27.0576 -3.97273 0.204752 0
M  V30 276 H 23.7966 -6.15196 2.26304 0
M  V30 277 H 23.3166 -5.9718 0.55996 0
M  V30 278 H 24.9956 -6.3959 0.976421 0
M  V30 279 N 25.1277 -0.289203 -1.54924 0
M  V30 280 C 26.0907 0.579144 -2.21762 0
M  V30 281 C 27.0907 1.07047 -1.1999 0
M  V30 282 O 28.2807 0.968384 -1.44803 0
M  V30 283 C 25.4127 1.80055 -2.8947 0
M  V30 284 H 26.6057 -0.00464908 -2.999 0
M  V30 285 H 24.1587 -0.0399306 -1.56249 0
M  V30 286 H 24.8937 2.42449 -2.15381 0
M  V30 287 H 24.6787 1.45602 -3.64064 0
M  V30 288 H 26.1687 2.41773 -3.40493 0
M  V30 289 N 26.6058 1.57591 -0.0167156 0
M  V30 290 C 27.5688 2.08393 0.954204 0
M  V30 291 C 28.5688 0.996531 1.26198 0
M  V30 292 O 29.7588 1.25858 1.20438 0
M  V30 293 C 26.8908 2.5394 2.27436 0
M  V30 294 H 28.0838 2.95455 0.514451 0
M  V30 295 H 25.6368 1.54582 0.231089 0
M  V30 296 H 26.3718 1.70171 2.76066 0
M  V30 297 H 26.1568 3.33371 2.06412 0
M  V30 298 H 27.6468 2.93512 2.97053 0
M  V30 299 N 28.0839 -0.256276 1.55502 0
M  V30 300 C 29.0139 -1.32102 1.92539 0
M  V30 301 C 29.9949 -1.50684 0.789194 0
M  V30 302 O 31.1799 -1.63449 1.04872 0
M  V30 303 C 28.3099 -2.67752 2.21192 0
M  V30 304 C 27.2639 -2.63878 3.36975 0
M  V30 305 C 26.5899 -4.03236 3.51147 0
M  V30 306 C 27.8899 -2.21682 4.72921 0
M  V30 307 H 29.5839 -1.01351 2.81724 0
M  V30 308 H 27.1299 -0.486105 1.35547 0
M  V30 309 H 29.0829 -3.42365 2.45691 0
M  V30 310 H 27.8069 -3.0012 1.28824 0
M  V30 311 H 26.4659 -1.91722 3.12471 0
M  V30 312 H 26.1139 -4.32854 2.56216 0
M  V30 313 H 25.8139 -4.01535 4.29003 0
M  V30 314 H 27.3379 -4.79563 3.77957 0
M  V30 315 H 28.7519 -2.86023 4.96854 0
M  V30 316 H 27.1489 -2.3111 5.53812 0
M  V30 317 H 28.2189 -1.16833 4.70615 0
M  V30 318 N 29.562 -1.4872 -0.521534 0
M  V30 319 C 30.787 -1.61101 -1.30618 0
M  V30 320 C 31.212 -0.274611 -1.86085 0
M  V30 321 O 30.57 0.754937 -1.64834 0
M  V30 322 C 30.618 -2.66709 -2.4269 0
M  V30 323 O 29.722 -2.24456 -3.45967 0
M  V30 324 H 29.063 -0.539921 -0.386499 0
M  V30 325 H 31.593 -1.94767 -0.626645 0
M  V30 326 H 31.603 -2.88245 -2.88754 0
M  V30 327 H 30.278 -3.63727 -2.01682 0
M  V30 328 H 28.855 -2.13168 -3.05964 0
M  V30 329 N 31.0401 0.771051 -1.3745 0
M  V30 330 C 32.2861 1.5319 -1.32894 0
M  V30 331 C 32.6191 1.94008 0.0862511 0
M  V30 332 O 31.8941 1.64124 1.04373 0
M  V30 333 C 32.1771 2.79648 -2.26868 0
M  V30 334 C 32.0301 2.45079 -3.77169 0
M  V30 335 C 33.3491 3.81583 -2.19277 0
M  V30 336 H 30.4681 0.555744 -0.484064 0
M  V30 337 H 33.1101 0.884492 -1.68157 0
M  V30 338 H 31.2601 3.34891 -1.96926 0
M  V30 339 H 32.9321 1.95745 -4.1771 0
M  V30 340 H 31.1751 1.77767 -3.95704 0
M  V30 341 H 31.8461 3.35478 -4.38359 0
M  V30 342 H 34.3221 3.35835 -2.45671 0
M  V30 343 H 33.1981 4.67787 -2.87171 0
M  V30 344 H 33.4591 4.25897 -1.18592 0
M  V30 345 N 32.5182 1.22032 0.997298 0
M  V30 346 C 33.4812 0.987909 2.06816 0
M  V30 347 C 34.4812 -0.0440084 1.6074 0
M  V30 348 O 35.6712 0.194053 1.73116 0
M  V30 349 C 32.8032 0.49132 3.37341 0
M  V30 350 H 33.9962 1.93803 2.28868 0
M  V30 351 H 31.5492 1.03838 1.16822 0
M  V30 352 H 32.2842 -0.463364 3.20973 0
M  V30 353 H 32.0692 1.23575 3.72118 0
M  V30 354 H 33.5592 0.348824 4.16141 0
M  V30 355 N 33.9963 -1.19345 1.0293 0
M  V30 356 C 35.2443 -1.88665 0.724574 0
M  V30 357 C 35.5653 -1.80036 -0.749144 0
M  V30 358 O 34.8353 -1.2111 -1.53978 0
M  V30 359 H 33.4153 -0.698406 0.265025 0
M  V30 360 H 36.0773 -1.44885 1.30362 0
M  V30 361 H 35.1733 -2.94987 1.01926 0
M  V30 362 N 35.4744 -0.807222 -1.35358 0
M  V30 363 C 36.4224 -0.20614 -2.31685 0
M  V30 364 C 37.4164 0.644445 -1.56663 0
M  V30 365 O 38.6224 0.537538 -1.71786 0
M  V30 366 H 34.9974 -0.0479006 -0.750473 0
M  V30 367 H 36.9684 -1.03369 -2.79924 0
M  V30 368 C 35.7174 0.630212 -3.41941 0
M  V30 369 H 35.0404 -0.0149558 -3.99797 0
M  V30 370 H 36.4804 1.01716 -4.11619 0
M  V30 371 C 34.9394 1.79601 -2.85035 0
M  V30 372 O 35.4694 2.89351 -2.78637 0
M  V30 373 N 33.6754 1.60774 -2.42074 0
M  V30 374 H 33.2224 0.715009 -2.47478 0
M  V30 375 H 33.1804 2.38933 -2.04349 0
M  V30 376 N 36.9525 1.47285 -0.560781 0
M  V30 377 C 38.1985 2.02764 -0.0381184 0
M  V30 378 C 38.5315 1.43384 1.30976 0
M  V30 379 O 37.8065 0.590733 1.85312 0
M  V30 380 C 38.0895 3.60064 0.0511427 0
M  V30 381 C 37.9425 4.2987 -1.32408 0
M  V30 382 C 39.2615 4.33439 0.762795 0
M  V30 383 H 36.3805 0.736841 -0.0153264 0
M  V30 384 H 39.0225 1.75675 -0.723759 0
M  V30 385 H 37.1725 3.83274 0.635065 0
M  V30 386 H 38.8445 4.17989 -1.95148 0
M  V30 387 H 37.0875 3.90085 -1.8978 0
M  V30 388 H 37.7585 5.38478 -1.21431 0
M  V30 389 H 40.2345 4.15243 0.266965 0
M  V30 390 H 39.1105 5.43124 0.794221 0
M  V30 391 H 39.3715 4.02915 1.81966 0
M  V30 392 N 38.4306 0.297415 1.54768 0
M  V30 393 C 39.3606 -0.573494 2.26348 0
M  V30 394 C 40.3416 -1.14085 1.26169 0
M  V30 395 O 41.5266 -1.17086 1.54934 0
M  V30 396 C 38.6566 -1.74716 3.00153 0
M  V30 397 C 37.6106 -1.31032 4.07449 0
M  V30 398 C 36.9366 -2.56887 4.68949 0
M  V30 399 C 38.2366 -0.444183 5.20408 0
M  V30 400 H 39.9306 0.0235131 2.99391 0
M  V30 401 H 37.4766 0.0127488 1.43994 0
M  V30 402 H 39.4296 -2.3625 3.48947 0
M  V30 403 H 38.1536 -2.37035 2.24682 0
M  V30 404 H 36.8126 -0.718066 3.59499 0
M  V30 405 H 36.4606 -3.17512 3.90122 0
M  V30 406 H 36.1606 -2.2836 5.41411 0
M  V30 407 H 37.6846 -3.19229 5.20505 0
M  V30 408 H 39.0986 -0.9651 5.65118 0
M  V30 409 H 37.4956 -0.252846 5.99567 0
M  V30 410 H 38.5656 0.531609 4.81977 0
M  V30 411 N 39.9087 -1.5758 0.0250728 0
M  V30 412 C 41.1547 -1.91917 -0.655413 0
M  V30 413 C 41.4877 -0.901433 -1.72011 0
M  V30 414 O 40.7627 0.0764069 -1.9435 0
M  V30 415 C 41.0457 -3.36751 -1.27558 0
M  V30 416 C 40.8987 -4.49258 -0.220719 0
M  V30 417 C 42.2177 -3.81469 -2.19475 0
M  V30 418 H 39.3367 -0.697925 -0.23679 0
M  V30 419 H 41.9787 -1.89825 0.0815036 0
M  V30 420 H 40.1287 -3.38664 -1.90365 0
M  V30 421 H 41.8007 -4.59478 0.409601 0
M  V30 422 H 40.0437 -4.31415 0.454264 0
M  V30 423 H 40.7147 -5.47618 -0.694175 0
M  V30 424 H 43.1907 -3.81266 -1.66659 0
M  V30 425 H 42.0667 -4.83512 -2.59822 0
M  V30 426 H 42.3277 -3.16744 -3.08424 0
M  V30 427 N 41.3868 0.248026 -1.55636 0
M  V30 428 C 42.6268 0.983592 -1.79178 0
M  V30 429 C 42.9908 1.82567 -0.594414 0
M  V30 430 O 44.1918 2.59292 -0.708583 0
M  V30 431 C 42.4628 1.82228 -3.07454 0
M  V30 432 S 44.0218 2.61709 -3.52213 0
M  V30 433 H 40.8398 0.330866 -0.629324 0
M  V30 434 H 43.4418 0.251562 -1.93875 0
M  V30 435 H 42.1458 1.19333 -3.92668 0
M  V30 436 H 41.6768 2.59708 -2.95492 0
M  V30 437 H 43.6918 3.84655 -3.13457 0
M  V30 438 N 42.8649 1.48995 0.513639 0
M  V30 439 C 43.8279 1.64229 1.59879 0
M  V30 440 C 44.8279 0.514696 1.5234 0
M  V30 441 O 46.0179 0.78087 1.55718 0
M  V30 442 C 43.1499 1.62783 2.99524 0
M  V30 443 H 44.3429 2.61004 1.47705 0
M  V30 444 H 41.8959 1.37837 0.736936 0
M  V30 445 H 42.6309 0.675461 3.17188 0
M  V30 446 H 42.4159 2.4466 3.06404 0
M  V30 447 H 43.9059 1.76669 3.78388 0
M  V30 448 N 44.343 -0.763751 1.37857 0
M  V30 449 C 45.306 -1.85889 1.34081 0
M  V30 450 C 46.306 -1.58949 0.243277 0
M  V30 451 O 47.496 -1.66882 0.499589 0
M  V30 452 C 44.628 -3.23176 1.08489 0
M  V30 453 H 45.821 -1.90648 2.31502 0
M  V30 454 H 43.374 -0.964367 1.23003 0
M  V30 455 H 44.109 -3.24091 0.116318 0
M  V30 456 H 43.894 -3.44124 1.8794 0
M  V30 457 H 45.384 -4.03254 1.08517 0
M  V30 458 N 45.8211 -1.22559 -0.990812 0
M  V30 459 C 47.0671 -1.05297 -1.73322 0
M  V30 460 C 47.4001 0.410655 -1.89808 0
M  V30 461 O 46.6751 1.30439 -1.44277 0
M  V30 462 C 46.9581 -1.76713 -3.13759 0
M  V30 463 C 46.8111 -3.30684 -3.04907 0
M  V30 464 C 48.1301 -1.52121 -4.12974 0
M  V30 465 H 45.2491 -0.38392 -0.629106 0
M  V30 466 H 47.8911 -1.50926 -1.15418 0
M  V30 467 H 46.0411 -1.37924 -3.63193 0
M  V30 468 H 47.7131 -3.7893 -2.63077 0
M  V30 469 H 45.9561 -3.60253 -2.41661 0
M  V30 470 H 46.6271 -3.75833 -4.04294 0
M  V30 471 H 49.1031 -1.85819 -3.72304 0
M  V30 472 H 47.9791 -2.04582 -5.0935 0
M  V30 473 H 48.2401 -0.454257 -4.3976 0
M  V30 474 N 47.2992 1.18797 -1.03562 0
M  V30 475 C 48.5472 1.88278 -0.734569 0
M  V30 476 C 48.8682 1.8043 0.739586 0
M  V30 477 O 48.1382 1.21925 1.53333 0
M  V30 478 H 46.7182 0.696991 -0.268725 0
M  V30 479 H 49.3802 1.44192 -1.31129 0
M  V30 480 H 48.4762 2.94443 -1.03489 0
M  V30 481 N 48.7773 0.814389 1.34928 0
M  V30 482 C 50.0053 0.411136 2.02774 0
M  V30 483 C 50.4203 -0.980316 1.61354 0
M  V30 484 O 49.7773 -1.63299 0.814847 0
M  V30 485 C 49.8283 0.493865 3.58111 0
M  V30 486 O 49.5493 1.83047 3.98027 0
M  V30 487 C 51.0503 0.0844174 4.4322 0
M  V30 488 H 48.2703 0.166037 0.650133 0
M  V30 489 H 50.8143 1.10018 1.72384 0
M  V30 490 H 48.9693 -0.147006 3.87121 0
M  V30 491 H 49.3833 1.79872 4.92693 0
M  V30 492 H 50.8573 0.193404 5.51661 0
M  V30 493 H 51.3343 -0.97113 4.28329 0
M  V30 494 H 51.9403 0.69875 4.19521 0
M  V30 495 N 50.2554 -1.46986 0.568584 0
M  V30 496 C 51.2184 -2.28624 -0.162366 0
M  V30 497 C 52.2184 -1.37596 -0.832103 0
M  V30 498 O 53.4084 -1.60115 -0.68622 0
M  V30 499 C 50.5404 -3.17596 -1.23878 0
M  V30 500 H 51.7334 -2.94722 0.554899 0
M  V30 501 H 49.2864 -1.52863 0.325976 0
M  V30 502 H 50.0214 -2.56214 -1.98808 0
M  V30 503 H 49.8064 -3.846 -0.763219 0
M  V30 504 H 51.2964 -3.79078 -1.75185 0
M  V30 505 N 51.7335 -0.305618 -1.54608 0
M  V30 506 C 52.6815 0.584119 -2.25146 0
M  V30 507 C 53.6755 1.13326 -1.25911 0
M  V30 508 O 54.8815 1.08337 -1.43747 0
M  V30 509 H 51.2565 0.206983 -0.722954 0
M  V30 510 H 53.2275 -0.033291 -2.98381 0
M  V30 511 C 51.9765 1.74225 -3.009 0
M  V30 512 H 51.2995 1.32892 -3.77067 0
M  V30 513 H 52.7395 2.34077 -3.53531 0
M  V30 514 C 51.1985 2.64914 -2.0814 0
M  V30 515 O 51.7285 3.66137 -1.65246 0
M  V30 516 N 49.9345 2.3275 -1.74 0
M  V30 517 H 49.4815 1.50479 -2.09078 0
M  V30 518 H 49.4395 2.93694 -1.12211 0
M  V30 519 N 53.2116 1.57565 -0.0334293 0
M  V30 520 C 54.4396 1.9628 0.654347 0
M  V30 521 C 54.8546 0.910138 1.65414 0
M  V30 522 O 54.2116 -0.107595 1.82183 0
M  V30 523 C 54.2626 3.35067 1.35693 0
M  V30 524 O 53.9836 4.36296 0.397191 0
M  V30 525 C 55.4846 3.88439 2.13613 0
M  V30 526 H 52.7046 0.646369 0.180132 0
M  V30 527 H 55.2486 2.04282 -0.0944721 0
M  V30 528 H 53.4036 3.2827 2.05712 0
M  V30 529 H 53.8176 5.1678 0.896597 0
M  V30 530 H 55.2916 4.8788 2.58219 0
M  V30 531 H 55.7686 3.22914 2.97696 0
M  V30 532 H 56.3746 3.98516 1.48543 0
M  V30 533 N 54.6897 -0.239769 1.55765 0
M  V30 534 C 55.6197 -1.30052 1.9393 0
M  V30 535 C 56.6007 -1.49839 0.805132 0
M  V30 536 O 57.7857 -1.62328 1.06599 0
M  V30 537 C 54.9157 -2.65391 2.2402 0
M  V30 538 C 53.8697 -2.60289 3.39755 0
M  V30 539 C 53.1957 -3.99489 3.55405 0
M  V30 540 C 54.4957 -2.16654 4.75246 0
M  V30 541 H 56.1897 -0.983573 2.82783 0
M  V30 542 H 53.7357 -0.471701 1.36055 0
M  V30 543 H 55.6887 -3.3974 2.49308 0
M  V30 544 H 54.4127 -2.98736 1.32 0
M  V30 545 H 53.0717 -1.88398 3.14487 0
M  V30 546 H 52.7197 -4.30112 2.60793 0
M  V30 547 H 52.4197 -3.96962 4.33238 0
M  V30 548 H 53.9437 -4.75528 3.83022 0
M  V30 549 H 55.3577 -2.80737 4.99859 0
M  V30 550 H 53.7547 -2.25223 5.56232 0
M  V30 551 H 54.8247 -1.11835 4.71827 0
M  V30 552 N 56.1678 -1.49265 -0.50573 0
M  V30 553 C 57.0998 -1.617 -1.62437 0
M  V30 554 C 58.1128 -0.499924 -1.54934 0
M  V30 555 O 59.3018 -0.771785 -1.60953 0
M  V30 556 C 56.4018 -1.5533 -3.01207 0
M  V30 557 C 55.5748 -2.8249 -3.33943 0
M  V30 558 C 54.6338 -2.69238 -4.52103 0
M  V30 559 O 53.6598 -3.43167 -4.5412 0
M  V30 560 N 54.8618 -1.80468 -5.51735 0
M  V30 561 H 57.6268 -2.58177 -1.52199 0
M  V30 562 H 55.1878 -1.46294 -0.693511 0
M  V30 563 H 57.1798 -1.44125 -3.78167 0
M  V30 564 H 55.7498 -0.667297 -3.05395 0
M  V30 565 H 54.9698 -3.08081 -2.45926 0
M  V30 566 H 56.2578 -3.66802 -3.5261 0
M  V30 567 H 55.6558 -1.19653 -5.52901 0
M  V30 568 H 54.2128 -1.75188 -6.27816 0
M  V30 569 N 57.6459 0.756429 -1.3826 0
M  V30 570 C 58.8739 1.54565 -1.3754 0
M  V30 571 C 59.2889 1.88767 0.0355331 0
M  V30 572 O 58.6459 1.52572 1.0014 0
M  V30 573 C 58.6969 2.84654 -2.22833 0
M  V30 574 O 58.4179 2.51912 -3.5843 0
M  V30 575 C 59.9189 3.78807 -2.30261 0
M  V30 576 H 57.1389 0.478353 -0.470553 0
M  V30 577 H 59.6829 0.936381 -1.81803 0
M  V30 578 H 57.8379 3.41965 -1.8204 0
M  V30 579 H 58.2519 3.35325 -4.03308 0
M  V30 580 H 59.7259 4.67045 -2.94233 0
M  V30 581 H 60.2029 4.19038 -1.31545 0
M  V30 582 H 60.8089 3.2742 -2.71433 0
M  V30 583 N 59.124 1.23083 0.984299 0
M  V30 584 C 60.535 1.05609 1.5396 0
M  V30 585 C 60.886 -0.377793 1.92528 0
M  V30 586 O 60.011 -1.26398 1.75649 0
M  V30 587 C 60.606 1.91087 2.7977 0
M  V30 588 C 59.165 1.77885 3.31713 0
M  V30 589 C 58.312 1.87028 2.04733 0
M  V30 590 H 61.263 1.36802 0.804419 0
M  V30 591 H 61.284 1.43336 3.5247 0
M  V30 592 H 60.796 2.9544 2.51668 0
M  V30 593 H 58.897 0.762995 3.64704 0
M  V30 594 H 59.01 2.61047 4.01735 0
M  V30 595 H 57.374 1.30565 2.18689 0
M  V30 596 H 58.157 2.92929 1.79017 0
M  V30 597 N 60.6021 -1.18246 1.0419 0
M  V30 598 C 61.8301 -1.92195 0.766072 0
M  V30 599 C 62.2451 -1.76247 -0.676933 0
M  V30 600 O 61.6021 -1.09293 -1.46155 0
M  V30 601 C 61.6531 -3.43568 1.12442 0
M  V30 602 O 61.3741 -3.59015 2.51078 0
M  V30 603 C 62.8751 -4.34613 0.873275 0
M  V30 604 H 60.0951 -0.610114 0.279288 0
M  V30 605 H 62.6391 -1.50007 1.38989 0
M  V30 606 H 60.7941 -3.8354 0.545542 0
M  V30 607 H 61.2081 -4.5273 2.64831 0
M  V30 608 H 62.6821 -5.39374 1.17385 0
M  V30 609 H 63.1591 -4.38781 -0.191909 0
M  V30 610 H 63.7651 -4.00341 1.43551 0
M  V30 611 N 62.0802 -0.821533 -1.34494 0
M  V30 612 C 63.0282 -0.230702 -2.31453 0
M  V30 613 C 64.0222 0.627793 -1.57338 0
M  V30 614 O 65.2282 0.519288 -1.72347 0
M  V30 615 H 61.6032 -0.0558577 -0.749923 0
M  V30 616 H 63.5742 -1.06332 -2.78812 0
M  V30 617 C 62.3232 0.59391 -3.4259 0
M  V30 618 H 61.6462 -0.0573588 -3.99759 0
M  V30 619 H 63.0862 0.973446 -4.12674 0
M  V30 620 C 61.5452 1.76568 -2.86924 0
M  V30 621 O 62.0752 2.8638 -2.81691 0
M  V30 622 N 60.2812 1.58198 -2.43766 0
M  V30 623 H 59.8282 0.68872 -2.48222 0
M  V30 624 H 59.7862 2.36752 -2.06871 0
M  V30 625 N 63.5583 1.46682 -0.576371 0
M  V30 626 C 64.7883 2.06498 -0.0648694 0
M  V30 627 C 65.1963 1.42665 1.24271 0
M  V30 628 O 64.5393 0.523886 1.76071 0
M  V30 629 C 64.6013 3.5904 0.181816 0
M  V30 630 C 64.2653 4.45028 -1.0392 0
M  V30 631 C 65.2623 4.81959 -1.94966 0
M  V30 632 C 62.9473 4.86259 -1.25927 0
M  V30 633 C 64.9413 5.58942 -3.06371 0
M  V30 634 C 62.6283 5.63002 -2.37638 0
M  V30 635 C 63.6263 5.99257 -3.2769 0
M  V30 636 O 63.3143 6.7445 -4.37461 0
M  V30 637 H 63.0463 0.674028 -0.0515987 0
M  V30 638 H 65.6003 1.89393 -0.794951 0
M  V30 639 H 63.8303 3.74429 0.966436 0
M  V30 640 H 65.5193 4.00806 0.641047 0
M  V30 641 H 66.2853 4.50689 -1.79177 0
M  V30 642 H 62.1643 4.57494 -0.567448 0
M  V30 643 H 65.7083 5.87158 -3.76684 0
M  V30 644 H 61.6053 5.93686 -2.53392 0
M  V30 645 H 62.3733 6.92867 -4.35749 0
M  V30 646 N 65.0364 0.313813 1.54444 0
M  V30 647 C 66.2834 -0.291675 2.00388 0
M  V30 648 C 66.6114 -1.52904 1.2021 0
M  V30 649 O 65.8664 -1.93833 0.269707 0
M  V30 650 C 66.1654 -0.680386 3.50864 0
M  V30 651 C 65.8314 0.456699 4.48581 0
M  V30 652 C 64.4934 0.768824 4.75018 0
M  V30 653 C 66.8454 1.22098 5.06697 0
M  V30 654 C 64.1734 1.84812 5.56831 0
M  V30 655 C 66.5254 2.29029 5.89685 0
M  V30 656 C 65.1894 2.60834 6.14428 0
M  V30 657 H 64.4594 -0.106732 0.733273 0
M  V30 658 H 67.1064 0.43557 1.86481 0
M  V30 659 H 65.4114 -1.48791 3.62448 0
M  V30 660 H 67.1084 -1.16026 3.83847 0
M  V30 661 H 63.6984 0.203337 4.28117 0
M  V30 662 H 67.8824 0.993096 4.86263 0
M  V30 663 H 63.1384 2.09912 5.74236 0
M  V30 664 H 67.3124 2.887 6.33739 0
M  V30 665 H 64.9394 3.44596 6.77612 0
M  V30 666 N 66.5145 -1.57545 0.0417849 0
M  V30 667 C 67.4445 -2.14009 -0.933929 0
M  V30 668 C 68.4255 -1.05938 -1.33083 0
M  V30 669 O 69.6105 -1.33833 -1.40721 0
M  V30 670 C 66.7405 -2.67747 -2.21199 0
M  V30 671 C 65.6945 -3.80718 -1.95544 0
M  V30 672 C 65.0205 -4.20935 -3.29724 0
M  V30 673 C 66.3205 -5.06258 -1.28452 0
M  V30 674 H 68.0145 -2.95788 -0.463645 0
M  V30 675 H 65.5605 -1.42285 -0.221573 0
M  V30 676 H 67.5135 -3.05886 -2.89848 0
M  V30 677 H 66.2375 -1.83147 -2.70416 0
M  V30 678 H 64.8965 -3.43037 -1.2931 0
M  V30 679 H 64.5445 -3.33298 -3.76724 0
M  V30 680 H 64.2445 -4.9707 -3.13361 0
M  V30 681 H 65.7685 -4.61666 -3.9962 0
M  V30 682 H 67.1825 -5.41903 -1.8712 0
M  V30 683 H 65.5795 -5.87475 -1.22445 0
M  V30 684 H 66.6495 -4.84207 -0.259219 0
M  V30 685 N 67.9926 0.231505 -1.5589 0
M  V30 686 C 69.2386 0.95877 -1.78705 0
M  V30 687 C 69.5716 1.8438 -0.609725 0
M  V30 688 O 68.8466 1.90521 0.391426 0
M  V30 689 C 69.1296 1.8062 -3.11526 0
M  V30 690 C 68.9826 0.948328 -4.39689 0
M  V30 691 C 70.3016 2.78585 -3.40703 0
M  V30 692 H 67.4206 0.347129 -0.650131 0
M  V30 693 H 70.0626 0.228259 -1.88624 0
M  V30 694 H 68.2126 2.42902 -3.03201 0
M  V30 695 H 69.8846 0.343016 -4.60023 0
M  V30 696 H 68.1276 0.253314 -4.3306 0
M  V30 697 H 68.7986 1.57543 -5.29041 0
M  V30 698 H 71.2746 2.26439 -3.49091 0
M  V30 699 H 70.1506 3.34988 -4.34826 0
M  V30 700 H 70.4116 3.55825 -2.62375 0
M  V30 701 N 69.4707 1.49531 0.497807 0
M  V30 702 C 70.6957 1.63159 1.28039 0
M  V30 703 C 71.1207 0.30418 1.85624 0
M  V30 704 O 70.4787 -0.728618 1.66015 0
M  V30 705 C 70.5267 2.70537 2.38416 0
M  V30 706 O 69.6307 2.29931 3.42353 0
M  V30 707 H 68.9717 0.546001 0.377861 0
M  V30 708 H 71.5017 1.9574 0.59558 0
M  V30 709 H 71.5117 2.92802 2.84132 0
M  V30 710 H 70.1867 3.6689 1.95869 0
M  V30 711 H 68.7637 2.18009 3.02533 0
M  V30 712 N 70.9488 -0.749086 1.3866 0
M  V30 713 C 71.8788 -1.8764 1.38973 0
M  V30 714 C 72.8598 -1.68178 0.255004 0
M  V30 715 O 74.0448 -1.88704 0.458754 0
M  V30 716 C 71.1748 -3.25222 1.21851 0
M  V30 717 C 70.1288 -3.59295 2.32575 0
M  V30 718 C 69.4548 -4.95663 2.00555 0
M  V30 719 C 70.7548 -3.63709 3.7485 0
M  V30 720 H 72.4488 -1.87635 2.3331 0
M  V30 721 H 69.9948 -0.901329 1.12303 0
M  V30 722 H 71.9478 -4.03746 1.20695 0
M  V30 723 H 70.6718 -3.25719 0.239775 0
M  V30 724 H 69.3308 -2.83093 2.32925 0
M  V30 725 H 68.9788 -4.92724 1.01154 0
M  V30 726 H 68.6788 -5.19429 2.74714 0
M  V30 727 H 70.2028 -5.7656 2.01024 0
M  V30 728 H 71.6168 -4.32338 3.76506 0
M  V30 729 H 70.0138 -3.98986 4.48252 0
M  V30 730 H 71.0838 -2.63834 4.06841 0
M  V30 731 N 72.4269 -1.23603 -0.977757 0
M  V30 732 C 73.3899 -1.02069 -2.05218 0
M  V30 733 C 74.3899 0.0184305 -1.60789 0
M  V30 734 O 75.5799 -0.221569 -1.72785 0
M  V30 735 C 72.7119 -0.544926 -3.36517 0
M  V30 736 H 73.9049 -1.9742 -2.25755 0
M  V30 737 H 71.4579 -1.05684 -1.15155 0
M  V30 738 H 72.1929 0.412241 -3.21669 0
M  V30 739 H 71.9779 -1.2948 -3.70105 0
M  V30 740 H 73.4679 -0.414985 -4.15533 0
M  V30 741 N 73.905 1.17692 -1.04816 0
M  V30 742 C 74.868 2.19787 -0.650117 0
M  V30 743 C 75.868 1.58044 0.296427 0
M  V30 744 O 77.058 1.74012 0.0808097 0
M  V30 745 C 74.19 3.40869 0.0456987 0
M  V30 746 H 75.383 2.56516 -1.5537 0
M  V30 747 H 72.936 1.31708 -0.841594 0
M  V30 748 H 73.671 3.09681 0.962726 0
M  V30 749 H 73.456 3.86928 -0.634727 0
M  V30 750 H 74.946 4.16445 0.310432 0
M  V30 751 N 75.3831 0.828654 1.34056 0
M  V30 752 C 76.3461 0.259927 2.27721 0
M  V30 753 C 77.3461 -0.565478 1.50529 0
M  V30 754 O 78.5361 -0.38075 1.69988 0
M  V30 755 C 75.6681 -0.634944 3.34935 0
M  V30 756 H 76.8611 1.0863 2.79534 0
M  V30 757 H 74.4141 0.600951 1.44285 0
M  V30 758 H 75.1491 -1.48416 2.88346 0
M  V30 759 H 74.9341 -0.0444999 3.92075 0
M  V30 760 H 76.4241 -1.02648 4.04788 0
M  V30 761 N 76.8612 -1.46375 0.584142 0
M  V30 762 C 78.1382 -1.956 0.0033388 0
M  V30 763 C 78.5182 -1.52679 -1.45782 0
M  V30 764 O 77.8662 -0.77816 -2.14842 0
M  V30 765 C 78.0762 -3.48551 0.176891 0
M  V30 766 C 79.4242 -4.24576 0.0454609 0
M  V30 767 O 80.4482 -3.56043 0.105801 0
M  V30 768 O 79.3072 -5.46427 -0.0890376 0
M  V30 769 H 76.4012 -0.825547 -0.0490066 0
M  V30 770 H 78.9472 -1.56652 0.65256 0
M  V30 771 H 77.7192 -3.72683 1.1926 0
M  V30 772 H 77.3422 -3.94332 -0.508695 0
M  V30 773 N 78.3393 -0.321999 -1.54275 0
M  V30 774 C 79.5853 0.281461 -2.00837 0
M  V30 775 C 79.9183 1.51909 -1.20985 0
M  V30 776 O 79.1933 1.923 -0.291733 0
M  V30 777 C 79.4763 0.617162 -3.54772 0
M  V30 778 C 79.3293 -0.631064 -4.45351 0
M  V30 779 C 80.6483 1.43542 -4.16033 0
M  V30 780 H 77.7673 0.100826 -0.730071 0
M  V30 781 H 80.4093 -0.438268 -1.84876 0
M  V30 782 H 78.5593 1.23034 -3.68504 0
M  V30 783 H 80.2313 -1.26934 -4.43492 0
M  V30 784 H 78.4743 -1.26025 -4.15091 0
M  V30 785 H 79.1453 -0.351735 -5.50878 0
M  V30 786 H 81.6213 0.917134 -4.05867 0
M  V30 787 H 80.4973 1.63907 -5.23856 0
M  V30 788 H 80.7583 2.43108 -3.69257 0
M  V30 789 N 79.8174 1.5752 -0.0501392 0
M  V30 790 C 80.7804 2.1037 0.909786 0
M  V30 791 C 81.7804 1.02308 1.24056 0
M  V30 792 O 82.9704 1.28385 1.17741 0
M  V30 793 C 80.1024 2.58708 2.21998 0
M  V30 794 H 81.2954 2.96479 0.451665 0
M  V30 795 H 78.8484 1.55038 0.198248 0
M  V30 796 H 79.5834 1.75989 2.72394 0
M  V30 797 H 79.3684 3.37675 1.99295 0
M  V30 798 H 80.8584 2.99747 2.9076 0
M  V30 799 N 81.2955 -0.223234 1.56011 0
M  V30 800 C 82.5415 -0.949279 1.79211 0
M  V30 801 C 82.8745 -1.84054 0.619494 0
M  V30 802 O 82.1495 -1.90726 -0.381317 0
M  V30 803 C 82.4325 -1.78965 3.12479 0
M  V30 804 C 82.2855 -0.924997 4.40186 0
M  V30 805 C 83.6045 -2.76774 3.42175 0
M  V30 806 H 80.7235 -0.343676 0.651963 0
M  V30 807 H 83.3655 -0.218253 1.88742 0
M  V30 808 H 81.5155 -2.41291 3.04485 0
M  V30 809 H 83.1875 -0.318615 4.60198 0
M  V30 810 H 81.4305 -0.230344 4.33188 0
M  V30 811 H 82.1015 -1.54735 5.29869 0
M  V30 812 H 84.5775 -2.24584 3.50287 0
M  V30 813 H 83.4535 -3.32678 4.36597 0
M  V30 814 H 83.7145 -3.54429 2.64258 0
M  V30 815 N 82.7736 -1.49793 -0.48987 0
M  V30 816 C 84.0216 -1.59525 -1.24081 0
M  V30 817 C 84.3426 -0.288953 -1.92847 0
M  V30 818 O 83.6126 0.692436 -1.83254 0
M  V30 819 H 82.1926 -0.587796 -0.460983 0
M  V30 820 H 84.8546 -1.86477 -0.566778 0
M  V30 821 H 83.9506 -2.39696 -1.99881 0
M  V30 822 N 84.2517 0.741722 -1.39055 0
M  V30 823 C 85.1817 1.869 -1.39966 0
M  V30 824 C 86.1627 1.6804 -0.26392 0
M  V30 825 O 87.3477 1.88458 -0.468755 0
M  V30 826 C 84.4777 3.24572 -1.23574 0
M  V30 827 C 83.4317 3.58056 -2.34477 0
M  V30 828 C 82.7577 4.94593 -2.0318 0
M  V30 829 C 84.0577 3.61716 -3.76774 0
M  V30 830 H 85.7517 1.86395 -2.34302 0
M  V30 831 H 83.2977 0.895361 -1.1278 0
M  V30 832 H 85.2507 4.031 -1.22834 0
M  V30 833 H 83.9747 3.25587 -0.257045 0
M  V30 834 H 82.6337 2.81854 -2.34423 0
M  V30 835 H 82.2817 4.92181 -1.03765 0
M  V30 836 H 81.9817 5.17964 -2.77465 0
M  V30 837 H 83.5057 5.75486 -2.04079 0
M  V30 838 H 84.9197 4.30335 -3.78794 0
M  V30 839 H 83.3167 3.96603 -4.50362 0
M  V30 840 H 84.3867 2.61672 -4.08235 0
M  V30 841 N 85.7298 1.2412 0.971189 0
M  V30 842 C 86.9768 1.07881 1.71371 0
M  V30 843 C 87.3048 -0.382901 1.90694 0
M  V30 844 O 86.5598 -1.29945 1.46331 0
M  V30 845 C 86.8588 1.75983 3.11071 0
M  V30 846 C 86.5248 3.25909 3.11599 0
M  V30 847 C 85.1868 3.66813 3.11451 0
M  V30 848 C 87.5388 4.21771 3.062 0
M  V30 849 C 84.8668 5.02021 3.03631 0
M  V30 850 C 87.2188 5.56982 2.99923 0
M  V30 851 C 85.8828 5.97237 2.98102 0
M  V30 852 H 85.1528 0.394764 0.62709 0
M  V30 853 H 87.7998 1.54176 1.13587 0
M  V30 854 H 86.1048 1.22072 3.72298 0
M  V30 855 H 87.8018 1.60887 3.6731 0
M  V30 856 H 84.3918 2.93353 3.12477 0
M  V30 857 H 88.5758 3.91172 3.05447 0
M  V30 858 H 83.8318 5.32411 3.0058 0
M  V30 859 H 88.0058 6.30969 2.94704 0
M  V30 860 H 85.6328 7.01967 2.91798 0
M  V30 861 N 87.2079 -1.17134 1.05439 0
M  V30 862 C 88.1709 -2.19439 0.661764 0
M  V30 863 C 89.1709 -1.58199 -0.288042 0
M  V30 864 O 90.3609 -1.74053 -0.0715803 0
M  V30 865 C 87.4929 -3.40889 -0.0276209 0
M  V30 866 H 88.6859 -2.55688 1.56728 0
M  V30 867 H 86.2389 -1.31259 0.848567 0
M  V30 868 H 86.9739 -3.10187 -0.94629 0
M  V30 869 H 86.7589 -3.86586 0.655238 0
M  V30 870 H 88.2489 -4.16603 -0.288342 0
M  V30 871 N 88.686 -0.835752 -1.33615 0
M  V30 872 C 89.935 -0.426289 -1.97144 0
M  V30 873 C 90.248 1.01912 -1.66953 0
M  V30 874 O 91.454 1.53311 -2.24072 0
M  V30 875 C 89.91 -0.711321 -3.52801 0
M  V30 876 C 89.518 -2.1712 -3.91871 0
M  V30 877 C 91.262 -0.368654 -4.22896 0
M  V30 878 C 89.169 -2.40044 -5.40493 0
M  V30 879 H 88.099 -0.15567 -0.737755 0
M  V30 880 H 90.75 -1.0239 -1.52278 0
M  V30 881 H 89.132 -0.0433766 -3.95976 0
M  V30 882 H 90.306 -2.87936 -3.59763 0
M  V30 883 H 88.621 -2.47654 -3.34749 0
M  V30 884 H 91.218 -0.517601 -5.32189 0
M  V30 885 H 91.561 0.688078 -4.10574 0
M  V30 886 H 92.094 -0.991702 -3.8524 0
M  V30 887 H 88.833 -3.44271 -5.57815 0
M  V30 888 H 88.353 -1.73785 -5.74072 0
M  V30 889 H 90.032 -2.23042 -6.0734 0
M  V30 890 N 90.1641 1.46063 -0.591896 0
M  V30 891 C 91.5751 1.85944 -0.167822 0
M  V30 892 C 91.9261 1.49429 1.27143 0
M  V30 893 O 91.0511 0.913515 1.96173 0
M  V30 894 C 91.6461 3.37489 -0.297794 0
M  V30 895 C 90.2051 3.76332 0.0714732 0
M  V30 896 C 89.3521 2.7006 -0.629509 0
M  V30 897 H 92.3031 1.37087 -0.799555 0
M  V30 898 H 92.3241 3.77532 0.474349 0
M  V30 899 H 91.8361 3.64034 -1.3454 0
M  V30 900 H 89.9371 3.55405 1.11886 0
M  V30 901 H 90.0501 4.78088 -0.311245 0
M  V30 902 H 88.4141 2.54607 -0.0687867 0
M  V30 903 H 89.1971 2.99444 -1.67894 0
M  V30 904 N 91.6422 0.330177 1.54103 0
M  V30 905 C 92.8892 -0.270405 2.00686 0
M  V30 906 C 93.2172 -1.51621 1.21825 0
M  V30 907 O 92.4722 -1.93536 0.29025 0
M  V30 908 C 92.7712 -0.643134 3.51566 0
M  V30 909 C 92.4372 0.504251 4.48072 0
M  V30 910 C 91.0992 0.819163 4.74176 0
M  V30 911 C 93.4512 1.27465 5.05373 0
M  V30 912 C 90.7792 1.90708 5.5484 0
M  V30 913 C 93.1312 2.35271 5.87223 0
M  V30 914 C 91.7952 2.67336 6.11627 0
M  V30 915 H 91.0652 -0.0989482 0.734364 0
M  V30 916 H 93.7122 0.455324 1.86008 0
M  V30 917 H 92.0172 -1.44938 3.64006 0
M  V30 918 H 93.7142 -1.11949 3.85056 0
M  V30 919 H 90.3042 0.248733 4.27878 0
M  V30 920 H 94.4882 1.04462 4.85182 0
M  V30 921 H 89.7442 2.15991 5.71977 0
M  V30 922 H 93.9182 2.95405 6.30641 0
M  V30 923 H 91.5452 3.51763 6.73919 0
M  V30 924 N 93.1203 -1.57491 0.0584922 0
M  V30 925 C 94.0833 -2.1085 -0.898617 0
M  V30 926 C 95.0833 -1.02964 -1.23511 0
M  V30 927 O 96.2733 -1.29007 -1.17059 0
M  V30 928 C 93.4053 -2.59881 -2.20623 0
M  V30 929 H 94.5983 -2.96715 -0.435936 0
M  V30 930 H 92.1513 -1.55141 -0.190023 0
M  V30 931 H 92.8863 -1.77431 -2.71457 0
M  V30 932 H 92.6713 -3.38727 -1.97501 0
M  V30 933 H 94.1613 -3.01285 -2.89166 0
M  V30 934 N 94.5984 0.214957 -1.56127 0
M  V30 935 C 95.8474 0.936451 -1.78643 0
M  V30 936 C 96.1604 1.85237 -0.628229 0
M  V30 937 O 97.3664 2.613 -0.737186 0
M  V30 938 C 95.8224 1.7154 -3.16389 0
M  V30 939 C 95.4304 0.845299 -4.39953 0
M  V30 940 C 97.1744 2.42772 -3.48227 0
M  V30 941 C 95.0814 1.62198 -5.68723 0
M  V30 942 H 94.0114 0.353401 -0.666051 0
M  V30 943 H 96.6624 0.190169 -1.82512 0
M  V30 944 H 95.0444 2.50484 -3.06715 0
M  V30 945 H 96.2184 0.0959353 -4.607 0
M  V30 946 H 94.5334 0.244789 -4.1568 0
M  V30 947 H 97.1304 3.01394 -4.41663 0
M  V30 948 H 97.4734 3.15984 -2.71035 0
M  V30 949 H 98.0064 1.70813 -3.5926 0
M  V30 950 H 94.7454 0.933011 -6.48826 0
M  V30 951 H 94.2654 2.34579 -5.52026 0
M  V30 952 H 95.9444 2.18095 -6.09133 0
M  V30 953 N 96.0765 1.50051 0.48192 0
M  V30 954 C 97.3045 1.64237 1.25832 0
M  V30 955 C 97.7195 0.321336 1.86045 0
M  V30 956 O 97.0765 -0.695478 1.68729 0
M  V30 957 C 97.1275 2.72548 2.37487 0
M  V30 958 O 96.8485 3.99529 1.79745 0
M  V30 959 C 98.3495 2.9761 3.28547 0
M  V30 960 H 95.5695 0.55237 0.380957 0
M  V30 961 H 98.1135 1.96207 0.576467 0
M  V30 962 H 96.2685 2.43303 3.01467 0
M  V30 963 H 96.6825 4.59342 2.5319 0
M  V30 964 H 98.1565 3.77084 4.03127 0
M  V30 965 H 98.6335 2.0826 3.86684 0
M  V30 966 H 99.2395 3.28345 2.70314 0
M  V30 967 N 97.5546 -0.734337 1.39446 0
M  V30 968 C 98.8036 -1.48937 1.36017 0
M  V30 969 C 99.1166 -1.95557 -0.0409005 0
M  V30 970 O 100.323 -2.70779 -0.19778 0
M  V30 971 C 98.7786 -2.69125 2.38955 0
M  V30 972 C 98.3866 -2.29452 3.8478 0
M  V30 973 C 100.131 -3.46944 2.44603 0
M  V30 974 C 98.0376 -3.46366 4.79358 0
M  V30 975 H 96.9676 -0.559296 0.505672 0
M  V30 976 H 99.6186 -0.800983 1.65095 0
M  V30 977 H 98.0006 -3.40041 2.02948 0
M  V30 978 H 99.1746 -1.66077 4.29831 0
M  V30 979 H 97.4896 -1.64723 3.82433 0
M  V30 980 H 100.087 -4.33907 3.12456 0
M  V30 981 H 100.43 -3.89454 1.47076 0
M  V30 982 H 100.963 -2.83056 2.79507 0
M  V30 983 H 97.7016 -3.08905 5.78151 0
M  V30 984 H 97.2216 -4.08719 4.38986 0
M  V30 985 H 98.9006 -4.12691 4.98292 0
M  V30 986 N 99.0327 -1.24633 -0.964593 0
M  V30 987 C 100.258 -1.11596 -1.74818 0
M  V30 988 C 100.683 0.32723 -1.85232 0
M  V30 989 O 100.041 1.23695 -1.32549 0
M  V30 990 C 100.089 -1.76397 -3.1451 0
M  V30 991 O 99.1927 -1.03685 -3.99153 0
M  V30 992 H 98.5337 -0.390196 -0.537255 0
M  V30 993 H 101.064 -1.65002 -1.20977 0
M  V30 994 H 101.074 -1.8228 -3.65018 0
M  V30 995 H 99.7487 -2.81401 -3.06246 0
M  V30 996 H 98.3257 -1.05611 -3.57632 0
M  V30 997 N 100.511 1.16574 -1.06058 0
M  V30 998 C 101.441 2.23057 -0.690488 0
M  V30 999 C 102.422 1.67141 0.315901 0
M  V30 1000 O 103.607 1.93253 0.191556 0
M  V30 1001 C 100.737 3.47222 -0.073625 0
M  V30 1002 C 99.6908 4.16016 -1.00573 0
M  V30 1003 C 99.0168 5.34104 -0.252289 0
M  V30 1004 C 100.317 4.67264 -2.33371 0
M  V30 1005 H 102.011 2.54271 -1.58072 0
M  V30 1006 H 99.5568 1.22218 -0.76149 0
M  V30 1007 H 101.51 4.20939 0.19714 0
M  V30 1008 H 100.234 3.15302 0.85161 0
M  V30 1009 H 98.8928 3.44223 -1.2612 0
M  V30 1010 H 98.5408 4.98437 0.675988 0
M  V30 1011 H 98.2408 5.81072 -0.873455 0
M  V30 1012 H 99.7648 6.10599 0.0109857 0
M  V30 1013 H 101.179 5.32573 -2.12223 0
M  V30 1014 H 99.5758 5.24843 -2.90963 0
M  V30 1015 H 100.646 3.83602 -2.96611 0
M  V30 1016 N 101.989 0.842826 1.3317 0
M  V30 1017 C 103.237 0.439577 1.97262 0
M  V30 1018 C 103.558 -1.00548 1.67078 0
M  V30 1019 O 102.828 -1.70098 0.971779 0
M  V30 1020 H 101.408 0.159558 0.72976 0
M  V30 1021 H 104.07 1.07665 1.62463 0
M  V30 1022 H 103.166 0.574886 3.0676 0
M  V30 1023 N 103.467 -1.45747 0.599634 0
M  V30 1024 C 104.714 -2.02292 0.0917284 0
M  V30 1025 C 105.042 -1.46906 -1.27472 0
M  V30 1026 O 104.297 -0.630652 -1.8526 0
M  V30 1027 C 104.596 -3.57399 -0.00602758 0
M  V30 1028 C 104.262 -4.31902 1.29503 0
M  V30 1029 C 102.924 -4.51974 1.65144 0
M  V30 1030 C 105.276 -4.74551 2.15525 0
M  V30 1031 C 102.604 -5.11949 2.86574 0
M  V30 1032 C 104.956 -5.35868 3.36196 0
M  V30 1033 C 103.62 -5.54165 3.72099 0
M  V30 1034 H 102.89 -0.740239 0.0335658 0
M  V30 1035 H 105.537 -1.7491 0.779661 0
M  V30 1036 H 103.842 -3.84014 -0.777183 0
M  V30 1037 H 105.539 -3.98846 -0.415038 0
M  V30 1038 H 102.129 -4.16588 1.00761 0
M  V30 1039 H 106.313 -4.58784 1.8929 0
M  V30 1040 H 101.569 -5.24305 3.14507 0
M  V30 1041 H 105.743 -5.6787 4.03109 0
M  V30 1042 H 103.37 -6.00406 4.6628 0
M  V30 1043 N 104.945 -0.338344 -1.53925 0
M  V30 1044 C 106.185 0.260168 -2.02737 0
M  V30 1045 C 106.549 1.48181 -1.22092 0
M  V30 1046 O 107.75 2.15416 -1.60777 0
M  V30 1047 C 106.021 0.571627 -3.52799 0
M  V30 1048 S 107.58 1.14769 -4.23525 0
M  V30 1049 H 104.398 0.077791 -0.706732 0
M  V30 1050 H 107 -0.474899 -1.89644 0
M  V30 1051 H 105.704 -0.325392 -4.09108 0
M  V30 1052 H 105.235 1.3365 -3.70002 0
M  V30 1053 H 107.25 2.43372 -4.32417 0
M  V30 1054 N 106.423 1.57458 -0.0668435 0
M  V30 1055 C 107.651 1.97624 0.612565 0
M  V30 1056 C 108.066 0.94502 1.63447 0
M  V30 1057 O 107.423 -0.0689276 1.8237 0
M  V30 1058 C 107.474 3.37869 1.28555 0
M  V30 1059 O 107.195 4.3704 0.304557 0
M  V30 1060 C 108.696 3.92882 2.05325 0
M  V30 1061 H 105.916 0.650045 0.166381 0
M  V30 1062 H 108.46 2.04035 -0.137782 0
M  V30 1063 H 106.615 3.3256 1.98702 0
M  V30 1064 H 107.029 5.18565 0.786779 0
M  V30 1065 H 108.503 4.93247 2.47812 0
M  V30 1066 H 108.98 3.29156 2.9078 0
M  V30 1067 H 109.586 4.01577 1.40056 0
M  V30 1068 N 107.901 -0.206675 1.56239 0
M  V30 1069 C 109.178 -0.954051 1.70755 0
M  V30 1070 C 109.558 -2.01841 0.618353 0
M  V30 1071 O 108.906 -2.25444 -0.372434 0
M  V30 1072 C 109.116 -1.551 3.12642 0
M  V30 1073 C 110.464 -2.03757 3.72516 0
M  V30 1074 O 111.488 -1.64965 3.15698 0
M  V30 1075 O 110.347 -2.75103 4.72208 0
M  V30 1076 H 107.441 -0.446636 0.696021 0
M  V30 1077 H 109.987 -0.197283 1.68549 0
M  V30 1078 H 108.759 -0.783212 3.83382 0
M  V30 1079 H 108.382 -2.37291 3.19028 0
M  V30 1080 N 109.379 -1.50304 -0.473955 0
M  V30 1081 C 110.626 -1.6115 -1.22625 0
M  V30 1082 C 110.954 -0.310517 -1.92005 0
M  V30 1083 O 110.209 0.703419 -1.82621 0
M  V30 1084 C 110.508 -2.73938 -2.29549 0
M  V30 1085 C 110.174 -4.14519 -1.7744 0
M  V30 1086 C 108.836 -4.5277 -1.62949 0
M  V30 1087 C 111.188 -5.02392 -1.3875 0
M  V30 1088 C 108.516 -5.76639 -1.08187 0
M  V30 1089 C 110.868 -6.26805 -0.854309 0
M  V30 1090 C 109.532 -6.63861 -0.696011 0
M  V30 1091 H 108.802 -0.589691 -0.448715 0
M  V30 1092 H 111.449 -1.84228 -0.522705 0
M  V30 1093 H 109.754 -2.44937 -3.05799 0
M  V30 1094 H 111.451 -2.79534 -2.87509 0
M  V30 1095 H 108.041 -3.8434 -1.89685 0
M  V30 1096 H 112.225 -4.73474 -1.4878 0
M  V30 1097 H 107.481 -6.04027 -0.946666 0
M  V30 1098 H 111.655 -6.94258 -0.545843 0
M  V30 1099 H 109.282 -7.59722 -0.26952 0
M  V30 1100 N 110.857 0.726932 -1.39834 0
M  V30 1101 C 112.087 1.51393 -1.40583 0
M  V30 1102 C 112.495 1.892 -0.000740625 0
M  V30 1103 O 111.838 1.55189 0.982951 0
M  V30 1104 C 111.9 2.82588 -2.22226 0
M  V30 1105 C 111.564 2.67169 -3.70769 0
M  V30 1106 C 112.561 2.3518 -4.63666 0
M  V30 1107 C 110.246 2.83788 -4.14451 0
M  V30 1108 C 112.24 2.20002 -5.98229 0
M  V30 1109 C 109.927 2.68229 -5.49087 0
M  V30 1110 C 110.925 2.36382 -6.4079 0
M  V30 1111 O 110.613 2.2093 -7.72946 0
M  V30 1112 H 110.345 0.474168 -0.48181 0
M  V30 1113 H 112.899 0.905247 -1.84376 0
M  V30 1114 H 111.129 3.45746 -1.73195 0
M  V30 1115 H 112.818 3.44247 -2.15055 0
M  V30 1116 H 113.584 2.21984 -4.31217 0
M  V30 1117 H 109.463 3.07566 -3.43401 0
M  V30 1118 H 113.007 1.95067 -6.69772 0
M  V30 1119 H 108.904 2.81006 -5.81125 0
M  V30 1120 H 109.672 2.35937 -7.83757 0
M  V30 1121 N 112.336 1.25143 0.95797 0
M  V30 1122 C 113.584 1.09476 1.69881 0
M  V30 1123 C 113.905 -0.365502 1.91544 0
M  V30 1124 O 113.175 -1.25985 1.50015 0
M  V30 1125 H 111.755 0.402128 0.629525 0
M  V30 1126 H 114.417 1.57214 1.15194 0
M  V30 1127 H 113.513 1.60046 2.6794 0
M  V30 1128 N 113.814 -1.1601 1.06675 0
M  V30 1129 C 115.054 -1.88304 0.795037 0
M  V30 1130 C 115.418 -1.80062 -0.666466 0
M  V30 1131 O 116.619 -2.47319 -1.05293 0
M  V30 1132 C 114.89 -3.33664 1.28076 0
M  V30 1133 S 116.449 -4.23768 1.13868 0
M  V30 1134 H 113.267 -0.649928 0.288296 0
M  V30 1135 H 115.869 -1.4001 1.36445 0
M  V30 1136 H 114.573 -3.37203 2.33927 0
M  V30 1137 H 114.104 -3.87009 0.706253 0
M  V30 1138 H 116.119 -4.96148 0.0719668 0
M  V30 1139 N 115.292 -0.849877 -1.32721 0
M  V30 1140 C 116.222 -0.306308 -2.31482 0
M  V30 1141 C 117.203 0.591952 -1.59468 0
M  V30 1142 O 118.388 0.513199 -1.87296 0
M  V30 1143 C 115.518 0.510204 -3.43532 0
M  V30 1144 C 114.472 -0.293209 -4.26994 0
M  V30 1145 C 113.798 0.647743 -5.30762 0
M  V30 1146 C 115.098 -1.51634 -4.99804 0
M  V30 1147 H 116.792 -1.13153 -2.77195 0
M  V30 1148 H 114.338 -0.545553 -1.33266 0
M  V30 1149 H 116.291 0.900856 -4.11658 0
M  V30 1150 H 115.015 1.36874 -2.96535 0
M  V30 1151 H 113.674 -0.665555 -3.60508 0
M  V30 1152 H 113.322 1.50299 -4.8002 0
M  V30 1153 H 113.022 0.11422 -5.87489 0
M  V30 1154 H 114.546 1.03567 -6.01753 0
M  V30 1155 H 115.96 -1.19824 -5.60638 0
M  V30 1156 H 114.357 -1.98745 -5.66234 0
M  V30 1157 H 115.427 -2.28018 -4.27943 0
M  V30 1158 N 116.77 1.45427 -0.607355 0
M  V30 1159 C 118.017 2.02241 -0.102455 0
M  V30 1160 C 118.345 1.4758 1.26691 0
M  V30 1161 O 117.6 0.640468 1.84923 0
M  V30 1162 C 117.899 3.57398 -0.0129263 0
M  V30 1163 C 117.565 4.3121 -1.31792 0
M  V30 1164 C 116.227 4.51092 -1.67539 0
M  V30 1165 C 118.579 4.73401 -2.18039 0
M  V30 1166 C 115.907 5.10422 -2.89285 0
M  V30 1167 C 118.259 5.34078 -3.39034 0
M  V30 1168 C 116.923 5.52184 -3.75033 0
M  V30 1169 H 116.193 0.740051 -0.037491 0
M  V30 1170 H 118.84 1.74494 -0.788926 0
M  V30 1171 H 117.145 3.84421 0.756806 0
M  V30 1172 H 118.842 3.99061 0.393881 0
M  V30 1173 H 115.432 4.16047 -1.02968 0
M  V30 1174 H 119.616 4.57774 -1.91721 0
M  V30 1175 H 114.872 5.22629 -3.17283 0
M  V30 1176 H 119.046 5.65724 -4.06115 0
M  V30 1177 H 116.673 5.97925 -4.69457 0
M  V30 1178 N 118.248 0.346503 1.53744 0
M  V30 1179 C 119.178 -0.501193 2.28058 0
M  V30 1180 C 120.159 -1.10014 1.29734 0
M  V30 1181 O 121.344 -1.12097 1.58581 0
M  V30 1182 C 118.474 -1.65078 3.05559 0
M  V30 1183 C 117.428 -1.18003 4.11411 0
M  V30 1184 C 116.754 -2.41837 4.76884 0
M  V30 1185 C 118.054 -0.278394 5.21558 0
M  V30 1186 H 119.748 0.11875 2.99164 0
M  V30 1187 H 117.294 0.0585531 1.43881 0
M  V30 1188 H 119.247 -2.25028 3.56287 0
M  V30 1189 H 117.971 -2.29767 2.32109 0
M  V30 1190 H 116.63 -0.603331 3.61601 0
M  V30 1191 H 116.278 -3.0494 4.00026 0
M  V30 1192 H 115.978 -2.1102 5.48402 0
M  V30 1193 H 117.502 -3.02508 5.30397 0
M  V30 1194 H 118.916 -0.784823 5.67903 0
M  V30 1195 H 117.313 -0.0619707 6.00068 0
M  V30 1196 H 118.383 0.684677 4.80042 0
M  V30 1197 N 119.726 -1.57421 0.075193 0
M  V30 1198 C 120.689 -2.11791 -0.876203 0
M  V30 1199 C 121.689 -1.04268 -1.22412 0
M  V30 1200 O 122.879 -1.30242 -1.15684 0
M  V30 1201 C 120.011 -2.62207 -2.17854 0
M  V30 1202 H 121.204 -2.9716 -0.40444 0
M  V30 1203 H 118.757 -1.55333 -0.173557 0
M  V30 1204 H 119.492 -1.803 -2.6956 0
M  V30 1205 H 119.277 -3.40802 -1.93897 0
M  V30 1206 H 120.767 -3.04335 -2.85955 0
M  V30 1207 N 121.204 0.198386 -1.56346 0
M  V30 1208 C 122.444 0.92609 -1.82217 0
M  V30 1209 C 122.808 1.80584 -0.652195 0
M  V30 1210 O 124.009 2.56907 -0.790716 0
M  V30 1211 C 122.28 1.72354 -3.13096 0
M  V30 1212 S 123.839 2.50371 -3.6036 0
M  V30 1213 H 120.657 0.310677 -0.639532 0
M  V30 1214 H 123.259 0.189755 -1.94577 0
M  V30 1215 H 121.963 1.0678 -3.96265 0
M  V30 1216 H 121.494 2.50175 -3.03605 0
M  V30 1217 H 123.509 3.74488 -3.25535 0
M  V30 1218 N 122.682 1.50554 0.465978 0
M  V30 1219 C 123.929 1.61798 1.21768 0
M  V30 1220 C 124.257 0.320696 1.91838 0
M  V30 1221 O 123.512 -0.693724 1.82992 0
M  V30 1222 C 123.811 2.75152 2.28093 0
M  V30 1223 C 123.477 4.15454 1.75239 0
M  V30 1224 C 122.139 4.53628 1.60546 0
M  V30 1225 C 124.491 5.03121 1.36083 0
M  V30 1226 C 121.819 5.77204 1.05128 0
M  V30 1227 C 124.171 6.27249 0.821056 0
M  V30 1228 C 122.835 6.64221 0.660795 0
M  V30 1229 H 122.105 0.592063 0.445582 0
M  V30 1230 H 124.752 1.84503 0.512927 0
M  V30 1231 H 123.057 2.46556 3.04496 0
M  V30 1232 H 124.754 2.81055 2.86023 0
M  V30 1233 H 121.344 3.85341 1.87644 0
M  V30 1234 H 125.528 4.74257 1.46267 0
M  V30 1235 H 120.784 6.0452 0.91462 0
M  V30 1236 H 124.958 6.94537 0.509018 0
M  V30 1237 H 122.585 7.59854 0.229226 0
M  V30 1238 N 124.16 -0.719506 1.40217 0
M  V30 1239 C 125.406 -1.48152 1.38488 0
M  V30 1240 C 125.739 -1.94195 -0.0141867 0
M  V30 1241 O 125.014 -1.67884 -0.982096 0
M  V30 1242 C 125.297 -2.71035 2.37091 0
M  V30 1243 C 125.15 -2.30912 3.86005 0
M  V30 1244 C 126.469 -3.73182 2.33288 0
M  V30 1245 H 123.588 -0.537395 0.504357 0
M  V30 1246 H 126.23 -0.821472 1.71324 0
M  V30 1247 H 124.38 -3.27352 2.0922 0
M  V30 1248 H 126.052 -1.80107 4.24687 0
M  V30 1249 H 124.295 -1.62958 4.02029 0
M  V30 1250 H 124.966 -3.18978 4.50508 0
M  V30 1251 H 127.442 -3.26485 2.57966 0
M  V30 1252 H 126.318 -4.56806 3.04334 0
M  V30 1253 H 126.579 -4.21202 1.34317 0
M  V30 1254 N 125.638 -1.25649 -0.95132 0
M  V30 1255 C 126.568 -1.08808 -2.06599 0
M  V30 1256 C 127.549 0.00382547 -1.701 0
M  V30 1257 O 128.734 -0.166325 -1.93486 0
M  V30 1258 C 125.864 -0.709542 -3.39975 0
M  V30 1259 C 124.818 -1.75206 -3.90496 0
M  V30 1260 C 124.144 -1.22811 -5.20405 0
M  V30 1261 C 125.444 -3.15153 -4.16504 0
M  V30 1262 H 127.138 -2.02048 -2.20946 0
M  V30 1263 H 124.684 -0.972835 -1.06169 0
M  V30 1264 H 126.637 -0.578649 -4.17408 0
M  V30 1265 H 125.361 0.258556 -3.25575 0
M  V30 1266 H 124.02 -1.87145 -3.15234 0
M  V30 1267 H 123.668 -0.250145 -5.02378 0
M  V30 1268 H 123.368 -1.92492 -5.55176 0
M  V30 1269 H 124.892 -1.10968 -6.00432 0
M  V30 1270 H 126.306 -3.06349 -4.84586 0
M  V30 1271 H 124.703 -3.82333 -4.62538 0
M  V30 1272 H 125.773 -3.61966 -3.22658 0
M  V30 1273 N 127.117 1.15442 -1.07289 0
M  V30 1274 C 128.363 1.86489 -0.796846 0
M  V30 1275 C 128.696 1.82078 0.675371 0
M  V30 1276 O 127.971 1.24346 1.4956 0
M  V30 1277 C 128.254 3.35626 -1.30489 0
M  V30 1278 C 128.107 3.48673 -2.84161 0
M  V30 1279 C 129.426 4.30357 -0.920907 0
M  V30 1280 H 126.545 0.677144 -0.290939 0
M  V30 1281 H 129.187 1.35633 -1.33056 0
M  V30 1282 H 127.337 3.79068 -0.850883 0
M  V30 1283 H 129.009 3.14099 -3.37846 0
M  V30 1284 H 127.252 2.90253 -3.22391 0
M  V30 1285 H 127.923 4.53453 -3.14777 0
M  V30 1286 H 130.399 3.94871 -1.3121 0
M  V30 1287 H 129.275 5.33193 -1.30372 0
M  V30 1288 H 129.536 4.4176 0.173226 0
M  V30 1289 N 128.595 0.856903 1.32268 0
M  V30 1290 C 129.525 0.31858 2.31316 0
M  V30 1291 C 130.506 -0.583487 1.59779 0
M  V30 1292 O 131.691 -0.503259 1.87566 0
M  V30 1293 C 128.821 -0.491979 3.43798 0
M  V30 1294 C 127.775 0.315849 4.26833 0
M  V30 1295 C 127.101 -0.619586 5.31098 0
M  V30 1296 C 128.401 1.54282 4.98993 0
M  V30 1297 H 130.095 1.14621 2.76591 0
M  V30 1298 H 127.641 0.552613 1.32974 0
M  V30 1299 H 129.594 -0.879012 4.1213 0
M  V30 1300 H 128.318 -1.35299 2.97257 0
M  V30 1301 H 126.977 0.684664 3.6015 0
M  V30 1302 H 126.625 -1.47751 4.8081 0
M  V30 1303 H 126.325 -0.0830621 5.87541 0
M  V30 1304 H 127.849 -1.00375 6.02293 0
M  V30 1305 H 129.263 1.22796 5.59995 0
M  V30 1306 H 127.66 2.01745 5.65172 0
M  V30 1307 H 128.73 2.30285 4.26728 0
M  V30 1308 N 130.073 -1.45103 0.615059 0
M  V30 1309 C 131.301 -2.06553 0.11977 0
M  V30 1310 C 131.716 -1.45842 -1.19898 0
M  V30 1311 O 131.073 -0.575325 -1.73194 0
M  V30 1312 C 131.124 -3.61495 -0.018364 0
M  V30 1313 O 130.845 -4.19942 1.24822 0
M  V30 1314 C 132.346 -4.39947 -0.544237 0
M  V30 1315 H 129.566 -0.667096 0.0722739 0
M  V30 1316 H 132.11 -1.8623 0.84491 0
M  V30 1317 H 130.265 -3.81135 -0.693865 0
M  V30 1318 H 130.679 -5.13204 1.0827 0
M  V30 1319 H 132.153 -5.48838 -0.589953 0
M  V30 1320 H 132.63 -4.10255 -1.56805 0
M  V30 1321 H 133.236 -4.25188 0.0974703 0
M  V30 1322 N 131.551 -0.354651 -1.53558 0
M  V30 1323 C 132.483 0.5315 -2.22952 0
M  V30 1324 C 133.496 1.05503 -1.23988 0
M  V30 1325 O 134.685 0.963279 -1.50277 0
M  V30 1326 C 131.785 1.74538 -2.90499 0
M  V30 1327 C 130.958 1.35524 -4.15875 0
M  V30 1328 C 130.017 2.42999 -4.66731 0
M  V30 1329 O 129.043 2.05844 -5.30676 0
M  V30 1330 N 130.245 3.74423 -4.43608 0
M  V30 1331 H 133.01 -0.0628615 -2.99634 0
M  V30 1332 H 130.571 -0.179302 -1.60904 0
M  V30 1333 H 132.563 2.45892 -3.21433 0
M  V30 1334 H 131.133 2.24686 -2.17336 0
M  V30 1335 H 130.353 0.471998 -3.91364 0
M  V30 1336 H 131.641 1.07071 -4.97406 0
M  V30 1337 H 131.039 4.07391 -3.92491 0
M  V30 1338 H 129.596 4.41913 -4.7912 0
M  V30 1339 N 133.029 1.57378 -0.0835403 0
M  V30 1340 C 134.254 1.98682 0.594987 0
M  V30 1341 C 134.679 0.961969 1.61641 0
M  V30 1342 O 134.037 -0.0709989 1.81161 0
M  V30 1343 C 134.085 3.38988 1.2296 0
M  V30 1344 O 133.189 3.39208 2.34546 0
M  V30 1345 H 132.53 0.646368 0.152002 0
M  V30 1346 H 135.06 2.03961 -0.161533 0
M  V30 1347 H 135.07 3.76431 1.57366 0
M  V30 1348 H 133.745 4.13107 0.481228 0
M  V30 1349 H 132.322 3.13548 2.01846 0
M  V30 1350 N 134.507 -0.190092 1.56449 0
M  V30 1351 C 135.732 -0.929864 1.85387 0
M  V30 1352 C 136.157 -1.7585 0.667704 0
M  V30 1353 O 135.515 -1.77198 -0.383459 0
M  V30 1354 C 135.563 -1.79773 3.12593 0
M  V30 1355 O 134.667 -2.89713 2.93496 0
M  V30 1356 H 134.008 -0.261574 0.610307 0
M  V30 1357 H 136.538 -0.193896 2.03679 0
M  V30 1358 H 136.548 -2.20139 3.43515 0
M  V30 1359 H 135.223 -1.18892 3.98544 0
M  V30 1360 H 133.8 -2.53065 2.73884 0
M  V30 1361 N 135.985 -1.50799 -0.457987 0
M  V30 1362 C 137.234 -1.6168 -1.20593 0
M  V30 1363 C 137.547 -0.32888 -1.92815 0
M  V30 1364 O 138.753 -0.316773 -2.69646 0
M  V30 1365 C 137.209 -2.8545 -2.19195 0
M  V30 1366 C 136.817 -4.21168 -1.52715 0
M  V30 1367 C 138.561 -3.05681 -2.94549 0
M  V30 1368 C 136.468 -5.3611 -2.4968 0
M  V30 1369 H 135.398 -0.602134 -0.453818 0
M  V30 1370 H 138.049 -1.77245 -0.475031 0
M  V30 1371 H 136.431 -2.63472 -2.95632 0
M  V30 1372 H 137.605 -4.53449 -0.819775 0
M  V30 1373 H 135.92 -4.06648 -0.895922 0
M  V30 1374 H 138.517 -3.88727 -3.67145 0
M  V30 1375 H 138.86 -2.17929 -3.54701 0
M  V30 1376 H 139.393 -3.27901 -2.25223 0
M  V30 1377 H 136.132 -6.26057 -1.94249 0
M  V30 1378 H 135.652 -5.0823 -3.18532 0
M  V30 1379 H 137.331 -5.6722 -3.11241 0
M  V30 1380 N 137.463 0.71206 -1.40597 0
M  V30 1381 C 138.71 1.47197 -1.39065 0
M  V30 1382 C 139.038 1.94499 0.00583891 0
M  V30 1383 O 138.293 1.68752 0.99102 0
M  V30 1384 C 138.592 2.71039 -2.32965 0
M  V30 1385 C 138.258 2.42484 -3.80148 0
M  V30 1386 C 136.92 2.34406 -4.20247 0
M  V30 1387 C 139.272 2.18598 -4.73143 0
M  V30 1388 C 136.6 2.00516 -5.51371 0
M  V30 1389 C 138.952 1.8622 -6.0457 0
M  V30 1390 C 137.616 1.76626 -6.43708 0
M  V30 1391 H 136.886 0.538634 -0.508876 0
M  V30 1392 H 139.533 0.815325 -1.73276 0
M  V30 1393 H 137.838 3.41558 -1.91951 0
M  V30 1394 H 139.535 3.29138 -2.29061 0
M  V30 1395 H 136.125 2.49659 -3.4838 0
M  V30 1396 H 140.309 2.23793 -4.42979 0
M  V30 1397 H 135.565 1.91628 -5.80593 0
M  V30 1398 H 139.739 1.66752 -6.76141 0
M  V30 1399 H 137.366 1.50133 -7.45228 0
M  V30 1400 N 138.941 1.26152 0.944643 0
M  V30 1401 C 140.166 1.14363 1.7302 0
M  V30 1402 C 140.591 -0.29772 1.85729 0
M  V30 1403 O 139.949 -1.2157 1.34501 0
M  V30 1404 C 139.997 1.81378 3.11664 0
M  V30 1405 O 139.101 1.10022 3.97453 0
M  V30 1406 H 138.442 0.398694 0.53098 0
M  V30 1407 H 140.972 1.66906 1.18337 0
M  V30 1408 H 140.982 1.88064 3.62072 0
M  V30 1409 H 139.657 2.86237 3.0173 0
M  V30 1410 H 138.234 1.11287 3.55907 0
M  V30 1411 N 140.419 -1.14872 1.07899 0
M  V30 1412 C 141.349 -2.2193 0.725887 0
M  V30 1413 C 142.33 -1.67622 -0.28927 0
M  V30 1414 O 143.515 -1.93533 -0.160787 0
M  V30 1415 C 140.645 -3.47061 0.128856 0
M  V30 1416 C 139.599 -4.14363 1.07178 0
M  V30 1417 C 138.925 -5.33636 0.337229 0
M  V30 1418 C 140.225 -4.63492 2.40775 0
M  V30 1419 H 141.919 -2.51724 1.62097 0
M  V30 1420 H 139.465 -1.20991 0.780838 0
M  V30 1421 H 141.418 -4.21199 -0.130147 0
M  V30 1422 H 140.142 -3.16617 -0.80134 0
M  V30 1423 H 138.801 -3.42173 1.3158 0
M  V30 1424 H 138.449 -4.99449 -0.596606 0
M  V30 1425 H 138.149 -5.79609 0.965788 0
M  V30 1426 H 139.673 -6.10539 0.0861567 0
M  V30 1427 H 141.087 -5.2913 2.20669 0
M  V30 1428 H 139.484 -5.20148 2.99276 0
M  V30 1429 H 140.554 -3.78834 3.02676 0
M  V30 1430 N 141.898 -0.863906 -1.31812 0
M  V30 1431 C 142.828 -0.330843 -2.31144 0
M  V30 1432 C 143.809 0.575005 -1.60087 0
M  V30 1433 O 144.994 0.493304 -1.8783 0
M  V30 1434 C 142.124 0.47374 -3.44054 0
M  V30 1435 C 141.078 -0.338481 -4.26659 0
M  V30 1436 C 140.404 0.591412 -5.31419 0
M  V30 1437 C 141.704 -1.56926 -4.98168 0
M  V30 1438 H 143.398 -1.16086 -2.75979 0
M  V30 1439 H 140.944 -0.559657 -1.32679 0
M  V30 1440 H 142.897 0.857143 -4.12591 0
M  V30 1441 H 141.621 1.33721 -2.9797 0
M  V30 1442 H 140.28 -0.703754 -3.59782 0
M  V30 1443 H 139.928 1.45199 -4.81587 0
M  V30 1444 H 139.628 0.0519022 -5.87577 0
M  V30 1445 H 141.152 0.97179 -6.02817 0
M  V30 1446 H 142.566 -1.25764 -5.59336 0
M  V30 1447 H 140.963 -2.04739 -5.64094 0
M  V30 1448 H 142.033 -2.32544 -4.25501 0
M  V30 1449 N 143.376 1.44774 -0.622745 0
M  V30 1450 C 144.339 2.29069 0.0774015 0
M  V30 1451 C 145.339 1.4059 0.780461 0
M  V30 1452 O 146.529 1.62551 0.626322 0
M  V30 1453 C 143.661 3.21974 1.12006 0
M  V30 1454 H 144.854 2.92459 -0.663901 0
M  V30 1455 H 142.407 1.51548 -0.382486 0
M  V30 1456 H 143.142 2.63417 1.89162 0
M  V30 1457 H 142.927 3.87168 0.619951 0
M  V30 1458 H 144.417 3.85318 1.60995 0
M  V30 1459 N 144.854 0.36279 1.53368 0
M  V30 1460 C 146.1 -0.228113 2.01513 0
M  V30 1461 C 146.433 -1.48648 1.2497 0
M  V30 1462 O 145.708 -1.91459 0.342616 0
M  V30 1463 C 145.991 -0.522884 3.56284 0
M  V30 1464 C 145.844 0.74892 4.43521 0
M  V30 1465 C 147.163 -1.32461 4.19693 0
M  V30 1466 H 144.282 -0.0814343 0.732487 0
M  V30 1467 H 146.924 0.48713 1.83649 0
M  V30 1468 H 145.074 -1.1322 3.71636 0
M  V30 1469 H 146.746 1.38648 4.39971 0
M  V30 1470 H 144.989 1.36986 4.11603 0
M  V30 1471 H 145.66 0.497667 5.49752 0
M  V30 1472 H 148.136 -0.809203 4.08156 0
M  V30 1473 H 147.012 -1.49961 5.28018 0
M  V30 1474 H 147.273 -2.33232 3.75573 0
M  V30 1475 N 146.332 -1.57332 0.0918853 0
M  V30 1476 C 147.295 -2.12708 -0.85369 0
M  V30 1477 C 148.295 -1.05561 -1.213 0
M  V30 1478 O 149.485 -1.31461 -1.14296 0
M  V30 1479 C 146.617 -2.64503 -2.15061 0
M  V30 1480 H 147.81 -2.97573 -0.3729 0
M  V30 1481 H 145.363 -1.55509 -0.157072 0
M  V30 1482 H 146.098 -1.83149 -2.67632 0
M  V30 1483 H 145.883 -3.4284 -1.90272 0
M  V30 1484 H 147.373 -3.07351 -2.82711 0
M  V30 1485 N 147.81 0.181792 -1.56548 0
M  V30 1486 C 149.056 0.901431 -1.81665 0
M  V30 1487 C 149.389 1.82347 -0.668075 0
M  V30 1488 O 148.664 1.91669 0.330615 0
M  V30 1489 C 148.947 1.70618 -3.17115 0
M  V30 1490 C 148.8 0.807964 -4.42484 0
M  V30 1491 C 150.119 2.67605 -3.49393 0
M  V30 1492 H 147.238 0.32627 -0.660846 0
M  V30 1493 H 149.88 0.168134 -1.89255 0
M  V30 1494 H 148.03 2.33133 -3.10775 0
M  V30 1495 H 149.702 0.19649 -4.60881 0
M  V30 1496 H 147.945 0.115411 -4.33646 0
M  V30 1497 H 148.616 1.40632 -5.33785 0
M  V30 1498 H 151.092 2.15218 -3.56118 0
M  V30 1499 H 149.968 3.20985 -4.45264 0
M  V30 1500 H 150.229 3.47298 -2.73563 0
M  V30 1501 N 149.288 1.51039 0.449983 0
M  V30 1502 C 150.565 1.53612 1.21089 0
M  V30 1503 C 150.945 0.292997 2.09057 0
M  V30 1504 O 150.293 -0.72259 2.16774 0
M  V30 1505 C 150.503 2.84337 2.0237 0
M  V30 1506 C 151.851 3.35807 2.59843 0
M  V30 1507 O 152.875 2.85802 2.12593 0
M  V30 1508 O 151.734 4.23029 3.45989 0
M  V30 1509 H 148.828 0.617057 0.550608 0
M  V30 1510 H 151.374 1.63344 0.460082 0
M  V30 1511 H 150.146 3.66278 1.37681 0
M  V30 1512 H 149.769 2.77708 2.84542 0
M  V30 1513 N 150.766 -0.704594 1.40972 0
M  V30 1514 C 152.182 -1.01406 1.23244 0
M  V30 1515 C 152.382 -2.01169 0.115399 0
M  V30 1516 O 151.438 -2.47021 -0.523147 0
M  V30 1517 C 152.751 -1.54728 2.57836 0
M  V30 1518 C 154.299 -1.66658 2.64942 0
M  V30 1519 C 154.774 -2.23383 3.9983 0
M  V30 1520 N 156.265 -2.30756 4.01629 0
M  V30 1521 C 157 -2.75655 5.02794 0
M  V30 1522 N 156.496 -3.20225 6.14352 0
M  V30 1523 N 158.289 -2.75138 4.90159 0
M  V30 1524 H 150.44 -0.0435285 2.12355 0
M  V30 1525 H 152.703 -0.0818951 0.944456 0
M  V30 1526 H 152.409 -0.888832 3.40283 0
M  V30 1527 H 152.283 -2.53084 2.79693 0
M  V30 1528 H 154.67 -2.31617 1.8286 0
M  V30 1529 H 154.751 -0.668717 2.46904 0
M  V30 1530 H 154.395 -1.59043 4.82357 0
M  V30 1531 H 154.325 -3.23904 4.15203 0
M  V30 1532 H 156.816 -1.99291 3.21079 0
M  V30 1533 H 157.129 -3.53084 6.87424 0
M  V30 1534 H 155.474 -3.18156 6.17901 0
M  V30 1535 H 158.665 -2.39661 4.02095 0
M  V30 1536 H 158.838 -3.09812 5.6914 0
M  V30 1537 N 152.244 -1.26651 -0.937939 0
M  V30 1538 C 153.474 -1.15006 -1.71631 0
M  V30 1539 C 153.882 0.297026 -1.86854 0
M  V30 1540 O 153.225 1.21493 -1.37786 0
M  V30 1541 C 153.287 -1.74984 -3.14039 0
M  V30 1542 C 152.951 -3.24103 -3.2219 0
M  V30 1543 C 153.948 -4.20877 -3.05219 0
M  V30 1544 C 151.633 -3.64625 -3.45476 0
M  V30 1545 C 153.627 -5.56151 -3.11408 0
M  V30 1546 C 151.314 -5.00032 -3.513 0
M  V30 1547 C 152.312 -5.95604 -3.34282 0
M  V30 1548 O 152 -7.28545 -3.3982 0
M  V30 1549 H 151.732 -0.401183 -0.544085 0
M  V30 1550 H 154.286 -1.67832 -1.18413 0
M  V30 1551 H 152.516 -1.16624 -3.68695 0
M  V30 1552 H 154.205 -1.58199 -3.73802 0
M  V30 1553 H 154.971 -3.90908 -2.87081 0
M  V30 1554 H 150.85 -2.90718 -3.57777 0
M  V30 1555 H 154.394 -6.30727 -2.98043 0
M  V30 1556 H 150.291 -5.29659 -3.68959 0
M  V30 1557 H 151.059 -7.3686 -3.56343 0
M  V30 1558 N 153.722 1.14298 -1.08507 0
M  V30 1559 C 154.652 2.21542 -0.737646 0
M  V30 1560 C 155.633 1.67773 0.280377 0
M  V30 1561 O 156.818 1.93616 0.150521 0
M  V30 1562 C 153.948 3.46988 -0.147259 0
M  V30 1563 C 152.902 4.13789 -1.09374 0
M  V30 1564 C 152.228 5.33449 -0.365524 0
M  V30 1565 C 153.528 4.62208 -2.4323 0
M  V30 1566 H 155.222 2.5086 -1.6343 0
M  V30 1567 H 152.768 1.20576 -0.787243 0
M  V30 1568 H 154.721 4.21262 0.107808 0
M  V30 1569 H 153.445 3.17037 0.784538 0
M  V30 1570 H 152.104 3.4147 -1.33393 0
M  V30 1571 H 151.752 4.99759 0.57011 0
M  V30 1572 H 151.452 5.79088 -0.996512 0
M  V30 1573 H 152.976 6.10485 -0.118534 0
M  V30 1574 H 154.39 5.27952 -2.23472 0
M  V30 1575 H 152.787 5.18553 -3.02031 0
M  V30 1576 H 153.857 3.77224 -3.04681 0
M  V30 1577 N 155.201 0.870884 1.31352 0
M  V30 1578 C 156.164 0.332243 2.26779 0
M  V30 1579 C 157.164 -0.517302 1.52252 0
M  V30 1580 O 158.354 -0.326477 1.71113 0
M  V30 1581 C 155.486 -0.528066 3.36785 0
M  V30 1582 H 156.679 1.17469 2.75937 0
M  V30 1583 H 154.232 0.64655 1.423 0
M  V30 1584 H 154.967 -1.39167 2.92922 0
M  V30 1585 H 154.752 0.0802582 3.92018 0
M  V30 1586 H 156.242 -0.897179 4.07849 0
M  V30 1587 N 156.679 -1.44442 0.630414 0
M  V30 1588 C 157.928 -2.01267 0.132073 0
M  V30 1589 C 158.241 -1.50172 -1.25331 0
M  V30 1590 O 159.447 -1.9912 -1.84562 0
M  V30 1591 C 157.903 -3.59422 0.185362 0
M  V30 1592 C 157.511 -4.19514 1.57201 0
M  V30 1593 C 159.255 -4.23724 -0.256553 0
M  V30 1594 C 157.162 -5.69891 1.58045 0
M  V30 1595 H 156.092 -0.752619 0.0456092 0
M  V30 1596 H 158.743 -1.65666 0.789106 0
M  V30 1597 H 157.125 -3.92318 -0.538759 0
M  V30 1598 H 158.299 -3.98156 2.31966 0
M  V30 1599 H 156.614 -3.67496 1.95795 0
M  V30 1600 H 159.211 -5.34019 -0.269767 0
M  V30 1601 H 159.554 -3.96013 -1.28372 0
M  V30 1602 H 160.087 -3.95629 0.41505 0
M  V30 1603 H 156.826 -6.02336 2.58597 0
M  V30 1604 H 156.346 -5.93373 0.875725 0
M  V30 1605 H 158.025 -6.33515 1.31408 0
M  V30 1606 N 158.157 -0.370918 -1.53173 0
M  V30 1607 C 159.397 0.217106 -2.03244 0
M  V30 1608 C 159.761 1.45558 -1.25207 0
M  V30 1609 O 160.962 2.11957 -1.65311 0
M  V30 1610 C 159.233 0.496664 -3.53932 0
M  V30 1611 S 160.792 1.0576 -4.25864 0
M  V30 1612 H 157.61 0.0627827 -0.708223 0
M  V30 1613 H 160.212 -0.515019 -1.88594 0
M  V30 1614 H 158.916 -0.412096 -4.08326 0
M  V30 1615 H 158.447 1.25772 -3.72753 0
M  V30 1616 H 160.462 2.34145 -4.37482 0
M  V30 1617 N 159.635 1.57281 -0.100228 0
M  V30 1618 C 160.881 1.94826 0.563101 0
M  V30 1619 C 161.214 0.982475 1.67514 0
M  V30 1620 O 160.489 0.0164069 1.94493 0
M  V30 1621 C 160.772 3.42453 1.11346 0
M  V30 1622 C 160.625 4.498 0.00612081 0
M  V30 1623 C 161.944 3.91506 2.01024 0
M  V30 1624 H 159.063 0.708428 0.203221 0
M  V30 1625 H 161.705 1.8922 -0.171979 0
M  V30 1626 H 159.855 3.47361 1.7399 0
M  V30 1627 H 161.527 4.57 -0.628357 0
M  V30 1628 H 159.77 4.28756 -0.659581 0
M  V30 1629 H 160.441 5.50306 0.432109 0
M  V30 1630 H 162.917 3.88784 1.48278 0
M  V30 1631 H 161.793 4.95358 2.36457 0
M  V30 1632 H 162.054 3.31099 2.92961 0
M  V30 1633 N 161.113 -0.173488 1.56642 0
M  V30 1634 C 162.524 -0.736155 1.71574 0
M  V30 1635 C 162.875 -1.82888 0.710389 0
M  V30 1636 O 162 -2.16017 -0.1287 0
M  V30 1637 C 162.595 -1.34211 3.11083 0
M  V30 1638 C 161.154 -1.85162 3.27707 0
M  V30 1639 C 160.301 -0.729765 2.67525 0
M  V30 1640 H 163.252 0.0518786 1.58615 0
M  V30 1641 H 163.273 -2.21178 3.09613 0
M  V30 1642 H 162.785 -0.546579 3.84232 0
M  V30 1643 H 160.886 -2.67366 2.59512 0
M  V30 1644 H 160.999 -1.99855 4.35425 0
M  V30 1645 H 159.363 -1.14965 2.27278 0
M  V30 1646 H 160.146 0.0538806 3.43258 0
M  V30 1647 N 162.591 -1.51276 -0.441967 0
M  V30 1648 C 163.521 -1.752 -1.54361 0
M  V30 1649 C 164.502 -0.601682 -1.59103 0
M  V30 1650 O 165.687 -0.843913 -1.74905 0
M  V30 1651 C 162.817 -1.87282 -2.92477 0
M  V30 1652 C 161.771 -3.02687 -3.02596 0
M  V30 1653 C 161.097 -2.99947 -4.42647 0
M  V30 1654 C 162.397 -4.4273 -2.77106 0
M  V30 1655 H 164.091 -2.67442 -1.34592 0
M  V30 1656 H 161.637 -1.28694 -0.646048 0
M  V30 1657 H 163.59 -2.02602 -3.695 0
M  V30 1658 H 162.314 -0.916844 -3.13467 0
M  V30 1659 H 160.973 -2.87065 -2.28012 0
M  V30 1660 H 160.621 -2.02136 -4.60597 0
M  V30 1661 H 160.321 -3.77439 -4.50348 0
M  V30 1662 H 161.845 -3.17354 -5.2165 0
M  V30 1663 H 163.259 -4.58727 -3.43864 0
M  V30 1664 H 161.656 -5.21893 -2.96222 0
M  V30 1665 H 162.726 -4.53087 -1.72744 0
M  V30 1666 N 164.069 0.697108 -1.41344 0
M  V30 1667 C 165.485 1.00751 -1.2378 0
M  V30 1668 C 165.685 2.01105 -0.126066 0
M  V30 1669 O 164.741 2.47295 0.51004 0
M  V30 1670 C 166.054 1.53359 -2.58653 0
M  V30 1671 C 167.602 1.6525 -2.65822 0
M  V30 1672 C 168.077 2.2126 -4.01009 0
M  V30 1673 N 169.568 2.28622 -4.02847 0
M  V30 1674 C 170.303 2.72984 -5.04249 0
M  V30 1675 N 169.799 3.16962 -6.16041 0
M  V30 1676 N 171.592 2.72534 -4.91611 0
M  V30 1677 H 163.743 0.0322662 -2.12375 0
M  V30 1678 H 166.006 0.0768853 -0.944877 0
M  V30 1679 H 165.712 0.870773 -3.4075 0
M  V30 1680 H 165.586 2.51597 -2.81032 0
M  V30 1681 H 167.973 2.30644 -1.84086 0
M  V30 1682 H 168.054 0.655614 -2.47256 0
M  V30 1683 H 167.698 1.56482 -4.83193 0
M  V30 1684 H 167.628 3.21698 -4.16915 0
M  V30 1685 H 170.119 1.97585 -3.22131 0
M  V30 1686 H 170.432 3.49434 -6.89287 0
M  V30 1687 H 168.777 3.14875 -6.1958 0
M  V30 1688 H 171.968 2.37525 -4.0336 0
M  V30 1689 H 172.141 3.06789 -5.70775 0
M  V30 1690 N 165.547 1.27147 0.931209 0
M  V30 1691 C 166.777 1.15914 1.71019 0
M  V30 1692 C 167.185 -0.287112 1.87009 0
M  V30 1693 O 166.528 -1.20761 1.38429 0
M  V30 1694 C 166.59 1.76647 3.13107 0
M  V30 1695 C 166.254 3.25807 3.20467 0
M  V30 1696 C 167.251 4.22489 3.02983 0
M  V30 1697 C 164.936 3.66452 3.43538 0
M  V30 1698 C 166.93 5.57794 3.08454 0
M  V30 1699 C 164.617 5.01888 3.48643 0
M  V30 1700 C 165.615 5.97369 3.31119 0
M  V30 1701 O 165.303 7.30337 3.35952 0
M  V30 1702 H 165.035 0.404062 0.54195 0
M  V30 1703 H 167.589 1.68457 1.17521 0
M  V30 1704 H 165.819 1.18578 3.68071 0
M  V30 1705 H 167.508 1.60179 3.72958 0
M  V30 1706 H 168.274 3.92425 2.85004 0
M  V30 1707 H 164.153 2.92611 3.5623 0
M  V30 1708 H 167.697 6.32298 2.94694 0
M  V30 1709 H 163.594 5.31609 3.66145 0
M  V30 1710 H 164.362 7.38739 3.5243 0
M  V30 1711 N 167.025 -1.13721 1.09112 0
M  V30 1712 C 167.972 -2.19031 0.727591 0
M  V30 1713 C 168.942 -1.63555 -0.289656 0
M  V30 1714 O 170.127 -1.90023 -0.172026 0
M  V30 1715 C 167.267 -3.4477 0.15082 0
M  V30 1716 C 166.38 -4.14365 1.22172 0
M  V30 1717 C 165.515 -5.27709 0.608042 0
M  V30 1718 C 164.554 -5.89147 1.66047 0
M  V30 1719 N 163.691 -6.93929 1.06806 0
M  V30 1720 H 168.531 -2.49475 1.62991 0
M  V30 1721 H 166.068 -1.22499 0.81439 0
M  V30 1722 H 168.026 -4.16714 -0.201358 0
M  V30 1723 H 166.656 -3.14787 -0.714783 0
M  V30 1724 H 165.708 -3.40737 1.69122 0
M  V30 1725 H 167.02 -4.56114 2.01895 0
M  V30 1726 H 166.174 -6.06355 0.204523 0
M  V30 1727 H 164.913 -4.872 -0.220769 0
M  V30 1728 H 163.918 -5.09198 2.07357 0
M  V30 1729 H 165.143 -6.31729 2.49189 0
M  V30 1730 H 163.089 -6.55483 0.260476 0
M  V30 1731 H 163.006 -7.34202 1.8023 0
M  V30 1732 H 164.274 -7.76434 0.690644 0
M  V30 1733 N 168.503 -0.877838 -1.30888 0
M  V30 1734 C 169.728 -0.506629 -2.01117 0
M  V30 1735 C 170.153 0.895564 -1.65412 0
M  V30 1736 O 169.511 1.5923 -0.866922 0
M  V30 1737 C 169.559 -0.680223 -3.54126 0
M  V30 1738 O 168.663 0.277033 -4.11468 0
M  V30 1739 H 168.004 -0.200518 -0.633 0
M  V30 1740 H 170.534 -1.18342 -1.66902 0
M  V30 1741 H 170.544 -0.5765 -4.03907 0
M  V30 1742 H 169.219 -1.70261 -3.79452 0
M  V30 1743 H 167.796 0.127606 -3.72682 0
M  V30 1744 N 169.982 1.44106 -0.638065 0
M  V30 1745 C 170.912 2.33448 0.0494287 0
M  V30 1746 C 171.893 1.48606 0.827672 0
M  V30 1747 O 173.078 1.77308 0.792173 0
M  V30 1748 C 170.208 3.31771 1.02691 0
M  V30 1749 C 169.162 4.26485 0.359823 0
M  V30 1750 C 168.488 5.14729 1.44769 0
M  V30 1751 C 169.788 5.17056 -0.738296 0
M  V30 1752 H 171.482 2.91183 -0.696636 0
M  V30 1753 H 169.028 1.40014 -0.336456 0
M  V30 1754 H 170.981 3.93161 1.51666 0
M  V30 1755 H 169.705 2.7226 1.80395 0
M  V30 1756 H 168.364 3.66437 -0.10934 0
M  V30 1757 H 168.012 4.51566 2.21578 0
M  V30 1758 H 167.712 5.78913 1.00668 0
M  V30 1759 H 169.236 5.78991 1.93911 0
M  V30 1760 H 170.65 5.72342 -0.331354 0
M  V30 1761 H 169.047 5.89879 -1.10286 0
M  V30 1762 H 170.117 4.57652 -1.60258 0
M  V30 1763 N 171.46 0.379036 1.52974 0
M  V30 1764 C 172.706 -0.206727 2.01744 0
M  V30 1765 C 173.039 -1.47314 1.26539 0
M  V30 1766 O 172.314 -1.91084 0.362903 0
M  V30 1767 C 172.597 -0.485066 3.56818 0
M  V30 1768 C 172.45 0.795919 4.42702 0
M  V30 1769 C 173.769 -1.28003 4.21074 0
M  V30 1770 H 170.888 -0.0736607 0.73331 0
M  V30 1771 H 173.53 0.506581 1.83122 0
M  V30 1772 H 171.68 -1.09272 3.72816 0
M  V30 1773 H 173.352 1.43307 4.38476 0
M  V30 1774 H 171.595 1.41344 4.10127 0
M  V30 1775 H 172.266 0.555947 5.49193 0
M  V30 1776 H 174.742 -0.765867 4.08991 0
M  V30 1777 H 173.618 -1.44352 5.29579 0
M  V30 1778 H 173.879 -2.29236 3.78026 0
M  V30 1779 N 172.938 -1.57226 0.108567 0
M  V30 1780 C 174.166 -1.99179 -0.559954 0
M  V30 1781 C 174.581 -0.988022 -1.60884 0
M  V30 1782 O 173.938 0.0205512 -1.82488 0
M  V30 1783 C 173.989 -3.41159 -1.19552 0
M  V30 1784 O 173.71 -4.37694 -0.188577 0
M  V30 1785 C 175.211 -3.98188 -1.94837 0
M  V30 1786 H 172.431 -0.654228 -0.149088 0
M  V30 1787 H 174.975 -2.03598 0.19183 0
M  V30 1788 H 173.13 -3.37711 -1.89815 0
M  V30 1789 H 173.544 -5.20469 -0.649014 0
M  V30 1790 H 175.018 -4.99644 -2.34648 0
M  V30 1791 H 175.495 -3.3675 -2.81951 0
M  V30 1792 H 176.101 -4.0515 -1.2936 0
M  V30 1793 N 174.416 0.165178 -1.56732 0
M  V30 1794 C 175.664 0.879068 -1.8198 0
M  V30 1795 C 175.985 1.82514 -0.686561 0
M  V30 1796 O 175.255 1.93694 0.293146 0
M  V30 1797 H 173.835 0.327608 -0.671329 0
M  V30 1798 H 176.497 0.163526 -1.94213 0
M  V30 1799 H 175.593 1.45228 -2.76252 0
M  V30 1800 N 175.894 1.51508 0.433938 0
M  V30 1801 C 177.122 1.68157 1.20543 0
M  V30 1802 C 177.537 0.380362 1.84929 0
M  V30 1803 O 176.894 -0.641446 1.70856 0
M  V30 1804 C 176.945 2.79965 2.28696 0
M  V30 1805 O 176.666 4.05045 1.66943 0
M  V30 1806 C 178.167 3.07912 3.18912 0
M  V30 1807 H 175.387 0.56421 0.363191 0
M  V30 1808 H 177.931 1.97941 0.513754 0
M  V30 1809 H 176.086 2.5277 2.93574 0
M  V30 1810 H 176.5 4.67165 2.38448 0
M  V30 1811 H 177.974 3.89719 3.90926 0
M  V30 1812 H 178.451 2.20456 3.79863 0
M  V30 1813 H 179.057 3.36779 2.59731 0
M  V30 1814 N 177.372 -0.689602 1.41712 0
M  V30 1815 C 178.788 -1.00093 1.24312 0
M  V30 1816 C 178.988 -2.01036 0.136729 0
M  V30 1817 O 178.044 -2.47562 -0.496918 0
M  V30 1818 C 179.357 -1.51985 2.59463 0
M  V30 1819 C 180.905 -1.63838 2.66695 0
M  V30 1820 C 181.38 -2.1913 4.02177 0
M  V30 1821 N 182.871 -2.26483 4.04054 0
M  V30 1822 C 183.606 -2.70306 5.0569 0
M  V30 1823 N 183.102 -3.13691 6.17713 0
M  V30 1824 N 184.895 -2.69923 4.9305 0
M  V30 1825 H 177.046 -0.0210029 2.1239 0
M  V30 1826 H 179.309 -0.0718733 0.945272 0
M  V30 1827 H 179.015 -0.85269 3.41207 0
M  V30 1828 H 178.889 -2.50103 2.82362 0
M  V30 1829 H 181.276 -2.29664 1.85306 0
M  V30 1830 H 181.357 -0.642492 2.476 0
M  V30 1831 H 181.001 -1.53918 4.84016 0
M  V30 1832 H 180.931 -3.19482 4.18615 0
M  V30 1833 H 183.422 -1.95874 3.23174 0
M  V30 1834 H 183.735 -3.45773 6.9113 0
M  V30 1835 H 182.08 -3.11585 6.21241 0
M  V30 1836 H 185.271 -2.35382 4.04614 0
M  V30 1837 H 185.444 -3.03758 5.72394 0
M  V30 1838 N 178.85 -1.27639 -0.924453 0
M  V30 1839 C 179.813 -1.10681 -2.00705 0
M  V30 1840 C 180.813 -0.0497823 -1.60723 0
M  V30 1841 O 182.003 -0.294654 -1.7169 0
M  V30 1842 C 179.135 -0.687164 -3.33902 0
M  V30 1843 H 180.328 -2.06817 -2.17179 0
M  V30 1844 H 177.881 -1.10473 -1.10569 0
M  V30 1845 H 178.616 0.275439 -3.23128 0
M  V30 1846 H 178.401 -1.45061 -3.6428 0
M  V30 1847 H 179.891 -0.590853 -4.13399 0
M  V30 1848 N 180.328 1.1314 -1.09713 0
M  V30 1849 C 181.744 1.36477 -0.827423 0
M  V30 1850 C 181.944 1.93654 0.556817 0
M  V30 1851 O 181 2.15791 1.31112 0
M  V30 1852 C 182.313 2.31334 -1.92106 0
M  V30 1853 C 183.861 2.44943 -1.94864 0
M  V30 1854 C 184.336 3.4311 -3.0338 0
M  V30 1855 N 185.827 3.50662 -3.02639 0
M  V30 1856 C 186.562 4.2651 -3.83246 0
M  V30 1857 N 186.058 5.05485 -4.73768 0
M  V30 1858 N 187.851 4.2184 -3.71493 0
M  V30 1859 H 180.002 0.743807 -1.9895 0
M  V30 1860 H 182.265 0.389823 -0.864143 0
M  V30 1861 H 181.971 1.96483 -2.91698 0
M  V30 1862 H 181.845 3.31381 -1.80184 0
M  V30 1863 H 184.232 2.79079 -0.959099 0
M  V30 1864 H 184.313 1.4481 -2.10864 0
M  V30 1865 H 183.957 3.09704 -4.02549 0
M  V30 1866 H 183.887 4.43055 -2.84622 0
M  V30 1867 H 186.378 2.94315 -2.37039 0
M  V30 1868 H 186.691 5.60675 -5.3185 0
M  V30 1869 H 185.036 5.04708 -4.77802 0
M  V30 1870 H 188.227 3.5922 -3.00131 0
M  V30 1871 H 188.4 4.80697 -4.3455 0
M  V30 1872 N 181.806 0.884767 1.30421 0
M  V30 1873 C 183.054 0.502112 1.95763 0
M  V30 1874 C 183.375 -0.951815 1.70192 0
M  V30 1875 O 182.645 -1.6692 1.0254 0
M  V30 1876 H 181.225 0.182694 0.724315 0
M  V30 1877 H 183.887 1.1278 1.58955 0
M  V30 1878 H 182.983 0.672188 3.04775 0
M  V30 1879 N 183.284 -1.43765 0.645699 0
M  V30 1880 C 184.53 -2.02197 0.156271 0
M  V30 1881 C 184.863 -1.50776 -1.22393 0
M  V30 1882 O 184.138 -0.697771 -1.81553 0
M  V30 1883 C 184.421 -3.59749 0.158872 0
M  V30 1884 C 184.274 -4.21419 1.57245 0
M  V30 1885 C 185.593 -4.37149 -0.50879 0
M  V30 1886 H 182.712 -0.734694 0.0582602 0
M  V30 1887 H 185.354 -1.71157 0.824951 0
M  V30 1888 H 183.504 -3.86325 -0.410525 0
M  V30 1889 H 185.176 -4.059 2.19186 0
M  V30 1890 H 183.419 -3.78356 2.122 0
M  V30 1891 H 184.09 -5.30482 1.52619 0
M  V30 1892 H 186.566 -4.16093 -0.024412 0
M  V30 1893 H 185.442 -5.4683 -0.476213 0
M  V30 1894 H 185.703 -4.12839 -1.58165 0
M  V30 1895 N 184.763 -0.387143 -1.52771 0
M  V30 1896 C 186.012 0.19697 -2.00736 0
M  V30 1897 C 186.325 1.48082 -1.27793 0
M  V30 1898 O 187.531 2.14485 -1.66458 0
M  V30 1899 C 185.987 0.401568 -3.57653 0
M  V30 1900 C 185.595 -0.868907 -4.39493 0
M  V30 1901 C 187.339 0.942164 -4.13912 0
M  V30 1902 C 185.246 -0.632705 -5.88006 0
M  V30 1903 H 184.176 0.0773827 -0.750019 0
M  V30 1904 H 186.827 -0.50921 -1.76293 0
M  V30 1905 H 185.209 1.16954 -3.78335 0
M  V30 1906 H 186.383 -1.64133 -4.30577 0
M  V30 1907 H 184.698 -1.33429 -3.94443 0
M  V30 1908 H 187.295 1.13455 -5.22525 0
M  V30 1909 H 187.638 1.9106 -3.69867 0
M  V30 1910 H 188.171 0.233814 -3.97112 0
M  V30 1911 H 184.91 -1.57208 -6.36369 0
M  V30 1912 H 184.43 0.100825 -5.99715 0
M  V30 1913 H 186.109 -0.26642 -6.46451 0
M  V30 1914 N 186.241 1.57166 -0.116904 0
M  V30 1915 C 187.204 2.14039 0.819742 0
M  V30 1916 C 188.204 1.07477 1.19605 0
M  V30 1917 O 189.394 1.33263 1.1219 0
M  V30 1918 C 186.526 2.67891 2.10826 0
M  V30 1919 H 187.719 2.98128 0.325511 0
M  V30 1920 H 185.272 1.55739 0.132312 0
M  V30 1921 H 186.007 1.87384 2.64685 0
M  V30 1922 H 185.792 3.45823 1.84793 0
M  V30 1923 H 187.282 3.11809 2.77785 0
M  V30 1924 N 187.719 -0.156864 1.56817 0
M  V30 1925 C 188.965 -0.872416 1.83076 0
M  V30 1926 C 189.298 -1.81261 0.697001 0
M  V30 1927 O 188.573 -1.92171 -0.30008 0
M  V30 1928 C 188.856 -1.65551 3.19789 0
M  V30 1929 C 188.709 -0.737467 4.43713 0
M  V30 1930 C 190.028 -2.62012 3.53606 0
M  V30 1931 H 187.147 -0.315715 0.665953 0
M  V30 1932 H 189.789 -0.138004 1.89498 0
M  V30 1933 H 187.939 -2.28159 3.14445 0
M  V30 1934 H 189.611 -0.123143 4.61136 0
M  V30 1935 H 187.854 -0.0464067 4.33775 0
M  V30 1936 H 188.525 -1.32122 5.35955 0
M  V30 1937 H 191.001 -2.09525 3.59497 0
M  V30 1938 H 189.877 -3.13861 4.50314 0
M  V30 1939 H 190.138 -3.42902 2.79053 0
M  V30 1940 N 189.197 -1.51736 -0.425897 0
M  V30 1941 C 190.127 -1.76827 -1.52494 0
M  V30 1942 C 191.108 -0.618524 -1.58456 0
M  V30 1943 O 192.293 -0.862416 -1.74 0
M  V30 1944 C 189.423 -1.90374 -2.90474 0
M  V30 1945 C 188.377 -3.0588 -2.99369 0
M  V30 1946 C 187.703 -3.04625 -4.3944 0
M  V30 1947 C 189.003 -4.45644 -2.72394 0
M  V30 1948 H 190.697 -2.68855 -1.31748 0
M  V30 1949 H 188.243 -1.29372 -0.632362 0
M  V30 1950 H 190.196 -2.0651 -3.6733 0
M  V30 1951 H 188.92 -0.95004 -3.12477 0
M  V30 1952 H 187.579 -2.89467 -2.24954 0
M  V30 1953 H 187.227 -2.0701 -4.58428 0
M  V30 1954 H 186.927 -3.82195 -4.46319 0
M  V30 1955 H 188.451 -3.22869 -5.18255 0
M  V30 1956 H 189.865 -4.62348 -3.38979 0
M  V30 1957 H 188.262 -5.25006 -2.9067 0
M  V30 1958 H 189.332 -4.54893 -1.67929 0
M  V30 1959 N 190.675 0.682077 -1.42076 0
M  V30 1960 C 191.921 1.44283 -1.43366 0
M  V30 1961 C 192.276 1.92344 -0.0465775 0
M  V30 1962 O 191.569 1.67517 0.929973 0
M  V30 1963 C 191.763 2.66036 -2.38662 0
M  V30 1964 C 191.592 2.29889 -3.86499 0
M  V30 1965 C 190.362 2.19599 -4.55087 0
M  V30 1966 C 192.56 1.91999 -4.77117 0
M  V30 1967 N 190.542 1.76478 -5.87987 0
M  V30 1968 C 191.913 1.59741 -5.99068 0
M  V30 1969 C 193.968 1.78927 -4.64639 0
M  V30 1970 C 192.671 1.15723 -7.0993 0
M  V30 1971 C 194.697 1.36314 -5.75476 0
M  V30 1972 C 194.059 1.04975 -6.96534 0
M  V30 1973 H 190.158 0.524739 -0.579805 0
M  V30 1974 H 192.742 0.787834 -1.78048 0
M  V30 1975 H 190.913 3.29237 -2.06053 0
M  V30 1976 H 192.645 3.32588 -2.30581 0
M  V30 1977 H 189.4 2.38433 -4.09202 0
M  V30 1978 H 189.824 1.57362 -6.58458 0
M  V30 1979 H 194.466 2.01805 -3.7153 0
M  V30 1980 H 192.184 0.91591 -8.02893 0
M  V30 1981 H 195.77 1.26731 -5.6783 0
M  V30 1982 H 194.65 0.725017 -7.80841 0
M  V30 1983 N 192.153 1.28127 0.917671 0
M  V30 1984 C 193.399 1.15223 1.66888 0
M  V30 1985 C 193.732 -0.299293 1.9188 0
M  V30 1986 O 193.007 -1.21805 1.51637 0
M  V30 1987 C 193.29 1.94706 3.02922 0
M  V30 1988 C 193.143 3.47898 2.85109 0
M  V30 1989 C 194.462 1.75939 4.03402 0
M  V30 1990 H 191.581 0.419946 0.605652 0
M  V30 1991 H 194.223 1.57398 1.06423 0
M  V30 1992 H 192.373 1.58864 3.54534 0
M  V30 1993 H 194.045 3.93624 2.40537 0
M  V30 1994 H 192.288 3.7373 2.20246 0
M  V30 1995 H 192.959 3.98765 3.81694 0
M  V30 1996 H 195.435 2.07209 3.60837 0
M  V30 1997 H 194.311 2.33931 4.96556 0
M  V30 1998 H 194.572 0.709877 4.36364 0
M  V30 1999 N 193.631 -1.12557 1.10312 0
M  V30 2000 C 194.561 -2.20341 0.772798 0
M  V30 2001 C 195.542 -1.68198 -0.25365 0
M  V30 2002 O 196.727 -1.93831 -0.119699 0
M  V30 2003 C 193.857 -3.46709 0.202443 0
M  V30 2004 C 192.811 -4.11996 1.15943 0
M  V30 2005 C 192.137 -5.328 0.450345 0
M  V30 2006 C 193.437 -4.5828 2.50552 0
M  V30 2007 H 195.131 -2.48229 1.674 0
M  V30 2008 H 192.677 -1.19308 0.806326 0
M  V30 2009 H 194.63 -4.2138 -0.0407752 0
M  V30 2010 H 193.354 -3.18245 -0.734001 0
M  V30 2011 H 192.013 -3.39305 1.38808 0
M  V30 2012 H 191.661 -5.00602 -0.490531 0
M  V30 2013 H 191.361 -5.7743 1.08851 0
M  V30 2014 H 192.885 -6.10219 0.215642 0
M  V30 2015 H 194.299 -5.2433 2.31843 0
M  V30 2016 H 192.696 -5.13683 3.10242 0
M  V30 2017 H 193.766 -3.72329 3.10643 0
M  V30 2018 N 195.109 -0.891671 -1.2995 0
M  V30 2019 C 196.072 -0.36828 -2.26222 0
M  V30 2020 C 197.072 0.493014 -1.53056 0
M  V30 2021 O 198.262 0.299213 -1.71611 0
M  V30 2022 C 195.394 0.47442 -3.37583 0
M  V30 2023 H 196.587 -1.21844 -2.74033 0
M  V30 2024 H 194.14 -0.669107 -1.41254 0
M  V30 2025 H 194.875 1.34489 -2.95099 0
M  V30 2026 H 194.66 -0.142615 -3.91841 0
M  V30 2027 H 196.15 0.83218 -4.09224 0
M  V30 2028 N 196.587 1.43421 -0.653314 0
M  V30 2029 C 197.834 2.01812 -0.166745 0
M  V30 2030 C 198.162 1.51535 1.21931 0
M  V30 2031 O 197.417 0.698975 1.82792 0
M  V30 2032 C 197.716 3.57176 -0.126623 0
M  V30 2033 C 197.382 4.26798 -1.45444 0
M  V30 2034 C 196.044 4.45534 -1.81805 0
M  V30 2035 C 198.396 4.66225 -2.32989 0
M  V30 2036 C 195.724 5.00961 -3.05377 0
M  V30 2037 C 198.076 5.23021 -3.55853 0
M  V30 2038 C 196.74 5.39973 -3.9241 0
M  V30 2039 H 196.01 0.738484 -0.0610162 0
M  V30 2040 H 198.657 1.71896 -0.84404 0
M  V30 2041 H 196.962 3.86634 0.634123 0
M  V30 2042 H 198.659 4.00112 0.266723 0
M  V30 2043 H 195.249 4.12561 -1.16153 0
M  V30 2044 H 199.433 4.51443 -2.06187 0
M  V30 2045 H 194.689 5.12271 -3.3375 0
M  V30 2046 H 198.863 5.52518 -4.23907 0
M  V30 2047 H 196.49 5.82687 -4.88242 0
M  V30 2048 N 198.065 0.39524 1.52563 0
M  V30 2049 C 199.313 -0.184678 2.01254 0
M  V30 2050 C 199.634 -1.46822 1.28329 0
M  V30 2051 O 198.904 -1.91666 0.405094 0
M  V30 2052 H 197.484 -0.0712355 0.743596 0
M  V30 2053 H 200.146 0.528293 1.87603 0
M  V30 2054 H 199.242 -0.390681 3.09645 0
M  V30 2055 N 199.544 -1.57102 0.125237 0
M  V30 2056 C 200.793 -1.94582 -0.531095 0
M  V30 2057 C 201.106 -1.01126 -1.6743 0
M  V30 2058 O 202.312 -1.28097 -2.39381 0
M  V30 2059 C 200.768 -3.45839 -0.996164 0
M  V30 2060 C 200.376 -4.47842 0.118926 0
M  V30 2061 C 202.12 -3.92227 -1.62352 0
M  V30 2062 C 200.027 -5.90284 -0.363192 0
M  V30 2063 H 198.957 -0.726391 -0.20217 0
M  V30 2064 H 201.608 -1.82339 0.206092 0
M  V30 2065 H 199.99 -3.53338 -1.78796 0
M  V30 2066 H 201.164 -4.52018 0.895358 0
M  V30 2067 H 199.479 -4.11243 0.653324 0
M  V30 2068 H 202.076 -4.96069 -1.99548 0
M  V30 2069 H 202.419 -3.32552 -2.50429 0
M  V30 2070 H 202.952 -3.87554 -0.897019 0
M  V30 2071 H 199.691 -6.53728 0.481679 0
M  V30 2072 H 199.211 -5.89515 -1.10597 0
M  V30 2073 H 200.89 -6.41752 -0.822377 0
M  V30 2074 N 201.022 0.148545 -1.56898 0
M  V30 2075 C 202.27 0.859717 -1.82902 0
M  V30 2076 C 202.591 1.81775 -0.70588 0
M  V30 2077 O 201.861 1.93994 0.272586 0
M  V30 2078 H 200.441 0.320469 -0.674766 0
M  V30 2079 H 203.103 0.142918 -1.94375 0
M  V30 2080 H 202.199 1.4229 -2.77777 0
M  V30 2081 N 202.5 1.5196 0.417844 0
M  V30 2082 C 203.43 1.77634 1.51554 0
M  V30 2083 C 204.411 0.626918 1.58126 0
M  V30 2084 O 205.596 0.871632 1.7354 0
M  V30 2085 C 202.726 1.91911 2.8946 0
M  V30 2086 C 201.68 3.07463 2.97743 0
M  V30 2087 C 201.006 3.06951 4.37819 0
M  V30 2088 C 202.306 4.47082 2.70027 0
M  V30 2089 H 204 2.6955 1.3032 0
M  V30 2090 H 201.546 1.29706 0.625492 0
M  V30 2091 H 203.499 2.08455 3.6623 0
M  V30 2092 H 202.223 0.966598 3.11969 0
M  V30 2093 H 200.882 2.90656 2.23416 0
M  V30 2094 H 200.53 2.09438 4.57323 0
M  V30 2095 H 200.23 3.84556 4.44286 0
M  V30 2096 H 201.754 3.25613 5.16535 0
M  V30 2097 H 203.168 4.6414 3.36522 0
M  V30 2098 H 201.565 5.2654 2.87881 0
M  V30 2099 H 202.635 4.55777 1.65514 0
M  V30 2100 N 203.978 -0.674533 1.42435 0
M  V30 2101 C 205.206 -1.46283 1.46317 0
M  V30 2102 C 205.621 -1.88653 0.0745836 0
M  V30 2103 O 204.978 -1.58151 -0.91074 0
M  V30 2104 C 205.029 -2.71178 2.3905 0
M  V30 2105 O 204.75 -2.30586 3.72507 0
M  V30 2106 C 206.251 -3.64738 2.51955 0
M  V30 2107 H 203.471 -0.450104 0.497642 0
M  V30 2108 H 206.015 -0.828792 1.86953 0
M  V30 2109 H 204.17 -3.3077 2.01667 0
M  V30 2110 H 204.584 -3.11241 4.22172 0
M  V30 2111 H 206.058 -4.49096 3.20962 0
M  V30 2112 H 206.535 -4.10656 1.55752 0
M  V30 2113 H 207.141 -3.11038 2.90061 0
M  V30 2114 N 205.456 -1.28612 -0.910864 0
M  V30 2115 C 206.867 -1.14406 -1.47541 0
M  V30 2116 C 207.218 0.264901 -1.94403 0
M  V30 2117 O 206.343 1.15942 -1.82719 0
M  V30 2118 C 206.938 -2.07073 -2.68153 0
M  V30 2119 C 205.497 -1.96923 -3.20778 0
M  V30 2120 C 204.644 -1.98646 -1.93481 0
M  V30 2121 H 207.595 -1.41259 -0.723291 0
M  V30 2122 H 207.616 -1.63642 -3.43514 0
M  V30 2123 H 207.128 -3.09611 -2.34015 0
M  V30 2124 H 205.229 -0.97433 -3.59635 0
M  V30 2125 H 205.342 -2.84026 -3.85832 0
M  V30 2126 H 203.706 -1.43093 -2.10705 0
M  V30 2127 H 204.489 -3.02868 -1.61634 0
M  V30 2128 N 206.934 1.1197 -1.10907 0
M  V30 2129 C 208.181 1.83588 -0.854507 0
M  V30 2130 C 208.509 1.84357 0.6199 0
M  V30 2131 O 207.764 1.28809 1.47332 0
M  V30 2132 C 208.063 3.30749 -1.35425 0
M  V30 2133 C 207.729 3.50146 -2.84093 0
M  V30 2134 C 206.391 3.55148 -3.2469 0
M  V30 2135 C 208.743 3.56857 -3.79872 0
M  V30 2136 C 206.071 3.6441 -4.59806 0
M  V30 2137 C 208.423 3.6765 -5.14797 0
M  V30 2138 C 207.087 3.7091 -5.54961 0
M  V30 2139 H 206.357 0.671795 -0.312686 0
M  V30 2140 H 209.004 1.32091 -1.38652 0
M  V30 2141 H 207.309 3.84703 -0.742361 0
M  V30 2142 H 209.006 3.8464 -1.1337 0
M  V30 2143 H 205.596 3.46919 -2.51685 0
M  V30 2144 H 209.78 3.52258 -3.49611 0
M  V30 2145 H 205.036 3.65208 -4.9034 0
M  V30 2146 H 209.21 3.71786 -5.88853 0
M  V30 2147 H 206.837 3.7784 -6.59652 0
M  V30 2148 N 208.412 0.89855 1.29475 0
M  V30 2149 C 209.342 0.39201 2.30186 0
M  V30 2150 C 210.323 -0.532359 1.61555 0
M  V30 2151 O 211.508 -0.443331 1.89072 0
M  V30 2152 C 208.638 -0.382353 3.45189 0
M  V30 2153 C 207.592 0.451483 4.25612 0
M  V30 2154 C 206.918 -0.450307 5.328 0
M  V30 2155 C 208.218 1.70079 4.93832 0
M  V30 2156 H 209.912 1.23362 2.72804 0
M  V30 2157 H 207.458 0.594638 1.31149 0
M  V30 2158 H 209.411 -0.747451 4.14718 0
M  V30 2159 H 208.135 -1.25774 3.01411 0
M  V30 2160 H 206.794 0.798897 3.57789 0
M  V30 2161 H 206.442 -1.32379 4.85268 0
M  V30 2162 H 206.142 0.103902 5.87508 0
M  V30 2163 H 207.666 -0.811623 6.05182 0
M  V30 2164 H 209.08 1.40549 5.55805 0
M  V30 2165 H 207.477 2.19623 5.58467 0
M  V30 2166 H 208.547 2.43744 4.19186 0
M  V30 2167 N 209.89 -1.43072 0.660911 0
M  V30 2168 C 211.138 -2.01323 0.177094 0
M  V30 2169 C 211.459 -1.5245 -1.2159 0
M  V30 2170 O 210.729 -0.740322 -1.81373 0
M  V30 2171 H 209.309 -0.744382 0.0624804 0
M  V30 2172 H 211.971 -1.75179 0.854305 0
M  V30 2173 H 211.067 -3.11649 0.167641 0
M  V30 2174 N 211.368 -0.403325 -1.52352 0
M  V30 2175 C 212.614 0.167015 -2.02713 0
M  V30 2176 C 212.969 1.43296 -1.28391 0
M  V30 2177 O 212.262 1.87796 -0.379885 0
M  V30 2178 C 212.456 0.474665 -3.54234 0
M  V30 2179 C 212.285 -0.759909 -4.43233 0
M  V30 2180 C 211.055 -1.28338 -4.88731 0
M  V30 2181 C 213.253 -1.63634 -4.87574 0
M  V30 2182 N 211.235 -2.47404 -5.6184 0
M  V30 2183 C 212.606 -2.67329 -5.59406 0
M  V30 2184 C 214.661 -1.65478 -4.69597 0
M  V30 2185 C 213.364 -3.72773 -6.15169 0
M  V30 2186 C 215.39 -2.69837 -5.26253 0
M  V30 2187 C 214.752 -3.72253 -5.98002 0
M  V30 2188 H 210.851 0.0228343 -0.781667 0
M  V30 2189 H 213.435 -0.556368 -1.86581 0
M  V30 2190 H 211.606 1.16709 -3.7045 0
M  V30 2191 H 213.338 1.03338 -3.91284 0
M  V30 2192 H 210.093 -0.842273 -4.6605 0
M  V30 2193 H 210.517 -3.07688 -6.0304 0
M  V30 2194 H 215.159 -0.876389 -4.13617 0
M  V30 2195 H 212.877 -4.51471 -6.70223 0
M  V30 2196 H 216.463 -2.72164 -5.14216 0
M  V30 2197 H 215.343 -4.51679 -6.41058 0
M  V30 2198 N 212.846 1.57033 -0.133567 0
M  V30 2199 C 213.794 2.17348 0.828412 0
M  V30 2200 C 214.788 1.12671 1.26498 0
M  V30 2201 O 215.994 1.30947 1.23502 0
M  V30 2202 H 212.369 0.695775 0.285309 0
M  V30 2203 H 214.34 2.96935 0.295372 0
M  V30 2204 C 213.089 2.79893 2.06289 0
M  V30 2205 H 212.412 3.60147 1.73592 0
M  V30 2206 H 213.852 3.25615 2.71572 0
M  V30 2207 C 212.311 1.77713 2.86216 0
M  V30 2208 O 212.841 1.23937 3.82103 0
M  V30 2209 N 211.047 1.47321 2.50489 0
M  V30 2210 H 210.594 1.91243 1.7258 0
M  V30 2211 H 210.552 0.79199 3.04261 0
M  V30 2212 N 214.325 -0.140222 1.56975 0
M  V30 2213 C 215.55 -0.870414 1.88251 0
M  V30 2214 C 215.975 -1.73637 0.723312 0
M  V30 2215 O 215.333 -1.78329 -0.32689 0
M  V30 2216 C 215.381 -1.69737 3.18154 0
M  V30 2217 O 214.485 -2.80229 3.02565 0
M  V30 2218 H 213.826 -0.242025 0.61832 0
M  V30 2219 H 216.356 -0.128999 2.04193 0
M  V30 2220 H 216.366 -2.09099 3.50345 0
M  V30 2221 H 215.041 -1.06152 4.02125 0
M  V30 2222 H 213.618 -2.44224 2.81796 0
M  V30 2223 N 215.803 -1.52179 -0.40978 0
M  V30 2224 C 216.75 -1.75475 -1.49924 0
M  V30 2225 C 217.72 -0.597175 -1.54994 0
M  V30 2226 O 218.905 -0.834655 -1.71575 0
M  V30 2227 C 216.045 -1.9107 -2.87378 0
M  V30 2228 C 215.158 -3.18717 -2.91622 0
M  V30 2229 C 214.293 -3.24747 -4.20372 0
M  V30 2230 C 213.332 -4.46598 -4.18588 0
M  V30 2231 N 212.469 -4.50025 -5.38908 0
M  V30 2232 H 217.309 -2.68458 -1.29361 0
M  V30 2233 H 214.846 -1.33024 -0.627934 0
M  V30 2234 H 216.804 -1.98096 -3.6717 0
M  V30 2235 H 215.434 -1.01469 -3.06437 0
M  V30 2236 H 214.486 -3.20866 -2.04326 0
M  V30 2237 H 215.798 -4.08544 -2.86169 0
M  V30 2238 H 214.952 -3.30841 -5.08556 0
M  V30 2239 H 213.691 -2.32857 -4.28519 0
M  V30 2240 H 212.696 -4.40652 -3.28794 0
M  V30 2241 H 213.921 -5.39783 -4.12081 0
M  V30 2242 H 211.867 -3.61017 -5.47725 0
M  V30 2243 H 211.784 -5.33697 -5.35447 0
M  V30 2244 H 213.052 -4.60347 -6.29048 0
M  V30 2245 N 217.281 0.66697 -1.42791 0
M  V30 2246 C 218.558 1.4234 -1.34159 0
M  V30 2247 C 218.938 2.11093 0.0172729 0
M  V30 2248 O 218.286 2.03808 1.03318 0
M  V30 2249 C 218.496 2.41942 -2.51526 0
M  V30 2250 C 219.844 3.06353 -2.93995 0
M  V30 2251 O 220.868 2.52269 -2.51473 0
M  V30 2252 O 219.727 4.04376 -3.67617 0
M  V30 2253 H 216.821 0.635277 -0.529483 0
M  V30 2254 H 219.367 0.695034 -1.54814 0
M  V30 2255 H 218.139 1.89991 -3.42081 0
M  V30 2256 H 217.762 3.22249 -2.32898 0
M  V30 2257 N 218.759 1.29093 0.90403 0
M  V30 2258 C 219.984 1.19809 1.69294 0
M  V30 2259 C 220.409 -0.238481 1.86582 0
M  V30 2260 O 219.767 -1.1723 1.383 0
M  V30 2261 C 219.815 1.91202 3.05736 0
M  V30 2262 O 218.919 1.22611 3.93752 0
M  V30 2263 H 218.26 0.415385 0.518027 0
M  V30 2264 H 220.79 1.70586 1.12967 0
M  V30 2265 H 220.8 1.99487 3.55906 0
M  V30 2266 H 219.475 2.95692 2.92471 0
M  V30 2267 H 218.052 1.22554 3.52186 0
M  V30 2268 N 220.237 -1.11381 1.11499 0
M  V30 2269 C 221.2 -2.15622 0.777153 0
M  V30 2270 C 222.2 -1.59504 -0.203779 0
M  V30 2271 O 223.39 -1.74188 0.020782 0
M  V30 2272 C 220.522 -3.40556 0.153116 0
M  V30 2273 H 221.715 -2.47021 1.70061 0
M  V30 2274 H 219.268 -1.26577 0.916952 0
M  V30 2275 H 220.003 -3.14767 -0.780536 0
M  V30 2276 H 219.788 -3.8257 0.859238 0
M  V30 2277 H 221.278 -4.17546 -0.0671044 0
M  V30 2278 N 221.715 -0.905404 -1.28997 0
M  V30 2279 C 222.943 -0.549846 -1.9946 0
M  V30 2280 C 223.358 0.866834 -1.67724 0
M  V30 2281 O 222.715 1.57298 -0.925404 0
M  V30 2282 C 222.766 -0.739387 -3.53858 0
M  V30 2283 O 222.487 -2.10031 -3.84472 0
M  V30 2284 C 223.988 -0.389541 -4.41585 0
M  V30 2285 H 221.208 -0.210429 -0.637151 0
M  V30 2286 H 223.752 -1.21632 -1.64396 0
M  V30 2287 H 221.907 -0.120023 -3.87214 0
M  V30 2288 H 222.321 -2.13385 -4.79132 0
M  V30 2289 H 223.795 -0.572972 -5.49018 0
M  V30 2290 H 224.272 0.673756 -4.34001 0
M  V30 2291 H 224.878 -0.986089 -4.1371 0
M  V30 2292 N 223.193 1.4272 -0.668489 0
M  V30 2293 C 224.141 2.32586 0.0254857 0
M  V30 2294 C 225.135 1.49471 0.797176 0
M  V30 2295 O 226.341 1.65583 0.705853 0
M  V30 2296 H 222.716 0.751514 0.0270339 0
M  V30 2297 H 224.687 2.88823 -0.749936 0
M  V30 2298 C 223.436 3.3397 0.967427 0
M  V30 2299 H 222.759 3.97961 0.383048 0
M  V30 2300 H 224.199 3.9945 1.42181 0
M  V30 2301 C 222.658 2.65744 2.0708 0
M  V30 2302 O 223.188 2.48454 3.15648 0
M  V30 2303 N 221.394 2.2487 1.8407 0
M  V30 2304 H 220.941 2.39132 0.95778 0
M  V30 2305 H 220.899 1.79552 2.58086 0
M  V30 2306 N 224.671 0.411399 1.52136 0
M  V30 2307 C 225.619 -0.427633 2.28635 0
M  V30 2308 C 226.613 -1.04383 1.33419 0
M  V30 2309 O 227.819 -0.981772 1.50868 0
M  V30 2310 H 224.194 -0.156689 0.735495 0
M  V30 2311 H 226.165 0.238761 2.97443 0
M  V30 2312 C 224.914 -1.53082 3.12188 0
M  V30 2313 H 224.237 -1.06601 3.85326 0
M  V30 2314 H 225.677 -2.09167 3.68816 0
M  V30 2315 C 224.136 -2.49946 2.25895 0
M  V30 2316 O 224.666 -3.53884 1.90076 0
M  V30 2317 N 222.872 -2.2021 1.8962 0
M  V30 2318 H 222.419 -1.35719 2.18948 0
M  V30 2319 H 222.377 -2.85266 1.32176 0
M  V30 2320 N 226.149 -1.5696 0.141893 0
M  V30 2321 C 227.389 -1.9785 -0.513304 0
M  V30 2322 C 227.753 -1.02467 -1.62371 0
M  V30 2323 O 228.954 -1.32382 -2.33941 0
M  V30 2324 C 227.225 -3.42797 -1.01118 0
M  V30 2325 S 228.784 -4.05709 -1.67169 0
M  V30 2326 H 225.602 -0.691318 -0.166135 0
M  V30 2327 H 228.204 -1.94114 0.232398 0
M  V30 2328 H 226.908 -4.0995 -0.192179 0
M  V30 2329 H 226.439 -3.50235 -1.79162 0
M  V30 2330 H 228.454 -3.98342 -2.95868 0
M  V30 2331 N 227.627 0.131896 -1.57047 0
M  V30 2332 C 228.855 0.856461 -1.88341 0
M  V30 2333 C 229.27 1.74042 -0.731757 0
M  V30 2334 O 228.627 1.80051 0.297945 0
M  V30 2335 C 228.678 1.70064 -3.18999 0
M  V30 2336 O 228.399 0.852278 -4.2973 0
M  V30 2337 C 229.9 2.53148 -3.63911 0
M  V30 2338 H 227.12 0.246885 -0.62393 0
M  V30 2339 H 229.664 0.120152 -2.04147 0
M  V30 2340 H 227.819 2.38984 -3.04902 0
M  V30 2341 H 228.233 1.43329 -5.04537 0
M  V30 2342 H 229.707 3.07931 -4.58129 0
M  V30 2343 H 230.184 3.29901 -2.89935 0
M  V30 2344 H 230.79 1.89492 -3.80753 0
M  V30 2345 N 229.106 1.52395 0.401703 0
M  V30 2346 C 230.016 1.7917 1.51444 0
M  V30 2347 C 231.032 0.677691 1.6026 0
M  V30 2348 O 232.208 0.963909 1.76835 0
M  V30 2349 C 229.273 1.94347 2.87107 0
M  V30 2350 C 228.334 3.18257 2.88116 0
M  V30 2351 C 227.567 3.32701 4.17308 0
M  V30 2352 O 227.79 2.52238 5.11598 0
M  V30 2353 O 226.724 4.25891 4.25324 0
M  V30 2354 H 230.55 2.73633 1.31752 0
M  V30 2355 H 228.135 1.3733 0.588296 0
M  V30 2356 H 230.017 2.06109 3.67555 0
M  V30 2357 H 228.692 1.03073 3.06851 0
M  V30 2358 H 227.599 3.11947 2.06494 0
M  V30 2359 H 228.932 4.09336 2.73322 0
M  V30 2360 N 230.584 -0.659388 1.43143 0
M  V30 2361 C 231.995 -1.24041 1.39537 0
M  V30 2362 C 232.346 -1.95963 0.0963364 0
M  V30 2363 O 231.471 -2.00892 -0.804438 0
M  V30 2364 C 232.066 -2.25601 2.52764 0
M  V30 2365 C 230.625 -2.79195 2.52443 0
M  V30 2366 C 229.772 -1.53743 2.30778 0
M  V30 2367 H 232.723 -0.451792 1.52133 0
M  V30 2368 H 232.744 -3.07651 2.23899 0
M  V30 2369 H 232.256 -1.73226 3.47296 0
M  V30 2370 H 230.357 -3.35649 1.61773 0
M  V30 2371 H 230.47 -3.2716 3.50004 0
M  V30 2372 H 228.834 -1.80869 1.79328 0
M  V30 2373 H 229.617 -1.03312 3.27386 0
M  V30 2374 N 232.062 -1.29571 -0.897171 0
M  V30 2375 C 233.308 -1.18873 -1.65048 0
M  V30 2376 C 233.663 0.256707 -1.9068 0
M  V30 2377 O 232.956 1.18202 -1.50794 0
M  V30 2378 C 233.15 -1.9382 -3.00281 0
M  V30 2379 C 232.979 -3.45503 -2.8785 0
M  V30 2380 C 231.749 -4.14856 -2.88483 0
M  V30 2381 C 233.947 -4.40956 -2.64693 0
M  V30 2382 N 231.929 -5.52886 -2.66815 0
M  V30 2383 C 233.3 -5.66464 -2.5203 0
M  V30 2384 C 235.355 -4.3069 -2.49821 0
M  V30 2385 C 234.058 -6.82871 -2.26008 0
M  V30 2386 C 236.084 -5.46852 -2.25182 0
M  V30 2387 C 235.446 -6.71333 -2.13286 0
M  V30 2388 H 231.545 -0.489998 -0.609447 0
M  V30 2389 H 234.129 -1.63431 -1.05822 0
M  V30 2390 H 232.3 -1.51671 -3.57562 0
M  V30 2391 H 234.032 -1.75366 -3.64731 0
M  V30 2392 H 230.787 -3.66579 -2.99861 0
M  V30 2393 H 231.211 -6.25487 -2.59027 0
M  V30 2394 H 235.853 -3.35141 -2.5776 0
M  V30 2395 H 233.571 -7.78473 -2.16806 0
M  V30 2396 H 237.157 -5.40809 -2.14515 0
M  V30 2397 H 236.037 -7.59701 -1.94485 0
M  V30 2398 N 233.54 1.10788 -1.12088 0
M  V30 2399 C 234.817 1.79136 -0.785476 0
M  V30 2400 C 235.197 1.98246 0.725377 0
M  V30 2401 O 234.545 1.57258 1.65778 0
M  V30 2402 C 234.755 3.12375 -1.55636 0
M  V30 2403 C 236.103 3.8731 -1.74001 0
M  V30 2404 O 237.127 3.22085 -1.52117 0
M  V30 2405 O 235.986 5.04369 -2.10415 0
M  V30 2406 H 233.08 0.776226 -0.285311 0
M  V30 2407 H 235.626 1.1747 -1.2247 0
M  V30 2408 H 234.398 2.93863 -2.5838 0
M  V30 2409 H 234.021 3.81758 -1.11114 0
M  V30 2410 N 235.018 0.912232 1.28515 0
M  V30 2411 C 236.266 0.543523 1.94654 0
M  V30 2412 C 236.587 -0.9155 1.72173 0
M  V30 2413 O 235.857 -1.64708 1.06058 0
M  V30 2414 H 234.437 0.198017 0.720277 0
M  V30 2415 H 237.099 1.16126 1.56527 0
M  V30 2416 H 236.195 0.736684 3.03281 0
M  V30 2417 N 236.496 -1.42363 0.676048 0
M  V30 2418 C 237.724 -2.05859 0.207268 0
M  V30 2419 C 238.139 -1.50796 -1.13605 0
M  V30 2420 O 237.496 -0.648265 -1.70598 0
M  V30 2421 C 237.547 -3.61248 0.134975 0
M  V30 2422 O 237.268 -4.1427 1.42521 0
M  V30 2423 C 238.769 -4.41859 -0.357151 0
M  V30 2424 H 235.989 -0.663431 0.100503 0
M  V30 2425 H 238.533 -1.82479 0.923136 0
M  V30 2426 H 236.688 -3.83735 -0.531588 0
M  V30 2427 H 237.102 -5.0815 1.29939 0
M  V30 2428 H 238.576 -5.50847 -0.356641 0
M  V30 2429 H 239.053 -4.16536 -1.39264 0
M  V30 2430 H 239.659 -4.24392 0.27772 0
M  V30 2431 N 237.974 -0.419461 -1.51915 0
M  V30 2432 C 239.202 0.152136 -2.0634 0
M  V30 2433 C 239.617 1.37988 -1.28859 0
M  V30 2434 O 238.974 1.79243 -0.343232 0
M  V30 2435 C 239.025 0.492266 -3.58133 0
M  V30 2436 O 238.746 -0.686736 -4.32684 0
M  V30 2437 C 240.247 1.11648 -4.2901 0
M  V30 2438 H 237.467 0.0158325 -0.670813 0
M  V30 2439 H 240.011 -0.593394 -1.95702 0
M  V30 2440 H 238.166 1.18769 -3.68745 0
M  V30 2441 H 238.58 -0.400341 -5.2297 0
M  V30 2442 H 240.054 1.3046 -5.36362 0
M  V30 2443 H 240.531 2.09251 -3.86148 0
M  V30 2444 H 241.137 0.460958 -4.22795 0
M  V30 2445 N 239.452 1.56882 -0.150215 0
M  V30 2446 C 240.4 2.18214 0.805313 0
M  V30 2447 C 241.394 1.14006 1.25296 0
M  V30 2448 O 242.6 1.3225 1.22107 0
M  V30 2449 H 238.975 0.698762 0.277913 0
M  V30 2450 H 240.946 2.97231 0.263862 0
M  V30 2451 C 239.695 2.82065 2.03309 0
M  V30 2452 H 239.018 3.61968 1.69763 0
M  V30 2453 H 240.458 3.28477 2.68103 0
M  V30 2454 C 238.917 1.80739 2.84315 0
M  V30 2455 O 239.447 1.27983 3.80767 0
M  V30 2456 N 237.653 1.4997 2.48913 0
M  V30 2457 H 237.2 1.93062 1.70542 0
M  V30 2458 H 237.158 0.824217 3.03404 0
M  V30 2459 N 240.93 -0.123565 1.57115 0
M  V30 2460 C 241.84 -1.17074 2.033 0
M  V30 2461 C 242.856 -1.4561 0.952559 0
M  V30 2462 O 244.032 -1.56817 1.26374 0
M  V30 2463 C 241.097 -2.47857 2.42421 0
M  V30 2464 C 240.158 -2.26758 3.64526 0
M  V30 2465 C 239.391 -3.51305 4.01771 0
M  V30 2466 O 239.614 -4.5843 3.39409 0
M  V30 2467 O 238.548 -3.42578 4.94898 0
M  V30 2468 H 242.374 -0.808555 2.92739 0
M  V30 2469 H 239.959 -0.334027 1.45618 0
M  V30 2470 H 241.841 -3.2492 2.68338 0
M  V30 2471 H 240.516 -2.83558 1.5613 0
M  V30 2472 H 239.423 -1.47569 3.43765 0
M  V30 2473 H 240.756 -1.95963 4.51508 0
M  V30 2474 N 242.408 -1.52605 -0.393616 0
M  V30 2475 C 243.633 -1.71592 -1.16495 0
M  V30 2476 C 244.058 -0.43133 -1.83088 0
M  V30 2477 O 243.416 0.612523 -1.7064 0
M  V30 2478 C 243.464 -2.86318 -2.19213 0
M  V30 2479 O 242.568 -2.52969 -3.257 0
M  V30 2480 H 241.909 -0.570734 -0.33935 0
M  V30 2481 H 244.439 -1.99377 -0.459324 0
M  V30 2482 H 244.449 -3.1168 -2.63286 0
M  V30 2483 H 243.124 -3.79511 -1.7013 0
M  V30 2484 H 241.701 -2.38332 -2.86797 0
M  V30 2485 N 243.887 0.651787 -1.4349 0
M  V30 2486 C 245.127 1.42345 -1.46688 0
M  V30 2487 C 245.491 1.91793 -0.0891023 0
M  V30 2488 O 246.692 2.688 0.00423594 0
M  V30 2489 C 244.963 2.57221 -2.48137 0
M  V30 2490 S 246.522 3.45725 -2.70221 0
M  V30 2491 H 243.34 0.485878 -0.51908 0
M  V30 2492 H 245.942 0.756578 -1.80267 0
M  V30 2493 H 244.646 2.1917 -3.46976 0
M  V30 2494 H 244.177 3.28757 -2.16061 0
M  V30 2495 H 246.192 4.53996 -2.00255 0
M  V30 2496 N 245.365 1.30045 0.890287 0
M  V30 2497 C 246.605 1.19839 1.65584 0
M  V30 2498 C 246.969 -0.244175 1.90441 0
M  V30 2499 O 248.17 -0.469378 2.6467 0
M  V30 2500 C 246.441 1.99876 2.96284 0
M  V30 2501 S 248 2.06309 3.87275 0
M  V30 2502 H 244.818 0.427157 0.568382 0
M  V30 2503 H 247.42 1.64453 1.05715 0
M  V30 2504 H 246.124 3.03809 2.75913 0
M  V30 2505 H 245.655 1.55903 3.61189 0
M  V30 2506 H 247.67 1.18661 4.81803 0
M  V30 2507 N 246.843 -1.10192 1.12674 0
M  V30 2508 C 247.773 -2.18652 0.819362 0
M  V30 2509 C 248.754 -1.68698 -0.217915 0
M  V30 2510 O 249.939 -1.94041 -0.0785581 0
M  V30 2511 C 247.069 -3.46202 0.27594 0
M  V30 2512 C 246.023 -4.09444 1.24656 0
M  V30 2513 C 245.349 -5.31725 0.563258 0
M  V30 2514 C 246.649 -4.52863 2.60217 0
M  V30 2515 H 248.343 -2.44622 1.72628 0
M  V30 2516 H 245.889 -1.17571 0.831451 0
M  V30 2517 H 247.842 -4.21372 0.0486149 0
M  V30 2518 H 246.566 -3.1973 -0.666331 0
M  V30 2519 H 245.225 -3.36284 1.45974 0
M  V30 2520 H 244.873 -5.0153 -0.384235 0
M  V30 2521 H 244.573 -5.74991 1.21075 0
M  V30 2522 H 246.097 -6.09624 0.34503 0
M  V30 2523 H 247.511 -5.19294 2.42913 0
M  V30 2524 H 245.908 -5.06986 3.21068 0
M  V30 2525 H 246.978 -3.65656 3.18471 0
M  V30 2526 N 248.321 -0.919034 -1.28029 0
M  V30 2527 C 249.567 -0.555757 -1.95036 0
M  V30 2528 C 249.9 0.899198 -1.72128 0
M  V30 2529 O 249.175 1.64023 -1.04531 0
M  V30 2530 C 249.458 -0.872024 -3.49382 0
M  V30 2531 C 249.311 -2.3801 -3.81669 0
M  V30 2532 C 250.63 -0.37185 -4.38526 0
M  V30 2533 H 247.749 -0.203386 -0.708381 0
M  V30 2534 H 250.391 -1.14924 -1.51303 0
M  V30 2535 H 248.541 -0.366946 -3.86763 0
M  V30 2536 H 250.213 -2.9562 -3.54128 0
M  V30 2537 H 248.456 -2.83289 -3.28526 0
M  V30 2538 H 249.127 -2.55192 -4.8947 0
M  V30 2539 H 251.603 -0.804602 -4.08247 0
M  V30 2540 H 250.479 -0.622173 -5.45362 0
M  V30 2541 H 250.74 0.727934 -4.36066 0
M  V30 2542 N 249.799 1.42003 -0.683588 0
M  V30 2543 C 250.746 2.30798 -0.0107309 0
M  V30 2544 C 251.716 1.4645 0.783688 0
M  V30 2545 O 252.901 1.75263 0.754156 0
M  V30 2546 C 250.041 3.3238 0.928306 0
M  V30 2547 C 249.154 4.31814 0.126776 0
M  V30 2548 C 248.289 5.20468 1.06236 0
M  V30 2549 C 247.328 6.11577 0.253035 0
M  V30 2550 N 246.465 6.92754 1.14179 0
M  V30 2551 H 251.305 2.8778 -0.773727 0
M  V30 2552 H 248.842 1.41745 -0.393283 0
M  V30 2553 H 250.8 3.89813 1.48666 0
M  V30 2554 H 249.43 2.76976 1.65783 0
M  V30 2555 H 248.482 3.76427 -0.54833 0
M  V30 2556 H 249.794 4.96276 -0.501192 0
M  V30 2557 H 248.948 5.82677 1.69035 0
M  V30 2558 H 247.687 4.56204 1.7242 0
M  V30 2559 H 246.692 5.48428 -0.388108 0
M  V30 2560 H 247.917 6.77892 -0.404839 0
M  V30 2561 H 245.863 6.3111 1.78987 0
M  V30 2562 H 245.78 7.53855 0.569111 0
M  V30 2563 H 247.048 7.59441 1.75697 0
M  V30 2564 N 251.277 0.427512 1.51691 0
M  V30 2565 C 252.517 -0.141524 2.03909 0
M  V30 2566 C 252.881 -1.40811 1.30523 0
M  V30 2567 O 254.082 -2.05676 1.73063 0
M  V30 2568 C 252.353 -0.364962 3.55532 0
M  V30 2569 S 253.912 -0.898812 4.29496 0
M  V30 2570 H 250.73 -0.0364542 0.710065 0
M  V30 2571 H 253.332 0.584659 1.86553 0
M  V30 2572 H 252.036 0.56336 4.06515 0
M  V30 2573 H 251.567 -1.1185 3.77164 0
M  V30 2574 H 253.582 -2.17747 4.45871 0
M  V30 2575 N 252.755 -1.56801 0.158532 0
M  V30 2576 C 253.685 -2.20347 -0.772609 0
M  V30 2577 C 254.666 -1.15518 -1.24859 0
M  V30 2578 O 255.851 -1.43902 -1.30406 0
M  V30 2579 C 252.981 -2.83417 -2.00729 0
M  V30 2580 C 251.935 -3.94174 -1.66765 0
M  V30 2581 C 251.261 -4.44233 -2.97592 0
M  V30 2582 C 252.561 -5.14392 -0.905447 0
M  V30 2583 H 254.255 -2.98413 -0.242959 0
M  V30 2584 H 251.801 -1.43537 -0.115419 0
M  V30 2585 H 253.754 -3.26543 -2.6636 0
M  V30 2586 H 252.478 -2.02701 -2.56086 0
M  V30 2587 H 251.137 -3.51684 -1.03508 0
M  V30 2588 H 250.785 -3.60325 -3.50963 0
M  V30 2589 H 250.485 -5.18945 -2.75626 0
M  V30 2590 H 252.009 -4.90037 -3.64274 0
M  V30 2591 H 253.423 -5.5429 -1.46408 0
M  V30 2592 H 251.82 -5.9494 -0.7853 0
M  V30 2593 H 252.89 -4.84795 0.100668 0
M  V30 2594 N 254.233 0.115231 -1.57178 0
M  V30 2595 C 255.48 0.822351 -1.8505 0
M  V30 2596 C 255.808 1.79701 -0.744168 0
M  V30 2597 O 255.063 1.93909 0.26414 0
M  V30 2598 C 255.362 1.60324 -3.19423 0
M  V30 2599 C 255.028 0.772536 -4.44233 0
M  V30 2600 C 253.69 0.543468 -4.78121 0
M  V30 2601 C 256.042 0.193746 -5.2084 0
M  V30 2602 C 253.37 -0.274583 -5.86057 0
M  V30 2603 C 255.722 -0.611517 -6.29637 0
M  V30 2604 C 254.386 -0.850867 -6.62055 0
M  V30 2605 H 253.656 0.30092 -0.677147 0
M  V30 2606 H 256.303 0.0845802 -1.91313 0
M  V30 2607 H 254.608 2.41203 -3.08753 0
M  V30 2608 H 256.305 2.1544 -3.38211 0
M  V30 2609 H 252.895 0.96117 -4.17683 0
M  V30 2610 H 257.079 0.357926 -4.95008 0
M  V30 2611 H 252.335 -0.469206 -6.09597 0
M  V30 2612 H 256.509 -1.06697 -6.88178 0
M  V30 2613 H 254.136 -1.48657 -7.45523 0
M  V30 2614 N 255.711 1.52812 0.385517 0
M  V30 2615 C 256.621 1.80766 1.49535 0
M  V30 2616 C 257.637 0.694651 1.59532 0
M  V30 2617 O 258.813 0.982611 1.75803 0
M  V30 2618 C 255.878 1.97381 2.85029 0
M  V30 2619 C 254.939 3.21295 2.84724 0
M  V30 2620 C 254.172 3.37108 4.13756 0
M  V30 2621 O 254.395 2.5765 5.08893 0
M  V30 2622 O 253.329 4.30378 4.20783 0
M  V30 2623 H 257.155 2.75015 1.28842 0
M  V30 2624 H 254.74 1.37946 0.573697 0
M  V30 2625 H 256.622 2.09996 3.65349 0
M  V30 2626 H 255.297 1.06322 3.05741 0
M  V30 2627 H 254.204 3.1412 2.03174 0
M  V30 2628 H 255.537 4.12212 2.68965 0
M  V30 2629 N 257.189 -0.644168 1.43834 0
M  V30 2630 C 258.137 -1.77793 1.49974 0
M  V30 2631 C 259.131 -1.65253 0.372536 0
M  V30 2632 O 260.337 -1.7149 0.546924 0
M  V30 2633 H 256.712 -0.58675 0.47035 0
M  V30 2634 H 258.683 -1.69736 2.45423 0
M  V30 2635 C 257.432 -3.16087 1.4486 0
M  V30 2636 H 256.755 -3.26378 2.30905 0
M  V30 2637 H 258.195 -3.95349 1.53217 0
M  V30 2638 C 256.654 -3.36484 0.167463 0
M  V30 2639 O 257.184 -3.94298 -0.767609 0
M  V30 2640 N 255.39 -2.90504 0.0747556 0
M  V30 2641 H 254.937 -2.4364 0.836507 0
M  V30 2642 H 254.895 -3.04527 -0.781714 0
M  V30 2643 N 258.668 -1.30515 -0.883378 0
M  V30 2644 C 259.914 -1.19607 -1.63774 0
M  V30 2645 C 260.247 0.248314 -1.92606 0
M  V30 2646 O 259.522 1.17742 -1.54813 0
M  V30 2647 C 259.805 -2.02669 -2.97653 0
M  V30 2648 C 259.658 -3.55335 -2.75784 0
M  V30 2649 C 260.977 -1.86573 -3.98596 0
M  V30 2650 H 258.096 -0.435856 -0.594305 0
M  V30 2651 H 260.738 -1.60165 -1.02212 0
M  V30 2652 H 258.888 -1.68208 -3.50197 0
M  V30 2653 H 260.56 -3.99863 -2.30016 0
M  V30 2654 H 258.803 -3.79438 -2.1026 0
M  V30 2655 H 259.474 -4.08745 -3.70988 0
M  V30 2656 H 261.95 -2.16703 -3.55217 0
M  V30 2657 H 260.826 -2.47014 -4.90179 0
M  V30 2658 H 261.087 -0.825321 -4.34328 0
M  V30 2659 N 260.146 1.09593 -1.13257 0
M  V30 2660 C 261.392 1.82003 -0.89458 0
M  V30 2661 C 261.725 1.85402 0.577906 0
M  V30 2662 O 261 1.32099 1.42759 0
M  V30 2663 C 261.283 3.28237 -1.48096 0
M  V30 2664 C 261.136 3.3312 -3.02244 0
M  V30 2665 C 262.455 4.24871 -1.14774 0
M  V30 2666 H 259.574 0.66077 -0.326424 0
M  V30 2667 H 262.216 1.28389 -1.40058 0
M  V30 2668 H 260.366 3.74024 -1.05062 0
M  V30 2669 H 262.038 2.95748 -3.54021 0
M  V30 2670 H 260.281 2.72756 -3.37323 0
M  V30 2671 H 260.952 4.3613 -3.38371 0
M  V30 2672 H 263.428 3.87361 -1.51957 0
M  V30 2673 H 262.304 5.25532 -1.58452 0
M  V30 2674 H 262.565 4.42058 -0.0611849 0
M  V30 2675 N 261.624 0.925811 1.2754 0
M  V30 2676 C 263.035 0.610102 1.7645 0
M  V30 2677 C 263.386 -0.874723 1.75622 0
M  V30 2678 O 262.511 -1.68444 1.35851 0
M  V30 2679 C 263.106 1.10073 3.20421 0
M  V30 2680 C 261.665 0.835723 3.67005 0
M  V30 2681 C 260.812 1.26054 2.46993 0
M  V30 2682 H 263.763 1.10579 1.13833 0
M  V30 2683 H 263.784 0.447557 3.77859 0
M  V30 2684 H 263.296 2.18143 3.20991 0
M  V30 2685 H 261.397 -0.231249 3.71882 0
M  V30 2686 H 261.51 1.45193 4.56569 0
M  V30 2687 H 259.874 0.679111 2.45479 0
M  V30 2688 H 260.657 2.34984 2.50275 0
M  V30 2689 N 263.102 -1.41638 0.69111 0
M  V30 2690 C 264.035 -2.28183 -0.0274913 0
M  V30 2691 C 265.013 -1.41984 -0.792424 0
M  V30 2692 O 266.197 -1.71415 -0.784169 0
M  V30 2693 C 263.324 -3.22135 -1.04628 0
M  V30 2694 C 262.37 -4.24848 -0.375037 0
M  V30 2695 S 263.203 -5.28231 0.879321 0
M  V30 2696 C 264.359 -6.25748 -0.137983 0
M  V30 2697 H 264.592 -2.88782 0.706553 0
M  V30 2698 H 262.125 -1.46709 0.481222 0
M  V30 2699 H 264.083 -3.76797 -1.62894 0
M  V30 2700 H 262.744 -2.6064 -1.75287 0
M  V30 2701 H 261.937 -4.90837 -1.14433 0
M  V30 2702 H 261.539 -3.73758 0.134434 0
M  V30 2703 H 263.831 -6.70188 -0.992659 0
M  V30 2704 H 264.774 -7.06417 0.487867 0
M  V30 2705 H 265.182 -5.62363 -0.490762 0
M  V30 2706 N 264.58 -0.43555 -1.51462 0
M  V30 2707 C 265.805 0.132627 -2.06976 0
M  V30 2708 C 266.23 1.35848 -1.30104 0
M  V30 2709 O 265.588 1.78112 -0.338493 0
M  V30 2710 C 265.636 0.43523 -3.57964 0
M  V30 2711 O 264.74 1.52198 -3.83288 0
M  V30 2712 H 264.081 0.00265 -0.663995 0
M  V30 2713 H 266.611 -0.616369 -1.95095 0
M  V30 2714 H 266.621 0.686206 -4.02188 0
M  V30 2715 H 265.296 -0.460739 -4.1334 0
M  V30 2716 H 263.873 1.2611 -3.50928 0
M  V30 2717 N 266.058 1.56714 -0.166846 0
M  V30 2718 C 267.288 2.00828 0.48494 0
M  V30 2719 C 267.696 1.04612 1.57648 0
M  V30 2720 O 267.039 0.0383201 1.8366 0
M  V30 2721 C 267.101 3.4137 1.12723 0
M  V30 2722 C 266.765 4.56654 0.177886 0
M  V30 2723 C 267.762 5.16402 -0.60207 0
M  V30 2724 C 265.447 5.02244 0.0750139 0
M  V30 2725 C 267.441 6.20167 -1.47215 0
M  V30 2726 C 265.128 6.05859 -0.798649 0
M  V30 2727 C 266.126 6.64691 -1.57082 0
M  V30 2728 O 265.814 7.66297 -2.42989 0
M  V30 2729 H 265.546 0.663587 0.128953 0
M  V30 2730 H 268.1 2.03692 -0.264365 0
M  V30 2731 H 266.33 3.35406 1.92457 0
M  V30 2732 H 268.019 3.69466 1.68076 0
M  V30 2733 H 268.785 4.82065 -0.53274 0
M  V30 2734 H 264.664 4.56167 0.665812 0
M  V30 2735 H 268.208 6.66016 -2.07531 0
M  V30 2736 H 264.105 6.39621 -0.869199 0
M  V30 2737 H 264.873 7.83601 -2.36455 0
M  V30 2738 N 267.536 -0.106894 1.57237 0
M  V30 2739 C 268.469 -1.16125 1.96444 0
M  V30 2740 C 269.447 -1.3947 0.835871 0
M  V30 2741 O 270.631 -1.53425 1.09513 0
M  V30 2742 C 267.758 -2.51277 2.27107 0
M  V30 2743 C 266.804 -2.44285 3.4961 0
M  V30 2744 S 267.637 -1.87077 5.01759 0
M  V30 2745 C 268.793 -3.23877 5.35588 0
M  V30 2746 H 269.026 -0.826971 2.85567 0
M  V30 2747 H 266.559 -0.314124 1.51171 0
M  V30 2748 H 268.517 -3.29035 2.45451 0
M  V30 2749 H 267.178 -2.81879 1.38576 0
M  V30 2750 H 266.371 -3.4387 3.68469 0
M  V30 2751 H 265.973 -1.74652 3.30715 0
M  V30 2752 H 268.265 -4.20122 5.31511 0
M  V30 2753 H 269.208 -3.09833 6.36717 0
M  V30 2754 H 269.616 -3.22864 4.63054 0
M  V30 2755 N 269.014 -1.53014 -0.377408 0
M  V30 2756 C 270.26 -1.68872 -1.12294 0
M  V30 2757 C 270.593 -0.433224 -1.89306 0
M  V30 2758 O 269.868 0.569258 -1.85983 0
M  V30 2759 C 270.151 -2.93115 -2.09179 0
M  V30 2760 C 270.004 -4.28794 -1.35853 0
M  V30 2761 C 271.323 -3.12928 -3.09458 0
M  V30 2762 H 268.442 -0.614518 -0.406862 0
M  V30 2763 H 271.084 -1.85633 -0.40503 0
M  V30 2764 H 269.234 -2.78956 -2.70399 0
M  V30 2765 H 270.906 -4.54742 -0.775082 0
M  V30 2766 H 269.149 -4.28744 -0.660364 0
M  V30 2767 H 269.82 -5.11837 -2.06706 0
M  V30 2768 H 272.296 -3.26194 -2.58334 0
M  V30 2769 H 271.172 -4.01316 -3.74482 0
M  V30 2770 H 271.433 -2.27669 -3.78971 0
M  V30 2771 N 270.492 0.636531 -1.44174 0
M  V30 2772 C 271.722 1.42146 -1.49927 0
M  V30 2773 C 272.13 1.88812 -0.121063 0
M  V30 2774 O 271.473 1.61126 0.882267 0
M  V30 2775 C 271.535 2.67883 -2.39748 0
M  V30 2776 C 271.199 2.43048 -3.8701 0
M  V30 2777 C 272.196 2.05216 -4.77684 0
M  V30 2778 C 269.881 2.56856 -4.3166 0
M  V30 2779 C 271.875 1.81512 -6.11009 0
M  V30 2780 C 269.562 2.32766 -5.65034 0
M  V30 2781 C 270.56 1.95152 -6.54526 0
M  V30 2782 O 270.248 1.71326 -7.85431 0
M  V30 2783 H 269.98 0.442567 -0.51099 0
M  V30 2784 H 272.534 0.786158 -1.8976 0
M  V30 2785 H 270.764 3.34032 -1.94832 0
M  V30 2786 H 272.453 3.29874 -2.36513 0
M  V30 2787 H 273.219 1.94111 -4.44462 0
M  V30 2788 H 269.098 2.85104 -3.62266 0
M  V30 2789 H 272.642 1.52077 -6.80822 0
M  V30 2790 H 268.539 2.43479 -5.97819 0
M  V30 2791 H 269.307 1.85616 -7.97176 0
M  V30 2792 N 271.97 1.30982 0.876444 0
M  V30 2793 C 273.217 1.20296 1.62896 0
M  V30 2794 C 273.545 -0.240395 1.93009 0
M  V30 2795 O 272.8 -1.18733 1.55567 0
M  V30 2796 C 273.099 1.98572 2.9716 0
M  V30 2797 C 272.765 3.48125 2.86566 0
M  V30 2798 C 271.427 3.88905 2.83383 0
M  V30 2799 C 273.779 4.43322 2.74071 0
M  V30 2800 C 271.107 5.2316 2.65556 0
M  V30 2801 C 273.459 5.77695 2.57781 0
M  V30 2802 C 272.123 6.17704 2.52979 0
M  V30 2803 H 271.393 0.440193 0.59608 0
M  V30 2804 H 274.04 1.62177 1.01837 0
M  V30 2805 H 272.345 1.49352 3.62217 0
M  V30 2806 H 274.042 1.8769 3.54364 0
M  V30 2807 H 270.632 3.15723 2.89856 0
M  V30 2808 H 274.816 4.12752 2.75589 0
M  V30 2809 H 270.072 5.53241 2.60259 0
M  V30 2810 H 274.246 6.51091 2.47089 0
M  V30 2811 H 271.873 7.21678 2.38924 0
M  V30 2812 N 273.449 -1.08991 1.13837 0
M  V30 2813 C 274.397 -2.17841 0.815347 0
M  V30 2814 C 275.391 -1.68164 -0.204233 0
M  V30 2815 O 276.597 -1.79897 -0.0609304 0
M  V30 2816 H 272.972 -0.710654 0.245915 0
M  V30 2817 H 274.943 -2.42315 1.74143 0
M  V30 2818 C 273.692 -3.46381 0.302614 0
M  V30 2819 H 273.015 -3.84979 1.0785 0
M  V30 2820 H 274.455 -4.23844 0.115074 0
M  V30 2821 C 272.914 -3.22556 -0.972591 0
M  V30 2822 O 273.444 -3.45599 -2.04754 0
M  V30 2823 N 271.65 -2.76134 -0.905455 0
M  V30 2824 H 271.197 -2.57582 -0.0305421 0
M  V30 2825 H 271.155 -2.60571 -1.75926 0
M  V30 2826 N 274.927 -0.932562 -1.27047 0
M  V30 2827 C 276.174 -0.575559 -1.94148 0
M  V30 2828 C 276.502 0.883984 -1.73251 0
M  V30 2829 O 275.757 1.64655 -1.0577 0
M  V30 2830 C 276.056 -0.853713 -3.47054 0
M  V30 2831 C 275.722 -2.29577 -3.88079 0
M  V30 2832 C 274.384 -2.68999 -3.9899 0
M  V30 2833 C 276.736 -3.23331 -4.08787 0
M  V30 2834 C 274.064 -4.01289 -4.28 0
M  V30 2835 C 276.416 -4.55207 -4.39282 0
M  V30 2836 C 275.08 -4.94457 -4.48407 0
M  V30 2837 H 274.35 -0.210612 -0.710439 0
M  V30 2838 H 276.997 -1.17744 -1.51025 0
M  V30 2839 H 275.302 -0.169204 -3.91434 0
M  V30 2840 H 276.999 -0.55639 -3.97121 0
M  V30 2841 H 273.589 -1.97994 -3.80127 0
M  V30 2842 H 277.773 -2.94074 -3.99793 0
M  V30 2843 H 273.029 -4.31374 -4.33275 0
M  V30 2844 H 277.203 -5.27852 -4.54252 0
M  V30 2845 H 274.83 -5.96994 -4.7064 0
M  V30 2846 N 276.405 1.4127 -0.698611 0
M  V30 2847 C 277.652 2.0118 -0.230865 0
M  V30 2848 C 277.98 1.55338 1.17049 0
M  V30 2849 O 277.235 0.756775 1.80475 0
M  V30 2850 C 277.534 3.56592 -0.240192 0
M  V30 2851 C 277.2 4.21955 -1.58948 0
M  V30 2852 C 275.862 4.39524 -1.95887 0
M  V30 2853 C 278.214 4.58576 -2.47704 0
M  V30 2854 C 275.542 4.90992 -3.2116 0
M  V30 2855 C 277.894 5.11435 -3.72313 0
M  V30 2856 C 276.558 5.27215 -4.0939 0
M  V30 2857 H 275.828 0.736169 -0.0844796 0
M  V30 2858 H 278.475 1.69124 -0.8983 0
M  V30 2859 H 276.78 3.88456 0.510797 0
M  V30 2860 H 278.477 4.00758 0.139296 0
M  V30 2861 H 275.067 4.08657 -1.29219 0
M  V30 2862 H 279.251 4.44654 -2.20445 0
M  V30 2863 H 274.507 5.01393 -3.49878 0
M  V30 2864 H 278.681 5.38752 -4.4127 0
M  V30 2865 H 276.308 5.66859 -5.06533 0
M  V30 2866 N 277.883 0.443576 1.51229 0
M  V30 2867 C 279.131 -0.120557 2.0174 0
M  V30 2868 C 279.452 -1.42665 1.32935 0
M  V30 2869 O 278.722 -1.9028 0.465866 0
M  V30 2870 H 277.302 -0.0475426 0.745486 0
M  V30 2871 H 279.964 0.587711 1.85828 0
M  V30 2872 H 279.06 -0.291972 3.10731 0
M  V30 2873 N 279.361 -1.56624 0.175154 0
M  V30 2874 C 280.601 -1.98894 -0.471221 0
M  V30 2875 C 280.965 -1.05889 -1.60161 0
M  V30 2876 O 282.166 -1.37315 -2.3108 0
M  V30 2877 C 280.437 -3.44865 -0.938241 0
M  V30 2878 S 281.996 -4.09164 -1.58526 0
M  V30 2879 H 278.814 -0.694686 -0.151434 0
M  V30 2880 H 281.416 -1.93577 0.27352 0
M  V30 2881 H 280.12 -4.10265 -0.10518 0
M  V30 2882 H 279.651 -3.53956 -1.71693 0
M  V30 2883 H 281.666 -4.04528 -2.87352 0
M  V30 2884 N 280.839 0.0985539 -1.57292 0
M  V30 2885 C 282.085 0.803867 -1.86188 0
M  V30 2886 C 282.418 1.78549 -0.763794 0
M  V30 2887 O 281.693 1.93153 0.22855 0
M  V30 2888 C 281.976 1.53568 -3.25713 0
M  V30 2889 C 281.829 0.572277 -4.46145 0
M  V30 2890 C 283.148 2.48708 -3.63087 0
M  V30 2891 H 280.267 0.290781 -0.677211 0
M  V30 2892 H 282.909 0.0675783 -1.8988 0
M  V30 2893 H 281.059 2.16332 -3.22696 0
M  V30 2894 H 282.731 -0.0480894 -4.61275 0
M  V30 2895 H 280.974 -0.114618 -4.33649 0
M  V30 2896 H 281.645 1.12139 -5.40489 0
M  V30 2897 H 284.121 1.96039 -3.67026 0
M  V30 2898 H 282.997 2.96932 -4.61652 0
M  V30 2899 H 283.258 3.32309 -2.91588 0
M  V30 2900 N 282.317 1.53212 0.369288 0
M  V30 2901 C 283.247 1.82365 1.45826 0
M  V30 2902 C 284.228 0.676907 1.56051 0
M  V30 2903 O 285.413 0.926401 1.70679 0
M  V30 2904 C 282.543 2.01023 2.83208 0
M  V30 2905 C 281.497 3.1678 2.8781 0
M  V30 2906 C 280.823 3.20724 4.27832 0
M  V30 2907 C 282.123 4.55447 2.55667 0
M  V30 2908 H 283.817 2.73559 1.21678 0
M  V30 2909 H 281.363 1.3163 0.583911 0
M  V30 2910 H 283.316 2.20001 3.59413 0
M  V30 2911 H 282.04 1.06536 3.08736 0
M  V30 2912 H 280.699 2.97616 2.14056 0
M  V30 2913 H 280.347 2.23882 4.50429 0
M  V30 2914 H 280.047 3.98496 4.31827 0
M  V30 2915 H 281.571 3.41881 5.05915 0
M  V30 2916 H 282.985 4.74611 3.21586 0
M  V30 2917 H 281.382 5.35432 2.70984 0
M  V30 2918 H 282.452 4.60812 1.5093 0
M  V30 2919 N 283.795 -0.628877 1.44509 0
M  V30 2920 C 285.206 -1.21054 1.42137 0
M  V30 2921 C 285.557 -1.95715 0.137881 0
M  V30 2922 O 284.682 -2.02554 -0.761645 0
M  V30 2923 C 285.277 -2.20189 2.57493 0
M  V30 2924 C 283.836 -2.73777 2.58308 0
M  V30 2925 C 282.983 -1.48813 2.33987 0
M  V30 2926 H 285.934 -0.41942 1.53057 0
M  V30 2927 H 285.955 -3.02833 2.30375 0
M  V30 2928 H 285.467 -1.6582 3.50892 0
M  V30 2929 H 283.568 -3.32142 1.68856 0
M  V30 2930 H 283.681 -3.19662 3.56865 0
M  V30 2931 H 282.045 -1.77024 1.83124 0
M  V30 2932 H 282.828 -0.963442 3.29504 0
M  V30 2933 N 285.273 -1.31445 -0.869486 0
M  V30 2934 C 286.684 -1.19042 -1.43826 0
M  V30 2935 C 287.035 0.202919 -1.95148 0
M  V30 2936 O 286.16 1.10071 -1.86315 0
M  V30 2937 C 286.755 -2.15499 -2.6143 0
M  V30 2938 C 285.314 -2.07028 -3.14351 0
M  V30 2939 C 284.461 -2.04701 -1.87063 0
M  V30 2940 H 287.412 -1.43489 -0.677984 0
M  V30 2941 H 287.433 -1.74488 -3.38134 0
M  V30 2942 H 286.945 -3.16899 -2.24046 0
M  V30 2943 H 285.046 -1.08825 -3.56354 0
M  V30 2944 H 285.159 -2.96157 -3.766 0
M  V30 2945 H 283.523 -1.49724 -2.06046 0
M  V30 2946 H 284.306 -3.07857 -1.51917 0
M  V30 2947 N 286.751 1.08385 -1.14413 0
M  V30 2948 C 287.681 2.17321 -0.854044 0
M  V30 2949 C 288.662 1.69024 0.191049 0
M  V30 2950 O 289.847 1.94141 0.0476779 0
M  V30 2951 C 286.977 3.45719 -0.330983 0
M  V30 2952 C 285.931 4.07409 -1.31155 0
M  V30 2953 C 285.257 5.30762 -0.64778 0
M  V30 2954 C 286.557 4.48665 -2.67388 0
M  V30 2955 H 288.251 2.41845 -1.76498 0
M  V30 2956 H 285.797 1.16233 -0.850051 0
M  V30 2957 H 287.75 4.21241 -0.115645 0
M  V30 2958 H 286.474 3.2075 0.615381 0
M  V30 2959 H 285.133 3.33919 -1.51306 0
M  V30 2960 H 284.781 5.02078 0.304398 0
M  V30 2961 H 284.481 5.72992 -1.30207 0
M  V30 2962 H 286.005 6.08998 -0.441972 0
M  V30 2963 H 287.419 5.15364 -2.51143 0
M  V30 2964 H 285.816 5.01814 -3.29093 0
M  V30 2965 H 286.886 3.60543 -3.24248 0
M  V30 2966 N 288.23 0.939286 1.26551 0
M  V30 2967 C 289.16 0.465044 2.28822 0
M  V30 2968 C 290.141 -0.480692 1.63167 0
M  V30 2969 O 291.326 -0.382955 1.90387 0
M  V30 2970 C 288.456 -0.27234 3.46231 0
M  V30 2971 C 287.41 0.58666 4.2396 0
M  V30 2972 C 286.736 -0.280573 5.33963 0
M  V30 2973 C 288.036 1.85704 4.88171 0
M  V30 2974 H 289.73 1.31979 2.68741 0
M  V30 2975 H 287.276 0.636061 1.29191 0
M  V30 2976 H 289.229 -0.615133 4.16886 0
M  V30 2977 H 287.953 -1.16121 3.0526 0
M  V30 2978 H 286.612 0.91232 3.55067 0
M  V30 2979 H 286.26 -1.16874 4.89234 0
M  V30 2980 H 285.96 0.29076 5.8688 0
M  V30 2981 H 287.484 -0.618678 6.07458 0
M  V30 2982 H 288.898 1.58161 5.51052 0
M  V30 2983 H 287.295 2.37279 5.51197 0
M  V30 2984 H 288.365 2.56957 4.11219 0
M  V30 2985 N 289.708 -1.40897 0.706093 0
M  V30 2986 C 290.957 -2.00284 0.238574 0
M  V30 2987 C 291.27 -1.56604 -1.17194 0
M  V30 2988 O 292.476 -2.08624 -1.73748 0
M  V30 2989 C 290.932 -3.57934 0.375623 0
M  V30 2990 C 290.54 -4.10591 1.79217 0
M  V30 2991 C 292.284 -4.24488 -0.0315857 0
M  V30 2992 C 290.191 -5.60712 1.88032 0
M  V30 2993 H 289.121 -0.749144 0.0854398 0
M  V30 2994 H 291.772 -1.61251 0.875813 0
M  V30 2995 H 290.154 -3.94622 -0.330042 0
M  V30 2996 H 291.328 -3.85301 2.52745 0
M  V30 2997 H 289.643 -3.56601 2.15 0
M  V30 2998 H 292.24 -5.34698 0.0136842 0
M  V30 2999 H 292.583 -4.02261 -1.072 0
M  V30 3000 H 293.116 -3.92873 0.624181 0
M  V30 3001 H 289.855 -5.87781 2.90161 0
M  V30 3002 H 289.375 -5.87896 1.18903 0
M  V30 3003 H 291.054 -6.25658 1.64805 0
M  V30 3004 N 291.186 -0.45159 -1.50991 0
M  V30 3005 C 292.119 0.398179 -2.24699 0
M  V30 3006 C 293.097 1.01276 -1.27208 0
M  V30 3007 O 294.281 1.05247 -1.56382 0
M  V30 3008 C 291.408 1.55618 -3.00833 0
M  V30 3009 C 290.454 1.0609 -4.13095 0
M  V30 3010 S 291.287 -0.00865136 -5.35499 0
M  V30 3011 C 292.443 1.15369 -6.15175 0
M  V30 3012 H 292.676 -0.227555 -2.96428 0
M  V30 3013 H 290.209 -0.236251 -1.52582 0
M  V30 3014 H 292.167 2.21997 -3.45293 0
M  V30 3015 H 290.828 2.15337 -2.28667 0
M  V30 3016 H 290.021 1.92726 -4.65696 0
M  V30 3017 H 289.623 0.47513 -3.7097 0
M  V30 3018 H 291.915 2.06925 -6.45126 0
M  V30 3019 H 292.858 0.667344 -7.04948 0
M  V30 3020 H 293.266 1.3987 -5.46897 0
M  V30 3021 N 292.664 1.56529 -0.183458 0
M  V30 3022 C 293.594 2.21549 0.737456 0
M  V30 3023 C 294.575 1.17489 1.23005 0
M  V30 3024 O 295.76 1.45959 1.281 0
M  V30 3025 C 292.89 2.86575 1.96194 0
M  V30 3026 C 291.844 3.96778 1.60473 0
M  V30 3027 C 291.17 4.48911 2.90487 0
M  V30 3028 C 292.47 5.15767 0.823497 0
M  V30 3029 H 294.164 2.98761 0.195453 0
M  V30 3030 H 291.71 1.43702 0.0925686 0
M  V30 3031 H 293.663 3.30739 2.61131 0
M  V30 3032 H 292.387 2.06749 2.52828 0
M  V30 3033 H 291.046 3.53286 0.978997 0
M  V30 3034 H 290.694 3.65862 3.45186 0
M  V30 3035 H 290.394 5.23265 2.67335 0
M  V30 3036 H 291.918 4.95771 3.56432 0
M  V30 3037 H 293.332 5.56549 1.37571 0
M  V30 3038 H 291.729 5.96114 0.690551 0
M  V30 3039 H 292.799 4.84574 -0.177782 0
M  V30 3040 N 294.142 -0.090211 1.57342 0
M  V30 3041 C 295.388 -0.793982 1.86611 0
M  V30 3042 C 295.721 -1.78142 0.773252 0
M  V30 3043 O 294.996 -1.93271 -0.218304 0
M  V30 3044 C 295.279 -1.51839 3.26523 0
M  V30 3045 C 295.132 -0.548609 4.46442 0
M  V30 3046 C 296.451 -2.46779 3.64401 0
M  V30 3047 H 293.57 -0.287186 0.678744 0
M  V30 3048 H 296.212 -0.0575076 1.89913 0
M  V30 3049 H 294.362 -2.14617 3.23839 0
M  V30 3050 H 296.034 0.0725513 4.61243 0
M  V30 3051 H 294.277 0.137614 4.33582 0
M  V30 3052 H 294.948 -1.09271 5.41076 0
M  V30 3053 H 297.424 -1.94089 3.68061 0
M  V30 3054 H 296.3 -2.94479 4.63221 0
M  V30 3055 H 296.561 -3.30758 2.93346 0
M  V30 3056 N 295.62 -1.53406 -0.361157 0
M  V30 3057 C 296.869 -1.69022 -1.10066 0
M  V30 3058 C 297.182 -0.450838 -1.90333 0
M  V30 3059 O 298.388 -0.487617 -2.67085 0
M  V30 3060 C 296.844 -2.98812 -2.00598 0
M  V30 3061 C 296.452 -4.30027 -1.25621 0
M  V30 3062 C 298.196 -3.23795 -2.74513 0
M  V30 3063 C 296.103 -5.50903 -2.1508 0
M  V30 3064 H 295.033 -0.629776 -0.414606 0
M  V30 3065 H 297.684 -1.79907 -0.361348 0
M  V30 3066 H 296.066 -2.8174 -2.78278 0
M  V30 3067 H 297.24 -4.57745 -0.529739 0
M  V30 3068 H 295.555 -4.11522 -0.635496 0
M  V30 3069 H 298.152 -4.11289 -3.41681 0
M  V30 3070 H 298.495 -2.40045 -3.40123 0
M  V30 3071 H 299.028 -3.41561 -2.03914 0
M  V30 3072 H 295.767 -6.37143 -1.54041 0
M  V30 3073 H 295.287 -5.27459 -2.85565 0
M  V30 3074 H 296.966 -5.85865 -2.74538 0
M  V30 3075 N 297.098 0.621204 -1.44841 0
M  V30 3076 C 298.328 1.40548 -1.51426 0
M  V30 3077 C 298.736 1.88673 -0.141083 0
M  V30 3078 O 298.079 1.62053 0.865128 0
M  V30 3079 C 298.141 2.65325 -2.42576 0
M  V30 3080 C 297.805 2.3893 -3.89566 0
M  V30 3081 C 298.802 2.00138 -4.79834 0
M  V30 3082 C 296.487 2.52263 -4.3436 0
M  V30 3083 C 298.481 1.75021 -6.129 0
M  V30 3084 C 296.168 2.2676 -5.67471 0
M  V30 3085 C 297.166 1.88199 -6.56559 0
M  V30 3086 O 296.854 1.62986 -7.87204 0
M  V30 3087 H 296.586 0.437122 -0.515655 0
M  V30 3088 H 299.14 0.765987 -1.90583 0
M  V30 3089 H 297.37 3.31947 -1.98364 0
M  V30 3090 H 299.059 3.27347 -2.39998 0
M  V30 3091 H 299.825 1.89386 -4.46495 0
M  V30 3092 H 295.704 2.81246 -3.65269 0
M  V30 3093 H 299.248 1.44848 -6.82396 0
M  V30 3094 H 295.145 2.37125 -6.00368 0
M  V30 3095 H 295.913 1.7715 -7.991 0
M  V30 3096 N 298.576 1.31904 0.862503 0
M  V30 3097 C 299.825 1.21373 1.61094 0
M  V30 3098 C 300.138 -0.22504 1.94301 0
M  V30 3099 O 301.344 -0.452121 2.67709 0
M  V30 3100 C 299.8 2.12525 2.9045 0
M  V30 3101 C 299.408 3.61441 2.64697 0
M  V30 3102 C 301.152 2.10813 3.68454 0
M  V30 3103 C 299.059 4.44578 3.90006 0
M  V30 3104 H 297.989 0.450705 0.604468 0
M  V30 3105 H 300.64 1.56811 0.953027 0
M  V30 3106 H 299.022 1.69994 3.57656 0
M  V30 3107 H 300.196 4.12264 2.05851 0
M  V30 3108 H 298.511 3.65205 2.00036 0
M  V30 3109 H 301.108 2.70167 4.61426 0
M  V30 3110 H 301.451 1.09713 4.01583 0
M  V30 3111 H 301.984 2.51583 3.08141 0
M  V30 3112 H 298.723 5.46461 3.62023 0
M  V30 3113 H 298.243 3.98508 4.48276 0
M  V30 3114 H 299.922 4.57176 4.5782 0
M  V30 3115 N 300.054 -1.07777 1.14986 0
M  V30 3116 C 301.001 -2.14867 0.842672 0
M  V30 3117 C 301.971 -1.6486 -0.202552 0
M  V30 3118 O 303.156 -1.90668 -0.0710568 0
M  V30 3119 C 300.296 -3.43486 0.333363 0
M  V30 3120 C 299.409 -4.07306 1.43965 0
M  V30 3121 C 298.544 -5.23744 0.886914 0
M  V30 3122 C 297.583 -5.79517 1.97043 0
M  V30 3123 N 296.72 -6.87291 1.4344 0
M  V30 3124 H 301.56 -2.40485 1.75986 0
M  V30 3125 H 299.097 -1.1801 0.878179 0
M  V30 3126 H 301.055 -4.17195 0.0198163 0
M  V30 3127 H 299.685 -3.18133 -0.546916 0
M  V30 3128 H 298.737 -3.31293 1.86946 0
M  V30 3129 H 300.049 -4.44771 2.25788 0
M  V30 3130 H 299.203 -6.04419 0.525651 0
M  V30 3131 H 297.942 -4.87685 0.0377957 0
M  V30 3132 H 296.947 -4.97491 2.34057 0
M  V30 3133 H 298.172 -6.17632 2.82325 0
M  V30 3134 H 296.118 -6.5318 0.607567 0
M  V30 3135 H 296.035 -7.23617 2.18895 0
M  V30 3136 H 297.303 -7.71682 1.10124 0
M  V30 3137 N 301.532 -0.945985 -1.26051 0
M  V30 3138 C 302.781 -0.591836 -1.92822 0
M  V30 3139 C 303.094 0.873956 -1.7499 0
M  V30 3140 O 304.3 1.33769 -2.36259 0
M  V30 3141 C 302.756 -1.00776 -3.45503 0
M  V30 3142 C 302.364 -2.4955 -3.7206 0
M  V30 3143 C 304.108 -0.725735 -4.1825 0
M  V30 3144 C 302.015 -2.84988 -5.18205 0
M  V30 3145 H 300.945 -0.217635 -0.721908 0
M  V30 3146 H 303.596 -1.14927 -1.43052 0
M  V30 3147 H 301.978 -0.378812 -3.94184 0
M  V30 3148 H 303.152 -3.1739 -3.34066 0
M  V30 3149 H 301.467 -2.75133 -3.12555 0
M  V30 3150 H 304.064 -0.966771 -5.25887 0
M  V30 3151 H 304.407 0.337639 -4.14929 0
M  V30 3152 H 304.94 -1.31463 -3.7545 0
M  V30 3153 H 301.679 -3.90307 -5.26631 0
M  V30 3154 H 301.199 -2.21813 -5.57278 0
M  V30 3155 H 302.878 -2.73712 -5.86252 0
M  V30 3156 N 303.011 1.40521 -0.713556 0
M  V30 3157 C 304.258 2.00923 -0.25219 0
M  V30 3158 C 304.586 1.56571 1.15395 0
M  V30 3159 O 303.841 0.775874 1.79663 0
M  V30 3160 C 304.14 3.56317 -0.278 0
M  V30 3161 C 303.806 4.20246 -1.63415 0
M  V30 3162 C 302.468 4.37422 -2.00538 0
M  V30 3163 C 304.82 4.55923 -2.52554 0
M  V30 3164 C 302.148 4.87558 -3.2635 0
M  V30 3165 C 304.5 5.07458 -3.77716 0
M  V30 3166 C 303.164 5.22843 -4.14959 0
M  V30 3167 H 302.434 0.735231 -0.0922829 0
M  V30 3168 H 305.081 1.68161 -0.916188 0
M  V30 3169 H 303.386 3.88976 0.469567 0
M  V30 3170 H 305.083 4.00883 0.0967819 0
M  V30 3171 H 301.673 4.07263 -1.33546 0
M  V30 3172 H 305.857 4.42291 -2.25149 0
M  V30 3173 H 301.113 4.97654 -3.55176 0
M  V30 3174 H 305.287 5.34041 -4.4696 0
M  V30 3175 H 302.914 5.61454 -5.12516 0
M  V30 3176 N 304.489 0.459591 1.5075 0
M  V30 3177 C 305.419 -0.330644 2.31147 0
M  V30 3178 C 306.4 -1.00087 1.37538 0
M  V30 3179 O 307.585 -1.00025 1.66459 0
M  V30 3180 C 304.715 -1.41958 3.16962 0
M  V30 3181 C 303.669 -0.871608 4.19031 0
M  V30 3182 C 302.995 -2.05797 4.9351 0
M  V30 3183 C 304.295 0.109251 5.22186 0
M  V30 3184 H 305.989 0.340336 2.97459 0
M  V30 3185 H 303.535 0.165119 1.4305 0
M  V30 3186 H 305.488 -1.9798 3.71997 0
M  V30 3187 H 304.212 -2.11917 2.48513 0
M  V30 3188 H 302.871 -0.333442 3.6508 0
M  V30 3189 H 302.519 -2.74427 4.21544 0
M  V30 3190 H 302.219 -1.6976 5.62544 0
M  V30 3191 H 303.743 -2.62331 5.51375 0
M  V30 3192 H 305.157 -0.361405 5.7216 0
M  V30 3193 H 303.554 0.383316 5.98875 0
M  V30 3194 H 304.624 1.03887 4.73641 0
M  V30 3195 N 305.967 -1.56429 0.191757 0
M  V30 3196 C 307.213 -1.97777 -0.448554 0
M  V30 3197 C 307.546 -1.07847 -1.61501 0
M  V30 3198 O 306.821 -0.129774 -1.94067 0
M  V30 3199 C 307.104 -3.48362 -0.911906 0
M  V30 3200 C 306.957 -4.4907 0.256136 0
M  V30 3201 C 308.276 -4.02561 -1.77857 0
M  V30 3202 H 305.395 -0.719071 -0.161572 0
M  V30 3203 H 308.037 -1.87896 0.282007 0
M  V30 3204 H 306.187 -3.56914 -1.53442 0
M  V30 3205 H 307.859 -4.5256 0.893733 0
M  V30 3206 H 306.102 -4.24181 0.908436 0
M  V30 3207 H 306.773 -5.51889 -0.11053 0
M  V30 3208 H 309.249 -3.96767 -1.25359 0
M  V30 3209 H 308.125 -5.08301 -2.07174 0
M  V30 3210 H 308.386 -3.47616 -2.73158 0
M  V30 3211 N 307.445 0.0818655 -1.57387 0
M  V30 3212 C 308.408 1.08265 -2.02018 0
M  V30 3213 C 309.408 1.32183 -0.915664 0
M  V30 3214 O 310.598 1.28073 -1.18081 0
M  V30 3215 C 307.73 2.42871 -2.39221 0
M  V30 3216 H 308.923 0.698204 -2.91659 0
M  V30 3217 H 306.476 0.327303 -1.52835 0
M  V30 3218 H 307.211 2.86167 -1.52575 0
M  V30 3219 H 306.996 2.26855 -3.19811 0
M  V30 3220 H 308.486 3.14826 -2.74362 0
M  V30 3221 N 308.923 1.53595 0.353017 0
M  V30 3222 C 310.163 1.72094 1.10286 0
M  V30 3223 C 310.527 0.469217 1.86178 0
M  V30 3224 O 311.728 0.531083 2.63501 0
M  V30 3225 C 309.999 2.94386 2.02661 0
M  V30 3226 S 311.558 3.33651 2.84996 0
M  V30 3227 H 308.376 0.605433 0.372789 0
M  V30 3228 H 310.978 1.91722 0.38248 0
M  V30 3229 H 309.682 3.83669 1.45691 0
M  V30 3230 H 309.213 2.77197 2.79152 0
M  V30 3231 H 311.228 2.86645 4.0503 0
M  V30 3232 N 310.401 -0.613514 1.45168 0
M  V30 3233 C 311.817 -0.933629 1.29443 0
M  V30 3234 C 312.017 -2.00028 0.243101 0
M  V30 3235 O 311.073 -2.49848 -0.364992 0
M  V30 3236 C 312.386 -1.38018 2.67155 0
M  V30 3237 C 313.934 -1.49471 2.75004 0
M  V30 3238 C 314.409 -1.97503 4.13227 0
M  V30 3239 N 315.9 -2.04746 4.15491 0
M  V30 3240 C 316.635 -2.43121 5.19307 0
M  V30 3241 N 316.131 -2.80506 6.33473 0
M  V30 3242 N 317.924 -2.43408 5.06664 0
M  V30 3243 H 310.075 0.0916097 2.12202 0
M  V30 3244 H 312.338 -0.0216655 0.947752 0
M  V30 3245 H 312.044 -0.670625 3.45247 0
M  V30 3246 H 311.918 -2.34784 2.95222 0
M  V30 3247 H 314.305 -2.19519 1.9722 0
M  V30 3248 H 314.386 -0.510342 2.50657 0
M  V30 3249 H 314.03 -1.28045 4.91495 0
M  V30 3250 H 313.96 -2.96843 4.34962 0
M  V30 3251 H 316.451 -1.78468 3.33103 0
M  V30 3252 H 316.764 -3.08652 7.08487 0
M  V30 3253 H 315.109 -2.78216 6.36884 0
M  V30 3254 H 318.3 -2.13604 4.16523 0
M  V30 3255 H 318.473 -2.72989 5.87691 0
M  V30 3256 N 311.879 -1.3236 -0.855495 0
M  V30 3257 C 312.811 -1.17052 -1.97057 0
M  V30 3258 C 313.824 -0.10574 -1.62456 0
M  V30 3259 O 315.013 -0.354619 -1.74942 0
M  V30 3260 C 312.113 -0.769305 -3.30053 0
M  V30 3261 C 311.286 -1.9222 -3.929 0
M  V30 3262 C 310.345 -1.50466 -5.04228 0
M  V30 3263 O 309.371 -2.21655 -5.24269 0
M  V30 3264 N 310.573 -0.400209 -5.79119 0
M  V30 3265 H 313.338 -2.13103 -2.1073 0
M  V30 3266 H 310.899 -1.24885 -1.0303 0
M  V30 3267 H 312.891 -0.472407 -4.01933 0
M  V30 3268 H 311.461 0.100025 -3.1244 0
M  V30 3269 H 310.681 -2.38563 -3.13817 0
M  V30 3270 H 311.969 -2.69403 -4.31624 0
M  V30 3271 H 311.367 0.192319 -5.65373 0
M  V30 3272 H 309.924 -0.162912 -6.51596 0
M  V30 3273 N 313.357 1.07166 -1.15556 0
M  V30 3274 C 314.287 2.16403 -0.877046 0
M  V30 3275 C 315.268 1.69217 0.173111 0
M  V30 3276 O 316.453 1.94181 0.027084 0
M  V30 3277 C 313.583 3.45349 -0.367632 0
M  V30 3278 C 312.537 4.05995 -1.35468 0
M  V30 3279 C 311.863 5.30045 -0.704038 0
M  V30 3280 C 313.163 4.45804 -2.72132 0
M  V30 3281 H 314.857 2.39959 -1.79053 0
M  V30 3282 H 312.403 1.15325 -0.862331 0
M  V30 3283 H 314.356 4.21095 -0.160317 0
M  V30 3284 H 313.08 3.21385 0.581326 0
M  V30 3285 H 311.739 3.32296 -1.54839 0
M  V30 3286 H 311.387 5.02373 0.251128 0
M  V30 3287 H 311.087 5.71579 -1.36277 0
M  V30 3288 H 312.611 6.08495 -0.50654 0
M  V30 3289 H 314.025 5.12671 -2.56595 0
M  V30 3290 H 312.422 4.98296 -3.34397 0
M  V30 3291 H 313.492 3.57083 -3.28054 0
M  V30 3292 N 314.835 0.952656 1.25548 0
M  V30 3293 C 315.767 0.428609 2.25157 0
M  V30 3294 C 316.78 -0.454428 1.56329 0
M  V30 3295 O 317.969 -0.263023 1.76552 0
M  V30 3296 C 315.069 -0.401972 3.36508 0
M  V30 3297 C 314.242 0.467601 4.34893 0
M  V30 3298 C 313.301 -0.30445 5.25319 0
M  V30 3299 O 312.327 0.296473 5.68427 0
M  V30 3300 N 313.529 -1.59805 5.5807 0
M  V30 3301 H 316.294 1.28497 2.70756 0
M  V30 3302 H 313.855 0.822798 1.39433 0
M  V30 3303 H 315.847 -0.926134 3.9396 0
M  V30 3304 H 314.417 -1.15918 2.90313 0
M  V30 3305 H 313.637 1.17288 3.76347 0
M  V30 3306 H 314.925 1.06119 4.97611 0
M  V30 3307 H 314.323 -2.10823 5.24948 0
M  V30 3308 H 312.88 -2.06822 6.18116 0
M  V30 3309 N 316.313 -1.40141 0.720998 0
M  V30 3310 C 317.729 -1.54632 0.395113 0
M  V30 3311 C 317.929 -1.69115 -1.09555 0
M  V30 3312 O 316.985 -1.68377 -1.88163 0
M  V30 3313 C 318.298 -2.77177 1.1659 0
M  V30 3314 C 319.846 -2.91 1.15274 0
M  V30 3315 C 320.321 -4.16465 1.90579 0
M  V30 3316 N 321.812 -4.23476 1.87675 0
M  V30 3317 C 322.547 -5.19475 2.42762 0
M  V30 3318 N 322.043 -6.21348 3.06428 0
M  V30 3319 N 323.836 -5.11592 2.32874 0
M  V30 3320 H 315.987 -1.28986 1.68749 0
M  V30 3321 H 318.25 -0.62412 0.713567 0
M  V30 3322 H 317.956 -2.72771 2.22011 0
M  V30 3323 H 317.83 -3.69442 0.76108 0
M  V30 3324 H 320.217 -2.94907 0.106702 0
M  V30 3325 H 320.298 -1.99838 1.59682 0
M  V30 3326 H 319.942 -4.1332 2.95176 0
M  V30 3327 H 319.872 -5.06646 1.43587 0
M  V30 3328 H 322.363 -3.50497 1.41281 0
M  V30 3329 H 322.676 -6.91034 3.45965 0
M  V30 3330 H 321.021 -6.21777 3.10514 0
M  V30 3331 H 324.212 -4.30936 1.82789 0
M  V30 3332 H 324.385 -5.86233 2.76106 0
M  V30 3333 N 317.792 -0.46758 -1.50504 0
M  V30 3334 C 319.02 0.0864133 -2.06719 0
M  V30 3335 C 319.435 1.33819 -1.33184 0
M  V30 3336 O 318.792 1.78061 -0.400083 0
M  V30 3337 C 318.843 0.378079 -3.59517 0
M  V30 3338 O 318.564 -0.824044 -4.3028 0
M  V30 3339 C 320.065 0.979426 -4.32345 0
M  V30 3340 H 317.285 -0.00551697 -0.670977 0
M  V30 3341 H 319.829 -0.655354 -1.93715 0
M  V30 3342 H 317.984 1.06977 -3.72337 0
M  V30 3343 H 318.398 -0.566518 -5.21432 0
M  V30 3344 H 319.872 1.1333 -5.40241 0
M  V30 3345 H 320.349 1.9686 -3.9261 0
M  V30 3346 H 320.955 0.326216 -4.24047 0
M  V30 3347 N 319.27 1.56325 -0.20005 0
M  V30 3348 C 320.18 2.22931 0.730668 0
M  V30 3349 C 321.196 1.22997 1.23076 0
M  V30 3350 O 322.372 1.55748 1.27689 0
M  V30 3351 C 319.437 2.87948 1.93098 0
M  V30 3352 C 318.498 4.03166 1.47497 0
M  V30 3353 C 317.731 4.65073 2.61807 0
M  V30 3354 O 317.954 4.25913 3.79413 0
M  V30 3355 O 316.888 5.54452 2.34237 0
M  V30 3356 H 320.714 3.03084 0.193391 0
M  V30 3357 H 318.299 1.49371 0.0294621 0
M  V30 3358 H 320.181 3.29063 2.6324 0
M  V30 3359 H 318.856 2.10771 2.45677 0
M  V30 3360 H 317.763 3.66664 0.742201 0
M  V30 3361 H 319.096 4.82022 0.995796 0
M  V30 3362 N 320.748 -0.0735177 1.57428 0
M  V30 3363 C 321.678 -1.0879 2.06608 0
M  V30 3364 C 322.659 -1.40473 0.959237 0
M  V30 3365 O 323.844 -1.5013 1.23185 0
M  V30 3366 C 320.974 -2.40183 2.50857 0
M  V30 3367 C 319.928 -2.22858 3.65402 0
M  V30 3368 C 319.254 -3.59619 3.957 0
M  V30 3369 C 320.554 -1.65123 4.95511 0
M  V30 3370 H 322.248 -0.678673 2.91607 0
M  V30 3371 H 319.794 -0.325013 1.40284 0
M  V30 3372 H 321.747 -3.11437 2.83874 0
M  V30 3373 H 320.471 -2.83083 1.62885 0
M  V30 3374 H 319.13 -1.54045 3.32664 0
M  V30 3375 H 318.778 -4.00086 3.04861 0
M  V30 3376 H 318.478 -3.48866 4.72828 0
M  V30 3377 H 320.002 -4.32306 4.31212 0
M  V30 3378 H 321.416 -2.26241 5.26771 0
M  V30 3379 H 319.813 -1.65071 5.7695 0
M  V30 3380 H 320.883 -0.612559 4.81015 0
M  V30 3381 N 322.226 -1.5378 -0.344866 0
M  V30 3382 C 323.159 -1.7649 -1.4466 0
M  V30 3383 C 324.137 -0.613954 -1.50563 0
M  V30 3384 O 325.321 -0.84896 -1.683 0
M  V30 3385 C 322.448 -1.86235 -2.82903 0
M  V30 3386 C 321.494 -3.08375 -2.94631 0
M  V30 3387 S 322.327 -4.67457 -2.61236 0
M  V30 3388 C 323.483 -4.80079 -4.0159 0
M  V30 3389 H 323.716 -2.69661 -1.2518 0
M  V30 3390 H 321.249 -1.44632 -0.540455 0
M  V30 3391 H 323.207 -1.92535 -3.62547 0
M  V30 3392 H 321.868 -0.940786 -2.9968 0
M  V30 3393 H 321.061 -3.11865 -3.95925 0
M  V30 3394 H 320.663 -3.00294 -2.22934 0
M  V30 3395 H 322.955 -4.61407 -4.96094 0
M  V30 3396 H 323.898 -5.82168 -4.03095 0
M  V30 3397 H 324.306 -4.08544 -3.89554 0
M  V30 3398 N 323.704 0.605807 -1.45491 0
M  V30 3399 C 324.981 1.36522 -1.40075 0
M  V30 3400 C 325.361 2.10976 -0.0722744 0
M  V30 3401 O 324.709 2.08007 0.945808 0
M  V30 3402 C 324.919 2.31056 -2.61561 0
M  V30 3403 C 326.267 2.93608 -3.06724 0
M  V30 3404 O 327.291 2.41376 -2.61946 0
M  V30 3405 O 326.15 3.88421 -3.84437 0
M  V30 3406 H 323.244 0.612248 -0.555951 0
M  V30 3407 H 325.79 0.628747 -1.57623 0
M  V30 3408 H 324.562 1.75311 -3.49831 0
M  V30 3409 H 324.185 3.12081 -2.46356 0
M  V30 3410 N 325.182 1.32811 0.848464 0
M  V30 3411 C 326.132 1.18842 1.94578 0
M  V30 3412 C 327.116 0.0937517 1.60627 0
M  V30 3413 O 328.308 0.320887 1.74067 0
M  V30 3414 C 325.437 0.91999 3.30743 0
M  V30 3415 C 324.523 2.05665 3.70894 0
M  V30 3416 N 324.914 3.30579 3.8282 0
M  V30 3417 C 323.212 1.9612 4.00566 0
M  V30 3418 C 323.913 4.05067 4.17487 0
M  V30 3419 N 322.889 3.33419 4.2934 0
M  V30 3420 H 326.691 2.13536 2.0194 0
M  V30 3421 H 324.205 1.2468 1.0406 0
M  V30 3422 H 326.202 0.800859 4.09136 0
M  V30 3423 H 324.862 -0.0185076 3.24695 0
M  V30 3424 H 325.873 3.65441 3.66978 0
M  V30 3425 H 322.55 1.09871 4.02784 0
M  V30 3426 H 323.94 5.12815 4.34131 0
M  V30 3427 N 326.66 -1.06551 1.16123 0
M  V30 3428 C 327.885 -1.83544 0.965735 0
M  V30 3429 C 328.31 -1.81843 -0.481102 0
M  V30 3430 O 327.668 -1.21732 -1.34354 0
M  V30 3431 C 327.716 -3.28169 1.49457 0
M  V30 3432 O 326.82 -4.0643 0.699157 0
M  V30 3433 H 326.161 -0.568026 0.343864 0
M  V30 3434 H 328.691 -1.34362 1.54299 0
M  V30 3435 H 328.701 -3.78992 1.51092 0
M  V30 3436 H 327.376 -3.28722 2.54784 0
M  V30 3437 H 325.953 -3.65216 0.7531 0
M  V30 3438 N 328.138 -0.959301 -1.25041 0
M  V30 3439 C 329.554 -0.664474 -1.4511 0
M  V30 3440 C 329.754 0.776481 -1.85938 0
M  V30 3441 O 328.81 1.55128 -1.99227 0
M  V30 3442 C 330.123 -1.64139 -2.5195 0
M  V30 3443 C 331.671 -1.65309 -2.65786 0
M  V30 3444 C 332.146 -2.61777 -3.75815 0
M  V30 3445 N 333.637 -2.60169 -3.83231 0
M  V30 3446 C 334.372 -3.31489 -4.6787 0
M  V30 3447 N 333.868 -4.12298 -5.56761 0
M  V30 3448 N 335.661 -3.20354 -4.61876 0
M  V30 3449 H 327.812 -1.89043 -0.968332 0
M  V30 3450 H 330.075 -0.813408 -0.4869 0
M  V30 3451 H 329.781 -2.67086 -2.28819 0
M  V30 3452 H 329.655 -1.40756 -3.49954 0
M  V30 3453 H 332.042 -0.630778 -2.8828 0
M  V30 3454 H 332.123 -1.92753 -1.68167 0
M  V30 3455 H 331.767 -3.64137 -3.54071 0
M  V30 3456 H 331.697 -2.31616 -4.72929 0
M  V30 3457 H 334.188 -2.01507 -3.19692 0
M  V30 3458 H 334.501 -4.63625 -6.18281 0
M  V30 3459 H 332.846 -4.16395 -5.56454 0
M  V30 3460 H 336.037 -2.56692 -3.91442 0
M  V30 3461 H 336.21 -3.76201 -5.27614 0
M  V30 3462 N 329.616 1.39756 -0.72842 0
M  V30 3463 C 330.844 2.04948 -0.283528 0
M  V30 3464 C 331.259 1.54908 1.0793 0
M  V30 3465 O 330.616 0.711135 1.68075 0
M  V30 3466 C 330.667 3.60498 -0.268957 0
M  V30 3467 O 330.388 4.08695 -1.57798 0
M  V30 3468 C 331.889 4.4288 0.192912 0
M  V30 3469 H 329.109 0.659243 -0.125056 0
M  V30 3470 H 331.653 1.78927 -0.990226 0
M  V30 3471 H 329.808 3.85444 0.388801 0
M  V30 3472 H 330.222 5.02977 -1.48709 0
M  V30 3473 H 331.696 5.51791 0.151952 0
M  V30 3474 H 332.173 4.21418 1.23708 0
M  V30 3475 H 332.779 4.23069 -0.435039 0
M  V30 3476 N 331.094 0.475555 1.50254 0
M  V30 3477 C 332.322 -0.0754493 2.06762 0
M  V30 3478 C 332.737 -1.33111 1.33891 0
M  V30 3479 O 332.094 -1.77846 0.40952 0
M  V30 3480 C 332.145 -0.359008 3.59713 0
M  V30 3481 O 331.866 0.846851 4.29837 0
M  V30 3482 C 333.367 -0.956484 4.32858 0
M  V30 3483 H 330.587 0.00907525 0.670939 0
M  V30 3484 H 333.131 0.665618 1.93364 0
M  V30 3485 H 331.286 -1.05001 3.72899 0
M  V30 3486 H 331.7 0.594162 5.21124 0
M  V30 3487 H 333.174 -1.10463 5.40834 0
M  V30 3488 H 333.651 -1.94775 3.93649 0
M  V30 3489 H 334.257 -0.303723 4.24214 0
M  V30 3490 N 332.573 -1.56217 0.208337 0
M  V30 3491 C 333.503 -2.22694 -0.702116 0
M  V30 3492 C 334.484 -1.19432 -1.2112 0
M  V30 3493 O 335.669 -1.47978 -1.25762 0
M  V30 3494 C 332.799 -2.8966 -1.9161 0
M  V30 3495 C 331.753 -3.9928 -1.5414 0
M  V30 3496 C 331.079 -4.53476 -2.83308 0
M  V30 3497 C 332.379 -5.17012 -0.741339 0
M  V30 3498 H 334.073 -2.99034 -0.147898 0
M  V30 3499 H 331.619 -1.43831 -0.0696951 0
M  V30 3500 H 333.572 -3.34852 -2.55836 0
M  V30 3501 H 332.296 -2.10746 -2.49507 0
M  V30 3502 H 330.955 -3.54799 -0.922668 0
M  V30 3503 H 330.603 -3.71308 -3.39322 0
M  V30 3504 H 330.303 -5.27451 -2.58976 0
M  V30 3505 H 331.827 -5.01378 -3.485 0
M  V30 3506 H 333.241 -5.58667 -1.28699 0
M  V30 3507 H 331.638 -5.97137 -0.595627 0
M  V30 3508 H 332.708 -4.8423 0.254851 0
M  V30 3509 N 334.051 0.0651679 -1.57465 0
M  V30 3510 C 334.983 1.10359 -2.00882 0
M  V30 3511 C 335.996 1.346 -0.915788 0
M  V30 3512 O 337.185 1.32723 -1.1936 0
M  V30 3513 C 334.285 2.45312 -2.33828 0
M  V30 3514 C 333.458 2.40934 -3.65061 0
M  V30 3515 C 332.517 3.58047 -3.85602 0
M  V30 3516 O 331.543 3.39175 -4.57109 0
M  V30 3517 N 332.745 4.78637 -3.28462 0
M  V30 3518 H 335.51 0.733807 -2.90578 0
M  V30 3519 H 333.071 0.253719 -1.599 0
M  V30 3520 H 335.063 3.22314 -2.44737 0
M  V30 3521 H 333.633 2.74267 -1.49988 0
M  V30 3522 H 332.853 1.49273 -3.64844 0
M  V30 3523 H 334.141 2.35117 -4.51218 0
M  V30 3524 H 333.539 4.96872 -2.70433 0
M  V30 3525 H 332.096 5.53127 -3.44809 0
M  V30 3526 N 335.529 1.53961 0.336706 0
M  V30 3527 C 336.945 1.44378 0.680241 0
M  V30 3528 C 337.145 0.606034 1.9217 0
M  V30 3529 O 336.201 0.099688 2.52303 0
M  V30 3530 C 337.514 2.87945 0.8665 0
M  V30 3531 C 339.062 2.97763 0.964682 0
M  V30 3532 C 339.537 4.42453 1.18321 0
M  V30 3533 N 341.028 4.46008 1.25025 0
M  V30 3534 C 341.763 5.55102 1.43697 0
M  V30 3535 N 341.259 6.7419 1.59498 0
M  V30 3536 N 343.052 5.42727 1.463 0
M  V30 3537 H 335.203 2.06918 -0.479455 0
M  V30 3538 H 337.466 0.935634 -0.152619 0
M  V30 3539 H 337.172 3.51691 0.0256937 0
M  V30 3540 H 337.046 3.33293 1.76623 0
M  V30 3541 H 339.433 2.34153 1.796 0
M  V30 3542 H 339.514 2.55766 0.041708 0
M  V30 3543 H 339.158 5.06645 0.356788 0
M  V30 3544 H 339.088 4.82048 2.11985 0
M  V30 3545 H 341.579 3.60196 1.14312 0
M  V30 3546 H 341.892 7.53095 1.734 0
M  V30 3547 H 340.237 6.77123 1.56621 0
M  V30 3548 H 343.428 4.48647 1.33543 0
M  V30 3549 H 343.601 6.27806 1.6051 0
M  V30 3550 N 337.007 -0.598083 1.45811 0
M  V30 3551 C 337.917 -1.73632 1.57763 0
M  V30 3552 C 338.933 -1.67763 0.461676 0
M  V30 3553 O 340.109 -1.87949 0.723685 0
M  V30 3554 C 337.174 -3.10114 1.55018 0
M  V30 3555 C 336.235 -3.27364 2.77726 0
M  V30 3556 C 335.468 -4.57334 2.75102 0
M  V30 3557 O 335.691 -5.40258 1.8297 0
M  V30 3558 O 334.625 -4.77502 3.66437 0
M  V30 3559 H 338.451 -1.66498 2.53992 0
M  V30 3560 H 336.036 -0.763308 1.28429 0
M  V30 3561 H 337.918 -3.9141 1.56129 0
M  V30 3562 H 336.593 -3.17718 0.619431 0
M  V30 3563 H 335.5 -2.45619 2.82174 0
M  V30 3564 H 336.833 -3.24641 3.69958 0
M  V30 3565 N 338.485 -1.33259 -0.841409 0
M  V30 3566 C 339.734 -1.23921 -1.59143 0
M  V30 3567 C 340.047 0.1941 -1.94635 0
M  V30 3568 O 341.253 0.409474 -2.68394 0
M  V30 3569 C 339.709 -2.17119 -2.87032 0
M  V30 3570 C 339.317 -3.65606 -2.58914 0
M  V30 3571 C 341.061 -2.16648 -3.65053 0
M  V30 3572 C 338.968 -4.50726 -3.82884 0
M  V30 3573 H 337.898 -0.460264 -0.597221 0
M  V30 3574 H 340.549 -1.58307 -0.927959 0
M  V30 3575 H 338.931 -1.75663 -3.54906 0
M  V30 3576 H 340.105 -4.15487 -1.99267 0
M  V30 3577 H 338.42 -3.68341 -1.942 0
M  V30 3578 H 341.017 -2.77474 -4.57069 0
M  V30 3579 H 341.36 -1.16088 -3.99787 0
M  V30 3580 H 341.893 -2.56453 -3.041 0
M  V30 3581 H 338.632 -5.52151 -3.53283 0
M  V30 3582 H 338.152 -4.0559 -4.41879 0
M  V30 3583 H 339.831 -4.64401 -4.50489 0
M  V30 3584 N 339.963 1.05934 -1.16686 0
M  V30 3585 C 340.913 2.11764 -0.844978 0
M  V30 3586 C 341.897 1.59922 0.177178 0
M  V30 3587 O 343.089 1.76983 -0.0241768 0
M  V30 3588 C 340.218 3.41493 -0.351812 0
M  V30 3589 C 339.304 4.00152 -1.40496 0
M  V30 3590 N 339.695 4.32874 -2.61636 0
M  V30 3591 C 337.993 4.278 -1.26106 0
M  V30 3592 C 338.694 4.79552 -3.29249 0
M  V30 3593 N 337.67 4.79211 -2.56628 0
M  V30 3594 H 341.472 2.34916 -1.76612 0
M  V30 3595 H 338.986 1.23511 -1.05446 0
M  V30 3596 H 340.983 4.16773 -0.102796 0
M  V30 3597 H 339.643 3.19778 0.56322 0
M  V30 3598 H 340.654 4.23109 -2.98663 0
M  V30 3599 H 337.331 4.15511 -0.407081 0
M  V30 3600 H 338.721 5.14045 -4.32675 0
M  V30 3601 N 341.441 0.965919 1.2453 0
M  V30 3602 C 342.404 0.499547 2.2369 0
M  V30 3603 C 343.404 -0.40294 1.5567 0
M  V30 3604 O 344.594 -0.19865 1.73064 0
M  V30 3605 C 341.726 -0.276792 3.39774 0
M  V30 3606 H 342.919 1.37613 2.66463 0
M  V30 3607 H 340.472 0.750324 1.37112 0
M  V30 3608 H 341.207 -1.17055 3.02438 0
M  V30 3609 H 340.992 0.370826 3.90343 0
M  V30 3610 H 342.482 -0.592175 4.1338 0
M  V30 3611 N 342.919 -1.39368 0.735821 0
M  V30 3612 C 343.882 -2.2896 0.104874 0
M  V30 3613 C 344.882 -1.46347 -0.666274 0
M  V30 3614 O 346.072 -1.67014 -0.49517 0
M  V30 3615 C 343.204 -3.29857 -0.860656 0
M  V30 3616 H 344.397 -2.86259 0.894205 0
M  V30 3617 H 341.95 -1.48029 0.501704 0
M  V30 3618 H 342.685 -2.77615 -1.67631 0
M  V30 3619 H 342.47 -3.9087 -0.310327 0
M  V30 3620 H 343.96 -3.96893 -1.29867 0
M  V30 3621 N 344.397 -0.483516 -1.5 0
M  V30 3622 C 345.344 0.304164 -2.28787 0
M  V30 3623 C 346.314 0.976114 -1.34392 0
M  V30 3624 O 347.499 0.986156 -1.63339 0
M  V30 3625 C 344.639 1.37298 -3.16612 0
M  V30 3626 C 343.752 0.714561 -4.26049 0
M  V30 3627 C 342.887 1.76232 -5.01114 0
M  V30 3628 C 341.926 1.08483 -6.0241 0
M  V30 3629 N 341.063 2.076 -6.70706 0
M  V30 3630 H 345.903 -0.373981 -2.95644 0
M  V30 3631 H 343.44 -0.196275 -1.45785 0
M  V30 3632 H 345.398 2.00445 -3.65893 0
M  V30 3633 H 344.028 2.02012 -2.51776 0
M  V30 3634 H 343.08 -0.0297798 -3.80388 0
M  V30 3635 H 344.392 0.180383 -4.98474 0
M  V30 3636 H 343.546 2.46929 -5.54176 0
M  V30 3637 H 342.285 2.33033 -4.28424 0
M  V30 3638 H 341.29 0.363545 -5.48597 0
M  V30 3639 H 342.515 0.523551 -6.77079 0
M  V30 3640 H 340.461 2.63394 -6.00799 0
M  V30 3641 H 340.378 1.59201 -7.39047 0
M  V30 3642 H 341.646 2.77639 -7.2838 0
M  V30 3643 N 345.875 1.56104 -0.216619 0
M  V30 3644 C 347.1 2.0301 0.424462 0
M  V30 3645 C 347.525 1.0955 1.52907 0
M  V30 3646 O 346.883 0.0827914 1.81111 0
M  V30 3647 C 346.931 3.4819 0.937883 0
M  V30 3648 O 346.035 3.57865 2.04955 0
M  V30 3649 H 345.376 0.656925 0.0966755 0
M  V30 3650 H 347.906 2.01859 -0.33381 0
M  V30 3651 H 347.916 3.88413 1.24897 0
M  V30 3652 H 346.591 4.15699 0.129387 0
M  V30 3653 H 345.168 3.29527 1.74546 0
M  V30 3654 N 347.353 -0.0568162 1.57498 0
M  V30 3655 C 348.283 -1.06593 2.0775 0
M  V30 3656 C 349.264 -1.39448 0.974082 0
M  V30 3657 O 350.449 -1.48815 1.24771 0
M  V30 3658 C 347.579 -2.37509 2.5339 0
M  V30 3659 C 346.533 -2.1897 3.67745 0
M  V30 3660 C 345.859 -3.55402 3.99492 0
M  V30 3661 C 347.159 -1.59859 4.97235 0
M  V30 3662 H 348.853 -0.647706 2.9231 0
M  V30 3663 H 346.399 -0.310116 1.40621 0
M  V30 3664 H 348.352 -3.08409 2.87162 0
M  V30 3665 H 347.076 -2.8134 1.65878 0
M  V30 3666 H 345.735 -1.50508 3.3428 0
M  V30 3667 H 345.383 -3.9683 3.09088 0
M  V30 3668 H 345.083 -3.43831 4.76502 0
M  V30 3669 H 346.607 -4.27708 4.35773 0
M  V30 3670 H 348.021 -2.20642 5.29141 0
M  V30 3671 H 346.418 -1.58942 5.78669 0
M  V30 3672 H 347.488 -0.561506 4.81638 0
M  V30 3673 N 348.832 -1.54138 -0.328536 0
M  V30 3674 C 349.795 -1.82462 -1.38709 0
M  V30 3675 C 350.795 -0.696229 -1.44946 0
M  V30 3676 O 351.985 -0.964535 -1.4506 0
M  V30 3677 C 349.117 -1.98018 -2.77492 0
M  V30 3678 H 350.31 -2.77037 -1.14851 0
M  V30 3679 H 347.863 -1.45779 -0.563751 0
M  V30 3680 H 348.598 -1.05637 -3.06613 0
M  V30 3681 H 348.383 -2.80124 -2.74359 0
M  V30 3682 H 349.873 -2.21396 -3.54081 0
M  V30 3683 N 350.31 0.590341 -1.46126 0
M  V30 3684 C 351.243 1.71434 -1.50617 0
M  V30 3685 C 352.221 1.58543 -0.360948 0
M  V30 3686 O 353.405 1.79865 -0.563985 0
M  V30 3687 C 350.532 3.09422 -1.37753 0
M  V30 3688 C 349.578 3.40854 -2.5636 0
M  V30 3689 S 350.411 3.33773 -4.18755 0
M  V30 3690 C 351.567 4.74312 -4.08386 0
M  V30 3691 H 351.8 1.67364 -2.45717 0
M  V30 3692 H 349.333 0.76845 -1.33919 0
M  V30 3693 H 351.291 3.8903 -1.31018 0
M  V30 3694 H 349.952 3.10989 -0.440949 0
M  V30 3695 H 349.145 4.41368 -2.43332 0
M  V30 3696 H 348.747 2.68798 -2.60046 0
M  V30 3697 H 351.039 5.64522 -3.74595 0
M  V30 3698 H 351.982 4.92397 -5.08872 0
M  V30 3699 H 352.39 4.50803 -3.3976 0
M  V30 3700 N 351.788 1.33704 0.83433 0
M  V30 3701 C 353.037 1.24763 1.58484 0
M  V30 3702 C 353.35 -0.183775 1.94735 0
M  V30 3703 O 354.556 -0.395234 2.68608 0
M  V30 3704 C 353.012 2.18638 2.85876 0
M  V30 3705 C 352.62 3.66974 2.56971 0
M  V30 3706 C 354.364 2.18581 3.63899 0
M  V30 3707 C 352.271 4.5275 3.80488 0
M  V30 3708 H 351.201 0.463425 0.594772 0
M  V30 3709 H 353.852 1.58797 0.919551 0
M  V30 3710 H 352.234 1.77542 3.5397 0
M  V30 3711 H 353.408 4.16538 1.9706 0
M  V30 3712 H 351.723 3.69366 1.92244 0
M  V30 3713 H 354.32 2.79894 4.55591 0
M  V30 3714 H 354.663 1.18207 3.99165 0
M  V30 3715 H 355.196 2.58062 3.02735 0
M  V30 3716 H 351.935 5.54017 3.5035 0
M  V30 3717 H 351.455 4.07927 4.39722 0
M  V30 3718 H 353.134 4.66784 4.4802 0
M  V30 3719 N 353.266 -1.05314 1.17247 0
M  V30 3720 C 354.512 -1.78557 0.961513 0
M  V30 3721 C 354.845 -1.87419 -0.508697 0
M  V30 3722 O 354.12 -1.37307 -1.37757 0
M  V30 3723 C 354.403 -3.22514 1.60176 0
M  V30 3724 C 354.256 -3.21673 3.14399 0
M  V30 3725 C 355.575 -4.20318 1.30463 0
M  V30 3726 H 352.694 -0.6482 0.350723 0
M  V30 3727 H 355.336 -1.23102 1.44727 0
M  V30 3728 H 353.486 -3.69867 1.18871 0
M  V30 3729 H 355.158 -2.82405 3.64753 0
M  V30 3730 H 353.401 -2.60048 3.47214 0
M  V30 3731 H 354.072 -4.23271 3.54324 0
M  V30 3732 H 356.548 -3.81454 1.66229 0
M  V30 3733 H 355.424 -5.19289 1.77848 0
M  V30 3734 H 355.685 -4.41526 0.22521 0
M  V30 3735 N 354.744 -0.972509 -1.24016 0
M  V30 3736 C 355.992 -0.635776 -1.91839 0
M  V30 3737 C 356.313 0.832312 -1.76345 0
M  V30 3738 O 355.583 1.5946 -1.13795 0
M  V30 3739 H 354.163 -0.232157 -0.710009 0
M  V30 3740 H 356.825 -1.23462 -1.50809 0
M  V30 3741 H 355.921 -0.880545 -2.99421 0
M  V30 3742 N 356.222 1.38976 -0.743202 0
M  V30 3743 C 357.471 1.99581 -0.291592 0
M  V30 3744 C 357.784 1.59656 1.13001 0
M  V30 3745 O 358.99 2.13157 1.68156 0
M  V30 3746 C 357.446 3.56813 -0.470391 0
M  V30 3747 C 357.054 4.05695 -1.90041 0
M  V30 3748 C 358.798 4.24423 -0.0809709 0
M  V30 3749 C 356.705 5.5553 -2.02832 0
M  V30 3750 H 355.635 0.746615 -0.105272 0
M  V30 3751 H 358.286 1.58872 -0.918258 0
M  V30 3752 H 356.668 3.95359 0.225299 0
M  V30 3753 H 357.842 3.78464 -2.62872 0
M  V30 3754 H 356.157 3.50775 -2.24379 0
M  V30 3755 H 358.754 5.34474 -0.155445 0
M  V30 3756 H 359.097 4.04962 0.96497 0
M  V30 3757 H 359.63 3.9108 -0.728124 0
M  V30 3758 H 356.369 5.79881 -3.05643 0
M  V30 3759 H 355.889 5.84537 -1.34448 0
M  V30 3760 H 357.568 6.21069 -1.81335 0
M  V30 3761 N 357.7 0.491464 1.49741 0
M  V30 3762 C 358.947 -0.0564256 2.02421 0
M  V30 3763 C 359.275 -1.37872 1.37192 0
M  V30 3764 O 358.53 -1.89375 0.493508 0
M  V30 3765 C 358.829 -0.267329 3.56399 0
M  V30 3766 C 358.495 0.975775 4.40215 0
M  V30 3767 C 357.157 1.31655 4.62839 0
M  V30 3768 C 359.509 1.80251 4.89039 0
M  V30 3769 C 356.837 2.48375 5.31532 0
M  V30 3770 C 359.189 2.96116 5.59015 0
M  V30 3771 C 357.853 3.30585 5.79888 0
M  V30 3772 H 357.123 -0.0206476 0.740712 0
M  V30 3773 H 359.77 0.649686 1.80143 0
M  V30 3774 H 358.075 -1.05588 3.77304 0
M  V30 3775 H 359.772 -0.705549 3.94744 0
M  V30 3776 H 356.362 0.700315 4.2284 0
M  V30 3777 H 360.546 1.55239 4.71396 0
M  V30 3778 H 355.802 2.7533 5.45897 0
M  V30 3779 H 359.976 3.60509 5.95824 0
M  V30 3780 H 357.603 4.21132 6.32892 0
M  V30 3781 N 359.178 -1.55987 0.224894 0
M  V30 3782 C 360.141 -2.19178 -0.670348 0
M  V30 3783 C 361.141 -1.15461 -1.11917 0
M  V30 3784 O 362.331 -1.40675 -1.02743 0
M  V30 3785 C 359.463 -2.81777 -1.9187 0
M  V30 3786 H 360.656 -2.99662 -0.119364 0
M  V30 3787 H 358.209 -1.5628 -0.0247128 0
M  V30 3788 H 358.944 -2.05172 -2.51147 0
M  V30 3789 H 358.729 -3.57732 -1.60531 0
M  V30 3790 H 360.219 -3.30205 -2.55645 0
M  V30 3791 N 360.656 0.0484629 -1.57525 0
M  V30 3792 C 361.586 1.0549 -2.08313 0
M  V30 3793 C 362.567 1.38929 -0.981463 0
M  V30 3794 O 363.752 1.48151 -1.25558 0
M  V30 3795 C 360.882 2.36162 -2.54646 0
M  V30 3796 C 359.836 2.17016 -3.68901 0
M  V30 3797 C 359.162 3.53278 -4.01371 0
M  V30 3798 C 360.462 1.57219 -4.98076 0
M  V30 3799 H 362.156 0.632195 -2.92649 0
M  V30 3800 H 359.702 0.302654 -1.40784 0
M  V30 3801 H 361.655 3.06882 -2.88793 0
M  V30 3802 H 360.379 2.80456 -1.67368 0
M  V30 3803 H 359.038 1.48733 -3.35073 0
M  V30 3804 H 358.686 3.95185 -3.11188 0
M  V30 3805 H 358.386 3.41299 -4.78318 0
M  V30 3806 H 359.91 4.25391 -4.38035 0
M  V30 3807 H 361.324 2.17832 -5.30304 0
M  V30 3808 H 359.721 1.55871 -5.79503 0
M  V30 3809 H 360.791 0.535956 -4.81929 0
M  V30 3810 N 362.134 1.5431 0.320358 0
M  V30 3811 C 363.374 1.74395 1.0661 0
M  V30 3812 C 363.738 0.508602 1.85141 0
M  V30 3813 O 364.939 0.586856 2.62316 0
M  V30 3814 C 363.21 2.98619 1.96371 0
M  V30 3815 S 364.769 3.39621 2.77854 0
M  V30 3816 H 361.587 0.613204 0.359863 0
M  V30 3817 H 364.189 1.9249 0.341727 0
M  V30 3818 H 362.893 3.86673 1.3752 0
M  V30 3819 H 362.424 2.83055 2.73209 0
M  V30 3820 H 364.439 2.95172 3.98858 0
M  V30 3821 N 363.613 -0.582584 1.46437 0
M  V30 3822 C 364.859 -1.34064 1.52965 0
M  V30 3823 C 365.214 -1.91566 0.178968 0
M  V30 3824 O 364.507 -1.73526 -0.812365 0
M  V30 3825 C 364.701 -2.48964 2.56421 0
M  V30 3826 C 364.53 -2.02717 4.01417 0
M  V30 3827 C 363.3 -1.87728 4.69134 0
M  V30 3828 C 365.498 -1.58675 4.8921 0
M  V30 3829 N 363.48 -1.35554 5.98747 0
M  V30 3830 C 364.851 -1.18093 6.08649 0
M  V30 3831 C 366.906 -1.46494 4.75861 0
M  V30 3832 C 365.609 -0.665427 7.16215 0
M  V30 3833 C 367.635 -0.96347 5.83499 0
M  V30 3834 C 366.997 -0.567432 7.02111 0
M  V30 3835 H 363.096 -0.483551 0.614575 0
M  V30 3836 H 365.68 -0.663309 1.83053 0
M  V30 3837 H 363.851 -3.1426 2.28244 0
M  V30 3838 H 365.583 -3.15913 2.52944 0
M  V30 3839 H 362.338 -2.09678 4.24655 0
M  V30 3840 H 362.762 -1.11628 6.67734 0
M  V30 3841 H 367.404 -1.75731 3.8455 0
M  V30 3842 H 365.122 -0.360639 8.07295 0
M  V30 3843 H 368.708 -0.873129 5.75211 0
M  V30 3844 H 367.588 -0.185389 7.83981 0
M  V30 3845 N 365.091 -1.34144 -0.827227 0
M  V30 3846 C 366.021 -1.28005 -1.95287 0
M  V30 3847 C 367.002 -0.158321 -1.69362 0
M  V30 3848 O 368.187 -0.349987 -1.9102 0
M  V30 3849 C 365.317 -1.03036 -3.31664 0
M  V30 3850 C 364.271 -2.11628 -3.72019 0
M  V30 3851 C 363.597 -1.71854 -5.0633 0
M  V30 3852 C 364.897 -3.53417 -3.8457 0
M  V30 3853 H 366.591 -2.22187 -2.00682 0
M  V30 3854 H 364.137 -1.0696 -0.964135 0
M  V30 3855 H 366.09 -0.973863 -4.09993 0
M  V30 3856 H 364.814 -0.0529391 -3.26557 0
M  V30 3857 H 363.473 -2.16339 -2.95961 0
M  V30 3858 H 363.121 -0.727841 -4.97706 0
M  V30 3859 H 362.821 -2.44531 -5.34302 0
M  V30 3860 H 364.345 -1.67692 -5.87122 0
M  V30 3861 H 365.759 -3.51142 -4.5318 0
M  V30 3862 H 364.156 -4.24679 -4.2399 0
M  V30 3863 H 365.226 -3.91072 -2.86689 0
M  V30 3864 N 366.569 1.04691 -1.17803 0
M  V30 3865 C 367.98 1.59238 -0.974689 0
M  V30 3866 C 368.331 1.90306 0.477292 0
M  V30 3867 O 367.456 1.68846 1.35352 0
M  V30 3868 C 368.051 2.89318 -1.76296 0
M  V30 3869 C 366.61 3.40506 -1.60414 0
M  V30 3870 C 365.757 2.14172 -1.76141 0
M  V30 3871 H 368.708 0.874395 -1.32439 0
M  V30 3872 H 368.729 3.5944 -1.24833 0
M  V30 3873 H 368.241 2.66675 -2.81968 0
M  V30 3874 H 366.342 3.68175 -0.572519 0
M  V30 3875 H 366.455 4.14753 -2.39827 0
M  V30 3876 H 364.819 2.25176 -1.19028 0
M  V30 3877 H 365.602 1.93992 -2.83235 0
M  V30 3878 N 368.047 0.979072 1.23499 0
M  V30 3879 C 369.293 0.648178 1.92163 0
M  V30 3880 C 369.626 -0.816049 1.76222 0
M  V30 3881 O 368.901 -1.58849 1.12237 0
M  V30 3882 C 369.184 1.03773 3.44824 0
M  V30 3883 C 369.037 2.55948 3.69879 0
M  V30 3884 C 370.356 0.580653 4.36253 0
M  V30 3885 H 367.475 0.236952 0.69787 0
M  V30 3886 H 370.117 1.22012 1.45647 0
M  V30 3887 H 368.267 0.551058 3.84572 0
M  V30 3888 H 369.939 3.12179 3.3962 0
M  V30 3889 H 368.182 2.98641 3.14636 0
M  V30 3890 H 368.853 2.78255 4.76737 0
M  V30 3891 H 371.329 0.998465 4.03943 0
M  V30 3892 H 370.205 0.881663 5.41773 0
M  V30 3893 H 370.466 -0.519052 4.39042 0
M  V30 3894 N 369.525 -1.3858 0.750561 0
M  V30 3895 C 370.475 -2.27795 0.0965949 0
M  V30 3896 C 371.459 -1.45048 -0.696411 0
M  V30 3897 O 372.651 -1.67812 -0.562863 0
M  V30 3898 C 369.78 -3.33894 -0.798085 0
M  V30 3899 C 368.866 -4.241 0.0016067 0
M  V30 3900 N 369.257 -4.95067 1.03647 0
M  V30 3901 C 367.555 -4.45429 -0.225674 0
M  V30 3902 C 368.256 -5.61489 1.52004 0
M  V30 3903 N 367.232 -5.37135 0.835874 0
M  V30 3904 H 371.034 -2.80125 0.889228 0
M  V30 3905 H 368.548 -1.51446 0.586323 0
M  V30 3906 H 370.545 -3.96693 -1.28219 0
M  V30 3907 H 369.205 -2.83123 -1.5897 0
M  V30 3908 H 370.216 -4.98104 1.41819 0
M  V30 3909 H 366.893 -4.05571 -0.990872 0
M  V30 3910 H 368.283 -6.28264 2.38188 0
M  V30 3911 N 371.003 -0.499398 -1.49478 0
M  V30 3912 C 371.966 0.268838 -2.27618 0
M  V30 3913 C 372.966 0.895383 -1.33565 0
M  V30 3914 O 374.156 0.760164 -1.56739 0
M  V30 3915 C 371.288 1.38559 -3.11471 0
M  V30 3916 H 372.481 -0.416812 -2.96989 0
M  V30 3917 H 370.034 -0.254313 -1.54217 0
M  V30 3918 H 370.769 2.10544 -2.46661 0
M  V30 3919 H 370.554 0.941797 -3.80621 0
M  V30 3920 H 372.044 1.92678 -3.70493 0
M  V30 3921 N 372.481 1.55866 -0.233164 0
M  V30 3922 C 373.727 1.98897 0.395959 0
M  V30 3923 C 374.06 1.12091 1.58585 0
M  V30 3924 O 373.335 0.181182 1.93654 0
M  V30 3925 C 373.618 3.50658 0.819224 0
M  V30 3926 C 373.471 4.48233 -0.375109 0
M  V30 3927 C 374.79 4.07135 1.67121 0
M  V30 3928 H 371.909 0.723102 0.142451 0
M  V30 3929 H 374.551 1.87082 -0.331725 0
M  V30 3930 H 372.701 3.60857 1.43925 0
M  V30 3931 H 374.373 4.50031 -1.01341 0
M  V30 3932 H 372.616 4.21624 -1.02058 0
M  V30 3933 H 373.287 5.51988 -0.0358328 0
M  V30 3934 H 375.763 3.99952 1.14795 0
M  V30 3935 H 374.639 5.13615 1.93625 0
M  V30 3936 H 374.9 3.54736 2.63846 0
M  V30 3937 N 373.959 -0.0401083 1.57549 0
M  V30 3938 C 374.907 -1.06264 2.06908 0
M  V30 3939 C 375.901 -1.38132 0.980608 0
M  V30 3940 O 377.107 -1.37167 1.16556 0
M  V30 3941 H 373.482 -0.360166 0.660139 0
M  V30 3942 H 375.453 -0.620445 2.91878 0
M  V30 3943 C 374.202 -2.35846 2.55483 0
M  V30 3944 H 373.525 -2.12183 3.38849 0
M  V30 3945 H 374.965 -3.05765 2.93741 0
M  V30 3946 C 373.424 -3.0404 1.45126 0
M  V30 3947 O 373.954 -3.93424 0.811216 0
M  V30 3948 N 372.16 -2.65184 1.18852 0
M  V30 3949 H 371.707 -1.92584 1.71083 0
M  V30 3950 H 371.665 -3.1113 0.452244 0
M  V30 3951 N 375.437 -1.54477 -0.31217 0
M  V30 3952 C 376.677 -1.74958 -1.05684 0
M  V30 3953 C 377.041 -0.518414 -1.84869 0
M  V30 3954 O 378.242 -0.600759 -2.62001 0
M  V30 3955 C 376.513 -2.99656 -1.94785 0
M  V30 3956 S 378.072 -3.4109 -2.76049 0
M  V30 3957 H 374.89 -0.615104 -0.356606 0
M  V30 3958 H 377.492 -1.92669 -0.331514 0
M  V30 3959 H 376.196 -3.87397 -1.35468 0
M  V30 3960 H 375.727 -2.845 -2.71704 0
M  V30 3961 H 377.742 -2.97283 -3.97287 0
M  V30 3962 N 376.915 0.57481 -1.46744 0
M  V30 3963 C 378.161 1.3347 -1.52688 0
M  V30 3964 C 378.494 1.93353 -0.181229 0
M  V30 3965 O 377.769 1.76912 0.808237 0
M  V30 3966 C 378.052 2.45811 -2.63152 0
M  V30 3967 C 377.905 1.90912 -4.07275 0
M  V30 3968 C 379.224 3.47822 -2.69644 0
M  V30 3969 H 376.343 0.483935 -0.555856 0
M  V30 3970 H 378.985 0.644968 -1.78718 0
M  V30 3971 H 377.135 3.04646 -2.41088 0
M  V30 3972 H 378.807 1.36473 -4.4065 0
M  V30 3973 H 377.05 1.21691 -4.16382 0
M  V30 3974 H 377.721 2.72042 -4.80309 0
M  V30 3975 H 380.197 2.9888 -2.895 0
M  V30 3976 H 379.073 4.23876 -3.48742 0
M  V30 3977 H 379.334 4.05555 -1.76005 0
M  V30 3978 N 378.394 1.34581 0.820102 0
M  V30 3979 C 379.622 1.3018 1.60813 0
M  V30 3980 C 380.037 -0.123551 1.88395 0
M  V30 3981 O 379.394 -1.07148 1.47735 0
M  V30 3982 C 379.445 2.09312 2.94739 0
M  V30 3983 O 379.166 3.46288 2.68358 0
M  V30 3984 C 380.667 2.1234 3.89136 0
M  V30 3985 H 377.887 0.447726 0.499782 0
M  V30 3986 H 380.431 1.77237 1.02017 0
M  V30 3987 H 378.586 1.65889 3.50085 0
M  V30 3988 H 379 3.87227 3.53774 0
M  V30 3989 H 380.474 2.72126 4.80262 0
M  V30 3990 H 380.951 1.11854 4.24718 0
M  V30 3991 H 381.557 2.55864 3.39726 0
M  V30 3992 N 379.872 -1.04064 1.18357 0
M  V30 3993 C 380.802 -2.14001 0.934113 0
M  V30 3994 C 381.783 -1.69616 -0.128186 0
M  V30 3995 O 382.968 -1.94185 0.0244093 0
M  V30 3996 C 380.098 -3.44253 0.459066 0
M  V30 3997 C 379.052 -4.02261 1.46185 0
M  V30 3998 C 378.378 -5.27992 0.844322 0
M  V30 3999 C 379.678 -4.38432 2.83856 0
M  V30 4000 H 381.372 -2.35127 1.85352 0
M  V30 4001 H 378.918 -1.12998 0.892604 0
M  V30 4002 H 380.871 -4.20522 0.271907 0
M  V30 4003 H 379.595 -3.22813 -0.495912 0
M  V30 4004 H 378.254 -3.28074 1.63595 0
M  V30 4005 H 377.902 -5.02862 -0.117845 0
M  V30 4006 H 377.602 -5.67765 1.51384 0
M  V30 4007 H 379.126 -6.06938 0.667693 0
M  V30 4008 H 380.54 -5.05688 2.70098 0
M  V30 4009 H 378.937 -4.89254 3.47491 0
M  V30 4010 H 380.007 -3.4826 3.37406 0
M  V30 4011 N 381.35 -0.985608 -1.22978 0
M  V30 4012 C 382.597 -0.657386 -1.91532 0
M  V30 4013 C 382.925 0.809707 -1.76845 0
M  V30 4014 O 382.18 1.60021 -1.12658 0
M  V30 4015 C 382.479 -1.00014 -3.43121 0
M  V30 4016 C 382.145 -2.4583 -3.77993 0
M  V30 4017 C 380.807 -2.85679 -3.87222 0
M  V30 4018 C 383.159 -3.40378 -3.94705 0
M  V30 4019 C 380.487 -4.19081 -4.10595 0
M  V30 4020 C 382.839 -4.73429 -4.1958 0
M  V30 4021 C 381.503 -5.1303 -4.27032 0
M  V30 4022 H 380.773 -0.240555 -0.700867 0
M  V30 4023 H 383.42 -1.24044 -1.45895 0
M  V30 4024 H 381.725 -0.335072 -3.90365 0
M  V30 4025 H 383.422 -0.724322 -3.94404 0
M  V30 4026 H 380.012 -2.13939 -3.71387 0
M  V30 4027 H 384.196 -3.10766 -3.8696 0
M  V30 4028 H 379.452 -4.49362 -4.14589 0
M  V30 4029 H 383.626 -5.46644 -4.31455 0
M  V30 4030 H 381.253 -6.16418 -4.44896 0
M  V30 4031 N 382.828 1.3818 -0.7579 0
M  V30 4032 C 383.76 2.2901 -0.0932177 0
M  V30 4033 C 384.773 1.47958 0.679136 0
M  V30 4034 O 385.962 1.70773 0.519514 0
M  V30 4035 C 383.062 3.26953 0.89192 0
M  V30 4036 C 382.235 4.37045 0.176303 0
M  V30 4037 C 381.294 5.15148 1.07281 0
M  V30 4038 O 380.32 5.66616 0.541728 0
M  V30 4039 N 381.522 5.28542 2.40049 0
M  V30 4040 H 384.287 2.86694 -0.873303 0
M  V30 4041 H 381.848 1.50007 -0.609054 0
M  V30 4042 H 383.84 3.76083 1.49479 0
M  V30 4043 H 382.41 2.70136 1.57306 0
M  V30 4044 H 381.63 3.89493 -0.607328 0
M  V30 4045 H 382.918 5.07801 -0.318718 0
M  V30 4046 H 382.316 4.88285 2.85647 0
M  V30 4047 H 380.873 5.8103 2.95376 0
M  V30 4048 N 384.306 0.507319 1.49211 0
M  V30 4049 C 385.717 0.0611118 1.866 0
M  V30 4050 C 386.068 -1.35488 1.41907 0
M  V30 4051 O 385.193 -2.0108 0.799726 0
M  V30 4052 C 385.788 0.104125 3.3864 0
M  V30 4053 C 384.347 -0.28677 3.75306 0
M  V30 4054 C 383.494 0.473893 2.73221 0
M  V30 4055 H 386.445 0.719775 1.41439 0
M  V30 4056 H 386.466 -0.689672 3.74198 0
M  V30 4057 H 385.978 1.13482 3.71138 0
M  V30 4058 H 384.079 -1.32046 3.48417 0
M  V30 4059 H 384.192 0.0370745 4.79086 0
M  V30 4060 H 382.556 -0.0770644 2.54583 0
M  V30 4061 H 383.339 1.50478 3.08563 0
M  V30 4062 N 385.784 -1.5574 0.241426 0
M  V30 4063 C 386.747 -2.19877 -0.647063 0
M  V30 4064 C 387.747 -1.16642 -1.10686 0
M  V30 4065 O 388.937 -1.41757 -1.01245 0
M  V30 4066 C 386.069 -2.83797 -1.88871 0
M  V30 4067 H 387.262 -2.99772 -0.087574 0
M  V30 4068 H 384.815 -1.56298 -0.00813574 0
M  V30 4069 H 385.55 -2.07824 -2.48957 0
M  V30 4070 H 385.335 -3.59414 -1.56728 0
M  V30 4071 H 386.825 -3.32898 -2.52129 0
M  V30 4072 N 387.262 0.0317525 -1.57568 0
M  V30 4073 C 388.194 1.06073 -2.03178 0
M  V30 4074 C 389.207 1.32627 -0.944132 0
M  V30 4075 O 390.396 1.30162 -1.22148 0
M  V30 4076 C 387.496 2.40297 -2.38978 0
M  V30 4077 C 386.669 2.33137 -3.70089 0
M  V30 4078 C 385.728 3.49787 -3.9311 0
M  V30 4079 O 384.754 3.29403 -4.64201 0
M  V30 4080 N 385.956 4.71562 -3.38541 0
M  V30 4081 H 388.721 0.672006 -2.92069 0
M  V30 4082 H 386.282 0.219745 -1.60402 0
M  V30 4083 H 388.274 3.1705 -2.51518 0
M  V30 4084 H 386.844 2.71024 -1.55771 0
M  V30 4085 H 386.064 1.415 -3.67928 0
M  V30 4086 H 387.352 2.25493 -4.56104 0
M  V30 4087 H 386.75 4.91024 -2.80912 0
M  V30 4088 H 385.307 5.45689 -3.56464 0
M  V30 4089 N 388.74 1.54641 0.303973 0
M  V30 4090 C 389.988 1.73437 1.0375 0
M  V30 4091 C 390.309 0.521449 1.87899 0
M  V30 4092 O 389.579 -0.46432 1.90318 0
M  V30 4093 H 388.159 0.639518 0.386039 0
M  V30 4094 H 390.821 1.91988 0.335675 0
M  V30 4095 H 389.917 2.62235 1.69231 0
M  V30 4096 N 390.218 -0.567019 1.47046 0
M  V30 4097 C 391.165 -1.67489 1.58796 0
M  V30 4098 C 392.135 -1.60399 0.43144 0
M  V30 4099 O 393.32 -1.79378 0.650233 0
M  V30 4100 C 390.46 -3.05821 1.59899 0
M  V30 4101 C 389.573 -3.2342 2.86397 0
M  V30 4102 C 388.708 -4.52093 2.789 0
M  V30 4103 C 387.747 -4.6309 4.00267 0
M  V30 4104 N 386.884 -5.83106 3.91064 0
M  V30 4105 H 391.724 -1.56785 2.53422 0
M  V30 4106 H 389.261 -0.763896 1.2571 0
M  V30 4107 H 391.219 -3.8591 1.58522 0
M  V30 4108 H 389.849 -3.15384 0.687929 0
M  V30 4109 H 388.901 -2.3683 2.97684 0
M  V30 4110 H 390.213 -3.27412 3.76301 0
M  V30 4111 H 389.367 -5.4043 2.75718 0
M  V30 4112 H 388.106 -4.50565 1.86662 0
M  V30 4113 H 387.111 -3.73168 4.03765 0
M  V30 4114 H 388.336 -4.66386 4.93621 0
M  V30 4115 H 386.282 -5.82546 3.01623 0
M  V30 4116 H 386.199 -5.88434 4.74638 0
M  V30 4117 H 387.467 -6.73831 3.91882 0
M  V30 4118 N 391.696 -1.35014 -0.812953 0
M  V30 4119 C 392.644 -1.27435 -1.94585 0
M  V30 4120 C 393.638 -0.170494 -1.6854 0
M  V30 4121 O 394.844 -0.336085 -1.76835 0
M  V30 4122 H 391.219 -0.396144 -0.639198 0
M  V30 4123 H 393.19 -2.23158 -1.98098 0
M  V30 4124 C 391.939 -1.05677 -3.31252 0
M  V30 4125 H 391.262 -1.89853 -3.51846 0
M  V30 4126 H 392.702 -1.04413 -4.10943 0
M  V30 4127 C 391.161 0.239615 -3.36047 0
M  V30 4128 O 391.691 1.23759 -3.8216 0
M  V30 4129 N 389.897 0.276186 -2.89285 0
M  V30 4130 H 389.444 -0.53653 -2.51951 0
M  V30 4131 H 389.402 1.14332 -2.92875 0
M  V30 4132 N 393.175 1.03435 -1.18907 0
M  V30 4133 C 394.122 2.11591 -0.921837 0
M  V30 4134 C 395.092 1.65499 0.141226 0
M  V30 4135 O 396.277 1.908 0.000242829 0
M  V30 4136 C 393.417 3.42012 -0.460616 0
M  V30 4137 C 392.53 4.01682 -1.58982 0
M  V30 4138 C 391.665 5.20091 -1.08069 0
M  V30 4139 C 390.704 5.71805 -2.18416 0
M  V30 4140 N 389.841 6.81494 -1.68849 0
M  V30 4141 H 394.681 2.33787 -1.8479 0
M  V30 4142 H 392.218 1.1467 -0.921373 0
M  V30 4143 H 394.176 4.16834 -0.174642 0
M  V30 4144 H 392.806 3.19944 0.428467 0
M  V30 4145 H 391.858 3.24127 -1.99113 0
M  V30 4146 H 393.17 4.36084 -2.4214 0
M  V30 4147 H 392.324 6.02051 -0.749615 0
M  V30 4148 H 391.063 4.87209 -0.218771 0
M  V30 4149 H 390.068 4.88461 -2.5236 0
M  V30 4150 H 391.293 6.06728 -3.05054 0
M  V30 4151 H 389.239 6.50475 -0.849572 0
M  V30 4152 H 389.156 7.14994 -2.45601 0
M  V30 4153 H 390.424 7.67063 -1.38689 0
M  V30 4154 N 394.653 0.992116 1.22453 0
M  V30 4155 C 396.064 0.702776 1.72968 0
M  V30 4156 C 396.415 -0.780399 1.80012 0
M  V30 4157 O 395.54 -1.61007 1.44589 0
M  V30 4158 C 396.135 1.26903 3.14135 0
M  V30 4159 C 394.694 1.02909 3.62059 0
M  V30 4160 C 393.841 1.38969 2.39964 0
M  V30 4161 H 396.792 1.16457 1.07812 0
M  V30 4162 H 396.813 0.647223 3.74955 0
M  V30 4163 H 396.325 2.34851 3.08977 0
M  V30 4164 H 394.426 -0.0337979 3.72585 0
M  V30 4165 H 394.539 1.69191 4.48231 0
M  V30 4166 H 392.903 0.808279 2.41535 0
M  V30 4167 H 393.686 2.4792 2.37467 0
M  V30 4168 N 396.131 -1.37776 0.765217 0
M  V30 4169 C 397.078 -2.30342 0.145274 0
M  V30 4170 C 398.048 -1.5077 -0.696971 0
M  V30 4171 O 399.233 -1.79362 -0.650689 0
M  V30 4172 C 396.373 -3.37227 -0.732939 0
M  V30 4173 C 395.486 -4.31819 0.125199 0
M  V30 4174 C 394.621 -5.25777 -0.757107 0
M  V30 4175 C 393.66 -6.12012 0.103963 0
M  V30 4176 N 392.797 -6.98232 -0.735953 0
M  V30 4177 H 397.637 -2.8278 0.940195 0
M  V30 4178 H 395.174 -1.39211 0.475255 0
M  V30 4179 H 397.132 -3.97818 -1.25686 0
M  V30 4180 H 395.762 -2.86171 -1.49353 0
M  V30 4181 H 394.814 -3.7259 0.766865 0
M  V30 4182 H 396.126 -4.92509 0.789683 0
M  V30 4183 H 395.28 -5.91541 -1.34776 0
M  V30 4184 H 394.019 -4.65481 -1.45529 0
M  V30 4185 H 393.024 -5.45233 0.707197 0
M  V30 4186 H 394.249 -6.74379 0.799381 0
M  V30 4187 H 392.195 -6.40472 -1.41887 0
M  V30 4188 H 392.112 -7.55891 -0.128624 0
M  V30 4189 H 393.38 -7.68393 -1.31121 0
M  V30 4190 N 397.609 -0.515225 -1.4894 0
M  V30 4191 C 398.855 0.016187 -2.03394 0
M  V30 4192 C 399.21 1.33377 -1.38666 0
M  V30 4193 O 398.503 1.84461 -0.518141 0
M  V30 4194 C 398.697 0.210595 -3.56779 0
M  V30 4195 C 398.526 -1.08659 -4.36375 0
M  V30 4196 C 397.296 -1.64237 -4.77864 0
M  V30 4197 C 399.494 -1.9935 -4.74093 0
M  V30 4198 N 397.476 -2.88398 -5.41941 0
M  V30 4199 C 398.847 -3.08088 -5.38035 0
M  V30 4200 C 400.902 -1.99856 -4.56029 0
M  V30 4201 C 399.605 -4.17377 -5.85823 0
M  V30 4202 C 401.631 -3.08129 -5.04787 0
M  V30 4203 C 400.993 -4.15586 -5.68742 0
M  V30 4204 H 397.092 -0.0352107 -0.781207 0
M  V30 4205 H 399.676 -0.693237 -1.8194 0
M  V30 4206 H 397.847 0.889088 -3.78087 0
M  V30 4207 H 399.579 0.740287 -3.97872 0
M  V30 4208 H 396.334 -1.18566 -4.58518 0
M  V30 4209 H 396.758 -3.51572 -5.78555 0
M  V30 4210 H 401.4 -1.18079 -4.05977 0
M  V30 4211 H 399.118 -4.99943 -6.34888 0
M  V30 4212 H 402.704 -3.09557 -4.92611 0
M  V30 4213 H 401.584 -4.97987 -6.05787 0
M  V30 4214 N 399.087 1.5561 -0.249682 0
M  V30 4215 C 400.05 2.20217 0.635394 0
M  V30 4216 C 401.05 1.17227 1.10066 0
M  V30 4217 O 402.24 1.42292 1.00492 0
M  V30 4218 C 399.372 2.84794 1.87363 0
M  V30 4219 H 400.565 2.99814 0.0716752 0
M  V30 4220 H 398.118 1.563 -0.000153234 0
M  V30 4221 H 398.853 2.09142 2.47851 0
M  V30 4222 H 398.638 3.60241 1.5482 0
M  V30 4223 H 400.128 3.3423 2.5036 0
M  V30 4224 N 400.565 -0.0233959 1.57583 0
M  V30 4225 C 401.498 -1.05549 2.02323 0
M  V30 4226 C 402.476 -1.34843 0.908626 0
M  V30 4227 O 403.66 -1.47404 1.17491 0
M  V30 4228 C 400.787 -2.38885 2.40108 0
M  V30 4229 C 399.833 -2.2541 3.62067 0
M  V30 4230 S 400.666 -1.60217 5.1097 0
M  V30 4231 C 401.822 -2.95032 5.52003 0
M  V30 4232 H 402.055 -0.674435 2.89549 0
M  V30 4233 H 399.588 -0.23355 1.52623 0
M  V30 4234 H 401.546 -3.15562 2.62547 0
M  V30 4235 H 400.207 -2.74137 1.53323 0
M  V30 4236 H 399.4 -3.23854 3.86179 0
M  V30 4237 H 399.002 -1.56876 3.39508 0
M  V30 4238 H 401.294 -3.91357 5.53033 0
M  V30 4239 H 402.237 -2.75646 6.52246 0
M  V30 4240 H 402.645 -2.97865 4.79517 0
M  V30 4241 N 402.043 -1.548 -0.295768 0
M  V30 4242 C 402.991 -1.86874 -1.38495 0
M  V30 4243 C 403.985 -0.742938 -1.52239 0
M  V30 4244 O 405.191 -0.926999 -1.54294 0
M  V30 4245 H 401.566 -0.592786 -0.462719 0
M  V30 4246 H 403.537 -2.77904 -1.08682 0
M  V30 4247 C 402.286 -2.13732 -2.74252 0
M  V30 4248 H 401.609 -2.99835 -2.64459 0
M  V30 4249 H 403.049 -2.4011 -3.49461 0
M  V30 4250 C 401.508 -0.937539 -3.23592 0
M  V30 4251 O 402.038 -0.160665 -4.01379 0
M  V30 4252 N 400.244 -0.741478 -2.80981 0
M  V30 4253 H 399.791 -1.37489 -2.1784 0
M  V30 4254 H 399.749 0.0597103 -3.14343 0
M  V30 4255 N 403.521 0.559213 -1.47345 0
M  V30 4256 C 404.454 1.68201 -1.5422 0
M  V30 4257 C 405.432 1.57742 -0.394497 0
M  V30 4258 O 406.616 1.78628 -0.60201 0
M  V30 4259 C 403.743 3.0643 -1.44285 0
M  V30 4260 C 402.789 3.3534 -2.63532 0
M  V30 4261 S 403.622 3.24816 -4.25741 0
M  V30 4262 C 404.778 4.65542 -4.18355 0
M  V30 4263 H 405.011 1.62114 -2.49211 0
M  V30 4264 H 402.544 0.739871 -1.35519 0
M  V30 4265 H 404.502 3.86164 -1.3924 0
M  V30 4266 H 403.163 3.09984 -0.506816 0
M  V30 4267 H 402.356 4.36107 -2.52639 0
M  V30 4268 H 401.958 2.63221 -2.65689 0
M  V30 4269 H 404.25 5.56449 -3.86485 0
M  V30 4270 H 405.193 4.81493 -5.19202 0
M  V30 4271 H 405.601 4.43495 -3.49246 0
M  V30 4272 N 404.999 1.35443 0.805782 0
M  V30 4273 C 405.962 1.28301 1.89925 0
M  V30 4274 C 406.962 0.194285 1.59622 0
M  V30 4275 O 408.152 0.448036 1.6834 0
M  V30 4276 C 405.284 0.984997 3.2636 0
M  V30 4277 H 406.477 2.2553 1.97677 0
M  V30 4278 H 404.03 1.19979 1.00173 0
M  V30 4279 H 404.765 0.016603 3.24296 0
M  V30 4280 H 404.55 1.77269 3.4974 0
M  V30 4281 H 406.04 0.960651 4.064 0
M  V30 4282 N 406.477 -1.02803 1.19454 0
M  V30 4283 C 407.726 -1.7562 0.991996 0
M  V30 4284 C 408.039 -1.89672 -0.477901 0
M  V30 4285 O 409.245 -2.59468 -0.799287 0
M  V30 4286 C 407.701 -3.15812 1.72601 0
M  V30 4287 C 407.309 -3.0981 3.23607 0
M  V30 4288 C 409.053 -3.92918 1.60674 0
M  V30 4289 C 406.96 -4.44939 3.89594 0
M  V30 4290 H 405.89 -0.658352 0.367543 0
M  V30 4291 H 408.541 -1.15044 1.42959 0
M  V30 4292 H 406.923 -3.7686 1.21624 0
M  V30 4293 H 408.097 -2.58138 3.81709 0
M  V30 4294 H 406.412 -2.46201 3.35819 0
M  V30 4295 H 409.009 -4.9287 2.07323 0
M  V30 4296 H 409.352 -4.12502 0.561025 0
M  V30 4297 H 409.885 -3.38472 2.09001 0
M  V30 4298 H 406.624 -4.30559 4.94267 0
M  V30 4299 H 406.144 -4.96664 3.36281 0
M  V30 4300 H 407.823 -5.1382 3.93189 0
M  V30 4301 N 407.956 -0.998596 -1.21925 0
M  V30 4302 C 408.886 -0.573688 -2.26343 0
M  V30 4303 C 409.867 0.402296 -1.65274 0
M  V30 4304 O 411.052 0.291683 -1.91997 0
M  V30 4305 C 408.182 0.106839 -3.47136 0
M  V30 4306 C 407.136 -0.788269 -4.20678 0
M  V30 4307 C 406.462 0.0254927 -5.34694 0
M  V30 4308 C 407.762 -2.08784 -4.78755 0
M  V30 4309 H 409.456 -1.44651 -2.62138 0
M  V30 4310 H 407.002 -0.696975 -1.26009 0
M  V30 4311 H 408.955 0.415531 -4.19346 0
M  V30 4312 H 407.679 1.01424 -3.10452 0
M  V30 4313 H 406.338 -1.08069 -3.50309 0
M  V30 4314 H 405.986 0.933989 -4.94253 0
M  V30 4315 H 405.686 -0.570437 -5.84825 0
M  V30 4316 H 407.21 0.328147 -6.09718 0
M  V30 4317 H 408.624 -1.84272 -5.42878 0
M  V30 4318 H 407.021 -2.63307 -5.39249 0
M  V30 4319 H 408.091 -2.76284 -3.98491 0
M  V30 4320 N 409.434 1.37368 -0.772513 0
M  V30 4321 C 410.364 2.32856 -0.173304 0
M  V30 4322 C 411.345 1.55818 0.682262 0
M  V30 4323 O 412.53 1.84052 0.619566 0
M  V30 4324 C 409.66 3.40048 0.706007 0
M  V30 4325 C 408.614 4.27973 -0.0483144 0
M  V30 4326 C 407.94 5.26184 0.950491 0
M  V30 4327 C 409.24 5.07665 -1.22776 0
M  V30 4328 H 410.934 2.83217 -0.971002 0
M  V30 4329 H 408.48 1.3617 -0.468377 0
M  V30 4330 H 410.433 4.05827 1.13501 0
M  V30 4331 H 409.157 2.88214 1.53623 0
M  V30 4332 H 407.816 3.63726 -0.458107 0
M  V30 4333 H 407.464 4.7063 1.77529 0
M  V30 4334 H 407.164 5.85872 0.450314 0
M  V30 4335 H 408.688 5.94838 1.37842 0
M  V30 4336 H 410.102 5.66578 -0.875366 0
M  V30 4337 H 408.499 5.76681 -1.66007 0
M  V30 4338 H 409.569 4.40294 -2.03149 0
M  V30 4339 N 410.912 0.523116 1.48665 0
M  V30 4340 C 412.137 -0.0117284 2.07397 0
M  V30 4341 C 412.562 -1.28031 1.37803 0
M  V30 4342 O 411.92 -1.75836 0.441762 0
M  V30 4343 C 411.968 -0.225786 3.59892 0
M  V30 4344 O 411.072 -1.29592 3.91509 0
M  V30 4345 H 410.413 0.0360673 0.66302 0
M  V30 4346 H 412.943 0.729066 1.9117 0
M  V30 4347 H 412.953 -0.450552 4.05505 0
M  V30 4348 H 411.628 0.700944 4.09951 0
M  V30 4349 H 410.205 -1.05436 3.57684 0
M  V30 4350 N 412.39 -1.55475 0.257931 0
M  V30 4351 C 413.34 -2.18506 -0.651094 0
M  V30 4352 C 414.324 -1.14431 -1.13112 0
M  V30 4353 O 415.516 -1.40305 -1.07905 0
M  V30 4354 C 412.645 -2.89653 -1.84272 0
M  V30 4355 C 411.731 -4.00996 -1.38068 0
M  V30 4356 N 412.122 -5.01816 -0.633609 0
M  V30 4357 C 410.42 -4.13753 -1.66506 0
M  V30 4358 C 411.121 -5.80371 -0.392922 0
M  V30 4359 N 410.097 -5.3505 -0.960359 0
M  V30 4360 H 413.899 -2.93811 -0.0722883 0
M  V30 4361 H 411.413 -1.62286 0.0607256 0
M  V30 4362 H 413.41 -3.33245 -2.50506 0
M  V30 4363 H 412.07 -2.15854 -2.42564 0
M  V30 4364 H 413.081 -5.17128 -0.282626 0
M  V30 4365 H 409.758 -3.51133 -2.25858 0
M  V30 4366 H 411.148 -6.7159 0.204235 0
M  V30 4367 N 413.868 0.0150385 -1.57593 0
M  V30 4368 C 414.831 0.995996 -2.06428 0
M  V30 4369 C 415.831 1.2818 -0.970903 0
M  V30 4370 O 417.021 1.22949 -1.23406 0
M  V30 4371 C 414.153 2.32506 -2.49307 0
M  V30 4372 H 415.346 0.573873 -2.94358 0
M  V30 4373 H 412.899 0.262186 -1.54085 0
M  V30 4374 H 413.634 2.79438 -1.64575 0
M  V30 4375 H 413.419 2.13087 -3.29145 0
M  V30 4376 H 414.909 3.02906 -2.87468 0
M  V30 4377 N 415.346 1.54954 0.287554 0
M  V30 4378 C 416.294 1.87606 1.37502 0
M  V30 4379 C 417.288 0.751001 1.51843 0
M  V30 4380 O 418.494 0.935169 1.53801 0
M  V30 4381 H 414.869 0.595231 0.459569 0
M  V30 4382 H 416.84 2.78477 1.07206 0
M  V30 4383 C 415.589 2.15183 2.73115 0
M  V30 4384 H 414.912 3.01234 2.62866 0
M  V30 4385 H 416.352 2.4196 3.48183 0
M  V30 4386 C 414.811 0.954686 3.2309 0
M  V30 4387 O 415.341 0.181949 4.01288 0
M  V30 4388 N 413.547 0.756368 2.80584 0
M  V30 4389 H 413.094 1.38643 2.17108 0
M  V30 4390 H 413.052 -0.0430391 3.14371 0
M  V30 4391 N 416.824 -0.551391 1.4764 0
M  V30 4392 C 418.049 -1.33837 1.58437 0
M  V30 4393 C 418.474 -1.866 0.237063 0
M  V30 4394 O 417.832 -1.6328 -0.787994 0
M  V30 4395 C 417.88 -2.48014 2.61766 0
M  V30 4396 O 416.984 -3.50419 2.1744 0
M  V30 4397 H 416.325 -0.397299 0.532024 0
M  V30 4398 H 418.855 -0.665759 1.93465 0
M  V30 4399 H 418.865 -2.94503 2.82369 0
M  V30 4400 H 417.54 -2.08969 3.5959 0
M  V30 4401 H 416.117 -3.10196 2.06961 0
M  V30 4402 N 418.302 -1.35869 -0.798587 0
M  V30 4403 C 419.548 -1.2978 -1.55836 0
M  V30 4404 C 419.881 0.125322 -1.93795 0
M  V30 4405 O 419.156 1.07658 -1.61987 0
M  V30 4406 C 419.439 -2.21188 -2.84162 0
M  V30 4407 C 419.292 -3.72155 -2.52628 0
M  V30 4408 C 420.611 -2.11545 -3.85923 0
M  V30 4409 H 417.73 -0.472769 -0.565383 0
M  V30 4410 H 420.372 -1.66341 -0.918192 0
M  V30 4411 H 418.522 -1.90139 -3.38791 0
M  V30 4412 H 420.194 -4.13682 -2.04121 0
M  V30 4413 H 418.437 -3.92042 -1.85704 0
M  V30 4414 H 419.108 -4.31511 -3.44242 0
M  V30 4415 H 421.584 -2.38855 -3.40716 0
M  V30 4416 H 420.46 -2.77688 -4.73477 0
M  V30 4417 H 420.721 -1.09987 -4.282 0
M  V30 4418 N 419.78 1.02168 -1.19998 0
M  V30 4419 C 421.026 1.75945 -1.00852 0
M  V30 4420 C 421.359 1.88702 0.458828 0
M  V30 4421 O 420.634 1.40911 1.34069 0
M  V30 4422 C 420.917 3.18154 -1.68671 0
M  V30 4423 C 420.77 3.13224 -3.22817 0
M  V30 4424 C 422.089 4.16711 -1.41561 0
M  V30 4425 H 419.208 0.638673 -0.367785 0
M  V30 4426 H 421.85 1.19222 -1.4794 0
M  V30 4427 H 420 3.66586 -1.28636 0
M  V30 4428 H 421.672 2.72635 -3.72112 0
M  V30 4429 H 419.915 2.50751 -3.53986 0
M  V30 4430 H 420.586 4.13728 -3.65422 0
M  V30 4431 H 423.062 3.76913 -1.76284 0
M  V30 4432 H 421.938 5.14391 -1.91553 0
M  V30 4433 H 422.199 4.40774 -0.342193 0
M  V30 4434 N 421.258 1.00505 1.21394 0
M  V30 4435 C 422.206 0.558623 2.25792 0
M  V30 4436 C 423.2 -0.396848 1.64686 0
M  V30 4437 O 424.406 -0.268035 1.77993 0
M  V30 4438 H 420.781 0.1623 0.734277 0
M  V30 4439 H 422.752 1.4503 2.60785 0
M  V30 4440 C 421.501 -0.0989574 3.47559 0
M  V30 4441 H 420.824 0.627225 3.94849 0
M  V30 4442 H 422.264 -0.3746 4.22342 0
M  V30 4443 C 420.723 -1.33817 3.09184 0
M  V30 4444 O 421.253 -2.43252 3.19674 0
M  V30 4445 N 419.459 -1.21793 2.63846 0
M  V30 4446 H 419.006 -0.32746 2.5551 0
M  V30 4447 H 418.964 -2.04809 2.38539 0
M  V30 4448 N 422.737 -1.36956 0.779787 0
M  V30 4449 C 424.148 -1.82094 0.412156 0
M  V30 4450 C 424.499 -1.64926 -1.06273 0
M  V30 4451 O 423.624 -1.16483 -1.82375 0
M  V30 4452 C 424.219 -3.3059 0.741319 0
M  V30 4453 C 422.778 -3.73974 0.426641 0
M  V30 4454 C 421.925 -2.59368 0.980987 0
M  V30 4455 H 424.876 -1.25314 0.973758 0
M  V30 4456 H 424.897 -3.80489 0.028887 0
M  V30 4457 H 424.409 -3.43054 1.81482 0
M  V30 4458 H 422.51 -3.67076 -0.639215 0
M  V30 4459 H 422.623 -4.69778 0.940515 0
M  V30 4460 H 420.987 -2.51463 0.404757 0
M  V30 4461 H 421.77 -2.74621 2.06005 0
M  V30 4462 N 424.215 -0.530993 -1.48385 0
M  V30 4463 C 425.464 0.00474348 -2.01699 0
M  V30 4464 C 425.777 1.35227 -1.41325 0
M  V30 4465 O 426.983 1.97643 -1.86144 0
M  V30 4466 C 425.439 0.0588473 -3.59852 0
M  V30 4467 C 425.047 -1.28385 -4.2921 0
M  V30 4468 C 426.791 0.543358 -4.21008 0
M  V30 4469 C 424.698 -1.19028 -5.79298 0
M  V30 4470 H 423.628 0.00554317 -0.75398 0
M  V30 4471 H 426.279 -0.674924 -1.70637 0
M  V30 4472 H 424.661 0.803612 -3.8776 0
M  V30 4473 H 425.835 -2.04426 -4.12973 0
M  V30 4474 H 424.15 -1.70418 -3.7993 0
M  V30 4475 H 426.747 0.631351 -5.3096 0
M  V30 4476 H 427.09 1.54937 -3.86394 0
M  V30 4477 H 427.623 -0.145754 -3.97533 0
M  V30 4478 H 424.362 -2.17147 -6.18488 0
M  V30 4479 H 423.882 -0.471246 -5.97946 0
M  V30 4480 H 425.561 -0.881365 -6.40969 0
M  V30 4481 N 425.693 1.55336 -0.266172 0
M  V30 4482 C 426.939 1.99692 0.353681 0
M  V30 4483 C 427.272 1.1543 1.56172 0
M  V30 4484 O 426.547 0.222218 1.93226 0
M  V30 4485 C 426.83 3.52316 0.74466 0
M  V30 4486 C 426.683 4.47337 -0.470101 0
M  V30 4487 C 428.002 4.10588 1.58447 0
M  V30 4488 H 425.121 0.725961 0.12708 0
M  V30 4489 H 427.763 1.86336 -0.371333 0
M  V30 4490 H 425.913 3.63829 1.36239 0
M  V30 4491 H 427.585 4.4778 -1.10864 0
M  V30 4492 H 425.828 4.19364 -1.10978 0
M  V30 4493 H 426.499 5.51788 -0.15291 0
M  V30 4494 H 428.975 4.02297 1.06286 0
M  V30 4495 H 427.851 5.17607 1.82686 0
M  V30 4496 H 428.112 3.60253 2.56262 0
M  V30 4497 N 427.171 -0.0066808 1.57599 0
M  V30 4498 C 428.401 -0.703066 1.94269 0
M  V30 4499 C 428.809 -1.68206 0.866222 0
M  V30 4500 O 428.152 -1.82966 -0.164087 0
M  V30 4501 C 428.214 -1.49616 3.26887 0
M  V30 4502 C 427.878 -0.679494 4.5192 0
M  V30 4503 C 428.875 0.0299508 5.19891 0
M  V30 4504 C 426.56 -0.627433 4.98366 0
M  V30 4505 C 428.554 0.780514 6.32603 0
M  V30 4506 C 426.241 0.126861 6.10968 0
M  V30 4507 C 427.239 0.829574 6.77943 0
M  V30 4508 O 426.927 1.57157 7.88389 0
M  V30 4509 H 426.659 -0.201217 0.645359 0
M  V30 4510 H 429.213 0.0385326 2.05364 0
M  V30 4511 H 427.443 -2.28209 3.12182 0
M  V30 4512 H 429.132 -2.07726 3.48719 0
M  V30 4513 H 429.898 -0.00115963 4.85 0
M  V30 4514 H 425.777 -1.16392 4.46065 0
M  V30 4515 H 429.321 1.32954 6.84813 0
M  V30 4516 H 425.218 0.159815 6.45302 0
M  V30 4517 H 425.986 1.48758 8.04868 0
M  V30 4518 N 428.649 -1.55105 -0.279332 0
M  V30 4519 C 429.612 -1.86783 -1.32834 0
M  V30 4520 C 430.612 -0.74199 -1.42657 0
M  V30 4521 O 431.802 -1.0102 -1.41918 0
M  V30 4522 C 428.934 -2.06746 -2.71052 0
M  V30 4523 H 430.127 -2.8055 -1.05979 0
M  V30 4524 H 427.68 -1.47499 -0.517087 0
M  V30 4525 H 428.415 -1.15339 -3.03097 0
M  V30 4526 H 428.2 -2.88711 -2.65309 0
M  V30 4527 H 429.69 -2.32549 -3.46858 0
M  V30 4528 N 430.127 0.543554 -1.4793 0
M  V30 4529 C 431.357 1.32324 -1.58663 0
M  V30 4530 C 431.765 1.8766 -0.240896 0
M  V30 4531 O 431.108 1.66411 0.778011 0
M  V30 4532 C 431.17 2.52094 -2.56299 0
M  V30 4533 C 430.834 2.17944 -4.01683 0
M  V30 4534 C 431.831 1.74422 -4.89768 0
M  V30 4535 C 429.516 2.28884 -4.47121 0
M  V30 4536 C 431.51 1.42287 -6.21316 0
M  V30 4537 C 429.197 1.96361 -5.78693 0
M  V30 4538 C 430.195 1.53132 -6.65612 0
M  V30 4539 O 429.883 1.21029 -7.94737 0
M  V30 4540 H 429.615 0.409174 -0.538101 0
M  V30 4541 H 432.169 0.663887 -1.94375 0
M  V30 4542 H 430.399 3.20965 -2.15681 0
M  V30 4543 H 432.088 3.14165 -2.57012 0
M  V30 4544 H 432.854 1.65452 -4.55907 0
M  V30 4545 H 428.733 2.61488 -3.79664 0
M  V30 4546 H 432.277 1.08472 -6.89115 0
M  V30 4547 H 428.174 2.04967 -6.12094 0
M  V30 4548 H 428.942 1.34543 -8.07366 0
M  V30 4549 N 431.605 1.3629 0.791371 0
M  V30 4550 C 433.021 1.16661 1.08914 0
M  V30 4551 C 433.221 -0.0106266 2.01497 0
M  V30 4552 O 432.277 -0.676596 2.43266 0
M  V30 4553 C 433.59 2.47656 1.70549 0
M  V30 4554 C 435.138 2.54002 1.82899 0
M  V30 4555 C 435.613 3.85078 2.47949 0
M  V30 4556 N 437.104 3.86413 2.5542 0
M  V30 4557 C 437.839 4.84572 3.06557 0
M  V30 4558 N 437.335 5.93124 3.58016 0
M  V30 4559 N 439.128 4.71994 3.05251 0
M  V30 4560 H 431.279 2.11668 0.176238 0
M  V30 4561 H 433.542 0.937486 0.140796 0
M  V30 4562 H 433.248 3.34059 1.09989 0
M  V30 4563 H 433.122 2.63319 2.70079 0
M  V30 4564 H 435.509 1.68018 2.42598 0
M  V30 4565 H 435.59 2.42239 0.821808 0
M  V30 4566 H 435.234 4.71467 1.88895 0
M  V30 4567 H 435.164 3.94135 3.49235 0
M  V30 4568 H 437.655 3.07988 2.18979 0
M  V30 4569 H 437.968 6.63999 3.95381 0
M  V30 4570 H 436.313 5.96796 3.56173 0
M  V30 4571 H 439.504 3.86321 2.64336 0
M  V30 4572 H 439.677 5.48653 3.44796 0
M  V30 4573 N 433.083 -1.0153 1.20538 0
M  V30 4574 C 434.031 -2.12215 0.952235 0
M  V30 4575 C 435.025 -1.69123 -0.0968735 0
M  V30 4576 O 436.231 -1.7992 0.0536006 0
M  V30 4577 H 432.606 -0.693576 0.290613 0
M  V30 4578 H 434.577 -2.3075 1.89201 0
M  V30 4579 C 433.326 -3.43755 0.522287 0
M  V30 4580 H 432.649 -3.7734 1.32115 0
M  V30 4581 H 434.089 -4.22254 0.384389 0
M  V30 4582 C 432.548 -3.28088 -0.765489 0
M  V30 4583 O 433.078 -3.57921 -1.8236 0
M  V30 4584 N 431.284 -2.81333 -0.728011 0
M  V30 4585 H 430.831 -2.57255 0.133332 0
M  V30 4586 H 430.789 -2.71232 -1.58999 0
M  V30 4587 N 434.561 -1.01147 -1.20859 0
M  V30 4588 C 435.977 -0.725422 -1.42161 0
M  V30 4589 C 436.177 0.696919 -1.89064 0
M  V30 4590 O 435.233 1.46539 -2.05627 0
M  V30 4591 C 436.546 -1.74678 -2.44761 0
M  V30 4592 C 438.094 -1.76433 -2.58535 0
M  V30 4593 C 438.569 -2.77481 -3.64374 0
M  V30 4594 N 440.06 -2.76189 -3.71852 0
M  V30 4595 C 440.795 -3.51035 -4.53389 0
M  V30 4596 N 440.291 -4.35541 -5.38773 0
M  V30 4597 N 442.084 -3.39655 -4.47873 0
M  V30 4598 H 434.235 -1.92979 -0.887282 0
M  V30 4599 H 436.498 -0.833327 -0.451962 0
M  V30 4600 H 436.204 -2.76551 -2.17285 0
M  V30 4601 H 436.078 -1.55472 -3.43669 0
M  V30 4602 H 438.465 -0.75248 -2.85345 0
M  V30 4603 H 438.546 -1.99712 -1.5984 0
M  V30 4604 H 438.19 -3.78827 -3.38308 0
M  V30 4605 H 438.12 -2.51466 -4.6268 0
M  V30 4606 H 440.611 -2.14885 -3.10858 0
M  V30 4607 H 440.924 -4.89432 -5.98061 0
M  V30 4608 H 439.269 -4.39621 -5.38292 0
M  V30 4609 H 442.46 -2.73063 -3.80203 0
M  V30 4610 H 442.633 -3.9824 -5.11184 0
M  V30 4611 N 436.039 1.36541 -0.78704 0
M  V30 4612 C 437.316 1.9355 -0.282424 0
M  V30 4613 C 437.696 1.71919 1.22503 0
M  V30 4614 O 437.044 1.07677 2.01539 0
M  V30 4615 C 437.254 3.4246 -0.672462 0
M  V30 4616 C 438.602 4.19582 -0.650863 0
M  V30 4617 O 439.626 3.50889 -0.612789 0
M  V30 4618 O 438.485 5.42106 -0.691623 0
M  V30 4619 H 435.579 0.824091 -0.0693 0
M  V30 4620 H 438.125 1.45736 -0.869423 0
M  V30 4621 H 436.897 3.51851 -1.71221 0
M  V30 4622 H 436.52 3.97556 -0.0592211 0
M  V30 4623 N 437.518 0.538854 1.48102 0
M  V30 4624 C 438.765 0.0080018 2.02498 0
M  V30 4625 C 439.093 -1.33437 1.41509 0
M  V30 4626 O 438.348 -1.87709 0.553507 0
M  V30 4627 C 438.647 -0.153808 3.57069 0
M  V30 4628 C 438.313 1.11533 4.36888 0
M  V30 4629 C 436.975 1.46314 4.58417 0
M  V30 4630 C 439.327 1.95718 4.83057 0
M  V30 4631 C 436.655 2.6516 5.23361 0
M  V30 4632 C 439.007 3.13751 5.49312 0
M  V30 4633 C 437.671 3.48866 5.69077 0
M  V30 4634 H 436.941 0.00292807 0.740994 0
M  V30 4635 H 439.588 0.706668 1.77984 0
M  V30 4636 H 437.893 -0.935309 3.80472 0
M  V30 4637 H 439.59 -0.579607 3.96789 0
M  V30 4638 H 436.18 0.834484 4.20398 0
M  V30 4639 H 440.364 1.70158 4.66219 0
M  V30 4640 H 435.62 2.92558 5.36861 0
M  V30 4641 H 439.794 3.79282 5.84053 0
M  V30 4642 H 437.421 4.41054 6.19173 0
M  V30 4643 N 438.996 -1.55193 0.274407 0
M  V30 4644 C 440.412 -1.59401 -0.0797543 0
M  V30 4645 C 440.612 -1.29162 -1.54659 0
M  V30 4646 O 439.668 -1.05215 -2.29534 0
M  V30 4647 C 440.981 -2.99257 0.294238 0
M  V30 4648 C 442.529 -3.12072 0.240796 0
M  V30 4649 C 443.004 -4.54194 0.589218 0
M  V30 4650 N 444.495 -4.60033 0.540744 0
M  V30 4651 C 445.23 -5.68027 0.783147 0
M  V30 4652 N 444.726 -6.8417 1.09013 0
M  V30 4653 N 446.519 -5.57572 0.711993 0
M  V30 4654 H 438.67 -1.73113 1.23067 0
M  V30 4655 H 440.933 -0.807197 0.497129 0
M  V30 4656 H 440.639 -3.26217 1.31435 0
M  V30 4657 H 440.513 -3.75427 -0.365281 0
M  V30 4658 H 442.9 -2.84877 -0.770024 0
M  V30 4659 H 442.981 -2.38117 0.934563 0
M  V30 4660 H 442.625 -4.82115 1.59772 0
M  V30 4661 H 442.555 -5.26448 -0.126331 0
M  V30 4662 H 445.046 -3.76599 0.313327 0
M  V30 4663 H 445.359 -7.6243 1.26178 0
M  V30 4664 H 443.704 -6.85787 1.12789 0
M  V30 4665 H 446.895 -4.65714 0.472014 0
M  V30 4666 H 447.068 -6.41659 0.90429 0
M  V30 4667 N 440.474 -0.00167713 -1.576 0
M  V30 4668 C 441.704 0.692754 -1.94639 0
M  V30 4669 C 442.112 1.67744 -0.87513 0
M  V30 4670 O 441.455 1.8305 0.154382 0
M  V30 4671 C 441.517 1.47881 -3.27676 0
M  V30 4672 C 441.181 0.655518 -4.52274 0
M  V30 4673 C 442.178 -0.0575214 -5.19868 0
M  V30 4674 C 439.863 0.600994 -4.98692 0
M  V30 4675 C 441.857 -0.814052 -6.3218 0
M  V30 4676 C 439.544 -0.15926 -6.10892 0
M  V30 4677 C 440.542 -0.865515 -6.77494 0
M  V30 4678 O 440.23 -1.61336 -7.87544 0
M  V30 4679 H 439.962 0.197792 -0.646417 0
M  V30 4680 H 442.516 -0.049423 -2.05341 0
M  V30 4681 H 440.746 2.2655 -3.13388 0
M  V30 4682 H 442.435 2.05874 -3.49816 0
M  V30 4683 H 443.201 -0.0245611 -4.84994 0
M  V30 4684 H 439.08 1.14025 -4.46676 0
M  V30 4685 H 442.624 -1.36584 -6.84098 0
M  V30 4686 H 438.521 -0.194035 -6.45208 0
M  V30 4687 H 439.289 -1.53025 -8.04068 0
M  V30 4688 N 441.952 1.55251 0.271103 0
M  V30 4689 C 443.18 1.79974 1.02064 0
M  V30 4690 C 443.595 0.574003 1.79863 0
M  V30 4691 O 442.952 -0.456962 1.76686 0
M  V30 4692 C 443.003 3.02603 1.97772 0
M  V30 4693 O 442.724 4.20443 1.23124 0
M  V30 4694 C 444.225 3.39944 2.84522 0
M  V30 4695 H 441.445 0.599489 0.301419 0
M  V30 4696 H 443.989 2.02268 0.301313 0
M  V30 4697 H 442.144 2.8243 2.65165 0
M  V30 4698 H 442.558 4.89783 1.87651 0
M  V30 4699 H 444.032 4.28915 3.47471 0
M  V30 4700 H 444.509 2.59432 3.54389 0
M  V30 4701 H 445.115 3.62383 2.22618 0
M  V30 4702 N 443.43 -0.535701 1.48216 0
M  V30 4703 C 444.677 -1.29183 1.55942 0
M  V30 4704 C 445.005 -1.93125 0.230857 0
M  V30 4705 O 444.26 -1.79556 -0.778331 0
M  V30 4706 C 444.559 -2.4068 2.64212 0
M  V30 4707 C 444.225 -1.94428 4.06827 0
M  V30 4708 C 442.887 -1.81532 4.45645 0
M  V30 4709 C 445.239 -1.59405 4.96225 0
M  V30 4710 C 442.567 -1.31939 5.71672 0
M  V30 4711 C 444.919 -1.11276 6.22736 0
M  V30 4712 C 443.583 -0.969924 6.60416 0
M  V30 4713 H 442.853 -0.472715 0.570632 0
M  V30 4714 H 445.5 -0.598437 1.81909 0
M  V30 4715 H 443.805 -3.15666 2.32083 0
M  V30 4716 H 445.502 -2.98822 2.67407 0
M  V30 4717 H 442.092 -2.05415 3.76168 0
M  V30 4718 H 446.276 -1.68231 4.66917 0
M  V30 4719 H 441.532 -1.19562 5.99596 0
M  V30 4720 H 445.706 -0.832453 6.91407 0
M  V30 4721 H 443.333 -0.583436 7.57958 0
M  V30 4722 N 444.908 -1.36708 -0.784132 0
M  V30 4723 C 445.858 -1.2799 -1.88686 0
M  V30 4724 C 446.842 -0.170282 -1.59996 0
M  V30 4725 O 448.034 -0.403571 -1.72338 0
M  V30 4726 C 445.163 -1.07674 -3.25977 0
M  V30 4727 C 444.249 -2.23127 -3.60659 0
M  V30 4728 N 444.64 -3.48467 -3.66612 0
M  V30 4729 C 442.938 -2.15009 -3.90752 0
M  V30 4730 C 443.639 -4.24525 -3.97685 0
M  V30 4731 N 442.615 -3.53524 -4.12943 0
M  V30 4732 H 446.417 -2.22927 -1.91522 0
M  V30 4733 H 443.931 -1.29503 -0.979933 0
M  V30 4734 H 445.928 -0.995151 -4.04849 0
M  V30 4735 H 444.588 -0.13643 -3.24413 0
M  V30 4736 H 445.599 -3.82534 -3.49125 0
M  V30 4737 H 442.276 -1.28963 -3.97083 0
M  V30 4738 H 443.666 -5.32944 -4.0917 0
M  V30 4739 N 446.386 1.0089 -1.21074 0
M  V30 4740 C 447.333 2.09588 -0.966512 0
M  V30 4741 C 448.303 1.65761 0.106089 0
M  V30 4742 O 449.488 1.90758 -0.0402287 0
M  V30 4743 C 446.628 3.40958 -0.533058 0
M  V30 4744 C 445.741 3.9822 -1.67467 0
M  V30 4745 C 444.876 5.17682 -1.19076 0
M  V30 4746 C 443.915 5.67043 -2.30496 0
M  V30 4747 N 443.052 6.77759 -1.83267 0
M  V30 4748 H 447.892 2.29815 -1.89708 0
M  V30 4749 H 445.429 1.12689 -0.945489 0
M  V30 4750 H 447.387 4.1637 -0.263019 0
M  V30 4751 H 446.017 3.20781 0.360505 0
M  V30 4752 H 445.069 3.1983 -2.05944 0
M  V30 4753 H 446.381 4.3085 -2.51336 0
M  V30 4754 H 445.535 6.00326 -0.877151 0
M  V30 4755 H 444.274 4.86635 -0.322066 0
M  V30 4756 H 443.279 4.82999 -2.62664 0
M  V30 4757 H 444.504 6.00121 -3.17855 0
M  V30 4758 H 442.45 6.48527 -0.987356 0
M  V30 4759 H 442.367 7.09624 -2.60711 0
M  V30 4760 H 443.635 7.63949 -1.54928 0
M  V30 4761 N 447.864 1.01787 1.20321 0
M  V30 4762 C 449.113 0.703249 1.89043 0
M  V30 4763 C 449.426 -0.770445 1.79787 0
M  V30 4764 O 450.632 -1.19767 2.43656 0
M  V30 4765 C 449.088 1.20749 3.3904 0
M  V30 4766 C 448.696 2.70817 3.56878 0
M  V30 4767 C 450.44 0.968352 4.13308 0
M  V30 4768 C 448.347 3.14716 5.00708 0
M  V30 4769 H 447.277 0.259354 0.707991 0
M  V30 4770 H 449.928 1.23072 1.36108 0
M  V30 4771 H 448.31 0.607989 3.91305 0
M  V30 4772 H 449.484 3.36327 3.14993 0
M  V30 4773 H 447.799 2.92888 2.95983 0
M  V30 4774 H 450.396 1.27173 5.19356 0
M  V30 4775 H 450.739 -0.095149 4.16191 0
M  V30 4776 H 451.272 1.53129 3.67146 0
M  V30 4777 H 448.011 4.20347 5.02979 0
M  V30 4778 H 447.531 2.53927 5.43398 0
M  V30 4779 H 449.21 3.07426 5.69296 0
M  V30 4780 N 449.342 -1.36122 0.79427 0
M  V30 4781 C 450.591 -1.98361 0.365464 0
M  V30 4782 C 450.904 -1.6374 -1.06997 0
M  V30 4783 O 452.11 -2.19251 -1.60129 0
M  V30 4784 C 450.566 -3.54821 0.602496 0
M  V30 4785 C 450.174 -3.98362 2.04967 0
M  V30 4786 C 451.918 -4.2383 0.238437 0
M  V30 4787 C 449.825 -5.47619 2.2331 0
M  V30 4788 H 448.755 -0.742193 0.13291 0
M  V30 4789 H 451.406 -1.55354 0.976589 0
M  V30 4790 H 449.788 -3.95922 -0.078409 0
M  V30 4791 H 450.962 -3.68447 2.76737 0
M  V30 4792 H 449.277 -3.42206 2.37243 0
M  V30 4793 H 451.874 -5.33529 0.353705 0
M  V30 4794 H 452.217 -4.08264 -0.814006 0
M  V30 4795 H 452.75 -3.88108 0.872769 0
M  V30 4796 H 449.489 -5.68138 3.26955 0
M  V30 4797 H 449.009 -5.79145 1.5605 0
M  V30 4798 H 450.688 -6.13911 2.0426 0
M  V30 4799 N 450.82 -0.546701 -1.47814 0
M  V30 4800 C 452.045 -0.021268 -2.07389 0
M  V30 4801 C 452.47 1.25822 -1.39822 0
M  V30 4802 O 451.828 1.75111 -0.46968 0
M  V30 4803 C 451.876 0.168502 -3.60206 0
M  V30 4804 O 450.98 1.23347 -3.93522 0
M  V30 4805 H 450.321 -0.0466108 -0.662362 0
M  V30 4806 H 452.851 -0.759387 -1.89985 0
M  V30 4807 H 452.861 0.385982 -4.0617 0
M  V30 4808 H 451.536 -0.766075 -4.08784 0
M  V30 4809 H 450.113 0.997319 -3.59316 0
M  V30 4810 N 452.299 1.55045 -0.282633 0
M  V30 4811 C 453.715 1.59441 0.0712997 0
M  V30 4812 C 453.915 1.2998 1.53972 0
M  V30 4813 O 452.971 1.06431 2.28973 0
M  V30 4814 C 454.284 2.99097 -0.310104 0
M  V30 4815 C 455.832 3.1194 -0.257343 0
M  V30 4816 C 456.307 4.53875 -0.613297 0
M  V30 4817 N 457.798 4.5974 -0.565134 0
M  V30 4818 C 458.533 5.67603 -0.81326 0
M  V30 4819 N 458.029 6.83582 -1.1264 0
M  V30 4820 N 459.822 5.57187 -0.741553 0
M  V30 4821 H 451.973 1.72458 -1.23984 0
M  V30 4822 H 454.236 0.804549 -0.501403 0
M  V30 4823 H 453.942 3.25516 -1.33163 0
M  V30 4824 H 453.816 3.75616 0.345366 0
M  V30 4825 H 456.203 2.85281 0.754905 0
M  V30 4826 H 456.284 2.37618 -0.947178 0
M  V30 4827 H 455.928 4.81261 -1.62327 0
M  V30 4828 H 455.858 5.26508 0.09841 0
M  V30 4829 H 458.349 3.76427 -0.333294 0
M  V30 4830 H 458.662 7.6175 -1.30219 0
M  V30 4831 H 457.007 6.85179 -1.16425 0
M  V30 4832 H 460.198 4.65457 -0.496705 0
M  V30 4833 H 460.371 6.41171 -0.938306 0
M  V30 4834 N 453.777 0.010035 1.57597 0
M  V30 4835 C 455.007 -0.682422 1.95004 0
M  V30 4836 C 455.415 -1.67278 0.884014 0
M  V30 4837 O 454.758 -1.83129 -0.144672 0
M  V30 4838 C 454.82 -1.46141 3.28456 0
M  V30 4839 C 454.484 -0.631523 4.52615 0
M  V30 4840 C 455.481 0.0850905 5.1983 0
M  V30 4841 C 453.166 -0.574539 4.99003 0
M  V30 4842 C 455.16 0.847566 6.3174 0
M  V30 4843 C 452.847 0.191655 6.10799 0
M  V30 4844 C 453.845 0.901432 6.77025 0
M  V30 4845 O 453.533 1.65511 7.86677 0
M  V30 4846 H 453.265 -0.194361 0.647456 0
M  V30 4847 H 455.819 0.060312 2.05311 0
M  V30 4848 H 454.049 -2.24885 3.14585 0
M  V30 4849 H 455.738 -2.04016 3.50902 0
M  V30 4850 H 456.504 0.0502812 4.84974 0
M  V30 4851 H 452.383 -1.11654 4.47274 0
M  V30 4852 H 455.927 1.4021 6.83364 0
M  V30 4853 H 451.824 0.228249 6.45096 0
M  V30 4854 H 452.592 1.57287 8.03245 0
M  V30 4855 N 455.255 -1.55392 -0.262866 0
M  V30 4856 C 456.185 -1.91978 -1.32917 0
M  V30 4857 C 457.166 -0.7828 -1.51017 0
M  V30 4858 O 458.351 -1.04178 -1.63892 0
M  V30 4859 C 455.481 -2.20055 -2.68687 0
M  V30 4860 C 454.435 -3.35854 -2.65304 0
M  V30 4861 C 453.761 -3.49435 -4.04721 0
M  V30 4862 C 455.061 -4.71977 -2.23685 0
M  V30 4863 H 456.755 -2.81292 -1.02544 0
M  V30 4864 H 454.301 -1.3534 -0.491846 0
M  V30 4865 H 456.254 -2.44237 -3.43404 0
M  V30 4866 H 454.978 -1.27551 -3.00663 0
M  V30 4867 H 453.637 -3.11655 -1.93045 0
M  V30 4868 H 453.285 -2.54379 -4.33936 0
M  V30 4869 H 452.985 -4.27297 -4.0335 0
M  V30 4870 H 454.509 -3.7592 -4.81161 0
M  V30 4871 H 455.923 -4.95637 -2.88127 0
M  V30 4872 H 454.32 -5.52828 -2.33456 0
M  V30 4873 H 455.39 -4.70115 -1.18827 0
M  V30 4874 N 456.733 0.527833 -1.48498 0
M  V30 4875 C 457.663 1.64136 -1.66077 0
M  V30 4876 C 458.644 1.62286 -0.509625 0
M  V30 4877 O 459.829 1.79449 -0.742413 0
M  V30 4878 C 456.959 3.02717 -1.70234 0
M  V30 4879 C 455.913 3.19426 -2.8487 0
M  V30 4880 C 455.239 4.5909 -2.74118 0
M  V30 4881 C 456.539 3.01993 -4.26142 0
M  V30 4882 H 458.233 1.4968 -2.593 0
M  V30 4883 H 455.779 0.718654 -1.24785 0
M  V30 4884 H 457.732 3.80491 -1.8112 0
M  V30 4885 H 456.456 3.18201 -0.735911 0
M  V30 4886 H 455.115 2.4407 -2.73542 0
M  V30 4887 H 454.763 4.71413 -1.7544 0
M  V30 4888 H 454.463 4.71214 -3.51042 0
M  V30 4889 H 455.987 5.3896 -2.86974 0
M  V30 4890 H 457.401 3.69558 -4.38292 0
M  V30 4891 H 455.798 3.2561 -5.04082 0
M  V30 4892 H 456.868 1.98396 -4.42456 0
M  V30 4893 N 458.211 1.37122 0.776871 0
M  V30 4894 C 459.451 1.33441 1.54831 0
M  V30 4895 C 459.815 -0.0818963 1.91825 0
M  V30 4896 O 461.016 -0.24338 2.67696 0
M  V30 4897 C 459.287 2.24267 2.78279 0
M  V30 4898 S 460.846 2.38389 3.68397 0
M  V30 4899 H 457.664 0.473791 0.530135 0
M  V30 4900 H 460.266 1.7282 0.913968 0
M  V30 4901 H 458.97 3.261 2.49173 0
M  V30 4902 H 458.501 1.85953 3.46677 0
M  V30 4903 H 460.516 1.59068 4.70013 0
M  V30 4904 N 459.689 -1.00246 1.21608 0
M  V30 4905 C 460.621 -2.09244 0.935401 0
M  V30 4906 C 461.634 -1.62592 -0.0823594 0
M  V30 4907 O 462.823 -1.77865 0.150456 0
M  V30 4908 C 459.923 -3.36724 0.383453 0
M  V30 4909 C 459.096 -4.1245 1.45615 0
M  V30 4910 C 458.155 -5.18219 0.912991 0
M  V30 4911 O 457.181 -5.46337 1.59701 0
M  V30 4912 N 458.383 -5.7987 -0.270478 0
M  V30 4913 H 461.148 -2.33905 1.87373 0
M  V30 4914 H 458.709 -1.16748 1.12167 0
M  V30 4915 H 460.701 -4.047 0.00562157 0
M  V30 4916 H 459.271 -3.09201 -0.459758 0
M  V30 4917 H 458.491 -3.39241 2.00772 0
M  V30 4918 H 459.779 -4.59819 2.17817 0
M  V30 4919 H 459.177 -5.59381 -0.843195 0
M  V30 4920 H 457.734 -6.49126 -0.589794 0
M  V30 4921 N 461.167 -1.02423 -1.1978 0
M  V30 4922 C 462.13 -0.605703 -2.21052 0
M  V30 4923 C 463.13 0.328209 -1.57415 0
M  V30 4924 O 464.32 0.115853 -1.73814 0
M  V30 4925 C 461.452 0.114366 -3.40708 0
M  V30 4926 H 462.645 -1.5017 -2.59594 0
M  V30 4927 H 460.198 -0.814888 -1.33376 0
M  V30 4928 H 460.933 1.02492 -3.07678 0
M  V30 4929 H 460.718 -0.556641 -3.88129 0
M  V30 4930 H 462.208 0.394272 -4.15735 0
M  V30 4931 N 462.645 1.35699 -0.801477 0
M  V30 4932 C 463.922 1.9324 -0.302937 0
M  V30 4933 C 464.302 1.73209 1.20672 0
M  V30 4934 O 463.65 1.09809 2.00385 0
M  V30 4935 C 463.86 3.41728 -0.708747 0
M  V30 4936 C 465.208 4.18868 -0.695328 0
M  V30 4937 O 466.232 3.5022 -0.649971 0
M  V30 4938 O 465.091 5.41342 -0.749081 0
M  V30 4939 H 462.185 0.82331 -0.0780367 0
M  V30 4940 H 464.731 1.44806 -0.884832 0
M  V30 4941 H 463.503 3.50015 -1.74944 0
M  V30 4942 H 463.126 3.97471 -0.101384 0
M  V30 4943 N 464.123 0.554532 1.47522 0
M  V30 4944 C 465.369 0.0295227 2.02779 0
M  V30 4945 C 465.702 -1.31582 1.42828 0
M  V30 4946 O 464.977 -1.85561 0.582872 0
M  V30 4947 C 465.26 -0.0664057 3.60039 0
M  V30 4948 C 465.113 1.30585 4.30427 0
M  V30 4949 C 466.432 -0.781162 4.33112 0
M  V30 4950 H 463.551 0.0122027 0.736899 0
M  V30 4951 H 466.193 0.716305 1.7598 0
M  V30 4952 H 464.343 -0.651307 3.83002 0
M  V30 4953 H 466.015 1.93374 4.18813 0
M  V30 4954 H 464.258 1.88125 3.90886 0
M  V30 4955 H 464.929 1.19147 5.38988 0
M  V30 4956 H 467.405 -0.284565 4.15126 0
M  V30 4957 H 466.281 -0.817237 5.42782 0
M  V30 4958 H 466.542 -1.83672 4.0214 0
M  V30 4959 N 465.601 -1.54893 0.290851 0
M  V30 4960 C 466.548 -2.23138 -0.58974 0
M  V30 4961 C 467.518 -1.21036 -1.13752 0
M  V30 4962 O 468.703 -1.49626 -1.18392 0
M  V30 4963 C 465.843 -2.96811 -1.76061 0
M  V30 4964 C 464.956 -4.13665 -1.24519 0
M  V30 4965 C 464.091 -4.74944 -2.3791 0
M  V30 4966 C 463.13 -5.83963 -1.83451 0
M  V30 4967 N 462.267 -6.39239 -2.90376 0
M  V30 4968 H 467.107 -2.98 -0.00114915 0
M  V30 4969 H 464.644 -1.47096 0.0112006 0
M  V30 4970 H 466.602 -3.37751 -2.44909 0
M  V30 4971 H 465.232 -2.24344 -2.32098 0
M  V30 4972 H 464.284 -3.77737 -0.449288 0
M  V30 4973 H 465.596 -4.92238 -0.806424 0
M  V30 4974 H 464.75 -5.18684 -3.14724 0
M  V30 4975 H 463.489 -3.95682 -2.85109 0
M  V30 4976 H 462.494 -5.39657 -1.05122 0
M  V30 4977 H 463.719 -6.65103 -1.37169 0
M  V30 4978 H 461.665 -5.62864 -3.36927 0
M  V30 4979 H 461.582 -7.13129 -2.50965 0
M  V30 4980 H 462.85 -6.87637 -3.67118 0
M  V30 4981 N 467.08 -0.0183926 -1.57589 0
M  V30 4982 C 468.305 0.676634 -1.96052 0
M  V30 4983 C 468.73 1.6548 -0.894307 0
M  V30 4984 O 468.088 1.80712 0.145849 0
M  V30 4985 C 468.136 1.36872 -3.33614 0
M  V30 4986 O 467.24 2.48372 -3.29219 0
M  V30 4987 H 466.581 0.1786 -0.63953 0
M  V30 4988 H 469.111 -0.077056 -2.04455 0
M  V30 4989 H 469.121 1.72797 -3.69601 0
M  V30 4990 H 467.796 0.651636 -4.10763 0
M  V30 4991 H 466.373 2.14639 -3.04934 0
M  V30 4992 N 468.558 1.5553 0.254621 0
M  V30 4993 C 469.806 1.7665 0.981793 0
M  V30 4994 C 470.127 0.580963 1.86145 0
M  V30 4995 O 469.397 -0.403537 1.91699 0
M  V30 4996 H 467.977 0.651475 0.365498 0
M  V30 4997 H 470.639 1.92958 0.274426 0
M  V30 4998 H 469.735 2.67486 1.60802 0
M  V30 4999 N 470.036 -0.519951 1.48776 0
M  V30 5000 C 470.984 -1.64443 1.64503 0
M  V30 5001 C 471.978 -1.61501 0.511248 0
M  V30 5002 O 473.184 -1.66238 0.690294 0
M  V30 5003 H 469.559 -0.544776 0.518385 0
M  V30 5004 H 471.53 -1.48325 2.58925 0
M  V30 5005 C 470.279 -3.02673 1.71127 0
M  V30 5006 H 469.602 -3.05635 2.57735 0
M  V30 5007 H 471.042 -3.80941 1.86172 0
M  V30 5008 C 469.501 -3.33854 0.452032 0
M  V30 5009 O 470.031 -3.99385 -0.430678 0
M  V30 5010 N 468.237 -2.88825 0.32069 0
M  V30 5011 H 467.784 -2.35674 1.03998 0
M  V30 5012 H 467.742 -3.10056 -0.520814 0
M  V30 5013 N 471.514 -1.37532 -0.769588 0
M  V30 5014 C 472.762 -1.32597 -1.5252 0
M  V30 5015 C 473.083 0.0884294 -1.94799 0
M  V30 5016 O 472.353 1.03289 -1.66458 0
M  V30 5017 H 470.933 -0.487846 -0.565699 0
M  V30 5018 H 473.595 -1.72044 -0.915806 0
M  V30 5019 H 472.691 -1.96643 -2.42359 0
M  V30 5020 N 472.992 0.995999 -1.22138 0
M  V30 5021 C 473.924 2.08745 -0.946485 0
M  V30 5022 C 474.937 1.62633 0.0737356 0
M  V30 5023 O 476.126 1.77782 -0.159886 0
M  V30 5024 C 473.226 3.36516 -0.401305 0
M  V30 5025 C 472.399 4.11672 -1.47801 0
M  V30 5026 C 471.458 5.17728 -0.940461 0
M  V30 5027 O 470.484 5.45482 -1.62596 0
M  V30 5028 N 471.686 5.80005 0.239723 0
M  V30 5029 H 474.451 2.32908 -1.88611 0
M  V30 5030 H 472.012 1.16152 -1.12785 0
M  V30 5031 H 474.004 4.04691 -0.0270837 0
M  V30 5032 H 472.574 3.0944 0.443354 0
M  V30 5033 H 471.794 3.38171 -2.02568 0
M  V30 5034 H 473.082 4.58657 -2.20253 0
M  V30 5035 H 472.48 5.5982 0.813518 0
M  V30 5036 H 471.037 6.4943 0.555361 0
M  V30 5037 N 474.47 1.03057 1.19235 0
M  V30 5038 C 475.433 0.617418 2.20727 0
M  V30 5039 C 476.433 -0.319856 1.57587 0
M  V30 5040 O 477.623 -0.106633 1.73873 0
M  V30 5041 C 474.755 -0.096296 3.40764 0
M  V30 5042 H 475.948 1.51544 2.58794 0
M  V30 5043 H 473.501 0.821949 1.32942 0
M  V30 5044 H 474.236 -1.00859 3.08217 0
M  V30 5045 H 474.021 0.577217 3.87828 0
M  V30 5046 H 475.511 -0.372219 4.15938 0
M  V30 5047 N 475.948 -1.35272 0.808662 0
M  V30 5048 C 477.196 -1.98316 0.389233 0
M  V30 5049 C 477.517 -1.64465 -1.04767 0
M  V30 5050 O 476.787 -0.928175 -1.72516 0
M  V30 5051 H 475.367 -0.733585 0.140935 0
M  V30 5052 H 478.029 -1.6515 1.03496 0
M  V30 5053 H 477.125 -3.08123 0.496631 0
M  V30 5054 N 477.426 -0.562348 -1.47226 0
M  V30 5055 C 478.672 -0.0402761 -2.0276 0
M  V30 5056 C 479.005 1.30823 -1.43523 0
M  V30 5057 O 478.28 1.85249 -0.592705 0
M  V30 5058 C 478.563 0.047311 -3.60069 0
M  V30 5059 C 478.416 -1.32865 -4.29729 0
M  V30 5060 C 479.735 0.758182 -4.3352 0
M  V30 5061 H 476.854 -0.0161105 -0.736824 0
M  V30 5062 H 479.496 -0.725628 -1.75598 0
M  V30 5063 H 477.646 0.630986 -3.83342 0
M  V30 5064 H 479.318 -1.95593 -4.17781 0
M  V30 5065 H 477.561 -1.90195 -3.89882 0
M  V30 5066 H 478.232 -1.22004 -5.38349 0
M  V30 5067 H 480.708 0.262546 -4.15271 0
M  V30 5068 H 479.584 0.78844 -5.43208 0
M  V30 5069 H 479.845 1.81537 -4.03109 0
M  V30 5070 N 478.904 1.54736 -0.299062 0
M  V30 5071 C 479.836 2.20891 0.61153 0
M  V30 5072 C 480.849 1.20104 1.09904 0
M  V30 5073 O 482.038 1.46707 1.01683 0
M  V30 5074 C 479.138 2.84018 1.84897 0
M  V30 5075 C 478.311 4.10719 1.50428 0
M  V30 5076 C 477.37 4.57667 2.59667 0
M  V30 5077 O 476.396 5.2291 2.24842 0
M  V30 5078 N 477.598 4.29821 3.90172 0
M  V30 5079 H 480.363 2.99666 0.0452001 0
M  V30 5080 H 477.924 1.61446 -0.121178 0
M  V30 5081 H 479.916 3.1236 2.5732 0
M  V30 5082 H 478.486 2.09095 2.32375 0
M  V30 5083 H 477.706 3.89408 0.612781 0
M  V30 5084 H 478.994 4.93223 1.24934 0
M  V30 5085 H 478.392 3.77549 4.21276 0
M  V30 5086 H 476.949 4.62877 4.58899 0
M  V30 5087 N 480.382 0.0267497 1.57577 0
M  V30 5088 C 481.793 -0.512413 1.79531 0
M  V30 5089 C 482.144 -1.72391 0.936791 0
M  V30 5090 O 481.269 -2.15903 0.146543 0
M  V30 5091 C 481.864 -0.936378 3.25603 0
M  V30 5092 C 480.423 -1.42067 3.4856 0
M  V30 5093 C 479.57 -0.384278 2.74624 0
M  V30 5094 H 482.521 0.252797 1.56674 0
M  V30 5095 H 482.542 -1.80088 3.35184 0
M  V30 5096 H 482.054 -0.0544332 3.88062 0
M  V30 5097 H 480.155 -2.32262 2.9135 0
M  V30 5098 H 480.268 -1.42968 4.57271 0
M  V30 5099 H 478.632 -0.851855 2.40032 0
M  V30 5100 H 479.415 0.489159 3.39797 0
M  V30 5101 N 481.861 -1.55662 -0.24637 0
M  V30 5102 C 482.824 -1.89558 -1.28842 0
M  V30 5103 C 483.824 -0.772082 -1.41052 0
M  V30 5104 O 485.014 -1.04007 -1.39743 0
M  V30 5105 C 482.146 -2.12449 -2.66605 0
M  V30 5106 H 483.339 -2.82735 -1.00004 0
M  V30 5107 H 480.892 -1.48562 -0.485684 0
M  V30 5108 H 481.627 -1.21742 -3.00582 0
M  V30 5109 H 481.412 -2.94273 -2.59125 0
M  V30 5110 H 482.902 -2.39854 -3.41847 0
M  V30 5111 N 483.339 0.512053 -1.4905 0
M  V30 5112 C 484.269 1.62365 -1.67809 0
M  V30 5113 C 485.25 1.61737 -0.526809 0
M  V30 5114 O 486.435 1.78651 -0.761404 0
M  V30 5115 C 483.565 3.00895 -1.73435 0
M  V30 5116 C 482.519 3.16387 -2.88242 0
M  V30 5117 C 481.845 4.56157 -2.78971 0
M  V30 5118 C 483.145 2.97457 -4.29321 0
M  V30 5119 H 484.839 1.46921 -2.60873 0
M  V30 5120 H 482.385 0.705379 -1.2554 0
M  V30 5121 H 484.338 3.78549 -1.85145 0
M  V30 5122 H 483.062 3.17403 -0.769619 0
M  V30 5123 H 481.721 2.41155 -2.76116 0
M  V30 5124 H 481.369 4.69525 -1.8043 0
M  V30 5125 H 481.069 4.67465 -3.5602 0
M  V30 5126 H 482.593 5.35886 -2.92675 0
M  V30 5127 H 484.007 3.64888 -4.42187 0
M  V30 5128 H 482.404 3.20245 -5.07507 0
M  V30 5129 H 483.474 1.93692 -4.44535 0
M  V30 5130 N 484.817 1.37938 0.762283 0
M  V30 5131 C 486.065 1.33404 1.51815 0
M  V30 5132 C 486.386 -0.0780975 1.94844 0
M  V30 5133 O 485.656 -1.02405 1.67003 0
M  V30 5134 H 484.236 0.490839 0.563104 0
M  V30 5135 H 486.898 1.72527 0.906669 0
M  V30 5136 H 485.994 1.97926 2.41313 0
M  V30 5137 N 486.295 -0.989507 1.22664 0
M  V30 5138 C 487.541 -1.7321 1.05481 0
M  V30 5139 C 487.874 -1.89852 -0.408635 0
M  V30 5140 O 487.149 -1.44416 -1.30285 0
M  V30 5141 C 487.432 -3.1357 1.77047 0
M  V30 5142 C 487.285 -3.04555 3.31008 0
M  V30 5143 C 488.604 -4.12812 1.5256 0
M  V30 5144 H 485.723 -0.628697 0.384589 0
M  V30 5145 H 488.365 -1.15258 1.51049 0
M  V30 5146 H 486.515 -3.63046 1.3831 0
M  V30 5147 H 488.187 -2.62674 3.7921 0
M  V30 5148 H 486.43 -2.41278 3.6051 0
M  V30 5149 H 487.101 -4.03894 3.76263 0
M  V30 5150 H 489.577 -3.72106 1.86215 0
M  V30 5151 H 488.453 -5.09132 2.05124 0
M  V30 5152 H 488.714 -4.39711 0.458936 0
M  V30 5153 N 487.773 -1.03688 -1.18687 0
M  V30 5154 C 489.021 -0.736572 -1.88199 0
M  V30 5155 C 489.342 0.737665 -1.80509 0
M  V30 5156 O 488.612 1.53204 -1.22088 0
M  V30 5157 H 487.192 -0.269466 -0.696704 0
M  V30 5158 H 489.854 -1.31282 -1.44052 0
M  V30 5159 H 488.95 -1.03802 -2.94332 0
M  V30 5160 N 489.251 1.34841 -0.815825 0
M  V30 5161 C 490.181 2.32187 -0.247298 0
M  V30 5162 C 491.162 1.5791 0.632344 0
M  V30 5163 O 492.347 1.8593 0.560698 0
M  V30 5164 C 489.477 3.42122 0.597466 0
M  V30 5165 C 488.431 4.27602 -0.184446 0
M  V30 5166 C 487.757 5.28942 0.782609 0
M  V30 5167 C 489.057 5.03502 -1.38865 0
M  V30 5168 H 490.751 2.79985 -1.06061 0
M  V30 5169 H 488.297 1.34611 -0.511461 0
M  V30 5170 H 490.25 4.09232 1.00533 0
M  V30 5171 H 488.974 2.92956 1.44376 0
M  V30 5172 H 487.633 3.62085 -0.573592 0
M  V30 5173 H 487.281 4.7604 1.62466 0
M  V30 5174 H 486.981 5.87008 0.263695 0
M  V30 5175 H 488.505 5.98922 1.18848 0
M  V30 5176 H 489.919 5.63506 -1.05518 0
M  V30 5177 H 488.316 5.71108 -1.8427 0
M  V30 5178 H 489.386 4.33608 -2.17054 0
M  V30 5179 O 490.768 0.711044 1.45005 0
M  V30 5180 H 491.459 0.254759 1.92017 0
M  V30 END ATOM
M  V30 BEGIN BOND
M  V30 END BOND
M  V30 END CTAB
M  END
$$$$
