drugbank_target|O14965 Aurora kinase A (DB02482; DB05169; DB05198; DB05220; DB06134; DB06347; DB06486; DB07186; DB07266; DB07360; DB07362; DB07545; DB07801; DB08065; DB08066; DB12010; DB13061)
 OpenBabel12092119453D

  0  0  0     0  0            999 V3000
M  V30 BEGIN CTAB
M  V30 COUNTS 6487 6561 0 0 0
M  V30 BEGIN ATOM
M  V30 1 H -0.908 1.98254 -0.117106 0
M  V30 2 N 0 1.576 0 0
M  V30 3 C 0.933 2.03868 1.02534 0
M  V30 4 C 1.911 0.928543 1.3348 0
M  V30 5 O 3.095 1.19667 1.45644 0
M  V30 6 C 0.222 2.43627 2.35294 0
M  V30 7 C -0.732 3.65373 2.2001 0
M  V30 8 S 0.101 5.13292 1.52614 0
M  V30 9 C 1.257 5.56322 2.86805 0
M  V30 10 H 1.49 2.90518 0.631377 0
M  V30 11 H -0.977 1.52953 0.210867 0
M  V30 12 H 0.981 2.67203 3.11629 0
M  V30 13 H -0.358 1.57376 2.7183 0
M  V30 14 H -1.165 3.90944 3.18086 0
M  V30 15 H -1.563 3.418 1.51819 0
M  V30 16 H 0.729 5.58782 3.83104 0
M  V30 17 H 1.672 6.56266 2.65933 0
M  V30 18 H 2.08 4.83886 2.90714 0
M  V30 19 N 1.4781 -0.272755 1.55222 0
M  V30 20 C 2.7551 -1.02562 1.66555 0
M  V30 21 C 3.1351 -2.04282 0.532189 0
M  V30 22 O 2.4831 -2.23662 -0.467717 0
M  V30 23 C 2.6931 -1.6822 3.05782 0
M  V30 24 C 4.0411 -2.19373 3.63539 0
M  V30 25 O 5.0651 -1.78206 3.08417 0
M  V30 26 O 3.9241 -2.94883 4.60115 0
M  V30 27 H 1.0181 -0.475755 0.676451 0
M  V30 28 H 3.5641 -0.268593 1.67561 0
M  V30 29 H 2.3361 -0.945112 3.79715 0
M  V30 30 H 1.9591 -2.50609 3.08676 0
M  V30 31 N 2.9562 -1.48159 -0.537278 0
M  V30 32 C 4.3722 -1.34118 -0.865129 0
M  V30 33 C 4.5722 -0.346678 -1.98495 0
M  V30 34 O 3.6282 0.234715 -2.51407 0
M  V30 35 C 4.9412 -2.73963 -1.23954 0
M  V30 36 C 6.4892 -2.82397 -1.34984 0
M  V30 37 C 6.9642 -4.22928 -1.75772 0
M  V30 38 N 8.4552 -4.25566 -1.82887 0
M  V30 39 C 9.1902 -5.31235 -2.15817 0
M  V30 40 N 8.6862 -6.47189 -2.47222 0
M  V30 41 N 10.4792 -5.18624 -2.16761 0
M  V30 42 H 2.6302 -2.1144 0.201715 0
M  V30 43 H 4.8932 -0.947598 0.0275949 0
M  V30 44 H 4.5992 -3.48264 -0.490381 0
M  V30 45 H 4.4732 -3.0702 -2.19132 0
M  V30 46 H 6.8602 -2.08356 -2.08978 0
M  V30 47 H 6.9412 -2.5297 -0.379448 0
M  V30 48 H 6.5852 -4.97482 -1.02341 0
M  V30 49 H 6.5152 -4.49794 -2.73848 0
M  V30 50 H 9.0062 -3.41924 -1.60924 0
M  V30 51 H 9.3192 -7.23564 -2.71433 0
M  V30 52 H 7.6642 -6.50476 -2.44757 0
M  V30 53 H 10.8552 -4.27056 -1.91679 0
M  V30 54 H 11.0282 -6.01078 -2.42093 0
M  V30 55 N 4.4343 0.785586 -1.36625 0
M  V30 56 C 5.6593 1.57963 -1.34397 0
M  V30 57 C 6.0843 1.87964 0.071526 0
M  V30 58 O 5.4423 1.48182 1.0446 0
M  V30 59 C 5.4903 2.87511 -2.17646 0
M  V30 60 O 4.5943 3.81281 -1.57158 0
M  V30 61 H 3.9353 0.479014 -0.459828 0
M  V30 62 H 6.4653 0.973411 -1.79961 0
M  V30 63 H 6.4753 3.36745 -2.30362 0
M  V30 64 H 5.1503 2.65002 -3.20541 0
M  V30 65 H 3.7273 3.39885 -1.53403 0
M  V30 66 N 5.9124 1.20967 1.01018 0
M  V30 67 C 6.8594 0.964281 2.09691 0
M  V30 68 C 7.8294 -0.107853 1.65749 0
M  V30 69 O 9.0144 0.0381987 1.90762 0
M  V30 70 C 6.1544 0.52943 3.41015 0
M  V30 71 C 5.2674 1.67043 3.98398 0
M  V30 72 C 4.4024 1.18525 5.17808 0
M  V30 73 C 3.4414 2.29892 5.67288 0
M  V30 74 N 2.5784 1.82546 6.77954 0
M  V30 75 H 7.4184 1.89463 2.30017 0
M  V30 76 H 4.9554 0.944289 1.1279 0
M  V30 77 H 6.9134 0.258588 4.16398 0
M  V30 78 H 5.5434 -0.363919 3.20742 0
M  V30 79 H 4.5954 2.05603 3.20049 0
M  V30 80 H 5.9074 2.50877 4.31117 0
M  V30 81 H 5.0614 0.870762 6.00419 0
M  V30 82 H 3.8004 0.316887 4.86669 0
M  V30 83 H 2.8054 2.6215 4.83278 0
M  V30 84 H 4.0304 3.17216 6.00459 0
M  V30 85 H 1.9764 0.980454 6.48632 0
M  V30 86 H 1.8934 2.59956 7.09901 0
M  V30 87 H 3.1614 1.54115 7.64113 0
M  V30 88 N 7.3905 -1.2043 1.01659 0
M  V30 89 C 8.3005 -2.2689 0.596484 0
M  V30 90 C 9.3165 -1.70107 -0.36599 0
M  V30 91 O 10.4925 -2.00117 -0.226942 0
M  V30 92 C 7.5575 -3.4665 -0.0586659 0
M  V30 93 C 6.6185 -4.18662 0.949751 0
M  V30 94 C 5.8515 -5.32705 0.32577 0
M  V30 95 O 6.0745 -5.63656 -0.874509 0
M  V30 96 O 5.0085 -5.92803 1.04249 0
M  V30 97 H 8.8345 -2.65041 1.4828 0
M  V30 98 H 6.4195 -1.27048 0.786082 0
M  V30 99 H 8.3015 -4.19256 -0.424564 0
M  V30 100 H 6.9765 -3.10375 -0.91918 0
M  V30 101 H 5.8835 -3.48229 1.36702 0
M  V30 102 H 7.2165 -4.58878 1.78023 0
M  V30 103 N 8.8686 -0.792821 -1.36206 0
M  V30 104 C 9.8166 -0.181555 -2.3189 0
M  V30 105 C 10.8106 0.661025 -1.55971 0
M  V30 106 O 12.0166 0.555728 -1.71206 0
M  V30 107 H 8.3916 -0.0399382 -0.750939 0
M  V30 108 H 10.3626 -1.00394 -2.81005 0
M  V30 109 C 9.1116 0.666444 -3.41253 0
M  V30 110 H 8.4346 0.0274489 -3.99791 0
M  V30 111 H 9.8746 1.06076 -4.10517 0
M  V30 112 C 8.3336 1.82614 -2.83114 0
M  V30 113 O 8.8636 2.9229 -2.75553 0
M  V30 114 N 7.0696 1.63333 -2.40356 0
M  V30 115 H 6.6166 0.741217 -2.46706 0
M  V30 116 H 6.5746 2.41087 -2.01803 0
M  V30 117 N 10.3467 1.47872 -0.545128 0
M  V30 118 C 11.5867 2.04391 -0.0187854 0
M  V30 119 C 11.9507 1.41162 1.30144 0
M  V30 120 O 13.1517 1.88656 1.91474 0
M  V30 121 C 11.4227 3.57299 0.0850867 0
M  V30 122 S 12.9817 4.35221 0.559302 0
M  V30 123 H 9.7997 0.710737 -0.0193301 0
M  V30 124 H 12.4017 1.81395 -0.729125 0
M  V30 125 H 11.1057 4.00847 -0.880351 0
M  V30 126 H 10.6367 3.84773 0.819348 0
M  V30 127 H 12.6517 4.61571 1.82118 0
M  V30 128 N 11.8248 0.280983 1.55075 0
M  V30 129 C 13.0738 -0.334784 1.98902 0
M  V30 130 C 13.3868 -1.56534 1.17288 0
M  V30 131 O 14.5928 -2.25443 1.51287 0
M  V30 132 C 13.0488 -0.646994 3.54037 0
M  V30 133 C 12.6568 0.564085 4.44435 0
M  V30 134 C 14.4008 -1.22506 4.06439 0
M  V30 135 C 12.3078 0.226137 5.90967 0
M  V30 136 H 11.2378 -0.128866 0.742906 0
M  V30 137 H 13.8888 0.386556 1.79382 0
M  V30 138 H 12.2708 -1.42739 3.6938 0
M  V30 139 H 13.4448 1.34082 4.40861 0
M  V30 140 H 11.7598 1.0594 4.02698 0
M  V30 141 H 14.3568 -1.49182 5.13468 0
M  V30 142 H 14.6998 -2.16085 3.55827 0
M  V30 143 H 15.2328 -0.50682 3.94558 0
M  V30 144 H 11.9718 1.12996 6.45687 0
M  V30 145 H 11.4918 -0.513717 5.97596 0
M  V30 146 H 13.1708 -0.179539 6.46751 0
M  V30 147 N 13.3029 -1.57598 0.00835791 0
M  V30 148 C 14.5279 -1.95617 -0.689103 0
M  V30 149 C 14.9529 -0.883753 -1.66046 0
M  V30 150 O 14.3109 0.157352 -1.80616 0
M  V30 151 C 14.3589 -3.32736 -1.38994 0
M  V30 152 O 13.4629 -3.27631 -2.50463 0
M  V30 153 H 12.8039 -0.638379 -0.182668 0
M  V30 154 H 15.3339 -2.045 0.064036 0
M  V30 155 H 15.3439 -3.68494 -1.75147 0
M  V30 156 H 14.0189 -4.1034 -0.677778 0
M  V30 157 H 12.5959 -3.03561 -2.16576 0
M  V30 158 N 14.781 0.264519 -1.55364 0
M  V30 159 C 16.029 0.993021 -1.76021 0
M  V30 160 C 16.35 1.86511 -0.569099 0
M  V30 161 O 15.62 1.91438 0.415735 0
M  V30 162 H 14.2 0.369639 -0.649135 0
M  V30 163 H 16.862 0.286707 -1.9278 0
M  V30 164 H 15.958 1.62502 -2.66457 0
M  V30 165 N 16.2591 1.48442 0.529413 0
M  V30 166 C 17.6701 1.5002 1.11134 0
M  V30 167 C 18.0211 0.27031 1.94329 0
M  V30 168 O 17.1461 -0.622507 2.07253 0
M  V30 169 C 17.7411 2.71834 2.02217 0
M  V30 170 C 16.3001 2.76283 2.55627 0
M  V30 171 C 15.4471 2.43542 1.326 0
M  V30 172 H 18.3981 1.5555 0.314641 0
M  V30 173 H 18.4191 2.50384 2.8651 0
M  V30 174 H 17.9311 3.61331 1.41639 0
M  V30 175 H 16.0321 1.90995 3.19924 0
M  V30 176 H 16.1451 3.77725 2.94721 0
M  V30 177 H 14.5091 1.94709 1.64196 0
M  V30 178 H 15.2921 3.3528 0.737734 0
M  V30 179 N 17.7372 -0.778329 1.37039 0
M  V30 180 C 18.9832 -1.53892 1.32079 0
M  V30 181 C 19.3162 -1.9396 -0.0965386 0
M  V30 182 O 18.5912 -1.63568 -1.05242 0
M  V30 183 C 18.8742 -2.80847 2.25382 0
M  V30 184 C 18.7272 -2.47076 3.75864 0
M  V30 185 C 20.0462 -3.82741 2.1725 0
M  V30 186 H 17.1652 -0.558303 0.48111 0
M  V30 187 H 19.8072 -0.893397 1.67685 0
M  V30 188 H 17.9572 -3.35931 1.95148 0
M  V30 189 H 19.6292 -1.97957 4.16666 0
M  V30 190 H 17.8722 -1.79863 3.94755 0
M  V30 191 H 18.5432 -3.37798 4.36574 0
M  V30 192 H 21.0192 -3.37133 2.43887 0
M  V30 193 H 19.8952 -4.69303 2.84686 0
M  V30 194 H 20.1562 -4.2652 1.16331 0
M  V30 195 N 19.2153 -1.21501 -1.00376 0
M  V30 196 C 20.1623 -0.975387 -2.09177 0
M  V30 197 C 21.1323 0.0990615 -1.65804 0
M  V30 198 O 22.3173 -0.0483147 -1.90739 0
M  V30 199 C 19.4573 -0.547507 -3.40729 0
M  V30 200 C 18.5703 -1.69153 -3.97506 0
M  V30 201 C 17.7053 -1.2127 -5.17172 0
M  V30 202 C 16.7443 -2.32897 -5.66061 0
M  V30 203 N 15.8813 -1.86138 -6.76976 0
M  V30 204 H 20.7213 -1.9068 -2.29009 0
M  V30 205 H 18.2583 -0.950257 -1.12288 0
M  V30 206 H 20.2163 -0.280667 -4.16255 0
M  V30 207 H 18.8463 0.346904 -3.20931 0
M  V30 208 H 17.8983 -2.07298 -3.18954 0
M  V30 209 H 19.2103 -2.5316 -4.29781 0
M  V30 210 H 18.3643 -0.902591 -5.99948 0
M  V30 211 H 17.1033 -0.342692 -4.86495 0
M  V30 212 H 16.1083 -2.64709 -4.81881 0
M  V30 213 H 17.3333 -3.20396 -5.98768 0
M  V30 214 H 15.2793 -1.01484 -6.48103 0
M  V30 215 H 15.1963 -2.63717 -7.08512 0
M  V30 216 H 16.4643 -1.58165 -7.63285 0
M  V30 217 N 20.6934 1.19889 -1.02296 0
M  V30 218 C 21.6564 2.21116 -0.603351 0
M  V30 219 C 22.6564 1.5738 0.329884 0
M  V30 220 O 23.8464 1.73802 0.117702 0
M  V30 221 C 20.9784 3.40696 0.117992 0
M  V30 222 H 22.1714 2.59754 -1.49893 0
M  V30 223 H 19.7244 1.33463 -0.813468 0
M  V30 224 H 20.4594 3.07569 1.0282 0
M  V30 225 H 20.2444 3.88188 -0.552511 0
M  V30 226 H 21.7344 4.15692 0.398696 0
M  V30 227 N 22.1715 0.800033 1.35784 0
M  V30 228 C 23.3995 0.389606 2.03199 0
M  V30 229 C 23.8145 -0.997375 1.60306 0
M  V30 230 O 23.1715 -1.64154 0.797481 0
M  V30 231 C 23.2225 0.455855 3.58614 0
M  V30 232 O 22.9435 1.78815 3.99946 0
M  V30 233 C 24.4445 0.0374032 4.43284 0
M  V30 234 H 21.6645 0.159132 0.651857 0
M  V30 235 H 24.2085 1.08183 1.73541 0
M  V30 236 H 22.3635 -0.188057 3.86943 0
M  V30 237 H 22.7775 1.74636 4.94573 0
M  V30 238 H 24.2515 0.134882 5.51835 0
M  V30 239 H 24.7285 -1.01651 4.27275 0
M  V30 240 H 25.3345 0.654215 4.20238 0
M  V30 241 N 23.6496 -1.47581 0.552962 0
M  V30 242 C 24.6126 -2.28439 -0.186605 0
M  V30 243 C 25.6126 -1.36706 -0.84665 0
M  V30 244 O 26.8026 -1.59378 -0.703164 0
M  V30 245 C 23.9346 -3.16264 -1.2724 0
M  V30 246 H 25.1276 -2.95294 0.523609 0
M  V30 247 H 22.6806 -1.532 0.309745 0
M  V30 248 H 23.4156 -2.54091 -2.01514 0
M  V30 249 H 23.2006 -3.83769 -0.803968 0
M  V30 250 H 24.6906 -3.77198 -1.79196 0
M  V30 251 N 25.1277 -0.289203 -1.54924 0
M  V30 252 C 26.5387 0.205791 -1.85562 0
M  V30 253 C 26.8897 1.54351 -1.2112 0
M  V30 254 O 26.0147 2.10435 -0.504601 0
M  V30 255 C 26.6097 0.380177 -3.3666 0
M  V30 256 C 25.1687 0.819395 -3.67373 0
M  V30 257 C 24.3157 -0.079159 -2.77187 0
M  V30 258 H 27.2667 -0.510577 -1.50262 0
M  V30 259 H 27.2877 1.21659 -3.60526 0
M  V30 260 H 26.7997 -0.593589 -3.83534 0
M  V30 261 H 24.9007 1.80413 -3.26009 0
M  V30 262 H 25.0137 0.646957 -4.74712 0
M  V30 263 H 23.3777 0.439565 -2.50878 0
M  V30 264 H 24.1607 -1.04906 -3.26878 0
M  V30 265 N 26.6058 1.57591 -0.0167156 0
M  V30 266 C 27.8518 1.91567 0.665582 0
M  V30 267 C 28.1848 0.892298 1.72487 0
M  V30 268 O 27.4598 -0.0867127 1.94307 0
M  V30 269 C 27.7428 3.36069 1.29342 0
M  V30 270 C 27.5958 4.49135 0.244541 0
M  V30 271 C 28.9148 3.803 2.21495 0
M  V30 272 H 26.0338 0.69666 0.240488 0
M  V30 273 H 28.6758 1.89866 -0.0714356 0
M  V30 274 H 26.8258 3.3765 1.92158 0
M  V30 275 H 28.4978 4.59689 -0.385228 0
M  V30 276 H 26.7408 4.3165 -0.431379 0
M  V30 277 H 27.4118 5.47242 0.723207 0
M  V30 278 H 29.8878 3.80377 1.68678 0
M  V30 279 H 28.7638 4.82127 2.62382 0
M  V30 280 H 29.0248 3.15104 3.101 0
M  V30 281 N 28.0839 -0.256276 1.55502 0
M  V30 282 C 29.3319 -0.983672 1.76545 0
M  V30 283 C 29.6529 -1.86206 0.578982 0
M  V30 284 O 28.9229 -1.91656 -0.405577 0
M  V30 285 H 27.5029 -0.366191 0.651086 0
M  V30 286 H 30.1649 -0.276479 1.92929 0
M  V30 287 H 29.2609 -1.61087 2.67315 0
M  V30 288 N 29.562 -1.4872 -0.521534 0
M  V30 289 C 30.81 -1.56857 -1.27437 0
M  V30 290 C 31.131 -0.247982 -1.93417 0
M  V30 291 O 30.401 0.731151 -1.81744 0
M  V30 292 H 28.981 -0.577885 -0.473347 0
M  V30 293 H 31.643 -1.85233 -0.606205 0
M  V30 294 H 30.739 -2.35402 -2.0492 0
M  V30 295 N 31.0401 0.771051 -1.3745 0
M  V30 296 C 32.4511 1.34737 -1.29239 0
M  V30 297 C 32.8021 1.96109 0.0596908 0
M  V30 298 O 31.9271 1.93865 0.961534 0
M  V30 299 C 32.5221 2.44973 -2.34037 0
M  V30 300 C 31.0811 2.98372 -2.29458 0
M  V30 301 C 30.2281 1.71595 -2.17831 0
M  V30 302 H 33.1791 0.571256 -1.48062 0
M  V30 303 H 33.2001 3.24471 -1.98744 0
M  V30 304 H 32.7121 2.00276 -3.32432 0
M  V30 305 H 30.8131 3.47443 -1.34589 0
M  V30 306 H 30.9261 3.53939 -3.229 0
M  V30 307 H 29.2901 1.94547 -1.64388 0
M  V30 308 H 30.0731 1.29001 -3.18141 0
M  V30 309 N 32.5182 1.22032 0.997298 0
M  V30 310 C 33.4652 0.986467 2.08656 0
M  V30 311 C 34.4352 -0.0902671 1.65855 0
M  V30 312 O 35.6202 0.0584294 1.90711 0
M  V30 313 C 32.7602 0.565569 3.40434 0
M  V30 314 C 31.8732 1.71259 3.96604 0
M  V30 315 C 31.0082 1.24011 5.16522 0
M  V30 316 C 30.0472 2.35896 5.64818 0
M  V30 317 N 29.1842 1.89726 6.7598 0
M  V30 318 H 34.0242 1.91892 2.27994 0
M  V30 319 H 31.5612 0.956199 1.11782 0
M  V30 320 H 33.5192 0.302738 4.161 0
M  V30 321 H 32.1492 -0.329879 3.2111 0
M  V30 322 H 31.2012 2.08986 3.17851 0
M  V30 323 H 32.5132 2.55436 4.28432 0
M  V30 324 H 31.6672 0.934395 5.99461 0
M  V30 325 H 30.4062 0.368487 4.86306 0
M  V30 326 H 29.4112 2.67261 4.8047 0
M  V30 327 H 30.6362 3.23567 5.97061 0
M  V30 328 H 28.5822 1.0492 6.47555 0
M  V30 329 H 28.4992 2.67471 7.07103 0
M  V30 330 H 29.7672 1.62211 7.62435 0
M  V30 331 N 33.9963 -1.19345 1.0293 0
M  V30 332 C 35.4123 -1.41069 0.746446 0
M  V30 333 C 35.6123 -1.90078 -0.668776 0
M  V30 334 O 34.6683 -2.0778 -1.4347 0
M  V30 335 C 35.9813 -2.42141 1.78292 0
M  V30 336 C 37.5293 -2.55887 1.80252 0
M  V30 337 C 38.0043 -3.60214 2.8286 0
M  V30 338 N 39.4953 -3.67711 2.81679 0
M  V30 339 C 40.2303 -4.48128 3.57727 0
M  V30 340 N 39.7263 -5.32248 4.43491 0
M  V30 341 N 41.5193 -4.42782 3.46267 0
M  V30 342 H 33.6703 -0.858536 1.94275 0
M  V30 343 H 35.9333 -0.439541 0.839945 0
M  V30 344 H 35.6393 -2.13155 2.79746 0
M  V30 345 H 35.5133 -3.41323 1.60557 0
M  V30 346 H 37.9003 -2.84196 0.794757 0
M  V30 347 H 37.9813 -1.56858 2.02062 0
M  V30 348 H 37.6253 -3.32647 3.83807 0
M  V30 349 H 37.5553 -4.58895 2.58307 0
M  V30 350 H 40.0463 -3.07634 2.19476 0
M  V30 351 H 40.3593 -5.90729 4.98256 0
M  V30 352 H 38.7043 -5.31707 4.47564 0
M  V30 353 H 41.8953 -3.76107 2.78677 0
M  V30 354 H 42.0683 -5.05215 4.05785 0
M  V30 355 N 35.4744 -0.807222 -1.35358 0
M  V30 356 C 36.7204 -0.388463 -1.99045 0
M  V30 357 C 37.0534 1.04184 -1.63888 0
M  V30 358 O 36.3284 1.72292 -0.902535 0
M  V30 359 C 36.6114 -0.572783 -3.55515 0
M  V30 360 C 36.4644 -2.04807 -4.00468 0
M  V30 361 C 37.7834 0.00114064 -4.401 0
M  V30 362 H 34.9024 -0.142619 -0.723069 0
M  V30 363 H 37.5444 -1.01687 -1.60498 0
M  V30 364 H 35.6944 -0.0378425 -3.88482 0
M  V30 365 H 37.3664 -2.64544 -3.77908 0
M  V30 366 H 35.6094 -2.54427 -3.51353 0
M  V30 367 H 36.2804 -2.12792 -5.09337 0
M  V30 368 H 38.7564 -0.455716 -4.13597 0
M  V30 369 H 37.6324 -0.157737 -5.48673 0
M  V30 370 H 37.8934 1.09488 -4.28328 0
M  V30 371 N 36.9525 1.47285 -0.560781 0
M  V30 372 C 37.8825 2.32857 0.173105 0
M  V30 373 C 38.8635 1.44009 0.905281 0
M  V30 374 O 40.0485 1.7286 0.885046 0
M  V30 375 C 37.1785 3.25861 1.20133 0
M  V30 376 C 36.1325 4.23978 0.585388 0
M  V30 377 C 35.4585 5.06332 1.7185 0
M  V30 378 C 36.7585 5.20242 -0.463178 0
M  V30 379 H 38.4525 2.94466 -0.541307 0
M  V30 380 H 35.9985 1.41601 -0.261764 0
M  V30 381 H 37.9515 3.84569 1.72293 0
M  V30 382 H 36.6755 2.62315 1.94573 0
M  V30 383 H 35.3345 3.66501 0.085054 0
M  V30 384 H 34.9825 4.39186 2.45203 0
M  V30 385 H 34.6825 5.72762 1.31213 0
M  V30 386 H 36.2065 5.67899 2.24329 0
M  V30 387 H 37.6205 5.73293 -0.027502 0
M  V30 388 H 36.0175 5.94896 -0.788627 0
M  V30 389 H 37.0875 4.65504 -1.35773 0
M  V30 390 N 38.4306 0.297415 1.54768 0
M  V30 391 C 39.6766 -0.313376 2.00364 0
M  V30 392 C 40.0096 -1.53815 1.18553 0
M  V30 393 O 39.2846 -1.92739 0.261103 0
M  V30 394 C 39.5676 -0.673525 3.53745 0
M  V30 395 C 39.4206 0.560133 4.46299 0
M  V30 396 C 40.7396 -1.50143 4.13697 0
M  V30 397 H 37.8586 -0.112428 0.728374 0
M  V30 398 H 40.5006 0.4088 1.8555 0
M  V30 399 H 38.6506 -1.28881 3.665 0
M  V30 400 H 40.3226 1.19863 4.45455 0
M  V30 401 H 38.5656 1.19405 4.17043 0
M  V30 402 H 39.2366 0.26405 5.51368 0
M  V30 403 H 41.7126 -0.981588 4.04356 0
M  V30 404 H 40.5886 -1.72221 5.21182 0
M  V30 405 H 40.8496 -2.48952 3.65343 0
M  V30 406 N 39.9087 -1.5758 0.0250728 0
M  V30 407 C 41.1367 -1.9593 -0.664747 0
M  V30 408 C 41.5517 -0.901352 -1.65895 0
M  V30 409 O 40.9087 0.117255 -1.82123 0
M  V30 410 C 40.9597 -3.34342 -1.37468 0
M  V30 411 O 40.6807 -4.36079 -0.420324 0
M  V30 412 C 42.1817 -3.873 -2.1567 0
M  V30 413 H 39.4017 -0.645405 -0.183557 0
M  V30 414 H 41.9457 -2.04329 0.0836372 0
M  V30 415 H 40.1007 -3.27175 -2.0745 0
M  V30 416 H 40.5147 -5.16297 -0.923991 0
M  V30 417 H 41.9887 -4.86504 -2.60803 0
M  V30 418 H 42.4657 -3.21331 -2.99405 0
M  V30 419 H 43.0717 -3.97723 -1.50654 0
M  V30 420 N 41.3868 0.248026 -1.55636 0
M  V30 421 C 42.3188 1.32993 -1.8667 0
M  V30 422 C 43.3318 1.44345 -0.752877 0
M  V30 423 O 44.5208 1.45715 -1.03098 0
M  V30 424 C 41.6208 2.70863 -2.03682 0
M  V30 425 C 40.7938 2.81792 -3.34532 0
M  V30 426 C 39.8528 4.005 -3.41301 0
M  V30 427 O 38.8788 3.9008 -4.14519 0
M  V30 428 N 40.0808 5.13618 -2.70512 0
M  V30 429 H 42.8458 1.06707 -2.8006 0
M  V30 430 H 40.4068 0.438129 -1.55859 0
M  V30 431 H 42.3988 3.48612 -2.05553 0
M  V30 432 H 40.9688 2.89862 -1.17041 0
M  V30 433 H 40.1888 1.90729 -3.44987 0
M  V30 434 H 41.4768 2.86043 -4.20781 0
M  V30 435 H 40.8748 5.24975 -2.10755 0
M  V30 436 H 39.4318 5.89505 -2.78077 0
M  V30 437 N 42.8649 1.48995 0.513639 0
M  V30 438 C 43.7969 1.60836 1.63293 0
M  V30 439 C 44.8099 0.491701 1.55197 0
M  V30 440 O 45.9989 0.763238 1.6136 0
M  V30 441 C 43.0989 1.53731 3.02027 0
M  V30 442 C 42.2719 2.80715 3.35437 0
M  V30 443 C 41.3309 2.66837 4.53525 0
M  V30 444 O 40.3569 3.40753 4.55934 0
M  V30 445 N 41.5589 1.77539 5.52684 0
M  V30 446 H 44.3239 2.57366 1.53566 0
M  V30 447 H 41.8849 1.45925 0.701259 0
M  V30 448 H 43.8769 1.42118 3.78926 0
M  V30 449 H 42.4469 0.651092 3.05744 0
M  V30 450 H 41.6669 3.06772 2.47557 0
M  V30 451 H 42.9549 3.64927 3.54551 0
M  V30 452 H 42.3529 1.16719 5.53528 0
M  V30 453 H 40.9099 1.71856 6.28736 0
M  V30 454 N 44.343 -0.763751 1.37857 0
M  V30 455 C 45.59 -1.52257 1.33506 0
M  V30 456 C 45.918 -1.94343 -0.078022 0
M  V30 457 O 45.173 -1.64958 -1.05297 0
M  V30 458 C 45.472 -2.79499 2.22745 0
M  V30 459 C 45.138 -2.56426 3.70886 0
M  V30 460 C 43.8 -2.49842 4.11257 0
M  V30 461 C 46.152 -2.36008 4.64704 0
M  V30 462 C 43.48 -2.20841 5.43549 0
M  V30 463 C 45.832 -2.0853 5.97242 0
M  V30 464 C 44.496 -2.00396 6.36709 0
M  V30 465 H 43.766 -0.557149 0.488534 0
M  V30 466 H 46.413 -0.879073 1.70131 0
M  V30 467 H 44.718 -3.48447 1.79142 0
M  V30 468 H 46.415 -3.37413 2.16688 0
M  V30 469 H 43.005 -2.62416 3.38874 0
M  V30 470 H 47.189 -2.40079 4.34368 0
M  V30 471 H 42.445 -2.13045 5.73081 0
M  V30 472 H 46.619 -1.91732 6.69486 0
M  V30 473 H 44.246 -1.77688 7.39142 0
M  V30 474 N 45.8211 -1.22559 -0.990812 0
M  V30 475 C 47.2321 -1.04791 -1.54518 0
M  V30 476 C 47.5831 0.387998 -1.92325 0
M  V30 477 O 46.7081 1.27328 -1.74976 0
M  V30 478 C 47.3031 -1.896 -2.80779 0
M  V30 479 C 45.8621 -1.76124 -3.32652 0
M  V30 480 C 45.0091 -1.8594 -2.05722 0
M  V30 481 H 47.9601 -1.36374 -0.811662 0
M  V30 482 H 47.9811 -1.41464 -3.53225 0
M  V30 483 H 47.4931 -2.94101 -2.53231 0
M  V30 484 H 45.5941 -0.743643 -3.65104 0
M  V30 485 H 45.7071 -2.58913 -4.03114 0
M  V30 486 H 44.0711 -1.29403 -2.19379 0
M  V30 487 H 44.8541 -2.91976 -1.80568 0
M  V30 488 N 47.2992 1.18797 -1.03562 0
M  V30 489 C 48.5392 1.90346 -0.744832 0
M  V30 490 C 48.9032 1.78231 0.713972 0
M  V30 491 O 50.1042 2.44441 1.11813 0
M  V30 492 C 48.3752 3.36942 -1.19184 0
M  V30 493 S 49.9342 4.26638 -1.02593 0
M  V30 494 H 46.7522 0.657343 -0.270963 0
M  V30 495 H 49.3542 1.43579 -1.32685 0
M  V30 496 H 48.0582 3.43287 -2.24905 0
M  V30 497 H 47.5892 3.88745 -0.603397 0
M  V30 498 H 49.6042 4.96164 0.0596033 0
M  V30 499 N 48.7773 0.814389 1.34928 0
M  V30 500 C 49.7093 0.187834 2.28429 0
M  V30 501 C 50.7223 -0.617374 1.5064 0
M  V30 502 O 51.9113 -0.448454 1.72775 0
M  V30 503 C 49.0113 -0.755962 3.30361 0
M  V30 504 C 48.1843 0.00456686 4.374 0
M  V30 505 C 47.2433 -0.858876 5.19143 0
M  V30 506 O 46.2693 -0.306968 5.68372 0
M  V30 507 N 47.4713 -2.17988 5.38016 0
M  V30 508 H 50.2363 0.991105 2.82838 0
M  V30 509 H 47.7973 0.670561 1.4736 0
M  V30 510 H 49.7893 -1.338 3.81942 0
M  V30 511 H 48.3593 -1.46001 2.7641 0
M  V30 512 H 47.5793 0.767865 3.86649 0
M  V30 513 H 48.8673 0.528422 5.06049 0
M  V30 514 H 48.2653 -2.65212 4.99679 0
M  V30 515 H 46.8223 -2.71098 5.92747 0
M  V30 516 N 50.2554 -1.46986 0.568584 0
M  V30 517 C 51.2034 -2.31858 -0.185649 0
M  V30 518 C 52.1974 -1.43624 -0.898249 0
M  V30 519 O 53.4034 -1.60327 -0.818242 0
M  V30 520 H 49.7784 -0.747866 -0.0787399 0
M  V30 521 H 51.7494 -2.93303 0.549191 0
M  V30 522 C 50.4984 -3.26513 -1.19519 0
M  V30 523 H 49.8214 -3.94377 -0.656285 0
M  V30 524 H 51.2614 -3.88707 -1.6936 0
M  V30 525 C 49.7204 -2.50847 -2.24894 0
M  V30 526 O 50.2504 -2.26119 -3.32014 0
M  V30 527 N 48.4564 -2.11656 -1.99124 0
M  V30 528 H 48.0034 -2.31966 -1.12024 0
M  V30 529 H 47.9614 -1.61347 -2.69842 0
M  V30 530 N 51.7335 -0.305618 -1.54608 0
M  V30 531 C 53.1445 0.186098 -1.8577 0
M  V30 532 C 53.4955 1.53058 -1.22751 0
M  V30 533 O 52.6205 2.09888 -0.526893 0
M  V30 534 C 53.2155 0.344449 -3.37044 0
M  V30 535 C 51.7745 0.780384 -3.68221 0
M  V30 536 C 50.9215 -0.108554 -2.77087 0
M  V30 537 H 53.8725 -0.526485 -1.49712 0
M  V30 538 H 53.8935 1.17828 -3.61796 0
M  V30 539 H 53.4055 -0.634235 -3.82883 0
M  V30 540 H 51.5065 1.76945 -3.27904 0
M  V30 541 H 51.6195 0.596572 -4.75371 0
M  V30 542 H 49.9835 0.412931 -2.5133 0
M  V30 543 H 50.7665 -1.08368 -3.25747 0
M  V30 544 N 53.2116 1.57565 -0.0334293 0
M  V30 545 C 54.1416 2.13511 0.945265 0
M  V30 546 C 55.1226 1.05231 1.33643 0
M  V30 547 O 56.3076 1.33084 1.41429 0
M  V30 548 C 53.4376 2.6657 2.22616 0
M  V30 549 C 52.3916 3.79676 1.97561 0
M  V30 550 C 51.7176 4.1918 3.31952 0
M  V30 551 C 53.0176 5.0557 1.31135 0
M  V30 552 H 54.7116 2.95538 0.479325 0
M  V30 553 H 52.2576 1.42166 0.229115 0
M  V30 554 H 54.2106 3.04344 2.91466 0
M  V30 555 H 52.9346 1.8171 2.71384 0
M  V30 556 H 51.5936 3.42347 1.31127 0
M  V30 557 H 51.2416 3.31296 3.78487 0
M  V30 558 H 50.9416 4.95402 3.15992 0
M  V30 559 H 52.4656 4.59541 4.02063 0
M  V30 560 H 53.8796 5.40903 1.89992 0
M  V30 561 H 52.2766 5.86818 1.25559 0
M  V30 562 H 53.3466 4.84062 0.284894 0
M  V30 563 N 54.6897 -0.239769 1.55765 0
M  V30 564 C 56.1007 -0.808263 1.68297 0
M  V30 565 C 56.4517 -1.85736 0.632181 0
M  V30 566 O 55.5767 -2.15277 -0.220204 0
M  V30 567 C 56.1717 -1.47284 3.05111 0
M  V30 568 C 54.7307 -1.98895 3.19559 0
M  V30 569 C 53.8777 -0.842575 2.64189 0
M  V30 570 H 56.8287 -0.0154422 1.58692 0
M  V30 571 H 56.8497 -2.34111 2.99954 0
M  V30 572 H 56.3617 -0.709053 3.81568 0
M  V30 573 H 54.4627 -2.78132 2.47938 0
M  V30 574 H 54.5757 -2.18143 4.26556 0
M  V30 575 H 52.9397 -1.24501 2.22197 0
M  V30 576 H 53.7227 -0.0917552 3.43177 0
M  V30 577 N 56.1678 -1.49265 -0.50573 0
M  V30 578 C 57.4138 -1.58748 -1.26202 0
M  V30 579 C 57.7468 -0.271227 -1.92297 0
M  V30 580 O 57.0218 0.724831 -1.80489 0
M  V30 581 C 57.3048 -2.74332 -2.33268 0
M  V30 582 C 57.1578 -4.15737 -1.71705 0
M  V30 583 C 58.4768 -2.85576 -3.34865 0
M  V30 584 H 55.5958 -0.577826 -0.457478 0
M  V30 585 H 58.2378 -1.81532 -0.560897 0
M  V30 586 H 56.3878 -2.55036 -2.93068 0
M  V30 587 H 58.0598 -4.46537 -1.15769 0
M  V30 588 H 56.3028 -4.21605 -1.02135 0
M  V30 589 H 56.9738 -4.92477 -2.49341 0
M  V30 590 H 59.4498 -3.03127 -2.8505 0
M  V30 591 H 58.3258 -3.68135 -4.07146 0
M  V30 592 H 58.5868 -1.94732 -3.96903 0
M  V30 593 N 57.6459 0.756429 -1.3826 0
M  V30 594 C 58.5939 1.89149 -1.35372 0
M  V30 595 C 59.5879 1.67691 -0.24004 0
M  V30 596 O 60.7939 1.75294 -0.408919 0
M  V30 597 H 57.1689 0.622271 -0.422236 0
M  V30 598 H 59.1399 1.88701 -2.31159 0
M  V30 599 C 57.8889 3.26599 -1.19284 0
M  V30 600 H 57.2119 3.43695 -2.0424 0
M  V30 601 H 58.6519 4.06274 -1.21316 0
M  V30 602 C 57.1109 3.3675 0.100454 0
M  V30 603 O 57.6409 3.86951 1.07851 0
M  V30 604 N 55.8469 2.90179 0.15633 0
M  V30 605 H 55.3939 2.49517 -0.640253 0
M  V30 606 H 55.3519 2.97352 1.02123 0
M  V30 607 N 59.124 1.23083 0.984299 0
M  V30 608 C 60.349 1.088 1.76571 0
M  V30 609 C 60.774 -0.356657 1.84688 0
M  V30 610 O 60.132 -1.25788 1.30565 0
M  V30 611 C 60.18 1.71371 3.17277 0
M  V30 612 O 59.284 0.973213 4.00752 0
M  V30 613 H 58.625 0.381599 0.543395 0
M  V30 614 H 61.155 1.63057 1.23587 0
M  V30 615 H 61.165 1.76449 3.67872 0
M  V30 616 H 59.84 2.76493 3.10684 0
M  V30 617 H 58.417 0.999078 3.59267 0
M  V30 618 N 60.6021 -1.18246 1.0419 0
M  V30 619 C 61.8501 -1.87886 0.744543 0
M  V30 620 C 62.1711 -1.8082 -0.730006 0
M  V30 621 O 61.4411 -1.22736 -1.52685 0
M  V30 622 H 60.0211 -0.695556 0.272417 0
M  V30 623 H 62.6831 -1.43494 1.31892 0
M  V30 624 H 61.7791 -2.9389 1.05049 0
M  V30 625 N 62.0802 -0.821533 -1.34494 0
M  V30 626 C 63.0122 -0.199946 -2.28326 0
M  V30 627 C 64.0252 0.609377 -1.50965 0
M  V30 628 O 65.2142 0.439285 -1.7301 0
M  V30 629 C 62.3142 0.738431 -3.30757 0
M  V30 630 C 61.4872 -0.0277632 -4.37391 0
M  V30 631 C 60.5462 0.831332 -5.19591 0
M  V30 632 O 59.5722 0.276822 -5.68526 0
M  V30 633 N 60.7742 2.15132 -5.39165 0
M  V30 634 H 63.5392 -1.00609 -2.82308 0
M  V30 635 H 61.1002 -0.678366 -1.47003 0
M  V30 636 H 63.0922 1.31773 -3.82646 0
M  V30 637 H 61.6622 1.44533 -2.7718 0
M  V30 638 H 60.8822 -0.788359 -3.86236 0
M  V30 639 H 62.1702 -0.555251 -5.05761 0
M  V30 640 H 61.5682 2.62559 -5.01078 0
M  V30 641 H 60.1252 2.6795 -5.94177 0
M  V30 642 N 63.5583 1.46682 -0.576371 0
M  V30 643 C 64.5213 2.28707 0.150239 0
M  V30 644 C 65.5213 1.38035 0.824794 0
M  V30 645 O 66.7113 1.60476 0.677719 0
M  V30 646 C 63.8433 3.18248 1.22192 0
M  V30 647 H 65.0363 2.94423 -0.570521 0
M  V30 648 H 62.5893 1.52688 -0.334078 0
M  V30 649 H 63.3243 2.57265 1.97447 0
M  V30 650 H 63.1093 3.85 0.742812 0
M  V30 651 H 64.5993 3.80001 1.73172 0
M  V30 652 N 65.0364 0.313813 1.54444 0
M  V30 653 C 65.9684 -0.590425 2.21465 0
M  V30 654 C 66.9814 -1.08753 1.21147 0
M  V30 655 O 68.1704 -1.00278 1.4767 0
M  V30 656 C 65.2704 -1.82179 2.85769 0
M  V30 657 C 64.4434 -1.46502 4.12136 0
M  V30 658 C 63.5024 -2.55288 4.60124 0
M  V30 659 O 62.5284 -2.19842 5.25032 0
M  V30 660 N 63.7304 -3.86053 4.33525 0
M  V30 661 H 66.4954 -0.0166033 2.99695 0
M  V30 662 H 64.0564 0.136578 1.61323 0
M  V30 663 H 66.0484 -2.54328 3.14801 0
M  V30 664 H 64.6184 -2.30369 2.11303 0
M  V30 665 H 63.8384 -0.575595 3.89975 0
M  V30 666 H 65.1264 -1.20221 4.94393 0
M  V30 667 H 64.5244 -4.17654 3.81552 0
M  V30 668 H 63.0814 -4.54461 4.67235 0
M  V30 669 N 66.5145 -1.57545 0.0417849 0
M  V30 670 C 67.9305 -1.56467 -0.314704 0
M  V30 671 C 68.1305 -1.04859 -1.72066 0
M  V30 672 O 67.1865 -0.700983 -2.42575 0
M  V30 673 C 68.4995 -3.00317 -0.15174 0
M  V30 674 C 70.0475 -3.12201 -0.223553 0
M  V30 675 C 70.5225 -4.57913 -0.0892295 0
M  V30 676 N 72.0135 -4.6297 -0.145808 0
M  V30 677 C 72.7485 -5.73362 -0.0658459 0
M  V30 678 N 72.2445 -6.92769 0.0659282 0
M  V30 679 N 74.0375 -5.6197 -0.12075 0
M  V30 680 H 66.1885 -1.89416 0.961014 0
M  V30 681 H 68.4515 -0.871862 0.372237 0
M  V30 682 H 68.1575 -3.42073 0.817254 0
M  V30 683 H 68.0315 -3.65892 -0.916692 0
M  V30 684 H 70.4185 -2.70349 -1.18301 0
M  V30 685 H 70.4995 -2.49323 0.571994 0
M  V30 686 H 70.1435 -5.00448 0.866867 0
M  V30 687 H 70.0735 -5.18786 -0.903802 0
M  V30 688 H 72.5645 -3.7709 -0.247286 0
M  V30 689 H 72.8775 -7.72707 0.119905 0
M  V30 690 H 71.2225 -6.94927 0.100885 0
M  V30 691 H 74.4135 -4.67572 -0.222187 0
M  V30 692 H 74.5865 -6.47977 -0.0549735 0
M  V30 693 N 67.9926 0.231505 -1.5589 0
M  V30 694 C 69.2386 0.95877 -1.78705 0
M  V30 695 C 69.5716 1.8438 -0.609725 0
M  V30 696 O 68.8466 1.90521 0.391426 0
M  V30 697 C 69.1296 1.8062 -3.11526 0
M  V30 698 C 68.9826 0.948328 -4.39689 0
M  V30 699 C 70.3016 2.78585 -3.40703 0
M  V30 700 H 67.4206 0.347129 -0.650131 0
M  V30 701 H 70.0626 0.228259 -1.88624 0
M  V30 702 H 68.2126 2.42902 -3.03201 0
M  V30 703 H 69.8846 0.343016 -4.60023 0
M  V30 704 H 68.1276 0.253314 -4.3306 0
M  V30 705 H 68.7986 1.57543 -5.29041 0
M  V30 706 H 71.2746 2.26439 -3.49091 0
M  V30 707 H 70.1506 3.34988 -4.34826 0
M  V30 708 H 70.4116 3.55825 -2.62375 0
M  V30 709 N 69.4707 1.49531 0.497807 0
M  V30 710 C 70.4007 1.6935 1.60757 0
M  V30 711 C 71.3817 0.542218 1.61227 0
M  V30 712 O 72.5667 0.778417 1.77917 0
M  V30 713 C 69.6967 1.76298 2.99226 0
M  V30 714 C 68.6507 2.91248 3.13622 0
M  V30 715 C 67.9767 2.83312 4.53474 0
M  V30 716 C 69.2767 4.3214 2.93346 0
M  V30 717 H 70.9707 2.62263 1.44425 0
M  V30 718 H 68.5167 1.26208 0.693367 0
M  V30 719 H 70.4697 1.88749 3.76765 0
M  V30 720 H 69.1937 0.799871 3.16654 0
M  V30 721 H 67.8527 2.78404 2.38509 0
M  V30 722 H 67.5007 1.84902 4.67782 0
M  V30 723 H 67.2007 3.60465 4.64046 0
M  V30 724 H 68.7247 2.97775 5.33069 0
M  V30 725 H 70.1387 4.45649 3.60652 0
M  V30 726 H 68.5357 5.1054 3.15387 0
M  V30 727 H 69.6057 4.46363 1.89441 0
M  V30 728 N 70.9488 -0.749086 1.3866 0
M  V30 729 C 72.1888 -1.52112 1.36534 0
M  V30 730 C 72.5528 -1.91951 -0.0432316 0
M  V30 731 O 73.7538 -2.68132 -0.189396 0
M  V30 732 C 72.0248 -2.73704 2.29828 0
M  V30 733 S 73.5838 -3.63519 2.45763 0
M  V30 734 H 70.4018 -0.520482 0.484375 0
M  V30 735 H 73.0038 -0.878963 1.74627 0
M  V30 736 H 71.7078 -2.42552 3.31054 0
M  V30 737 H 71.2388 -3.4286 1.929 0
M  V30 738 H 73.2538 -4.66712 1.68505 0
M  V30 739 N 72.4269 -1.23603 -0.977757 0
M  V30 740 C 73.8379 -1.06424 -1.53398 0
M  V30 741 C 74.1889 0.367578 -1.92726 0
M  V30 742 O 73.3139 1.25465 -1.76316 0
M  V30 743 C 73.9089 -1.92568 -2.78753 0
M  V30 744 C 72.4679 -1.79642 -3.30765 0
M  V30 745 C 71.6149 -1.88111 -2.03739 0
M  V30 746 H 74.5659 -1.37227 -0.797152 0
M  V30 747 H 74.5869 -1.45203 -3.51705 0
M  V30 748 H 74.0989 -2.96771 -2.50098 0
M  V30 749 H 72.1999 -0.782325 -3.64294 0
M  V30 750 H 72.3129 -2.63174 -4.00345 0
M  V30 751 H 70.6769 -1.31723 -2.17994 0
M  V30 752 H 71.4599 -2.93875 -1.77461 0
M  V30 753 N 73.905 1.17692 -1.04816 0
M  V30 754 C 75.13 1.92327 -0.776207 0
M  V30 755 C 75.555 1.76082 0.661581 0
M  V30 756 O 74.913 1.076 1.45917 0
M  V30 757 C 74.961 3.41539 -1.15687 0
M  V30 758 O 74.065 4.11402 -0.286775 0
M  V30 759 H 73.406 0.599735 -0.284981 0
M  V30 760 H 75.936 1.49201 -1.4 0
M  V30 761 H 75.946 3.92269 -1.12202 0
M  V30 762 H 74.621 3.52684 -2.20425 0
M  V30 763 H 73.198 3.70939 -0.381903 0
M  V30 764 N 75.3831 0.828654 1.34056 0
M  V30 765 C 76.3311 0.242973 2.31327 0
M  V30 766 C 77.3251 -0.61944 1.57668 0
M  V30 767 O 78.5311 -0.51014 1.7262 0
M  V30 768 H 74.9061 0.059834 0.749616 0
M  V30 769 H 76.8771 1.07809 2.78244 0
M  V30 770 C 75.6261 -0.575733 3.429 0
M  V30 771 H 74.9491 0.0785582 3.99723 0
M  V30 772 H 76.3891 -0.951547 4.13185 0
M  V30 773 C 74.8481 -1.75044 2.87856 0
M  V30 774 O 75.3781 -2.84882 2.83205 0
M  V30 775 N 73.5841 -1.56903 2.44602 0
M  V30 776 H 73.1311 -0.675547 2.48584 0
M  V30 777 H 73.0891 -2.35652 2.08124 0
M  V30 778 N 76.8612 -1.46375 0.584142 0
M  V30 779 C 78.0862 -2.07268 0.0740405 0
M  V30 780 C 78.5112 -1.42979 -1.22223 0
M  V30 781 O 77.8692 -0.514092 -1.73859 0
M  V30 782 C 77.9172 -3.60518 -0.0767769 0
M  V30 783 O 77.0212 -3.96533 -1.13292 0
M  V30 784 H 76.3622 -0.660961 0.0634524 0
M  V30 785 H 78.8922 -1.87991 0.807492 0
M  V30 786 H 78.9022 -4.07021 -0.282489 0
M  V30 787 H 77.5772 -4.06702 0.86986 0
M  V30 788 H 76.1542 -3.61738 -0.905553 0
M  V30 789 N 78.3393 -0.321999 -1.54275 0
M  V30 790 C 79.5643 0.285791 -2.05422 0
M  V30 791 C 79.9893 1.45124 -1.19669 0
M  V30 792 O 79.3473 1.80132 -0.205441 0
M  V30 793 C 79.3953 0.69956 -3.53749 0
M  V30 794 O 78.4993 1.8021 -3.70942 0
M  V30 795 H 77.8403 0.0518962 -0.661969 0
M  V30 796 H 80.3703 -0.469954 -1.9913 0
M  V30 797 H 80.3803 0.982649 -3.9599 0
M  V30 798 H 79.0553 -0.152864 -4.15619 0
M  V30 799 H 77.6323 1.51794 -3.40607 0
M  V30 800 N 79.8174 1.5752 -0.0501392 0
M  V30 801 C 80.7494 2.08413 0.95376 0
M  V30 802 C 81.7624 1.01175 1.27544 0
M  V30 803 O 82.9514 1.28744 1.23641 0
M  V30 804 C 80.0514 2.51138 2.27559 0
M  V30 805 C 79.2244 3.817 2.13598 0
M  V30 806 C 78.2834 4.10749 3.28895 0
M  V30 807 O 77.3094 4.80685 3.04845 0
M  V30 808 N 78.5114 3.62579 4.5334 0
M  V30 809 H 81.2764 2.95165 0.519383 0
M  V30 810 H 78.8374 1.61327 0.136127 0
M  V30 811 H 80.8294 2.67648 3.03557 0
M  V30 812 H 79.3994 1.6964 2.62567 0
M  V30 813 H 78.6194 3.74782 1.22197 0
M  V30 814 H 79.9074 4.67201 2.01496 0
M  V30 815 H 79.3054 3.06039 4.75769 0
M  V30 816 H 77.8624 3.84329 5.26436 0
M  V30 817 N 81.2955 -0.223234 1.56011 0
M  V30 818 C 82.7115 -0.572856 1.48965 0
M  V30 819 C 82.9115 -1.87225 0.74492 0
M  V30 820 O 81.9675 -2.50899 0.283896 0
M  V30 821 C 83.2805 -0.653646 2.9351 0
M  V30 822 C 84.8285 -0.744386 3.0402 0
M  V30 823 C 85.3035 -0.856535 4.49919 0
M  V30 824 N 86.7945 -0.9208 4.53955 0
M  V30 825 C 87.5295 -1.02726 5.64123 0
M  V30 826 N 87.0255 -1.09777 6.84047 0
M  V30 827 N 88.8185 -1.06226 5.51971 0
M  V30 828 H 80.9695 0.629462 2.02858 0
M  V30 829 H 83.2325 0.220621 0.921971 0
M  V30 830 H 82.9385 0.231518 3.50937 0
M  V30 831 H 82.8125 -1.51781 3.45315 0
M  V30 832 H 85.1995 -1.61999 2.46658 0
M  V30 833 H 85.2805 0.14541 2.55386 0
M  V30 834 H 84.9245 0.0146069 5.07898 0
M  V30 835 H 84.8545 -1.76172 4.96257 0
M  V30 836 H 87.3455 -0.876694 3.6759 0
M  V30 837 H 87.6585 -1.17872 7.63758 0
M  V30 838 H 86.0035 -1.06693 6.86762 0
M  V30 839 H 89.1945 -1.00382 4.5721 0
M  V30 840 H 89.3675 -1.14177 6.37862 0
M  V30 841 N 82.7736 -1.49793 -0.48987 0
M  V30 842 C 84.0196 -1.60078 -1.24511 0
M  V30 843 C 84.3526 -0.291608 -1.91998 0
M  V30 844 O 83.6276 0.705647 -1.81248 0
M  V30 845 C 83.9106 -2.76791 -2.30345 0
M  V30 846 C 83.7636 -4.17535 -1.67286 0
M  V30 847 C 85.0826 -2.89111 -3.31817 0
M  V30 848 H 82.2016 -0.582645 -0.451324 0
M  V30 849 H 84.8436 -1.82117 -0.541612 0
M  V30 850 H 82.9936 -2.5813 -2.90346 0
M  V30 851 H 84.6656 -4.4774 -1.11026 0
M  V30 852 H 82.9086 -4.22665 -0.976577 0
M  V30 853 H 83.5796 -4.95094 -2.44103 0
M  V30 854 H 86.0556 -3.06133 -2.81819 0
M  V30 855 H 84.9316 -3.72433 -4.03219 0
M  V30 856 H 85.1926 -1.9893 -3.94815 0
M  V30 857 N 84.2517 0.741722 -1.39055 0
M  V30 858 C 85.6627 1.31966 -1.32068 0
M  V30 859 C 86.0137 1.96192 0.0180797 0
M  V30 860 O 85.1387 1.95861 0.920196 0
M  V30 861 C 85.7337 2.39954 -2.39181 0
M  V30 862 C 84.2927 2.93438 -2.35735 0
M  V30 863 C 83.4397 1.66936 -2.21422 0
M  V30 864 H 86.3907 0.539721 -1.4924 0
M  V30 865 H 86.4117 3.20182 -2.05581 0
M  V30 866 H 85.9237 1.9318 -3.36605 0
M  V30 867 H 84.0247 3.4451 -1.41929 0
M  V30 868 H 84.1377 3.4701 -3.30335 0
M  V30 869 H 82.5017 1.91016 -1.68478 0
M  V30 870 H 83.2847 1.22224 -3.20806 0
M  V30 871 N 85.7298 1.2412 0.971189 0
M  V30 872 C 86.6598 1.05508 2.08304 0
M  V30 873 C 87.6408 -0.0308864 1.70072 0
M  V30 874 O 88.8258 0.135521 1.93727 0
M  V30 875 C 85.9558 0.655365 3.4106 0
M  V30 876 C 84.9098 1.68971 3.93234 0
M  V30 877 C 84.2358 1.14516 5.22293 0
M  V30 878 C 85.5358 3.08487 4.21465 0
M  V30 879 H 87.2298 1.98507 2.24132 0
M  V30 880 H 84.7758 0.955821 1.07704 0
M  V30 881 H 86.7288 0.51217 4.18276 0
M  V30 882 H 85.4528 -0.31032 3.25122 0
M  V30 883 H 84.1118 1.82106 3.18171 0
M  V30 884 H 83.7598 0.170189 5.02712 0
M  V30 885 H 83.4598 1.83635 5.58168 0
M  V30 886 H 84.9838 1.01401 6.02121 0
M  V30 887 H 86.3978 2.98601 4.89398 0
M  V30 888 H 84.7948 3.74926 4.68562 0
M  V30 889 H 85.8648 3.56787 3.28376 0
M  V30 890 N 87.2079 -1.17134 1.05439 0
M  V30 891 C 88.1399 -2.2078 0.615539 0
M  V30 892 C 89.1529 -1.59584 -0.322001 0
M  V30 893 O 90.3419 -1.78133 -0.114344 0
M  V30 894 C 87.4419 -3.38691 -0.118938 0
M  V30 895 C 86.6149 -4.29454 0.829924 0
M  V30 896 C 85.6739 -5.26024 0.136258 0
M  V30 897 O 84.6999 -5.63952 0.77115 0
M  V30 898 N 85.9019 -5.69487 -1.1254 0
M  V30 899 H 88.6669 -2.59052 1.50705 0
M  V30 900 H 86.2279 -1.32058 0.936603 0
M  V30 901 H 88.2199 -4.00329 -0.593179 0
M  V30 902 H 86.7899 -2.98996 -0.91215 0
M  V30 903 H 86.0099 -3.65211 1.48373 0
M  V30 904 H 87.2979 -4.86984 1.47392 0
M  V30 905 H 86.6959 -5.4075 -1.6615 0
M  V30 906 H 85.2529 -6.33257 -1.54366 0
M  V30 907 N 88.686 -0.835752 -1.33615 0
M  V30 908 C 89.649 -0.272 -2.2758 0
M  V30 909 C 90.649 0.557487 -1.50827 0
M  V30 910 O 91.839 0.37173 -1.70188 0
M  V30 911 C 88.971 0.617173 -3.35267 0
M  V30 912 H 90.164 -1.10111 -2.78954 0
M  V30 913 H 87.717 -0.608594 -1.43965 0
M  V30 914 H 88.452 1.46884 -2.89129 0
M  V30 915 H 88.237 0.0237066 -3.92093 0
M  V30 916 H 89.727 1.005 -4.05326 0
M  V30 917 N 90.1641 1.46063 -0.591896 0
M  V30 918 C 91.0961 2.28539 0.174001 0
M  V30 919 C 92.1091 1.39047 0.846753 0
M  V30 920 O 93.2981 1.63564 0.714774 0
M  V30 921 C 90.3981 3.14347 1.26645 0
M  V30 922 C 89.5711 4.32021 0.683856 0
M  V30 923 C 88.6301 4.99157 1.66518 0
M  V30 924 O 87.6561 5.56458 1.19763 0
M  V30 925 N 88.8581 4.97005 2.99943 0
M  V30 926 H 91.6231 2.94911 -0.533633 0
M  V30 927 H 89.1841 1.56077 -0.430294 0
M  V30 928 H 91.1761 3.56125 1.92242 0
M  V30 929 H 89.7461 2.49988 1.87682 0
M  V30 930 H 88.9661 3.93915 -0.1498 0
M  V30 931 H 90.2541 5.08059 0.274567 0
M  V30 932 H 89.6521 4.51714 3.40545 0
M  V30 933 H 88.2091 5.42696 3.61004 0
M  V30 934 N 91.6422 0.330177 1.54103 0
M  V30 935 C 92.5892 -0.532762 2.24567 0
M  V30 936 C 93.5592 -1.10635 1.23892 0
M  V30 937 O 94.7442 -1.14546 1.5259 0
M  V30 938 C 91.8842 -1.6845 3.01195 0
M  V30 939 C 90.9972 -1.13951 4.167 0
M  V30 940 C 90.1322 -2.25746 4.80845 0
M  V30 941 C 89.1712 -1.6853 5.88442 0
M  V30 942 N 88.3082 -2.74014 6.46421 0
M  V30 943 H 93.1482 0.0746905 2.97906 0
M  V30 944 H 90.6852 0.048632 1.4702 0
M  V30 945 H 92.6432 -2.36234 3.43874 0
M  V30 946 H 91.2732 -2.26314 2.30178 0
M  V30 947 H 90.3252 -0.35301 3.78758 0
M  V30 948 H 91.6372 -0.680892 4.94131 0
M  V30 949 H 90.7912 -3.01422 5.26526 0
M  V30 950 H 89.5302 -2.74947 4.0281 0
M  V30 951 H 88.5352 -0.913543 5.42157 0
M  V30 952 H 89.7602 -1.20198 6.68378 0
M  V30 953 H 87.7062 -3.22494 5.71256 0
M  V30 954 H 87.6232 -2.32735 7.19285 0
M  V30 955 H 88.8912 -3.49499 6.96757 0
M  V30 956 N 93.1203 -1.57491 0.0584922 0
M  V30 957 C 94.0503 -2.14988 -0.911178 0
M  V30 958 C 95.0313 -1.07343 -1.31952 0
M  V30 959 O 96.2163 -1.35318 -1.39294 0
M  V30 960 C 93.3463 -2.70078 -2.18347 0
M  V30 961 C 92.3003 -3.82771 -1.91495 0
M  V30 962 C 91.6263 -4.24408 -3.25241 0
M  V30 963 C 92.9263 -5.07592 -1.23075 0
M  V30 964 H 94.6203 -2.96263 -0.432246 0
M  V30 965 H 92.1663 -1.42512 -0.206469 0
M  V30 966 H 94.1193 -3.08943 -2.86587 0
M  V30 967 H 92.8433 -1.86005 -2.68458 0
M  V30 968 H 91.5023 -3.44389 -1.25664 0
M  V30 969 H 91.1503 -3.37275 -3.73168 0
M  V30 970 H 90.8503 -5.00366 -3.08071 0
M  V30 971 H 92.3743 -4.65879 -3.94701 0
M  V30 972 H 93.7883 -5.43857 -1.81362 0
M  V30 973 H 92.1853 -5.88741 -1.16207 0
M  V30 974 H 93.2553 -4.84454 -0.207847 0
M  V30 975 N 94.5984 0.214957 -1.56127 0
M  V30 976 C 95.8444 0.939762 -1.79712 0
M  V30 977 C 96.1774 1.83723 -0.629247 0
M  V30 978 O 95.4524 1.90925 0.371197 0
M  V30 979 C 95.7354 1.77306 -3.13424 0
M  V30 980 C 95.5884 0.90164 -4.40671 0
M  V30 981 C 96.9074 2.74956 -3.43638 0
M  V30 982 H 94.0264 0.340214 -0.653776 0
M  V30 983 H 96.6684 0.20824 -1.88855 0
M  V30 984 H 94.8184 2.39673 -3.0576 0
M  V30 985 H 96.4904 0.294206 -4.60361 0
M  V30 986 H 94.7334 0.207368 -4.33304 0
M  V30 987 H 95.4044 1.51923 -5.30682 0
M  V30 988 H 97.8804 2.22724 -3.51473 0
M  V30 989 H 96.7564 3.30358 -4.38355 0
M  V30 990 H 97.0174 3.53023 -2.66134 0
M  V30 991 N 96.0765 1.50051 0.48192 0
M  V30 992 C 97.3015 1.64508 1.26301 0
M  V30 993 C 97.7265 0.323851 1.85291 0
M  V30 994 O 97.0845 -0.710969 1.66778 0
M  V30 995 C 97.1325 2.7305 2.35533 0
M  V30 996 O 96.2365 2.3355 3.39895 0
M  V30 997 H 95.5775 0.549978 0.372048 0
M  V30 998 H 98.1075 1.9636 0.574786 0
M  V30 999 H 98.1175 2.95799 2.8101 0
M  V30 1000 H 96.7925 3.68946 1.91967 0
M  V30 1001 H 95.3695 2.21205 3.00204 0
M  V30 1002 N 97.5546 -0.734337 1.39446 0
M  V30 1003 C 98.7796 -1.52866 1.40167 0
M  V30 1004 C 99.2046 -1.881 -0.00171513 0
M  V30 1005 O 98.5626 -1.51957 -0.988879 0
M  V30 1006 C 98.6106 -2.79235 2.28167 0
M  V30 1007 O 97.7146 -3.75185 1.71201 0
M  V30 1008 H 97.0556 -0.461618 0.477289 0
M  V30 1009 H 99.5856 -0.905949 1.8345 0
M  V30 1010 H 99.5956 -3.27963 2.42702 0
M  V30 1011 H 98.2706 -2.52923 3.30156 0
M  V30 1012 H 96.8476 -3.33958 1.65912 0
M  V30 1013 N 99.0327 -1.24633 -0.964593 0
M  V30 1014 C 99.9827 -1.00841 -2.04487 0
M  V30 1015 C 100.967 0.0512468 -1.60818 0
M  V30 1016 O 102.159 -0.162865 -1.76249 0
M  V30 1017 C 99.2877 -0.618474 -3.37683 0
M  V30 1018 C 98.3737 -1.71437 -3.87905 0
M  V30 1019 N 98.7647 -2.9477 -4.11029 0
M  V30 1020 C 97.0627 -1.5926 -4.16596 0
M  V30 1021 C 97.7637 -3.65834 -4.52261 0
M  V30 1022 N 96.7397 -2.9341 -4.57615 0
M  V30 1023 H 100.542 -1.94487 -2.20345 0
M  V30 1024 H 98.0557 -1.14805 -1.14863 0
M  V30 1025 H 100.053 -0.429247 -4.14684 0
M  V30 1026 H 98.7127 0.310766 -3.23209 0
M  V30 1027 H 99.7237 -3.30917 -3.9839 0
M  V30 1028 H 96.4007 -0.731606 -4.1104 0
M  V30 1029 H 97.7907 -4.71646 -4.78539 0
M  V30 1030 N 100.511 1.16574 -1.06058 0
M  V30 1031 C 101.458 2.20883 -0.669263 0
M  V30 1032 C 102.428 1.62729 0.332918 0
M  V30 1033 O 103.613 1.895 0.222346 0
M  V30 1034 C 100.753 3.45049 -0.0593572 0
M  V30 1035 C 99.8658 4.17458 -1.11143 0
M  V30 1036 C 99.0008 5.29135 -0.467916 0
M  V30 1037 C 98.0398 5.93343 -1.50369 0
M  V30 1038 N 97.1768 6.96516 -0.883706 0
M  V30 1039 H 102.017 2.53709 -1.5632 0
M  V30 1040 H 99.5538 1.24616 -0.781625 0
M  V30 1041 H 101.512 4.16033 0.311771 0
M  V30 1042 H 100.142 3.12781 0.797992 0
M  V30 1043 H 99.1938 3.45101 -1.60029 0
M  V30 1044 H 100.506 4.61307 -1.89731 0
M  V30 1045 H 99.6598 6.06684 -0.0436871 0
M  V30 1046 H 98.3988 4.86443 0.349864 0
M  V30 1047 H 97.4038 5.14517 -1.93784 0
M  V30 1048 H 98.6288 6.38114 -2.32352 0
M  V30 1049 H 96.5748 6.55943 -0.086595 0
M  V30 1050 H 96.4918 7.38723 -1.607 0
M  V30 1051 H 97.7598 7.77993 -0.484543 0
M  V30 1052 N 101.989 0.842826 1.3317 0
M  V30 1053 C 103.4 0.496651 1.79973 0
M  V30 1054 C 103.751 -0.984641 1.69703 0
M  V30 1055 O 102.876 -1.76743 1.24863 0
M  V30 1056 C 103.471 0.894727 3.26772 0
M  V30 1057 C 102.03 0.600629 3.71577 0
M  V30 1058 C 101.177 1.10091 2.5451 0
M  V30 1059 H 104.128 1.03116 1.20635 0
M  V30 1060 H 104.149 0.206347 3.7994 0
M  V30 1061 H 103.661 1.97287 3.34215 0
M  V30 1062 H 101.762 -0.467284 3.69658 0
M  V30 1063 H 101.875 1.15863 4.64879 0
M  V30 1064 H 100.239 0.52162 2.49301 0
M  V30 1065 H 101.022 2.18591 2.64713 0
M  V30 1066 N 103.467 -1.45747 0.599634 0
M  V30 1067 C 104.713 -2.02592 0.0918643 0
M  V30 1068 C 105.046 -1.46806 -1.27128 0
M  V30 1069 O 104.321 -0.639658 -1.83681 0
M  V30 1070 C 104.604 -3.60073 0.0443398 0
M  V30 1071 C 104.457 -4.26208 1.43759 0
M  V30 1072 C 105.776 -4.35309 -0.647608 0
M  V30 1073 H 102.895 -0.736175 0.034857 0
M  V30 1074 H 105.537 -1.73694 0.770081 0
M  V30 1075 H 103.687 -3.84823 -0.533224 0
M  V30 1076 H 105.359 -4.12668 2.06162 0
M  V30 1077 H 103.602 -3.84916 2.00056 0
M  V30 1078 H 104.273 -5.35069 1.35665 0
M  V30 1079 H 106.749 -4.15805 -0.156776 0
M  V30 1080 H 105.625 -5.45038 -0.649942 0
M  V30 1081 H 105.886 -4.07598 -1.71219 0
M  V30 1082 N 104.945 -0.338344 -1.53925 0
M  V30 1083 C 105.877 0.555117 -2.22376 0
M  V30 1084 C 106.89 1.06812 -1.22862 0
M  V30 1085 O 108.079 0.979163 -1.49247 0
M  V30 1086 C 105.179 1.77609 -2.88631 0
M  V30 1087 C 104.352 1.39927 -4.14414 0
M  V30 1088 C 103.411 2.47936 -4.64127 0
M  V30 1089 O 102.437 2.11461 -5.28463 0
M  V30 1090 N 103.639 3.79107 -4.39612 0
M  V30 1091 H 106.404 -0.0310778 -2.99684 0
M  V30 1092 H 103.965 -0.162226 -1.61085 0
M  V30 1093 H 105.957 2.49287 -3.18807 0
M  V30 1094 H 104.527 2.26978 -2.14941 0
M  V30 1095 H 103.747 0.513481 -3.90841 0
M  V30 1096 H 105.035 1.12341 -4.96243 0
M  V30 1097 H 104.433 4.11531 -3.88148 0
M  V30 1098 H 102.99 4.4697 -4.74406 0
M  V30 1099 N 106.423 1.57458 -0.0668435 0
M  V30 1100 C 107.371 2.13639 0.919851 0
M  V30 1101 C 108.365 1.07204 1.31163 0
M  V30 1102 O 109.571 1.25591 1.28945 0
M  V30 1103 H 105.946 0.683048 0.314562 0
M  V30 1104 H 107.917 2.95415 0.421047 0
M  V30 1105 C 106.666 2.70892 2.17975 0
M  V30 1106 H 105.989 3.5246 1.88711 0
M  V30 1107 H 107.429 3.13803 2.85138 0
M  V30 1108 C 105.888 1.65414 2.93496 0
M  V30 1109 O 106.418 1.07619 3.87015 0
M  V30 1110 N 104.624 1.36564 2.56512 0
M  V30 1111 H 104.171 1.83751 1.80536 0
M  V30 1112 H 104.129 0.66223 3.07347 0
M  V30 1113 N 107.901 -0.206675 1.56239 0
M  V30 1114 C 108.833 -1.27997 1.9013 0
M  V30 1115 C 109.846 -1.42299 0.790883 0
M  V30 1116 O 111.035 -1.42931 1.06925 0
M  V30 1117 C 108.135 -2.65368 2.10792 0
M  V30 1118 C 107.308 -2.72824 3.41886 0
M  V30 1119 C 106.367 -3.9131 3.51799 0
M  V30 1120 O 105.393 -3.78953 4.24716 0
M  V30 1121 N 106.595 -5.06265 2.84035 0
M  V30 1122 H 109.36 -0.992444 2.82791 0
M  V30 1123 H 106.921 -0.396652 1.56966 0
M  V30 1124 H 108.913 -3.43039 2.14724 0
M  V30 1125 H 107.483 -2.86657 1.24685 0
M  V30 1126 H 106.703 -1.81515 3.49923 0
M  V30 1127 H 107.991 -2.74786 4.28217 0
M  V30 1128 H 107.389 -5.19203 2.246 0
M  V30 1129 H 105.946 -5.81925 2.93609 0
M  V30 1130 N 109.379 -1.50304 -0.473955 0
M  V30 1131 C 110.326 -1.68959 -1.57231 0
M  V30 1132 C 111.296 -0.530899 -1.57387 0
M  V30 1133 O 112.481 -0.761133 -1.74961 0
M  V30 1134 C 109.621 -1.7871 -2.95223 0
M  V30 1135 C 108.734 -3.06061 -3.04878 0
M  V30 1136 C 107.869 -3.06626 -4.33767 0
M  V30 1137 C 106.908 -4.28443 -4.37154 0
M  V30 1138 N 106.045 -4.26763 -5.5751 0
M  V30 1139 H 110.885 -2.6273 -1.40631 0
M  V30 1140 H 108.422 -1.30241 -0.683789 0
M  V30 1141 H 110.38 -1.82344 -3.75242 0
M  V30 1142 H 109.01 -0.883806 -3.10465 0
M  V30 1143 H 108.062 -3.11911 -2.17751 0
M  V30 1144 H 109.374 -3.96039 -3.0324 0
M  V30 1145 H 108.528 -3.08973 -5.22131 0
M  V30 1146 H 107.267 -2.14473 -4.3801 0
M  V30 1147 H 106.272 -4.2631 -3.47188 0
M  V30 1148 H 107.497 -5.2182 -4.34605 0
M  V30 1149 H 105.443 -3.37462 -5.62544 0
M  V30 1150 H 105.36 -5.10507 -5.57601 0
M  V30 1151 H 106.628 -4.33253 -6.48006 0
M  V30 1152 N 110.857 0.726932 -1.39834 0
M  V30 1153 C 111.789 1.85147 -1.35104 0
M  V30 1154 C 112.802 1.60736 -0.258392 0
M  V30 1155 O 113.991 1.70821 -0.517931 0
M  V30 1156 C 111.091 3.21332 -1.07697 0
M  V30 1157 C 110.264 3.73033 -2.28396 0
M  V30 1158 C 109.323 4.87802 -1.97322 0
M  V30 1159 O 108.349 5.01043 -2.70083 0
M  V30 1160 N 109.551 5.72768 -0.944273 0
M  V30 1161 H 112.316 1.89706 -2.32017 0
M  V30 1162 H 109.877 0.908006 -1.3404 0
M  V30 1163 H 111.869 3.95691 -0.849144 0
M  V30 1164 H 110.439 3.11992 -0.194909 0
M  V30 1165 H 109.659 2.89934 -2.6708 0
M  V30 1166 H 110.947 4.0431 -3.08887 0
M  V30 1167 H 110.345 5.64669 -0.341427 0
M  V30 1168 H 108.902 6.4716 -0.776346 0
M  V30 1169 N 112.336 1.25143 0.95797 0
M  V30 1170 C 113.283 1.05235 2.05412 0
M  V30 1171 C 114.253 -0.0374561 1.66058 0
M  V30 1172 O 115.438 0.119073 1.90428 0
M  V30 1173 C 112.578 0.673589 3.38462 0
M  V30 1174 C 111.691 1.8379 3.90954 0
M  V30 1175 C 110.826 1.40381 5.12315 0
M  V30 1176 C 109.865 2.53746 5.57027 0
M  V30 1177 N 109.002 2.11136 6.69601 0
M  V30 1178 H 113.842 1.99048 2.21774 0
M  V30 1179 H 111.379 0.991277 1.08683 0
M  V30 1180 H 113.337 0.434964 4.14926 0
M  V30 1181 H 111.967 -0.227554 3.21997 0
M  V30 1182 H 111.019 2.18992 3.11041 0
M  V30 1183 H 112.331 2.68937 4.20089 0
M  V30 1184 H 111.485 1.12464 5.96185 0
M  V30 1185 H 110.224 0.523015 4.84887 0
M  V30 1186 H 109.229 2.82412 4.71724 0
M  V30 1187 H 110.454 3.42398 5.86464 0
M  V30 1188 H 108.4 1.25468 6.4389 0
M  V30 1189 H 108.317 2.89832 6.98236 0
M  V30 1190 H 109.585 1.86385 7.56889 0
M  V30 1191 N 113.814 -1.1601 1.06675 0
M  V30 1192 C 114.746 -2.20115 0.638921 0
M  V30 1193 C 115.759 -1.59916 -0.305057 0
M  V30 1194 O 116.948 -1.78245 -0.0954446 0
M  V30 1195 C 114.048 -3.38798 -0.0830083 0
M  V30 1196 C 113.221 -4.2855 0.875426 0
M  V30 1197 C 112.28 -5.25849 0.192042 0
M  V30 1198 O 111.306 -5.63102 0.830921 0
M  V30 1199 N 112.508 -5.70648 -1.06493 0
M  V30 1200 H 115.273 -2.57439 1.53444 0
M  V30 1201 H 112.834 -1.31057 0.950557 0
M  V30 1202 H 114.826 -4.00936 -0.550685 0
M  V30 1203 H 113.396 -2.99947 -0.880386 0
M  V30 1204 H 112.616 -3.63617 1.52238 0
M  V30 1205 H 113.904 -4.85393 1.52548 0
M  V30 1206 H 113.302 -5.42482 -1.60405 0
M  V30 1207 H 111.859 -6.34859 -1.47641 0
M  V30 1208 N 115.292 -0.849877 -1.32721 0
M  V30 1209 C 116.222 -0.306308 -2.31482 0
M  V30 1210 C 117.203 0.591952 -1.59468 0
M  V30 1211 O 118.388 0.513199 -1.87296 0
M  V30 1212 C 115.518 0.510204 -3.43532 0
M  V30 1213 C 114.472 -0.293209 -4.26994 0
M  V30 1214 C 113.798 0.647743 -5.30762 0
M  V30 1215 C 115.098 -1.51634 -4.99804 0
M  V30 1216 H 116.792 -1.13153 -2.77195 0
M  V30 1217 H 114.338 -0.545553 -1.33266 0
M  V30 1218 H 116.291 0.900856 -4.11658 0
M  V30 1219 H 115.015 1.36874 -2.96535 0
M  V30 1220 H 113.674 -0.665555 -3.60508 0
M  V30 1221 H 113.322 1.50299 -4.8002 0
M  V30 1222 H 113.022 0.11422 -5.87489 0
M  V30 1223 H 114.546 1.03567 -6.01753 0
M  V30 1224 H 115.96 -1.19824 -5.60638 0
M  V30 1225 H 114.357 -1.98745 -5.66234 0
M  V30 1226 H 115.427 -2.28018 -4.27943 0
M  V30 1227 N 116.77 1.45427 -0.607355 0
M  V30 1228 C 117.702 2.2871 0.149752 0
M  V30 1229 C 118.715 1.39937 0.831958 0
M  V30 1230 O 119.904 1.64313 0.697385 0
M  V30 1231 C 117.004 3.15673 1.23304 0
M  V30 1232 C 116.177 4.32722 0.637996 0
M  V30 1233 C 115.236 5.00895 1.61215 0
M  V30 1234 O 114.262 5.57697 1.13854 0
M  V30 1235 N 115.464 5.00159 2.94655 0
M  V30 1236 H 118.229 2.94328 -0.564882 0
M  V30 1237 H 115.79 1.55612 -0.446823 0
M  V30 1238 H 117.782 3.58144 1.88454 0
M  V30 1239 H 116.352 2.51965 1.8502 0
M  V30 1240 H 115.572 3.93734 -0.191572 0
M  V30 1241 H 116.86 5.08321 0.220665 0
M  V30 1242 H 116.258 4.553 3.35735 0
M  V30 1243 H 114.815 5.46495 3.55228 0
M  V30 1244 N 118.248 0.346503 1.53744 0
M  V30 1245 C 119.211 -0.496439 2.23759 0
M  V30 1246 C 120.211 -1.0252 1.2388 0
M  V30 1247 O 121.401 -0.913974 1.48297 0
M  V30 1248 C 118.533 -1.69187 2.95954 0
M  V30 1249 H 119.726 0.115952 2.99676 0
M  V30 1250 H 117.279 0.0978939 1.55993 0
M  V30 1251 H 118.014 -2.34288 2.24231 0
M  V30 1252 H 117.799 -1.31989 3.69217 0
M  V30 1253 H 119.289 -2.28969 3.49232 0
M  V30 1254 N 119.726 -1.57421 0.075193 0
M  V30 1255 C 120.954 -1.97946 -0.602076 0
M  V30 1256 C 121.369 -0.953674 -1.62943 0
M  V30 1257 O 120.726 0.0592551 -1.82404 0
M  V30 1258 C 120.777 -3.38546 -1.26762 0
M  V30 1259 O 120.498 -4.37195 -0.281376 0
M  V30 1260 C 121.999 -3.93966 -2.03239 0
M  V30 1261 H 119.219 -0.650918 -0.162931 0
M  V30 1262 H 121.763 -2.03959 0.148601 0
M  V30 1263 H 119.918 -3.33609 -1.96936 0
M  V30 1264 H 120.332 -5.18975 -0.759267 0
M  V30 1265 H 121.806 -4.94555 -2.45193 0
M  V30 1266 H 122.283 -3.30693 -2.8903 0
M  V30 1267 H 122.889 -4.02315 -1.37924 0
M  V30 1268 N 121.204 0.198386 -1.56346 0
M  V30 1269 C 122.429 0.939682 -1.84891 0
M  V30 1270 C 122.854 1.76202 -0.658369 0
M  V30 1271 O 122.212 1.76993 0.392851 0
M  V30 1272 C 122.26 1.81428 -3.11635 0
M  V30 1273 O 121.364 2.91265 -2.91956 0
M  V30 1274 H 120.705 0.264807 -0.608912 0
M  V30 1275 H 123.235 0.204695 -2.03573 0
M  V30 1276 H 123.245 2.21958 -3.42343 0
M  V30 1277 H 121.92 1.21004 -3.97908 0
M  V30 1278 H 120.497 2.54514 -2.72538 0
M  V30 1279 N 122.682 1.50554 0.465978 0
M  V30 1280 C 123.928 1.62038 1.21949 0
M  V30 1281 C 124.261 0.322116 1.9151 0
M  V30 1282 O 123.536 -0.676723 1.82348 0
M  V30 1283 C 123.819 2.80421 2.25912 0
M  V30 1284 C 123.672 4.20144 1.60622 0
M  V30 1285 C 124.991 2.94354 3.27176 0
M  V30 1286 H 122.11 0.589752 0.441998 0
M  V30 1287 H 124.752 1.82956 0.51257 0
M  V30 1288 H 122.902 2.62717 2.86203 0
M  V30 1289 H 124.574 4.49449 1.03889 0
M  V30 1290 H 122.817 4.24165 0.909211 0
M  V30 1291 H 123.488 4.98914 2.36196 0
M  V30 1292 H 125.964 3.10578 2.76913 0
M  V30 1293 H 124.84 3.788 3.97242 0
M  V30 1294 H 125.101 2.05186 3.916 0
M  V30 1295 N 124.16 -0.719506 1.40217 0
M  V30 1296 C 125.571 -1.29848 1.34151 0
M  V30 1297 C 125.922 -1.96196 0.0131349 0
M  V30 1298 O 125.047 -1.973 -0.88892 0
M  V30 1299 C 125.642 -2.36118 2.42968 0
M  V30 1300 C 124.201 -2.8965 2.40374 0
M  V30 1301 C 123.348 -1.63393 2.24049 0
M  V30 1302 H 126.299 -0.51591 1.5008 0
M  V30 1303 H 126.32 -3.16871 2.10649 0
M  V30 1304 H 125.832 -1.878 3.39636 0
M  V30 1305 H 123.933 -3.42208 1.47392 0
M  V30 1306 H 124.046 -3.4171 3.35814 0
M  V30 1307 H 122.41 -1.88312 1.71495 0
M  V30 1308 H 123.193 -1.17104 3.2271 0
M  V30 1309 N 125.638 -1.25649 -0.95132 0
M  V30 1310 C 126.588 -1.03004 -2.03406 0
M  V30 1311 C 127.572 0.034187 -1.60864 0
M  V30 1312 O 128.764 -0.181549 -1.76066 0
M  V30 1313 C 125.893 -0.654255 -3.37008 0
M  V30 1314 C 124.979 -1.75542 -3.86065 0
M  V30 1315 N 125.37 -2.99113 -4.07879 0
M  V30 1316 C 123.668 -1.63669 -4.14884 0
M  V30 1317 C 124.369 -3.70611 -4.48356 0
M  V30 1318 N 123.345 -2.98247 -4.54477 0
M  V30 1319 H 127.147 -1.96813 -2.1827 0
M  V30 1320 H 124.661 -1.16017 -1.13639 0
M  V30 1321 H 126.658 -0.473206 -4.14206 0
M  V30 1322 H 125.318 0.276468 -3.23521 0
M  V30 1323 H 126.329 -3.35124 -3.94857 0
M  V30 1324 H 123.006 -0.775161 -4.10241 0
M  V30 1325 H 124.396 -4.76695 -4.73509 0
M  V30 1326 N 127.117 1.15442 -1.07289 0
M  V30 1327 C 128.528 1.67803 -0.818475 0
M  V30 1328 C 128.879 1.8489 0.656507 0
M  V30 1329 O 128.004 1.55176 1.50829 0
M  V30 1330 C 128.599 3.04805 -1.47917 0
M  V30 1331 C 127.158 3.54245 -1.27229 0
M  V30 1332 C 126.305 2.29986 -1.54925 0
M  V30 1333 H 129.256 0.996646 -1.23502 0
M  V30 1334 H 129.277 3.69702 -0.90005 0
M  V30 1335 H 128.789 2.92336 -2.55267 0
M  V30 1336 H 126.89 3.71956 -0.21899 0
M  V30 1337 H 127.003 4.35723 -1.99203 0
M  V30 1338 H 125.367 2.35496 -0.970242 0
M  V30 1339 H 126.15 2.20105 -2.63455 0
M  V30 1340 N 128.595 0.856903 1.32268 0
M  V30 1341 C 129.841 0.462069 1.97466 0
M  V30 1342 C 130.174 -0.980298 1.67642 0
M  V30 1343 O 129.449 -1.68824 0.965858 0
M  V30 1344 C 129.732 0.704336 3.53145 0
M  V30 1345 C 129.585 2.19529 3.9259 0
M  V30 1346 C 130.904 0.1622 4.39801 0
M  V30 1347 H 128.023 0.169357 0.717278 0
M  V30 1348 H 130.665 1.07574 1.56614 0
M  V30 1349 H 128.815 0.181999 3.88073 0
M  V30 1350 H 130.487 2.78387 3.67829 0
M  V30 1351 H 128.73 2.67292 3.41668 0
M  V30 1352 H 129.401 2.31549 5.01088 0
M  V30 1353 H 131.877 0.608905 4.11621 0
M  V30 1354 H 130.753 0.361265 5.4771 0
M  V30 1355 H 131.014 -0.935158 4.32096 0
M  V30 1356 N 130.073 -1.45103 0.615059 0
M  V30 1357 C 131.298 -2.07064 0.117988 0
M  V30 1358 C 131.723 -1.4554 -1.19163 0
M  V30 1359 O 131.081 -0.550855 -1.72729 0
M  V30 1360 C 131.129 -3.606 -0.000288387 0
M  V30 1361 O 130.233 -3.98847 -1.04856 0
M  V30 1362 H 129.574 -0.659467 0.0774581 0
M  V30 1363 H 132.104 -1.86236 0.847186 0
M  V30 1364 H 132.114 -4.07529 -0.196091 0
M  V30 1365 H 130.789 -4.04765 0.955932 0
M  V30 1366 H 129.366 -3.63577 -0.828619 0
M  V30 1367 N 131.551 -0.354651 -1.53558 0
M  V30 1368 C 132.967 -0.00315426 -1.596 0
M  V30 1369 C 133.167 1.47741 -1.37021 0
M  V30 1370 O 132.223 2.23759 -1.16996 0
M  V30 1371 C 133.536 -0.44929 -2.97325 0
M  V30 1372 C 135.084 -0.402578 -3.104 0
M  V30 1373 C 135.559 -0.824355 -4.5052 0
M  V30 1374 N 137.05 -0.778979 -4.56603 0
M  V30 1375 C 137.785 -1.07715 -5.63192 0
M  V30 1376 N 137.281 -1.44405 -6.77583 0
M  V30 1377 N 139.074 -1.00066 -5.53121 0
M  V30 1378 H 131.225 -1.31893 -1.66487 0
M  V30 1379 H 133.488 -0.538388 -0.780284 0
M  V30 1380 H 133.194 -1.48202 -3.1895 0
M  V30 1381 H 133.068 0.169772 -3.76818 0
M  V30 1382 H 135.455 0.621004 -2.88492 0
M  V30 1383 H 135.536 -1.05699 -2.32941 0
M  V30 1384 H 135.18 -1.846 -4.73165 0
M  V30 1385 H 135.11 -0.147304 -5.26394 0
M  V30 1386 H 137.601 -0.508528 -3.74463 0
M  V30 1387 H 137.914 -1.65612 -7.54846 0
M  V30 1388 H 136.259 -1.4826 -6.79002 0
M  V30 1389 H 139.45 -0.713293 -4.62633 0
M  V30 1390 H 139.623 -1.23638 -6.36096 0
M  V30 1391 N 133.029 1.57378 -0.0835403 0
M  V30 1392 C 134.44 1.81261 0.447358 0
M  V30 1393 C 134.791 0.998331 1.68902 0
M  V30 1394 O 133.916 0.224282 2.15235 0
M  V30 1395 C 134.511 3.28767 0.818386 0
M  V30 1396 C 133.07 3.53455 1.29409 0
M  V30 1397 C 132.217 2.75831 0.285024 0
M  V30 1398 H 135.168 1.5566 -0.309115 0
M  V30 1399 H 135.189 3.41459 1.67887 0
M  V30 1400 H 134.701 3.88006 -0.0855019 0
M  V30 1401 H 132.802 2.99534 2.21608 0
M  V30 1402 H 132.915 4.62128 1.2639 0
M  V30 1403 H 131.279 2.42947 0.764767 0
M  V30 1404 H 132.062 3.37813 -0.611341 0
M  V30 1405 N 134.507 -0.190092 1.56449 0
M  V30 1406 C 135.437 -1.23816 1.97969 0
M  V30 1407 C 136.418 -1.47201 0.852395 0
M  V30 1408 O 137.603 -1.58854 1.1171 0
M  V30 1409 C 134.733 -2.5813 2.3235 0
M  V30 1410 C 133.687 -2.49348 3.47864 0
M  V30 1411 C 133.013 -3.8798 3.67934 0
M  V30 1412 C 134.313 -2.01424 4.81898 0
M  V30 1413 H 136.007 -0.89311 2.85769 0
M  V30 1414 H 133.553 -0.428177 1.37487 0
M  V30 1415 H 135.506 -3.31637 2.59991 0
M  V30 1416 H 134.23 -2.94386 1.41438 0
M  V30 1417 H 132.889 -1.78297 3.20321 0
M  V30 1418 H 132.537 -4.21597 2.74344 0
M  V30 1419 H 132.237 -3.82978 4.45648 0
M  V30 1420 H 133.761 -4.63101 3.97957 0
M  V30 1421 H 135.175 -2.64693 5.08538 0
M  V30 1422 H 133.572 -2.07413 5.63116 0
M  V30 1423 H 134.642 -0.967677 4.75146 0
M  V30 1424 N 135.985 -1.50799 -0.457987 0
M  V30 1425 C 136.933 -1.71162 -1.575 0
M  V30 1426 C 137.927 -0.577592 -1.59249 0
M  V30 1427 O 139.133 -0.758443 -1.63241 0
M  V30 1428 H 135.508 -0.540468 -0.522875 0
M  V30 1429 H 137.479 -2.64837 -1.37492 0
M  V30 1430 C 136.228 -1.83496 -2.95338 0
M  V30 1431 H 135.551 -2.70153 -2.94716 0
M  V30 1432 H 136.991 -2.01765 -3.72917 0
M  V30 1433 C 135.45 -0.589694 -3.31699 0
M  V30 1434 O 135.98 0.265163 -4.00824 0
M  V30 1435 N 134.186 -0.439845 -2.87252 0
M  V30 1436 H 133.733 -1.13655 -2.31172 0
M  V30 1437 H 133.691 0.392159 -3.11945 0
M  V30 1438 N 137.463 0.71206 -1.40597 0
M  V30 1439 C 138.411 1.84746 -1.41321 0
M  V30 1440 C 139.405 1.66842 -0.293268 0
M  V30 1441 O 140.611 1.73904 -0.464481 0
M  V30 1442 H 136.986 0.608522 -0.441819 0
M  V30 1443 H 138.957 1.81252 -2.37045 0
M  V30 1444 C 137.706 3.22638 -1.29614 0
M  V30 1445 H 137.029 3.37023 -2.15071 0
M  V30 1446 H 138.469 4.02209 -1.3418 0
M  V30 1447 C 136.928 3.36899 -0.00673121 0
M  V30 1448 O 137.458 3.90186 0.954859 0
M  V30 1449 N 135.664 2.9053 0.0639327 0
M  V30 1450 H 135.211 2.47353 -0.719311 0
M  V30 1451 H 135.169 3.0045 0.926118 0
M  V30 1452 N 138.941 1.26152 0.944643 0
M  V30 1453 C 140.169 1.14259 1.72489 0
M  V30 1454 C 140.584 -0.302555 1.8636 0
M  V30 1455 O 139.941 -1.20741 1.36849 0
M  V30 1456 C 139.992 1.80266 3.13347 0
M  V30 1457 O 139.713 3.19133 3.00143 0
M  V30 1458 C 141.214 1.74283 4.07603 0
M  V30 1459 H 138.434 0.398051 0.540181 0
M  V30 1460 H 140.978 1.66706 1.18446 0
M  V30 1461 H 139.133 1.31766 3.64303 0
M  V30 1462 H 139.547 3.51744 3.89071 0
M  V30 1463 H 141.021 2.25111 5.04013 0
M  V30 1464 H 141.498 0.708631 4.33446 0
M  V30 1465 H 142.104 2.22319 3.62567 0
M  V30 1466 N 140.419 -1.14872 1.07899 0
M  V30 1467 C 141.351 -2.19425 0.662231 0
M  V30 1468 C 142.364 -1.60231 -0.288079 0
M  V30 1469 O 143.553 -1.78336 -0.076534 0
M  V30 1470 C 140.653 -3.38867 -0.0470695 0
M  V30 1471 C 139.826 -4.27597 0.920831 0
M  V30 1472 C 138.885 -5.25616 0.247805 0
M  V30 1473 O 137.911 -5.62189 0.890599 0
M  V30 1474 N 139.113 -5.71746 -1.00435 0
M  V30 1475 H 141.878 -2.55797 1.56166 0
M  V30 1476 H 139.439 -1.30042 0.964404 0
M  V30 1477 H 141.431 -4.01497 -0.50813 0
M  V30 1478 H 140.001 -3.00864 -0.848523 0
M  V30 1479 H 139.221 -3.61982 1.56087 0
M  V30 1480 H 140.509 -4.83748 1.57688 0
M  V30 1481 H 139.907 -5.44153 -1.54642 0
M  V30 1482 H 138.464 -6.36389 -1.40899 0
M  V30 1483 N 141.898 -0.863906 -1.31812 0
M  V30 1484 C 142.845 -0.313303 -2.28664 0
M  V30 1485 C 143.815 0.584868 -1.55462 0
M  V30 1486 O 145 0.517805 -1.83639 0
M  V30 1487 C 142.14 0.48441 -3.41683 0
M  V30 1488 C 141.253 -0.440594 -4.29747 0
M  V30 1489 C 140.388 0.370652 -5.29905 0
M  V30 1490 C 139.427 -0.551164 -6.09613 0
M  V30 1491 N 138.564 0.223462 -7.01744 0
M  V30 1492 H 143.404 -1.14444 -2.75148 0
M  V30 1493 H 140.941 -0.575769 -1.35364 0
M  V30 1494 H 142.899 0.962627 -4.05943 0
M  V30 1495 H 141.529 1.28029 -2.96325 0
M  V30 1496 H 140.581 -1.03724 -3.65986 0
M  V30 1497 H 141.893 -1.14767 -4.85417 0
M  V30 1498 H 141.047 0.911638 -5.99812 0
M  V30 1499 H 139.786 1.11105 -4.74876 0
M  V30 1500 H 138.791 -1.10396 -5.38603 0
M  V30 1501 H 140.016 -1.29032 -6.66729 0
M  V30 1502 H 137.962 0.946787 -6.49132 0
M  V30 1503 H 137.879 -0.424399 -7.54808 0
M  V30 1504 H 139.147 0.745876 -7.75923 0
M  V30 1505 N 143.376 1.44774 -0.622745 0
M  V30 1506 C 144.601 2.06999 -0.128968 0
M  V30 1507 C 145.026 1.4617 1.1839 0
M  V30 1508 O 144.384 0.560007 1.72434 0
M  V30 1509 C 144.432 3.60595 -0.0188351 0
M  V30 1510 O 143.536 3.99398 1.02739 0
M  V30 1511 H 142.877 0.659047 -0.0809544 0
M  V30 1512 H 145.407 1.85784 -0.85705 0
M  V30 1513 H 145.417 4.07627 0.174476 0
M  V30 1514 H 144.092 4.04252 -0.977384 0
M  V30 1515 H 142.669 3.64011 0.809326 0
M  V30 1516 N 144.854 0.36279 1.53368 0
M  V30 1517 C 145.801 -0.485008 2.25646 0
M  V30 1518 C 146.771 -1.07982 1.2621 0
M  V30 1519 O 147.956 -1.11284 1.54986 0
M  V30 1520 C 145.096 -1.62023 3.04701 0
M  V30 1521 C 144.209 -1.05086 4.19024 0
M  V30 1522 C 143.344 -2.15496 4.85525 0
M  V30 1523 C 142.383 -1.5601 5.91884 0
M  V30 1524 N 141.52 -2.60241 6.52088 0
M  V30 1525 H 146.36 0.137864 2.97681 0
M  V30 1526 H 143.897 0.0798061 1.46883 0
M  V30 1527 H 145.855 -2.28887 3.48807 0
M  V30 1528 H 144.485 -2.2138 2.34927 0
M  V30 1529 H 143.537 -0.27259 3.79422 0
M  V30 1530 H 144.849 -0.575926 4.95464 0
M  V30 1531 H 144.003 -2.90186 5.32801 0
M  V30 1532 H 142.742 -2.66341 4.08551 0
M  V30 1533 H 141.747 -0.798338 5.43973 0
M  V30 1534 H 142.972 -1.05994 6.70777 0
M  V30 1535 H 140.918 -3.10304 5.77968 0
M  V30 1536 H 140.835 -2.17426 7.24059 0
M  V30 1537 H 142.103 -3.34641 7.04014 0
M  V30 1538 N 146.332 -1.57332 0.0918853 0
M  V30 1539 C 147.264 -2.10869 -0.898168 0
M  V30 1540 C 148.277 -1.04521 -1.24817 0
M  V30 1541 O 149.466 -1.31977 -1.20184 0
M  V30 1542 C 146.566 -2.57083 -2.2082 0
M  V30 1543 C 145.739 -3.87229 -2.03402 0
M  V30 1544 C 144.798 -4.19324 -3.17889 0
M  V30 1545 O 143.824 -4.88598 -2.91994 0
M  V30 1546 N 145.026 -3.74471 -4.43567 0
M  V30 1547 H 147.791 -2.96439 -0.440943 0
M  V30 1548 H 145.352 -1.61631 -0.0933064 0
M  V30 1549 H 147.344 -2.75602 -2.96354 0
M  V30 1550 H 145.914 -1.76541 -2.57977 0
M  V30 1551 H 145.134 -3.7789 -1.12218 0
M  V30 1552 H 146.422 -4.72379 -1.89038 0
M  V30 1553 H 145.82 -3.18546 -4.67488 0
M  V30 1554 H 144.377 -3.98151 -5.16061 0
M  V30 1555 N 147.81 0.181792 -1.56548 0
M  V30 1556 C 149.221 0.745244 -1.71181 0
M  V30 1557 C 149.572 1.83262 -0.70068 0
M  V30 1558 O 148.697 2.15946 0.140154 0
M  V30 1559 C 149.292 1.35859 -3.10367 0
M  V30 1560 C 147.851 1.86898 -3.2672 0
M  V30 1561 C 146.998 0.743942 -2.67134 0
M  V30 1562 H 149.949 -0.0434661 -1.5864 0
M  V30 1563 H 149.97 2.22817 -3.08436 0
M  V30 1564 H 149.482 0.566948 -3.83937 0
M  V30 1565 H 147.583 2.68738 -2.5809 0
M  V30 1566 H 147.696 2.02162 -4.34359 0
M  V30 1567 H 146.06 1.16169 -2.26665 0
M  V30 1568 H 146.843 -0.035676 -3.43281 0
M  V30 1569 N 149.288 1.51039 0.449983 0
M  V30 1570 C 150.218 1.74379 1.55288 0
M  V30 1571 C 151.199 0.593236 1.5942 0
M  V30 1572 O 152.384 0.834625 1.7535 0
M  V30 1573 C 149.514 1.85728 2.93466 0
M  V30 1574 C 148.468 3.01078 3.04197 0
M  V30 1575 C 147.794 2.97595 4.44231 0
M  V30 1576 C 149.094 4.41254 2.7945 0
M  V30 1577 H 150.788 2.66725 1.36008 0
M  V30 1578 H 148.334 1.2835 0.652864 0
M  V30 1579 H 150.287 2.0064 3.70569 0
M  V30 1580 H 149.011 0.900207 3.13949 0
M  V30 1581 H 147.67 2.85851 2.29531 0
M  V30 1582 H 147.318 1.99691 4.61663 0
M  V30 1583 H 147.018 3.75046 4.52343 0
M  V30 1584 H 148.542 3.14583 5.23326 0
M  V30 1585 H 149.956 4.56897 3.46292 0
M  V30 1586 H 148.353 5.20315 2.98985 0
M  V30 1587 H 149.423 4.52164 1.75144 0
M  V30 1588 N 150.766 -0.704594 1.40972 0
M  V30 1589 C 152.177 -1.28418 1.3552 0
M  V30 1590 C 152.528 -1.96171 0.0339434 0
M  V30 1591 O 151.653 -1.98231 -0.867944 0
M  V30 1592 C 152.248 -2.33528 2.45459 0
M  V30 1593 C 150.807 -2.87085 2.43433 0
M  V30 1594 C 149.954 -1.61007 2.2577 0
M  V30 1595 H 152.905 -0.499963 1.50619 0
M  V30 1596 H 152.926 -3.14619 2.13998 0
M  V30 1597 H 152.438 -1.84187 3.41609 0
M  V30 1598 H 150.539 -3.40626 1.51013 0
M  V30 1599 H 150.652 -3.3813 3.39419 0
M  V30 1600 H 149.016 -1.86482 1.73483 0
M  V30 1601 H 149.799 -1.13675 3.23933 0
M  V30 1602 N 152.244 -1.26651 -0.937939 0
M  V30 1603 C 153.469 -1.15279 -1.72411 0
M  V30 1604 C 153.894 0.287866 -1.85884 0
M  V30 1605 O 153.252 1.20855 -1.35143 0
M  V30 1606 C 153.3 -1.83028 -3.10698 0
M  V30 1607 O 152.404 -1.12128 -3.96864 0
M  V30 1608 H 151.745 -0.401504 -0.528858 0
M  V30 1609 H 154.275 -1.67531 -1.1745 0
M  V30 1610 H 154.285 -1.89981 -3.6107 0
M  V30 1611 H 152.96 -2.87833 -3.00208 0
M  V30 1612 H 151.537 -1.13173 -3.55312 0
M  V30 1613 N 153.722 1.14298 -1.08507 0
M  V30 1614 C 154.685 2.17607 -0.719711 0
M  V30 1615 C 155.685 1.58907 0.245997 0
M  V30 1616 O 156.875 1.74181 0.0254081 0
M  V30 1617 C 154.007 3.40842 -0.0627695 0
M  V30 1618 H 155.2 2.51443 -1.63452 0
M  V30 1619 H 152.753 1.28963 -0.88307 0
M  V30 1620 H 153.488 3.12587 0.863716 0
M  V30 1621 H 153.273 3.84713 -0.757504 0
M  V30 1622 H 154.763 4.17221 0.177786 0
M  V30 1623 N 155.201 0.870884 1.31352 0
M  V30 1624 C 156.612 0.534714 1.78879 0
M  V30 1625 C 156.963 -0.948423 1.71754 0
M  V30 1626 O 156.088 -1.74055 1.28584 0
M  V30 1627 C 156.683 0.963839 3.24801 0
M  V30 1628 C 155.242 0.679311 3.70219 0
M  V30 1629 C 154.389 1.15465 2.52117 0
M  V30 1630 H 157.34 1.05651 1.18421 0
M  V30 1631 H 157.361 0.286892 3.79417 0
M  V30 1632 H 156.873 2.04332 3.29955 0
M  V30 1633 H 154.974 -0.388769 3.70566 0
M  V30 1634 H 155.087 1.25698 4.62317 0
M  V30 1635 H 153.451 0.574383 2.48139 0
M  V30 1636 H 154.234 2.24157 2.60016 0
M  V30 1637 N 156.679 -1.44442 0.630414 0
M  V30 1638 C 157.589 -2.34476 -0.0761693 0
M  V30 1639 C 158.605 -1.52576 -0.836449 0
M  V30 1640 O 159.781 -1.85307 -0.788874 0
M  V30 1641 C 156.846 -3.30545 -1.04599 0
M  V30 1642 C 155.907 -4.28352 -0.28516 0
M  V30 1643 C 155.14 -5.19831 -1.20878 0
M  V30 1644 O 155.363 -5.15223 -2.44747 0
M  V30 1645 O 154.297 -5.97892 -0.693491 0
M  V30 1646 H 158.123 -2.96345 0.664324 0
M  V30 1647 H 155.708 -1.44203 0.39061 0
M  V30 1648 H 157.59 -3.89681 -1.60396 0
M  V30 1649 H 156.265 -2.7121 -1.76711 0
M  V30 1650 H 155.172 -3.72764 0.315837 0
M  V30 1651 H 156.505 -4.90605 0.395924 0
M  V30 1652 N 158.157 -0.370918 -1.53173 0
M  V30 1653 C 159.105 0.488101 -2.27421 0
M  V30 1654 C 160.099 1.07884 -1.30604 0
M  V30 1655 O 161.305 1.02143 -1.48212 0
M  V30 1656 H 157.68 0.176134 -0.731082 0
M  V30 1657 H 159.651 -0.159815 -2.97972 0
M  V30 1658 C 158.4 1.61306 -3.08019 0
M  V30 1659 H 157.723 1.1678 -3.82364 0
M  V30 1660 H 159.163 2.18872 -3.63141 0
M  V30 1661 C 157.622 2.55848 -2.19188 0
M  V30 1662 O 158.152 3.58799 -1.80626 0
M  V30 1663 N 156.358 2.2516 -1.83715 0
M  V30 1664 H 155.905 1.41476 -2.15273 0
M  V30 1665 H 155.863 2.8867 -1.24567 0
M  V30 1666 N 159.635 1.57281 -0.100228 0
M  V30 1667 C 160.583 2.15542 0.874328 0
M  V30 1668 C 161.577 1.09962 1.28859 0
M  V30 1669 O 162.783 1.28298 1.26252 0
M  V30 1670 H 159.158 0.689567 0.300003 0
M  V30 1671 H 161.129 2.96241 0.35829 0
M  V30 1672 C 159.878 2.75454 2.1218 0
M  V30 1673 H 159.201 3.56384 1.81193 0
M  V30 1674 H 160.641 3.19781 2.78417 0
M  V30 1675 C 159.1 1.71602 2.89921 0
M  V30 1676 O 159.63 1.15804 3.84646 0
M  V30 1677 N 157.836 1.41975 2.53558 0
M  V30 1678 H 157.383 1.87539 1.76598 0
M  V30 1679 H 157.341 0.727274 3.05873 0
M  V30 1680 N 161.113 -0.173488 1.56642 0
M  V30 1681 C 162.524 -0.736155 1.71574 0
M  V30 1682 C 162.875 -1.82888 0.710389 0
M  V30 1683 O 162 -2.16017 -0.1287 0
M  V30 1684 C 162.595 -1.34211 3.11083 0
M  V30 1685 C 161.154 -1.85162 3.27707 0
M  V30 1686 C 160.301 -0.729765 2.67525 0
M  V30 1687 H 163.252 0.0518786 1.58615 0
M  V30 1688 H 163.273 -2.21178 3.09613 0
M  V30 1689 H 162.785 -0.546579 3.84232 0
M  V30 1690 H 160.886 -2.67366 2.59512 0
M  V30 1691 H 160.999 -1.99855 4.35425 0
M  V30 1692 H 159.363 -1.14965 2.27278 0
M  V30 1693 H 160.146 0.0538806 3.43258 0
M  V30 1694 N 162.591 -1.51276 -0.441967 0
M  V30 1695 C 163.501 -1.75092 -1.56141 0
M  V30 1696 C 164.517 -0.634963 -1.62001 0
M  V30 1697 O 165.693 -0.916686 -1.79329 0
M  V30 1698 C 162.758 -1.86666 -2.92158 0
M  V30 1699 C 161.819 -3.10506 -2.96453 0
M  V30 1700 C 161.052 -3.21519 -4.25982 0
M  V30 1701 O 161.275 -2.38586 -5.18105 0
M  V30 1702 O 160.209 -4.14465 -4.36466 0
M  V30 1703 H 164.035 -2.70044 -1.38961 0
M  V30 1704 H 161.62 -1.35722 -0.624499 0
M  V30 1705 H 163.502 -1.96292 -3.72891 0
M  V30 1706 H 162.177 -0.949014 -3.09476 0
M  V30 1707 H 161.084 -3.06363 -2.14692 0
M  V30 1708 H 162.417 -4.01945 -2.84079 0
M  V30 1709 N 164.069 0.697108 -1.41344 0
M  V30 1710 C 164.979 1.84088 -1.45427 0
M  V30 1711 C 165.995 1.70545 -0.34501 0
M  V30 1712 O 167.171 1.92488 -0.592492 0
M  V30 1713 C 164.236 3.20056 -1.33286 0
M  V30 1714 C 163.297 3.45718 -2.54514 0
M  V30 1715 C 162.53 4.75199 -2.42944 0
M  V30 1716 O 162.753 5.51579 -1.45318 0
M  V30 1717 O 161.687 5.0161 -3.32672 0
M  V30 1718 H 165.513 1.836 -2.41919 0
M  V30 1719 H 163.098 0.849966 -1.22866 0
M  V30 1720 H 164.98 4.01236 -1.28794 0
M  V30 1721 H 163.655 3.2123 -0.39909 0
M  V30 1722 H 162.562 2.64474 -2.64583 0
M  V30 1723 H 163.895 3.49356 -3.46715 0
M  V30 1724 N 165.547 1.27147 0.931209 0
M  V30 1725 C 166.457 1.11372 2.06478 0
M  V30 1726 C 167.473 0.044645 1.73943 0
M  V30 1727 O 168.649 0.250417 1.99837 0
M  V30 1728 C 165.714 0.758838 3.38294 0
M  V30 1729 C 164.775 1.90841 3.84549 0
M  V30 1730 C 164.008 1.57036 5.10074 0
M  V30 1731 O 164.231 0.476645 5.68405 0
M  V30 1732 O 163.165 2.40839 5.51616 0
M  V30 1733 H 166.991 2.06493 2.22698 0
M  V30 1734 H 164.576 1.06301 1.04978 0
M  V30 1735 H 166.458 0.574098 4.17471 0
M  V30 1736 H 165.133 -0.162879 3.2329 0
M  V30 1737 H 164.04 2.14819 3.06274 0
M  V30 1738 H 165.373 2.81021 4.04089 0
M  V30 1739 N 167.025 -1.13721 1.09112 0
M  V30 1740 C 167.955 -2.21148 0.749385 0
M  V30 1741 C 168.936 -1.6792 -0.271475 0
M  V30 1742 O 170.121 -1.93693 -0.140251 0
M  V30 1743 C 167.251 -3.46905 0.165659 0
M  V30 1744 C 166.205 -4.13203 1.11567 0
M  V30 1745 C 165.531 -5.33248 0.393809 0
M  V30 1746 C 166.831 -4.60912 2.45678 0
M  V30 1747 H 168.525 -2.4999 1.64758 0
M  V30 1748 H 166.071 -1.20156 0.793626 0
M  V30 1749 H 168.024 -4.21313 -0.085466 0
M  V30 1750 H 166.748 -3.17449 -0.767714 0
M  V30 1751 H 165.407 -3.40758 1.35202 0
M  V30 1752 H 165.055 -5.00054 -0.543599 0
M  V30 1753 H 164.755 -5.78552 1.02721 0
M  V30 1754 H 166.279 -6.10413 0.150908 0
M  V30 1755 H 167.693 -5.26759 2.26269 0
M  V30 1756 H 166.09 -5.16944 3.04776 0
M  V30 1757 H 167.16 -3.75603 3.06677 0
M  V30 1758 N 168.503 -0.877838 -1.30888 0
M  V30 1759 C 169.466 -0.344265 -2.266 0
M  V30 1760 C 170.466 0.50922 -1.52524 0
M  V30 1761 O 171.656 0.317398 -1.71284 0
M  V30 1762 C 168.788 0.510198 -3.37061 0
M  V30 1763 H 169.981 -1.1893 -2.7531 0
M  V30 1764 H 167.534 -0.654088 -1.41956 0
M  V30 1765 H 168.269 1.37612 -2.93655 0
M  V30 1766 H 168.054 -0.101047 -3.9197 0
M  V30 1767 H 169.544 0.875537 -4.08319 0
M  V30 1768 N 169.982 1.44106 -0.638065 0
M  V30 1769 C 171.207 2.0685 -0.150916 0
M  V30 1770 C 171.632 1.47417 1.16833 0
M  V30 1771 O 170.99 0.578264 1.71831 0
M  V30 1772 C 171.038 3.60555 -0.05708 0
M  V30 1773 O 170.142 4.00465 0.984972 0
M  V30 1774 H 169.483 0.658151 -0.0879399 0
M  V30 1775 H 172.013 1.84865 -0.876707 0
M  V30 1776 H 172.023 4.07789 0.131232 0
M  V30 1777 H 170.698 4.03193 -1.02021 0
M  V30 1778 H 169.275 3.64849 0.770672 0
M  V30 1779 N 171.46 0.379036 1.52974 0
M  V30 1780 C 172.407 -0.461048 2.26148 0
M  V30 1781 C 173.377 -1.06637 1.27349 0
M  V30 1782 O 174.562 -1.09633 1.56157 0
M  V30 1783 C 171.702 -1.58782 3.06402 0
M  V30 1784 C 170.815 -1.00636 4.20115 0
M  V30 1785 C 169.95 -2.10334 4.87784 0
M  V30 1786 C 168.989 -1.49724 5.93506 0
M  V30 1787 N 168.126 -2.5331 6.54812 0
M  V30 1788 H 172.966 0.169429 2.97518 0
M  V30 1789 H 170.503 0.0953806 1.4679 0
M  V30 1790 H 172.461 -2.25174 3.51215 0
M  V30 1791 H 171.091 -2.18876 2.37261 0
M  V30 1792 H 170.143 -0.232332 3.7969 0
M  V30 1793 H 171.455 -0.523343 4.96047 0
M  V30 1794 H 170.609 -2.84519 5.35849 0
M  V30 1795 H 169.348 -2.61992 4.11353 0
M  V30 1796 H 168.353 -0.740598 5.44789 0
M  V30 1797 H 169.578 -0.988732 6.71864 0
M  V30 1798 H 167.524 -3.04156 5.81227 0
M  V30 1799 H 167.441 -2.09734 7.26325 0
M  V30 1800 H 168.709 -3.27155 7.07524 0
M  V30 1801 N 172.938 -1.57226 0.108567 0
M  V30 1802 C 173.87 -2.11809 -0.875752 0
M  V30 1803 C 174.883 -1.05839 -1.23701 0
M  V30 1804 O 176.072 -1.33245 -1.18778 0
M  V30 1805 C 173.172 -2.59411 -2.18081 0
M  V30 1806 C 172.345 -3.89364 -1.99284 0
M  V30 1807 C 171.404 -4.22672 -3.13424 0
M  V30 1808 O 170.43 -4.91668 -2.86795 0
M  V30 1809 N 171.632 -3.79154 -4.3957 0
M  V30 1810 H 174.397 -2.9689 -0.409477 0
M  V30 1811 H 171.958 -1.61721 -0.076158 0
M  V30 1812 H 173.95 -2.7873 -2.93414 0
M  V30 1813 H 172.52 -1.79268 -2.5609 0
M  V30 1814 H 171.74 -3.79059 -1.08203 0
M  V30 1815 H 173.028 -4.74358 -1.84017 0
M  V30 1816 H 172.426 -3.23486 -4.64083 0
M  V30 1817 H 170.983 -4.03602 -5.11809 0
M  V30 1818 N 174.416 0.165178 -1.56732 0
M  V30 1819 C 175.363 1.2044 -1.96883 0
M  V30 1820 C 176.333 1.43664 -0.833657 0
M  V30 1821 O 177.518 1.56302 -1.09427 0
M  V30 1822 C 174.658 2.53727 -2.33916 0
M  V30 1823 C 173.771 2.3783 -3.6064 0
M  V30 1824 C 172.906 3.64026 -3.86857 0
M  V30 1825 C 171.945 3.43088 -5.06909 0
M  V30 1826 N 171.082 4.61369 -5.29229 0
M  V30 1827 H 175.922 0.854996 -2.85471 0
M  V30 1828 H 173.459 0.41076 -1.41249 0
M  V30 1829 H 175.417 3.31419 -2.53411 0
M  V30 1830 H 174.047 2.8665 -1.48431 0
M  V30 1831 H 173.099 1.51282 -3.49024 0
M  V30 1832 H 174.411 2.18308 -4.4849 0
M  V30 1833 H 173.565 4.50152 -4.06753 0
M  V30 1834 H 172.304 3.86533 -2.97394 0
M  V30 1835 H 171.309 2.55349 -4.86906 0
M  V30 1836 H 172.534 3.21997 -5.97909 0
M  V30 1837 H 170.48 4.84084 -4.42718 0
M  V30 1838 H 170.397 4.44783 -6.11313 0
M  V30 1839 H 171.665 5.48761 -5.53608 0
M  V30 1840 N 175.894 1.51508 0.433938 0
M  V30 1841 C 176.842 1.73646 1.54757 0
M  V30 1842 C 177.836 0.602854 1.5831 0
M  V30 1843 O 179.042 0.784318 1.62014 0
M  V30 1844 H 175.417 0.548718 0.51421 0
M  V30 1845 H 177.388 2.66991 1.33261 0
M  V30 1846 C 176.137 1.88172 2.92381 0
M  V30 1847 H 175.46 2.74808 2.90381 0
M  V30 1848 H 176.9 2.07672 3.6966 0
M  V30 1849 C 175.359 0.64239 3.30719 0
M  V30 1850 O 175.889 -0.201362 4.01195 0
M  V30 1851 N 174.095 0.485489 2.86516 0
M  V30 1852 H 173.642 1.17318 2.29334 0
M  V30 1853 H 173.6 -0.342482 3.12529 0
M  V30 1854 N 177.372 -0.689602 1.41712 0
M  V30 1855 C 178.282 -1.83314 1.46401 0
M  V30 1856 C 179.298 -1.7036 0.35405 0
M  V30 1857 O 180.474 -1.92171 0.602692 0
M  V30 1858 C 177.539 -3.19344 1.34982 0
M  V30 1859 C 176.6 -3.44363 2.56344 0
M  V30 1860 C 175.833 -4.73904 2.45461 0
M  V30 1861 O 176.056 -5.508 1.48241 0
M  V30 1862 O 174.99 -4.99839 3.35328 0
M  V30 1863 H 178.816 -1.82314 2.42889 0
M  V30 1864 H 176.401 -0.843438 1.23315 0
M  V30 1865 H 178.283 -4.00547 1.3092 0
M  V30 1866 H 176.958 -3.21014 0.41612 0
M  V30 1867 H 175.865 -2.63067 2.65982 0
M  V30 1868 H 177.198 -3.47512 3.48563 0
M  V30 1869 N 178.85 -1.27639 -0.924453 0
M  V30 1870 C 179.76 -1.12466 -2.05885 0
M  V30 1871 C 180.776 -0.053869 -1.73917 0
M  V30 1872 O 181.952 -0.261012 -1.99702 0
M  V30 1873 C 179.017 -0.776768 -3.37886 0
M  V30 1874 C 178.078 -1.92878 -3.83532 0
M  V30 1875 C 177.311 -1.59739 -5.09234 0
M  V30 1876 O 177.534 -0.506782 -5.68144 0
M  V30 1877 O 176.468 -2.43761 -5.50331 0
M  V30 1878 H 180.294 -2.07671 -2.21599 0
M  V30 1879 H 177.879 -1.06857 -1.04413 0
M  V30 1880 H 179.761 -0.596229 -4.17161 0
M  V30 1881 H 178.436 0.145732 -3.23372 0
M  V30 1882 H 177.343 -2.1644 -3.0513 0
M  V30 1883 H 178.676 -2.8316 -4.02593 0
M  V30 1884 N 180.328 1.1314 -1.09713 0
M  V30 1885 C 181.553 1.88862 -0.857081 0
M  V30 1886 C 181.978 1.78729 0.586304 0
M  V30 1887 O 181.336 1.13692 1.41222 0
M  V30 1888 C 181.384 3.36325 -1.30069 0
M  V30 1889 O 180.488 4.09815 -0.461007 0
M  V30 1890 H 179.829 0.587108 -0.310162 0
M  V30 1891 H 182.359 1.43129 -1.46203 0
M  V30 1892 H 182.369 3.87157 -1.28738 0
M  V30 1893 H 181.044 3.43017 -2.35185 0
M  V30 1894 H 179.621 3.68986 -0.538888 0
M  V30 1895 N 181.806 0.884767 1.30421 0
M  V30 1896 C 182.753 0.349642 2.28136 0
M  V30 1897 C 183.723 -0.560061 1.56373 0
M  V30 1898 O 184.908 -0.488524 1.8444 0
M  V30 1899 C 182.048 -0.42999 3.42411 0
M  V30 1900 C 181.161 0.508907 4.28992 0
M  V30 1901 C 180.296 -0.286301 5.30428 0
M  V30 1902 C 179.335 0.648079 6.08659 0
M  V30 1903 N 178.472 -0.111792 7.02011 0
M  V30 1904 H 183.312 1.18807 2.73293 0
M  V30 1905 H 180.849 0.597231 1.3443 0
M  V30 1906 H 182.807 -0.897923 4.07423 0
M  V30 1907 H 181.437 -1.23299 2.98324 0
M  V30 1908 H 180.489 1.09533 3.64289 0
M  V30 1909 H 181.801 1.22475 4.8353 0
M  V30 1910 H 180.955 -0.816098 6.01186 0
M  V30 1911 H 179.694 -1.03536 4.76583 0
M  V30 1912 H 178.699 1.18951 5.36778 0
M  V30 1913 H 179.924 1.39623 6.64592 0
M  V30 1914 H 177.87 -0.843395 6.50556 0
M  V30 1915 H 177.787 0.544429 7.54037 0
M  V30 1916 H 179.055 -0.622339 7.77012 0
M  V30 1917 N 183.284 -1.43765 0.645699 0
M  V30 1918 C 184.231 -2.30745 -0.0504648 0
M  V30 1919 C 185.201 -1.4432 -0.822241 0
M  V30 1920 O 186.386 -1.73202 -0.800358 0
M  V30 1921 C 183.526 -3.29802 -1.0161 0
M  V30 1922 C 182.639 -4.31326 -0.241219 0
M  V30 1923 C 181.774 -5.17469 -1.19998 0
M  V30 1924 C 180.813 -6.10691 -0.415094 0
M  V30 1925 N 179.95 -6.89483 -1.32506 0
M  V30 1926 H 184.79 -2.8973 0.697155 0
M  V30 1927 H 182.327 -1.42738 0.355563 0
M  V30 1928 H 184.285 -3.85734 -1.58949 0
M  V30 1929 H 182.915 -2.72483 -1.73069 0
M  V30 1930 H 181.967 -3.77749 0.448334 0
M  V30 1931 H 183.279 -4.9743 0.369437 0
M  V30 1932 H 182.433 -5.7799 -1.84424 0
M  V30 1933 H 181.172 -4.51473 -1.84455 0
M  V30 1934 H 180.177 -5.49265 0.242565 0
M  V30 1935 H 181.402 -6.78727 0.224966 0
M  V30 1936 H 179.348 -6.26142 -1.95657 0
M  V30 1937 H 179.265 -7.52081 -0.768783 0
M  V30 1938 H 180.533 -7.54516 -1.9577 0
M  V30 1939 N 184.763 -0.387143 -1.52771 0
M  V30 1940 C 186.179 -0.037007 -1.59557 0
M  V30 1941 C 186.379 1.44801 -1.40124 0
M  V30 1942 O 185.435 2.21227 -1.21716 0
M  V30 1943 C 186.748 -0.512256 -2.96305 0
M  V30 1944 C 188.296 -0.468328 -3.09476 0
M  V30 1945 C 188.771 -0.919731 -4.4867 0
M  V30 1946 N 190.262 -0.875656 -4.54848 0
M  V30 1947 C 190.997 -1.19637 -5.6078 0
M  V30 1948 N 190.493 -1.58745 -6.74368 0
M  V30 1949 N 192.286 -1.11776 -5.50874 0
M  V30 1950 H 184.437 -1.35395 -1.63652 0
M  V30 1951 H 186.7 -0.554818 -0.768688 0
M  V30 1952 H 186.406 -1.54935 -3.15734 0
M  V30 1953 H 186.28 0.089805 -3.77093 0
M  V30 1954 H 188.667 0.559671 -2.89744 0
M  V30 1955 H 188.748 -1.10616 -2.30646 0
M  V30 1956 H 188.392 -1.94595 -4.69143 0
M  V30 1957 H 188.322 -0.258927 -5.25963 0
M  V30 1958 H 190.813 -0.587843 -3.733 0
M  V30 1959 H 191.126 -1.81586 -7.51163 0
M  V30 1960 H 189.471 -1.6263 -6.75705 0
M  V30 1961 H 192.662 -0.811264 -4.61016 0
M  V30 1962 H 192.835 -1.37103 -6.3333 0
M  V30 1963 N 186.241 1.57166 -0.116904 0
M  V30 1964 C 187.173 2.12271 0.864507 0
M  V30 1965 C 188.186 1.06494 1.23138 0
M  V30 1966 O 189.375 1.33873 1.18069 0
M  V30 1967 C 186.475 2.60564 2.16702 0
M  V30 1968 C 185.648 3.90416 1.97216 0
M  V30 1969 C 184.707 4.24329 3.11178 0
M  V30 1970 O 183.733 4.93182 2.84184 0
M  V30 1971 N 184.935 3.8148 4.37554 0
M  V30 1972 H 187.7 2.97102 0.393726 0
M  V30 1973 H 185.261 1.61759 0.0675805 0
M  V30 1974 H 187.253 2.80282 2.91932 0
M  V30 1975 H 185.823 1.80623 2.55135 0
M  V30 1976 H 185.043 3.79627 1.06192 0
M  V30 1977 H 186.331 4.75327 1.81499 0
M  V30 1978 H 185.729 3.25943 4.62361 0
M  V30 1979 H 184.286 4.06311 5.09661 0
M  V30 1980 N 187.719 -0.156864 1.56817 0
M  V30 1981 C 188.965 -0.867645 1.83966 0
M  V30 1982 C 189.32 -1.79233 0.699511 0
M  V30 1983 O 188.613 -1.89186 -0.303176 0
M  V30 1984 C 188.807 -1.68737 3.1506 0
M  V30 1985 C 188.636 -0.843548 4.41718 0
M  V30 1986 C 187.406 -0.512994 5.02689 0
M  V30 1987 C 189.604 -0.178416 5.1399 0
M  V30 1988 N 187.586 0.345456 6.12927 0
M  V30 1989 C 188.957 0.540586 6.17639 0
M  V30 1990 C 191.012 -0.0980696 4.97803 0
M  V30 1991 C 189.715 1.33233 7.06853 0
M  V30 1992 C 191.741 0.680387 5.87473 0
M  V30 1993 C 191.103 1.3877 6.90596 0
M  V30 1994 H 187.202 -0.295642 0.723961 0
M  V30 1995 H 189.786 -0.13365 1.94241 0
M  V30 1996 H 187.957 -2.39268 3.0595 0
M  V30 1997 H 189.689 -2.34056 3.30151 0
M  V30 1998 H 186.444 -0.846476 4.65974 0
M  V30 1999 H 186.868 0.765415 6.72659 0
M  V30 2000 H 191.51 -0.630562 4.18071 0
M  V30 2001 H 189.228 1.87612 7.8602 0
M  V30 2002 H 192.814 0.744415 5.77018 0
M  V30 2003 H 191.694 1.9804 7.58782 0
M  V30 2004 N 189.197 -1.51736 -0.425897 0
M  V30 2005 C 190.16 -1.73271 -1.50032 0
M  V30 2006 C 191.16 -0.602639 -1.4908 0
M  V30 2007 O 192.35 -0.87033 -1.509 0
M  V30 2008 C 189.482 -1.79969 -2.89523 0
M  V30 2009 H 190.675 -2.69172 -1.32237 0
M  V30 2010 H 188.228 -1.41899 -0.65532 0
M  V30 2011 H 188.963 -0.859241 -3.1271 0
M  V30 2012 H 188.748 -2.62109 -2.91619 0
M  V30 2013 H 190.238 -1.9843 -3.67444 0
M  V30 2014 N 190.675 0.682077 -1.42076 0
M  V30 2015 C 191.605 1.80796 -1.47767 0
M  V30 2016 C 192.586 1.6677 -0.334954 0
M  V30 2017 O 193.771 1.863 -0.548264 0
M  V30 2018 C 190.901 3.19038 -1.37229 0
M  V30 2019 C 189.855 3.47789 -2.49453 0
M  V30 2020 C 189.181 4.8553 -2.23975 0
M  V30 2021 C 190.481 3.45411 -3.91776 0
M  V30 2022 H 192.175 1.7629 -2.41997 0
M  V30 2023 H 189.721 0.846721 -1.16476 0
M  V30 2024 H 191.674 3.97528 -1.39821 0
M  V30 2025 H 190.398 3.24204 -0.394907 0
M  V30 2026 H 189.057 2.71657 -2.46166 0
M  V30 2027 H 188.705 4.87337 -1.24547 0
M  V30 2028 H 188.405 5.0573 -2.99184 0
M  V30 2029 H 189.929 5.66312 -2.28304 0
M  V30 2030 H 191.343 4.13882 -3.96705 0
M  V30 2031 H 189.74 3.77145 -4.66778 0
M  V30 2032 H 190.81 2.44122 -4.18966 0
M  V30 2033 N 192.153 1.28127 0.917671 0
M  V30 2034 C 193.063 1.13556 2.05286 0
M  V30 2035 C 194.079 0.0630914 1.73886 0
M  V30 2036 O 195.255 0.271598 1.9956 0
M  V30 2037 C 192.32 0.794676 3.3747 0
M  V30 2038 C 191.381 1.94909 3.82504 0
M  V30 2039 C 190.614 1.62437 5.0838 0
M  V30 2040 O 190.837 0.536905 5.67867 0
M  V30 2041 O 189.771 2.46677 5.4903 0
M  V30 2042 H 193.597 2.08844 2.20495 0
M  V30 2043 H 191.182 1.07409 1.03845 0
M  V30 2044 H 193.064 0.618344 4.16839 0
M  V30 2045 H 191.739 -0.128581 3.23445 0
M  V30 2046 H 190.646 2.18055 3.03978 0
M  V30 2047 H 191.979 2.85291 4.01086 0
M  V30 2048 N 193.631 -1.12557 1.10312 0
M  V30 2049 C 194.908 -1.80363 0.756878 0
M  V30 2050 C 195.288 -1.97067 -0.756824 0
M  V30 2051 O 194.636 -1.54601 -1.68259 0
M  V30 2052 C 194.846 -3.14812 1.50647 0
M  V30 2053 C 196.194 -3.90029 1.67817 0
M  V30 2054 O 197.218 -3.24464 1.46974 0
M  V30 2055 O 196.077 -5.07652 2.02365 0
M  V30 2056 H 193.171 -0.780667 0.272926 0
M  V30 2057 H 195.717 -1.19404 1.20586 0
M  V30 2058 H 194.489 -2.97936 2.53672 0
M  V30 2059 H 194.112 -3.83478 1.05026 0
M  V30 2060 N 195.109 -0.891671 -1.2995 0
M  V30 2061 C 196.356 -0.513501 -1.95881 0
M  V30 2062 C 196.684 0.938655 -1.70351 0
M  V30 2063 O 195.939 1.67936 -1.00478 0
M  V30 2064 C 196.238 -0.742868 -3.49594 0
M  V30 2065 C 195.904 -2.17114 -3.95186 0
M  V30 2066 C 194.566 -2.56169 -4.07346 0
M  V30 2067 C 196.918 -3.10162 -4.18866 0
M  V30 2068 C 194.246 -3.87469 -4.4055 0
M  V30 2069 C 196.598 -4.41001 -4.53542 0
M  V30 2070 C 195.262 -4.79941 -4.63911 0
M  V30 2071 H 194.532 -0.187903 -0.71678 0
M  V30 2072 H 197.179 -1.1288 -1.54694 0
M  V30 2073 H 195.484 -0.044586 -3.91775 0
M  V30 2074 H 197.181 -0.429767 -3.9869 0
M  V30 2075 H 193.771 -1.85801 -3.86233 0
M  V30 2076 H 197.955 -2.81206 -4.08946 0
M  V30 2077 H 193.211 -4.17371 -4.46779 0
M  V30 2078 H 197.385 -5.13133 -4.70815 0
M  V30 2079 H 195.012 -5.81719 -4.89395 0
M  V30 2080 N 196.587 1.43421 -0.653314 0
M  V30 2081 C 197.497 2.34568 0.0388565 0
M  V30 2082 C 198.513 1.53888 0.81207 0
M  V30 2083 O 199.689 1.86539 0.759294 0
M  V30 2084 C 196.754 3.32167 0.993269 0
M  V30 2085 C 195.815 4.28751 0.216977 0
M  V30 2086 C 195.048 5.21688 1.12593 0
M  V30 2087 O 195.271 5.19052 2.36519 0
M  V30 2088 O 194.205 5.98919 0.598284 0
M  V30 2089 H 198.031 2.95251 -0.711386 0
M  V30 2090 H 195.616 1.43564 -0.413502 0
M  V30 2091 H 197.498 3.92183 1.54176 0
M  V30 2092 H 196.173 2.73987 1.72374 0
M  V30 2093 H 195.08 3.72215 -0.375101 0
M  V30 2094 H 196.413 4.89913 -0.473924 0
M  V30 2095 N 198.065 0.39524 1.52563 0
M  V30 2096 C 199.314 -0.186321 2.00838 0
M  V30 2097 C 199.627 -1.47402 1.28577 0
M  V30 2098 O 200.833 -2.13599 1.67593 0
M  V30 2099 C 199.289 -0.382595 3.57861 0
M  V30 2100 C 198.897 0.892202 4.39026 0
M  V30 2101 C 200.641 -0.9202 4.14406 0
M  V30 2102 C 198.548 0.66388 5.87662 0
M  V30 2103 H 197.478 -0.0734041 0.750418 0
M  V30 2104 H 200.129 0.518552 1.76021 0
M  V30 2105 H 198.511 -1.14946 3.7895 0
M  V30 2106 H 199.685 1.66414 4.29701 0
M  V30 2107 H 198 1.35519 3.9373 0
M  V30 2108 H 200.597 -1.10683 5.23119 0
M  V30 2109 H 200.94 -1.89096 3.70875 0
M  V30 2110 H 201.473 -0.212751 3.97231 0
M  V30 2111 H 198.212 1.6058 6.35527 0
M  V30 2112 H 197.732 -0.0690193 5.9976 0
M  V30 2113 H 199.411 0.300699 6.46301 0
M  V30 2114 N 199.544 -1.57102 0.125237 0
M  V30 2115 C 200.792 -1.95021 -0.530198 0
M  V30 2116 C 201.113 -1.00982 -1.66816 0
M  V30 2117 O 200.383 -0.0672693 -1.95784 0
M  V30 2118 H 198.963 -0.720046 -0.198853 0
M  V30 2119 H 201.625 -1.93916 0.19564 0
M  V30 2120 H 200.721 -2.98211 -0.920681 0
M  V30 2121 N 201.022 0.148545 -1.56898 0
M  V30 2122 C 202.438 0.501131 -1.51528 0
M  V30 2123 C 202.638 1.83458 -0.833399 0
M  V30 2124 O 201.694 2.49259 -0.40328 0
M  V30 2125 C 203.007 0.512864 -2.96294 0
M  V30 2126 C 204.555 0.598487 -3.07225 0
M  V30 2127 C 205.03 0.640897 -4.53494 0
M  V30 2128 N 206.521 0.703163 -4.57832 0
M  V30 2129 C 207.256 0.756935 -5.68382 0
M  V30 2130 N 206.752 0.770147 -6.88506 0
M  V30 2131 N 208.545 0.797698 -5.56411 0
M  V30 2132 H 200.696 -0.725532 -1.99624 0
M  V30 2133 H 202.959 -0.264358 -0.910395 0
M  V30 2134 H 202.665 -0.398691 -3.49433 0
M  V30 2135 H 202.539 1.35133 -3.52163 0
M  V30 2136 H 204.926 1.50046 -2.54106 0
M  V30 2137 H 205.007 -0.267093 -2.54402 0
M  V30 2138 H 204.651 -0.256915 -5.0725 0
M  V30 2139 H 204.581 1.52295 -5.04097 0
M  V30 2140 H 207.072 0.700314 -3.71354 0
M  V30 2141 H 207.385 0.812983 -7.68512 0
M  V30 2142 H 205.73 0.738049 -6.9107 0
M  V30 2143 H 208.921 0.784535 -4.61479 0
M  V30 2144 H 209.094 0.83614 -6.42583 0
M  V30 2145 N 202.5 1.5196 0.417844 0
M  V30 2146 C 203.911 1.57851 0.997 0
M  V30 2147 C 204.262 0.413714 1.91789 0
M  V30 2148 O 203.387 -0.467057 2.113 0
M  V30 2149 C 203.982 2.86085 1.81496 0
M  V30 2150 C 202.541 2.94483 2.34428 0
M  V30 2151 C 201.688 2.52707 1.14169 0
M  V30 2152 H 204.639 1.57455 0.198392 0
M  V30 2153 H 204.66 2.70947 2.67148 0
M  V30 2154 H 204.172 3.70842 1.14446 0
M  V30 2155 H 202.273 2.142 3.04875 0
M  V30 2156 H 202.386 3.98546 2.65891 0
M  V30 2157 H 200.75 2.06353 1.49301 0
M  V30 2158 H 201.533 3.39828 0.486999 0
M  V30 2159 N 203.978 -0.674533 1.42435 0
M  V30 2160 C 204.908 -1.80009 1.48724 0
M  V30 2161 C 205.889 -1.6659 0.343793 0
M  V30 2162 O 207.074 -1.86007 0.558137 0
M  V30 2163 C 204.204 -3.18306 1.38919 0
M  V30 2164 C 203.158 -3.46461 2.51294 0
M  V30 2165 C 202.484 -4.84335 2.26547 0
M  V30 2166 C 203.784 -3.43328 3.93603 0
M  V30 2167 H 205.478 -1.75004 2.42928 0
M  V30 2168 H 203.024 -0.840533 1.16923 0
M  V30 2169 H 204.977 -3.9678 1.41927 0
M  V30 2170 H 203.701 -3.2399 0.412094 0
M  V30 2171 H 202.36 -2.70348 2.47604 0
M  V30 2172 H 202.008 -4.86669 1.2713 0
M  V30 2173 H 201.708 -5.04136 3.01861 0
M  V30 2174 H 203.232 -5.65094 2.31304 0
M  V30 2175 H 204.646 -4.11772 3.98894 0
M  V30 2176 H 203.043 -3.74664 4.68771 0
M  V30 2177 H 204.113 -2.41897 4.20255 0
M  V30 2178 N 205.456 -1.28612 -0.910864 0
M  V30 2179 C 206.704 -1.15705 -1.65701 0
M  V30 2180 C 207.025 0.29416 -1.92769 0
M  V30 2181 O 206.295 1.20331 -1.54588 0
M  V30 2182 H 204.875 -0.425216 -0.614167 0
M  V30 2183 H 207.537 -1.61381 -1.0928 0
M  V30 2184 H 206.633 -1.6988 -2.61815 0
M  V30 2185 N 206.934 1.1197 -1.10907 0
M  V30 2186 C 207.881 2.17846 -0.762345 0
M  V30 2187 C 208.851 1.63995 0.263599 0
M  V30 2188 O 210.036 1.90273 0.141773 0
M  V30 2189 C 207.176 3.44487 -0.205651 0
M  V30 2190 C 206.289 4.12369 -1.28748 0
M  V30 2191 C 205.424 5.26674 -0.691919 0
M  V30 2192 C 204.463 5.86431 -1.75399 0
M  V30 2193 N 203.6 6.92142 -1.17833 0
M  V30 2194 H 208.44 2.46851 -1.6694 0
M  V30 2195 H 205.977 1.21188 -0.833776 0
M  V30 2196 H 207.935 4.16981 0.135037 0
M  V30 2197 H 206.565 3.15884 0.664613 0
M  V30 2198 H 205.617 3.38003 -1.74522 0
M  V30 2199 H 206.929 4.52844 -2.09125 0
M  V30 2200 H 206.083 6.05953 -0.300963 0
M  V30 2201 H 204.822 4.8749 0.143232 0
M  V30 2202 H 203.827 5.05835 -2.15432 0
M  V30 2203 H 205.052 6.27685 -2.59208 0
M  V30 2204 H 202.998 6.54985 -0.364725 0
M  V30 2205 H 202.915 7.31242 -1.91887 0
M  V30 2206 H 204.183 7.75237 -0.81408 0
M  V30 2207 N 208.412 0.89855 1.29475 0
M  V30 2208 C 209.66 0.522847 1.9522 0
M  V30 2209 C 209.981 -0.93371 1.71192 0
M  V30 2210 O 209.251 -1.65823 1.04305 0
M  V30 2211 H 207.831 0.190366 0.722336 0
M  V30 2212 H 210.493 1.14459 1.5775 0
M  V30 2213 H 209.589 0.704476 3.04045 0
M  V30 2214 N 209.89 -1.43072 0.660911 0
M  V30 2215 C 210.837 -2.30785 -0.0259884 0
M  V30 2216 C 211.807 -1.45184 -0.806888 0
M  V30 2217 O 212.992 -1.74041 -0.781943 0
M  V30 2218 C 210.132 -3.30861 -0.981067 0
M  V30 2219 C 209.245 -4.31558 -0.195458 0
M  V30 2220 C 208.38 -5.18712 -1.14503 0
M  V30 2221 C 207.419 -6.11097 -0.350299 0
M  V30 2222 N 206.556 -6.90849 -1.25186 0
M  V30 2223 H 211.396 -2.88975 0.727846 0
M  V30 2224 H 208.933 -1.42353 0.370682 0
M  V30 2225 H 210.891 -3.87399 -1.54849 0
M  V30 2226 H 209.521 -2.74304 -1.70169 0
M  V30 2227 H 208.573 -3.77252 0.488374 0
M  V30 2228 H 209.885 -4.9701 0.422176 0
M  V30 2229 H 209.039 -5.79914 -1.78284 0
M  V30 2230 H 207.778 -4.53404 -1.79656 0
M  V30 2231 H 206.783 -5.48976 0.300808 0
M  V30 2232 H 208.008 -6.7845 0.296941 0
M  V30 2233 H 205.954 -6.28182 -1.89005 0
M  V30 2234 H 205.871 -7.52854 -0.688971 0
M  V30 2235 H 207.139 -7.5655 -1.87757 0
M  V30 2236 N 211.368 -0.403325 -1.52352 0
M  V30 2237 C 212.615 0.174347 -2.01748 0
M  V30 2238 C 212.943 1.45636 -1.2892 0
M  V30 2239 O 212.198 1.9193 -0.382258 0
M  V30 2240 C 212.497 0.474665 -3.54234 0
M  V30 2241 C 212.163 -0.717458 -4.45155 0
M  V30 2242 C 210.825 -1.04447 -4.69728 0
M  V30 2243 C 213.177 -1.51432 -4.98716 0
M  V30 2244 C 210.505 -2.16963 -5.45109 0
M  V30 2245 C 212.857 -2.6302 -5.75329 0
M  V30 2246 C 211.521 -2.96213 -5.98175 0
M  V30 2247 H 210.791 0.0637981 -0.738248 0
M  V30 2248 H 213.438 -0.543553 -1.83624 0
M  V30 2249 H 211.743 1.27406 -3.70506 0
M  V30 2250 H 213.44 0.934496 -3.89959 0
M  V30 2251 H 210.03 -0.452596 -4.26204 0
M  V30 2252 H 214.214 -1.27491 -4.79645 0
M  V30 2253 H 209.47 -2.43034 -5.61021 0
M  V30 2254 H 213.644 -3.25158 -6.15829 0
M  V30 2255 H 211.271 -3.83516 -6.56368 0
M  V30 2256 N 212.846 1.57033 -0.133567 0
M  V30 2257 C 214.094 1.953 0.519848 0
M  V30 2258 C 214.415 1.01866 1.66278 0
M  V30 2259 O 213.685 0.0776513 1.95746 0
M  V30 2260 H 212.265 0.721091 0.195032 0
M  V30 2261 H 214.927 1.93809 -0.205921 0
M  V30 2262 H 214.023 2.98695 0.904854 0
M  V30 2263 N 214.325 -0.140222 1.56975 0
M  V30 2264 C 215.273 -1.19207 1.99731 0
M  V30 2265 C 216.267 -1.44089 0.890777 0
M  V30 2266 O 217.473 -1.44301 1.07597 0
M  V30 2267 H 213.848 -0.40142 0.635898 0
M  V30 2268 H 215.819 -0.804813 2.87342 0
M  V30 2269 C 214.568 -2.51617 2.39967 0
M  V30 2270 H 213.891 -2.33303 3.24669 0
M  V30 2271 H 215.331 -3.23827 2.73701 0
M  V30 2272 C 213.79 -3.12654 1.25496 0
M  V30 2273 O 214.32 -3.97786 0.559371 0
M  V30 2274 N 212.526 -2.72206 1.01746 0
M  V30 2275 H 212.073 -2.03074 1.58489 0
M  V30 2276 H 212.031 -3.13377 0.253461 0
M  V30 2277 N 215.803 -1.52179 -0.40978 0
M  V30 2278 C 217.049 -1.66453 -1.15851 0
M  V30 2279 C 217.382 -0.392972 -1.90182 0
M  V30 2280 O 216.657 0.608579 -1.84734 0
M  V30 2281 C 216.94 -2.88612 -2.15349 0
M  V30 2282 C 216.793 -4.25815 -1.44918 0
M  V30 2283 C 218.112 -3.06294 -3.16026 0
M  V30 2284 H 215.231 -0.60575 -0.419805 0
M  V30 2285 H 217.873 -1.84732 -0.444314 0
M  V30 2286 H 216.023 -2.73158 -2.76255 0
M  V30 2287 H 217.695 -4.52995 -0.871365 0
M  V30 2288 H 215.938 -4.27247 -0.751159 0
M  V30 2289 H 216.609 -5.07337 -2.17516 0
M  V30 2290 H 219.085 -3.20641 -2.65195 0
M  V30 2291 H 217.961 -3.93283 -3.8291 0
M  V30 2292 H 218.222 -2.19579 -3.83715 0
M  V30 2293 N 217.281 0.66697 -1.42791 0
M  V30 2294 C 218.511 1.45294 -1.46878 0
M  V30 2295 C 218.919 1.89027 -0.0809861 0
M  V30 2296 O 218.262 1.59219 0.916246 0
M  V30 2297 C 218.324 2.72908 -2.34012 0
M  V30 2298 C 217.988 2.51203 -3.81767 0
M  V30 2299 C 218.985 2.15302 -4.73224 0
M  V30 2300 C 216.67 2.65954 -4.26115 0
M  V30 2301 C 218.664 1.94431 -6.07022 0
M  V30 2302 C 216.351 2.44699 -5.59969 0
M  V30 2303 C 217.349 2.08992 -6.5024 0
M  V30 2304 O 217.037 1.87948 -7.81621 0
M  V30 2305 H 216.769 0.453306 -0.501487 0
M  V30 2306 H 219.323 0.826232 -1.88049 0
M  V30 2307 H 217.553 3.38089 -1.87703 0
M  V30 2308 H 219.242 3.34816 -2.29462 0
M  V30 2309 H 220.008 2.03495 -4.40244 0
M  V30 2310 H 215.887 2.92724 -3.56137 0
M  V30 2311 H 219.431 1.66484 -6.77443 0
M  V30 2312 H 215.328 2.56105 -5.9252 0
M  V30 2313 H 216.096 2.02483 -7.93059 0
M  V30 2314 N 218.759 1.29093 0.90403 0
M  V30 2315 C 219.689 1.16401 2.02418 0
M  V30 2316 C 220.67 0.0593085 1.69997 0
M  V30 2317 O 221.855 0.238021 1.92736 0
M  V30 2318 C 218.985 0.835233 3.37107 0
M  V30 2319 C 217.939 1.89578 3.83724 0
M  V30 2320 C 217.265 1.42041 5.15489 0
M  V30 2321 C 218.565 3.30394 4.04521 0
M  V30 2322 H 220.259 2.10109 2.13295 0
M  V30 2323 H 217.805 1.01157 1.02486 0
M  V30 2324 H 219.758 0.733169 4.14973 0
M  V30 2325 H 218.482 -0.137543 3.2631 0
M  V30 2326 H 217.141 1.98715 3.08071 0
M  V30 2327 H 216.789 0.436426 5.01103 0
M  V30 2328 H 216.489 2.12964 5.4765 0
M  V30 2329 H 218.013 1.33176 5.959 0
M  V30 2330 H 219.427 3.24123 4.72882 0
M  V30 2331 H 217.824 3.99237 4.48029 0
M  V30 2332 H 218.894 3.73692 3.09002 0
M  V30 2333 N 220.237 -1.11381 1.11499 0
M  V30 2334 C 221.2 -2.15622 0.777153 0
M  V30 2335 C 222.2 -1.59504 -0.203779 0
M  V30 2336 O 223.39 -1.74188 0.020782 0
M  V30 2337 C 220.522 -3.40556 0.153116 0
M  V30 2338 H 221.715 -2.47021 1.70061 0
M  V30 2339 H 219.268 -1.26577 0.916952 0
M  V30 2340 H 220.003 -3.14767 -0.780536 0
M  V30 2341 H 219.788 -3.8257 0.859238 0
M  V30 2342 H 221.278 -4.17546 -0.0671044 0
M  V30 2343 N 221.715 -0.905404 -1.28997 0
M  V30 2344 C 223.131 -0.60233 -1.47798 0
M  V30 2345 C 223.331 0.854645 -1.82478 0
M  V30 2346 O 222.387 1.63439 -1.92468 0
M  V30 2347 C 223.7 -1.53306 -2.58685 0
M  V30 2348 C 225.248 -1.53887 -2.72558 0
M  V30 2349 C 225.723 -2.45602 -3.86579 0
M  V30 2350 N 227.214 -2.43681 -3.93921 0
M  V30 2351 C 227.949 -3.11347 -4.81509 0
M  V30 2352 N 227.445 -3.88313 -5.73746 0
M  V30 2353 N 229.238 -3.00476 -4.75048 0
M  V30 2354 H 221.389 -1.84765 -1.04764 0
M  V30 2355 H 223.652 -0.792025 -0.520961 0
M  V30 2356 H 223.358 -2.57141 -2.39941 0
M  V30 2357 H 223.232 -1.25787 -3.55609 0
M  V30 2358 H 225.619 -0.507941 -2.90696 0
M  V30 2359 H 225.7 -1.85447 -1.76191 0
M  V30 2360 H 225.344 -3.48792 -3.69197 0
M  V30 2361 H 225.274 -2.11349 -4.82327 0
M  V30 2362 H 227.765 -1.87767 -3.27951 0
M  V30 2363 H 228.078 -4.36985 -6.37389 0
M  V30 2364 H 226.423 -3.92419 -5.73614 0
M  V30 2365 H 229.614 -2.39858 -4.01977 0
M  V30 2366 H 229.787 -3.53485 -5.43095 0
M  V30 2367 N 223.193 1.4272 -0.668489 0
M  V30 2368 C 224.103 2.34596 0.0139753 0
M  V30 2369 C 225.119 1.5474 0.795703 0
M  V30 2370 O 226.295 1.87334 0.739466 0
M  V30 2371 C 223.36 3.33202 0.957982 0
M  V30 2372 C 222.421 4.28957 0.17149 0
M  V30 2373 C 221.654 5.22853 1.07053 0
M  V30 2374 O 221.877 5.21531 2.31001 0
M  V30 2375 O 220.811 5.9952 0.534727 0
M  V30 2376 H 224.637 2.9448 -0.742661 0
M  V30 2377 H 222.222 1.43117 -0.428705 0
M  V30 2378 H 224.104 3.93796 1.50008 0
M  V30 2379 H 222.779 2.758 1.69458 0
M  V30 2380 H 221.686 3.71796 -0.414558 0
M  V30 2381 H 223.019 4.89383 -0.52586 0
M  V30 2382 N 224.671 0.411399 1.52136 0
M  V30 2383 C 225.618 -0.412975 2.27075 0
M  V30 2384 C 226.588 -1.03912 1.29582 0
M  V30 2385 O 227.773 -1.06296 1.58448 0
M  V30 2386 C 224.913 -1.52247 3.09701 0
M  V30 2387 C 224.026 -0.917021 4.22155 0
M  V30 2388 C 223.161 -1.9994 4.92135 0
M  V30 2389 C 222.2 -1.37101 5.96548 0
M  V30 2390 N 221.337 -2.39364 6.60038 0
M  V30 2391 H 226.177 0.232499 2.97092 0
M  V30 2392 H 223.714 0.126496 1.46555 0
M  V30 2393 H 225.672 -2.17674 3.55913 0
M  V30 2394 H 224.302 -2.13794 2.41851 0
M  V30 2395 H 223.354 -0.151742 3.80097 0
M  V30 2396 H 224.666 -0.418006 4.97045 0
M  V30 2397 H 223.82 -2.73088 5.41763 0
M  V30 2398 H 222.559 -2.53208 4.16818 0
M  V30 2399 H 221.564 -0.624873 5.46237 0
M  V30 2400 H 222.789 -0.845998 6.7381 0
M  V30 2401 H 220.735 -2.91759 5.87548 0
M  V30 2402 H 220.652 -1.9428 7.3061 0
M  V30 2403 H 221.92 -3.12074 7.14304 0
M  V30 2404 N 226.149 -1.5696 0.141893 0
M  V30 2405 C 227.081 -2.13619 -0.830627 0
M  V30 2406 C 228.094 -1.08439 -1.21428 0
M  V30 2407 O 229.283 -1.35734 -1.15925 0
M  V30 2408 C 226.383 -2.63978 -2.12529 0
M  V30 2409 C 225.556 -3.93504 -1.9098 0
M  V30 2410 C 224.615 -4.29225 -3.04388 0
M  V30 2411 O 223.641 -4.97641 -2.76302 0
M  V30 2412 N 224.843 -3.88393 -4.31429 0
M  V30 2413 H 227.608 -2.97691 -0.34641 0
M  V30 2414 H 225.169 -1.61846 -0.0418375 0
M  V30 2415 H 227.161 -2.84891 -2.87436 0
M  V30 2416 H 225.731 -1.84659 -2.52229 0
M  V30 2417 H 224.951 -3.81269 -1.00139 0
M  V30 2418 H 226.239 -4.78154 -1.73914 0
M  V30 2419 H 225.637 -3.33257 -4.57117 0
M  V30 2420 H 224.194 -4.14368 -5.03133 0
M  V30 2421 N 227.627 0.131896 -1.57047 0
M  V30 2422 C 228.852 0.860418 -1.8871 0
M  V30 2423 C 229.277 1.73251 -0.73251 0
M  V30 2424 O 228.635 1.785 0.317429 0
M  V30 2425 C 228.683 1.68047 -3.19049 0
M  V30 2426 O 227.787 2.7862 -3.04047 0
M  V30 2427 H 227.128 0.238743 -0.619595 0
M  V30 2428 H 229.658 0.118169 -2.04258 0
M  V30 2429 H 229.668 2.07238 -3.51449 0
M  V30 2430 H 228.343 1.04018 -4.02682 0
M  V30 2431 H 226.92 2.42726 -2.83088 0
M  V30 2432 N 229.106 1.52395 0.401703 0
M  V30 2433 C 230.053 1.76268 1.48991 0
M  V30 2434 C 231.023 0.605386 1.54675 0
M  V30 2435 O 232.208 0.843742 1.7113 0
M  V30 2436 C 229.348 1.92592 2.86361 0
M  V30 2437 C 228.461 3.20259 2.89928 0
M  V30 2438 C 227.596 3.26972 4.18644 0
M  V30 2439 C 226.635 4.48812 4.16214 0
M  V30 2440 N 225.772 4.52877 5.36514 0
M  V30 2441 H 230.612 2.6914 1.27935 0
M  V30 2442 H 228.149 1.33355 0.620871 0
M  V30 2443 H 230.107 2.0004 3.66115 0
M  V30 2444 H 228.737 1.03093 3.05895 0
M  V30 2445 H 227.789 3.21945 2.02621 0
M  V30 2446 H 229.101 4.10056 2.83999 0
M  V30 2447 H 228.255 3.33533 5.06794 0
M  V30 2448 H 226.994 2.35126 4.27278 0
M  V30 2449 H 225.999 4.4239 3.26453 0
M  V30 2450 H 227.224 5.41961 4.09213 0
M  V30 2451 H 225.17 3.63917 5.45802 0
M  V30 2452 H 225.087 5.36529 5.32609 0
M  V30 2453 H 226.355 4.63676 6.26597 0
M  V30 2454 N 230.584 -0.659388 1.43143 0
M  V30 2455 C 231.831 -1.41935 1.44433 0
M  V30 2456 C 232.159 -1.94387 0.0663522 0
M  V30 2457 O 231.414 -1.72314 -0.927706 0
M  V30 2458 C 231.713 -2.62206 2.42864 0
M  V30 2459 C 231.379 -2.28208 3.88886 0
M  V30 2460 C 230.041 -2.18647 4.28657 0
M  V30 2461 C 232.393 -2.00887 4.8093 0
M  V30 2462 C 229.721 -1.79914 5.58433 0
M  V30 2463 C 232.073 -1.63653 6.11065 0
M  V30 2464 C 230.737 -1.52614 6.49819 0
M  V30 2465 H 230.007 -0.519376 0.528517 0
M  V30 2466 H 232.654 -0.750453 1.76183 0
M  V30 2467 H 230.959 -3.34199 2.04495 0
M  V30 2468 H 232.656 -3.2041 2.41119 0
M  V30 2469 H 229.246 -2.36557 3.57406 0
M  V30 2470 H 233.43 -2.07198 4.5098 0
M  V30 2471 H 228.686 -1.69948 5.87305 0
M  V30 2472 H 232.86 -1.41543 6.81864 0
M  V30 2473 H 230.487 -1.22371 7.50286 0
M  V30 2474 N 232.062 -1.29571 -0.897171 0
M  V30 2475 C 233.311 -1.1706 -1.64256 0
M  V30 2476 C 233.624 0.276476 -1.93636 0
M  V30 2477 O 234.83 0.52294 -2.66416 0
M  V30 2478 C 233.286 -2.0475 -2.95982 0
M  V30 2479 C 232.894 -3.54295 -2.74187 0
M  V30 2480 C 234.638 -2.0097 -3.73914 0
M  V30 2481 C 232.545 -4.34081 -4.01656 0
M  V30 2482 H 231.475 -0.43452 -0.616205 0
M  V30 2483 H 234.126 -1.54229 -0.994268 0
M  V30 2484 H 232.508 -1.60452 -3.62038 0
M  V30 2485 H 233.682 -4.06662 -2.1671 0
M  V30 2486 H 231.997 -3.59773 -2.09648 0
M  V30 2487 H 234.594 -2.57838 -4.68427 0
M  V30 2488 H 234.937 -0.990273 -4.0435 0
M  V30 2489 H 235.47 -2.43325 -3.14703 0
M  V30 2490 H 232.209 -5.36671 -3.76384 0
M  V30 2491 H 231.729 -3.86483 -4.58684 0
M  V30 2492 H 233.408 -4.44877 -4.69781 0
M  V30 2493 N 233.54 1.10788 -1.12088 0
M  V30 2494 C 234.47 2.19083 -0.807755 0
M  V30 2495 C 235.451 1.6858 0.226859 0
M  V30 2496 O 236.636 1.93997 0.0888475 0
M  V30 2497 C 233.766 3.46344 -0.257576 0
M  V30 2498 C 232.72 4.101 -1.22483 0
M  V30 2499 C 232.046 5.32016 -0.535052 0
M  V30 2500 C 233.346 4.54236 -2.57811 0
M  V30 2501 H 235.04 2.45534 -1.71328 0
M  V30 2502 H 232.586 1.1801 -0.825205 0
M  V30 2503 H 234.539 4.21392 -0.0262679 0
M  V30 2504 H 233.263 3.19373 0.683278 0
M  V30 2505 H 231.922 3.37054 -1.44189 0
M  V30 2506 H 231.57 5.01319 0.410827 0
M  V30 2507 H 231.27 5.75625 -1.18024 0
M  V30 2508 H 232.794 6.09799 -0.312695 0
M  V30 2509 H 234.208 5.20575 -2.40155 0
M  V30 2510 H 232.605 5.08682 -3.18375 0
M  V30 2511 H 233.675 3.6734 -3.16528 0
M  V30 2512 N 235.018 0.912232 1.28515 0
M  V30 2513 C 235.981 0.404223 2.25607 0
M  V30 2514 C 236.981 -0.468602 1.53821 0
M  V30 2515 O 238.171 -0.271873 1.72065 0
M  V30 2516 C 235.303 -0.420653 3.38295 0
M  V30 2517 H 236.496 1.26188 2.7206 0
M  V30 2518 H 234.049 0.691495 1.40171 0
M  V30 2519 H 234.784 -1.29777 2.97201 0
M  V30 2520 H 234.569 0.204935 3.91564 0
M  V30 2521 H 236.059 -0.766971 4.10496 0
M  V30 2522 N 236.496 -1.42363 0.676048 0
M  V30 2523 C 237.426 -2.33497 0.0124832 0
M  V30 2524 C 238.407 -1.50748 -0.787981 0
M  V30 2525 O 239.592 -1.79346 -0.744884 0
M  V30 2526 C 236.722 -3.34377 -0.938582 0
M  V30 2527 C 235.676 -4.27289 -0.246622 0
M  V30 2528 C 235.002 -5.18386 -1.31071 0
M  V30 2529 C 236.302 -5.14916 0.875125 0
M  V30 2530 H 237.996 -2.89233 0.773593 0
M  V30 2531 H 235.542 -1.39073 0.37346 0
M  V30 2532 H 237.495 -3.97044 -1.41188 0
M  V30 2533 H 236.219 -2.76947 -1.73113 0
M  V30 2534 H 234.878 -3.66018 0.206456 0
M  V30 2535 H 234.526 -4.57282 -2.09528 0
M  V30 2536 H 234.226 -5.81378 -0.852839 0
M  V30 2537 H 235.75 -5.83929 -1.78492 0
M  V30 2538 H 237.164 -5.71262 0.482983 0
M  V30 2539 H 235.561 -5.86747 1.25887 0
M  V30 2540 H 236.631 -4.53242 1.72335 0
M  V30 2541 N 237.974 -0.419461 -1.51915 0
M  V30 2542 C 238.921 0.400927 -2.27291 0
M  V30 2543 C 239.891 1.03224 -1.30131 0
M  V30 2544 O 241.076 1.05455 -1.59009 0
M  V30 2545 C 238.216 1.50603 -3.10504 0
M  V30 2546 C 237.329 0.89462 -4.22635 0
M  V30 2547 C 236.464 1.97328 -4.93189 0
M  V30 2548 C 235.503 1.33935 -5.97267 0
M  V30 2549 N 234.64 2.3586 -6.61298 0
M  V30 2550 H 239.48 -0.248251 -2.96964 0
M  V30 2551 H 237.017 -0.134266 -1.46486 0
M  V30 2552 H 238.975 2.15783 -3.57062 0
M  V30 2553 H 237.605 2.12509 -2.42981 0
M  V30 2554 H 236.657 0.131583 -3.80172 0
M  V30 2555 H 237.969 0.391641 -4.9726 0
M  V30 2556 H 237.123 2.70211 -5.43204 0
M  V30 2557 H 235.862 2.50994 -4.18155 0
M  V30 2558 H 234.867 0.595896 -5.46561 0
M  V30 2559 H 236.092 0.810252 -6.74249 0
M  V30 2560 H 234.038 2.88639 -5.89087 0
M  V30 2561 H 233.955 1.90403 -7.3163 0
M  V30 2562 H 235.223 3.08282 -7.15949 0
M  V30 2563 N 239.452 1.56882 -0.150215 0
M  V30 2564 C 240.698 1.96518 0.500834 0
M  V30 2565 C 241.031 1.03527 1.64304 0
M  V30 2566 O 240.306 0.0782751 1.94342 0
M  V30 2567 C 240.589 3.45822 1.00395 0
M  V30 2568 C 240.442 4.49591 -0.136983 0
M  V30 2569 C 241.761 3.97704 1.88467 0
M  V30 2570 H 238.88 0.714535 0.18058 0
M  V30 2571 H 241.522 1.88577 -0.232091 0
M  V30 2572 H 239.672 3.5272 1.62851 0
M  V30 2573 H 241.344 4.5477 -0.77343 0
M  V30 2574 H 239.587 4.26441 -0.795652 0
M  V30 2575 H 240.258 5.51402 0.256815 0
M  V30 2576 H 242.734 3.93304 1.35834 0
M  V30 2577 H 241.61 5.0263 2.20578 0
M  V30 2578 H 241.871 3.40252 2.82279 0
M  V30 2579 N 240.93 -0.123565 1.57115 0
M  V30 2580 C 241.86 -1.15309 2.03042 0
M  V30 2581 C 242.841 -1.43454 0.914061 0
M  V30 2582 O 244.026 -1.53973 1.18347 0
M  V30 2583 C 241.156 -2.48043 2.43089 0
M  V30 2584 C 240.11 -2.3437 3.58127 0
M  V30 2585 C 239.436 -3.72026 3.84059 0
M  V30 2586 C 240.736 -1.80804 4.90007 0
M  V30 2587 H 242.43 -0.771102 2.893 0
M  V30 2588 H 239.976 -0.369479 1.39179 0
M  V30 2589 H 241.929 -3.20311 2.73823 0
M  V30 2590 H 240.653 -2.88122 1.53796 0
M  V30 2591 H 239.312 -1.64551 3.27595 0
M  V30 2592 H 238.96 -4.09582 2.91979 0
M  V30 2593 H 238.66 -3.63732 4.6149 0
M  V30 2594 H 240.184 -4.45806 4.1724 0
M  V30 2595 H 241.598 -2.42886 5.19307 0
M  V30 2596 H 239.995 -1.83343 5.71407 0
M  V30 2597 H 241.065 -0.76528 4.78823 0
M  V30 2598 N 242.408 -1.52605 -0.393616 0
M  V30 2599 C 243.655 -1.67424 -1.1391 0
M  V30 2600 C 243.983 -0.411859 -1.90089 0
M  V30 2601 O 243.238 0.605626 -1.86093 0
M  V30 2602 C 243.537 -2.85721 -2.14705 0
M  V30 2603 C 243.203 -4.23342 -1.55218 0
M  V30 2604 C 241.865 -4.60771 -1.3872 0
M  V30 2605 C 244.217 -5.09041 -1.11924 0
M  V30 2606 C 241.545 -5.81563 -0.774689 0
M  V30 2607 C 243.897 -6.30452 -0.520853 0
M  V30 2608 C 242.561 -6.66617 -0.343134 0
M  V30 2609 H 241.831 -0.612648 -0.416826 0
M  V30 2610 H 244.478 -1.8674 -0.424315 0
M  V30 2611 H 242.783 -2.60803 -2.92385 0
M  V30 2612 H 244.48 -2.94382 -2.72288 0
M  V30 2613 H 241.07 -3.93855 -1.69045 0
M  V30 2614 H 245.254 -4.80695 -1.23473 0
M  V30 2615 H 240.51 -6.08196 -0.625154 0
M  V30 2616 H 244.684 -6.96175 -0.177065 0
M  V30 2617 H 242.311 -7.60083 0.133571 0
M  V30 2618 N 243.887 0.651787 -1.4349 0
M  V30 2619 C 244.834 1.76462 -1.4876 0
M  V30 2620 C 245.804 1.62641 -0.337189 0
M  V30 2621 O 246.989 1.82864 -0.544544 0
M  V30 2622 C 244.129 3.14623 -1.41796 0
M  V30 2623 C 243.242 3.39568 -2.67053 0
M  V30 2624 C 242.377 4.67585 -2.52068 0
M  V30 2625 C 241.416 4.85639 -3.72587 0
M  V30 2626 N 240.553 6.04915 -3.56402 0
M  V30 2627 H 245.393 1.71293 -2.43849 0
M  V30 2628 H 242.93 0.835889 -1.21043 0
M  V30 2629 H 244.888 3.94496 -1.35753 0
M  V30 2630 H 243.518 3.18859 -0.50288 0
M  V30 2631 H 242.57 2.53783 -2.8337 0
M  V30 2632 H 243.882 3.48795 -3.56572 0
M  V30 2633 H 243.036 5.55586 -2.4374 0
M  V30 2634 H 241.775 4.60681 -1.60075 0
M  V30 2635 H 240.78 3.96073 -3.81321 0
M  V30 2636 H 242.005 4.94372 -4.65589 0
M  V30 2637 H 239.951 5.9914 -2.67146 0
M  V30 2638 H 239.868 6.15106 -4.39524 0
M  V30 2639 H 241.136 6.95533 -3.51929 0
M  V30 2640 N 245.365 1.30045 0.890287 0
M  V30 2641 C 246.328 1.15963 1.977 0
M  V30 2642 C 247.328 0.0923777 1.60534 0
M  V30 2643 O 248.518 0.340071 1.70848 0
M  V30 2644 C 245.65 0.775451 3.31963 0
M  V30 2645 H 246.843 2.12502 2.11619 0
M  V30 2646 H 244.396 1.13366 1.07601 0
M  V30 2647 H 245.131 -0.189671 3.23745 0
M  V30 2648 H 244.916 1.54668 3.60306 0
M  V30 2649 H 246.406 0.700251 4.11687 0
M  V30 2650 N 246.843 -1.10192 1.12674 0
M  V30 2651 C 247.775 -2.16418 0.754701 0
M  V30 2652 C 248.788 -1.61309 -0.21986 0
M  V30 2653 O 249.977 -1.785 -0.000826841 0
M  V30 2654 C 247.077 -3.38762 0.096698 0
M  V30 2655 C 246.25 -4.23307 1.10136 0
M  V30 2656 C 245.309 -5.24092 0.470513 0
M  V30 2657 O 244.335 -5.57906 1.12824 0
M  V30 2658 N 245.537 -5.75491 -0.760948 0
M  V30 2659 H 248.302 -2.48943 1.66875 0
M  V30 2660 H 245.863 -1.25834 1.01869 0
M  V30 2661 H 247.855 -4.03291 -0.337384 0
M  V30 2662 H 246.425 -3.04192 -0.720153 0
M  V30 2663 H 245.645 -3.55036 1.71299 0
M  V30 2664 H 246.933 -4.76624 1.78064 0
M  V30 2665 H 246.331 -5.50222 -1.31424 0
M  V30 2666 H 244.888 -6.41792 -1.13781 0
M  V30 2667 N 248.321 -0.919034 -1.28029 0
M  V30 2668 C 249.251 -0.428581 -2.29533 0
M  V30 2669 C 250.232 0.50659 -1.62381 0
M  V30 2670 O 251.417 0.413195 -1.89753 0
M  V30 2671 C 248.547 0.327388 -3.45753 0
M  V30 2672 C 247.501 -0.519137 -4.2484 0
M  V30 2673 C 246.827 0.365486 -5.33449 0
M  V30 2674 C 248.127 -1.77914 -4.91064 0
M  V30 2675 H 249.821 -1.27687 -2.70807 0
M  V30 2676 H 247.367 -0.615428 -1.30186 0
M  V30 2677 H 249.32 0.681378 -4.15855 0
M  V30 2678 H 248.044 1.20963 -3.03374 0
M  V30 2679 H 246.703 -0.855717 -3.56473 0
M  V30 2680 H 246.351 1.24642 -4.87312 0
M  V30 2681 H 246.051 -0.197356 -5.87268 0
M  V30 2682 H 247.575 0.715241 -6.06396 0
M  V30 2683 H 248.989 -1.49374 -5.53498 0
M  V30 2684 H 247.386 -2.2848 -5.54903 0
M  V30 2685 H 248.456 -2.50382 -4.15255 0
M  V30 2686 N 249.799 1.42003 -0.683588 0
M  V30 2687 C 250.709 2.34597 -0.0109075 0
M  V30 2688 C 251.725 1.55576 0.779245 0
M  V30 2689 O 252.901 1.88107 0.719555 0
M  V30 2690 C 249.966 3.34199 0.922588 0
M  V30 2691 C 249.027 4.29115 0.125984 0
M  V30 2692 C 248.26 5.23959 1.01502 0
M  V30 2693 O 248.483 5.23952 2.25456 0
M  V30 2694 O 247.417 6.00053 0.47111 0
M  V30 2695 H 251.243 2.93675 -0.773853 0
M  V30 2696 H 248.828 1.42654 -0.443861 0
M  V30 2697 H 250.71 3.95365 1.45823 0
M  V30 2698 H 249.385 2.77582 1.66523 0
M  V30 2699 H 248.292 3.71335 -0.453969 0
M  V30 2700 H 249.625 4.88798 -0.577736 0
M  V30 2701 N 251.277 0.427512 1.51691 0
M  V30 2702 C 252.224 -0.388867 2.275 0
M  V30 2703 C 253.194 -1.02532 1.30677 0
M  V30 2704 O 254.379 -1.0461 1.59566 0
M  V30 2705 C 251.519 -1.48954 3.11298 0
M  V30 2706 C 250.632 -0.872194 4.23104 0
M  V30 2707 C 249.767 -1.94709 4.94228 0
M  V30 2708 C 248.806 -1.30766 5.97969 0
M  V30 2709 N 247.943 -2.32349 6.62539 0
M  V30 2710 H 252.783 0.263997 2.96828 0
M  V30 2711 H 250.32 0.142033 1.46413 0
M  V30 2712 H 252.278 -2.13887 3.58201 0
M  V30 2713 H 250.908 -2.11217 2.44105 0
M  V30 2714 H 249.96 -0.111419 3.80237 0
M  V30 2715 H 251.272 -0.365264 4.97461 0
M  V30 2716 H 250.426 -2.67327 5.44629 0
M  V30 2717 H 249.165 -2.48773 4.1948 0
M  V30 2718 H 248.17 -0.566902 5.4687 0
M  V30 2719 H 249.395 -0.774483 6.74669 0
M  V30 2720 H 247.341 -2.85511 5.90609 0
M  V30 2721 H 247.258 -1.8652 7.3263 0
M  V30 2722 H 248.526 -3.04481 7.17574 0
M  V30 2723 N 252.755 -1.56801 0.158532 0
M  V30 2724 C 253.718 -2.16138 -0.762705 0
M  V30 2725 C 254.718 -1.1061 -1.16713 0
M  V30 2726 O 255.908 -1.36191 -1.08617 0
M  V30 2727 C 253.04 -2.73386 -2.03649 0
M  V30 2728 H 254.233 -2.98886 -0.246354 0
M  V30 2729 H 251.786 -1.56035 -0.0909744 0
M  V30 2730 H 252.521 -1.94335 -2.59623 0
M  V30 2731 H 252.306 -3.50601 -1.75559 0
M  V30 2732 H 253.796 -3.19065 -2.6942 0
M  V30 2733 N 254.233 0.115231 -1.57178 0
M  V30 2734 C 255.481 0.820727 -1.84685 0
M  V30 2735 C 255.802 1.80237 -0.744279 0
M  V30 2736 O 255.072 1.94529 0.231375 0
M  V30 2737 H 253.652 0.306084 -0.681411 0
M  V30 2738 H 256.314 0.101656 -1.94635 0
M  V30 2739 H 255.41 1.36366 -2.80733 0
M  V30 2740 N 255.711 1.52812 0.385517 0
M  V30 2741 C 256.957 1.68275 1.13188 0
M  V30 2742 C 257.29 0.423179 1.89533 0
M  V30 2743 O 256.565 -0.579113 1.85679 0
M  V30 2744 C 256.848 2.92001 2.1073 0
M  V30 2745 C 256.701 4.28067 1.38125 0
M  V30 2746 C 258.02 3.11283 3.11113 0
M  V30 2747 H 255.139 0.612352 0.410115 0
M  V30 2748 H 257.781 1.85415 0.414869 0
M  V30 2749 H 255.931 2.77519 2.71874 0
M  V30 2750 H 257.603 4.54324 0.799187 0
M  V30 2751 H 255.846 4.28388 0.683092 0
M  V30 2752 H 256.517 5.10733 2.09417 0
M  V30 2753 H 258.993 3.2482 2.6006 0
M  V30 2754 H 257.869 3.99325 3.76605 0
M  V30 2755 H 258.13 2.25656 3.80173 0
M  V30 2756 N 257.189 -0.644168 1.43834 0
M  V30 2757 C 258.099 -1.78563 1.52159 0
M  V30 2758 C 259.115 -1.69147 0.408069 0
M  V30 2759 O 260.291 -1.90156 0.663524 0
M  V30 2760 C 257.356 -3.14888 1.45073 0
M  V30 2761 C 256.417 -3.36034 2.6717 0
M  V30 2762 C 255.65 -4.65855 2.60413 0
M  V30 2763 O 255.873 -5.45805 1.65689 0
M  V30 2764 O 254.807 -4.88918 3.5106 0
M  V30 2765 H 258.633 -1.74494 2.48567 0
M  V30 2766 H 256.218 -0.80378 1.25935 0
M  V30 2767 H 258.1 -3.96179 1.43597 0
M  V30 2768 H 256.775 -3.19528 0.518037 0
M  V30 2769 H 255.682 -2.54472 2.74217 0
M  V30 2770 H 257.015 -3.36247 3.59442 0
M  V30 2771 N 258.668 -1.30515 -0.883378 0
M  V30 2772 C 259.618 -1.13641 -1.9766 0
M  V30 2773 C 260.602 -0.0511314 -1.60819 0
M  V30 2774 O 261.794 -0.274623 -1.74857 0
M  V30 2775 C 258.923 -0.831976 -3.33066 0
M  V30 2776 C 258.009 -1.95759 -3.76217 0
M  V30 2777 N 258.4 -3.20313 -3.9145 0
M  V30 2778 C 256.698 -1.85431 -4.05625 0
M  V30 2779 C 257.399 -3.93856 -4.2808 0
M  V30 2780 N 256.375 -3.21919 -4.38029 0
M  V30 2781 H 260.177 -2.08106 -2.07531 0
M  V30 2782 H 257.691 -1.21877 -1.0733 0
M  V30 2783 H 259.688 -0.692102 -4.11115 0
M  V30 2784 H 258.348 0.104588 -3.24532 0
M  V30 2785 H 259.359 -3.55583 -3.76538 0
M  V30 2786 H 256.036 -0.991531 -4.05555 0
M  V30 2787 H 257.426 -5.01125 -4.47575 0
M  V30 2788 N 260.146 1.09593 -1.13257 0
M  V30 2789 C 261.078 2.16015 -0.766167 0
M  V30 2790 C 262.091 1.61423 0.211303 0
M  V30 2791 O 263.28 1.78498 -0.00863946 0
M  V30 2792 C 260.38 3.38706 -0.114662 0
M  V30 2793 C 259.553 4.22717 -1.12379 0
M  V30 2794 C 258.612 5.23835 -0.498301 0
M  V30 2795 O 257.638 5.573 -1.15781 0
M  V30 2796 N 258.84 5.75886 0.730417 0
M  V30 2797 H 261.605 2.48055 -1.68193 0
M  V30 2798 H 259.166 1.25292 -1.02535 0
M  V30 2799 H 261.158 4.03464 0.315991 0
M  V30 2800 H 259.728 3.04569 0.704011 0
M  V30 2801 H 258.948 3.54122 -1.73179 0
M  V30 2802 H 260.236 4.75673 -1.80589 0
M  V30 2803 H 259.634 5.50911 1.28504 0
M  V30 2804 H 258.191 6.42387 1.10376 0
M  V30 2805 N 261.624 0.925811 1.2754 0
M  V30 2806 C 262.554 0.440748 2.29303 0
M  V30 2807 C 263.535 -0.497971 1.62648 0
M  V30 2808 O 264.72 -0.403126 1.8997 0
M  V30 2809 C 261.85 -0.309048 3.45922 0
M  V30 2810 C 260.804 0.54166 4.24559 0
M  V30 2811 C 260.13 -0.337191 5.33636 0
M  V30 2812 C 261.43 1.80516 4.90114 0
M  V30 2813 H 263.124 1.29121 2.70126 0
M  V30 2814 H 260.67 0.622323 1.29858 0
M  V30 2815 H 262.623 -0.659315 4.1621 0
M  V30 2816 H 261.347 -1.19352 3.04011 0
M  V30 2817 H 260.006 0.874609 3.56014 0
M  V30 2818 H 259.654 -1.22056 4.87966 0
M  V30 2819 H 259.354 0.228497 5.87156 0
M  V30 2820 H 260.878 -0.683072 6.06767 0
M  V30 2821 H 262.292 1.52307 5.52698 0
M  V30 2822 H 260.689 2.3142 5.53683 0
M  V30 2823 H 261.759 2.52581 4.13921 0
M  V30 2824 N 263.102 -1.41638 0.69111 0
M  V30 2825 C 264.518 -1.55435 0.362224 0
M  V30 2826 C 264.718 -1.66754 -1.13117 0
M  V30 2827 O 263.774 -1.64348 -1.91692 0
M  V30 2828 C 265.087 -2.79588 1.10684 0
M  V30 2829 C 266.635 -2.9338 1.09075 0
M  V30 2830 C 267.11 -4.20414 1.81703 0
M  V30 2831 N 268.601 -4.27362 1.7865 0
M  V30 2832 C 269.336 -5.24507 2.31689 0
M  V30 2833 N 268.832 -6.27708 2.93179 0
M  V30 2834 N 270.625 -5.16416 2.2197 0
M  V30 2835 H 262.776 -1.32536 1.65976 0
M  V30 2836 H 265.039 -0.639115 0.700168 0
M  V30 2837 H 264.745 -2.77419 2.16175 0
M  V30 2838 H 264.619 -3.70973 0.682545 0
M  V30 2839 H 267.006 -2.95067 0.0441238 0
M  V30 2840 H 267.087 -2.0318 1.55407 0
M  V30 2841 H 266.731 -4.19488 2.86343 0
M  V30 2842 H 266.661 -5.09578 1.32808 0
M  V30 2843 H 269.152 -3.53415 1.33815 0
M  V30 2844 H 269.465 -6.98217 3.31229 0
M  V30 2845 H 267.81 -6.28223 2.97255 0
M  V30 2846 H 271.001 -4.34716 1.73607 0
M  V30 2847 H 271.174 -5.91958 2.63609 0
M  V30 2848 N 264.58 -0.43555 -1.51462 0
M  V30 2849 C 265.996 -0.0877501 -1.59359 0
M  V30 2850 C 266.196 1.4027 -1.4466 0
M  V30 2851 O 265.252 2.17243 -1.28693 0
M  V30 2852 C 266.565 -0.606264 -2.94525 0
M  V30 2853 C 268.113 -0.566548 -3.0783 0
M  V30 2854 C 268.588 -1.06201 -4.45517 0
M  V30 2855 N 270.079 -1.01992 -4.51832 0
M  V30 2856 C 270.814 -1.37417 -5.5669 0
M  V30 2857 N 270.31 -1.80119 -6.68976 0
M  V30 2858 N 272.103 -1.29245 -5.47039 0
M  V30 2859 H 264.254 -1.40533 -1.59261 0
M  V30 2860 H 266.517 -0.578992 -0.750648 0
M  V30 2861 H 266.223 -1.64901 -3.10645 0
M  V30 2862 H 266.097 -0.0302097 -3.77188 0
M  V30 2863 H 268.484 0.467208 -2.91378 0
M  V30 2864 H 268.565 -1.17898 -2.2701 0
M  V30 2865 H 268.209 -2.09422 -4.62715 0
M  V30 2866 H 268.139 -0.426127 -5.24873 0
M  V30 2867 H 270.63 -0.706308 -3.71241 0
M  V30 2868 H 270.943 -2.05392 -7.45006 0
M  V30 2869 H 269.288 -1.84044 -6.70189 0
M  V30 2870 H 272.479 -0.957522 -4.58202 0
M  V30 2871 H 272.652 -1.57182 -6.28648 0
M  V30 2872 N 266.058 1.56714 -0.166846 0
M  V30 2873 C 266.968 2.21331 0.777791 0
M  V30 2874 C 267.984 1.20358 1.25658 0
M  V30 2875 O 269.16 1.53005 1.30964 0
M  V30 2876 C 266.225 2.83787 1.99163 0
M  V30 2877 C 265.286 3.99947 1.56016 0
M  V30 2878 C 264.519 4.59415 2.71613 0
M  V30 2879 O 264.742 4.17769 3.88362 0
M  V30 2880 O 263.676 5.49359 2.45945 0
M  V30 2881 H 267.502 3.02605 0.257636 0
M  V30 2882 H 265.087 1.49275 0.0611393 0
M  V30 2883 H 266.969 3.23405 2.70161 0
M  V30 2884 H 265.644 2.05513 2.50092 0
M  V30 2885 H 264.551 3.65007 0.819809 0
M  V30 2886 H 265.884 4.79801 1.09782 0
M  V30 2887 N 267.536 -0.106894 1.57237 0
M  V30 2888 C 268.782 -0.81373 1.85759 0
M  V30 2889 C 269.115 -1.78952 0.754315 0
M  V30 2890 O 268.39 -1.93029 -0.23879 0
M  V30 2891 C 268.673 -1.55293 3.24894 0
M  V30 2892 C 268.526 -0.595929 4.45835 0
M  V30 2893 C 269.845 -2.5063 3.61763 0
M  V30 2894 H 266.964 -0.294369 0.67566 0
M  V30 2895 H 269.606 -0.0776472 1.89841 0
M  V30 2896 H 267.756 -2.1804 3.21544 0
M  V30 2897 H 269.428 0.0236262 4.61294 0
M  V30 2898 H 267.671 0.0916191 4.33703 0
M  V30 2899 H 268.342 -1.15004 5.39887 0
M  V30 2900 H 270.818 -1.97982 3.65981 0
M  V30 2901 H 269.694 -2.99376 4.60071 0
M  V30 2902 H 269.955 -3.3385 2.89821 0
M  V30 2903 N 269.014 -1.53014 -0.377408 0
M  V30 2904 C 269.924 -1.81557 -1.48574 0
M  V30 2905 C 270.94 -0.703102 -1.59162 0
M  V30 2906 O 272.116 -0.99192 -1.75279 0
M  V30 2907 C 269.181 -1.9889 -2.83978 0
M  V30 2908 C 268.242 -3.22801 -2.83016 0
M  V30 2909 C 267.475 -3.39298 -4.11962 0
M  V30 2910 O 267.698 -2.60345 -5.0752 0
M  V30 2911 O 266.632 -4.32604 -4.18494 0
M  V30 2912 H 270.458 -2.75695 -1.27382 0
M  V30 2913 H 268.043 -1.38248 -0.566373 0
M  V30 2914 H 269.925 -2.11931 -3.6423 0
M  V30 2915 H 268.6 -1.07942 -3.05172 0
M  V30 2916 H 267.507 -3.15193 -2.01505 0
M  V30 2917 H 268.84 -4.13632 -2.66775 0
M  V30 2918 N 270.492 0.636531 -1.44174 0
M  V30 2919 C 271.741 1.39213 -1.45954 0
M  V30 2920 C 272.054 1.95374 -0.0939119 0
M  V30 2921 O 273.26 2.71498 0.0107767 0
M  V30 2922 C 271.716 2.52025 -2.56927 0
M  V30 2923 C 271.324 2.024 -3.99673 0
M  V30 2924 C 273.068 3.29269 -2.67922 0
M  V30 2925 C 270.975 3.12521 -5.0208 0
M  V30 2926 H 269.905 0.523132 -0.542999 0
M  V30 2927 H 272.556 0.685349 -1.70221 0
M  V30 2928 H 270.938 3.25253 -2.25891 0
M  V30 2929 H 272.112 1.36073 -4.40251 0
M  V30 2930 H 270.427 1.37987 -3.92872 0
M  V30 2931 H 273.024 4.11352 -3.41605 0
M  V30 2932 H 273.367 3.78397 -1.73555 0
M  V30 2933 H 273.9 2.63129 -2.98342 0
M  V30 2934 H 270.639 2.68343 -5.98057 0
M  V30 2935 H 270.159 3.77507 -4.66099 0
M  V30 2936 H 271.838 3.77385 -5.25538 0
M  V30 2937 N 271.97 1.30982 0.876444 0
M  V30 2938 C 272.902 1.13902 1.98894 0
M  V30 2939 C 273.915 0.0798815 1.62604 0
M  V30 2940 O 275.104 0.326743 1.75484 0
M  V30 2941 C 272.204 0.716699 3.31235 0
M  V30 2942 C 271.377 1.85945 3.95908 0
M  V30 2943 C 270.436 1.42426 5.06558 0
M  V30 2944 O 269.462 2.13287 5.27729 0
M  V30 2945 N 270.664 0.308025 5.79682 0
M  V30 2946 H 273.429 2.09724 2.14094 0
M  V30 2947 H 270.99 1.2323 1.05004 0
M  V30 2948 H 272.982 0.408403 4.02634 0
M  V30 2949 H 271.552 -0.149719 3.12241 0
M  V30 2950 H 270.772 2.33541 3.17573 0
M  V30 2951 H 272.06 2.62503 4.35855 0
M  V30 2952 H 271.458 -0.282241 5.64995 0
M  V30 2953 H 270.015 0.0592282 6.51773 0
M  V30 2954 N 273.449 -1.08991 1.13837 0
M  V30 2955 C 274.674 -1.85551 0.926585 0
M  V30 2956 C 275.099 -1.80782 -0.519566 0
M  V30 2957 O 274.457 -1.18855 -1.36906 0
M  V30 2958 C 274.505 -3.31266 1.42462 0
M  V30 2959 O 273.609 -4.07822 0.612789 0
M  V30 2960 H 272.95 -0.575192 0.331738 0
M  V30 2961 H 275.48 -1.37604 1.51414 0
M  V30 2962 H 275.49 -3.82112 1.43019 0
M  V30 2963 H 274.165 -3.34052 2.47754 0
M  V30 2964 H 272.742 -3.66731 0.675463 0
M  V30 2965 N 274.927 -0.932562 -1.27047 0
M  V30 2966 C 275.877 -0.406392 -2.24349 0
M  V30 2967 C 276.861 0.492066 -1.53191 0
M  V30 2968 O 278.053 0.328717 -1.73921 0
M  V30 2969 C 275.182 0.335214 -3.41659 0
M  V30 2970 C 274.268 -0.58004 -4.20115 0
M  V30 2971 N 274.659 -1.70203 -4.76303 0
M  V30 2972 C 272.957 -0.383974 -4.44344 0
M  V30 2973 C 273.658 -2.27167 -5.35509 0
M  V30 2974 N 272.634 -1.56068 -5.20715 0
M  V30 2975 H 276.436 -1.26299 -2.65378 0
M  V30 2976 H 273.95 -0.787408 -1.42034 0
M  V30 2977 H 275.947 0.729142 -4.10474 0
M  V30 2978 H 274.607 1.18868 -3.0216 0
M  V30 2979 H 275.618 -2.08433 -4.74106 0
M  V30 2980 H 272.295 0.428436 -4.15296 0
M  V30 2981 H 273.685 -3.21654 -5.89905 0
M  V30 2982 N 276.405 1.4127 -0.698611 0
M  V30 2983 C 277.335 2.33447 -0.049629 0
M  V30 2984 C 278.316 1.51982 0.763898 0
M  V30 2985 O 279.501 1.80509 0.716257 0
M  V30 2986 C 276.631 3.35828 0.885267 0
M  V30 2987 C 275.585 4.27627 0.178613 0
M  V30 2988 C 274.911 5.20406 1.22807 0
M  V30 2989 C 276.211 5.13459 -0.956933 0
M  V30 2990 H 277.905 2.87966 -0.81951 0
M  V30 2991 H 275.451 1.38461 -0.395538 0
M  V30 2992 H 277.404 3.9924 1.34854 0
M  V30 2993 H 276.128 2.79666 1.68685 0
M  V30 2994 H 274.787 3.65643 -0.26466 0
M  V30 2995 H 274.435 4.60558 2.02226 0
M  V30 2996 H 274.135 5.82661 0.760239 0
M  V30 2997 H 275.659 5.86695 1.69179 0
M  V30 2998 H 277.073 5.70421 -0.573805 0
M  V30 2999 H 275.47 5.8467 -1.35205 0
M  V30 3000 H 276.54 4.50443 -1.79524 0
M  V30 3001 N 277.883 0.443576 1.51229 0
M  V30 3002 C 279.299 0.0962001 1.5931 0
M  V30 3003 C 279.499 -1.39501 1.45402 0
M  V30 3004 O 278.555 -2.16557 1.29843 0
M  V30 3005 C 279.868 0.621875 2.94199 0
M  V30 3006 C 281.416 0.582865 3.07525 0
M  V30 3007 C 281.891 1.08562 4.44948 0
M  V30 3008 N 283.382 1.04387 4.51284 0
M  V30 3009 C 284.117 1.40368 5.55954 0
M  V30 3010 N 283.613 1.83664 6.68011 0
M  V30 3011 N 285.406 1.32145 5.46346 0
M  V30 3012 H 277.557 1.41376 1.58514 0
M  V30 3013 H 279.82 0.582965 0.747567 0
M  V30 3014 H 279.526 1.66546 3.09767 0
M  V30 3015 H 279.4 0.0502125 3.77167 0
M  V30 3016 H 281.787 -0.451749 2.91622 0
M  V30 3017 H 281.868 1.191 2.26382 0
M  V30 3018 H 281.512 2.11873 4.61598 0
M  V30 3019 H 281.442 0.453956 5.2464 0
M  V30 3020 H 283.933 0.725986 3.70861 0
M  V30 3021 H 284.246 2.0934 7.43906 0
M  V30 3022 H 282.591 1.87596 6.69203 0
M  V30 3023 H 285.782 0.981808 4.57688 0
M  V30 3024 H 285.955 1.60514 6.27805 0
M  V30 3025 N 279.361 -1.56624 0.175154 0
M  V30 3026 C 280.311 -2.14747 -0.766004 0
M  V30 3027 C 281.295 -1.08275 -1.19018 0
M  V30 3028 O 282.487 -1.34388 -1.15191 0
M  V30 3029 C 279.616 -2.79478 -1.99366 0
M  V30 3030 C 278.702 -3.93114 -1.5913 0
M  V30 3031 N 279.093 -4.97752 -0.89872 0
M  V30 3032 C 277.391 -4.04345 -1.88204 0
M  V30 3033 C 278.092 -5.77473 -0.700012 0
M  V30 3034 N 277.068 -5.29207 -1.24263 0
M  V30 3035 H 280.87 -2.93015 -0.22793 0
M  V30 3036 H 278.384 -1.6238 -0.0253843 0
M  V30 3037 H 280.381 -3.19498 -2.67818 0
M  V30 3038 H 279.041 -2.02692 -2.53665 0
M  V30 3039 H 280.052 -5.14903 -0.556347 0
M  V30 3040 H 276.729 -3.38667 -2.44153 0
M  V30 3041 H 278.119 -6.71728 -0.152047 0
M  V30 3042 N 280.839 0.0985539 -1.57292 0
M  V30 3043 C 282.25 0.653457 -1.74891 0
M  V30 3044 C 282.601 1.7929 -0.796838 0
M  V30 3045 O 281.726 2.16385 0.0254886 0
M  V30 3046 C 282.321 1.19216 -3.17133 0
M  V30 3047 C 280.88 1.69316 -3.36168 0
M  V30 3048 C 280.027 0.601294 -2.70702 0
M  V30 3049 H 282.978 -0.127497 -1.58187 0
M  V30 3050 H 282.999 2.06154 -3.19814 0
M  V30 3051 H 282.511 0.362635 -3.86402 0
M  V30 3052 H 280.612 2.5468 -2.71972 0
M  V30 3053 H 280.725 1.78853 -4.44464 0
M  V30 3054 H 279.089 1.0399 -2.32504 0
M  V30 3055 H 279.872 -0.217592 -3.4261 0
M  V30 3056 N 282.317 1.53212 0.369288 0
M  V30 3057 C 283.265 1.80054 1.47253 0
M  V30 3058 C 284.259 0.669456 1.55611 0
M  V30 3059 O 285.465 0.852328 1.58541 0
M  V30 3060 H 281.84 0.570034 0.490475 0
M  V30 3061 H 283.811 2.72403 1.21817 0
M  V30 3062 C 282.56 2.00403 2.84137 0
M  V30 3063 H 281.883 2.86876 2.78464 0
M  V30 3064 H 283.323 2.23164 3.60519 0
M  V30 3065 C 281.782 0.782081 3.27697 0
M  V30 3066 O 282.312 -0.0310205 4.01688 0
M  V30 3067 N 280.518 0.606573 2.84199 0
M  V30 3068 H 280.065 1.26939 2.24152 0
M  V30 3069 H 280.023 -0.20962 3.137 0
M  V30 3070 N 283.795 -0.628877 1.44509 0
M  V30 3071 C 285.044 -1.38437 1.4669 0
M  V30 3072 C 285.357 -1.95322 0.104272 0
M  V30 3073 O 286.563 -2.715 0.00362163 0
M  V30 3074 C 285.019 -2.50659 2.5826 0
M  V30 3075 C 284.627 -2.00277 4.0074 0
M  V30 3076 C 286.371 -3.27844 2.69664 0
M  V30 3077 C 284.278 -3.09854 5.0373 0
M  V30 3078 H 283.208 -0.520245 0.545766 0
M  V30 3079 H 285.859 -0.676313 1.70582 0
M  V30 3080 H 284.241 -3.2405 2.27612 0
M  V30 3081 H 285.415 -1.33736 4.40966 0
M  V30 3082 H 283.73 -1.35901 3.93599 0
M  V30 3083 H 286.327 -4.09534 3.43781 0
M  V30 3084 H 286.67 -3.77471 1.75559 0
M  V30 3085 H 287.203 -2.61543 2.99733 0
M  V30 3086 H 283.942 -2.65168 5.99472 0
M  V30 3087 H 283.462 -3.7503 4.68095 0
M  V30 3088 H 285.141 -3.74592 5.27532 0
M  V30 3089 N 285.273 -1.31445 -0.869486 0
M  V30 3090 C 286.203 -1.21727 -1.99261 0
M  V30 3091 C 287.184 -0.104359 -1.6978 0
M  V30 3092 O 288.369 -0.289038 -1.92037 0
M  V30 3093 C 285.499 -0.924317 -3.34774 0
M  V30 3094 C 284.453 -1.99685 -3.78563 0
M  V30 3095 C 283.779 -1.55658 -5.11541 0
M  V30 3096 C 285.079 -3.41003 -3.95619 0
M  V30 3097 H 286.773 -2.1569 -2.07649 0
M  V30 3098 H 284.319 -1.03839 -0.997675 0
M  V30 3099 H 286.272 -0.842934 -4.12883 0
M  V30 3100 H 284.996 0.0509793 -3.2656 0
M  V30 3101 H 283.655 -2.06813 -3.02694 0
M  V30 3102 H 283.303 -0.569132 -4.9977 0
M  V30 3103 H 283.003 -2.27409 -5.41811 0
M  V30 3104 H 284.527 -1.48928 -5.92159 0
M  V30 3105 H 285.941 -3.36547 -4.64122 0
M  V30 3106 H 284.338 -4.10975 -4.37286 0
M  V30 3107 H 285.408 -3.81754 -2.98985 0
M  V30 3108 N 286.751 1.08385 -1.14413 0
M  V30 3109 C 288.167 1.32844 -0.884563 0
M  V30 3110 C 288.367 1.95841 0.474181 0
M  V30 3111 O 287.423 2.21158 1.21842 0
M  V30 3112 C 288.736 2.22978 -2.01745 0
M  V30 3113 C 290.284 2.36458 -2.05077 0
M  V30 3114 C 290.759 3.29934 -3.1766 0
M  V30 3115 N 292.25 3.37511 -3.17239 0
M  V30 3116 C 292.985 4.09871 -4.0099 0
M  V30 3117 N 292.481 4.84936 -4.94781 0
M  V30 3118 N 294.274 4.05704 -3.89051 0
M  V30 3119 H 286.425 0.658756 -2.01926 0
M  V30 3120 H 288.688 0.352821 -0.879899 0
M  V30 3121 H 288.394 1.83934 -2.99769 0
M  V30 3122 H 288.268 3.23441 -1.94077 0
M  V30 3123 H 290.655 2.7476 -1.0766 0
M  V30 3124 H 290.736 1.35736 -2.16816 0
M  V30 3125 H 290.38 2.92352 -4.15322 0
M  V30 3126 H 290.31 4.30584 -3.03158 0
M  V30 3127 H 292.801 2.83996 -2.49308 0
M  V30 3128 H 293.114 5.37612 -5.55151 0
M  V30 3129 H 291.459 4.83988 -4.98779 0
M  V30 3130 H 294.65 3.46167 -3.15097 0
M  V30 3131 H 294.823 4.61834 -4.54547 0
M  V30 3132 N 288.23 0.939286 1.26551 0
M  V30 3133 C 289.16 0.465044 2.28822 0
M  V30 3134 C 290.141 -0.480692 1.63167 0
M  V30 3135 O 291.326 -0.382955 1.90387 0
M  V30 3136 C 288.456 -0.27234 3.46231 0
M  V30 3137 C 287.41 0.58666 4.2396 0
M  V30 3138 C 286.736 -0.280573 5.33963 0
M  V30 3139 C 288.036 1.85704 4.88171 0
M  V30 3140 H 289.73 1.31979 2.68741 0
M  V30 3141 H 287.276 0.636061 1.29191 0
M  V30 3142 H 289.229 -0.615133 4.16886 0
M  V30 3143 H 287.953 -1.16121 3.0526 0
M  V30 3144 H 286.612 0.91232 3.55067 0
M  V30 3145 H 286.26 -1.16874 4.89234 0
M  V30 3146 H 285.96 0.29076 5.8688 0
M  V30 3147 H 287.484 -0.618678 6.07458 0
M  V30 3148 H 288.898 1.58161 5.51052 0
M  V30 3149 H 287.295 2.37279 5.51197 0
M  V30 3150 H 288.365 2.56957 4.11219 0
M  V30 3151 N 289.708 -1.40897 0.706093 0
M  V30 3152 C 290.938 -2.05075 0.250523 0
M  V30 3153 C 291.346 -1.53275 -1.10921 0
M  V30 3154 O 290.689 -0.680281 -1.7064 0
M  V30 3155 C 290.751 -3.59219 0.142178 0
M  V30 3156 C 290.415 -4.33864 1.43566 0
M  V30 3157 C 291.412 -4.62448 2.37566 0
M  V30 3158 C 289.097 -4.72946 1.69195 0
M  V30 3159 C 291.091 -5.29088 3.5545 0
M  V30 3160 C 288.778 -5.3932 2.87362 0
M  V30 3161 C 289.776 -5.6732 3.80312 0
M  V30 3162 O 289.464 -6.32325 4.96408 0
M  V30 3163 H 289.196 -0.666645 0.112074 0
M  V30 3164 H 291.75 -1.81467 0.962239 0
M  V30 3165 H 289.98 -3.81609 -0.6254 0
M  V30 3166 H 291.669 -4.0495 -0.277584 0
M  V30 3167 H 292.435 -4.32727 2.19027 0
M  V30 3168 H 288.314 -4.50527 0.977042 0
M  V30 3169 H 291.858 -5.50859 4.28018 0
M  V30 3170 H 287.755 -5.68461 3.05814 0
M  V30 3171 H 288.523 -6.50821 4.9636 0
M  V30 3172 N 291.186 -0.45159 -1.50991 0
M  V30 3173 C 292.434 0.109857 -2.01801 0
M  V30 3174 C 292.755 1.41958 -1.3369 0
M  V30 3175 O 292.025 1.9003 -0.475951 0
M  V30 3176 H 290.605 0.0435884 -0.745727 0
M  V30 3177 H 293.267 -0.597557 -1.85514 0
M  V30 3178 H 292.363 0.275489 -3.10882 0
M  V30 3179 N 292.664 1.56529 -0.183458 0
M  V30 3180 C 293.894 2.01331 0.463612 0
M  V30 3181 C 294.302 1.06278 1.5653 0
M  V30 3182 O 293.645 0.0577976 1.83609 0
M  V30 3183 C 293.707 3.42547 1.09096 0
M  V30 3184 C 293.371 4.56817 0.129442 0
M  V30 3185 C 294.368 5.15734 -0.656807 0
M  V30 3186 C 292.053 5.02295 0.02174 0
M  V30 3187 C 294.047 6.1857 -1.53784 0
M  V30 3188 C 291.734 6.04978 -0.862864 0
M  V30 3189 C 292.732 6.62988 -1.64123 0
M  V30 3190 O 292.42 7.63677 -2.51103 0
M  V30 3191 H 292.152 0.664917 0.121907 0
M  V30 3192 H 294.706 2.034 -0.285954 0
M  V30 3193 H 292.936 3.37428 1.88889 0
M  V30 3194 H 294.625 3.71228 1.64148 0
M  V30 3195 H 295.391 4.81473 -0.583839 0
M  V30 3196 H 291.27 4.56847 0.617392 0
M  V30 3197 H 294.814 6.63777 -2.14583 0
M  V30 3198 H 290.711 6.38663 -0.93699 0
M  V30 3199 H 291.479 7.81049 -2.44753 0
M  V30 3200 N 294.142 -0.090211 1.57342 0
M  V30 3201 C 295.389 -0.792807 1.86335 0
M  V30 3202 C 295.717 -1.78494 0.772662 0
M  V30 3203 O 294.972 -1.94305 -0.233258 0
M  V30 3204 C 295.271 -1.55222 3.21933 0
M  V30 3205 C 294.937 -0.701765 4.45406 0
M  V30 3206 C 293.599 -0.467334 4.78925 0
M  V30 3207 C 295.951 -0.11086 5.21082 0
M  V30 3208 C 293.279 0.367785 5.85546 0
M  V30 3209 C 295.631 0.711609 6.28585 0
M  V30 3210 C 294.295 0.956086 6.60617 0
M  V30 3211 H 293.565 -0.290109 0.681849 0
M  V30 3212 H 296.212 -0.0541332 1.91423 0
M  V30 3213 H 294.517 -2.3626 3.12551 0
M  V30 3214 H 296.214 -2.10032 3.41595 0
M  V30 3215 H 292.804 -0.894598 4.1916 0
M  V30 3216 H 296.988 -0.279129 4.95514 0
M  V30 3217 H 292.244 0.566128 6.08773 0
M  V30 3218 H 296.418 1.17632 6.86393 0
M  V30 3219 H 294.045 1.60499 7.43064 0
M  V30 3220 N 295.62 -1.53406 -0.361157 0
M  V30 3221 C 296.57 -1.76536 -1.44287 0
M  V30 3222 C 297.554 -0.620019 -1.48474 0
M  V30 3223 O 298.746 -0.878834 -1.53641 0
M  V30 3224 C 295.875 -1.96266 -2.81664 0
M  V30 3225 C 294.961 -3.16815 -2.81938 0
M  V30 3226 N 295.352 -4.38637 -2.51855 0
M  V30 3227 C 293.65 -3.17627 -3.13096 0
M  V30 3228 C 294.351 -5.20401 -2.59919 0
M  V30 3229 N 293.327 -4.56712 -2.94814 0
M  V30 3230 H 297.129 -2.68331 -1.19899 0
M  V30 3231 H 294.643 -1.52091 -0.56938 0
M  V30 3232 H 296.64 -2.10966 -3.59582 0
M  V30 3233 H 295.3 -1.05702 -3.07013 0
M  V30 3234 H 296.311 -4.66293 -2.25369 0
M  V30 3235 H 292.988 -2.36971 -3.43731 0
M  V30 3236 H 294.378 -6.27586 -2.39969 0
M  V30 3237 N 297.098 0.621204 -1.44841 0
M  V30 3238 C 298.375 1.38 -1.38619 0
M  V30 3239 C 298.755 2.11041 -0.0498935 0
M  V30 3240 O 298.103 2.06992 0.967816 0
M  V30 3241 C 298.313 2.33817 -2.59096 0
M  V30 3242 C 299.661 2.96844 -3.03593 0
M  V30 3243 O 300.685 2.44141 -2.59371 0
M  V30 3244 O 299.544 3.92476 -3.80296 0
M  V30 3245 H 296.638 0.61811 -0.549426 0
M  V30 3246 H 299.184 0.645429 -1.56947 0
M  V30 3247 H 297.956 1.79012 -3.47952 0
M  V30 3248 H 297.579 3.14676 -2.43032 0
M  V30 3249 N 298.576 1.31904 0.862503 0
M  V30 3250 C 299.539 1.20131 1.95195 0
M  V30 3251 C 300.539 0.126409 1.60302 0
M  V30 3252 O 301.729 0.376234 1.70089 0
M  V30 3253 C 298.861 0.845691 3.30244 0
M  V30 3254 H 300.054 2.16943 2.07064 0
M  V30 3255 H 297.607 1.15622 1.05172 0
M  V30 3256 H 298.342 -0.120957 3.24074 0
M  V30 3257 H 298.127 1.62276 3.56944 0
M  V30 3258 H 299.617 0.787418 4.10109 0
M  V30 3259 N 300.054 -1.07777 1.14986 0
M  V30 3260 C 301.282 -1.84018 0.945773 0
M  V30 3261 C 301.697 -1.81897 -0.505863 0
M  V30 3262 O 301.054 -1.22726 -1.35072 0
M  V30 3263 C 301.105 -3.31287 1.44677 0
M  V30 3264 O 300.826 -3.33449 2.84154 0
M  V30 3265 C 302.327 -4.24311 1.28355 0
M  V30 3266 H 299.547 -0.580716 0.336169 0
M  V30 3267 H 302.091 -1.36077 1.52654 0
M  V30 3268 H 300.246 -3.76594 0.908625 0
M  V30 3269 H 300.66 -4.25427 3.06777 0
M  V30 3270 H 302.134 -5.2573 1.68261 0
M  V30 3271 H 302.611 -4.38612 0.227184 0
M  V30 3272 H 303.217 -3.84836 1.81056 0
M  V30 3273 N 301.532 -0.945985 -1.26051 0
M  V30 3274 C 302.948 -0.649045 -1.45807 0
M  V30 3275 C 303.148 0.796158 -1.85104 0
M  V30 3276 O 302.204 1.57233 -1.97571 0
M  V30 3277 C 303.517 -1.61458 -2.53677 0
M  V30 3278 C 305.065 -1.62481 -2.67524 0
M  V30 3279 C 305.54 -2.57776 -3.7857 0
M  V30 3280 N 307.031 -2.5609 -3.85969 0
M  V30 3281 C 307.766 -3.26508 -4.7136 0
M  V30 3282 N 307.262 -4.0637 -5.61102 0
M  V30 3283 N 309.055 -3.15437 -4.65248 0
M  V30 3284 H 301.206 -1.88005 -0.988328 0
M  V30 3285 H 303.469 -0.808198 -0.4955 0
M  V30 3286 H 303.175 -2.64644 -2.31638 0
M  V30 3287 H 303.049 -1.37036 -3.51427 0
M  V30 3288 H 305.436 -0.600167 -2.88933 0
M  V30 3289 H 305.517 -1.90958 -1.70202 0
M  V30 3290 H 305.161 -3.60361 -3.57913 0
M  V30 3291 H 305.091 -2.26587 -4.75359 0
M  V30 3292 H 307.582 -1.98105 -3.21812 0
M  V30 3293 H 307.895 -4.57042 -6.23164 0
M  V30 3294 H 306.24 -4.10469 -5.60839 0
M  V30 3295 H 309.431 -2.52525 -3.94143 0
M  V30 3296 H 309.604 -3.70584 -5.31575 0
M  V30 3297 N 303.011 1.40521 -0.713556 0
M  V30 3298 C 304.257 2.01221 -0.252564 0
M  V30 3299 C 304.59 1.56444 1.1506 0
M  V30 3300 O 303.865 0.783597 1.78017 0
M  V30 3301 C 304.148 3.58582 -0.330332 0
M  V30 3302 C 304.001 4.13437 -1.77173 0
M  V30 3303 C 305.32 4.39079 0.299641 0
M  V30 3304 H 302.439 0.731077 -0.0932471 0
M  V30 3305 H 305.081 1.67026 -0.905673 0
M  V30 3306 H 303.231 3.87844 0.225737 0
M  V30 3307 H 304.903 3.9498 -2.38303 0
M  V30 3308 H 303.146 3.67801 -2.3001 0
M  V30 3309 H 303.817 5.22597 -1.77755 0
M  V30 3310 H 306.293 4.15735 -0.174139 0
M  V30 3311 H 305.169 5.4848 0.214771 0
M  V30 3312 H 305.43 4.19915 1.38288 0
M  V30 3313 N 304.489 0.459591 1.5075 0
M  V30 3314 C 305.719 -0.0972338 2.06371 0
M  V30 3315 C 306.127 -1.35074 1.32483 0
M  V30 3316 O 305.47 -1.79637 0.384226 0
M  V30 3317 C 305.532 -0.462759 3.56509 0
M  V30 3318 C 305.196 0.687084 4.51805 0
M  V30 3319 C 306.193 1.56578 4.95761 0
M  V30 3320 C 303.878 0.874144 4.94635 0
M  V30 3321 C 305.872 2.61604 5.81242 0
M  V30 3322 C 303.559 1.92765 5.79901 0
M  V30 3323 C 304.557 2.79697 6.23104 0
M  V30 3324 O 304.245 3.83235 7.06673 0
M  V30 3325 H 303.977 -0.00140687 0.675999 0
M  V30 3326 H 306.531 0.644011 1.95043 0
M  V30 3327 H 304.761 -1.25703 3.65699 0
M  V30 3328 H 306.45 -0.953323 3.94546 0
M  V30 3329 H 307.216 1.4329 4.6335 0
M  V30 3330 H 303.095 0.207006 4.60535 0
M  V30 3331 H 306.639 3.29489 6.14884 0
M  V30 3332 H 302.536 2.06064 6.11725 0
M  V30 3333 H 303.304 3.80084 7.24899 0
M  V30 3334 N 305.967 -1.56429 0.191757 0
M  V30 3335 C 306.897 -2.21937 -0.725696 0
M  V30 3336 C 307.878 -1.1814 -1.2238 0
M  V30 3337 O 309.063 -1.46636 -1.27325 0
M  V30 3338 C 306.193 -2.87611 -1.94672 0
M  V30 3339 C 305.147 -3.97623 -1.58366 0
M  V30 3340 C 304.473 -4.50446 -2.88102 0
M  V30 3341 C 305.773 -5.16197 -0.796133 0
M  V30 3342 H 307.467 -2.98861 -0.179606 0
M  V30 3343 H 305.013 -1.43749 -0.0849464 0
M  V30 3344 H 306.966 -3.3212 -2.59373 0
M  V30 3345 H 305.69 -2.08087 -2.51728 0
M  V30 3346 H 304.349 -3.53801 -0.960247 0
M  V30 3347 H 303.997 -3.67688 -3.43241 0
M  V30 3348 H 303.697 -5.24675 -2.64556 0
M  V30 3349 H 305.221 -4.97654 -3.53798 0
M  V30 3350 H 306.635 -5.57271 -1.34618 0
M  V30 3351 H 305.032 -5.96471 -0.658928 0
M  V30 3352 H 306.102 -4.84473 0.203478 0
M  V30 3353 N 307.445 0.0818655 -1.57387 0
M  V30 3354 C 308.694 0.781681 -1.85937 0
M  V30 3355 C 309.007 1.79246 -0.782957 0
M  V30 3356 O 310.213 2.54112 -0.955987 0
M  V30 3357 C 308.669 1.44109 -3.29789 0
M  V30 3358 C 308.277 0.469396 -4.45534 0
M  V30 3359 C 310.021 2.12386 -3.67549 0
M  V30 3360 C 307.928 1.13415 -5.80423 0
M  V30 3361 H 306.858 0.295682 -0.693605 0
M  V30 3362 H 309.509 0.0348051 -1.83467 0
M  V30 3363 H 307.891 2.23588 -3.2684 0
M  V30 3364 H 309.065 -0.294856 -4.59856 0
M  V30 3365 H 307.38 -0.108383 -4.16259 0
M  V30 3366 H 309.977 2.62878 -4.65617 0
M  V30 3367 H 310.32 2.91877 -2.96839 0
M  V30 3368 H 310.853 1.39751 -3.72444 0
M  V30 3369 H 307.592 0.379771 -6.54399 0
M  V30 3370 H 307.112 1.8695 -5.69921 0
M  V30 3371 H 308.791 1.65686 -6.25426 0
M  V30 3372 N 308.923 1.53595 0.353017 0
M  V30 3373 C 309.853 1.83902 1.43883 0
M  V30 3374 C 310.834 0.693421 1.55324 0
M  V30 3375 O 312.019 0.944452 1.69687 0
M  V30 3376 C 309.149 2.04016 2.8106 0
M  V30 3377 C 308.103 3.19814 2.84434 0
M  V30 3378 C 307.429 3.25244 4.24406 0
M  V30 3379 C 308.729 4.58133 2.50822 0
M  V30 3380 H 310.423 2.74835 1.1877 0
M  V30 3381 H 307.969 1.32242 0.569917 0
M  V30 3382 H 309.922 2.238 3.57059 0
M  V30 3383 H 308.646 1.09804 3.07588 0
M  V30 3384 H 307.305 2.9987 2.10887 0
M  V30 3385 H 306.953 2.28646 4.48029 0
M  V30 3386 H 306.653 4.03054 4.27576 0
M  V30 3387 H 308.177 3.47228 5.0226 0
M  V30 3388 H 309.591 4.77995 3.16534 0
M  V30 3389 H 307.988 5.38276 2.6529 0
M  V30 3390 H 309.058 4.62387 1.46034 0
M  V30 3391 N 310.401 -0.613514 1.45168 0
M  V30 3392 C 311.311 -1.75296 1.55912 0
M  V30 3393 C 312.327 -1.68244 0.443856 0
M  V30 3394 O 313.503 -1.88706 0.70371 0
M  V30 3395 C 310.568 -3.1174 1.5172 0
M  V30 3396 C 309.629 -3.30291 2.74238 0
M  V30 3397 C 308.862 -4.60226 2.70236 0
M  V30 3398 O 309.085 -5.42168 1.77229 0
M  V30 3399 O 308.019 -4.81361 3.61352 0
M  V30 3400 H 311.845 -1.69183 2.52212 0
M  V30 3401 H 309.43 -0.776886 1.27612 0
M  V30 3402 H 311.312 -3.93044 1.51968 0
M  V30 3403 H 309.987 -3.18357 0.585697 0
M  V30 3404 H 308.894 -2.48598 2.79553 0
M  V30 3405 H 310.227 -3.28547 3.66494 0
M  V30 3406 N 311.879 -1.3236 -0.855495 0
M  V30 3407 C 313.109 -1.25688 -1.6397 0
M  V30 3408 C 313.517 0.177592 -1.88365 0
M  V30 3409 O 312.86 1.12485 -1.45234 0
M  V30 3410 C 312.922 -1.94602 -3.02275 0
M  V30 3411 C 312.586 -3.43937 -3.00926 0
M  V30 3412 C 313.583 -4.39435 -2.77835 0
M  V30 3413 C 311.268 -3.85858 -3.21588 0
M  V30 3414 C 313.262 -5.74829 -2.75409 0
M  V30 3415 C 310.949 -5.21361 -3.18789 0
M  V30 3416 C 311.947 -6.15658 -2.95727 0
M  V30 3417 O 311.635 -7.48681 -2.928 0
M  V30 3418 H 311.367 -0.434972 -0.51747 0
M  V30 3419 H 313.921 -1.75023 -1.075 0
M  V30 3420 H 312.151 -1.39836 -3.60531 0
M  V30 3421 H 313.84 -1.81651 -3.62985 0
M  V30 3422 H 314.606 -4.08374 -2.6164 0
M  V30 3423 H 310.485 -3.12883 -3.38564 0
M  V30 3424 H 314.029 -6.48404 -2.57328 0
M  V30 3425 H 309.926 -5.52052 -3.34528 0
M  V30 3426 H 310.694 -7.5803 -3.0876 0
M  V30 3427 N 313.357 1.07166 -1.15556 0
M  V30 3428 C 314.32 2.12589 -0.856644 0
M  V30 3429 C 315.32 1.6015 0.14444 0
M  V30 3430 O 316.51 1.7399 -0.0854163 0
M  V30 3431 C 313.642 3.39753 -0.279405 0
M  V30 3432 H 314.835 2.40539 -1.79112 0
M  V30 3433 H 312.388 1.23086 -0.963298 0
M  V30 3434 H 313.123 3.17447 0.663174 0
M  V30 3435 H 312.908 3.79117 -1.00063 0
M  V30 3436 H 314.398 4.17507 -0.0879113 0
M  V30 3437 N 314.835 0.952656 1.25548 0
M  V30 3438 C 316.246 0.647392 1.75116 0
M  V30 3439 C 316.597 -0.837274 1.77438 0
M  V30 3440 O 315.722 -1.65525 1.39393 0
M  V30 3441 C 316.317 1.16845 3.18014 0
M  V30 3442 C 314.876 0.913382 3.6515 0
M  V30 3443 C 314.023 1.31265 2.44264 0
M  V30 3444 H 316.974 1.12968 1.11462 0
M  V30 3445 H 316.995 0.527606 3.76824 0
M  V30 3446 H 316.507 2.24902 3.16292 0
M  V30 3447 H 314.608 -0.152316 3.72289 0
M  V30 3448 H 314.721 1.54845 4.53387 0
M  V30 3449 H 313.085 0.731028 2.43984 0
M  V30 3450 H 313.868 2.40239 2.45234 0
M  V30 3451 N 316.313 -1.40141 0.720998 0
M  V30 3452 C 317.243 -2.33339 0.0867621 0
M  V30 3453 C 318.224 -1.53178 -0.739622 0
M  V30 3454 O 319.409 -1.81625 -0.687449 0
M  V30 3455 C 316.539 -3.37194 -0.831728 0
M  V30 3456 C 315.493 -4.27857 -0.110558 0
M  V30 3457 C 314.819 -5.22294 -1.14513 0
M  V30 3458 C 316.119 -5.11872 1.0385 0
M  V30 3459 H 317.813 -2.86626 0.865219 0
M  V30 3460 H 315.359 -1.37814 0.417516 0
M  V30 3461 H 317.312 -4.01335 -1.28485 0
M  V30 3462 H 316.036 -2.82314 -1.64214 0
M  V30 3463 H 314.695 -3.65176 0.322797 0
M  V30 3464 H 314.343 -4.63717 -1.94874 0
M  V30 3465 H 314.043 -5.83797 -0.667446 0
M  V30 3466 H 315.567 -5.89312 -1.59824 0
M  V30 3467 H 316.981 -5.69436 0.664482 0
M  V30 3468 H 315.378 -5.82445 1.4449 0
M  V30 3469 H 316.448 -4.4753 1.86668 0
M  V30 3470 N 317.792 -0.46758 -1.50504 0
M  V30 3471 C 319.04 0.0884469 -2.01906 0
M  V30 3472 C 319.361 1.40532 -1.35188 0
M  V30 3473 O 318.631 1.89515 -0.496079 0
M  V30 3474 H 317.211 0.0356765 -0.746148 0
M  V30 3475 H 319.873 -0.6172 -1.84869 0
M  V30 3476 H 318.969 0.2425 -3.11156 0
M  V30 3477 N 319.27 1.56325 -0.20005 0
M  V30 3478 C 320.498 2.02105 0.442874 0
M  V30 3479 C 320.913 1.08014 1.5485 0
M  V30 3480 O 320.27 0.0858797 1.82298 0
M  V30 3481 C 320.321 3.47549 0.994583 0
M  V30 3482 O 320.042 4.38049 -0.0669322 0
M  V30 3483 C 321.543 4.0887 1.7129 0
M  V30 3484 H 318.763 0.661807 0.110691 0
M  V30 3485 H 321.307 2.02134 -0.310207 0
M  V30 3486 H 319.462 3.48204 1.69803 0
M  V30 3487 H 319.876 5.23368 0.344462 0
M  V30 3488 H 321.35 5.12475 2.05118 0
M  V30 3489 H 321.827 3.52615 2.61838 0
M  V30 3490 H 322.433 4.12002 1.05518 0
M  V30 3491 N 320.748 -0.0735177 1.57428 0
M  V30 3492 C 321.994 -0.774145 1.87443 0
M  V30 3493 C 322.327 -1.77311 0.792103 0
M  V30 3494 O 321.602 -1.93492 -0.197793 0
M  V30 3495 C 321.885 -1.48367 3.28115 0
M  V30 3496 C 321.738 -0.501227 4.46999 0
M  V30 3497 C 323.057 -2.429 3.66998 0
M  V30 3498 H 320.176 -0.279971 0.681752 0
M  V30 3499 H 322.818 -0.0373616 1.89963 0
M  V30 3500 H 320.968 -2.11171 3.26097 0
M  V30 3501 H 322.64 0.121468 4.6114 0
M  V30 3502 H 320.883 0.183593 4.33411 0
M  V30 3503 H 321.554 -1.03526 5.42205 0
M  V30 3504 H 324.03 -1.90175 3.70098 0
M  V30 3505 H 322.906 -2.89549 4.66318 0
M  V30 3506 H 323.167 -3.27628 2.96837 0
M  V30 3507 N 322.226 -1.5378 -0.344866 0
M  V30 3508 C 323.456 -1.74646 -1.10374 0
M  V30 3509 C 323.864 -0.48491 -1.8288 0
M  V30 3510 O 323.207 0.553062 -1.75177 0
M  V30 3511 C 323.269 -2.87145 -2.16306 0
M  V30 3512 C 322.933 -4.26795 -1.63386 0
M  V30 3513 C 323.93 -5.08412 -1.08688 0
M  V30 3514 C 321.615 -4.73276 -1.68272 0
M  V30 3515 C 323.609 -6.34609 -0.595792 0
M  V30 3516 C 321.296 -5.99446 -1.18776 0
M  V30 3517 C 322.294 -6.79946 -0.645215 0
M  V30 3518 O 321.982 -8.03745 -0.157626 0
M  V30 3519 H 321.714 -0.587112 -0.335075 0
M  V30 3520 H 324.268 -2.01403 -0.403252 0
M  V30 3521 H 322.498 -2.55909 -2.89909 0
M  V30 3522 H 324.187 -2.95992 -2.77747 0
M  V30 3523 H 324.953 -4.73666 -1.04236 0
M  V30 3524 H 320.832 -4.10677 -2.09442 0
M  V30 3525 H 324.376 -6.97389 -0.171654 0
M  V30 3526 H 320.273 -6.33687 -1.22928 0
M  V30 3527 H 321.041 -8.18038 -0.275037 0
M  V30 3528 N 323.704 0.605807 -1.45491 0
M  V30 3529 C 325.12 0.926751 -1.29936 0
M  V30 3530 C 325.32 1.99896 -0.253706 0
M  V30 3531 O 324.376 2.50038 0.351737 0
M  V30 3532 C 325.689 1.36599 -2.67883 0
M  V30 3533 C 327.237 1.4801 -2.75793 0
M  V30 3534 C 327.712 1.95309 -4.14268 0
M  V30 3535 N 329.203 2.0254 -4.16571 0
M  V30 3536 C 329.938 2.40363 -5.20589 0
M  V30 3537 N 329.434 2.77143 -6.34952 0
M  V30 3538 N 331.227 2.40718 -5.07948 0
M  V30 3539 H 323.378 -0.102862 -2.12151 0
M  V30 3540 H 325.641 0.016639 -0.947854 0
M  V30 3541 H 325.347 0.652306 -3.45598 0
M  V30 3542 H 325.221 2.33215 -2.96463 0
M  V30 3543 H 327.608 2.1847 -1.98381 0
M  V30 3544 H 327.689 0.497041 -2.50925 0
M  V30 3545 H 327.333 1.25436 -4.92167 0
M  V30 3546 H 327.263 2.94532 -4.3653 0
M  V30 3547 H 329.754 1.76699 -3.34045 0
M  V30 3548 H 330.067 3.0489 -7.10114 0
M  V30 3549 H 328.412 2.74834 -6.3835 0
M  V30 3550 H 331.603 2.11392 -4.1765 0
M  V30 3551 H 331.776 2.69869 -5.89131 0
M  V30 3552 N 325.182 1.32811 0.848464 0
M  V30 3553 C 326.092 1.24278 1.98978 0
M  V30 3554 C 327.108 0.155176 1.73307 0
M  V30 3555 O 328.284 0.376999 1.9784 0
M  V30 3556 C 325.349 0.972444 3.32783 0
M  V30 3557 C 324.41 2.14911 3.71634 0
M  V30 3558 C 323.643 1.89157 4.99054 0
M  V30 3559 O 323.866 0.837165 5.64223 0
M  V30 3560 O 322.8 2.75433 5.35183 0
M  V30 3561 H 326.626 2.20238 2.09115 0
M  V30 3562 H 324.211 1.12762 0.980052 0
M  V30 3563 H 326.093 0.838432 4.12975 0
M  V30 3564 H 324.768 0.043051 3.23671 0
M  V30 3565 H 323.675 2.33862 2.91992 0
M  V30 3566 H 325.008 3.06151 3.85399 0
M  V30 3567 N 326.66 -1.06551 1.16123 0
M  V30 3568 C 327.59 -2.15935 0.88851 0
M  V30 3569 C 328.571 -1.69306 -0.164135 0
M  V30 3570 O 329.756 -1.94193 -0.0167857 0
M  V30 3571 C 326.886 -3.45149 0.385942 0
M  V30 3572 C 325.84 -4.05271 1.3762 0
M  V30 3573 C 325.166 -5.29664 0.732137 0
M  V30 3574 C 326.466 -4.44355 2.74493 0
M  V30 3575 H 328.16 -2.39006 1.80323 0
M  V30 3576 H 325.706 -1.14866 0.868435 0
M  V30 3577 H 327.659 -4.21004 0.182647 0
M  V30 3578 H 326.383 -3.21689 -0.564274 0
M  V30 3579 H 325.042 -3.3147 1.56599 0
M  V30 3580 H 324.69 -5.02499 -0.224483 0
M  V30 3581 H 324.39 -5.70848 1.39307 0
M  V30 3582 H 325.914 -6.08218 0.538802 0
M  V30 3583 H 327.328 -5.11303 2.59311 0
M  V30 3584 H 325.725 -4.96515 3.37035 0
M  V30 3585 H 326.795 -3.55339 3.29943 0
M  V30 3586 N 328.138 -0.959301 -1.25041 0
M  V30 3587 C 329.07 -0.440543 -2.24926 0
M  V30 3588 C 330.083 0.446131 -1.56568 0
M  V30 3589 O 331.272 0.253657 -1.76689 0
M  V30 3590 C 328.372 0.38412 -3.36716 0
M  V30 3591 C 327.545 -0.490658 -4.34639 0
M  V30 3592 C 326.604 0.276587 -5.25473 0
M  V30 3593 O 325.63 -0.326614 -5.68262 0
M  V30 3594 N 326.832 1.56844 -5.5891 0
M  V30 3595 H 329.597 -1.29931 -2.70071 0
M  V30 3596 H 327.158 -0.830181 -1.38995 0
M  V30 3597 H 329.15 0.905228 -3.94446 0
M  V30 3598 H 327.72 1.14377 -2.90924 0
M  V30 3599 H 326.94 -1.19282 -3.7572 0
M  V30 3600 H 328.228 -1.08756 -4.97041 0
M  V30 3601 H 327.626 2.08036 -5.26059 0
M  V30 3602 H 326.183 2.03541 -6.19205 0
M  V30 3603 N 329.616 1.39756 -0.72842 0
M  V30 3604 C 330.563 2.30647 -0.0841519 0
M  V30 3605 C 331.533 1.48869 0.7367 0
M  V30 3606 O 332.718 1.77574 0.698015 0
M  V30 3607 C 329.858 3.35165 0.822091 0
M  V30 3608 C 328.971 4.31999 -0.0106663 0
M  V30 3609 C 328.106 5.23585 0.896241 0
M  V30 3610 C 327.145 6.12072 0.0583381 0
M  V30 3611 N 326.282 6.96035 0.920818 0
M  V30 3612 H 331.122 2.85173 -0.864891 0
M  V30 3613 H 328.659 1.40422 -0.438179 0
M  V30 3614 H 330.617 3.94345 1.36189 0
M  V30 3615 H 329.247 2.8211 1.56888 0
M  V30 3616 H 328.299 3.74492 -0.66781 0
M  V30 3617 H 329.611 4.9443 -0.658825 0
M  V30 3618 H 328.765 5.87759 1.50412 0
M  V30 3619 H 327.504 4.61459 1.57819 0
M  V30 3620 H 326.509 5.46916 -0.562389 0
M  V30 3621 H 327.734 6.76261 -0.6203 0
M  V30 3622 H 325.68 6.36485 1.58818 0
M  V30 3623 H 325.597 7.55284 0.32899 0
M  V30 3624 H 326.865 7.64646 1.51447 0
M  V30 3625 N 331.094 0.475555 1.50254 0
M  V30 3626 C 332.024 -0.30611 2.31485 0
M  V30 3627 C 333.005 -0.986228 1.38591 0
M  V30 3628 O 334.19 -0.982541 1.67511 0
M  V30 3629 C 331.32 -1.38588 3.1845 0
M  V30 3630 C 330.274 -0.827115 4.19932 0
M  V30 3631 C 329.6 -2.00551 4.95665 0
M  V30 3632 C 330.9 0.16463 5.2204 0
M  V30 3633 H 332.594 0.371866 2.97082 0
M  V30 3634 H 330.14 0.180282 1.42867 0
M  V30 3635 H 332.093 -1.94023 3.74076 0
M  V30 3636 H 330.817 -2.09269 2.50747 0
M  V30 3637 H 329.476 -0.294702 3.65414 0
M  V30 3638 H 329.124 -2.6994 4.2443 0
M  V30 3639 H 328.824 -1.63784 5.64313 0
M  V30 3640 H 330.348 -2.56468 5.54127 0
M  V30 3641 H 331.762 -0.300699 5.72511 0
M  V30 3642 H 330.159 0.446813 5.98434 0
M  V30 3643 H 331.229 1.08905 4.72512 0
M  V30 3644 N 332.573 -1.56217 0.208337 0
M  V30 3645 C 333.798 -2.02782 -0.435222 0
M  V30 3646 C 334.223 -1.08738 -1.53485 0
M  V30 3647 O 333.581 -0.0731855 -1.81152 0
M  V30 3648 C 333.629 -3.47687 -0.956335 0
M  V30 3649 O 332.733 -3.56773 -2.06849 0
M  V30 3650 H 332.074 -0.656403 -0.100158 0
M  V30 3651 H 334.604 -2.02033 0.3231 0
M  V30 3652 H 334.614 -3.87745 -1.26955 0
M  V30 3653 H 333.289 -4.15624 -0.15143 0
M  V30 3654 H 331.866 -3.28597 -1.76292 0
M  V30 3655 N 334.051 0.0651679 -1.57465 0
M  V30 3656 C 334.998 1.07675 -2.04144 0
M  V30 3657 C 335.968 1.38071 -0.923335 0
M  V30 3658 O 337.153 1.49026 -1.19146 0
M  V30 3659 C 334.293 2.38337 -2.49579 0
M  V30 3660 C 333.406 2.14413 -3.75035 0
M  V30 3661 C 332.541 3.38686 -4.09225 0
M  V30 3662 C 331.58 3.10156 -5.27702 0
M  V30 3663 N 330.717 4.26778 -5.57499 0
M  V30 3664 H 335.557 0.671716 -2.90331 0
M  V30 3665 H 333.094 0.3201 -1.43575 0
M  V30 3666 H 335.052 3.14632 -2.73975 0
M  V30 3667 H 333.682 2.7663 -1.6636 0
M  V30 3668 H 332.734 1.2878 -3.57939 0
M  V30 3669 H 334.046 1.89344 -4.61466 0
M  V30 3670 H 333.2 4.23373 -4.34558 0
M  V30 3671 H 331.939 3.66837 -3.21374 0
M  V30 3672 H 330.944 2.23866 -5.02159 0
M  V30 3673 H 332.169 2.8332 -6.17176 0
M  V30 3674 H 330.115 4.54948 -4.72608 0
M  V30 3675 H 330.032 4.05005 -6.38362 0
M  V30 3676 H 331.3 5.12443 -5.87386 0
M  V30 3677 N 335.529 1.53961 0.336706 0
M  V30 3678 C 336.776 1.71536 1.07618 0
M  V30 3679 C 337.104 0.482125 1.8843 0
M  V30 3680 O 336.359 -0.536142 1.88213 0
M  V30 3681 C 336.658 2.93493 2.03953 0
M  V30 3682 C 336.324 4.28811 1.39399 0
M  V30 3683 C 334.986 4.65602 1.21523 0
M  V30 3684 C 337.338 5.12844 0.929541 0
M  V30 3685 C 334.666 5.84037 0.558312 0
M  V30 3686 C 337.018 6.31951 0.286505 0
M  V30 3687 C 335.682 6.67432 0.0954869 0
M  V30 3688 H 334.952 0.627696 0.393801 0
M  V30 3689 H 337.599 1.88186 0.354715 0
M  V30 3690 H 335.904 2.71475 2.82504 0
M  V30 3691 H 337.601 3.04285 2.61174 0
M  V30 3692 H 334.191 3.99858 1.54311 0
M  V30 3693 H 338.375 4.84947 1.05548 0
M  V30 3694 H 333.631 6.10097 0.398995 0
M  V30 3695 H 337.805 6.96352 -0.0814376 0
M  V30 3696 H 335.432 7.59063 -0.415579 0
M  V30 3697 N 337.007 -0.598083 1.45811 0
M  V30 3698 C 338.284 -1.35777 1.40797 0
M  V30 3699 C 338.664 -2.10935 0.083462 0
M  V30 3700 O 338.012 -2.08505 -0.934763 0
M  V30 3701 C 338.222 -2.29666 2.62783 0
M  V30 3702 C 339.57 -2.91977 3.08277 0
M  V30 3703 O 340.594 -2.39984 2.63223 0
M  V30 3704 O 339.453 -3.86376 3.86491 0
M  V30 3705 H 336.547 -0.609291 0.55919 0
M  V30 3706 H 339.093 -0.620379 1.57954 0
M  V30 3707 H 337.865 -1.73454 3.50756 0
M  V30 3708 H 337.488 -3.1077 2.48008 0
M  V30 3709 N 338.485 -1.33259 -0.841409 0
M  V30 3710 C 339.395 -1.25332 -1.98316 0
M  V30 3711 C 340.411 -0.164364 -1.73222 0
M  V30 3712 O 341.587 -0.387486 -1.97637 0
M  V30 3713 C 338.652 -0.990078 -3.32262 0
M  V30 3714 C 337.713 -2.16879 -3.70489 0
M  V30 3715 C 336.946 -1.91801 -4.98044 0
M  V30 3716 O 337.169 -0.867075 -5.63771 0
M  V30 3717 O 336.103 -2.78267 -5.33714 0
M  V30 3718 H 339.929 -2.21344 -2.07944 0
M  V30 3719 H 337.514 -1.1328 -0.974058 0
M  V30 3720 H 339.396 -0.860321 -4.12524 0
M  V30 3721 H 338.071 -0.0602155 -3.23644 0
M  V30 3722 H 336.978 -2.35407 -2.90748 0
M  V30 3723 H 338.311 -3.0819 -3.8377 0
M  V30 3724 N 339.963 1.05934 -1.16686 0
M  V30 3725 C 340.895 2.13468 -0.834503 0
M  V30 3726 C 341.908 1.62013 0.15984 0
M  V30 3727 O 343.097 1.7838 -0.0654228 0
M  V30 3728 C 340.197 3.3817 -0.222361 0
M  V30 3729 C 339.37 4.18928 -1.25771 0
M  V30 3730 C 338.429 5.21985 -0.664703 0
M  V30 3731 O 337.455 5.53334 -1.33453 0
M  V30 3732 N 338.657 5.77919 0.546834 0
M  V30 3733 H 341.422 2.42578 -1.75999 0
M  V30 3734 H 338.983 1.21967 -1.06469 0
M  V30 3735 H 340.975 4.04266 0.187472 0
M  V30 3736 H 339.545 3.06655 0.606758 0
M  V30 3737 H 338.765 3.48433 -1.84358 0
M  V30 3738 H 340.053 4.69687 -1.95631 0
M  V30 3739 H 339.451 5.54721 1.10912 0
M  V30 3740 H 338.008 6.45573 0.898829 0
M  V30 3741 N 341.441 0.965919 1.2453 0
M  V30 3742 C 342.857 0.67216 1.44756 0
M  V30 3743 C 343.057 -0.766609 1.86347 0
M  V30 3744 O 342.113 -1.5407 2.00047 0
M  V30 3745 C 343.426 1.65473 2.51076 0
M  V30 3746 C 344.974 1.66716 2.64905 0
M  V30 3747 C 345.449 2.63766 3.74421 0
M  V30 3748 N 346.94 2.62198 3.81846 0
M  V30 3749 C 347.675 3.33966 4.66106 0
M  V30 3750 N 347.171 4.15245 5.54566 0
M  V30 3751 N 348.964 3.22799 4.60171 0
M  V30 3752 H 341.115 1.89553 0.958293 0
M  V30 3753 H 343.378 0.815979 0.482579 0
M  V30 3754 H 343.084 2.68296 2.27399 0
M  V30 3755 H 342.958 1.4261 3.49202 0
M  V30 3756 H 345.345 0.646057 2.87941 0
M  V30 3757 H 345.426 1.93642 1.67142 0
M  V30 3758 H 345.07 3.6601 3.52135 0
M  V30 3759 H 345 2.34121 4.71694 0
M  V30 3760 H 347.491 2.032 3.18619 0
M  V30 3761 H 347.804 4.66898 6.15814 0
M  V30 3762 H 346.149 4.1934 5.54237 0
M  V30 3763 H 349.34 2.58764 3.90075 0
M  V30 3764 H 349.513 3.78994 5.25612 0
M  V30 3765 N 342.919 -1.39368 0.735821 0
M  V30 3766 C 344.147 -2.04795 0.294393 0
M  V30 3767 C 344.562 -1.55478 -1.07107 0
M  V30 3768 O 343.919 -0.720038 -1.67695 0
M  V30 3769 C 343.97 -3.6035 0.288071 0
M  V30 3770 O 343.691 -4.07852 1.59963 0
M  V30 3771 C 345.192 -4.42976 -0.169422 0
M  V30 3772 H 342.412 -0.658571 0.128551 0
M  V30 3773 H 344.956 -1.78399 0.999701 0
M  V30 3774 H 343.111 -3.85645 -0.368355 0
M  V30 3775 H 343.525 -5.02181 1.51375 0
M  V30 3776 H 344.999 -5.51864 -0.122687 0
M  V30 3777 H 345.476 -4.22068 -1.21472 0
M  V30 3778 H 346.082 -4.22832 0.457469 0
M  V30 3779 N 344.397 -0.483516 -1.5 0
M  V30 3780 C 345.36 0.292965 -2.2732 0
M  V30 3781 C 346.36 0.909499 -1.32608 0
M  V30 3782 O 347.55 0.776745 -1.55924 0
M  V30 3783 C 344.682 1.41854 -3.09984 0
M  V30 3784 H 345.875 -0.385289 -2.97415 0
M  V30 3785 H 343.428 -0.237942 -1.54478 0
M  V30 3786 H 344.163 2.13148 -2.44414 0
M  V30 3787 H 343.948 0.982114 -3.79601 0
M  V30 3788 H 345.438 1.96597 -3.68429 0
M  V30 3789 N 345.875 1.56104 -0.216619 0
M  V30 3790 C 347.103 2.02563 0.421413 0
M  V30 3791 C 347.518 1.0965 1.53695 0
M  V30 3792 O 346.875 0.10521 1.82196 0
M  V30 3793 C 346.926 3.48584 0.957665 0
M  V30 3794 O 346.647 4.37953 -0.113389 0
M  V30 3795 C 348.148 4.10664 1.66943 0
M  V30 3796 H 345.368 0.662944 0.103665 0
M  V30 3797 H 347.912 2.01793 -0.331629 0
M  V30 3798 H 346.067 3.49985 1.661 0
M  V30 3799 H 346.481 5.23704 0.288932 0
M  V30 3800 H 347.955 5.14622 1.99671 0
M  V30 3801 H 348.432 3.55373 2.58083 0
M  V30 3802 H 349.038 4.13098 1.01142 0
M  V30 3803 N 347.353 -0.0568162 1.57498 0
M  V30 3804 C 348.583 -0.764515 1.91934 0
M  V30 3805 C 348.991 -1.70877 0.81227 0
M  V30 3806 O 348.334 -1.82351 -0.222213 0
M  V30 3807 C 348.396 -1.5994 3.21962 0
M  V30 3808 C 348.06 -0.822925 4.4953 0
M  V30 3809 C 349.057 -0.135464 5.19723 0
M  V30 3810 C 346.742 -0.785666 4.96117 0
M  V30 3811 C 348.736 0.578861 6.34766 0
M  V30 3812 C 346.423 -0.0675784 6.11063 0
M  V30 3813 C 347.421 0.613471 6.80239 0
M  V30 3814 O 347.109 1.31996 7.92989 0
M  V30 3815 H 346.841 -0.221647 0.63863 0
M  V30 3816 H 349.395 -0.0268218 2.05382 0
M  V30 3817 H 347.625 -2.38026 3.04763 0
M  V30 3818 H 349.314 -2.18715 3.41934 0
M  V30 3819 H 350.08 -0.155458 4.84751 0
M  V30 3820 H 345.959 -1.30524 4.42136 0
M  V30 3821 H 349.503 1.111 6.88696 0
M  V30 3822 H 345.4 -0.0455636 6.45484 0
M  V30 3823 H 346.168 1.23077 8.09194 0
M  V30 3824 N 348.832 -1.54138 -0.328536 0
M  V30 3825 C 350.081 -1.71318 -1.06456 0
M  V30 3826 C 350.394 -0.491109 -1.89334 0
M  V30 3827 O 351.6 -0.54416 -2.65991 0
M  V30 3828 C 350.056 -3.03 -1.94214 0
M  V30 3829 C 349.664 -4.32595 -1.16471 0
M  V30 3830 C 351.408 -3.29544 -2.67583 0
M  V30 3831 C 349.315 -5.55341 -2.03347 0
M  V30 3832 H 348.245 -0.638429 -0.401155 0
M  V30 3833 H 350.896 -1.80633 -0.323106 0
M  V30 3834 H 349.278 -2.87579 -2.72239 0
M  V30 3835 H 350.452 -4.58766 -0.432525 0
M  V30 3836 H 348.767 -4.12777 -0.548063 0
M  V30 3837 H 351.364 -4.18444 -3.3288 0
M  V30 3838 H 351.707 -2.47206 -3.34955 0
M  V30 3839 H 352.24 -3.45809 -1.96623 0
M  V30 3840 H 348.979 -6.40268 -1.40491 0
M  V30 3841 H 348.499 -5.33397 -2.74313 0
M  V30 3842 H 350.178 -5.91557 -2.62049 0
M  V30 3843 N 350.31 0.590341 -1.46126 0
M  V30 3844 C 351.538 1.37504 -1.54597 0
M  V30 3845 C 351.953 1.87897 -0.184447 0
M  V30 3846 O 351.31 1.63192 0.816984 0
M  V30 3847 C 351.361 2.56779 -2.54454 0
M  V30 3848 O 351.082 2.08476 -3.85317 0
M  V30 3849 C 352.583 3.49427 -2.72792 0
M  V30 3850 H 349.803 0.420325 -0.523037 0
M  V30 3851 H 352.347 0.718383 -1.91467 0
M  V30 3852 H 350.502 3.1845 -2.20609 0
M  V30 3853 H 350.916 2.86097 -4.396 0
M  V30 3854 H 352.39 4.29619 -3.466 0
M  V30 3855 H 352.867 4.00876 -1.79429 0
M  V30 3856 H 353.473 2.93598 -3.07702 0
M  V30 3857 N 351.788 1.33704 0.83433 0
M  V30 3858 C 352.698 1.26382 1.97648 0
M  V30 3859 C 353.714 0.173548 1.73132 0
M  V30 3860 O 354.89 0.397962 1.97429 0
M  V30 3861 C 351.955 1.00769 3.31733 0
M  V30 3862 C 351.016 2.1884 3.69334 0
M  V30 3863 C 350.249 1.9444 4.9702 0
M  V30 3864 O 350.472 0.896961 5.63303 0
M  V30 3865 O 349.406 2.81093 5.32231 0
M  V30 3866 H 353.232 2.22444 2.06767 0
M  V30 3867 H 350.817 1.13795 0.968037 0
M  V30 3868 H 352.699 0.882186 4.12062 0
M  V30 3869 H 351.374 0.0773783 3.23608 0
M  V30 3870 H 350.281 2.36946 2.89495 0
M  V30 3871 H 351.614 3.10221 3.82131 0
M  V30 3872 N 353.266 -1.05314 1.17247 0
M  V30 3873 C 354.196 -2.1498 0.911362 0
M  V30 3874 C 355.177 -1.69471 -0.146169 0
M  V30 3875 O 356.362 -1.942 0.003812 0
M  V30 3876 C 353.492 -3.4472 0.422528 0
M  V30 3877 C 352.446 -4.03789 1.4191 0
M  V30 3878 C 351.772 -5.28858 0.788274 0
M  V30 3879 C 353.072 -4.41418 2.7919 0
M  V30 3880 H 354.766 -2.3708 1.82848 0
M  V30 3881 H 352.312 -1.13938 0.880569 0
M  V30 3882 H 354.265 -4.20787 0.227289 0
M  V30 3883 H 352.989 -3.22269 -0.530123 0
M  V30 3884 H 351.648 -3.2979 1.60106 0
M  V30 3885 H 351.296 -5.02709 -0.171173 0
M  V30 3886 H 350.996 -5.69338 1.45353 0
M  V30 3887 H 352.52 -6.07612 0.603282 0
M  V30 3888 H 353.934 -5.08524 2.64719 0
M  V30 3889 H 352.331 -4.92913 3.42282 0
M  V30 3890 H 353.401 -3.51819 3.33693 0
M  V30 3891 N 354.744 -0.972509 -1.24016 0
M  V30 3892 C 355.707 -0.511403 -2.23422 0
M  V30 3893 C 356.707 0.394679 -1.55881 0
M  V30 3894 O 357.897 0.189469 -1.73167 0
M  V30 3895 C 355.029 0.258769 -3.39916 0
M  V30 3896 H 356.222 -1.39024 -2.6573 0
M  V30 3897 H 353.775 -0.757585 -1.36713 0
M  V30 3898 H 354.51 1.1545 -3.03054 0
M  V30 3899 H 354.295 -0.391522 -3.9014 0
M  V30 3900 H 355.785 0.570244 -4.13688 0
M  V30 3901 N 356.222 1.38976 -0.743202 0
M  V30 3902 C 357.17 2.32394 -0.0978389 0
M  V30 3903 C 358.164 1.53486 0.716824 0
M  V30 3904 O 359.37 1.69092 0.617088 0
M  V30 3905 H 355.745 0.75189 -0.0128402 0
M  V30 3906 H 357.716 2.84441 -0.901981 0
M  V30 3907 C 356.465 3.38629 0.789036 0
M  V30 3908 H 355.788 3.99432 0.171559 0
M  V30 3909 H 357.228 4.06426 1.20807 0
M  V30 3910 C 355.687 2.76347 1.92702 0
M  V30 3911 O 356.217 2.64836 3.02034 0
M  V30 3912 N 354.423 2.34311 1.71891 0
M  V30 3913 H 353.97 2.43873 0.829675 0
M  V30 3914 H 353.928 1.9298 2.48205 0
M  V30 3915 N 357.7 0.491464 1.49741 0
M  V30 3916 C 358.663 -0.280906 2.27472 0
M  V30 3917 C 359.663 -0.902454 1.33088 0
M  V30 3918 O 360.853 -0.768465 1.56334 0
M  V30 3919 C 357.985 -1.40209 3.10732 0
M  V30 3920 H 359.178 0.401056 2.97206 0
M  V30 3921 H 356.731 0.246131 1.5435 0
M  V30 3922 H 357.466 -2.11849 2.45541 0
M  V30 3923 H 357.251 -0.961969 3.80117 0
M  V30 3924 H 358.741 -1.9464 3.69466 0
M  V30 3925 N 359.178 -1.55987 0.224894 0
M  V30 3926 C 360.108 -2.23426 -0.678457 0
M  V30 3927 C 361.089 -1.20709 -1.19847 0
M  V30 3928 O 362.274 -1.49304 -1.24186 0
M  V30 3929 C 359.404 -2.91676 -1.88527 0
M  V30 3930 C 358.358 -4.00893 -1.49896 0
M  V30 3931 C 357.684 -4.56455 -2.78483 0
M  V30 3932 C 358.984 -5.17769 -0.686461 0
M  V30 3933 H 360.678 -2.99175 -0.116173 0
M  V30 3934 H 358.224 -1.43897 -0.054436 0
M  V30 3935 H 360.177 -3.37547 -2.5227 0
M  V30 3936 H 358.901 -2.1338 -2.47258 0
M  V30 3937 H 357.56 -3.55758 -0.884985 0
M  V30 3938 H 357.208 -3.74886 -3.35365 0
M  V30 3939 H 356.908 -5.30169 -2.53368 0
M  V30 3940 H 358.432 -5.05047 -3.43162 0
M  V30 3941 H 359.846 -5.60001 -1.22767 0
M  V30 3942 H 358.243 -5.97735 -0.532259 0
M  V30 3943 H 359.313 -4.83932 0.306196 0
M  V30 3944 N 360.656 0.0484629 -1.57525 0
M  V30 3945 C 361.881 0.759177 -1.93006 0
M  V30 3946 C 362.306 1.69125 -0.823317 0
M  V30 3947 O 361.664 1.79931 0.222364 0
M  V30 3948 C 361.712 1.50899 -3.27509 0
M  V30 3949 O 360.816 2.62112 -3.18388 0
M  V30 3950 H 360.157 0.205564 -0.631379 0
M  V30 3951 H 362.687 0.00972959 -2.04598 0
M  V30 3952 H 362.697 1.88317 -3.6194 0
M  V30 3953 H 361.372 0.825269 -4.0763 0
M  V30 3954 H 359.949 2.27379 -2.95556 0
M  V30 3955 N 362.134 1.5431 0.320358 0
M  V30 3956 C 363.364 1.7638 1.07582 0
M  V30 3957 C 363.772 0.513944 1.82086 0
M  V30 3958 O 363.115 -0.525123 1.76035 0
M  V30 3959 C 363.177 2.9055 2.1171 0
M  V30 3960 C 362.841 4.2934 1.56575 0
M  V30 3961 C 363.838 5.10077 1.00586 0
M  V30 3962 C 361.523 4.75893 1.60722 0
M  V30 3963 C 363.517 6.35477 0.494756 0
M  V30 3964 C 361.204 6.0126 1.09224 0
M  V30 3965 C 362.202 6.80886 0.53696 0
M  V30 3966 O 361.89 8.03894 0.0297371 0
M  V30 3967 H 361.622 0.592369 0.325692 0
M  V30 3968 H 364.176 2.02019 0.37116 0
M  V30 3969 H 362.406 2.60489 2.85801 0
M  V30 3970 H 364.095 3.00373 2.73003 0
M  V30 3971 H 364.861 4.75265 0.966869 0
M  V30 3972 H 360.74 4.13957 2.02882 0
M  V30 3973 H 364.284 6.97574 0.0606842 0
M  V30 3974 H 360.181 6.35562 1.12831 0
M  V30 3975 H 360.949 8.18372 0.14486 0
M  V30 3976 N 363.613 -0.582584 1.46437 0
M  V30 3977 C 364.853 -1.35184 1.53312 0
M  V30 3978 C 365.217 -1.9115 0.180508 0
M  V30 3979 O 366.418 -2.68514 0.124017 0
M  V30 3980 C 364.689 -2.45089 2.60127 0
M  V30 3981 S 366.248 -3.32439 2.86408 0
M  V30 3982 H 363.066 -0.460559 0.54167 0
M  V30 3983 H 365.668 -0.669709 1.83671 0
M  V30 3984 H 364.372 -2.02366 3.57038 0
M  V30 3985 H 363.903 -3.18074 2.315 0
M  V30 3986 H 365.918 -4.43924 2.21688 0
M  V30 3987 N 365.091 -1.34144 -0.827227 0
M  V30 3988 C 366.041 -1.21923 -1.92663 0
M  V30 3989 C 367.025 -0.119294 -1.60457 0
M  V30 3990 O 368.217 -0.348539 -1.73534 0
M  V30 3991 C 365.346 -0.972492 -3.29238 0
M  V30 3992 C 364.432 -2.1154 -3.67576 0
M  V30 3993 N 364.823 -3.36627 -3.77512 0
M  V30 3994 C 363.121 -2.02468 -3.97395 0
M  V30 3995 C 363.822 -4.11658 -4.1099 0
M  V30 3996 N 362.798 -3.40207 -4.23981 0
M  V30 3997 H 366.6 -2.16721 -1.98517 0
M  V30 3998 H 364.114 -1.2632 -1.02064 0
M  V30 3999 H 366.111 -0.865847 -4.0781 0
M  V30 4000 H 364.771 -0.0331509 -3.24683 0
M  V30 4001 H 365.782 -3.71234 -3.61118 0
M  V30 4002 H 362.459 -1.16265 -4.00985 0
M  V30 4003 H 363.849 -5.19657 -4.25918 0
M  V30 4004 N 366.569 1.04691 -1.17803 0
M  V30 4005 C 367.794 1.81984 -0.994813 0
M  V30 4006 C 368.219 1.82586 0.452112 0
M  V30 4007 O 367.577 1.23854 1.324 0
M  V30 4008 C 367.625 3.2575 -1.54659 0
M  V30 4009 O 366.729 4.05267 -0.763728 0
M  V30 4010 H 366.07 0.562483 -0.352857 0
M  V30 4011 H 368.6 1.3189 -1.56417 0
M  V30 4012 H 368.61 3.76541 -1.57102 0
M  V30 4013 H 367.285 3.24627 -2.59981 0
M  V30 4014 H 365.862 3.63972 -0.811108 0
M  V30 4015 N 368.047 0.979072 1.23499 0
M  V30 4016 C 368.994 0.517904 2.24914 0
M  V30 4017 C 369.964 -0.442525 1.60097 0
M  V30 4018 O 371.149 -0.350365 1.87556 0
M  V30 4019 C 368.289 -0.174813 3.44657 0
M  V30 4020 C 367.402 0.825721 4.24035 0
M  V30 4021 C 366.537 0.107946 5.3109 0
M  V30 4022 C 365.576 1.09778 6.02175 0
M  V30 4023 N 364.713 0.40925 7.00906 0
M  V30 4024 H 369.553 1.38751 2.63727 0
M  V30 4025 H 367.09 0.695303 1.2963 0
M  V30 4026 H 369.048 -0.593233 4.12961 0
M  V30 4027 H 367.678 -1.0083 3.06648 0
M  V30 4028 H 366.73 1.36253 3.55161 0
M  V30 4029 H 368.042 1.58005 4.73113 0
M  V30 4030 H 367.196 -0.367904 6.05583 0
M  V30 4031 H 365.935 -0.678994 4.8295 0
M  V30 4032 H 364.94 1.5844 5.26476 0
M  V30 4033 H 366.165 1.88536 6.52404 0
M  V30 4034 H 364.111 -0.358506 6.5502 0
M  V30 4035 H 364.028 1.10226 7.47921 0
M  V30 4036 H 365.296 -0.0442557 7.79487 0
M  V30 4037 N 369.525 -1.3858 0.750561 0
M  V30 4038 C 370.941 -1.53759 0.427824 0
M  V30 4039 C 371.141 -1.71401 -1.05943 0
M  V30 4040 O 370.197 -1.72331 -1.84549 0
M  V30 4041 C 371.51 -2.74642 1.22443 0
M  V30 4042 C 373.058 -2.88489 1.2142 0
M  V30 4043 C 373.533 -4.12329 1.9937 0
M  V30 4044 N 375.024 -4.194 1.96616 0
M  V30 4045 C 375.759 -5.14209 2.53727 0
M  V30 4046 N 375.255 -6.14709 3.19539 0
M  V30 4047 N 377.048 -5.06537 2.43673 0
M  V30 4048 H 369.199 -1.25377 1.71447 0
M  V30 4049 H 371.462 -0.608844 0.726645 0
M  V30 4050 H 371.168 -2.68 2.27747 0
M  V30 4051 H 371.042 -3.67745 0.839273 0
M  V30 4052 H 373.429 -2.94614 0.169232 0
M  V30 4053 H 373.51 -1.96406 1.63885 0
M  V30 4054 H 373.154 -4.06966 3.03877 0
M  V30 4055 H 373.084 -5.03486 1.54302 0
M  V30 4056 H 375.575 -3.47421 1.48684 0
M  V30 4057 H 375.888 -6.8354 3.60545 0
M  V30 4058 H 374.233 -6.1505 3.23633 0
M  V30 4059 H 377.424 -4.26962 1.91889 0
M  V30 4060 H 377.597 -5.80245 2.88479 0
M  V30 4061 N 371.003 -0.499398 -1.49478 0
M  V30 4062 C 372.249 0.0457576 -2.02748 0
M  V30 4063 C 372.582 1.36793 -1.37846 0
M  V30 4064 O 371.857 1.87596 -0.513601 0
M  V30 4065 C 372.14 0.199986 -3.59544 0
M  V30 4066 C 371.993 -1.1452 -4.34977 0
M  V30 4067 C 373.312 0.94137 -4.29914 0
M  V30 4068 H 370.431 0.0151552 -0.736844 0
M  V30 4069 H 373.073 -0.650498 -1.78518 0
M  V30 4070 H 371.223 0.793007 -3.8032 0
M  V30 4071 H 372.895 -1.77697 -4.25701 0
M  V30 4072 H 371.138 -1.73488 -3.97598 0
M  V30 4073 H 371.809 -0.990607 -5.43039 0
M  V30 4074 H 374.285 0.43844 -4.13784 0
M  V30 4075 H 373.161 1.01812 -5.39375 0
M  V30 4076 H 373.422 1.98471 -3.95046 0
M  V30 4077 N 372.481 1.55866 -0.233164 0
M  V30 4078 C 373.73 1.97779 0.39579 0
M  V30 4079 C 374.043 1.12419 1.60066 0
M  V30 4080 O 375.249 1.44283 2.29988 0
M  V30 4081 C 373.705 3.5188 0.755556 0
M  V30 4082 C 373.313 4.45959 -0.427152 0
M  V30 4083 C 375.057 4.02479 1.34946 0
M  V30 4084 C 372.964 5.91383 -0.0443043 0
M  V30 4085 H 371.894 0.738592 0.15165 0
M  V30 4086 H 374.545 1.80486 -0.331212 0
M  V30 4087 H 372.927 3.64816 1.5403 0
M  V30 4088 H 374.101 4.44776 -1.20462 0
M  V30 4089 H 372.416 4.05765 -0.935068 0
M  V30 4090 H 375.013 5.08637 1.649 0
M  V30 4091 H 375.356 3.49014 2.26925 0
M  V30 4092 H 375.889 3.92813 0.62791 0
M  V30 4093 H 372.628 6.48857 -0.930874 0
M  V30 4094 H 372.148 5.95734 0.697238 0
M  V30 4095 H 373.827 6.45893 0.378334 0
M  V30 4096 N 373.959 -0.0401083 1.57549 0
M  V30 4097 C 374.909 -1.05175 2.02292 0
M  V30 4098 C 375.893 -1.32674 0.910294 0
M  V30 4099 O 377.085 -1.32444 1.17421 0
M  V30 4100 C 374.214 -2.35622 2.49674 0
M  V30 4101 C 373.3 -2.11261 3.67736 0
M  V30 4102 N 373.691 -1.56923 4.80842 0
M  V30 4103 C 371.989 -2.41596 3.74897 0
M  V30 4104 C 372.69 -1.48111 5.62528 0
M  V30 4105 N 371.666 -1.95282 5.07312 0
M  V30 4106 H 375.468 -0.625455 2.87168 0
M  V30 4107 H 372.982 -0.246624 1.60516 0
M  V30 4108 H 374.979 -3.08893 2.79983 0
M  V30 4109 H 373.639 -2.7894 1.662 0
M  V30 4110 H 374.65 -1.25345 5.02503 0
M  V30 4111 H 371.327 -2.88064 3.02201 0
M  V30 4112 H 372.717 -1.06683 6.63377 0
M  V30 4113 N 375.437 -1.54477 -0.31217 0
M  V30 4114 C 376.853 -1.45442 -0.657185 0
M  V30 4115 C 377.053 -0.63653 -1.91182 0
M  V30 4116 O 376.109 -0.139815 -2.52113 0
M  V30 4117 C 377.422 -2.89287 -0.82058 0
M  V30 4118 C 378.97 -2.9926 -0.917188 0
M  V30 4119 C 379.445 -4.44279 -1.11267 0
M  V30 4120 N 380.936 -4.4794 -1.17914 0
M  V30 4121 C 381.671 -5.57318 -1.34848 0
M  V30 4122 N 381.167 -6.76642 -1.48752 0
M  V30 4123 N 382.96 -5.44986 -1.37647 0
M  V30 4124 H 375.111 -2.06129 0.512313 0
M  V30 4125 H 377.374 -0.933088 0.167485 0
M  V30 4126 H 377.08 -3.51687 0.0302604 0
M  V30 4127 H 376.954 -3.36061 -1.71298 0
M  V30 4128 H 379.341 -2.36981 -1.75852 0
M  V30 4129 H 379.422 -2.558 -0.00101257 0
M  V30 4130 H 379.066 -5.07149 -0.27614 0
M  V30 4131 H 378.996 -4.85359 -2.04289 0
M  V30 4132 H 381.487 -3.61969 -1.08567 0
M  V30 4133 H 381.8 -7.55758 -1.61397 0
M  V30 4134 H 380.145 -6.79529 -1.45828 0
M  V30 4135 H 383.336 -4.50715 -1.26388 0
M  V30 4136 H 383.509 -6.3028 -1.50501 0
M  V30 4137 N 376.915 0.57481 -1.46744 0
M  V30 4138 C 378.192 1.3352 -1.4294 0
M  V30 4139 C 378.572 2.10775 -0.117009 0
M  V30 4140 O 377.92 2.09966 0.901474 0
M  V30 4141 C 378.13 2.25456 -2.66403 0
M  V30 4142 C 379.478 2.87035 -3.12883 0
M  V30 4143 O 380.502 2.35766 -2.67007 0
M  V30 4144 O 379.361 3.80179 -3.92589 0
M  V30 4145 H 376.455 0.600318 -0.568812 0
M  V30 4146 H 379.001 0.595171 -1.58921 0
M  V30 4147 H 377.773 1.67851 -3.53471 0
M  V30 4148 H 377.396 3.06785 -2.52921 0
M  V30 4149 N 378.394 1.34581 0.820102 0
M  V30 4150 C 379.643 1.26437 1.57151 0
M  V30 4151 C 379.956 -0.163111 1.94919 0
M  V30 4152 O 381.162 -0.366722 2.69012 0
M  V30 4153 C 379.618 2.21658 2.83541 0
M  V30 4154 C 379.226 3.69679 2.53065 0
M  V30 4155 C 380.97 2.22428 3.61561 0
M  V30 4156 C 378.877 4.56761 3.75664 0
M  V30 4157 H 377.807 0.469707 0.589823 0
M  V30 4158 H 380.458 1.59763 0.902656 0
M  V30 4159 H 378.84 1.81287 3.52067 0
M  V30 4160 H 380.014 4.18605 1.92631 0
M  V30 4161 H 378.329 3.71384 1.88316 0
M  V30 4162 H 380.926 2.8471 4.52597 0
M  V30 4163 H 381.269 1.22434 3.97889 0
M  V30 4164 H 381.802 2.61259 2.99981 0
M  V30 4165 H 378.541 5.57702 3.44454 0
M  V30 4166 H 378.061 4.12568 4.35371 0
M  V30 4167 H 379.74 4.71509 4.43044 0
M  V30 4168 N 379.872 -1.04064 1.18357 0
M  V30 4169 C 380.819 -2.12077 0.910603 0
M  V30 4170 C 381.789 -1.65421 -0.15 0
M  V30 4171 O 382.974 -1.90797 -0.0103614 0
M  V30 4172 C 380.114 -3.42252 0.442472 0
M  V30 4173 C 379.227 -4.0252 1.5685 0
M  V30 4174 C 378.362 -5.20657 1.05309 0
M  V30 4175 C 377.401 -5.72955 2.1538 0
M  V30 4176 N 376.538 -6.8238 1.65233 0
M  V30 4177 H 381.378 -2.34764 1.83548 0
M  V30 4178 H 378.915 -1.15157 0.915279 0
M  V30 4179 H 380.873 -4.16921 0.152534 0
M  V30 4180 H 379.503 -3.19712 -0.445428 0
M  V30 4181 H 378.555 -3.25178 1.97391 0
M  V30 4182 H 379.867 -4.37362 2.39824 0
M  V30 4183 H 379.021 -6.0244 0.717677 0
M  V30 4184 H 377.76 -4.87318 0.19293 0
M  V30 4185 H 376.765 -4.89793 2.49766 0
M  V30 4186 H 377.99 -6.08337 3.01832 0
M  V30 4187 H 375.936 -6.50917 0.815064 0
M  V30 4188 H 375.853 -7.16286 2.41805 0
M  V30 4189 H 377.121 -7.67788 1.34619 0
M  V30 4190 N 381.35 -0.985608 -1.22978 0
M  V30 4191 C 382.761 -0.693593 -1.73338 0
M  V30 4192 C 383.112 0.789935 -1.79595 0
M  V30 4193 O 382.237 1.61771 -1.43733 0
M  V30 4194 C 382.832 -1.25235 -3.14804 0
M  V30 4195 C 381.391 -1.00987 -3.626 0
M  V30 4196 C 380.538 -1.37695 -2.40698 0
M  V30 4197 H 383.489 -1.15884 -1.08428 0
M  V30 4198 H 383.51 -0.627329 -3.75293 0
M  V30 4199 H 383.022 -2.33209 -3.10218 0
M  V30 4200 H 381.123 0.0535565 -3.72562 0
M  V30 4201 H 381.236 -1.66812 -4.49122 0
M  V30 4202 H 379.6 -0.795459 -2.4196 0
M  V30 4203 H 380.383 -2.46657 -2.38779 0
M  V30 4204 N 382.828 1.3818 -0.7579 0
M  V30 4205 C 383.738 2.3421 -0.135247 0
M  V30 4206 C 384.754 1.59487 0.695683 0
M  V30 4207 O 385.93 1.91657 0.618832 0
M  V30 4208 C 382.995 3.3862 0.744139 0
M  V30 4209 C 382.056 4.2918 -0.101658 0
M  V30 4210 C 381.289 5.28603 0.735851 0
M  V30 4211 O 381.512 5.35166 1.97366 0
M  V30 4212 O 380.446 6.01707 0.152372 0
M  V30 4213 H 384.272 2.8916 -0.928436 0
M  V30 4214 H 381.857 1.40101 -0.518855 0
M  V30 4215 H 383.739 4.02539 1.2466 0
M  V30 4216 H 382.414 2.86019 1.51575 0
M  V30 4217 H 381.321 3.68407 -0.650167 0
M  V30 4218 H 382.654 4.85048 -0.836024 0
M  V30 4219 N 384.306 0.507319 1.49211 0
M  V30 4220 C 385.254 -0.281364 2.30892 0
M  V30 4221 C 386.248 -0.95687 1.39787 0
M  V30 4222 O 387.454 -0.883838 1.56807 0
M  V30 4223 H 383.829 -0.109597 0.743971 0
M  V30 4224 H 385.8 0.42744 2.95323 0
M  V30 4225 C 384.549 -1.32918 3.21291 0
M  V30 4226 H 383.872 -0.818799 3.91326 0
M  V30 4227 H 385.312 -1.85288 3.81372 0
M  V30 4228 C 383.771 -2.35074 2.41333 0
M  V30 4229 O 384.301 -3.4108 2.12197 0
M  V30 4230 N 382.507 -2.07705 2.03241 0
M  V30 4231 H 382.054 -1.2152 2.27136 0
M  V30 4232 H 382.012 -2.76283 1.50051 0
M  V30 4233 N 385.784 -1.5574 0.241426 0
M  V30 4234 C 386.714 -2.24133 -0.654722 0
M  V30 4235 C 387.695 -1.21974 -1.1856 0
M  V30 4236 O 388.88 -1.50612 -1.22595 0
M  V30 4237 C 386.01 -2.93659 -1.85423 0
M  V30 4238 C 384.964 -4.0246 -1.45636 0
M  V30 4239 C 384.29 -4.59383 -2.73626 0
M  V30 4240 C 385.59 -5.18468 -0.631506 0
M  V30 4241 H 387.284 -2.99281 -0.0844353 0
M  V30 4242 H 384.83 -1.43947 -0.0391707 0
M  V30 4243 H 386.783 -3.40203 -2.48676 0
M  V30 4244 H 385.507 -2.15991 -2.44981 0
M  V30 4245 H 384.166 -3.56676 -0.847202 0
M  V30 4246 H 383.814 -3.78422 -3.3137 0
M  V30 4247 H 383.514 -5.32826 -2.4773 0
M  V30 4248 H 385.038 -5.08658 -3.37786 0
M  V30 4249 H 386.452 -5.61272 -1.1682 0
M  V30 4250 H 384.849 -5.98266 -0.468831 0
M  V30 4251 H 385.919 -4.8358 0.357506 0
M  V30 4252 N 387.262 0.0317525 -1.57568 0
M  V30 4253 C 388.192 1.03274 -2.0942 0
M  V30 4254 C 389.173 1.3788 -0.996143 0
M  V30 4255 O 390.358 1.46811 -1.27122 0
M  V30 4256 C 387.488 2.33448 -2.57137 0
M  V30 4257 C 386.442 2.13091 -3.71182 0
M  V30 4258 C 385.768 3.49001 -4.05095 0
M  V30 4259 C 387.068 1.51928 -4.99715 0
M  V30 4260 H 388.762 0.60112 -2.93303 0
M  V30 4261 H 386.308 0.287705 -1.41097 0
M  V30 4262 H 388.261 3.03802 -2.92032 0
M  V30 4263 H 386.985 2.78665 -1.70333 0
M  V30 4264 H 385.644 1.45171 -3.36632 0
M  V30 4265 H 385.292 3.91862 -3.15362 0
M  V30 4266 H 384.992 3.36207 -4.81911 0
M  V30 4267 H 386.516 4.20721 -4.42522 0
M  V30 4268 H 387.93 2.12196 -5.32584 0
M  V30 4269 H 386.327 1.49716 -5.81124 0
M  V30 4270 H 387.397 0.484811 -4.8247 0
M  V30 4271 N 388.74 1.54641 0.303973 0
M  V30 4272 C 389.67 1.88386 1.3796 0
M  V30 4273 C 390.651 0.742485 1.5304 0
M  V30 4274 O 391.836 0.997959 1.66597 0
M  V30 4275 C 388.966 2.12854 2.74427 0
M  V30 4276 C 387.92 3.28702 2.74115 0
M  V30 4277 C 387.246 3.38582 4.13844 0
M  V30 4278 C 388.546 4.65881 2.3612 0
M  V30 4279 H 390.24 2.78474 1.09966 0
M  V30 4280 H 387.786 1.33988 0.527556 0
M  V30 4281 H 389.739 2.35047 3.49758 0
M  V30 4282 H 388.463 1.19535 3.03939 0
M  V30 4283 H 387.122 3.06428 2.0124 0
M  V30 4284 H 386.77 2.42784 4.40528 0
M  V30 4285 H 386.47 4.16453 4.14537 0
M  V30 4286 H 387.994 3.63031 4.90959 0
M  V30 4287 H 389.408 4.87823 3.01167 0
M  V30 4288 H 387.805 5.46444 2.48031 0
M  V30 4289 H 388.875 4.66799 1.3125 0
M  V30 4290 N 390.218 -0.567019 1.47046 0
M  V30 4291 C 391.466 -1.322 1.52864 0
M  V30 4292 C 391.787 -1.94088 0.188388 0
M  V30 4293 O 391.057 -1.7941 -0.786693 0
M  V30 4294 H 389.637 -0.490894 0.563056 0
M  V30 4295 H 392.299 -0.662879 1.83281 0
M  V30 4296 H 391.395 -2.12062 2.2899 0
M  V30 4297 N 391.696 -1.35014 -0.812953 0
M  V30 4298 C 392.921 -1.31187 -1.60639 0
M  V30 4299 C 393.346 0.109382 -1.87782 0
M  V30 4300 O 392.704 1.07424 -1.46047 0
M  V30 4301 C 392.752 -2.11809 -2.91838 0
M  V30 4302 O 391.856 -1.49444 -3.8437 0
M  V30 4303 H 391.197 -0.450084 -0.488181 0
M  V30 4304 H 393.727 -1.77963 -1.00947 0
M  V30 4305 H 393.737 -2.23531 -3.41318 0
M  V30 4306 H 392.412 -3.15137 -2.71407 0
M  V30 4307 H 390.989 -1.46524 -3.42907 0
M  V30 4308 N 393.175 1.03435 -1.18907 0
M  V30 4309 C 394.138 2.09756 -0.923844 0
M  V30 4310 C 395.138 1.60528 0.093416 0
M  V30 4311 O 396.328 1.73631 -0.140727 0
M  V30 4312 C 393.46 3.38692 -0.387354 0
M  V30 4313 H 394.653 2.34719 -1.86674 0
M  V30 4314 H 392.206 1.19959 -1.00197 0
M  V30 4315 H 392.941 3.19396 0.561845 0
M  V30 4316 H 392.726 3.75742 -1.12074 0
M  V30 4317 H 394.216 4.17016 -0.220694 0
M  V30 4318 N 394.653 0.992116 1.22453 0
M  V30 4319 C 395.901 0.666215 1.90804 0
M  V30 4320 C 396.222 -0.804152 1.77647 0
M  V30 4321 O 395.492 -1.57629 1.16318 0
M  V30 4322 H 394.072 0.243423 0.706225 0
M  V30 4323 H 396.734 1.25845 1.48825 0
M  V30 4324 H 395.83 0.928069 2.97982 0
M  V30 4325 N 396.131 -1.37776 0.765217 0
M  V30 4326 C 397.041 -2.34135 0.147666 0
M  V30 4327 C 398.057 -1.59854 -0.687215 0
M  V30 4328 O 399.233 -1.91983 -0.608659 0
M  V30 4329 C 396.298 -3.3901 -0.72617 0
M  V30 4330 C 395.359 -4.2912 0.124417 0
M  V30 4331 C 394.592 -5.28986 -0.707807 0
M  V30 4332 O 394.815 -5.36205 -1.94525 0
M  V30 4333 O 393.749 -6.01779 -0.12046 0
M  V30 4334 H 397.575 -2.88664 0.943758 0
M  V30 4335 H 395.16 -1.39824 0.526277 0
M  V30 4336 H 397.042 -4.03195 -1.22524 0
M  V30 4337 H 395.717 -2.86819 -1.50056 0
M  V30 4338 H 394.624 -3.68057 0.669696 0
M  V30 4339 H 395.957 -4.84598 0.861736 0
M  V30 4340 N 397.609 -0.515225 -1.4894 0
M  V30 4341 C 398.539 0.244628 -2.32215 0
M  V30 4342 C 399.52 0.949136 -1.41157 0
M  V30 4343 O 400.705 0.937783 -1.70057 0
M  V30 4344 C 397.835 1.30096 -3.22013 0
M  V30 4345 C 396.789 0.715486 -4.21977 0
M  V30 4346 C 396.115 1.87339 -5.00808 0
M  V30 4347 C 397.415 -0.302982 -5.2142 0
M  V30 4348 H 399.109 -0.450501 -2.95991 0
M  V30 4349 H 396.655 -0.218098 -1.42339 0
M  V30 4350 H 398.608 1.84037 -3.79089 0
M  V30 4351 H 397.332 2.02547 -2.56207 0
M  V30 4352 H 395.991 0.197715 -3.66066 0
M  V30 4353 H 395.639 2.58592 -4.31438 0
M  V30 4354 H 395.339 1.48764 -5.68457 0
M  V30 4355 H 396.863 2.41686 -5.60732 0
M  V30 4356 H 398.277 0.148802 -5.73107 0
M  V30 4357 H 396.674 -0.60532 -5.97039 0
M  V30 4358 H 397.744 -1.21395 -4.69459 0
M  V30 4359 N 399.087 1.5561 -0.249682 0
M  V30 4360 C 400.034 2.21496 0.648694 0
M  V30 4361 C 401.004 1.17977 1.16921 0
M  V30 4362 O 402.189 1.46434 1.22318 0
M  V30 4363 C 399.329 2.92039 1.83868 0
M  V30 4364 C 398.442 4.10219 1.35442 0
M  V30 4365 C 397.577 4.6847 2.50419 0
M  V30 4366 C 396.616 5.78893 1.98869 0
M  V30 4367 N 395.753 6.31315 3.07223 0
M  V30 4368 H 400.593 2.97892 0.0801582 0
M  V30 4369 H 398.13 1.47074 0.0278031 0
M  V30 4370 H 400.088 3.31138 2.53778 0
M  V30 4371 H 398.718 2.18111 2.37965 0
M  V30 4372 H 397.77 3.76413 0.54928 0
M  V30 4373 H 399.082 4.89927 0.936649 0
M  V30 4374 H 398.236 5.10158 3.28366 0
M  V30 4375 H 396.975 3.87984 2.95499 0
M  V30 4376 H 395.98 5.3668 1.19393 0
M  V30 4377 H 397.205 6.61232 1.54755 0
M  V30 4378 H 395.151 5.53733 3.51732 0
M  V30 4379 H 395.068 7.06224 2.69784 0
M  V30 4380 H 396.336 6.77662 3.8522 0
M  V30 4381 N 400.565 -0.0233959 1.57583 0
M  V30 4382 C 401.814 -0.712133 1.8871 0
M  V30 4383 C 402.127 -1.76217 0.848944 0
M  V30 4384 O 403.333 -2.50389 1.04964 0
M  V30 4385 C 401.789 -1.3177 3.3491 0
M  V30 4386 C 401.397 -0.303715 4.46969 0
M  V30 4387 C 403.141 -1.98598 3.75179 0
M  V30 4388 C 401.048 -0.917945 5.84233 0
M  V30 4389 H 399.978 -0.269735 0.704101 0
M  V30 4390 H 402.629 0.0333114 1.8347 0
M  V30 4391 H 401.011 -2.11304 3.34913 0
M  V30 4392 H 402.185 0.465325 4.58445 0
M  V30 4393 H 400.5 0.2628 4.1557 0
M  V30 4394 H 403.097 -2.45416 4.75053 0
M  V30 4395 H 403.44 -2.80659 3.07468 0
M  V30 4396 H 403.973 -1.25831 3.77374 0
M  V30 4397 H 400.712 -0.136633 6.55358 0
M  V30 4398 H 400.232 -1.65669 5.76467 0
M  V30 4399 H 401.911 -1.4236 6.31144 0
M  V30 4400 N 402.043 -1.548 -0.295768 0
M  V30 4401 C 403.006 -1.85363 -1.34808 0
M  V30 4402 C 404.006 -0.726817 -1.43436 0
M  V30 4403 O 405.196 -0.995088 -1.42981 0
M  V30 4404 C 402.328 -2.03859 -2.73229 0
M  V30 4405 H 403.521 -2.7941 -1.08949 0
M  V30 4406 H 401.074 -1.46942 -0.532702 0
M  V30 4407 H 401.809 -1.12117 -3.04303 0
M  V30 4408 H 401.594 -2.8588 -2.68356 0
M  V30 4409 H 403.084 -2.28857 -3.49305 0
M  V30 4410 N 403.521 0.559213 -1.47345 0
M  V30 4411 C 404.798 1.31997 -1.44348 0
M  V30 4412 C 405.178 2.1064 -0.139358 0
M  V30 4413 O 404.526 2.1091 0.879153 0
M  V30 4414 C 404.736 2.22618 -2.68779 0
M  V30 4415 C 406.084 2.83701 -3.1591 0
M  V30 4416 O 407.108 2.32921 -2.69493 0
M  V30 4417 O 405.967 3.75993 -3.966 0
M  V30 4418 H 403.061 0.594251 -0.575147 0
M  V30 4419 H 405.607 0.578282 -1.59543 0
M  V30 4420 H 404.379 1.64093 -3.55231 0
M  V30 4421 H 404.002 3.04085 -2.5616 0
M  V30 4422 N 404.999 1.35443 0.805782 0
M  V30 4423 C 406.246 1.28761 1.56291 0
M  V30 4424 C 406.574 -0.137747 1.94012 0
M  V30 4425 O 405.829 -1.1032 1.61642 0
M  V30 4426 C 406.128 2.14045 2.86216 0
M  V30 4427 C 405.794 3.62826 2.67709 0
M  V30 4428 C 404.456 4.0338 2.6237 0
M  V30 4429 C 406.808 4.57227 2.50186 0
M  V30 4430 C 404.136 5.36501 2.37451 0
M  V30 4431 C 406.488 5.90547 2.26797 0
M  V30 4432 C 405.152 6.30245 2.1988 0
M  V30 4433 H 404.422 0.471171 0.571908 0
M  V30 4434 H 407.069 1.67347 0.930974 0
M  V30 4435 H 405.374 1.68342 3.53791 0
M  V30 4436 H 407.071 2.0621 3.43917 0
M  V30 4437 H 403.661 3.30644 2.72713 0
M  V30 4438 H 407.845 4.2678 2.53323 0
M  V30 4439 H 403.101 5.66259 2.30567 0
M  V30 4440 H 407.275 6.63274 2.12228 0
M  V30 4441 H 404.902 7.33328 2.00333 0
M  V30 4442 N 406.477 -1.02803 1.19454 0
M  V30 4443 C 407.725 -1.75869 0.995722 0
M  V30 4444 C 408.046 -1.89138 -0.474543 0
M  V30 4445 O 407.316 -1.42558 -1.34366 0
M  V30 4446 H 405.896 -0.651511 0.365435 0
M  V30 4447 H 408.558 -1.24004 1.50363 0
M  V30 4448 H 407.654 -2.76661 1.44447 0
M  V30 4449 N 407.956 -0.998596 -1.21925 0
M  V30 4450 C 409.202 -0.688337 -1.91399 0
M  V30 4451 C 409.557 0.771805 -1.76241 0
M  V30 4452 O 408.85 1.55153 -1.1242 0
M  V30 4453 C 409.044 -1.03648 -3.42041 0
M  V30 4454 C 408.873 -2.52892 -3.71855 0
M  V30 4455 C 407.643 -3.19389 -3.91559 0
M  V30 4456 C 409.841 -3.5103 -3.75875 0
M  V30 4457 N 407.823 -4.5805 -4.08734 0
M  V30 4458 C 409.194 -4.75174 -3.98259 0
M  V30 4459 C 411.249 -3.45257 -3.58751 0
M  V30 4460 C 409.952 -5.94247 -4.05294 0
M  V30 4461 C 411.978 -4.63712 -3.67049 0
M  V30 4462 C 411.34 -5.86658 -3.89887 0
M  V30 4463 H 407.439 -0.303251 -0.720807 0
M  V30 4464 H 410.023 -1.27977 -1.46731 0
M  V30 4465 H 408.194 -0.473569 -3.85502 0
M  V30 4466 H 409.926 -0.681619 -3.98919 0
M  V30 4467 H 406.681 -2.69846 -3.89205 0
M  V30 4468 H 407.105 -5.29989 -4.21237 0
M  V30 4469 H 411.747 -2.51215 -3.40075 0
M  V30 4470 H 409.465 -6.88687 -4.22772 0
M  V30 4471 H 413.051 -4.6084 -3.5513 0
M  V30 4472 H 411.931 -6.76786 -3.96144 0
M  V30 4473 N 409.434 1.37368 -0.772513 0
M  V30 4474 C 410.659 2.0447 -0.347386 0
M  V30 4475 C 411.084 1.57882 1.0225 0
M  V30 4476 O 410.442 0.73941 1.65537 0
M  V30 4477 C 410.49 3.58369 -0.400479 0
M  V30 4478 O 409.594 4.0803 0.598789 0
M  V30 4479 H 408.935 0.646773 -0.15027 0
M  V30 4480 H 411.465 1.75667 -1.04892 0
M  V30 4481 H 411.475 4.07183 -0.258045 0
M  V30 4482 H 410.15 3.91633 -1.39986 0
M  V30 4483 H 408.727 3.70534 0.419411 0
M  V30 4484 N 410.912 0.523116 1.48665 0
M  V30 4485 C 412.158 -0.0134963 2.02796 0
M  V30 4486 C 412.491 -1.34582 1.40004 0
M  V30 4487 O 411.766 -1.86756 0.543381 0
M  V30 4488 C 412.049 -0.14276 3.59817 0
M  V30 4489 C 411.902 1.21425 4.331 0
M  V30 4490 C 413.221 -0.872856 4.31357 0
M  V30 4491 H 410.34 -0.00343074 0.736992 0
M  V30 4492 H 412.982 0.678816 1.7746 0
M  V30 4493 H 411.132 -0.732401 3.81534 0
M  V30 4494 H 412.804 1.84447 4.2282 0
M  V30 4495 H 411.047 1.79791 3.94788 0
M  V30 4496 H 411.718 1.07687 5.41394 0
M  V30 4497 H 414.194 -0.372555 4.14429 0
M  V30 4498 H 413.07 -0.932185 5.40927 0
M  V30 4499 H 413.331 -1.92161 3.98154 0
M  V30 4500 N 412.39 -1.55475 0.257931 0
M  V30 4501 C 413.34 -2.18506 -0.651094 0
M  V30 4502 C 414.324 -1.14431 -1.13112 0
M  V30 4503 O 415.516 -1.40305 -1.07905 0
M  V30 4504 C 412.645 -2.89653 -1.84272 0
M  V30 4505 C 411.731 -4.00996 -1.38068 0
M  V30 4506 N 412.122 -5.01816 -0.633609 0
M  V30 4507 C 410.42 -4.13753 -1.66506 0
M  V30 4508 C 411.121 -5.80371 -0.392922 0
M  V30 4509 N 410.097 -5.3505 -0.960359 0
M  V30 4510 H 413.899 -2.93811 -0.0722883 0
M  V30 4511 H 411.413 -1.62286 0.0607256 0
M  V30 4512 H 413.41 -3.33245 -2.50506 0
M  V30 4513 H 412.07 -2.15854 -2.42564 0
M  V30 4514 H 413.081 -5.17128 -0.282626 0
M  V30 4515 H 409.758 -3.51133 -2.25858 0
M  V30 4516 H 411.148 -6.7159 0.204235 0
M  V30 4517 N 413.868 0.0150385 -1.57593 0
M  V30 4518 C 414.831 0.995996 -2.06428 0
M  V30 4519 C 415.831 1.2818 -0.970903 0
M  V30 4520 O 417.021 1.22949 -1.23406 0
M  V30 4521 C 414.153 2.32506 -2.49307 0
M  V30 4522 H 415.346 0.573873 -2.94358 0
M  V30 4523 H 412.899 0.262186 -1.54085 0
M  V30 4524 H 413.634 2.79438 -1.64575 0
M  V30 4525 H 413.419 2.13087 -3.29145 0
M  V30 4526 H 414.909 3.02906 -2.87468 0
M  V30 4527 N 415.346 1.54954 0.287554 0
M  V30 4528 C 416.757 1.65732 0.859634 0
M  V30 4529 C 417.108 0.574767 1.87592 0
M  V30 4530 O 416.233 -0.286299 2.14498 0
M  V30 4531 C 416.828 3.00438 1.56597 0
M  V30 4532 C 415.387 3.13292 2.08627 0
M  V30 4533 C 414.534 2.61473 0.923416 0
M  V30 4534 H 417.485 1.5857 0.0642338 0
M  V30 4535 H 417.506 2.92613 2.43224 0
M  V30 4536 H 417.018 3.79207 0.826053 0
M  V30 4537 H 415.119 2.39268 2.85625 0
M  V30 4538 H 415.232 4.19647 2.31157 0
M  V30 4539 H 413.596 2.18264 1.31275 0
M  V30 4540 H 414.379 3.42733 0.197241 0
M  V30 4541 N 416.824 -0.551391 1.4764 0
M  V30 4542 C 418.049 -1.33837 1.58437 0
M  V30 4543 C 418.474 -1.866 0.237063 0
M  V30 4544 O 417.832 -1.6328 -0.787994 0
M  V30 4545 C 417.88 -2.48014 2.61766 0
M  V30 4546 O 416.984 -3.50419 2.1744 0
M  V30 4547 H 416.325 -0.397299 0.532024 0
M  V30 4548 H 418.855 -0.665759 1.93465 0
M  V30 4549 H 418.865 -2.94503 2.82369 0
M  V30 4550 H 417.54 -2.08969 3.5959 0
M  V30 4551 H 416.117 -3.10196 2.06961 0
M  V30 4552 N 418.302 -1.35869 -0.798587 0
M  V30 4553 C 419.527 -1.32883 -1.59238 0
M  V30 4554 C 419.952 0.0894587 -1.87887 0
M  V30 4555 O 419.31 1.05869 -1.47178 0
M  V30 4556 C 419.358 -2.14892 -2.89575 0
M  V30 4557 O 418.462 -1.53512 -3.82763 0
M  V30 4558 H 417.803 -0.455236 -0.48338 0
M  V30 4559 H 420.333 -1.79024 -0.990539 0
M  V30 4560 H 420.343 -2.27139 -3.38928 0
M  V30 4561 H 419.018 -3.17998 -2.68049 0
M  V30 4562 H 417.595 -1.50153 -3.41334 0
M  V30 4563 N 419.78 1.02168 -1.19998 0
M  V30 4564 C 421.196 1.27969 -0.953737 0
M  V30 4565 C 421.396 1.98079 0.369703 0
M  V30 4566 O 420.452 2.27306 1.09947 0
M  V30 4567 C 421.765 2.11971 -2.13281 0
M  V30 4568 C 423.313 2.25255 -2.17323 0
M  V30 4569 C 423.788 3.12632 -3.34702 0
M  V30 4570 N 425.279 3.2022 -3.34684 0
M  V30 4571 C 426.014 3.88039 -4.22153 0
M  V30 4572 N 425.51 4.58027 -5.19791 0
M  V30 4573 N 427.303 3.84511 -4.10009 0
M  V30 4574 H 419.454 0.550794 -2.05134 0
M  V30 4575 H 421.717 0.305683 -0.897364 0
M  V30 4576 H 421.423 1.67785 -3.09097 0
M  V30 4577 H 421.297 3.12699 -2.10949 0
M  V30 4578 H 423.684 2.68667 -1.22073 0
M  V30 4579 H 423.765 1.24053 -2.23706 0
M  V30 4580 H 423.409 2.69926 -4.30235 0
M  V30 4581 H 423.339 4.13909 -3.25556 0
M  V30 4582 H 425.83 2.70382 -2.64012 0
M  V30 4583 H 426.143 5.07429 -5.82868 0
M  V30 4584 H 424.488 4.56869 -5.23733 0
M  V30 4585 H 427.679 3.28978 -3.33003 0
M  V30 4586 H 427.852 4.3709 -4.78389 0
M  V30 4587 N 421.258 1.00505 1.21394 0
M  V30 4588 C 422.674 0.717873 1.42544 0
M  V30 4589 C 422.874 -0.706936 1.88692 0
M  V30 4590 O 421.93 -1.47627 2.04847 0
M  V30 4591 C 423.243 1.73377 2.45684 0
M  V30 4592 C 424.791 1.75059 2.59467 0
M  V30 4593 C 425.266 2.75545 3.6584 0
M  V30 4594 N 426.757 2.74213 3.73311 0
M  V30 4595 C 427.492 3.48626 4.55245 0
M  V30 4596 N 426.988 4.32678 5.41075 0
M  V30 4597 N 428.781 3.37276 4.49668 0
M  V30 4598 H 420.932 1.92506 0.897503 0
M  V30 4599 H 423.195 0.830919 0.456375 0
M  V30 4600 H 422.901 2.75395 2.18748 0
M  V30 4601 H 422.775 1.53647 3.44489 0
M  V30 4602 H 425.162 0.737337 2.8574 0
M  V30 4603 H 425.243 1.98861 1.60897 0
M  V30 4604 H 424.887 3.77028 3.40313 0
M  V30 4605 H 424.817 2.49009 4.64007 0
M  V30 4606 H 427.308 2.13234 3.11993 0
M  V30 4607 H 427.621 4.86253 6.00648 0
M  V30 4608 H 425.966 4.3676 5.40616 0
M  V30 4609 H 429.157 2.71043 3.81646 0
M  V30 4610 H 429.33 3.95524 5.13288 0
M  V30 4611 N 422.737 -1.36956 0.779787 0
M  V30 4612 C 423.965 -2.03755 0.359398 0
M  V30 4613 C 424.38 -1.58807 -1.02106 0
M  V30 4614 O 423.737 -0.773024 -1.6532 0
M  V30 4615 C 423.788 -3.59251 0.402568 0
M  V30 4616 O 423.509 -4.02557 1.72858 0
M  V30 4617 C 425.01 -4.43291 -0.0284068 0
M  V30 4618 H 422.23 -0.654148 0.149437 0
M  V30 4619 H 424.774 -1.75128 1.05595 0
M  V30 4620 H 422.929 -3.86621 -0.245478 0
M  V30 4621 H 423.343 -4.97111 1.67275 0
M  V30 4622 H 424.817 -5.51975 0.0529466 0
M  V30 4623 H 425.294 -4.25719 -1.07982 0
M  V30 4624 H 425.9 -4.21163 0.591758 0
M  V30 4625 N 424.215 -0.530993 -1.48385 0
M  V30 4626 C 425.443 -0.00134122 -2.069 0
M  V30 4627 C 425.858 1.2805 -1.3874 0
M  V30 4628 O 425.215 1.76204 -0.475244 0
M  V30 4629 C 425.266 0.225256 -3.60798 0
M  V30 4630 O 424.987 -1.0058 -4.26398 0
M  V30 4631 C 426.488 0.795172 -4.3611 0
M  V30 4632 H 423.708 -0.0339704 -0.67014 0
M  V30 4633 H 426.252 -0.736926 -1.90761 0
M  V30 4634 H 424.407 0.910891 -3.76539 0
M  V30 4635 H 424.821 -0.787165 -5.1856 0
M  V30 4636 H 426.295 0.903143 -5.44562 0
M  V30 4637 H 426.772 1.80031 -4.00606 0
M  V30 4638 H 427.378 0.146069 -4.25049 0
M  V30 4639 N 425.693 1.55336 -0.266172 0
M  V30 4640 C 426.623 2.25146 0.618981 0
M  V30 4641 C 427.604 1.23845 1.16604 0
M  V30 4642 O 428.789 1.52544 1.20183 0
M  V30 4643 C 425.919 2.96572 1.80728 0
M  V30 4644 C 424.873 4.04726 1.39215 0
M  V30 4645 C 424.199 4.63678 2.66283 0
M  V30 4646 C 425.499 5.19407 0.548942 0
M  V30 4647 H 427.193 2.99377 0.0368116 0
M  V30 4648 H 424.739 1.43991 0.0162651 0
M  V30 4649 H 426.692 3.44116 2.43232 0
M  V30 4650 H 425.416 2.19861 2.41514 0
M  V30 4651 H 424.075 3.57979 0.790351 0
M  V30 4652 H 423.723 3.83646 3.25308 0
M  V30 4653 H 423.423 5.367 2.39222 0
M  V30 4654 H 424.947 5.13967 3.29651 0
M  V30 4655 H 426.361 5.63059 1.07876 0
M  V30 4656 H 424.758 5.98936 0.373593 0
M  V30 4657 H 425.828 4.8295 -0.434394 0
M  V30 4658 N 427.171 -0.0066808 1.57599 0
M  V30 4659 C 428.411 -0.697501 1.92131 0
M  V30 4660 C 428.775 -1.71306 0.867071 0
M  V30 4661 O 429.976 -2.45377 1.09743 0
M  V30 4662 C 428.247 -1.32978 3.3174 0
M  V30 4663 S 429.806 -2.04665 3.88146 0
M  V30 4664 H 426.624 -0.230555 0.672581 0
M  V30 4665 H 429.226 0.0484026 1.9544 0
M  V30 4666 H 427.93 -0.57772 4.06313 0
M  V30 4667 H 427.461 -2.11376 3.31789 0
M  V30 4668 H 429.476 -3.32097 3.68682 0
M  V30 4669 N 428.649 -1.55105 -0.279332 0
M  V30 4670 C 429.897 -1.75066 -1.00977 0
M  V30 4671 C 430.218 -0.551276 -1.87045 0
M  V30 4672 O 429.488 0.433984 -1.91032 0
M  V30 4673 H 428.068 -0.645578 -0.375816 0
M  V30 4674 H 430.73 -1.92497 -0.305089 0
M  V30 4675 H 429.826 -2.64894 -1.65038 0
M  V30 4676 N 430.127 0.543554 -1.4793 0
M  V30 4677 C 431.355 1.32516 -1.58894 0
M  V30 4678 C 431.77 1.87215 -0.244131 0
M  V30 4679 O 431.127 1.65709 0.764652 0
M  V30 4680 C 431.178 2.48554 -2.62494 0
M  V30 4681 O 430.899 1.96112 -3.91755 0
M  V30 4682 C 432.4 3.40572 -2.8377 0
M  V30 4683 H 429.62 0.403472 -0.536145 0
M  V30 4684 H 432.164 0.657106 -1.93655 0
M  V30 4685 H 430.319 3.1127 -2.30629 0
M  V30 4686 H 430.733 2.71967 -4.4848 0
M  V30 4687 H 432.207 4.18375 -3.60093 0
M  V30 4688 H 432.684 3.94965 -1.92092 0
M  V30 4689 H 433.29 2.8366 -3.16887 0
M  V30 4690 N 431.605 1.3629 0.791371 0
M  V30 4691 C 432.535 1.33137 1.91825 0
M  V30 4692 C 433.516 0.203168 1.68882 0
M  V30 4693 O 434.701 0.400509 1.90025 0
M  V30 4694 C 431.831 1.11793 3.28816 0
M  V30 4695 C 430.785 2.21417 3.66277 0
M  V30 4696 C 430.111 1.85218 5.01596 0
M  V30 4697 C 431.411 3.63489 3.75064 0
M  V30 4698 H 433.105 2.2743 1.9472 0
M  V30 4699 H 430.651 1.09479 0.935437 0
M  V30 4700 H 432.604 1.08222 4.07266 0
M  V30 4701 H 431.328 0.139501 3.26302 0
M  V30 4702 H 429.987 2.2411 2.90121 0
M  V30 4703 H 429.635 0.859544 4.95602 0
M  V30 4704 H 429.335 2.58611 5.27631 0
M  V30 4705 H 430.859 1.832 5.82469 0
M  V30 4706 H 432.273 3.63034 4.43711 0
M  V30 4707 H 430.67 4.35771 4.12582 0
M  V30 4708 H 431.74 3.98536 2.76219 0
M  V30 4709 N 433.083 -1.0153 1.20538 0
M  V30 4710 C 434.36 -1.72327 0.925343 0
M  V30 4711 C 434.74 -2.03383 -0.565547 0
M  V30 4712 O 434.088 -1.69934 -1.52757 0
M  V30 4713 C 434.298 -2.9902 1.79967 0
M  V30 4714 C 435.646 -3.72258 2.04228 0
M  V30 4715 O 436.67 -3.08979 1.77231 0
M  V30 4716 O 435.529 -4.86053 2.4983 0
M  V30 4717 H 432.623 -0.751099 0.346092 0
M  V30 4718 H 435.169 -1.07366 1.31417 0
M  V30 4719 H 433.941 -2.72402 2.80915 0
M  V30 4720 H 433.564 -3.71721 1.41099 0
M  V30 4721 N 434.561 -1.01147 -1.20859 0
M  V30 4722 C 435.791 -0.715872 -1.93801 0
M  V30 4723 C 436.199 0.726592 -1.74692 0
M  V30 4724 O 435.542 1.50397 -1.05482 0
M  V30 4725 C 435.604 -0.965269 -3.46299 0
M  V30 4726 C 435.268 -2.39584 -3.89164 0
M  V30 4727 C 436.265 -3.3764 -3.95342 0
M  V30 4728 C 433.95 -2.73522 -4.21297 0
M  V30 4729 C 435.944 -4.67698 -4.33056 0
M  V30 4730 C 433.631 -4.03794 -4.58687 0
M  V30 4731 C 434.629 -5.00693 -4.64538 0
M  V30 4732 O 434.317 -6.28635 -5.01072 0
M  V30 4733 H 434.049 -0.262524 -0.622942 0
M  V30 4734 H 436.603 -1.35413 -1.54443 0
M  V30 4735 H 434.833 -0.269847 -3.85757 0
M  V30 4736 H 436.522 -0.662051 -4.00464 0
M  V30 4737 H 437.288 -3.12757 -3.70686 0
M  V30 4738 H 433.167 -1.9879 -4.15937 0
M  V30 4739 H 436.711 -5.4333 -4.37537 0
M  V30 4740 H 432.608 -4.28459 -4.82797 0
M  V30 4741 H 433.376 -6.32847 -5.19083 0
M  V30 4742 N 436.039 1.36541 -0.78704 0
M  V30 4743 C 436.969 2.32659 -0.197992 0
M  V30 4744 C 437.95 1.56533 0.665697 0
M  V30 4745 O 439.135 1.84698 0.60001 0
M  V30 4746 C 436.265 3.40778 0.669901 0
M  V30 4747 C 435.219 4.27897 -0.0937039 0
M  V30 4748 C 434.545 5.27163 0.894629 0
M  V30 4749 C 435.845 5.06334 -1.28154 0
M  V30 4750 H 437.539 2.82171 -1.00099 0
M  V30 4751 H 435.085 1.35665 -0.482793 0
M  V30 4752 H 437.038 4.07008 1.09191 0
M  V30 4753 H 435.762 2.89827 1.50558 0
M  V30 4754 H 434.421 3.6322 -0.49666 0
M  V30 4755 H 434.069 4.72486 1.72527 0
M  V30 4756 H 433.769 5.86317 0.388149 0
M  V30 4757 H 435.293 5.96266 1.31525 0
M  V30 4758 H 436.707 5.65617 -0.93541 0
M  V30 4759 H 435.104 5.74888 -1.72115 0
M  V30 4760 H 436.174 4.38114 -2.07807 0
M  V30 4761 N 437.518 0.538854 1.48102 0
M  V30 4762 C 438.929 0.100679 1.86428 0
M  V30 4763 C 439.28 -1.32447 1.44749 0
M  V30 4764 O 438.405 -1.99339 0.842199 0
M  V30 4765 C 439 0.175933 3.38343 0
M  V30 4766 C 437.559 -0.207098 3.7583 0
M  V30 4767 C 436.706 0.531741 2.72154 0
M  V30 4768 H 439.657 0.749614 1.3988 0
M  V30 4769 H 439.678 -0.610144 3.75576 0
M  V30 4770 H 439.19 1.21328 3.68648 0
M  V30 4771 H 437.291 -1.24626 3.5114 0
M  V30 4772 H 437.404 0.138687 4.78899 0
M  V30 4773 H 435.768 -0.0230462 2.5469 0
M  V30 4774 H 436.551 1.56989 3.05302 0
M  V30 4775 N 438.996 -1.55193 0.274407 0
M  V30 4776 C 440.407 -1.85358 -0.223488 0
M  V30 4777 C 440.758 -1.19642 -1.555 0
M  V30 4778 O 439.883 -0.484498 -2.10907 0
M  V30 4779 C 440.478 -3.36282 -0.412285 0
M  V30 4780 C 439.037 -3.66574 -0.854413 0
M  V30 4781 C 438.184 -2.7725 0.0527056 0
M  V30 4782 H 441.135 -1.50743 0.496215 0
M  V30 4783 H 441.156 -3.59349 -1.25094 0
M  V30 4784 H 440.668 -3.84083 0.556965 0
M  V30 4785 H 438.769 -3.24273 -1.83516 0
M  V30 4786 H 438.882 -4.74073 -0.692226 0
M  V30 4787 H 437.246 -2.50447 -0.463484 0
M  V30 4788 H 438.029 -3.27865 1.01783 0
M  V30 4789 N 440.474 -0.00167713 -1.576 0
M  V30 4790 C 441.384 1.00548 -2.1196 0
M  V30 4791 C 442.4 1.3758 -1.06526 0
M  V30 4792 O 443.576 1.46278 -1.38436 0
M  V30 4793 C 440.641 2.27809 -2.6135 0
M  V30 4794 C 439.702 1.97074 -3.81393 0
M  V30 4795 C 438.935 3.18267 -4.28417 0
M  V30 4796 O 439.158 4.30009 -3.74765 0
M  V30 4797 O 438.092 3.02167 -5.20556 0
M  V30 4798 H 441.918 0.573373 -2.98238 0
M  V30 4799 H 439.503 0.217255 -1.47812 0
M  V30 4800 H 441.385 3.02568 -2.93309 0
M  V30 4801 H 440.06 2.70254 -1.78169 0
M  V30 4802 H 438.967 1.19785 -3.54404 0
M  V30 4803 H 440.3 1.59464 -4.65652 0
M  V30 4804 N 441.952 1.55251 0.271103 0
M  V30 4805 C 442.885 1.83191 1.36075 0
M  V30 4806 C 443.863 0.685091 1.47463 0
M  V30 4807 O 445.047 0.928292 1.64058 0
M  V30 4808 C 442.174 1.99521 2.73696 0
M  V30 4809 C 441.22 3.22081 2.79582 0
M  V30 4810 S 442.053 4.79388 2.38636 0
M  V30 4811 C 443.209 4.98693 3.78228 0
M  V30 4812 H 443.442 2.75327 1.12171 0
M  V30 4813 H 440.975 1.47046 0.470833 0
M  V30 4814 H 442.933 2.09613 3.52948 0
M  V30 4815 H 441.594 1.0827 2.9485 0
M  V30 4816 H 440.787 3.304 3.80594 0
M  V30 4817 H 440.389 3.10589 2.08352 0
M  V30 4818 H 442.681 4.84551 4.73515 0
M  V30 4819 H 443.624 6.00738 3.7486 0
M  V30 4820 H 444.032 4.26665 3.69618 0
M  V30 4821 N 443.43 -0.535701 1.48216 0
M  V30 4822 C 444.679 -1.28828 1.55197 0
M  V30 4823 C 444.992 -1.94263 0.228278 0
M  V30 4824 O 446.198 -2.70927 0.176278 0
M  V30 4825 C 444.654 -2.33727 2.73678 0
M  V30 4826 C 444.262 -1.74386 4.12666 0
M  V30 4827 C 446.006 -3.1003 2.89968 0
M  V30 4828 C 443.913 -2.77192 5.22416 0
M  V30 4829 H 442.843 -0.484484 0.577747 0
M  V30 4830 H 445.494 -0.56646 1.74538 0
M  V30 4831 H 443.876 -3.08919 2.4776 0
M  V30 4832 H 445.05 -1.05421 4.48579 0
M  V30 4833 H 443.365 -1.10595 4.01445 0
M  V30 4834 H 445.962 -3.86842 3.6913 0
M  V30 4835 H 446.305 -3.65542 1.9921 0
M  V30 4836 H 446.838 -2.41952 3.15759 0
M  V30 4837 H 443.577 -2.26507 6.15122 0
M  V30 4838 H 443.097 -3.44502 4.90998 0
M  V30 4839 H 444.776 -3.40285 5.50286 0
M  V30 4840 N 444.908 -1.36708 -0.784132 0
M  V30 4841 C 445.818 -1.3363 -1.92822 0
M  V30 4842 C 446.834 -0.237686 -1.72369 0
M  V30 4843 O 448.01 -0.470962 -1.95816 0
M  V30 4844 C 445.075 -1.13011 -3.27764 0
M  V30 4845 C 444.136 -2.32397 -3.60957 0
M  V30 4846 C 443.369 -2.12752 -4.89461 0
M  V30 4847 O 443.592 -1.10541 -5.59586 0
M  V30 4848 O 442.526 -3.00653 -5.21432 0
M  V30 4849 H 446.352 -2.29964 -1.98369 0
M  V30 4850 H 443.937 -1.1731 -0.925136 0
M  V30 4851 H 445.819 -1.03451 -4.08504 0
M  V30 4852 H 444.494 -0.19743 -3.23097 0
M  V30 4853 H 443.401 -2.47527 -2.80502 0
M  V30 4854 H 444.734 -3.2419 -3.70354 0
M  V30 4855 N 446.386 1.0089 -1.21074 0
M  V30 4856 C 447.634 1.74262 -1.02358 0
M  V30 4857 C 447.955 1.89869 0.444393 0
M  V30 4858 O 447.225 1.44677 1.32081 0
M  V30 4859 H 445.805 0.645615 -0.375754 0
M  V30 4860 H 448.467 1.21596 -1.52317 0
M  V30 4861 H 447.563 2.74328 -1.4883 0
M  V30 4862 N 447.864 1.01787 1.20321 0
M  V30 4863 C 449.28 0.732951 1.41774 0
M  V30 4864 C 449.48 -0.686883 1.89431 0
M  V30 4865 O 448.536 -1.45446 2.06402 0
M  V30 4866 C 449.849 1.75973 2.43832 0
M  V30 4867 C 451.397 1.77802 2.57596 0
M  V30 4868 C 451.872 2.7941 3.62897 0
M  V30 4869 N 453.363 2.78157 3.70382 0
M  V30 4870 C 454.098 3.53434 4.51521 0
M  V30 4871 N 453.594 4.38392 5.36455 0
M  V30 4872 N 455.387 3.42026 4.46066 0
M  V30 4873 H 447.538 1.93447 0.877035 0
M  V30 4874 H 449.801 0.835712 0.447536 0
M  V30 4875 H 449.507 2.77699 2.15815 0
M  V30 4876 H 449.381 1.57292 3.4284 0
M  V30 4877 H 451.768 0.767602 2.84942 0
M  V30 4878 H 451.849 2.00557 1.58779 0
M  V30 4879 H 451.493 3.80616 3.36295 0
M  V30 4880 H 451.423 2.53916 4.61339 0
M  V30 4881 H 453.914 2.16531 3.09714 0
M  V30 4882 H 454.227 4.92596 5.95457 0
M  V30 4883 H 452.572 4.4247 5.35953 0
M  V30 4884 H 455.763 2.75075 3.78749 0
M  V30 4885 H 455.936 4.00946 5.09064 0
M  V30 4886 N 449.342 -1.36122 0.79427 0
M  V30 4887 C 450.275 -2.27759 0.141845 0
M  V30 4888 C 451.253 -1.47471 -0.684921 0
M  V30 4889 O 452.437 -1.76759 -0.654857 0
M  V30 4890 C 449.564 -3.29008 -0.804446 0
M  V30 4891 C 448.61 -4.26459 -0.0588617 0
M  V30 4892 S 449.443 -5.20253 1.26873 0
M  V30 4893 C 450.599 -6.25048 0.326562 0
M  V30 4894 H 450.832 -2.82746 0.918818 0
M  V30 4895 H 448.365 -1.42736 0.588722 0
M  V30 4896 H 450.323 -3.87842 -1.34495 0
M  V30 4897 H 448.984 -2.72924 -1.5547 0
M  V30 4898 H 448.177 -4.97973 -0.777087 0
M  V30 4899 H 447.779 -3.71731 0.411309 0
M  V30 4900 H 450.071 -6.75705 -0.492795 0
M  V30 4901 H 451.014 -7.00852 1.01053 0
M  V30 4902 H 451.422 -5.64454 -0.0722627 0
M  V30 4903 N 450.82 -0.546701 -1.47814 0
M  V30 4904 C 451.77 0.227042 -2.26867 0
M  V30 4905 C 452.754 0.894844 -1.33721 0
M  V30 4906 O 453.946 0.794887 -1.58147 0
M  V30 4907 C 451.075 1.26299 -3.19223 0
M  V30 4908 C 450.161 0.59913 -4.19847 0
M  V30 4909 N 450.552 -0.324777 -5.04756 0
M  V30 4910 C 448.85 0.854331 -4.37741 0
M  V30 4911 C 449.551 -0.709386 -5.77358 0
M  V30 4912 N 448.527 -0.0666153 -5.43559 0
M  V30 4913 H 452.329 -0.483476 -2.89896 0
M  V30 4914 H 449.843 -0.365893 -1.58224 0
M  V30 4915 H 451.84 1.83116 -3.74532 0
M  V30 4916 H 450.5 1.97471 -2.57751 0
M  V30 4917 H 451.511 -0.698351 -5.1317 0
M  V30 4918 H 448.188 1.55536 -3.87447 0
M  V30 4919 H 449.578 -1.46796 -6.55668 0
M  V30 4920 N 452.299 1.55045 -0.282633 0
M  V30 4921 C 453.576 1.9179 0.384166 0
M  V30 4922 C 453.956 1.20778 1.73136 0
M  V30 4923 O 453.304 0.33719 2.25998 0
M  V30 4924 C 453.514 3.45149 0.517014 0
M  V30 4925 C 454.862 4.17064 0.796427 0
M  V30 4926 O 455.886 3.51084 0.601535 0
M  V30 4927 O 454.745 5.33837 1.16962 0
M  V30 4928 H 451.839 0.799483 0.211558 0
M  V30 4929 H 454.385 1.66474 -0.32934 0
M  V30 4930 H 453.157 3.88922 -0.430772 0
M  V30 4931 H 452.78 3.76443 1.2797 0
M  V30 4932 N 453.777 0.010035 1.57597 0
M  V30 4933 C 454.687 -0.994226 2.12491 0
M  V30 4934 C 455.703 -1.37013 1.07254 0
M  V30 4935 O 456.879 -1.45542 1.3921 0
M  V30 4936 C 453.944 -2.2642 2.62555 0
M  V30 4937 C 453.005 -1.95049 3.82432 0
M  V30 4938 C 452.238 -3.15991 4.30099 0
M  V30 4939 O 452.461 -4.28015 3.7704 0
M  V30 4940 O 451.395 -2.99403 5.22151 0
M  V30 4941 H 455.221 -0.557549 2.98538 0
M  V30 4942 H 452.806 -0.209413 1.47925 0
M  V30 4943 H 454.688 -3.01009 2.9491 0
M  V30 4944 H 453.363 -2.69306 1.796 0
M  V30 4945 H 452.27 -1.17904 3.55034 0
M  V30 4946 H 453.603 -1.56992 4.66491 0
M  V30 4947 N 455.255 -1.55392 -0.262866 0
M  V30 4948 C 456.202 -1.88966 -1.32516 0
M  V30 4949 C 457.172 -0.742187 -1.48596 0
M  V30 4950 O 458.357 -0.99439 -1.62839 0
M  V30 4951 C 455.497 -2.17592 -2.67858 0
M  V30 4952 C 454.61 -3.45061 -2.59917 0
M  V30 4953 C 453.745 -3.63336 -3.87505 0
M  V30 4954 C 452.784 -4.84462 -3.74116 0
M  V30 4955 N 451.921 -4.99342 -4.93561 0
M  V30 4956 H 456.761 -2.79566 -1.03184 0
M  V30 4957 H 454.298 -1.38404 -0.498285 0
M  V30 4958 H 456.256 -2.3219 -3.46617 0
M  V30 4959 H 454.886 -1.30215 -2.95371 0
M  V30 4960 H 453.938 -3.38881 -1.72812 0
M  V30 4961 H 455.25 -4.3396 -2.45926 0
M  V30 4962 H 454.404 -3.77807 -4.74707 0
M  V30 4963 H 453.143 -2.72641 -4.04374 0
M  V30 4964 H 452.148 -4.69985 -2.85297 0
M  V30 4965 H 453.373 -5.76603 -3.58757 0
M  V30 4966 H 451.319 -4.1158 -5.10821 0
M  V30 4967 H 451.236 -5.82303 -4.82141 0
M  V30 4968 H 452.504 -5.18208 -5.82306 0
M  V30 4969 N 456.733 0.527833 -1.48498 0
M  V30 4970 C 457.979 1.28545 -1.56857 0
M  V30 4971 C 458.312 1.92678 -0.242651 0
M  V30 4972 O 457.587 1.79394 0.751545 0
M  V30 4973 C 457.87 2.37314 -2.70839 0
M  V30 4974 C 457.723 1.77858 -4.13142 0
M  V30 4975 C 459.042 3.39068 -2.80573 0
M  V30 4976 H 456.161 0.466006 -0.570971 0
M  V30 4977 H 458.803 0.587784 -1.8068 0
M  V30 4978 H 456.953 2.96821 -2.50658 0
M  V30 4979 H 458.625 1.22385 -4.44769 0
M  V30 4980 H 456.868 1.08383 -4.20042 0
M  V30 4981 H 457.539 2.56624 -4.88721 0
M  V30 4982 H 460.015 2.89518 -2.98862 0
M  V30 4983 H 458.891 4.12566 -3.6205 0
M  V30 4984 H 459.152 3.9975 -1.88818 0
M  V30 4985 N 458.211 1.37122 0.776871 0
M  V30 4986 C 459.488 1.22586 1.52421 0
M  V30 4987 C 459.868 -0.182726 2.10308 0
M  V30 4988 O 459.216 -1.18979 1.9508 0
M  V30 4989 C 459.426 2.31782 2.60918 0
M  V30 4990 C 460.774 2.69071 3.2846 0
M  V30 4991 O 461.798 2.3092 2.71209 0
M  V30 4992 O 460.657 3.3478 4.31954 0
M  V30 4993 H 457.751 0.478045 0.674835 0
M  V30 4994 H 460.297 1.48888 0.814275 0
M  V30 4995 H 459.069 3.26131 2.16227 0
M  V30 4996 H 458.692 2.06916 3.39517 0
M  V30 4997 N 459.689 -1.00246 1.21608 0
M  V30 4998 C 460.619 -2.10921 1.00172 0
M  V30 4999 C 461.6 -1.69938 -0.0741587 0
M  V30 5000 O 462.785 -1.94009 0.0861753 0
M  V30 5001 C 459.915 -3.42618 0.568355 0
M  V30 5002 C 458.869 -3.97407 1.58909 0
M  V30 5003 C 458.195 -5.25038 1.01187 0
M  V30 5004 C 459.495 -4.2918 2.97661 0
M  V30 5005 H 461.189 -2.29112 1.92739 0
M  V30 5006 H 458.735 -1.10101 0.928102 0
M  V30 5007 H 460.688 -4.19444 0.405555 0
M  V30 5008 H 459.412 -3.24227 -0.392961 0
M  V30 5009 H 458.071 -3.22703 1.73949 0
M  V30 5010 H 457.719 -5.02982 0.0421965 0
M  V30 5011 H 457.419 -5.62661 1.6937 0
M  V30 5012 H 458.943 -6.04507 0.860448 0
M  V30 5013 H 460.357 -4.96839 2.86049 0
M  V30 5014 H 458.754 -4.77952 3.6288 0
M  V30 5015 H 459.824 -3.3735 3.48315 0
M  V30 5016 N 461.167 -1.02423 -1.1978 0
M  V30 5017 C 462.413 -0.72878 -1.89896 0
M  V30 5018 C 462.768 0.734248 -1.77839 0
M  V30 5019 O 462.061 1.52733 -1.15685 0
M  V30 5020 C 462.255 -1.1088 -3.39765 0
M  V30 5021 C 462.084 -2.60722 -3.66407 0
M  V30 5022 C 460.854 -3.27623 -3.84696 0
M  V30 5023 C 463.052 -3.58924 -3.68345 0
M  V30 5024 N 461.034 -4.66617 -3.98926 0
M  V30 5025 C 462.405 -4.83514 -3.8809 0
M  V30 5026 C 464.46 -3.52788 -3.51347 0
M  V30 5027 C 463.163 -6.0271 -3.92598 0
M  V30 5028 C 465.189 -4.71394 -3.5713 0
M  V30 5029 C 464.551 -5.94796 -3.77356 0
M  V30 5030 H 460.65 -0.318473 -0.714212 0
M  V30 5031 H 463.234 -1.3106 -1.43984 0
M  V30 5032 H 461.405 -0.555233 -3.84411 0
M  V30 5033 H 463.137 -0.766082 -3.97383 0
M  V30 5034 H 459.892 -2.7804 -3.83393 0
M  V30 5035 H 460.316 -5.38805 -4.099 0
M  V30 5036 H 464.958 -2.58372 -3.3467 0
M  V30 5037 H 462.676 -6.97499 -4.08069 0
M  V30 5038 H 466.262 -4.6827 -3.45275 0
M  V30 5039 H 465.142 -6.85037 -3.81699 0
M  V30 5040 N 462.645 1.35699 -0.801477 0
M  V30 5041 C 463.87 2.03687 -0.390678 0
M  V30 5042 C 464.295 1.60015 0.988778 0
M  V30 5043 O 463.653 0.774357 1.63931 0
M  V30 5044 C 463.701 3.57439 -0.476404 0
M  V30 5045 O 462.805 4.09208 0.512106 0
M  V30 5046 H 462.146 0.64344 -0.163956 0
M  V30 5047 H 464.676 1.73403 -1.08594 0
M  V30 5048 H 464.686 4.06544 -0.344357 0
M  V30 5049 H 463.361 3.88576 -1.48262 0
M  V30 5050 H 461.938 3.7134 0.340721 0
M  V30 5051 N 464.123 0.554532 1.47522 0
M  V30 5052 C 465.053 -0.182974 2.32782 0
M  V30 5053 C 466.034 -0.911377 1.43624 0
M  V30 5054 O 467.219 -0.892366 1.72483 0
M  V30 5055 C 464.349 -1.21513 3.25349 0
M  V30 5056 C 463.303 -0.603355 4.23726 0
M  V30 5057 C 462.629 -1.73995 5.05598 0
M  V30 5058 C 463.929 0.441121 5.20434 0
M  V30 5059 H 465.623 0.52882 2.94693 0
M  V30 5060 H 463.169 0.255759 1.41711 0
M  V30 5061 H 465.122 -1.73922 3.83835 0
M  V30 5062 H 463.846 -1.95683 2.61487 0
M  V30 5063 H 462.505 -0.10059 3.66462 0
M  V30 5064 H 462.153 -2.47063 4.38143 0
M  V30 5065 H 461.853 -1.3364 5.72201 0
M  V30 5066 H 463.377 -2.26735 5.66942 0
M  V30 5067 H 464.791 0.00319931 5.733 0
M  V30 5068 H 463.188 0.763402 5.95224 0
M  V30 5069 H 464.258 1.33799 4.66075 0
M  V30 5070 N 465.601 -1.54893 0.290851 0
M  V30 5071 C 466.849 -1.99538 -0.320756 0
M  V30 5072 C 467.17 -1.18075 -1.55188 0
M  V30 5073 O 466.44 -0.274162 -1.93972 0
M  V30 5074 H 465.02 -0.737052 -0.121507 0
M  V30 5075 H 467.682 -1.90755 0.399832 0
M  V30 5076 H 466.778 -3.06282 -0.599802 0
M  V30 5077 N 467.08 -0.0183926 -1.57589 0
M  V30 5078 C 468.326 0.663543 -1.91638 0
M  V30 5079 C 468.659 1.72392 -0.894134 0
M  V30 5080 O 467.934 1.94316 0.0846449 0
M  V30 5081 C 468.217 1.28984 -3.36207 0
M  V30 5082 C 468.07 0.239761 -4.49161 0
M  V30 5083 C 469.389 2.2109 -3.80536 0
M  V30 5084 H 466.508 0.239746 -0.696915 0
M  V30 5085 H 469.15 -0.073456 -1.89858 0
M  V30 5086 H 467.3 1.91799 -3.37854 0
M  V30 5087 H 468.972 -0.390119 -4.59647 0
M  V30 5088 H 467.215 -0.435972 -4.31604 0
M  V30 5089 H 467.886 0.717383 -5.47319 0
M  V30 5090 H 470.362 1.68273 -3.80557 0
M  V30 5091 H 469.238 2.61869 -4.82406 0
M  V30 5092 H 469.499 3.09764 -3.15434 0
M  V30 5093 N 468.558 1.5553 0.254621 0
M  V30 5094 C 469.488 1.9268 1.31897 0
M  V30 5095 C 470.469 0.790797 1.506 0
M  V30 5096 O 471.654 1.05045 1.63337 0
M  V30 5097 C 468.784 2.21477 2.67517 0
M  V30 5098 C 467.738 3.37256 2.63519 0
M  V30 5099 C 467.064 3.51576 4.02862 0
M  V30 5100 C 468.364 4.73157 2.21179 0
M  V30 5101 H 470.058 2.81832 1.01051 0
M  V30 5102 H 467.604 1.35599 0.484662 0
M  V30 5103 H 469.557 2.46055 3.42104 0
M  V30 5104 H 468.281 1.29144 2.99982 0
M  V30 5105 H 466.94 3.12675 1.9139 0
M  V30 5106 H 466.588 2.56676 4.32581 0
M  V30 5107 H 466.288 4.2943 4.01078 0
M  V30 5108 H 467.812 3.78467 4.79161 0
M  V30 5109 H 469.226 4.97158 2.85494 0
M  V30 5110 H 467.623 5.54058 2.30521 0
M  V30 5111 H 468.693 4.70739 1.16332 0
M  V30 5112 N 470.036 -0.519951 1.48776 0
M  V30 5113 C 471.276 -1.2856 1.58908 0
M  V30 5114 C 471.64 -1.90212 0.261418 0
M  V30 5115 O 472.841 -2.67746 0.237791 0
M  V30 5116 C 471.112 -2.33836 2.70288 0
M  V30 5117 S 472.671 -3.19992 3.0025 0
M  V30 5118 H 469.489 -0.43717 0.560717 0
M  V30 5119 H 472.091 -0.591205 1.86346 0
M  V30 5120 H 470.795 -1.87041 3.653 0
M  V30 5121 H 470.326 -3.07969 2.44783 0
M  V30 5122 H 472.341 -4.34122 2.40317 0
M  V30 5123 N 471.514 -1.37532 -0.769588 0
M  V30 5124 C 472.744 -1.35861 -1.55645 0
M  V30 5125 C 473.152 0.0574398 -1.89113 0
M  V30 5126 O 472.495 1.03021 -1.52093 0
M  V30 5127 C 472.557 -2.13431 -2.89288 0
M  V30 5128 C 472.221 -3.62378 -2.78444 0
M  V30 5129 C 473.218 -4.56215 -2.49326 0
M  V30 5130 C 470.903 -4.05529 -2.96398 0
M  V30 5131 C 472.897 -5.91181 -2.38294 0
M  V30 5132 C 470.584 -5.40579 -2.84987 0
M  V30 5133 C 471.582 -6.33218 -2.55975 0
M  V30 5134 O 471.27 -7.65787 -2.44594 0
M  V30 5135 H 471.002 -0.467001 -0.48876 0
M  V30 5136 H 473.556 -1.81505 -0.961515 0
M  V30 5137 H 471.786 -1.62481 -3.50909 0
M  V30 5138 H 473.475 -2.04368 -3.50697 0
M  V30 5139 H 474.241 -4.24187 -2.35139 0
M  V30 5140 H 470.12 -3.33781 -3.1798 0
M  V30 5141 H 473.664 -6.63457 -2.15571 0
M  V30 5142 H 469.561 -5.72209 -2.98743 0
M  V30 5143 H 470.329 -7.76132 -2.59927 0
M  V30 5144 N 472.992 0.995999 -1.22138 0
M  V30 5145 C 473.902 2.11985 -1.00496 0
M  V30 5146 C 474.918 1.7394 0.0457701 0
M  V30 5147 O 476.094 2.00868 -0.146273 0
M  V30 5148 C 473.159 3.41779 -0.582086 0
M  V30 5149 C 472.22 3.93943 -1.70608 0
M  V30 5150 C 471.453 5.17542 -1.30328 0
M  V30 5151 O 471.676 5.70114 -0.180743 0
M  V30 5152 O 470.61 5.63382 -2.11861 0
M  V30 5153 H 474.436 2.33123 -1.94647 0
M  V30 5154 H 472.021 1.10358 -1.00705 0
M  V30 5155 H 473.903 4.1989 -0.356467 0
M  V30 5156 H 472.578 3.22007 0.330592 0
M  V30 5157 H 471.485 3.17019 -1.98619 0
M  V30 5158 H 472.818 4.18141 -2.59651 0
M  V30 5159 N 474.47 1.03057 1.19235 0
M  V30 5160 C 475.717 0.728019 1.88961 0
M  V30 5161 C 476.045 -0.743515 1.79728 0
M  V30 5162 O 475.3 -1.55729 1.1852 0
M  V30 5163 C 475.599 1.1268 3.39172 0
M  V30 5164 C 475.265 2.5969 3.68608 0
M  V30 5165 C 473.927 2.99854 3.76352 0
M  V30 5166 C 476.279 3.54793 3.81801 0
M  V30 5167 C 473.607 4.34031 3.94758 0
M  V30 5168 C 475.959 4.88675 4.0172 0
M  V30 5169 C 474.623 5.28526 4.07697 0
M  V30 5170 H 473.893 0.266401 0.691456 0
M  V30 5171 H 476.54 1.29373 1.41191 0
M  V30 5172 H 474.845 0.479722 3.88852 0
M  V30 5173 H 476.542 0.870203 3.91444 0
M  V30 5174 H 473.132 2.27575 3.63191 0
M  V30 5175 H 477.316 3.24914 3.7516 0
M  V30 5176 H 472.572 4.6444 3.97625 0
M  V30 5177 H 476.746 5.6228 4.1087 0
M  V30 5178 H 474.373 6.32506 4.21712 0
M  V30 5179 N 475.948 -1.35272 0.808662 0
M  V30 5180 C 476.878 -2.32315 0.234981 0
M  V30 5181 C 477.859 -1.57572 -0.64071 0
M  V30 5182 O 479.044 -1.8563 -0.570551 0
M  V30 5183 C 476.174 -3.41801 -0.615601 0
M  V30 5184 C 475.128 -4.27694 0.161767 0
M  V30 5185 C 474.454 -5.28519 -0.810649 0
M  V30 5186 C 475.754 -5.04231 1.36193 0
M  V30 5187 H 477.448 -2.80543 1.04575 0
M  V30 5188 H 474.994 -1.3488 0.504315 0
M  V30 5189 H 476.947 -4.08693 -1.02702 0
M  V30 5190 H 475.671 -2.92186 -1.45928 0
M  V30 5191 H 474.33 -3.62384 0.554382 0
M  V30 5192 H 473.978 -4.75171 -1.64988 0
M  V30 5193 H 473.678 -5.8686 -0.294822 0
M  V30 5194 H 475.202 -5.98283 -1.22023 0
M  V30 5195 H 476.616 -5.64058 1.02528 0
M  V30 5196 H 475.013 -5.72077 1.81239 0
M  V30 5197 H 476.083 -4.34753 2.14751 0
M  V30 5198 N 477.426 -0.562348 -1.47226 0
M  V30 5199 C 478.672 -0.0402761 -2.0276 0
M  V30 5200 C 479.005 1.30823 -1.43523 0
M  V30 5201 O 478.28 1.85249 -0.592705 0
M  V30 5202 C 478.563 0.047311 -3.60069 0
M  V30 5203 C 478.416 -1.32865 -4.29729 0
M  V30 5204 C 479.735 0.758182 -4.3352 0
M  V30 5205 H 476.854 -0.0161105 -0.736824 0
M  V30 5206 H 479.496 -0.725628 -1.75598 0
M  V30 5207 H 477.646 0.630986 -3.83342 0
M  V30 5208 H 479.318 -1.95593 -4.17781 0
M  V30 5209 H 477.561 -1.90195 -3.89882 0
M  V30 5210 H 478.232 -1.22004 -5.38349 0
M  V30 5211 H 480.708 0.262546 -4.15271 0
M  V30 5212 H 479.584 0.78844 -5.43208 0
M  V30 5213 H 479.845 1.81537 -4.03109 0
M  V30 5214 N 478.904 1.54736 -0.299062 0
M  V30 5215 C 480.152 1.99706 0.31017 0
M  V30 5216 C 480.473 1.18896 1.54559 0
M  V30 5217 O 479.743 0.284445 1.93824 0
M  V30 5218 H 478.323 0.737686 0.117596 0
M  V30 5219 H 480.985 1.9054 -0.409943 0
M  V30 5220 H 480.081 3.06596 0.58355 0
M  V30 5221 N 480.382 0.0267497 1.57577 0
M  V30 5222 C 481.329 -0.955894 2.10075 0
M  V30 5223 C 482.299 -1.32453 1.00226 0
M  V30 5224 O 483.484 -1.41826 1.27632 0
M  V30 5225 C 480.624 -2.2338 2.6305 0
M  V30 5226 C 479.737 -1.92183 3.86898 0
M  V30 5227 C 478.872 -3.14251 4.28275 0
M  V30 5228 C 477.911 -2.78862 5.44888 0
M  V30 5229 N 477.048 -3.93548 5.81433 0
M  V30 5230 H 481.888 -0.501303 2.93753 0
M  V30 5231 H 479.425 -0.235847 1.45197 0
M  V30 5232 H 481.383 -2.98124 2.91853 0
M  V30 5233 H 480.013 -2.6646 1.82205 0
M  V30 5234 H 479.065 -1.07692 3.64838 0
M  V30 5235 H 480.377 -1.62117 4.7172 0
M  V30 5236 H 479.531 -3.97317 4.58502 0
M  V30 5237 H 478.27 -3.47476 3.42215 0
M  V30 5238 H 477.275 -1.94208 5.14357 0
M  V30 5239 H 478.5 -2.46855 6.32645 0
M  V30 5240 H 476.446 -4.2662 4.98328 0
M  V30 5241 H 476.363 -3.67098 6.6089 0
M  V30 5242 H 477.631 -4.77325 6.16264 0
M  V30 5243 N 481.861 -1.55662 -0.24637 0
M  V30 5244 C 483.272 -1.67953 -0.81539 0
M  V30 5245 C 483.623 -0.624302 -1.86002 0
M  V30 5246 O 482.748 0.229328 -2.15181 0
M  V30 5247 C 483.343 -3.04484 -1.48576 0
M  V30 5248 C 481.902 -3.18713 -2.00248 0
M  V30 5249 C 481.049 -2.6383 -0.853766 0
M  V30 5250 H 484 -1.58685 -0.0221692 0
M  V30 5251 H 484.021 -2.98959 -2.3538 0
M  V30 5252 H 483.533 -3.81264 -0.725222 0
M  V30 5253 H 481.634 -2.46757 -2.79181 0
M  V30 5254 H 481.747 -4.25628 -2.1995 0
M  V30 5255 H 480.111 -2.21667 -1.25442 0
M  V30 5256 H 480.894 -3.43135 -0.106302 0
M  V30 5257 N 483.339 0.512053 -1.4905 0
M  V30 5258 C 484.75 1.09376 -1.51307 0
M  V30 5259 C 485.101 1.94 -0.292971 0
M  V30 5260 O 484.226 2.07965 0.598277 0
M  V30 5261 C 484.821 1.99031 -2.74176 0
M  V30 5262 C 483.38 2.52385 -2.79247 0
M  V30 5263 C 482.527 1.29749 -2.45073 0
M  V30 5264 H 485.478 0.296467 -1.55906 0
M  V30 5265 H 485.499 2.83569 -2.53711 0
M  V30 5266 H 485.011 1.37412 -3.62959 0
M  V30 5267 H 483.112 3.17673 -1.94716 0
M  V30 5268 H 483.225 2.90293 -3.81139 0
M  V30 5269 H 481.589 1.61912 -1.96612 0
M  V30 5270 H 482.372 0.698555 -3.36118 0
M  V30 5271 N 484.817 1.37938 0.762283 0
M  V30 5272 C 486.064 1.33668 1.52115 0
M  V30 5273 C 486.392 -0.0759538 1.94352 0
M  V30 5274 O 485.647 -1.05121 1.6507 0
M  V30 5275 C 485.946 2.23042 2.79261 0
M  V30 5276 C 485.612 3.71159 2.56031 0
M  V30 5277 C 484.274 4.11523 2.49404 0
M  V30 5278 C 486.626 4.64955 2.35513 0
M  V30 5279 C 483.954 5.43784 2.20263 0
M  V30 5280 C 486.306 5.97464 2.07894 0
M  V30 5281 C 484.97 6.36922 1.99718 0
M  V30 5282 H 484.24 0.489127 0.556629 0
M  V30 5283 H 486.887 1.70224 0.877262 0
M  V30 5284 H 485.192 1.79512 3.48256 0
M  V30 5285 H 486.889 2.17047 3.37182 0
M  V30 5286 H 483.479 3.39153 2.62056 0
M  V30 5287 H 487.663 4.34623 2.39617 0
M  V30 5288 H 482.919 5.73307 2.12435 0
M  V30 5289 H 487.093 6.6969 1.91019 0
M  V30 5290 H 484.72 7.39331 1.76902 0
M  V30 5291 N 486.295 -0.989507 1.22664 0
M  V30 5292 C 487.205 -2.11449 1.01619 0
M  V30 5293 C 488.221 -1.73962 -0.036545 0
M  V30 5294 O 489.397 -2.00788 0.156924 0
M  V30 5295 C 486.462 -3.41465 0.600204 0
M  V30 5296 C 485.523 -3.93033 1.72695 0
M  V30 5297 C 484.756 -5.16844 1.33071 0
M  V30 5298 O 484.979 -5.7001 0.210975 0
M  V30 5299 O 483.913 -5.6225 2.14845 0
M  V30 5300 H 487.739 -2.32088 1.9588 0
M  V30 5301 H 485.324 -1.09823 1.01289 0
M  V30 5302 H 487.206 -4.19695 0.37873 0
M  V30 5303 H 485.881 -3.22178 -0.313511 0
M  V30 5304 H 484.788 -3.15961 2.00298 0
M  V30 5305 H 486.121 -4.16758 2.61865 0
M  V30 5306 N 487.773 -1.03688 -1.18687 0
M  V30 5307 C 488.736 -0.629115 -2.20397 0
M  V30 5308 C 489.736 0.311495 -1.57754 0
M  V30 5309 O 490.926 0.0974107 -1.73927 0
M  V30 5310 C 488.058 0.0782231 -3.4081 0
M  V30 5311 H 489.251 -1.52915 -2.57987 0
M  V30 5312 H 486.804 -0.828988 -1.32505 0
M  V30 5313 H 487.539 0.992233 -3.08748 0
M  V30 5314 H 487.324 -0.597776 -3.87517 0
M  V30 5315 H 488.814 0.350156 -4.16129 0
M  V30 5316 N 489.251 1.34841 -0.815825 0
M  V30 5317 C 490.199 2.31549 -0.220888 0
M  V30 5318 C 491.193 1.5707 0.634457 0
M  V30 5319 O 492.399 1.72125 0.526589 0
M  V30 5320 H 488.774 0.750153 -0.0526782 0
M  V30 5321 H 490.745 2.7926 -1.05149 0
M  V30 5322 C 489.494 3.42335 0.608427 0
M  V30 5323 H 488.817 3.9978 -0.0404121 0
M  V30 5324 H 490.257 4.12258 0.990931 0
M  V30 5325 C 488.716 2.86173 1.77782 0
M  V30 5326 O 489.246 2.80474 2.87571 0
M  V30 5327 N 487.452 2.43093 1.59229 0
M  V30 5328 H 486.999 2.47928 0.699237 0
M  V30 5329 H 486.957 2.05866 2.37627 0
M  V30 5330 N 490.729 0.570148 1.46925 0
M  V30 5331 C 491.957 0.0561966 2.06824 0
M  V30 5332 C 492.372 -1.24326 1.42086 0
M  V30 5333 O 491.729 -1.74882 0.521794 0
M  V30 5334 C 491.78 -0.129517 3.61268 0
M  V30 5335 O 491.501 1.1185 4.23581 0
M  V30 5336 C 493.002 -0.679266 4.38065 0
M  V30 5337 H 490.222 0.0517261 0.669003 0
M  V30 5338 H 492.766 0.787243 1.8874 0
M  V30 5339 H 490.921 -0.810739 3.78822 0
M  V30 5340 H 491.335 0.924375 5.1629 0
M  V30 5341 H 492.809 -0.758445 5.46765 0
M  V30 5342 H 493.286 -1.69346 4.05239 0
M  V30 5343 H 493.892 -0.0333237 4.25287 0
M  V30 5344 N 492.207 -1.54576 0.307264 0
M  V30 5345 C 493.437 -2.04378 -0.302158 0
M  V30 5346 C 493.845 -1.18381 -1.47589 0
M  V30 5347 O 493.188 -0.20352 -1.82569 0
M  V30 5348 C 493.25 -3.50133 -0.815305 0
M  V30 5349 C 492.914 -4.56401 0.233977 0
M  V30 5350 C 493.911 -5.08884 1.06456 0
M  V30 5351 C 491.596 -5.0088 0.377478 0
M  V30 5352 C 493.59 -6.04394 2.02452 0
M  V30 5353 C 491.277 -5.96208 1.34088 0
M  V30 5354 C 492.275 -6.47849 2.16288 0
M  V30 5355 O 491.963 -7.41308 3.10994 0
M  V30 5356 H 491.695 -0.672502 -0.0686839 0
M  V30 5357 H 494.249 -2.00484 0.446682 0
M  V30 5358 H 492.479 -3.51371 -1.61478 0
M  V30 5359 H 494.168 -3.83098 -1.34129 0
M  V30 5360 H 494.934 -4.75311 0.964596 0
M  V30 5361 H 490.813 -4.60309 -0.252405 0
M  V30 5362 H 494.357 -6.44626 2.66652 0
M  V30 5363 H 490.254 -6.29198 1.44154 0
M  V30 5364 H 491.022 -7.5913 3.06045 0
M  V30 5365 N 493.685 -0.035106 -1.57561 0
M  V30 5366 C 494.617 0.973604 -2.07494 0
M  V30 5367 C 495.63 1.28504 -0.999534 0
M  V30 5368 O 496.819 1.24864 -1.27559 0
M  V30 5369 C 493.919 2.29945 -2.48955 0
M  V30 5370 C 493.092 2.1723 -3.79644 0
M  V30 5371 C 492.151 3.328 -4.07592 0
M  V30 5372 O 491.177 3.09418 -4.77754 0
M  V30 5373 N 492.379 4.56779 -3.58236 0
M  V30 5374 H 495.144 0.547525 -2.94656 0
M  V30 5375 H 492.705 0.151515 -1.61189 0
M  V30 5376 H 494.697 3.06097 -2.64739 0
M  V30 5377 H 493.267 2.64173 -1.67126 0
M  V30 5378 H 492.487 1.25768 -3.73599 0
M  V30 5379 H 493.775 2.05945 -4.65257 0
M  V30 5380 H 493.173 4.78668 -3.01485 0
M  V30 5381 H 491.73 5.30079 -3.79288 0
M  V30 5382 N 495.163 1.55791 0.238111 0
M  V30 5383 C 496.073 1.94196 1.31625 0
M  V30 5384 C 497.089 0.843545 1.52185 0
M  V30 5385 O 498.265 1.1457 1.65637 0
M  V30 5386 C 495.33 2.2365 2.64918 0
M  V30 5387 C 494.391 3.46971 2.52804 0
M  V30 5388 C 493.624 3.7501 3.79741 0
M  V30 5389 O 493.847 3.04982 4.82019 0
M  V30 5390 O 492.781 4.68525 3.77846 0
M  V30 5391 H 496.607 2.86044 1.02043 0
M  V30 5392 H 494.192 1.42786 0.439603 0
M  V30 5393 H 496.074 2.43863 3.4367 0
M  V30 5394 H 494.749 1.34979 2.94215 0
M  V30 5395 H 493.656 3.32055 1.72309 0
M  V30 5396 H 494.989 4.35971 2.28451 0
M  V30 5397 N 496.642 -0.504142 1.49319 0
M  V30 5398 C 497.87 -1.28256 1.62351 0
M  V30 5399 C 498.285 -1.86502 0.293682 0
M  V30 5400 O 497.642 -1.67678 -0.720449 0
M  V30 5401 C 497.693 -2.41507 2.68992 0
M  V30 5402 O 497.414 -1.85656 3.96817 0
M  V30 5403 C 498.915 -3.32929 2.927 0
M  V30 5404 H 496.135 -0.389115 0.546654 0
M  V30 5405 H 498.679 -0.605531 1.95329 0
M  V30 5406 H 496.834 -3.05046 2.38801 0
M  V30 5407 H 497.248 -2.59981 4.55533 0
M  V30 5408 H 498.722 -4.0868 3.71058 0
M  V30 5409 H 499.199 -3.89733 2.02496 0
M  V30 5410 H 499.805 -2.75158 3.24296 0
M  V30 5411 N 498.12 -1.38341 -0.754957 0
M  V30 5412 C 499.35 -1.37504 -1.54195 0
M  V30 5413 C 499.758 0.0373787 -1.89163 0
M  V30 5414 O 499.101 1.01402 -1.53178 0
M  V30 5415 C 499.163 -2.16488 -2.87008 0
M  V30 5416 C 498.827 -3.65311 -2.74585 0
M  V30 5417 C 499.824 -4.58834 -2.44474 0
M  V30 5418 C 497.509 -4.08649 -2.9208 0
M  V30 5419 C 499.503 -5.93675 -2.32011 0
M  V30 5420 C 497.19 -5.43571 -2.79237 0
M  V30 5421 C 498.188 -6.35898 -2.49245 0
M  V30 5422 O 497.876 -7.68338 -2.36458 0
M  V30 5423 H 497.608 -0.472159 -0.483779 0
M  V30 5424 H 500.162 -1.82515 -0.94221 0
M  V30 5425 H 498.392 -1.66194 -3.49166 0
M  V30 5426 H 500.081 -2.08076 -3.4851 0
M  V30 5427 H 500.847 -4.26657 -2.30627 0
M  V30 5428 H 496.726 -3.37134 -3.14422 0
M  V30 5429 H 500.27 -6.65706 -2.08522 0
M  V30 5430 H 496.167 -5.75345 -2.92657 0
M  V30 5431 H 496.935 -7.78845 -2.5168 0
M  V30 5432 N 499.598 0.982988 -1.23187 0
M  V30 5433 C 500.545 2.07491 -1.01075 0
M  V30 5434 C 501.515 1.65949 0.070905 0
M  V30 5435 O 502.7 1.90629 -0.0806822 0
M  V30 5436 C 499.84 3.39751 -0.605261 0
M  V30 5437 C 498.953 3.94578 -1.75876 0
M  V30 5438 C 498.088 5.15039 -1.3003 0
M  V30 5439 C 497.127 5.62027 -2.42472 0
M  V30 5440 N 496.264 6.73719 -1.97602 0
M  V30 5441 H 501.104 2.25739 -1.9454 0
M  V30 5442 H 498.641 1.10659 -0.969179 0
M  V30 5443 H 500.599 4.15719 -0.351279 0
M  V30 5444 H 499.229 3.21473 0.292382 0
M  V30 5445 H 498.281 3.1539 -2.12681 0
M  V30 5446 H 499.593 4.25422 -2.60418 0
M  V30 5447 H 498.747 5.9833 -1.00429 0
M  V30 5448 H 497.486 4.85843 -0.425216 0
M  V30 5449 H 496.491 4.77318 -2.7285 0
M  V30 5450 H 497.716 5.93244 -3.30512 0
M  V30 5451 H 495.662 6.46287 -1.1247 0
M  V30 5452 H 495.579 7.03934 -2.75705 0
M  V30 5453 H 496.847 7.6049 -1.71098 0
M  V30 5454 N 501.076 1.04316 1.18135 0
M  V30 5455 C 502.492 0.762858 1.40188 0
M  V30 5456 C 502.692 -0.646547 1.90846 0
M  V30 5457 O 501.748 -1.41036 2.0944 0
M  V30 5458 C 503.061 1.81106 2.40044 0
M  V30 5459 C 504.609 1.83226 2.53766 0
M  V30 5460 C 505.084 2.87044 3.56889 0
M  V30 5461 N 506.575 2.85951 3.64398 0
M  V30 5462 C 507.31 3.62932 4.43923 0
M  V30 5463 N 506.806 4.49672 5.27036 0
M  V30 5464 N 508.599 3.51411 4.38711 0
M  V30 5465 H 500.75 1.95264 0.835805 0
M  V30 5466 H 503.013 0.845017 0.429709 0
M  V30 5467 H 502.719 2.82214 2.09876 0
M  V30 5468 H 502.593 1.64529 3.39426 0
M  V30 5469 H 504.98 0.827869 2.8325 0
M  V30 5470 H 505.061 2.03879 1.54489 0
M  V30 5471 H 504.705 3.87663 3.28145 0
M  V30 5472 H 504.635 2.63645 4.5585 0
M  V30 5473 H 507.126 2.23051 3.05052 0
M  V30 5474 H 507.439 5.05116 5.84874 0
M  V30 5475 H 505.784 4.53738 5.26447 0
M  V30 5476 H 508.975 2.83047 3.72829 0
M  V30 5477 H 509.148 4.11654 5.00445 0
M  V30 5478 N 502.554 -1.34406 0.822964 0
M  V30 5479 C 503.803 -1.97542 0.407458 0
M  V30 5480 C 504.116 -1.65973 -1.035 0
M  V30 5481 O 505.322 -2.22598 -1.55442 0
M  V30 5482 C 503.778 -3.53463 0.677623 0
M  V30 5483 C 503.386 -3.93925 2.1337 0
M  V30 5484 C 505.13 -4.23229 0.328284 0
M  V30 5485 C 503.037 -5.42759 2.34876 0
M  V30 5486 H 501.967 -0.739207 0.148623 0
M  V30 5487 H 504.618 -1.53248 1.00932 0
M  V30 5488 H 503 -3.96 0.00558965 0
M  V30 5489 H 504.174 -3.62494 2.8449 0
M  V30 5490 H 502.489 -3.37097 2.44448 0
M  V30 5491 H 505.086 -5.32659 0.466794 0
M  V30 5492 H 505.429 -4.09899 -0.727224 0
M  V30 5493 H 505.962 -3.86169 0.954896 0
M  V30 5494 H 502.701 -5.61075 3.38932 0
M  V30 5495 H 502.221 -5.75704 1.68299 0
M  V30 5496 H 503.9 -6.0944 2.17236 0
M  V30 5497 N 504.032 -0.577932 -1.46621 0
M  V30 5498 C 505.257 -0.0652536 -2.07297 0
M  V30 5499 C 505.682 1.22828 -1.4246 0
M  V30 5500 O 505.04 1.74075 -0.506718 0
M  V30 5501 C 505.088 0.0920589 -3.60482 0
M  V30 5502 O 504.192 1.14972 -3.96049 0
M  V30 5503 H 503.533 -0.06065 -0.661224 0
M  V30 5504 H 506.063 -0.799515 -1.88332 0
M  V30 5505 H 506.073 0.299741 -4.06897 0
M  V30 5506 H 504.748 -0.852612 -4.07067 0
M  V30 5507 H 503.325 0.920879 -3.61351 0
M  V30 5508 N 505.51 1.54411 -0.315457 0
M  V30 5509 C 506.926 1.59556 0.037464 0
M  V30 5510 C 507.126 1.33217 1.5118 0
M  V30 5511 O 506.182 1.11264 2.26664 0
M  V30 5512 C 507.495 2.98372 -0.373477 0
M  V30 5513 C 509.043 3.11324 -0.323452 0
M  V30 5514 C 509.518 4.52472 -0.709433 0
M  V30 5515 N 511.009 4.58437 -0.662524 0
M  V30 5516 C 511.744 5.65751 -0.933474 0
M  V30 5517 N 511.24 6.81039 -1.27114 0
M  V30 5518 N 513.033 5.55489 -0.859573 0
M  V30 5519 H 505.184 1.6979 -1.27614 0
M  V30 5520 H 507.447 0.793732 -0.518356 0
M  V30 5521 H 507.153 3.22618 -1.40037 0
M  V30 5522 H 507.027 3.76264 0.265615 0
M  V30 5523 H 509.414 2.86818 0.694223 0
M  V30 5524 H 509.495 2.35555 -0.997367 0
M  V30 5525 H 509.139 4.7771 -1.72498 0
M  V30 5526 H 509.069 5.26598 -0.0132923 0
M  V30 5527 H 511.56 3.75636 -0.413065 0
M  V30 5528 H 511.873 7.58816 -1.46348 0
M  V30 5529 H 510.218 6.82555 -1.30932 0
M  V30 5530 H 513.409 4.64299 -0.595324 0
M  V30 5531 H 513.582 6.39036 -1.0741 0
M  V30 5532 N 506.988 0.0434614 1.5754 0
M  V30 5533 C 508.234 -0.632971 1.92669 0
M  V30 5534 C 508.567 -1.70947 0.921446 0
M  V30 5535 O 507.842 -1.94426 -0.0537202 0
M  V30 5536 C 508.125 -1.23619 3.38216 0
M  V30 5537 C 507.978 -0.168274 4.49485 0
M  V30 5538 C 509.297 -2.15008 3.84005 0
M  V30 5539 H 506.416 -0.228629 0.700641 0
M  V30 5540 H 509.058 0.103651 1.89717 0
M  V30 5541 H 507.208 -1.864 3.40863 0
M  V30 5542 H 508.88 0.463196 4.58969 0
M  V30 5543 H 507.123 0.504581 4.30855 0
M  V30 5544 H 507.794 -0.630218 5.48391 0
M  V30 5545 H 510.27 -1.62198 3.83185 0
M  V30 5546 H 509.146 -2.54161 4.86511 0
M  V30 5547 H 509.407 -3.04707 3.20322 0
M  V30 5548 N 508.466 -1.55915 -0.229846 0
M  V30 5549 C 509.376 -1.94891 -1.30593 0
M  V30 5550 C 510.392 -0.851604 -1.51736 0
M  V30 5551 O 511.568 -1.15447 -1.65027 0
M  V30 5552 C 508.633 -2.25052 -2.63728 0
M  V30 5553 C 507.694 -3.48306 -2.5096 0
M  V30 5554 C 506.927 -3.77019 -3.77747 0
M  V30 5555 O 507.15 -3.07534 -4.80395 0
M  V30 5556 O 506.084 -4.70523 -3.75356 0
M  V30 5557 H 509.91 -2.86581 -1.00525 0
M  V30 5558 H 507.495 -1.43017 -0.432025 0
M  V30 5559 H 509.377 -2.45682 -3.42372 0
M  V30 5560 H 508.052 -1.36538 -2.93495 0
M  V30 5561 H 506.959 -3.32964 -1.70546 0
M  V30 5562 H 508.292 -4.37177 -2.26136 0
M  V30 5563 N 509.944 0.496216 -1.49584 0
M  V30 5564 C 511.191 1.25003 -1.59312 0
M  V30 5565 C 511.519 1.92445 -0.28198 0
M  V30 5566 O 510.774 1.81557 0.730452 0
M  V30 5567 C 511.073 2.3359 -2.705 0
M  V30 5568 C 510.739 1.83574 -4.11839 0
M  V30 5569 C 509.401 1.69653 -4.50302 0
M  V30 5570 C 511.753 1.46193 -5.00277 0
M  V30 5571 C 509.081 1.16736 -5.74969 0
M  V30 5572 C 511.433 0.947265 -6.25468 0
M  V30 5573 C 510.097 0.794485 -6.62755 0
M  V30 5574 H 509.367 0.45742 -0.582965 0
M  V30 5575 H 512.014 0.549996 -1.83432 0
M  V30 5576 H 510.319 3.09401 -2.40371 0
M  V30 5577 H 512.016 2.91627 -2.75235 0
M  V30 5578 H 508.606 1.9537 -3.81482 0
M  V30 5579 H 512.79 1.55793 -4.71214 0
M  V30 5580 H 508.046 1.03623 -6.02555 0
M  V30 5581 H 512.22 0.648846 -6.93371 0
M  V30 5582 H 509.847 0.382271 -7.59238 0
M  V30 5583 N 511.423 1.38739 0.74761 0
M  V30 5584 C 512.651 1.38521 1.53686 0
M  V30 5585 C 513.066 -0.0235129 1.88785 0
M  V30 5586 O 512.423 -0.991662 1.53207 0
M  V30 5587 C 512.474 2.24641 2.83229 0
M  V30 5588 O 512.195 3.60026 2.49625 0
M  V30 5589 C 513.696 2.32669 3.77333 0
M  V30 5590 H 510.916 0.473589 0.475347 0
M  V30 5591 H 513.46 1.82395 0.924786 0
M  V30 5592 H 511.615 1.84213 3.40799 0
M  V30 5593 H 512.029 4.05435 3.3275 0
M  V30 5594 H 513.503 2.97201 4.65162 0
M  V30 5595 H 513.98 1.3421 4.18192 0
M  V30 5596 H 514.586 2.73512 3.25685 0
M  V30 5597 N 512.901 -0.976442 1.23707 0
M  V30 5598 C 514.148 -1.71827 1.07153 0
M  V30 5599 C 514.476 -1.9053 -0.390982 0
M  V30 5600 O 513.731 -1.45779 -1.30564 0
M  V30 5601 C 514.03 -3.11814 1.74662 0
M  V30 5602 C 513.696 -3.12978 3.24585 0
M  V30 5603 C 512.358 -3.13003 3.6549 0
M  V30 5604 C 514.71 -3.07986 4.20469 0
M  V30 5605 C 512.038 -3.05757 5.00729 0
M  V30 5606 C 514.39 -3.02282 5.55705 0
M  V30 5607 C 513.054 -3.00631 5.95968 0
M  V30 5608 H 512.324 -0.628758 0.392102 0
M  V30 5609 H 514.971 -1.14239 1.53693 0
M  V30 5610 H 513.276 -3.72812 1.20492 0
M  V30 5611 H 514.973 -3.67989 1.59328 0
M  V30 5612 H 511.563 -3.13718 2.92026 0
M  V30 5613 H 515.747 -3.07103 3.89874 0
M  V30 5614 H 511.003 -3.02834 5.31132 0
M  V30 5615 H 515.177 -2.97376 6.29714 0
M  V30 5616 H 512.804 -2.94771 7.00724 0
M  V30 5617 N 514.379 -1.04941 -1.1758 0
M  V30 5618 C 515.79 -0.784501 -1.69418 0
M  V30 5619 C 516.141 0.693625 -1.8353 0
M  V30 5620 O 515.266 1.53925 -1.52106 0
M  V30 5621 C 515.861 -1.41746 -3.07723 0
M  V30 5622 C 514.42 -1.20066 -3.56737 0
M  V30 5623 C 513.567 -1.5026 -2.33061 0
M  V30 5624 H 516.518 -1.21469 -1.02133 0
M  V30 5625 H 516.539 -0.825381 -3.7144 0
M  V30 5626 H 516.051 -2.49325 -2.9742 0
M  V30 5627 H 514.152 -0.144006 -3.72322 0
M  V30 5628 H 514.265 -1.90384 -4.39648 0
M  V30 5629 H 512.629 -0.922598 -2.37403 0
M  V30 5630 H 513.412 -2.58967 -2.25368 0
M  V30 5631 N 515.857 1.33968 -0.830081 0
M  V30 5632 C 517.134 1.92554 -0.343858 0
M  V30 5633 C 517.514 1.7573 1.16971 0
M  V30 5634 O 516.862 1.14035 1.98011 0
M  V30 5635 C 517.072 3.40147 -0.781073 0
M  V30 5636 C 518.42 4.17299 -0.78402 0
M  V30 5637 O 519.444 3.48762 -0.724112 0
M  V30 5638 O 518.303 5.39631 -0.863739 0
M  V30 5639 H 515.397 0.821469 -0.0954827 0
M  V30 5640 H 517.943 1.42897 -0.915348 0
M  V30 5641 H 516.715 3.46225 -1.82329 0
M  V30 5642 H 516.338 3.97166 -0.18567 0
M  V30 5643 N 517.335 0.585699 1.46312 0
M  V30 5644 C 518.582 0.0724211 2.0237 0
M  V30 5645 C 518.91 -1.28868 1.45683 0
M  V30 5646 O 518.165 -1.85853 0.612945 0
M  V30 5647 C 518.464 -0.0401312 3.57377 0
M  V30 5648 C 518.13 1.25376 4.33119 0
M  V30 5649 C 516.792 1.60824 4.5353 0
M  V30 5650 C 519.144 2.10987 4.76586 0
M  V30 5651 C 516.472 2.81676 5.14661 0
M  V30 5652 C 518.824 3.31068 5.39052 0
M  V30 5653 C 517.488 3.66794 5.5769 0
M  V30 5654 H 516.758 0.0265007 0.740526 0
M  V30 5655 H 519.405 0.762935 1.75646 0
M  V30 5656 H 517.71 -0.813791 3.83255 0
M  V30 5657 H 519.407 -0.453078 3.98432 0
M  V30 5658 H 515.997 0.967808 4.1753 0
M  V30 5659 H 520.181 1.84904 4.60569 0
M  V30 5660 H 515.437 3.0949 5.27282 0
M  V30 5661 H 519.611 3.97672 5.71691 0
M  V30 5662 H 517.238 4.60529 6.04828 0
M  V30 5663 N 518.813 -1.54241 0.323641 0
M  V30 5664 C 520.059 -2.00867 -0.279323 0
M  V30 5665 C 520.392 -1.21146 -1.5178 0
M  V30 5666 O 519.667 -0.29378 -1.92269 0
M  V30 5667 C 519.95 -3.54837 -0.613387 0
M  V30 5668 C 519.803 -4.45284 0.635803 0
M  V30 5669 C 521.122 -4.16186 -1.43099 0
M  V30 5670 H 518.241 -0.730177 -0.100049 0
M  V30 5671 H 520.883 -1.84829 0.440235 0
M  V30 5672 H 519.033 -3.68634 -1.22641 0
M  V30 5673 H 520.705 -4.43357 1.27406 0
M  V30 5674 H 518.948 -4.14956 1.26466 0
M  V30 5675 H 519.619 -5.5084 0.357597 0
M  V30 5676 H 522.095 -4.05964 -0.912814 0
M  V30 5677 H 520.971 -5.24031 -1.6335 0
M  V30 5678 H 521.232 -3.69516 -2.42715 0
M  V30 5679 N 520.291 -0.0518155 -1.57515 0
M  V30 5680 C 521.519 0.631395 -1.9703 0
M  V30 5681 C 521.934 1.64341 -0.92938 0
M  V30 5682 O 521.291 1.82296 0.0863266 0
M  V30 5683 C 521.342 1.31774 -3.36627 0
M  V30 5684 O 521.063 0.346247 -4.3673 0
M  V30 5685 C 522.564 2.09065 -3.90905 0
M  V30 5686 H 519.784 0.172576 -0.648428 0
M  V30 5687 H 522.328 -0.118306 -2.04158 0
M  V30 5688 H 520.483 2.01867 -3.30649 0
M  V30 5689 H 520.897 0.836226 -5.17791 0
M  V30 5690 H 522.371 2.52508 -4.9086 0
M  V30 5691 H 522.848 2.93908 -3.26366 0
M  V30 5692 H 523.454 1.43882 -4.00223 0
M  V30 5693 N 521.769 1.56035 0.221574 0
M  V30 5694 C 522.679 1.95581 1.29558 0
M  V30 5695 C 523.695 0.859639 1.51282 0
M  V30 5696 O 524.871 1.16321 1.64413 0
M  V30 5697 C 521.936 2.26447 2.62531 0
M  V30 5698 C 520.997 3.49632 2.4911 0
M  V30 5699 C 520.23 3.79017 3.75742 0
M  V30 5700 O 520.453 3.10077 4.78757 0
M  V30 5701 O 519.387 4.72507 3.72855 0
M  V30 5702 H 523.213 2.8711 0.990035 0
M  V30 5703 H 520.798 1.43244 0.424434 0
M  V30 5704 H 522.68 2.47494 3.41064 0
M  V30 5705 H 521.355 1.38092 2.92766 0
M  V30 5706 H 520.262 3.33864 1.68777 0
M  V30 5707 H 521.595 4.3837 2.23814 0
M  V30 5708 N 523.247 -0.488276 1.49845 0
M  V30 5709 C 524.495 -1.23911 1.59657 0
M  V30 5710 C 524.816 -1.92816 0.291005 0
M  V30 5711 O 524.086 -1.83328 -0.690485 0
M  V30 5712 H 522.666 -0.460357 0.588286 0
M  V30 5713 H 525.328 -0.564794 1.86537 0
M  V30 5714 H 524.424 -1.99625 2.39909 0
M  V30 5715 N 524.725 -1.39134 -0.740242 0
M  V30 5716 C 525.688 -1.37217 -1.83587 0
M  V30 5717 C 526.688 -0.270221 -1.58513 0
M  V30 5718 O 527.878 -0.527843 -1.6601 0
M  V30 5719 C 525.01 -1.13959 -3.21288 0
M  V30 5720 H 526.203 -2.34705 -1.86691 0
M  V30 5721 H 523.756 -1.24622 -0.94335 0
M  V30 5722 H 524.491 -0.17131 -3.23847 0
M  V30 5723 H 524.276 -1.93754 -3.40884 0
M  V30 5724 H 525.766 -1.15346 -4.01354 0
M  V30 5725 N 526.204 0.969867 -1.24223 0
M  V30 5726 C 527.62 1.23809 -1.00716 0
M  V30 5727 C 527.82 1.99469 0.285358 0
M  V30 5728 O 526.876 2.31764 1.00207 0
M  V30 5729 C 528.189 2.02734 -2.2208 0
M  V30 5730 C 529.737 2.15834 -2.26681 0
M  V30 5731 C 530.212 2.98154 -3.47661 0
M  V30 5732 N 531.703 3.05737 -3.47964 0
M  V30 5733 C 532.438 3.69785 -4.38231 0
M  V30 5734 N 531.934 4.35569 -5.3875 0
M  V30 5735 N 533.727 3.66775 -4.25949 0
M  V30 5736 H 525.878 0.463294 -2.07286 0
M  V30 5737 H 528.141 0.267348 -0.909521 0
M  V30 5738 H 527.847 1.54524 -3.15935 0
M  V30 5739 H 527.721 3.0347 -2.24021 0
M  V30 5740 H 530.108 2.63248 -1.33359 0
M  V30 5741 H 530.189 1.14453 -2.28767 0
M  V30 5742 H 529.833 2.51435 -4.41297 0
M  V30 5743 H 529.763 3.99729 -3.42818 0
M  V30 5744 H 532.254 2.58941 -2.75242 0
M  V30 5745 H 532.567 4.82251 -6.03866 0
M  V30 5746 H 530.912 4.34244 -5.42639 0
M  V30 5747 H 534.103 3.14558 -3.46657 0
M  V30 5748 H 534.276 4.16407 -4.96497 0
M  V30 5749 N 527.682 1.05563 1.17022 0
M  V30 5750 C 528.959 0.68165 1.83338 0
M  V30 5751 C 529.339 -0.837665 1.93769 0
M  V30 5752 O 528.687 -1.74507 1.47511 0
M  V30 5753 C 528.897 1.375 3.20772 0
M  V30 5754 C 530.245 1.51545 3.96635 0
M  V30 5755 O 531.269 1.33431 3.30264 0
M  V30 5756 O 530.128 1.812 5.15586 0
M  V30 5757 H 527.222 0.240412 0.791285 0
M  V30 5758 H 529.768 1.15545 1.24288 0
M  V30 5759 H 528.54 2.41135 3.08171 0
M  V30 5760 H 528.163 0.890798 3.87493 0
M  V30 5761 N 529.16 -1.33526 0.837174 0
M  V30 5762 C 530.09 -2.31764 0.284206 0
M  V30 5763 C 531.071 -1.58896 -0.607142 0
M  V30 5764 O 532.256 -1.86798 -0.531047 0
M  V30 5765 C 529.386 -3.43029 -0.542962 0
M  V30 5766 C 528.34 -4.27255 0.252451 0
M  V30 5767 C 527.666 -5.3012 -0.69836 0
M  V30 5768 C 528.966 -5.01229 1.46858 0
M  V30 5769 H 530.66 -2.78262 1.10502 0
M  V30 5770 H 528.206 -1.3378 0.532812 0
M  V30 5771 H 530.159 -4.1078 -0.940096 0
M  V30 5772 H 528.883 -2.95216 -1.39697 0
M  V30 5773 H 527.542 -3.61127 0.631124 0
M  V30 5774 H 527.19 -4.78564 -1.54872 0
M  V30 5775 H 526.89 -5.87353 -0.170274 0
M  V30 5776 H 528.414 -6.00737 -1.09305 0
M  V30 5777 H 529.828 -5.61756 1.14469 0
M  V30 5778 H 528.225 -5.68104 1.93333 0
M  V30 5779 H 529.295 -4.301 2.23924 0
M  V30 5780 N 530.638 -0.59345 -1.46 0
M  V30 5781 C 531.887 -0.0808084 -2.01538 0
M  V30 5782 C 532.2 1.29112 -1.46934 0
M  V30 5783 O 533.406 1.8957 -1.94359 0
M  V30 5784 C 531.862 -0.0938311 -3.59778 0
M  V30 5785 C 531.47 -1.46474 -4.23379 0
M  V30 5786 C 533.214 0.364306 -4.22934 0
M  V30 5787 C 531.121 -1.4349 -5.73729 0
M  V30 5788 H 530.051 -0.0264407 -0.753536 0
M  V30 5789 H 532.702 -0.746689 -1.67621 0
M  V30 5790 H 531.084 0.638427 -3.9082 0
M  V30 5791 H 532.258 -2.21758 -4.03931 0
M  V30 5792 H 530.573 -1.86379 -3.7236 0
M  V30 5793 H 533.17 0.405584 -5.3316 0
M  V30 5794 H 533.513 1.38409 -3.92618 0
M  V30 5795 H 534.046 -0.31423 -3.96557 0
M  V30 5796 H 530.785 -2.43184 -6.08722 0
M  V30 5797 H 530.305 -0.724431 -5.95409 0
M  V30 5798 H 531.984 -1.15243 -6.36654 0
M  V30 5799 N 532.116 1.54067 -0.331816 0
M  V30 5800 C 533.341 2.05599 0.272705 0
M  V30 5801 C 533.766 1.2059 1.44359 0
M  V30 5802 O 533.124 0.216907 1.79998 0
M  V30 5803 C 533.172 3.54188 0.677021 0
M  V30 5804 O 532.276 3.72082 1.77844 0
M  V30 5805 H 531.617 0.662286 0.0476801 0
M  V30 5806 H 534.147 1.98826 -0.482624 0
M  V30 5807 H 534.157 3.96608 0.957415 0
M  V30 5808 H 532.832 4.15513 -0.179325 0
M  V30 5809 H 531.409 3.41566 1.49622 0
M  V30 5810 N 533.594 0.0601682 1.57485 0
M  V30 5811 C 535.01 -0.296422 1.56823 0
M  V30 5812 C 535.21 -1.70831 1.0686 0
M  V30 5813 O 534.266 -2.4174 0.729245 0
M  V30 5814 C 535.579 -0.116681 3.00474 0
M  V30 5815 C 537.127 -0.187103 3.1244 0
M  V30 5816 C 537.602 -0.035783 4.57986 0
M  V30 5817 N 539.093 -0.0917676 4.63109 0
M  V30 5818 C 539.828 0.00107251 5.734 0
M  V30 5819 N 539.324 0.146773 6.92645 0
M  V30 5820 N 541.117 -0.0551577 5.62073 0
M  V30 5821 H 533.268 0.983055 1.88281 0
M  V30 5822 H 535.531 0.382386 0.867459 0
M  V30 5823 H 535.237 0.85712 3.41096 0
M  V30 5824 H 535.111 -0.873929 3.66936 0
M  V30 5825 H 537.498 -1.15138 2.71712 0
M  V30 5826 H 537.579 0.601052 2.48638 0
M  V30 5827 H 537.223 0.925212 4.99402 0
M  V30 5828 H 537.153 -0.843196 5.19806 0
M  V30 5829 H 539.644 -0.203261 3.77353 0
M  V30 5830 H 539.957 0.210076 7.72514 0
M  V30 5831 H 538.302 0.181979 6.94762 0
M  V30 5832 H 541.493 -0.167605 4.678 0
M  V30 5833 H 541.666 0.020652 6.47997 0
M  V30 5834 N 535.072 -1.5615 -0.213296 0
M  V30 5835 C 536.002 -1.96109 -1.26742 0
M  V30 5836 C 536.983 -0.830448 -1.48451 0
M  V30 5837 O 538.168 -1.09339 -1.60495 0
M  V30 5838 C 535.298 -2.28492 -2.61551 0
M  V30 5839 C 534.252 -3.44124 -2.54485 0
M  V30 5840 C 533.578 -3.62134 -3.93399 0
M  V30 5841 C 534.878 -4.78855 -2.08556 0
M  V30 5842 H 536.572 -2.84412 -0.935434 0
M  V30 5843 H 534.118 -1.36836 -0.44854 0
M  V30 5844 H 536.071 -2.55039 -3.3546 0
M  V30 5845 H 534.795 -1.37052 -2.96453 0
M  V30 5846 H 533.454 -3.17639 -1.83033 0
M  V30 5847 H 533.102 -2.68055 -4.25623 0
M  V30 5848 H 532.802 -4.39913 -3.89551 0
M  V30 5849 H 534.326 -3.91038 -4.68958 0
M  V30 5850 H 535.74 -5.04552 -2.72213 0
M  V30 5851 H 534.137 -5.59975 -2.1575 0
M  V30 5852 H 535.207 -4.73657 -1.03811 0
M  V30 5853 N 536.55 0.480323 -1.50102 0
M  V30 5854 C 537.48 1.58769 -1.71215 0
M  V30 5855 C 538.461 1.60583 -0.560997 0
M  V30 5856 O 539.646 1.76996 -0.799127 0
M  V30 5857 C 536.776 2.97148 -1.79778 0
M  V30 5858 C 535.73 3.10201 -2.94888 0
M  V30 5859 C 535.056 4.50137 -2.88584 0
M  V30 5860 C 536.356 2.88283 -4.35534 0
M  V30 5861 H 538.05 1.41354 -2.6393 0
M  V30 5862 H 535.596 0.678591 -1.27008 0
M  V30 5863 H 537.549 3.74536 -1.93133 0
M  V30 5864 H 536.273 3.15699 -0.836772 0
M  V30 5865 H 534.932 2.35244 -2.81169 0
M  V30 5866 H 534.58 4.65593 -1.90349 0
M  V30 5867 H 534.28 4.59808 -3.65856 0
M  V30 5868 H 535.804 5.29558 -3.03976 0
M  V30 5869 H 537.218 3.55427 -4.49827 0
M  V30 5870 H 535.615 3.09408 -5.14186 0
M  V30 5871 H 536.685 1.84219 -4.48544 0
M  V30 5872 N 538.028 1.39524 0.732853 0
M  V30 5873 C 538.975 1.38416 1.84688 0
M  V30 5874 C 539.945 0.243539 1.64305 0
M  V30 5875 O 541.13 0.438979 1.85681 0
M  V30 5876 C 538.27 1.23555 3.22224 0
M  V30 5877 C 537.383 2.47179 3.54298 0
M  V30 5878 C 536.518 2.2489 4.81246 0
M  V30 5879 C 535.557 3.44178 5.0617 0
M  V30 5880 N 534.694 3.21192 6.24323 0
M  V30 5881 H 539.534 2.33645 1.84971 0
M  V30 5882 H 537.071 1.16059 0.903804 0
M  V30 5883 H 539.029 1.12949 4.0162 0
M  V30 5884 H 537.659 0.31954 3.21215 0
M  V30 5885 H 536.711 2.68379 2.69587 0
M  V30 5886 H 538.023 3.36022 3.68633 0
M  V30 5887 H 537.177 2.11538 5.68627 0
M  V30 5888 H 535.916 1.33443 4.69089 0
M  V30 5889 H 534.921 3.58025 4.17251 0
M  V30 5890 H 536.146 4.36528 5.20212 0
M  V30 5891 H 534.092 2.32413 6.1345 0
M  V30 5892 H 534.009 4.03594 6.39256 0
M  V30 5893 H 535.277 3.1154 7.14537 0
M  V30 5894 N 539.506 -0.963266 1.24736 0
M  V30 5895 C 540.456 -2.0438 1.01058 0
M  V30 5896 C 541.44 -1.60824 -0.0495354 0
M  V30 5897 O 542.632 -1.76232 0.164741 0
M  V30 5898 C 539.761 -3.37617 0.622067 0
M  V30 5899 C 538.847 -3.87722 1.7185 0
M  V30 5900 N 539.238 -4.10715 2.95207 0
M  V30 5901 C 537.536 -4.16426 1.59703 0
M  V30 5902 C 538.237 -4.51872 3.66315 0
M  V30 5903 N 537.213 -4.57302 2.93897 0
M  V30 5904 H 541.015 -2.20138 1.94721 0
M  V30 5905 H 538.529 -1.14741 1.14927 0
M  V30 5906 H 540.526 -4.14638 0.43366 0
M  V30 5907 H 539.186 -3.23242 -0.307327 0
M  V30 5908 H 540.197 -3.98037 3.31341 0
M  V30 5909 H 536.874 -4.10962 0.73598 0
M  V30 5910 H 538.264 -4.78037 4.72155 0
M  V30 5911 N 540.985 -1.06182 -1.16461 0
M  V30 5912 C 541.933 -0.665716 -2.2287 0
M  V30 5913 C 542.927 0.317822 -1.66392 0
M  V30 5914 O 544.133 0.182807 -1.79069 0
M  V30 5915 H 540.508 -0.197148 -0.725697 0
M  V30 5916 H 542.479 -1.57307 -2.53569 0
M  V30 5917 C 541.228 -0.0669803 -3.47635 0
M  V30 5918 H 540.551 -0.814899 -3.91407 0
M  V30 5919 H 541.991 0.172669 -4.23648 0
M  V30 5920 C 540.45 1.18913 -3.15216 0
M  V30 5921 O 540.98 2.27723 -3.30916 0
M  V30 5922 N 539.186 1.09066 -2.69357 0
M  V30 5923 H 538.733 0.20518 -2.56782 0
M  V30 5924 H 538.691 1.93195 -2.48039 0
M  V30 5925 N 542.463 1.3308 -0.844243 0
M  V30 5926 C 543.874 1.7992 -0.498566 0
M  V30 5927 C 544.225 1.69808 0.982834 0
M  V30 5928 O 543.35 1.25051 1.7661 0
M  V30 5929 C 543.945 3.26677 -0.898204 0
M  V30 5930 C 542.504 3.71513 -0.604583 0
M  V30 5931 C 541.651 2.54393 -1.10362 0
M  V30 5932 H 544.602 1.20526 -1.03244 0
M  V30 5933 H 544.623 3.79918 -0.21039 0
M  V30 5934 H 544.135 3.34004 -1.97643 0
M  V30 5935 H 542.236 3.69708 0.46335 0
M  V30 5936 H 542.349 4.64755 -1.16358 0
M  V30 5937 H 540.713 2.49246 -0.524273 0
M  V30 5938 H 541.496 2.6448 -2.18873 0
M  V30 5939 N 543.941 0.601185 1.45683 0
M  V30 5940 C 545.166 0.0982245 2.07167 0
M  V30 5941 C 545.591 -1.20546 1.44396 0
M  V30 5942 O 544.949 -1.73247 0.534347 0
M  V30 5943 C 544.997 -0.0346976 3.60583 0
M  V30 5944 O 544.101 -1.08657 3.97828 0
M  V30 5945 H 543.442 0.0711618 0.660176 0
M  V30 5946 H 545.972 0.829376 1.87036 0
M  V30 5947 H 545.982 -0.234969 4.07323 0
M  V30 5948 H 544.657 0.917265 4.05659 0
M  V30 5949 H 543.234 -0.863275 3.6277 0
M  V30 5950 N 545.419 -1.53889 0.339982 0
M  V30 5951 C 546.351 -2.22435 -0.55275 0
M  V30 5952 C 547.364 -1.22975 -1.06681 0
M  V30 5953 O 548.553 -1.49351 -0.977575 0
M  V30 5954 C 545.653 -2.8882 -1.77302 0
M  V30 5955 C 544.826 -4.14563 -1.39486 0
M  V30 5956 C 543.885 -4.64391 -2.47442 0
M  V30 5957 O 542.911 -5.28687 -2.10899 0
M  V30 5958 N 544.113 -4.40015 -3.78639 0
M  V30 5959 H 546.878 -2.9968 0.0342669 0
M  V30 5960 H 544.439 -1.61068 0.16394 0
M  V30 5961 H 546.431 -3.19072 -2.48948 0
M  V30 5962 H 545.001 -2.15182 -2.26749 0
M  V30 5963 H 544.221 -3.90896 -0.509321 0
M  V30 5964 H 545.509 -4.96362 -1.11813 0
M  V30 5965 H 544.907 -3.88586 -4.11118 0
M  V30 5966 H 543.464 -4.74881 -4.46465 0
M  V30 5967 N 546.897 -0.0685191 -1.57451 0
M  V30 5968 C 548.313 0.288101 -1.56978 0
M  V30 5969 C 548.513 1.70262 -1.07765 0
M  V30 5970 O 547.569 2.4135 -0.742054 0
M  V30 5971 C 548.882 0.100745 -3.00531 0
M  V30 5972 C 550.43 0.170531 -3.12535 0
M  V30 5973 C 550.905 0.0114944 -4.57999 0
M  V30 5974 N 552.396 0.0672065 -4.63151 0
M  V30 5975 C 553.131 -0.0314813 -5.73391 0
M  V30 5976 N 552.627 -0.183503 -6.92557 0
M  V30 5977 N 554.42 0.0253489 -5.62094 0
M  V30 5978 H 546.571 -0.993026 -1.87757 0
M  V30 5979 H 548.834 -0.386981 -0.865419 0
M  V30 5980 H 548.54 -0.875197 -3.40636 0
M  V30 5981 H 548.414 0.854457 -3.67395 0
M  V30 5982 H 550.801 1.13696 -2.72318 0
M  V30 5983 H 550.882 -0.614229 -2.48316 0
M  V30 5984 H 550.526 -0.951684 -4.98904 0
M  V30 5985 H 550.456 0.815617 -5.20245 0
M  V30 5986 H 552.947 0.183246 -3.77455 0
M  V30 5987 H 553.26 -0.251041 -7.72392 0
M  V30 5988 H 551.605 -0.218822 -6.94655 0
M  V30 5989 H 554.796 0.142794 -4.67882 0
M  V30 5990 H 554.969 -0.0550166 -6.47977 0
M  V30 5991 N 548.375 1.56261 0.205012 0
M  V30 5992 C 549.786 1.70056 0.770574 0
M  V30 5993 C 550.137 0.673398 1.84282 0
M  V30 5994 O 549.262 -0.172196 2.15714 0
M  V30 5995 C 549.857 3.08316 1.40451 0
M  V30 5996 C 548.416 3.2391 1.91727 0
M  V30 5997 C 547.563 2.66001 0.783516 0
M  V30 5998 H 550.514 1.58688 -0.019911 0
M  V30 5999 H 550.535 3.05094 2.27371 0
M  V30 6000 H 550.047 3.83053 0.623882 0
M  V30 6001 H 548.148 2.54072 2.7254 0
M  V30 6002 H 548.261 4.3131 2.08588 0
M  V30 6003 H 546.625 2.24915 1.19521 0
M  V30 6004 H 547.408 3.43297 0.0152883 0
M  V30 6005 N 549.853 -0.472356 1.50355 0
M  V30 6006 C 550.786 -1.58923 1.63764 0
M  V30 6007 C 551.764 -1.55173 0.485793 0
M  V30 6008 O 552.948 -1.74815 0.705132 0
M  V30 6009 C 550.075 -2.97497 1.61905 0
M  V30 6010 C 549.121 -3.19405 2.82635 0
M  V30 6011 S 549.954 -2.99441 4.43954 0
M  V30 6012 C 551.11 -4.40359 4.44786 0
M  V30 6013 H 551.343 -1.47309 2.58239 0
M  V30 6014 H 548.876 -0.659601 1.39602 0
M  V30 6015 H 550.834 -3.77389 1.61518 0
M  V30 6016 H 549.495 -3.06502 0.686683 0
M  V30 6017 H 548.688 -4.20636 2.77636 0
M  V30 6018 H 548.29 -2.47283 2.80583 0
M  V30 6019 H 550.582 -5.32969 4.1827 0
M  V30 6020 H 551.525 -4.50403 5.46391 0
M  V30 6021 H 551.933 -4.22378 3.74509 0
M  V30 6022 N 551.331 -1.39911 -0.725443 0
M  V30 6023 C 552.261 -1.42138 -1.85254 0
M  V30 6024 C 553.242 -0.283513 -1.67721 0
M  V30 6025 O 554.427 -0.490717 -1.87898 0
M  V30 6026 C 551.557 -1.27354 -3.23107 0
M  V30 6027 C 550.511 -2.3864 -3.55296 0
M  V30 6028 C 549.837 -2.08939 -4.92188 0
M  V30 6029 C 551.137 -3.8097 -3.57295 0
M  V30 6030 H 552.831 -2.36461 -1.83648 0
M  V30 6031 H 550.377 -1.13817 -0.882138 0
M  V30 6032 H 552.33 -1.2753 -4.01639 0
M  V30 6033 H 551.054 -0.295025 -3.25265 0
M  V30 6034 H 549.713 -2.37696 -2.79099 0
M  V30 6035 H 549.361 -1.09502 -4.90936 0
M  V30 6036 H 549.061 -2.83491 -5.14691 0
M  V30 6037 H 550.585 -2.10781 -5.73065 0
M  V30 6038 H 551.999 -3.8379 -4.25885 0
M  V30 6039 H 550.396 -4.5496 -3.9132 0
M  V30 6040 H 551.466 -4.11261 -2.5689 0
M  V30 6041 N 552.809 0.956637 -1.25245 0
M  V30 6042 C 554.225 1.22733 -1.02023 0
M  V30 6043 C 554.425 1.99761 0.264186 0
M  V30 6044 O 553.481 2.32814 0.977436 0
M  V30 6045 C 554.794 2.00367 -2.24217 0
M  V30 6046 C 556.342 2.13418 -2.28958 0
M  V30 6047 C 556.817 2.9445 -3.50803 0
M  V30 6048 N 558.308 3.02029 -3.51187 0
M  V30 6049 C 559.043 3.65116 -4.42129 0
M  V30 6050 N 558.539 4.2983 -5.43339 0
M  V30 6051 N 560.332 3.62237 -4.29815 0
M  V30 6052 H 552.483 0.441282 -2.07765 0
M  V30 6053 H 554.746 0.257686 -0.912306 0
M  V30 6054 H 554.452 1.51165 -3.17556 0
M  V30 6055 H 554.326 3.01077 -2.27228 0
M  V30 6056 H 556.713 2.61819 -1.36143 0
M  V30 6057 H 556.794 1.1202 -2.29968 0
M  V30 6058 H 556.438 2.46741 -4.43939 0
M  V30 6059 H 556.368 3.9607 -3.47039 0
M  V30 6060 H 558.859 2.56007 -2.77973 0
M  V30 6061 H 559.172 4.75819 -6.08947 0
M  V30 6062 H 557.517 4.28465 -5.47214 0
M  V30 6063 H 560.708 3.10863 -3.49974 0
M  V30 6064 H 560.881 4.11117 -5.00886 0
M  V30 6065 N 554.287 1.06798 1.15896 0
M  V30 6066 C 555.197 0.694564 2.24083 0
M  V30 6067 C 556.213 -0.291687 1.71538 0
M  V30 6068 O 557.389 -0.139723 2.00915 0
M  V30 6069 C 554.454 0.0921014 3.46578 0
M  V30 6070 C 553.515 1.13087 4.14137 0
M  V30 6071 C 552.748 0.557064 5.30785 0
M  V30 6072 O 552.971 -0.628623 5.66925 0
M  V30 6073 O 551.905 1.29924 5.8771 0
M  V30 6074 H 555.731 1.59663 2.58344 0
M  V30 6075 H 553.316 0.840575 1.2351 0
M  V30 6076 H 555.198 -0.241884 4.20705 0
M  V30 6077 H 553.873 -0.78337 3.14078 0
M  V30 6078 H 552.78 1.51712 3.41957 0
M  V30 6079 H 554.113 1.97805 4.50704 0
M  V30 6080 N 555.766 -1.3263 0.851289 0
M  V30 6081 C 557.012 -1.9766 0.453694 0
M  V30 6082 C 557.345 -1.67225 -0.987396 0
M  V30 6083 O 556.62 -0.958693 -1.69232 0
M  V30 6084 C 556.903 -3.5344 0.68936 0
M  V30 6085 C 556.756 -3.93517 2.17862 0
M  V30 6086 C 558.075 -4.39866 0.143555 0
M  V30 6087 H 555.194 -0.717989 0.166314 0
M  V30 6088 H 557.836 -1.57068 1.06909 0
M  V30 6089 H 555.986 -3.88147 0.165546 0
M  V30 6090 H 557.658 -3.69006 2.76826 0
M  V30 6091 H 555.901 -3.42798 2.65841 0
M  V30 6092 H 556.572 -5.02065 2.29422 0
M  V30 6093 H 559.048 -4.11875 0.591451 0
M  V30 6094 H 557.924 -5.47858 0.338043 0
M  V30 6095 H 558.185 -4.31696 -0.953466 0
M  V30 6096 N 557.244 -0.608902 -1.45362 0
M  V30 6097 C 558.174 0.0964526 -2.33301 0
M  V30 6098 C 559.155 0.857444 -1.46908 0
M  V30 6099 O 560.34 0.827735 -1.75676 0
M  V30 6100 C 557.47 1.09354 -3.29635 0
M  V30 6101 C 556.424 0.445676 -4.25673 0
M  V30 6102 C 555.75 1.5511 -5.11708 0
M  V30 6103 C 557.05 -0.633972 -5.18438 0
M  V30 6104 H 558.744 -0.637829 -2.92527 0
M  V30 6105 H 556.29 -0.308178 -1.40664 0
M  V30 6106 H 558.243 1.59556 -3.90025 0
M  V30 6107 H 556.967 1.85843 -2.6857 0
M  V30 6108 H 555.626 -0.0354897 -3.66583 0
M  V30 6109 H 555.274 2.30631 -4.4701 0
M  V30 6110 H 554.974 1.12311 -5.76767 0
M  V30 6111 H 556.498 2.05537 -5.74967 0
M  V30 6112 H 557.912 -0.215974 -5.72893 0
M  V30 6113 H 556.309 -0.983789 -5.91981 0
M  V30 6114 H 557.379 -1.51005 -4.60788 0
M  V30 6115 N 558.722 1.53707 -0.348139 0
M  V30 6116 C 559.632 2.28881 0.514857 0
M  V30 6117 C 560.648 1.34168 1.10793 0
M  V30 6118 O 561.824 1.6721 1.12262 0
M  V30 6119 C 558.889 3.05042 1.64774 0
M  V30 6120 C 557.95 4.15389 1.08398 0
M  V30 6121 C 557.183 4.87909 2.16287 0
M  V30 6122 O 557.406 4.60137 3.3709 0
M  V30 6123 O 556.34 5.74254 1.80323 0
M  V30 6124 H 560.166 3.03547 -0.0963699 0
M  V30 6125 H 557.751 1.48972 -0.113043 0
M  V30 6126 H 559.633 3.52656 2.30677 0
M  V30 6127 H 558.308 2.33228 2.24469 0
M  V30 6128 H 557.215 3.72068 0.389341 0
M  V30 6129 H 558.548 4.89318 0.531829 0
M  V30 6130 N 560.2 0.0768682 1.57412 0
M  V30 6131 C 561.15 -0.898795 2.09537 0
M  V30 6132 C 562.134 -1.25556 1.0062 0
M  V30 6133 O 563.326 -1.23369 1.26921 0
M  V30 6134 C 560.455 -2.16453 2.66464 0
M  V30 6135 C 559.541 -1.83401 3.82393 0
M  V30 6136 N 559.932 -1.20823 4.91157 0
M  V30 6137 C 558.23 -2.13121 3.91785 0
M  V30 6138 C 558.931 -1.05976 5.71965 0
M  V30 6139 N 557.907 -1.57113 5.204 0
M  V30 6140 H 561.709 -0.410718 2.91016 0
M  V30 6141 H 559.223 -0.126878 1.61904 0
M  V30 6142 H 561.22 -2.87274 3.02125 0
M  V30 6143 H 559.88 -2.65844 1.86433 0
M  V30 6144 H 560.891 -0.877249 5.10416 0
M  V30 6145 H 557.568 -2.64854 3.22736 0
M  V30 6146 H 558.958 -0.571809 6.69462 0
M  V30 6147 N 561.678 -1.56367 -0.196722 0
M  V30 6148 C 563.089 -1.70462 -0.761545 0
M  V30 6149 C 563.44 -0.683161 -1.83922 0
M  V30 6150 O 562.565 0.160753 -2.15802 0
M  V30 6151 C 563.16 -3.09057 -1.38814 0
M  V30 6152 C 561.719 -3.24922 -1.90007 0
M  V30 6153 C 560.866 -2.66412 -0.769399 0
M  V30 6154 H 563.817 -1.58675 0.0283263 0
M  V30 6155 H 563.838 -3.06296 -2.2575 0
M  V30 6156 H 563.35 -3.83378 -0.603559 0
M  V30 6157 H 561.451 -2.55514 -2.71189 0
M  V30 6158 H 561.564 -4.3241 -2.06297 0
M  V30 6159 H 559.928 -2.25546 -1.18326 0
M  V30 6160 H 560.711 -3.433 0.00291773 0
M  V30 6161 N 563.156 0.464375 -1.50603 0
M  V30 6162 C 564.402 1.21485 -1.63135 0
M  V30 6163 C 564.757 1.89538 -0.33063 0
M  V30 6164 O 564.05 1.79432 0.671903 0
M  V30 6165 C 564.244 2.278 -2.75394 0
M  V30 6166 C 564.073 1.70178 -4.16257 0
M  V30 6167 C 562.843 1.49854 -4.82568 0
M  V30 6168 C 565.041 1.19298 -5.00272 0
M  V30 6169 N 563.023 0.875458 -6.07626 0
M  V30 6170 C 564.394 0.693527 -6.16109 0
M  V30 6171 C 566.449 1.08216 -4.85998 0
M  V30 6172 C 565.152 0.0941808 -7.19238 0
M  V30 6173 C 567.178 0.496745 -5.8931 0
M  V30 6174 C 566.54 0.00770448 -7.044 0
M  V30 6175 H 562.639 0.433184 -0.651057 0
M  V30 6176 H 565.223 0.515748 -1.87745 0
M  V30 6177 H 563.394 2.95129 -2.52495 0
M  V30 6178 H 565.126 2.94814 -2.77249 0
M  V30 6179 H 561.881 1.75269 -4.39975 0
M  V30 6180 H 562.305 0.582135 -6.74493 0
M  V30 6181 H 566.947 1.44617 -3.97298 0
M  V30 6182 H 564.665 -0.28202 -8.07608 0
M  V30 6183 H 568.251 0.413275 -5.8033 0
M  V30 6184 H 567.131 -0.438188 -7.82975 0
M  V30 6185 N 564.634 1.40294 0.718013 0
M  V30 6186 C 565.883 1.37746 1.4734 0
M  V30 6187 C 566.196 -0.0180754 1.95592 0
M  V30 6188 O 567.402 -0.166166 2.70991 0
M  V30 6189 C 565.858 2.4208 2.66318 0
M  V30 6190 C 565.466 3.87432 2.24945 0
M  V30 6191 C 567.21 2.48635 3.44065 0
M  V30 6192 C 565.117 4.83368 3.40748 0
M  V30 6193 H 564.047 0.512165 0.553356 0
M  V30 6194 H 566.698 1.66019 0.781661 0
M  V30 6195 H 565.08 2.06903 3.3765 0
M  V30 6196 H 566.254 4.3174 1.6105 0
M  V30 6197 H 564.569 3.8433 1.60249 0
M  V30 6198 H 567.166 3.17499 4.30231 0
M  V30 6199 H 567.509 1.51611 3.87711 0
M  V30 6200 H 568.042 2.82791 2.79775 0
M  V30 6201 H 564.781 5.81716 3.02136 0
M  V30 6202 H 564.301 4.43726 4.03568 0
M  V30 6203 H 565.98 5.03074 4.06848 0
M  V30 6204 N 566.112 -0.949982 1.2575 0
M  V30 6205 C 567.34 -1.72972 1.13527 0
M  V30 6206 C 567.755 -1.8623 -0.310453 0
M  V30 6207 O 567.112 -1.36336 -1.2132 0
M  V30 6208 C 567.163 -3.14108 1.78936 0
M  V30 6209 O 566.884 -3.01493 3.17858 0
M  V30 6210 C 568.385 -4.08338 1.72554 0
M  V30 6211 H 565.605 -0.541864 0.395758 0
M  V30 6212 H 568.149 -1.19151 1.66202 0
M  V30 6213 H 566.304 -3.64858 1.30221 0
M  V30 6214 H 566.718 -3.90559 3.50092 0
M  V30 6215 H 568.192 -5.04963 2.22973 0
M  V30 6216 H 568.669 -4.33742 0.690251 0
M  V30 6217 H 569.275 -3.63506 2.2078 0
M  V30 6218 N 567.59 -1.07411 -1.15328 0
M  V30 6219 C 568.553 -0.698914 -2.18284 0
M  V30 6220 C 569.553 0.261149 -1.58665 0
M  V30 6221 O 570.743 0.0420277 -1.74149 0
M  V30 6222 C 567.875 -0.0302427 -3.40887 0
M  V30 6223 H 569.068 -1.61045 -2.52991 0
M  V30 6224 H 566.621 -0.870724 -1.298 0
M  V30 6225 H 567.356 0.893505 -3.11748 0
M  V30 6226 H 567.141 -0.720759 -3.85419 0
M  V30 6227 H 568.631 0.21759 -4.17033 0
M  V30 6228 N 569.068 1.32177 -0.85831 0
M  V30 6229 C 570.016 2.30729 -0.294442 0
M  V30 6230 C 571.01 1.59009 0.584165 0
M  V30 6231 O 572.216 1.73713 0.471562 0
M  V30 6232 H 568.591 0.748097 -0.0765171 0
M  V30 6233 H 570.562 2.75774 -1.1398 0
M  V30 6234 C 569.311 3.44098 0.499208 0
M  V30 6235 H 568.634 3.99449 -0.167579 0
M  V30 6236 H 570.074 4.15202 0.859273 0
M  V30 6237 C 568.533 2.91684 1.68588 0
M  V30 6238 O 569.063 2.89481 2.78503 0
M  V30 6239 N 567.269 2.48036 1.51415 0
M  V30 6240 H 566.816 2.50027 0.620006 0
M  V30 6241 H 566.774 2.13322 2.30957 0
M  V30 6242 N 570.547 0.616602 1.45037 0
M  V30 6243 C 571.772 0.120192 2.07051 0
M  V30 6244 C 572.197 -1.19008 1.45666 0
M  V30 6245 O 571.555 -1.7267 0.552692 0
M  V30 6246 C 571.603 0.00354901 3.606 0
M  V30 6247 O 570.707 -1.04431 3.98958 0
M  V30 6248 H 570.048 0.0781599 0.659384 0
M  V30 6249 H 572.578 0.849167 1.86146 0
M  V30 6250 H 572.588 -0.191754 4.07549 0
M  V30 6251 H 571.263 0.960239 4.04663 0
M  V30 6252 H 569.84 -0.824749 3.63665 0
M  V30 6253 N 572.025 -1.5352 0.356285 0
M  V30 6254 C 573.25 -2.06007 -0.239961 0
M  V30 6255 C 573.675 -1.22872 -1.42422 0
M  V30 6256 O 573.033 -0.245516 -1.7963 0
M  V30 6257 C 573.081 -3.5522 -0.620587 0
M  V30 6258 O 572.185 -3.74864 -1.71902 0
M  V30 6259 H 571.526 -0.662961 -0.0371377 0
M  V30 6260 H 574.056 -1.98033 0.514194 0
M  V30 6261 H 574.066 -3.98081 -0.894197 0
M  V30 6262 H 572.741 -4.15175 0.245407 0
M  V30 6263 H 571.318 -3.43904 -1.44169 0
M  V30 6264 N 573.503 -0.0852151 -1.57369 0
M  V30 6265 C 574.45 0.877268 -2.13478 0
M  V30 6266 C 575.42 1.28642 -1.05073 0
M  V30 6267 O 576.605 1.36992 -1.32808 0
M  V30 6268 C 573.745 2.13464 -2.71159 0
M  V30 6269 C 572.858 1.77691 -3.93764 0
M  V30 6270 C 571.993 2.98139 -4.39643 0
M  V30 6271 C 571.032 2.58447 -5.54862 0
M  V30 6272 N 570.169 3.71698 -5.95639 0
M  V30 6273 H 575.009 0.391933 -2.95411 0
M  V30 6274 H 572.546 0.181796 -1.45972 0
M  V30 6275 H 574.504 2.87086 -3.02717 0
M  V30 6276 H 573.134 2.59514 -1.91969 0
M  V30 6277 H 572.186 0.940768 -3.68583 0
M  V30 6278 H 573.498 1.44497 -4.77412 0
M  V30 6279 H 572.652 3.80026 -4.72933 0
M  V30 6280 H 571.391 3.34536 -3.54876 0
M  V30 6281 H 570.396 1.74984 -5.21211 0
M  V30 6282 H 571.621 2.23205 -6.41371 0
M  V30 6283 H 569.567 4.07831 -5.13819 0
M  V30 6284 H 569.484 3.42317 -6.74059 0
M  V30 6285 H 570.752 4.54123 -6.33555 0
M  V30 6286 N 574.981 1.5647 0.188427 0
M  V30 6287 C 576.392 1.70864 0.752494 0
M  V30 6288 C 576.743 0.692905 1.83557 0
M  V30 6289 O 575.868 -0.149307 2.15884 0
M  V30 6290 C 576.463 3.09789 1.37173 0
M  V30 6291 C 575.022 3.25925 1.88281 0
M  V30 6292 C 574.169 2.66817 0.755259 0
M  V30 6293 H 577.12 1.58657 -0.0367408 0
M  V30 6294 H 577.141 3.07489 2.24122 0
M  V30 6295 H 576.653 3.83693 0.583219 0
M  V30 6296 H 574.754 2.56948 2.6983 0
M  V30 6297 H 574.867 4.33498 2.04001 0
M  V30 6298 H 573.231 2.2617 1.17128 0
M  V30 6299 H 574.014 3.43294 -0.0211237 0
M  V30 6300 N 576.459 -0.456382 1.50847 0
M  V30 6301 C 577.684 -1.2349 1.66628 0
M  V30 6302 C 578.109 -1.84715 0.355254 0
M  V30 6303 O 577.467 -1.67961 -0.682559 0
M  V30 6304 C 577.515 -2.30865 2.77009 0
M  V30 6305 O 576.619 -3.35882 2.39285 0
M  V30 6306 H 575.96 -0.36266 0.556214 0
M  V30 6307 H 578.49 -0.541374 1.97308 0
M  V30 6308 H 578.5 -2.75949 3.00526 0
M  V30 6309 H 577.175 -1.85677 3.72152 0
M  V30 6310 H 575.752 -2.96406 2.26269 0
M  V30 6311 N 577.937 -1.40673 -0.710563 0
M  V30 6312 C 578.885 -1.41517 -1.84596 0
M  V30 6313 C 579.879 -0.295043 -1.66811 0
M  V30 6314 O 581.085 -0.466331 -1.73854 0
M  V30 6315 H 577.46 -0.442467 -0.608052 0
M  V30 6316 H 579.431 -2.37238 -1.80999 0
M  V30 6317 C 578.18 -1.29957 -3.225 0
M  V30 6318 H 577.503 -2.15429 -3.36794 0
M  V30 6319 H 578.943 -1.34608 -4.02066 0
M  V30 6320 C 577.402 -0.0103164 -3.36898 0
M  V30 6321 O 577.932 0.950707 -3.90288 0
M  V30 6322 N 576.138 0.0608409 -2.90536 0
M  V30 6323 H 575.685 -0.721943 -2.47277 0
M  V30 6324 H 575.643 0.92292 -3.00549 0
M  V30 6325 N 579.415 0.9433 -1.26252 0
M  V30 6326 C 580.655 1.70397 -1.1289 0
M  V30 6327 C 581.019 1.89268 0.322713 0
M  V30 6328 O 582.22 2.62503 0.578418 0
M  V30 6329 C 580.491 3.04296 -1.87453 0
M  V30 6330 S 582.05 3.95475 -1.90119 0
M  V30 6331 H 578.868 0.585559 -0.403289 0
M  V30 6332 H 581.47 1.12424 -1.59941 0
M  V30 6333 H 580.174 2.8824 -2.9214 0
M  V30 6334 H 579.705 3.67327 -1.40835 0
M  V30 6335 H 581.72 4.86297 -0.986373 0
M  V30 6336 N 580.893 1.08022 1.14757 0
M  V30 6337 C 581.825 0.664566 2.19354 0
M  V30 6338 C 582.838 -0.286374 1.60261 0
M  V30 6339 O 584.027 -0.0746362 1.78344 0
M  V30 6340 C 581.127 -0.0434634 3.38872 0
M  V30 6341 C 580.3 0.925381 4.27499 0
M  V30 6342 C 579.359 0.253398 5.2559 0
M  V30 6343 O 578.385 0.896581 5.62094 0
M  V30 6344 N 579.587 -0.998263 5.71852 0
M  V30 6345 H 582.352 1.56438 2.55631 0
M  V30 6346 H 579.913 0.965788 1.29939 0
M  V30 6347 H 581.905 -0.503857 4.01551 0
M  V30 6348 H 580.475 -0.845321 3.00954 0
M  V30 6349 H 579.695 1.56472 3.61815 0
M  V30 6350 H 580.983 1.58203 4.8358 0
M  V30 6351 H 580.381 -1.54063 5.44317 0
M  V30 6352 H 578.938 -1.40222 6.36538 0
M  V30 6353 N 582.371 -1.3172 0.865308 0
M  V30 6354 C 583.319 -2.30569 0.306674 0
M  V30 6355 C 584.313 -1.59317 -0.575724 0
M  V30 6356 O 585.519 -1.73961 -0.462343 0
M  V30 6357 H 581.894 -0.747681 0.0804834 0
M  V30 6358 H 583.865 -2.75165 1.15441 0
M  V30 6359 C 582.614 -3.44358 -0.480952 0
M  V30 6360 H 581.937 -3.99354 0.18876 0
M  V30 6361 H 583.377 -4.15652 -0.837241 0
M  V30 6362 C 581.836 -2.92574 -1.67039 0
M  V30 6363 O 582.366 -2.90954 -2.76964 0
M  V30 6364 N 580.572 -2.48835 -1.50097 0
M  V30 6365 H 580.119 -2.50353 -0.606738 0
M  V30 6366 H 580.077 -2.14543 -2.29823 0
M  V30 6367 N 583.85 -0.624285 -1.44708 0
M  V30 6368 C 584.797 0.0847135 -2.30644 0
M  V30 6369 C 585.767 0.843575 -1.43084 0
M  V30 6370 O 586.952 0.825982 -1.71995 0
M  V30 6371 C 584.091 1.06495 -3.28257 0
M  V30 6372 C 583.205 0.305224 -4.3092 0
M  V30 6373 C 582.34 1.27667 -5.1563 0
M  V30 6374 C 581.379 0.505706 -6.10007 0
M  V30 6375 N 580.516 1.42727 -6.8744 0
M  V30 6376 H 585.356 -0.654068 -2.90733 0
M  V30 6377 H 582.893 -0.334334 -1.4325 0
M  V30 6378 H 584.851 1.64658 -3.83332 0
M  V30 6379 H 583.481 1.77094 -2.69884 0
M  V30 6380 H 582.533 -0.392207 -3.78373 0
M  V30 6381 H 583.845 -0.295553 -4.97924 0
M  V30 6382 H 582.999 1.92984 -5.75189 0
M  V30 6383 H 581.738 1.91137 -4.48685 0
M  V30 6384 H 580.743 -0.160999 -5.49564 0
M  V30 6385 H 581.968 -0.124183 -6.78986 0
M  V30 6386 H 579.913 2.04931 -6.23169 0
M  V30 6387 H 579.831 0.880345 -7.50857 0
M  V30 6388 H 581.099 2.0695 -7.51526 0
M  V30 6389 N 585.328 1.53329 -0.364422 0
M  V30 6390 C 586.238 2.29414 0.490552 0
M  V30 6391 C 587.254 1.35335 1.09363 0
M  V30 6392 O 588.43 1.68391 1.10483 0
M  V30 6393 C 585.495 3.06772 1.61529 0
M  V30 6394 C 584.556 4.16516 1.03986 0
M  V30 6395 C 583.789 4.90176 2.111 0
M  V30 6396 O 584.012 4.63687 3.32191 0
M  V30 6397 O 582.946 5.76134 1.74222 0
M  V30 6398 H 586.772 3.03428 -0.12856 0
M  V30 6399 H 584.357 1.48843 -0.128837 0
M  V30 6400 H 586.239 3.55082 2.26924 0
M  V30 6401 H 584.914 2.35596 2.21983 0
M  V30 6402 H 583.821 3.7246 0.349856 0
M  V30 6403 H 585.154 4.89855 0.4799 0
M  V30 6404 N 586.806 0.0935595 1.57322 0
M  V30 6405 C 588.031 -0.582324 1.99057 0
M  V30 6406 C 588.456 -1.61025 0.972242 0
M  V30 6407 O 587.814 -1.81202 -0.0594622 0
M  V30 6408 C 587.862 -1.20799 3.39765 0
M  V30 6409 O 586.966 -2.32382 3.40694 0
M  V30 6410 H 586.307 -0.147884 0.647323 0
M  V30 6411 H 588.837 0.174516 2.03854 0
M  V30 6412 H 588.847 -1.54966 3.77425 0
M  V30 6413 H 587.522 -0.454914 4.13405 0
M  V30 6414 H 586.099 -1.99845 3.14827 0
M  V30 6415 N 588.284 -1.56567 -0.180126 0
M  V30 6416 C 589.247 -1.94852 -1.20686 0
M  V30 6417 C 590.247 -0.831212 -1.3765 0
M  V30 6418 O 591.437 -1.09841 -1.35206 0
M  V30 6419 C 588.569 -2.23565 -2.57355 0
M  V30 6420 H 589.762 -2.86722 -0.879225 0
M  V30 6421 H 587.315 -1.50489 -0.422237 0
M  V30 6422 H 588.05 -1.34381 -2.95148 0
M  V30 6423 H 587.835 -3.04999 -2.46411 0
M  V30 6424 H 589.325 -2.54137 -3.31367 0
M  V30 6425 N 589.762 0.448376 -1.51087 0
M  V30 6426 C 590.987 1.22605 -1.6728 0
M  V30 6427 C 591.412 1.84524 -0.365045 0
M  V30 6428 O 590.77 1.6832 0.673642 0
M  V30 6429 C 590.818 2.29393 -2.78229 0
M  V30 6430 O 589.922 3.34608 -2.41063 0
M  V30 6431 H 589.263 0.359705 -0.558129 0
M  V30 6432 H 591.793 0.530903 -1.97592 0
M  V30 6433 H 591.803 2.74352 -3.01986 0
M  V30 6434 H 590.478 1.83701 -3.73131 0
M  V30 6435 H 589.055 2.95202 -2.27838 0
M  V30 6436 N 591.24 1.41047 0.703093 0
M  V30 6437 C 592.187 1.42302 1.81711 0
M  V30 6438 C 593.157 0.278336 1.63751 0
M  V30 6439 O 594.342 0.478266 1.84709 0
M  V30 6440 C 591.482 1.30362 3.19531 0
M  V30 6441 C 590.595 2.54638 3.48975 0
M  V30 6442 C 589.73 2.35047 4.76368 0
M  V30 6443 C 588.769 3.54837 4.98756 0
M  V30 6444 N 587.906 3.34363 6.1737 0
M  V30 6445 H 592.746 2.37516 1.79973 0
M  V30 6446 H 590.283 1.1795 0.878983 0
M  V30 6447 H 592.241 1.21443 3.99134 0
M  V30 6448 H 590.871 0.387602 3.20464 0
M  V30 6449 H 589.923 2.74037 2.63833 0
M  V30 6450 H 591.235 3.43766 3.61423 0
M  V30 6451 H 590.389 2.23552 5.64012 0
M  V30 6452 H 589.128 1.43363 4.66153 0
M  V30 6453 H 588.133 3.66795 4.09563 0
M  V30 6454 H 589.358 4.47464 5.10835 0
M  V30 6455 H 587.304 2.45373 6.08382 0
M  V30 6456 H 587.221 4.17063 6.30551 0
M  V30 6457 H 588.489 3.26626 7.07768 0
M  V30 6458 N 592.718 -0.936591 1.26751 0
M  V30 6459 C 593.65 -2.03991 1.045 0
M  V30 6460 C 594.663 -1.628 0.00394261 0
M  V30 6461 O 595.852 -1.76817 0.244526 0
M  V30 6462 C 592.952 -3.34218 0.561403 0
M  V30 6463 C 592.125 -4.04151 1.67274 0
M  V30 6464 C 591.184 -5.12651 1.1864 0
M  V30 6465 O 590.21 -5.37104 1.88437 0
M  V30 6466 N 591.412 -5.80488 0.037278 0
M  V30 6467 H 594.177 -2.23644 1.99508 0
M  V30 6468 H 591.738 -1.10638 1.18198 0
M  V30 6469 H 593.73 -4.04101 0.220136 0
M  V30 6470 H 592.3 -3.11203 -0.295211 0
M  V30 6471 H 591.52 -3.28121 2.18472 0
M  V30 6472 H 592.808 -4.47626 2.41885 0
M  V30 6473 H 592.206 -5.63064 -0.545494 0
M  V30 6474 H 590.763 -6.5134 -0.244877 0
M  V30 6475 N 594.196 -1.08629 -1.14182 0
M  V30 6476 C 595.421 -0.83902 -1.89671 0
M  V30 6477 C 595.846 0.603332 -1.78161 0
M  V30 6478 O 595.204 1.42301 -1.12339 0
M  V30 6479 C 595.252 -1.26854 -3.37551 0
M  V30 6480 O 594.356 -0.42188 -4.10236 0
M  V30 6481 H 593.697 -0.304545 -0.590041 0
M  V30 6482 H 596.227 -1.4483 -1.44518 0
M  V30 6483 H 596.237 -1.25038 -3.88368 0
M  V30 6484 H 594.912 -2.31901 -3.45246 0
M  V30 6485 H 593.489 -0.503654 -3.69483 0
M  V30 6486 O 595.713 1.26359 -1.00577 0
M  V30 6487 H 596.404 1.82071 -0.661052 0
M  V30 END ATOM
M  V30 BEGIN BOND
M  V30 END BOND
M  V30 END CTAB
M  END
$$$$
