drugbank_target|Q9NZ42 Gamma-secretase subunit PEN-2 (DB05171)
 OpenBabel12092120313D

  0  0  0     0  0            999 V3000
M  V30 BEGIN CTAB
M  V30 COUNTS 1711 1744 0 0 0
M  V30 BEGIN ATOM
M  V30 1 H -0.908 1.98254 -0.117106 0
M  V30 2 N 0 1.576 0 0
M  V30 3 C 0.933 2.03868 1.02534 0
M  V30 4 C 1.911 0.928543 1.3348 0
M  V30 5 O 3.095 1.19667 1.45644 0
M  V30 6 C 0.222 2.43627 2.35294 0
M  V30 7 C -0.732 3.65373 2.2001 0
M  V30 8 S 0.101 5.13292 1.52614 0
M  V30 9 C 1.257 5.56322 2.86805 0
M  V30 10 H 1.49 2.90518 0.631377 0
M  V30 11 H -0.977 1.52953 0.210867 0
M  V30 12 H 0.981 2.67203 3.11629 0
M  V30 13 H -0.358 1.57376 2.7183 0
M  V30 14 H -1.165 3.90944 3.18086 0
M  V30 15 H -1.563 3.418 1.51819 0
M  V30 16 H 0.729 5.58782 3.83104 0
M  V30 17 H 1.672 6.56266 2.65933 0
M  V30 18 H 2.08 4.83886 2.90714 0
M  V30 19 N 1.4781 -0.272755 1.55222 0
M  V30 20 C 2.4261 -1.35705 1.88909 0
M  V30 21 C 3.4201 -1.5112 0.765456 0
M  V30 22 O 4.6261 -1.52901 0.949802 0
M  V30 23 H 1.0011 -0.453868 0.59959 0
M  V30 24 H 2.9721 -1.04544 2.79487 0
M  V30 25 C 1.7211 -2.71049 2.17779 0
M  V30 26 H 1.0441 -2.59979 3.03728 0
M  V30 27 H 2.4841 -3.45858 2.45272 0
M  V30 28 C 0.9431 -3.22165 0.985473 0
M  V30 29 O 1.4731 -4.01096 0.220233 0
M  V30 30 N -0.3209 -2.7985 0.783108 0
M  V30 31 H -0.7739 -2.15775 1.40708 0
M  V30 32 H -0.8159 -3.14397 -0.0130392 0
M  V30 33 N 2.9562 -1.48159 -0.537278 0
M  V30 34 C 3.8862 -1.65029 -1.6519 0
M  V30 35 C 4.8672 -0.499281 -1.62607 0
M  V30 36 O 6.0522 -0.730972 -1.79918 0
M  V30 37 C 3.1822 -1.68303 -3.03795 0
M  V30 38 C 2.1362 -2.8283 -3.21234 0
M  V30 39 C 1.4622 -2.71189 -4.60826 0
M  V30 40 C 2.7622 -4.24211 -3.04701 0
M  V30 41 H 4.4562 -2.58341 -1.51328 0
M  V30 42 H 2.0022 -1.24325 -0.726585 0
M  V30 43 H 3.9552 -1.78693 -3.81637 0
M  V30 44 H 2.6792 -0.715635 -3.18663 0
M  V30 45 H 1.3382 -2.71983 -2.45807 0
M  V30 46 H 0.9862 -1.72435 -4.7252 0
M  V30 47 H 0.6862 -3.48035 -4.7344 0
M  V30 48 H 2.2102 -2.83537 -5.40777 0
M  V30 49 H 3.6242 -4.3593 -3.72341 0
M  V30 50 H 2.0212 -5.01998 -3.28813 0
M  V30 51 H 3.0912 -4.41184 -2.01209 0
M  V30 52 N 4.4343 0.785586 -1.36625 0
M  V30 53 C 5.3443 1.92964 -1.33425 0
M  V30 54 C 6.3603 1.72394 -0.235851 0
M  V30 55 O 7.5363 1.95866 -0.468878 0
M  V30 56 C 4.6013 3.27884 -1.12662 0
M  V30 57 C 3.6623 3.61204 -2.32013 0
M  V30 58 C 2.8953 4.89687 -2.12231 0
M  V30 59 O 3.1183 5.59704 -1.09945 0
M  V30 60 O 2.0523 5.21752 -3.00098 0
M  V30 61 H 5.8783 1.98613 -2.29753 0
M  V30 62 H 3.4633 0.926384 -1.17211 0
M  V30 63 H 5.3453 4.08614 -1.03016 0
M  V30 64 H 4.0203 3.23118 -0.193991 0
M  V30 65 H 2.9273 2.80765 -2.47228 0
M  V30 66 H 4.2603 3.70698 -3.23796 0
M  V30 67 N 5.9124 1.20967 1.01018 0
M  V30 68 C 7.3284 0.965905 1.27053 0
M  V30 69 C 7.5284 -0.350785 1.98423 0
M  V30 70 O 6.5844 -1.07773 2.28344 0
M  V30 71 C 7.8974 2.15294 2.09926 0
M  V30 72 C 9.4454 2.19463 2.23171 0
M  V30 73 C 9.9204 3.3767 3.09424 0
M  V30 74 N 11.4114 3.37724 3.17012 0
M  V30 75 C 12.1464 4.25837 3.83993 0
M  V30 76 N 11.6424 5.24138 4.53047 0
M  V30 77 N 13.4354 4.1366 3.80581 0
M  V30 78 H 5.5864 2.0565 0.531194 0
M  V30 79 H 7.8494 0.90024 0.297106 0
M  V30 80 H 7.5554 3.10684 1.64828 0
M  V30 81 H 7.4294 2.13923 3.10672 0
M  V30 82 H 9.8164 1.24632 2.6749 0
M  V30 83 H 9.8974 2.2488 1.21912 0
M  V30 84 H 9.5414 4.32791 2.65808 0
M  V30 85 H 9.4714 3.29491 4.10784 0
M  V30 86 H 11.9624 2.6658 2.6785 0
M  V30 87 H 12.2754 5.87684 5.01844 0
M  V30 88 H 10.6204 5.28068 4.5185 0
M  V30 89 H 13.8114 3.36127 3.25785 0
M  V30 90 H 13.9844 4.82538 4.32505 0
M  V30 91 N 7.3905 -1.2043 1.01659 0
M  V30 92 C 8.6365 -1.90079 0.706963 0
M  V30 93 C 8.9695 -1.78648 -0.761474 0
M  V30 94 O 8.2445 -1.17069 -1.55323 0
M  V30 95 C 8.5275 -3.41469 1.14327 0
M  V30 96 C 8.3805 -3.61833 2.67201 0
M  V30 97 C 9.6995 -4.34261 0.714529 0
M  V30 98 H 6.8185 -0.690254 0.2583 0
M  V30 99 H 9.4605 -1.41826 1.26433 0
M  V30 100 H 7.6105 -3.82696 0.669056 0
M  V30 101 H 9.2825 -3.2986 3.22475 0
M  V30 102 H 7.5255 -3.05304 3.08175 0
M  V30 103 H 8.1965 -4.67955 2.92783 0
M  V30 104 H 10.6725 -4.00682 1.12221 0
M  V30 105 H 9.5485 -5.38806 1.04784 0
M  V30 106 H 9.8095 -4.40431 -0.383799 0
M  V30 107 N 8.8686 -0.792821 -1.36206 0
M  V30 108 C 10.0936 -0.377701 -2.03932 0
M  V30 109 C 10.5186 0.998947 -1.59382 0
M  V30 110 O 9.8766 1.64421 -0.763903 0
M  V30 111 C 9.9246 -0.453635 -3.57735 0
M  V30 112 O 9.0286 0.538151 -4.08874 0
M  V30 113 H 8.3696 -0.159855 -0.644471 0
M  V30 114 H 10.8996 -1.07488 -1.7409 0
M  V30 115 H 10.9096 -0.318464 -4.06755 0
M  V30 116 H 9.5846 -1.45784 -3.89512 0
M  V30 117 H 8.1616 0.364359 -3.71116 0
M  V30 118 N 10.3467 1.47872 -0.545128 0
M  V30 119 C 11.2947 2.31533 0.222512 0
M  V30 120 C 12.2887 1.42177 0.920985 0
M  V30 121 O 13.4947 1.59005 0.843645 0
M  V30 122 H 9.8697 0.746519 0.0906278 0
M  V30 123 H 11.8407 2.94139 -0.50246 0
M  V30 124 C 10.5897 3.2457 1.24699 0
M  V30 125 H 9.9127 3.93283 0.718944 0
M  V30 126 H 11.3527 3.85963 1.75523 0
M  V30 127 C 9.8117 2.47237 2.28856 0
M  V30 128 O 10.3417 2.20808 3.35569 0
M  V30 129 N 8.5477 2.08461 2.02466 0
M  V30 130 H 8.0947 2.30155 1.157 0
M  V30 131 H 8.0527 1.57033 2.72375 0
M  V30 132 N 11.8248 0.280983 1.55075 0
M  V30 133 C 12.7348 -0.61388 2.26426 0
M  V30 134 C 13.7508 -1.16521 1.29224 0
M  V30 135 O 14.9268 -1.19426 1.62171 0
M  V30 136 C 11.9918 -1.7788 2.9759 0
M  V30 137 C 11.0528 -1.26355 4.10284 0
M  V30 138 C 10.2858 -2.37295 4.78045 0
M  V30 139 O 10.5088 -3.56777 4.45047 0
M  V30 140 O 9.4428 -2.05119 5.65871 0
M  V30 141 H 13.2688 -0.0356932 3.03679 0
M  V30 142 H 10.8538 0.0481686 1.49322 0
M  V30 143 H 12.7358 -2.45791 3.42293 0
M  V30 144 H 11.4108 -2.34397 2.23249 0
M  V30 145 H 10.3178 -0.550735 3.70024 0
M  V30 146 H 11.6508 -0.744065 4.86543 0
M  V30 147 N 13.3029 -1.57598 0.00835791 0
M  V30 148 C 14.2129 -2.12385 -0.996487 0
M  V30 149 C 15.2289 -1.07108 -1.37127 0
M  V30 150 O 16.4049 -1.39055 -1.4569 0
M  V30 151 C 13.4699 -2.62314 -2.26699 0
M  V30 152 C 12.5309 -3.82225 -1.95456 0
M  V30 153 C 11.7639 -4.29763 -3.16449 0
M  V30 154 O 11.9869 -3.76584 -4.28416 0
M  V30 155 O 10.9209 -5.21832 -2.99958 0
M  V30 156 H 14.7469 -2.98479 -0.560725 0
M  V30 157 H 12.3319 -1.47903 -0.210987 0
M  V30 158 H 14.2139 -2.94589 -3.01322 0
M  V30 159 H 12.8889 -1.79313 -2.69497 0
M  V30 160 H 11.7959 -3.54909 -1.18282 0
M  V30 161 H 13.1289 -4.66324 -1.57489 0
M  V30 162 N 14.781 0.264519 -1.55364 0
M  V30 163 C 15.728 1.32717 -1.88825 0
M  V30 164 C 16.698 1.48675 -0.740605 0
M  V30 165 O 17.883 1.62945 -0.992657 0
M  V30 166 C 15.023 2.68089 -2.17307 0
M  V30 167 C 14.136 2.60284 -3.44785 0
M  V30 168 C 13.271 3.87892 -3.62924 0
M  V30 169 C 12.31 3.74631 -4.84064 0
M  V30 170 N 11.447 4.94092 -4.98816 0
M  V30 171 H 16.287 1.03481 -2.79456 0
M  V30 172 H 13.824 0.499757 -1.3835 0
M  V30 173 H 15.782 3.46864 -2.31821 0
M  V30 174 H 14.412 2.95509 -1.299 0
M  V30 175 H 13.464 1.73173 -3.38697 0
M  V30 176 H 14.776 2.46388 -4.33698 0
M  V30 177 H 13.93 4.75109 -3.77302 0
M  V30 178 H 12.669 4.04664 -2.7221 0
M  V30 179 H 11.674 2.85797 -4.69681 0
M  V30 180 H 12.899 3.5937 -5.76221 0
M  V30 181 H 10.845 5.11259 -4.11036 0
M  V30 182 H 10.762 4.8276 -5.81789 0
M  V30 183 H 12.03 5.82857 -5.17588 0
M  V30 184 N 16.2591 1.48442 0.529413 0
M  V30 185 C 17.1891 1.65902 1.64313 0
M  V30 186 C 18.1701 0.507897 1.6234 0
M  V30 187 O 19.3551 0.740503 1.79528 0
M  V30 188 C 16.4851 1.69911 3.02898 0
M  V30 189 C 15.4391 2.8453 3.19729 0
M  V30 190 C 14.7651 2.73629 4.59381 0
M  V30 191 C 16.0651 4.25821 3.02447 0
M  V30 192 H 17.7591 2.5914 1.49955 0
M  V30 193 H 15.3051 1.24709 0.719982 0
M  V30 194 H 17.2581 1.80715 3.80684 0
M  V30 195 H 15.9821 0.732524 3.18279 0
M  V30 196 H 14.6411 2.73283 2.44361 0
M  V30 197 H 14.2891 1.74938 4.71599 0
M  V30 198 H 13.9891 3.50541 4.71588 0
M  V30 199 H 15.5131 2.86401 5.39265 0
M  V30 200 H 16.9271 4.37898 3.70024 0
M  V30 201 H 15.3241 5.03735 3.26146 0
M  V30 202 H 16.3941 4.42244 1.98867 0
M  V30 203 N 17.7372 -0.778329 1.37039 0
M  V30 204 C 18.6852 -1.91278 1.32345 0
M  V30 205 C 19.6792 -1.68051 0.213331 0
M  V30 206 O 20.8852 -1.75922 0.38098 0
M  V30 207 H 17.2602 -0.628909 0.412283 0
M  V30 208 H 19.2312 -1.92355 2.28127 0
M  V30 209 C 17.9802 -3.28455 1.14073 0
M  V30 210 H 17.3032 -3.46901 1.98746 0
M  V30 211 H 18.7432 -4.08152 1.14837 0
M  V30 212 C 17.2022 -3.36548 -0.154015 0
M  V30 213 O 17.7322 -3.85186 -1.13993 0
M  V30 214 N 15.9382 -2.89894 -0.202475 0
M  V30 215 H 15.4852 -2.50504 0.600476 0
M  V30 216 H 15.4432 -2.9569 -1.06841 0
M  V30 217 N 19.2153 -1.21501 -1.00376 0
M  V30 218 C 20.1453 -0.999478 -2.11028 0
M  V30 219 C 21.1263 0.0759671 -1.6993 0
M  V30 220 O 22.3113 -0.0841106 -1.94018 0
M  V30 221 C 19.4413 -0.564709 -3.42678 0
M  V30 222 C 18.3953 -1.58486 -3.97576 0
M  V30 223 C 17.7213 -1.00628 -5.25146 0
M  V30 224 C 19.0213 -2.97204 -4.29496 0
M  V30 225 H 20.7153 -1.92495 -2.29317 0
M  V30 226 H 18.2613 -0.92693 -1.102 0
M  V30 227 H 20.2143 -0.401091 -4.19487 0
M  V30 228 H 18.9383 0.396411 -3.24185 0
M  V30 229 H 17.5973 -1.73606 -3.22888 0
M  V30 230 H 17.2453 -0.0368439 -5.02987 0
M  V30 231 H 16.9453 -1.68771 -5.62841 0
M  V30 232 H 18.4693 -0.854015 -6.04598 0
M  V30 233 H 19.8833 -2.8552 -4.97143 0
M  V30 234 H 18.2803 -3.62372 -4.78338 0
M  V30 235 H 19.3503 -3.47956 -3.3772 0
M  V30 236 N 20.6934 1.19889 -1.02296 0
M  V30 237 C 21.9334 1.91125 -0.724602 0
M  V30 238 C 22.2974 1.77464 0.732835 0
M  V30 239 O 23.4984 2.43241 1.144 0
M  V30 240 C 21.7694 3.38187 -1.15604 0
M  V30 241 S 23.3284 4.27702 -0.980621 0
M  V30 242 H 20.1464 0.66018 -0.263976 0
M  V30 243 H 22.7484 1.44978 -1.31155 0
M  V30 244 H 21.4524 3.45653 -2.21251 0
M  V30 245 H 20.9834 3.89363 -0.562131 0
M  V30 246 H 22.9984 4.96073 0.112225 0
M  V30 247 N 22.1715 0.800033 1.35784 0
M  V30 248 C 23.5875 0.482977 1.52117 0
M  V30 249 C 23.7875 -0.996948 1.75109 0
M  V30 250 O 22.8435 -1.78216 1.78872 0
M  V30 251 C 24.1565 1.32264 2.70049 0
M  V30 252 C 25.7045 1.31742 2.83924 0
M  V30 253 C 26.1795 2.14106 4.04874 0
M  V30 254 N 27.6705 2.11607 4.12039 0
M  V30 255 C 28.4055 2.72099 5.04727 0
M  V30 256 N 27.9015 3.41492 6.02789 0
M  V30 257 N 29.6945 2.61776 4.97423 0
M  V30 258 H 21.8455 1.75856 1.19115 0
M  V30 259 H 24.1085 0.748122 0.582252 0
M  V30 260 H 23.8145 2.37261 2.59616 0
M  V30 261 H 23.6885 0.971303 3.6448 0
M  V30 262 H 26.0755 0.275333 2.93813 0
M  V30 263 H 26.1565 1.70859 1.9037 0
M  V30 264 H 25.8005 3.18351 3.95746 0
M  V30 265 H 25.7305 1.72353 4.97596 0
M  V30 266 H 28.2215 1.61112 3.41835 0
M  V30 267 H 28.5345 3.84953 6.70098 0
M  V30 268 H 26.8795 3.45596 6.02983 0
M  V30 269 H 30.0705 2.07157 4.19766 0
M  V30 270 H 30.2435 3.0921 5.69468 0
M  V30 271 N 23.6496 -1.47581 0.552962 0
M  V30 272 C 24.5966 -2.29957 -0.197108 0
M  V30 273 C 25.5666 -1.38799 -0.912359 0
M  V30 274 O 26.7516 -1.67761 -0.908888 0
M  V30 275 C 23.8916 -3.22672 -1.22379 0
M  V30 276 C 23.0046 -4.28919 -0.515038 0
M  V30 277 C 22.1396 -5.0879 -1.52664 0
M  V30 278 C 21.1786 -6.06815 -0.802631 0
M  V30 279 N 20.3156 -6.7966 -1.76086 0
M  V30 280 H 25.1556 -2.93578 0.511486 0
M  V30 281 H 22.6926 -1.4471 0.264067 0
M  V30 282 H 24.6506 -3.74845 -1.83159 0
M  V30 283 H 23.2806 -2.60925 -1.90047 0
M  V30 284 H 22.3326 -3.79835 0.207192 0
M  V30 285 H 23.6446 -4.98773 0.0523425 0
M  V30 286 H 22.7986 -5.65091 -2.20809 0
M  V30 287 H 21.5376 -4.38828 -2.12794 0
M  V30 288 H 20.5426 -5.49695 -0.107238 0
M  V30 289 H 21.7676 -6.78784 -0.207135 0
M  V30 290 H 19.7136 -6.12432 -2.35081 0
M  V30 291 H 19.6306 -7.45669 -1.24552 0
M  V30 292 H 20.8986 -7.40538 -2.43359 0
M  V30 293 N 25.1277 -0.289203 -1.54924 0
M  V30 294 C 26.3577 0.325989 -2.04012 0
M  V30 295 C 26.7657 1.48961 -1.1665 0
M  V30 296 O 26.1087 1.82794 -0.1822 0
M  V30 297 C 26.1707 0.856112 -3.49158 0
M  V30 298 C 25.8347 -0.180697 -4.56643 0
M  V30 299 C 26.8317 -1.0051 -5.10092 0
M  V30 300 C 24.5167 -0.318998 -5.01286 0
M  V30 301 C 26.5107 -1.95385 -6.06715 0
M  V30 302 C 24.1977 -1.27121 -5.97732 0
M  V30 303 C 25.1957 -2.08713 -6.50329 0
M  V30 304 O 24.8837 -3.02322 -7.44887 0
M  V30 305 H 24.6157 0.0765276 -0.671654 0
M  V30 306 H 27.1697 -0.423254 -2.00992 0
M  V30 307 H 25.3997 1.65567 -3.49463 0
M  V30 308 H 27.0887 1.38591 -3.81507 0
M  V30 309 H 27.8547 -0.90906 -4.76404 0
M  V30 310 H 23.7337 0.306108 -4.59983 0
M  V30 311 H 27.2777 -2.59111 -6.47694 0
M  V30 312 H 23.1747 -1.36801 -6.30837 0
M  V30 313 H 23.9427 -2.97165 -7.6265 0
M  V30 314 N 26.6058 1.57591 -0.0167156 0
M  V30 315 C 27.8358 1.95292 0.674149 0
M  V30 316 C 28.2438 0.891097 1.66901 0
M  V30 317 O 27.5868 -0.136908 1.83189 0
M  V30 318 C 27.6488 3.29072 1.44747 0
M  V30 319 C 27.3128 4.52879 0.612331 0
M  V30 320 C 28.3098 5.1979 -0.107126 0
M  V30 321 C 25.9948 4.99242 0.553381 0
M  V30 322 C 27.9888 6.31375 -0.874339 0
M  V30 323 C 25.6758 6.10713 -0.217546 0
M  V30 324 C 26.6738 6.76637 -0.930123 0
M  V30 325 O 26.3618 7.85969 -1.68844 0
M  V30 326 H 26.0938 0.648275 0.191615 0
M  V30 327 H 28.6478 2.05284 -0.0690148 0
M  V30 328 H 26.8778 3.15535 2.2355 0
M  V30 329 H 28.5668 3.51764 2.02526 0
M  V30 330 H 29.3328 4.84948 -0.0708392 0
M  V30 331 H 25.2118 4.47744 1.09757 0
M  V30 332 H 28.7558 6.82764 -1.43106 0
M  V30 333 H 24.6528 6.44994 -0.255593 0
M  V30 334 H 25.4208 8.02571 -1.6069 0
M  V30 335 N 28.0839 -0.256276 1.55502 0
M  V30 336 C 29.0139 -1.32102 1.92539 0
M  V30 337 C 29.9949 -1.50684 0.789194 0
M  V30 338 O 31.1799 -1.63449 1.04872 0
M  V30 339 C 28.3099 -2.67752 2.21192 0
M  V30 340 C 27.2639 -2.63878 3.36975 0
M  V30 341 C 26.5899 -4.03236 3.51147 0
M  V30 342 C 27.8899 -2.21682 4.72921 0
M  V30 343 H 29.5839 -1.01351 2.81724 0
M  V30 344 H 27.1299 -0.486105 1.35547 0
M  V30 345 H 29.0829 -3.42365 2.45691 0
M  V30 346 H 27.8069 -3.0012 1.28824 0
M  V30 347 H 26.4659 -1.91722 3.12471 0
M  V30 348 H 26.1139 -4.32854 2.56216 0
M  V30 349 H 25.8139 -4.01535 4.29003 0
M  V30 350 H 27.3379 -4.79563 3.77957 0
M  V30 351 H 28.7519 -2.86023 4.96854 0
M  V30 352 H 27.1489 -2.3111 5.53812 0
M  V30 353 H 28.2189 -1.16833 4.70615 0
M  V30 354 N 29.562 -1.4872 -0.521534 0
M  V30 355 C 30.81 -1.56857 -1.27437 0
M  V30 356 C 31.131 -0.247982 -1.93417 0
M  V30 357 O 30.401 0.731151 -1.81744 0
M  V30 358 H 28.981 -0.577885 -0.473347 0
M  V30 359 H 31.643 -1.85233 -0.606205 0
M  V30 360 H 30.739 -2.35402 -2.0492 0
M  V30 361 N 31.0401 0.771051 -1.3745 0
M  V30 362 C 32.2881 1.52661 -1.32435 0
M  V30 363 C 32.6091 1.9479 0.0905024 0
M  V30 364 O 31.8791 1.66348 1.03466 0
M  V30 365 H 30.4591 0.566218 -0.487244 0
M  V30 366 H 33.1211 0.917636 -1.71946 0
M  V30 367 H 32.2171 2.42568 -1.96385 0
M  V30 368 N 32.5182 1.22032 0.997298 0
M  V30 369 C 33.7652 1.04222 1.73621 0
M  V30 370 C 34.0932 -0.423264 1.89839 0
M  V30 371 O 33.3482 -1.3302 1.43542 0
M  V30 372 C 33.6472 1.69345 3.14733 0
M  V30 373 C 33.3132 3.19226 3.18442 0
M  V30 374 C 31.9752 3.60124 3.19161 0
M  V30 375 C 34.3272 4.15181 3.15078 0
M  V30 376 C 31.6552 4.95467 3.14212 0
M  V30 377 C 34.0072 5.50495 3.1167 0
M  V30 378 C 32.6712 5.90779 3.10703 0
M  V30 379 H 31.9412 0.381374 0.635323 0
M  V30 380 H 34.5882 1.51732 1.16831 0
M  V30 381 H 32.8932 1.14147 3.74803 0
M  V30 382 H 34.5902 1.53059 3.7064 0
M  V30 383 H 31.1802 2.86659 3.18629 0
M  V30 384 H 35.3642 3.84605 3.13676 0
M  V30 385 H 30.6202 5.25916 3.11805 0
M  V30 386 H 34.7942 6.24576 3.08022 0
M  V30 387 H 32.4212 6.9562 3.06622 0
M  V30 388 N 33.9963 -1.19345 1.0293 0
M  V30 389 C 34.9593 -2.20793 0.615069 0
M  V30 390 C 35.9593 -1.57553 -0.321533 0
M  V30 391 O 37.1493 -1.73862 -0.108483 0
M  V30 392 C 34.2813 -3.40754 -0.0999222 0
M  V30 393 H 35.4743 -2.58955 1.51269 0
M  V30 394 H 33.0273 -1.3303 0.820534 0
M  V30 395 H 33.7623 -3.0811 -1.01187 0
M  V30 396 H 33.5473 -3.87889 0.57309 0
M  V30 397 H 35.0373 -4.15898 -0.376645 0
M  V30 398 N 35.4744 -0.807222 -1.35358 0
M  V30 399 C 36.7214 -0.387888 -1.9875 0
M  V30 400 C 37.0494 1.04509 -1.64037 0
M  V30 401 O 36.3044 1.73986 -0.895946 0
M  V30 402 C 36.6034 -0.519036 -3.53611 0
M  V30 403 C 36.2694 -1.91542 -4.08194 0
M  V30 404 C 34.9314 -2.29745 -4.22813 0
M  V30 405 C 37.2834 -2.82896 -4.37744 0
M  V30 406 C 34.6114 -3.58668 -4.643 0
M  V30 407 C 36.9634 -4.11265 -4.8067 0
M  V30 408 C 35.6274 -4.49466 -4.93494 0
M  V30 409 H 34.8974 -0.141938 -0.727279 0
M  V30 410 H 37.5444 -1.02814 -1.6156 0
M  V30 411 H 35.8494 0.204658 -3.91265 0
M  V30 412 H 37.5464 -0.175345 -4.00616 0
M  V30 413 H 34.1364 -1.60862 -3.97268 0
M  V30 414 H 38.3204 -2.54629 -4.26002 0
M  V30 415 H 33.5764 -3.88113 -4.72418 0
M  V30 416 H 37.7504 -4.82153 -5.02496 0
M  V30 417 H 35.3774 -5.49418 -5.25399 0
M  V30 418 N 36.9525 1.47285 -0.560781 0
M  V30 419 C 37.8825 2.32857 0.173105 0
M  V30 420 C 38.8635 1.44009 0.905281 0
M  V30 421 O 40.0485 1.7286 0.885046 0
M  V30 422 C 37.1785 3.25861 1.20133 0
M  V30 423 C 36.1325 4.23978 0.585388 0
M  V30 424 C 35.4585 5.06332 1.7185 0
M  V30 425 C 36.7585 5.20242 -0.463178 0
M  V30 426 H 38.4525 2.94466 -0.541307 0
M  V30 427 H 35.9985 1.41601 -0.261764 0
M  V30 428 H 37.9515 3.84569 1.72293 0
M  V30 429 H 36.6755 2.62315 1.94573 0
M  V30 430 H 35.3345 3.66501 0.085054 0
M  V30 431 H 34.9825 4.39186 2.45203 0
M  V30 432 H 34.6825 5.72762 1.31213 0
M  V30 433 H 36.2065 5.67899 2.24329 0
M  V30 434 H 37.6205 5.73293 -0.027502 0
M  V30 435 H 36.0175 5.94896 -0.788627 0
M  V30 436 H 37.0875 4.65504 -1.35773 0
M  V30 437 N 38.4306 0.297415 1.54768 0
M  V30 438 C 39.8416 -0.195947 1.85669 0
M  V30 439 C 40.1926 -1.53707 1.21937 0
M  V30 440 O 39.3176 -2.10164 0.515754 0
M  V30 441 C 39.9126 -0.362318 3.36857 0
M  V30 442 C 38.4716 -0.799901 3.67802 0
M  V30 443 C 37.6186 0.0938578 2.77141 0
M  V30 444 H 40.5696 0.518538 1.4999 0
M  V30 445 H 40.5906 -1.19745 3.61167 0
M  V30 446 H 40.1026 0.613921 3.83214 0
M  V30 447 H 38.2036 -1.78682 3.26961 0
M  V30 448 H 38.3166 -0.621773 4.75048 0
M  V30 449 H 36.6806 -0.426254 2.51108 0
M  V30 450 H 37.4636 1.06639 3.26318 0
M  V30 451 N 39.9087 -1.5758 0.0250728 0
M  V30 452 C 41.1557 -1.91633 -0.654444 0
M  V30 453 C 41.4837 -0.901103 -1.72367 0
M  V30 454 O 40.7387 0.0905647 -1.9549 0
M  V30 455 C 41.0377 -3.32421 -1.31268 0
M  V30 456 C 40.7037 -4.49344 -0.374223 0
M  V30 457 C 39.3657 -4.8106 -0.115911 0
M  V30 458 C 41.7177 -5.20498 0.270432 0
M  V30 459 C 39.0457 -5.8129 0.79493 0
M  V30 460 C 41.3977 -6.21699 1.1693 0
M  V30 461 C 40.0617 -6.51859 1.43655 0
M  V30 462 H 39.3317 -0.701236 -0.239478 0
M  V30 463 H 41.9787 -1.91307 0.0859734 0
M  V30 464 H 40.2837 -3.28989 -2.12775 0
M  V30 465 H 41.9807 -3.56038 -1.84494 0
M  V30 466 H 38.5707 -4.24579 -0.58573 0
M  V30 467 H 42.7547 -4.96229 0.0839194 0
M  V30 468 H 38.0107 -6.03005 1.00973 0
M  V30 469 H 42.1847 -6.75955 1.67504 0
M  V30 470 H 39.8117 -7.2934 2.144 0
M  V30 471 N 41.3868 0.248026 -1.55636 0
M  V30 472 C 42.3168 1.31079 -1.93237 0
M  V30 473 C 43.2978 1.50264 -0.797174 0
M  V30 474 O 44.4828 1.62891 -1.05737 0
M  V30 475 C 41.6128 2.66575 -2.22609 0
M  V30 476 C 40.5668 2.62087 -3.3837 0
M  V30 477 C 39.8928 4.01369 -3.53281 0
M  V30 478 C 41.1928 2.19171 -4.7409 0
M  V30 479 H 42.8868 0.998556 -2.82257 0
M  V30 480 H 40.4328 0.47891 -1.35803 0
M  V30 481 H 42.3858 3.41057 -2.47503 0
M  V30 482 H 41.1098 2.99432 -1.30414 0
M  V30 483 H 39.7688 1.90063 -3.13483 0
M  V30 484 H 39.4168 4.31489 -2.58508 0
M  V30 485 H 39.1168 3.99254 -4.31127 0
M  V30 486 H 40.6408 4.77552 -3.80495 0
M  V30 487 H 42.0548 2.83384 -4.98363 0
M  V30 488 H 40.4518 2.2817 -5.5503 0
M  V30 489 H 41.5218 1.14336 -4.71227 0
M  V30 490 N 42.8649 1.48995 0.513639 0
M  V30 491 C 44.1109 1.59053 1.26783 0
M  V30 492 C 44.4659 0.268136 1.90522 0
M  V30 493 O 43.7589 -0.730534 1.77126 0
M  V30 494 C 43.9529 2.67756 2.36731 0
M  V30 495 C 43.7819 4.10437 1.83771 0
M  V30 496 C 42.5519 4.7738 1.65639 0
M  V30 497 C 44.7499 4.9608 1.35681 0
M  V30 498 N 42.7319 6.04419 1.07476 0
M  V30 499 C 44.1029 6.13496 0.895715 0
M  V30 500 C 46.1579 4.82177 1.24136 0
M  V30 501 C 44.8609 7.1854 0.3306 0
M  V30 502 C 46.8869 5.87358 0.690229 0
M  V30 503 C 46.2489 7.03993 0.239292 0
M  V30 504 H 42.3479 0.636463 0.454355 0
M  V30 505 H 44.9319 1.85948 0.577196 0
M  V30 506 H 43.1029 2.42655 3.03271 0
M  V30 507 H 44.8349 2.67406 3.0377 0
M  V30 508 H 41.5899 4.33974 1.8964 0
M  V30 509 H 42.0139 6.72214 0.803579 0
M  V30 510 H 46.6559 3.92329 1.57601 0
M  V30 511 H 44.3739 8.08098 -0.0163435 0
M  V30 512 H 47.9599 5.78658 0.603852 0
M  V30 513 H 46.8399 7.83992 -0.180526 0
M  V30 514 N 44.343 -0.763751 1.37857 0
M  V30 515 C 45.273 -1.89103 1.36975 0
M  V30 516 C 46.254 -1.68439 0.237152 0
M  V30 517 O 47.439 -1.8918 0.438713 0
M  V30 518 C 44.569 -3.26496 1.18395 0
M  V30 519 C 43.523 -3.61741 2.28751 0
M  V30 520 C 42.849 -4.97762 1.95286 0
M  V30 521 C 44.149 -3.67665 3.70972 0
M  V30 522 H 45.843 -1.90099 2.31307 0
M  V30 523 H 43.389 -0.91319 1.11341 0
M  V30 524 H 45.342 -4.05003 1.16406 0
M  V30 525 H 44.066 -3.25955 0.205215 0
M  V30 526 H 42.725 -2.85547 2.29909 0
M  V30 527 H 42.373 -4.93769 0.959221 0
M  V30 528 H 42.073 -5.22313 2.69189 0
M  V30 529 H 43.597 -5.7866 1.94898 0
M  V30 530 H 45.011 -4.36307 3.719 0
M  V30 531 H 43.408 -4.03718 4.43995 0
M  V30 532 H 44.478 -2.68134 4.0402 0
M  V30 533 N 45.8211 -1.22559 -0.990812 0
M  V30 534 C 47.0671 -1.05297 -1.73322 0
M  V30 535 C 47.4001 0.410655 -1.89808 0
M  V30 536 O 46.6751 1.30439 -1.44277 0
M  V30 537 C 46.9581 -1.76713 -3.13759 0
M  V30 538 C 46.8111 -3.30684 -3.04907 0
M  V30 539 C 48.1301 -1.52121 -4.12974 0
M  V30 540 H 45.2491 -0.38392 -0.629106 0
M  V30 541 H 47.8911 -1.50926 -1.15418 0
M  V30 542 H 46.0411 -1.37924 -3.63193 0
M  V30 543 H 47.7131 -3.7893 -2.63077 0
M  V30 544 H 45.9561 -3.60253 -2.41661 0
M  V30 545 H 46.6271 -3.75833 -4.04294 0
M  V30 546 H 49.1031 -1.85819 -3.72304 0
M  V30 547 H 47.9791 -2.04582 -5.0935 0
M  V30 548 H 48.2401 -0.454257 -4.3976 0
M  V30 549 N 47.2992 1.18797 -1.03562 0
M  V30 550 C 48.2472 2.24297 -0.615905 0
M  V30 551 C 49.2412 1.65643 0.354808 0
M  V30 552 O 50.4472 1.78618 0.22265 0
M  V30 553 H 46.8222 0.729909 -0.180934 0
M  V30 554 H 48.7932 2.5701 -1.5162 0
M  V30 555 C 47.5422 3.47698 0.0104735 0
M  V30 556 H 46.8652 3.93125 -0.727509 0
M  V30 557 H 48.3052 4.23159 0.266995 0
M  V30 558 C 46.7642 3.12489 1.25905 0
M  V30 559 O 47.2942 3.25761 2.35038 0
M  V30 560 N 45.5002 2.6686 1.15039 0
M  V30 561 H 45.0472 2.56261 0.262328 0
M  V30 562 H 45.0052 2.43674 1.98672 0
M  V30 563 N 48.7773 0.814389 1.34928 0
M  V30 564 C 50.0263 0.394871 1.97797 0
M  V30 565 C 50.3393 -1.04555 1.65311 0
M  V30 566 O 51.5453 -1.56856 2.21604 0
M  V30 567 C 50.0013 0.655103 3.53888 0
M  V30 568 C 49.6093 2.10858 3.95276 0
M  V30 569 C 51.3533 0.301329 4.23429 0
M  V30 570 C 49.2603 2.31415 5.44244 0
M  V30 571 H 48.1903 0.143913 0.740139 0
M  V30 572 H 50.8413 0.999544 1.53888 0
M  V30 573 H 49.2233 -0.0196253 3.95995 0
M  V30 574 H 50.3973 2.82176 3.64298 0
M  V30 575 H 48.7123 2.42297 3.38646 0
M  V30 576 H 51.3093 0.432869 5.32945 0
M  V30 577 H 51.6523 -0.75331 4.09428 0
M  V30 578 H 52.1853 0.930288 3.86769 0
M  V30 579 H 48.9243 3.35353 5.63222 0
M  V30 580 H 48.4443 1.6463 5.76764 0
M  V30 581 H 50.1233 2.13352 6.10811 0
M  V30 582 N 50.2554 -1.46986 0.568584 0
M  V30 583 C 51.5024 -2.02441 0.0487986 0
M  V30 584 C 51.8304 -1.44169 -1.30559 0
M  V30 585 O 51.0854 -0.591213 -1.86556 0
M  V30 586 C 51.3844 -3.57306 -0.081836 0
M  V30 587 C 51.0504 -4.34552 1.20313 0
M  V30 588 C 49.7124 -4.55376 1.5552 0
M  V30 589 C 52.0644 -4.79016 2.05411 0
M  V30 590 C 49.3924 -5.17913 2.7565 0
M  V30 591 C 51.7444 -5.42879 3.24754 0
M  V30 592 C 50.4084 -5.61933 3.60261 0
M  V30 593 H 49.6784 -0.740785 0.0178567 0
M  V30 594 H 52.3254 -1.76525 0.742384 0
M  V30 595 H 50.6304 -3.8228 -0.858463 0
M  V30 596 H 52.3274 -3.97876 -0.499546 0
M  V30 597 H 48.9174 -4.18631 0.919014 0
M  V30 598 H 53.1014 -4.62696 1.79516 0
M  V30 599 H 48.3574 -5.30858 3.03315 0
M  V30 600 H 52.5314 -5.76293 3.90973 0
M  V30 601 H 50.1584 -6.10161 4.53439 0
M  V30 602 N 51.7335 -0.305618 -1.54608 0
M  V30 603 C 52.9795 0.295595 -2.01241 0
M  V30 604 C 53.3345 1.51171 -1.19018 0
M  V30 605 O 52.6275 1.89832 -0.259684 0
M  V30 606 C 52.8215 0.698983 -3.50498 0
M  V30 607 C 52.6505 -0.476491 -4.47168 0
M  V30 608 C 51.4205 -0.969963 -4.95903 0
M  V30 609 C 53.6185 -1.32294 -4.96994 0
M  V30 610 N 51.6005 -2.11172 -5.76437 0
M  V30 611 C 52.9715 -2.31212 -5.75275 0
M  V30 612 C 55.0265 -1.35278 -4.7917 0
M  V30 613 C 53.7295 -3.32896 -6.37631 0
M  V30 614 C 55.7555 -2.35823 -5.42348 0
M  V30 615 C 55.1175 -3.33469 -6.20466 0
M  V30 616 H 51.2165 0.0724992 -0.778632 0
M  V30 617 H 53.8005 -0.436583 -1.89742 0
M  V30 618 H 51.9715 1.40032 -3.62278 0
M  V30 619 H 53.7035 1.28013 -3.8392 0
M  V30 620 H 50.4585 -0.544178 -4.70463 0
M  V30 621 H 50.8825 -2.68714 -6.21387 0
M  V30 622 H 55.5245 -0.61157 -4.18354 0
M  V30 623 H 53.2425 -4.07933 -6.97579 0
M  V30 624 H 56.8285 -2.38911 -5.30484 0
M  V30 625 H 55.7085 -4.09996 -6.68485 0
M  V30 626 N 53.2116 1.57565 -0.0334293 0
M  V30 627 C 54.4586 1.91978 0.644272 0
M  V30 628 C 54.7866 0.910231 1.71887 0
M  V30 629 O 54.0416 -0.0801961 1.95536 0
M  V30 630 C 54.3406 3.33112 1.29504 0
M  V30 631 C 54.0066 4.49537 0.350388 0
M  V30 632 C 52.6686 4.81115 0.0903974 0
M  V30 633 C 55.0206 5.20347 -0.298032 0
M  V30 634 C 52.3486 5.8086 -0.825746 0
M  V30 635 C 54.7006 6.2107 -1.20226 0
M  V30 636 C 53.3646 6.51088 -1.4711 0
M  V30 637 H 52.6346 0.702496 0.235756 0
M  V30 638 H 55.2816 1.91259 -0.0961176 0
M  V30 639 H 53.5866 3.30113 2.11028 0
M  V30 640 H 55.2836 3.57011 1.82603 0
M  V30 641 H 51.8736 4.24883 0.563205 0
M  V30 642 H 56.0576 4.96178 -0.110234 0
M  V30 643 H 51.3136 6.02461 -1.04169 0
M  V30 644 H 55.4876 6.75057 -1.71086 0
M  V30 645 H 53.1146 7.28193 -2.18264 0
M  V30 646 N 54.6897 -0.239769 1.55765 0
M  V30 647 C 55.9367 -0.966801 1.7793 0
M  V30 648 C 56.2647 -1.85046 0.599015 0
M  V30 649 O 55.5197 -1.91197 -0.417395 0
M  V30 650 C 55.8187 -1.852 3.05672 0
M  V30 651 C 55.4847 -1.1231 4.36689 0
M  V30 652 C 54.1467 -0.921689 4.72291 0
M  V30 653 C 56.4987 -0.607019 5.17653 0
M  V30 654 C 53.8267 -0.191996 5.86386 0
M  V30 655 C 56.1787 0.109241 6.32506 0
M  V30 656 C 54.8427 0.322073 6.66723 0
M  V30 657 H 54.1127 -0.353778 0.651093 0
M  V30 658 H 56.7597 -0.23634 1.90036 0
M  V30 659 H 55.0647 -2.64975 2.8861 0
M  V30 660 H 56.7617 -2.41635 3.20021 0
M  V30 661 H 53.3517 -1.29004 4.08725 0
M  V30 662 H 57.5357 -0.750153 4.90598 0
M  V30 663 H 52.7917 -0.0166949 6.11398 0
M  V30 664 H 56.9657 0.516737 6.9448 0
M  V30 665 H 54.5927 0.88944 7.54979 0
M  V30 666 N 56.1678 -1.49265 -0.50573 0
M  V30 667 C 57.5838 -1.35923 -0.836486 0
M  V30 668 C 57.7838 -0.388704 -1.97715 0
M  V30 669 O 56.8398 0.181336 -2.51848 0
M  V30 670 C 58.1528 -2.76531 -1.18115 0
M  V30 671 C 59.7008 -2.85197 -1.28964 0
M  V30 672 C 60.1758 -4.26561 -1.66761 0
M  V30 673 N 61.6668 -4.2935 -1.73819 0
M  V30 674 C 62.4018 -5.35693 -2.045 0
M  V30 675 N 61.8978 -6.52287 -2.33438 0
M  V30 676 N 63.6908 -5.23105 -2.05711 0
M  V30 677 H 55.8418 -2.10965 0.246519 0
M  V30 678 H 58.1048 -0.9468 0.0476887 0
M  V30 679 H 57.8108 -3.49226 -0.416398 0
M  V30 680 H 57.6848 -3.11599 -2.1257 0
M  V30 681 H 60.0718 -2.12742 -2.04511 0
M  V30 682 H 60.1528 -2.53718 -0.325704 0
M  V30 683 H 59.7968 -4.99541 -0.917656 0
M  V30 684 H 59.7268 -4.55502 -2.64246 0
M  V30 685 H 62.2178 -3.4526 -1.53635 0
M  V30 686 H 62.5308 -7.29158 -2.56024 0
M  V30 687 H 60.8758 -6.55521 -2.30905 0
M  V30 688 H 64.0668 -4.31026 -1.82577 0
M  V30 689 H 64.2398 -6.06078 -2.29289 0
M  V30 690 N 57.6459 0.756429 -1.3826 0
M  V30 691 C 58.5559 1.9009 -1.37488 0
M  V30 692 C 59.5719 1.71855 -0.272366 0
M  V30 693 O 60.7479 1.94827 -0.510318 0
M  V30 694 C 57.8129 3.25421 -1.19592 0
M  V30 695 C 56.8739 3.56202 -2.39622 0
M  V30 696 C 56.1069 4.85075 -2.2257 0
M  V30 697 O 56.3299 5.57246 -1.21793 0
M  V30 698 O 55.2639 5.15269 -3.11098 0
M  V30 699 H 59.0899 1.93695 -2.33914 0
M  V30 700 H 56.6749 0.901313 -1.1915 0
M  V30 701 H 58.5569 4.06337 -1.11661 0
M  V30 702 H 57.2319 3.22634 -0.262486 0
M  V30 703 H 56.1389 2.75458 -2.53128 0
M  V30 704 H 57.4719 3.63747 -3.31586 0
M  V30 705 N 59.124 1.23083 0.984299 0
M  V30 706 C 60.087 1.00979 2.05757 0
M  V30 707 C 61.087 -0.0269573 1.60777 0
M  V30 708 O 62.277 0.212403 1.729 0
M  V30 709 C 59.409 0.527072 3.36801 0
M  V30 710 H 60.602 1.9622 2.26799 0
M  V30 711 H 58.155 1.05072 1.15714 0
M  V30 712 H 58.89 -0.429294 3.21446 0
M  V30 713 H 58.675 1.27515 3.70786 0
M  V30 714 H 60.165 0.392942 4.15747 0
M  V30 715 N 60.6021 -1.18246 1.0419 0
M  V30 716 C 61.8491 -1.88257 0.746017 0
M  V30 717 C 62.1771 -1.80429 -0.726331 0
M  V30 718 O 61.4321 -1.2 -1.54591 0
M  V30 719 C 61.7311 -3.38082 1.15911 0
M  V30 720 C 61.3971 -3.66114 2.63195 0
M  V30 721 C 60.0591 -3.73474 3.03432 0
M  V30 722 C 62.4111 -3.78398 3.5842 0
M  V30 723 C 59.7391 -3.90599 4.37778 0
M  V30 724 C 62.0911 -3.97039 4.92487 0
M  V30 725 C 60.7551 -4.02635 5.32392 0
M  V30 726 H 60.0251 -0.688883 0.272987 0
M  V30 727 H 62.6721 -1.3995 1.30715 0
M  V30 728 H 60.9771 -3.88377 0.516806 0
M  V30 729 H 62.6741 -3.90596 0.907516 0
M  V30 730 H 59.2641 -3.61003 2.3103 0
M  V30 731 H 63.4481 -3.72042 3.28479 0
M  V30 732 H 58.7041 -3.93175 4.68213 0
M  V30 733 H 62.8781 -4.05486 5.66175 0
M  V30 734 H 60.5051 -4.15657 6.36501 0
M  V30 735 N 62.0802 -0.821533 -1.34494 0
M  V30 736 C 63.0102 -0.257138 -2.3208 0
M  V30 737 C 63.9912 0.625645 -1.58176 0
M  V30 738 O 65.1762 0.552811 -1.86166 0
M  V30 739 C 62.3062 0.582958 -3.42372 0
M  V30 740 C 61.2602 -0.202571 -4.2752 0
M  V30 741 C 60.5862 0.760179 -5.29269 0
M  V30 742 C 61.8862 -1.40998 -5.02908 0
M  V30 743 H 63.5802 -1.07247 -2.79532 0
M  V30 744 H 61.1262 -0.517163 -1.34393 0
M  V30 745 H 63.0792 0.987972 -4.09655 0
M  V30 746 H 61.8032 1.43133 -2.93565 0
M  V30 747 H 60.4622 -0.588936 -3.61838 0
M  V30 748 H 60.1102 1.60447 -4.76724 0
M  V30 749 H 59.8102 0.238809 -5.87115 0
M  V30 750 H 61.3342 1.16308 -5.9942 0
M  V30 751 H 62.7482 -1.07905 -5.63054 0
M  V30 752 H 61.1452 -1.86689 -5.70322 0
M  V30 753 H 62.2152 -2.1889 -4.32684 0
M  V30 754 N 63.5583 1.46682 -0.576371 0
M  V30 755 C 64.8043 2.02712 -0.0596221 0
M  V30 756 C 65.1373 1.44765 1.29448 0
M  V30 757 O 64.4123 0.610355 1.84675 0
M  V30 758 C 64.6953 3.60098 0.0129503 0
M  V30 759 C 64.5483 4.28441 -1.3696 0
M  V30 760 C 65.8673 4.34224 0.71678 0
M  V30 761 H 62.9863 0.736637 -0.0231407 0
M  V30 762 H 65.6283 1.74898 -0.742351 0
M  V30 763 H 63.7783 3.83926 0.594378 0
M  V30 764 H 65.4503 4.15896 -1.9957 0
M  V30 765 H 63.6933 3.8805 -1.93907 0
M  V30 766 H 64.3643 5.3716 -1.27135 0
M  V30 767 H 66.8403 4.15503 0.222908 0
M  V30 768 H 65.7163 5.43936 0.73657 0
M  V30 769 H 65.9773 4.04823 1.77682 0
M  V30 770 N 65.0364 0.313813 1.54444 0
M  V30 771 C 66.4474 -0.176243 1.85866 0
M  V30 772 C 66.7984 -1.52405 1.23561 0
M  V30 773 O 65.9234 -2.09605 0.538016 0
M  V30 774 C 66.5184 -0.32657 3.37222 0
M  V30 775 C 65.0774 -0.760846 3.6863 0
M  V30 776 C 64.2244 0.123247 2.77026 0
M  V30 777 H 67.1754 0.534418 1.49431 0
M  V30 778 H 67.1964 -1.15908 3.62416 0
M  V30 779 H 66.7084 0.654531 3.82541 0
M  V30 780 H 64.8094 -1.75204 3.28838 0
M  V30 781 H 64.9224 -0.571353 4.75681 0
M  V30 782 H 63.2864 -0.399597 2.51546 0
M  V30 783 H 64.0694 1.10094 3.25168 0
M  V30 784 N 66.5145 -1.57545 0.0417849 0
M  V30 785 C 67.4775 -2.09885 -0.92093 0
M  V30 786 C 68.4775 -1.01648 -1.24596 0
M  V30 787 O 69.6675 -1.27759 -1.1842 0
M  V30 788 C 66.7995 -2.57527 -2.23367 0
M  V30 789 H 67.9925 -2.96236 -0.467382 0
M  V30 790 H 65.5455 -1.5493 -0.206467 0
M  V30 791 H 66.2805 -1.74542 -2.73323 0
M  V30 792 H 66.0655 -3.36613 -2.01083 0
M  V30 793 H 67.5555 -2.98201 -2.92346 0
M  V30 794 N 67.9926 0.231505 -1.5589 0
M  V30 795 C 69.2226 0.973092 -1.82248 0
M  V30 796 C 69.6306 1.78845 -0.617328 0
M  V30 797 O 68.9736 1.78752 0.423499 0
M  V30 798 C 69.0356 1.94732 -3.02192 0
M  V30 799 C 68.6996 1.31743 -4.37599 0
M  V30 800 C 69.6966 0.712238 -5.14998 0
M  V30 801 C 67.3816 1.33218 -4.84312 0
M  V30 802 C 69.3756 0.130195 -6.37267 0
M  V30 803 C 67.0626 0.746286 -6.06526 0
M  V30 804 C 68.0606 0.146337 -6.82843 0
M  V30 805 O 67.7486 -0.430465 -8.02747 0
M  V30 806 H 67.4806 0.29125 -0.61004 0
M  V30 807 H 70.0346 0.254915 -2.03812 0
M  V30 808 H 68.2646 2.70422 -2.76422 0
M  V30 809 H 69.9536 2.55362 -3.15508 0
M  V30 810 H 70.7196 0.69324 -4.8002 0
M  V30 811 H 66.5986 1.78854 -4.24891 0
M  V30 812 H 70.1426 -0.33871 -6.96777 0
M  V30 813 H 66.0396 0.762663 -6.40979 0
M  V30 814 H 66.8076 -0.323818 -8.17859 0
M  V30 815 N 69.4707 1.49531 0.497807 0
M  V30 816 C 70.6987 1.62893 1.27567 0
M  V30 817 C 71.1137 0.301585 1.86376 0
M  V30 818 O 70.4707 -0.713335 1.67982 0
M  V30 819 C 70.5217 2.70013 2.40364 0
M  V30 820 O 70.2427 3.976 1.83972 0
M  V30 821 C 71.7437 2.94109 3.31685 0
M  V30 822 H 68.9637 0.548298 0.386794 0
M  V30 823 H 71.5077 1.95584 0.597245 0
M  V30 824 H 69.6627 2.40092 3.04031 0
M  V30 825 H 70.0767 4.56631 2.58047 0
M  V30 826 H 71.5507 3.72788 4.07104 0
M  V30 827 H 72.0277 2.04147 3.88871 0
M  V30 828 H 72.6337 3.2546 2.73781 0
M  V30 829 N 70.9488 -0.749086 1.3866 0
M  V30 830 C 71.8588 -1.89358 1.38494 0
M  V30 831 C 72.8748 -1.71708 0.281476 0
M  V30 832 O 74.0508 -1.94554 0.520643 0
M  V30 833 C 71.1158 -3.24782 1.21316 0
M  V30 834 C 70.1768 -3.54926 2.41508 0
M  V30 835 C 69.4098 -4.83888 2.2514 0
M  V30 836 O 69.6328 -5.56592 1.24746 0
M  V30 837 O 68.5668 -5.13612 3.13826 0
M  V30 838 H 72.3928 -1.92452 2.34938 0
M  V30 839 H 69.9778 -0.894981 1.19626 0
M  V30 840 H 71.8598 -4.05739 1.13814 0
M  V30 841 H 70.5348 -3.2249 0.279592 0
M  V30 842 H 69.4418 -2.74112 2.54585 0
M  V30 843 H 70.7748 -3.61983 3.3351 0
M  V30 844 N 72.4269 -1.23603 -0.977757 0
M  V30 845 C 73.3589 -0.977369 -2.07317 0
M  V30 846 C 74.3719 0.0495845 -1.62724 0
M  V30 847 O 75.5609 -0.186261 -1.77526 0
M  V30 848 C 72.6609 -0.451216 -3.35883 0
M  V30 849 C 71.8339 -1.53896 -4.09432 0
M  V30 850 C 70.8929 -1.01721 -5.16274 0
M  V30 851 O 69.9189 -1.70676 -5.43009 0
M  V30 852 N 71.1209 0.153594 -5.80297 0
M  V30 853 H 73.8859 -1.92047 -2.30082 0
M  V30 854 H 71.4469 -1.14497 -1.14465 0
M  V30 855 H 73.4389 -0.0871574 -4.04606 0
M  V30 856 H 72.0089 0.397368 -3.10064 0
M  V30 857 H 71.2289 -2.07566 -3.35127 0
M  V30 858 H 72.5169 -2.27037 -4.55337 0
M  V30 859 H 71.9149 0.730323 -5.60966 0
M  V30 860 H 70.4719 0.458892 -6.50183 0
M  V30 861 N 73.905 1.17692 -1.04816 0
M  V30 862 C 75.13 1.92327 -0.776207 0
M  V30 863 C 75.555 1.76082 0.661581 0
M  V30 864 O 74.913 1.076 1.45917 0
M  V30 865 C 74.961 3.41539 -1.15687 0
M  V30 866 O 74.065 4.11402 -0.286775 0
M  V30 867 H 73.406 0.599735 -0.284981 0
M  V30 868 H 75.936 1.49201 -1.4 0
M  V30 869 H 75.946 3.92269 -1.12202 0
M  V30 870 H 74.621 3.52684 -2.20425 0
M  V30 871 H 73.198 3.70939 -0.381903 0
M  V30 872 N 75.3831 0.828654 1.34056 0
M  V30 873 C 76.3151 0.212052 2.28217 0
M  V30 874 C 77.3281 -0.601362 1.51286 0
M  V30 875 O 78.5171 -0.430104 1.73241 0
M  V30 876 C 75.6171 -0.72088 3.31144 0
M  V30 877 C 74.7901 0.0509587 4.3737 0
M  V30 878 C 73.8491 -0.803766 5.20025 0
M  V30 879 O 72.8751 -0.246667 5.68665 0
M  V30 880 N 74.0771 -2.1227 5.40298 0
M  V30 881 H 76.8421 1.02105 2.81771 0
M  V30 882 H 74.4031 0.686153 1.46641 0
M  V30 883 H 76.3951 -1.29742 3.8334 0
M  V30 884 H 74.9651 -1.43061 2.77943 0
M  V30 885 H 74.1851 0.808831 3.85813 0
M  V30 886 H 75.4731 0.582065 5.0546 0
M  V30 887 H 74.8711 -2.59898 5.02464 0
M  V30 888 H 73.4281 -2.64796 5.95589 0
M  V30 889 N 76.8612 -1.46375 0.584142 0
M  V30 890 C 78.1102 -2.01585 0.0679741 0
M  V30 891 C 78.4232 -1.46109 -1.30045 0
M  V30 892 O 79.6292 -1.93148 -1.90804 0
M  V30 893 C 78.0852 -3.5983 0.0709207 0
M  V30 894 C 77.6932 -4.24303 1.43775 0
M  V30 895 C 79.4372 -4.22693 -0.391228 0
M  V30 896 C 77.3442 -5.74631 1.39834 0
M  V30 897 H 76.2742 -0.753689 0.0216421 0
M  V30 898 H 78.9252 -1.68093 0.736001 0
M  V30 899 H 77.3072 -3.90405 -0.663299 0
M  V30 900 H 78.4812 -4.05335 2.19181 0
M  V30 901 H 76.7962 -3.73539 1.84004 0
M  V30 902 H 79.3932 -5.3289 -0.439524 0
M  V30 903 H 79.7362 -3.91728 -1.40906 0
M  V30 904 H 80.2692 -3.96749 0.288974 0
M  V30 905 H 77.0082 -6.10258 2.39303 0
M  V30 906 H 76.5282 -5.95858 0.686505 0
M  V30 907 H 78.2072 -6.37375 1.11187 0
M  V30 908 N 78.3393 -0.321999 -1.54275 0
M  V30 909 C 79.2863 0.544664 -2.24281 0
M  V30 910 C 80.2563 1.1129 -1.23303 0
M  V30 911 O 81.4413 1.15354 -1.51981 0
M  V30 912 C 78.5813 1.70045 -3.00298 0
M  V30 913 C 77.6943 1.16159 -4.1609 0
M  V30 914 C 76.8293 2.28293 -4.79641 0
M  V30 915 C 75.8683 1.71648 -5.8754 0
M  V30 916 N 75.0053 2.77438 -6.44959 0
M  V30 917 H 79.8453 -0.0588907 -2.97942 0
M  V30 918 H 77.3823 -0.0408345 -1.47043 0
M  V30 919 H 79.3403 2.38054 -3.42616 0
M  V30 920 H 77.9703 2.27531 -2.28975 0
M  V30 921 H 77.0223 0.373092 -3.78566 0
M  V30 922 H 78.3343 0.707087 -4.93763 0
M  V30 923 H 77.4883 3.0421 -5.2492 0
M  V30 924 H 76.2273 2.77079 -4.01346 0
M  V30 925 H 75.2323 0.942282 -5.41665 0
M  V30 926 H 76.4573 1.23741 -6.67731 0
M  V30 927 H 74.4033 3.25519 -5.69538 0
M  V30 928 H 74.3203 2.36547 -7.1804 0
M  V30 929 H 75.5883 3.53189 -6.94894 0
M  V30 930 N 79.8174 1.5752 -0.0501392 0
M  V30 931 C 81.0654 1.9227 0.622642 0
M  V30 932 C 81.3864 0.929083 1.71444 0
M  V30 933 O 80.6564 -0.0262186 1.95882 0
M  V30 934 H 79.2364 0.709739 0.232981 0
M  V30 935 H 81.8984 1.94628 -0.102898 0
M  V30 936 H 80.9944 2.93479 1.06191 0
M  V30 937 N 81.2955 -0.223234 1.56011 0
M  V30 938 C 82.5255 -0.963413 1.82762 0
M  V30 939 C 82.9335 -1.78516 0.626804 0
M  V30 940 O 82.2765 -1.78974 -0.414014 0
M  V30 941 C 82.3385 -1.93126 3.0322 0
M  V30 942 C 82.0025 -1.2942 4.38291 0
M  V30 943 C 82.9995 -0.684916 5.15369 0
M  V30 944 C 80.6845 -1.30647 4.85012 0
M  V30 945 C 82.6785 -0.0963971 6.37327 0
M  V30 946 C 80.3655 -0.71411 6.06913 0
M  V30 947 C 81.3635 -0.110123 6.82911 0
M  V30 948 O 81.0515 0.47303 8.02507 0
M  V30 949 H 80.7835 -0.288011 0.611576 0
M  V30 950 H 83.3375 -0.244103 2.03944 0
M  V30 951 H 81.5675 -2.68952 2.77852 0
M  V30 952 H 83.2565 -2.53685 3.16857 0
M  V30 953 H 84.0225 -0.667774 4.80381 0
M  V30 954 H 79.9015 -1.76598 4.25833 0
M  V30 955 H 83.4455 0.375657 6.96588 0
M  V30 956 H 79.3425 -0.728659 6.41374 0
M  V30 957 H 80.1105 0.367186 8.17676 0
M  V30 958 N 82.7736 -1.49793 -0.48987 0
M  V30 959 C 84.0196 -1.60078 -1.24511 0
M  V30 960 C 84.3526 -0.291608 -1.91998 0
M  V30 961 O 83.6276 0.705647 -1.81248 0
M  V30 962 C 83.9106 -2.76791 -2.30345 0
M  V30 963 C 83.7636 -4.17535 -1.67286 0
M  V30 964 C 85.0826 -2.89111 -3.31817 0
M  V30 965 H 82.2016 -0.582645 -0.451324 0
M  V30 966 H 84.8436 -1.82117 -0.541612 0
M  V30 967 H 82.9936 -2.5813 -2.90346 0
M  V30 968 H 84.6656 -4.4774 -1.11026 0
M  V30 969 H 82.9086 -4.22665 -0.976577 0
M  V30 970 H 83.5796 -4.95094 -2.44103 0
M  V30 971 H 86.0556 -3.06133 -2.81819 0
M  V30 972 H 84.9316 -3.72433 -4.03219 0
M  V30 973 H 85.1926 -1.9893 -3.94815 0
M  V30 974 N 84.2517 0.741722 -1.39055 0
M  V30 975 C 85.4977 1.50234 -1.37118 0
M  V30 976 C 85.8527 1.92368 0.0350439 0
M  V30 977 O 85.1457 1.63422 1.00019 0
M  V30 978 C 85.3397 2.7592 -2.27163 0
M  V30 979 C 85.1687 2.46074 -3.76401 0
M  V30 980 C 83.9387 2.38704 -4.45364 0
M  V30 981 C 86.1367 2.12062 -4.68545 0
M  V30 982 N 84.1187 2.01258 -5.79973 0
M  V30 983 C 85.4897 1.85005 -5.91754 0
M  V30 984 C 87.5447 1.98473 -4.56632 0
M  V30 985 C 86.2477 1.4573 -7.04383 0
M  V30 986 C 88.2737 1.60599 -5.69176 0
M  V30 987 C 87.6357 1.34423 -6.91455 0
M  V30 988 H 83.7347 0.548858 -0.557027 0
M  V30 989 H 86.3187 0.862642 -1.74547 0
M  V30 990 H 84.4897 3.3768 -1.91904 0
M  V30 991 H 86.2217 3.42068 -2.16267 0
M  V30 992 H 82.9767 2.55574 -3.98721 0
M  V30 993 H 83.4007 1.85147 -6.51191 0
M  V30 994 H 88.0427 2.17381 -3.62637 0
M  V30 995 H 85.7607 1.25562 -7.98286 0
M  V30 996 H 89.3467 1.507 -5.61944 0
M  V30 997 H 88.2267 1.05555 -7.77064 0
M  V30 998 N 85.7298 1.2412 0.971189 0
M  V30 999 C 87.1458 1.00584 1.23916 0
M  V30 1000 C 87.3458 -0.287481 1.99439 0
M  V30 1001 O 86.4018 -1.00454 2.31658 0
M  V30 1002 C 87.7148 2.21864 2.0297 0
M  V30 1003 C 89.2628 2.26452 2.16076 0
M  V30 1004 C 89.7378 3.47343 2.98524 0
M  V30 1005 N 91.2288 3.47639 3.06107 0
M  V30 1006 C 91.9638 4.37837 3.70251 0
M  V30 1007 N 91.4598 5.38286 4.36142 0
M  V30 1008 N 93.2528 4.25558 3.67228 0
M  V30 1009 H 85.4038 2.07236 0.465499 0
M  V30 1010 H 87.6668 0.909236 0.268315 0
M  V30 1011 H 87.3728 3.15771 1.54861 0
M  V30 1012 H 87.2468 2.23698 3.03709 0
M  V30 1013 H 89.6338 1.33078 2.6339 0
M  V30 1014 H 89.7148 2.28645 1.14696 0
M  V30 1015 H 89.3588 4.41029 2.51905 0
M  V30 1016 H 89.2888 3.42393 4.00093 0
M  V30 1017 H 91.7798 2.74966 2.59233 0
M  V30 1018 H 92.0928 6.03352 4.82894 0
M  V30 1019 H 90.4378 5.42176 4.34822 0
M  V30 1020 H 93.6288 3.46322 3.14927 0
M  V30 1021 H 93.8018 4.96054 4.16935 0
M  V30 1022 N 87.2079 -1.17134 1.05439 0
M  V30 1023 C 88.4329 -1.91913 0.786396 0
M  V30 1024 C 88.8579 -1.7643 -0.652234 0
M  V30 1025 O 88.2159 -1.08372 -1.45345 0
M  V30 1026 C 88.2639 -3.40921 1.17497 0
M  V30 1027 O 87.3679 -4.11244 0.308589 0
M  V30 1028 H 86.7089 -0.598215 0.288158 0
M  V30 1029 H 89.2389 -1.48457 1.4079 0
M  V30 1030 H 89.2489 -3.91668 1.14281 0
M  V30 1031 H 87.9239 -3.5151 2.22292 0
M  V30 1032 H 86.5009 -3.70731 0.40157 0
M  V30 1033 N 88.686 -0.835752 -1.33615 0
M  V30 1034 C 89.649 -0.272 -2.2758 0
M  V30 1035 C 90.649 0.557487 -1.50827 0
M  V30 1036 O 91.839 0.37173 -1.70188 0
M  V30 1037 C 88.971 0.617173 -3.35267 0
M  V30 1038 H 90.164 -1.10111 -2.78954 0
M  V30 1039 H 87.717 -0.608594 -1.43965 0
M  V30 1040 H 88.452 1.46884 -2.89129 0
M  V30 1041 H 88.237 0.0237066 -3.92093 0
M  V30 1042 H 89.727 1.005 -4.05326 0
M  V30 1043 N 90.1641 1.46063 -0.591896 0
M  V30 1044 C 91.4101 2.02638 -0.0811191 0
M  V30 1045 C 91.7431 1.4613 1.27905 0
M  V30 1046 O 91.0181 0.629908 1.84017 0
M  V30 1047 C 91.3011 3.60091 -0.0252436 0
M  V30 1048 C 91.1541 4.26965 -1.41496 0
M  V30 1049 C 92.4731 4.3496 0.670685 0
M  V30 1050 H 89.5921 0.73635 -0.0309524 0
M  V30 1051 H 92.2341 1.741 -0.760859 0
M  V30 1052 H 90.3841 3.84535 0.553624 0
M  V30 1053 H 92.0561 4.13756 -2.0397 0
M  V30 1054 H 90.2991 3.85971 -1.98011 0
M  V30 1055 H 90.9701 5.35781 -1.32825 0
M  V30 1056 H 93.4461 4.15716 0.178825 0
M  V30 1057 H 92.3221 5.44686 0.678837 0
M  V30 1058 H 92.5831 4.06685 1.73379 0
M  V30 1059 N 91.6422 0.330177 1.54103 0
M  V30 1060 C 92.8902 -0.269871 2.0029 0
M  V30 1061 C 93.2112 -1.52133 1.21986 0
M  V30 1062 O 92.4812 -1.93212 0.323438 0
M  V30 1063 H 91.0612 -0.10271 0.739905 0
M  V30 1064 H 93.7232 0.448249 1.89675 0
M  V30 1065 H 92.8192 -0.52166 3.07709 0
M  V30 1066 N 93.1203 -1.57491 0.0584922 0
M  V30 1067 C 94.3673 -1.92978 -0.613648 0
M  V30 1068 C 94.6953 -0.937461 -1.70417 0
M  V30 1069 O 93.9503 0.049078 -1.95638 0
M  V30 1070 C 94.2493 -3.3513 -1.24188 0
M  V30 1071 C 93.9153 -4.50037 -0.278826 0
M  V30 1072 C 92.5773 -4.81198 -0.0138447 0
M  V30 1073 C 94.9293 -5.19807 0.380777 0
M  V30 1074 C 92.2573 -5.79473 0.918052 0
M  V30 1075 C 94.6093 -6.19079 1.30091 0
M  V30 1076 C 93.2733 -6.48665 1.57449 0
M  V30 1077 H 92.5433 -0.706157 -0.22455 0
M  V30 1078 H 95.1903 -1.91082 0.126533 0
M  V30 1079 H 93.4953 -3.33429 -2.05749 0
M  V30 1080 H 95.1923 -3.59871 -1.769 0
M  V30 1081 H 91.7823 -4.25726 -0.495539 0
M  V30 1082 H 95.9663 -4.95939 0.189158 0
M  V30 1083 H 91.2223 -6.00727 1.1374 0
M  V30 1084 H 95.3963 -6.7225 1.81804 0
M  V30 1085 H 93.0233 -7.24628 2.29822 0
M  V30 1086 N 94.5984 0.214957 -1.56127 0
M  V30 1087 C 95.5284 1.2695 -1.95974 0
M  V30 1088 C 96.5094 1.48539 -0.828868 0
M  V30 1089 O 97.6944 1.60611 -1.09168 0
M  V30 1090 C 94.8244 2.61794 -2.28214 0
M  V30 1091 C 93.7784 2.54851 -3.43853 0
M  V30 1092 C 93.1044 3.93785 -3.61715 0
M  V30 1093 C 94.4044 2.09065 -4.78632 0
M  V30 1094 H 96.0984 0.93846 -2.84312 0
M  V30 1095 H 93.6444 0.449996 -1.36788 0
M  V30 1096 H 95.5974 3.35731 -2.54682 0
M  V30 1097 H 94.3214 2.96599 -1.36736 0
M  V30 1098 H 92.9804 1.8337 -3.17444 0
M  V30 1099 H 92.6284 4.25908 -2.67602 0
M  V30 1100 H 92.3284 3.90019 -4.39498 0
M  V30 1101 H 93.8524 4.69374 -3.90539 0
M  V30 1102 H 95.2664 2.7275 -5.04262 0
M  V30 1103 H 93.6634 2.16346 -5.59745 0
M  V30 1104 H 94.7334 1.04315 -4.73547 0
M  V30 1105 N 96.0765 1.50051 0.48192 0
M  V30 1106 C 97.3235 1.60498 1.23477 0
M  V30 1107 C 97.6515 0.300331 1.92167 0
M  V30 1108 O 96.9065 -0.713094 1.82246 0
M  V30 1109 C 97.2055 2.72717 2.30998 0
M  V30 1110 C 96.8715 4.13572 1.79636 0
M  V30 1111 C 95.5335 4.519 1.65348 0
M  V30 1112 C 97.8855 5.01649 1.41412 0
M  V30 1113 C 95.2135 5.76057 1.11244 0
M  V30 1114 C 97.5655 6.26343 0.887538 0
M  V30 1115 C 96.2295 6.63483 0.731207 0
M  V30 1116 H 95.4995 0.587303 0.451836 0
M  V30 1117 H 98.1465 1.83948 0.532468 0
M  V30 1118 H 96.4515 2.43312 3.07094 0
M  V30 1119 H 98.1485 2.78006 2.88988 0
M  V30 1120 H 94.7385 3.83329 1.91721 0
M  V30 1121 H 98.9225 4.72679 1.51289 0
M  V30 1122 H 94.1785 6.03516 0.978686 0
M  V30 1123 H 98.3525 6.93958 0.582654 0
M  V30 1124 H 95.9795 7.59568 0.309806 0
M  V30 1125 N 97.5546 -0.734337 1.39446 0
M  V30 1126 C 98.8006 -1.49505 1.37913 0
M  V30 1127 C 99.1556 -1.92384 -0.0248416 0
M  V30 1128 O 98.4486 -1.6395 -0.991506 0
M  V30 1129 C 98.6426 -2.74711 2.28623 0
M  V30 1130 C 98.4716 -2.44075 3.777 0
M  V30 1131 C 97.2416 -2.36338 4.46623 0
M  V30 1132 C 99.4396 -2.09574 4.69663 0
M  V30 1133 N 97.4216 -1.9818 5.81032 0
M  V30 1134 C 98.7926 -1.81865 5.92727 0
M  V30 1135 C 100.848 -1.96048 4.57678 0
M  V30 1136 C 99.5506 -1.41992 7.05146 0
M  V30 1137 C 101.577 -1.57579 5.7002 0
M  V30 1138 C 100.939 -1.30754 6.92158 0
M  V30 1139 H 97.0376 -0.545896 0.55993 0
M  V30 1140 H 99.6216 -0.853373 1.75002 0
M  V30 1141 H 97.7926 -3.36657 1.93692 0
M  V30 1142 H 99.5246 -3.40916 2.18078 0
M  V30 1143 H 96.2796 -2.53456 4.00071 0
M  V30 1144 H 96.7036 -1.81691 6.52163 0
M  V30 1145 H 101.346 -2.15455 3.63784 0
M  V30 1146 H 99.0636 -1.21327 7.9894 0
M  V30 1147 H 102.65 -1.47718 5.62735 0
M  V30 1148 H 101.53 -1.01432 7.77612 0
M  V30 1149 N 99.0327 -1.24633 -0.964593 0
M  V30 1150 C 100.279 -1.08949 -1.71049 0
M  V30 1151 C 100.612 0.370302 -1.90637 0
M  V30 1152 O 99.8867 1.27349 -1.47011 0
M  V30 1153 C 100.17 -1.83329 -3.0994 0
M  V30 1154 C 100.023 -3.37077 -2.97824 0
M  V30 1155 C 101.342 -1.60846 -4.09654 0
M  V30 1156 H 98.4607 -0.397178 -0.620821 0
M  V30 1157 H 101.103 -1.5334 -1.12191 0
M  V30 1158 H 99.2527 -1.45597 -3.60186 0
M  V30 1159 H 100.925 -3.84425 -2.5498 0
M  V30 1160 H 99.1677 -3.65298 -2.33965 0
M  V30 1161 H 99.8387 -3.84324 -3.96231 0
M  V30 1162 H 102.315 -1.93674 -3.68279 0
M  V30 1163 H 101.191 -2.1534 -5.04896 0
M  V30 1164 H 101.452 -0.547434 -4.38698 0
M  V30 1165 N 100.511 1.16574 -1.06058 0
M  V30 1166 C 101.76 1.86385 -0.770944 0
M  V30 1167 C 102.073 1.82448 0.705129 0
M  V30 1168 O 103.279 2.47815 1.10905 0
M  V30 1169 C 101.735 3.34466 -1.32893 0
M  V30 1170 C 101.343 3.46883 -2.83507 0
M  V30 1171 C 103.087 4.09548 -1.11672 0
M  V30 1172 C 100.994 4.89036 -3.32562 0
M  V30 1173 H 99.9238 0.698181 -0.284709 0
M  V30 1174 H 102.575 1.31583 -1.27899 0
M  V30 1175 H 100.957 3.88859 -0.748662 0
M  V30 1176 H 102.131 3.02663 -3.47465 0
M  V30 1177 H 100.446 2.85232 -3.03368 0
M  V30 1178 H 103.043 5.14434 -1.45814 0
M  V30 1179 H 103.386 4.16264 -0.0549535 0
M  V30 1180 H 103.919 3.61387 -1.66265 0
M  V30 1181 H 100.658 4.87499 -4.38207 0
M  V30 1182 H 100.178 5.3389 -2.73351 0
M  V30 1183 H 101.857 5.57843 -3.2775 0
M  V30 1184 N 101.989 0.842826 1.3317 0
M  V30 1185 C 103.235 0.441099 1.97945 0
M  V30 1186 C 103.568 -0.998024 1.66593 0
M  V30 1187 O 102.843 -1.69839 0.947898 0
M  V30 1188 C 103.126 0.666841 3.53872 0
M  V30 1189 C 102.979 2.15352 3.94897 0
M  V30 1190 C 104.298 0.115544 4.39948 0
M  V30 1191 H 101.417 0.161739 0.719034 0
M  V30 1192 H 104.059 1.05907 1.57746 0
M  V30 1193 H 102.209 0.140828 3.88245 0
M  V30 1194 H 103.881 2.7447 3.70761 0
M  V30 1195 H 102.124 2.63653 3.44484 0
M  V30 1196 H 102.795 2.26221 5.03516 0
M  V30 1197 H 105.271 0.565213 4.12243 0
M  V30 1198 H 104.147 0.303152 5.48062 0
M  V30 1199 H 104.408 -0.980935 4.3108 0
M  V30 1200 N 103.467 -1.45747 0.599634 0
M  V30 1201 C 104.397 -2.33235 -0.111306 0
M  V30 1202 C 105.378 -1.46359 -0.866781 0
M  V30 1203 O 106.563 -1.75146 -0.838904 0
M  V30 1204 C 103.693 -3.28932 -1.11451 0
M  V30 1205 C 102.647 -4.25381 -0.472772 0
M  V30 1206 C 101.973 -5.1071 -1.58365 0
M  V30 1207 C 103.273 -5.18831 0.600948 0
M  V30 1208 H 104.967 -2.92927 0.61919 0
M  V30 1209 H 102.513 -1.40857 0.299215 0
M  V30 1210 H 104.466 -3.89002 -1.62036 0
M  V30 1211 H 103.19 -2.67381 -1.8755 0
M  V30 1212 H 101.849 -3.66598 0.0121472 0
M  V30 1213 H 101.497 -4.45533 -2.33473 0
M  V30 1214 H 101.197 -5.7604 -1.15982 0
M  V30 1215 H 102.721 -5.73647 -2.09194 0
M  V30 1216 H 104.135 -5.73019 0.179491 0
M  V30 1217 H 102.532 -5.92595 0.946076 0
M  V30 1218 H 103.602 -4.6174 1.48068 0
M  V30 1219 N 104.945 -0.338344 -1.53925 0
M  V30 1220 C 106.173 0.261298 -2.05243 0
M  V30 1221 C 106.588 1.44625 -1.21363 0
M  V30 1222 O 105.945 1.80811 -0.247736 0
M  V30 1223 C 105.996 0.681412 -3.5502 0
M  V30 1224 O 105.717 -0.456414 -4.35716 0
M  V30 1225 C 107.218 1.34232 -4.22489 0
M  V30 1226 H 104.438 0.0513685 -0.669031 0
M  V30 1227 H 106.982 -0.488822 -1.98572 0
M  V30 1228 H 105.137 1.38148 -3.61931 0
M  V30 1229 H 105.551 -0.122564 -5.24357 0
M  V30 1230 H 107.025 1.58708 -5.28693 0
M  V30 1231 H 107.502 2.29426 -3.74514 0
M  V30 1232 H 108.108 0.684424 -4.19757 0
M  V30 1233 N 106.423 1.57458 -0.0668435 0
M  V30 1234 C 107.648 1.9804 0.616027 0
M  V30 1235 C 108.073 0.944771 1.62652 0
M  V30 1236 O 107.431 -0.0902094 1.81075 0
M  V30 1237 C 107.479 3.37665 1.26549 0
M  V30 1238 O 106.583 3.36701 2.38131 0
M  V30 1239 H 105.924 0.644719 0.158849 0
M  V30 1240 H 108.454 2.04121 -0.139891 0
M  V30 1241 H 108.464 3.7474 1.6135 0
M  V30 1242 H 107.139 4.12573 0.525016 0
M  V30 1243 H 105.716 3.1139 2.0516 0
M  V30 1244 N 107.901 -0.206675 1.56239 0
M  V30 1245 C 109.147 -0.925733 1.81113 0
M  V30 1246 C 109.502 -1.81368 0.642135 0
M  V30 1247 O 108.795 -1.88126 -0.363211 0
M  V30 1248 C 108.989 -1.78675 3.09532 0
M  V30 1249 C 108.818 -0.98365 4.3881 0
M  V30 1250 C 107.588 -0.672661 5.00803 0
M  V30 1251 C 109.786 -0.341847 5.13163 0
M  V30 1252 N 107.768 0.150283 6.13716 0
M  V30 1253 C 109.139 0.343815 6.19046 0
M  V30 1254 C 111.194 -0.256392 4.97239 0
M  V30 1255 C 109.897 1.10678 7.10734 0
M  V30 1256 C 111.923 0.493142 5.8934 0
M  V30 1257 C 111.285 1.16729 6.94661 0
M  V30 1258 H 107.384 -0.318524 0.714189 0
M  V30 1259 H 109.968 -0.195378 1.93717 0
M  V30 1260 H 108.139 -2.4888 2.98183 0
M  V30 1261 H 109.871 -2.44441 3.22538 0
M  V30 1262 H 106.626 -0.994294 4.63045 0
M  V30 1263 H 107.05 0.551026 6.74754 0
M  V30 1264 H 111.692 -0.763249 4.15854 0
M  V30 1265 H 109.41 1.6251 7.91591 0
M  V30 1266 H 112.996 0.560465 5.79094 0
M  V30 1267 H 111.876 1.738 7.64698 0
M  V30 1268 N 109.379 -1.50304 -0.473955 0
M  V30 1269 C 110.628 -1.60392 -1.22301 0
M  V30 1270 C 110.941 -0.308411 -1.93153 0
M  V30 1271 O 112.147 -0.288156 -2.69966 0
M  V30 1272 C 110.603 -2.83109 -2.2221 0
M  V30 1273 C 110.211 -4.19524 -1.57173 0
M  V30 1274 C 111.955 -3.0254 -2.97775 0
M  V30 1275 C 109.862 -5.33431 -2.55353 0
M  V30 1276 H 108.792 -0.597286 -0.460179 0
M  V30 1277 H 111.443 -1.76731 -0.493803 0
M  V30 1278 H 109.825 -2.60322 -2.9841 0
M  V30 1279 H 110.999 -4.52554 -0.867824 0
M  V30 1280 H 109.314 -4.05674 -0.939002 0
M  V30 1281 H 111.911 -3.84811 -3.71248 0
M  V30 1282 H 112.254 -2.14154 -3.56992 0
M  V30 1283 H 112.787 -3.25494 -2.28688 0
M  V30 1284 H 109.526 -6.23962 -2.00878 0
M  V30 1285 H 109.046 -5.04823 -3.23904 0
M  V30 1286 H 110.725 -5.63887 -3.17239 0
M  V30 1287 N 110.857 0.726932 -1.39834 0
M  V30 1288 C 112.085 1.51613 -1.40787 0
M  V30 1289 C 112.5 1.88799 -0.00451505 0
M  V30 1290 O 111.857 1.54662 0.968809 0
M  V30 1291 C 111.908 2.79863 -2.28821 0
M  V30 1292 O 111.629 2.44253 -3.63692 0
M  V30 1293 C 113.13 3.73837 -2.38245 0
M  V30 1294 H 110.35 0.468264 -0.480593 0
M  V30 1295 H 112.894 0.897607 -1.83748 0
M  V30 1296 H 111.049 3.38027 -1.89252 0
M  V30 1297 H 111.463 3.26695 -4.1033 0
M  V30 1298 H 112.937 4.60699 -3.04073 0
M  V30 1299 H 113.414 4.16153 -1.40403 0
M  V30 1300 H 114.02 3.21589 -2.78317 0
M  V30 1301 N 112.336 1.25143 0.95797 0
M  V30 1302 C 113.585 1.0909 1.69654 0
M  V30 1303 C 113.898 -0.368548 1.92097 0
M  V30 1304 O 115.104 -0.649455 2.63618 0
M  V30 1305 C 113.56 1.90395 3.05414 0
M  V30 1306 C 113.168 3.4081 2.90779 0
M  V30 1307 C 114.912 1.82901 3.83076 0
M  V30 1308 C 112.819 4.14423 4.21909 0
M  V30 1309 H 111.749 0.404625 0.636235 0
M  V30 1310 H 114.4 1.4931 1.06672 0
M  V30 1311 H 112.782 1.42996 3.69281 0
M  V30 1312 H 113.956 3.95859 2.35865 0
M  V30 1313 H 112.271 3.49361 2.26575 0
M  V30 1314 H 114.868 2.35196 4.80195 0
M  V30 1315 H 115.211 0.796224 4.08615 0
M  V30 1316 H 115.744 2.28033 3.25954 0
M  V30 1317 H 112.483 5.18102 4.01561 0
M  V30 1318 H 112.003 3.64159 4.76601 0
M  V30 1319 H 113.682 4.21956 4.90471 0
M  V30 1320 N 113.814 -1.1601 1.06675 0
M  V30 1321 C 115.061 -1.86633 0.785781 0
M  V30 1322 C 115.389 -1.81929 -0.687896 0
M  V30 1323 O 114.644 -1.23253 -1.52011 0
M  V30 1324 C 114.943 -3.35547 1.23057 0
M  V30 1325 C 114.609 -3.60448 2.70902 0
M  V30 1326 C 113.271 -3.66954 3.11285 0
M  V30 1327 C 115.623 -3.7071 3.66365 0
M  V30 1328 C 112.951 -3.81225 4.45965 0
M  V30 1329 C 115.303 -3.86503 5.00797 0
M  V30 1330 C 113.967 -3.91252 5.40813 0
M  V30 1331 H 113.237 -0.682937 0.287538 0
M  V30 1332 H 115.884 -1.37146 1.33654 0
M  V30 1333 H 114.189 -3.87193 0.59907 0
M  V30 1334 H 115.886 -3.88583 0.990163 0
M  V30 1335 H 112.476 -3.56021 2.38636 0
M  V30 1336 H 116.66 -3.64991 3.36296 0
M  V30 1337 H 111.916 -3.83155 4.76447 0
M  V30 1338 H 116.09 -3.93385 5.74649 0
M  V30 1339 H 113.717 -4.02062 6.45174 0
M  V30 1340 N 115.292 -0.849877 -1.32721 0
M  V30 1341 C 116.224 -0.248332 -2.27851 0
M  V30 1342 C 117.237 0.577218 -1.52224 0
M  V30 1343 O 118.426 0.402489 -1.73903 0
M  V30 1344 C 115.526 0.668107 -3.32249 0
M  V30 1345 C 114.699 -0.120534 -4.37234 0
M  V30 1346 C 113.758 0.720932 -5.21238 0
M  V30 1347 O 112.784 0.156166 -5.68986 0
M  V30 1348 N 113.986 2.03647 -5.43607 0
M  V30 1349 H 116.751 -1.06575 -2.80111 0
M  V30 1350 H 114.312 -0.709395 -1.45531 0
M  V30 1351 H 116.304 1.23627 -3.85355 0
M  V30 1352 H 114.874 1.38621 -2.80184 0
M  V30 1353 H 114.094 -0.870108 -3.84477 0
M  V30 1354 H 115.382 -0.662406 -5.0447 0
M  V30 1355 H 114.78 2.51871 -5.06535 0
M  V30 1356 H 113.337 2.55287 -5.99727 0
M  V30 1357 N 116.77 1.45427 -0.607355 0
M  V30 1358 C 118.019 2.01452 -0.100036 0
M  V30 1359 C 118.332 1.48159 1.27704 0
M  V30 1360 O 119.538 1.96159 1.87707 0
M  V30 1361 C 117.994 3.59672 -0.128158 0
M  V30 1362 C 117.602 4.21962 -1.50507 0
M  V30 1363 C 119.346 4.23262 0.323932 0
M  V30 1364 C 117.253 5.72333 -1.48959 0
M  V30 1365 H 116.183 0.75325 -0.0336299 0
M  V30 1366 H 118.834 1.66901 -0.76265 0
M  V30 1367 H 117.216 3.91411 0.601105 0
M  V30 1368 H 118.39 4.01796 -2.25602 0
M  V30 1369 H 116.705 3.70565 -1.89923 0
M  V30 1370 H 119.302 5.33522 0.354691 0
M  V30 1371 H 119.645 3.93921 1.34656 0
M  V30 1372 H 120.178 3.96239 -0.352056 0
M  V30 1373 H 116.917 6.06373 -2.48981 0
M  V30 1374 H 116.437 5.94691 -0.781214 0
M  V30 1375 H 118.116 6.35525 -1.21313 0
M  V30 1376 N 118.248 0.346503 1.53744 0
M  V30 1377 C 119.478 -0.250047 2.05081 0
M  V30 1378 C 119.886 -1.44529 1.22098 0
M  V30 1379 O 119.229 -1.81992 0.249917 0
M  V30 1380 C 119.291 -0.725934 3.52094 0
M  V30 1381 C 118.955 0.350053 4.55657 0
M  V30 1382 C 119.952 1.19372 5.0601 0
M  V30 1383 C 117.637 0.504827 4.99757 0
M  V30 1384 C 119.631 2.17768 5.99046 0
M  V30 1385 C 117.318 1.49218 5.92602 0
M  V30 1386 C 118.316 2.32706 6.42135 0
M  V30 1387 O 118.004 3.2976 7.33153 0
M  V30 1388 H 117.736 -0.0515469 0.674032 0
M  V30 1389 H 120.29 0.497559 1.99282 0
M  V30 1390 H 118.52 -1.52483 3.55367 0
M  V30 1391 H 120.209 -1.24336 3.86388 0
M  V30 1392 H 120.975 1.08525 4.72702 0
M  V30 1393 H 116.854 -0.135178 4.60802 0
M  V30 1394 H 120.398 2.82971 6.37631 0
M  V30 1395 H 116.295 1.6012 6.25325 0
M  V30 1396 H 117.063 3.25265 7.51096 0
M  V30 1397 N 119.726 -1.57421 0.075193 0
M  V30 1398 C 121.142 -1.57099 -0.281444 0
M  V30 1399 C 121.342 -1.08486 -1.69803 0
M  V30 1400 O 120.398 -0.752279 -2.41033 0
M  V30 1401 C 121.711 -3.00571 -0.0880041 0
M  V30 1402 C 123.259 -3.12605 -0.157281 0
M  V30 1403 C 123.734 -4.57999 0.0079207 0
M  V30 1404 N 125.225 -4.63176 -0.0475725 0
M  V30 1405 C 125.96 -5.73373 0.0557876 0
M  V30 1406 N 125.456 -6.92473 0.21286 0
M  V30 1407 N 127.249 -5.621 -0.00152098 0
M  V30 1408 H 119.4 -1.87335 1.00098 0
M  V30 1409 H 121.663 -0.86377 0.390646 0
M  V30 1410 H 121.369 -3.40262 0.889629 0
M  V30 1411 H 121.243 -3.67754 -0.838875 0
M  V30 1412 H 123.63 -2.72798 -1.1254 0
M  V30 1413 H 123.711 -2.48053 0.62475 0
M  V30 1414 H 123.355 -4.98496 0.972824 0
M  V30 1415 H 123.285 -5.20586 -0.793556 0
M  V30 1416 H 125.776 -3.7753 -0.167244 0
M  V30 1417 H 126.089 -7.72279 0.283781 0
M  V30 1418 H 124.434 -6.94556 0.248267 0
M  V30 1419 H 127.625 -4.67938 -0.122958 0
M  V30 1420 H 127.798 -6.47948 0.0824844 0
M  V30 1421 N 121.204 0.198386 -1.56346 0
M  V30 1422 C 122.615 0.763358 -1.70381 0
M  V30 1423 C 122.966 1.83995 -0.681203 0
M  V30 1424 O 122.091 2.15785 0.16305 0
M  V30 1425 C 122.686 1.39143 -3.08909 0
M  V30 1426 C 121.245 1.90352 -3.2472 0
M  V30 1427 C 120.392 0.772233 -2.6633 0
M  V30 1428 H 123.343 -0.0266377 -1.58678 0
M  V30 1429 H 123.364 2.26076 -3.06055 0
M  V30 1430 H 122.876 0.607638 -3.83314 0
M  V30 1431 H 120.977 2.71461 -2.55225 0
M  V30 1432 H 121.09 2.06757 -4.3219 0
M  V30 1433 H 119.454 1.18566 -2.2542 0
M  V30 1434 H 120.237 0.00073556 -3.433 0
M  V30 1435 N 122.682 1.50554 0.465978 0
M  V30 1436 C 124.098 1.38093 0.800154 0
M  V30 1437 C 124.298 0.440988 1.96615 0
M  V30 1438 O 123.354 -0.114499 2.5224 0
M  V30 1439 C 124.667 2.79565 1.10742 0
M  V30 1440 C 126.215 2.88516 1.21357 0
M  V30 1441 C 126.69 4.30833 1.55393 0
M  V30 1442 N 128.181 4.33807 1.62375 0
M  V30 1443 C 128.916 5.40927 1.90225 0
M  V30 1444 N 128.412 6.58247 2.16062 0
M  V30 1445 N 130.205 5.28376 1.9177 0
M  V30 1446 H 122.356 2.10237 -0.302366 0
M  V30 1447 H 124.619 0.945203 -0.0727746 0
M  V30 1448 H 124.325 3.50208 0.323661 0
M  V30 1449 H 124.199 3.17125 2.04234 0
M  V30 1450 H 126.586 2.1809 1.98799 0
M  V30 1451 H 126.667 2.54492 0.258321 0
M  V30 1452 H 126.311 5.01799 0.784889 0
M  V30 1453 H 126.241 4.62347 2.52076 0
M  V30 1454 H 128.732 3.49212 1.44427 0
M  V30 1455 H 129.045 7.3569 2.36601 0
M  V30 1456 H 127.39 6.61413 2.13444 0
M  V30 1457 H 130.581 4.35715 1.71085 0
M  V30 1458 H 130.754 6.11944 2.13139 0
M  V30 1459 N 124.16 -0.719506 1.40217 0
M  V30 1460 C 125.406 -1.48034 1.39491 0
M  V30 1461 C 125.761 -1.92399 -0.00443536 0
M  V30 1462 O 125.054 -1.64993 -0.974061 0
M  V30 1463 C 125.248 -2.72271 2.31524 0
M  V30 1464 C 125.077 -2.40055 3.80268 0
M  V30 1465 C 123.847 -2.31588 4.49105 0
M  V30 1466 C 126.045 -2.04581 4.71859 0
M  V30 1467 N 124.027 -1.92006 5.83101 0
M  V30 1468 C 125.398 -1.75568 5.94623 0
M  V30 1469 C 127.453 -1.91183 4.59732 0
M  V30 1470 C 126.156 -1.34505 7.06612 0
M  V30 1471 C 128.182 -1.51524 5.71659 0
M  V30 1472 C 127.544 -1.23406 6.93506 0
M  V30 1473 H 123.643 -0.539927 0.565688 0
M  V30 1474 H 126.227 -0.834764 1.75897 0
M  V30 1475 H 124.398 -3.34584 1.97251 0
M  V30 1476 H 126.13 -3.38584 2.21682 0
M  V30 1477 H 122.885 -2.49199 4.02737 0
M  V30 1478 H 123.309 -1.74764 6.54054 0
M  V30 1479 H 127.951 -2.11584 3.66049 0
M  V30 1480 H 125.669 -1.12846 8.00182 0
M  V30 1481 H 129.255 -1.41741 5.6427 0
M  V30 1482 H 128.135 -0.931788 7.78645 0
M  V30 1483 N 125.638 -1.25649 -0.95132 0
M  V30 1484 C 126.886 -1.10375 -1.69298 0
M  V30 1485 C 127.207 0.355339 -1.91735 0
M  V30 1486 O 126.477 1.25188 -1.50681 0
M  V30 1487 H 125.057 -0.405461 -0.627384 0
M  V30 1488 H 127.719 -1.57823 -1.14358 0
M  V30 1489 H 126.815 -1.61465 -2.67087 0
M  V30 1490 N 127.117 1.15442 -1.07289 0
M  V30 1491 C 128.08 2.18358 -0.696591 0
M  V30 1492 C 129.08 1.58637 0.262837 0
M  V30 1493 O 130.27 1.74145 0.0438809 0
M  V30 1494 C 127.402 3.4089 -0.0266151 0
M  V30 1495 H 128.595 2.53162 -1.60776 0
M  V30 1496 H 126.148 1.29893 -0.869342 0
M  V30 1497 H 126.883 3.11653 0.896822 0
M  V30 1498 H 126.668 3.85495 -0.716657 0
M  V30 1499 H 128.158 4.17009 0.222028 0
M  V30 1500 N 128.595 0.856903 1.32268 0
M  V30 1501 C 129.525 0.31858 2.31316 0
M  V30 1502 C 130.506 -0.583487 1.59779 0
M  V30 1503 O 131.691 -0.503259 1.87566 0
M  V30 1504 C 128.821 -0.491979 3.43798 0
M  V30 1505 C 127.775 0.315849 4.26833 0
M  V30 1506 C 127.101 -0.619586 5.31098 0
M  V30 1507 C 128.401 1.54282 4.98993 0
M  V30 1508 H 130.095 1.14621 2.76591 0
M  V30 1509 H 127.641 0.552613 1.32974 0
M  V30 1510 H 129.594 -0.879012 4.1213 0
M  V30 1511 H 128.318 -1.35299 2.97257 0
M  V30 1512 H 126.977 0.684664 3.6015 0
M  V30 1513 H 126.625 -1.47751 4.8081 0
M  V30 1514 H 126.325 -0.0830621 5.87541 0
M  V30 1515 H 127.849 -1.00375 6.02293 0
M  V30 1516 H 129.263 1.22796 5.59995 0
M  V30 1517 H 127.66 2.01745 5.65172 0
M  V30 1518 H 128.73 2.30285 4.26728 0
M  V30 1519 N 130.073 -1.45103 0.615059 0
M  V30 1520 C 131.321 -2.01784 0.112955 0
M  V30 1521 C 131.642 -1.48504 -1.26378 0
M  V30 1522 O 130.912 -0.682245 -1.83636 0
M  V30 1523 H 129.492 -0.745993 0.0387668 0
M  V30 1524 H 132.154 -1.77808 0.798141 0
M  V30 1525 H 131.25 -3.12025 0.0684069 0
M  V30 1526 N 131.551 -0.354651 -1.53558 0
M  V30 1527 C 132.828 0.294281 -1.93374 0
M  V30 1528 C 133.208 1.67313 -1.28723 0
M  V30 1529 O 132.556 2.24179 -0.442247 0
M  V30 1530 C 132.766 0.355445 -3.47185 0
M  V30 1531 C 134.114 0.601007 -4.20325 0
M  V30 1532 O 135.138 0.437106 -3.53508 0
M  V30 1533 O 133.997 0.919322 -5.38712 0
M  V30 1534 H 131.091 0.174033 -0.808481 0
M  V30 1535 H 133.637 -0.406638 -1.64756 0
M  V30 1536 H 132.409 -0.611729 -3.86489 0
M  V30 1537 H 132.032 1.1027 -3.82003 0
M  V30 1538 N 133.029 1.57378 -0.0835403 0
M  V30 1539 C 134.259 1.97975 0.590713 0
M  V30 1540 C 134.667 0.961083 1.62972 0
M  V30 1541 O 134.01 -0.0590879 1.83605 0
M  V30 1542 C 134.072 3.34915 1.3066 0
M  V30 1543 C 133.736 4.55069 0.419698 0
M  V30 1544 C 134.733 5.18868 -0.32749 0
M  V30 1545 C 132.418 5.0114 0.341137 0
M  V30 1546 C 134.412 6.27098 -1.14134 0
M  V30 1547 C 132.099 6.0924 -0.476374 0
M  V30 1548 C 133.097 6.72083 -1.21627 0
M  V30 1549 O 132.785 7.781 -2.02028 0
M  V30 1550 H 132.517 0.655818 0.163947 0
M  V30 1551 H 135.071 2.04807 -0.156021 0
M  V30 1552 H 133.301 3.24733 2.09966 0
M  V30 1553 H 134.99 3.60037 1.87424 0
M  V30 1554 H 135.756 4.84211 -0.276459 0
M  V30 1555 H 131.635 4.51996 0.90668 0
M  V30 1556 H 135.179 6.7608 -1.71935 0
M  V30 1557 H 131.076 6.43329 -0.528927 0
M  V30 1558 H 131.844 7.95034 -1.94586 0
M  V30 1559 N 134.507 -0.190092 1.56449 0
M  V30 1560 C 135.437 -1.23816 1.97969 0
M  V30 1561 C 136.418 -1.47201 0.852395 0
M  V30 1562 O 137.603 -1.58854 1.1171 0
M  V30 1563 C 134.733 -2.5813 2.3235 0
M  V30 1564 C 133.687 -2.49348 3.47864 0
M  V30 1565 C 133.013 -3.8798 3.67934 0
M  V30 1566 C 134.313 -2.01424 4.81898 0
M  V30 1567 H 136.007 -0.89311 2.85769 0
M  V30 1568 H 133.553 -0.428177 1.37487 0
M  V30 1569 H 135.506 -3.31637 2.59991 0
M  V30 1570 H 134.23 -2.94386 1.41438 0
M  V30 1571 H 132.889 -1.78297 3.20321 0
M  V30 1572 H 132.537 -4.21597 2.74344 0
M  V30 1573 H 132.237 -3.82978 4.45648 0
M  V30 1574 H 133.761 -4.63101 3.97957 0
M  V30 1575 H 135.175 -2.64693 5.08538 0
M  V30 1576 H 133.572 -2.07413 5.63116 0
M  V30 1577 H 134.642 -0.967677 4.75146 0
M  V30 1578 N 135.985 -1.50799 -0.457987 0
M  V30 1579 C 137.21 -1.66496 -1.23668 0
M  V30 1580 C 137.635 -0.353288 -1.84752 0
M  V30 1581 O 136.993 0.684346 -1.67888 0
M  V30 1582 C 137.041 -2.76763 -2.3116 0
M  V30 1583 O 136.145 -2.38928 -3.36136 0
M  V30 1584 H 135.486 -0.555828 -0.363252 0
M  V30 1585 H 138.016 -1.9725 -0.543474 0
M  V30 1586 H 138.026 -3.00232 -2.76269 0
M  V30 1587 H 136.701 -3.71954 -1.86073 0
M  V30 1588 H 135.278 -2.25953 -2.96647 0
M  V30 1589 N 137.463 0.71206 -1.40597 0
M  V30 1590 C 138.71 1.47197 -1.39065 0
M  V30 1591 C 139.038 1.94499 0.00583891 0
M  V30 1592 O 138.293 1.68752 0.99102 0
M  V30 1593 C 138.592 2.71039 -2.32965 0
M  V30 1594 C 138.258 2.42484 -3.80148 0
M  V30 1595 C 136.92 2.34406 -4.20247 0
M  V30 1596 C 139.272 2.18598 -4.73143 0
M  V30 1597 C 136.6 2.00516 -5.51371 0
M  V30 1598 C 138.952 1.8622 -6.0457 0
M  V30 1599 C 137.616 1.76626 -6.43708 0
M  V30 1600 H 136.886 0.538634 -0.508876 0
M  V30 1601 H 139.533 0.815325 -1.73276 0
M  V30 1602 H 137.838 3.41558 -1.91951 0
M  V30 1603 H 139.535 3.29138 -2.29061 0
M  V30 1604 H 136.125 2.49659 -3.4838 0
M  V30 1605 H 140.309 2.23793 -4.42979 0
M  V30 1606 H 135.565 1.91628 -5.80593 0
M  V30 1607 H 139.739 1.66752 -6.76141 0
M  V30 1608 H 137.366 1.50133 -7.45228 0
M  V30 1609 N 138.941 1.26152 0.944643 0
M  V30 1610 C 140.169 1.14259 1.72489 0
M  V30 1611 C 140.584 -0.302555 1.8636 0
M  V30 1612 O 139.941 -1.20741 1.36849 0
M  V30 1613 C 139.992 1.80266 3.13347 0
M  V30 1614 O 139.713 3.19133 3.00143 0
M  V30 1615 C 141.214 1.74283 4.07603 0
M  V30 1616 H 138.434 0.398051 0.540181 0
M  V30 1617 H 140.978 1.66706 1.18446 0
M  V30 1618 H 139.133 1.31766 3.64303 0
M  V30 1619 H 139.547 3.51744 3.89071 0
M  V30 1620 H 141.021 2.25111 5.04013 0
M  V30 1621 H 141.498 0.708631 4.33446 0
M  V30 1622 H 142.104 2.22319 3.62567 0
M  V30 1623 N 140.419 -1.14872 1.07899 0
M  V30 1624 C 141.668 -1.85135 0.800499 0
M  V30 1625 C 141.981 -1.83547 -0.676014 0
M  V30 1626 O 143.187 -2.49548 -1.06948 0
M  V30 1627 C 141.643 -3.3231 1.38197 0
M  V30 1628 C 141.251 -3.42329 2.8899 0
M  V30 1629 C 142.995 -4.0772 1.18174 0
M  V30 1630 C 140.902 -4.83684 3.403 0
M  V30 1631 H 139.832 -0.693563 0.29578 0
M  V30 1632 H 142.483 -1.29532 1.29976 0
M  V30 1633 H 140.865 -3.87618 0.810431 0
M  V30 1634 H 142.039 -2.97097 3.52236 0
M  V30 1635 H 140.354 -2.80369 3.07867 0
M  V30 1636 H 142.951 -5.12049 1.5398 0
M  V30 1637 H 143.294 -4.16124 0.12117 0
M  V30 1638 H 143.827 -3.58696 1.71994 0
M  V30 1639 H 140.566 -4.80465 4.45907 0
M  V30 1640 H 140.086 -5.29474 2.81811 0
M  V30 1641 H 141.765 -5.52558 3.36584 0
M  V30 1642 N 141.898 -0.863906 -1.31812 0
M  V30 1643 C 143.309 -0.52522 -1.7916 0
M  V30 1644 C 143.66 0.957518 -1.71248 0
M  V30 1645 O 142.785 1.74734 -1.27659 0
M  V30 1646 C 143.38 -0.9466 -3.25307 0
M  V30 1647 C 141.939 -0.659668 -3.70574 0
M  V30 1648 C 141.086 -1.14126 -2.52726 0
M  V30 1649 H 144.037 -1.05022 -1.1898 0
M  V30 1650 H 144.058 -0.266766 -3.79564 0
M  V30 1651 H 143.57 -2.02579 -3.31034 0
M  V30 1652 H 141.671 0.408416 -3.70355 0
M  V30 1653 H 141.784 -1.23245 -4.62977 0
M  V30 1654 H 140.148 -0.561216 -2.4844 0
M  V30 1655 H 140.931 -2.22775 -2.61201 0
M  V30 1656 N 143.376 1.44774 -0.622745 0
M  V30 1657 C 144.306 2.33382 0.0741861 0
M  V30 1658 C 145.287 1.47719 0.843387 0
M  V30 1659 O 146.472 1.76458 0.810934 0
M  V30 1660 C 143.602 3.30663 1.06204 0
M  V30 1661 C 142.556 4.26079 0.405037 0
M  V30 1662 C 141.882 5.13165 1.5022 0
M  V30 1663 C 143.182 5.1781 -0.683414 0
M  V30 1664 H 144.876 2.91905 -0.665713 0
M  V30 1665 H 142.422 1.40363 -0.321587 0
M  V30 1666 H 144.375 3.9153 1.55827 0
M  V30 1667 H 143.099 2.70331 1.83272 0
M  V30 1668 H 141.758 3.66532 -0.0704683 0
M  V30 1669 H 141.406 4.49191 2.26355 0
M  V30 1670 H 141.106 5.77812 1.06803 0
M  V30 1671 H 142.63 5.76902 2.00041 0
M  V30 1672 H 144.044 5.72661 -0.270631 0
M  V30 1673 H 142.441 5.91015 -1.04023 0
M  V30 1674 H 143.511 4.59326 -1.55395 0
M  V30 1675 N 144.854 0.36279 1.53368 0
M  V30 1676 C 146.102 -0.227326 2.00817 0
M  V30 1677 C 146.423 -1.49511 1.25186 0
M  V30 1678 O 145.693 -1.92482 0.364348 0
M  V30 1679 H 144.273 -0.0869923 0.741917 0
M  V30 1680 H 146.935 0.488381 1.88682 0
M  V30 1681 H 146.031 -0.456273 3.08747 0
M  V30 1682 N 146.332 -1.57332 0.0918853 0
M  V30 1683 C 147.56 -1.98574 -0.581048 0
M  V30 1684 C 147.975 -0.970903 -1.61923 0
M  V30 1685 O 147.332 0.0399054 -1.82456 0
M  V30 1686 C 147.383 -3.39872 -1.23164 0
M  V30 1687 O 147.104 -4.37469 -0.234989 0
M  V30 1688 C 148.605 -3.96099 -1.99049 0
M  V30 1689 H 145.825 -0.65261 -0.156018 0
M  V30 1690 H 148.369 -2.0379 0.170225 0
M  V30 1691 H 146.524 -3.35679 -1.93386 0
M  V30 1692 H 146.938 -5.19751 -0.70418 0
M  V30 1693 H 148.412 -4.97127 -2.39934 0
M  V30 1694 H 148.889 -3.3374 -2.85507 0
M  V30 1695 H 149.495 -4.03755 -1.3365 0
M  V30 1696 N 147.81 0.181792 -1.56548 0
M  V30 1697 C 149.221 0.745244 -1.71181 0
M  V30 1698 C 149.572 1.83262 -0.70068 0
M  V30 1699 O 148.697 2.15946 0.140154 0
M  V30 1700 C 149.292 1.35859 -3.10367 0
M  V30 1701 C 147.851 1.86898 -3.2672 0
M  V30 1702 C 146.998 0.743942 -2.67134 0
M  V30 1703 H 149.949 -0.0434661 -1.5864 0
M  V30 1704 H 149.97 2.22817 -3.08436 0
M  V30 1705 H 149.482 0.566948 -3.83937 0
M  V30 1706 H 147.583 2.68738 -2.5809 0
M  V30 1707 H 147.696 2.02162 -4.34359 0
M  V30 1708 H 146.06 1.16169 -2.26665 0
M  V30 1709 H 146.843 -0.035676 -3.43281 0
M  V30 1710 O 149.327 1.58157 0.326881 0
M  V30 1711 H 150.018 1.6734 0.975558 0
M  V30 END ATOM
M  V30 BEGIN BOND
M  V30 END BOND
M  V30 END CTAB
M  END
$$$$
