drugbank_target|O15427 Monocarboxylate transporter 4 (DB00119)
 OpenBabel12092119323D

  0  0  0     0  0            999 V3000
M  V30 BEGIN CTAB
M  V30 COUNTS 7053 7142 0 0 0
M  V30 BEGIN ATOM
M  V30 1 H -0.908 1.98254 -0.117106 0
M  V30 2 N 0 1.576 0 0
M  V30 3 C 0.933 2.03868 1.02534 0
M  V30 4 C 1.911 0.928543 1.3348 0
M  V30 5 O 3.095 1.19667 1.45644 0
M  V30 6 C 0.222 2.43627 2.35294 0
M  V30 7 C -0.732 3.65373 2.2001 0
M  V30 8 S 0.101 5.13292 1.52614 0
M  V30 9 C 1.257 5.56322 2.86805 0
M  V30 10 H 1.49 2.90518 0.631377 0
M  V30 11 H -0.977 1.52953 0.210867 0
M  V30 12 H 0.981 2.67203 3.11629 0
M  V30 13 H -0.358 1.57376 2.7183 0
M  V30 14 H -1.165 3.90944 3.18086 0
M  V30 15 H -1.563 3.418 1.51819 0
M  V30 16 H 0.729 5.58782 3.83104 0
M  V30 17 H 1.672 6.56266 2.65933 0
M  V30 18 H 2.08 4.83886 2.90714 0
M  V30 19 N 1.4781 -0.272755 1.55222 0
M  V30 20 C 2.7261 -1.00234 1.75492 0
M  V30 21 C 3.0471 -1.8681 0.5592 0
M  V30 22 O 2.3171 -1.91215 -0.425882 0
M  V30 23 H 0.8971 -0.373076 0.647166 0
M  V30 24 H 3.5591 -0.296926 1.92625 0
M  V30 25 H 2.6551 -1.63913 2.65592 0
M  V30 26 N 2.9562 -1.48159 -0.537278 0
M  V30 27 C 4.2042 -1.55497 -1.29094 0
M  V30 28 C 4.5252 -0.227454 -1.93669 0
M  V30 29 O 3.7952 0.750386 -1.80959 0
M  V30 30 H 2.3752 -0.572832 -0.47945 0
M  V30 31 H 5.0372 -1.84579 -0.625818 0
M  V30 32 H 4.1332 -2.33216 -2.07405 0
M  V30 33 N 4.4343 0.785586 -1.36625 0
M  V30 34 C 5.3973 1.87999 -1.31107 0
M  V30 35 C 6.3973 1.59316 -0.217959 0
M  V30 36 O 7.5873 1.67656 -0.472977 0
M  V30 37 C 4.7193 3.24861 -1.03334 0
M  V30 38 H 5.9123 1.94307 -2.2844 0
M  V30 39 H 3.4653 0.983813 -1.21453 0
M  V30 40 H 4.2003 3.24235 -0.0647432 0
M  V30 41 H 3.9853 3.4707 -1.82441 0
M  V30 42 H 5.4753 4.04929 -1.02088 0
M  V30 43 N 5.9124 1.20967 1.01018 0
M  V30 44 C 7.1584 1.02526 1.74975 0
M  V30 45 C 7.4914 -0.4408 1.89131 0
M  V30 46 O 6.7664 -1.32718 1.42184 0
M  V30 47 C 7.0494 1.71699 3.1653 0
M  V30 48 C 6.9024 3.25791 3.10129 0
M  V30 49 C 8.2214 1.45531 4.15342 0
M  V30 50 H 5.3404 0.373863 0.635134 0
M  V30 51 H 7.9824 1.49071 1.17805 0
M  V30 52 H 6.1324 1.32128 3.65341 0
M  V30 53 H 7.8044 3.74697 2.69072 0
M  V30 54 H 6.0474 3.56363 2.47362 0
M  V30 55 H 6.7184 3.69353 4.10222 0
M  V30 56 H 9.1944 1.79872 3.75213 0
M  V30 57 H 8.0704 1.96453 5.1254 0
M  V30 58 H 8.3314 0.384237 4.40427 0
M  V30 59 N 7.3905 -1.2043 1.01659 0
M  V30 60 C 8.6365 -1.90079 0.706963 0
M  V30 61 C 8.9695 -1.78648 -0.761474 0
M  V30 62 O 8.2445 -1.17069 -1.55323 0
M  V30 63 C 8.5275 -3.41469 1.14327 0
M  V30 64 C 8.3805 -3.61833 2.67201 0
M  V30 65 C 9.6995 -4.34261 0.714529 0
M  V30 66 H 6.8185 -0.690254 0.2583 0
M  V30 67 H 9.4605 -1.41826 1.26433 0
M  V30 68 H 7.6105 -3.82696 0.669056 0
M  V30 69 H 9.2825 -3.2986 3.22475 0
M  V30 70 H 7.5255 -3.05304 3.08175 0
M  V30 71 H 8.1965 -4.67955 2.92783 0
M  V30 72 H 10.6725 -4.00682 1.12221 0
M  V30 73 H 9.5485 -5.38806 1.04784 0
M  V30 74 H 9.8095 -4.40431 -0.383799 0
M  V30 75 N 8.8686 -0.792821 -1.36206 0
M  V30 76 C 10.1456 -0.290627 -1.93429 0
M  V30 77 C 10.5256 1.21773 -1.72437 0
M  V30 78 O 9.8736 2.0108 -1.08531 0
M  V30 79 C 10.0836 -0.686973 -3.42172 0
M  V30 80 C 11.4316 -0.668643 -4.19302 0
M  V30 81 O 12.4556 -0.627658 -3.50626 0
M  V30 82 O 11.3146 -0.714597 -5.41808 0
M  V30 83 H 8.4086 -0.0727927 -0.82379 0
M  V30 84 H 10.9546 -0.875593 -1.45367 0
M  V30 85 H 9.7266 -1.72711 -3.51122 0
M  V30 86 H 9.3496 -0.0760733 -3.97527 0
M  V30 87 N 10.3467 1.47872 -0.545128 0
M  V30 88 C 11.2567 2.33633 0.212746 0
M  V30 89 C 12.2727 1.4744 0.923983 0
M  V30 90 O 13.4487 1.80393 0.895572 0
M  V30 91 C 10.5137 3.23884 1.23693 0
M  V30 92 C 9.5747 4.25961 0.534417 0
M  V30 93 C 8.8077 5.11899 1.5098 0
M  V30 94 O 9.0307 5.00077 2.7437 0
M  V30 95 O 7.9647 5.92831 1.0409 0
M  V30 96 H 11.7907 2.99714 -0.490416 0
M  V30 97 H 9.3757 1.46235 -0.305871 0
M  V30 98 H 11.2577 3.79666 1.82843 0
M  V30 99 H 9.9327 2.60446 1.92222 0
M  V30 100 H 8.8397 3.73972 -0.0979679 0
M  V30 101 H 10.1727 4.92079 -0.109213 0
M  V30 102 N 11.8248 0.280983 1.55075 0
M  V30 103 C 13.0728 -0.333455 1.9933 0
M  V30 104 C 13.3938 -1.55937 1.17085 0
M  V30 105 O 12.6638 -1.94143 0.261805 0
M  V30 106 H 11.2438 -0.126197 0.736263 0
M  V30 107 H 13.9058 0.387678 1.91005 0
M  V30 108 H 13.0018 -0.619292 3.05894 0
M  V30 109 N 13.3029 -1.57598 0.00835791 0
M  V30 110 C 14.7139 -1.7892 -0.53333 0
M  V30 111 C 15.0649 -0.916609 -1.73473 0
M  V30 112 O 14.1899 -0.121336 -2.1606 0
M  V30 113 C 14.7849 -3.24488 -0.974313 0
M  V30 114 C 13.3439 -3.46878 -1.46125 0
M  V30 115 C 12.4909 -2.74157 -0.416302 0
M  V30 116 H 15.4419 -1.56958 0.234495 0
M  V30 117 H 15.4629 -3.3306 -1.83988 0
M  V30 118 H 14.9749 -3.87972 -0.099718 0
M  V30 119 H 13.0759 -2.8862 -2.35646 0
M  V30 120 H 13.1889 -4.55572 -1.48295 0
M  V30 121 H 11.5529 -2.39022 -0.87981 0
M  V30 122 H 12.3359 -3.40345 0.44947 0
M  V30 123 N 14.781 0.264519 -1.55364 0
M  V30 124 C 16.009 1.013 -1.80405 0
M  V30 125 C 16.424 1.79618 -0.581622 0
M  V30 126 O 15.781 1.76879 0.449468 0
M  V30 127 C 15.832 1.96487 -3.03439 0
M  V30 128 O 15.553 1.21341 -4.20961 0
M  V30 129 C 17.054 2.83079 -3.41147 0
M  V30 130 H 14.274 0.298875 -0.600762 0
M  V30 131 H 16.818 0.292736 -2.02394 0
M  V30 132 H 14.973 2.63965 -2.83551 0
M  V30 133 H 15.387 1.85573 -4.90574 0
M  V30 134 H 16.861 3.4565 -4.30384 0
M  V30 135 H 17.338 3.53286 -2.60932 0
M  V30 136 H 17.944 2.2108 -3.63323 0
M  V30 137 N 16.2591 1.48442 0.529413 0
M  V30 138 C 17.5071 1.56179 1.28267 0
M  V30 139 C 17.8281 0.237721 1.93546 0
M  V30 140 O 17.0981 -0.740779 1.81354 0
M  V30 141 H 15.6781 0.575367 0.476405 0
M  V30 142 H 18.3401 1.84909 0.61602 0
M  V30 143 H 17.4361 2.34312 2.06165 0
M  V30 144 N 17.7372 -0.778329 1.37039 0
M  V30 145 C 18.9832 -1.53892 1.32079 0
M  V30 146 C 19.3162 -1.9396 -0.0965386 0
M  V30 147 O 18.5912 -1.63568 -1.05242 0
M  V30 148 C 18.8742 -2.80847 2.25382 0
M  V30 149 C 18.7272 -2.47076 3.75864 0
M  V30 150 C 20.0462 -3.82741 2.1725 0
M  V30 151 H 17.1652 -0.558303 0.48111 0
M  V30 152 H 19.8072 -0.893397 1.67685 0
M  V30 153 H 17.9572 -3.35931 1.95148 0
M  V30 154 H 19.6292 -1.97957 4.16666 0
M  V30 155 H 17.8722 -1.79863 3.94755 0
M  V30 156 H 18.5432 -3.37798 4.36574 0
M  V30 157 H 21.0192 -3.37133 2.43887 0
M  V30 158 H 19.8952 -4.69303 2.84686 0
M  V30 159 H 20.1562 -4.2652 1.16331 0
M  V30 160 N 19.2153 -1.21501 -1.00376 0
M  V30 161 C 20.1623 -0.975387 -2.09177 0
M  V30 162 C 21.1323 0.0990615 -1.65804 0
M  V30 163 O 22.3173 -0.0483147 -1.90739 0
M  V30 164 C 19.4573 -0.547507 -3.40729 0
M  V30 165 C 18.5703 -1.69153 -3.97506 0
M  V30 166 C 17.7053 -1.2127 -5.17172 0
M  V30 167 C 16.7443 -2.32897 -5.66061 0
M  V30 168 N 15.8813 -1.86138 -6.76976 0
M  V30 169 H 20.7213 -1.9068 -2.29009 0
M  V30 170 H 18.2583 -0.950257 -1.12288 0
M  V30 171 H 20.2163 -0.280667 -4.16255 0
M  V30 172 H 18.8463 0.346904 -3.20931 0
M  V30 173 H 17.8983 -2.07298 -3.18954 0
M  V30 174 H 19.2103 -2.5316 -4.29781 0
M  V30 175 H 18.3643 -0.902591 -5.99948 0
M  V30 176 H 17.1033 -0.342692 -4.86495 0
M  V30 177 H 16.1083 -2.64709 -4.81881 0
M  V30 178 H 17.3333 -3.20396 -5.98768 0
M  V30 179 H 15.2793 -1.01484 -6.48103 0
M  V30 180 H 15.1963 -2.63717 -7.08512 0
M  V30 181 H 16.4643 -1.58165 -7.63285 0
M  V30 182 N 20.6934 1.19889 -1.02296 0
M  V30 183 C 21.6564 2.21116 -0.603351 0
M  V30 184 C 22.6564 1.5738 0.329884 0
M  V30 185 O 23.8464 1.73802 0.117702 0
M  V30 186 C 20.9784 3.40696 0.117992 0
M  V30 187 H 22.1714 2.59754 -1.49893 0
M  V30 188 H 19.7244 1.33463 -0.813468 0
M  V30 189 H 20.4594 3.07569 1.0282 0
M  V30 190 H 20.2444 3.88188 -0.552511 0
M  V30 191 H 21.7344 4.15692 0.398696 0
M  V30 192 N 22.1715 0.800033 1.35784 0
M  V30 193 C 23.5825 0.439142 1.81462 0
M  V30 194 C 23.9335 -1.03813 1.66485 0
M  V30 195 O 23.0585 -1.80626 1.19177 0
M  V30 196 C 23.6535 0.790314 3.29453 0
M  V30 197 C 22.2125 0.482111 3.733 0
M  V30 198 C 21.3595 1.01938 2.57883 0
M  V30 199 H 24.3105 0.992254 1.23855 0
M  V30 200 H 24.3315 0.0853677 3.80404 0
M  V30 201 H 23.8435 1.86554 3.40322 0
M  V30 202 H 21.9445 -0.584652 3.67984 0
M  V30 203 H 22.0575 1.01015 4.6833 0
M  V30 204 H 20.4215 0.442043 2.50835 0
M  V30 205 H 21.2045 2.10059 2.71533 0
M  V30 206 N 23.6496 -1.47581 0.552962 0
M  V30 207 C 24.9266 -1.95563 -0.0381515 0
M  V30 208 C 25.3066 -1.49552 -1.48988 0
M  V30 209 O 24.6546 -0.732414 -2.16444 0
M  V30 210 C 24.8646 -3.48848 0.102919 0
M  V30 211 C 26.2126 -4.24577 -0.0446082 0
M  V30 212 O 27.2366 -3.56187 0.0302548 0
M  V30 213 O 26.0956 -5.46116 -0.204923 0
M  V30 214 H 23.1896 -0.824321 -0.0665067 0
M  V30 215 H 25.7356 -1.58001 0.619186 0
M  V30 216 H 24.5076 -3.75129 1.11328 0
M  V30 217 H 24.1306 -3.93165 -0.592224 0
M  V30 218 N 25.1277 -0.289203 -1.54924 0
M  V30 219 C 26.3757 0.322879 -1.99504 0
M  V30 220 C 26.6967 1.55313 -1.1791 0
M  V30 221 O 25.9667 1.94001 -0.272097 0
M  V30 222 H 24.5467 0.122291 -0.736922 0
M  V30 223 H 27.2087 -0.397802 -1.90797 0
M  V30 224 H 26.3047 0.603061 -3.06218 0
M  V30 225 N 26.6058 1.57591 -0.0167156 0
M  V30 226 C 27.8538 1.90906 0.663285 0
M  V30 227 C 28.1748 0.892509 1.73376 0
M  V30 228 O 27.4448 -0.0677623 1.95783 0
M  V30 229 H 26.0248 0.704637 0.247983 0
M  V30 230 H 28.6868 1.94803 -0.0615909 0
M  V30 231 H 27.7828 2.9116 1.12393 0
M  V30 232 N 28.0839 -0.256276 1.55502 0
M  V30 233 C 29.3299 -0.982884 1.78076 0
M  V30 234 C 29.6849 -1.83319 0.584109 0
M  V30 235 O 28.9779 -1.86875 -0.422877 0
M  V30 236 C 29.1719 -1.88432 3.03691 0
M  V30 237 C 29.0009 -1.12276 4.35459 0
M  V30 238 C 27.7709 -0.831647 4.98409 0
M  V30 239 C 29.9689 -0.504933 5.11815 0
M  V30 240 N 27.9509 -0.0450423 6.13883 0
M  V30 241 C 29.3219 0.146696 6.19826 0
M  V30 242 C 31.3769 -0.414455 4.96172 0
M  V30 243 C 30.0799 0.880103 7.13895 0
M  V30 244 C 32.1059 0.305398 5.90611 0
M  V30 245 C 31.4679 0.945701 6.98023 0
M  V30 246 H 27.5669 -0.341084 0.703694 0
M  V30 247 H 30.1509 -0.256909 1.92998 0
M  V30 248 H 28.3219 -2.58241 2.90114 0
M  V30 249 H 30.0539 -2.54579 3.14598 0
M  V30 250 H 26.8089 -1.14111 4.59647 0
M  V30 251 H 27.2329 0.336079 6.76165 0
M  V30 252 H 31.8749 -0.895163 4.13215 0
M  V30 253 H 29.5929 1.37244 7.9636 0
M  V30 254 H 33.1789 0.375946 5.80584 0
M  V30 255 H 32.0589 1.49383 7.6984 0
M  V30 256 N 29.562 -1.4872 -0.521534 0
M  V30 257 C 30.81 -1.56857 -1.27437 0
M  V30 258 C 31.131 -0.247982 -1.93417 0
M  V30 259 O 30.401 0.731151 -1.81744 0
M  V30 260 H 28.981 -0.577885 -0.473347 0
M  V30 261 H 31.643 -1.85233 -0.606205 0
M  V30 262 H 30.739 -2.35402 -2.0492 0
M  V30 263 N 31.0401 0.771051 -1.3745 0
M  V30 264 C 32.2861 1.53109 -1.339 0
M  V30 265 C 32.6411 1.9225 0.0758401 0
M  V30 266 O 31.9341 1.61264 1.03463 0
M  V30 267 C 32.1281 2.80676 -2.2126 0
M  V30 268 C 31.9571 2.54003 -3.71096 0
M  V30 269 C 30.7271 2.48097 -4.402 0
M  V30 270 C 32.9251 2.21953 -4.63941 0
M  V30 271 N 30.9071 2.13515 -5.75573 0
M  V30 272 C 32.2781 1.97516 -5.87697 0
M  V30 273 C 34.3331 2.08114 -4.5232 0
M  V30 274 C 33.0361 1.60638 -7.01133 0
M  V30 275 C 35.0621 1.72636 -5.65642 0
M  V30 276 C 34.4241 1.4906 -6.88448 0
M  V30 277 H 30.5231 0.56055 -0.54526 0
M  V30 278 H 33.1071 0.899472 -1.72678 0
M  V30 279 H 31.2781 3.41674 -1.84698 0
M  V30 280 H 33.0101 3.46578 -2.08963 0
M  V30 281 H 29.7651 2.63974 -3.93211 0
M  V30 282 H 30.1891 1.98919 -6.47117 0
M  V30 283 H 34.8311 2.25024 -3.57944 0
M  V30 284 H 32.5491 1.42467 -7.95443 0
M  V30 285 H 36.1351 1.62586 -5.58621 0
M  V30 286 H 35.0151 1.22014 -7.7465 0
M  V30 287 N 32.5182 1.22032 0.997298 0
M  V30 288 C 33.4812 0.987909 2.06816 0
M  V30 289 C 34.4812 -0.0440084 1.6074 0
M  V30 290 O 35.6712 0.194053 1.73116 0
M  V30 291 C 32.8032 0.49132 3.37341 0
M  V30 292 H 33.9962 1.93803 2.28868 0
M  V30 293 H 31.5492 1.03838 1.16822 0
M  V30 294 H 32.2842 -0.463364 3.20973 0
M  V30 295 H 32.0692 1.23575 3.72118 0
M  V30 296 H 33.5592 0.348824 4.16141 0
M  V30 297 N 33.9963 -1.19345 1.0293 0
M  V30 298 C 35.2423 -1.89318 0.727083 0
M  V30 299 C 35.5753 -1.79446 -0.742483 0
M  V30 300 O 34.8503 -1.1871 -1.54072 0
M  V30 301 C 35.1333 -3.40238 1.17942 0
M  V30 302 C 34.9863 -3.58979 2.71024 0
M  V30 303 C 36.3053 -4.33479 0.760548 0
M  V30 304 H 33.4243 -0.687475 0.265606 0
M  V30 305 H 36.0663 -1.40477 1.2793 0
M  V30 306 H 34.2163 -3.81964 0.709608 0
M  V30 307 H 35.8883 -3.26421 3.25955 0
M  V30 308 H 34.1313 -3.02018 3.11396 0
M  V30 309 H 34.8023 -4.64823 2.9773 0
M  V30 310 H 37.2783 -3.99469 1.16464 0
M  V30 311 H 36.1543 -5.37664 1.10493 0
M  V30 312 H 36.4153 -4.40813 -0.337063 0
M  V30 313 N 35.4744 -0.807222 -1.35358 0
M  V30 314 C 36.4044 -0.232509 -2.3234 0
M  V30 315 C 37.3854 0.642386 -1.57504 0
M  V30 316 O 38.5704 0.572526 -1.85569 0
M  V30 317 C 35.7004 0.619238 -3.41735 0
M  V30 318 C 34.6544 -0.157215 -4.27711 0
M  V30 319 C 33.9804 0.816273 -5.28433 0
M  V30 320 C 35.2804 -1.35656 -5.04376 0
M  V30 321 H 36.9744 -1.04276 -2.80654 0
M  V30 322 H 34.5204 -0.50288 -1.34934 0
M  V30 323 H 36.4734 1.03137 -4.08584 0
M  V30 324 H 35.1974 1.46239 -2.92031 0
M  V30 325 H 33.8564 -0.550525 -3.62443 0
M  V30 326 H 33.5044 1.65494 -4.74996 0
M  V30 327 H 33.2044 0.301067 -5.86828 0
M  V30 328 H 34.7284 1.22659 -5.98153 0
M  V30 329 H 36.1424 -1.01927 -5.64166 0
M  V30 330 H 34.5394 -1.8063 -5.7227 0
M  V30 331 H 35.6094 -2.14288 -4.34981 0
M  V30 332 N 36.9525 1.47285 -0.560781 0
M  V30 333 C 38.1995 2.02464 -0.038062 0
M  V30 334 C 38.5275 1.43474 1.31322 0
M  V30 335 O 37.7825 0.581311 1.86867 0
M  V30 336 C 38.0815 3.57258 0.100784 0
M  V30 337 C 37.7475 4.35184 -1.18007 0
M  V30 338 C 36.4095 4.56194 -1.53103 0
M  V30 339 C 38.7615 4.80098 -2.02867 0
M  V30 340 C 36.0895 5.19367 -2.729 0
M  V30 341 C 38.4415 5.44593 -3.21871 0
M  V30 342 C 37.1055 5.63835 -3.57276 0
M  V30 343 H 36.3755 0.740869 -0.0139279 0
M  V30 344 H 39.0225 1.76916 -0.733012 0
M  V30 345 H 37.3275 3.81819 0.878724 0
M  V30 346 H 39.0245 3.97606 0.520639 0
M  V30 347 H 35.6145 4.19113 -0.8968 0
M  V30 348 H 39.7985 4.63642 -1.7706 0
M  V30 349 H 35.0545 5.32459 -3.00496 0
M  V30 350 H 39.2285 5.78358 -3.87911 0
M  V30 351 H 36.8555 6.12557 -4.50197 0
M  V30 352 N 38.4306 0.297415 1.54768 0
M  V30 353 C 39.6786 -0.312295 1.99673 0
M  V30 354 C 39.9996 -1.54686 1.18732 0
M  V30 355 O 39.2696 -1.93854 0.282382 0
M  V30 356 H 37.8496 -0.118381 0.73756 0
M  V30 357 H 40.5116 0.407915 1.90583 0
M  V30 358 H 39.6076 -0.586813 3.06534 0
M  V30 359 N 39.9087 -1.5758 0.0250728 0
M  V30 360 C 41.1487 -1.93497 -0.65865 0
M  V30 361 C 41.5127 -0.901409 -1.69525 0
M  V30 362 O 42.7137 -1.14664 -2.43116 0
M  V30 363 C 40.9847 -3.34352 -1.26267 0
M  V30 364 S 42.5437 -3.92191 -1.96803 0
M  V30 365 H 39.3617 -0.67709 -0.216958 0
M  V30 366 H 41.9637 -1.95303 0.0877692 0
M  V30 367 H 40.6677 -4.07395 -0.495741 0
M  V30 368 H 40.1987 -3.3598 -2.04648 0
M  V30 369 H 42.2137 -3.75298 -3.24601 0
M  V30 370 N 41.3868 0.248026 -1.55636 0
M  V30 371 C 42.6338 0.976224 -1.77415 0
M  V30 372 C 42.9618 1.85361 -0.589193 0
M  V30 373 O 42.2168 1.90973 0.427529 0
M  V30 374 C 42.5158 1.86819 -3.04686 0
M  V30 375 C 42.1818 1.14625 -4.36087 0
M  V30 376 C 40.8438 0.946723 -4.71795 0
M  V30 377 C 43.1958 0.634463 -5.17324 0
M  V30 378 C 40.5238 0.223091 -5.86276 0
M  V30 379 C 42.8758 -0.0756959 -6.32555 0
M  V30 380 C 41.5398 -0.286711 -6.66884 0
M  V30 381 H 40.8098 0.357226 -0.649208 0
M  V30 382 H 43.4568 0.246415 -1.89908 0
M  V30 383 H 41.7618 2.66502 -2.872 0
M  V30 384 H 43.4588 2.43329 -3.18735 0
M  V30 385 H 40.0488 1.3117 -4.08035 0
M  V30 386 H 44.2328 0.77616 -4.90193 0
M  V30 387 H 39.4888 0.0491185 -6.1138 0
M  V30 388 H 43.6628 -0.479899 -6.94745 0
M  V30 389 H 41.2898 -0.849389 -7.5544 0
M  V30 390 N 42.8649 1.48995 0.513639 0
M  V30 391 C 44.1109 1.58076 1.27042 0
M  V30 392 C 44.4439 0.261026 1.92438 0
M  V30 393 O 43.7189 -0.734393 1.80103 0
M  V30 394 C 44.0019 2.73091 2.34719 0
M  V30 395 C 43.8549 4.14821 1.73907 0
M  V30 396 C 45.1739 2.83796 3.36375 0
M  V30 397 H 42.2929 0.575391 0.460536 0
M  V30 398 H 44.9349 1.81232 0.570516 0
M  V30 399 H 43.0849 2.53479 2.94416 0
M  V30 400 H 44.7569 4.45917 1.18135 0
M  V30 401 H 42.9999 4.21058 1.0437 0
M  V30 402 H 43.6709 4.91147 2.51949 0
M  V30 403 H 46.1469 3.01611 2.86653 0
M  V30 404 H 45.0229 3.65971 4.09093 0
M  V30 405 H 45.2839 1.92624 3.9793 0
M  V30 406 N 44.343 -0.763751 1.37857 0
M  V30 407 C 45.592 -1.51789 1.32827 0
M  V30 408 C 45.905 -1.95426 -0.0823719 0
M  V30 409 O 47.111 -2.70298 -0.255172 0
M  V30 410 C 45.567 -2.74133 2.33193 0
M  V30 411 C 45.175 -2.37562 3.79827 0
M  V30 412 C 46.919 -3.52054 2.37188 0
M  V30 413 C 44.826 -3.56456 4.71904 0
M  V30 414 H 43.756 -0.569896 0.493695 0
M  V30 415 H 46.407 -0.835822 1.63359 0
M  V30 416 H 44.789 -3.4427 1.9569 0
M  V30 417 H 45.963 -1.75157 4.26212 0
M  V30 418 H 44.278 -1.72798 3.78853 0
M  V30 419 H 46.875 -4.40437 3.03182 0
M  V30 420 H 47.218 -3.92486 1.38782 0
M  V30 421 H 47.751 -2.88921 2.7344 0
M  V30 422 H 44.49 -3.21099 5.71468 0
M  V30 423 H 44.01 -4.17938 4.30218 0
M  V30 424 H 45.689 -4.23168 4.89426 0
M  V30 425 N 45.8211 -1.22559 -0.990812 0
M  V30 426 C 47.0491 -1.07779 -1.76611 0
M  V30 427 C 47.4641 0.371513 -1.85109 0
M  V30 428 O 46.8211 1.25737 -1.32274 0
M  V30 429 C 46.8721 -1.68512 -3.19822 0
M  V30 430 O 46.5931 -3.07774 -3.1178 0
M  V30 431 C 48.0941 -1.59035 -4.13791 0
M  V30 432 H 45.3141 -0.377729 -0.554583 0
M  V30 433 H 47.8581 -1.62195 -1.24551 0
M  V30 434 H 46.0131 -1.18154 -3.68942 0
M  V30 435 H 46.4271 -3.37062 -4.01858 0
M  V30 436 H 47.9011 -2.0625 -5.1202 0
M  V30 437 H 48.3781 -0.547273 -4.35777 0
M  V30 438 H 48.9841 -2.08709 -3.70568 0
M  V30 439 N 47.2992 1.18797 -1.03562 0
M  V30 440 C 48.5472 1.88278 -0.734569 0
M  V30 441 C 48.8682 1.8043 0.739586 0
M  V30 442 O 48.1382 1.21925 1.53333 0
M  V30 443 H 46.7182 0.696991 -0.268725 0
M  V30 444 H 49.3802 1.44192 -1.31129 0
M  V30 445 H 48.4762 2.94443 -1.03489 0
M  V30 446 N 48.7773 0.814389 1.34928 0
M  V30 447 C 50.0243 0.398423 1.98542 0
M  V30 448 C 50.3523 -1.03638 1.64589 0
M  V30 449 O 49.6073 -1.73509 0.90516 0
M  V30 450 C 49.9063 0.537781 3.53331 0
M  V30 451 C 49.5723 1.93704 4.07172 0
M  V30 452 C 48.2343 2.31984 4.21589 0
M  V30 453 C 50.5863 2.85213 4.36237 0
M  V30 454 C 47.9143 3.61125 4.62391 0
M  V30 455 C 50.2663 4.13809 4.78482 0
M  V30 456 C 48.9303 4.52077 4.91104 0
M  V30 457 H 48.2003 0.145793 0.726516 0
M  V30 458 H 50.8473 1.03669 1.61012 0
M  V30 459 H 49.1523 -0.183906 3.91368 0
M  V30 460 H 50.8493 0.196588 4.00518 0
M  V30 461 H 47.4393 1.62966 3.96409 0
M  V30 462 H 51.6233 2.56885 4.24645 0
M  V30 463 H 46.8793 3.90612 4.70353 0
M  V30 464 H 51.0533 4.84811 4.99932 0
M  V30 465 H 48.6803 5.52196 5.22478 0
M  V30 466 N 50.2554 -1.46986 0.568584 0
M  V30 467 C 51.4804 -2.07335 0.0520528 0
M  V30 468 C 51.9054 -1.41675 -1.23733 0
M  V30 469 O 51.2634 -0.495623 -1.74394 0
M  V30 470 C 51.3114 -3.60417 -0.11501 0
M  V30 471 O 50.4154 -3.95309 -1.17492 0
M  V30 472 H 49.7564 -0.661597 0.0564385 0
M  V30 473 H 52.2864 -1.88837 0.787507 0
M  V30 474 H 52.2964 -4.06698 -0.325644 0
M  V30 475 H 50.9714 -4.07601 0.826675 0
M  V30 476 H 49.5484 -3.60757 -0.943869 0
M  V30 477 N 51.7335 -0.305618 -1.54608 0
M  V30 478 C 52.9635 0.304333 -2.04346 0
M  V30 479 C 53.3715 1.47715 -1.18224 0
M  V30 480 O 52.7145 1.82591 -0.201577 0
M  V30 481 C 52.7765 0.819031 -3.50046 0
M  V30 482 C 52.4405 -0.22912 -4.56425 0
M  V30 483 C 53.4375 -1.05914 -5.08997 0
M  V30 484 C 51.1225 -0.372148 -5.0092 0
M  V30 485 C 53.1165 -2.01809 -6.04609 0
M  V30 486 C 50.8035 -1.33454 -5.9635 0
M  V30 487 C 51.8015 -2.15599 -6.48079 0
M  V30 488 O 51.4895 -3.10205 -7.41639 0
M  V30 489 H 51.2215 0.0693996 -0.672428 0
M  V30 490 H 53.7755 -0.444548 -2.00532 0
M  V30 491 H 52.0055 1.61852 -3.51199 0
M  V30 492 H 53.6945 1.34537 -3.82955 0
M  V30 493 H 54.4605 -0.959538 -4.75413 0
M  V30 494 H 50.3395 0.257304 -4.60281 0
M  V30 495 H 53.8835 -2.65966 -6.44909 0
M  V30 496 H 49.7805 -1.43485 -6.29351 0
M  V30 497 H 50.5485 -3.05237 -7.59455 0
M  V30 498 N 53.2116 1.57565 -0.0334293 0
M  V30 499 C 54.1746 2.09393 0.932048 0
M  V30 500 C 55.1746 1.00986 1.25134 0
M  V30 501 O 56.3646 1.27129 1.19096 0
M  V30 502 C 53.4966 2.56338 2.2473 0
M  V30 503 H 54.6896 2.95984 0.483085 0
M  V30 504 H 52.2426 1.54819 0.21468 0
M  V30 505 H 52.9776 1.7309 2.74245 0
M  V30 506 H 52.7626 3.35542 2.02865 0
M  V30 507 H 54.2526 2.96646 2.93923 0
M  V30 508 N 54.6897 -0.239769 1.55765 0
M  V30 509 C 55.9367 -0.966801 1.7793 0
M  V30 510 C 56.2647 -1.85046 0.599015 0
M  V30 511 O 55.5197 -1.91197 -0.417395 0
M  V30 512 C 55.8187 -1.852 3.05672 0
M  V30 513 C 55.4847 -1.1231 4.36689 0
M  V30 514 C 54.1467 -0.921689 4.72291 0
M  V30 515 C 56.4987 -0.607019 5.17653 0
M  V30 516 C 53.8267 -0.191996 5.86386 0
M  V30 517 C 56.1787 0.109241 6.32506 0
M  V30 518 C 54.8427 0.322073 6.66723 0
M  V30 519 H 54.1127 -0.353778 0.651093 0
M  V30 520 H 56.7597 -0.23634 1.90036 0
M  V30 521 H 55.0647 -2.64975 2.8861 0
M  V30 522 H 56.7617 -2.41635 3.20021 0
M  V30 523 H 53.3517 -1.29004 4.08725 0
M  V30 524 H 57.5357 -0.750153 4.90598 0
M  V30 525 H 52.7917 -0.0166949 6.11398 0
M  V30 526 H 56.9657 0.516737 6.9448 0
M  V30 527 H 54.5927 0.88944 7.54979 0
M  V30 528 N 56.1678 -1.49265 -0.50573 0
M  V30 529 C 57.5788 -1.51769 -1.08734 0
M  V30 530 C 57.9298 -0.301192 -1.93874 0
M  V30 531 O 57.0548 0.589456 -2.08217 0
M  V30 532 C 57.6498 -2.75017 -1.97867 0
M  V30 533 C 56.2088 -2.80314 -2.51199 0
M  V30 534 C 55.3558 -2.4562 -1.28709 0
M  V30 535 H 58.3068 -1.56031 -0.289855 0
M  V30 536 H 58.3278 -2.5491 -2.82491 0
M  V30 537 H 57.8398 -3.63539 -1.35873 0
M  V30 538 H 55.9408 -1.96061 -3.16845 0
M  V30 539 H 56.0538 -3.82366 -2.88675 0
M  V30 540 H 54.4178 -1.97297 -1.61078 0
M  V30 541 H 55.2008 -3.36411 -0.6843 0
M  V30 542 N 57.6459 0.756429 -1.3826 0
M  V30 543 C 58.5929 1.87011 -1.35261 0
M  V30 544 C 59.5629 1.64695 -0.215616 0
M  V30 545 O 60.7479 1.864 -0.407399 0
M  V30 546 C 57.8879 3.24275 -1.18068 0
M  V30 547 C 57.0009 3.58442 -2.41129 0
M  V30 548 C 56.1359 4.84994 -2.16689 0
M  V30 549 C 55.1749 5.11939 -3.35537 0
M  V30 550 N 54.3119 6.29685 -3.10549 0
M  V30 551 H 59.1519 1.8891 -2.30472 0
M  V30 552 H 56.6889 0.923373 -1.14509 0
M  V30 553 H 58.6469 4.03479 -1.06116 0
M  V30 554 H 57.2769 3.21711 -0.264973 0
M  V30 555 H 56.3289 2.74103 -2.63764 0
M  V30 556 H 57.6409 3.74283 -3.29717 0
M  V30 557 H 56.7949 5.72135 -2.01857 0
M  V30 558 H 55.5339 4.71286 -1.25462 0
M  V30 559 H 54.5389 4.23268 -3.50891 0
M  V30 560 H 55.7639 5.27546 -4.27635 0
M  V30 561 H 53.7099 6.17306 -2.21967 0
M  V30 562 H 53.6269 6.46014 -3.92686 0
M  V30 563 H 54.8949 7.19722 -2.99367 0
M  V30 564 N 59.124 1.23083 0.984299 0
M  V30 565 C 60.087 1.00979 2.05757 0
M  V30 566 C 61.087 -0.0269573 1.60777 0
M  V30 567 O 62.277 0.212403 1.729 0
M  V30 568 C 59.409 0.527072 3.36801 0
M  V30 569 H 60.602 1.9622 2.26799 0
M  V30 570 H 58.155 1.05072 1.15714 0
M  V30 571 H 58.89 -0.429294 3.21446 0
M  V30 572 H 58.675 1.27515 3.70786 0
M  V30 573 H 60.165 0.392942 4.15747 0
M  V30 574 N 60.6021 -1.18246 1.0419 0
M  V30 575 C 61.8481 -1.88536 0.747122 0
M  V30 576 C 62.1811 -1.80223 -0.723409 0
M  V30 577 O 61.4561 -1.20337 -1.52804 0
M  V30 578 C 61.7391 -3.38968 1.21544 0
M  V30 579 C 61.5921 -3.56084 2.74816 0
M  V30 580 C 62.9111 -4.32648 0.806482 0
M  V30 581 H 60.0301 -0.684619 0.272883 0
M  V30 582 H 62.6721 -1.39113 1.29413 0
M  V30 583 H 60.8221 -3.8119 0.750081 0
M  V30 584 H 62.4941 -3.22946 3.29399 0
M  V30 585 H 60.7371 -2.98699 3.14582 0
M  V30 586 H 61.4081 -4.61639 3.02644 0
M  V30 587 H 63.8841 -3.98211 1.20695 0
M  V30 588 H 62.7601 -5.36462 1.1619 0
M  V30 589 H 63.0211 -4.41146 -0.29029 0
M  V30 590 N 62.0802 -0.821533 -1.34494 0
M  V30 591 C 63.3052 -0.420873 -2.03085 0
M  V30 592 C 63.7302 0.964915 -1.61465 0
M  V30 593 O 63.0882 1.62763 -0.798607 0
M  V30 594 C 63.1362 -0.529414 -3.56693 0
M  V30 595 O 62.2402 0.451302 -4.09923 0
M  V30 596 H 61.5812 -0.173489 -0.640935 0
M  V30 597 H 64.1112 -1.11157 -1.71771 0
M  V30 598 H 64.1212 -0.404671 -4.05988 0
M  V30 599 H 62.7962 -1.54014 -3.86332 0
M  V30 600 H 61.3732 0.285558 -3.71805 0
M  V30 601 N 63.5583 1.46682 -0.576371 0
M  V30 602 C 64.8043 2.02712 -0.0596221 0
M  V30 603 C 65.1373 1.44765 1.29448 0
M  V30 604 O 64.4123 0.610355 1.84675 0
M  V30 605 C 64.6953 3.60098 0.0129503 0
M  V30 606 C 64.5483 4.28441 -1.3696 0
M  V30 607 C 65.8673 4.34224 0.71678 0
M  V30 608 H 62.9863 0.736637 -0.0231407 0
M  V30 609 H 65.6283 1.74898 -0.742351 0
M  V30 610 H 63.7783 3.83926 0.594378 0
M  V30 611 H 65.4503 4.15896 -1.9957 0
M  V30 612 H 63.6933 3.8805 -1.93907 0
M  V30 613 H 64.3643 5.3716 -1.27135 0
M  V30 614 H 66.8403 4.15503 0.222908 0
M  V30 615 H 65.7163 5.43936 0.73657 0
M  V30 616 H 65.9773 4.04823 1.77682 0
M  V30 617 N 65.0364 0.313813 1.54444 0
M  V30 618 C 66.2834 -0.291675 2.00388 0
M  V30 619 C 66.6114 -1.52904 1.2021 0
M  V30 620 O 65.8664 -1.93833 0.269707 0
M  V30 621 C 66.1654 -0.680386 3.50864 0
M  V30 622 C 65.8314 0.456699 4.48581 0
M  V30 623 C 64.4934 0.768824 4.75018 0
M  V30 624 C 66.8454 1.22098 5.06697 0
M  V30 625 C 64.1734 1.84812 5.56831 0
M  V30 626 C 66.5254 2.29029 5.89685 0
M  V30 627 C 65.1894 2.60834 6.14428 0
M  V30 628 H 64.4594 -0.106732 0.733273 0
M  V30 629 H 67.1064 0.43557 1.86481 0
M  V30 630 H 65.4114 -1.48791 3.62448 0
M  V30 631 H 67.1084 -1.16026 3.83847 0
M  V30 632 H 63.6984 0.203337 4.28117 0
M  V30 633 H 67.8824 0.993096 4.86263 0
M  V30 634 H 63.1384 2.09912 5.74236 0
M  V30 635 H 67.3124 2.887 6.33739 0
M  V30 636 H 64.9394 3.44596 6.77612 0
M  V30 637 N 66.5145 -1.57545 0.0417849 0
M  V30 638 C 67.7615 -1.92317 -0.634082 0
M  V30 639 C 68.0895 -0.919334 -1.71402 0
M  V30 640 O 67.3445 0.0698253 -1.95575 0
M  V30 641 C 67.6435 -3.33794 -1.27735 0
M  V30 642 C 67.3095 -4.49716 -0.326543 0
M  V30 643 C 65.9715 -4.81156 -0.0648814 0
M  V30 644 C 68.3235 -5.20182 0.325623 0
M  V30 645 C 65.6515 -5.80414 0.856539 0
M  V30 646 C 68.0035 -6.20424 1.23518 0
M  V30 647 C 66.6675 -6.50298 1.5056 0
M  V30 648 H 65.9375 -0.703736 -0.232027 0
M  V30 649 H 68.5845 -1.91205 0.106259 0
M  V30 650 H 66.8895 -3.31228 -2.09274 0
M  V30 651 H 68.5865 -3.57975 -1.80707 0
M  V30 652 H 65.1765 -4.25176 -0.540665 0
M  V30 653 H 69.3605 -4.96112 0.136546 0
M  V30 654 H 64.6165 -6.019 1.07363 0
M  V30 655 H 68.7905 -6.74141 1.74664 0
M  V30 656 H 66.4175 -7.27025 2.22123 0
M  V30 657 N 67.9926 0.231505 -1.5589 0
M  V30 658 C 68.9396 1.28682 -1.91598 0
M  V30 659 C 69.9096 1.47071 -0.771974 0
M  V30 660 O 71.0946 1.60802 -1.027 0
M  V30 661 C 68.2346 2.6342 -2.22944 0
M  V30 662 C 67.3476 2.52912 -3.50228 0
M  V30 663 C 66.4826 3.80106 -3.7107 0
M  V30 664 C 65.5216 3.64279 -4.91902 0
M  V30 665 N 64.6586 4.834 -5.09184 0
M  V30 666 H 69.4986 0.975305 -2.81588 0
M  V30 667 H 67.0356 0.470299 -1.39379 0
M  V30 668 H 68.9936 3.41869 -2.39126 0
M  V30 669 H 67.6236 2.92687 -1.36139 0
M  V30 670 H 66.6756 1.6595 -3.42294 0
M  V30 671 H 67.9876 2.37133 -4.38827 0
M  V30 672 H 67.1416 4.66999 -3.87295 0
M  V30 673 H 65.8806 3.98799 -2.80733 0
M  V30 674 H 64.8856 2.7577 -4.75637 0
M  V30 675 H 66.1106 3.47067 -5.83714 0
M  V30 676 H 64.0566 5.02425 -4.21788 0
M  V30 677 H 63.9736 4.70311 -5.91898 0
M  V30 678 H 65.2416 5.71747 -5.29835 0
M  V30 679 N 69.4707 1.49531 0.497807 0
M  V30 680 C 70.3807 1.69176 1.62532 0
M  V30 681 C 71.3967 0.5744 1.64246 0
M  V30 682 O 72.5727 0.849497 1.82608 0
M  V30 683 C 69.6377 1.75695 2.98885 0
M  V30 684 C 68.6987 2.9929 3.07773 0
M  V30 685 C 67.9317 3.05488 4.37622 0
M  V30 686 O 68.1547 2.19192 5.26603 0
M  V30 687 O 67.0887 3.9798 4.51548 0
M  V30 688 H 70.9147 2.647 1.48887 0
M  V30 689 H 68.4997 1.3331 0.674441 0
M  V30 690 H 70.3817 1.82317 3.79919 0
M  V30 691 H 69.0567 0.8335 3.12785 0
M  V30 692 H 67.9637 2.98183 2.25915 0
M  V30 693 H 69.2967 3.91125 2.98801 0
M  V30 694 N 70.9488 -0.749086 1.3866 0
M  V30 695 C 71.8788 -1.8764 1.38973 0
M  V30 696 C 72.8598 -1.68178 0.255004 0
M  V30 697 O 74.0448 -1.88704 0.458754 0
M  V30 698 C 71.1748 -3.25222 1.21851 0
M  V30 699 C 70.1288 -3.59295 2.32575 0
M  V30 700 C 69.4548 -4.95663 2.00555 0
M  V30 701 C 70.7548 -3.63709 3.7485 0
M  V30 702 H 72.4488 -1.87635 2.3331 0
M  V30 703 H 69.9948 -0.901329 1.12303 0
M  V30 704 H 71.9478 -4.03746 1.20695 0
M  V30 705 H 70.6718 -3.25719 0.239775 0
M  V30 706 H 69.3308 -2.83093 2.32925 0
M  V30 707 H 68.9788 -4.92724 1.01154 0
M  V30 708 H 68.6788 -5.19429 2.74714 0
M  V30 709 H 70.2028 -5.7656 2.01024 0
M  V30 710 H 71.6168 -4.32338 3.76506 0
M  V30 711 H 70.0138 -3.98986 4.48252 0
M  V30 712 H 71.0838 -2.63834 4.06841 0
M  V30 713 N 72.4269 -1.23603 -0.977757 0
M  V30 714 C 73.6759 -1.06377 -1.71368 0
M  V30 715 C 73.9889 0.399062 -1.91486 0
M  V30 716 O 75.1949 0.691312 -2.62551 0
M  V30 717 C 73.6509 -1.85512 -3.08404 0
M  V30 718 C 73.2589 -3.36141 -2.96164 0
M  V30 719 C 75.0029 -1.76783 -3.85938 0
M  V30 720 C 72.9099 -4.07659 -4.28449 0
M  V30 721 H 71.8399 -0.394452 -0.642591 0
M  V30 722 H 74.4909 -1.47594 -1.09034 0
M  V30 723 H 72.8729 -1.37103 -3.71509 0
M  V30 724 H 74.0469 -3.92056 -2.42133 0
M  V30 725 H 72.3619 -3.45712 -2.32104 0
M  V30 726 H 74.9589 -2.27526 -4.83876 0
M  V30 727 H 75.3019 -0.731116 -4.0983 0
M  V30 728 H 75.8349 -2.22818 -3.2954 0
M  V30 729 H 72.5739 -5.11648 -4.09752 0
M  V30 730 H 72.0939 -3.5653 -4.82334 0
M  V30 731 H 73.7729 -4.141 -4.97122 0
M  V30 732 N 73.905 1.17692 -1.04816 0
M  V30 733 C 74.837 2.21103 -0.603822 0
M  V30 734 C 75.85 1.59411 0.33046 0
M  V30 735 O 77.039 1.7807 0.12379 0
M  V30 736 C 74.139 3.38623 0.136898 0
M  V30 737 C 73.312 4.29888 -0.807137 0
M  V30 738 C 72.371 5.26088 -0.10836 0
M  V30 739 O 71.397 5.64353 -0.741232 0
M  V30 740 N 72.599 5.68882 1.15558 0
M  V30 741 H 75.364 2.59848 -1.49329 0
M  V30 742 H 72.925 1.32553 -0.929587 0
M  V30 743 H 74.917 4.00009 0.614401 0
M  V30 744 H 73.487 2.98508 0.927993 0
M  V30 745 H 72.707 3.65993 -1.46434 0
M  V30 746 H 73.995 4.87759 -1.44807 0
M  V30 747 H 73.393 5.39861 1.69015 0
M  V30 748 H 71.95 6.32429 1.57722 0
M  V30 749 N 75.3831 0.828654 1.34056 0
M  V30 750 C 76.2931 0.256725 2.33191 0
M  V30 751 C 77.3091 -0.611898 1.62886 0
M  V30 752 O 78.4851 -0.51844 1.94613 0
M  V30 753 C 75.5501 -0.567238 3.42028 0
M  V30 754 C 74.6111 0.324458 4.28072 0
M  V30 755 C 73.8441 -0.460274 5.31712 0
M  V30 756 O 74.0671 -1.693 5.44696 0
M  V30 757 O 73.0011 0.160391 6.01686 0
M  V30 758 H 76.8271 1.07739 2.83947 0
M  V30 759 H 74.4121 0.59093 1.37217 0
M  V30 760 H 76.2941 -1.03582 4.08471 0
M  V30 761 H 74.9691 -1.36513 2.93506 0
M  V30 762 H 73.8761 0.840659 3.64532 0
M  V30 763 H 75.2091 1.08685 4.8005 0
M  V30 764 N 76.8612 -1.46375 0.584142 0
M  V30 765 C 78.1082 -2.02378 0.0702675 0
M  V30 766 C 78.4362 -1.45545 -1.29023 0
M  V30 767 O 77.6912 -0.610967 -1.85918 0
M  V30 768 C 77.9902 -3.57373 -0.0439342 0
M  V30 769 C 77.6562 -4.33252 1.24915 0
M  V30 770 C 76.3182 -4.53701 1.60341 0
M  V30 771 C 78.6702 -4.7681 2.1048 0
M  V30 772 C 75.9982 -5.1496 2.81128 0
M  V30 773 C 78.3502 -5.39404 3.30494 0
M  V30 774 C 77.0142 -5.5808 3.66201 0
M  V30 775 H 76.2842 -0.740554 0.0257127 0
M  V30 776 H 78.9312 -1.75727 0.761065 0
M  V30 777 H 77.2362 -3.83169 -0.817869 0
M  V30 778 H 78.9332 -3.98384 -0.457318 0
M  V30 779 H 75.5232 -4.17633 0.963364 0
M  V30 780 H 79.7072 -4.60766 1.84414 0
M  V30 781 H 74.9632 -5.27611 3.08928 0
M  V30 782 H 79.1372 -5.72114 3.97063 0
M  V30 783 H 76.7642 -6.05318 4.59885 0
M  V30 784 N 78.3393 -0.321999 -1.54275 0
M  V30 785 C 79.5873 0.280489 -2.00144 0
M  V30 786 C 79.9083 1.52777 -1.21178 0
M  V30 787 O 79.1783 1.9338 -0.313187 0
M  V30 788 H 77.7583 0.106632 -0.73935 0
M  V30 789 H 80.4203 -0.438184 -1.8991 0
M  V30 790 H 79.5163 0.537972 -3.07428 0
M  V30 791 N 79.8174 1.5752 -0.0501392 0
M  V30 792 C 81.0664 1.91827 0.623328 0
M  V30 793 C 81.3794 0.930222 1.72065 0
M  V30 794 O 82.5854 1.1653 2.4522 0
M  V30 795 C 81.0414 3.40692 1.16003 0
M  V30 796 C 80.6494 4.479 0.0948811 0
M  V30 797 C 82.3934 3.84034 1.80881 0
M  V30 798 C 80.3004 5.87879 0.644411 0
M  V30 799 H 79.2304 0.715918 0.236596 0
M  V30 800 H 81.8814 1.83115 -0.118861 0
M  V30 801 H 80.2634 3.44405 1.9545 0
M  V30 802 H 81.4374 4.55775 -0.678675 0
M  V30 803 H 79.7524 4.13892 -0.45637 0
M  V30 804 H 82.3494 4.85984 2.22988 0
M  V30 805 H 82.6924 3.20225 2.6601 0
M  V30 806 H 83.2254 3.82833 1.0809 0
M  V30 807 H 79.9644 6.55282 -0.169229 0
M  V30 808 H 79.4844 5.83567 1.38598 0
M  V30 809 H 81.1634 6.37098 1.12763 0
M  V30 810 N 81.2955 -0.223234 1.56011 0
M  V30 811 C 82.5435 -0.946003 1.78592 0
M  V30 812 C 82.8645 -1.84936 0.618349 0
M  V30 813 O 82.1345 -1.92473 -0.364833 0
M  V30 814 H 80.7145 -0.352298 0.658707 0
M  V30 815 H 83.3765 -0.235494 1.93472 0
M  V30 816 H 82.4725 -1.55381 2.70672 0
M  V30 817 N 82.7736 -1.49793 -0.48987 0
M  V30 818 C 84.0036 -1.6333 -1.26518 0
M  V30 819 C 84.4116 -0.308392 -1.8667 0
M  V30 820 O 83.7546 0.717512 -1.69108 0
M  V30 821 C 83.8166 -2.6522 -2.4269 0
M  V30 822 C 83.4806 -4.09279 -2.03321 0
M  V30 823 C 84.4776 -4.95738 -1.56652 0
M  V30 824 C 82.1626 -4.55082 -2.12616 0
M  V30 825 C 84.1566 -6.26041 -1.19795 0
M  V30 826 C 81.8436 -5.85396 -1.75371 0
M  V30 827 C 82.8416 -6.707 -1.29036 0
M  V30 828 O 82.5296 -7.98584 -0.92299 0
M  V30 829 H 82.2616 -0.552502 -0.389509 0
M  V30 830 H 84.8156 -1.96642 -0.593381 0
M  V30 831 H 83.0456 -2.27112 -3.12981 0
M  V30 832 H 84.7346 -2.68171 -3.04695 0
M  V30 833 H 85.5006 -4.61575 -1.48908 0
M  V30 834 H 81.3796 -3.88844 -2.47631 0
M  V30 835 H 84.9236 -6.92578 -0.835582 0
M  V30 836 H 80.8206 -6.19085 -1.82768 0
M  V30 837 H 81.5886 -8.11692 -1.05349 0
M  V30 838 N 84.2517 0.741722 -1.39055 0
M  V30 839 C 85.4767 1.53607 -1.39354 0
M  V30 840 C 85.9017 1.88096 0.0116905 0
M  V30 841 O 85.2597 1.5143 0.996924 0
M  V30 842 C 85.3077 2.80441 -2.26682 0
M  V30 843 O 84.4117 3.76088 -1.69208 0
M  V30 844 H 83.7527 0.464142 -0.474835 0
M  V30 845 H 86.2827 0.915665 -1.82967 0
M  V30 846 H 86.2927 3.29246 -2.40959 0
M  V30 847 H 84.9677 2.5467 -3.2881 0
M  V30 848 H 83.5447 3.34833 -1.64138 0
M  V30 849 N 85.7298 1.2412 0.971189 0
M  V30 850 C 87.0068 0.986867 1.6888 0
M  V30 851 C 87.3868 -0.491857 2.0529 0
M  V30 852 O 86.7348 -1.46531 1.75331 0
M  V30 853 C 86.9448 1.9063 2.92338 0
M  V30 854 C 88.2928 2.17515 3.64654 0
M  V30 855 O 89.3168 1.88254 3.02388 0
M  V30 856 O 88.1758 2.6719 4.7673 0
M  V30 857 H 85.2698 0.372944 0.738134 0
M  V30 858 H 87.8158 1.35203 1.02559 0
M  V30 859 H 86.5878 2.90552 2.62097 0
M  V30 860 H 86.2108 1.54408 3.66393 0
M  V30 861 N 87.2079 -1.17134 1.05439 0
M  V30 862 C 88.4359 -1.91372 0.786414 0
M  V30 863 C 88.8509 -1.76955 -0.658202 0
M  V30 864 O 88.2079 -1.10838 -1.44987 0
M  V30 865 C 88.2589 -3.42356 1.1608 0
M  V30 866 O 87.9799 -3.56332 2.54871 0
M  V30 867 C 89.4809 -4.33663 0.919322 0
M  V30 868 H 86.7009 -0.607118 0.285743 0
M  V30 869 H 89.2449 -1.48525 1.40572 0
M  V30 870 H 87.3999 -3.82939 0.586191 0
M  V30 871 H 87.8139 -4.49896 2.69618 0
M  V30 872 H 89.2879 -5.38099 1.231 0
M  V30 873 H 89.7649 -4.38959 -0.145359 0
M  V30 874 H 90.3709 -3.98796 1.47789 0
M  V30 875 N 88.686 -0.835752 -1.33615 0
M  V30 876 C 89.649 -0.272 -2.2758 0
M  V30 877 C 90.649 0.557487 -1.50827 0
M  V30 878 O 91.839 0.37173 -1.70188 0
M  V30 879 C 88.971 0.617173 -3.35267 0
M  V30 880 H 90.164 -1.10111 -2.78954 0
M  V30 881 H 87.717 -0.608594 -1.43965 0
M  V30 882 H 88.452 1.46884 -2.89129 0
M  V30 883 H 88.237 0.0237066 -3.92093 0
M  V30 884 H 89.727 1.005 -4.05326 0
M  V30 885 N 90.1641 1.46063 -0.591896 0
M  V30 886 C 91.4101 2.03203 -0.0894879 0
M  V30 887 C 91.7651 1.45407 1.25994 0
M  V30 888 O 91.0581 0.61326 1.8152 0
M  V30 889 C 91.2521 3.57391 0.0249813 0
M  V30 890 C 91.0811 4.30142 -1.3118 0
M  V30 891 C 89.8511 4.68688 -1.88838 0
M  V30 892 C 92.0491 4.63098 -2.23708 0
M  V30 893 N 90.0311 5.26228 -3.1616 0
M  V30 894 C 91.4021 5.21305 -3.3562 0
M  V30 895 C 93.4571 4.45031 -2.23274 0
M  V30 896 C 92.1601 5.63351 -4.47245 0
M  V30 897 C 94.1861 4.881 -3.33935 0
M  V30 898 C 93.5481 5.46386 -4.44569 0
M  V30 899 H 89.6471 0.778323 -0.0757431 0
M  V30 900 H 92.2311 1.78094 -0.78681 0
M  V30 901 H 90.4021 3.82195 0.69149 0
M  V30 902 H 92.1341 4.0118 0.532613 0
M  V30 903 H 88.8891 4.5174 -1.42223 0
M  V30 904 H 89.3131 5.59512 -3.8115 0
M  V30 905 H 93.9551 3.99295 -1.39008 0
M  V30 906 H 91.6731 6.08061 -5.32247 0
M  V30 907 H 95.2591 4.75866 -3.34728 0
M  V30 908 H 94.1391 5.79102 -5.28782 0
M  V30 909 N 91.6422 0.330177 1.54103 0
M  V30 910 C 92.8912 -0.271336 1.99867 0
M  V30 911 C 93.2042 -1.52723 1.22209 0
M  V30 912 O 94.4102 -2.20515 1.58383 0
M  V30 913 C 92.8662 -0.534032 3.55916 0
M  V30 914 C 92.4742 0.705193 4.42415 0
M  V30 915 C 94.2182 -1.09514 4.1013 0
M  V30 916 C 92.1252 0.414035 5.89949 0
M  V30 917 H 91.0552 -0.105166 0.74663 0
M  V30 918 H 93.7062 0.443429 1.78062 0
M  V30 919 H 92.0882 -1.30915 3.73734 0
M  V30 920 H 93.2622 1.4804 4.36372 0
M  V30 921 H 91.5772 1.18698 3.99124 0
M  V30 922 H 94.1742 -1.3277 5.17954 0
M  V30 923 H 94.5172 -2.04656 3.62521 0
M  V30 924 H 95.0502 -0.381038 3.95971 0
M  V30 925 H 91.7892 1.33481 6.41766 0
M  V30 926 H 91.3092 -0.323336 5.98928 0
M  V30 927 H 92.9882 0.0263105 6.46995 0
M  V30 928 N 93.1203 -1.57491 0.0584922 0
M  V30 929 C 94.3453 -1.97711 -0.62652 0
M  V30 930 C 94.7703 -0.936132 -1.63151 0
M  V30 931 O 94.1283 0.099811 -1.81025 0
M  V30 932 C 94.1763 -3.36989 -1.28338 0
M  V30 933 O 93.2803 -3.35433 -2.39913 0
M  V30 934 H 92.6213 -0.643868 -0.162266 0
M  V30 935 H 95.1513 -2.04193 0.129064 0
M  V30 936 H 95.1613 -3.73879 -1.63335 0
M  V30 937 H 93.8363 -4.12289 -0.546889 0
M  V30 938 H 92.4133 -3.10298 -2.06809 0
M  V30 939 N 94.5984 0.214957 -1.56127 0
M  V30 940 C 95.8234 0.95924 -1.83884 0
M  V30 941 C 96.2484 1.7689 -0.639644 0
M  V30 942 O 95.6064 1.76566 0.411601 0
M  V30 943 C 95.6544 1.84723 -3.09693 0
M  V30 944 O 94.7584 2.94346 -2.8885 0
M  V30 945 H 94.0994 0.27125 -0.606069 0
M  V30 946 H 96.6294 0.226276 -2.03345 0
M  V30 947 H 96.6394 2.25576 -3.39969 0
M  V30 948 H 95.3144 1.25218 -3.96602 0
M  V30 949 H 93.8914 2.57391 -2.69823 0
M  V30 950 N 96.0765 1.50051 0.48192 0
M  V30 951 C 97.3255 1.59741 1.23149 0
M  V30 952 C 97.6385 0.298163 1.93314 0
M  V30 953 O 98.8445 0.273835 2.70116 0
M  V30 954 C 97.3005 2.81926 2.23708 0
M  V30 955 C 96.9085 4.18685 1.59396 0
M  V30 956 C 98.6525 3.00956 2.99375 0
M  V30 957 C 96.5595 5.3207 2.58178 0
M  V30 958 H 95.4895 0.594838 0.46334 0
M  V30 959 H 98.1405 1.76467 0.503169 0
M  V30 960 H 96.5225 2.58736 2.99786 0
M  V30 961 H 97.6965 4.52088 0.891811 0
M  V30 962 H 96.0115 4.05171 0.960503 0
M  V30 963 H 98.6085 3.82836 3.73283 0
M  V30 964 H 98.9515 2.12258 3.58123 0
M  V30 965 H 99.4845 3.24277 2.30411 0
M  V30 966 H 96.2235 6.22888 2.04184 0
M  V30 967 H 95.7435 5.03098 3.26577 0
M  V30 968 H 97.4225 5.62196 3.20225 0
M  V30 969 N 97.5546 -0.734337 1.39446 0
M  V30 970 C 98.4846 -1.86155 1.40955 0
M  V30 971 C 99.4656 -1.67898 0.272827 0
M  V30 972 O 100.651 -1.88207 0.478743 0
M  V30 973 C 97.7806 -3.23912 1.25294 0
M  V30 974 C 96.7346 -3.56808 2.36373 0
M  V30 975 C 96.0606 -4.93508 2.058 0
M  V30 976 C 97.3606 -3.59713 3.78687 0
M  V30 977 H 99.0546 -1.8515 2.35287 0
M  V30 978 H 96.6006 -0.889367 1.13253 0
M  V30 979 H 98.5536 -4.02443 1.2497 0
M  V30 980 H 97.2776 -3.25446 0.274308 0
M  V30 981 H 95.9366 -2.80606 2.35914 0
M  V30 982 H 95.5846 -4.91623 1.06374 0
M  V30 983 H 95.2846 -5.16486 2.80208 0
M  V30 984 H 96.8086 -5.74396 2.07128 0
M  V30 985 H 98.2226 -4.2832 3.81071 0
M  V30 986 H 96.6196 -3.94209 4.52459 0
M  V30 987 H 97.6896 -2.59504 4.09617 0
M  V30 988 N 99.0327 -1.24633 -0.964593 0
M  V30 989 C 99.9627 -1.06611 -2.07741 0
M  V30 990 C 100.944 0.0218666 -1.70086 0
M  V30 991 O 102.129 -0.145793 -1.93652 0
M  V30 992 C 99.2587 -0.673444 -3.40708 0
M  V30 993 C 98.2127 -1.71054 -3.92332 0
M  V30 994 C 97.5387 -1.17285 -5.21678 0
M  V30 995 C 98.8387 -3.10718 -4.19824 0
M  V30 996 H 100.533 -1.99693 -2.23076 0
M  V30 997 H 98.0787 -0.96152 -1.07195 0
M  V30 998 H 100.032 -0.534345 -4.17998 0
M  V30 999 H 98.7557 0.293073 -3.25282 0
M  V30 1000 H 97.4147 -1.83791 -3.17201 0
M  V30 1001 H 97.0627 -0.196847 -5.02615 0
M  V30 1002 H 96.7627 -1.86592 -5.57187 0
M  V30 1003 H 98.2867 -1.04593 -6.01575 0
M  V30 1004 H 99.7007 -3.01192 -4.87808 0
M  V30 1005 H 98.0977 -3.77406 -4.66567 0
M  V30 1006 H 99.1677 -3.58524 -3.26479 0
M  V30 1007 N 100.511 1.16574 -1.06058 0
M  V30 1008 C 101.474 2.19085 -0.673392 0
M  V30 1009 C 102.474 1.5835 0.279648 0
M  V30 1010 O 103.664 1.74088 0.0623488 0
M  V30 1011 C 100.796 3.40899 0.00954234 0
M  V30 1012 H 101.989 2.54853 -1.58081 0
M  V30 1013 H 99.5418 1.30808 -0.855516 0
M  V30 1014 H 100.277 3.10684 0.929826 0
M  V30 1015 H 100.062 3.86233 -0.67573 0
M  V30 1016 H 101.552 4.1675 0.266245 0
M  V30 1017 N 101.989 0.842826 1.3317 0
M  V30 1018 C 102.922 0.223862 2.27099 0
M  V30 1019 C 103.9 -0.631311 1.49844 0
M  V30 1020 O 105.084 -0.590708 1.79005 0
M  V30 1021 C 102.211 -0.685313 3.31694 0
M  V30 1022 C 101.257 0.094919 4.26394 0
M  V30 1023 S 102.09 1.45546 5.15341 0
M  V30 1024 C 103.246 0.551685 6.23464 0
M  V30 1025 H 103.479 1.02015 2.79249 0
M  V30 1026 H 101.012 0.639797 1.4052 0
M  V30 1027 H 102.97 -1.20426 3.92438 0
M  V30 1028 H 101.631 -1.4553 2.78352 0
M  V30 1029 H 100.824 -0.597059 5.00451 0
M  V30 1030 H 100.426 0.545054 3.70007 0
M  V30 1031 H 102.718 -0.248877 6.77043 0
M  V30 1032 H 103.661 1.26253 6.96754 0
M  V30 1033 H 104.069 0.131275 5.64347 0
M  V30 1034 N 103.467 -1.45747 0.599634 0
M  V30 1035 C 104.397 -2.33235 -0.111306 0
M  V30 1036 C 105.378 -1.46359 -0.866781 0
M  V30 1037 O 106.563 -1.75146 -0.838904 0
M  V30 1038 C 103.693 -3.28932 -1.11451 0
M  V30 1039 C 102.647 -4.25381 -0.472772 0
M  V30 1040 C 101.973 -5.1071 -1.58365 0
M  V30 1041 C 103.273 -5.18831 0.600948 0
M  V30 1042 H 104.967 -2.92927 0.61919 0
M  V30 1043 H 102.513 -1.40857 0.299215 0
M  V30 1044 H 104.466 -3.89002 -1.62036 0
M  V30 1045 H 103.19 -2.67381 -1.8755 0
M  V30 1046 H 101.849 -3.66598 0.0121472 0
M  V30 1047 H 101.497 -4.45533 -2.33473 0
M  V30 1048 H 101.197 -5.7604 -1.15982 0
M  V30 1049 H 102.721 -5.73647 -2.09194 0
M  V30 1050 H 104.135 -5.73019 0.179491 0
M  V30 1051 H 102.532 -5.92595 0.946076 0
M  V30 1052 H 103.602 -4.6174 1.48068 0
M  V30 1053 N 104.945 -0.338344 -1.53925 0
M  V30 1054 C 106.175 0.260919 -2.04946 0
M  V30 1055 C 106.583 1.45174 -1.2133 0
M  V30 1056 O 105.926 1.82122 -0.240262 0
M  V30 1057 C 105.988 0.744596 -3.51704 0
M  V30 1058 C 105.652 -0.325883 -4.55837 0
M  V30 1059 C 106.649 -1.16687 -5.06636 0
M  V30 1060 C 104.334 -0.478317 -5.00017 0
M  V30 1061 C 106.328 -2.14588 -6.00192 0
M  V30 1062 C 104.015 -1.46073 -5.93385 0
M  V30 1063 C 105.013 -2.29297 -6.4336 0
M  V30 1064 O 104.701 -3.25867 -7.34892 0
M  V30 1065 H 104.433 0.0551207 -0.673749 0
M  V30 1066 H 106.987 -0.486984 -1.99544 0
M  V30 1067 H 105.217 1.54366 -3.54553 0
M  V30 1068 H 106.906 1.26383 -3.85723 0
M  V30 1069 H 107.672 -1.06016 -4.73271 0
M  V30 1070 H 103.551 0.159613 -4.60724 0
M  V30 1071 H 107.095 -2.79585 -6.39123 0
M  V30 1072 H 102.992 -1.56802 -6.26166 0
M  V30 1073 H 103.76 -3.21278 -7.5281 0
M  V30 1074 N 106.423 1.57458 -0.0668435 0
M  V30 1075 C 107.671 1.92919 0.602214 0
M  V30 1076 C 107.992 0.947215 1.70449 0
M  V30 1077 O 107.262 -0.00544117 1.95899 0
M  V30 1078 H 105.842 0.71217 0.22544 0
M  V30 1079 H 108.504 1.94508 -0.123535 0
M  V30 1080 H 107.6 2.94589 1.03073 0
M  V30 1081 N 107.901 -0.206675 1.56239 0
M  V30 1082 C 109.129 -0.945345 1.8404 0
M  V30 1083 C 109.544 -1.77336 0.647885 0
M  V30 1084 O 108.901 -1.78425 -0.383511 0
M  V30 1085 C 108.952 -1.8509 3.10522 0
M  V30 1086 O 108.673 -1.05634 4.25174 0
M  V30 1087 C 110.174 -2.70222 3.51418 0
M  V30 1088 H 107.394 -0.276372 0.61144 0
M  V30 1089 H 109.938 -0.217417 2.03341 0
M  V30 1090 H 108.093 -2.53259 2.93153 0
M  V30 1091 H 108.507 -1.67238 4.97124 0
M  V30 1092 H 109.981 -3.29438 4.42916 0
M  V30 1093 H 110.458 -3.43358 2.73864 0
M  V30 1094 H 111.064 -2.07443 3.71278 0
M  V30 1095 N 109.379 -1.50304 -0.473955 0
M  V30 1096 C 110.627 -1.60832 -1.22382 0
M  V30 1097 C 110.948 -0.30939 -1.9253 0
M  V30 1098 O 110.218 0.67296 -1.83978 0
M  V30 1099 H 108.798 -0.592652 -0.454723 0
M  V30 1100 H 111.46 -1.87068 -0.546968 0
M  V30 1101 H 110.556 -2.41803 -1.97327 0
M  V30 1102 N 110.857 0.726932 -1.39834 0
M  V30 1103 C 112.268 1.30558 -1.3346 0
M  V30 1104 C 112.619 1.962 -0.00273003 0
M  V30 1105 O 111.744 1.96826 0.899371 0
M  V30 1106 C 112.339 2.37404 -2.41713 0
M  V30 1107 C 110.898 2.90921 -2.38835 0
M  V30 1108 C 110.045 1.64578 -2.2318 0
M  V30 1109 H 112.996 0.523862 -1.49804 0
M  V30 1110 H 113.017 3.17984 -2.08966 0
M  V30 1111 H 112.529 1.89599 -3.38635 0
M  V30 1112 H 110.63 3.42985 -1.45575 0
M  V30 1113 H 110.743 3.43487 -3.33997 0
M  V30 1114 H 109.107 1.89219 -1.70494 0
M  V30 1115 H 109.89 1.18814 -3.22084 0
M  V30 1116 N 112.336 1.25143 0.95797 0
M  V30 1117 C 113.266 1.07711 2.07173 0
M  V30 1118 C 114.247 -0.0128462 1.70095 0
M  V30 1119 O 115.432 0.156061 1.93572 0
M  V30 1120 C 112.562 0.691503 3.40346 0
M  V30 1121 C 111.516 1.73132 3.9142 0
M  V30 1122 C 110.842 1.20049 5.21049 0
M  V30 1123 C 112.142 3.1294 4.1817 0
M  V30 1124 H 113.836 2.00873 2.22014 0
M  V30 1125 H 111.382 0.967191 1.06684 0
M  V30 1126 H 113.335 0.556505 4.17709 0
M  V30 1127 H 112.059 -0.275819 3.25433 0
M  V30 1128 H 110.718 1.8547 3.16222 0
M  V30 1129 H 110.366 0.223499 5.02503 0
M  V30 1130 H 110.066 1.89545 5.56189 0
M  V30 1131 H 111.59 1.07782 6.01012 0
M  V30 1132 H 113.004 3.03775 4.86203 0
M  V30 1133 H 111.401 3.79875 4.64559 0
M  V30 1134 H 112.471 3.6025 3.24573 0
M  V30 1135 N 113.814 -1.1601 1.06675 0
M  V30 1136 C 115.054 -1.88304 0.795037 0
M  V30 1137 C 115.418 -1.80062 -0.666466 0
M  V30 1138 O 116.619 -2.47319 -1.05293 0
M  V30 1139 C 114.89 -3.33664 1.28076 0
M  V30 1140 S 116.449 -4.23768 1.13868 0
M  V30 1141 H 113.267 -0.649928 0.288296 0
M  V30 1142 H 115.869 -1.4001 1.36445 0
M  V30 1143 H 114.573 -3.37203 2.33927 0
M  V30 1144 H 114.104 -3.87009 0.706253 0
M  V30 1145 H 116.119 -4.96148 0.0719668 0
M  V30 1146 N 115.292 -0.849877 -1.32721 0
M  V30 1147 C 116.517 -0.463856 -2.02146 0
M  V30 1148 C 116.942 0.930449 -1.63476 0
M  V30 1149 O 116.3 1.61033 -0.832952 0
M  V30 1150 C 116.348 -0.604955 -3.55489 0
M  V30 1151 O 115.452 0.36425 -4.10788 0
M  V30 1152 H 114.793 -0.187046 -0.637111 0
M  V30 1153 H 117.323 -1.14775 -1.69375 0
M  V30 1154 H 117.333 -0.490696 -4.05038 0
M  V30 1155 H 116.008 -1.62174 -3.82978 0
M  V30 1156 H 114.585 0.206628 -3.72327 0
M  V30 1157 N 116.77 1.45427 -0.607355 0
M  V30 1158 C 118.016 2.0254 -0.102607 0
M  V30 1159 C 118.349 1.47478 1.26348 0
M  V30 1160 O 117.624 0.64939 1.83339 0
M  V30 1161 C 117.907 3.60044 -0.0634347 0
M  V30 1162 C 117.76 4.2544 -1.46017 0
M  V30 1163 C 119.079 4.35646 0.624514 0
M  V30 1164 H 116.198 0.73598 -0.0387607 0
M  V30 1165 H 118.84 1.73284 -0.779282 0
M  V30 1166 H 116.99 3.85101 0.512808 0
M  V30 1167 H 118.662 4.11569 -2.08347 0
M  V30 1168 H 116.905 3.83849 -2.02094 0
M  V30 1169 H 117.576 5.34342 -1.385 0
M  V30 1170 H 120.052 4.15882 0.134723 0
M  V30 1171 H 118.928 5.45376 0.621028 0
M  V30 1172 H 119.189 4.08501 1.69055 0
M  V30 1173 N 118.248 0.346503 1.53744 0
M  V30 1174 C 119.488 -0.249413 2.02873 0
M  V30 1175 C 119.852 -1.47532 1.22876 0
M  V30 1176 O 121.053 -2.1456 1.61918 0
M  V30 1177 C 119.324 -0.552909 3.53097 0
M  V30 1178 S 120.883 -1.12521 4.24128 0
M  V30 1179 H 117.701 -0.074042 0.707134 0
M  V30 1180 H 120.303 0.48495 1.8939 0
M  V30 1181 H 119.007 0.347083 4.0893 0
M  V30 1182 H 118.538 -1.31686 3.70705 0
M  V30 1183 H 120.553 -2.41075 4.33702 0
M  V30 1184 N 119.726 -1.57421 0.075193 0
M  V30 1185 C 120.972 -1.93905 -0.594025 0
M  V30 1186 C 121.305 -0.955701 -1.69056 0
M  V30 1187 O 120.58 0.0145373 -1.94495 0
M  V30 1188 C 120.863 -3.40638 -1.1678 0
M  V30 1189 C 120.716 -4.49733 -0.0776792 0
M  V30 1190 C 122.035 -3.88259 -2.07228 0
M  V30 1191 H 119.154 -0.705105 -0.214466 0
M  V30 1192 H 121.796 -1.8947 0.141854 0
M  V30 1193 H 119.946 -3.44549 -1.79494 0
M  V30 1194 H 121.618 -4.57942 0.555573 0
M  V30 1195 H 119.861 -4.29751 0.591286 0
M  V30 1196 H 120.532 -5.49549 -0.519603 0
M  V30 1197 H 123.008 -3.86376 -1.54445 0
M  V30 1198 H 121.884 -4.91533 -2.44308 0
M  V30 1199 H 122.145 -3.26396 -2.98191 0
M  V30 1200 N 121.204 0.198386 -1.56346 0
M  V30 1201 C 122.152 1.26538 -1.95169 0
M  V30 1202 C 123.146 1.47295 -0.836685 0
M  V30 1203 O 124.352 1.48195 -1.02167 0
M  V30 1204 H 120.727 0.424744 -0.620561 0
M  V30 1205 H 122.698 0.910904 -2.84157 0
M  V30 1206 C 121.447 2.6035 -2.30463 0
M  V30 1207 H 120.77 2.45192 -3.15786 0
M  V30 1208 H 122.21 3.33762 -2.61494 0
M  V30 1209 C 120.669 3.17096 -1.13806 0
M  V30 1210 O 121.199 3.99588 -0.41135 0
M  V30 1211 N 119.405 2.75795 -0.915736 0
M  V30 1212 H 118.952 2.08816 -1.50843 0
M  V30 1213 H 118.91 3.14101 -0.136979 0
M  V30 1214 N 122.682 1.50554 0.465978 0
M  V30 1215 C 124.098 1.38093 0.800154 0
M  V30 1216 C 124.298 0.440988 1.96615 0
M  V30 1217 O 123.354 -0.114499 2.5224 0
M  V30 1218 C 124.667 2.79565 1.10742 0
M  V30 1219 C 126.215 2.88516 1.21357 0
M  V30 1220 C 126.69 4.30833 1.55393 0
M  V30 1221 N 128.181 4.33807 1.62375 0
M  V30 1222 C 128.916 5.40927 1.90225 0
M  V30 1223 N 128.412 6.58247 2.16062 0
M  V30 1224 N 130.205 5.28376 1.9177 0
M  V30 1225 H 122.356 2.10237 -0.302366 0
M  V30 1226 H 124.619 0.945203 -0.0727746 0
M  V30 1227 H 124.325 3.50208 0.323661 0
M  V30 1228 H 124.199 3.17125 2.04234 0
M  V30 1229 H 126.586 2.1809 1.98799 0
M  V30 1230 H 126.667 2.54492 0.258321 0
M  V30 1231 H 126.311 5.01799 0.784889 0
M  V30 1232 H 126.241 4.62347 2.52076 0
M  V30 1233 H 128.732 3.49212 1.44427 0
M  V30 1234 H 129.045 7.3569 2.36601 0
M  V30 1235 H 127.39 6.61413 2.13444 0
M  V30 1236 H 130.581 4.35715 1.71085 0
M  V30 1237 H 130.754 6.11944 2.13139 0
M  V30 1238 N 124.16 -0.719506 1.40217 0
M  V30 1239 C 125.407 -1.47933 1.38283 0
M  V30 1240 C 125.735 -1.94493 -0.0161536 0
M  V30 1241 O 124.99 -1.68224 -0.999956 0
M  V30 1242 C 125.289 -2.72271 2.31524 0
M  V30 1243 C 124.955 -2.44496 3.78857 0
M  V30 1244 C 123.617 -2.36631 4.18998 0
M  V30 1245 C 125.969 -2.21104 4.71977 0
M  V30 1246 C 123.297 -2.03437 5.503 0
M  V30 1247 C 125.649 -1.89423 6.03574 0
M  V30 1248 C 124.313 -1.80038 6.42762 0
M  V30 1249 H 123.583 -0.541325 0.506012 0
M  V30 1250 H 126.23 -0.824502 1.72842 0
M  V30 1251 H 124.535 -3.42572 1.90137 0
M  V30 1252 H 126.232 -3.30348 2.27313 0
M  V30 1253 H 122.822 -2.51503 3.47051 0
M  V30 1254 H 127.006 -2.26139 4.41786 0
M  V30 1255 H 122.262 -1.94705 5.79569 0
M  V30 1256 H 126.436 -1.70336 6.75247 0
M  V30 1257 H 124.063 -1.54083 7.44421 0
M  V30 1258 N 125.638 -1.25649 -0.95132 0
M  V30 1259 C 126.886 -1.10375 -1.69298 0
M  V30 1260 C 127.207 0.355339 -1.91735 0
M  V30 1261 O 126.477 1.25188 -1.50681 0
M  V30 1262 H 125.057 -0.405461 -0.627384 0
M  V30 1263 H 127.719 -1.57823 -1.14358 0
M  V30 1264 H 126.815 -1.61465 -2.67087 0
M  V30 1265 N 127.117 1.15442 -1.07289 0
M  V30 1266 C 128.357 1.8788 -0.805012 0
M  V30 1267 C 128.721 1.80413 0.656907 0
M  V30 1268 O 129.922 2.47874 1.0398 0
M  V30 1269 C 128.193 3.3298 -1.29843 0
M  V30 1270 S 129.752 4.23158 -1.16114 0
M  V30 1271 H 126.57 0.64839 -0.291739 0
M  V30 1272 H 129.172 1.39285 -1.37186 0
M  V30 1273 H 127.876 3.35958 -2.35712 0
M  V30 1274 H 127.407 3.86629 -0.726767 0
M  V30 1275 H 129.422 4.96103 -0.0982778 0
M  V30 1276 N 128.595 0.856903 1.32268 0
M  V30 1277 C 130.011 0.547061 1.49931 0
M  V30 1278 C 130.211 -0.921781 1.7918 0
M  V30 1279 O 129.267 -1.70469 1.8627 0
M  V30 1280 C 130.58 1.43599 2.64196 0
M  V30 1281 C 132.128 1.43665 2.78081 0
M  V30 1282 C 132.603 2.31085 3.95428 0
M  V30 1283 N 134.094 2.28893 4.02694 0
M  V30 1284 C 134.829 2.93262 4.92732 0
M  V30 1285 N 134.325 3.66751 5.87763 0
M  V30 1286 N 136.118 2.82638 4.85873 0
M  V30 1287 H 128.269 1.8075 1.11549 0
M  V30 1288 H 130.532 0.772144 0.549997 0
M  V30 1289 H 130.238 2.48058 2.49319 0
M  V30 1290 H 130.112 1.12502 3.60032 0
M  V30 1291 H 132.499 0.399701 2.92381 0
M  V30 1292 H 132.58 1.7878 1.82952 0
M  V30 1293 H 132.224 3.34849 3.81888 0
M  V30 1294 H 132.154 1.93302 4.89839 0
M  V30 1295 H 134.645 1.75466 3.34694 0
M  V30 1296 H 134.958 4.13027 6.53168 0
M  V30 1297 H 133.303 3.70859 5.87783 0
M  V30 1298 H 136.494 2.24774 4.10602 0
M  V30 1299 H 136.667 3.33084 5.55841 0
M  V30 1300 N 130.073 -1.45103 0.615059 0
M  V30 1301 C 131.484 -1.85654 0.197383 0
M  V30 1302 C 131.835 -1.51433 -1.24749 0
M  V30 1303 O 130.96 -0.944608 -1.94695 0
M  V30 1304 C 131.555 -3.36972 0.351448 0
M  V30 1305 C 130.114 -3.76398 -0.011593 0
M  V30 1306 C 129.261 -2.69024 0.672394 0
M  V30 1307 H 132.212 -1.35797 0.821263 0
M  V30 1308 H 132.233 -3.78239 -0.414227 0
M  V30 1309 H 131.745 -3.61847 1.40314 0
M  V30 1310 H 129.846 -3.5714 -1.06217 0
M  V30 1311 H 129.959 -4.77532 0.387265 0
M  V30 1312 H 128.323 -2.54465 0.109284 0
M  V30 1313 H 129.106 -2.96735 1.72636 0
M  V30 1314 N 131.551 -0.354651 -1.53558 0
M  V30 1315 C 132.797 0.238797 -2.01389 0
M  V30 1316 C 133.13 1.49309 -1.2418 0
M  V30 1317 O 132.405 1.91638 -0.332457 0
M  V30 1318 C 132.688 0.541771 -3.56001 0
M  V30 1319 C 132.541 -0.725388 -4.43912 0
M  V30 1320 C 133.86 1.34685 -4.18984 0
M  V30 1321 H 130.979 0.0853177 -0.732045 0
M  V30 1322 H 133.621 -0.477384 -1.83905 0
M  V30 1323 H 131.771 1.15189 -3.71031 0
M  V30 1324 H 133.443 -1.36313 -4.407 0
M  V30 1325 H 131.686 -1.34801 -4.12324 0
M  V30 1326 H 132.357 -0.468505 -5.50008 0
M  V30 1327 H 134.833 0.830837 -4.07721 0
M  V30 1328 H 133.709 1.52759 -5.27215 0
M  V30 1329 H 133.97 2.35221 -3.74331 0
M  V30 1330 N 133.029 1.57378 -0.0835403 0
M  V30 1331 C 133.962 2.09016 0.915833 0
M  V30 1332 C 134.94 0.997993 1.2837 0
M  V30 1333 O 136.124 1.27219 1.39096 0
M  V30 1334 C 133.251 2.55757 2.22049 0
M  V30 1335 C 132.297 3.76522 2.00333 0
M  V30 1336 S 133.13 5.20661 1.25191 0
M  V30 1337 C 134.286 5.70743 2.56912 0
M  V30 1338 H 134.519 2.93457 0.476492 0
M  V30 1339 H 132.052 1.53856 0.129493 0
M  V30 1340 H 134.01 2.83346 2.97027 0
M  V30 1341 H 132.671 1.71564 2.63106 0
M  V30 1342 H 131.864 4.07256 2.96916 0
M  V30 1343 H 131.466 3.49367 1.33488 0
M  V30 1344 H 133.758 5.78304 3.52946 0
M  V30 1345 H 134.701 6.6944 2.30772 0
M  V30 1346 H 135.109 4.98616 2.64655 0
M  V30 1347 N 134.507 -0.190092 1.56449 0
M  V30 1348 C 135.437 -1.23816 1.97969 0
M  V30 1349 C 136.418 -1.47201 0.852395 0
M  V30 1350 O 137.603 -1.58854 1.1171 0
M  V30 1351 C 134.733 -2.5813 2.3235 0
M  V30 1352 C 133.687 -2.49348 3.47864 0
M  V30 1353 C 133.013 -3.8798 3.67934 0
M  V30 1354 C 134.313 -2.01424 4.81898 0
M  V30 1355 H 136.007 -0.89311 2.85769 0
M  V30 1356 H 133.553 -0.428177 1.37487 0
M  V30 1357 H 135.506 -3.31637 2.59991 0
M  V30 1358 H 134.23 -2.94386 1.41438 0
M  V30 1359 H 132.889 -1.78297 3.20321 0
M  V30 1360 H 132.537 -4.21597 2.74344 0
M  V30 1361 H 132.237 -3.82978 4.45648 0
M  V30 1362 H 133.761 -4.63101 3.97957 0
M  V30 1363 H 135.175 -2.64693 5.08538 0
M  V30 1364 H 133.572 -2.07413 5.63116 0
M  V30 1365 H 134.642 -0.967677 4.75146 0
M  V30 1366 N 135.985 -1.50799 -0.457987 0
M  V30 1367 C 137.231 -1.62683 -1.21088 0
M  V30 1368 C 137.564 -0.332268 -1.91336 0
M  V30 1369 O 136.839 0.667043 -1.82704 0
M  V30 1370 C 137.122 -2.81615 -2.24422 0
M  V30 1371 C 136.975 -4.20989 -1.58392 0
M  V30 1372 C 138.294 -2.96085 -3.2561 0
M  V30 1373 H 135.413 -0.592087 -0.438864 0
M  V30 1374 H 138.055 -1.83225 -0.50286 0
M  V30 1375 H 136.205 -2.64231 -2.84806 0
M  V30 1376 H 137.877 -4.49994 -1.01504 0
M  V30 1377 H 136.12 -4.24641 -0.886704 0
M  V30 1378 H 136.791 -5.0016 -2.33547 0
M  V30 1379 H 139.267 -3.12042 -2.75262 0
M  V30 1380 H 138.143 -3.80902 -3.95228 0
M  V30 1381 H 138.404 -2.0726 -3.90507 0
M  V30 1382 N 137.463 0.71206 -1.40597 0
M  V30 1383 C 138.711 1.46907 -1.38791 0
M  V30 1384 C 139.032 1.94998 0.00780391 0
M  V30 1385 O 138.302 1.70587 0.963174 0
M  V30 1386 H 136.882 0.545043 -0.51082 0
M  V30 1387 H 139.544 0.843882 -1.75683 0
M  V30 1388 H 138.64 2.34021 -2.06496 0
M  V30 1389 N 138.941 1.26152 0.944643 0
M  V30 1390 C 140.189 1.11271 1.6871 0
M  V30 1391 C 140.51 -0.345166 1.91921 0
M  V30 1392 O 139.78 -1.24387 1.51343 0
M  V30 1393 H 138.36 0.408783 0.625224 0
M  V30 1394 H 141.022 1.58427 1.1352 0
M  V30 1395 H 140.118 1.62879 2.66227 0
M  V30 1396 N 140.419 -1.14872 1.07899 0
M  V30 1397 C 141.349 -2.2193 0.725887 0
M  V30 1398 C 142.33 -1.67622 -0.28927 0
M  V30 1399 O 143.515 -1.93533 -0.160787 0
M  V30 1400 C 140.645 -3.47061 0.128856 0
M  V30 1401 C 139.599 -4.14363 1.07178 0
M  V30 1402 C 138.925 -5.33636 0.337229 0
M  V30 1403 C 140.225 -4.63492 2.40775 0
M  V30 1404 H 141.919 -2.51724 1.62097 0
M  V30 1405 H 139.465 -1.20991 0.780838 0
M  V30 1406 H 141.418 -4.21199 -0.130147 0
M  V30 1407 H 140.142 -3.16617 -0.80134 0
M  V30 1408 H 138.801 -3.42173 1.3158 0
M  V30 1409 H 138.449 -4.99449 -0.596606 0
M  V30 1410 H 138.149 -5.79609 0.965788 0
M  V30 1411 H 139.673 -6.10539 0.0861567 0
M  V30 1412 H 141.087 -5.2913 2.20669 0
M  V30 1413 H 139.484 -5.20148 2.99276 0
M  V30 1414 H 140.554 -3.78834 3.02676 0
M  V30 1415 N 141.898 -0.863906 -1.31812 0
M  V30 1416 C 143.145 -0.471836 -1.96926 0
M  V30 1417 C 143.473 0.974578 -1.68322 0
M  V30 1418 O 142.728 1.7003 -0.968933 0
M  V30 1419 C 143.027 -0.668547 -3.51091 0
M  V30 1420 C 142.693 -2.08683 -3.99703 0
M  V30 1421 C 141.355 -2.47471 -4.12688 0
M  V30 1422 C 143.707 -3.01207 -4.25351 0
M  V30 1423 C 141.035 -3.78037 -4.4867 0
M  V30 1424 C 143.387 -4.31282 -4.62794 0
M  V30 1425 C 142.051 -4.69992 -4.73987 0
M  V30 1426 H 141.321 -0.172657 -0.720604 0
M  V30 1427 H 143.968 -1.09573 -1.57054 0
M  V30 1428 H 142.273 0.0385252 -3.91781 0
M  V30 1429 H 143.97 -0.345102 -3.99512 0
M  V30 1430 H 140.56 -1.77566 -3.90087 0
M  V30 1431 H 144.744 -2.72469 -4.14819 0
M  V30 1432 H 140 -4.078 -4.55532 0
M  V30 1433 H 144.174 -5.03031 -4.81594 0
M  V30 1434 H 141.801 -5.71207 -5.01624 0
M  V30 1435 N 143.376 1.44774 -0.622745 0
M  V30 1436 C 144.339 2.29069 0.0774015 0
M  V30 1437 C 145.339 1.4059 0.780461 0
M  V30 1438 O 146.529 1.62551 0.626322 0
M  V30 1439 C 143.661 3.21974 1.12006 0
M  V30 1440 H 144.854 2.92459 -0.663901 0
M  V30 1441 H 142.407 1.51548 -0.382486 0
M  V30 1442 H 143.142 2.63417 1.89162 0
M  V30 1443 H 142.927 3.87168 0.619951 0
M  V30 1444 H 144.417 3.85318 1.60995 0
M  V30 1445 N 144.854 0.36279 1.53368 0
M  V30 1446 C 146.079 -0.231226 2.06107 0
M  V30 1447 C 146.504 -1.419 1.23474 0
M  V30 1448 O 145.862 -1.79524 0.253128 0
M  V30 1449 C 145.91 -0.605523 3.5548 0
M  V30 1450 O 145.014 -1.70312 3.7559 0
M  V30 1451 H 144.355 -0.034327 0.663112 0
M  V30 1452 H 146.885 0.522584 1.97814 0
M  V30 1453 H 146.895 -0.877314 3.98456 0
M  V30 1454 H 145.57 0.263004 4.15068 0
M  V30 1455 H 144.147 -1.4271 3.44512 0
M  V30 1456 N 146.332 -1.57332 0.0918853 0
M  V30 1457 C 147.262 -2.16872 -0.865371 0
M  V30 1458 C 148.243 -1.10118 -1.29646 0
M  V30 1459 O 149.428 -1.38242 -1.36392 0
M  V30 1460 C 146.558 -2.74649 -2.12569 0
M  V30 1461 C 145.512 -3.86747 -1.83333 0
M  V30 1462 C 144.838 -4.31212 -3.16166 0
M  V30 1463 C 146.138 -5.10089 -1.1228 0
M  V30 1464 H 147.832 -2.97114 -0.369307 0
M  V30 1465 H 145.378 -1.42918 -0.176194 0
M  V30 1466 H 147.331 -3.14952 -2.7997 0
M  V30 1467 H 146.055 -1.91657 -2.64452 0
M  V30 1468 H 144.714 -3.46978 -1.18331 0
M  V30 1469 H 144.362 -3.45115 -3.6593 0
M  V30 1470 H 144.062 -5.06788 -2.97388 0
M  V30 1471 H 145.586 -4.74146 -3.84731 0
M  V30 1472 H 147 -5.47582 -1.69785 0
M  V30 1473 H 145.397 -5.91073 -1.03693 0
M  V30 1474 H 146.467 -4.84786 -0.105041 0
M  V30 1475 N 147.81 0.181792 -1.56548 0
M  V30 1476 C 149.058 0.89832 -1.81038 0
M  V30 1477 C 149.379 1.83232 -0.667164 0
M  V30 1478 O 148.649 1.93372 0.313673 0
M  V30 1479 H 147.229 0.33471 -0.667816 0
M  V30 1480 H 149.891 0.184116 -1.94028 0
M  V30 1481 H 148.987 1.4815 -2.74696 0
M  V30 1482 N 149.288 1.51039 0.449983 0
M  V30 1483 C 150.221 1.66105 1.56474 0
M  V30 1484 C 151.199 0.508776 1.54435 0
M  V30 1485 O 152.383 0.731005 1.73749 0
M  V30 1486 C 149.51 1.66304 2.9506 0
M  V30 1487 C 148.556 2.87346 3.15174 0
M  V30 1488 S 149.389 4.4835 2.92818 0
M  V30 1489 C 150.545 4.51274 4.33708 0
M  V30 1490 H 150.778 2.60397 1.43459 0
M  V30 1491 H 148.311 1.40565 0.638805 0
M  V30 1492 H 150.269 1.67103 3.74949 0
M  V30 1493 H 148.93 0.732108 3.05449 0
M  V30 1494 H 148.123 2.83849 4.16468 0
M  V30 1495 H 147.725 2.84223 2.43091 0
M  V30 1496 H 150.017 4.26136 5.26701 0
M  V30 1497 H 150.96 5.53017 4.42242 0
M  V30 1498 H 151.368 3.80738 4.16772 0
M  V30 1499 N 150.766 -0.704594 1.40972 0
M  V30 1500 C 152.012 -1.46675 1.40051 0
M  V30 1501 C 152.345 -1.94199 0.00641102 0
M  V30 1502 O 151.62 -1.68916 -0.964235 0
M  V30 1503 C 151.903 -2.68505 2.39952 0
M  V30 1504 C 151.756 -2.26805 3.88432 0
M  V30 1505 C 153.075 -3.70686 2.37233 0
M  V30 1506 H 150.194 -0.532015 0.510028 0
M  V30 1507 H 152.836 -0.803255 1.72185 0
M  V30 1508 H 150.986 -3.25114 2.1268 0
M  V30 1509 H 152.658 -1.75592 4.26574 0
M  V30 1510 H 150.901 -1.58685 4.03734 0
M  V30 1511 H 151.572 -3.14181 4.53866 0
M  V30 1512 H 154.048 -3.23731 2.61415 0
M  V30 1513 H 152.924 -4.53553 3.09162 0
M  V30 1514 H 153.185 -4.19754 1.38777 0
M  V30 1515 N 152.244 -1.26651 -0.937939 0
M  V30 1516 C 153.207 -1.08546 -2.01867 0
M  V30 1517 C 154.207 -0.0327327 -1.60767 0
M  V30 1518 O 155.397 -0.276427 -1.71993 0
M  V30 1519 C 152.529 -0.651711 -3.34613 0
M  V30 1520 H 153.722 -2.04502 -2.1936 0
M  V30 1521 H 151.275 -1.09294 -1.11734 0
M  V30 1522 H 152.01 0.309696 -3.22818 0
M  V30 1523 H 151.795 -1.41189 -3.65798 0
M  V30 1524 H 153.285 -0.546973 -4.14002 0
M  V30 1525 N 153.722 1.14298 -1.08507 0
M  V30 1526 C 154.685 2.17607 -0.719711 0
M  V30 1527 C 155.685 1.58907 0.245997 0
M  V30 1528 O 156.875 1.74181 0.0254081 0
M  V30 1529 C 154.007 3.40842 -0.0627695 0
M  V30 1530 H 155.2 2.51443 -1.63452 0
M  V30 1531 H 152.753 1.28963 -0.88307 0
M  V30 1532 H 153.488 3.12587 0.863716 0
M  V30 1533 H 153.273 3.84713 -0.757504 0
M  V30 1534 H 154.763 4.17221 0.177786 0
M  V30 1535 N 155.201 0.870884 1.31352 0
M  V30 1536 C 156.426 0.495957 2.01383 0
M  V30 1537 C 156.851 -0.904324 1.64935 0
M  V30 1538 O 156.209 -1.59687 0.858466 0
M  V30 1539 C 156.257 0.661433 3.54482 0
M  V30 1540 O 155.361 -0.298851 4.11316 0
M  V30 1541 H 154.702 0.197158 0.634054 0
M  V30 1542 H 157.232 1.17455 1.67527 0
M  V30 1543 H 157.242 0.555072 4.04207 0
M  V30 1544 H 155.917 1.68246 3.8035 0
M  V30 1545 H 154.494 -0.147368 3.72609 0
M  V30 1546 N 156.679 -1.44442 0.630414 0
M  V30 1547 C 157.926 -2.02052 0.134617 0
M  V30 1548 C 158.254 -1.49576 -1.24327 0
M  V30 1549 O 157.509 -0.669806 -1.83881 0
M  V30 1550 C 157.808 -3.57332 0.0697835 0
M  V30 1551 C 157.474 -4.29058 1.38635 0
M  V30 1552 C 156.136 -4.4837 1.74694 0
M  V30 1553 C 158.488 -4.69872 2.25543 0
M  V30 1554 C 155.816 -5.05756 2.97369 0
M  V30 1555 C 158.168 -5.28616 3.47487 0
M  V30 1556 C 156.832 -5.46147 3.8377 0
M  V30 1557 H 156.102 -0.739361 0.0492598 0
M  V30 1558 H 158.749 -1.73217 0.816586 0
M  V30 1559 H 157.054 -3.85577 -0.695553 0
M  V30 1560 H 158.751 -3.99637 -0.330344 0
M  V30 1561 H 155.341 -4.14357 1.09574 0
M  V30 1562 H 159.525 -4.54666 1.98979 0
M  V30 1563 H 154.781 -5.17515 3.25558 0
M  V30 1564 H 158.955 -5.59192 4.15063 0
M  V30 1565 H 156.582 -5.9038 4.7891 0
M  V30 1566 N 158.157 -0.370918 -1.53173 0
M  V30 1567 C 159.397 0.217106 -2.03244 0
M  V30 1568 C 159.761 1.45558 -1.25207 0
M  V30 1569 O 160.962 2.11957 -1.65311 0
M  V30 1570 C 159.233 0.496664 -3.53932 0
M  V30 1571 S 160.792 1.0576 -4.25864 0
M  V30 1572 H 157.61 0.0627827 -0.708223 0
M  V30 1573 H 160.212 -0.515019 -1.88594 0
M  V30 1574 H 158.916 -0.412096 -4.08326 0
M  V30 1575 H 158.447 1.25772 -3.72753 0
M  V30 1576 H 160.462 2.34145 -4.37482 0
M  V30 1577 N 159.635 1.57281 -0.100228 0
M  V30 1578 C 161.051 1.57527 0.256416 0
M  V30 1579 C 161.251 1.11173 1.68056 0
M  V30 1580 O 160.307 0.79053 2.39806 0
M  V30 1581 C 161.62 3.00673 0.0401747 0
M  V30 1582 C 163.168 3.12815 0.107528 0
M  V30 1583 C 163.643 4.57929 -0.0807834 0
M  V30 1584 N 165.134 4.63193 -0.0261207 0
M  V30 1585 C 165.869 5.73212 -0.146999 0
M  V30 1586 N 165.365 6.92047 -0.322999 0
M  V30 1587 N 167.158 5.62031 -0.0879044 0
M  V30 1588 H 159.309 1.85718 -1.03065 0
M  V30 1589 H 161.572 0.857446 -0.404339 0
M  V30 1590 H 161.278 3.38804 -0.943649 0
M  V30 1591 H 161.152 3.69042 0.780262 0
M  V30 1592 H 163.539 2.74554 1.08186 0
M  V30 1593 H 163.62 2.47028 -0.664134 0
M  V30 1594 H 163.264 4.96886 -1.05201 0
M  V30 1595 H 163.194 5.21783 0.710635 0
M  V30 1596 H 165.685 3.77748 0.107161 0
M  V30 1597 H 165.998 7.7173 -0.406608 0
M  V30 1598 H 164.343 6.94074 -0.358733 0
M  V30 1599 H 167.534 4.68075 0.048498 0
M  V30 1600 H 167.707 6.47734 -0.185557 0
M  V30 1601 N 161.113 -0.173488 1.56642 0
M  V30 1602 C 162.338 -0.910149 1.86363 0
M  V30 1603 C 162.763 -1.75132 0.686318 0
M  V30 1604 O 162.121 -1.77595 -0.364643 0
M  V30 1605 C 162.169 -1.76447 3.14482 0
M  V30 1606 O 161.273 -2.86584 2.96553 0
M  V30 1607 H 160.614 -0.255086 0.613047 0
M  V30 1608 H 163.144 -0.172283 2.03873 0
M  V30 1609 H 163.154 -2.16483 3.45831 0
M  V30 1610 H 161.829 -1.14658 3.99783 0
M  V30 1611 H 160.406 -2.50146 2.76553 0
M  V30 1612 N 162.591 -1.51276 -0.441967 0
M  V30 1613 C 163.84 -1.6295 -1.18871 0
M  V30 1614 C 164.153 -0.349312 -1.92456 0
M  V30 1615 O 165.359 -0.345355 -2.69295 0
M  V30 1616 C 163.815 -2.87759 -2.16155 0
M  V30 1617 C 163.423 -4.22764 -1.48239 0
M  V30 1618 C 165.167 -3.08788 -2.91291 0
M  V30 1619 C 163.074 -5.38728 -2.4398 0
M  V30 1620 H 162.004 -0.606913 -0.447406 0
M  V30 1621 H 164.655 -1.77739 -0.456205 0
M  V30 1622 H 163.037 -2.66593 -2.92821 0
M  V30 1623 H 164.211 -4.54293 -0.771635 0
M  V30 1624 H 162.526 -4.07575 -0.852741 0
M  V30 1625 H 165.123 -3.92599 -3.63002 0
M  V30 1626 H 165.466 -2.21679 -3.5237 0
M  V30 1627 H 165.999 -3.30272 -2.21733 0
M  V30 1628 H 162.738 -6.28082 -1.87598 0
M  V30 1629 H 162.258 -5.1158 -3.13123 0
M  V30 1630 H 163.937 -5.70489 -3.05207 0
M  V30 1631 N 164.069 0.697108 -1.41344 0
M  V30 1632 C 165.318 1.45279 -1.39918 0
M  V30 1633 C 165.631 1.95597 -0.0109624 0
M  V30 1634 O 166.837 2.71208 0.125919 0
M  V30 1635 C 165.293 2.62695 -2.46007 0
M  V30 1636 C 164.901 2.19169 -3.90729 0
M  V30 1637 C 166.645 3.40336 -2.53715 0
M  V30 1638 C 164.552 3.33535 -4.88373 0
M  V30 1639 H 163.482 0.545692 -0.520323 0
M  V30 1640 H 166.133 0.756929 -1.67161 0
M  V30 1641 H 164.515 3.34541 -2.11892 0
M  V30 1642 H 165.689 1.54623 -4.34083 0
M  V30 1643 H 164.004 1.54525 -3.86666 0
M  V30 1644 H 166.601 4.2547 -3.2385 0
M  V30 1645 H 166.944 3.85418 -1.5735 0
M  V30 1646 H 167.477 2.75546 -2.86913 0
M  V30 1647 H 164.216 2.93468 -5.86137 0
M  V30 1648 H 163.736 3.96936 -4.49668 0
M  V30 1649 H 165.415 3.99335 -5.09059 0
M  V30 1650 N 165.547 1.27147 0.931209 0
M  V30 1651 C 166.479 1.05364 2.03546 0
M  V30 1652 C 167.492 0.0108438 1.62796 0
M  V30 1653 O 168.681 0.25202 1.76712 0
M  V30 1654 C 165.781 0.575566 3.33977 0
M  V30 1655 C 164.954 1.68985 4.03439 0
M  V30 1656 C 164.013 1.20813 5.12143 0
M  V30 1657 O 163.039 1.90712 5.363 0
M  V30 1658 N 164.241 0.0618851 5.80467 0
M  V30 1659 H 167.006 2.00454 2.22796 0
M  V30 1660 H 164.567 1.18666 1.10136 0
M  V30 1661 H 166.559 0.237264 4.04004 0
M  V30 1662 H 165.129 -0.282016 3.11325 0
M  V30 1663 H 164.349 2.19861 3.27192 0
M  V30 1664 H 165.637 2.4378 4.46597 0
M  V30 1665 H 165.035 -0.521621 5.6329 0
M  V30 1666 H 163.592 -0.217264 6.51438 0
M  V30 1667 N 167.025 -1.13721 1.09112 0
M  V30 1668 C 168.271 -1.85198 0.826414 0
M  V30 1669 C 168.604 -1.83129 -0.646319 0
M  V30 1670 O 167.879 -1.2671 -1.47563 0
M  V30 1671 C 168.162 -3.33507 1.35812 0
M  V30 1672 C 168.015 -3.44108 2.89672 0
M  V30 1673 C 169.334 -4.28838 0.989256 0
M  V30 1674 H 166.453 -0.67243 0.301675 0
M  V30 1675 H 169.095 -1.33499 1.35197 0
M  V30 1676 H 167.245 -3.77666 0.911082 0
M  V30 1677 H 168.917 -3.08684 3.428 0
M  V30 1678 H 167.16 -2.85087 3.26967 0
M  V30 1679 H 167.831 -4.48388 3.21951 0
M  V30 1680 H 170.307 -3.92734 1.37475 0
M  V30 1681 H 169.183 -5.31051 1.38838 0
M  V30 1682 H 169.444 -4.4198 -0.102924 0
M  V30 1683 N 168.503 -0.877838 -1.30888 0
M  V30 1684 C 169.733 -0.506678 -2.00291 0
M  V30 1685 C 170.141 0.907449 -1.66018 0
M  V30 1686 O 169.484 1.60719 -0.88967 0
M  V30 1687 C 169.546 -0.59323 -3.54572 0
M  V30 1688 C 169.21 -1.97038 -4.12341 0
M  V30 1689 C 170.207 -2.93889 -4.28865 0
M  V30 1690 C 167.892 -2.27383 -4.47886 0
M  V30 1691 C 169.886 -4.19224 -4.80136 0
M  V30 1692 C 167.573 -3.52965 -4.98857 0
M  V30 1693 C 168.571 -4.48701 -5.14934 0
M  V30 1694 O 168.259 -5.72056 -5.64808 0
M  V30 1695 H 167.991 -0.1951 -0.647234 0
M  V30 1696 H 170.545 -1.18301 -1.6791 0
M  V30 1697 H 168.775 0.140057 -3.86446 0
M  V30 1698 H 170.464 -0.234372 -4.05223 0
M  V30 1699 H 171.23 -2.71756 -4.01714 0
M  V30 1700 H 167.109 -1.53639 -4.34645 0
M  V30 1701 H 170.653 -4.93956 -4.92599 0
M  V30 1702 H 166.55 -3.74939 -5.25443 0
M  V30 1703 H 167.318 -5.74337 -5.83163 0
M  V30 1704 N 169.982 1.44106 -0.638065 0
M  V30 1705 C 170.912 2.33448 0.0494287 0
M  V30 1706 C 171.893 1.48606 0.827672 0
M  V30 1707 O 173.078 1.77308 0.792173 0
M  V30 1708 C 170.208 3.31771 1.02691 0
M  V30 1709 C 169.162 4.26485 0.359823 0
M  V30 1710 C 168.488 5.14729 1.44769 0
M  V30 1711 C 169.788 5.17056 -0.738296 0
M  V30 1712 H 171.482 2.91183 -0.696636 0
M  V30 1713 H 169.028 1.40014 -0.336456 0
M  V30 1714 H 170.981 3.93161 1.51666 0
M  V30 1715 H 169.705 2.7226 1.80395 0
M  V30 1716 H 168.364 3.66437 -0.10934 0
M  V30 1717 H 168.012 4.51566 2.21578 0
M  V30 1718 H 167.712 5.78913 1.00668 0
M  V30 1719 H 169.236 5.78991 1.93911 0
M  V30 1720 H 170.65 5.72342 -0.331354 0
M  V30 1721 H 169.047 5.89879 -1.10286 0
M  V30 1722 H 170.117 4.57652 -1.60258 0
M  V30 1723 N 171.46 0.379036 1.52974 0
M  V30 1724 C 172.688 -0.20679 2.05864 0
M  V30 1725 C 173.103 -1.41356 1.25155 0
M  V30 1726 O 172.46 -1.8009 0.295588 0
M  V30 1727 C 172.511 -0.587045 3.56702 0
M  V30 1728 O 172.232 0.571776 4.34353 0
M  V30 1729 C 173.733 -1.22983 4.25899 0
M  V30 1730 H 170.953 -0.0336123 0.670158 0
M  V30 1731 H 173.497 0.541298 1.97206 0
M  V30 1732 H 171.652 -1.28504 3.65466 0
M  V30 1733 H 172.066 0.261544 5.23847 0
M  V30 1734 H 173.54 -1.44635 5.32715 0
M  V30 1735 H 174.017 -2.19416 3.80465 0
M  V30 1736 H 174.623 -0.572892 4.21424 0
M  V30 1737 N 172.938 -1.57226 0.108567 0
M  V30 1738 C 174.166 -1.99179 -0.559954 0
M  V30 1739 C 174.581 -0.988022 -1.60884 0
M  V30 1740 O 173.938 0.0205512 -1.82488 0
M  V30 1741 C 173.989 -3.41159 -1.19552 0
M  V30 1742 O 173.71 -4.37694 -0.188577 0
M  V30 1743 C 175.211 -3.98188 -1.94837 0
M  V30 1744 H 172.431 -0.654228 -0.149088 0
M  V30 1745 H 174.975 -2.03598 0.19183 0
M  V30 1746 H 173.13 -3.37711 -1.89815 0
M  V30 1747 H 173.544 -5.20469 -0.649014 0
M  V30 1748 H 175.018 -4.99644 -2.34648 0
M  V30 1749 H 175.495 -3.3675 -2.81951 0
M  V30 1750 H 176.101 -4.0515 -1.2936 0
M  V30 1751 N 174.416 0.165178 -1.56732 0
M  V30 1752 C 175.664 0.879068 -1.8198 0
M  V30 1753 C 175.985 1.82514 -0.686561 0
M  V30 1754 O 175.255 1.93694 0.293146 0
M  V30 1755 H 173.835 0.327608 -0.671329 0
M  V30 1756 H 176.497 0.163526 -1.94213 0
M  V30 1757 H 175.593 1.45228 -2.76252 0
M  V30 1758 N 175.894 1.51508 0.433938 0
M  V30 1759 C 177.14 1.64588 1.18484 0
M  V30 1760 C 177.473 0.362666 1.90784 0
M  V30 1761 O 176.748 -0.637892 1.83742 0
M  V30 1762 C 177.031 2.85149 2.19913 0
M  V30 1763 C 176.884 4.23456 1.51674 0
M  V30 1764 C 178.203 3.01227 3.20858 0
M  V30 1765 H 175.322 0.598994 0.429389 0
M  V30 1766 H 177.964 1.84002 0.473647 0
M  V30 1767 H 176.114 2.68729 2.80566 0
M  V30 1768 H 177.786 4.51552 0.943322 0
M  V30 1769 H 176.029 4.25998 0.819035 0
M  V30 1770 H 176.7 5.03812 2.2556 0
M  V30 1771 H 179.176 3.16382 2.70263 0
M  V30 1772 H 178.052 3.87141 3.89118 0
M  V30 1773 H 178.313 2.13447 3.8716 0
M  V30 1774 N 177.372 -0.689602 1.41712 0
M  V30 1775 C 178.621 -1.44534 1.40686 0
M  V30 1776 C 178.934 -1.95588 0.0213352 0
M  V30 1777 O 180.14 -2.71271 -0.111534 0
M  V30 1778 C 178.596 -2.61387 2.47396 0
M  V30 1779 C 178.204 -2.17094 3.91885 0
M  V30 1780 C 179.948 -3.38986 2.55517 0
M  V30 1781 C 177.855 -3.3094 4.90135 0
M  V30 1782 H 176.785 -0.542925 0.52321 0
M  V30 1783 H 179.436 -0.748054 1.6756 0
M  V30 1784 H 177.818 -3.33412 2.13664 0
M  V30 1785 H 178.992 -1.52318 4.34897 0
M  V30 1786 H 177.307 -1.52473 3.8748 0
M  V30 1787 H 179.904 -4.23747 3.26102 0
M  V30 1788 H 180.247 -3.84578 1.59391 0
M  V30 1789 H 180.78 -2.74021 2.8837 0
M  V30 1790 H 177.519 -2.90355 5.87685 0
M  V30 1791 H 177.039 -3.94546 4.51767 0
M  V30 1792 H 178.718 -3.9663 5.11169 0
M  V30 1793 N 178.85 -1.27639 -0.924453 0
M  V30 1794 C 180.078 -1.16989 -1.70649 0
M  V30 1795 C 180.493 0.272869 -1.86818 0
M  V30 1796 O 179.85 1.18549 -1.38753 0
M  V30 1797 C 179.901 -1.85229 -3.10439 0
M  V30 1798 O 179.622 -3.23868 -2.95028 0
M  V30 1799 C 181.123 -1.80746 -4.04779 0
M  V30 1800 H 178.343 -0.406595 -0.53378 0
M  V30 1801 H 180.887 -1.68569 -1.15778 0
M  V30 1802 H 179.042 -1.37545 -3.6216 0
M  V30 1803 H 179.456 -3.57889 -3.83426 0
M  V30 1804 H 180.93 -2.33101 -5.00368 0
M  V30 1805 H 181.407 -0.777499 -4.32263 0
M  V30 1806 H 182.013 -2.28059 -3.58984 0
M  V30 1807 N 180.328 1.1314 -1.09713 0
M  V30 1808 C 181.576 1.84119 -0.833338 0
M  V30 1809 C 181.897 1.84097 0.642904 0
M  V30 1810 O 181.167 1.29881 1.46655 0
M  V30 1811 H 179.747 0.681766 -0.305293 0
M  V30 1812 H 182.409 1.37038 -1.38588 0
M  V30 1813 H 181.505 2.88543 -1.18951 0
M  V30 1814 N 181.806 0.884767 1.30421 0
M  V30 1815 C 182.736 0.367574 2.30589 0
M  V30 1816 C 183.717 -0.549464 1.60981 0
M  V30 1817 O 184.902 -0.46336 1.88591 0
M  V30 1818 C 182.032 -0.418944 3.44764 0
M  V30 1819 C 180.986 0.406316 4.26067 0
M  V30 1820 C 180.312 -0.506793 5.32293 0
M  V30 1821 C 181.612 1.64832 4.95608 0
M  V30 1822 H 183.306 1.20462 2.74097 0
M  V30 1823 H 180.852 0.580695 1.31772 0
M  V30 1824 H 182.805 -0.791395 4.13902 0
M  V30 1825 H 181.529 -1.28964 3.0006 0
M  V30 1826 H 180.188 0.760903 3.58617 0
M  V30 1827 H 179.836 -1.37519 4.83836 0
M  V30 1828 H 179.536 0.0415828 5.87585 0
M  V30 1829 H 181.06 -0.875764 6.04287 0
M  V30 1830 H 182.474 1.34646 5.57264 0
M  V30 1831 H 180.871 2.13688 5.60765 0
M  V30 1832 H 181.941 2.39284 4.21748 0
M  V30 1833 N 183.284 -1.43765 0.645699 0
M  V30 1834 C 184.532 -2.01499 0.155731 0
M  V30 1835 C 184.853 -1.51151 -1.232 0
M  V30 1836 O 184.123 -0.721044 -1.82148 0
M  V30 1837 H 182.703 -0.745003 0.0545817 0
M  V30 1838 H 185.365 -1.76075 0.835677 0
M  V30 1839 H 184.461 -3.1181 0.134577 0
M  V30 1840 N 184.763 -0.387143 -1.52771 0
M  V30 1841 C 185.693 0.440551 -2.29306 0
M  V30 1842 C 186.674 1.06535 -1.32606 0
M  V30 1843 O 187.859 1.07853 -1.61497 0
M  V30 1844 C 184.989 1.56919 -3.09829 0
M  V30 1845 C 183.943 1.07054 -4.14395 0
M  V30 1846 C 183.269 2.29109 -4.83129 0
M  V30 1847 C 184.569 0.140015 -5.22112 0
M  V30 1848 H 186.263 -0.198026 -2.98744 0
M  V30 1849 H 183.809 -0.09668 -1.43675 0
M  V30 1850 H 185.762 2.15503 -3.62128 0
M  V30 1851 H 184.486 2.23532 -2.3812 0
M  V30 1852 H 183.145 0.507247 -3.63074 0
M  V30 1853 H 182.793 2.94227 -4.0797 0
M  V30 1854 H 182.493 1.96406 -5.53804 0
M  V30 1855 H 184.017 2.88339 -5.38231 0
M  V30 1856 H 185.431 0.633978 -5.69784 0
M  V30 1857 H 183.828 -0.0971485 -6.00021 0
M  V30 1858 H 184.898 -0.811711 -4.78058 0
M  V30 1859 N 186.241 1.57166 -0.116904 0
M  V30 1860 C 187.204 2.14039 0.819742 0
M  V30 1861 C 188.204 1.07477 1.19605 0
M  V30 1862 O 189.394 1.33263 1.1219 0
M  V30 1863 C 186.526 2.67891 2.10826 0
M  V30 1864 H 187.719 2.98128 0.325511 0
M  V30 1865 H 185.272 1.55739 0.132312 0
M  V30 1866 H 186.007 1.87384 2.64685 0
M  V30 1867 H 185.792 3.45823 1.84793 0
M  V30 1868 H 187.282 3.11809 2.77785 0
M  V30 1869 N 187.719 -0.156864 1.56817 0
M  V30 1870 C 188.649 -1.19589 2.00551 0
M  V30 1871 C 189.63 -1.4536 0.883426 0
M  V30 1872 O 190.815 -1.56449 1.15054 0
M  V30 1873 C 187.945 -2.53143 2.37773 0
M  V30 1874 C 186.899 -2.41913 3.53075 0
M  V30 1875 C 186.225 -3.80088 3.76081 0
M  V30 1876 C 187.525 -1.91157 4.86062 0
M  V30 1877 H 189.219 -0.832293 2.87599 0
M  V30 1878 H 186.765 -0.398918 1.38364 0
M  V30 1879 H 188.718 -3.26047 2.66967 0
M  V30 1880 H 187.442 -2.91319 1.4765 0
M  V30 1881 H 186.101 -1.71462 3.24031 0
M  V30 1882 H 185.749 -4.15683 2.83225 0
M  V30 1883 H 185.449 -3.73439 4.53671 0
M  V30 1884 H 186.973 -4.54556 4.0769 0
M  V30 1885 H 188.387 -2.53846 5.14038 0
M  V30 1886 H 186.784 -1.95422 5.67389 0
M  V30 1887 H 187.854 -0.866673 4.77092 0
M  V30 1888 N 189.197 -1.51736 -0.425897 0
M  V30 1889 C 190.145 -1.74464 -1.53834 0
M  V30 1890 C 191.139 -0.611241 -1.57988 0
M  V30 1891 O 192.345 -0.792899 -1.61596 0
M  V30 1892 H 188.72 -0.551437 -0.511293 0
M  V30 1893 H 190.691 -2.67694 -1.31843 0
M  V30 1894 C 189.44 -1.8972 -2.91379 0
M  V30 1895 H 188.763 -2.76344 -2.88919 0
M  V30 1896 H 190.203 -2.09629 -3.68553 0
M  V30 1897 C 188.662 -0.65992 -3.30374 0
M  V30 1898 O 189.192 0.180083 -4.01296 0
M  V30 1899 N 187.398 -0.500677 -2.86254 0
M  V30 1900 H 186.945 -1.18532 -2.28709 0
M  V30 1901 H 186.903 0.325903 -3.12706 0
M  V30 1902 N 190.675 0.682077 -1.42076 0
M  V30 1903 C 191.922 1.44215 -1.42156 0
M  V30 1904 C 192.25 1.94468 -0.0354186 0
M  V30 1905 O 191.505 1.70816 0.955002 0
M  V30 1906 C 191.804 2.66036 -2.38662 0
M  V30 1907 C 191.47 2.34366 -3.85206 0
M  V30 1908 C 190.132 2.25439 -4.25124 0
M  V30 1909 C 192.484 2.08513 -4.77673 0
M  V30 1910 C 189.812 1.88775 -5.55501 0
M  V30 1911 C 192.164 1.73354 -6.08384 0
M  V30 1912 C 190.828 1.62933 -6.47309 0
M  V30 1913 H 190.098 0.527718 -0.520187 0
M  V30 1914 H 192.745 0.778387 -1.74967 0
M  V30 1915 H 191.05 3.3741 -1.99152 0
M  V30 1916 H 192.747 3.24205 -2.35991 0
M  V30 1917 H 189.337 2.42213 -3.53597 0
M  V30 1918 H 193.521 2.14346 -4.47626 0
M  V30 1919 H 188.777 1.7927 -5.84527 0
M  V30 1920 H 192.951 1.52373 -6.79526 0
M  V30 1921 H 190.578 1.34292 -7.48244 0
M  V30 1922 N 192.153 1.28127 0.917671 0
M  V30 1923 C 193.085 1.07517 2.02417 0
M  V30 1924 C 194.098 0.0281099 1.62776 0
M  V30 1925 O 195.287 0.270748 1.76435 0
M  V30 1926 C 192.387 0.610957 3.33347 0
M  V30 1927 C 191.56 1.73255 4.01624 0
M  V30 1928 C 190.619 1.26238 5.10833 0
M  V30 1929 O 189.645 1.96389 5.34247 0
M  V30 1930 N 190.847 0.123448 5.80369 0
M  V30 1931 H 193.612 2.02806 2.20658 0
M  V30 1932 H 191.173 1.19827 1.08871 0
M  V30 1933 H 193.165 0.280101 4.0373 0
M  V30 1934 H 191.735 -0.24898 3.11607 0
M  V30 1935 H 190.955 2.23319 3.24842 0
M  V30 1936 H 192.243 2.48503 4.43986 0
M  V30 1937 H 191.641 -0.461847 5.63812 0
M  V30 1938 H 190.198 -0.148158 6.51632 0
M  V30 1939 N 193.631 -1.12557 1.10312 0
M  V30 1940 C 195.042 -1.65574 0.862678 0
M  V30 1941 C 195.393 -1.86566 -0.607256 0
M  V30 1942 O 194.518 -1.59121 -1.46662 0
M  V30 1943 C 195.113 -3.00776 1.55947 0
M  V30 1944 C 193.672 -3.50748 1.36576 0
M  V30 1945 C 192.819 -2.25797 1.60968 0
M  V30 1946 H 195.77 -0.963552 1.26101 0
M  V30 1947 H 195.791 -3.67185 0.997753 0
M  V30 1948 H 195.303 -2.85465 2.62928 0
M  V30 1949 H 193.404 -3.71245 0.317531 0
M  V30 1950 H 193.517 -4.30289 2.10686 0
M  V30 1951 H 191.881 -2.32841 1.03234 0
M  V30 1952 H 192.664 -2.13043 2.69198 0
M  V30 1953 N 195.109 -0.891671 -1.2995 0
M  V30 1954 C 196.334 -0.527932 -2.00568 0
M  V30 1955 C 196.759 0.877969 -1.66353 0
M  V30 1956 O 196.117 1.58301 -0.883762 0
M  V30 1957 C 196.165 -0.717745 -3.53385 0
M  V30 1958 O 195.269 0.233376 -4.11739 0
M  V30 1959 H 194.61 -0.20722 -0.630837 0
M  V30 1960 H 197.14 -1.20105 -1.65638 0
M  V30 1961 H 197.15 -0.619307 -4.03272 0
M  V30 1962 H 195.825 -1.74276 -3.77625 0
M  V30 1963 H 194.402 0.0880706 -3.72796 0
M  V30 1964 N 196.587 1.43421 -0.653314 0
M  V30 1965 C 197.517 2.33487 0.0246656 0
M  V30 1966 C 198.498 1.49475 0.811863 0
M  V30 1967 O 199.683 1.78139 0.773322 0
M  V30 1968 C 196.813 3.32841 0.99166 0
M  V30 1969 C 195.767 4.26842 0.314568 0
M  V30 1970 C 195.093 5.16236 1.39302 0
M  V30 1971 C 196.393 5.16243 -0.793095 0
M  V30 1972 H 198.087 2.90427 -0.727481 0
M  V30 1973 H 195.633 1.39649 -0.351287 0
M  V30 1974 H 197.586 3.94747 1.47487 0
M  V30 1975 H 196.31 2.74158 1.77497 0
M  V30 1976 H 194.969 3.663 -0.148199 0
M  V30 1977 H 194.617 4.53891 2.16776 0
M  V30 1978 H 194.317 5.79948 0.945223 0
M  V30 1979 H 195.841 5.81015 1.87759 0
M  V30 1980 H 197.255 5.71958 -0.392039 0
M  V30 1981 H 195.652 5.88676 -1.16536 0
M  V30 1982 H 196.722 4.55927 -1.65103 0
M  V30 1983 N 198.065 0.39524 1.52563 0
M  V30 1984 C 199.314 -0.186321 2.00838 0
M  V30 1985 C 199.627 -1.47402 1.28577 0
M  V30 1986 O 200.833 -2.13599 1.67593 0
M  V30 1987 C 199.289 -0.382595 3.57861 0
M  V30 1988 C 198.897 0.892202 4.39026 0
M  V30 1989 C 200.641 -0.9202 4.14406 0
M  V30 1990 C 198.548 0.66388 5.87662 0
M  V30 1991 H 197.478 -0.0734041 0.750418 0
M  V30 1992 H 200.129 0.518552 1.76021 0
M  V30 1993 H 198.511 -1.14946 3.7895 0
M  V30 1994 H 199.685 1.66414 4.29701 0
M  V30 1995 H 198 1.35519 3.9373 0
M  V30 1996 H 200.597 -1.10683 5.23119 0
M  V30 1997 H 200.94 -1.89096 3.70875 0
M  V30 1998 H 201.473 -0.212751 3.97231 0
M  V30 1999 H 198.212 1.6058 6.35527 0
M  V30 2000 H 197.732 -0.0690193 5.9976 0
M  V30 2001 H 199.411 0.300699 6.46301 0
M  V30 2002 N 199.544 -1.57102 0.125237 0
M  V30 2003 C 200.477 -2.11371 -0.860094 0
M  V30 2004 C 201.455 -1.03168 -1.25679 0
M  V30 2005 O 202.639 -1.30862 -1.35674 0
M  V30 2006 C 199.766 -2.61555 -2.1519 0
M  V30 2007 C 198.812 -3.81701 -1.9028 0
M  V30 2008 S 199.645 -5.23797 -1.11343 0
M  V30 2009 C 200.801 -5.77353 -2.41689 0
M  V30 2010 H 201.034 -2.94617 -0.39852 0
M  V30 2011 H 198.567 -1.54145 -0.0886555 0
M  V30 2012 H 200.525 -2.91122 -2.89411 0
M  V30 2013 H 199.186 -1.78479 -2.58465 0
M  V30 2014 H 198.379 -4.14985 -2.86014 0
M  V30 2015 H 197.981 -3.52783 -1.24178 0
M  V30 2016 H 200.273 -5.87458 -3.37489 0
M  V30 2017 H 201.216 -6.75323 -2.12942 0
M  V30 2018 H 201.624 -5.05457 -2.51342 0
M  V30 2019 N 201.022 0.148545 -1.56898 0
M  V30 2020 C 201.952 1.18524 -2.01182 0
M  V30 2021 C 202.933 1.4489 -0.891123 0
M  V30 2022 O 204.118 1.55836 -1.15882 0
M  V30 2023 C 201.248 2.51879 -2.39112 0
M  V30 2024 C 200.202 2.40038 -3.54353 0
M  V30 2025 C 199.528 3.78089 -3.78091 0
M  V30 2026 C 200.828 1.88577 -4.87069 0
M  V30 2027 H 202.522 0.817029 -2.88036 0
M  V30 2028 H 200.068 0.391575 -1.38574 0
M  V30 2029 H 202.021 3.24627 -2.68692 0
M  V30 2030 H 200.745 2.90532 -1.49193 0
M  V30 2031 H 199.404 1.69742 -3.24936 0
M  V30 2032 H 199.052 4.14175 -2.85426 0
M  V30 2033 H 198.752 3.71028 -4.55645 0
M  V30 2034 H 200.276 4.52387 -4.10095 0
M  V30 2035 H 201.69 2.51117 -5.15377 0
M  V30 2036 H 200.087 1.9241 -5.68417 0
M  V30 2037 H 201.157 0.84136 -4.77545 0
M  V30 2038 N 202.5 1.5196 0.417844 0
M  V30 2039 C 203.448 1.75278 1.52907 0
M  V30 2040 C 204.442 0.619611 1.57662 0
M  V30 2041 O 205.648 0.801457 1.61173 0
M  V30 2042 H 202.023 0.554141 0.508362 0
M  V30 2043 H 203.994 2.68389 1.30422 0
M  V30 2044 C 202.743 1.91262 2.90369 0
M  V30 2045 H 202.066 2.77872 2.8745 0
M  V30 2046 H 203.506 2.11581 3.67436 0
M  V30 2047 C 201.965 0.677431 3.30019 0
M  V30 2048 O 202.495 -0.158799 4.01386 0
M  V30 2049 N 200.701 0.515851 2.85985 0
M  V30 2050 H 200.248 1.19744 2.28077 0
M  V30 2051 H 200.206 -0.309315 3.12875 0
M  V30 2052 N 203.978 -0.674533 1.42435 0
M  V30 2053 C 205.394 -0.98769 1.25367 0
M  V30 2054 C 205.594 -2.00879 0.158044 0
M  V30 2055 O 204.65 -2.48075 -0.470633 0
M  V30 2056 C 205.963 -1.49224 2.6106 0
M  V30 2057 C 207.511 -1.61 2.68417 0
M  V30 2058 C 207.986 -2.14852 4.04478 0
M  V30 2059 N 209.477 -2.22185 4.06434 0
M  V30 2060 C 210.212 -2.64928 5.08528 0
M  V30 2061 N 209.708 -3.07121 6.21006 0
M  V30 2062 N 211.501 -2.64679 4.95885 0
M  V30 2063 H 203.652 0.00152503 2.124 0
M  V30 2064 H 205.915 -0.0618434 0.945981 0
M  V30 2065 H 205.621 -0.816453 3.42092 0
M  V30 2066 H 205.495 -2.47094 2.84999 0
M  V30 2067 H 207.882 -2.27686 1.87732 0
M  V30 2068 H 207.963 -0.616195 2.48267 0
M  V30 2069 H 207.607 -1.48775 4.85622 0
M  V30 2070 H 207.537 -3.15024 4.2198 0
M  V30 2071 H 210.028 -1.92435 3.25234 0
M  V30 2072 H 210.341 -3.38423 6.94759 0
M  V30 2073 H 208.686 -3.04978 6.24511 0
M  V30 2074 H 211.877 -2.31078 4.07088 0
M  V30 2075 H 212.05 -2.9767 5.75584 0
M  V30 2076 N 205.456 -1.28612 -0.910864 0
M  V30 2077 C 206.686 -1.1862 -1.69153 0
M  V30 2078 C 207.094 0.257324 -1.87442 0
M  V30 2079 O 206.437 1.18543 -1.40332 0
M  V30 2080 C 206.499 -1.81606 -3.10257 0
M  V30 2081 C 206.163 -3.30864 -3.15243 0
M  V30 2082 C 207.16 -4.27256 -2.96223 0
M  V30 2083 C 204.845 -3.71871 -3.37664 0
M  V30 2084 C 206.839 -5.62631 -2.99541 0
M  V30 2085 C 204.526 -5.07371 -3.40614 0
M  V30 2086 C 205.524 -6.02561 -3.21573 0
M  V30 2087 O 205.212 -7.35589 -3.2429 0
M  V30 2088 H 204.944 -0.412633 -0.535453 0
M  V30 2089 H 207.498 -1.70306 -1.14827 0
M  V30 2090 H 205.728 -1.24418 -3.66138 0
M  V30 2091 H 207.417 -1.66092 -3.70362 0
M  V30 2092 H 208.183 -3.9691 -2.78725 0
M  V30 2093 H 204.062 -2.98241 -3.5153 0
M  V30 2094 H 207.606 -6.36907 -2.84597 0
M  V30 2095 H 203.503 -5.37366 -3.57642 0
M  V30 2096 H 204.271 -7.44252 -3.40633 0
M  V30 2097 N 206.934 1.1197 -1.10907 0
M  V30 2098 C 208.181 1.83588 -0.854507 0
M  V30 2099 C 208.509 1.84357 0.6199 0
M  V30 2100 O 207.764 1.28809 1.47332 0
M  V30 2101 C 208.063 3.30749 -1.35425 0
M  V30 2102 C 207.729 3.50146 -2.84093 0
M  V30 2103 C 206.391 3.55148 -3.2469 0
M  V30 2104 C 208.743 3.56857 -3.79872 0
M  V30 2105 C 206.071 3.6441 -4.59806 0
M  V30 2106 C 208.423 3.6765 -5.14797 0
M  V30 2107 C 207.087 3.7091 -5.54961 0
M  V30 2108 H 206.357 0.671795 -0.312686 0
M  V30 2109 H 209.004 1.32091 -1.38652 0
M  V30 2110 H 207.309 3.84703 -0.742361 0
M  V30 2111 H 209.006 3.8464 -1.1337 0
M  V30 2112 H 205.596 3.46919 -2.51685 0
M  V30 2113 H 209.78 3.52258 -3.49611 0
M  V30 2114 H 205.036 3.65208 -4.9034 0
M  V30 2115 H 209.21 3.71786 -5.88853 0
M  V30 2116 H 206.837 3.7784 -6.59652 0
M  V30 2117 N 208.412 0.89855 1.29475 0
M  V30 2118 C 209.637 0.538561 2.00285 0
M  V30 2119 C 210.062 -0.869135 1.66816 0
M  V30 2120 O 209.42 -1.57831 0.892145 0
M  V30 2121 C 209.468 0.736475 3.52999 0
M  V30 2122 O 208.572 -0.211537 4.11857 0
M  V30 2123 H 207.913 0.210563 0.62973 0
M  V30 2124 H 210.443 1.20982 1.64998 0
M  V30 2125 H 210.453 0.640685 4.02938 0
M  V30 2126 H 209.128 1.76276 3.76696 0
M  V30 2127 H 207.705 -0.0682991 3.72837 0
M  V30 2128 N 209.89 -1.43072 0.660911 0
M  V30 2129 C 210.837 -2.30785 -0.0259884 0
M  V30 2130 C 211.807 -1.45184 -0.806888 0
M  V30 2131 O 212.992 -1.74041 -0.781943 0
M  V30 2132 C 210.132 -3.30861 -0.981067 0
M  V30 2133 C 209.245 -4.31558 -0.195458 0
M  V30 2134 C 208.38 -5.18712 -1.14503 0
M  V30 2135 C 207.419 -6.11097 -0.350299 0
M  V30 2136 N 206.556 -6.90849 -1.25186 0
M  V30 2137 H 211.396 -2.88975 0.727846 0
M  V30 2138 H 208.933 -1.42353 0.370682 0
M  V30 2139 H 210.891 -3.87399 -1.54849 0
M  V30 2140 H 209.521 -2.74304 -1.70169 0
M  V30 2141 H 208.573 -3.77252 0.488374 0
M  V30 2142 H 209.885 -4.9701 0.422176 0
M  V30 2143 H 209.039 -5.79914 -1.78284 0
M  V30 2144 H 207.778 -4.53404 -1.79656 0
M  V30 2145 H 206.783 -5.48976 0.300808 0
M  V30 2146 H 208.008 -6.7845 0.296941 0
M  V30 2147 H 205.954 -6.28182 -1.89005 0
M  V30 2148 H 205.871 -7.52854 -0.688971 0
M  V30 2149 H 207.139 -7.5655 -1.87757 0
M  V30 2150 N 211.368 -0.403325 -1.52352 0
M  V30 2151 C 212.784 -0.0539281 -1.59509 0
M  V30 2152 C 212.984 1.43307 -1.41652 0
M  V30 2153 O 212.04 2.19924 -1.24056 0
M  V30 2154 C 213.353 -0.543654 -2.95745 0
M  V30 2155 C 214.901 -0.501125 -3.08962 0
M  V30 2156 C 215.376 -0.967267 -4.47669 0
M  V30 2157 N 216.867 -0.923849 -4.53893 0
M  V30 2158 C 217.602 -1.25578 -5.5948 0
M  V30 2159 N 217.098 -1.65889 -6.72646 0
M  V30 2160 N 218.891 -1.17613 -5.49658 0
M  V30 2161 H 211.042 -1.37123 -1.62206 0
M  V30 2162 H 213.305 -0.56294 -0.76276 0
M  V30 2163 H 213.011 -1.58275 -3.14073 0
M  V30 2164 H 212.885 0.0498042 -3.77167 0
M  V30 2165 H 215.272 0.528909 -2.90321 0
M  V30 2166 H 215.353 -1.13056 -2.2946 0
M  V30 2167 H 214.997 -1.9956 -4.67053 0
M  V30 2168 H 214.927 -0.314698 -5.25659 0
M  V30 2169 H 217.418 -0.627403 -3.72655 0
M  V30 2170 H 217.731 -1.89543 -7.49195 0
M  V30 2171 H 216.076 -1.69787 -6.73942 0
M  V30 2172 H 219.267 -0.860115 -4.6013 0
M  V30 2173 H 219.44 -1.43812 -6.3184 0
M  V30 2174 N 212.846 1.57033 -0.133567 0
M  V30 2175 C 214.262 1.58035 0.222944 0
M  V30 2176 C 214.462 1.14713 1.6566 0
M  V30 2177 O 213.518 0.841218 2.38075 0
M  V30 2178 C 214.831 3.00691 -0.0236116 0
M  V30 2179 C 216.379 3.12973 0.0411512 0
M  V30 2180 C 216.854 4.57654 -0.177899 0
M  V30 2181 N 218.345 4.63033 -0.124365 0
M  V30 2182 C 219.08 5.72771 -0.268553 0
M  V30 2183 N 218.576 6.91206 -0.46972 0
M  V30 2184 N 220.369 5.61718 -0.2071 0
M  V30 2185 H 212.52 1.8349 -1.06981 0
M  V30 2186 H 214.783 0.848677 -0.422436 0
M  V30 2187 H 214.489 3.36726 -1.0153 0
M  V30 2188 H 214.363 3.70614 0.701808 0
M  V30 2189 H 216.75 2.76787 1.02338 0
M  V30 2190 H 216.831 2.45564 -0.716383 0
M  V30 2191 H 216.475 4.94542 -1.15717 0
M  V30 2192 H 216.405 5.23173 0.599797 0
M  V30 2193 H 218.896 3.7789 0.027011 0
M  V30 2194 H 219.209 7.70693 -0.570212 0
M  V30 2195 H 217.554 6.93156 -0.505876 0
M  V30 2196 H 220.745 4.68072 -0.0507986 0
M  V30 2197 H 220.918 6.47195 -0.322909 0
M  V30 2198 N 214.325 -0.140222 1.56975 0
M  V30 2199 C 215.736 -0.699596 1.73097 0
M  V30 2200 C 216.087 -1.8134 0.749022 0
M  V30 2201 O 215.212 -2.16241 -0.0828503 0
M  V30 2202 C 215.807 -1.27582 3.1386 0
M  V30 2203 C 214.366 -1.78169 3.31561 0
M  V30 2204 C 213.513 -0.672855 2.69013 0
M  V30 2205 H 216.464 0.0855115 1.58469 0
M  V30 2206 H 216.485 -2.14561 3.14235 0
M  V30 2207 H 215.997 -0.464955 3.85305 0
M  V30 2208 H 214.098 -2.61801 2.65124 0
M  V30 2209 H 214.211 -1.90574 4.39566 0
M  V30 2210 H 212.575 -1.10118 2.29665 0
M  V30 2211 H 213.358 0.126679 3.43066 0
M  V30 2212 N 215.803 -1.52179 -0.40978 0
M  V30 2213 C 216.736 -1.70196 -1.52015 0
M  V30 2214 C 217.714 -0.549542 -1.53032 0
M  V30 2215 O 218.898 -0.776815 -1.71749 0
M  V30 2216 C 216.025 -1.74069 -2.90547 0
M  V30 2217 C 215.071 -2.95601 -3.07445 0
M  V30 2218 S 215.904 -4.55956 -2.80827 0
M  V30 2219 C 217.06 -4.62614 -4.21591 0
M  V30 2220 H 217.293 -2.64109 -1.36504 0
M  V30 2221 H 214.826 -1.4221 -0.601312 0
M  V30 2222 H 216.784 -1.76985 -3.70387 0
M  V30 2223 H 215.445 -0.812835 -3.034 0
M  V30 2224 H 214.638 -2.94791 -4.08796 0
M  V30 2225 H 214.24 -2.90569 -2.35469 0
M  V30 2226 H 216.532 -4.39951 -5.15218 0
M  V30 2227 H 217.475 -5.64548 -4.27424 0
M  V30 2228 H 217.883 -3.91654 -4.06531 0
M  V30 2229 N 217.281 0.66697 -1.42791 0
M  V30 2230 C 218.244 1.76211 -1.46568 0
M  V30 2231 C 219.244 1.56896 -0.352196 0
M  V30 2232 O 220.434 1.63044 -0.613364 0
M  V30 2233 C 217.566 3.14935 -1.30494 0
M  V30 2234 H 218.759 1.74247 -2.44086 0
M  V30 2235 H 216.312 0.877342 -1.29354 0
M  V30 2236 H 217.047 3.2252 -0.339301 0
M  V30 2237 H 216.832 3.30359 -2.11199 0
M  V30 2238 H 218.322 3.94821 -1.36038 0
M  V30 2239 N 218.759 1.29093 0.90403 0
M  V30 2240 C 219.707 1.13727 2.02901 0
M  V30 2241 C 220.701 0.0539853 1.69314 0
M  V30 2242 O 221.907 0.213469 1.7873 0
M  V30 2243 H 218.282 0.35117 0.664969 0
M  V30 2244 H 220.253 2.08982 2.13001 0
M  V30 2245 C 219.002 0.826066 3.37745 0
M  V30 2246 H 218.325 1.65164 3.64089 0
M  V30 2247 H 219.765 0.758559 4.17159 0
M  V30 2248 C 218.224 -0.470541 3.33598 0
M  V30 2249 O 218.754 -1.49792 3.72727 0
M  V30 2250 N 216.96 -0.474812 2.86695 0
M  V30 2251 H 216.507 0.361692 2.55048 0
M  V30 2252 H 216.465 -1.34236 2.84303 0
M  V30 2253 N 220.237 -1.11381 1.11499 0
M  V30 2254 C 221.485 -1.8277 0.862524 0
M  V30 2255 C 221.806 -1.85097 -0.613534 0
M  V30 2256 O 221.076 -1.32198 -1.4457 0
M  V30 2257 H 219.656 -0.676823 0.316101 0
M  V30 2258 H 222.318 -1.34816 1.4075 0
M  V30 2259 H 221.414 -2.86614 1.23527 0
M  V30 2260 N 221.715 -0.905404 -1.28997 0
M  V30 2261 C 222.645 -0.404212 -2.29975 0
M  V30 2262 C 223.626 0.523784 -1.61835 0
M  V30 2263 O 224.811 0.433298 -1.89304 0
M  V30 2264 C 221.941 0.364042 -3.45387 0
M  V30 2265 C 220.895 -0.474048 -4.25367 0
M  V30 2266 C 220.221 0.422045 -5.33032 0
M  V30 2267 C 221.521 -1.72696 -4.92923 0
M  V30 2268 H 223.215 -1.24807 -2.72146 0
M  V30 2269 H 220.761 -0.601585 -1.30832 0
M  V30 2270 H 222.714 0.725447 -4.15109 0
M  V30 2271 H 221.438 1.24174 -3.02074 0
M  V30 2272 H 220.097 -0.81786 -3.57361 0
M  V30 2273 H 219.745 1.29804 -4.85963 0
M  V30 2274 H 219.445 -0.135057 -5.87445 0
M  V30 2275 H 220.969 0.779517 -6.05604 0
M  V30 2276 H 222.383 -1.43495 -5.55051 0
M  V30 2277 H 220.78 -2.22582 -5.57295 0
M  V30 2278 H 221.85 -2.45964 -4.17887 0
M  V30 2279 N 223.193 1.4272 -0.668489 0
M  V30 2280 C 224.156 2.292 0.00448567 0
M  V30 2281 C 225.156 1.43001 0.735339 0
M  V30 2282 O 226.346 1.64461 0.57429 0
M  V30 2283 C 223.478 3.25375 1.01705 0
M  V30 2284 H 224.671 2.90199 -0.756608 0
M  V30 2285 H 222.224 1.50254 -0.430506 0
M  V30 2286 H 222.959 2.69301 1.80686 0
M  V30 2287 H 222.744 3.88944 0.496463 0
M  V30 2288 H 224.234 3.90245 1.48655 0
M  V30 2289 N 224.671 0.411399 1.52136 0
M  V30 2290 C 225.634 -0.401089 2.25663 0
M  V30 2291 C 226.634 -0.971732 1.28117 0
M  V30 2292 O 227.824 -0.850254 1.52041 0
M  V30 2293 C 224.956 -1.56483 3.02863 0
M  V30 2294 H 226.149 0.24295 2.98914 0
M  V30 2295 H 223.702 0.163968 1.55438 0
M  V30 2296 H 224.437 -2.24567 2.33967 0
M  V30 2297 H 224.222 -1.16211 3.74483 0
M  V30 2298 H 225.712 -2.13951 3.58629 0
M  V30 2299 N 226.149 -1.5696 0.141893 0
M  V30 2300 C 227.112 -2.15316 -0.785587 0
M  V30 2301 C 228.112 -1.09366 -1.1788 0
M  V30 2302 O 229.302 -1.35031 -1.10056 0
M  V30 2303 C 226.434 -2.71211 -2.06537 0
M  V30 2304 H 227.627 -2.98608 -0.278041 0
M  V30 2305 H 225.18 -1.5593 -0.107519 0
M  V30 2306 H 225.915 -1.91571 -2.6167 0
M  V30 2307 H 225.7 -3.4872 -1.79268 0
M  V30 2308 H 227.19 -3.16189 -2.72789 0
M  V30 2309 N 227.627 0.131896 -1.57047 0
M  V30 2310 C 228.875 0.840269 -1.83804 0
M  V30 2311 C 229.196 1.81017 -0.72512 0
M  V30 2312 O 228.466 1.94272 0.251995 0
M  V30 2313 H 227.046 0.313294 -0.678127 0
M  V30 2314 H 229.708 0.122294 -1.94516 0
M  V30 2315 H 228.804 1.39335 -2.79271 0
M  V30 2316 N 229.106 1.52395 0.401703 0
M  V30 2317 C 230.331 1.70972 1.17403 0
M  V30 2318 C 230.756 0.421615 1.83314 0
M  V30 2319 O 230.114 -0.621564 1.70312 0
M  V30 2320 C 230.162 2.85151 2.20728 0
M  V30 2321 O 229.266 2.51238 3.27037 0
M  V30 2322 H 228.607 0.568927 0.342372 0
M  V30 2323 H 231.137 1.99131 0.469891 0
M  V30 2324 H 231.147 3.10279 2.64936 0
M  V30 2325 H 229.822 3.78603 1.7214 0
M  V30 2326 H 228.399 2.36808 2.88057 0
M  V30 2327 N 230.584 -0.659388 1.43143 0
M  V30 2328 C 231.995 -1.24041 1.39537 0
M  V30 2329 C 232.346 -1.95963 0.0963364 0
M  V30 2330 O 231.471 -2.00892 -0.804438 0
M  V30 2331 C 232.066 -2.25601 2.52764 0
M  V30 2332 C 230.625 -2.79195 2.52443 0
M  V30 2333 C 229.772 -1.53743 2.30778 0
M  V30 2334 H 232.723 -0.451792 1.52133 0
M  V30 2335 H 232.744 -3.07651 2.23899 0
M  V30 2336 H 232.256 -1.73226 3.47296 0
M  V30 2337 H 230.357 -3.35649 1.61773 0
M  V30 2338 H 230.47 -3.2716 3.50004 0
M  V30 2339 H 228.834 -1.80869 1.79328 0
M  V30 2340 H 229.617 -1.03312 3.27386 0
M  V30 2341 N 232.062 -1.29571 -0.897171 0
M  V30 2342 C 233.308 -1.17863 -1.65034 0
M  V30 2343 C 233.641 0.268729 -1.92332 0
M  V30 2344 O 232.916 1.19378 -1.53555 0
M  V30 2345 C 233.199 -1.995 -2.99786 0
M  V30 2346 C 233.052 -3.5239 -2.79538 0
M  V30 2347 C 234.371 -1.82335 -4.00552 0
M  V30 2348 H 231.49 -0.429528 -0.598895 0
M  V30 2349 H 234.132 -1.59072 -1.03905 0
M  V30 2350 H 232.282 -1.64485 -3.51962 0
M  V30 2351 H 233.954 -3.97401 -2.34244 0
M  V30 2352 H 232.197 -3.77187 -2.14273 0
M  V30 2353 H 232.868 -4.04787 -3.75302 0
M  V30 2354 H 235.344 -2.12924 -3.57495 0
M  V30 2355 H 234.22 -2.41801 -4.92771 0
M  V30 2356 H 234.481 -0.779209 -4.35179 0
M  V30 2357 N 233.54 1.10788 -1.12088 0
M  V30 2358 C 234.787 1.82671 -0.873931 0
M  V30 2359 C 235.115 1.85004 0.600311 0
M  V30 2360 O 234.37 1.30365 1.45957 0
M  V30 2361 C 234.669 3.29294 -1.38926 0
M  V30 2362 C 234.335 3.47113 -2.87791 0
M  V30 2363 C 232.997 3.51684 -3.28439 0
M  V30 2364 C 235.349 3.52808 -3.83635 0
M  V30 2365 C 232.677 3.59513 -4.63646 0
M  V30 2366 C 235.029 3.62169 -5.18668 0
M  V30 2367 C 233.693 3.65003 -5.58864 0
M  V30 2368 H 232.963 0.668441 -0.319794 0
M  V30 2369 H 235.61 1.30613 -1.40045 0
M  V30 2370 H 233.915 3.83894 -0.783122 0
M  V30 2371 H 235.612 3.83416 -1.17443 0
M  V30 2372 H 232.202 3.4423 -2.5535 0
M  V30 2373 H 236.386 3.4853 -3.53328 0
M  V30 2374 H 231.642 3.59987 -4.94185 0
M  V30 2375 H 235.816 3.6552 -5.92763 0
M  V30 2376 H 233.443 3.70822 -6.63623 0
M  V30 2377 N 235.018 0.912232 1.28515 0
M  V30 2378 C 235.948 0.416403 2.29757 0
M  V30 2379 C 236.929 -0.515194 1.6211 0
M  V30 2380 O 238.114 -0.423253 1.89532 0
M  V30 2381 C 235.244 -0.34572 3.45575 0
M  V30 2382 C 234.198 0.496599 4.25109 0
M  V30 2383 C 233.524 -0.393771 5.33248 0
M  V30 2384 C 234.824 1.75307 4.92001 0
M  V30 2385 H 236.518 1.26249 2.7148 0
M  V30 2386 H 234.064 0.608515 1.30511 0
M  V30 2387 H 236.017 -0.703422 4.15488 0
M  V30 2388 H 234.741 -1.2257 3.02728 0
M  V30 2389 H 233.4 0.8368 3.56922 0
M  V30 2390 H 233.048 -1.27225 4.86644 0
M  V30 2391 H 232.748 0.166209 5.87365 0
M  V30 2392 H 234.272 -0.747389 6.06009 0
M  V30 2393 H 235.686 1.46437 5.54283 0
M  V30 2394 H 234.083 2.25534 5.56106 0
M  V30 2395 H 235.153 2.48176 4.16577 0
M  V30 2396 N 236.496 -1.42363 0.676048 0
M  V30 2397 C 237.736 -2.03392 0.20273 0
M  V30 2398 C 238.1 -1.52306 -1.16906 0
M  V30 2399 O 239.301 -2.05129 -1.73711 0
M  V30 2400 C 237.572 -3.56614 0.236947 0
M  V30 2401 S 239.131 -4.38489 -0.165186 0
M  V30 2402 H 235.949 -0.70611 0.0832418 0
M  V30 2403 H 238.551 -1.74093 0.88948 0
M  V30 2404 H 237.255 -3.91293 1.23767 0
M  V30 2405 H 236.786 -3.90587 -0.469596 0
M  V30 2406 H 238.801 -4.76093 -1.39822 0
M  V30 2407 N 237.974 -0.419461 -1.51915 0
M  V30 2408 C 238.937 0.389116 -2.25873 0
M  V30 2409 C 239.937 0.964924 -1.28631 0
M  V30 2410 O 241.127 0.842179 -1.52489 0
M  V30 2411 C 238.259 1.54874 -3.03689 0
M  V30 2412 H 239.452 -0.258799 -2.98781 0
M  V30 2413 H 237.005 -0.172209 -1.55348 0
M  V30 2414 H 237.74 2.23323 -2.35154 0
M  V30 2415 H 237.525 1.14223 -3.75094 0
M  V30 2416 H 239.015 2.12046 -3.59759 0
M  V30 2417 N 239.452 1.56882 -0.150215 0
M  V30 2418 C 240.382 2.19935 0.784284 0
M  V30 2419 C 241.363 1.14854 1.25469 0
M  V30 2420 O 242.548 1.43209 1.31168 0
M  V30 2421 C 239.678 2.82349 2.02229 0
M  V30 2422 C 238.632 3.93285 1.68853 0
M  V30 2423 C 237.958 4.42649 2.99944 0
M  V30 2424 C 239.258 5.13904 0.932714 0
M  V30 2425 H 240.952 2.9828 0.258781 0
M  V30 2426 H 238.498 1.43473 0.123029 0
M  V30 2427 H 240.451 3.25126 2.68088 0
M  V30 2428 H 239.175 2.0134 2.57157 0
M  V30 2429 H 237.834 3.5113 1.05371 0
M  V30 2430 H 237.482 3.58458 3.52869 0
M  V30 2431 H 237.182 5.17476 2.78374 0
M  V30 2432 H 238.706 4.88099 3.66868 0
M  V30 2433 H 240.12 5.53506 1.49345 0
M  V30 2434 H 238.517 5.94515 0.81684 0
M  V30 2435 H 239.587 4.84842 -0.0749568 0
M  V30 2436 N 240.93 -0.123565 1.57115 0
M  V30 2437 C 242.155 -0.850398 1.89164 0
M  V30 2438 C 242.58 -1.7286 0.741688 0
M  V30 2439 O 241.938 -1.78665 -0.307958 0
M  V30 2440 C 241.986 -1.66353 3.19936 0
M  V30 2441 O 241.09 -2.77004 3.0552 0
M  V30 2442 H 240.431 -0.235454 0.620852 0
M  V30 2443 H 242.961 -0.107335 2.04318 0
M  V30 2444 H 242.971 -2.05372 3.52543 0
M  V30 2445 H 241.646 -1.01881 4.03228 0
M  V30 2446 H 240.223 -2.41221 2.84371 0
M  V30 2447 N 242.408 -1.52605 -0.393616 0
M  V30 2448 C 243.819 -1.59417 -0.971761 0
M  V30 2449 C 244.17 -0.444173 -1.91106 0
M  V30 2450 O 243.295 0.433382 -2.12016 0
M  V30 2451 C 243.89 -2.88936 -1.76921 0
M  V30 2452 C 242.449 -2.98175 -2.29714 0
M  V30 2453 C 241.596 -2.54491 -1.10135 0
M  V30 2454 H 244.547 -1.57751 -0.173317 0
M  V30 2455 H 244.568 -2.75163 -2.62804 0
M  V30 2456 H 244.08 -3.72616 -1.08532 0
M  V30 2457 H 242.181 -2.19024 -3.01429 0
M  V30 2458 H 242.294 -4.02726 -2.59517 0
M  V30 2459 H 240.658 -2.08702 -1.45999 0
M  V30 2460 H 241.441 -3.4056 -0.432874 0
M  V30 2461 N 243.887 0.651787 -1.4349 0
M  V30 2462 C 244.817 1.77621 -1.51569 0
M  V30 2463 C 245.798 1.66022 -0.370253 0
M  V30 2464 O 246.983 1.85095 -0.587658 0
M  V30 2465 C 244.113 3.16056 -1.43966 0
M  V30 2466 C 243.067 3.4242 -2.56774 0
M  V30 2467 C 242.393 4.8067 -2.34223 0
M  V30 2468 C 243.693 3.37023 -3.99015 0
M  V30 2469 H 245.387 1.71117 -2.45681 0
M  V30 2470 H 242.933 0.821825 -1.18246 0
M  V30 2471 H 244.886 3.94472 -1.48221 0
M  V30 2472 H 243.61 3.23293 -0.463586 0
M  V30 2473 H 242.269 2.66375 -2.51873 0
M  V30 2474 H 241.917 4.84585 -1.34856 0
M  V30 2475 H 241.617 4.9927 -3.09844 0
M  V30 2476 H 243.141 5.61342 -2.40265 0
M  V30 2477 H 244.555 4.05374 -4.05395 0
M  V30 2478 H 242.952 3.67159 -4.74673 0
M  V30 2479 H 244.022 2.3518 -4.2405 0
M  V30 2480 N 245.365 1.30045 0.890287 0
M  V30 2481 C 246.613 1.18327 1.63839 0
M  V30 2482 C 246.934 -0.263455 1.93212 0
M  V30 2483 O 246.204 -1.17856 1.56482 0
M  V30 2484 H 244.784 0.434933 0.607324 0
M  V30 2485 H 247.446 1.631 1.06698 0
M  V30 2486 H 246.542 1.74024 2.59079 0
M  V30 2487 N 246.843 -1.10192 1.12674 0
M  V30 2488 C 247.775 -2.16418 0.754701 0
M  V30 2489 C 248.788 -1.61309 -0.21986 0
M  V30 2490 O 249.977 -1.785 -0.000826841 0
M  V30 2491 C 247.077 -3.38762 0.096698 0
M  V30 2492 C 246.25 -4.23307 1.10136 0
M  V30 2493 C 245.309 -5.24092 0.470513 0
M  V30 2494 O 244.335 -5.57906 1.12824 0
M  V30 2495 N 245.537 -5.75491 -0.760948 0
M  V30 2496 H 248.302 -2.48943 1.66875 0
M  V30 2497 H 245.863 -1.25834 1.01869 0
M  V30 2498 H 247.855 -4.03291 -0.337384 0
M  V30 2499 H 246.425 -3.04192 -0.720153 0
M  V30 2500 H 245.645 -3.55036 1.71299 0
M  V30 2501 H 246.933 -4.76624 1.78064 0
M  V30 2502 H 246.331 -5.50222 -1.31424 0
M  V30 2503 H 244.888 -6.41792 -1.13781 0
M  V30 2504 N 248.321 -0.919034 -1.28029 0
M  V30 2505 C 249.251 -0.428581 -2.29533 0
M  V30 2506 C 250.232 0.50659 -1.62381 0
M  V30 2507 O 251.417 0.413195 -1.89753 0
M  V30 2508 C 248.547 0.327388 -3.45753 0
M  V30 2509 C 247.501 -0.519137 -4.2484 0
M  V30 2510 C 246.827 0.365486 -5.33449 0
M  V30 2511 C 248.127 -1.77914 -4.91064 0
M  V30 2512 H 249.821 -1.27687 -2.70807 0
M  V30 2513 H 247.367 -0.615428 -1.30186 0
M  V30 2514 H 249.32 0.681378 -4.15855 0
M  V30 2515 H 248.044 1.20963 -3.03374 0
M  V30 2516 H 246.703 -0.855717 -3.56473 0
M  V30 2517 H 246.351 1.24642 -4.87312 0
M  V30 2518 H 246.051 -0.197356 -5.87268 0
M  V30 2519 H 247.575 0.715241 -6.06396 0
M  V30 2520 H 248.989 -1.49374 -5.53498 0
M  V30 2521 H 247.386 -2.2848 -5.54903 0
M  V30 2522 H 248.456 -2.50382 -4.15255 0
M  V30 2523 N 249.799 1.42003 -0.683588 0
M  V30 2524 C 250.729 2.33487 -0.024866 0
M  V30 2525 C 251.71 1.51163 0.779975 0
M  V30 2526 O 252.895 1.79739 0.735362 0
M  V30 2527 C 250.025 3.3487 0.920836 0
M  V30 2528 C 248.979 4.27414 0.223958 0
M  V30 2529 C 248.305 5.19074 1.2832 0
M  V30 2530 C 249.605 5.14445 -0.90242 0
M  V30 2531 H 251.299 2.88819 -0.788921 0
M  V30 2532 H 248.845 1.38873 -0.38083 0
M  V30 2533 H 250.798 3.97787 1.39081 0
M  V30 2534 H 249.522 2.77861 1.71642 0
M  V30 2535 H 248.181 3.65904 -0.225864 0
M  V30 2536 H 247.829 4.58387 2.071 0
M  V30 2537 H 247.529 5.81822 0.821995 0
M  V30 2538 H 249.053 5.84867 1.75392 0
M  V30 2539 H 250.467 5.70998 -0.513272 0
M  V30 2540 H 248.864 5.86072 -1.28997 0
M  V30 2541 H 249.934 4.52322 -1.74737 0
M  V30 2542 N 251.277 0.427512 1.51691 0
M  V30 2543 C 252.209 -0.424521 2.25234 0
M  V30 2544 C 253.222 -0.994671 1.2888 0
M  V30 2545 O 254.411 -0.890483 1.54702 0
M  V30 2546 C 251.511 -1.60479 2.98496 0
M  V30 2547 C 250.684 -1.15527 4.21868 0
M  V30 2548 C 249.743 -2.20454 4.77793 0
M  V30 2549 O 248.769 -1.8029 5.39893 0
M  V30 2550 N 249.971 -3.52831 4.60967 0
M  V30 2551 H 252.736 0.205749 2.98993 0
M  V30 2552 H 250.297 0.255867 1.59865 0
M  V30 2553 H 252.289 -2.30276 3.32799 0
M  V30 2554 H 250.859 -2.14061 2.27809 0
M  V30 2555 H 250.079 -0.284736 3.9317 0
M  V30 2556 H 251.367 -0.832173 5.01949 0
M  V30 2557 H 250.765 -3.88201 4.11481 0
M  V30 2558 H 249.322 -4.18551 4.99658 0
M  V30 2559 N 252.755 -1.56801 0.158532 0
M  V30 2560 C 254.032 -1.88131 -0.535357 0
M  V30 2561 C 254.412 -1.06638 -1.82186 0
M  V30 2562 O 253.76 -0.156533 -2.27963 0
M  V30 2563 C 253.97 -3.39949 -0.789653 0
M  V30 2564 C 255.318 -4.09416 -1.12533 0
M  V30 2565 O 256.342 -3.45194 -0.878622 0
M  V30 2566 O 255.201 -5.22855 -1.59014 0
M  V30 2567 H 252.295 -0.780143 -0.27442 0
M  V30 2568 H 254.841 -1.68564 0.19601 0
M  V30 2569 H 253.613 -3.91115 0.120353 0
M  V30 2570 H 253.236 -3.65084 -1.57479 0
M  V30 2571 N 254.233 0.115231 -1.57178 0
M  V30 2572 C 255.649 0.468877 -1.52557 0
M  V30 2573 C 255.849 1.81649 -0.872125 0
M  V30 2574 O 254.905 2.48347 -0.45606 0
M  V30 2575 C 256.218 0.4499 -2.97315 0
M  V30 2576 C 257.766 0.533185 -3.08425 0
M  V30 2577 C 258.241 0.54456 -4.54751 0
M  V30 2578 N 259.732 0.605892 -4.5922 0
M  V30 2579 C 260.467 0.636203 -5.6986 0
M  V30 2580 N 259.963 0.623931 -6.89985 0
M  V30 2581 N 261.756 0.679496 -5.57978 0
M  V30 2582 H 253.907 -0.767712 -1.9804 0
M  V30 2583 H 256.17 -0.283609 -0.904583 0
M  V30 2584 H 255.876 -0.472721 -3.48509 0
M  V30 2585 H 255.75 1.27632 -3.5495 0
M  V30 2586 H 258.137 1.44623 -2.57232 0
M  V30 2587 H 258.218 -0.320995 -2.53778 0
M  V30 2588 H 257.862 -0.364452 -5.06591 0
M  V30 2589 H 257.792 1.41568 -5.07214 0
M  V30 2590 H 260.283 0.621386 -3.72756 0
M  V30 2591 H 260.596 0.649787 -7.70063 0
M  V30 2592 H 258.941 0.591296 -6.9248 0
M  V30 2593 H 262.132 0.686472 -4.63039 0
M  V30 2594 H 262.305 0.69965 -6.44212 0
M  V30 2595 N 255.711 1.52812 0.385517 0
M  V30 2596 C 256.941 1.71658 1.14966 0
M  V30 2597 C 257.349 0.436253 1.84102 0
M  V30 2598 O 256.692 -0.599313 1.73649 0
M  V30 2599 C 256.754 2.81309 2.23843 0
M  V30 2600 C 256.418 4.22313 1.74644 0
M  V30 2601 C 257.415 5.05352 1.22129 0
M  V30 2602 C 255.1 4.68648 1.80761 0
M  V30 2603 C 257.094 6.32807 0.763838 0
M  V30 2604 C 254.781 5.96086 1.34627 0
M  V30 2605 C 255.779 6.77996 0.825264 0
M  V30 2606 O 255.467 8.03045 0.370669 0
M  V30 2607 H 255.199 0.578022 0.350523 0
M  V30 2608 H 257.753 2.00263 0.456509 0
M  V30 2609 H 255.983 2.48133 2.96592 0
M  V30 2610 H 257.672 2.88524 2.85497 0
M  V30 2611 H 258.438 4.70736 1.16758 0
M  V30 2612 H 254.317 4.04979 2.20256 0
M  V30 2613 H 257.861 6.96689 0.356494 0
M  V30 2614 H 253.758 6.30205 1.39686 0
M  V30 2615 H 254.526 8.17021 0.491829 0
M  V30 2616 N 257.189 -0.644168 1.43834 0
M  V30 2617 C 258.437 -1.40117 1.45642 0
M  V30 2618 C 258.758 -1.94814 0.0852413 0
M  V30 2619 O 258.028 -1.74988 -0.880688 0
M  V30 2620 H 256.608 -0.52005 0.536243 0
M  V30 2621 H 259.27 -0.7591 1.7951 0
M  V30 2622 H 258.366 -2.23902 2.17427 0
M  V30 2623 N 258.668 -1.30515 -0.883378 0
M  V30 2624 C 259.914 -1.20617 -1.63778 0
M  V30 2625 C 260.269 0.236469 -1.90941 0
M  V30 2626 O 259.562 1.16596 -1.52039 0
M  V30 2627 C 259.756 -1.96994 -2.98209 0
M  V30 2628 C 259.585 -3.48537 -2.84169 0
M  V30 2629 C 258.355 -4.17893 -2.84067 0
M  V30 2630 C 260.553 -4.43738 -2.60001 0
M  V30 2631 N 258.535 -5.55685 -2.60936 0
M  V30 2632 C 259.906 -5.69105 -2.46007 0
M  V30 2633 C 261.961 -4.33316 -2.45239 0
M  V30 2634 C 260.664 -6.8523 -2.18752 0
M  V30 2635 C 262.69 -5.4921 -2.19369 0
M  V30 2636 C 262.052 -6.73558 -2.06153 0
M  V30 2637 H 258.151 -0.496434 -0.604216 0
M  V30 2638 H 260.735 -1.64544 -1.04083 0
M  V30 2639 H 258.906 -1.55455 -3.55933 0
M  V30 2640 H 260.638 -1.79225 -3.62851 0
M  V30 2641 H 257.393 -3.69739 -2.95956 0
M  V30 2642 H 257.817 -6.28199 -2.52378 0
M  V30 2643 H 262.459 -3.37856 -2.54191 0
M  V30 2644 H 260.177 -7.80729 -2.08537 0
M  V30 2645 H 263.763 -5.43054 -2.08766 0
M  V30 2646 H 262.643 -7.61721 -1.86416 0
M  V30 2647 N 260.146 1.09593 -1.13257 0
M  V30 2648 C 261.562 1.33775 -0.870423 0
M  V30 2649 C 261.762 1.95327 0.494926 0
M  V30 2650 O 260.818 2.19853 1.2418 0
M  V30 2651 C 262.131 2.25106 -1.99369 0
M  V30 2652 C 263.679 2.3862 -2.02558 0
M  V30 2653 C 264.154 3.33285 -3.14142 0
M  V30 2654 N 265.645 3.40857 -3.13641 0
M  V30 2655 C 266.38 4.14101 -3.96621 0
M  V30 2656 N 265.876 4.90157 -4.8961 0
M  V30 2657 N 267.669 4.09808 -3.84726 0
M  V30 2658 H 259.82 0.680136 -2.01216 0
M  V30 2659 H 262.083 0.362133 -0.876107 0
M  V30 2660 H 261.789 1.87103 -2.97801 0
M  V30 2661 H 261.663 3.25481 -1.90635 0
M  V30 2662 H 264.05 2.75887 -1.0474 0
M  V30 2663 H 264.131 1.38028 -2.15364 0
M  V30 2664 H 263.775 2.96741 -4.12198 0
M  V30 2665 H 263.705 4.33776 -2.98574 0
M  V30 2666 H 266.196 2.86624 -2.46282 0
M  V30 2667 H 266.509 5.4347 -5.49418 0
M  V30 2668 H 264.854 4.89251 -4.93617 0
M  V30 2669 H 268.045 3.4949 -3.11408 0
M  V30 2670 H 268.218 4.66629 -4.49623 0
M  V30 2671 N 261.624 0.925811 1.2754 0
M  V30 2672 C 262.872 0.564138 1.94067 0
M  V30 2673 C 263.193 -0.897188 1.73134 0
M  V30 2674 O 262.463 -1.63573 1.07799 0
M  V30 2675 H 261.043 0.205645 0.718136 0
M  V30 2676 H 263.705 1.1778 1.55287 0
M  V30 2677 H 262.801 0.76881 3.02483 0
M  V30 2678 N 263.102 -1.41638 0.69111 0
M  V30 2679 C 264.35 -2.00902 0.219758 0
M  V30 2680 C 264.671 -1.54994 -1.18329 0
M  V30 2681 O 263.941 -0.778628 -1.79762 0
M  V30 2682 H 262.521 -0.74289 0.0782558 0
M  V30 2683 H 265.183 -1.73327 0.891271 0
M  V30 2684 H 264.279 -3.11224 0.233708 0
M  V30 2685 N 264.58 -0.43555 -1.51462 0
M  V30 2686 C 265.827 0.131514 -2.02072 0
M  V30 2687 C 266.155 1.42868 -1.31981 0
M  V30 2688 O 265.41 1.91076 -0.422883 0
M  V30 2689 C 265.709 0.39942 -3.55161 0
M  V30 2690 C 265.375 -0.81172 -4.43533 0
M  V30 2691 C 264.037 -1.14387 -4.67407 0
M  V30 2692 C 266.389 -1.61976 -4.95392 0
M  V30 2693 C 263.717 -2.28477 -5.40384 0
M  V30 2694 C 266.069 -2.75164 -5.6962 0
M  V30 2695 C 264.733 -3.08835 -5.91758 0
M  V30 2696 H 264.003 0.0481244 -0.739436 0
M  V30 2697 H 266.65 -0.58238 -1.8243 0
M  V30 2698 H 264.955 1.19519 -3.73125 0
M  V30 2699 H 266.652 0.85157 -3.91854 0
M  V30 2700 H 263.242 -0.542898 -4.25148 0
M  V30 2701 H 267.426 -1.37637 -4.76833 0
M  V30 2702 H 262.682 -2.5488 -5.55739 0
M  V30 2703 H 266.856 -3.38147 -6.08793 0
M  V30 2704 H 264.483 -3.97353 -6.48086 0
M  V30 2705 N 266.058 1.56714 -0.166846 0
M  V30 2706 C 266.988 2.20754 0.760913 0
M  V30 2707 C 267.969 1.16178 1.24244 0
M  V30 2708 O 269.154 1.44592 1.29641 0
M  V30 2709 C 266.284 2.84478 1.99223 0
M  V30 2710 C 265.238 3.95053 1.64672 0
M  V30 2711 C 264.564 4.45805 2.95232 0
M  V30 2712 C 265.864 5.14865 0.878155 0
M  V30 2713 H 267.558 2.98537 0.22713 0
M  V30 2714 H 265.104 1.43596 0.107805 0
M  V30 2715 H 267.057 3.27951 2.64624 0
M  V30 2716 H 265.781 2.04056 2.55007 0
M  V30 2717 H 264.44 3.52228 1.01641 0
M  V30 2718 H 264.088 3.62181 3.49047 0
M  V30 2719 H 263.788 5.204 2.7287 0
M  V30 2720 H 265.312 4.91962 3.6167 0
M  V30 2721 H 266.726 5.55059 1.43466 0
M  V30 2722 H 265.123 5.95348 0.753738 0
M  V30 2723 H 266.193 4.84735 -0.126377 0
M  V30 2724 N 267.536 -0.106894 1.57237 0
M  V30 2725 C 268.785 -0.811163 1.8467 0
M  V30 2726 C 269.098 -1.80469 0.754342 0
M  V30 2727 O 270.304 -2.55601 0.915439 0
M  V30 2728 C 268.76 -1.49337 3.27454 0
M  V30 2729 C 268.368 -0.540217 4.44731 0
M  V30 2730 C 270.112 -2.18206 3.64124 0
M  V30 2731 C 268.019 -1.22634 5.78545 0
M  V30 2732 H 266.949 -0.306679 0.688813 0
M  V30 2733 H 269.6 -0.0639887 1.83388 0
M  V30 2734 H 267.982 -2.2876 3.23241 0
M  V30 2735 H 269.156 0.221659 4.60267 0
M  V30 2736 H 267.471 0.042146 4.16379 0
M  V30 2737 H 270.068 -2.70253 4.61376 0
M  V30 2738 H 270.411 -2.96562 2.92158 0
M  V30 2739 H 270.944 -1.45658 3.70174 0
M  V30 2740 H 267.683 -0.483832 6.53712 0
M  V30 2741 H 267.203 -1.95993 5.66874 0
M  V30 2742 H 268.882 -1.75615 6.2271 0
M  V30 2743 N 269.014 -1.53014 -0.377408 0
M  V30 2744 C 269.944 -1.81589 -1.46791 0
M  V30 2745 C 270.925 -0.668622 -1.56408 0
M  V30 2746 O 272.11 -0.917337 -1.71168 0
M  V30 2747 C 269.24 -1.99519 -2.8427 0
M  V30 2748 C 268.194 -3.15249 -2.89486 0
M  V30 2749 C 267.52 -3.18451 -4.29527 0
M  V30 2750 C 268.82 -4.54084 -2.58079 0
M  V30 2751 H 270.514 -2.7291 -1.23127 0
M  V30 2752 H 268.06 -1.31319 -0.590883 0
M  V30 2753 H 270.013 -2.18092 -3.60575 0
M  V30 2754 H 268.737 -1.04897 -3.09296 0
M  V30 2755 H 267.396 -2.96477 -2.15631 0
M  V30 2756 H 267.044 -2.2149 -4.5161 0
M  V30 2757 H 266.744 -3.962 -4.33934 0
M  V30 2758 H 268.268 -3.39193 -5.07721 0
M  V30 2759 H 269.682 -4.72899 -3.24098 0
M  V30 2760 H 268.079 -5.33987 -2.7382 0
M  V30 2761 H 269.149 -4.60006 -1.53372 0
M  V30 2762 N 270.492 0.636531 -1.44174 0
M  V30 2763 C 271.74 1.39343 -1.46383 0
M  V30 2764 C 272.061 1.94766 -0.0955715 0
M  V30 2765 O 271.331 1.75452 0.871395 0
M  V30 2766 H 269.911 0.517199 -0.538994 0
M  V30 2767 H 272.573 0.74957 -1.7991 0
M  V30 2768 H 271.669 2.22746 -2.18611 0
M  V30 2769 N 271.97 1.30982 0.876444 0
M  V30 2770 C 273.218 1.20058 1.62575 0
M  V30 2771 C 273.539 -0.242947 1.93481 0
M  V30 2772 O 272.809 -1.1619 1.57724 0
M  V30 2773 H 271.389 0.44135 0.602677 0
M  V30 2774 H 274.051 1.64222 1.04962 0
M  V30 2775 H 273.147 1.76762 2.57219 0
M  V30 2776 N 273.449 -1.08991 1.13837 0
M  V30 2777 C 274.379 -2.17771 0.842507 0
M  V30 2778 C 275.36 -1.6892 -0.20001 0
M  V30 2779 O 276.545 -1.94113 -0.0579731 0
M  V30 2780 C 273.675 -3.4589 0.312644 0
M  V30 2781 C 272.629 -4.08099 1.28992 0
M  V30 2782 C 271.955 -5.31098 0.619623 0
M  V30 2783 C 273.255 -4.50077 2.65005 0
M  V30 2784 H 274.949 -2.42777 1.75213 0
M  V30 2785 H 272.495 -1.16682 0.843875 0
M  V30 2786 H 274.448 -4.21297 0.0933043 0
M  V30 2787 H 273.172 -3.20419 -0.632382 0
M  V30 2788 H 271.831 -3.34717 1.49533 0
M  V30 2789 H 271.479 -5.0191 -0.33102 0
M  V30 2790 H 271.179 -5.73674 1.27167 0
M  V30 2791 H 272.703 -6.09224 0.409669 0
M  V30 2792 H 274.117 -5.16688 2.48407 0
M  V30 2793 H 272.514 -5.03553 3.26427 0
M  V30 2794 H 273.584 -3.62257 3.22332 0
M  V30 2795 N 274.927 -0.932562 -1.27047 0
M  V30 2796 C 275.857 -0.452902 -2.29066 0
M  V30 2797 C 276.838 0.489338 -1.62909 0
M  V30 2798 O 278.023 0.393046 -1.90181 0
M  V30 2799 C 275.153 0.290698 -3.46081 0
M  V30 2800 C 274.107 -0.564168 -4.24265 0
M  V30 2801 C 273.433 0.308886 -5.33807 0
M  V30 2802 C 274.733 -1.83112 -4.89149 0
M  V30 2803 H 276.427 -1.30552 -2.69437 0
M  V30 2804 H 273.973 -0.629201 -1.29526 0
M  V30 2805 H 275.926 0.637233 -4.16554 0
M  V30 2806 H 274.65 1.17738 -3.0464 0
M  V30 2807 H 273.309 -0.893477 -3.55545 0
M  V30 2808 H 272.957 1.19467 -4.88607 0
M  V30 2809 H 272.657 -0.259633 -5.87026 0
M  V30 2810 H 274.181 0.650884 -6.07121 0
M  V30 2811 H 275.595 -1.55236 -5.51883 0
M  V30 2812 H 273.992 -2.34353 -5.52448 0
M  V30 2813 H 275.062 -2.54772 -4.12576 0
M  V30 2814 N 276.405 1.4127 -0.698611 0
M  V30 2815 C 277.335 2.33447 -0.049629 0
M  V30 2816 C 278.316 1.51982 0.763898 0
M  V30 2817 O 279.501 1.80509 0.716257 0
M  V30 2818 C 276.631 3.35828 0.885267 0
M  V30 2819 C 275.585 4.27627 0.178613 0
M  V30 2820 C 274.911 5.20406 1.22807 0
M  V30 2821 C 276.211 5.13459 -0.956933 0
M  V30 2822 H 277.905 2.87966 -0.81951 0
M  V30 2823 H 275.451 1.38461 -0.395538 0
M  V30 2824 H 277.404 3.9924 1.34854 0
M  V30 2825 H 276.128 2.79666 1.68685 0
M  V30 2826 H 274.787 3.65643 -0.26466 0
M  V30 2827 H 274.435 4.60558 2.02226 0
M  V30 2828 H 274.135 5.82661 0.760239 0
M  V30 2829 H 275.659 5.86695 1.69179 0
M  V30 2830 H 277.073 5.70421 -0.573805 0
M  V30 2831 H 275.47 5.8467 -1.35205 0
M  V30 2832 H 276.54 4.50443 -1.79524 0
M  V30 2833 N 277.883 0.443576 1.51229 0
M  V30 2834 C 278.831 -0.37904 2.29491 0
M  V30 2835 C 279.825 -1.0153 1.35603 0
M  V30 2836 O 281.031 -0.94955 1.52917 0
M  V30 2837 H 277.406 -0.141053 0.738653 0
M  V30 2838 H 279.377 0.301799 2.9687 0
M  V30 2839 C 278.126 -1.46426 3.15364 0
M  V30 2840 H 277.449 -0.984037 3.87501 0
M  V30 2841 H 278.889 -2.01297 3.7317 0
M  V30 2842 C 277.348 -2.45099 2.31146 0
M  V30 2843 O 277.878 -3.49773 1.9754 0
M  V30 2844 N 276.084 -2.16139 1.94249 0
M  V30 2845 H 275.631 -1.31044 2.21777 0
M  V30 2846 H 275.589 -2.82398 1.38198 0
M  V30 2847 N 279.361 -1.56624 0.175154 0
M  V30 2848 C 280.601 -1.98894 -0.471221 0
M  V30 2849 C 280.965 -1.05889 -1.60161 0
M  V30 2850 O 282.166 -1.37315 -2.3108 0
M  V30 2851 C 280.437 -3.44865 -0.938241 0
M  V30 2852 S 281.996 -4.09164 -1.58526 0
M  V30 2853 H 278.814 -0.694686 -0.151434 0
M  V30 2854 H 281.416 -1.93577 0.27352 0
M  V30 2855 H 280.12 -4.10265 -0.10518 0
M  V30 2856 H 279.651 -3.53956 -1.71693 0
M  V30 2857 H 281.666 -4.04528 -2.87352 0
M  V30 2858 N 280.839 0.0985539 -1.57292 0
M  V30 2859 C 282.079 0.808332 -1.87737 0
M  V30 2860 C 282.443 1.7607 -0.76572 0
M  V30 2861 O 283.644 2.51358 -0.952499 0
M  V30 2862 C 281.915 1.52093 -3.23423 0
M  V30 2863 S 283.474 2.26947 -3.75554 0
M  V30 2864 H 280.292 0.269377 -0.657995 0
M  V30 2865 H 282.894 0.0656269 -1.9539 0
M  V30 2866 H 281.598 0.81363 -4.02254 0
M  V30 2867 H 281.129 2.30361 -3.189 0
M  V30 2868 H 283.144 3.53027 -3.48692 0
M  V30 2869 N 282.317 1.53212 0.369288 0
M  V30 2870 C 283.563 1.69466 1.11397 0
M  V30 2871 C 283.896 0.443257 1.89074 0
M  V30 2872 O 283.171 -0.559386 1.86282 0
M  V30 2873 C 283.454 2.9422 2.07621 0
M  V30 2874 C 283.307 4.29508 1.33577 0
M  V30 2875 C 284.626 3.14565 3.07794 0
M  V30 2876 H 281.745 0.616667 0.403597 0
M  V30 2877 H 284.387 1.85845 0.395179 0
M  V30 2878 H 282.537 2.80387 2.68916 0
M  V30 2879 H 284.209 4.55147 0.750955 0
M  V30 2880 H 282.452 4.29088 0.637618 0
M  V30 2881 H 283.123 5.12926 2.03989 0
M  V30 2882 H 285.599 3.2756 2.56601 0
M  V30 2883 H 284.475 4.03297 3.72348 0
M  V30 2884 H 284.736 2.29675 3.77759 0
M  V30 2885 N 283.795 -0.628877 1.44509 0
M  V30 2886 C 285.035 -1.39993 1.48934 0
M  V30 2887 C 285.399 -1.91627 0.119604 0
M  V30 2888 O 286.6 -2.68772 0.0385283 0
M  V30 2889 C 284.871 -2.53241 2.52198 0
M  V30 2890 S 286.43 -3.41383 2.75687 0
M  V30 2891 H 283.248 -0.477558 0.526744 0
M  V30 2892 H 285.85 -0.727804 1.81448 0
M  V30 2893 H 284.554 -2.13622 3.50419 0
M  V30 2894 H 284.085 -3.25278 2.21264 0
M  V30 2895 H 286.1 -4.50752 2.07453 0
M  V30 2896 N 285.273 -1.31445 -0.869486 0
M  V30 2897 C 286.236 -1.19094 -1.9583 0
M  V30 2898 C 287.236 -0.117906 -1.60367 0
M  V30 2899 O 288.426 -0.367208 -1.70286 0
M  V30 2900 C 285.558 -0.828165 -3.30688 0
M  V30 2901 H 286.751 -2.15842 -2.08212 0
M  V30 2902 H 284.304 -1.15063 -1.05784 0
M  V30 2903 H 285.039 0.138142 -3.24006 0
M  V30 2904 H 284.824 -1.6038 -3.578 0
M  V30 2905 H 286.314 -0.765658 -4.10521 0
M  V30 2906 N 286.751 1.08385 -1.14413 0
M  V30 2907 C 287.714 2.13486 -0.834048 0
M  V30 2908 C 288.714 1.59988 0.161418 0
M  V30 2909 O 289.904 1.74071 -0.0669575 0
M  V30 2910 C 287.036 3.4003 -0.243354 0
M  V30 2911 H 288.229 2.42425 -1.7655 0
M  V30 2912 H 285.782 1.24101 -0.950189 0
M  V30 2913 H 286.517 3.16726 0.696807 0
M  V30 2914 H 286.302 3.80157 -0.960367 0
M  V30 2915 H 287.792 4.17577 -0.0436242 0
M  V30 2916 N 288.23 0.939286 1.26551 0
M  V30 2917 C 289.16 0.465044 2.28822 0
M  V30 2918 C 290.141 -0.480692 1.63167 0
M  V30 2919 O 291.326 -0.382955 1.90387 0
M  V30 2920 C 288.456 -0.27234 3.46231 0
M  V30 2921 C 287.41 0.58666 4.2396 0
M  V30 2922 C 286.736 -0.280573 5.33963 0
M  V30 2923 C 288.036 1.85704 4.88171 0
M  V30 2924 H 289.73 1.31979 2.68741 0
M  V30 2925 H 287.276 0.636061 1.29191 0
M  V30 2926 H 289.229 -0.615133 4.16886 0
M  V30 2927 H 287.953 -1.16121 3.0526 0
M  V30 2928 H 286.612 0.91232 3.55067 0
M  V30 2929 H 286.26 -1.16874 4.89234 0
M  V30 2930 H 285.96 0.29076 5.8688 0
M  V30 2931 H 287.484 -0.618678 6.07458 0
M  V30 2932 H 288.898 1.58161 5.51052 0
M  V30 2933 H 287.295 2.37279 5.51197 0
M  V30 2934 H 288.365 2.56957 4.11219 0
M  V30 2935 N 289.708 -1.40897 0.706093 0
M  V30 2936 C 290.641 -2.282 -0.00328781 0
M  V30 2937 C 291.619 -1.42816 -0.77732 0
M  V30 2938 O 292.803 -1.72237 -0.765944 0
M  V30 2939 C 289.93 -3.23226 -1.01205 0
M  V30 2940 C 288.976 -4.25222 -0.329955 0
M  V30 2941 S 289.809 -5.27269 0.935298 0
M  V30 2942 C 290.965 -6.25859 -0.0716061 0
M  V30 2943 H 291.198 -2.88016 0.737143 0
M  V30 2944 H 288.731 -1.46191 0.496756 0
M  V30 2945 H 290.689 -3.78503 -1.58888 0
M  V30 2946 H 289.35 -2.62485 -1.72513 0
M  V30 2947 H 288.543 -4.92023 -1.09221 0
M  V30 2948 H 288.145 -3.73595 0.174069 0
M  V30 2949 H 290.437 -6.71204 -0.921521 0
M  V30 2950 H 291.38 -7.0586 0.562765 0
M  V30 2951 H 291.788 -5.62852 -0.431088 0
M  V30 2952 N 291.186 -0.45159 -1.50991 0
M  V30 2953 C 292.602 -0.104647 -1.59257 0
M  V30 2954 C 292.802 1.38728 -1.4614 0
M  V30 2955 O 291.858 2.15866 -1.30989 0
M  V30 2956 C 293.171 -0.637468 -2.93865 0
M  V30 2957 C 294.719 -0.599166 -3.07212 0
M  V30 2958 C 295.194 -1.1092 -4.44366 0
M  V30 2959 N 296.685 -1.06778 -4.50725 0
M  V30 2960 C 297.42 -1.43314 -5.55201 0
M  V30 2961 N 296.916 -1.87204 -6.67028 0
M  V30 2962 N 298.709 -1.3504 -5.45638 0
M  V30 2963 H 290.86 -1.42214 -1.57762 0
M  V30 2964 H 293.123 -0.586921 -0.744465 0
M  V30 2965 H 292.829 -1.68187 -3.08879 0
M  V30 2966 H 292.703 -0.0702139 -3.77135 0
M  V30 2967 H 295.09 0.436277 -2.91857 0
M  V30 2968 H 295.171 -1.20299 -2.25747 0
M  V30 2969 H 294.815 -2.14318 -4.60467 0
M  V30 2970 H 294.745 -0.481773 -5.24392 0
M  V30 2971 H 297.236 -0.745643 -3.70471 0
M  V30 2972 H 297.549 -2.13282 -7.42786 0
M  V30 2973 H 295.894 -1.91142 -6.68199 0
M  V30 2974 H 299.085 -1.00607 -4.57161 0
M  V30 2975 H 299.258 -1.63841 -6.26945 0
M  V30 2976 N 292.664 1.56529 -0.183458 0
M  V30 2977 C 294.075 1.83739 0.331177 0
M  V30 2978 C 294.426 1.10373 1.62211 0
M  V30 2979 O 293.551 0.36071 2.13373 0
M  V30 2980 C 294.146 3.33306 0.607646 0
M  V30 2981 C 292.705 3.60969 1.06668 0
M  V30 2982 C 291.852 2.77086 0.109029 0
M  V30 2983 H 294.803 1.53379 -0.407484 0
M  V30 2984 H 294.824 3.51444 1.45832 0
M  V30 2985 H 294.336 3.86677 -0.332086 0
M  V30 2986 H 292.437 3.13021 2.0211 0
M  V30 2987 H 292.55 4.69231 0.967447 0
M  V30 2988 H 290.914 2.47319 0.608714 0
M  V30 2989 H 291.697 3.33241 -0.82494 0
M  V30 2990 N 294.142 -0.090211 1.57342 0
M  V30 2991 C 295.072 -1.10976 2.05443 0
M  V30 2992 C 296.053 -1.41482 0.944284 0
M  V30 2993 O 297.238 -1.51428 1.21586 0
M  V30 2994 C 294.368 -2.42831 2.48295 0
M  V30 2995 C 293.322 -2.26721 3.63018 0
M  V30 2996 C 292.648 -3.63796 3.91863 0
M  V30 2997 C 293.948 -1.7037 4.93732 0
M  V30 2998 H 295.642 -0.709564 2.9087 0
M  V30 2999 H 293.188 -0.339874 1.39932 0
M  V30 3000 H 295.141 -3.14431 2.80555 0
M  V30 3001 H 293.865 -2.84795 1.59873 0
M  V30 3002 H 292.524 -1.57565 3.31012 0
M  V30 3003 H 292.172 -4.03297 3.00601 0
M  V30 3004 H 291.872 -3.53861 4.69101 0
M  V30 3005 H 293.396 -4.36855 4.26603 0
M  V30 3006 H 294.81 -2.31816 5.24342 0
M  V30 3007 H 293.207 -1.71181 5.75167 0
M  V30 3008 H 294.277 -0.663542 4.80339 0
M  V30 3009 N 295.62 -1.53406 -0.361157 0
M  V30 3010 C 296.866 -1.70054 -1.10496 0
M  V30 3011 C 297.199 -0.453278 -1.88836 0
M  V30 3012 O 296.474 0.5495 -1.86576 0
M  V30 3013 C 296.757 -2.95317 -2.06058 0
M  V30 3014 C 296.61 -4.3021 -1.31298 0
M  V30 3015 C 297.929 -3.16193 -3.06121 0
M  V30 3016 H 295.048 -0.618799 -0.400321 0
M  V30 3017 H 297.69 -1.86052 -0.385318 0
M  V30 3018 H 295.84 -2.81809 -2.67425 0
M  V30 3019 H 297.512 -4.55538 -0.726807 0
M  V30 3020 H 295.755 -4.29421 -0.614853 0
M  V30 3021 H 296.426 -5.14 -2.01265 0
M  V30 3022 H 298.902 -3.28916 -2.5486 0
M  V30 3023 H 297.778 -4.05266 -3.70204 0
M  V30 3024 H 298.039 -2.31676 -3.76535 0
M  V30 3025 N 297.098 0.621204 -1.44841 0
M  V30 3026 C 298.344 1.3826 -1.48365 0
M  V30 3027 C 298.677 1.93831 -0.119624 0
M  V30 3028 O 297.952 1.74251 0.864111 0
M  V30 3029 C 298.235 2.54058 -2.55199 0
M  V30 3030 C 298.088 2.03772 -4.00995 0
M  V30 3031 C 299.407 3.56225 -2.58442 0
M  V30 3032 H 296.526 0.501374 -0.540179 0
M  V30 3033 H 299.168 0.7015 -1.76576 0
M  V30 3034 H 297.318 3.12162 -2.31274 0
M  V30 3035 H 298.99 1.50423 -4.36086 0
M  V30 3036 H 297.233 1.34876 -4.12299 0
M  V30 3037 H 297.904 2.87185 -4.71411 0
M  V30 3038 H 300.38 3.07939 -2.79844 0
M  V30 3039 H 299.256 4.34756 -3.3508 0
M  V30 3040 H 299.517 4.10949 -1.63013 0
M  V30 3041 N 298.576 1.31904 0.862503 0
M  V30 3042 C 299.804 1.24998 1.64873 0
M  V30 3043 C 300.219 -0.183425 1.87907 0
M  V30 3044 O 299.576 -1.11794 1.44251 0
M  V30 3045 C 299.627 1.99829 3.01248 0
M  V30 3046 O 299.348 3.37575 2.79239 0
M  V30 3047 C 300.849 1.99852 3.95694 0
M  V30 3048 H 298.069 0.431599 0.513773 0
M  V30 3049 H 300.613 1.73901 1.07604 0
M  V30 3050 H 298.768 1.54668 3.55185 0
M  V30 3051 H 299.182 3.75776 3.65914 0
M  V30 3052 H 300.656 2.56709 4.88676 0
M  V30 3053 H 301.133 0.982852 4.28062 0
M  V30 3054 H 301.739 2.44926 3.47694 0
M  V30 3055 N 300.054 -1.07777 1.14986 0
M  V30 3056 C 301.017 -2.13041 0.845358 0
M  V30 3057 C 302.017 -1.60071 -0.152931 0
M  V30 3058 O 303.207 -1.74033 0.0761879 0
M  V30 3059 C 300.339 -3.39896 0.261383 0
M  V30 3060 H 301.532 -2.41485 1.77834 0
M  V30 3061 H 299.085 -1.23595 0.956757 0
M  V30 3062 H 299.82 -3.17091 -0.68 0
M  V30 3063 H 299.605 -3.79642 0.980514 0
M  V30 3064 H 301.095 -4.17548 0.0657687 0
M  V30 3065 N 301.532 -0.945985 -1.26051 0
M  V30 3066 C 302.464 -0.416662 -2.25381 0
M  V30 3067 C 303.477 0.462712 -1.56086 0
M  V30 3068 O 304.666 0.272383 -1.7641 0
M  V30 3069 C 301.766 0.419812 -3.3629 0
M  V30 3070 C 300.939 -0.444531 -4.35135 0
M  V30 3071 C 299.998 0.332305 -5.2515 0
M  V30 3072 O 299.024 -0.266324 -5.68577 0
M  V30 3073 N 300.226 1.62763 -5.57215 0
M  V30 3074 H 302.991 -1.27059 -2.71433 0
M  V30 3075 H 300.552 -0.815392 -1.39868 0
M  V30 3076 H 302.544 0.947013 -3.93464 0
M  V30 3077 H 301.114 1.17456 -2.89694 0
M  V30 3078 H 300.334 -1.15291 -3.76964 0
M  V30 3079 H 301.622 -1.03478 -4.98166 0
M  V30 3080 H 301.02 2.13603 -5.23823 0
M  V30 3081 H 299.577 2.10097 -6.17011 0
M  V30 3082 N 303.011 1.40521 -0.713556 0
M  V30 3083 C 304.422 1.83853 -0.324807 0
M  V30 3084 C 304.773 1.59667 1.14021 0
M  V30 3085 O 303.898 1.07649 1.87725 0
M  V30 3086 C 304.493 3.33751 -0.582746 0
M  V30 3087 C 303.052 3.75584 -0.247727 0
M  V30 3088 C 302.199 2.63753 -0.856121 0
M  V30 3089 H 305.15 1.29817 -0.91286 0
M  V30 3090 H 305.171 3.80194 0.152682 0
M  V30 3091 H 304.683 3.51322 -1.64908 0
M  V30 3092 H 302.784 3.63608 0.813624 0
M  V30 3093 H 302.897 4.7373 -0.715307 0
M  V30 3094 H 301.261 2.53108 -0.28432 0
M  V30 3095 H 302.044 2.84137 -1.92668 0
M  V30 3096 N 304.489 0.459591 1.5075 0
M  V30 3097 C 305.737 -0.0991532 2.01857 0
M  V30 3098 C 306.058 -1.41247 1.34441 0
M  V30 3099 O 305.328 -1.89775 0.486022 0
M  V30 3100 H 303.908 -0.039633 0.745948 0
M  V30 3101 H 306.57 0.607387 1.85194 0
M  V30 3102 H 305.666 -0.258998 3.11023 0
M  V30 3103 N 305.967 -1.56429 0.191757 0
M  V30 3104 C 307.192 -2.02309 -0.456706 0
M  V30 3105 C 307.617 -1.07103 -1.5463 0
M  V30 3106 O 306.975 -0.0539677 -1.8122 0
M  V30 3107 C 307.023 -3.46654 -0.993159 0
M  V30 3108 O 306.127 -3.54559 -2.10622 0
M  V30 3109 H 305.468 -0.655303 -0.107114 0
M  V30 3110 H 307.998 -2.02364 0.301653 0
M  V30 3111 H 308.008 -3.86377 -1.31061 0
M  V30 3112 H 306.683 -4.1544 -0.195504 0
M  V30 3113 H 305.26 -3.26708 -1.79767 0
M  V30 3114 N 307.445 0.0818655 -1.57387 0
M  V30 3115 C 308.693 0.781368 -1.86384 0
M  V30 3116 C 309.014 1.78618 -0.782342 0
M  V30 3117 O 308.284 1.94976 0.190061 0
M  V30 3118 H 306.864 0.291562 -0.687751 0
M  V30 3119 H 309.526 0.060348 -1.94807 0
M  V30 3120 H 308.622 1.3038 -2.83562 0
M  V30 3121 N 308.923 1.53595 0.353017 0
M  V30 3122 C 310.334 1.61937 0.929153 0
M  V30 3123 C 310.685 0.494686 1.89861 0
M  V30 3124 O 309.81 -0.377017 2.1309 0
M  V30 3125 C 310.405 2.93526 1.69199 0
M  V30 3126 C 308.964 3.04161 2.21727 0
M  V30 3127 C 308.111 2.57322 1.03348 0
M  V30 3128 H 311.062 1.58155 0.131431 0
M  V30 3129 H 311.083 2.82034 2.55416 0
M  V30 3130 H 310.595 3.75362 0.986144 0
M  V30 3131 H 308.696 2.26938 2.95516 0
M  V30 3132 H 308.809 4.09465 2.48748 0
M  V30 3133 H 307.173 2.12499 1.40414 0
M  V30 3134 H 307.956 3.41588 0.342428 0
M  V30 3135 N 310.401 -0.613514 1.45168 0
M  V30 3136 C 311.812 -1.19539 1.43413 0
M  V30 3137 C 312.163 -1.95558 0.158632 0
M  V30 3138 O 311.288 -2.0335 -0.740119 0
M  V30 3139 C 311.883 -2.17445 2.59813 0
M  V30 3140 C 310.442 -2.71022 2.61197 0
M  V30 3141 C 309.589 -1.46323 2.35552 0
M  V30 3142 H 312.54 -0.403163 1.53494 0
M  V30 3143 H 312.561 -3.00373 2.33574 0
M  V30 3144 H 312.073 -1.62089 3.52631 0
M  V30 3145 H 310.174 -3.30332 1.7237 0
M  V30 3146 H 310.287 -3.15859 3.60236 0
M  V30 3147 H 308.651 -1.75072 1.84992 0
M  V30 3148 H 309.434 -0.92844 3.30507 0
M  V30 3149 N 311.879 -1.3236 -0.855495 0
M  V30 3150 C 313.295 -1.11332 -1.14356 0
M  V30 3151 C 313.495 0.106751 -2.01217 0
M  V30 3152 O 312.551 0.791891 -2.39761 0
M  V30 3153 C 313.864 -2.39237 -1.82171 0
M  V30 3154 C 315.412 -2.44986 -1.9481 0
M  V30 3155 C 315.887 -3.7281 -2.66039 0
M  V30 3156 N 317.378 -3.73787 -2.73565 0
M  V30 3157 C 318.113 -4.69394 -3.29327 0
M  V30 3158 N 317.609 -5.75367 -3.85907 0
M  V30 3159 N 319.402 -4.56893 -3.27423 0
M  V30 3160 H 311.553 -2.10586 -0.277027 0
M  V30 3161 H 313.816 -0.929701 -0.185364 0
M  V30 3162 H 313.522 -3.28431 -1.25802 0
M  V30 3163 H 313.396 -2.50134 -2.82335 0
M  V30 3164 H 315.783 -1.56252 -2.50338 0
M  V30 3165 H 315.864 -2.38043 -0.936448 0
M  V30 3166 H 315.508 -4.61918 -2.11174 0
M  V30 3167 H 315.438 -3.77024 -3.67642 0
M  V30 3168 H 317.929 -2.97189 -2.33424 0
M  V30 3169 H 318.242 -6.44378 -4.26611 0
M  V30 3170 H 316.587 -5.79123 -3.84242 0
M  V30 3171 H 319.778 -3.73269 -2.82467 0
M  V30 3172 H 319.951 -5.31577 -3.7058 0
M  V30 3173 N 313.357 1.07166 -1.15556 0
M  V30 3174 C 314.768 1.6127 -0.940693 0
M  V30 3175 C 315.119 1.89251 0.517551 0
M  V30 3176 O 314.244 1.65937 1.38903 0
M  V30 3177 C 314.839 2.92993 -1.7012 0
M  V30 3178 C 313.398 3.43832 -1.53156 0
M  V30 3179 C 312.545 2.1786 -1.71558 0
M  V30 3180 H 315.496 0.90229 -1.30554 0
M  V30 3181 H 315.517 3.62007 -1.17181 0
M  V30 3182 H 315.029 2.72596 -2.76248 0
M  V30 3183 H 313.13 3.69307 -0.494294 0
M  V30 3184 H 313.243 4.19747 -2.30975 0
M  V30 3185 H 311.607 2.2765 -1.14225 0
M  V30 3186 H 312.39 1.99956 -2.79056 0
M  V30 3187 N 314.835 0.952656 1.25548 0
M  V30 3188 C 316.06 0.623025 1.97821 0
M  V30 3189 C 316.485 -0.7976 1.70352 0
M  V30 3190 O 315.843 -1.53905 0.958283 0
M  V30 3191 C 315.891 0.885532 3.49558 0
M  V30 3192 O 314.995 -0.0366641 4.12384 0
M  V30 3193 H 314.336 0.237082 0.620232 0
M  V30 3194 H 316.866 1.27871 1.59719 0
M  V30 3195 H 316.876 0.811009 3.99858 0
M  V30 3196 H 315.551 1.92094 3.6888 0
M  V30 3197 H 314.128 0.0898954 3.72792 0
M  V30 3198 N 316.313 -1.40141 0.720998 0
M  V30 3199 C 317.729 -1.54632 0.395113 0
M  V30 3200 C 317.929 -1.69115 -1.09555 0
M  V30 3201 O 316.985 -1.68377 -1.88163 0
M  V30 3202 C 318.298 -2.77177 1.1659 0
M  V30 3203 C 319.846 -2.91 1.15274 0
M  V30 3204 C 320.321 -4.16465 1.90579 0
M  V30 3205 N 321.812 -4.23476 1.87675 0
M  V30 3206 C 322.547 -5.19475 2.42762 0
M  V30 3207 N 322.043 -6.21348 3.06428 0
M  V30 3208 N 323.836 -5.11592 2.32874 0
M  V30 3209 H 315.987 -1.28986 1.68749 0
M  V30 3210 H 318.25 -0.62412 0.713567 0
M  V30 3211 H 317.956 -2.72771 2.22011 0
M  V30 3212 H 317.83 -3.69442 0.76108 0
M  V30 3213 H 320.217 -2.94907 0.106702 0
M  V30 3214 H 320.298 -1.99838 1.59682 0
M  V30 3215 H 319.942 -4.1332 2.95176 0
M  V30 3216 H 319.872 -5.06646 1.43587 0
M  V30 3217 H 322.363 -3.50497 1.41281 0
M  V30 3218 H 322.676 -6.91034 3.45965 0
M  V30 3219 H 321.021 -6.21777 3.10514 0
M  V30 3220 H 324.212 -4.30936 1.82789 0
M  V30 3221 H 324.385 -5.86233 2.76106 0
M  V30 3222 N 317.792 -0.46758 -1.50504 0
M  V30 3223 C 319.208 -0.121533 -1.59137 0
M  V30 3224 C 319.408 1.3717 -1.47603 0
M  V30 3225 O 318.464 2.14464 -1.33272 0
M  V30 3226 C 319.777 -0.6686 -2.93173 0
M  V30 3227 C 321.325 -0.631716 -3.06559 0
M  V30 3228 C 321.8 -1.15627 -4.43164 0
M  V30 3229 N 323.291 -1.11553 -4.49567 0
M  V30 3230 C 324.026 -1.49195 -5.5365 0
M  V30 3231 N 323.522 -1.94269 -6.65005 0
M  V30 3232 N 325.315 -1.4082 -5.44175 0
M  V30 3233 H 317.466 -1.4388 -1.56245 0
M  V30 3234 H 319.729 -0.594784 -0.738198 0
M  V30 3235 H 319.435 -1.71453 -3.07078 0
M  V30 3236 H 319.309 -0.11021 -3.77039 0
M  V30 3237 H 321.696 0.405297 -2.92304 0
M  V30 3238 H 321.777 -1.22687 -2.24458 0
M  V30 3239 H 321.421 -2.1919 -4.58168 0
M  V30 3240 H 321.351 -0.537365 -5.23851 0
M  V30 3241 H 323.842 -0.784895 -3.69659 0
M  V30 3242 H 324.155 -2.21148 -7.40482 0
M  V30 3243 H 322.5 -1.98219 -6.66134 0
M  V30 3244 H 325.691 -1.0545 -4.56068 0
M  V30 3245 H 325.864 -1.70481 -6.25172 0
M  V30 3246 N 319.27 1.56325 -0.20005 0
M  V30 3247 C 320.2 2.22318 0.713916 0
M  V30 3248 C 321.181 1.18788 1.21752 0
M  V30 3249 O 322.366 1.47309 1.26545 0
M  V30 3250 C 319.496 2.88639 1.93144 0
M  V30 3251 C 318.45 3.98457 1.56255 0
M  V30 3252 C 317.776 4.51967 2.85709 0
M  V30 3253 C 319.076 5.16612 0.768747 0
M  V30 3254 H 320.77 2.98952 0.163755 0
M  V30 3255 H 318.316 1.43792 0.0773219 0
M  V30 3256 H 320.269 3.33491 2.57608 0
M  V30 3257 H 318.993 2.09419 2.50621 0
M  V30 3258 H 317.652 3.54305 0.941471 0
M  V30 3259 H 317.3 3.69503 3.41287 0
M  V30 3260 H 317 5.26071 2.6177 0
M  V30 3261 H 318.524 4.99523 3.51154 0
M  V30 3262 H 319.938 5.57977 1.3166 0
M  V30 3263 H 318.335 5.96812 0.627286 0
M  V30 3264 H 319.405 4.84358 -0.229168 0
M  V30 3265 N 320.748 -0.0735177 1.57428 0
M  V30 3266 C 321.678 -1.0879 2.06608 0
M  V30 3267 C 322.659 -1.40473 0.959237 0
M  V30 3268 O 323.844 -1.5013 1.23185 0
M  V30 3269 C 320.974 -2.40183 2.50857 0
M  V30 3270 C 319.928 -2.22858 3.65402 0
M  V30 3271 C 319.254 -3.59619 3.957 0
M  V30 3272 C 320.554 -1.65123 4.95511 0
M  V30 3273 H 322.248 -0.678673 2.91607 0
M  V30 3274 H 319.794 -0.325013 1.40284 0
M  V30 3275 H 321.747 -3.11437 2.83874 0
M  V30 3276 H 320.471 -2.83083 1.62885 0
M  V30 3277 H 319.13 -1.54045 3.32664 0
M  V30 3278 H 318.778 -4.00086 3.04861 0
M  V30 3279 H 318.478 -3.48866 4.72828 0
M  V30 3280 H 320.002 -4.32306 4.31212 0
M  V30 3281 H 321.416 -2.26241 5.26771 0
M  V30 3282 H 319.813 -1.65071 5.7695 0
M  V30 3283 H 320.883 -0.612559 4.81015 0
M  V30 3284 N 322.226 -1.5378 -0.344866 0
M  V30 3285 C 323.503 -1.61589 -1.10219 0
M  V30 3286 C 323.883 -0.436316 -2.06542 0
M  V30 3287 O 323.231 0.571543 -2.21237 0
M  V30 3288 C 323.441 -2.97602 -1.82301 0
M  V30 3289 C 324.789 -3.5291 -2.36093 0
M  V30 3290 O 325.813 -2.99768 -1.924 0
M  V30 3291 O 324.672 -4.45859 -3.16026 0
M  V30 3292 H 321.766 -0.653522 -0.506792 0
M  V30 3293 H 324.312 -1.66126 -0.346465 0
M  V30 3294 H 323.084 -3.74893 -1.12121 0
M  V30 3295 H 322.707 -2.9665 -2.64735 0
M  V30 3296 N 323.704 0.605807 -1.45491 0
M  V30 3297 C 324.634 1.72709 -1.57143 0
M  V30 3298 C 325.615 1.6476 -0.422884 0
M  V30 3299 O 326.8 1.83132 -0.646247 0
M  V30 3300 C 323.93 3.11316 -1.53948 0
M  V30 3301 C 322.884 3.34077 -2.67537 0
M  V30 3302 C 322.21 4.72975 -2.49397 0
M  V30 3303 C 323.51 3.24158 -4.09535 0
M  V30 3304 H 325.204 1.63214 -2.51001 0
M  V30 3305 H 322.75 0.78379 -1.208 0
M  V30 3306 H 324.703 3.89557 -1.60696 0
M  V30 3307 H 323.427 3.21655 -0.566205 0
M  V30 3308 H 322.086 2.58227 -2.6022 0
M  V30 3309 H 321.734 4.8005 -1.50205 0
M  V30 3310 H 321.434 4.8916 -3.25571 0
M  V30 3311 H 322.958 5.53414 -2.58002 0
M  V30 3312 H 324.372 3.92271 -4.18086 0
M  V30 3313 H 322.769 3.51872 -4.86113 0
M  V30 3314 H 323.839 2.2157 -4.31317 0
M  V30 3315 N 325.182 1.32811 0.848464 0
M  V30 3316 C 326.407 1.26882 1.6406 0
M  V30 3317 C 326.832 -0.15913 1.87426 0
M  V30 3318 O 326.19 -1.11258 1.43148 0
M  V30 3319 C 326.238 2.03997 2.97351 0
M  V30 3320 O 325.342 1.39201 3.88197 0
M  V30 3321 H 324.683 0.436982 0.499943 0
M  V30 3322 H 327.213 1.75224 1.0563 0
M  V30 3323 H 327.223 2.14403 3.47124 0
M  V30 3324 H 325.898 3.0783 2.79666 0
M  V30 3325 H 324.475 1.37381 3.46671 0
M  V30 3326 N 326.66 -1.06551 1.16123 0
M  V30 3327 C 327.906 -1.79567 0.94252 0
M  V30 3328 C 328.239 -1.86869 -0.528547 0
M  V30 3329 O 327.514 -1.35838 -1.39206 0
M  V30 3330 C 327.797 -3.24195 1.56747 0
M  V30 3331 C 327.65 -3.24989 3.10969 0
M  V30 3332 C 328.969 -4.21678 1.25998 0
M  V30 3333 H 326.088 -0.651883 0.343828 0
M  V30 3334 H 328.73 -1.2463 1.43413 0
M  V30 3335 H 326.88 -3.71107 1.14942 0
M  V30 3336 H 328.552 -2.86258 3.61737 0
M  V30 3337 H 326.795 -2.63716 3.44436 0
M  V30 3338 H 327.466 -4.27005 3.49815 0
M  V30 3339 H 329.942 -3.83196 1.62174 0
M  V30 3340 H 328.818 -5.21146 1.7233 0
M  V30 3341 H 329.079 -4.4174 0.178367 0
M  V30 3342 N 328.138 -0.959301 -1.25041 0
M  V30 3343 C 329.385 -0.616611 -1.92884 0
M  V30 3344 C 329.713 0.847036 -1.75087 0
M  V30 3345 O 328.968 1.62374 -1.09239 0
M  V30 3346 C 329.267 -0.927136 -3.45165 0
M  V30 3347 C 328.933 -2.37757 -3.83122 0
M  V30 3348 C 327.595 -2.77402 -3.93194 0
M  V30 3349 C 329.947 -3.31929 -4.01836 0
M  V30 3350 C 327.275 -4.10277 -4.19392 0
M  V30 3351 C 329.627 -4.64423 -4.29528 0
M  V30 3352 C 328.291 -5.03857 -4.37818 0
M  V30 3353 H 327.561 -0.225634 -0.705812 0
M  V30 3354 H 330.208 -1.20921 -1.48493 0
M  V30 3355 H 328.513 -0.252195 -3.90987 0
M  V30 3356 H 330.21 -0.6405 -3.95852 0
M  V30 3357 H 326.8 -2.06013 -3.75841 0
M  V30 3358 H 330.984 -3.02488 -3.93465 0
M  V30 3359 H 326.24 -4.40467 -4.24027 0
M  V30 3360 H 330.414 -5.37369 -4.42953 0
M  V30 3361 H 328.041 -6.06843 -4.57871 0
M  V30 3362 N 329.616 1.39756 -0.72842 0
M  V30 3363 C 331.032 1.5442 -0.403308 0
M  V30 3364 C 331.232 1.69694 1.08656 0
M  V30 3365 O 330.288 1.69373 1.87267 0
M  V30 3366 C 331.601 2.76555 -1.18058 0
M  V30 3367 C 333.149 2.90384 -1.16815 0
M  V30 3368 C 333.624 4.15449 -1.92785 0
M  V30 3369 N 335.115 4.22475 -1.89918 0
M  V30 3370 C 335.85 5.1818 -2.45514 0
M  V30 3371 N 335.346 6.19714 -3.09719 0
M  V30 3372 N 337.139 5.1035 -2.35584 0
M  V30 3373 H 329.29 1.28089 -1.69431 0
M  V30 3374 H 331.553 0.620327 -0.716867 0
M  V30 3375 H 331.259 2.7159 -2.23455 0
M  V30 3376 H 331.133 3.69033 -0.780662 0
M  V30 3377 H 333.52 2.94846 -0.12234 0
M  V30 3378 H 333.601 1.98988 -1.6074 0
M  V30 3379 H 333.245 4.11749 -2.97364 0
M  V30 3380 H 333.175 5.05877 -1.46272 0
M  V30 3381 H 335.666 3.49743 -1.43138 0
M  V30 3382 H 335.979 6.8919 -3.49625 0
M  V30 3383 H 334.324 6.20121 -3.13807 0
M  V30 3384 H 337.515 4.2996 -1.85072 0
M  V30 3385 H 337.688 5.84761 -2.79211 0
M  V30 3386 N 331.094 0.475555 1.50254 0
M  V30 3387 C 332.371 -0.139685 1.95101 0
M  V30 3388 C 332.751 -1.56555 1.41611 0
M  V30 3389 O 332.099 -2.19956 0.618993 0
M  V30 3390 C 332.309 -0.0784298 3.48912 0
M  V30 3391 C 333.657 -0.265095 4.23772 0
M  V30 3392 O 334.681 -0.154808 3.55863 0
M  V30 3393 O 333.54 -0.488327 5.44314 0
M  V30 3394 H 330.634 -0.109236 0.819754 0
M  V30 3395 H 333.18 0.536276 1.61004 0
M  V30 3396 H 331.952 0.916918 3.80405 0
M  V30 3397 H 331.575 -0.795655 3.89558 0
M  V30 3398 N 332.573 -1.56217 0.208337 0
M  V30 3399 C 333.989 -1.58919 -0.14729 0
M  V30 3400 C 334.189 -1.22486 -1.59998 0
M  V30 3401 O 333.245 -0.953849 -2.3379 0
M  V30 3402 C 334.558 -3.00236 0.167048 0
M  V30 3403 C 336.106 -3.12813 0.108219 0
M  V30 3404 C 336.581 -4.56284 0.396049 0
M  V30 3405 N 338.072 -4.61912 0.345142 0
M  V30 3406 C 338.807 -5.70837 0.541523 0
M  V30 3407 N 338.303 -6.88178 0.798968 0
M  V30 3408 N 340.096 -5.60091 0.474867 0
M  V30 3409 H 332.247 -1.78177 1.15614 0
M  V30 3410 H 334.51 -0.827555 0.462446 0
M  V30 3411 H 334.216 -3.31499 1.1748 0
M  V30 3412 H 334.09 -3.7354 -0.524184 0
M  V30 3413 H 336.477 -2.81354 -0.890157 0
M  V30 3414 H 336.558 -2.41866 0.832729 0
M  V30 3415 H 336.202 -4.88458 1.3918 0
M  V30 3416 H 336.132 -5.25439 -0.349502 0
M  V30 3417 H 338.623 -3.77589 0.153316 0
M  V30 3418 H 338.936 -7.67095 0.93727 0
M  V30 3419 H 337.281 -6.89953 0.836013 0
M  V30 3420 H 340.472 -4.67297 0.274064 0
M  V30 3421 H 340.645 -6.44917 0.631326 0
M  V30 3422 N 334.051 0.0651679 -1.57465 0
M  V30 3423 C 335.299 0.761555 -1.87202 0
M  V30 3424 C 335.62 1.77778 -0.801243 0
M  V30 3425 O 334.89 1.95166 0.16937 0
M  V30 3426 H 333.47 0.284251 -0.690804 0
M  V30 3427 H 336.132 0.0396827 -1.9486 0
M  V30 3428 H 335.228 1.27365 -2.84929 0
M  V30 3429 N 335.529 1.53961 0.336706 0
M  V30 3430 C 336.776 1.71536 1.07618 0
M  V30 3431 C 337.104 0.482125 1.8843 0
M  V30 3432 O 336.359 -0.536142 1.88213 0
M  V30 3433 C 336.658 2.93493 2.03953 0
M  V30 3434 C 336.324 4.28811 1.39399 0
M  V30 3435 C 334.986 4.65602 1.21523 0
M  V30 3436 C 337.338 5.12844 0.929541 0
M  V30 3437 C 334.666 5.84037 0.558312 0
M  V30 3438 C 337.018 6.31951 0.286505 0
M  V30 3439 C 335.682 6.67432 0.0954869 0
M  V30 3440 H 334.952 0.627696 0.393801 0
M  V30 3441 H 337.599 1.88186 0.354715 0
M  V30 3442 H 335.904 2.71475 2.82504 0
M  V30 3443 H 337.601 3.04285 2.61174 0
M  V30 3444 H 334.191 3.99858 1.54311 0
M  V30 3445 H 338.375 4.84947 1.05548 0
M  V30 3446 H 333.631 6.10097 0.398995 0
M  V30 3447 H 337.805 6.96352 -0.0814376 0
M  V30 3448 H 335.432 7.59063 -0.415579 0
M  V30 3449 N 337.007 -0.598083 1.45811 0
M  V30 3450 C 338.253 -1.35882 1.50545 0
M  V30 3451 C 338.586 -1.93616 0.150445 0
M  V30 3452 O 337.861 -1.75604 -0.83628 0
M  V30 3453 C 338.144 -2.49966 2.59208 0
M  V30 3454 C 337.997 -1.97367 4.04186 0
M  V30 3455 C 339.316 -3.52068 2.64076 0
M  V30 3456 H 336.435 -0.492717 0.548087 0
M  V30 3457 H 339.077 -0.673319 1.77669 0
M  V30 3458 H 337.227 -3.08443 2.3621 0
M  V30 3459 H 338.899 -1.43466 4.38423 0
M  V30 3460 H 337.142 -1.283 4.14393 0
M  V30 3461 H 337.813 -2.79649 4.75921 0
M  V30 3462 H 340.289 -3.03448 2.84708 0
M  V30 3463 H 339.165 -4.2937 3.41954 0
M  V30 3464 H 339.426 -4.08304 1.69531 0
M  V30 3465 N 338.485 -1.33259 -0.841409 0
M  V30 3466 C 339.415 -1.25926 -1.96634 0
M  V30 3467 C 340.396 -0.140349 -1.6952 0
M  V30 3468 O 341.581 -0.329707 -1.91381 0
M  V30 3469 C 338.711 -0.99512 -3.32738 0
M  V30 3470 C 337.665 -2.0767 -3.74242 0
M  V30 3471 C 336.991 -1.66474 -5.08125 0
M  V30 3472 C 338.291 -3.49318 -3.88297 0
M  V30 3473 H 339.985 -2.20046 -2.03027 0
M  V30 3474 H 337.531 -1.05931 -0.975425 0
M  V30 3475 H 339.484 -0.930323 -4.11002 0
M  V30 3476 H 338.208 -0.0183004 -3.26595 0
M  V30 3477 H 336.867 -2.13187 -2.98239 0
M  V30 3478 H 336.515 -0.675012 -4.9845 0
M  V30 3479 H 336.215 -2.3885 -5.36865 0
M  V30 3480 H 337.739 -1.61455 -5.88867 0
M  V30 3481 H 339.153 -3.46316 -4.56879 0
M  V30 3482 H 337.55 -4.20158 -4.28471 0
M  V30 3483 H 338.62 -3.8801 -2.9082 0
M  V30 3484 N 339.963 1.05934 -1.16686 0
M  V30 3485 C 341.193 1.82226 -0.973515 0
M  V30 3486 C 341.601 1.8297 0.481532 0
M  V30 3487 O 340.944 1.25009 1.34604 0
M  V30 3488 C 341.006 3.29897 -1.42858 0
M  V30 3489 C 340.67 3.52849 -2.90425 0
M  V30 3490 C 341.667 3.45595 -3.88407 0
M  V30 3491 C 339.352 3.80053 -3.28428 0
M  V30 3492 C 341.346 3.65217 -5.22394 0
M  V30 3493 C 339.033 3.99325 -4.62583 0
M  V30 3494 C 340.031 3.91905 -5.59374 0
M  V30 3495 O 339.719 4.10647 -6.91104 0
M  V30 3496 H 339.451 0.581314 -0.345036 0
M  V30 3497 H 342.005 1.3453 -1.55212 0
M  V30 3498 H 340.235 3.78472 -0.793477 0
M  V30 3499 H 341.924 3.87692 -1.20207 0
M  V30 3500 H 342.69 3.24564 -3.60393 0
M  V30 3501 H 338.569 3.84936 -2.53664 0
M  V30 3502 H 342.113 3.59341 -5.9793 0
M  V30 3503 H 338.01 4.19846 -4.90306 0
M  V30 3504 H 338.778 4.27915 -6.97733 0
M  V30 3505 N 341.441 0.965919 1.2453 0
M  V30 3506 C 342.404 0.499547 2.2369 0
M  V30 3507 C 343.404 -0.40294 1.5567 0
M  V30 3508 O 344.594 -0.19865 1.73064 0
M  V30 3509 C 341.726 -0.276792 3.39774 0
M  V30 3510 H 342.919 1.37613 2.66463 0
M  V30 3511 H 340.472 0.750324 1.37112 0
M  V30 3512 H 341.207 -1.17055 3.02438 0
M  V30 3513 H 340.992 0.370826 3.90343 0
M  V30 3514 H 342.482 -0.592175 4.1338 0
M  V30 3515 N 342.919 -1.39368 0.735821 0
M  V30 3516 C 344.165 -2.00794 0.284544 0
M  V30 3517 C 344.498 -1.58255 -1.12557 0
M  V30 3518 O 343.773 -0.811819 -1.76748 0
M  V30 3519 C 344.056 -3.58011 0.387337 0
M  V30 3520 C 343.909 -4.10566 1.83728 0
M  V30 3521 C 345.228 -4.395 -0.22975 0
M  V30 3522 H 342.347 -0.729501 0.104866 0
M  V30 3523 H 344.989 -1.65564 0.93213 0
M  V30 3524 H 343.139 -3.88154 -0.164006 0
M  V30 3525 H 344.811 -3.91139 2.44556 0
M  V30 3526 H 343.054 -3.64095 2.35833 0
M  V30 3527 H 343.725 -5.19702 1.86047 0
M  V30 3528 H 346.201 -4.15406 0.240257 0
M  V30 3529 H 345.077 -5.48752 -0.127485 0
M  V30 3530 H 345.338 -4.22062 -1.3159 0
M  V30 3531 N 344.397 -0.483516 -1.5 0
M  V30 3532 C 345.36 0.292965 -2.2732 0
M  V30 3533 C 346.36 0.909499 -1.32608 0
M  V30 3534 O 347.55 0.776745 -1.55924 0
M  V30 3535 C 344.682 1.41854 -3.09984 0
M  V30 3536 H 345.875 -0.385289 -2.97415 0
M  V30 3537 H 343.428 -0.237942 -1.54478 0
M  V30 3538 H 344.163 2.13148 -2.44414 0
M  V30 3539 H 343.948 0.982114 -3.79601 0
M  V30 3540 H 345.438 1.96597 -3.68429 0
M  V30 3541 N 345.875 1.56104 -0.216619 0
M  V30 3542 C 346.838 2.18819 0.681962 0
M  V30 3543 C 347.838 1.14866 1.12528 0
M  V30 3544 O 349.028 1.40128 1.03488 0
M  V30 3545 C 346.16 2.80756 1.93362 0
M  V30 3546 H 347.353 2.99595 0.135254 0
M  V30 3547 H 344.906 1.56265 0.0330003 0
M  V30 3548 H 345.641 2.03837 2.52232 0
M  V30 3549 H 345.426 3.56876 1.62426 0
M  V30 3550 H 346.916 3.28844 2.57393 0
M  V30 3551 N 347.353 -0.0568162 1.57498 0
M  V30 3552 C 348.578 -0.769402 1.92601 0
M  V30 3553 C 349.003 -1.69559 0.814336 0
M  V30 3554 O 348.361 -1.79811 -0.231903 0
M  V30 3555 C 348.409 -1.52634 3.26704 0
M  V30 3556 O 347.513 -2.63797 3.16994 0
M  V30 3557 H 346.854 -0.208909 0.63028 0
M  V30 3558 H 349.384 -0.0205798 2.0459 0
M  V30 3559 H 349.394 -1.90234 3.60936 0
M  V30 3560 H 348.069 -0.846875 4.07186 0
M  V30 3561 H 346.646 -2.28943 2.94346 0
M  V30 3562 N 348.832 -1.54138 -0.328536 0
M  V30 3563 C 350.078 -1.7236 -1.06865 0
M  V30 3564 C 350.411 -0.493231 -1.87832 0
M  V30 3565 O 349.686 0.5098 -1.877 0
M  V30 3566 C 349.969 -2.99621 -1.99747 0
M  V30 3567 C 349.822 -4.32899 -1.22143 0
M  V30 3568 C 351.141 -3.22615 -2.99345 0
M  V30 3569 H 348.26 -0.627151 -0.387105 0
M  V30 3570 H 350.902 -1.86827 -0.345767 0
M  V30 3571 H 349.052 -2.87418 -2.61387 0
M  V30 3572 H 350.724 -4.56978 -0.630017 0
M  V30 3573 H 348.967 -4.30628 -0.523628 0
M  V30 3574 H 349.638 -5.18154 -1.90318 0
M  V30 3575 H 352.114 -3.34248 -2.47826 0
M  V30 3576 H 350.99 -4.13027 -3.61524 0
M  V30 3577 H 351.251 -2.3961 -3.71536 0
M  V30 3578 N 350.31 0.590341 -1.46126 0
M  V30 3579 C 351.243 1.71434 -1.50617 0
M  V30 3580 C 352.221 1.58543 -0.360948 0
M  V30 3581 O 353.405 1.79865 -0.563985 0
M  V30 3582 C 350.532 3.09422 -1.37753 0
M  V30 3583 C 349.578 3.40854 -2.5636 0
M  V30 3584 S 350.411 3.33773 -4.18755 0
M  V30 3585 C 351.567 4.74312 -4.08386 0
M  V30 3586 H 351.8 1.67364 -2.45717 0
M  V30 3587 H 349.333 0.76845 -1.33919 0
M  V30 3588 H 351.291 3.8903 -1.31018 0
M  V30 3589 H 349.952 3.10989 -0.440949 0
M  V30 3590 H 349.145 4.41368 -2.43332 0
M  V30 3591 H 348.747 2.68798 -2.60046 0
M  V30 3592 H 351.039 5.64522 -3.74595 0
M  V30 3593 H 351.982 4.92397 -5.08872 0
M  V30 3594 H 352.39 4.50803 -3.3976 0
M  V30 3595 N 351.788 1.33704 0.83433 0
M  V30 3596 C 353.034 1.25603 1.59222 0
M  V30 3597 C 353.367 -0.176659 1.93395 0
M  V30 3598 O 352.642 -1.11915 1.59076 0
M  V30 3599 C 352.925 2.13576 2.89926 0
M  V30 3600 C 352.778 3.65326 2.62406 0
M  V30 3601 C 354.097 2.01238 3.91397 0
M  V30 3602 H 351.216 0.457613 0.577719 0
M  V30 3603 H 353.858 1.63848 0.961972 0
M  V30 3604 H 352.008 1.8109 3.43713 0
M  V30 3605 H 353.68 4.08124 2.15017 0
M  V30 3606 H 351.923 3.8698 1.96033 0
M  V30 3607 H 352.594 4.22232 3.55562 0
M  V30 3608 H 355.07 2.29738 3.46929 0
M  V30 3609 H 353.946 2.65036 4.80673 0
M  V30 3610 H 354.207 0.985951 4.30966 0
M  V30 3611 N 353.266 -1.05314 1.17247 0
M  V30 3612 C 354.196 -2.1498 0.911362 0
M  V30 3613 C 355.177 -1.69471 -0.146169 0
M  V30 3614 O 356.362 -1.942 0.003812 0
M  V30 3615 C 353.492 -3.4472 0.422528 0
M  V30 3616 C 352.446 -4.03789 1.4191 0
M  V30 3617 C 351.772 -5.28858 0.788274 0
M  V30 3618 C 353.072 -4.41418 2.7919 0
M  V30 3619 H 354.766 -2.3708 1.82848 0
M  V30 3620 H 352.312 -1.13938 0.880569 0
M  V30 3621 H 354.265 -4.20787 0.227289 0
M  V30 3622 H 352.989 -3.22269 -0.530123 0
M  V30 3623 H 351.648 -3.2979 1.60106 0
M  V30 3624 H 351.296 -5.02709 -0.171173 0
M  V30 3625 H 350.996 -5.69338 1.45353 0
M  V30 3626 H 352.52 -6.07612 0.603282 0
M  V30 3627 H 353.934 -5.08524 2.64719 0
M  V30 3628 H 352.331 -4.92913 3.42282 0
M  V30 3629 H 353.401 -3.51819 3.33693 0
M  V30 3630 N 354.744 -0.972509 -1.24016 0
M  V30 3631 C 355.992 -0.635776 -1.91839 0
M  V30 3632 C 356.313 0.832312 -1.76345 0
M  V30 3633 O 355.583 1.5946 -1.13795 0
M  V30 3634 H 354.163 -0.232157 -0.710009 0
M  V30 3635 H 356.825 -1.23462 -1.50809 0
M  V30 3636 H 355.921 -0.880545 -2.99421 0
M  V30 3637 N 356.222 1.38976 -0.743202 0
M  V30 3638 C 357.152 2.33171 -0.123873 0
M  V30 3639 C 358.133 1.54336 0.71516 0
M  V30 3640 O 359.318 1.82696 0.658467 0
M  V30 3641 C 356.448 3.38474 0.777978 0
M  V30 3642 C 355.402 4.27979 0.0424758 0
M  V30 3643 C 354.728 5.2405 1.06189 0
M  V30 3644 C 356.028 5.10155 -1.1198 0
M  V30 3645 H 357.722 2.85213 -0.910709 0
M  V30 3646 H 355.268 1.37133 -0.439388 0
M  V30 3647 H 357.221 4.03328 1.22084 0
M  V30 3648 H 355.945 2.84891 1.59702 0
M  V30 3649 H 354.604 3.64616 -0.380853 0
M  V30 3650 H 354.252 4.66758 1.87472 0
M  V30 3651 H 353.952 5.84785 0.574485 0
M  V30 3652 H 355.476 5.9178 1.50428 0
M  V30 3653 H 356.89 5.68307 -0.75499 0
M  V30 3654 H 355.287 5.80073 -1.53738 0
M  V30 3655 H 356.357 4.44504 -1.93764 0
M  V30 3656 N 357.7 0.491464 1.49741 0
M  V30 3657 C 358.947 -0.0564256 2.02421 0
M  V30 3658 C 359.275 -1.37872 1.37192 0
M  V30 3659 O 358.53 -1.89375 0.493508 0
M  V30 3660 C 358.829 -0.267329 3.56399 0
M  V30 3661 C 358.495 0.975775 4.40215 0
M  V30 3662 C 357.157 1.31655 4.62839 0
M  V30 3663 C 359.509 1.80251 4.89039 0
M  V30 3664 C 356.837 2.48375 5.31532 0
M  V30 3665 C 359.189 2.96116 5.59015 0
M  V30 3666 C 357.853 3.30585 5.79888 0
M  V30 3667 H 357.123 -0.0206476 0.740712 0
M  V30 3668 H 359.77 0.649686 1.80143 0
M  V30 3669 H 358.075 -1.05588 3.77304 0
M  V30 3670 H 359.772 -0.705549 3.94744 0
M  V30 3671 H 356.362 0.700315 4.2284 0
M  V30 3672 H 360.546 1.55239 4.71396 0
M  V30 3673 H 355.802 2.7533 5.45897 0
M  V30 3674 H 359.976 3.60509 5.95824 0
M  V30 3675 H 357.603 4.21132 6.32892 0
M  V30 3676 N 359.178 -1.55987 0.224894 0
M  V30 3677 C 360.424 -1.98684 -0.406502 0
M  V30 3678 C 360.757 -1.11248 -1.59177 0
M  V30 3679 O 360.032 -0.170909 -1.93748 0
M  V30 3680 C 360.315 -3.50218 -0.837808 0
M  V30 3681 C 360.168 -4.48426 0.351332 0
M  V30 3682 C 361.487 -4.06243 -1.69278 0
M  V30 3683 H 358.606 -0.722337 -0.146283 0
M  V30 3684 H 361.248 -1.87255 0.321799 0
M  V30 3685 H 359.398 -3.60089 -1.45837 0
M  V30 3686 H 361.07 -4.50562 0.989526 0
M  V30 3687 H 359.313 -4.22159 0.998207 0
M  V30 3688 H 359.984 -5.52 0.00655905 0
M  V30 3689 H 362.46 -3.99337 -1.16914 0
M  V30 3690 H 361.336 -5.12581 -1.96346 0
M  V30 3691 H 361.597 -3.53332 -2.65723 0
M  V30 3692 N 360.656 0.0484629 -1.57525 0
M  V30 3693 C 362.067 0.597486 -1.76881 0
M  V30 3694 C 362.418 1.76664 -0.853475 0
M  V30 3695 O 361.543 2.16357 -0.0433656 0
M  V30 3696 C 362.138 1.09066 -3.20765 0
M  V30 3697 C 360.697 1.58535 -3.41385 0
M  V30 3698 C 359.844 0.514868 -2.72478 0
M  V30 3699 H 362.795 -0.177758 -1.57701 0
M  V30 3700 H 362.816 1.95875 -3.2621 0
M  V30 3701 H 362.328 0.239521 -3.8736 0
M  V30 3702 H 360.429 2.45898 -2.79937 0
M  V30 3703 H 360.542 1.64622 -4.49929 0
M  V30 3704 H 358.906 0.965407 -2.35695 0
M  V30 3705 H 359.689 -0.32648 -3.41744 0
M  V30 3706 N 362.134 1.5431 0.320358 0
M  V30 3707 C 363.545 1.63872 0.894594 0
M  V30 3708 C 363.896 0.534847 1.88769 0
M  V30 3709 O 363.021 -0.331732 2.13842 0
M  V30 3710 C 363.616 2.97049 1.62934 0
M  V30 3711 C 362.175 3.08796 2.15226 0
M  V30 3712 C 361.322 2.59456 0.978671 0
M  V30 3713 H 364.273 1.58398 0.0978544 0
M  V30 3714 H 364.294 2.87388 2.49376 0
M  V30 3715 H 363.806 3.7737 0.906302 0
M  V30 3716 H 361.907 2.33156 2.90636 0
M  V30 3717 H 362.02 4.14649 2.40006 0
M  V30 3718 H 360.384 2.1543 1.35875 0
M  V30 3719 H 361.167 3.42237 0.269895 0
M  V30 3720 N 363.613 -0.582584 1.46437 0
M  V30 3721 C 364.859 -1.34278 1.51978 0
M  V30 3722 C 365.192 -1.93446 0.170973 0
M  V30 3723 O 364.467 -1.76481 -0.817608 0
M  V30 3724 C 364.75 -2.47203 2.61845 0
M  V30 3725 C 364.603 -1.93069 4.06257 0
M  V30 3726 C 365.922 -3.49247 2.67795 0
M  V30 3727 H 363.041 -0.486876 0.553282 0
M  V30 3728 H 365.683 -0.654437 1.78374 0
M  V30 3729 H 363.833 -3.0592 2.39469 0
M  V30 3730 H 365.505 -1.38808 4.3992 0
M  V30 3731 H 363.748 -1.23898 4.1573 0
M  V30 3732 H 364.419 -2.74586 4.7886 0
M  V30 3733 H 366.895 -3.00411 2.8791 0
M  V30 3734 H 365.771 -4.25719 3.46489 0
M  V30 3735 H 366.032 -4.06482 1.73852 0
M  V30 3736 N 365.091 -1.34144 -0.827227 0
M  V30 3737 C 366.338 -1.26258 -1.58319 0
M  V30 3738 C 366.666 0.168595 -1.93768 0
M  V30 3739 O 365.921 1.12877 -1.59866 0
M  V30 3740 C 366.22 -2.09464 -2.89585 0
M  V30 3741 C 365.886 -3.58521 -2.73448 0
M  V30 3742 C 364.548 -3.99155 -2.68754 0
M  V30 3743 C 366.9 -4.53189 -2.57428 0
M  V30 3744 C 364.228 -5.32656 -2.45957 0
M  V30 3745 C 366.58 -5.86864 -2.36163 0
M  V30 3746 C 365.244 -6.26667 -2.29879 0
M  V30 3747 H 364.514 -0.462013 -0.579332 0
M  V30 3748 H 367.161 -1.65845 -0.95748 0
M  V30 3749 H 365.466 -1.62692 -3.56425 0
M  V30 3750 H 367.163 -2.00712 -3.47154 0
M  V30 3751 H 363.753 -3.26264 -2.77939 0
M  V30 3752 H 367.937 -4.22696 -2.60081 0
M  V30 3753 H 363.193 -5.62519 -2.39546 0
M  V30 3754 H 367.367 -6.59813 -2.22754 0
M  V30 3755 H 364.994 -7.30049 -2.11975 0
M  V30 3756 N 366.569 1.04691 -1.17803 0
M  V30 3757 C 367.815 1.78045 -0.970969 0
M  V30 3758 C 368.148 1.87686 0.498751 0
M  V30 3759 O 367.423 1.38035 1.37027 0
M  V30 3760 C 367.706 3.2166 -1.61884 0
M  V30 3761 C 367.559 3.20001 -3.161 0
M  V30 3762 C 368.878 4.1962 -1.3269 0
M  V30 3763 H 365.997 0.64633 -0.354155 0
M  V30 3764 H 368.639 1.22333 -1.45378 0
M  V30 3765 H 366.789 3.69232 -1.20831 0
M  V30 3766 H 368.461 2.80467 -3.66246 0
M  V30 3767 H 366.704 2.58203 -3.48588 0
M  V30 3768 H 367.375 4.21386 -3.56564 0
M  V30 3769 H 369.851 3.80567 -1.68249 0
M  V30 3770 H 368.727 5.18339 -1.80599 0
M  V30 3771 H 368.988 4.414 -0.248622 0
M  V30 3772 N 368.047 0.979072 1.23499 0
M  V30 3773 C 369.293 0.648178 1.92163 0
M  V30 3774 C 369.626 -0.816049 1.76222 0
M  V30 3775 O 368.901 -1.58849 1.12237 0
M  V30 3776 C 369.184 1.03773 3.44824 0
M  V30 3777 C 369.037 2.55948 3.69879 0
M  V30 3778 C 370.356 0.580653 4.36253 0
M  V30 3779 H 367.475 0.236952 0.69787 0
M  V30 3780 H 370.117 1.22012 1.45647 0
M  V30 3781 H 368.267 0.551058 3.84572 0
M  V30 3782 H 369.939 3.12179 3.3962 0
M  V30 3783 H 368.182 2.98641 3.14636 0
M  V30 3784 H 368.853 2.78255 4.76737 0
M  V30 3785 H 371.329 0.998465 4.03943 0
M  V30 3786 H 370.205 0.881663 5.41773 0
M  V30 3787 H 370.466 -0.519052 4.39042 0
M  V30 3788 N 369.525 -1.3858 0.750561 0
M  V30 3789 C 370.75 -2.04997 0.314812 0
M  V30 3790 C 371.175 -1.56235 -1.04749 0
M  V30 3791 O 370.533 -0.712981 -1.66692 0
M  V30 3792 C 370.581 -3.58961 0.343415 0
M  V30 3793 O 369.685 -4.07025 -0.663628 0
M  V30 3794 H 369.026 -0.649081 0.139962 0
M  V30 3795 H 371.556 -1.77313 1.02084 0
M  V30 3796 H 371.566 -4.07542 0.193233 0
M  V30 3797 H 370.241 -3.93811 1.33738 0
M  V30 3798 H 368.818 -3.6982 -0.478307 0
M  V30 3799 N 371.003 -0.499398 -1.49478 0
M  V30 3800 C 372.233 0.0424839 -2.06556 0
M  V30 3801 C 372.641 1.31514 -1.36018 0
M  V30 3802 O 371.984 1.78555 -0.431718 0
M  V30 3803 C 372.046 0.368074 -3.57611 0
M  V30 3804 C 371.71 -0.806631 -4.49825 0
M  V30 3805 C 372.707 -1.69667 -4.91436 0
M  V30 3806 C 370.392 -1.00498 -4.92144 0
M  V30 3807 C 372.386 -2.76923 -5.74101 0
M  V30 3808 C 370.073 -2.08072 -5.74586 0
M  V30 3809 C 371.071 -2.96119 -6.15469 0
M  V30 3810 O 370.759 -4.01836 -6.96264 0
M  V30 3811 H 370.491 -0.0165165 -0.675798 0
M  V30 3812 H 373.045 -0.695497 -1.93267 0
M  V30 3813 H 371.275 1.15963 -3.68903 0
M  V30 3814 H 372.964 0.848381 -3.96935 0
M  V30 3815 H 373.73 -1.55524 -4.59388 0
M  V30 3816 H 369.609 -0.329036 -4.59824 0
M  V30 3817 H 373.153 -3.45676 -6.05932 0
M  V30 3818 H 369.05 -2.22211 -6.06047 0
M  V30 3819 H 369.818 -3.9917 -7.14567 0
M  V30 3820 N 372.481 1.55866 -0.233164 0
M  V30 3821 C 373.444 2.1953 0.658715 0
M  V30 3822 C 374.444 1.16053 1.11303 0
M  V30 3823 O 375.634 1.41218 1.01996 0
M  V30 3824 C 372.766 2.82791 1.90373 0
M  V30 3825 H 373.959 2.99721 0.10347 0
M  V30 3826 H 371.512 1.56291 0.0164245 0
M  V30 3827 H 372.247 2.06501 2.50056 0
M  V30 3828 H 372.032 3.58578 1.58632 0
M  V30 3829 H 373.522 3.31556 2.53891 0
M  V30 3830 N 373.959 -0.0401083 1.57549 0
M  V30 3831 C 374.906 -1.04413 2.05831 0
M  V30 3832 C 375.876 -1.36585 0.945184 0
M  V30 3833 O 377.061 -1.47112 1.21502 0
M  V30 3834 C 374.201 -2.34336 2.53339 0
M  V30 3835 C 373.314 -2.08419 3.78398 0
M  V30 3836 C 372.449 -3.32133 4.14561 0
M  V30 3837 C 371.488 -3.01721 5.3257 0
M  V30 3838 N 370.625 -4.17855 5.64218 0
M  V30 3839 H 375.465 -0.625442 2.91363 0
M  V30 3840 H 373.002 -0.297218 1.44066 0
M  V30 3841 H 374.96 -3.10234 2.78946 0
M  V30 3842 H 373.59 -2.73948 1.7074 0
M  V30 3843 H 372.642 -1.23069 3.59942 0
M  V30 3844 H 373.954 -1.81978 4.64419 0
M  V30 3845 H 373.108 -4.16406 4.41238 0
M  V30 3846 H 371.847 -3.61678 3.2717 0
M  V30 3847 H 370.852 -2.15849 5.05657 0
M  V30 3848 H 372.077 -2.73466 6.21605 0
M  V30 3849 H 370.023 -4.47372 4.79786 0
M  V30 3850 H 369.94 -3.94798 6.44725 0
M  V30 3851 H 371.208 -5.03033 5.95465 0
M  V30 3852 N 375.437 -1.54477 -0.31217 0
M  V30 3853 C 376.714 -1.63891 -1.06767 0
M  V30 3854 C 377.094 -0.480028 -2.0557 0
M  V30 3855 O 376.442 0.524487 -2.22399 0
M  V30 3856 C 376.652 -3.01402 -1.75948 0
M  V30 3857 C 378 -3.57838 -2.28554 0
M  V30 3858 O 379.024 -3.03782 -1.85998 0
M  V30 3859 O 377.883 -4.52462 -3.06497 0
M  V30 3860 H 374.977 -0.664125 -0.492816 0
M  V30 3861 H 377.523 -1.66823 -0.311149 0
M  V30 3862 H 376.295 -3.77187 -1.04144 0
M  V30 3863 H 375.918 -3.02199 -2.58383 0
M  V30 3864 N 376.915 0.57481 -1.46744 0
M  V30 3865 C 377.845 1.69337 -1.60771 0
M  V30 3866 C 378.826 1.63825 -0.457736 0
M  V30 3867 O 380.011 1.8172 -0.684947 0
M  V30 3868 C 377.141 3.0798 -1.60517 0
M  V30 3869 C 376.095 3.28327 -2.74564 0
M  V30 3870 C 375.421 4.67578 -2.59373 0
M  V30 3871 C 376.721 3.15398 -4.16319 0
M  V30 3872 H 378.415 1.57853 -2.54407 0
M  V30 3873 H 375.961 0.75799 -1.22436 0
M  V30 3874 H 377.914 3.86061 -1.68923 0
M  V30 3875 H 376.638 3.20381 -0.634305 0
M  V30 3876 H 375.297 2.52649 -2.65639 0
M  V30 3877 H 374.945 4.76755 -1.60353 0
M  V30 3878 H 374.645 4.82144 -3.35873 0
M  V30 3879 H 376.169 5.47817 -2.69682 0
M  V30 3880 H 377.583 3.83315 -4.26313 0
M  V30 3881 H 375.98 3.41482 -4.93468 0
M  V30 3882 H 377.05 2.12372 -4.3592 0
M  V30 3883 N 378.394 1.34581 0.820102 0
M  V30 3884 C 379.642 1.26845 1.57336 0
M  V30 3885 C 379.963 -0.160667 1.94337 0
M  V30 3886 O 379.233 -1.09396 1.6251 0
M  V30 3887 H 377.813 0.466514 0.583415 0
M  V30 3888 H 380.475 1.68526 0.979027 0
M  V30 3889 H 379.571 1.87513 2.4949 0
M  V30 3890 N 379.872 -1.04064 1.18357 0
M  V30 3891 C 381.118 -1.77528 0.980397 0
M  V30 3892 C 381.451 -1.87948 -0.48879 0
M  V30 3893 O 380.726 -1.3876 -1.36293 0
M  V30 3894 C 381.009 -3.20797 1.63588 0
M  V30 3895 C 380.862 -3.1832 3.17793 0
M  V30 3896 C 382.181 -4.18911 1.34914 0
M  V30 3897 H 379.3 -0.644443 0.357578 0
M  V30 3898 H 381.942 -1.2156 1.46024 0
M  V30 3899 H 380.092 -3.68586 1.22788 0
M  V30 3900 H 381.764 -2.78521 3.67728 0
M  V30 3901 H 380.007 -2.56351 3.49952 0
M  V30 3902 H 380.678 -4.19489 3.58794 0
M  V30 3903 H 383.154 -3.7967 1.70265 0
M  V30 3904 H 382.03 -5.17374 1.83346 0
M  V30 3905 H 382.291 -4.41262 0.272027 0
M  V30 3906 N 381.35 -0.985608 -1.22978 0
M  V30 3907 C 382.761 -0.693593 -1.73338 0
M  V30 3908 C 383.112 0.789935 -1.79595 0
M  V30 3909 O 382.237 1.61771 -1.43733 0
M  V30 3910 C 382.832 -1.25235 -3.14804 0
M  V30 3911 C 381.391 -1.00987 -3.626 0
M  V30 3912 C 380.538 -1.37695 -2.40698 0
M  V30 3913 H 383.489 -1.15884 -1.08428 0
M  V30 3914 H 383.51 -0.627329 -3.75293 0
M  V30 3915 H 383.022 -2.33209 -3.10218 0
M  V30 3916 H 381.123 0.0535565 -3.72562 0
M  V30 3917 H 381.236 -1.66812 -4.49122 0
M  V30 3918 H 379.6 -0.795459 -2.4196 0
M  V30 3919 H 380.383 -2.46657 -2.38779 0
M  V30 3920 N 382.828 1.3818 -0.7579 0
M  V30 3921 C 384.105 1.94106 -0.241306 0
M  V30 3922 C 384.485 1.69282 1.26122 0
M  V30 3923 O 383.833 1.03378 2.03777 0
M  V30 3924 C 384.043 3.43809 -0.59967 0
M  V30 3925 C 385.391 4.20868 -0.561717 0
M  V30 3926 O 386.415 3.5211 -0.538222 0
M  V30 3927 O 385.274 5.43451 -0.576478 0
M  V30 3928 H 382.368 0.825376 -0.0518042 0
M  V30 3929 H 384.914 1.47548 -0.838315 0
M  V30 3930 H 383.686 3.55403 -1.6372 0
M  V30 3931 H 383.309 3.97592 0.0251197 0
M  V30 3932 N 384.306 0.507319 1.49211 0
M  V30 3933 C 385.534 -0.0315749 2.06876 0
M  V30 3934 C 385.949 -1.30241 1.36685 0
M  V30 3935 O 385.306 -1.76937 0.447152 0
M  V30 3936 C 385.357 -0.282627 3.60393 0
M  V30 3937 O 385.078 0.937835 4.27944 0
M  V30 3938 C 386.579 -0.864453 4.3479 0
M  V30 3939 H 383.799 0.0233048 0.670595 0
M  V30 3940 H 386.343 0.706484 1.91909 0
M  V30 3941 H 384.498 -0.97068 3.75042 0
M  V30 3942 H 384.912 0.704567 5.19746 0
M  V30 3943 H 386.386 -0.989664 5.43056 0
M  V30 3944 H 386.863 -1.86382 3.97692 0
M  V30 3945 H 387.469 -0.213672 4.24763 0
M  V30 3946 N 385.784 -1.5574 0.241426 0
M  V30 3947 C 386.731 -2.21149 -0.660432 0
M  V30 3948 C 387.701 -1.17356 -1.17545 0
M  V30 3949 O 388.886 -1.45784 -1.23093 0
M  V30 3950 C 386.026 -2.91059 -1.85414 0
M  V30 3951 C 385.139 -4.09495 -1.37616 0
M  V30 3952 C 384.274 -4.67135 -2.529 0
M  V30 3953 C 383.313 -5.77831 -2.01936 0
M  V30 3954 N 382.45 -6.29677 -3.10566 0
M  V30 3955 H 387.29 -2.97845 -0.095955 0
M  V30 3956 H 384.827 -1.47057 -0.0356024 0
M  V30 3957 H 386.785 -3.29788 -2.5553 0
M  V30 3958 H 385.415 -2.16846 -2.39118 0
M  V30 3959 H 384.467 -3.76117 -0.569235 0
M  V30 3960 H 385.779 -4.89423 -0.962618 0
M  V30 3961 H 384.933 -5.08409 -3.31067 0
M  V30 3962 H 383.672 -3.86411 -2.97553 0
M  V30 3963 H 382.677 -5.36039 -1.22238 0
M  V30 3964 H 383.902 -6.60402 -1.58259 0
M  V30 3965 H 381.848 -5.5186 -3.54664 0
M  V30 3966 H 381.765 -7.04783 -2.73526 0
M  V30 3967 H 383.033 -6.75609 -3.88809 0
M  V30 3968 N 387.262 0.0317525 -1.57568 0
M  V30 3969 C 388.225 1.01783 -2.0536 0
M  V30 3970 C 389.225 1.29203 -0.957253 0
M  V30 3971 O 390.415 1.24251 -1.22095 0
M  V30 3972 C 387.547 2.35137 -2.46827 0
M  V30 3973 H 388.74 0.605062 -2.93733 0
M  V30 3974 H 386.293 0.278514 -1.53799 0
M  V30 3975 H 387.028 2.81168 -1.61602 0
M  V30 3976 H 386.813 2.16566 -3.26866 0
M  V30 3977 H 388.303 3.05938 -2.84239 0
M  V30 3978 N 388.74 1.54641 0.303973 0
M  V30 3979 C 389.703 1.84646 1.35789 0
M  V30 3980 C 390.703 0.7192 1.4382 0
M  V30 3981 O 391.893 0.987491 1.43507 0
M  V30 3982 C 389.025 2.02407 2.74307 0
M  V30 3983 H 390.218 2.78829 1.10429 0
M  V30 3984 H 387.771 1.46658 0.540487 0
M  V30 3985 H 388.506 1.10502 3.04893 0
M  V30 3986 H 388.291 2.84453 2.69868 0
M  V30 3987 H 389.781 2.27002 3.50514 0
M  V30 3988 N 390.218 -0.567019 1.47046 0
M  V30 3989 C 391.465 -1.32462 1.53167 0
M  V30 3990 C 391.793 -1.93571 0.189841 0
M  V30 3991 O 391.048 -1.77865 -0.816243 0
M  V30 3992 C 391.347 -2.4623 2.59047 0
M  V30 3993 C 391.013 -2.03014 4.02612 0
M  V30 3994 C 389.675 -1.90944 4.41694 0
M  V30 3995 C 392.027 -1.69895 4.92732 0
M  V30 3996 C 389.355 -1.44035 5.68745 0
M  V30 3997 C 391.707 -1.2446 6.20236 0
M  V30 3998 C 390.371 -1.10979 6.5821 0
M  V30 3999 H 389.641 -0.484713 0.560477 0
M  V30 4000 H 392.288 -0.636888 1.80599 0
M  V30 4001 H 390.593 -3.20517 2.25335 0
M  V30 4002 H 392.29 -3.04427 2.61008 0
M  V30 4003 H 388.88 -2.13348 3.71726 0
M  V30 4004 H 393.064 -1.78098 4.63244 0
M  V30 4005 H 388.32 -1.32254 5.96925 0
M  V30 4006 H 392.494 -0.978924 6.89485 0
M  V30 4007 H 390.121 -0.744078 7.5655 0
M  V30 4008 N 391.696 -1.35014 -0.812953 0
M  V30 4009 C 392.626 -1.30069 -1.93919 0
M  V30 4010 C 393.607 -0.176275 -1.69184 0
M  V30 4011 O 394.792 -0.370227 -1.90638 0
M  V30 4012 C 391.922 -1.06547 -3.30552 0
M  V30 4013 C 390.876 -2.15561 -3.69753 0
M  V30 4014 C 390.202 -1.77214 -5.04479 0
M  V30 4015 C 391.502 -3.57476 -3.808 0
M  V30 4016 H 393.196 -2.24303 -1.98314 0
M  V30 4017 H 390.742 -1.07977 -0.952736 0
M  V30 4018 H 392.695 -1.01729 -4.08937 0
M  V30 4019 H 391.419 -0.0875719 -3.26483 0
M  V30 4020 H 390.078 -2.19466 -2.9365 0
M  V30 4021 H 389.726 -0.780589 -4.96906 0
M  V30 4022 H 389.426 -2.50184 -5.31678 0
M  V30 4023 H 390.95 -1.7391 -5.8531 0
M  V30 4024 H 392.364 -3.55929 -4.4943 0
M  V30 4025 H 390.761 -4.29152 -4.19462 0
M  V30 4026 H 391.831 -3.94091 -2.82525 0
M  V30 4027 N 393.175 1.03435 -1.18907 0
M  V30 4028 C 394.105 2.13503 -0.945448 0
M  V30 4029 C 395.086 1.69682 0.119189 0
M  V30 4030 O 396.271 1.94169 -0.034707 0
M  V30 4031 C 393.401 3.44004 -0.477316 0
M  V30 4032 C 392.355 4.0148 -1.48316 0
M  V30 4033 C 391.681 5.27537 -0.872311 0
M  V30 4034 C 392.981 4.36921 -2.86177 0
M  V30 4035 H 394.675 2.34141 -1.86597 0
M  V30 4036 H 392.221 1.12523 -0.898584 0
M  V30 4037 H 394.174 4.20372 -0.294204 0
M  V30 4038 H 392.898 3.23072 0.478786 0
M  V30 4039 H 391.557 3.27201 -1.65332 0
M  V30 4040 H 391.205 5.02917 0.0911752 0
M  V30 4041 H 390.905 5.66954 -1.54393 0
M  V30 4042 H 392.429 6.06576 -0.699871 0
M  V30 4043 H 393.843 5.04248 -2.72776 0
M  V30 4044 H 392.24 4.87405 -3.50081 0
M  V30 4045 H 393.31 3.46466 -3.39248 0
M  V30 4046 N 394.653 0.992116 1.22453 0
M  V30 4047 C 395.881 0.685944 1.95198 0
M  V30 4048 C 396.296 -0.749233 1.73297 0
M  V30 4049 O 395.653 -1.50549 1.03156 0
M  V30 4050 C 395.704 0.981395 3.47924 0
M  V30 4051 O 395.425 2.36018 3.6909 0
M  V30 4052 C 396.926 0.692815 4.37853 0
M  V30 4053 H 394.146 0.253821 0.621141 0
M  V30 4054 H 396.69 1.32668 1.55626 0
M  V30 4055 H 394.845 0.386481 3.85467 0
M  V30 4056 H 395.259 2.45884 4.63294 0
M  V30 4057 H 396.733 0.949818 5.43767 0
M  V30 4058 H 397.21 -0.373181 4.37612 0
M  V30 4059 H 397.816 1.26874 4.05935 0
M  V30 4060 N 396.131 -1.37776 0.765217 0
M  V30 4061 C 397.38 -1.99092 0.323307 0
M  V30 4062 C 397.693 -1.61434 -1.10446 0
M  V30 4063 O 398.899 -2.15805 -1.64743 0
M  V30 4064 C 397.355 -3.56019 0.527098 0
M  V30 4065 C 396.963 -4.0262 1.96471 0
M  V30 4066 C 398.707 -4.2424 0.148483 0
M  V30 4067 C 396.614 -5.52233 2.11644 0
M  V30 4068 H 395.544 -0.744846 0.117137 0
M  V30 4069 H 398.195 -1.57391 0.943417 0
M  V30 4070 H 396.577 -3.95667 -0.162372 0
M  V30 4071 H 397.751 -3.74234 2.68859 0
M  V30 4072 H 396.066 -3.47161 2.29931 0
M  V30 4073 H 398.663 -5.34159 0.240456 0
M  V30 4074 H 399.006 -4.06446 -0.900422 0
M  V30 4075 H 399.539 -3.89872 0.79025 0
M  V30 4076 H 396.278 -5.74945 3.1483 0
M  V30 4077 H 395.798 -5.82324 1.4373 0
M  V30 4078 H 397.477 -6.18106 1.91193 0
M  V30 4079 N 397.609 -0.515225 -1.4894 0
M  V30 4080 C 398.539 0.244628 -2.32215 0
M  V30 4081 C 399.52 0.949136 -1.41157 0
M  V30 4082 O 400.705 0.937783 -1.70057 0
M  V30 4083 C 397.835 1.30096 -3.22013 0
M  V30 4084 C 396.789 0.715486 -4.21977 0
M  V30 4085 C 396.115 1.87339 -5.00808 0
M  V30 4086 C 397.415 -0.302982 -5.2142 0
M  V30 4087 H 399.109 -0.450501 -2.95991 0
M  V30 4088 H 396.655 -0.218098 -1.42339 0
M  V30 4089 H 398.608 1.84037 -3.79089 0
M  V30 4090 H 397.332 2.02547 -2.56207 0
M  V30 4091 H 395.991 0.197715 -3.66066 0
M  V30 4092 H 395.639 2.58592 -4.31438 0
M  V30 4093 H 395.339 1.48764 -5.68457 0
M  V30 4094 H 396.863 2.41686 -5.60732 0
M  V30 4095 H 398.277 0.148802 -5.73107 0
M  V30 4096 H 396.674 -0.60532 -5.97039 0
M  V30 4097 H 397.744 -1.21395 -4.69459 0
M  V30 4098 N 399.087 1.5561 -0.249682 0
M  V30 4099 C 400.335 1.98618 0.373548 0
M  V30 4100 C 400.656 1.13919 1.58264 0
M  V30 4101 O 399.926 0.222637 1.94631 0
M  V30 4102 H 398.506 0.733571 0.141006 0
M  V30 4103 H 401.168 1.91748 -0.349117 0
M  V30 4104 H 400.264 3.04584 0.680796 0
M  V30 4105 N 400.565 -0.0233959 1.57583 0
M  V30 4106 C 401.812 -0.713063 1.8953 0
M  V30 4107 C 402.14 -1.75056 0.847673 0
M  V30 4108 O 401.395 -1.95119 -0.150636 0
M  V30 4109 C 401.694 -1.41428 3.28227 0
M  V30 4110 C 401.36 -0.512222 4.47981 0
M  V30 4111 C 400.022 -0.263785 4.80476 0
M  V30 4112 C 402.374 0.110248 5.21083 0
M  V30 4113 C 399.702 0.615804 5.83459 0
M  V30 4114 C 402.054 0.977573 6.25001 0
M  V30 4115 C 400.718 1.23542 6.55968 0
M  V30 4116 H 399.988 -0.260928 0.69354 0
M  V30 4117 H 402.635 0.0271047 1.91481 0
M  V30 4118 H 400.94 -2.22791 3.22291 0
M  V30 4119 H 402.637 -1.95355 3.50196 0
M  V30 4120 H 399.227 -0.716013 4.22577 0
M  V30 4121 H 403.411 -0.0687137 4.96252 0
M  V30 4122 H 398.667 0.82382 6.05824 0
M  V30 4123 H 402.841 1.46638 6.80786 0
M  V30 4124 H 400.468 1.91871 7.35588 0
M  V30 4125 N 402.043 -1.548 -0.295768 0
M  V30 4126 C 403.292 -1.73538 -1.02798 0
M  V30 4127 C 403.605 -0.531159 -1.8825 0
M  V30 4128 O 404.811 -0.600458 -2.64777 0
M  V30 4129 C 403.267 -3.07051 -1.87744 0
M  V30 4130 C 402.875 -4.34968 -1.07269 0
M  V30 4131 C 404.619 -3.35146 -2.60533 0
M  V30 4132 C 402.526 -5.5953 -1.91521 0
M  V30 4133 H 401.456 -0.646794 -0.387522 0
M  V30 4134 H 404.107 -1.81278 -0.284718 0
M  V30 4135 H 402.489 -2.93289 -2.66078 0
M  V30 4136 H 403.663 -4.5958 -0.335117 0
M  V30 4137 H 401.978 -4.13847 -0.460384 0
M  V30 4138 H 404.575 -4.2541 -3.23929 0
M  V30 4139 H 404.918 -2.54255 -3.29636 0
M  V30 4140 H 405.451 -3.49902 -1.89244 0
M  V30 4141 H 402.19 -6.43103 -1.26878 0
M  V30 4142 H 401.71 -5.39096 -2.62937 0
M  V30 4143 H 403.389 -5.96982 -2.49442 0
M  V30 4144 N 403.521 0.559213 -1.47345 0
M  V30 4145 C 404.798 1.31997 -1.44348 0
M  V30 4146 C 405.178 2.1064 -0.139358 0
M  V30 4147 O 404.526 2.1091 0.879153 0
M  V30 4148 C 404.736 2.22618 -2.68779 0
M  V30 4149 C 406.084 2.83701 -3.1591 0
M  V30 4150 O 407.108 2.32921 -2.69493 0
M  V30 4151 O 405.967 3.75993 -3.966 0
M  V30 4152 H 403.061 0.594251 -0.575147 0
M  V30 4153 H 405.607 0.578282 -1.59543 0
M  V30 4154 H 404.379 1.64093 -3.55231 0
M  V30 4155 H 404.002 3.04085 -2.5616 0
M  V30 4156 N 404.999 1.35443 0.805782 0
M  V30 4157 C 406.248 1.28097 1.55801 0
M  V30 4158 C 406.561 -0.142428 1.95081 0
M  V30 4159 O 407.767 -0.33817 2.69386 0
M  V30 4160 C 406.223 2.24653 2.81174 0
M  V30 4161 C 405.831 3.72342 2.49129 0
M  V30 4162 C 407.575 2.2625 3.59181 0
M  V30 4163 C 405.482 4.60719 3.70799 0
M  V30 4164 H 404.412 0.475937 0.584808 0
M  V30 4165 H 407.063 1.60712 0.885661 0
M  V30 4166 H 405.445 1.85011 3.50124 0
M  V30 4167 H 406.619 4.20624 1.88181 0
M  V30 4168 H 404.934 3.73361 1.84366 0
M  V30 4169 H 407.531 2.89495 4.49552 0
M  V30 4170 H 407.874 1.26647 3.96568 0
M  V30 4171 H 408.407 2.64426 2.97193 0
M  V30 4172 H 405.146 5.61324 3.3852 0
M  V30 4173 H 404.666 4.17163 4.3097 0
M  V30 4174 H 406.345 4.76182 4.38018 0
M  V30 4175 N 406.477 -1.02803 1.19454 0
M  V30 4176 C 407.724 -1.76217 0.997693 0
M  V30 4177 C 408.052 -1.887 -0.47144 0
M  V30 4178 O 407.307 -1.4011 -1.3663 0
M  V30 4179 C 407.606 -3.18941 1.6128 0
M  V30 4180 C 407.272 -3.26463 3.11019 0
M  V30 4181 C 405.934 -3.28223 3.51885 0
M  V30 4182 C 408.286 -3.25542 4.07028 0
M  V30 4183 C 405.614 -3.26719 4.8731 0
M  V30 4184 C 407.966 -3.25579 5.42385 0
M  V30 4185 C 406.63 -3.25637 5.82681 0
M  V30 4186 H 405.9 -0.644823 0.365082 0
M  V30 4187 H 408.547 -1.20655 1.4871 0
M  V30 4188 H 406.852 -3.77587 1.04572 0
M  V30 4189 H 408.549 -3.74415 1.43577 0
M  V30 4190 H 405.139 -3.25822 2.78457 0
M  V30 4191 H 409.323 -3.23362 3.76498 0
M  V30 4192 H 404.579 -3.25089 5.1781 0
M  V30 4193 H 408.753 -3.23817 6.16535 0
M  V30 4194 H 406.38 -3.24226 6.87591 0
M  V30 4195 N 407.956 -0.998596 -1.21925 0
M  V30 4196 C 408.919 -0.558679 -2.22287 0
M  V30 4197 C 409.919 0.361525 -1.56683 0
M  V30 4198 O 411.109 0.152695 -1.73529 0
M  V30 4199 C 408.241 0.18661 -3.40389 0
M  V30 4200 H 409.434 -1.4463 -2.62721 0
M  V30 4201 H 406.987 -0.786413 -1.35075 0
M  V30 4202 H 407.722 1.08996 -3.05435 0
M  V30 4203 H 407.507 -0.474188 -3.89222 0
M  V30 4204 H 408.997 0.482367 -4.14805 0
M  V30 4205 N 409.434 1.37368 -0.772513 0
M  V30 4206 C 410.85 1.53059 -0.452231 0
M  V30 4207 C 411.05 1.73065 1.03203 0
M  V30 4208 O 410.106 1.75245 1.81784 0
M  V30 4209 C 411.419 2.72659 -1.26797 0
M  V30 4210 C 412.967 2.86521 -1.25995 0
M  V30 4211 C 413.442 4.09105 -2.05905 0
M  V30 4212 N 414.933 4.16219 -2.03263 0
M  V30 4213 C 415.668 5.10107 -2.61875 0
M  V30 4214 N 415.164 6.09547 -3.29278 0
M  V30 4215 N 416.957 5.02596 -2.51701 0
M  V30 4216 H 409.108 1.22634 -1.7342 0
M  V30 4217 H 411.371 0.597206 -0.736239 0
M  V30 4218 H 411.077 2.64343 -2.31982 0
M  V30 4219 H 410.951 3.66363 -0.897672 0
M  V30 4220 H 413.338 2.94308 -0.216081 0
M  V30 4221 H 413.419 1.93774 -1.66989 0
M  V30 4222 H 413.063 4.0208 -3.10313 0
M  V30 4223 H 412.993 5.00968 -1.62292 0
M  V30 4224 H 415.484 3.45012 -1.54192 0
M  V30 4225 H 415.797 6.77718 -3.71374 0
M  V30 4226 H 414.142 6.09824 -3.33377 0
M  V30 4227 H 417.333 4.23855 -1.98657 0
M  V30 4228 H 417.506 5.75582 -2.97673 0
M  V30 4229 N 410.912 0.523116 1.48665 0
M  V30 4230 C 412.323 0.0808997 1.86525 0
M  V30 4231 C 412.674 -1.33975 1.43336 0
M  V30 4232 O 411.799 -2.00221 0.821009 0
M  V30 4233 C 412.394 0.140037 3.3851 0
M  V30 4234 C 410.953 -0.246948 3.75589 0
M  V30 4235 C 410.1 0.502845 2.72703 0
M  V30 4236 H 413.051 0.734736 1.40667 0
M  V30 4237 H 413.072 -0.649945 3.74908 0
M  V30 4238 H 412.584 1.17412 3.69914 0
M  V30 4239 H 410.685 -1.28343 3.49798 0
M  V30 4240 H 410.798 0.0878859 4.79019 0
M  V30 4241 H 409.162 -0.0500581 2.54651 0
M  V30 4242 H 409.945 1.53743 3.0695 0
M  V30 4243 N 412.39 -1.55475 0.257931 0
M  V30 4244 C 413.353 -2.20551 -0.623706 0
M  V30 4245 C 414.353 -1.17809 -1.09443 0
M  V30 4246 O 415.543 -1.42823 -0.997362 0
M  V30 4247 C 412.675 -2.85784 -1.8585 0
M  V30 4248 H 413.868 -2.99848 -0.0557743 0
M  V30 4249 H 411.421 -1.56298 0.0084422 0
M  V30 4250 H 412.156 -2.10453 -2.46739 0
M  V30 4251 H 411.941 -3.61057 -1.52907 0
M  V30 4252 H 413.431 -3.35553 -2.48584 0
M  V30 4253 N 413.868 0.0150385 -1.57593 0
M  V30 4254 C 414.831 0.995996 -2.06428 0
M  V30 4255 C 415.831 1.2818 -0.970903 0
M  V30 4256 O 417.021 1.22949 -1.23406 0
M  V30 4257 C 414.153 2.32506 -2.49307 0
M  V30 4258 H 415.346 0.573873 -2.94358 0
M  V30 4259 H 412.899 0.262186 -1.54085 0
M  V30 4260 H 413.634 2.79438 -1.64575 0
M  V30 4261 H 413.419 2.13087 -3.29145 0
M  V30 4262 H 414.909 3.02906 -2.87468 0
M  V30 4263 N 415.346 1.54954 0.287554 0
M  V30 4264 C 416.594 1.74528 1.01904 0
M  V30 4265 C 416.915 0.541349 1.87335 0
M  V30 4266 O 416.185 -0.444108 1.908 0
M  V30 4267 H 414.765 0.643576 0.379235 0
M  V30 4268 H 417.427 1.92333 0.315294 0
M  V30 4269 H 416.523 2.64015 1.6644 0
M  V30 4270 N 416.824 -0.551391 1.4764 0
M  V30 4271 C 418.071 -1.3083 1.54563 0
M  V30 4272 C 418.399 -1.93359 0.210361 0
M  V30 4273 O 417.654 -1.78721 -0.797332 0
M  V30 4274 C 417.953 -2.43469 2.61644 0
M  V30 4275 C 417.619 -1.98732 4.04742 0
M  V30 4276 C 416.281 -1.86248 4.43695 0
M  V30 4277 C 418.633 -1.64659 4.94507 0
M  V30 4278 C 415.961 -1.37995 5.70241 0
M  V30 4279 C 418.313 -1.17875 6.21521 0
M  V30 4280 C 416.977 -1.03992 6.5935 0
M  V30 4281 H 416.247 -0.478741 0.565587 0
M  V30 4282 H 418.894 -0.617697 1.81264 0
M  V30 4283 H 417.199 -3.18109 2.28722 0
M  V30 4284 H 418.896 -3.01642 2.64222 0
M  V30 4285 H 415.486 -2.09393 3.73968 0
M  V30 4286 H 419.67 -1.73174 4.65107 0
M  V30 4287 H 414.926 -1.25915 5.98294 0
M  V30 4288 H 419.1 -0.905739 6.90485 0
M  V30 4289 H 416.727 -0.663794 7.57296 0
M  V30 4290 N 418.302 -1.35869 -0.798587 0
M  V30 4291 C 419.548 -1.2978 -1.55836 0
M  V30 4292 C 419.881 0.125322 -1.93795 0
M  V30 4293 O 419.156 1.07658 -1.61987 0
M  V30 4294 C 419.439 -2.21188 -2.84162 0
M  V30 4295 C 419.292 -3.72155 -2.52628 0
M  V30 4296 C 420.611 -2.11545 -3.85923 0
M  V30 4297 H 417.73 -0.472769 -0.565383 0
M  V30 4298 H 420.372 -1.66341 -0.918192 0
M  V30 4299 H 418.522 -1.90139 -3.38791 0
M  V30 4300 H 420.194 -4.13682 -2.04121 0
M  V30 4301 H 418.437 -3.92042 -1.85704 0
M  V30 4302 H 419.108 -4.31511 -3.44242 0
M  V30 4303 H 421.584 -2.38855 -3.40716 0
M  V30 4304 H 420.46 -2.77688 -4.73477 0
M  V30 4305 H 420.721 -1.09987 -4.282 0
M  V30 4306 N 419.78 1.02168 -1.19998 0
M  V30 4307 C 420.743 2.08765 -0.94604 0
M  V30 4308 C 421.743 1.60618 0.0763846 0
M  V30 4309 O 422.933 1.73472 -0.159135 0
M  V30 4310 C 420.065 3.38262 -0.423255 0
M  V30 4311 H 421.258 2.32726 -1.89153 0
M  V30 4312 H 418.811 1.1889 -1.01464 0
M  V30 4313 H 419.546 3.19974 0.527938 0
M  V30 4314 H 419.331 3.74532 -1.16053 0
M  V30 4315 H 420.821 4.16759 -0.264911 0
M  V30 4316 N 421.258 1.00505 1.21394 0
M  V30 4317 C 422.506 0.686415 1.90086 0
M  V30 4318 C 422.827 -0.785264 1.7849 0
M  V30 4319 O 422.097 -1.56387 1.17983 0
M  V30 4320 H 420.677 0.2509 0.703604 0
M  V30 4321 H 423.339 1.27417 1.47482 0
M  V30 4322 H 422.435 0.959621 2.96981 0
M  V30 4323 N 422.737 -1.36956 0.779787 0
M  V30 4324 C 423.667 -2.32761 0.185651 0
M  V30 4325 C 424.648 -1.56177 -0.673989 0
M  V30 4326 O 425.833 -1.84378 -0.609797 0
M  V30 4327 C 422.963 -3.40418 -0.687964 0
M  V30 4328 C 421.917 -4.27941 0.0710102 0
M  V30 4329 C 421.243 -5.26681 -0.922573 0
M  V30 4330 C 422.543 -5.07006 1.25467 0
M  V30 4331 H 424.237 -2.82698 0.986008 0
M  V30 4332 H 421.783 -1.3592 0.475592 0
M  V30 4333 H 423.736 -4.06423 -1.11348 0
M  V30 4334 H 422.46 -2.89025 -1.52093 0
M  V30 4335 H 421.119 -3.63478 0.47739 0
M  V30 4336 H 420.767 -4.71565 -1.7503 0
M  V30 4337 H 420.467 -5.86103 -0.419237 0
M  V30 4338 H 421.991 -5.9556 -1.34686 0
M  V30 4339 H 423.405 -5.66105 0.905401 0
M  V30 4340 H 421.802 -5.75793 1.69063 0
M  V30 4341 H 422.872 -4.3921 2.05481 0
M  V30 4342 N 424.215 -0.530993 -1.48385 0
M  V30 4343 C 425.463 0.00273189 -2.021 0
M  V30 4344 C 425.784 1.34672 -1.41027 0
M  V30 4345 O 425.054 1.8724 -0.576012 0
M  V30 4346 H 423.634 0.00399774 -0.746989 0
M  V30 4347 H 426.296 -0.695054 -1.82085 0
M  V30 4348 H 425.392 0.11031 -3.11905 0
M  V30 4349 N 425.693 1.55336 -0.266172 0
M  V30 4350 C 426.64 2.22172 0.625165 0
M  V30 4351 C 427.61 1.19211 1.15663 0
M  V30 4352 O 428.795 1.47723 1.20758 0
M  V30 4353 C 425.935 2.93972 1.8076 0
M  V30 4354 C 425.048 4.11632 1.31084 0
M  V30 4355 C 424.183 4.71099 2.45436 0
M  V30 4356 C 423.222 5.8097 1.92718 0
M  V30 4357 N 422.359 6.34538 3.00509 0
M  V30 4358 H 427.199 2.9796 0.0485582 0
M  V30 4359 H 424.736 1.47095 0.0122024 0
M  V30 4360 H 426.694 3.33811 2.50251 0
M  V30 4361 H 425.324 2.20623 2.35638 0
M  V30 4362 H 424.376 3.76975 0.509326 0
M  V30 4363 H 425.688 4.90893 0.884633 0
M  V30 4364 H 424.842 5.13612 3.22936 0
M  V30 4365 H 423.581 3.91096 2.91368 0
M  V30 4366 H 422.586 5.37916 1.13695 0
M  V30 4367 H 423.811 6.62836 1.47733 0
M  V30 4368 H 421.757 5.57433 3.45839 0
M  V30 4369 H 421.674 7.09046 2.62279 0
M  V30 4370 H 422.942 6.81709 3.78011 0
M  V30 4371 N 427.171 -0.0066808 1.57599 0
M  V30 4372 C 428.417 -0.693947 1.90558 0
M  V30 4373 C 428.75 -1.73792 0.866594 0
M  V30 4374 O 428.025 -1.94156 -0.115548 0
M  V30 4375 C 428.308 -1.34317 3.34112 0
M  V30 4376 C 428.161 -0.311189 4.48722 0
M  V30 4377 C 429.48 -2.27116 3.7697 0
M  V30 4378 H 426.599 -0.250803 0.693013 0
M  V30 4379 H 429.241 0.043242 1.89951 0
M  V30 4380 H 427.391 -1.9715 3.3476 0
M  V30 4381 H 429.063 0.316944 4.6021 0
M  V30 4382 H 427.306 0.367253 4.32243 0
M  V30 4383 H 427.977 -0.804366 5.46108 0
M  V30 4384 H 430.453 -1.74306 3.77831 0
M  V30 4385 H 429.329 -2.69511 4.78179 0
M  V30 4386 H 429.59 -3.14743 3.10466 0
M  V30 4387 N 428.649 -1.55105 -0.279332 0
M  V30 4388 C 430.065 -1.46803 -0.626187 0
M  V30 4389 C 430.265 -0.676939 -1.89789 0
M  V30 4390 O 429.321 -0.19326 -2.51759 0
M  V30 4391 C 430.634 -2.90962 -0.759034 0
M  V30 4392 C 432.182 -3.01138 -0.853504 0
M  V30 4393 C 432.657 -4.46539 -1.01818 0
M  V30 4394 N 434.148 -4.50341 -1.08386 0
M  V30 4395 C 434.883 -5.60053 -1.22996 0
M  V30 4396 N 434.379 -6.79645 -1.34366 0
M  V30 4397 N 436.172 -5.47783 -1.26056 0
M  V30 4398 H 428.323 -2.04996 0.555921 0
M  V30 4399 H 430.586 -0.929325 0.187239 0
M  V30 4400 H 430.292 -3.51544 0.104852 0
M  V30 4401 H 430.166 -3.39619 -1.64131 0
M  V30 4402 H 432.553 -2.40658 -1.70786 0
M  V30 4403 H 432.634 -2.55745 0.0532466 0
M  V30 4404 H 432.278 -5.0762 -0.168504 0
M  V30 4405 H 432.208 -4.89583 -1.93948 0
M  V30 4406 H 434.699 -3.64191 -1.00864 0
M  V30 4407 H 435.012 -7.59012 -1.4533 0
M  V30 4408 H 433.357 -6.82469 -1.31382 0
M  V30 4409 H 436.548 -4.53294 -1.168 0
M  V30 4410 H 436.721 -6.33331 -1.37098 0
M  V30 4411 N 430.127 0.543554 -1.4793 0
M  V30 4412 C 431.538 1.12561 -1.48953 0
M  V30 4413 C 431.889 1.94578 -0.251754 0
M  V30 4414 O 431.014 2.0665 0.642255 0
M  V30 4415 C 431.609 2.04801 -2.69892 0
M  V30 4416 C 430.168 2.58251 -2.73831 0
M  V30 4417 C 429.315 1.34918 -2.42265 0
M  V30 4418 H 432.266 0.32947 -1.55242 0
M  V30 4419 H 432.287 2.88886 -2.47639 0
M  V30 4420 H 431.799 1.4508 -3.59963 0
M  V30 4421 H 429.9 3.21732 -1.87934 0
M  V30 4422 H 430.013 2.98312 -3.74895 0
M  V30 4423 H 428.377 1.66046 -1.93134 0
M  V30 4424 H 429.16 0.769693 -3.3456 0
M  V30 4425 N 431.605 1.3629 0.791371 0
M  V30 4426 C 432.835 1.33368 1.57786 0
M  V30 4427 C 433.243 -0.0875188 1.88997 0
M  V30 4428 O 432.586 -1.05427 1.50435 0
M  V30 4429 C 432.648 2.08802 2.92646 0
M  V30 4430 C 432.312 3.57903 2.84174 0
M  V30 4431 C 433.309 4.52191 2.56553 0
M  V30 4432 C 430.994 4.00762 3.02812 0
M  V30 4433 C 432.988 5.87315 2.47669 0
M  V30 4434 C 430.675 5.35977 2.93551 0
M  V30 4435 C 431.673 6.29066 2.66017 0
M  V30 4436 O 431.361 7.61798 2.56746 0
M  V30 4437 H 431.093 0.459166 0.496128 0
M  V30 4438 H 433.647 1.79952 0.990269 0
M  V30 4439 H 431.877 1.56878 3.53449 0
M  V30 4440 H 433.566 1.98762 3.53904 0
M  V30 4441 H 434.332 4.20393 2.41858 0
M  V30 4442 H 430.211 3.2868 3.2325 0
M  V30 4443 H 433.755 6.59943 2.26099 0
M  V30 4444 H 429.652 5.67384 3.07808 0
M  V30 4445 H 430.42 7.71898 2.72242 0
M  V30 4446 N 433.083 -1.0153 1.20538 0
M  V30 4447 C 434.308 -1.79283 1.04271 0
M  V30 4448 C 434.733 -1.8372 -0.403544 0
M  V30 4449 O 434.091 -1.27321 -1.2907 0
M  V30 4450 C 434.139 -3.21535 1.63241 0
M  V30 4451 O 433.243 -4.03099 0.870908 0
M  V30 4452 H 432.584 -0.55293 0.367647 0
M  V30 4453 H 435.114 -1.27696 1.59859 0
M  V30 4454 H 435.124 -3.72243 1.6703 0
M  V30 4455 H 433.799 -3.1762 2.68497 0
M  V30 4456 H 432.376 -3.61693 0.907323 0
M  V30 4457 N 434.561 -1.01147 -1.20859 0
M  V30 4458 C 435.807 -0.698899 -1.90377 0
M  V30 4459 C 436.14 0.76904 -1.78324 0
M  V30 4460 O 435.415 1.55817 -1.16409 0
M  V30 4461 C 435.698 -1.12878 -3.41951 0
M  V30 4462 C 435.551 -2.65665 -3.62963 0
M  V30 4463 C 436.87 -0.696114 -4.3456 0
M  V30 4464 H 433.989 -0.255372 -0.691342 0
M  V30 4465 H 436.631 -1.25831 -1.42361 0
M  V30 4466 H 434.781 -0.652827 -3.82976 0
M  V30 4467 H 436.453 -3.21074 -3.31224 0
M  V30 4468 H 434.696 -3.06878 -3.06608 0
M  V30 4469 H 435.367 -2.90797 -4.69192 0
M  V30 4470 H 437.843 -1.10521 -4.01154 0
M  V30 4471 H 436.719 -1.025 -5.39245 0
M  V30 4472 H 436.98 0.402465 -4.40264 0
M  V30 4473 N 436.039 1.36541 -0.78704 0
M  V30 4474 C 437.269 2.03266 -0.369662 0
M  V30 4475 C 437.677 1.59481 1.01796 0
M  V30 4476 O 437.02 0.778612 1.66383 0
M  V30 4477 C 437.082 3.57779 -0.351371 0
M  V30 4478 C 436.746 4.24756 -1.68617 0
M  V30 4479 C 437.743 4.47811 -2.64124 0
M  V30 4480 C 435.428 4.62277 -1.96481 0
M  V30 4481 C 437.422 5.07464 -3.85693 0
M  V30 4482 C 435.109 5.21649 -3.18317 0
M  V30 4483 C 436.107 5.44182 -4.12741 0
M  V30 4484 O 435.795 6.02307 -5.32429 0
M  V30 4485 H 435.527 0.658977 -0.150751 0
M  V30 4486 H 438.081 1.75548 -1.0664 0
M  V30 4487 H 436.311 3.84606 0.401847 0
M  V30 4488 H 438 4.05879 0.0410147 0
M  V30 4489 H 438.766 4.19221 -2.43883 0
M  V30 4490 H 434.645 4.44065 -1.23805 0
M  V30 4491 H 438.189 5.24968 -4.59407 0
M  V30 4492 H 434.086 5.49664 -3.38437 0
M  V30 4493 H 434.854 6.20775 -5.33461 0
M  V30 4494 N 437.518 0.538854 1.48102 0
M  V30 4495 C 438.448 -0.207654 2.32575 0
M  V30 4496 C 439.429 -0.926559 1.4265 0
M  V30 4497 O 440.614 -0.91061 1.71527 0
M  V30 4498 C 437.744 -1.24957 3.24042 0
M  V30 4499 C 436.698 -0.648263 4.23062 0
M  V30 4500 C 436.024 -1.79348 5.03725 0
M  V30 4501 C 437.324 0.385897 5.20872 0
M  V30 4502 H 439.018 0.497534 2.95237 0
M  V30 4503 H 436.564 0.240715 1.41974 0
M  V30 4504 H 438.517 -1.77983 3.81969 0
M  V30 4505 H 437.241 -1.98446 2.59397 0
M  V30 4506 H 435.9 -0.139452 3.66335 0
M  V30 4507 H 435.548 -2.51696 4.35498 0
M  V30 4508 H 435.248 -1.39702 5.70751 0
M  V30 4509 H 436.772 -2.32735 5.64506 0
M  V30 4510 H 438.186 -0.057607 5.73271 0
M  V30 4511 H 436.583 0.700227 5.96001 0
M  V30 4512 H 437.653 1.28848 4.67468 0
M  V30 4513 N 438.996 -1.55193 0.274407 0
M  V30 4514 C 440.243 -1.99581 -0.342579 0
M  V30 4515 C 440.571 -1.1628 -1.55914 0
M  V30 4516 O 439.826 -0.22029 -1.94456 0
M  V30 4517 C 440.125 -3.49019 -0.769458 0
M  V30 4518 C 439.791 -4.49598 0.342389 0
M  V30 4519 C 438.453 -4.76821 0.647686 0
M  V30 4520 C 440.805 -5.0964 1.09163 0
M  V30 4521 C 438.133 -5.61354 1.70581 0
M  V30 4522 C 440.485 -5.95323 2.13948 0
M  V30 4523 C 439.149 -6.20867 2.45113 0
M  V30 4524 H 438.419 -0.730319 -0.125358 0
M  V30 4525 H 441.066 -1.87529 0.387971 0
M  V30 4526 H 439.371 -3.58544 -1.57967 0
M  V30 4527 H 441.068 -3.8077 -1.25757 0
M  V30 4528 H 437.658 -4.28496 0.094318 0
M  V30 4529 H 441.842 -4.88632 0.869024 0
M  V30 4530 H 437.098 -5.79392 1.9523 0
M  V30 4531 H 441.272 -6.40881 2.72478 0
M  V30 4532 H 438.899 -6.86162 3.27239 0
M  V30 4533 N 440.474 -0.00167713 -1.576 0
M  V30 4534 C 441.699 0.69739 -1.95323 0
M  V30 4535 C 442.124 1.6642 -0.876706 0
M  V30 4536 O 441.482 1.80548 0.165007 0
M  V30 4537 C 441.53 1.40403 -3.32144 0
M  V30 4538 O 440.634 2.5185 -3.26566 0
M  V30 4539 H 439.975 0.185373 -0.637599 0
M  V30 4540 H 442.505 -0.0553665 -2.04525 0
M  V30 4541 H 442.515 1.76707 -3.67748 0
M  V30 4542 H 441.19 0.695167 -4.10049 0
M  V30 4543 H 439.767 2.17861 -3.0264 0
M  V30 4544 N 441.952 1.55251 0.271103 0
M  V30 4545 C 443.199 1.75946 1.00245 0
M  V30 4546 C 443.527 0.561611 1.86215 0
M  V30 4547 O 442.782 -0.455832 1.90317 0
M  V30 4548 C 443.081 3.01879 1.91321 0
M  V30 4549 C 442.747 4.34337 1.21086 0
M  V30 4550 C 441.409 4.70338 1.01666 0
M  V30 4551 C 443.761 5.16325 0.71119 0
M  V30 4552 C 441.089 5.8588 0.310099 0
M  V30 4553 C 443.441 6.32597 0.0182157 0
M  V30 4554 C 442.105 6.67236 -0.18768 0
M  V30 4555 H 441.375 0.643833 0.366824 0
M  V30 4556 H 444.022 1.89521 0.27458 0
M  V30 4557 H 442.327 2.83212 2.70736 0
M  V30 4558 H 444.024 3.15088 2.48033 0
M  V30 4559 H 440.614 4.06043 1.37213 0
M  V30 4560 H 444.798 4.88987 0.848844 0
M  V30 4561 H 440.054 6.1124 0.139873 0
M  V30 4562 H 444.228 6.9538 -0.376711 0
M  V30 4563 H 441.855 7.56618 -0.73715 0
M  V30 4564 N 443.43 -0.535701 1.48216 0
M  V30 4565 C 444.655 -1.32149 1.59848 0
M  V30 4566 C 445.08 -1.86338 0.256842 0
M  V30 4567 O 444.438 -1.64107 -0.770632 0
M  V30 4568 C 444.486 -2.45224 2.64381 0
M  V30 4569 O 443.59 -3.48093 2.21144 0
M  V30 4570 H 442.931 -0.391634 0.536208 0
M  V30 4571 H 445.461 -0.645202 1.94161 0
M  V30 4572 H 445.471 -2.91491 2.85476 0
M  V30 4573 H 444.146 -2.05143 3.61786 0
M  V30 4574 H 442.723 -3.07984 2.10239 0
M  V30 4575 N 444.908 -1.36708 -0.784132 0
M  V30 4576 C 445.841 -1.25827 -1.90375 0
M  V30 4577 C 446.819 -0.141331 -1.61985 0
M  V30 4578 O 448.003 -0.313389 -1.85877 0
M  V30 4579 C 445.13 -0.942621 -3.25319 0
M  V30 4580 C 444.176 -2.07474 -3.72635 0
M  V30 4581 S 445.009 -3.69317 -3.8777 0
M  V30 4582 C 446.165 -3.39876 -5.25581 0
M  V30 4583 H 446.398 -2.20593 -1.99314 0
M  V30 4584 H 443.931 -1.22186 -0.943926 0
M  V30 4585 H 445.889 -0.767321 -4.03265 0
M  V30 4586 H 444.55 -0.0126566 -3.14097 0
M  V30 4587 H 443.743 -1.80858 -4.70432 0
M  V30 4588 H 443.345 -2.20953 -3.01754 0
M  V30 4589 H 445.637 -2.94097 -6.10339 0
M  V30 4590 H 446.58 -4.36956 -5.57203 0
M  V30 4591 H 446.988 -2.75098 -4.92931 0
M  V30 4592 N 446.386 1.0089 -1.21074 0
M  V30 4593 C 447.633 1.74607 -1.0256 0
M  V30 4594 C 447.961 1.89426 0.44136 0
M  V30 4595 O 447.216 1.42266 1.34384 0
M  V30 4596 C 447.515 3.16335 -1.66334 0
M  V30 4597 C 447.181 3.21474 -3.16173 0
M  V30 4598 C 445.843 3.22583 -3.57062 0
M  V30 4599 C 448.195 3.19025 -4.12156 0
M  V30 4600 C 445.523 3.18925 -4.92446 0
M  V30 4601 C 447.875 3.16909 -5.47496 0
M  V30 4602 C 446.539 3.16326 -5.87787 0
M  V30 4603 H 445.809 0.638933 -0.375294 0
M  V30 4604 H 448.456 1.18274 -1.50611 0
M  V30 4605 H 446.761 3.75876 -1.10566 0
M  V30 4606 H 448.458 3.72083 -1.49516 0
M  V30 4607 H 445.048 3.2135 -2.83605 0
M  V30 4608 H 449.232 3.17332 -3.81595 0
M  V30 4609 H 444.488 3.16809 -5.22917 0
M  V30 4610 H 448.662 3.13968 -6.21609 0
M  V30 4611 H 446.289 3.13246 -6.92662 0
M  V30 4612 N 447.864 1.01787 1.20321 0
M  V30 4613 C 449.111 0.707936 1.89722 0
M  V30 4614 C 449.439 -0.762535 1.78929 0
M  V30 4615 O 448.694 -1.56977 1.16861 0
M  V30 4616 C 448.993 1.09076 3.40349 0
M  V30 4617 C 448.659 2.55765 3.71342 0
M  V30 4618 C 447.321 2.95845 3.79511 0
M  V30 4619 C 449.673 3.50723 3.85542 0
M  V30 4620 C 447.001 4.2982 3.99339 0
M  V30 4621 C 449.353 4.84387 4.06881 0
M  V30 4622 C 448.017 5.24172 4.1328 0
M  V30 4623 H 447.287 0.259052 0.694243 0
M  V30 4624 H 449.934 1.27868 1.42555 0
M  V30 4625 H 448.239 0.438453 3.89339 0
M  V30 4626 H 449.936 0.828636 3.92345 0
M  V30 4627 H 446.526 2.2371 3.65584 0
M  V30 4628 H 450.71 3.20916 3.78585 0
M  V30 4629 H 445.966 4.60196 4.02529 0
M  V30 4630 H 450.14 5.57891 4.1681 0
M  V30 4631 H 447.767 6.27997 4.28396 0
M  V30 4632 N 449.342 -1.36122 0.79427 0
M  V30 4633 C 450.29 -2.31871 0.184023 0
M  V30 4634 C 451.284 -1.56041 -0.659365 0
M  V30 4635 O 452.49 -1.71266 -0.553906 0
M  V30 4636 H 448.865 -0.750896 0.0407373 0
M  V30 4637 H 450.836 -2.80898 1.00693 0
M  V30 4638 C 449.585 -3.41324 -0.662813 0
M  V30 4639 H 448.908 -3.99793 -0.0231944 0
M  V30 4640 H 450.348 -4.10629 -1.05639 0
M  V30 4641 C 448.807 -2.83308 -1.82313 0
M  V30 4642 O 449.337 -2.75863 -2.91997 0
M  V30 4643 N 447.543 -2.40529 -1.63077 0
M  V30 4644 H 447.09 -2.46785 -0.738591 0
M  V30 4645 H 447.048 -2.02059 -2.40872 0
M  V30 4646 N 450.82 -0.546701 -1.47814 0
M  V30 4647 C 452.068 -0.0187037 -2.02091 0
M  V30 4648 C 452.389 1.33168 -1.42447 0
M  V30 4649 O 451.659 1.86619 -0.595839 0
M  V30 4650 H 450.239 -0.00392531 -0.74699 0
M  V30 4651 H 452.901 -0.714327 -1.81338 0
M  V30 4652 H 451.997 0.0772219 -3.12004 0
M  V30 4653 N 452.299 1.55045 -0.282633 0
M  V30 4654 C 453.229 2.2579 0.595066 0
M  V30 4655 C 454.21 1.25074 1.15284 0
M  V30 4656 O 455.395 1.5381 1.18559 0
M  V30 4657 C 452.525 2.98472 1.77572 0
M  V30 4658 C 451.479 4.0618 1.34914 0
M  V30 4659 C 450.805 4.66477 2.6135 0
M  V30 4660 C 452.105 5.1996 0.493821 0
M  V30 4661 H 453.799 2.994 0.00505653 0
M  V30 4662 H 451.345 1.44 0.000992001 0
M  V30 4663 H 453.298 3.46677 2.39568 0
M  V30 4664 H 452.022 2.2241 2.39168 0
M  V30 4665 H 450.681 3.58797 0.752338 0
M  V30 4666 H 450.329 3.87074 3.2122 0
M  V30 4667 H 450.029 5.39207 2.33516 0
M  V30 4668 H 451.553 5.17435 3.24181 0
M  V30 4669 H 452.967 5.64172 1.01898 0
M  V30 4670 H 451.364 5.99299 0.310047 0
M  V30 4671 H 452.434 4.82462 -0.485593 0
M  V30 4672 N 453.777 0.010035 1.57597 0
M  V30 4673 C 454.74 -0.963029 2.07986 0
M  V30 4674 C 455.74 -1.26619 0.991173 0
M  V30 4675 O 456.93 -1.2097 1.25347 0
M  V30 4676 C 454.062 -2.2851 2.52974 0
M  V30 4677 H 455.255 -0.526971 2.95234 0
M  V30 4678 H 452.808 -0.237639 1.54483 0
M  V30 4679 H 453.543 -2.76784 1.69 0
M  V30 4680 H 453.328 -2.07824 3.32493 0
M  V30 4681 H 454.818 -2.98294 2.9225 0
M  V30 4682 N 455.255 -1.55392 -0.262866 0
M  V30 4683 C 456.532 -1.67204 -1.01499 0
M  V30 4684 C 456.912 -0.545186 -2.03939 0
M  V30 4685 O 456.26 0.453467 -2.23955 0
M  V30 4686 C 456.47 -3.06847 -1.6627 0
M  V30 4687 C 457.818 -3.64928 -2.17054 0
M  V30 4688 O 458.842 -3.09545 -1.76239 0
M  V30 4689 O 457.701 -4.61984 -2.91947 0
M  V30 4690 H 454.795 -0.679467 -0.471438 0
M  V30 4691 H 457.341 -1.67729 -0.257918 0
M  V30 4692 H 456.113 -3.80309 -0.920915 0
M  V30 4693 H 455.736 -3.10266 -2.48638 0
M  V30 4694 N 456.733 0.527833 -1.48498 0
M  V30 4695 C 457.663 1.64136 -1.66077 0
M  V30 4696 C 458.644 1.62286 -0.509625 0
M  V30 4697 O 459.829 1.79449 -0.742413 0
M  V30 4698 C 456.959 3.02717 -1.70234 0
M  V30 4699 C 455.913 3.19426 -2.8487 0
M  V30 4700 C 455.239 4.5909 -2.74118 0
M  V30 4701 C 456.539 3.01993 -4.26142 0
M  V30 4702 H 458.233 1.4968 -2.593 0
M  V30 4703 H 455.779 0.718654 -1.24785 0
M  V30 4704 H 457.732 3.80491 -1.8112 0
M  V30 4705 H 456.456 3.18201 -0.735911 0
M  V30 4706 H 455.115 2.4407 -2.73542 0
M  V30 4707 H 454.763 4.71413 -1.7544 0
M  V30 4708 H 454.463 4.71214 -3.51042 0
M  V30 4709 H 455.987 5.3896 -2.86974 0
M  V30 4710 H 457.401 3.69558 -4.38292 0
M  V30 4711 H 455.798 3.2561 -5.04082 0
M  V30 4712 H 456.868 1.98396 -4.42456 0
M  V30 4713 N 458.211 1.37122 0.776871 0
M  V30 4714 C 459.174 1.32301 1.8716 0
M  V30 4715 C 460.174 0.228099 1.59174 0
M  V30 4716 O 461.364 0.483642 1.67352 0
M  V30 4717 C 458.496 1.054 3.24197 0
M  V30 4718 H 459.689 2.29673 1.92848 0
M  V30 4719 H 457.242 1.22077 0.97606 0
M  V30 4720 H 457.977 0.0853872 3.24188 0
M  V30 4721 H 457.762 1.84648 3.45901 0
M  V30 4722 H 459.252 1.04664 4.04271 0
M  V30 4723 N 459.689 -1.00246 1.21608 0
M  V30 4724 C 460.937 -1.73717 1.0328 0
M  V30 4725 C 461.258 -1.90102 -0.434318 0
M  V30 4726 O 460.528 -1.45376 -1.31311 0
M  V30 4727 H 459.108 -0.643613 0.379172 0
M  V30 4728 H 461.77 -1.20787 1.52959 0
M  V30 4729 H 460.866 -2.73535 1.50283 0
M  V30 4730 N 461.167 -1.02423 -1.1978 0
M  V30 4731 C 462.392 -0.7373 -1.93852 0
M  V30 4732 C 462.817 0.696923 -1.74713 0
M  V30 4733 O 462.175 1.48056 -1.04638 0
M  V30 4734 C 462.223 -1.08783 -3.438 0
M  V30 4735 O 461.327 -0.20383 -4.11896 0
M  V30 4736 H 460.668 -0.27284 -0.605355 0
M  V30 4737 H 463.198 -1.36966 -1.51992 0
M  V30 4738 H 463.208 -1.04276 -3.9445 0
M  V30 4739 H 461.883 -2.13274 -3.57053 0
M  V30 4740 H 460.46 -0.307091 -3.71633 0
M  V30 4741 N 462.645 1.35699 -0.801477 0
M  V30 4742 C 463.873 2.03157 -0.391768 0
M  V30 4743 C 464.288 1.60412 0.995668 0
M  V30 4744 O 463.645 0.799228 1.64069 0
M  V30 4745 C 463.696 3.58566 -0.459671 0
M  V30 4746 O 463.417 3.99756 -1.7924 0
M  V30 4747 C 464.918 4.4328 -0.0421205 0
M  V30 4748 H 462.138 0.651688 -0.159825 0
M  V30 4749 H 464.682 1.73426 -1.08368 0
M  V30 4750 H 462.837 3.86963 0.183939 0
M  V30 4751 H 463.251 4.94387 -1.75162 0
M  V30 4752 H 464.725 5.51821 -0.140754 0
M  V30 4753 H 465.202 4.27383 1.01196 0
M  V30 4754 H 465.808 4.20168 -0.658687 0
M  V30 4755 N 464.123 0.554532 1.47522 0
M  V30 4756 C 465.086 -0.184174 2.28459 0
M  V30 4757 C 466.086 -0.845195 1.36796 0
M  V30 4758 O 467.276 -0.701467 1.59452 0
M  V30 4759 C 464.408 -1.26903 3.16399 0
M  V30 4760 H 465.601 0.526751 2.95238 0
M  V30 4761 H 463.154 0.311375 1.53167 0
M  V30 4762 H 463.889 -2.01244 2.54306 0
M  V30 4763 H 463.674 -0.799883 3.83854 0
M  V30 4764 H 465.164 -1.78794 3.77389 0
M  V30 4765 N 465.601 -1.54893 0.290851 0
M  V30 4766 C 466.849 -1.99538 -0.320756 0
M  V30 4767 C 467.17 -1.18075 -1.55188 0
M  V30 4768 O 466.44 -0.274162 -1.93972 0
M  V30 4769 H 465.02 -0.737052 -0.121507 0
M  V30 4770 H 467.682 -1.90755 0.399832 0
M  V30 4771 H 466.778 -3.06282 -0.599802 0
M  V30 4772 N 467.08 -0.0183926 -1.57589 0
M  V30 4773 C 468.357 0.700621 -1.82622 0
M  V30 4774 C 468.737 1.90951 -0.90005 0
M  V30 4775 O 468.085 2.28452 0.0469145 0
M  V30 4776 C 468.295 1.08899 -3.31575 0
M  V30 4777 C 469.643 1.48514 -3.9778 0
M  V30 4778 O 470.667 1.18227 -3.36007 0
M  V30 4779 O 469.526 2.04903 -5.06633 0
M  V30 4780 H 466.62 0.342743 -0.752633 0
M  V30 4781 H 469.166 -0.0452548 -1.6964 0
M  V30 4782 H 467.938 0.228113 -3.90635 0
M  V30 4783 H 467.561 1.89338 -3.49624 0
M  V30 4784 N 468.558 1.5553 0.254621 0
M  V30 4785 C 469.788 1.80784 1.00004 0
M  V30 4786 C 470.196 0.59071 1.79742 0
M  V30 4787 O 469.539 -0.449988 1.78103 0
M  V30 4788 C 469.601 2.99268 1.99196 0
M  V30 4789 C 469.265 4.35595 1.38224 0
M  V30 4790 C 470.262 5.13884 0.788611 0
M  V30 4791 C 467.947 4.82281 1.40393 0
M  V30 4792 C 469.941 6.37004 0.224783 0
M  V30 4793 C 467.628 6.05351 0.836243 0
M  V30 4794 C 468.626 6.82551 0.24769 0
M  V30 4795 O 468.314 8.03297 -0.311249 0
M  V30 4796 H 468.046 0.60565 0.300274 0
M  V30 4797 H 470.6 2.03411 0.285143 0
M  V30 4798 H 468.83 2.72377 2.74496 0
M  V30 4799 H 470.519 3.11682 2.60018 0
M  V30 4800 H 471.285 4.78938 0.764423 0
M  V30 4801 H 467.164 4.22189 1.85142 0
M  V30 4802 H 470.708 6.97203 -0.235235 0
M  V30 4803 H 466.605 6.39776 0.857733 0
M  V30 4804 H 467.373 8.1825 -0.20237 0
M  V30 4805 N 470.036 -0.519951 1.48776 0
M  V30 4806 C 471.284 -1.2727 1.56993 0
M  V30 4807 C 471.605 -1.9339 0.25004 0
M  V30 4808 O 470.875 -1.81822 -0.729216 0
M  V30 4809 H 469.455 -0.472732 0.578389 0
M  V30 4810 H 472.117 -0.604234 1.85297 0
M  V30 4811 H 471.213 -2.04669 2.3562 0
M  V30 4812 N 471.514 -1.37532 -0.769588 0
M  V30 4813 C 472.762 -1.32597 -1.5252 0
M  V30 4814 C 473.083 0.0884294 -1.94799 0
M  V30 4815 O 472.353 1.03289 -1.66458 0
M  V30 4816 H 470.933 -0.487846 -0.565699 0
M  V30 4817 H 473.595 -1.72044 -0.915806 0
M  V30 4818 H 472.691 -1.96643 -2.42359 0
M  V30 4819 N 472.992 0.995999 -1.22138 0
M  V30 4820 C 473.922 2.10387 -1.01289 0
M  V30 4821 C 474.903 1.69975 0.0651454 0
M  V30 4822 O 476.088 1.9396 -0.0964628 0
M  V30 4823 C 473.218 3.42312 -0.586517 0
M  V30 4824 C 472.172 3.96558 -1.61014 0
M  V30 4825 C 471.498 5.24494 -1.0397 0
M  V30 4826 C 472.798 4.27595 -2.99933 0
M  V30 4827 H 474.492 2.28086 -1.93951 0
M  V30 4828 H 472.038 1.09607 -0.933928 0
M  V30 4829 H 473.991 4.19223 -0.427793 0
M  V30 4830 H 472.715 3.24431 0.375761 0
M  V30 4831 H 471.374 3.21776 -1.75658 0
M  V30 4832 H 471.022 5.02953 -0.0688703 0
M  V30 4833 H 470.722 5.61755 -1.72352 0
M  V30 4834 H 472.246 6.04042 -0.892494 0
M  V30 4835 H 473.66 4.95315 -2.8868 0
M  V30 4836 H 472.057 4.76021 -3.6541 0
M  V30 4837 H 473.127 3.35498 -3.50099 0
M  V30 4838 N 474.47 1.03057 1.19235 0
M  V30 4839 C 475.716 0.729098 1.89241 0
M  V30 4840 C 476.049 -0.740573 1.79525 0
M  V30 4841 O 475.324 -1.53946 1.18874 0
M  V30 4842 C 475.607 1.18304 3.40112 0
M  V30 4843 C 475.46 2.71406 3.5869 0
M  V30 4844 C 476.779 0.765161 4.33397 0
M  V30 4845 H 473.898 0.266338 0.687192 0
M  V30 4846 H 476.54 1.28079 1.40341 0
M  V30 4847 H 474.69 0.713672 3.81889 0
M  V30 4848 H 476.362 3.26303 3.26074 0
M  V30 4849 H 474.605 3.11717 3.01687 0
M  V30 4850 H 475.276 2.98225 4.64506 0
M  V30 4851 H 477.752 1.16889 3.99345 0
M  V30 4852 H 476.628 1.11065 5.37546 0
M  V30 4853 H 476.889 -0.332372 4.40849 0
M  V30 4854 N 475.948 -1.35272 0.808662 0
M  V30 4855 C 477.194 -1.99003 0.390581 0
M  V30 4856 C 477.527 -1.63999 -1.0401 0
M  V30 4857 O 476.802 -0.904368 -1.72196 0
M  V30 4858 C 477.085 -3.55454 0.576566 0
M  V30 4859 C 476.938 -4.00249 2.05233 0
M  V30 4860 C 478.257 -4.401 0.00354277 0
M  V30 4861 H 475.376 -0.722917 0.143388 0
M  V30 4862 H 478.018 -1.6039 1.01858 0
M  V30 4863 H 476.168 -3.88477 0.0419766 0
M  V30 4864 H 477.84 -3.77626 2.64946 0
M  V30 4865 H 476.083 -3.51082 2.54801 0
M  V30 4866 H 476.754 -5.0911 2.13333 0
M  V30 4867 H 479.23 -4.13548 0.460117 0
M  V30 4868 H 478.106 -5.48656 0.163575 0
M  V30 4869 H 478.367 -4.28444 -1.09032 0
M  V30 4870 N 477.426 -0.562348 -1.47226 0
M  V30 4871 C 478.673 -0.0402165 -2.0246 0
M  V30 4872 C 479.001 1.31169 -1.43614 0
M  V30 4873 O 478.256 1.86805 -0.5833 0
M  V30 4874 C 478.555 0.0969817 -3.57268 0
M  V30 4875 C 478.221 -1.1847 -4.35058 0
M  V30 4876 C 476.883 -1.53588 -4.56031 0
M  V30 4877 C 479.235 -2.03378 -4.79882 0
M  V30 4878 C 476.563 -2.73452 -5.19077 0
M  V30 4879 C 478.915 -3.2245 -5.44251 0
M  V30 4880 C 477.579 -3.57876 -5.63455 0
M  V30 4881 H 476.849 -0.0147163 -0.740854 0
M  V30 4882 H 479.496 -0.734895 -1.76838 0
M  V30 4883 H 477.801 0.87466 -3.81912 0
M  V30 4884 H 479.498 0.516408 -3.97661 0
M  V30 4885 H 476.088 -0.90126 -4.19017 0
M  V30 4886 H 480.272 -1.77553 -4.63453 0
M  V30 4887 H 475.528 -3.01062 -5.32139 0
M  V30 4888 H 479.702 -3.88526 -5.77945 0
M  V30 4889 H 477.329 -4.50849 -6.12078 0
M  V30 4890 N 478.904 1.54736 -0.299062 0
M  V30 4891 C 480.144 2.0201 0.31168 0
M  V30 4892 C 480.508 1.18281 1.5124 0
M  V30 4893 O 481.709 1.55243 2.19438 0
M  V30 4894 C 479.98 3.5123 0.661227 0
M  V30 4895 S 481.539 4.20467 1.2551 0
M  V30 4896 H 478.357 0.704523 0.0957517 0
M  V30 4897 H 480.959 1.90791 -0.426482 0
M  V30 4898 H 479.663 4.09804 -0.221171 0
M  V30 4899 H 479.194 3.66481 1.43023 0
M  V30 4900 H 481.209 4.26083 2.54298 0
M  V30 4901 N 480.382 0.0267497 1.57577 0
M  V30 4902 C 481.631 -0.651736 1.9088 0
M  V30 4903 C 481.944 -1.73427 0.904576 0
M  V30 4904 O 483.15 -2.46923 1.12877 0
M  V30 4905 C 481.606 -1.21048 3.38933 0
M  V30 4906 C 481.214 -0.161362 4.47709 0
M  V30 4907 C 482.958 -1.86562 3.81307 0
M  V30 4908 C 480.865 -0.731611 5.86857 0
M  V30 4909 H 479.795 -0.247198 0.712326 0
M  V30 4910 H 482.446 0.0916641 1.83271 0
M  V30 4911 H 480.828 -2.00542 3.41466 0
M  V30 4912 H 482.002 0.61094 4.56732 0
M  V30 4913 H 480.317 0.394877 4.14523 0
M  V30 4914 H 482.914 -2.30178 4.8262 0
M  V30 4915 H 483.257 -2.70735 3.16241 0
M  V30 4916 H 483.79 -1.13762 3.81186 0
M  V30 4917 H 480.529 0.0719329 6.55461 0
M  V30 4918 H 480.049 -1.47245 5.81445 0
M  V30 4919 H 481.728 -1.22208 6.35354 0
M  V30 4920 N 481.861 -1.55662 -0.24637 0
M  V30 4921 C 483.108 -1.77519 -0.974335 0
M  V30 4922 C 483.436 -0.591165 -1.85298 0
M  V30 4923 O 482.691 0.425497 -1.91018 0
M  V30 4924 C 482.99 -3.04885 -1.86494 0
M  V30 4925 C 482.656 -4.36209 -1.14161 0
M  V30 4926 C 481.318 -4.71896 -0.941701 0
M  V30 4927 C 483.67 -5.17391 -0.628957 0
M  V30 4928 C 480.998 -5.86299 -0.216852 0
M  V30 4929 C 483.35 -6.32546 0.0824273 0
M  V30 4930 C 482.014 -6.66853 0.293807 0
M  V30 4931 H 481.284 -0.649588 -0.356535 0
M  V30 4932 H 483.931 -1.89934 -0.244394 0
M  V30 4933 H 482.236 -2.87484 -2.66196 0
M  V30 4934 H 483.933 -3.18994 -2.42989 0
M  V30 4935 H 480.523 -4.08174 -1.30736 0
M  V30 4936 H 484.707 -4.90276 -0.770943 0
M  V30 4937 H 479.963 -6.11385 -0.0426124 0
M  V30 4938 H 484.137 -6.94693 0.487292 0
M  V30 4939 H 481.764 -7.55349 0.857428 0
M  V30 4940 N 483.339 0.512053 -1.4905 0
M  V30 4941 C 484.586 1.26686 -1.57978 0
M  V30 4942 C 484.914 1.92733 -0.261553 0
M  V30 4943 O 484.169 1.80772 0.749667 0
M  V30 4944 C 484.468 2.36446 -2.68008 0
M  V30 4945 C 484.134 1.87932 -4.09869 0
M  V30 4946 C 482.796 1.74419 -4.48477 0
M  V30 4947 C 485.148 1.5149 -4.98698 0
M  V30 4948 C 482.476 1.22827 -5.73699 0
M  V30 4949 C 484.828 1.01355 -6.24428 0
M  V30 4950 C 483.492 0.864735 -6.61875 0
M  V30 4951 H 482.762 0.463577 -0.578081 0
M  V30 4952 H 485.409 0.569421 -1.82838 0
M  V30 4953 H 483.714 3.11933 -2.37076 0
M  V30 4954 H 485.411 2.9453 -2.72127 0
M  V30 4955 H 482.001 1.99405 -3.79389 0
M  V30 4956 H 486.185 1.60782 -4.69535 0
M  V30 4957 H 481.441 1.10008 -6.01422 0
M  V30 4958 H 485.615 0.722351 -6.92644 0
M  V30 4959 H 483.242 0.462777 -7.5879 0
M  V30 4960 N 484.817 1.37938 0.762283 0
M  V30 4961 C 486.065 1.33404 1.51815 0
M  V30 4962 C 486.386 -0.0780975 1.94844 0
M  V30 4963 O 485.656 -1.02405 1.67003 0
M  V30 4964 H 484.236 0.490839 0.563104 0
M  V30 4965 H 486.898 1.72527 0.906669 0
M  V30 4966 H 485.994 1.97926 2.41313 0
M  V30 4967 N 486.295 -0.989507 1.22664 0
M  V30 4968 C 487.544 -1.72375 1.04737 0
M  V30 4969 C 487.857 -1.91096 -0.417316 0
M  V30 4970 O 489.063 -2.6188 -0.716334 0
M  V30 4971 C 487.519 -3.10161 1.82561 0
M  V30 4972 C 487.127 -2.99358 3.333 0
M  V30 4973 C 488.871 -3.87607 1.73093 0
M  V30 4974 C 486.778 -4.32319 4.03552 0
M  V30 4975 H 485.708 -0.646326 0.388302 0
M  V30 4976 H 488.359 -1.10437 1.46546 0
M  V30 4977 H 486.741 -3.728 1.33552 0
M  V30 4978 H 487.915 -2.45863 3.89728 0
M  V30 4979 H 486.23 -2.35392 3.43481 0
M  V30 4980 H 488.827 -4.86025 2.22899 0
M  V30 4981 H 489.17 -4.10509 0.691976 0
M  V30 4982 H 489.703 -3.31652 2.19663 0
M  V30 4983 H 486.442 -4.14616 5.07714 0
M  V30 4984 H 485.962 -4.85714 3.51911 0
M  V30 4985 H 487.641 -5.01051 4.09337 0
M  V30 4986 N 487.773 -1.03688 -1.18687 0
M  V30 4987 C 488.998 -0.757819 -1.93059 0
M  V30 4988 C 489.423 0.678353 -1.75442 0
M  V30 4989 O 488.781 1.46938 -1.06203 0
M  V30 4990 C 488.829 -1.12423 -3.42627 0
M  V30 4991 O 487.933 -0.247505 -4.11657 0
M  V30 4992 H 487.274 -0.279245 -0.602427 0
M  V30 4993 H 489.804 -1.3857 -1.5053 0
M  V30 4994 H 489.814 -1.08454 -3.93322 0
M  V30 4995 H 488.489 -2.17049 -3.54771 0
M  V30 4996 H 487.066 -0.34649 -3.71287 0
M  V30 4997 N 489.251 1.34841 -0.815825 0
M  V30 4998 C 490.481 2.02436 -0.412695 0
M  V30 4999 C 490.889 1.61604 0.983906 0
M  V30 5000 O 490.232 0.813729 1.64694 0
M  V30 5001 C 490.294 3.56953 -0.427182 0
M  V30 5002 C 489.958 4.21083 -1.77589 0
M  V30 5003 C 490.955 4.42107 -2.73564 0
M  V30 5004 C 488.64 4.58006 -2.06243 0
M  V30 5005 C 490.634 4.99169 -3.9637 0
M  V30 5006 C 488.321 5.1478 -3.2931 0
M  V30 5007 C 489.319 5.35304 -4.24191 0
M  V30 5008 O 489.007 5.90878 -5.45086 0
M  V30 5009 H 488.739 0.655631 -0.164695 0
M  V30 5010 H 491.293 1.73246 -1.1034 0
M  V30 5011 H 489.523 3.85372 0.320175 0
M  V30 5012 H 491.212 4.05875 -0.0450875 0
M  V30 5013 H 491.978 4.13953 -2.52721 0
M  V30 5014 H 487.857 4.41339 -1.33196 0
M  V30 5015 H 491.401 5.15105 -4.70439 0
M  V30 5016 H 487.298 5.42362 -3.5002 0
M  V30 5017 H 488.066 6.0932 -5.46508 0
M  V30 5018 N 490.729 0.570148 1.46925 0
M  V30 5019 C 491.977 0.0508523 2.02036 0
M  V30 5020 C 492.298 -1.30885 1.44548 0
M  V30 5021 O 491.568 -1.85647 0.625453 0
M  V30 5022 H 490.148 0.0158088 0.746833 0
M  V30 5023 H 492.81 0.743086 1.80178 0
M  V30 5024 H 491.906 -0.027575 3.12088 0
M  V30 5025 N 492.207 -1.54576 0.307264 0
M  V30 5026 C 493.14 -2.19946 -0.608195 0
M  V30 5027 C 494.118 -1.17096 -1.12815 0
M  V30 5028 O 495.302 -1.45766 -1.19518 0
M  V30 5029 C 492.429 -2.84826 -1.8328 0
M  V30 5030 C 491.475 -4.01256 -1.44554 0
M  V30 5031 S 492.308 -5.33197 -0.49612 0
M  V30 5032 C 493.464 -6.01563 -1.72838 0
M  V30 5033 H 493.697 -2.97253 -0.0528544 0
M  V30 5034 H 491.23 -1.54129 0.0913837 0
M  V30 5035 H 493.188 -3.22832 -2.53554 0
M  V30 5036 H 491.849 -2.07353 -2.35931 0
M  V30 5037 H 491.042 -4.45457 -2.35762 0
M  V30 5038 H 490.644 -3.6484 -0.822671 0
M  V30 5039 H 492.936 -6.22751 -2.6681 0
M  V30 5040 H 493.879 -6.9552 -1.32882 0
M  V30 5041 H 494.287 -5.31279 -1.90795 0
M  V30 5042 N 493.685 -0.035106 -1.57561 0
M  V30 5043 C 494.931 0.64318 -1.92331 0
M  V30 5044 C 495.264 1.71434 -0.912368 0
M  V30 5045 O 494.539 1.94395 0.0640303 0
M  V30 5046 C 494.822 1.25411 -3.37556 0
M  V30 5047 C 494.675 0.192109 -4.4939 0
M  V30 5048 C 495.994 2.17041 -3.82859 0
M  V30 5049 H 493.113 0.232341 -0.699419 0
M  V30 5050 H 495.755 -0.0935889 -1.89769 0
M  V30 5051 H 493.905 1.88205 -3.39869 0
M  V30 5052 H 495.577 -0.438849 -4.59208 0
M  V30 5053 H 493.82 -0.481725 -4.31117 0
M  V30 5054 H 494.491 0.659292 -5.48049 0
M  V30 5055 H 496.967 1.64228 -3.8232 0
M  V30 5056 H 495.843 2.56738 -4.85157 0
M  V30 5057 H 496.104 3.06401 -3.18702 0
M  V30 5058 N 495.163 1.55791 0.238111 0
M  V30 5059 C 496.411 1.77681 0.963001 0
M  V30 5060 C 496.732 0.600674 1.85518 0
M  V30 5061 O 496.002 -0.383182 1.92116 0
M  V30 5062 H 494.582 0.655315 0.358568 0
M  V30 5063 H 497.244 1.93239 0.253945 0
M  V30 5064 H 496.34 2.69177 1.57956 0
M  V30 5065 N 496.642 -0.504142 1.49319 0
M  V30 5066 C 497.605 -1.5883 1.65244 0
M  V30 5067 C 498.605 -1.52009 0.524386 0
M  V30 5068 O 499.795 -1.55218 0.79077 0
M  V30 5069 C 496.927 -2.98481 1.64687 0
M  V30 5070 H 498.12 -1.4604 2.61939 0
M  V30 5071 H 495.673 -0.728144 1.38303 0
M  V30 5072 H 496.408 -3.16751 0.695644 0
M  V30 5073 H 496.193 -3.0484 2.46607 0
M  V30 5074 H 497.683 -3.77256 1.79075 0
M  V30 5075 N 498.12 -1.38341 -0.754957 0
M  V30 5076 C 499.05 -1.38176 -1.88227 0
M  V30 5077 C 500.031 -0.247873 -1.68284 0
M  V30 5078 O 501.216 -0.45075 -1.88896 0
M  V30 5079 C 498.346 -1.20471 -3.25736 0
M  V30 5080 C 497.3 -2.3105 -3.60278 0
M  V30 5081 C 496.626 -1.98452 -4.96509 0
M  V30 5082 C 497.926 -3.73305 -3.65295 0
M  V30 5083 H 499.62 -2.32512 -1.88622 0
M  V30 5084 H 497.166 -1.1192 -0.906082 0
M  V30 5085 H 499.119 -1.18982 -4.04254 0
M  V30 5086 H 497.843 -0.225965 -3.25817 0
M  V30 5087 H 496.502 -2.31723 -2.84078 0
M  V30 5088 H 496.15 -0.990641 -4.93148 0
M  V30 5089 H 495.85 -2.7251 -5.20588 0
M  V30 5090 H 497.374 -1.98578 -5.77407 0
M  V30 5091 H 498.788 -3.7467 -4.3393 0
M  V30 5092 H 497.185 -4.46557 -4.00883 0
M  V30 5093 H 498.255 -4.05719 -2.65556 0
M  V30 5094 N 499.598 0.982988 -1.23187 0
M  V30 5095 C 500.53 2.07729 -0.968572 0
M  V30 5096 C 501.543 1.62702 0.0564821 0
M  V30 5097 O 502.732 1.77603 -0.178733 0
M  V30 5098 C 499.832 3.36071 -0.436974 0
M  V30 5099 C 499.005 4.10081 -1.52159 0
M  V30 5100 C 498.064 5.16701 -0.99532 0
M  V30 5101 O 497.09 5.43727 -1.68373 0
M  V30 5102 N 498.292 5.80226 0.178192 0
M  V30 5103 H 501.057 2.30894 -1.9107 0
M  V30 5104 H 498.618 1.14949 -1.1401 0
M  V30 5105 H 500.61 4.04639 -0.0700051 0
M  V30 5106 H 499.18 3.09893 0.410509 0
M  V30 5107 H 498.4 3.36004 -2.06144 0
M  V30 5108 H 499.688 4.56295 -2.25105 0
M  V30 5109 H 499.086 5.60651 0.754096 0
M  V30 5110 H 497.643 6.49982 0.486449 0
M  V30 5111 N 501.076 1.04316 1.18135 0
M  V30 5112 C 502.323 0.74802 1.88178 0
M  V30 5113 C 502.651 -0.72441 1.80506 0
M  V30 5114 O 501.906 -1.54463 1.20165 0
M  V30 5115 C 502.205 1.16271 3.37958 0
M  V30 5116 C 501.871 2.63585 3.65833 0
M  V30 5117 C 500.533 3.03829 3.73151 0
M  V30 5118 C 502.885 3.58822 3.78016 0
M  V30 5119 C 500.213 4.38194 3.90132 0
M  V30 5120 C 502.565 4.92909 3.96514 0
M  V30 5121 C 501.229 5.3282 4.02068 0
M  V30 5122 H 500.499 0.27372 0.688592 0
M  V30 5123 H 503.146 1.30863 1.39811 0
M  V30 5124 H 501.451 0.520938 3.88321 0
M  V30 5125 H 503.148 0.911672 3.90499 0
M  V30 5126 H 499.738 2.31414 3.60757 0
M  V30 5127 H 503.922 3.28875 3.71692 0
M  V30 5128 H 499.178 4.68631 3.92677 0
M  V30 5129 H 503.352 5.66606 4.04883 0
M  V30 5130 H 500.979 6.36943 4.14979 0
M  V30 5131 N 502.554 -1.34406 0.822964 0
M  V30 5132 C 503.464 -2.33298 0.246838 0
M  V30 5133 C 504.48 -1.62625 -0.618797 0
M  V30 5134 O 505.656 -1.94391 -0.526685 0
M  V30 5135 C 502.721 -3.41785 -0.581731 0
M  V30 5136 C 501.782 -4.28206 0.306309 0
M  V30 5137 C 501.015 -5.31512 -0.48281 0
M  V30 5138 O 501.238 -5.43973 -1.71607 0
M  V30 5139 O 500.172 -6.01749 0.134884 0
M  V30 5140 H 503.998 -2.84401 1.06534 0
M  V30 5141 H 501.583 -1.37466 0.585108 0
M  V30 5142 H 503.465 -4.08028 -1.05313 0
M  V30 5143 H 502.14 -2.92925 -1.37756 0
M  V30 5144 H 501.047 -3.64885 0.825199 0
M  V30 5145 H 502.38 -4.80507 1.06649 0
M  V30 5146 N 504.032 -0.577932 -1.46621 0
M  V30 5147 C 505.278 -0.0617793 -2.02706 0
M  V30 5148 C 505.611 1.29294 -1.44903 0
M  V30 5149 O 504.886 1.8461 -0.61232 0
M  V30 5150 C 505.169 0.00911824 -3.60099 0
M  V30 5151 C 505.022 -1.37416 -4.28295 0
M  V30 5152 C 506.341 0.712159 -4.343 0
M  V30 5153 H 503.46 -0.0239246 -0.736612 0
M  V30 5154 H 506.102 -0.744211 -1.74818 0
M  V30 5155 H 504.252 0.590292 -3.83989 0
M  V30 5156 H 505.924 -2.00013 -4.15683 0
M  V30 5157 H 504.167 -1.94319 -3.87843 0
M  V30 5158 H 504.838 -1.27707 -5.37024 0
M  V30 5159 H 507.314 0.218486 -4.15526 0
M  V30 5160 H 506.19 0.730782 -5.44014 0
M  V30 5161 H 506.451 1.77251 -4.05012 0
M  V30 5162 N 505.51 1.54411 -0.315457 0
M  V30 5163 C 506.44 2.27002 0.547039 0
M  V30 5164 C 507.421 1.27492 1.12605 0
M  V30 5165 O 508.606 1.5629 1.15269 0
M  V30 5166 C 505.736 3.02171 1.71201 0
M  V30 5167 C 504.69 4.0895 1.26268 0
M  V30 5168 C 504.016 4.71915 2.51396 0
M  V30 5169 C 505.316 5.20891 0.383419 0
M  V30 5170 H 507.01 2.99343 -0.0584517 0
M  V30 5171 H 504.556 1.4397 -0.0295527 0
M  V30 5172 H 506.509 3.51681 2.32161 0
M  V30 5173 H 505.233 2.27433 2.34397 0
M  V30 5174 H 503.892 3.60312 0.676062 0
M  V30 5175 H 503.54 3.93801 3.12937 0
M  V30 5176 H 503.24 5.44039 2.22026 0
M  V30 5177 H 504.764 5.24195 3.13133 0
M  V30 5178 H 506.178 5.66206 0.899082 0
M  V30 5179 H 504.575 5.99821 0.182857 0
M  V30 5180 H 505.645 4.81324 -0.587821 0
M  V30 5181 N 506.988 0.0434614 1.5754 0
M  V30 5182 C 507.921 -0.968729 2.06618 0
M  V30 5183 C 508.899 -1.30868 0.965 0
M  V30 5184 O 510.083 -1.42288 1.23638 0
M  V30 5185 C 507.21 -2.28486 2.50023 0
M  V30 5186 C 506.256 -2.09851 3.71302 0
M  V30 5187 S 507.089 -1.38401 5.17306 0
M  V30 5188 C 508.245 -2.71354 5.64019 0
M  V30 5189 H 508.478 -0.551021 2.92149 0
M  V30 5190 H 506.011 -0.168607 1.53477 0
M  V30 5191 H 507.969 -3.04142 2.75695 0
M  V30 5192 H 506.63 -2.67387 1.64812 0
M  V30 5193 H 505.823 -3.07184 3.99567 0
M  V30 5194 H 505.425 -1.42336 3.45856 0
M  V30 5195 H 507.717 -3.67549 5.69134 0
M  V30 5196 H 508.66 -2.47734 6.6335 0
M  V30 5197 H 509.068 -2.77259 4.91719 0
M  V30 5198 N 508.466 -1.55915 -0.229846 0
M  V30 5199 C 509.429 -1.90914 -1.26824 0
M  V30 5200 C 510.429 -0.786999 -1.40225 0
M  V30 5201 O 511.619 -1.05484 -1.38632 0
M  V30 5202 C 508.751 -2.15264 -2.64337 0
M  V30 5203 H 509.944 -2.8378 -0.969998 0
M  V30 5204 H 507.497 -1.49069 -0.4699 0
M  V30 5205 H 508.232 -1.24923 -2.99274 0
M  V30 5206 H 508.017 -2.97005 -2.55989 0
M  V30 5207 H 509.507 -2.43467 -3.39284 0
M  V30 5208 N 509.944 0.496216 -1.49584 0
M  V30 5209 C 511.193 1.24668 -1.58558 0
M  V30 5210 C 511.506 1.9359 -0.279703 0
M  V30 5211 O 512.712 2.70365 -0.248048 0
M  V30 5212 C 511.168 2.26388 -2.79779 0
M  V30 5213 C 510.776 1.63384 -4.17145 0
M  V30 5214 C 512.52 3.02233 -2.98086 0
M  V30 5215 C 510.427 2.63243 -5.29582 0
M  V30 5216 H 509.357 0.468995 -0.590389 0
M  V30 5217 H 512.008 0.519985 -1.75978 0
M  V30 5218 H 510.39 3.02241 -2.55863 0
M  V30 5219 H 511.564 0.93491 -4.51216 0
M  V30 5220 H 509.879 0.999121 -4.04236 0
M  V30 5221 H 512.476 3.76919 -3.79257 0
M  V30 5222 H 512.819 3.60132 -2.08831 0
M  V30 5223 H 513.352 2.33495 -3.22063 0
M  V30 5224 H 510.091 2.10119 -6.20911 0
M  V30 5225 H 509.611 3.31363 -4.99959 0
M  V30 5226 H 511.29 3.25575 -5.59115 0
M  V30 5227 N 511.423 1.38739 0.74761 0
M  V30 5228 C 512.669 1.35475 1.50912 0
M  V30 5229 C 513.002 -0.0533093 1.94127 0
M  V30 5230 O 512.277 -1.01572 1.65871 0
M  V30 5231 C 512.56 2.31582 2.75757 0
M  V30 5232 C 512.413 3.81274 2.38642 0
M  V30 5233 C 513.732 2.25722 3.77806 0
M  V30 5234 H 510.851 0.493427 0.547447 0
M  V30 5235 H 513.493 1.69634 0.855823 0
M  V30 5236 H 511.643 2.02582 3.31501 0
M  V30 5237 H 513.315 4.20972 1.88626 0
M  V30 5238 H 511.558 3.98664 1.71025 0
M  V30 5239 H 512.229 4.4399 3.27989 0
M  V30 5240 H 514.705 2.51336 3.31616 0
M  V30 5241 H 513.581 2.95069 4.62845 0
M  V30 5242 H 513.842 1.25803 4.23823 0
M  V30 5243 N 512.901 -0.976442 1.23707 0
M  V30 5244 C 514.149 -1.71487 1.06942 0
M  V30 5245 C 514.47 -1.9098 -0.393897 0
M  V30 5246 O 513.74 -1.48128 -1.28198 0
M  V30 5247 H 512.32 -0.635425 0.392739 0
M  V30 5248 H 514.982 -1.17515 1.55487 0
M  V30 5249 H 514.078 -2.70286 1.56051 0
M  V30 5250 N 514.379 -1.04941 -1.1758 0
M  V30 5251 C 515.607 -0.778294 -1.91703 0
M  V30 5252 C 516.022 0.665697 -1.76675 0
M  V30 5253 O 515.379 1.45456 -1.10222 0
M  V30 5254 C 515.43 -1.14628 -3.42845 0
M  V30 5255 O 515.151 -2.53359 -3.57409 0
M  V30 5256 C 516.652 -0.900931 -4.34049 0
M  V30 5257 H 513.872 -0.283167 -0.608323 0
M  V30 5258 H 516.416 -1.39942 -1.49119 0
M  V30 5259 H 514.571 -0.569953 -3.83184 0
M  V30 5260 H 514.985 -2.67709 -4.51035 0
M  V30 5261 H 516.459 -1.20817 -5.38616 0
M  V30 5262 H 516.936 0.163966 -4.38894 0
M  V30 5263 H 517.542 -1.46097 -3.99419 0
M  V30 5264 N 515.857 1.33968 -0.830081 0
M  V30 5265 C 516.807 2.26845 -0.229242 0
M  V30 5266 C 517.791 1.48862 0.610659 0
M  V30 5267 O 518.983 1.70808 0.464067 0
M  V30 5268 C 516.112 3.3798 0.602057 0
M  V30 5269 C 515.198 4.23369 -0.248866 0
M  V30 5270 N 515.589 4.88182 -1.32334 0
M  V30 5271 C 513.887 4.45987 -0.0344077 0
M  V30 5272 C 514.588 5.51671 -1.84482 0
M  V30 5273 N 513.564 5.31348 -1.14762 0
M  V30 5274 H 517.366 2.74464 -1.05104 0
M  V30 5275 H 514.88 1.4777 -0.673623 0
M  V30 5276 H 516.877 4.03494 1.04873 0
M  V30 5277 H 515.537 2.9191 1.42193 0
M  V30 5278 H 516.548 4.88988 -1.70619 0
M  V30 5279 H 513.225 4.10658 0.752727 0
M  V30 5280 H 514.615 6.13308 -2.74413 0
M  V30 5281 N 517.335 0.585699 1.46312 0
M  V30 5282 C 518.282 -0.145835 2.30339 0
M  V30 5283 C 519.252 -0.881215 1.40797 0
M  V30 5284 O 520.437 -0.871293 1.69744 0
M  V30 5285 C 517.577 -1.15161 3.25318 0
M  V30 5286 C 516.69 -0.419367 4.2996 0
M  V30 5287 C 515.825 -1.41293 5.12064 0
M  V30 5288 C 514.864 -0.667261 6.08452 0
M  V30 5289 N 514.001 -1.60903 6.83414 0
M  V30 5290 H 518.841 0.576755 2.92365 0
M  V30 5291 H 516.378 0.296237 1.44086 0
M  V30 5292 H 518.336 -1.74763 3.78832 0
M  V30 5293 H 516.966 -1.84188 2.65094 0
M  V30 5294 H 516.018 0.291751 3.7928 0
M  V30 5295 H 517.33 0.163433 4.98532 0
M  V30 5296 H 516.484 -2.08167 5.6987 0
M  V30 5297 H 515.223 -2.02966 4.43459 0
M  V30 5298 H 514.228 0.0152356 5.49798 0
M  V30 5299 H 515.453 -0.0558817 6.79077 0
M  V30 5300 H 513.399 -2.21381 6.17516 0
M  V30 5301 H 513.316 -1.07911 7.48259 0
M  V30 5302 H 514.584 -2.26802 7.45775 0
M  V30 5303 N 518.813 -1.54241 0.323641 0
M  V30 5304 C 520.06 -2.0057 -0.27891 0
M  V30 5305 C 520.388 -1.21181 -1.52136 0
M  V30 5306 O 519.643 -0.282043 -1.93657 0
M  V30 5307 C 519.942 -3.5129 -0.658031 0
M  V30 5308 C 519.608 -4.48281 0.485252 0
M  V30 5309 C 518.27 -4.74519 0.799055 0
M  V30 5310 C 520.622 -5.05909 1.25322 0
M  V30 5311 C 517.95 -5.55643 1.88354 0
M  V30 5312 C 520.302 -5.88215 2.32779 0
M  V30 5313 C 518.966 -6.12755 2.64741 0
M  V30 5314 H 518.236 -0.733938 -0.10206 0
M  V30 5315 H 520.883 -1.862 0.447435 0
M  V30 5316 H 519.188 -3.63388 -1.4648 0
M  V30 5317 H 520.885 -3.84578 -1.1358 0
M  V30 5318 H 517.475 -4.27979 0.230593 0
M  V30 5319 H 521.659 -4.8562 1.02404 0
M  V30 5320 H 516.915 -5.72888 2.13564 0
M  V30 5321 H 521.089 -6.31888 2.92729 0
M  V30 5322 H 518.716 -6.75404 3.48904 0
M  V30 5323 N 520.291 -0.0518155 -1.57515 0
M  V30 5324 C 521.516 0.634896 -1.97443 0
M  V30 5325 C 521.941 1.63546 -0.929207 0
M  V30 5326 O 521.299 1.80981 0.107484 0
M  V30 5327 C 521.347 1.29765 -3.36442 0
M  V30 5328 O 520.451 2.41333 -3.34413 0
M  V30 5329 H 519.792 0.164994 -0.643174 0
M  V30 5330 H 522.322 -0.120407 -2.04245 0
M  V30 5331 H 522.332 1.64918 -3.73184 0
M  V30 5332 H 521.007 0.564361 -4.12053 0
M  V30 5333 H 519.584 2.08122 -3.09418 0
M  V30 5334 N 521.769 1.56035 0.221574 0
M  V30 5335 C 522.994 1.83476 0.967026 0
M  V30 5336 C 523.419 0.632139 1.7716 0
M  V30 5337 O 522.777 -0.419082 1.7639 0
M  V30 5338 C 522.825 3.08907 1.86034 0
M  V30 5339 O 521.929 2.876 2.95567 0
M  V30 5340 H 521.27 0.604913 0.273817 0
M  V30 5341 H 523.8 2.03247 0.234893 0
M  V30 5342 H 523.81 3.3901 2.27016 0
M  V30 5343 H 522.485 3.96068 1.26898 0
M  V30 5344 H 521.062 2.6873 2.58532 0
M  V30 5345 N 523.247 -0.488276 1.49845 0
M  V30 5346 C 524.21 -1.57069 1.66919 0
M  V30 5347 C 525.21 -1.51445 0.540479 0
M  V30 5348 O 526.4 -1.5437 0.807188 0
M  V30 5349 C 523.532 -2.96718 1.67844 0
M  V30 5350 H 524.725 -1.43254 2.63474 0
M  V30 5351 H 522.278 -0.713435 1.39068 0
M  V30 5352 H 523.013 -3.15996 0.7292 0
M  V30 5353 H 522.798 -3.02208 2.49826 0
M  V30 5354 H 524.288 -3.75335 1.83066 0
M  V30 5355 N 524.725 -1.39134 -0.740242 0
M  V30 5356 C 525.974 -1.35384 -1.49512 0
M  V30 5357 C 526.287 0.04919 -1.95538 0
M  V30 5358 O 527.493 0.209257 -2.70692 0
M  V30 5359 C 525.949 -2.37812 -2.70136 0
M  V30 5360 C 525.557 -3.83804 -2.31081 0
M  V30 5361 C 527.301 -2.4313 -3.47977 0
M  V30 5362 C 525.208 -4.77886 -3.48395 0
M  V30 5363 H 524.138 -0.503297 -0.561434 0
M  V30 5364 H 526.789 -1.64754 -0.807974 0
M  V30 5365 H 525.171 -2.01505 -3.40899 0
M  V30 5366 H 526.345 -4.29123 -1.67898 0
M  V30 5367 H 524.66 -3.81732 -1.66343 0
M  V30 5368 H 527.257 -3.10614 -4.35228 0
M  V30 5369 H 527.6 -1.45423 -3.90074 0
M  V30 5370 H 528.133 -2.78304 -2.84239 0
M  V30 5371 H 524.872 -5.76836 -3.11353 0
M  V30 5372 H 524.392 -4.3725 -4.10576 0
M  V30 5373 H 526.071 -4.96538 -4.148 0
M  V30 5374 N 526.204 0.969867 -1.24223 0
M  V30 5375 C 527.452 1.70918 -1.0785 0
M  V30 5376 C 527.773 1.91186 0.383763 0
M  V30 5377 O 527.043 1.48806 1.27411 0
M  V30 5378 H 525.623 0.633334 -0.396103 0
M  V30 5379 H 528.285 1.16689 -1.56108 0
M  V30 5380 H 527.381 2.69455 -1.57482 0
M  V30 5381 N 527.682 1.05563 1.17022 0
M  V30 5382 C 528.612 0.681026 2.23348 0
M  V30 5383 C 529.593 -0.322983 1.67005 0
M  V30 5384 O 530.778 -0.199746 1.9317 0
M  V30 5385 C 527.908 0.0589053 3.4725 0
M  V30 5386 C 526.862 0.988082 4.16438 0
M  V30 5387 C 526.188 0.229646 5.34207 0
M  V30 5388 C 527.488 2.31388 4.68249 0
M  V30 5389 H 529.182 1.56993 2.54938 0
M  V30 5390 H 526.728 0.756302 1.2254 0
M  V30 5391 H 528.681 -0.214982 4.20851 0
M  V30 5392 H 527.405 -0.864968 3.14938 0
M  V30 5393 H 526.064 1.24659 3.44754 0
M  V30 5394 H 525.712 -0.697111 4.98146 0
M  V30 5395 H 525.412 0.848815 5.81437 0
M  V30 5396 H 526.936 -0.0368694 6.10589 0
M  V30 5397 H 528.35 2.09964 5.33468 0
M  V30 5398 H 526.747 2.88736 5.26072 0
M  V30 5399 H 527.817 2.94982 3.84855 0
M  V30 5400 N 529.16 -1.33526 0.837174 0
M  V30 5401 C 530.406 -1.9813 0.432704 0
M  V30 5402 C 530.739 -1.66168 -1.00508 0
M  V30 5403 O 530.014 -0.94069 -1.70239 0
M  V30 5404 C 530.297 -3.54151 0.651834 0
M  V30 5405 C 530.15 -3.95806 2.13676 0
M  V30 5406 C 531.469 -4.39993 0.0968937 0
M  V30 5407 H 528.588 -0.719713 0.15869 0
M  V30 5408 H 531.23 -1.58193 1.05237 0
M  V30 5409 H 529.38 -3.88301 0.124369 0
M  V30 5410 H 531.052 -3.71921 2.72896 0
M  V30 5411 H 529.295 -3.45599 2.62191 0
M  V30 5412 H 529.966 -5.0447 2.24084 0
M  V30 5413 H 532.442 -4.12479 0.547733 0
M  V30 5414 H 531.318 -5.48186 0.279917 0
M  V30 5415 H 531.579 -4.3066 -0.9992 0
M  V30 5416 N 530.638 -0.59345 -1.46 0
M  V30 5417 C 531.568 0.121192 -2.33185 0
M  V30 5418 C 532.549 0.872977 -1.4599 0
M  V30 5419 O 533.734 0.846321 -1.74789 0
M  V30 5420 C 530.864 1.12844 -3.28456 0
M  V30 5421 C 529.818 0.4908 -4.25177 0
M  V30 5422 C 529.144 1.60529 -5.10034 0
M  V30 5423 C 530.444 -0.578949 -5.19081 0
M  V30 5424 H 532.138 -0.606767 -2.93187 0
M  V30 5425 H 529.684 -0.293242 -1.40983 0
M  V30 5426 H 531.637 1.63684 -3.88311 0
M  V30 5427 H 530.361 1.88681 -2.66584 0
M  V30 5428 H 529.02 0.00339328 -3.666 0
M  V30 5429 H 528.668 2.35359 -4.44539 0
M  V30 5430 H 528.368 1.18422 -5.75543 0
M  V30 5431 H 529.892 2.11623 -5.72755 0
M  V30 5432 H 531.306 -0.155199 -5.7309 0
M  V30 5433 H 529.703 -0.920947 -5.92991 0
M  V30 5434 H 530.773 -1.46109 -4.62364 0
M  V30 5435 N 532.116 1.54067 -0.331816 0
M  V30 5436 C 533.046 2.27569 0.522932 0
M  V30 5437 C 534.027 1.28679 1.11247 0
M  V30 5438 O 535.212 1.57504 1.13605 0
M  V30 5439 C 532.342 3.0397 1.67987 0
M  V30 5440 C 531.296 4.10267 1.21924 0
M  V30 5441 C 530.622 4.74555 2.46377 0
M  V30 5442 C 531.922 5.21268 0.32815 0
M  V30 5443 H 533.616 2.99264 -0.0901977 0
M  V30 5444 H 531.162 1.4393 -0.044821 0
M  V30 5445 H 533.115 3.54123 2.28418 0
M  V30 5446 H 531.839 2.29906 2.31971 0
M  V30 5447 H 530.498 3.61009 0.637809 0
M  V30 5448 H 530.146 3.97098 3.08743 0
M  V30 5449 H 529.846 5.46363 2.16243 0
M  V30 5450 H 531.37 5.27487 3.07555 0
M  V30 5451 H 532.784 5.67128 0.838978 0
M  V30 5452 H 531.181 5.99982 0.119228 0
M  V30 5453 H 532.251 4.80673 -0.638839 0
M  V30 5454 N 533.594 0.0601682 1.57485 0
M  V30 5455 C 534.527 -0.94676 2.07634 0
M  V30 5456 C 535.505 -1.29837 0.978826 0
M  V30 5457 O 536.689 -1.40969 1.2514 0
M  V30 5458 C 533.816 -2.25822 2.52433 0
M  V30 5459 C 532.862 -2.05901 3.73507 0
M  V30 5460 S 533.695 -1.32907 5.18745 0
M  V30 5461 C 534.851 -2.65356 5.66866 0
M  V30 5462 H 535.084 -0.520003 2.92717 0
M  V30 5463 H 532.617 -0.152319 1.53647 0
M  V30 5464 H 534.575 -3.01201 2.78905 0
M  V30 5465 H 533.236 -2.65624 1.67639 0
M  V30 5466 H 532.429 -3.02929 4.02803 0
M  V30 5467 H 532.031 -1.38659 3.47347 0
M  V30 5468 H 534.323 -3.61492 5.73001 0
M  V30 5469 H 535.266 -2.40685 6.6594 0
M  V30 5470 H 535.674 -2.72028 4.94632 0
M  V30 5471 N 535.072 -1.5615 -0.213296 0
M  V30 5472 C 535.982 -1.96265 -1.28519 0
M  V30 5473 C 536.998 -0.86765 -1.50824 0
M  V30 5474 O 538.174 -1.17191 -1.63793 0
M  V30 5475 C 535.239 -2.27836 -2.61327 0
M  V30 5476 C 534.3 -3.50949 -2.47252 0
M  V30 5477 C 533.533 -3.81004 -3.73727 0
M  V30 5478 O 533.756 -3.12612 -4.77106 0
M  V30 5479 O 532.69 -4.74477 -3.70344 0
M  V30 5480 H 536.516 -2.87631 -0.974795 0
M  V30 5481 H 534.101 -1.43467 -0.416832 0
M  V30 5482 H 535.983 -2.49299 -3.39747 0
M  V30 5483 H 534.658 -1.39643 -2.9203 0
M  V30 5484 H 533.565 -3.34754 -1.67004 0
M  V30 5485 H 534.898 -4.39551 -2.21486 0
M  V30 5486 N 536.55 0.480323 -1.50102 0
M  V30 5487 C 537.513 1.56181 -1.6775 0
M  V30 5488 C 538.513 1.51156 -0.548503 0
M  V30 5489 O 539.703 1.5394 -0.815363 0
M  V30 5490 C 536.835 2.95823 -1.69415 0
M  V30 5491 H 538.028 1.41855 -2.6423 0
M  V30 5492 H 535.581 0.70605 -1.39444 0
M  V30 5493 H 536.316 3.15604 -0.745948 0
M  V30 5494 H 536.101 3.00878 -2.51425 0
M  V30 5495 H 537.591 3.74359 -1.85054 0
M  V30 5496 N 538.028 1.39524 0.732853 0
M  V30 5497 C 539.274 1.37068 1.49467 0
M  V30 5498 C 539.607 -0.0327166 1.94172 0
M  V30 5499 O 538.882 -0.998071 1.66939 0
M  V30 5500 C 539.165 2.34494 2.73285 0
M  V30 5501 C 539.018 3.83784 2.34585 0
M  V30 5502 C 540.337 2.29717 3.75391 0
M  V30 5503 H 537.456 0.499206 0.542183 0
M  V30 5504 H 540.098 1.70532 0.837783 0
M  V30 5505 H 538.248 2.06087 3.29333 0
M  V30 5506 H 539.92 4.22949 1.84151 0
M  V30 5507 H 538.163 4.00455 1.66787 0
M  V30 5508 H 538.834 4.47444 3.23262 0
M  V30 5509 H 541.31 2.54839 3.28932 0
M  V30 5510 H 540.186 2.99962 4.59689 0
M  V30 5511 H 540.447 1.30291 4.22465 0
M  V30 5512 N 539.506 -0.963266 1.24736 0
M  V30 5513 C 540.469 -2.04013 1.04457 0
M  V30 5514 C 541.469 -1.608 0.000335555 0
M  V30 5515 O 542.659 -1.72515 0.241719 0
M  V30 5516 C 539.791 -3.35858 0.584162 0
M  V30 5517 H 540.984 -2.23436 2.00041 0
M  V30 5518 H 538.537 -1.13914 1.07021 0
M  V30 5519 H 539.272 -3.22128 -0.374673 0
M  V30 5520 H 539.057 -3.68568 1.3379 0
M  V30 5521 H 540.547 -4.1502 0.463451 0
M  V30 5522 N 540.985 -1.06182 -1.16461 0
M  V30 5523 C 542.231 -0.779015 -1.87241 0
M  V30 5524 C 542.564 0.692715 -1.81425 0
M  V30 5525 O 541.839 1.5074 -1.22913 0
M  V30 5526 C 542.122 -1.2728 -3.36856 0
M  V30 5527 C 541.975 -2.80821 -3.51368 0
M  V30 5528 C 543.294 -0.879799 -4.31216 0
M  V30 5529 H 540.413 -0.284464 -0.679889 0
M  V30 5530 H 543.055 -1.31755 -1.36896 0
M  V30 5531 H 541.205 -0.814673 -3.79862 0
M  V30 5532 H 542.877 -3.34833 -3.17308 0
M  V30 5533 H 541.12 -3.19606 -2.93316 0
M  V30 5534 H 541.791 -3.10435 -4.56436 0
M  V30 5535 H 544.267 -1.27436 -3.96105 0
M  V30 5536 H 543.143 -1.25278 -5.34412 0
M  V30 5537 H 543.404 0.215372 -4.41575 0
M  V30 5538 N 542.463 1.3308 -0.844243 0
M  V30 5539 C 543.393 2.3161 -0.296493 0
M  V30 5540 C 544.374 1.59215 0.598707 0
M  V30 5541 O 545.559 1.87077 0.521134 0
M  V30 5542 C 542.689 3.43313 0.524762 0
M  V30 5543 C 541.643 4.27115 -0.275106 0
M  V30 5544 C 540.969 5.30483 0.670236 0
M  V30 5545 C 542.269 5.00443 -1.49514 0
M  V30 5546 H 543.963 2.77672 -1.11976 0
M  V30 5547 H 541.509 1.33496 -0.539899 0
M  V30 5548 H 543.462 4.11273 0.918298 0
M  V30 5549 H 542.186 2.95952 1.3813 0
M  V30 5550 H 540.845 3.60787 -0.650267 0
M  V30 5551 H 540.493 4.79379 1.52332 0
M  V30 5552 H 540.193 5.87435 0.139123 0
M  V30 5553 H 541.717 6.01308 1.06117 0
M  V30 5554 H 543.131 5.61141 -1.17447 0
M  V30 5555 H 541.528 5.67071 -1.96343 0
M  V30 5556 H 542.598 4.28906 -2.26202 0
M  V30 5557 N 543.941 0.601185 1.45683 0
M  V30 5558 C 545.187 0.0940202 2.02582 0
M  V30 5559 C 545.52 -1.26972 1.46941 0
M  V30 5560 O 544.795 -1.83613 0.641612 0
M  V30 5561 C 545.078 0.0481715 3.60068 0
M  V30 5562 C 544.931 1.44212 4.26055 0
M  V30 5563 C 546.25 -0.642975 4.35378 0
M  V30 5564 H 543.369 0.0356404 0.736138 0
M  V30 5565 H 546.011 0.771929 1.73612 0
M  V30 5566 H 544.161 -0.529128 3.8488 0
M  V30 5567 H 545.833 2.06601 4.12449 0
M  V30 5568 H 544.076 2.00465 3.84703 0
M  V30 5569 H 544.747 1.36234 5.34925 0
M  V30 5570 H 547.223 -0.152351 4.15821 0
M  V30 5571 H 546.099 -0.644141 5.45107 0
M  V30 5572 H 546.36 -1.70785 4.0778 0
M  V30 5573 N 545.419 -1.53889 0.339982 0
M  V30 5574 C 546.667 -2.00458 -0.257112 0
M  V30 5575 C 546.988 -1.22953 -1.51353 0
M  V30 5576 O 546.258 -0.335734 -1.93002 0
M  V30 5577 H 544.838 -0.740544 -0.0979965 0
M  V30 5578 H 547.5 -1.89386 0.460317 0
M  V30 5579 H 546.596 -3.08035 -0.502057 0
M  V30 5580 N 546.897 -0.0685191 -1.57451 0
M  V30 5581 C 548.308 0.464634 -1.80826 0
M  V30 5582 C 548.659 1.69847 -0.982169 0
M  V30 5583 O 547.784 2.15439 -0.203734 0
M  V30 5584 C 548.379 0.849721 -3.27971 0
M  V30 5585 C 546.938 1.32776 -3.52204 0
M  V30 5586 C 546.085 0.311332 -2.75547 0
M  V30 5587 H 549.036 -0.294248 -1.55948 0
M  V30 5588 H 549.057 1.71138 -3.39841 0
M  V30 5589 H 548.569 -0.0484736 -3.8807 0
M  V30 5590 H 546.67 2.24456 -2.97406 0
M  V30 5591 H 546.783 1.30794 -4.60901 0
M  V30 5592 H 545.147 0.787915 -2.42206 0
M  V30 5593 H 545.93 -0.579078 -3.38381 0
M  V30 5594 N 548.375 1.56261 0.205012 0
M  V30 5595 C 549.786 1.70056 0.770574 0
M  V30 5596 C 550.137 0.673398 1.84282 0
M  V30 5597 O 549.262 -0.172196 2.15714 0
M  V30 5598 C 549.857 3.08316 1.40451 0
M  V30 5599 C 548.416 3.2391 1.91727 0
M  V30 5600 C 547.563 2.66001 0.783516 0
M  V30 5601 H 550.514 1.58688 -0.019911 0
M  V30 5602 H 550.535 3.05094 2.27371 0
M  V30 5603 H 550.047 3.83053 0.623882 0
M  V30 5604 H 548.148 2.54072 2.7254 0
M  V30 5605 H 548.261 4.3131 2.08588 0
M  V30 5606 H 546.625 2.24915 1.19521 0
M  V30 5607 H 547.408 3.43297 0.0152883 0
M  V30 5608 N 549.853 -0.472356 1.50355 0
M  V30 5609 C 551.078 -1.25251 1.65309 0
M  V30 5610 C 551.503 -1.85081 0.335643 0
M  V30 5611 O 550.861 -1.67227 -0.700335 0
M  V30 5612 C 550.909 -2.3379 2.74544 0
M  V30 5613 O 550.013 -3.38401 2.35709 0
M  V30 5614 H 549.354 -0.368539 0.552336 0
M  V30 5615 H 551.884 -0.562271 1.96722 0
M  V30 5616 H 551.894 -2.79121 2.97583 0
M  V30 5617 H 550.569 -1.89614 3.70161 0
M  V30 5618 H 549.146 -2.9879 2.23112 0
M  V30 5619 N 551.331 -1.39911 -0.725443 0
M  V30 5620 C 552.579 -1.37382 -1.48224 0
M  V30 5621 C 552.9 0.0264107 -1.94982 0
M  V30 5622 O 552.17 0.979408 -1.6966 0
M  V30 5623 H 550.75 -0.505596 -0.549892 0
M  V30 5624 H 553.412 -1.7487 -0.860608 0
M  V30 5625 H 552.508 -2.04254 -2.3598 0
M  V30 5626 N 552.809 0.956637 -1.25245 0
M  V30 5627 C 554.057 1.69764 -1.09657 0
M  V30 5628 C 554.378 1.91583 0.363464 0
M  V30 5629 O 553.648 1.50149 1.25825 0
M  V30 5630 H 552.228 0.629097 -0.402798 0
M  V30 5631 H 554.89 1.15026 -1.57337 0
M  V30 5632 H 553.986 2.67769 -1.60331 0
M  V30 5633 N 554.287 1.06798 1.15896 0
M  V30 5634 C 555.234 0.683314 2.20453 0
M  V30 5635 C 556.204 -0.32255 1.62938 0
M  V30 5636 O 557.389 -0.210276 1.89638 0
M  V30 5637 C 554.529 0.0813266 3.45004 0
M  V30 5638 C 553.642 1.13799 4.16742 0
M  V30 5639 C 552.777 0.501598 5.28826 0
M  V30 5640 C 551.816 1.54144 5.92373 0
M  V30 5641 N 550.953 0.928038 6.9594 0
M  V30 5642 H 555.793 1.57932 2.52708 0
M  V30 5643 H 553.33 0.789544 1.24115 0
M  V30 5644 H 555.288 -0.285274 4.16224 0
M  V30 5645 H 553.918 -0.77806 3.13283 0
M  V30 5646 H 552.97 1.62223 3.44075 0
M  V30 5647 H 554.282 1.92664 4.60089 0
M  V30 5648 H 553.436 0.0823162 6.06644 0
M  V30 5649 H 552.175 -0.318883 4.86656 0
M  V30 5650 H 551.18 1.97056 5.13273 0
M  V30 5651 H 552.405 2.3641 6.36621 0
M  V30 5652 H 550.351 0.12836 6.55874 0
M  V30 5653 H 550.268 1.65401 7.37685 0
M  V30 5654 H 551.536 0.534071 7.77668 0
M  V30 5655 N 555.766 -1.3263 0.851289 0
M  V30 5656 C 556.696 -2.31449 0.308771 0
M  V30 5657 C 557.677 -1.59531 -0.590255 0
M  V30 5658 O 558.862 -1.87351 -0.511205 0
M  V30 5659 C 555.992 -3.43586 -0.506548 0
M  V30 5660 C 554.946 -4.26963 0.297753 0
M  V30 5661 C 554.272 -5.30831 -0.642094 0
M  V30 5662 C 555.572 -4.99643 1.52166 0
M  V30 5663 H 557.266 -2.77074 1.13447 0
M  V30 5664 H 554.812 -1.33207 0.546971 0
M  V30 5665 H 556.765 -4.11754 -0.896474 0
M  V30 5666 H 555.489 -2.96681 -1.36558 0
M  V30 5667 H 554.148 -3.60437 0.669391 0
M  V30 5668 H 553.796 -4.8018 -1.49788 0
M  V30 5669 H 553.496 -5.87501 -0.107968 0
M  V30 5670 H 555.02 -6.01862 -1.02927 0
M  V30 5671 H 556.434 -5.6051 1.20421 0
M  V30 5672 H 554.831 -5.66022 1.99347 0
M  V30 5673 H 555.901 -4.27701 2.28474 0
M  V30 5674 N 557.244 -0.608902 -1.45362 0
M  V30 5675 C 558.174 0.0964526 -2.33301 0
M  V30 5676 C 559.155 0.857444 -1.46908 0
M  V30 5677 O 560.34 0.827735 -1.75676 0
M  V30 5678 C 557.47 1.09354 -3.29635 0
M  V30 5679 C 556.424 0.445676 -4.25673 0
M  V30 5680 C 555.75 1.5511 -5.11708 0
M  V30 5681 C 557.05 -0.633972 -5.18438 0
M  V30 5682 H 558.744 -0.637829 -2.92527 0
M  V30 5683 H 556.29 -0.308178 -1.40664 0
M  V30 5684 H 558.243 1.59556 -3.90025 0
M  V30 5685 H 556.967 1.85843 -2.6857 0
M  V30 5686 H 555.626 -0.0354897 -3.66583 0
M  V30 5687 H 555.274 2.30631 -4.4701 0
M  V30 5688 H 554.974 1.12311 -5.76767 0
M  V30 5689 H 556.498 2.05537 -5.74967 0
M  V30 5690 H 557.912 -0.215974 -5.72893 0
M  V30 5691 H 556.309 -0.983789 -5.91981 0
M  V30 5692 H 557.379 -1.51005 -4.60788 0
M  V30 5693 N 558.722 1.53707 -0.348139 0
M  V30 5694 C 559.999 1.93247 0.302475 0
M  V30 5695 C 560.379 1.28012 1.67857 0
M  V30 5696 O 559.727 0.43274 2.24365 0
M  V30 5697 C 559.937 3.47031 0.370159 0
M  V30 5698 C 561.285 4.20066 0.61882 0
M  V30 5699 O 562.309 3.53319 0.452087 0
M  V30 5700 O 561.168 5.38318 0.94215 0
M  V30 5701 H 558.262 0.807736 0.177458 0
M  V30 5702 H 560.808 1.64927 -0.399651 0
M  V30 5703 H 559.58 3.86745 -0.59534 0
M  V30 5704 H 559.203 3.81532 1.11888 0
M  V30 5705 N 560.2 0.0768682 1.57412 0
M  V30 5706 C 561.163 -0.873949 2.11884 0
M  V30 5707 C 562.163 -1.22301 1.04398 0
M  V30 5708 O 563.353 -1.15545 1.30365 0
M  V30 5709 C 560.485 -2.17575 2.62438 0
M  V30 5710 H 561.678 -0.401278 2.97203 0
M  V30 5711 H 559.231 -0.171904 1.55352 0
M  V30 5712 H 559.966 -2.69368 1.80587 0
M  V30 5713 H 559.751 -1.93534 3.41009 0
M  V30 5714 H 561.241 -2.85631 3.04639 0
M  V30 5715 N 561.678 -1.56367 -0.196722 0
M  V30 5716 C 562.906 -1.84639 -0.933608 0
M  V30 5717 C 563.321 -0.659164 -1.76919 0
M  V30 5718 O 562.678 0.372142 -1.78665 0
M  V30 5719 C 562.729 -3.11694 -1.83109 0
M  V30 5720 O 562.45 -4.25838 -1.02924 0
M  V30 5721 C 563.951 -3.53132 -2.67979 0
M  V30 5722 H 561.171 -0.613188 -0.272473 0
M  V30 5723 H 563.715 -2.03475 -0.204465 0
M  V30 5724 H 561.87 -2.94759 -2.51387 0
M  V30 5725 H 562.284 -4.98178 -1.64069 0
M  V30 5726 H 563.758 -4.45005 -3.26611 0
M  V30 5727 H 564.235 -2.76045 -3.41608 0
M  V30 5728 H 564.841 -3.72592 -2.05074 0
M  V30 5729 N 563.156 0.464375 -1.50603 0
M  V30 5730 C 564.106 1.55929 -1.66343 0
M  V30 5731 C 565.09 1.52338 -0.517887 0
M  V30 5732 O 566.282 1.59248 -0.772601 0
M  V30 5733 C 563.411 2.94327 -1.7671 0
M  V30 5734 C 562.497 3.02777 -2.96962 0
M  V30 5735 N 562.888 2.81026 -4.20545 0
M  V30 5736 C 561.186 3.33919 -2.95659 0
M  V30 5737 C 561.887 2.94618 -5.01573 0
M  V30 5738 N 560.863 3.25112 -4.35664 0
M  V30 5739 H 564.665 1.37822 -2.59581 0
M  V30 5740 H 562.179 0.671227 -1.47879 0
M  V30 5741 H 564.176 3.73063 -1.86091 0
M  V30 5742 H 562.836 3.13476 -0.846353 0
M  V30 5743 H 563.847 2.56477 -4.49933 0
M  V30 5744 H 560.524 3.59013 -2.13111 0
M  V30 5745 H 561.914 2.81984 -6.09865 0
M  V30 5746 N 564.634 1.40294 0.718013 0
M  V30 5747 C 565.88 1.38645 1.48005 0
M  V30 5748 C 566.213 -0.0121202 1.94196 0
M  V30 5749 O 565.488 -0.980309 1.67989 0
M  V30 5750 C 565.771 2.37379 2.70782 0
M  V30 5751 C 565.624 3.8625 2.30501 0
M  V30 5752 C 566.943 2.33685 3.72933 0
M  V30 5753 H 564.062 0.504928 0.536858 0
M  V30 5754 H 566.704 1.71411 0.819649 0
M  V30 5755 H 564.854 2.09568 3.27129 0
M  V30 5756 H 566.526 4.24879 1.79655 0
M  V30 5757 H 564.769 4.02202 1.6253 0
M  V30 5758 H 565.44 4.50847 3.18498 0
M  V30 5759 H 567.916 2.58314 3.2621 0
M  V30 5760 H 566.792 3.0482 4.56482 0
M  V30 5761 H 567.053 1.34765 4.21059 0
M  V30 5762 N 566.112 -0.949982 1.2575 0
M  V30 5763 C 567.342 -1.72721 1.13363 0
M  V30 5764 C 567.75 -1.86562 -0.314842 0
M  V30 5765 O 567.093 -1.36621 -1.22803 0
M  V30 5766 C 567.155 -3.15695 1.7198 0
M  V30 5767 C 566.819 -3.25268 3.21014 0
M  V30 5768 C 567.816 -3.09222 4.17945 0
M  V30 5769 C 565.501 -3.4894 3.61312 0
M  V30 5770 C 567.495 -3.16701 5.53154 0
M  V30 5771 C 565.182 -3.56055 4.96657 0
M  V30 5772 C 566.18 -3.3995 5.92387 0
M  V30 5773 O 565.868 -3.46757 7.25269 0
M  V30 5774 H 565.6 -0.547888 0.395973 0
M  V30 5775 H 568.154 -1.20009 1.66694 0
M  V30 5776 H 566.384 -3.69791 1.13101 0
M  V30 5777 H 568.073 -3.75295 1.54624 0
M  V30 5778 H 568.839 -2.90798 3.88151 0
M  V30 5779 H 564.718 -3.60534 2.87291 0
M  V30 5780 H 568.262 -3.04048 6.27854 0
M  V30 5781 H 564.159 -3.73997 5.26115 0
M  V30 5782 H 564.927 -3.63358 7.33426 0
M  V30 5783 N 567.59 -1.07411 -1.15328 0
M  V30 5784 C 568.523 -0.63913 -2.19067 0
M  V30 5785 C 569.501 0.343929 -1.58921 0
M  V30 5786 O 570.685 0.250207 -1.86832 0
M  V30 5787 C 567.812 0.0613977 -3.38644 0
M  V30 5788 C 566.858 -0.880201 -4.17318 0
M  V30 5789 S 567.691 -2.38152 -4.79629 0
M  V30 5790 C 568.847 -1.69281 -6.02573 0
M  V30 5791 H 569.08 -1.51799 -2.55626 0
M  V30 5792 H 566.613 -0.888138 -1.26299 0
M  V30 5793 H 568.571 0.459323 -4.07922 0
M  V30 5794 H 567.232 0.916605 -3.00428 0
M  V30 5795 H 566.425 -0.336781 -5.02874 0
M  V30 5796 H 566.027 -1.21854 -3.53592 0
M  V30 5797 H 568.319 -1.00488 -6.70006 0
M  V30 5798 H 569.262 -2.52671 -6.61485 0
M  V30 5799 H 569.67 -1.17053 -5.52231 0
M  V30 5800 N 569.068 1.32177 -0.85831 0
M  V30 5801 C 570.298 2.01021 -0.476889 0
M  V30 5802 C 570.706 1.64653 0.931995 0
M  V30 5803 O 570.049 0.865713 1.62022 0
M  V30 5804 C 570.111 3.55413 -0.540528 0
M  V30 5805 C 569.775 4.1522 -1.90895 0
M  V30 5806 C 570.772 4.3318 -2.87491 0
M  V30 5807 C 568.457 4.51212 -2.20709 0
M  V30 5808 C 570.451 4.86306 -4.1205 0
M  V30 5809 C 568.138 5.04042 -3.45521 0
M  V30 5810 C 569.136 5.21538 -4.41007 0
M  V30 5811 O 568.824 5.73238 -5.63608 0
M  V30 5812 H 568.556 0.650059 -0.18547 0
M  V30 5813 H 571.11 1.69648 -1.15796 0
M  V30 5814 H 569.34 3.86196 0.19741 0
M  V30 5815 H 571.029 4.05526 -0.174191 0
M  V30 5816 H 571.795 4.05704 -2.65762 0
M  V30 5817 H 567.674 4.36878 -1.4717 0
M  V30 5818 H 571.218 4.99877 -4.86589 0
M  V30 5819 H 567.115 5.30952 -3.67098 0
M  V30 5820 H 567.883 5.91625 -5.65617 0
M  V30 5821 N 570.547 0.616602 1.45037 0
M  V30 5822 C 571.793 0.115501 2.02471 0
M  V30 5823 C 572.126 -1.25406 1.4828 0
M  V30 5824 O 571.401 -1.82922 0.661051 0
M  V30 5825 C 571.684 0.0863588 3.59996 0
M  V30 5826 C 571.537 1.48723 4.24501 0
M  V30 5827 C 572.856 -0.596762 4.36035 0
M  V30 5828 H 569.975 0.0434461 0.735718 0
M  V30 5829 H 572.617 0.7903 1.72784 0
M  V30 5830 H 570.767 -0.488277 3.85419 0
M  V30 5831 H 572.439 2.10964 4.10234 0
M  V30 5832 H 570.682 2.04534 3.82555 0
M  V30 5833 H 571.353 1.419 5.3345 0
M  V30 5834 H 573.829 -0.10824 4.15959 0
M  V30 5835 H 572.705 -0.586289 5.4576 0
M  V30 5836 H 572.966 -1.66451 4.09569 0
M  V30 5837 N 572.025 -1.5352 0.356285 0
M  V30 5838 C 573.272 -2.01117 -0.236303 0
M  V30 5839 C 573.6 -1.24381 -1.49531 0
M  V30 5840 O 572.855 -0.323057 -1.93015 0
M  V30 5841 C 573.154 -3.52607 -0.583369 0
M  V30 5842 C 572.82 -4.47151 0.58023 0
M  V30 5843 C 571.482 -4.72718 0.899528 0
M  V30 5844 C 573.834 -5.03137 1.36024 0
M  V30 5845 C 571.162 -5.51523 2.00098 0
M  V30 5846 C 573.514 -5.83145 2.45204 0
M  V30 5847 C 572.178 -6.07001 2.77679 0
M  V30 5848 H 571.448 -0.735938 -0.0864695 0
M  V30 5849 H 574.095 -1.85209 0.48683 0
M  V30 5850 H 572.4 -3.66413 -1.38739 0
M  V30 5851 H 574.097 -3.86901 -1.05397 0
M  V30 5852 H 570.687 -4.27394 0.321322 0
M  V30 5853 H 574.871 -4.83339 1.12682 0
M  V30 5854 H 570.127 -5.68229 2.25668 0
M  V30 5855 H 574.301 -6.25537 3.06067 0
M  V30 5856 H 571.928 -6.67851 3.63151 0
M  V30 5857 N 573.503 -0.0852151 -1.57369 0
M  V30 5858 C 574.752 0.580443 -1.93168 0
M  V30 5859 C 575.065 1.6995 -0.968319 0
M  V30 5860 O 576.271 2.42564 -1.21963 0
M  V30 5861 C 574.727 1.08386 -3.43192 0
M  V30 5862 C 574.335 -0.00491388 -4.48 0
M  V30 5863 C 576.079 1.72281 -3.87968 0
M  V30 5864 C 573.986 0.513299 -5.89168 0
M  V30 5865 H 572.916 0.22059 -0.72101 0
M  V30 5866 H 575.567 -0.159621 -1.82804 0
M  V30 5867 H 573.949 1.8773 -3.48674 0
M  V30 5868 H 575.123 -0.780032 -4.5415 0
M  V30 5869 H 573.438 -0.548453 -4.12772 0
M  V30 5870 H 576.035 2.12108 -4.9083 0
M  V30 5871 H 576.378 2.58811 -3.26071 0
M  V30 5872 H 576.911 0.995359 -3.85146 0
M  V30 5873 H 573.65 -0.315153 -6.54742 0
M  V30 5874 H 573.17 1.25564 -5.8651 0
M  V30 5875 H 574.849 0.985433 -6.39451 0
M  V30 5876 N 574.981 1.5647 0.188427 0
M  V30 5877 C 575.911 1.98101 1.23606 0
M  V30 5878 C 576.892 0.853961 1.47111 0
M  V30 5879 O 578.077 1.11879 1.58735 0
M  V30 5880 C 575.207 2.32624 2.57882 0
M  V30 5881 C 574.161 3.48129 2.48978 0
M  V30 5882 C 573.487 3.68347 3.87588 0
M  V30 5883 C 574.787 4.82112 2.00911 0
M  V30 5884 H 576.481 2.85864 0.890068 0
M  V30 5885 H 574.027 1.37532 0.426714 0
M  V30 5886 H 575.98 2.60343 3.3136 0
M  V30 5887 H 574.704 1.41751 2.94235 0
M  V30 5888 H 573.363 3.20511 1.77956 0
M  V30 5889 H 573.011 2.74793 4.21305 0
M  V30 5890 H 572.711 4.46055 3.82503 0
M  V30 5891 H 574.235 3.98449 4.62678 0
M  V30 5892 H 575.649 5.08819 2.64151 0
M  V30 5893 H 574.046 5.63337 2.06814 0
M  V30 5894 H 575.116 4.75249 0.96262 0
M  V30 5895 N 576.459 -0.456382 1.50847 0
M  V30 5896 C 577.422 -1.53493 1.70213 0
M  V30 5897 C 578.422 -1.50264 0.572481 0
M  V30 5898 O 579.612 -1.52623 0.839751 0
M  V30 5899 C 576.744 -2.93091 1.741 0
M  V30 5900 H 577.937 -1.37633 2.66453 0
M  V30 5901 H 575.49 -0.683776 1.4055 0
M  V30 5902 H 576.225 -3.14378 0.796063 0
M  V30 5903 H 576.01 -2.9684 2.5618 0
M  V30 5904 H 577.5 -3.71368 1.90987 0
M  V30 5905 N 577.937 -1.40673 -0.710563 0
M  V30 5906 C 579.185 -1.38947 -1.46759 0
M  V30 5907 C 579.506 0.00572879 -1.94999 0
M  V30 5908 O 578.776 0.961358 -1.70689 0
M  V30 5909 H 577.356 -0.5114 -0.544499 0
M  V30 5910 H 580.018 -1.75773 -0.842012 0
M  V30 5911 H 579.114 -2.06745 -2.33801 0
M  V30 5912 N 579.415 0.9433 -1.26252 0
M  V30 5913 C 580.378 2.02326 -1.07689 0
M  V30 5914 C 581.378 1.60779 -0.0259174 0
M  V30 5915 O 582.568 1.72108 -0.269134 0
M  V30 5916 C 579.7 3.34886 -0.63752 0
M  V30 5917 H 580.893 2.20225 -2.0357 0
M  V30 5918 H 578.446 1.12197 -1.08819 0
M  V30 5919 H 579.181 3.22684 0.323377 0
M  V30 5920 H 578.966 3.66393 -1.39637 0
M  V30 5921 H 580.456 4.14231 -0.529418 0
M  V30 5922 N 580.893 1.08022 1.14757 0
M  V30 5923 C 581.803 0.718292 2.23333 0
M  V30 5924 C 582.819 -0.273477 1.71837 0
M  V30 5925 O 583.995 -0.118406 2.01052 0
M  V30 5926 C 581.06 0.128855 3.4646 0
M  V30 5927 C 580.121 1.17473 4.12915 0
M  V30 5928 C 579.354 0.61333 5.30164 0
M  V30 5929 O 579.577 -0.568458 5.6756 0
M  V30 5930 O 578.511 1.3615 5.86299 0
M  V30 5931 H 582.337 1.62394 2.56636 0
M  V30 5932 H 579.922 0.853628 1.22611 0
M  V30 5933 H 581.804 -0.197249 4.20938 0
M  V30 5934 H 580.479 -0.750014 3.14891 0
M  V30 5935 H 579.386 1.5533 3.40328 0
M  V30 5936 H 580.719 2.02574 4.48581 0
M  V30 5937 N 582.371 -1.3172 0.865308 0
M  V30 5938 C 583.617 -1.97168 0.474633 0
M  V30 5939 C 583.95 -1.68263 -0.969604 0
M  V30 5940 O 583.225 -0.976588 -1.68205 0
M  V30 5941 C 583.508 -3.52689 0.726808 0
M  V30 5942 C 583.361 -3.91185 2.22024 0
M  V30 5943 C 584.68 -4.39689 0.190201 0
M  V30 5944 H 581.799 -0.716185 0.17392 0
M  V30 5945 H 584.441 -1.55925 1.08569 0
M  V30 5946 H 582.591 -3.8795 0.206705 0
M  V30 5947 H 584.263 -3.66049 2.80724 0
M  V30 5948 H 582.506 -3.3996 2.69462 0
M  V30 5949 H 583.177 -4.99604 2.34735 0
M  V30 5950 H 585.653 -4.11225 0.635103 0
M  V30 5951 H 584.529 -5.47469 0.396132 0
M  V30 5952 H 584.79 -4.32683 -0.907625 0
M  V30 5953 N 583.85 -0.624285 -1.44708 0
M  V30 5954 C 584.779 0.0717025 -2.3339 0
M  V30 5955 C 585.76 0.841814 -1.47809 0
M  V30 5956 O 586.946 0.809056 -1.76544 0
M  V30 5957 C 584.076 1.05852 -3.30776 0
M  V30 5958 C 583.029 0.400503 -4.26122 0
M  V30 5959 C 582.356 1.49674 -5.13324 0
M  V30 5960 C 583.656 -0.688924 -5.17737 0
M  V30 5961 H 585.35 -0.668819 -2.91834 0
M  V30 5962 H 582.896 -0.32308 -1.40329 0
M  V30 5963 H 584.849 1.5541 -3.91696 0
M  V30 5964 H 583.572 1.82984 -2.70526 0
M  V30 5965 H 582.231 -0.0743687 -3.66525 0
M  V30 5966 H 581.88 2.25877 -4.49431 0
M  V30 5967 H 581.58 1.06188 -5.77926 0
M  V30 5968 H 583.104 1.99427 -5.77115 0
M  V30 5969 H 584.518 -0.276724 -5.72632 0
M  V30 5970 H 582.915 -1.04652 -5.90904 0
M  V30 5971 H 583.985 -1.55884 -4.5916 0
M  V30 5972 N 585.328 1.53329 -0.364422 0
M  V30 5973 C 586.556 2.05657 0.226424 0
M  V30 5974 C 586.971 1.23801 1.42544 0
M  V30 5975 O 586.328 0.27839 1.80364 0
M  V30 5976 C 586.379 3.56125 0.621056 0
M  V30 5977 O 586.1 4.34879 -0.530304 0
M  V30 5978 C 587.601 4.24706 1.27041 0
M  V30 5979 H 584.821 0.669806 0.0400056 0
M  V30 5980 H 587.365 1.97714 -0.522456 0
M  V30 5981 H 585.52 3.64223 1.31985 0
M  V30 5982 H 585.934 5.24073 -0.211546 0
M  V30 5983 H 587.408 5.3131 1.49711 0
M  V30 5984 H 587.885 3.78354 2.23036 0
M  V30 5985 H 588.491 4.20858 0.613079 0
M  V30 5986 N 586.806 0.0935595 1.57322 0
M  V30 5987 C 588.031 -0.582324 1.99057 0
M  V30 5988 C 588.456 -1.61025 0.972242 0
M  V30 5989 O 587.814 -1.81202 -0.0594622 0
M  V30 5990 C 587.862 -1.20799 3.39765 0
M  V30 5991 O 586.966 -2.32382 3.40694 0
M  V30 5992 H 586.307 -0.147884 0.647323 0
M  V30 5993 H 588.837 0.174516 2.03854 0
M  V30 5994 H 588.847 -1.54966 3.77425 0
M  V30 5995 H 587.522 -0.454914 4.13405 0
M  V30 5996 H 586.099 -1.99845 3.14827 0
M  V30 5997 N 588.284 -1.56567 -0.180126 0
M  V30 5998 C 589.509 -1.85975 -0.918041 0
M  V30 5999 C 589.934 -0.678888 -1.75422 0
M  V30 6000 O 589.292 0.372168 -1.77439 0
M  V30 6001 C 589.34 -3.13731 -1.77779 0
M  V30 6002 O 588.444 -2.95335 -2.87838 0
M  V30 6003 H 587.785 -0.61196 -0.257683 0
M  V30 6004 H 590.315 -2.03798 -0.180923 0
M  V30 6005 H 590.325 -3.4491 -2.17948 0
M  V30 6006 H 589 -3.99293 -1.16352 0
M  V30 6007 H 587.577 -2.7549 -2.51316 0
M  V30 6008 N 589.762 0.448376 -1.51087 0
M  V30 6009 C 590.692 1.55102 -1.74544 0
M  V30 6010 C 591.673 1.59357 -0.594932 0
M  V30 6011 O 592.858 1.75261 -0.836491 0
M  V30 6012 C 589.988 2.93268 -1.86041 0
M  V30 6013 C 588.942 3.03877 -3.01402 0
M  V30 6014 C 588.268 4.43914 -2.98068 0
M  V30 6015 C 589.568 2.7898 -4.41551 0
M  V30 6016 H 591.262 1.35724 -2.66869 0
M  V30 6017 H 588.808 0.651498 -1.28419 0
M  V30 6018 H 590.761 3.70356 -2.01034 0
M  V30 6019 H 589.485 3.13853 -0.903548 0
M  V30 6020 H 588.144 2.29227 -2.86096 0
M  V30 6021 H 587.792 4.6145 -2.00182 0
M  V30 6022 H 587.492 4.51944 -3.75527 0
M  V30 6023 H 589.016 5.22991 -3.1514 0
M  V30 6024 H 590.43 3.45805 -4.57265 0
M  V30 6025 H 588.827 2.98431 -5.20633 0
M  V30 6026 H 589.897 1.74663 -4.5235 0
M  V30 6027 N 591.24 1.41047 0.703093 0
M  V30 6028 C 592.489 1.39301 1.4587 0
M  V30 6029 C 592.802 0.00267077 1.956 0
M  V30 6030 O 594.008 -0.137414 2.71152 0
M  V30 6031 C 592.464 2.44891 2.63735 0
M  V30 6032 C 592.072 3.89796 2.20824 0
M  V30 6033 C 593.816 2.5227 3.41409 0
M  V30 6034 C 591.723 4.86955 3.35602 0
M  V30 6035 H 590.653 0.518005 0.547893 0
M  V30 6036 H 593.304 1.66839 0.764009 0
M  V30 6037 H 591.686 2.10472 3.35436 0
M  V30 6038 H 592.86 4.33424 1.56461 0
M  V30 6039 H 591.175 3.86008 1.56163 0
M  V30 6040 H 593.772 3.22044 4.26839 0
M  V30 6041 H 594.115 1.55714 3.86081 0
M  V30 6042 H 594.648 2.85742 2.7676 0
M  V30 6043 H 591.387 5.84888 2.9595 0
M  V30 6044 H 590.907 4.47982 3.98839 0
M  V30 6045 H 592.586 5.07361 4.01489 0
M  V30 6046 N 592.718 -0.936591 1.26751 0
M  V30 6047 C 593.648 -2.05315 1.11212 0
M  V30 6048 C 594.629 -1.70092 0.0160262 0
M  V30 6049 O 595.814 -1.93279 0.188894 0
M  V30 6050 C 592.944 -3.39123 0.749171 0
M  V30 6051 C 591.898 -3.88425 1.79751 0
M  V30 6052 C 591.224 -5.18936 1.28876 0
M  V30 6053 C 592.524 -4.12798 3.19992 0
M  V30 6054 H 594.218 -2.18573 2.04613 0
M  V30 6055 H 591.764 -1.05027 0.985159 0
M  V30 6056 H 593.717 -4.16704 0.627323 0
M  V30 6057 H 592.441 -3.25855 -0.220543 0
M  V30 6058 H 591.1 -3.13028 1.90811 0
M  V30 6059 H 590.748 -5.02051 0.308757 0
M  V30 6060 H 590.448 -5.52892 1.98958 0
M  V30 6061 H 591.972 -5.99096 1.17967 0
M  V30 6062 H 593.386 -4.80977 3.11983 0
M  V30 6063 H 591.783 -4.58044 3.87705 0
M  V30 6064 H 592.853 -3.18412 3.65707 0
M  V30 6065 N 594.196 -1.08629 -1.14182 0
M  V30 6066 C 595.126 -0.740003 -2.21464 0
M  V30 6067 C 596.107 0.278591 -1.67803 0
M  V30 6068 O 597.292 0.148461 -1.93632 0
M  V30 6069 C 594.422 -0.150952 -3.46972 0
M  V30 6070 C 593.376 -1.09815 -4.13672 0
M  V30 6071 C 592.702 -0.3712 -5.3341 0
M  V30 6072 C 594.002 -2.43722 -4.61949 0
M  V30 6073 H 595.696 -1.63697 -2.50686 0
M  V30 6074 H 593.242 -0.788526 -1.20492 0
M  V30 6075 H 595.195 0.103325 -4.21273 0
M  V30 6076 H 593.919 0.781164 -3.1712 0
M  V30 6077 H 592.578 -1.33756 -3.41328 0
M  V30 6078 H 592.226 0.564792 -4.99819 0
M  V30 6079 H 591.926 -1.00267 -5.78982 0
M  V30 6080 H 593.45 -0.12503 -6.10472 0
M  V30 6081 H 594.864 -2.24034 -5.27714 0
M  V30 6082 H 593.261 -3.02582 -5.18232 0
M  V30 6083 H 594.331 -3.05082 -3.76899 0
M  V30 6084 N 595.674 1.31259 -0.872281 0
M  V30 6085 C 596.604 2.30929 -0.345554 0
M  V30 6086 C 597.585 1.60449 0.5648 0
M  V30 6087 O 598.77 1.8814 0.481335 0
M  V30 6088 C 595.9 3.44348 0.451823 0
M  V30 6089 C 594.854 4.26435 -0.365641 0
M  V30 6090 C 594.18 5.31785 0.557562 0
M  V30 6091 C 595.48 4.97159 -1.60095 0
M  V30 6092 H 597.174 2.75234 -1.17841 0
M  V30 6093 H 594.72 1.3232 -0.568094 0
M  V30 6094 H 596.673 4.13128 0.830854 0
M  V30 6095 H 595.397 2.98816 1.31821 0
M  V30 6096 H 594.056 3.59326 -0.726649 0
M  V30 6097 H 593.704 4.82502 1.4213 0
M  V30 6098 H 593.404 5.87598 0.0144878 0
M  V30 6099 H 594.928 6.03424 0.933387 0
M  V30 6100 H 596.342 5.58523 -1.29323 0
M  V30 6101 H 594.739 5.62779 -2.08327 0
M  V30 6102 H 595.809 4.24012 -2.35249 0
M  V30 6103 N 597.152 0.631951 1.44375 0
M  V30 6104 C 598.4 0.136497 2.01639 0
M  V30 6105 C 598.721 -1.24637 1.49969 0
M  V30 6106 O 597.991 -1.82827 0.70363 0
M  V30 6107 H 596.571 0.0474703 0.74549 0
M  V30 6108 H 599.233 0.818837 1.76865 0
M  V30 6109 H 598.329 0.104817 3.11924 0
M  V30 6110 N 598.631 -1.53133 0.372548 0
M  V30 6111 C 599.579 -2.27473 -0.485681 0
M  V30 6112 C 600.573 -1.30719 -1.07745 0
M  V30 6113 O 601.779 -1.48321 -1.01985 0
M  V30 6114 H 598.154 -0.731269 -0.175356 0
M  V30 6115 H 600.125 -2.97955 0.162986 0
M  V30 6116 C 598.874 -3.08191 -1.60978 0
M  V30 6117 H 598.197 -3.82488 -1.16373 0
M  V30 6118 H 599.637 -3.63373 -2.18485 0
M  V30 6119 C 598.096 -2.19461 -2.55614 0
M  V30 6120 O 598.626 -1.81008 -3.58607 0
M  V30 6121 N 596.832 -1.83955 -2.24965 0
M  V30 6122 H 596.379 -2.15423 -1.41247 0
M  V30 6123 H 596.337 -1.24874 -2.88538 0
M  V30 6124 N 600.109 -0.101901 -1.5727 0
M  V30 6125 C 601.356 0.560197 -1.94597 0
M  V30 6126 C 601.684 1.67767 -0.984101 0
M  V30 6127 O 600.939 1.95699 -0.00489193 0
M  V30 6128 C 601.238 1.14898 -3.38427 0
M  V30 6129 C 600.904 0.154613 -4.50635 0
M  V30 6130 C 599.566 -0.118861 -4.81053 0
M  V30 6131 C 601.918 -0.523979 -5.18559 0
M  V30 6132 C 599.246 -1.0775 -5.76721 0
M  V30 6133 C 601.598 -1.47114 -6.15256 0
M  V30 6134 C 600.262 -1.75278 -6.44076 0
M  V30 6135 H 599.532 0.204991 -0.712081 0
M  V30 6136 H 602.179 -0.17918 -1.9066 0
M  V30 6137 H 600.484 1.96476 -3.38976 0
M  V30 6138 H 602.181 1.66909 -3.64613 0
M  V30 6139 H 598.771 0.377948 -4.2693 0
M  V30 6140 H 602.955 -0.325851 -4.95229 0
M  V30 6141 H 598.211 -1.30263 -5.97362 0
M  V30 6142 H 602.385 -2.00274 -6.66981 0
M  V30 6143 H 600.012 -2.49717 -7.18015 0
M  V30 6144 N 601.587 1.56661 0.17182 0
M  V30 6145 C 602.834 1.81965 0.888529 0
M  V30 6146 C 603.162 0.6789 1.82267 0
M  V30 6147 O 602.417 -0.333875 1.92831 0
M  V30 6148 C 602.716 3.13435 1.71736 0
M  V30 6149 C 602.382 4.41159 0.932184 0
M  V30 6150 C 601.044 4.75851 0.715481 0
M  V30 6151 C 603.396 5.19803 0.381387 0
M  V30 6152 C 600.724 5.86666 -0.063126 0
M  V30 6153 C 603.076 6.31433 -0.384129 0
M  V30 6154 C 601.74 6.64692 -0.611637 0
M  V30 6155 H 601.01 0.665859 0.325136 0
M  V30 6156 H 603.657 1.90884 0.153495 0
M  V30 6157 H 601.962 2.99857 2.52177 0
M  V30 6158 H 603.659 3.30224 2.27493 0
M  V30 6159 H 600.249 4.13947 1.11112 0
M  V30 6160 H 604.433 4.93396 0.536148 0
M  V30 6161 H 599.689 6.10892 -0.249136 0
M  V30 6162 H 603.863 6.91577 -0.818185 0
M  V30 6163 H 601.49 7.50398 -1.21684 0
M  V30 6164 N 603.065 -0.440357 1.51323 0
M  V30 6165 C 604.305 -1.19956 1.65499 0
M  V30 6166 C 604.669 -1.88559 0.361878 0
M  V30 6167 O 605.87 -2.66109 0.379383 0
M  V30 6168 C 604.141 -2.1918 2.82303 0
M  V30 6169 S 605.7 -3.03627 3.1679 0
M  V30 6170 H 602.518 -0.406833 0.583102 0
M  V30 6171 H 605.12 -0.491596 1.89218 0
M  V30 6172 H 603.824 -1.67414 3.74701 0
M  V30 6173 H 603.355 -2.94561 2.60763 0
M  V30 6174 H 605.37 -4.20773 2.62991 0
M  V30 6175 N 604.543 -1.41418 -0.695603 0
M  V30 6176 C 605.792 -1.40073 -1.4513 0
M  V30 6177 C 606.105 -0.0130439 -1.95596 0
M  V30 6178 O 607.311 0.123032 -2.71221 0
M  V30 6179 C 605.767 -2.46286 -2.62433 0
M  V30 6180 C 605.375 -3.90962 -2.18753 0
M  V30 6181 C 607.119 -2.54077 -3.40066 0
M  V30 6182 C 605.026 -4.88728 -3.33015 0
M  V30 6183 H 603.956 -0.520903 -0.545138 0
M  V30 6184 H 606.607 -1.67242 -0.75515 0
M  V30 6185 H 604.989 -2.12248 -3.34315 0
M  V30 6186 H 606.163 -4.34248 -1.54161 0
M  V30 6187 H 604.478 -3.86831 -1.54114 0
M  V30 6188 H 607.075 -3.24303 -4.25125 0
M  V30 6189 H 607.418 -1.5776 -3.8525 0
M  V30 6190 H 607.951 -2.87206 -2.75241 0
M  V30 6191 H 604.69 -5.86449 -2.92844 0
M  V30 6192 H 604.21 -4.50091 -3.96457 0
M  V30 6193 H 605.889 -5.09483 -3.98793 0
M  V30 6194 N 606.021 0.929856 -1.27246 0
M  V30 6195 C 607.437 1.20542 -1.04603 0
M  V30 6196 C 607.637 2.00276 0.221754 0
M  V30 6197 O 606.693 2.34835 0.927833 0
M  V30 6198 C 608.006 1.95566 -2.28417 0
M  V30 6199 C 609.554 2.08513 -2.33433 0
M  V30 6200 C 610.029 2.86943 -3.5697 0
M  V30 6201 N 611.52 2.94512 -3.57515 0
M  V30 6202 C 612.255 3.55656 -4.49774 0
M  V30 6203 N 611.751 4.18209 -5.52334 0
M  V30 6204 N 613.544 3.53038 -4.37402 0
M  V30 6205 H 605.695 0.397113 -2.08655 0
M  V30 6206 H 607.958 0.238277 -0.917566 0
M  V30 6207 H 607.664 1.44395 -3.20691 0
M  V30 6208 H 607.538 2.9619 -2.33563 0
M  V30 6209 H 609.925 2.58872 -1.41666 0
M  V30 6210 H 610.006 1.07117 -2.32292 0
M  V30 6211 H 609.65 2.37268 -4.49072 0
M  V30 6212 H 609.58 3.8862 -3.55362 0
M  V30 6213 H 612.071 2.50053 -2.83341 0
M  V30 6214 H 612.384 4.62796 -6.18902 0
M  V30 6215 H 610.729 4.16761 -5.56179 0
M  V30 6216 H 613.92 3.0337 -3.56489 0
M  V30 6217 H 614.093 4.004 -5.09493 0
M  V30 6218 N 607.499 1.09233 1.13605 0
M  V30 6219 C 608.446 0.729921 2.18954 0
M  V30 6220 C 609.416 -0.287916 1.63586 0
M  V30 6221 O 610.601 -0.170003 1.90041 0
M  V30 6222 C 607.741 0.154489 3.44754 0
M  V30 6223 C 606.854 1.22613 4.14234 0
M  V30 6224 C 605.989 0.613657 5.27644 0
M  V30 6225 C 605.028 1.66674 5.8897 0
M  V30 6226 N 604.165 1.07545 6.93814 0
M  V30 6227 H 609.005 1.63257 2.49302 0
M  V30 6228 H 606.542 0.815693 1.22413 0
M  V30 6229 H 608.5 -0.196923 4.16735 0
M  V30 6230 H 607.13 -0.711433 3.14863 0
M  V30 6231 H 606.182 1.69485 3.40557 0
M  V30 6232 H 607.494 2.0238 4.55899 0
M  V30 6233 H 606.648 0.210976 6.06333 0
M  V30 6234 H 605.387 -0.215584 4.87223 0
M  V30 6235 H 604.392 2.07899 5.08978 0
M  V30 6236 H 605.617 2.49861 6.31464 0
M  V30 6237 H 603.563 0.267451 6.55455 0
M  V30 6238 H 603.48 1.81011 7.3401 0
M  V30 6239 H 604.748 0.698906 7.7636 0
M  V30 6240 N 608.977 -1.30795 0.87923 0
M  V30 6241 C 609.924 -2.28282 0.339968 0
M  V30 6242 C 610.894 -1.56134 -0.566685 0
M  V30 6243 O 612.079 -1.84231 -0.496338 0
M  V30 6244 C 609.219 -3.42225 -0.444501 0
M  V30 6245 C 608.332 -4.29204 0.490717 0
M  V30 6246 C 607.467 -5.30302 -0.308784 0
M  V30 6247 C 606.506 -6.08929 0.622272 0
M  V30 6248 N 605.643 -7.01957 -0.14155 0
M  V30 6249 H 610.483 -2.73794 1.17647 0
M  V30 6250 H 608.02 -1.34682 0.591527 0
M  V30 6251 H 609.978 -4.07038 -0.915186 0
M  V30 6252 H 608.608 -2.97799 -1.24562 0
M  V30 6253 H 607.66 -3.6475 1.07988 0
M  V30 6254 H 608.972 -4.84045 1.20425 0
M  V30 6255 H 608.126 -6.00835 -0.841575 0
M  V30 6256 H 606.865 -4.7614 -1.05556 0
M  V30 6257 H 605.87 -5.37278 1.16674 0
M  V30 6258 H 607.095 -6.65178 1.36804 0
M  V30 6259 H 605.041 -6.50192 -0.870966 0
M  V30 6260 H 604.958 -7.54261 0.51246 0
M  V30 6261 H 606.226 -7.76741 -0.655271 0
M  V30 6262 N 610.455 -0.639598 -1.44038 0
M  V30 6263 C 611.866 -0.228866 -1.85292 0
M  V30 6264 C 612.217 1.22161 -1.53529 0
M  V30 6265 O 611.342 1.93064 -0.977518 0
M  V30 6266 C 611.937 -0.408592 -3.36327 0
M  V30 6267 C 610.496 -0.0522953 -3.76364 0
M  V30 6268 C 609.643 -0.717959 -2.67844 0
M  V30 6269 H 612.594 -0.844194 -1.34384 0
M  V30 6270 H 612.615 0.349968 -3.78887 0
M  V30 6271 H 612.127 -1.46435 -3.59414 0
M  V30 6272 H 610.228 1.0014 -3.58891 0
M  V30 6273 H 610.341 -0.468261 -4.76806 0
M  V30 6274 H 608.705 -0.152459 -2.54243 0
M  V30 6275 H 609.488 -1.77648 -2.93762 0
M  V30 6276 N 611.933 1.52934 -0.380664 0
M  V30 6277 C 612.88 2.26197 0.458641 0
M  V30 6278 C 613.85 1.27462 1.06502 0
M  V30 6279 O 615.035 1.56274 1.09467 0
M  V30 6280 C 612.175 3.06571 1.58456 0
M  V30 6281 C 611.288 4.20222 1.00189 0
M  V30 6282 C 610.423 4.88007 2.09815 0
M  V30 6283 C 609.462 5.93665 1.49092 0
M  V30 6284 N 608.599 6.55081 2.52613 0
M  V30 6285 H 613.439 2.975 -0.172595 0
M  V30 6286 H 610.976 1.4678 -0.0969426 0
M  V30 6287 H 612.934 3.51455 2.24801 0
M  V30 6288 H 611.564 2.37494 2.18624 0
M  V30 6289 H 610.616 3.79714 0.228292 0
M  V30 6290 H 611.928 4.96102 0.518064 0
M  V30 6291 H 611.082 5.36151 2.83948 0
M  V30 6292 H 609.821 4.11632 2.61555 0
M  V30 6293 H 608.826 5.44868 0.7348 0
M  V30 6294 H 610.051 6.71969 0.981582 0
M  V30 6295 H 607.997 5.8155 3.03538 0
M  V30 6296 H 607.914 7.26548 2.08961 0
M  V30 6297 H 609.182 7.07871 3.26402 0
M  V30 6298 N 613.412 0.11024 1.57214 0
M  V30 6299 C 614.322 -0.857077 2.18383 0
M  V30 6300 C 615.338 -1.29915 1.1575 0
M  V30 6301 O 616.514 -1.36394 1.48184 0
M  V30 6302 C 613.579 -2.09264 2.76423 0
M  V30 6303 C 612.64 -1.70333 3.94063 0
M  V30 6304 C 611.873 -2.87999 4.49324 0
M  V30 6305 O 612.096 -4.0317 4.03497 0
M  V30 6306 O 611.03 -2.6559 5.40135 0
M  V30 6307 H 614.856 -0.366561 3.0148 0
M  V30 6308 H 612.441 -0.114914 1.48957 0
M  V30 6309 H 614.323 -2.81644 3.13456 0
M  V30 6310 H 612.998 -2.57339 1.96363 0
M  V30 6311 H 611.905 -0.950864 3.61814 0
M  V30 6312 H 613.238 -1.27007 4.75531 0
M  V30 6313 N 614.89 -1.56749 -0.16351 0
M  V30 6314 C 616.301 -1.72039 -0.725216 0
M  V30 6315 C 616.652 -0.72202 -1.82432 0
M  V30 6316 O 615.777 0.114942 -2.16095 0
M  V30 6317 C 616.372 -3.11932 -1.32227 0
M  V30 6318 C 614.931 -3.28879 -1.83072 0
M  V30 6319 C 614.078 -2.67984 -0.712716 0
M  V30 6320 H 617.029 -1.58579 0.0619772 0
M  V30 6321 H 617.05 -3.11015 -2.19202 0
M  V30 6322 H 616.562 -3.84572 -0.522103 0
M  V30 6323 H 614.663 -2.61209 -2.65708 0
M  V30 6324 H 614.776 -4.36688 -1.97079 0
M  V30 6325 H 613.14 -2.28005 -1.13515 0
M  V30 6326 H 613.923 -3.43216 0.0757361 0
M  V30 6327 N 616.368 0.432326 -1.51554 0
M  V30 6328 C 617.3 1.54357 -1.6943 0
M  V30 6329 C 618.313 1.52311 -0.574897 0
M  V30 6330 O 619.502 1.56997 -0.849369 0
M  V30 6331 C 616.602 2.93273 -1.69836 0
M  V30 6332 C 615.775 3.19768 -2.98442 0
M  V30 6333 C 614.834 4.38433 -2.90969 0
M  V30 6334 O 613.86 4.36842 -3.64908 0
M  V30 6335 N 615.062 5.42276 -2.07163 0
M  V30 6336 H 617.827 1.39426 -2.65293 0
M  V30 6337 H 615.388 0.621331 -1.49503 0
M  V30 6338 H 617.38 3.70687 -1.62399 0
M  V30 6339 H 615.95 3.01777 -0.815456 0
M  V30 6340 H 615.17 2.30607 -3.19709 0
M  V30 6341 H 616.458 3.343 -3.83563 0
M  V30 6342 H 615.856 5.46407 -1.46477 0
M  V30 6343 H 614.413 6.18524 -2.05601 0
M  V30 6344 N 617.846 1.41785 0.688094 0
M  V30 6345 C 619.257 1.3701 1.26828 0
M  V30 6346 C 619.608 0.056835 1.96118 0
M  V30 6347 O 618.733 -0.84475 1.99231 0
M  V30 6348 C 619.328 2.48168 2.30648 0
M  V30 6349 C 617.887 2.46766 2.84224 0
M  V30 6350 C 617.034 2.27633 1.58361 0
M  V30 6351 H 619.985 1.51192 0.482351 0
M  V30 6352 H 620.006 2.17655 3.121 0
M  V30 6353 H 619.518 3.43735 1.80188 0
M  V30 6354 H 617.619 1.54978 3.3884 0
M  V30 6355 H 617.732 3.43342 3.34145 0
M  V30 6356 H 616.096 1.75648 1.84445 0
M  V30 6357 H 616.879 3.25238 1.09887 0
M  V30 6358 N 619.324 -0.923095 1.27737 0
M  V30 6359 C 620.234 -2.05765 1.12685 0
M  V30 6360 C 621.25 -1.73911 0.0557197 0
M  V30 6361 O 622.426 -1.99674 0.263137 0
M  V30 6362 C 619.491 -3.37804 0.780363 0
M  V30 6363 C 618.552 -3.83326 1.93286 0
M  V30 6364 C 617.785 -5.09064 1.60281 0
M  V30 6365 O 618.008 -5.6809 0.512828 0
M  V30 6366 O 616.942 -5.50071 2.44347 0
M  V30 6367 H 620.768 -2.21378 2.07907 0
M  V30 6368 H 618.353 -1.04299 1.06968 0
M  V30 6369 H 620.235 -4.17097 0.600668 0
M  V30 6370 H 618.91 -3.23387 -0.142291 0
M  V30 6371 H 617.817 -3.049 2.16764 0
M  V30 6372 H 619.15 -4.02292 2.83588 0
M  V30 6373 N 620.802 -1.09834 -1.13024 0
M  V30 6374 C 622.048 -0.83819 -1.84668 0
M  V30 6375 C 622.381 0.634645 -1.83537 0
M  V30 6376 O 621.656 1.46753 -1.27647 0
M  V30 6377 C 621.939 -1.37933 -3.32636 0
M  V30 6378 C 621.792 -2.91857 -3.42257 0
M  V30 6379 C 623.111 -1.01654 -4.28199 0
M  V30 6380 H 620.23 -0.30595 -0.670495 0
M  V30 6381 H 622.872 -1.36044 -1.32635 0
M  V30 6382 H 621.022 -0.935111 -3.77078 0
M  V30 6383 H 622.694 -3.44759 -3.06495 0
M  V30 6384 H 620.937 -3.28776 -2.83 0
M  V30 6385 H 621.608 -3.24799 -4.46329 0
M  V30 6386 H 624.084 -1.39973 -3.9185 0
M  V30 6387 H 622.96 -1.42217 -5.30156 0
M  V30 6388 H 623.221 0.0747794 -4.42037 0
M  V30 6389 N 622.28 1.30327 -0.886154 0
M  V30 6390 C 623.243 2.26376 -0.358687 0
M  V30 6391 C 624.243 1.52845 0.499498 0
M  V30 6392 O 625.433 1.71483 0.306485 0
M  V30 6393 C 622.565 3.37379 0.488726 0
M  V30 6394 H 623.758 2.74547 -1.20681 0
M  V30 6395 H 621.311 1.41536 -0.663113 0
M  V30 6396 H 622.046 2.94526 1.35739 0
M  V30 6397 H 621.831 3.91897 -0.126003 0
M  V30 6398 H 623.321 4.08868 0.84952 0
M  V30 6399 N 623.758 0.647228 1.43697 0
M  V30 6400 C 624.721 -0.0385101 2.29168 0
M  V30 6401 C 625.721 -0.756487 1.41894 0
M  V30 6402 O 626.911 -0.598641 1.63591 0
M  V30 6403 C 624.043 -1.06524 3.23829 0
M  V30 6404 H 625.236 0.713445 2.9129 0
M  V30 6405 H 622.789 0.408153 1.50877 0
M  V30 6406 H 623.524 -1.84664 2.66589 0
M  V30 6407 H 623.309 -0.554147 3.88164 0
M  V30 6408 H 624.799 -1.54432 3.87996 0
M  V30 6409 N 625.236 -1.5273 0.388769 0
M  V30 6410 C 626.199 -2.25043 -0.434544 0
M  V30 6411 C 627.199 -1.26661 -0.990644 0
M  V30 6412 O 628.389 -1.50762 -0.872731 0
M  V30 6413 C 625.521 -3.00507 -1.60961 0
M  V30 6414 H 626.714 -2.99242 0.198549 0
M  V30 6415 H 624.267 -1.55664 0.140875 0
M  V30 6416 H 625.002 -2.30607 -2.28015 0
M  V30 6417 H 624.787 -3.72716 -1.21757 0
M  V30 6418 H 626.277 -3.55413 -2.19251 0
M  V30 6419 N 626.714 -0.118576 -1.57153 0
M  V30 6420 C 627.624 0.845484 -2.18835 0
M  V30 6421 C 628.64 1.29299 -1.16438 0
M  V30 6422 O 629.816 1.35607 -1.48905 0
M  V30 6423 C 626.881 2.07795 -2.77529 0
M  V30 6424 C 625.942 1.6824 -3.9496 0
M  V30 6425 C 625.175 2.85612 -4.50845 0
M  V30 6426 O 625.398 4.01025 -4.05629 0
M  V30 6427 O 624.332 2.62721 -5.41536 0
M  V30 6428 H 628.158 0.350568 -3.0167 0
M  V30 6429 H 625.743 0.107013 -1.49016 0
M  V30 6430 H 627.625 2.79978 -3.14945 0
M  V30 6431 H 626.3 2.56294 -1.97725 0
M  V30 6432 H 625.207 0.931663 -3.62313 0
M  V30 6433 H 626.54 1.24484 -4.76198 0
M  V30 6434 N 628.193 1.56834 0.155195 0
M  V30 6435 C 629.103 2.009 1.21146 0
M  V30 6436 C 630.119 0.923029 1.475 0
M  V30 6437 O 631.295 1.23189 1.59331 0
M  V30 6438 C 628.36 2.37378 2.52691 0
M  V30 6439 C 627.421 3.59883 2.34057 0
M  V30 6440 C 626.654 3.94612 3.59329 0
M  V30 6441 O 626.877 3.30104 4.65175 0
M  V30 6442 O 625.811 4.87895 3.52479 0
M  V30 6443 H 629.637 2.9105 0.867371 0
M  V30 6444 H 627.222 1.44916 0.363298 0
M  V30 6445 H 629.104 2.61737 3.3026 0
M  V30 6446 H 627.779 1.50385 2.86646 0
M  V30 6447 H 626.686 3.40722 1.54465 0
M  V30 6448 H 628.019 4.47468 2.0502 0
M  V30 6449 N 629.671 -0.424282 1.51781 0
M  V30 6450 C 630.581 -1.54087 1.76902 0
M  V30 6451 C 631.597 -1.61249 0.653826 0
M  V30 6452 O 632.773 -1.78247 0.937552 0
M  V30 6453 C 629.838 -2.8996 1.90063 0
M  V30 6454 C 628.899 -2.92809 3.13945 0
M  V30 6455 C 628.132 -4.22201 3.26469 0
M  V30 6456 O 628.355 -5.15286 2.44616 0
M  V30 6457 O 627.289 -4.31599 4.1953 0
M  V30 6458 H 631.115 -1.358 2.71647 0
M  V30 6459 H 628.7 -0.608618 1.36441 0
M  V30 6460 H 630.582 -3.70575 2.0063 0
M  V30 6461 H 629.257 -3.08347 0.985067 0
M  V30 6462 H 628.164 -2.11102 3.08847 0
M  V30 6463 H 629.497 -2.79369 4.05233 0
M  V30 6464 N 631.149 -1.42148 -0.680565 0
M  V30 6465 C 632.096 -1.45175 -1.79424 0
M  V30 6466 C 633.066 -0.304352 -1.63288 0
M  V30 6467 O 634.251 -0.507591 -1.83924 0
M  V30 6468 C 631.391 -1.35429 -3.17416 0
M  V30 6469 C 630.504 -2.60158 -3.4488 0
M  V30 6470 C 629.639 -2.42596 -4.72568 0
M  V30 6471 C 628.678 -3.62727 -4.93047 0
M  V30 6472 N 627.815 -3.44143 -6.11973 0
M  V30 6473 H 632.655 -2.40349 -1.76172 0
M  V30 6474 H 630.192 -1.19334 -0.860107 0
M  V30 6475 H 632.15 -1.27777 -3.97151 0
M  V30 6476 H 630.78 -0.438536 -3.19807 0
M  V30 6477 H 629.832 -2.78199 -2.5944 0
M  V30 6478 H 631.144 -3.49473 -3.55908 0
M  V30 6479 H 630.298 -2.32497 -5.60384 0
M  V30 6480 H 629.037 -1.50761 -4.63813 0
M  V30 6481 H 628.042 -3.73264 -4.03676 0
M  V30 6482 H 629.267 -4.55534 -5.03652 0
M  V30 6483 H 627.213 -2.5502 -6.04401 0
M  V30 6484 H 627.13 -4.27041 -6.23836 0
M  V30 6485 H 628.398 -3.37845 -7.02482 0
M  V30 6486 N 632.627 0.916307 -1.28225 0
M  V30 6487 C 633.557 2.0352 -1.14464 0
M  V30 6488 C 634.538 1.70045 -0.0430844 0
M  V30 6489 O 635.723 1.92954 -0.219619 0
M  V30 6490 C 632.853 3.37889 -0.803027 0
M  V30 6491 C 631.807 3.85516 -1.85908 0
M  V30 6492 C 631.133 5.1682 -1.37116 0
M  V30 6493 C 632.433 4.07655 -3.26519 0
M  V30 6494 H 634.127 2.1529 -2.08064 0
M  V30 6495 H 631.673 1.03446 -1.00174 0
M  V30 6496 H 633.626 4.15654 -0.693537 0
M  V30 6497 H 632.35 3.26164 0.168674 0
M  V30 6498 H 631.009 3.09953 -1.95767 0
M  V30 6499 H 630.657 5.01497 -0.38859 0
M  V30 6500 H 630.357 5.49657 -2.07728 0
M  V30 6501 H 631.881 5.97143 -1.27484 0
M  V30 6502 H 633.295 4.75953 -3.19596 0
M  V30 6503 H 631.692 4.51818 -3.94943 0
M  V30 6504 H 632.762 3.12553 -3.70727 0
M  V30 6505 N 634.105 1.10431 1.1244 0
M  V30 6506 C 635.055 0.722378 2.16254 0
M  V30 6507 C 636.039 -0.268427 1.58645 0
M  V30 6508 O 637.231 -0.077169 1.76832 0
M  V30 6509 C 634.36 0.155763 3.42946 0
M  V30 6510 C 633.446 1.17361 4.07538 0
M  V30 6511 N 633.837 2.36429 4.47141 0
M  V30 6512 C 632.135 1.01412 4.34317 0
M  V30 6513 C 632.836 3.01259 4.97612 0
M  V30 6514 N 631.812 2.28777 4.93115 0
M  V30 6515 H 635.614 1.62876 2.4464 0
M  V30 6516 H 633.128 0.982031 1.29344 0
M  V30 6517 H 635.125 -0.135936 4.16678 0
M  V30 6518 H 633.785 -0.745339 3.1603 0
M  V30 6519 H 634.796 2.73954 4.39511 0
M  V30 6520 H 631.473 0.168574 4.1716 0
M  V30 6521 H 632.863 4.02541 5.37968 0
M  V30 6522 N 635.583 -1.29855 0.893053 0
M  V30 6523 C 636.53 -2.27909 0.364161 0
M  V30 6524 C 637.5 -1.56726 -0.550093 0
M  V30 6525 O 638.685 -1.84747 -0.47677 0
M  V30 6526 C 635.825 -3.42678 -0.408178 0
M  V30 6527 C 634.938 -4.28659 0.536212 0
M  V30 6528 C 634.073 -5.30599 -0.252521 0
M  V30 6529 C 633.112 -6.08234 0.686822 0
M  V30 6530 N 632.249 -7.02068 -0.0670902 0
M  V30 6531 H 637.089 -2.72531 1.20544 0
M  V30 6532 H 634.626 -1.34047 0.605779 0
M  V30 6533 H 636.584 -4.07986 -0.871962 0
M  V30 6534 H 635.214 -2.99103 -1.21397 0
M  V30 6535 H 634.266 -3.63584 1.1185 0
M  V30 6536 H 635.578 -4.8274 1.25552 0
M  V30 6537 H 634.732 -6.01694 -0.777801 0
M  V30 6538 H 633.471 -4.77233 -1.005 0
M  V30 6539 H 632.476 -5.3601 1.22366 0
M  V30 6540 H 633.701 -6.63689 1.43852 0
M  V30 6541 H 631.647 -6.5108 -0.801955 0
M  V30 6542 H 631.564 -7.53675 0.59243 0
M  V30 6543 H 632.832 -7.77392 -0.572851 0
M  V30 6544 N 637.061 -0.65484 -1.43351 0
M  V30 6545 C 638.472 -0.248506 -1.85039 0
M  V30 6546 C 638.823 1.20526 -1.54816 0
M  V30 6547 O 637.948 1.92016 -0.99794 0
M  V30 6548 C 638.543 -0.444241 -3.35875 0
M  V30 6549 C 637.102 -0.0922108 -3.76287 0
M  V30 6550 C 636.249 -0.746327 -2.67068 0
M  V30 6551 H 639.2 -0.8584 -1.33481 0
M  V30 6552 H 639.221 0.309762 -3.79237 0
M  V30 6553 H 638.733 -1.50239 -3.5784 0
M  V30 6554 H 636.834 0.96328 -3.59933 0
M  V30 6555 H 636.947 -0.518807 -4.76283 0
M  V30 6556 H 635.311 -0.179416 -2.54067 0
M  V30 6557 H 636.094 -1.80754 -2.91861 0
M  V30 6558 N 638.539 1.52521 -0.396863 0
M  V30 6559 C 639.95 1.86547 0.0754868 0
M  V30 6560 C 640.301 1.31621 1.45501 0
M  V30 6561 O 639.426 0.650563 2.0639 0
M  V30 6562 C 640.021 3.38495 0.143754 0
M  V30 6563 C 638.58 3.72205 0.560413 0
M  V30 6564 C 637.727 2.75954 -0.272856 0
M  V30 6565 H 640.678 1.46323 -0.614434 0
M  V30 6566 H 640.699 3.68153 0.961425 0
M  V30 6567 H 640.211 3.78442 -0.860415 0
M  V30 6568 H 638.312 3.3783 1.57167 0
M  V30 6569 H 638.425 4.78074 0.313314 0
M  V30 6570 H 636.789 2.53339 0.263 0
M  V30 6571 H 637.572 3.1874 -1.27515 0
M  V30 6572 N 640.017 0.126909 1.57088 0
M  V30 6573 C 640.98 -0.806097 2.14557 0
M  V30 6574 C 641.98 -1.18918 1.08236 0
M  V30 6575 O 643.17 -1.11339 1.33975 0
M  V30 6576 C 640.302 -2.09116 2.69227 0
M  V30 6577 H 641.495 -0.306522 2.98329 0
M  V30 6578 H 639.048 -0.122393 1.5582 0
M  V30 6579 H 639.783 -2.63486 1.89065 0
M  V30 6580 H 639.568 -1.82588 3.46993 0
M  V30 6581 H 641.058 -2.75794 3.13572 0
M  V30 6582 N 641.495 -1.56914 -0.146875 0
M  V30 6583 C 642.772 -1.74273 -0.888165 0
M  V30 6584 C 643.152 -0.69496 -1.99333 0
M  V30 6585 O 642.5 0.286093 -2.26702 0
M  V30 6586 C 642.71 -3.18336 -1.43051 0
M  V30 6587 C 644.058 -3.80024 -1.89387 0
M  V30 6588 O 645.082 -3.21765 -1.52792 0
M  V30 6589 O 643.941 -4.82367 -2.56874 0
M  V30 6590 H 641.035 -0.712565 -0.419738 0
M  V30 6591 H 643.581 -1.6918 -0.132791 0
M  V30 6592 H 642.353 -3.86092 -0.636274 0
M  V30 6593 H 641.976 -3.27854 -2.24938 0
M  V30 6594 N 642.974 0.416227 -1.52004 0
M  V30 6595 C 644.199 1.19029 -1.69843 0
M  V30 6596 C 644.624 1.83708 -0.404103 0
M  V30 6597 O 643.982 1.69711 0.637787 0
M  V30 6598 C 644.03 2.23439 -2.83032 0
M  V30 6599 O 643.134 3.29419 -2.48106 0
M  V30 6600 H 642.475 0.347785 -0.565634 0
M  V30 6601 H 645.005 0.488871 -1.98674 0
M  V30 6602 H 645.015 2.67884 -3.07737 0
M  V30 6603 H 643.69 1.75745 -3.76944 0
M  V30 6604 H 642.267 2.90303 -2.34048 0
M  V30 6605 N 644.452 1.42507 0.673017 0
M  V30 6606 C 645.7 1.42789 1.43023 0
M  V30 6607 C 646.021 0.0459738 1.94946 0
M  V30 6608 O 645.291 -0.915765 1.73178 0
M  V30 6609 H 643.871 0.525657 0.530748 0
M  V30 6610 H 646.533 1.77944 0.795113 0
M  V30 6611 H 645.629 2.12872 2.28237 0
M  V30 6612 N 645.93 -0.909495 1.28709 0
M  V30 6613 C 647.176 -1.66151 1.16283 0
M  V30 6614 C 647.509 -1.92067 -0.287069 0
M  V30 6615 O 646.784 -1.52409 -1.20837 0
M  V30 6616 C 647.067 -3.01676 1.9663 0
M  V30 6617 C 646.92 -2.82888 3.49707 0
M  V30 6618 C 648.239 -4.02274 1.78504 0
M  V30 6619 H 645.358 -0.602966 0.423793 0
M  V30 6620 H 648 -1.05418 1.58073 0
M  V30 6621 H 646.15 -3.53515 1.61119 0
M  V30 6622 H 647.822 -2.38026 3.95147 0
M  V30 6623 H 646.065 -2.17862 3.75125 0
M  V30 6624 H 646.736 -3.79147 4.01187 0
M  V30 6625 H 649.212 -3.59511 2.09503 0
M  V30 6626 H 648.088 -4.95056 2.37088 0
M  V30 6627 H 648.349 -4.35903 0.737647 0
M  V30 6628 N 647.408 -1.11026 -1.11852 0
M  V30 6629 C 648.685 -0.768347 -1.79877 0
M  V30 6630 C 649.065 0.744261 -1.97545 0
M  V30 6631 O 648.413 1.67271 -1.55669 0
M  V30 6632 C 648.623 -1.52648 -3.13846 0
M  V30 6633 C 649.971 -1.70297 -3.88953 0
M  V30 6634 O 650.995 -1.49037 -3.23522 0
M  V30 6635 O 649.854 -2.05593 -5.06353 0
M  V30 6636 H 646.948 -0.277891 -0.778913 0
M  V30 6637 H 649.494 -1.21343 -1.18633 0
M  V30 6638 H 648.266 -2.55564 -2.96315 0
M  V30 6639 H 647.889 -1.07466 -3.82801 0
M  V30 6640 N 648.886 1.2938 -0.899927 0
M  V30 6641 C 649.816 2.30144 -0.39446 0
M  V30 6642 C 650.797 1.61611 0.530639 0
M  V30 6643 O 651.982 1.89119 0.441319 0
M  V30 6644 C 649.112 3.45229 0.37868 0
M  V30 6645 C 648.066 4.25564 -0.456012 0
M  V30 6646 C 647.392 5.32848 0.444637 0
M  V30 6647 C 648.692 4.93651 -1.70605 0
M  V30 6648 H 650.386 2.72673 -1.23653 0
M  V30 6649 H 647.932 1.31086 -0.596034 0
M  V30 6650 H 649.885 4.14797 0.743037 0
M  V30 6651 H 648.609 3.01545 1.25453 0
M  V30 6652 H 647.268 3.57704 -0.802704 0
M  V30 6653 H 646.916 4.85408 1.31863 0
M  V30 6654 H 646.616 5.87497 -0.110154 0
M  V30 6655 H 648.14 6.05268 0.805182 0
M  V30 6656 H 649.554 5.55655 -1.41141 0
M  V30 6657 H 647.951 5.58233 -2.20217 0
M  V30 6658 H 649.021 4.18926 -2.4419 0
M  V30 6659 N 650.364 0.662433 1.43002 0
M  V30 6660 C 651.78 0.330835 1.56133 0
M  V30 6661 C 651.98 -1.16454 1.64441 0
M  V30 6662 O 651.036 -1.94964 1.60453 0
M  V30 6663 C 652.349 1.05029 2.81761 0
M  V30 6664 C 653.897 1.03142 2.95518 0
M  V30 6665 C 654.372 1.73196 4.2399 0
M  V30 6666 N 655.863 1.70004 4.30875 0
M  V30 6667 C 656.598 2.21074 5.29069 0
M  V30 6668 N 656.094 2.80473 6.33488 0
M  V30 6669 N 657.887 2.1152 5.20784 0
M  V30 6670 H 650.038 1.63272 1.35853 0
M  V30 6671 H 652.301 0.687149 0.653092 0
M  V30 6672 H 652.007 2.10542 2.81718 0
M  V30 6673 H 651.881 0.607664 3.72273 0
M  V30 6674 H 654.268 -0.0153339 2.95096 0
M  V30 6675 H 654.349 1.51282 2.0627 0
M  V30 6676 H 653.993 2.77833 4.25172 0
M  V30 6677 H 653.923 1.22515 5.1215 0
M  V30 6678 H 656.414 1.26667 3.56039 0
M  V30 6679 H 656.727 3.17094 7.04749 0
M  V30 6680 H 655.072 2.84538 6.34085 0
M  V30 6681 H 658.263 1.64814 4.38126 0
M  V30 6682 H 658.436 2.51629 5.97149 0
M  V30 6683 N 651.842 -1.52309 0.404946 0
M  V30 6684 C 652.752 -2.30634 -0.429555 0
M  V30 6685 C 653.768 -1.38187 -1.05737 0
M  V30 6686 O 654.944 -1.71261 -1.05979 0
M  V30 6687 C 652.009 -3.10947 -1.53339 0
M  V30 6688 C 651.07 -4.19126 -0.929065 0
M  V30 6689 C 650.303 -4.95601 -1.9803 0
M  V30 6690 O 650.526 -4.72331 -3.1978 0
M  V30 6691 O 649.46 -5.80551 -1.58886 0
M  V30 6692 H 653.286 -3.0298 0.208963 0
M  V30 6693 H 650.871 -1.4845 0.168255 0
M  V30 6694 H 652.753 -3.60974 -2.1743 0
M  V30 6695 H 651.428 -2.41399 -2.15658 0
M  V30 6696 H 650.335 -3.73257 -0.250982 0
M  V30 6697 H 651.668 -4.90955 -0.349855 0
M  V30 6698 N 653.32 -0.135238 -1.57019 0
M  V30 6699 C 654.566 0.519563 -1.96032 0
M  V30 6700 C 654.899 1.65284 -1.01955 0
M  V30 6701 O 654.174 1.94408 -0.059727 0
M  V30 6702 C 654.457 1.0369 -3.44848 0
M  V30 6703 C 654.31 -0.0940754 -4.49702 0
M  V30 6704 C 655.629 1.92254 -3.95887 0
M  V30 6705 H 652.748 0.18739 -0.712779 0
M  V30 6706 H 655.39 -0.214086 -1.8879 0
M  V30 6707 H 653.54 1.66209 -3.5115 0
M  V30 6708 H 655.212 -0.73 -4.55487 0
M  V30 6709 H 653.455 -0.754924 -4.27181 0
M  V30 6710 H 654.126 0.309419 -5.51132 0
M  V30 6711 H 656.602 1.39581 -3.9199 0
M  V30 6712 H 655.478 2.25364 -5.00502 0
M  V30 6713 H 655.739 2.85513 -3.37543 0
M  V30 6714 N 654.798 1.5699 0.138552 0
M  V30 6715 C 655.708 2.02174 1.19008 0
M  V30 6716 C 656.724 0.938622 1.46512 0
M  V30 6717 O 657.9 1.24872 1.58016 0
M  V30 6718 C 654.965 2.40045 2.50159 0
M  V30 6719 C 654.026 3.62346 2.30226 0
M  V30 6720 C 653.259 3.98401 3.55123 0
M  V30 6721 O 653.482 3.35019 4.61647 0
M  V30 6722 O 652.416 4.91606 3.47285 0
M  V30 6723 H 656.242 2.91954 0.836452 0
M  V30 6724 H 653.827 1.45293 0.347907 0
M  V30 6725 H 655.709 2.65225 3.27465 0
M  V30 6726 H 654.384 1.53417 2.85035 0
M  V30 6727 H 653.291 3.42341 1.50843 0
M  V30 6728 H 654.624 4.49617 2.00262 0
M  V30 6729 N 656.276 -0.40816 1.52223 0
M  V30 6730 C 657.226 -1.49648 1.72016 0
M  V30 6731 C 658.21 -1.50311 0.574069 0
M  V30 6732 O 659.402 -1.56271 0.831173 0
M  V30 6733 C 656.531 -2.87566 1.87512 0
M  V30 6734 C 655.617 -2.91547 3.07995 0
M  V30 6735 N 656.008 -2.65225 4.30685 0
M  V30 6736 C 654.306 -3.22715 3.07849 0
M  V30 6737 C 655.007 -2.75799 5.12162 0
M  V30 6738 N 653.983 -3.08719 4.4743 0
M  V30 6739 H 657.785 -1.28093 2.64517 0
M  V30 6740 H 655.299 -0.61588 1.50269 0
M  V30 6741 H 657.296 -3.65899 1.99809 0
M  V30 6742 H 655.956 -3.10118 0.962114 0
M  V30 6743 H 656.967 -2.39601 4.59142 0
M  V30 6744 H 653.644 -3.50856 2.26289 0
M  V30 6745 H 655.034 -2.59155 6.1991 0
M  V30 6746 N 657.755 -1.42862 -0.66545 0
M  V30 6747 C 659.002 -1.4383 -1.42546 0
M  V30 6748 C 659.33 -0.0581114 -1.94413 0
M  V30 6749 O 658.585 0.935002 -1.71919 0
M  V30 6750 C 658.884 -2.4175 -2.63233 0
M  V30 6751 C 658.55 -3.87915 -2.29854 0
M  V30 6752 C 657.212 -4.27726 -2.20463 0
M  V30 6753 C 659.564 -4.80074 -2.02924 0
M  V30 6754 C 656.892 -5.57666 -1.82279 0
M  V30 6755 C 659.244 -6.10366 -1.66242 0
M  V30 6756 C 657.908 -6.49167 -1.55367 0
M  V30 6757 H 657.178 -0.52631 -0.521612 0
M  V30 6758 H 659.825 -1.75863 -0.757914 0
M  V30 6759 H 658.13 -2.03077 -3.35063 0
M  V30 6760 H 659.827 -2.39759 -3.21429 0
M  V30 6761 H 656.417 -3.564 -2.3807 0
M  V30 6762 H 660.601 -4.50097 -2.09108 0
M  V30 6763 H 655.857 -5.8658 -1.72436 0
M  V30 6764 H 660.031 -6.81258 -1.44432 0
M  V30 6765 H 657.658 -7.49761 -1.2555 0
M  V30 6766 N 659.233 0.902656 -1.29189 0
M  V30 6767 C 660.163 2.02294 -1.16616 0
M  V30 6768 C 661.144 1.6999 -0.0611175 0
M  V30 6769 O 662.329 1.9271 -0.240072 0
M  V30 6770 C 659.459 3.37018 -0.83882 0
M  V30 6771 C 658.413 3.83522 -1.89986 0
M  V30 6772 C 657.739 5.15337 -1.42589 0
M  V30 6773 C 659.039 4.04169 -3.30824 0
M  V30 6774 H 660.733 2.13071 -2.10336 0
M  V30 6775 H 658.279 1.02378 -1.01266 0
M  V30 6776 H 660.232 4.14895 -0.737584 0
M  V30 6777 H 658.956 3.26325 0.134071 0
M  V30 6778 H 657.615 3.07859 -1.99043 0
M  V30 6779 H 657.263 5.01056 -0.441759 0
M  V30 6780 H 656.963 5.47423 -2.13547 0
M  V30 6781 H 658.487 5.95758 -1.3381 0
M  V30 6782 H 659.901 4.72537 -3.24626 0
M  V30 6783 H 658.298 4.47604 -3.99713 0
M  V30 6784 H 659.368 3.08604 -3.74021 0
M  V30 6785 N 660.711 1.11618 1.11262 0
M  V30 6786 C 661.658 0.7762 2.17356 0
M  V30 6787 C 662.628 -0.253152 1.6416 0
M  V30 6788 O 663.813 -0.129655 1.90359 0
M  V30 6789 C 660.953 0.227581 3.44349 0
M  V30 6790 C 660.066 1.31372 4.1154 0
M  V30 6791 C 659.201 0.72544 5.26223 0
M  V30 6792 C 658.24 1.7913 5.85302 0
M  V30 6793 N 657.377 1.22237 6.91377 0
M  V30 6794 H 662.217 1.68508 2.45783 0
M  V30 6795 H 659.754 0.841475 1.20655 0
M  V30 6796 H 661.712 -0.108483 4.17059 0
M  V30 6797 H 660.342 -0.644486 3.16301 0
M  V30 6798 H 659.394 1.7667 3.36885 0
M  V30 6799 H 660.706 2.12005 4.51504 0
M  V30 6800 H 659.86 0.339541 6.05749 0
M  V30 6801 H 658.599 -0.112188 4.87571 0
M  V30 6802 H 657.604 2.18648 5.04453 0
M  V30 6803 H 658.829 2.63199 6.26022 0
M  V30 6804 H 656.775 0.406423 6.5474 0
M  V30 6805 H 656.692 1.9654 7.30006 0
M  V30 6806 H 657.96 0.863426 7.74703 0
M  V30 6807 N 662.189 -1.289 0.906776 0
M  V30 6808 C 663.152 -2.25777 0.394656 0
M  V30 6809 C 664.152 -1.53621 -0.475119 0
M  V30 6810 O 665.342 -1.71949 -0.279165 0
M  V30 6811 C 662.474 -3.38113 -0.43499 0
M  V30 6812 H 663.667 -2.72592 1.25033 0
M  V30 6813 H 661.22 -1.40463 0.685547 0
M  V30 6814 H 661.955 -2.96648 -1.31036 0
M  V30 6815 H 661.74 -3.91647 0.188334 0
M  V30 6816 H 663.23 -4.10168 -0.784365 0
M  V30 6817 N 663.667 -0.670007 -1.42649 0
M  V30 6818 C 664.577 0.0114788 -2.34597 0
M  V30 6819 C 665.593 0.794055 -1.54825 0
M  V30 6820 O 666.769 0.737472 -1.87412 0
M  V30 6821 C 663.834 0.954436 -3.33304 0
M  V30 6822 C 662.895 0.166925 -4.28975 0
M  V30 6823 C 662.128 1.06497 -5.22967 0
M  V30 6824 O 662.351 2.30446 -5.21777 0
M  V30 6825 O 661.285 0.528347 -5.99577 0
M  V30 6826 H 665.111 -0.745794 -2.944 0
M  V30 6827 H 662.696 -0.430228 -1.43071 0
M  V30 6828 H 664.578 1.49589 -3.93956 0
M  V30 6829 H 663.253 1.69164 -2.7598 0
M  V30 6830 H 662.16 -0.418515 -3.71752 0
M  V30 6831 H 663.493 -0.531067 -4.89327 0
M  V30 6832 N 665.145 1.52092 -0.413018 0
M  V30 6833 C 666.556 1.86617 0.0556967 0
M  V30 6834 C 666.907 1.33156 1.44097 0
M  V30 6835 O 666.032 0.672417 2.05688 0
M  V30 6836 C 666.627 3.38628 0.107844 0
M  V30 6837 C 665.186 3.72778 0.520904 0
M  V30 6838 C 664.333 2.75649 -0.302109 0
M  V30 6839 H 667.284 1.45663 -0.629919 0
M  V30 6840 H 667.305 3.69152 0.922324 0
M  V30 6841 H 666.817 3.77508 -0.900506 0
M  V30 6842 H 664.918 3.39478 1.53575 0
M  V30 6843 H 665.031 4.7838 0.262591 0
M  V30 6844 H 663.395 2.53603 0.236115 0
M  V30 6845 H 664.178 3.17369 -1.30888 0
M  V30 6846 N 666.623 0.143563 1.56945 0
M  V30 6847 C 667.533 -0.810562 2.20152 0
M  V30 6848 C 668.549 -1.27431 1.1848 0
M  V30 6849 O 669.725 -1.33221 1.51044 0
M  V30 6850 C 666.79 -2.03353 2.80799 0
M  V30 6851 C 665.851 -1.61936 3.97587 0
M  V30 6852 C 665.084 -2.78403 4.55332 0
M  V30 6853 O 665.307 -3.94521 4.11958 0
M  V30 6854 O 664.241 -2.54073 5.45647 0
M  V30 6855 H 668.067 -0.30253 3.02189 0
M  V30 6856 H 665.652 -0.0832925 1.49168 0
M  V30 6857 H 667.534 -2.74932 3.19359 0
M  V30 6858 H 666.209 -2.53116 2.01777 0
M  V30 6859 H 665.116 -0.873904 3.6375 0
M  V30 6860 H 666.449 -1.16892 4.78118 0
M  V30 6861 N 668.101 -1.57061 -0.130224 0
M  V30 6862 C 669.048 -1.99517 -1.16024 0
M  V30 6863 C 670.018 -0.865452 -1.41771 0
M  V30 6864 O 671.203 -1.12882 -1.53826 0
M  V30 6865 C 668.343 -2.3951 -2.48453 0
M  V30 6866 C 667.456 -3.65848 -2.29737 0
M  V30 6867 C 666.591 -3.9487 -3.55318 0
M  V30 6868 C 665.63 -5.14426 -3.31711 0
M  V30 6869 N 664.767 -5.39375 -4.49466 0
M  V30 6870 H 669.607 -2.87305 -0.791194 0
M  V30 6871 H 667.144 -1.42129 -0.379195 0
M  V30 6872 H 669.102 -2.60731 -3.25692 0
M  V30 6873 H 667.732 -1.54779 -2.83272 0
M  V30 6874 H 666.784 -3.52307 -1.4347 0
M  V30 6875 H 668.096 -4.53241 -2.08263 0
M  V30 6876 H 667.25 -4.16679 -4.4098 0
M  V30 6877 H 665.989 -3.05931 -3.79813 0
M  V30 6878 H 664.994 -4.92473 -2.44439 0
M  V30 6879 H 666.219 -6.04933 -3.08598 0
M  V30 6880 H 664.165 -4.53391 -4.74102 0
M  V30 6881 H 664.082 -6.21069 -4.31055 0
M  V30 6882 H 665.35 -5.65694 -5.36293 0
M  V30 6883 N 669.579 0.400081 -1.52437 0
M  V30 6884 C 670.527 1.50851 -1.7705 0
M  V30 6885 C 671.521 1.56928 -0.637969 0
M  V30 6886 O 672.727 1.60226 -0.820212 0
M  V30 6887 H 669.102 0.50186 -0.560036 0
M  V30 6888 H 671.073 1.27281 -2.69893 0
M  V30 6889 C 669.822 2.88117 -1.94638 0
M  V30 6890 H 669.145 2.84187 -2.81208 0
M  V30 6891 H 670.585 3.64942 -2.15855 0
M  V30 6892 C 669.044 3.29206 -0.715899 0
M  V30 6893 O 669.574 4.01544 0.111944 0
M  V30 6894 N 667.78 2.85363 -0.549191 0
M  V30 6895 H 667.327 2.26664 -1.22397 0
M  V30 6896 H 667.285 3.13214 0.27278 0
M  V30 6897 N 671.057 1.43213 0.657864 0
M  V30 6898 C 672.305 1.44298 1.41501 0
M  V30 6899 C 672.626 0.0666478 1.94886 0
M  V30 6900 O 671.896 -0.897345 1.74139 0
M  V30 6901 H 670.476 0.531257 0.525143 0
M  V30 6902 H 673.138 1.78777 0.776195 0
M  V30 6903 H 672.234 2.1528 2.25966 0
M  V30 6904 N 672.536 -0.895792 1.29666 0
M  V30 6905 C 673.446 -2.03329 1.17024 0
M  V30 6906 C 674.462 -1.73753 0.0925962 0
M  V30 6907 O 675.638 -1.99071 0.305431 0
M  V30 6908 C 672.703 -3.36072 0.851841 0
M  V30 6909 C 671.764 -3.7914 2.01373 0
M  V30 6910 C 670.997 -5.05549 1.71043 0
M  V30 6911 O 671.22 -5.66874 0.633213 0
M  V30 6912 O 670.154 -5.44764 2.5596 0
M  V30 6913 H 673.98 -2.16918 2.12556 0
M  V30 6914 H 671.565 -1.02007 1.09156 0
M  V30 6915 H 673.447 -4.15729 0.689006 0
M  V30 6916 H 672.122 -3.23616 -0.0736634 0
M  V30 6917 H 671.029 -3.00233 2.23183 0
M  V30 6918 H 672.362 -3.96186 2.92058 0
M  V30 6919 N 674.014 -1.12206 -1.10668 0
M  V30 6920 C 675.26 -0.877172 -1.82848 0
M  V30 6921 C 675.593 0.595571 -1.84842 0
M  V30 6922 O 674.868 1.44013 -1.30731 0
M  V30 6923 C 675.151 -1.44957 -3.29635 0
M  V30 6924 C 675.004 -2.99051 -3.35989 0
M  V30 6925 C 676.323 -1.10714 -4.25946 0
M  V30 6926 H 673.442 -0.320103 -0.663854 0
M  V30 6927 H 676.084 -1.38827 -1.2972 0
M  V30 6928 H 674.234 -1.01488 -3.7501 0
M  V30 6929 H 675.906 -3.51182 -2.99113 0
M  V30 6930 H 674.149 -3.34705 -2.75962 0
M  V30 6931 H 674.82 -3.34194 -4.39339 0
M  V30 6932 H 677.296 -1.48254 -3.88793 0
M  V30 6933 H 676.172 -1.5343 -5.2702 0
M  V30 6934 H 676.433 -0.019 -4.42096 0
M  V30 6935 N 675.492 1.28418 -0.913599 0
M  V30 6936 C 676.738 1.9527 -0.547484 0
M  V30 6937 C 677.071 1.71745 0.906486 0
M  V30 6938 O 676.346 1.03834 1.64465 0
M  V30 6939 C 676.629 3.49748 -0.857205 0
M  V30 6940 C 676.482 3.82675 -2.3639 0
M  V30 6941 C 677.801 4.3868 -0.353258 0
M  V30 6942 H 674.92 0.709236 -0.200381 0
M  V30 6943 H 677.562 1.51789 -1.14281 0
M  V30 6944 H 675.712 3.86915 -0.350548 0
M  V30 6945 H 677.384 3.55378 -2.94116 0
M  V30 6946 H 675.627 3.29724 -2.81894 0
M  V30 6947 H 676.298 4.90547 -2.53115 0
M  V30 6948 H 678.774 4.08584 -0.787288 0
M  V30 6949 H 677.65 5.45621 -0.599049 0
M  V30 6950 H 677.911 4.35753 0.746413 0
M  V30 6951 N 676.97 0.677563 1.42291 0
M  V30 6952 C 677.92 -0.0218641 2.2799 0
M  V30 6953 C 678.904 -0.770816 1.41235 0
M  V30 6954 O 680.096 -0.649273 1.64662 0
M  V30 6955 C 677.225 -0.970449 3.29298 0
M  V30 6956 C 676.311 -0.218695 4.23536 0
M  V30 6957 N 676.702 0.777908 4.99782 0
M  V30 6958 C 675 -0.456748 4.43655 0
M  V30 6959 C 675.701 1.22632 5.68627 0
M  V30 6960 N 674.677 0.55573 5.40752 0
M  V30 6961 H 678.479 0.742516 2.84366 0
M  V30 6962 H 675.993 0.506862 1.54288 0
M  V30 6963 H 677.99 -1.48652 3.89497 0
M  V30 6964 H 676.65 -1.73463 2.74483 0
M  V30 6965 H 677.661 1.15754 5.04798 0
M  V30 6966 H 674.338 -1.20021 3.99877 0
M  V30 6967 H 675.728 2.05231 6.39789 0
M  V30 6968 N 678.448 -1.51871 0.421078 0
M  V30 6969 C 679.676 -2.06356 -0.14994 0
M  V30 6970 C 680.091 -1.29006 -1.37851 0
M  V30 6971 O 679.448 -0.345139 -1.79207 0
M  V30 6972 C 679.499 -3.58185 -0.488454 0
M  V30 6973 O 679.22 -4.32611 0.691341 0
M  V30 6974 C 680.721 -4.29129 -1.11191 0
M  V30 6975 H 677.941 -0.67083 -0.0151186 0
M  V30 6976 H 680.485 -1.95638 0.595476 0
M  V30 6977 H 678.64 -3.68871 -1.18376 0
M  V30 6978 H 679.054 -5.22927 0.405906 0
M  V30 6979 H 680.528 -5.36501 -1.29889 0
M  V30 6980 H 681.005 -3.86371 -2.0884 0
M  V30 6981 H 681.611 -4.22843 -0.456458 0
M  V30 6982 N 679.926 -0.151884 -1.56866 0
M  V30 6983 C 681.337 0.368128 -1.83035 0
M  V30 6984 C 681.688 1.64402 -1.07082 0
M  V30 6985 O 680.813 2.14056 -0.317647 0
M  V30 6986 C 681.408 0.674676 -3.32014 0
M  V30 6987 C 679.967 1.13919 -3.58747 0
M  V30 6988 C 679.114 0.164833 -2.7681 0
M  V30 6989 H 682.065 -0.376499 -1.54169 0
M  V30 6990 H 682.086 1.52883 -3.48435 0
M  V30 6991 H 681.598 -0.254113 -3.87267 0
M  V30 6992 H 679.699 2.08375 -3.08886 0
M  V30 6993 H 679.812 1.06179 -4.67186 0
M  V30 6994 H 678.176 0.658419 -2.46043 0
M  V30 6995 H 678.959 -0.757633 -3.34836 0
M  V30 6996 N 681.404 1.57128 0.121893 0
M  V30 6997 C 682.314 2.03425 1.16857 0
M  V30 6998 C 683.33 0.954108 1.45509 0
M  V30 6999 O 684.506 1.26541 1.56682 0
M  V30 7000 C 681.571 2.42685 2.47599 0
M  V30 7001 C 680.632 3.64767 2.2637 0
M  V30 7002 C 679.865 4.02145 3.50878 0
M  V30 7003 O 680.088 3.39897 4.58068 0
M  V30 7004 O 679.022 4.95262 3.42051 0
M  V30 7005 H 682.848 2.92825 0.80544 0
M  V30 7006 H 680.433 1.45654 0.332477 0
M  V30 7007 H 682.315 2.68684 3.24634 0
M  V30 7008 H 680.99 1.56432 2.83392 0
M  V30 7009 H 679.897 3.43922 1.47203 0
M  V30 7010 H 681.23 4.51716 1.95482 0
M  V30 7011 N 682.882 -0.391992 1.52647 0
M  V30 7012 C 684.11 -1.1586 1.71418 0
M  V30 7013 C 684.525 -1.8381 0.431216 0
M  V30 7014 O 683.882 -1.7256 -0.594085 0
M  V30 7015 C 683.933 -2.20888 2.86165 0
M  V30 7016 O 683.654 -1.5571 4.09495 0
M  V30 7017 C 685.155 -3.103 3.1659 0
M  V30 7018 H 682.375 -0.347494 0.574011 0
M  V30 7019 H 684.919 -0.458972 1.99283 0
M  V30 7020 H 683.074 -2.86492 2.6077 0
M  V30 7021 H 683.488 -2.25474 4.73563 0
M  V30 7022 H 684.962 -3.8003 4.00351 0
M  V30 7023 H 685.439 -3.73639 2.30848 0
M  V30 7024 H 686.045 -2.50345 3.43813 0
M  V30 7025 N 684.36 -1.4356 -0.65026 0
M  V30 7026 C 685.585 -1.48995 -1.44275 0
M  V30 7027 C 686.01 -0.109954 -1.87778 0
M  V30 7028 O 685.368 0.896926 -1.57559 0
M  V30 7029 C 685.416 -2.44341 -2.65198 0
M  V30 7030 O 684.52 -1.93172 -3.6436 0
M  V30 7031 H 683.861 -0.503852 -0.432469 0
M  V30 7032 H 686.391 -1.88504 -0.795446 0
M  V30 7033 H 686.401 -2.61743 -3.12977 0
M  V30 7034 H 685.076 -3.44588 -2.32877 0
M  V30 7035 H 683.653 -1.85445 -3.23519 0
M  V30 7036 N 685.838 0.888903 -1.30139 0
M  V30 7037 C 687.084 1.6428 -1.18912 0
M  V30 7038 C 687.417 1.92499 0.256477 0
M  V30 7039 O 686.692 1.54312 1.18397 0
M  V30 7040 C 686.975 2.9851 -2.01405 0
M  V30 7041 C 686.828 2.77288 -3.54163 0
M  V30 7042 C 688.147 3.99383 -1.84882 0
M  V30 7043 H 685.266 0.596148 -0.433333 0
M  V30 7044 H 687.908 1.0289 -1.5973 0
M  V30 7045 H 686.058 3.50907 -1.66722 0
M  V30 7046 H 687.73 2.31709 -3.98884 0
M  V30 7047 H 685.973 2.11867 -3.78543 0
M  V30 7048 H 686.644 3.72717 -4.07168 0
M  V30 7049 H 689.12 3.56132 -2.15196 0
M  V30 7050 H 687.996 4.91222 -2.44934 0
M  V30 7051 H 688.257 4.34674 -0.806902 0
M  V30 7052 O 687.355 1.24817 1.02483 0
M  V30 7053 H 688.046 1.02783 1.64181 0
M  V30 END ATOM
M  V30 BEGIN BOND
M  V30 END BOND
M  V30 END CTAB
M  END
$$$$
