53472683
  -OEChem-05212010183D

 93 99  0     1  0  0  0  0  0999 V2000
   -2.2777   -2.3024    1.7320 O   0  0  0  0  0  0  0  0  0  0  0  0
   -0.1372   -0.8974   -1.8520 O   0  0  0  0  0  0  0  0  0  0  0  0
    6.7107   -3.9110   -0.3611 O   0  0  0  0  0  0  0  0  0  0  0  0
   -6.7311   -1.0424   -0.1371 N   0  0  0  0  0  0  0  0  0  0  0  0
  -10.8659   -0.1890   -0.6258 N   0  0  0  0  0  0  0  0  0  0  0  0
   -3.9378   -1.4640    0.3404 N   0  0  0  0  0  0  0  0  0  0  0  0
    1.5354   -1.9185   -0.6089 N   0  0  0  0  0  0  0  0  0  0  0  0
   -0.4170   -1.0608    0.4176 N   0  0  0  0  0  0  0  0  0  0  0  0
    8.2148   -2.1957   -0.1303 N   0  0  0  0  0  0  0  0  0  0  0  0
    1.6332    4.9392   -0.3155 N   0  0  0  0  0  0  0  0  0  0  0  0
    0.8641    5.6732   -1.1369 N   0  0  0  0  0  0  0  0  0  0  0  0
   -8.0484   -0.4630    0.1158 C   0  0  0  0  0  0  0  0  0  0  0  0
   -8.5026    0.4018   -1.0637 C   0  0  0  0  0  0  0  0  0  0  0  0
   -9.0729   -1.5701    0.3764 C   0  0  0  0  0  0  0  0  0  0  0  0
   -5.7550    0.0116   -0.4505 C   0  0  0  0  0  0  0  0  0  0  0  0
   -6.2828   -1.8305    1.0202 C   0  0  0  0  0  0  0  0  0  0  0  0
   -9.9270    0.9195   -0.8480 C   0  0  0  0  0  0  0  0  0  0  0  0
  -10.4788   -0.9879    0.5453 C   0  0  0  0  0  0  0  0  0  0  0  0
   -4.3789   -0.5868   -0.7480 C   0  0  0  0  0  0  0  0  0  0  0  0
   -4.9207   -2.4673    0.7468 C   0  0  0  0  0  0  0  0  0  0  0  0
    4.4233   -2.2532   -0.4150 C   0  0  0  0  0  0  0  0  0  0  0  0
   -2.6591   -1.4798    0.8955 C   0  0  0  0  0  0  0  0  0  0  0  0
   -1.7074   -0.4082    0.4268 C   0  0  1  0  0  0  0  0  0  0  0  0
  -12.2291    0.3182   -0.4714 C   0  0  0  0  0  0  0  0  0  0  0  0
    3.5672   -1.8990    0.8086 C   0  0  0  0  0  0  0  0  0  0  0  0
    3.7520   -1.7228   -1.6890 C   0  0  0  0  0  0  0  0  0  0  0  0
    2.1258   -2.3880    0.6537 C   0  0  0  0  0  0  0  0  0  0  0  0
    2.3197   -2.2355   -1.8056 C   0  0  0  0  0  0  0  0  0  0  0  0
   -1.7500    0.7987    1.3625 C   0  0  0  0  0  0  0  0  0  0  0  0
    5.8137   -1.7122   -0.2740 C   0  0  0  0  0  0  0  0  0  0  0  0
    0.2988   -1.2657   -0.7560 C   0  0  0  0  0  0  0  0  0  0  0  0
   -0.7824    1.8827    0.9548 C   0  0  0  0  0  0  0  0  0  0  0  0
    6.0747   -0.4004   -0.1628 C   0  0  0  0  0  0  0  0  0  0  0  0
    6.9376   -2.7061   -0.2603 C   0  0  0  0  0  0  0  0  0  0  0  0
    7.4425    0.0942   -0.0268 C   0  0  0  0  0  0  0  0  0  0  0  0
    0.5189    1.8728    1.4601 C   0  0  0  0  0  0  0  0  0  0  0  0
    8.4956   -0.8246   -0.0133 C   0  0  0  0  0  0  0  0  0  0  0  0
   -1.2053    2.8852    0.0729 C   0  0  0  0  0  0  0  0  0  0  0  0
    1.4418    2.8614    1.1034 C   0  0  0  0  0  0  0  0  0  0  0  0
   -0.2897    3.8853   -0.2947 C   0  0  0  0  0  0  0  0  0  0  0  0
    1.0001    3.8516    0.2232 C   0  0  0  0  0  0  0  0  0  0  0  0
    7.7209    1.4593    0.0896 C   0  0  0  0  0  0  0  0  0  0  0  0
    9.8172   -0.3927    0.1148 C   0  0  0  0  0  0  0  0  0  0  0  0
    2.8250    2.8264    1.6593 C   0  0  0  0  0  0  0  0  0  0  0  0
    9.0416    1.8944    0.2180 C   0  0  0  0  0  0  0  0  0  0  0  0
   -0.3048    5.0290   -1.1217 C   0  0  0  0  0  0  0  0  0  0  0  0
   10.0871    0.9705    0.2305 C   0  0  0  0  0  0  0  0  0  0  0  0
   -8.0060    0.1803    1.0074 H   0  0  0  0  0  0  0  0  0  0  0  0
   -9.0744   -2.2962   -0.4476 H   0  0  0  0  0  0  0  0  0  0  0  0
   -8.4582   -0.1684   -2.0012 H   0  0  0  0  0  0  0  0  0  0  0  0
   -7.8773    1.2921   -1.1865 H   0  0  0  0  0  0  0  0  0  0  0  0
   -8.8636   -2.1203    1.2989 H   0  0  0  0  0  0  0  0  0  0  0  0
   -6.9507   -2.6687    1.2348 H   0  0  0  0  0  0  0  0  0  0  0  0
   -6.2232   -1.2042    1.9201 H   0  0  0  0  0  0  0  0  0  0  0  0
   -5.6749    0.7294    0.3766 H   0  0  0  0  0  0  0  0  0  0  0  0
   -6.0215    0.5626   -1.3566 H   0  0  0  0  0  0  0  0  0  0  0  0
  -10.2245    1.4827   -1.7411 H   0  0  0  0  0  0  0  0  0  0  0  0
   -9.9416    1.6193   -0.0018 H   0  0  0  0  0  0  0  0  0  0  0  0
  -10.5210   -0.3841    1.4617 H   0  0  0  0  0  0  0  0  0  0  0  0
  -11.1805   -1.8215    0.6725 H   0  0  0  0  0  0  0  0  0  0  0  0
   -4.5779   -3.0044    1.6373 H   0  0  0  0  0  0  0  0  0  0  0  0
   -4.9924   -3.1981   -0.0684 H   0  0  0  0  0  0  0  0  0  0  0  0
   -4.4084   -1.1953   -1.6600 H   0  0  0  0  0  0  0  0  0  0  0  0
   -3.7050    0.2476   -0.9313 H   0  0  0  0  0  0  0  0  0  0  0  0
    4.4407   -3.3475   -0.4902 H   0  0  0  0  0  0  0  0  0  0  0  0
   -1.9025   -0.0976   -0.5966 H   0  0  0  0  0  0  0  0  0  0  0  0
    4.0020   -2.3393    1.7145 H   0  0  0  0  0  0  0  0  0  0  0  0
    3.5412   -0.8126    0.9637 H   0  0  0  0  0  0  0  0  0  0  0  0
    4.3210   -2.0315   -2.5745 H   0  0  0  0  0  0  0  0  0  0  0  0
    3.7263   -0.6255   -1.6906 H   0  0  0  0  0  0  0  0  0  0  0  0
  -12.9372   -0.5101   -0.3563 H   0  0  0  0  0  0  0  0  0  0  0  0
  -12.3290    0.9807    0.3960 H   0  0  0  0  0  0  0  0  0  0  0  0
  -12.5375    0.8715   -1.3654 H   0  0  0  0  0  0  0  0  0  0  0  0
    1.5669   -2.0736    1.5334 H   0  0  0  0  0  0  0  0  0  0  0  0
    2.0988   -3.4839    0.6293 H   0  0  0  0  0  0  0  0  0  0  0  0
    2.3122   -3.3264   -1.9178 H   0  0  0  0  0  0  0  0  0  0  0  0
    1.8542   -1.8166   -2.7032 H   0  0  0  0  0  0  0  0  0  0  0  0
   -2.7666    1.2124    1.3973 H   0  0  0  0  0  0  0  0  0  0  0  0
   -1.5321    0.4924    2.3951 H   0  0  0  0  0  0  0  0  0  0  0  0
   -0.1030   -1.4402    1.2996 H   0  0  0  0  0  0  0  0  0  0  0  0
    5.2802    0.3390   -0.1698 H   0  0  0  0  0  0  0  0  0  0  0  0
    8.9969   -2.8443   -0.1179 H   0  0  0  0  0  0  0  0  0  0  0  0
    0.8257    1.0843    2.1452 H   0  0  0  0  0  0  0  0  0  0  0  0
   -2.2169    2.8917   -0.3224 H   0  0  0  0  0  0  0  0  0  0  0  0
    6.9197    2.1942    0.0821 H   0  0  0  0  0  0  0  0  0  0  0  0
   10.6385   -1.1039    0.1257 H   0  0  0  0  0  0  0  0  0  0  0  0
    2.7934    2.8748    2.7528 H   0  0  0  0  0  0  0  0  0  0  0  0
    3.4365    3.6623    1.3073 H   0  0  0  0  0  0  0  0  0  0  0  0
    3.3264    1.8993    1.3622 H   0  0  0  0  0  0  0  0  0  0  0  0
    9.2555    2.9556    0.3084 H   0  0  0  0  0  0  0  0  0  0  0  0
   -1.1209    5.4185   -1.7138 H   0  0  0  0  0  0  0  0  0  0  0  0
   11.1127    1.3139    0.3306 H   0  0  0  0  0  0  0  0  0  0  0  0
    2.5883    5.2392   -0.1656 H   0  0  0  0  0  0  0  0  0  0  0  0
  1 22  2  0  0  0  0
  2 31  2  0  0  0  0
  3 34  2  0  0  0  0
  4 12  1  0  0  0  0
  4 15  1  0  0  0  0
  4 16  1  0  0  0  0
  5 17  1  0  0  0  0
  5 18  1  0  0  0  0
  5 24  1  0  0  0  0
  6 19  1  0  0  0  0
  6 20  1  0  0  0  0
  6 22  1  0  0  0  0
  7 27  1  0  0  0  0
  7 28  1  0  0  0  0
  7 31  1  0  0  0  0
  8 23  1  0  0  0  0
  8 31  1  0  0  0  0
  8 80  1  0  0  0  0
  9 34  1  0  0  0  0
  9 37  1  0  0  0  0
  9 82  1  0  0  0  0
 10 11  1  0  0  0  0
 10 41  1  0  0  0  0
 10 93  1  0  0  0  0
 11 46  2  0  0  0  0
 12 13  1  0  0  0  0
 12 14  1  0  0  0  0
 12 48  1  0  0  0  0
 13 17  1  0  0  0  0
 13 50  1  0  0  0  0
 13 51  1  0  0  0  0
 14 18  1  0  0  0  0
 14 49  1  0  0  0  0
 14 52  1  0  0  0  0
 15 19  1  0  0  0  0
 15 55  1  0  0  0  0
 15 56  1  0  0  0  0
 16 20  1  0  0  0  0
 16 53  1  0  0  0  0
 16 54  1  0  0  0  0
 17 57  1  0  0  0  0
 17 58  1  0  0  0  0
 18 59  1  0  0  0  0
 18 60  1  0  0  0  0
 19 63  1  0  0  0  0
 19 64  1  0  0  0  0
 20 61  1  0  0  0  0
 20 62  1  0  0  0  0
 21 25  1  0  0  0  0
 21 26  1  0  0  0  0
 21 30  1  0  0  0  0
 21 65  1  0  0  0  0
 22 23  1  0  0  0  0
 23 29  1  0  0  0  0
 23 66  1  0  0  0  0
 24 71  1  0  0  0  0
 24 72  1  0  0  0  0
 24 73  1  0  0  0  0
 25 27  1  0  0  0  0
 25 67  1  0  0  0  0
 25 68  1  0  0  0  0
 26 28  1  0  0  0  0
 26 69  1  0  0  0  0
 26 70  1  0  0  0  0
 27 74  1  0  0  0  0
 27 75  1  0  0  0  0
 28 76  1  0  0  0  0
 28 77  1  0  0  0  0
 29 32  1  0  0  0  0
 29 78  1  0  0  0  0
 29 79  1  0  0  0  0
 30 33  2  0  0  0  0
 30 34  1  0  0  0  0
 32 36  1  0  0  0  0
 32 38  2  0  0  0  0
 33 35  1  0  0  0  0
 33 81  1  0  0  0  0
 35 37  1  0  0  0  0
 35 42  2  0  0  0  0
 36 39  2  0  0  0  0
 36 83  1  0  0  0  0
 37 43  2  0  0  0  0
 38 40  1  0  0  0  0
 38 84  1  0  0  0  0
 39 41  1  0  0  0  0
 39 44  1  0  0  0  0
 40 41  2  0  0  0  0
 40 46  1  0  0  0  0
 42 45  1  0  0  0  0
 42 85  1  0  0  0  0
 43 47  1  0  0  0  0
 43 86  1  0  0  0  0
 44 87  1  0  0  0  0
 44 88  1  0  0  0  0
 44 89  1  0  0  0  0
 45 47  2  0  0  0  0
 45 90  1  0  0  0  0
 46 91  1  0  0  0  0
 47 92  1  0  0  0  0
M  END
> <DATABASE_ID>
DB15688

> <DATABASE_NAME>
drugbank

> <ORIGINAL_SOURCE>
PUBCHEM

> <ORIGINAL_SOURCE_URL>
https://pubchem.ncbi.nlm.nih.gov/rest/pug/compound/inchikey/JJVAPHYEOZSKJZ-JGCGQSQUSA-N/SDF?record_type=3d

> <SMILES>
CN1CCC(CC1)N1CCN(CC1)C(=O)[C@@H](CC1=CC2=C(NN=C2)C(C)=C1)NC(=O)N1CCC(CC1)C1=CC2=C(NC1=O)C=CC=C2

> <INCHI_IDENTIFIER>
InChI=1S/C36H46N8O3/c1-24-19-25(20-28-23-37-40-33(24)28)21-32(35(46)43-17-15-42(16-18-43)29-9-11-41(2)12-10-29)39-36(47)44-13-7-26(8-14-44)30-22-27-5-3-4-6-31(27)38-34(30)45/h3-6,19-20,22-23,26,29,32H,7-18,21H2,1-2H3,(H,37,40)(H,38,45)(H,39,47)/t32-/m1/s1

> <INCHI_KEY>
JJVAPHYEOZSKJZ-JGCGQSQUSA-N

> <FORMULA>
C36H46N8O3

> <MOLECULAR_WEIGHT>
638.817

> <EXACT_MASS>
638.369287373

> <JCHEM_ACCEPTOR_COUNT>
6

> <JCHEM_ATOM_COUNT>
93

> <JCHEM_AVERAGE_NEUTRAL_MICROSPECIES_CHARGE>
3.2751155617016607

> <JCHEM_AVERAGE_POLARIZABILITY>
71.31723208209868

> <JCHEM_BIOAVAILABILITY>
1

> <JCHEM_DONOR_COUNT>
3

> <JCHEM_FORMAL_CHARGE>
0

> <JCHEM_GHOSE_FILTER>
0

> <JCHEM_IUPAC>
N-[(2R)-3-(7-methyl-1H-indazol-5-yl)-1-[4-(1-methylpiperidin-4-yl)piperazin-1-yl]-1-oxopropan-2-yl]-4-(2-oxo-1,2-dihydroquinolin-3-yl)piperidine-1-carboxamide

> <ALOGPS_LOGP>
2.85

> <JCHEM_LOGP>
2.1383015653333337

> <ALOGPS_LOGS>
-3.96

> <JCHEM_MDDR_LIKE_RULE>
1

> <JCHEM_NEUTRAL_CHARGE>
1

> <JCHEM_NUMBER_OF_RINGS>
7

> <JCHEM_PHYSIOLOGICAL_CHARGE>
1

> <JCHEM_PKA>
13.658134778837482

> <JCHEM_PKA_STRONGEST_ACIDIC>
12.376538995321646

> <JCHEM_PKA_STRONGEST_BASIC>
8.810192006712974

> <JCHEM_POLAR_SURFACE_AREA>
116.91

> <JCHEM_REFRACTIVITY>
186.52599999999998

> <JCHEM_ROTATABLE_BOND_COUNT>
6

> <JCHEM_RULE_OF_FIVE>
0

> <ALOGPS_SOLUBILITY>
6.96e-02 g/l

> <JCHEM_TRADITIONAL_IUPAC>
N-[(2R)-3-(7-methyl-1H-indazol-5-yl)-1-[4-(1-methylpiperidin-4-yl)piperazin-1-yl]-1-oxopropan-2-yl]-4-(2-oxo-1H-quinolin-3-yl)piperidine-1-carboxamide

> <JCHEM_VEBER_RULE>
0

> <DRUGBANK_ID>
DB15688

> <DRUG_GROUPS>
investigational

> <GENERIC_NAME>
Vazegepant

> <SYNONYMS>
1-piperidinecarboxamide, 4-(1,2-dihydro-2-oxo-3-quinolinyl)-n-((1r)-1-((7-methyl-1h-indazol-5-yl)methyl)-2-(4-(1-methyl-4-piperidinyl)-1-piperazinyl)-2-oxoethyl)-

$$$$